data_POSCAR
  _audit_creation_date              2014-09-24
  _audit_creation_method            'ToBaCCo'
  _symmetry_space_group_name_H-M    'P1'
  _symmetry_Int_Tables_number       1
  _symmetry_cell_setting            triclinic
  loop_
  _symmetry_equiv_pos_as_xyz
 x,y,z
_cell_length_a 72.8511
_cell_length_b 72.8221
_cell_length_c 72.8560
_cell_angle_alpha 90.054700
_cell_angle_beta 90.048300
_cell_angle_gamma 90.028200
loop_
  _atom_site_label
  _atom_site_type_symbol
  _atom_site_fract_x
  _atom_site_fract_y
  _atom_site_fract_z
N1 N 0.29919 0.43856 0.90052
 N2 N 0.31232 0.45096 0.90050
 C3 C 0.31008 0.46202 0.88586
 C4 C 0.29476 0.45628 0.87624
 C5 C 0.28815 0.44134 0.88595
 H6 H 0.31903 0.47332 0.88228
 H7 H 0.27637 0.43294 0.88260
 Cu8 Cu 0.33119 0.45119 0.91946
 Cu9 Cu 0.29767 0.41938 0.91909
 Cu10 Cu 0.33156 0.41911 0.95255
 N11 N 0.35026 0.45077 0.93824
 N12 N 0.35027 0.43814 0.95113
 C13 C 0.36488 0.44070 0.96214
 C14 C 0.37460 0.45573 0.95586
 C15 C 0.36490 0.46184 0.94063
 H16 H 0.36829 0.43219 0.97383
 H17 H 0.36830 0.47327 0.93182
 N18 N 0.31149 0.40099 0.95173
 N19 N 0.29853 0.40111 0.93905
 C20 C 0.28712 0.38684 0.94199
 C21 C 0.29325 0.37731 0.95724
 C22 C 0.30868 0.38665 0.96303
 H23 H 0.27548 0.38345 0.93343
 H24 H 0.31736 0.38300 0.97451
 H25 H 0.31093 0.43375 0.93961
 H26 H 0.32542 0.41866 0.92480
 N27 N 0.43886 0.85048 0.45046
 N28 N 0.45137 0.85050 0.43747
 C29 C 0.46255 0.86507 0.43993
 C30 C 0.45673 0.87464 0.45529
 C31 C 0.44164 0.86494 0.46165
 H32 H 0.47397 0.86863 0.43115
 H33 H 0.43310 0.86819 0.47332
 Cu34 Cu 0.45131 0.83165 0.41843
 Cu35 Cu 0.41944 0.83210 0.45170
 Cu36 Cu 0.41925 0.79858 0.41784
 N37 N 0.45127 0.81268 0.39951
 N38 N 0.43858 0.79984 0.39943
 C39 C 0.44119 0.78877 0.38487
 C40 C 0.45630 0.79494 0.37527
 C41 C 0.46242 0.81018 0.38493
 H42 H 0.43259 0.77720 0.38133
 H43 H 0.47390 0.81892 0.38148
 N44 N 0.40089 0.79960 0.43766
 N45 N 0.40096 0.81231 0.45059
 C46 C 0.38657 0.80947 0.46185
 C47 C 0.37700 0.79424 0.45565
 C48 C 0.38644 0.78837 0.44033
 H49 H 0.38316 0.81802 0.47348
 H50 H 0.38285 0.77685 0.43167
 H51 H 0.43372 0.81153 0.43852
 H52 H 0.41874 0.82632 0.42394
 N53 N 0.93765 0.90105 0.79939
 N54 N 0.95069 0.90121 0.81187
 C55 C 0.96209 0.88697 0.80881
 C56 C 0.95578 0.87742 0.79359
 C57 C 0.94026 0.88673 0.78802
 H58 H 0.97387 0.88364 0.81719
 H59 H 0.93142 0.88317 0.77663
 Cu60 Cu 0.95097 0.91973 0.83119
 Cu61 Cu 0.91805 0.91920 0.79888
 Cu62 Cu 0.91867 0.95260 0.83282
 N63 N 0.95128 0.93861 0.85015
 N64 N 0.93862 0.95146 0.85061
 C65 C 0.94168 0.96254 0.86508
 C66 C 0.95712 0.95626 0.87428
 C67 C 0.96285 0.94107 0.86440
 H68 H 0.93307 0.97406 0.86871
 H69 H 0.97446 0.93237 0.86754
 N70 N 0.89965 0.95143 0.81360
 N71 N 0.89945 0.93873 0.80065
 C72 C 0.88479 0.94149 0.78974
 C73 C 0.87530 0.95664 0.79615
 C74 C 0.88507 0.96256 0.81128
 H75 H 0.88120 0.93296 0.77813
 H76 H 0.88167 0.97410 0.81998
 H77 H 0.93266 0.93984 0.81172
 H78 H 0.91820 0.92489 0.82668
 N79 N 0.43713 -0.10043 0.29977
 N80 N 0.45008 -0.10039 0.31233
 C81 C 0.46113 -0.11497 0.30963
 C82 C 0.45468 -0.12463 0.29456
 C83 C 0.43945 -0.11503 0.28868
 H84 H 0.47287 -0.11834 0.31805
 H85 H 0.43069 -0.11848 0.27719
 Cu86 Cu 0.45122 -0.08123 0.33090
 Cu87 Cu 0.41817 -0.08163 0.29874
 Cu88 Cu 0.42021 -0.04703 0.33141
 N89 N 0.45204 -0.06191 0.34931
 N90 N 0.44018 -0.04832 0.34913
 C91 C 0.44387 -0.03684 0.36315
 C92 C 0.45883 -0.04368 0.37264
 C93 C 0.46360 -0.05962 0.36356
 H94 H 0.43592 -0.02475 0.36646
 H95 H 0.47458 -0.06890 0.36726
 N96 N 0.40104 -0.04824 0.31235
 N97 N 0.40026 -0.06143 0.29994
 C98 C 0.38547 -0.05873 0.28919
 C99 C 0.37649 -0.04308 0.29515
 C100 C 0.38672 -0.03681 0.30983
 H101 H 0.38141 -0.06765 0.27805
 H102 H 0.38374 -0.02490 0.31818
 H103 H 0.43363 -0.06107 0.31083
 H104 H 0.41868 -0.07489 0.32638
 N105 N 0.79978 0.31295 0.35002
 N106 N 0.81238 0.30003 0.34982
 C107 C 0.80970 0.28878 0.36425
 C108 C 0.79460 0.29504 0.37396
 C109 C 0.78870 0.31038 0.36455
 H110 H 0.81822 0.27709 0.36754
 H111 H 0.77724 0.31911 0.36815
 Cu112 Cu 0.83122 0.29941 0.33090
 Cu113 Cu 0.79881 0.33229 0.33163
 Cu114 Cu 0.83258 0.33195 0.29816
 N115 N 0.85038 0.29972 0.31229
 N116 N 0.85075 0.31241 0.29947
 C117 C 0.86535 0.30957 0.28853
 C118 C 0.87466 0.29426 0.29487
 C119 C 0.86480 0.28839 0.30995
 H120 H 0.86899 0.31816 0.27701
 H121 H 0.86806 0.27680 0.31863
 N122 N 0.81301 0.35057 0.29915
 N123 N 0.80011 0.35068 0.31186
 C124 C 0.78896 0.36515 0.30898
 C125 C 0.79518 0.37458 0.29372
 C126 C 0.81042 0.36499 0.28787
 H127 H 0.77735 0.36866 0.31750
 H128 H 0.81905 0.36843 0.27631
 H129 H 0.81161 0.31776 0.31091
 H130 H 0.82662 0.33219 0.32591
 N131 N -0.18803 0.85080 0.79868
 N132 N -0.20074 0.85063 0.81148
 C133 C -0.21179 0.86528 0.80922
 C134 C -0.20573 0.87517 0.79421
 C135 C -0.19058 0.86555 0.78781
 H136 H -0.22335 0.86865 0.81790
 H137 H -0.18190 0.86901 0.77629
 Cu138 Cu -0.20153 0.83137 0.82998
 Cu139 Cu -0.16886 0.83212 0.79737
 Cu140 Cu -0.16960 0.79806 0.83064
 N141 N -0.20162 0.81231 0.84870
 N142 N -0.18916 0.79926 0.84880
 C143 C -0.19223 0.78803 0.86314
 C144 C -0.20746 0.79441 0.87256
 C145 C -0.21303 0.80983 0.86303
 H146 H -0.18381 0.77631 0.86657
 H147 H -0.22446 0.81865 0.86647
 N148 N -0.15092 0.79915 0.81112
 N149 N -0.15067 0.81203 0.79838
 C150 C -0.13621 0.80909 0.78721
 C151 C -0.12695 0.79362 0.79326
 C152 C -0.13664 0.78773 0.80842
 H153 H -0.13256 0.81773 0.77574
 H154 H -0.13334 0.77603 0.81693
 H155 H -0.18359 0.81142 0.80990
 H156 H -0.16886 0.82593 0.82506
 N157 N 0.95111 0.35051 0.43826
 N158 N 0.93845 0.35034 0.45112
 C159 C 0.94093 0.36496 0.46221
 C160 C 0.95594 0.37480 0.45599
 C161 C 0.96211 0.36519 0.44074
 H162 H 0.93239 0.36837 0.47386
 H163 H 0.97352 0.36863 0.43192
 Cu164 Cu 0.91977 0.33118 0.45168
 Cu165 Cu 0.95213 0.33193 0.41893
 Cu166 Cu 0.91878 0.29784 0.41994
 N167 N 0.90106 0.31205 0.45224
 N168 N 0.90085 0.29901 0.43976
 C169 C 0.88651 0.28778 0.44289
 C170 C 0.87718 0.29414 0.45817
 C171 C 0.88677 0.30957 0.46373
 H172 H 0.88300 0.27610 0.43442
 H173 H 0.88337 0.31842 0.47515
 N174 N 0.93808 0.29901 0.40103
 N175 N 0.95080 0.31193 0.40064
 C176 C 0.96176 0.30907 0.38602
 C177 C 0.95559 0.29362 0.37678
 C178 C 0.94060 0.28764 0.38666
 H179 H 0.97320 0.31773 0.38226
 H180 H 0.93207 0.27591 0.38343
 H181 H 0.92445 0.32567 0.41901
 H182 H 0.93968 0.31123 0.43366
 N183 N 0.45084 0.43787 0.84988
 N184 N 0.43797 0.45052 0.84994
 C185 C 0.44054 0.46167 0.86447
 C186 C 0.45580 0.45569 0.87397
 C187 C 0.46205 0.44055 0.86434
 H188 H 0.43185 0.47314 0.86810
 H189 H 0.47362 0.43190 0.86771
 Cu190 Cu 0.41884 0.45076 0.83135
 Cu191 Cu 0.45178 0.41851 0.83149
 Cu192 Cu 0.41781 0.41891 0.79806
 N193 N 0.39999 0.45105 0.81246
 N194 N 0.39970 0.43853 0.79945
 C195 C 0.38521 0.44160 0.78839
 C196 C 0.37592 0.45687 0.79487
 C197 C 0.38566 0.46250 0.81013
 H198 H 0.38163 0.43315 0.77672
 H199 H 0.38237 0.47397 0.81897
 N200 N 0.43735 0.40023 0.79901
 N201 N 0.45032 0.40013 0.81169
 C202 C 0.46139 0.38561 0.80882
 C203 C 0.45506 0.37613 0.79362
 C204 C 0.43983 0.38576 0.78778
 H205 H 0.47300 0.38207 0.81735
 H206 H 0.43112 0.38227 0.77627
 H207 H 0.43870 0.43310 0.81107
 H208 H 0.42401 0.41816 0.82579
 N209 N 0.79875 0.90077 0.93813
 N210 N 0.81171 0.90080 0.95071
 C211 C 0.80908 0.88647 0.96211
 C212 C 0.79364 0.87698 0.95629
 C213 C 0.78748 0.88643 0.94108
 H214 H 0.81791 0.88301 0.97351
 H215 H 0.77576 0.88295 0.93265
 Cu216 Cu 0.83108 0.91919 0.95035
 Cu217 Cu 0.79767 0.91898 0.91857
 Cu218 Cu 0.83201 0.95197 0.91799
 N219 N 0.85022 0.93782 0.95004
 N220 N 0.85048 0.95054 0.93724
 C221 C 0.86525 0.96134 0.93974
 C222 C 0.87477 0.95511 0.95486
 C223 C 0.86487 0.94014 0.96113
 H224 H 0.86897 0.97280 0.93108
 H225 H 0.86821 0.93144 0.97266
 N226 N 0.81207 0.95110 0.89973
 N227 N 0.79896 0.93858 0.89996
 C228 C 0.78763 0.94150 0.88563
 C229 C 0.79397 0.95656 0.87594
 C230 C 0.80944 0.96227 0.88526
 H231 H 0.77583 0.93311 0.88236
 H232 H 0.81823 0.97365 0.88155
 H233 H 0.82555 0.92436 0.91775
 H234 H 0.81127 0.93952 0.93267
 N235 N 0.29925 0.85036 0.31158
 N236 N 0.31218 0.85028 0.29899
 C237 C 0.30983 0.86489 0.28788
 C238 C 0.29460 0.87456 0.29389
 C239 C 0.28827 0.86495 0.30892
 H240 H 0.31865 0.86832 0.27647
 H241 H 0.27661 0.86848 0.31739
 Cu242 Cu 0.33094 0.83124 0.29864
 Cu243 Cu 0.29772 0.83184 0.33075
 Cu244 Cu 0.33140 0.79829 0.33093
 N245 N 0.34998 0.81247 0.29917
 N246 N 0.35000 0.79963 0.31185
 C247 C 0.36454 0.78856 0.30927
 C248 C 0.37417 0.79473 0.29420
 C249 C 0.36457 0.80997 0.28807
 H250 H 0.36798 0.77692 0.31781
 H251 H 0.36801 0.81867 0.27658
 N252 N 0.31145 0.79920 0.34910
 N253 N 0.29855 0.81192 0.34901
 C254 C 0.28714 0.80900 0.36326
 C255 C 0.29321 0.79371 0.37275
 C256 C 0.30861 0.78788 0.36342
 H257 H 0.27552 0.81757 0.36664
 H258 H 0.31722 0.77634 0.36702
 H259 H 0.32546 0.82611 0.33124
 H260 H 0.31076 0.81125 0.31635
 N261 N 0.79891 0.40056 0.43867
 N262 N 0.81186 0.40077 0.45123
 C263 C 0.80926 0.38659 0.46281
 C264 C 0.79383 0.37708 0.45724
 C265 C 0.78758 0.38631 0.44184
 H266 H 0.81797 0.38327 0.47436
 H267 H 0.77590 0.38282 0.43338
 Cu268 Cu 0.83082 0.41952 0.45116
 Cu269 Cu 0.79795 0.41845 0.41885
 Cu270 Cu 0.83200 0.45173 0.41815
 N271 N 0.84997 0.43805 0.45047
 N272 N 0.85027 0.45070 0.43762
 C273 C 0.86482 0.46177 0.44035
 C274 C 0.87413 0.45565 0.45575
 C275 C 0.86436 0.44060 0.46179
 H276 H 0.86840 0.47323 0.43165
 H277 H 0.86764 0.43212 0.47352
 N278 N 0.81229 0.45039 0.39968
 N279 N 0.79935 0.43770 0.39993
 C280 C 0.78824 0.44017 0.38537
 C281 C 0.79444 0.45511 0.37552
 C282 C 0.80973 0.46128 0.38497
 H283 H 0.77657 0.43164 0.38197
 H284 H 0.81850 0.47266 0.38129
 H285 H 0.82579 0.42409 0.41846
 H286 H 0.81114 0.43943 0.43284
 N287 N 0.93798 0.85018 -0.04983
 N288 N 0.95066 0.84992 -0.06265
 C289 C 0.96193 0.86439 -0.06028
 C290 C 0.95603 0.87418 -0.04519
 C291 C 0.94076 0.86479 -0.03885
 H292 H 0.97350 0.86773 -0.06895
 H293 H 0.93216 0.86838 -0.02733
 Cu294 Cu 0.95086 0.83091 -0.08132
 Cu295 Cu 0.91856 0.83181 -0.04854
 Cu296 Cu 0.91887 0.79778 -0.08195
 N297 N 0.95108 0.81178 -0.09988
 N298 N 0.93851 0.79883 -0.10003
 C299 C 0.94156 0.78756 -0.11436
 C300 C 0.95685 0.79386 -0.12369
 C301 C 0.96252 0.80923 -0.11416
 H302 H 0.93305 0.77591 -0.11786
 H303 H 0.97400 0.81798 -0.11760
 N304 N 0.90022 0.79912 -0.06243
 N305 N 0.90015 0.81199 -0.04965
 C306 C 0.88572 0.80921 -0.03844
 C307 C 0.87627 0.79387 -0.04451
 C308 C 0.88580 0.78787 -0.05972
 H309 H 0.88223 0.81787 -0.02692
 H310 H 0.88234 0.77621 -0.06823
 H311 H 0.93300 0.81102 -0.06125
 H312 H 0.91823 0.82560 -0.07625
 N313 N 0.29972 0.35068 0.81179
 N314 N 0.31258 0.35044 0.79913
 C315 C 0.31034 0.36504 0.78801
 C316 C 0.29529 0.37491 0.79398
 C317 C 0.28886 0.36540 0.80913
 H318 H 0.31907 0.36842 0.77650
 H319 H 0.27733 0.36897 0.81774
 Cu320 Cu 0.33115 0.33123 0.79856
 Cu321 Cu 0.29829 0.33220 0.83106
 Cu322 Cu 0.33174 0.29838 0.83092
 N323 N 0.35002 0.31230 0.79889
 N324 N 0.35012 0.29951 0.81161
 C325 C 0.36462 0.28840 0.80895
 C326 C 0.37414 0.29449 0.79377
 C327 C 0.36451 0.30972 0.78767
 H328 H 0.36815 0.27681 0.81753
 H329 H 0.36790 0.31841 0.77615
 N330 N 0.31203 0.29947 0.84933
 N331 N 0.29922 0.31229 0.84938
 C332 C 0.28797 0.30944 0.86378
 C333 C 0.29404 0.29409 0.87320
 C334 C 0.30928 0.28816 0.86368
 H335 H 0.27643 0.31807 0.86729
 H336 H 0.31784 0.27655 0.86716
 H337 H 0.32599 0.32625 0.83125
 H338 H 0.31099 0.31148 0.81657
 N339 N 0.15058 0.56212 0.54863
 N340 N 0.15062 0.54935 0.56139
 C341 C 0.13621 0.53805 0.55862
 C342 C 0.12669 0.54413 0.54330
 C343 C 0.13619 0.55940 0.53736
 H344 H 0.13276 0.52651 0.56727
 H345 H 0.13272 0.56802 0.52579
 Cu346 Cu 0.16923 0.54929 0.58066
 Cu347 Cu 0.16889 0.58159 0.54770
 Cu348 Cu 0.20230 0.58145 0.58158
 N349 N 0.18827 0.54917 0.59950
 N350 N 0.20109 0.56189 0.59973
 C351 C 0.21220 0.55910 0.61420
 C352 C 0.20611 0.54383 0.62358
 C353 C 0.19085 0.53781 0.61389
 H354 H 0.22378 0.56768 0.61782
 H355 H 0.18213 0.52628 0.61722
 N356 N 0.20126 0.60008 0.56203
 N357 N 0.18858 0.60011 0.54908
 C358 C 0.19142 0.61461 0.53796
 C359 C 0.20662 0.62414 0.54427
 C360 C 0.21248 0.61456 0.55951
 H361 H 0.18290 0.61809 0.52633
 H362 H 0.22400 0.61807 0.56819
 H363 H 0.18939 0.56708 0.56077
 H364 H 0.17458 0.58196 0.57547
 N365 N 0.60024 0.68773 0.04907
 N366 N 0.60000 0.70057 0.06176
 C367 C 0.61465 0.71164 0.05944
 C368 C 0.62454 0.70532 0.04447
 C369 C 0.61500 0.69016 0.03827
 H370 H 0.61795 0.72326 0.06807
 H371 H 0.61865 0.68148 0.02679
 Cu372 Cu 0.58066 0.70136 0.08018
 Cu373 Cu 0.58164 0.66861 0.04756
 Cu374 Cu 0.54765 0.66904 0.08075
 N375 N 0.56160 0.70119 0.09892
 N376 N 0.54881 0.68846 0.09905
 C377 C 0.53757 0.69130 0.11341
 C378 C 0.54357 0.70664 0.12278
 C379 C 0.55890 0.71261 0.11324
 H380 H 0.52593 0.68278 0.11690
 H381 H 0.56756 0.72420 0.11658
 N382 N 0.54876 0.65053 0.06108
 N383 N 0.56163 0.65042 0.04835
 C384 C 0.55873 0.63609 0.03700
 C385 C 0.54329 0.62674 0.04294
 C386 C 0.53737 0.63624 0.05821
 H387 H 0.56739 0.63257 0.02549
 H388 H 0.52567 0.63282 0.06667
 H389 H 0.56086 0.68326 0.06009
 H390 H 0.57550 0.66864 0.07525
 N391 N 0.68702 0.20103 0.64955
 N392 N 0.69963 0.18812 0.64946
 C393 C 0.71059 0.19051 0.63476
 C394 C 0.70443 0.20573 0.62518
 C395 C 0.68947 0.21202 0.63493
 H396 H 0.72197 0.18169 0.63120
 H397 H 0.68088 0.22364 0.63150
 Cu398 Cu 0.69996 0.16922 0.66832
 Cu399 Cu 0.66819 0.20259 0.66844
 Cu400 Cu 0.66890 0.16915 0.70231
 N401 N 0.70033 0.15053 0.68738
 N402 N 0.68813 0.15067 0.70068
 C403 C 0.69119 0.13632 0.71188
 C404 C 0.70613 0.12664 0.70522
 C405 C 0.71156 0.13602 0.68967
 H406 H 0.68293 0.13307 0.72376
 H407 H 0.72276 0.13239 0.68064
 N408 N 0.65056 0.18902 0.70156
 N409 N 0.65035 0.20180 0.68872
 C410 C 0.63614 0.21320 0.69183
 C411 C 0.62699 0.20727 0.70736
 C412 C 0.63646 0.19194 0.71314
 H413 H 0.63255 0.22474 0.68323
 H414 H 0.63311 0.18343 0.72482
 H415 H 0.68306 0.18957 0.68874
 H416 H 0.66756 0.17487 0.67455
 N417 N 1.10020 0.06171 0.20030
 N418 N 1.09989 0.04890 0.18758
 C419 C 1.11433 0.03759 0.19007
 C420 C 1.12415 0.04373 0.20518
 C421 C 1.11480 0.05903 0.21127
 H422 H 1.11754 0.02596 0.18143
 H423 H 1.11848 0.06765 0.22281
 Cu424 Cu 1.08070 0.04849 0.16896
 Cu425 Cu 1.08185 0.08109 0.20164
 Cu426 Cu 1.04791 0.08098 0.16830
 N427 N 1.06175 0.04882 0.15011
 N428 N 1.04901 0.06160 0.14998
 C429 C 1.03776 0.05881 0.13560
 C430 C 1.04370 0.04346 0.12623
 C431 C 1.05900 0.03743 0.13578
 H432 H 1.02613 0.06735 0.13211
 H433 H 1.06758 0.02580 0.13246
 N434 N 1.04912 0.09944 0.18800
 N435 N 1.06208 0.09952 0.20068
 C436 C 1.05938 0.11396 0.21191
 C437 C 1.04402 0.12337 0.20607
 C438 C 1.03782 0.11379 0.19087
 H439 H 1.06804 0.11757 0.22343
 H440 H 1.02615 0.11715 0.18235
 H441 H 1.06096 0.06664 0.18897
 H442 H 1.07572 0.08122 0.17393
 N443 N 0.06034 0.15114 1.04857
 N444 N 0.04778 0.15159 1.06151
 C445 C 0.03629 0.13725 1.05921
 C446 C 0.04193 0.12738 1.04401
 C447 C 0.05726 0.13660 1.03760
 H448 H 0.02478 0.13402 1.06801
 H449 H 0.06578 0.13290 1.02604
 Cu450 Cu 0.04817 0.17072 1.08022
 Cu451 Cu 0.08015 0.16906 1.04713
 Cu452 Cu 0.08096 0.20313 1.08046
 N453 N 0.04863 0.18988 1.09888
 N454 N 0.06158 0.20246 1.09891
 C455 C 0.05913 0.21369 1.11338
 C456 C 0.04384 0.20790 1.12295
 C457 C 0.03747 0.19272 1.11337
 H458 H 0.06796 0.22512 1.11688
 H459 H 0.02584 0.18419 1.11684
 N460 N 0.09933 0.20144 1.06063
 N461 N 0.09904 0.18843 1.04800
 C462 C 0.11349 0.19073 1.03671
 C463 C 0.12330 0.20590 1.04245
 C464 C 0.11395 0.21238 1.05767
 H465 H 0.11682 0.18194 1.02522
 H466 H 0.11762 0.22401 1.06613
 H467 H 0.08090 0.17532 1.07480
 H468 H 0.06630 0.19020 1.05993
 N469 N 0.15041 0.70241 0.68743
 N470 N 0.15050 0.68982 0.70035
 C471 C 0.13603 0.69257 0.71153
 C472 C 0.12639 0.70770 0.70520
 C473 C 0.13590 0.71356 0.68991
 H474 H 0.13261 0.68404 0.72316
 H475 H 0.13235 0.72499 0.68113
 Cu476 Cu 0.16923 0.67078 0.70077
 Cu477 Cu 0.16878 0.70319 0.66804
 Cu478 Cu 0.20244 0.66950 0.66886
 N479 N 0.18818 0.65195 0.70121
 N480 N 0.20117 0.65161 0.68869
 C481 C 0.21226 0.63717 0.69184
 C482 C 0.20584 0.62795 0.70717
 C483 C 0.19055 0.63768 0.71272
 H484 H 0.22388 0.63353 0.68338
 H485 H 0.18171 0.63439 0.72417
 N486 N 0.20134 0.68883 0.64994
 N487 N 0.18855 0.70167 0.64966
 C488 C 0.19131 0.71258 0.63500
 C489 C 0.20656 0.70627 0.62561
 C490 C 0.21255 0.69124 0.63545
 H491 H 0.18270 0.72408 0.63133
 H492 H 0.22413 0.68259 0.63209
 H493 H 0.17469 0.67539 0.66806
 H494 H 0.18939 0.69044 0.68273
 N495 N 1.18871 0.15065 0.20102
 N496 N 1.20105 0.15058 0.18786
 C497 C 1.21240 0.13616 0.19034
 C498 C 1.20679 0.12678 0.20590
 C499 C 1.19174 0.13634 0.21226
 H500 H 1.22371 0.13267 0.18141
 H501 H 1.18355 0.13302 0.22418
 Cu502 Cu 1.20082 0.16939 0.16886
 Cu503 Cu 1.16949 0.16911 0.20265
 Cu504 Cu 1.16873 0.20253 0.16882
 N505 N 1.20012 0.18805 0.14973
 N506 N 1.18753 0.20098 0.14989
 C507 C 1.18996 0.21201 0.13530
 C508 C 1.20487 0.20574 0.12546
 C509 C 1.21103 0.19047 0.13498
 H510 H 1.18145 0.22372 0.13198
 H511 H 1.22244 0.18170 0.13139
 N512 N 1.15090 0.20173 0.18913
 N513 N 1.15114 0.18893 0.20194
 C514 C 1.13700 0.19175 0.21349
 C515 C 1.12745 0.20704 0.20772
 C516 C 1.13661 0.21306 0.19222
 H517 H 1.13366 0.18318 0.22513
 H518 H 1.13296 0.22456 0.18361
 H519 H 1.16839 0.17485 0.17491
 H520 H 1.18368 0.18967 0.18922
 N521 N 0.64950 1.04957 0.56230
 N522 N 0.64958 1.06241 0.54962
 C523 C 0.63513 1.05985 0.53834
 C524 C 0.62553 1.04458 0.54436
 C525 C 0.63501 1.03845 0.55955
 H526 H 0.63171 1.06860 0.52688
 H527 H 0.63147 1.02684 0.56809
 Cu528 Cu 0.66826 1.08146 0.54966
 Cu529 Cu 0.66790 1.04841 0.58167
 Cu530 Cu 0.70126 1.08249 0.58178
 N531 N 0.68692 1.10055 0.54970
 N532 N 0.69981 1.10087 0.56234
 C533 C 0.71077 1.11547 0.55946
 C534 C 0.70437 1.12482 0.54419
 C535 C 0.68923 1.11498 0.53838
 H536 H 0.72238 1.11907 0.56799
 H537 H 0.68049 1.11826 0.52684
 N538 N 0.70033 1.06263 0.60021
 N539 N 0.68770 1.04962 0.60008
 C540 C 0.69070 1.03819 0.61430
 C541 C 0.70594 1.04433 0.62385
 C542 C 0.71166 1.05983 0.61456
 H543 H 0.68227 1.02644 0.61757
 H544 H 0.72319 1.06848 0.61815
 H545 H 0.67358 1.07621 0.58228
 H546 H 0.68849 1.06163 0.56743
 N547 N 0.56252 0.54893 0.15005
 N548 N 0.54978 0.56171 0.15015
 C549 C 0.53862 0.55918 0.13562
 C550 C 0.54465 0.54402 0.12597
 C551 C 0.55988 0.53782 0.13551
 H552 H 0.52701 0.56777 0.13216
 H553 H 0.56854 0.52628 0.13207
 Cu554 Cu 0.54909 0.58044 0.16917
 Cu555 Cu 0.58179 0.54786 0.16855
 Cu556 Cu 0.58125 0.58152 0.20225
 N557 N 0.54916 0.59941 0.18797
 N558 N 0.56169 0.59966 0.20095
 C559 C 0.55870 0.61414 0.21204
 C560 C 0.54346 0.62349 0.20562
 C561 C 0.53778 0.61380 0.19033
 H562 H 0.56719 0.61769 0.22369
 H563 H 0.52631 0.61715 0.18153
 N564 N 0.59991 0.56198 0.20124
 N565 N 0.60008 0.54912 0.18846
 C566 C 0.61455 0.53799 0.19135
 C567 C 0.62392 0.54418 0.20669
 C568 C 0.61429 0.55938 0.21257
 H569 H 0.61813 0.52643 0.18276
 H570 H 0.61769 0.56800 0.22418
 H571 H 0.56717 0.56061 0.18919
 H572 H 0.58178 0.57564 0.17445
 N573 N 0.65099 0.68912 0.20109
 N574 N 0.65113 0.70160 0.18805
 C575 C 0.63668 0.71291 0.19039
 C576 C 0.62703 0.70726 0.20571
 C577 C 0.63651 0.69210 0.21217
 H578 H 0.63322 0.72430 0.18152
 H579 H 0.63302 0.68363 0.22384
 Cu580 Cu 0.66993 0.70129 0.16905
 Cu581 Cu 0.66926 0.66957 0.20247
 Cu582 Cu 0.70264 0.66895 0.16848
 N583 N 0.68871 0.70097 0.15002
 N584 N 0.70142 0.68815 0.14991
 C585 C 0.71239 0.69060 0.13527
 C586 C 0.70629 0.70574 0.12566
 C587 C 0.69120 0.71203 0.13539
 H588 H 0.72387 0.68189 0.13171
 H589 H 0.68255 0.72358 0.13197
 N590 N 0.70160 0.65073 0.18844
 N591 N 0.68897 0.65097 0.20143
 C592 C 0.69188 0.63670 0.21286
 C593 C 0.70707 0.62707 0.20671
 C594 C 0.71283 0.63633 0.19124
 H595 H 0.68342 0.63344 0.22459
 H596 H 0.72430 0.63264 0.18259
 H597 H 0.68992 0.68357 0.18919
 H598 H 0.67492 0.66867 0.17472
 N599 N 0.15046 0.06187 1.04942
 N600 N 0.15094 0.04894 1.06198
 C601 C 0.13653 0.03758 1.05946
 C602 C 0.12659 0.04381 1.04449
 C603 C 0.13582 0.05921 1.03850
 H604 H 0.13341 0.02586 1.06801
 H605 H 0.13198 0.06795 1.02714
 Cu606 Cu 0.17016 0.04851 1.08056
 Cu607 Cu 0.16844 0.08155 1.04836
 Cu608 Cu 0.20217 0.08190 1.08184
 N609 N 0.18900 0.04918 1.09952
 N610 N 0.20139 0.06231 1.09994
 C611 C 0.21252 0.05970 1.11445
 C612 C 0.20687 0.04412 1.12359
 C613 C 0.19186 0.03775 1.11378
 H614 H 0.22385 0.06855 1.11819
 H615 H 0.18352 0.02589 1.11688
 N616 N 0.20065 0.10051 1.06231
 N617 N 0.18780 0.10034 1.04954
 C618 C 0.19025 0.11485 1.03838
 C619 C 0.20535 0.12460 1.04437
 C620 C 0.21165 0.11513 1.05959
 H621 H 0.18161 0.11826 1.02679
 H622 H 0.22322 0.11870 1.06816
 H623 H 0.18961 0.06743 1.06097
 H624 H 0.17438 0.08142 1.07615
 N625 N 0.59928 0.20120 0.56070
 N626 N 0.59887 0.18823 0.54814
 C627 C 0.61331 0.19041 0.53679
 C628 C 0.62323 0.20556 0.54253
 C629 C 0.61392 0.21208 0.55776
 H630 H 0.61656 0.18158 0.52531
 H631 H 0.61760 0.22367 0.56628
 Cu632 Cu 0.57965 0.16962 0.54825
 Cu633 Cu 0.58110 0.20283 0.58024
 Cu634 Cu 0.54672 0.16982 0.58042
 N635 N 0.56023 0.15121 0.54833
 N636 N 0.54746 0.15137 0.56106
 C637 C 0.53605 0.13707 0.55839
 C638 C 0.54192 0.12745 0.54316
 C639 C 0.55735 0.13679 0.53708
 H640 H 0.52444 0.13375 0.56701
 H641 H 0.56599 0.13320 0.52558
 N642 N 0.54831 0.18960 0.59882
 N643 N 0.56143 0.20212 0.59882
 C644 C 0.55898 0.21338 0.61329
 C645 C 0.54359 0.20773 0.62279
 C646 C 0.53715 0.19261 0.61324
 H647 H 0.56782 0.22477 0.61686
 H648 H 0.52542 0.18422 0.61668
 H649 H 0.57464 0.17522 0.58088
 H650 H 0.56016 0.19021 0.56599
 N651 N 0.10000 0.56218 0.70129
 N652 N 0.09975 0.54937 0.68857
 C653 C 0.11397 0.53785 0.69136
 C654 C 0.12358 0.54386 0.70665
 C655 C 0.11435 0.55930 0.71255
 H656 H 0.11724 0.52622 0.68273
 H657 H 0.11798 0.56793 0.72409
 Cu658 Cu 0.08120 0.54953 0.66931
 Cu659 Cu 0.08201 0.58189 0.70219
 Cu660 Cu 0.04853 0.58213 0.66835
 N661 N 0.06221 0.54965 0.65050
 N662 N 0.04955 0.56251 0.65018
 C663 C 0.03845 0.55973 0.63568
 C664 C 0.04441 0.54431 0.62641
 C665 C 0.05955 0.53822 0.63617
 H666 H 0.02697 0.56839 0.63199
 H667 H 0.06814 0.52655 0.63297
 N668 N 0.04984 0.60076 0.68795
 N669 N 0.06262 0.60067 0.70081
 C670 C 0.06008 0.61523 0.71192
 C671 C 0.04501 0.62493 0.70580
 C672 C 0.03882 0.61538 0.69057
 H673 H 0.06864 0.61871 0.72354
 H674 H 0.02732 0.61892 0.68189
 H675 H 0.06122 0.56763 0.68910
 H676 H 0.07623 0.58228 0.67439
 N677 N 0.65098 0.54866 0.06084
 N678 N 0.65105 0.56159 0.04826
 C679 C 0.63660 0.55909 0.03697
 C680 C 0.62702 0.54378 0.04273
 C681 C 0.63653 0.53747 0.05795
 H682 H 0.63313 0.56783 0.02549
 H683 H 0.63310 0.52584 0.06647
 Cu684 Cu 0.66988 0.58055 0.04799
 Cu685 Cu 0.66933 0.54757 0.08030
 Cu686 Cu 0.70266 0.58161 0.08045
 N687 N 0.68847 0.59974 0.04847
 N688 N 0.70134 0.59998 0.06113
 C689 C 0.71229 0.61462 0.05843
 C690 C 0.70590 0.62409 0.04325
 C691 C 0.69078 0.61429 0.03731
 H692 H 0.72383 0.61819 0.06704
 H693 H 0.68206 0.61767 0.02578
 N694 N 0.70173 0.56185 0.09885
 N695 N 0.68908 0.54886 0.09881
 C696 C 0.69198 0.53767 0.11325
 C697 C 0.70717 0.54398 0.12280
 C698 C 0.71296 0.55929 0.11330
 H699 H 0.68349 0.52600 0.11670
 H700 H 0.72443 0.56802 0.11687
 H701 H 0.67492 0.57541 0.08068
 H702 H 0.68994 0.56071 0.06602
 N703 N 0.06240 0.70157 0.59973
 N704 N 0.04944 0.68901 0.59951
 C705 C 0.03825 0.69166 0.61400
 C706 C 0.04462 0.70670 0.62378
 C707 C 0.05994 0.71261 0.61434
 H708 H 0.02657 0.68313 0.61731
 H709 H 0.06877 0.72397 0.61802
 Cu710 Cu 0.04899 0.67015 0.58058
 Cu711 Cu 0.08186 0.70244 0.58141
 Cu712 Cu 0.08105 0.66885 0.54759
 N713 N 0.04855 0.65134 0.56159
 N714 N 0.06114 0.65100 0.54868
 C715 C 0.05799 0.63661 0.53750
 C716 C 0.04257 0.62742 0.54377
 C717 C 0.03697 0.63712 0.55908
 H718 H 0.06651 0.63298 0.52592
 H719 H 0.02544 0.63385 0.56783
 N720 N 0.10003 0.68812 0.54885
 N721 N 0.10031 0.70095 0.56167
 C722 C 0.11501 0.71185 0.55897
 C723 C 0.12443 0.70553 0.54373
 C724 C 0.11457 0.69051 0.53770
 H725 H 0.11870 0.72334 0.56761
 H726 H 0.11793 0.68187 0.52610
 H727 H 0.06723 0.68986 0.56066
 H728 H 0.08173 0.67472 0.57537
 N729 N 0.56086 1.04944 0.64974
 N730 N 0.54814 1.06226 0.65014
 C731 C 0.53661 1.05973 0.63588
 C732 C 0.54237 1.04450 0.62608
 C733 C 0.55783 1.03830 0.63531
 H734 H 0.52493 1.06835 0.63274
 H735 H 0.56644 1.02673 0.63179
 Cu736 Cu 0.54842 1.08107 0.66920
 Cu737 Cu 0.58058 1.04813 0.66782
 Cu738 Cu 0.57875 1.07946 0.70369
 N739 N 0.54871 1.09991 0.68826
 N740 N 0.56089 1.09932 0.70157
 C741 C 0.55837 1.11378 0.71281
 C742 C 0.54379 1.12402 0.70624
 C743 C 0.53796 1.11481 0.69057
 H744 H 0.56655 1.11667 0.72488
 H745 H 0.52686 1.11861 0.68150
 N746 N 0.59831 1.06085 0.70137
 N747 N 0.59909 1.04906 0.68761
 C748 C 0.61406 1.03841 0.68970
 C749 C 0.62312 1.04370 0.70548
 C750 C 0.61278 1.05801 0.71255
 H751 H 0.61819 1.02758 0.68041
 H752 H 0.61566 1.06593 0.72477
 H753 H 0.56530 1.05939 0.68834
 H754 H 0.58066 1.07553 0.67572
 N755 N 0.45123 0.35023 0.93828
 N756 N 0.43852 0.35003 0.95108
 C757 C 0.44105 0.36453 0.96231
 C758 C 0.45613 0.37434 0.95622
 C759 C 0.46230 0.36482 0.94092
 H760 H 0.43248 0.36789 0.97395
 H761 H 0.47374 0.36829 0.93215
 Cu762 Cu 0.41970 0.33101 0.95143
 Cu763 Cu 0.45212 0.33193 0.91875
 Cu764 Cu 0.41884 0.29780 0.91936
 N765 N 0.40115 0.31173 0.95181
 N766 N 0.40096 0.29875 0.93926
 C767 C 0.38668 0.28744 0.94240
 C768 C 0.37739 0.29370 0.95776
 C769 C 0.38693 0.30913 0.96334
 H770 H 0.38317 0.27578 0.93390
 H771 H 0.38355 0.31791 0.97482
 N772 N 0.43812 0.29923 0.90040
 N773 N 0.45076 0.31223 0.90018
 C774 C 0.46161 0.30976 0.88543
 C775 C 0.45556 0.29452 0.87592
 C776 C 0.44064 0.28814 0.88579
 H777 H 0.47299 0.31851 0.88166
 H778 H 0.43208 0.27648 0.88246
 H779 H 0.42442 0.32561 0.91872
 H780 H 0.43960 0.31107 0.93334
 N781 N 0.95090 0.43810 0.35081
 N782 N 0.93808 0.45079 0.35045
 C783 C 0.94042 0.46211 0.36491
 C784 C 0.95551 0.45622 0.37483
 C785 C 0.96186 0.44092 0.36543
 H786 H 0.93171 0.47370 0.36816
 H787 H 0.97337 0.43227 0.36900
 Cu788 Cu 0.91941 0.45106 0.33124
 Cu789 Cu 0.95212 0.41846 0.33269
 Cu790 Cu 0.91857 0.41797 0.29896
 N791 N 0.90041 0.45033 0.31238
 N792 N 0.90022 0.43734 0.29984
 C793 C 0.88565 0.43978 0.28875
 C794 C 0.87618 0.45511 0.29459
 C795 C 0.88591 0.46151 0.30966
 H796 H 0.88205 0.43096 0.27735
 H797 H 0.88259 0.47323 0.31813
 N798 N 0.93829 0.39954 0.30034
 N799 N 0.95106 0.39970 0.31320
 C800 C 0.96222 0.38518 0.31071
 C801 C 0.95622 0.37544 0.29559
 C802 C 0.94101 0.38492 0.28932
 H803 H 0.97378 0.38172 0.31937
 H804 H 0.93239 0.38133 0.27779
 H805 H 0.93933 0.43256 0.31168
 H806 H 0.92434 0.41825 0.32677
 N807 N 0.29963 0.93791 0.39961
 N808 N 0.31251 0.95055 0.39966
 C809 C 0.31007 0.96167 0.38508
 C810 C 0.29480 0.95560 0.37545
 C811 C 0.28858 0.94052 0.38506
 H812 H 0.31882 0.97315 0.38165
 H813 H 0.27689 0.93203 0.38160
 Cu814 Cu 0.33129 0.95100 0.41872
 Cu815 Cu 0.29816 0.91885 0.41820
 Cu816 Cu 0.33168 0.91888 0.45194
 N817 N 0.35031 0.95057 0.43751
 N818 N 0.35034 0.93798 0.45043
 C819 C 0.36497 0.94058 0.46142
 C820 C 0.37467 0.95559 0.45507
 C821 C 0.36497 0.96165 0.43984
 H822 H 0.36842 0.93209 0.47310
 H823 H 0.36836 0.97306 0.43100
 N824 N 0.31163 0.90070 0.45107
 N825 N 0.29892 0.90068 0.43815
 C826 C 0.28751 0.88641 0.44094
 C827 C 0.29326 0.87702 0.45633
 C828 C 0.30861 0.88644 0.46245
 H829 H 0.27597 0.88286 0.43229
 H830 H 0.31715 0.88300 0.47408
 H831 H 0.31120 0.93338 0.43888
 H832 H 0.32596 0.91841 0.42420
 O833 O 0.24767 0.54996 0.72743
 O834 O 0.28011 0.54413 0.72903
 O835 O 0.22655 0.50198 0.70173
 O836 O 0.22773 0.47147 0.70657
 O837 O 0.20072 0.52337 0.74986
 O838 O 0.20765 0.52178 0.78199
 O839 O 0.27485 0.45347 0.75143
 O840 O 0.27177 0.45904 0.71965
 O841 O 0.29824 0.50052 0.77417
 O842 O 0.29101 0.53369 0.77286
 O843 O 0.25252 0.47697 0.79830
 O844 O 0.21893 0.47801 0.79188
 O845 O 0.25313 0.45300 0.77383
 O846 O 0.21936 0.45862 0.77198
 O847 O 0.27383 0.49978 0.79860
 O848 O 0.27117 0.53340 0.79207
 O849 O 0.29840 0.47803 0.75250
 O850 O 0.29255 0.48115 0.71889
 O851 O 0.22593 0.54957 0.74986
 O852 O 0.22782 0.54250 0.78221
 O853 O 0.20121 0.50178 0.72725
 O854 O 0.20875 0.46897 0.73031
 O855 O 0.24843 0.52433 0.70174
 O856 O 0.28080 0.52364 0.70867
 Zr857 Zr 0.25956 0.52363 0.72843
 O858 O 0.27761 0.50784 0.74455
 Zr859 Zr 0.22792 0.49076 0.72831
 O860 O 0.24472 0.47333 0.74420
 Zr861 Zr 0.22746 0.52285 0.76084
 O862 O 0.24399 0.50680 0.77831
 Zr863 Zr 0.27247 0.47981 0.73994
 O864 O 0.25578 0.49562 0.72214
 Zr865 Zr 0.27176 0.51191 0.77248
 O866 O 0.25522 0.52956 0.75640
 Zr867 Zr 0.24027 0.47883 0.77219
 O868 O 0.22191 0.49484 0.75629
 O869 O 0.23192 0.51857 0.73303
 O870 O 0.26802 0.48393 0.76787
 C871 C 0.23474 0.55751 0.73681
 C872 C 0.23556 0.51505 0.69398
 C873 C 0.19318 0.51437 0.73668
 C874 C 0.26639 0.44568 0.76478
 C875 C 0.30590 0.48714 0.76563
 C876 C 0.26548 0.48616 0.80601
 H877 H 0.29041 0.51120 0.74165
 H878 H 0.24096 0.50960 0.79123
 H879 H 0.22395 0.52630 0.72523
 H880 H 0.24224 0.46036 0.74106
 H881 H 0.26559 0.46439 0.70879
 H882 H 0.23497 0.46072 0.71059
 H883 H 0.26065 0.53120 0.80035
 H884 H 0.23978 0.54890 0.78140
 H885 H 0.30099 0.49145 0.72160
 H886 H 0.28062 0.51137 0.70283
 H887 H 0.22041 0.48874 0.80007
 H888 H 0.20218 0.50934 0.78151
 H889 H 0.27943 0.54992 0.74131
 H890 H 0.29875 0.53258 0.76177
 H891 H 0.20191 0.47079 0.74190
 H892 H 0.22136 0.45065 0.76116
 O893 O 0.20147 0.02336 0.24815
 O894 O 0.20774 0.02211 0.28038
 O895 O 0.24942 0.04926 0.22652
 O896 O 0.27988 0.04450 0.22746
 O897 O 0.22754 0.00147 0.20082
 O898 O 0.22952 -0.03080 0.20742
 O899 O 0.29817 -0.00038 0.27456
 O900 O 0.29259 0.03137 0.27151
 O901 O 0.25149 -0.02329 0.29793
 O902 O 0.21799 -0.02174 0.29077
 O903 O 0.27449 -0.04736 0.25187
 O904 O 0.27369 -0.04098 0.21871
 O905 O 0.29845 -0.02290 0.25292
 O906 O 0.29261 -0.02060 0.21883
 O907 O 0.25180 -0.04771 0.27328
 O908 O 0.21850 -0.04131 0.27131
 O909 O 0.27385 -0.00149 0.29816
 O910 O 0.27053 0.03214 0.29238
 O911 O 0.20192 0.00147 0.22581
 O912 O 0.20882 -0.03106 0.22791
 O913 O 0.24973 0.02349 0.20100
 O914 O 0.28250 0.02076 0.20868
 O915 O 0.22721 0.04925 0.24851
 O916 O 0.22819 0.04235 0.28089
 Zr917 Zr 0.22800 0.02257 0.25963
 O918 O 0.24388 0.00640 0.27754
 Zr919 Zr 0.26068 0.02270 0.22778
 O920 O 0.27820 0.00683 0.24449
 Zr921 Zr 0.22853 -0.00974 0.22739
 O922 O 0.24470 -0.02724 0.24373
 Zr923 Zr 0.27184 0.01107 0.27227
 O924 O 0.25596 0.02886 0.25569
 Zr925 Zr 0.23979 -0.02151 0.27156
 O926 O 0.22201 -0.00539 0.25519
 Zr927 Zr 0.27266 -0.02114 0.23994
 O928 O 0.25650 -0.00526 0.22170
 O929 O 0.23289 0.01804 0.23195
 O930 O 0.26772 -0.01687 0.26772
 C931 C 0.19395 0.01428 0.23500
 C932 C 0.23641 0.05701 0.23562
 C933 C 0.23681 0.01438 0.19314
 C934 C 0.30584 -0.01383 0.26615
 C935 C 0.26485 -0.01470 0.30561
 C936 C 0.26533 -0.05513 0.26478
 H937 H 0.24059 0.00927 0.29037
 H938 H 0.24188 -0.04016 0.24064
 H939 H 0.22512 0.02588 0.22404
 H940 H 0.29116 0.00997 0.24197
 H941 H 0.28719 0.04227 0.26545
 H942 H 0.29058 0.04060 0.23485
 H943 H 0.22004 -0.04895 0.26018
 H944 H 0.20229 -0.02998 0.23977
 H945 H 0.26032 0.02938 0.30088
 H946 H 0.24042 0.04827 0.28055
 H947 H 0.26240 -0.04847 0.21949
 H948 H 0.24181 -0.03005 0.20166
 H949 H 0.20215 0.00973 0.28000
 H950 H 0.21961 -0.01111 0.29907
 H951 H 0.28077 0.00913 0.20185
 H952 H 0.30118 -0.01038 0.22143
 O953 O 0.52291 0.74923 0.20018
 O954 O 0.52091 0.78157 0.20681
 O955 O 0.54866 0.72719 0.24740
 O956 O 0.54393 0.72758 0.27796
 O957 O 0.50061 0.70151 0.22549
 O958 O 0.46850 0.70815 0.22721
 O959 O 0.49820 0.77430 0.29708
 O960 O 0.53019 0.77110 0.29185
 O961 O 0.47595 0.79836 0.25061
 O962 O 0.47680 0.79180 0.21757
 O963 O 0.45190 0.75151 0.27316
 O964 O 0.45876 0.71807 0.27134
 O965 O 0.47661 0.75174 0.29734
 O966 O 0.47851 0.71827 0.29069
 O967 O 0.45172 0.77397 0.25150
 O968 O 0.45786 0.77154 0.21749
 O969 O 0.49760 0.79821 0.27312
 O970 O 0.53112 0.79249 0.27021
 O971 O 0.50048 0.72744 0.19999
 O972 O 0.46809 0.72889 0.20717
 O973 O 0.52317 0.70163 0.24712
 O974 O 0.52034 0.70839 0.28007
 O975 O 0.54849 0.74959 0.22562
 O976 O 0.54137 0.78191 0.22737
 Zr977 Zr 0.52174 0.76053 0.22677
 O978 O 0.50549 0.77804 0.24301
 Zr979 Zr 0.52211 0.72809 0.25878
 O980 O 0.50613 0.74433 0.27666
 Zr981 Zr 0.48952 0.72816 0.22674
 O982 O 0.47195 0.74411 0.24325
 Zr983 Zr 0.51012 0.77229 0.27089
 O984 O 0.52806 0.75614 0.25466
 Zr985 Zr 0.47759 0.77205 0.23885
 O986 O 0.49379 0.75611 0.22075
 Zr987 Zr 0.47817 0.73971 0.27109
 O988 O 0.49418 0.72193 0.25456
 O989 O 0.51730 0.73273 0.23111
 O990 O 0.48225 0.76764 0.26670
 C991 C 0.51357 0.73645 0.19232
 C992 C 0.55633 0.73654 0.23452
 C993 C 0.51376 0.69381 0.23436
 C994 C 0.48518 0.76524 0.30480
 C995 C 0.48449 0.80584 0.26410
 C996 C 0.44426 0.76494 0.26468
 H997 H 0.50830 0.79094 0.23995
 H998 H 0.45904 0.74104 0.24042
 H999 H 0.52513 0.72496 0.22318
 H1000 H 0.50929 0.74158 0.28956
 H1001 H 0.54115 0.76519 0.28641
 H1002 H 0.53987 0.73446 0.28894
 H1003 H 0.44917 0.76141 0.22001
 H1004 H 0.46875 0.74107 0.20117
 H1005 H 0.52870 0.80084 0.25979
 H1006 H 0.54737 0.78131 0.23955
 H1007 H 0.45054 0.71970 0.26066
 H1008 H 0.46899 0.70236 0.23949
 H1009 H 0.50875 0.78070 0.20079
 H1010 H 0.48818 0.79917 0.21835
 H1011 H 0.50880 0.70146 0.27812
 H1012 H 0.48948 0.71998 0.29853
 O1013 O -0.02374 0.79954 0.75057
 O1014 O -0.02271 0.79246 0.71837
 O1015 O -0.04857 0.75105 0.77294
 O1016 O -0.04274 0.72076 0.77295
 O1017 O -0.00052 0.77433 0.79847
 O1018 O 0.03151 0.77378 0.79124
 O1019 O 0.00281 0.70303 0.72577
 O1020 O -0.02931 0.70746 0.72923
 O1021 O 0.02361 0.74989 0.70138
 O1022 O 0.02157 0.78316 0.70784
 O1023 O 0.04856 0.72800 0.74750
 O1024 O 0.04241 0.73004 0.78117
 O1025 O 0.02461 0.70335 0.74813
 O1026 O 0.02311 0.71017 0.78149
 O1027 O 0.04824 0.75035 0.72574
 O1028 O 0.04087 0.78384 0.72758
 O1029 O 0.00238 0.72700 0.70167
 O1030 O -0.03099 0.72887 0.70777
 O1031 O -0.00185 0.79990 0.77290
 O1032 O 0.03075 0.79400 0.77055
 O1033 O -0.02275 0.75236 0.79845
 O1034 O -0.01893 0.71949 0.79175
 O1035 O -0.04889 0.77360 0.75133
 O1036 O -0.04260 0.77139 0.71879
 Zr1037 Zr -0.02247 0.77276 0.73966
 O1038 O -0.00600 0.75692 0.72197
 Zr1039 Zr -0.02159 0.74068 0.77203
 O1040 O -0.00528 0.72325 0.75565
 Zr1041 Zr 0.01010 0.77362 0.77164
 O1042 O 0.02793 0.75763 0.75546
 Zr1043 Zr -0.00979 0.72891 0.72776
 O1044 O -0.02797 0.74468 0.74408
 Zr1045 Zr 0.02183 0.76187 0.72760
 O1046 O 0.00536 0.77952 0.74375
 Zr1047 Zr 0.02256 0.72963 0.75993
 O1048 O 0.00628 0.74567 0.77790
 O1049 O -0.01760 0.76850 0.76739
 O1050 O 0.01802 0.73388 0.73205
 C1051 C -0.01483 0.80746 0.76361
 C1052 C -0.05651 0.76412 0.76413
 C1053 C -0.01346 0.76521 0.80623
 C1054 C 0.01606 0.69563 0.73477
 C1055 C 0.01525 0.73626 0.69394
 C1056 C 0.05599 0.73706 0.73433
 H1057 H -0.00907 0.75988 0.70910
 H1058 H 0.04079 0.76084 0.75837
 H1059 H -0.02553 0.77622 0.77525
 H1060 H -0.00804 0.71027 0.75847
 H1061 H -0.04032 0.71263 0.73530
 H1062 H -0.03847 0.70993 0.76596
 H1063 H 0.04916 0.78222 0.73822
 H1064 H 0.02948 0.80015 0.75851
 H1065 H -0.02931 0.73967 0.69973
 H1066 H -0.04836 0.75912 0.71976
 H1067 H 0.05054 0.74073 0.77912
 H1068 H 0.03159 0.76144 0.79691
 H1069 H -0.01058 0.79857 0.71866
 H1070 H 0.01051 0.78155 0.70013
 H1071 H -0.00742 0.72185 0.79859
 H1072 H 0.01232 0.70205 0.78002
 O1073 O 0.00024 0.04834 0.02389
 O1074 O -0.03174 0.04111 0.02193
 O1075 O 0.02296 0.00061 0.04916
 O1076 O 0.02298 -0.02979 0.04389
 O1077 O 0.04886 0.02360 0.00186
 O1078 O 0.04243 0.02274 -0.03032
 O1079 O -0.02304 -0.04848 -0.00257
 O1080 O -0.02015 -0.04381 0.02957
 O1081 O -0.04745 -0.00213 -0.02420
 O1082 O -0.04126 0.03107 -0.02282
 O1083 O -0.00003 -0.02376 -0.04823
 O1084 O 0.03312 -0.02171 -0.04108
 O1085 O -0.00035 -0.04823 -0.02398
 O1086 O 0.03319 -0.04113 -0.02133
 O1087 O -0.02274 -0.00236 -0.04827
 O1088 O -0.02097 0.03158 -0.04157
 O1089 O -0.04731 -0.02483 -0.00279
 O1090 O -0.04185 -0.02252 0.03064
 O1091 O 0.02283 0.04887 0.00231
 O1092 O 0.02135 0.04252 -0.03036
 O1093 O 0.04871 0.00171 0.02415
 O1094 O 0.04239 -0.03127 0.02041
 O1095 O 0.00046 0.02231 0.04919
 O1096 O -0.03190 0.02014 0.04178
 Zr1097 Zr -0.01038 0.02148 0.02237
 O1098 O -0.02751 0.00533 0.00561
 Zr1099 Zr 0.02244 -0.01022 0.02244
 O1100 O 0.00656 -0.02800 0.00600
 Zr1101 Zr 0.02228 0.02243 -0.00946
 O1102 O 0.00674 0.00600 -0.02752
 Zr1103 Zr -0.02147 -0.02255 0.00985
 O1104 O -0.00568 -0.00646 0.02823
 Zr1105 Zr -0.02130 0.00996 -0.02215
 O1106 O -0.00578 0.02799 -0.00542
 Zr1107 Zr 0.01140 -0.02190 -0.02178
 O1108 O 0.02883 -0.00541 -0.00531
 O1109 O 0.01750 0.01751 0.01816
 O1110 O -0.01661 -0.01790 -0.01791
 C1111 C 0.01326 0.05638 0.01514
 C1112 C 0.01352 0.01333 0.05696
 C1113 C 0.05650 0.01464 0.01499
 C1114 C -0.01385 -0.05591 -0.01565
 C1115 C -0.05491 -0.01572 -0.01583
 C1116 C -0.01348 -0.01533 -0.05586
 H1117 H -0.04047 0.00821 0.00834
 H1118 H 0.00990 0.00909 -0.04034
 H1119 H 0.02509 0.02540 0.02621
 H1120 H 0.00943 -0.04093 0.00896
 H1121 H -0.01442 -0.03847 0.04069
 H1122 H 0.01632 -0.04081 0.03954
 H1123 H -0.01053 0.02949 -0.04998
 H1124 H 0.00913 0.04840 -0.02953
 H1125 H -0.05006 -0.01191 0.02860
 H1126 H -0.03095 0.00798 0.04777
 H1127 H 0.03167 -0.01067 -0.04884
 H1128 H 0.04835 0.01051 -0.03012
 H1129 H -0.03127 0.04703 0.00972
 H1130 H -0.04895 0.02983 -0.01171
 H1131 H 0.04950 -0.02893 0.00908
 H1132 H 0.03116 -0.04949 -0.01084
 O1133 O 0.04825 0.52395 0.50102
 O1134 O 0.04104 0.52287 0.46895
 O1135 O 0.00004 0.54912 0.52375
 O1136 O -0.03014 0.54353 0.52421
 O1137 O 0.02377 0.50145 0.54887
 O1138 O 0.02206 0.46906 0.54198
 O1139 O -0.04854 0.49819 0.47683
 O1140 O -0.04383 0.53036 0.48058
 O1141 O -0.00272 0.47674 0.45219
 O1142 O 0.03095 0.47868 0.45828
 O1143 O -0.02373 0.45197 0.49892
 O1144 O -0.02197 0.45829 0.53204
 O1145 O -0.04828 0.47629 0.49907
 O1146 O -0.04118 0.47820 0.53271
 O1147 O -0.00233 0.45236 0.47623
 O1148 O 0.03137 0.45906 0.47789
 O1149 O -0.02474 0.49886 0.45246
 O1150 O -0.02268 0.53187 0.45882
 O1151 O 0.04868 0.50193 0.52318
 O1152 O 0.04233 0.46942 0.52101
 O1153 O 0.00130 0.52316 0.54937
 O1154 O -0.03164 0.51968 0.54269
 O1155 O 0.02241 0.54929 0.50194
 O1156 O 0.02010 0.54285 0.46934
 Zr1157 Zr 0.02139 0.52281 0.49028
 O1158 O 0.00525 0.50648 0.47267
 Zr1159 Zr -0.01045 0.52221 0.52295
 O1160 O -0.02815 0.50610 0.50664
 Zr1161 Zr 0.02223 0.49030 0.52222
 O1162 O 0.00590 0.47259 0.50616
 Zr1163 Zr -0.02262 0.51062 0.47873
 O1164 O -0.00656 0.52861 0.49498
 Zr1165 Zr 0.00982 0.47855 0.47821
 O1166 O 0.02783 0.49489 0.49425
 Zr1167 Zr -0.02200 0.47821 0.51089
 O1168 O -0.00562 0.49431 0.52876
 O1169 O 0.01729 0.51804 0.51803
 O1170 O -0.01802 0.48273 0.48297
 C1171 C 0.05622 0.51495 0.51394
 C1172 C 0.01303 0.55698 0.51478
 C1173 C 0.01452 0.51421 0.55686
 C1174 C -0.05597 0.48493 0.48577
 C1175 C -0.01607 0.48560 0.44476
 C1176 C -0.01530 0.44458 0.48533
 H1177 H 0.00814 0.50950 0.45978
 H1178 H 0.00899 0.45970 0.50903
 H1179 H 0.02514 0.52597 0.52579
 H1180 H -0.04108 0.50898 0.50955
 H1181 H -0.03843 0.54138 0.48648
 H1182 H -0.04098 0.53950 0.51709
 H1183 H 0.02967 0.45077 0.48849
 H1184 H 0.04812 0.47035 0.50877
 H1185 H -0.01161 0.53052 0.45111
 H1186 H 0.00804 0.54900 0.47060
 H1187 H -0.01055 0.45104 0.53088
 H1188 H 0.01007 0.46979 0.54832
 H1189 H 0.04672 0.51053 0.46894
 H1190 H 0.02904 0.48946 0.45026
 H1191 H -0.02932 0.50819 0.54957
 H1192 H -0.04971 0.48858 0.53078
 O1193 O 0.54790 0.02422 0.50183
 O1194 O 0.54175 0.02246 0.46950
 O1195 O 0.49911 0.04929 0.52264
 O1196 O 0.46880 0.04347 0.52202
 O1197 O 0.52226 0.00229 0.54917
 O1198 O 0.52081 -0.03010 0.54308
 O1199 O 0.45220 -0.00289 0.47488
 O1200 O 0.45652 0.02928 0.47803
 O1201 O 0.49918 -0.02459 0.45245
 O1202 O 0.53273 -0.02155 0.45951
 O1203 O 0.47639 -0.04824 0.49778
 O1204 O 0.47765 -0.04165 0.53154
 O1205 O 0.45180 -0.02414 0.49773
 O1206 O 0.45783 -0.02231 0.53113
 O1207 O 0.49956 -0.04843 0.47690
 O1208 O 0.53273 -0.04106 0.47923
 O1209 O 0.47719 -0.00246 0.45123
 O1210 O 0.47845 0.03075 0.45723
 O1211 O 0.54805 0.00201 0.52381
 O1212 O 0.54151 -0.03046 0.52282
 O1213 O 0.49972 0.02393 0.54864
 O1214 O 0.46699 0.01992 0.54108
 O1215 O 0.52211 0.04922 0.50150
 O1216 O 0.52065 0.04237 0.46902
 Zr1217 Zr 0.52149 0.02260 0.49024
 O1218 O 0.50613 0.00582 0.47240
 Zr1219 Zr 0.48869 0.02230 0.52189
 O1220 O 0.47167 0.00574 0.50524
 Zr1221 Zr 0.52152 -0.00942 0.52275
 O1222 O 0.50592 -0.02754 0.50647
 Zr1223 Zr 0.47802 0.00978 0.47741
 O1224 O 0.49335 0.02823 0.49392
 Zr1225 Zr 0.51087 -0.02192 0.47866
 O1226 O 0.52812 -0.00517 0.49497
 Zr1227 Zr 0.47783 -0.02206 0.51007
 O1228 O 0.49344 -0.00550 0.52824
 O1229 O 0.51658 0.01821 0.51793
 O1230 O 0.48279 -0.01797 0.48226
 C1231 C 0.55569 0.01508 0.51478
 C1232 C 0.51239 0.05706 0.51399
 C1233 C 0.51281 0.01520 0.55666
 C1234 C 0.44447 -0.01587 0.48401
 C1235 C 0.48627 -0.01589 0.44423
 C1236 C 0.48588 -0.05595 0.48504
 H1237 H 0.50944 0.00866 0.45957
 H1238 H 0.50903 -0.04035 0.50964
 H1239 H 0.52421 0.02628 0.52577
 H1240 H 0.45863 0.00857 0.50768
 H1241 H 0.46146 0.04035 0.48420
 H1242 H 0.45815 0.03911 0.51480
 H1243 H 0.53107 -0.04894 0.49015
 H1244 H 0.54790 -0.02974 0.51086
 H1245 H 0.48979 0.02940 0.44991
 H1246 H 0.50852 0.04844 0.46984
 H1247 H 0.48838 -0.04979 0.52987
 H1248 H 0.50833 -0.02980 0.54842
 H1249 H 0.54750 0.01015 0.46986
 H1250 H 0.53036 -0.01159 0.45059
 H1251 H 0.46922 0.00857 0.54821
 H1252 H 0.44994 -0.01138 0.52947
 O1253 O 0.54866 0.52349 0.00027
 O1254 O 0.54148 0.52199 -0.03184
 O1255 O 0.50048 0.54912 0.02248
 O1256 O 0.47031 0.54367 0.02309
 O1257 O 0.52391 0.50157 0.04833
 O1258 O 0.52223 0.46923 0.04186
 O1259 O 0.45184 0.49768 -0.02407
 O1260 O 0.45658 0.52994 -0.02046
 O1261 O 0.49788 0.47604 -0.04811
 O1262 O 0.53135 0.47767 -0.04187
 O1263 O 0.47635 0.45177 -0.00117
 O1264 O 0.47796 0.45849 0.03186
 O1265 O 0.45190 0.47614 -0.00150
 O1266 O 0.45889 0.47856 0.03223
 O1267 O 0.49784 0.45185 -0.02378
 O1268 O 0.53160 0.45838 -0.02197
 O1269 O 0.47601 0.49831 -0.04825
 O1270 O 0.47779 0.53122 -0.04216
 O1271 O 0.54894 0.50172 0.02268
 O1272 O 0.54238 0.46913 0.02083
 O1273 O 0.50159 0.52345 0.04849
 O1274 O 0.46864 0.52004 0.04177
 O1275 O 0.52301 0.54890 0.00083
 O1276 O 0.52071 0.54214 -0.03166
 Zr1277 Zr 0.52184 0.52232 -0.01051
 O1278 O 0.50567 0.50585 -0.02792
 Zr1279 Zr 0.48988 0.52224 0.02206
 O1280 O 0.47214 0.50602 0.00589
 Zr1281 Zr 0.52243 0.49018 0.02181
 O1282 O 0.50604 0.47236 0.00595
 Zr1283 Zr 0.47778 0.51017 -0.02204
 O1284 O 0.49388 0.52829 -0.00597
 Zr1285 Zr 0.51013 0.47798 -0.02202
 O1286 O 0.52818 0.49443 -0.00618
 Zr1287 Zr 0.47814 0.47815 0.01048
 O1288 O 0.49457 0.49438 0.02819
 O1289 O 0.51762 0.51789 0.01729
 O1290 O 0.48227 0.48231 -0.01748
 C1291 C 0.55657 0.51460 0.01330
 C1292 C 0.51358 0.55680 0.01351
 C1293 C 0.51472 0.51448 0.05613
 C1294 C 0.44431 0.48456 -0.01500
 C1295 C 0.48474 0.48499 -0.05576
 C1296 C 0.48482 0.44421 -0.01465
 H1297 H 0.50865 0.50873 -0.04083
 H1298 H 0.50906 0.45949 0.00899
 H1299 H 0.52549 0.52587 0.02498
 H1300 H 0.45920 0.50899 0.00870
 H1301 H 0.46197 0.54102 -0.01469
 H1302 H 0.45950 0.53965 0.01592
 H1303 H 0.52973 0.45015 -0.01134
 H1304 H 0.54835 0.47004 0.00866
 H1305 H 0.48909 0.53001 -0.04956
 H1306 H 0.50872 0.54843 -0.03046
 H1307 H 0.48935 0.45118 0.03085
 H1308 H 0.51013 0.46989 0.04800
 H1309 H 0.54730 0.50971 -0.03152
 H1310 H 0.52975 0.48855 -0.04983
 H1311 H 0.47088 0.50862 0.04878
 H1312 H 0.45032 0.48887 0.03004
 O1313 O 0.79895 0.25211 0.47753
 O1314 O 0.79234 0.21976 0.47851
 O1315 O 0.75131 0.27400 0.45117
 O1316 O 0.72107 0.27460 0.45584
 O1317 O 0.77303 0.29931 0.50021
 O1318 O 0.77075 0.29198 0.53221
 O1319 O 0.70158 0.22631 0.49962
 O1320 O 0.70762 0.23013 0.46785
 O1321 O 0.74715 0.20215 0.52289
 O1322 O 0.78072 0.20837 0.52197
 O1323 O 0.72492 0.24837 0.54720
 O1324 O 0.72603 0.28144 0.54115
 O1325 O 0.70119 0.24779 0.52230
 O1326 O 0.70758 0.28188 0.52043
 O1327 O 0.74675 0.22608 0.54737
 O1328 O 0.78056 0.22802 0.54158
 O1329 O 0.72579 0.20221 0.50012
 O1330 O 0.72919 0.20882 0.46696
 O1331 O 0.79858 0.27366 0.50019
 O1332 O 0.79095 0.27121 0.53244
 O1333 O 0.75180 0.29946 0.47727
 O1334 O 0.71863 0.29252 0.47993
 O1335 O 0.77404 0.25255 0.45155
 O1336 O 0.77209 0.21993 0.45767
 Zr1337 Zr 0.77234 0.24076 0.47789
 O1338 O 0.75588 0.22281 0.49346
 Zr1339 Zr 0.74009 0.27302 0.47774
 O1340 O 0.72204 0.25633 0.49299
 Zr1341 Zr 0.77169 0.27244 0.51076
 O1342 O 0.75494 0.25605 0.52767
 Zr1343 Zr 0.72806 0.22851 0.48841
 O1344 O 0.74452 0.24515 0.47119
 Zr1345 Zr 0.75950 0.22823 0.52155
 O1346 O 0.77784 0.24459 0.50603
 Zr1347 Zr 0.72717 0.26041 0.52110
 O1348 O 0.74390 0.27864 0.50584
 O1349 O 0.76773 0.26844 0.48283
 O1350 O 0.73173 0.23260 0.51647
 C1351 C 0.80656 0.26486 0.48714
 C1352 C 0.76468 0.26528 0.44366
 C1353 C 0.76438 0.30717 0.48700
 C1354 C 0.69379 0.23470 0.51302
 C1355 C 0.73412 0.19461 0.51366
 C1356 C 0.73347 0.23498 0.55480
 H1357 H 0.75903 0.20997 0.49043
 H1358 H 0.75757 0.25888 0.54067
 H1359 H 0.77573 0.27636 0.47525
 H1360 H 0.70917 0.25909 0.48968
 H1361 H 0.71327 0.23640 0.45721
 H1362 H 0.71033 0.26701 0.45922
 H1363 H 0.77845 0.23850 0.54997
 H1364 H 0.79712 0.25914 0.53145
 H1365 H 0.73988 0.20074 0.46911
 H1366 H 0.76012 0.22087 0.45129
 H1367 H 0.73722 0.28048 0.54878
 H1368 H 0.75855 0.29792 0.53146
 H1369 H 0.79771 0.21995 0.49099
 H1370 H 0.77932 0.20051 0.51098
 H1371 H 0.72072 0.29948 0.49143
 H1372 H 0.69912 0.27950 0.51008
 O1373 O 0.79843 0.75143 -0.02417
 O1374 O 0.79146 0.71933 -0.02342
 O1375 O 0.75004 0.77400 -0.04921
 O1376 O 0.71981 0.77414 -0.04363
 O1377 O 0.77351 0.79909 -0.00136
 O1378 O 0.77194 0.79204 0.03089
 O1379 O 0.70174 0.72649 0.00101
 O1380 O 0.70667 0.73015 -0.03096
 O1381 O 0.74804 0.70206 0.02265
 O1382 O 0.78180 0.70849 0.02041
 O1383 O 0.72645 0.74798 0.04759
 O1384 O 0.72804 0.78139 0.04170
 O1385 O 0.70211 0.74803 0.02364
 O1386 O 0.70860 0.78191 0.02179
 O1387 O 0.74877 0.72619 0.04728
 O1388 O 0.78203 0.72770 0.04033
 O1389 O 0.72600 0.70219 0.00053
 O1390 O 0.72801 0.70871 -0.03249
 O1391 O 0.79867 0.77356 -0.00207
 O1392 O 0.79234 0.77122 0.03048
 O1393 O 0.75101 0.79949 -0.02305
 O1394 O 0.71817 0.79248 -0.01963
 O1395 O 0.77260 0.75236 -0.04954
 O1396 O 0.77058 0.71974 -0.04341
 Zr1397 Zr 0.77168 0.74055 -0.02318
 O1398 O 0.75575 0.72270 -0.00701
 Zr1399 Zr 0.73953 0.77294 -0.02232
 O1400 O 0.72202 0.75634 -0.00634
 Zr1401 Zr 0.77225 0.77235 0.00955
 O1402 O 0.75613 0.75600 0.02713
 Zr1403 Zr 0.72781 0.72852 -0.01112
 O1404 O 0.74368 0.74504 -0.02895
 Zr1405 Zr 0.76039 0.72815 0.02092
 O1406 O 0.77818 0.74447 0.00473
 Zr1407 Zr 0.72815 0.76040 0.02159
 O1408 O 0.74430 0.77857 0.00563
 O1409 O 0.76732 0.76826 -0.01820
 O1410 O 0.73247 0.73257 0.01680
 C1411 C 0.80630 0.76436 -0.01508
 C1412 C 0.76311 0.76519 -0.05714
 C1413 C 0.76418 0.80706 -0.01405
 C1414 C 0.69439 0.73496 0.01460
 C1415 C 0.73478 0.69453 0.01373
 C1416 C 0.73546 0.73475 0.05501
 H1417 H 0.75877 0.70985 -0.01013
 H1418 H 0.75923 0.75883 0.04003
 H1419 H 0.77510 0.77614 -0.02605
 H1420 H 0.70905 0.75914 -0.00920
 H1421 H 0.71199 0.73628 -0.04186
 H1422 H 0.70906 0.76686 -0.03966
 H1423 H 0.78080 0.73871 0.04819
 H1424 H 0.79854 0.75919 0.02922
 H1425 H 0.73904 0.70094 -0.03105
 H1426 H 0.75846 0.72085 -0.04947
 H1427 H 0.73926 0.78000 0.04922
 H1428 H 0.75973 0.79799 0.03044
 H1429 H 0.79718 0.71930 -0.01110
 H1430 H 0.77961 0.70018 0.00989
 H1431 H 0.72034 0.79917 -0.00800
 H1432 H 0.69997 0.77980 0.01151
 O1433 O 1.04922 0.22638 0.24996
 O1434 O 1.04202 0.22713 0.28204
 O1435 O 1.00165 0.20104 0.22663
 O1436 O 0.97117 0.20612 0.22663
 O1437 O 1.02419 0.24946 0.20209
 O1438 O 1.02262 0.28152 0.20958
 O1439 O 0.95203 0.25044 0.27409
 O1440 O 0.95732 0.21862 0.27036
 O1441 O 0.99788 0.27264 0.29903
 O1442 O 1.03176 0.27053 0.29302
 O1443 O 0.97655 0.29743 0.25319
 O1444 O 0.97852 0.29153 0.21957
 O1445 O 0.95239 0.27318 0.25271
 O1446 O 0.95901 0.27175 0.21907
 O1447 O 0.99881 0.29728 0.27508
 O1448 O 1.03201 0.29060 0.27397
 O1449 O 0.97598 0.25037 0.29858
 O1450 O 0.97863 0.21711 0.29185
 O1451 O 1.04941 0.24859 0.22797
 O1452 O 1.04276 0.28107 0.23047
 O1453 O 1.00248 0.22699 0.20156
 O1454 O 0.96953 0.23021 0.20801
 O1455 O 1.02342 0.20064 0.24908
 O1456 O 1.02151 0.20691 0.28147
 Zr1457 Zr 1.02239 0.22711 0.26067
 O1458 O 1.00610 0.24302 0.27843
 Zr1459 Zr 0.99059 0.22770 0.22791
 O1460 O 0.97273 0.24344 0.24440
 Zr1461 Zr 1.02286 0.25998 0.22901
 O1462 O 1.00643 0.27730 0.24530
 Zr1463 Zr 0.97826 0.23866 0.27227
 O1464 O 0.99451 0.22105 0.25582
 Zr1465 Zr 1.01054 0.27101 0.27314
 O1466 O 1.02863 0.25510 0.25691
 Zr1467 Zr 0.97855 0.27148 0.24059
 O1468 O 0.99503 0.25575 0.22249
 O1469 O 1.01827 0.23214 0.23293
 O1470 O 0.98269 0.26664 0.26842
 C1471 C 1.05710 0.23562 0.23717
 C1472 C 1.01443 0.19310 0.23590
 C1473 C 1.01535 0.23647 0.19405
 C1474 C 0.94463 0.26401 0.26563
 C1475 C 0.98457 0.26367 0.30637
 C1476 C 0.98548 0.30491 0.26646
 H1477 H 1.00901 0.23989 0.29129
 H1478 H 1.00942 0.29025 0.24257
 H1479 H 1.02621 0.22439 0.22509
 H1480 H 0.95982 0.24046 0.24144
 H1481 H 0.96274 0.20787 0.26403
 H1482 H 0.96011 0.21017 0.23338
 H1483 H 1.03091 0.29839 0.26291
 H1484 H 1.04891 0.27979 0.24252
 H1485 H 0.98917 0.21905 0.30019
 H1486 H 1.00933 0.20094 0.28054
 H1487 H 0.98931 0.29956 0.22147
 H1488 H 1.01038 0.28122 0.20367
 H1489 H 1.04767 0.23950 0.28207
 H1490 H 1.02945 0.26008 0.30137
 H1491 H 0.97162 0.24194 0.20149
 H1492 H 0.95087 0.26100 0.22067
 O1493 O 0.70100 1.02372 0.74778
 O1494 O 0.70714 1.02259 0.78014
 O1495 O 0.74930 1.04911 0.72635
 O1496 O 0.77959 1.04395 0.72669
 O1497 O 0.72678 1.00105 0.70101
 O1498 O 0.72901 0.96872 0.70799
 O1499 O 0.79752 0.99977 0.77480
 O1500 O 0.79211 1.03168 0.77087
 O1501 O 0.75124 0.97738 0.79841
 O1502 O 0.71753 0.97914 0.79144
 O1503 O 0.77389 0.95268 0.75289
 O1504 O 0.77292 0.95840 0.71963
 O1505 O 0.79785 0.97714 0.75327
 O1506 O 0.79180 0.97880 0.71920
 O1507 O 0.75131 0.95271 0.77440
 O1508 O 0.71793 0.95911 0.77230
 O1509 O 0.77289 0.99989 0.79861
 O1510 O 0.77041 1.03289 0.79199
 O1511 O 0.70115 1.00096 0.72633
 O1512 O 0.70827 0.96861 0.72836
 O1513 O 0.74905 1.02299 0.70092
 O1514 O 0.78185 1.01990 0.70845
 O1515 O 0.72644 1.04916 0.74765
 O1516 O 0.72778 1.04301 0.78028
 Zr1517 Zr 0.72744 1.02280 0.75943
 O1518 O 0.74333 1.00692 0.77759
 Zr1519 Zr 0.76015 1.02237 0.72762
 O1520 O 0.77763 1.00670 0.74455
 Zr1521 Zr 0.72790 0.98999 0.72772
 O1522 O 0.74403 0.97270 0.74438
 Zr1523 Zr 0.77130 1.01146 0.77225
 O1524 O 0.75541 1.02901 0.75541
 Zr1525 Zr 0.73924 0.97888 0.77214
 O1526 O 0.72146 0.99476 0.75548
 Zr1527 Zr 0.77200 0.97867 0.74045
 O1528 O 0.75588 0.99433 0.72197
 O1529 O 0.73235 1.01783 0.73183
 O1530 O 0.76716 0.98345 0.76818
 C1531 C 0.69332 1.01419 0.73501
 C1532 C 0.73600 1.05687 0.73497
 C1533 C 0.73605 1.01389 0.69318
 C1534 C 0.80522 0.98630 0.76645
 C1535 C 0.76425 0.98651 0.80612
 C1536 C 0.76485 0.94515 0.76602
 H1537 H 0.74005 1.01002 0.79037
 H1538 H 0.74119 0.95974 0.74154
 H1539 H 0.72457 1.02557 0.72384
 H1540 H 0.79059 1.00975 0.74196
 H1541 H 0.78667 1.04248 0.76465
 H1542 H 0.79029 1.04014 0.73413
 H1543 H 0.71959 0.95110 0.76145
 H1544 H 0.70206 0.96947 0.74041
 H1545 H 0.75930 1.03124 0.79960
 H1546 H 0.73982 1.04925 0.77944
 H1547 H 0.76154 0.95104 0.72050
 H1548 H 0.74124 0.96955 0.70213
 H1549 H 0.70155 1.01021 0.77989
 H1550 H 0.71943 0.98971 0.79977
 H1551 H 0.77987 1.00828 0.70166
 H1552 H 0.80034 0.98912 0.72151
 O1553 O 0.72727 0.50247 0.20095
 O1554 O 0.72857 0.47010 0.20705
 O1555 O 0.70192 0.52366 0.24940
 O1556 O 0.70735 0.52353 0.27967
 O1557 O 0.75017 0.54960 0.22713
 O1558 O 0.78227 0.54252 0.22855
 O1559 O 0.75183 0.47579 0.29735
 O1560 O 0.72004 0.47904 0.29201
 O1561 O 0.77396 0.45200 0.25028
 O1562 O 0.77254 0.45913 0.21713
 O1563 O 0.79863 0.49777 0.27356
 O1564 O 0.79255 0.53131 0.27239
 O1565 O 0.77436 0.49741 0.29760
 O1566 O 0.77262 0.53126 0.29174
 O1567 O 0.79862 0.47628 0.25091
 O1568 O 0.79192 0.47883 0.21729
 O1569 O 0.75247 0.45204 0.27290
 O1570 O 0.71892 0.45815 0.27005
 O1571 O 0.74978 0.52417 0.20109
 O1572 O 0.78220 0.52221 0.20797
 O1573 O 0.72766 0.54930 0.24878
 O1574 O 0.73123 0.54197 0.28171
 O1575 O 0.70193 0.50241 0.22646
 O1576 O 0.70834 0.46985 0.22781
 Zr1577 Zr 0.72838 0.49085 0.22736
 O1578 O 0.74451 0.47279 0.24311
 Zr1579 Zr 0.72875 0.52268 0.26007
 O1580 O 0.74465 0.50586 0.27745
 Zr1581 Zr 0.76099 0.52279 0.22774
 O1582 O 0.77849 0.50625 0.24376
 Zr1583 Zr 0.74014 0.47809 0.27111
 O1584 O 0.72234 0.49482 0.25537
 Zr1585 Zr 0.77245 0.47847 0.23884
 O1586 O 0.75632 0.49501 0.22121
 Zr1587 Zr 0.77261 0.51015 0.27174
 O1588 O 0.75673 0.52853 0.25574
 O1589 O 0.73320 0.51851 0.23225
 O1590 O 0.76806 0.48239 0.26681
 C1591 C 0.73664 0.51531 0.19328
 C1592 C 0.69417 0.51501 0.23610
 C1593 C 0.73706 0.55725 0.23612
 C1594 C 0.76528 0.48422 0.30501
 C1595 C 0.76546 0.44442 0.26371
 C1596 C 0.80617 0.48467 0.26446
 H1597 H 0.74149 0.45998 0.23981
 H1598 H 0.79141 0.50919 0.24088
 H1599 H 0.72537 0.52647 0.22453
 H1600 H 0.74164 0.50843 0.29043
 H1601 H 0.70921 0.48534 0.28674
 H1602 H 0.71122 0.51595 0.29024
 H1603 H 0.80031 0.48930 0.21942
 H1604 H 0.78129 0.51019 0.20168
 H1605 H 0.72129 0.44983 0.25958
 H1606 H 0.70238 0.47048 0.24001
 H1607 H 0.80055 0.52980 0.26153
 H1608 H 0.78198 0.54800 0.24098
 H1609 H 0.74078 0.47064 0.20113
 H1610 H 0.76137 0.45150 0.21829
 H1611 H 0.74274 0.54889 0.27959
 H1612 H 0.76202 0.52922 0.29996
 O1613 O 0.50223 0.20148 0.72629
 O1614 O 0.46983 0.20754 0.72780
 O1615 O 0.52348 0.24982 0.70118
 O1616 O 0.52384 0.27994 0.70653
 O1617 O 0.54913 0.22739 0.74974
 O1618 O 0.54186 0.22866 0.78171
 O1619 O 0.47582 0.29814 0.75071
 O1620 O 0.47910 0.29259 0.71894
 O1621 O 0.45163 0.25122 0.77289
 O1622 O 0.45829 0.21847 0.77222
 O1623 O 0.49812 0.27409 0.79788
 O1624 O 0.53111 0.27331 0.79166
 O1625 O 0.49730 0.29827 0.77338
 O1626 O 0.53138 0.29210 0.77132
 O1627 O 0.47576 0.25230 0.79761
 O1628 O 0.47866 0.21814 0.79106
 O1629 O 0.45191 0.27387 0.75142
 O1630 O 0.45803 0.27078 0.71794
 O1631 O 0.52374 0.20150 0.74897
 O1632 O 0.52123 0.20837 0.78151
 O1633 O 0.54907 0.24901 0.72720
 O1634 O 0.54176 0.28211 0.73054
 O1635 O 0.50204 0.22706 0.70108
 O1636 O 0.46943 0.22842 0.70762
 Zr1637 Zr 0.49051 0.22790 0.72756
 O1638 O 0.47253 0.24384 0.74363
 Zr1639 Zr 0.52252 0.26045 0.72800
 O1640 O 0.50575 0.27802 0.74372
 Zr1641 Zr 0.52227 0.22813 0.76030
 O1642 O 0.50589 0.24443 0.77768
 Zr1643 Zr 0.47797 0.27181 0.73918
 O1644 O 0.49466 0.25590 0.72149
 Zr1645 Zr 0.47809 0.23974 0.77163
 O1646 O 0.49445 0.22184 0.75556
 Zr1647 Zr 0.51002 0.27237 0.77168
 O1648 O 0.52827 0.25609 0.75598
 O1649 O 0.51816 0.23266 0.73247
 O1650 O 0.48222 0.26766 0.76713
 C1651 C 0.51506 0.19377 0.73566
 C1652 C 0.51471 0.23664 0.69336
 C1653 C 0.55690 0.23636 0.73671
 C1654 C 0.48423 0.30577 0.76419
 C1655 C 0.44417 0.26471 0.76435
 C1656 C 0.48469 0.26547 0.80531
 H1657 H 0.45971 0.24060 0.74061
 H1658 H 0.50881 0.24159 0.79062
 H1659 H 0.52614 0.22494 0.72465
 H1660 H 0.50840 0.29097 0.74064
 H1661 H 0.48531 0.28718 0.70813
 H1662 H 0.51590 0.29038 0.71005
 H1663 H 0.48847 0.22086 0.80006
 H1664 H 0.50926 0.20205 0.78034
 H1665 H 0.44965 0.26037 0.72036
 H1666 H 0.47014 0.24057 0.70158
 H1667 H 0.53027 0.26197 0.79907
 H1668 H 0.54761 0.24097 0.78137
 H1669 H 0.47048 0.20154 0.73998
 H1670 H 0.45168 0.21867 0.76037
 H1671 H 0.54885 0.27985 0.74192
 H1672 H 0.52891 0.30076 0.76116
 O1673 O 0.25132 0.77331 0.45059
 O1674 O 0.21905 0.77115 0.45723
 O1675 O 0.27323 0.79904 0.49811
 O1676 O 0.27311 0.79414 0.52853
 O1677 O 0.29922 0.75133 0.47581
 O1678 O 0.29281 0.71911 0.47739
 O1679 O 0.22672 0.74800 0.54738
 O1680 O 0.22959 0.78011 0.54228
 O1681 O 0.20260 0.72580 0.50087
 O1682 O 0.20902 0.72673 0.46792
 O1683 O 0.24974 0.70199 0.52331
 O1684 O 0.28303 0.70906 0.52150
 O1685 O 0.24943 0.72659 0.54756
 O1686 O 0.28284 0.72888 0.54084
 O1687 O 0.22722 0.70174 0.50169
 O1688 O 0.22951 0.70810 0.46761
 O1689 O 0.20263 0.74742 0.52341
 O1690 O 0.20815 0.78091 0.52074
 O1691 O 0.27322 0.75101 0.45032
 O1692 O 0.27206 0.71862 0.45737
 O1693 O 0.29901 0.77384 0.49751
 O1694 O 0.29231 0.77063 0.53053
 O1695 O 0.25088 0.79883 0.47625
 O1696 O 0.21861 0.79146 0.47788
 Zr1697 Zr 0.24011 0.77199 0.47720
 O1698 O 0.22274 0.75553 0.49337
 Zr1699 Zr 0.27260 0.77242 0.50922
 O1700 O 0.25649 0.75626 0.52702
 Zr1701 Zr 0.27266 0.73999 0.47702
 O1702 O 0.25686 0.72223 0.49346
 Zr1703 Zr 0.22850 0.76008 0.52127
 O1704 O 0.24451 0.77820 0.50512
 Zr1705 Zr 0.22889 0.72768 0.48911
 O1706 O 0.24467 0.74408 0.47108
 Zr1707 Zr 0.26131 0.72837 0.52131
 O1708 O 0.27896 0.74456 0.50486
 O1709 O 0.26794 0.76773 0.48152
 O1710 O 0.23333 0.73224 0.51697
 C1711 C 0.26410 0.76403 0.44268
 C1712 C 0.26385 0.80672 0.48527
 C1713 C 0.30685 0.76453 0.48471
 C1714 C 0.23591 0.73504 0.55505
 C1715 C 0.19506 0.73429 0.51434
 C1716 C 0.23634 0.69428 0.51482
 H1717 H 0.20982 0.75826 0.49031
 H1718 H 0.26000 0.70935 0.49056
 H1719 H 0.27561 0.77566 0.47361
 H1720 H 0.25925 0.75940 0.53993
 H1721 H 0.23541 0.79114 0.53688
 H1722 H 0.26612 0.79006 0.53941
 H1723 H 0.23958 0.69936 0.47017
 H1724 H 0.25985 0.71918 0.45142
 H1725 H 0.19992 0.77862 0.51019
 H1726 H 0.21919 0.79742 0.49008
 H1727 H 0.28151 0.70099 0.51068
 H1728 H 0.29867 0.71965 0.48964
 H1729 H 0.21993 0.75900 0.45119
 H1730 H 0.20175 0.73818 0.46859
 H1731 H 0.29945 0.75927 0.52838
 H1732 H 0.28100 0.73973 0.54880
 O1733 O 0.29917 0.25185 0.97735
 O1734 O 0.29279 0.21949 0.97885
 O1735 O 0.25190 0.27363 0.95098
 O1736 O 0.22139 0.27311 0.95529
 O1737 O 0.27296 0.29920 0.99954
 O1738 O 0.27082 0.29222 1.03162
 O1739 O 0.20196 0.22592 0.99986
 O1740 O 0.20796 0.22930 0.96806
 O1741 O 0.24778 0.20213 1.02333
 O1742 O 0.28131 0.20866 1.02237
 O1743 O 0.22515 0.24841 1.04715
 O1744 O 0.22642 0.28172 1.04060
 O1745 O 0.20145 0.24771 1.02223
 O1746 O 0.20757 0.28154 1.02028
 O1747 O 0.24713 0.22627 1.04756
 O1748 O 0.28091 0.22845 1.04184
 O1749 O 0.22636 0.20189 1.00061
 O1750 O 0.22960 0.20807 0.96745
 O1751 O 0.29874 0.27360 0.99982
 O1752 O 0.29113 0.27164 1.03208
 O1753 O 0.25168 0.29905 0.97665
 O1754 O 0.21874 0.29193 0.97909
 O1755 O 0.27400 0.25153 0.95130
 O1756 O 0.27262 0.21912 0.95811
 Zr1757 Zr 0.27264 0.24034 0.97792
 O1758 O 0.25627 0.22252 0.99372
 Zr1759 Zr 0.24027 0.27248 0.97737
 O1760 O 0.22231 0.25591 0.99287
 Zr1761 Zr 0.27184 0.27243 1.01040
 O1762 O 0.25520 0.25616 1.02755
 Zr1763 Zr 0.22843 0.22806 0.98862
 O1764 O 0.24482 0.24454 0.97117
 Zr1765 Zr 0.25989 0.22829 1.02175
 O1766 O 0.27812 0.24456 1.00602
 Zr1767 Zr 0.22742 0.26032 1.02095
 O1768 O 0.24402 0.27843 1.00541
 O1769 O 0.26793 0.26806 0.98252
 O1770 O 0.23210 0.23247 1.01663
 C1771 C 0.30675 0.26469 0.98686
 C1772 C 0.26498 0.26449 0.94342
 C1773 C 0.26422 0.30691 0.98630
 C1774 C 0.19410 0.23449 1.01311
 C1775 C 0.23480 0.19444 1.01417
 C1776 C 0.23375 0.23512 1.05488
 H1777 H 0.25949 0.20967 0.99085
 H1778 H 0.25782 0.25915 1.04052
 H1779 H 0.27590 0.27595 0.97487
 H1780 H 0.20943 0.25858 0.98953
 H1781 H 0.21360 0.23539 0.95729
 H1782 H 0.21044 0.26603 0.95907
 H1783 H 0.27871 0.23900 1.05011
 H1784 H 0.29727 0.25954 1.03133
 H1785 H 0.24034 0.20007 0.96967
 H1786 H 0.26059 0.21970 0.95182
 H1787 H 0.23726 0.28044 1.04868
 H1788 H 0.25852 0.29797 1.03091
 H1789 H 0.29820 0.21993 0.99132
 H1790 H 0.27992 0.20060 1.01152
 H1791 H 0.22046 0.29875 0.99073
 H1792 H 0.19949 0.27938 1.00958
 C1793 C 0.28846 0.39217 0.78587
 C1794 C 0.27365 0.40098 0.79234
 C1795 C 0.26675 0.41880 0.78536
 C1796 C 0.27282 0.42725 0.77016
 H1797 H 0.26629 0.39532 0.80392
 H1798 H 0.25618 0.42530 0.79354
 H1799 H 0.29626 0.39769 0.77455
 H1800 H 0.28321 0.42102 0.76162
 C1801 C 0.28668 -0.10823 0.28681
 C1802 C 0.29332 -0.09951 0.27203
 C1803 C 0.28640 -0.08165 0.26518
 C1804 C 0.27075 -0.07367 0.27073
 H1805 H 0.30502 -0.10518 0.26487
 H1806 H 0.29495 -0.07472 0.25519
 H1807 H 0.27534 -0.10260 0.29450
 H1808 H 0.26180 -0.08040 0.28044
 C1809 C 0.78651 0.89151 0.78772
 C1810 C 0.79301 0.90068 0.77310
 C1811 C 0.78577 0.91846 0.76631
 C1812 C 0.77046 0.92674 0.77239
 H1813 H 0.80480 0.89539 0.76578
 H1814 H 0.79388 0.92513 0.75578
 H1815 H 0.77491 0.89681 0.79528
 H1816 H 0.76198 0.92038 0.78274
 C1817 C 0.46175 0.85829 0.28635
 C1818 C 0.47693 0.84988 0.29248
 C1819 C 0.48396 0.83220 0.28532
 C1820 C 0.47829 0.82424 0.26970
 H1821 H 0.48438 0.85567 0.30396
 H1822 H 0.49425 0.82542 0.29364
 H1823 H 0.45380 0.85251 0.27524
 H1824 H 0.46828 0.83086 0.26097
 C1825 C -0.03705 0.86044 0.78522
 C1826 C -0.02160 0.85229 0.79100
 C1827 C -0.01465 0.83453 0.78395
 C1828 C -0.02072 0.82614 0.76869
 H1829 H -0.01392 0.85831 0.80221
 H1830 H -0.00416 0.82795 0.79219
 H1831 H -0.04520 0.85444 0.77436
 H1832 H -0.03091 0.83256 0.76003
 C1833 C -0.03571 -0.10871 -0.03823
 C1834 C -0.04204 -0.10003 -0.02330
 C1835 C -0.03490 -0.08233 -0.01635
 C1836 C -0.01931 -0.07431 -0.02201
 H1837 H -0.05368 -0.10563 -0.01599
 H1838 H -0.04326 -0.07556 -0.00608
 H1839 H -0.02441 -0.10315 -0.04605
 H1840 H -0.01057 -0.08085 -0.03204
 C1841 C -0.03739 0.39114 0.46367
 C1842 C -0.02285 0.40030 0.45693
 C1843 C -0.01596 0.41812 0.46406
 C1844 C -0.02145 0.42607 0.47977
 H1845 H -0.01576 0.39504 0.44499
 H1846 H -0.00594 0.42508 0.45558
 H1847 H -0.04479 0.39648 0.47536
 H1848 H -0.03128 0.41937 0.48861
 C1849 C 0.46450 -0.10913 0.46213
 C1850 C 0.45798 -0.10037 0.47702
 C1851 C 0.46496 -0.08259 0.48410
 C1852 C 0.48060 -0.07448 0.47875
 H1853 H 0.44624 -0.10585 0.48424
 H1854 H 0.45641 -0.07582 0.49422
 H1855 H 0.47596 -0.10349 0.45459
 H1856 H 0.48955 -0.08105 0.46891
 C1857 C 0.46284 0.39061 -0.03601
 C1858 C 0.47742 0.39973 -0.04271
 C1859 C 0.48432 0.41755 -0.03560
 C1860 C 0.47864 0.42568 -0.02007
 H1861 H 0.48454 0.39446 -0.05461
 H1862 H 0.49451 0.42436 -0.04401
 H1863 H 0.45544 0.39594 -0.02432
 H1864 H 0.46862 0.41916 -0.01132
 C1865 C 0.78660 0.36023 0.46577
 C1866 C 0.77124 0.35198 0.45983
 C1867 C 0.76430 0.33422 0.46679
 C1868 C 0.77016 0.32594 0.48217
 H1869 H 0.76372 0.35784 0.44846
 H1870 H 0.75406 0.32752 0.45833
 H1871 H 0.79460 0.35441 0.47682
 H1872 H 0.78011 0.33248 0.49103
 C1873 C 0.78553 0.85996 -0.03634
 C1874 C 0.79208 0.85145 -0.02138
 C1875 C 0.78519 0.83363 -0.01441
 C1876 C 0.76930 0.82583 -0.01957
 H1877 H 0.80381 0.85715 -0.01428
 H1878 H 0.79400 0.82653 -0.00477
 H1879 H 0.77421 0.85419 -0.04400
 H1880 H 0.76013 0.83277 -0.02894
 C1881 C 0.78648 0.28784 0.39103
 C1882 C 0.79272 0.27268 0.39941
 C1883 C 0.78572 0.26570 0.41717
 C1884 C 0.76996 0.27108 0.42503
 H1885 H 0.80423 0.26534 0.39360
 H1886 H 0.79434 0.25579 0.42414
 H1887 H 0.77538 0.29573 0.39690
 H1888 H 0.76097 0.28070 0.41820
 C1889 C 0.78417 0.78729 -0.11044
 C1890 C 0.79019 0.77202 -0.10209
 C1891 C 0.78330 0.76511 -0.08428
 C1892 C 0.76799 0.77100 -0.07590
 H1893 H 0.80155 0.76449 -0.10798
 H1894 H 0.79171 0.75480 -0.07764
 H1895 H 0.77315 0.79530 -0.10460
 H1896 H 0.75918 0.78104 -0.08236
 C1897 C 0.28784 0.46441 0.85903
 C1898 C 0.27279 0.45817 0.85042
 C1899 C 0.26592 0.46516 0.83259
 C1900 C 0.27169 0.48065 0.82447
 H1901 H 0.26533 0.44670 0.85618
 H1902 H 0.25559 0.45682 0.82586
 H1903 H 0.29583 0.47550 0.85330
 H1904 H 0.28173 0.48939 0.83105
 C1905 C 0.28667 -0.03725 0.35838
 C1906 C 0.29308 -0.02229 0.34979
 C1907 C 0.28590 -0.01522 0.33213
 C1908 C 0.27038 -0.02099 0.32401
 H1909 H 0.30477 -0.01507 0.35546
 H1910 H 0.29419 -0.00484 0.32544
 H1911 H 0.27531 -0.04497 0.35278
 H1912 H 0.26171 -0.03114 0.33046
 C1913 C -0.03481 -0.03706 -0.10959
 C1914 C -0.04129 -0.02238 -0.10047
 C1915 C -0.03408 -0.01549 -0.08273
 C1916 C -0.01881 -0.02154 -0.07440
 H1917 H -0.05313 -0.01511 -0.10570
 H1918 H -0.04227 -0.00500 -0.07609
 H1919 H -0.02312 -0.04456 -0.10438
 H1920 H -0.01025 -0.03185 -0.08076
 C1921 C -0.03788 0.46413 0.39108
 C1922 C -0.02320 0.45762 0.40019
 C1923 C -0.01627 0.46485 0.41794
 C1924 C -0.02241 0.48007 0.42632
 H1925 H -0.01590 0.44582 0.39490
 H1926 H -0.00566 0.45677 0.42451
 H1927 H -0.04539 0.47579 0.39634
 H1928 H -0.03290 0.48848 0.42007
 C1929 C 0.46733 -0.03674 0.38963
 C1930 C 0.46335 -0.02018 0.39667
 C1931 C 0.47020 -0.01319 0.41452
 C1932 C 0.48137 -0.02250 0.42578
 H1933 H 0.45414 -0.01118 0.38928
 H1934 H 0.46530 0.00022 0.41866
 H1935 H 0.47683 -0.04587 0.39638
 H1936 H 0.48686 -0.03569 0.42189
 C1937 C 0.46282 0.46367 -0.10883
 C1938 C 0.47777 0.45722 -0.10025
 C1939 C 0.48461 0.46411 -0.08240
 C1940 C 0.47879 0.47959 -0.07428
 H1941 H 0.48513 0.44569 -0.10604
 H1942 H 0.49482 0.45571 -0.07560
 H1943 H 0.45494 0.47483 -0.10310
 H1944 H 0.46885 0.48839 -0.08088
 C1945 C 0.46328 0.78689 0.35804
 C1946 C 0.47805 0.79342 0.34921
 C1947 C 0.48485 0.78638 0.33135
 C1948 C 0.47916 0.77076 0.32333
 H1949 H 0.48531 0.80511 0.35483
 H1950 H 0.49497 0.79481 0.32447
 H1951 H 0.45552 0.77555 0.35245
 H1952 H 0.46927 0.76195 0.32999
 C1953 C -0.03480 0.78678 0.85933
 C1954 C -0.04080 0.77152 0.85095
 C1955 C -0.03384 0.76476 0.83313
 C1956 C -0.01842 0.77070 0.82501
 H1957 H -0.05215 0.76394 0.85678
 H1958 H -0.04228 0.75460 0.82626
 H1959 H -0.02383 0.79487 0.85350
 H1960 H -0.00958 0.78057 0.83171
 C1961 C 0.39128 0.78659 0.28709
 C1962 C 0.39997 0.79306 0.27223
 C1963 C 0.41767 0.78591 0.26519
 C1964 C 0.42587 0.77047 0.27102
 H1965 H 0.39435 0.80477 0.26503
 H1966 H 0.42431 0.79416 0.25476
 H1967 H 0.39680 0.77518 0.29477
 H1968 H 0.41948 0.76184 0.28124
 C1969 C -0.10995 0.78522 0.78612
 C1970 C -0.10139 0.79143 0.77106
 C1971 C -0.08359 0.78443 0.76414
 C1972 C -0.07527 0.76903 0.76995
 H1973 H -0.10710 0.80299 0.76370
 H1974 H -0.07688 0.79288 0.75392
 H1975 H -0.10430 0.77397 0.79395
 H1976 H -0.08176 0.76021 0.77994
 C1977 C 0.86011 0.28704 0.46649
 C1978 C 0.85168 0.27184 0.46031
 C1979 C 0.83379 0.26493 0.46705
 C1980 C 0.82539 0.27065 0.48242
 H1981 H 0.85755 0.26436 0.44891
 H1982 H 0.82712 0.25476 0.45847
 H1983 H 0.85426 0.29500 0.47755
 H1984 H 0.83187 0.28057 0.49136
 C1985 C 0.85925 0.78567 -0.03729
 C1986 C 0.85095 0.79185 -0.02207
 C1987 C 0.83318 0.78490 -0.01509
 C1988 C 0.82501 0.76940 -0.02081
 H1989 H 0.85684 0.80330 -0.01465
 H1990 H 0.82641 0.79341 -0.00493
 H1991 H 0.85339 0.77457 -0.04520
 H1992 H 0.83159 0.76052 -0.03070
 C1993 C -0.10790 -0.03712 -0.03817
 C1994 C -0.09926 -0.04370 -0.02331
 C1995 C -0.08139 -0.03683 -0.01645
 C1996 C -0.07332 -0.02125 -0.02208
 H1997 H -0.10506 -0.05526 -0.01603
 H1998 H -0.07460 -0.04528 -0.00627
 H1999 H -0.10211 -0.02596 -0.04600
 H2000 H -0.07992 -0.01239 -0.03197
 C2001 C -0.10888 0.46276 0.46406
 C2002 C -0.10021 0.47768 0.45769
 C2003 C -0.08254 0.48466 0.46488
 C2004 C -0.07438 0.47870 0.48028
 H2005 H -0.10578 0.48493 0.44599
 H2006 H -0.07585 0.49509 0.45667
 H2007 H -0.10343 0.45505 0.47548
 H2008 H -0.08080 0.46848 0.48887
 C2009 C 0.39097 -0.03768 0.46267
 C2010 C 0.40004 -0.02311 0.45591
 C2011 C 0.41784 -0.01621 0.46302
 C2012 C 0.42608 -0.02216 0.47838
 H2013 H 0.39469 -0.01598 0.44404
 H2014 H 0.42452 -0.00578 0.45480
 H2015 H 0.39632 -0.04506 0.47436
 H2016 H 0.41967 -0.03237 0.48700
 C2017 C 0.39087 0.46248 -0.03646
 C2018 C 0.39991 0.47711 -0.04314
 C2019 C 0.41766 0.48407 -0.03596
 C2020 C 0.42589 0.47821 -0.02054
 H2021 H 0.39460 0.48422 -0.05505
 H2022 H 0.42434 0.49448 -0.04420
 H2023 H 0.39619 0.45511 -0.02474
 H2024 H 0.41951 0.46798 -0.01192
 C2025 C 0.35889 0.46530 0.78792
 C2026 C 0.35016 0.45905 0.77295
 C2027 C 0.33247 0.46623 0.76602
 C2028 C 0.32436 0.48171 0.77186
 H2029 H 0.35571 0.44741 0.76559
 H2030 H 0.32573 0.45794 0.75566
 H2031 H 0.35340 0.47662 0.79578
 H2032 H 0.33086 0.49036 0.78202
 C2033 C 0.35933 -0.03487 0.28825
 C2034 C 0.35014 -0.04180 0.27386
 C2035 C 0.33241 -0.03475 0.26687
 C2036 C 0.32421 -0.01928 0.27261
 H2037 H 0.35544 -0.05381 0.26692
 H2038 H 0.32571 -0.04313 0.25655
 H2039 H 0.35421 -0.02307 0.29563
 H2040 H 0.33057 -0.01060 0.28282
 C2041 C 0.14055 0.53652 0.71484
 C2042 C 0.14872 0.52116 0.70883
 C2043 C 0.16651 0.51426 0.71582
 C2044 C 0.17437 0.51974 0.73158
 H2045 H 0.14277 0.51368 0.69744
 H2046 H 0.17356 0.50442 0.70718
 H2047 H 0.14658 0.54454 0.72578
 H2048 H 0.16743 0.52924 0.74062
 C2049 C 0.14125 0.03648 0.21319
 C2050 C 0.14958 0.02128 0.20697
 C2051 C 0.16739 0.01437 0.21395
 C2052 C 0.17522 0.01980 0.22974
 H2053 H 0.14370 0.01390 0.19549
 H2054 H 0.17445 0.00454 0.20531
 H2055 H 0.14720 0.04441 0.22423
 H2056 H 0.16829 0.02931 0.23877
 C2057 C 0.60986 0.71550 0.21265
 C2058 C 0.60124 0.70924 0.22768
 C2059 C 0.58334 0.71611 0.23448
 C2060 C 0.57508 0.73155 0.22874
 H2061 H 0.60699 0.69776 0.23511
 H2062 H 0.57657 0.70760 0.24461
 H2063 H 0.60413 0.72664 0.20471
 H2064 H 0.58165 0.74041 0.21883
 C2065 C 0.10923 0.71580 0.71220
 C2066 C 0.10067 0.70951 0.72723
 C2067 C 0.08287 0.71647 0.73414
 C2068 C 0.07449 0.73175 0.72814
 H2069 H 0.10646 0.69802 0.73463
 H2070 H 0.07630 0.70823 0.74461
 H2071 H 0.10351 0.72697 0.70431
 H2072 H 0.08084 0.74039 0.71790
 C2073 C 0.64040 0.21240 0.53424
 C2074 C 0.64905 0.22745 0.54044
 C2075 C 0.66685 0.23437 0.53347
 C2076 C 0.67528 0.22836 0.51824
 H2077 H 0.64331 0.23496 0.55189
 H2078 H 0.67336 0.24492 0.54171
 H2079 H 0.64603 0.20444 0.52306
 H2080 H 0.66899 0.21804 0.50963
 C2081 C 0.64178 0.71235 0.03658
 C2082 C 0.65037 0.72732 0.04302
 C2083 C 0.66813 0.73428 0.03598
 C2084 C 0.67599 0.72878 0.02025
 H2085 H 0.64464 0.73463 0.05461
 H2086 H 0.67505 0.74439 0.04444
 H2087 H 0.64753 0.70451 0.02539
 H2088 H 0.66925 0.71896 0.01139
 C2089 C 0.10943 0.03665 0.03653
 C2090 C 0.10089 0.02167 0.04295
 C2091 C 0.08306 0.01482 0.03598
 C2092 C 0.07515 0.02036 0.02028
 H2093 H 0.10664 0.01440 0.05455
 H2094 H 0.07605 0.00491 0.04456
 H2095 H 0.10363 0.04448 0.02537
 H2096 H 0.08196 0.03000 0.01131
 C2097 C 0.10961 0.53697 0.53507
 C2098 C 0.10107 0.52191 0.54134
 C2099 C 0.08324 0.51499 0.53437
 C2100 C 0.07496 0.52079 0.51895
 H2101 H 0.10684 0.51456 0.55288
 H2102 H 0.07651 0.50478 0.54281
 H2103 H 0.10388 0.54481 0.52387
 H2104 H 0.08145 0.53079 0.51014
 C2105 C 0.60842 0.03658 0.53713
 C2106 C 0.59996 0.04305 0.52212
 C2107 C 0.58215 0.03614 0.51518
 C2108 C 0.57436 0.02030 0.52044
 H2109 H 0.60573 0.05467 0.51490
 H2110 H 0.57506 0.04489 0.50547
 H2111 H 0.60259 0.02540 0.54491
 H2112 H 0.58128 0.01119 0.52987
 C2113 C 0.60993 0.53668 0.03445
 C2114 C 0.60150 0.52149 0.04055
 C2115 C 0.58366 0.51458 0.03363
 C2116 C 0.57532 0.52041 0.01826
 H2117 H 0.60737 0.51400 0.05195
 H2118 H 0.57696 0.50433 0.04206
 H2119 H 0.60411 0.54466 0.02339
 H2120 H 0.58182 0.53042 0.00945
 C2121 C 0.03536 0.03603 0.10937
 C2122 C 0.04154 0.02078 0.10112
 C2123 C 0.03445 0.01371 0.08346
 C2124 C 0.01854 0.01888 0.07573
 H2125 H 0.05316 0.01355 0.10688
 H2126 H 0.04321 0.00402 0.07635
 H2127 H 0.02418 0.04382 0.10352
 H2128 H 0.00942 0.02829 0.08267
 C2129 C 0.03635 0.53695 0.60936
 C2130 C 0.04270 0.52181 0.60102
 C2131 C 0.03574 0.51476 0.58325
 C2132 C 0.01979 0.51984 0.57555
 H2133 H 0.05430 0.51459 0.60683
 H2134 H 0.04452 0.50511 0.57612
 H2135 H 0.02521 0.54476 0.60344
 H2136 H 0.01065 0.52919 0.58256
 C2137 C 0.53424 0.03763 0.61005
 C2138 C 0.54064 0.02278 0.60115
 C2139 C 0.53340 0.01570 0.58350
 C2140 C 0.51786 0.02131 0.57532
 H2141 H 0.55248 0.01556 0.60644
 H2142 H 0.54185 0.00549 0.57675
 H2143 H 0.52257 0.04508 0.60473
 H2144 H 0.50908 0.03136 0.58178
 C2145 C 0.53649 0.53687 0.10888
 C2146 C 0.54283 0.52183 0.10036
 C2147 C 0.53579 0.51487 0.08260
 C2148 C 0.52000 0.52024 0.07478
 H2149 H 0.55446 0.51457 0.10605
 H2150 H 0.54442 0.50500 0.07557
 H2151 H 0.52526 0.54468 0.10316
 H2152 H 0.51101 0.52984 0.08163
 C2153 C 0.21419 0.53667 0.64071
 C2154 C 0.20785 0.52166 0.64928
 C2155 C 0.21483 0.51486 0.66715
 C2156 C 0.23040 0.52059 0.67522
 H2157 H 0.19628 0.51432 0.64352
 H2158 H 0.20631 0.50484 0.67408
 H2159 H 0.22537 0.54453 0.64646
 H2160 H 0.23928 0.53037 0.66849
 C2161 C 0.21510 0.03682 0.14055
 C2162 C 0.20921 0.02136 0.14860
 C2163 C 0.21620 0.01436 0.16633
 C2164 C 0.23179 0.01999 0.17439
 H2165 H 0.19792 0.01381 0.14257
 H2166 H 0.20767 0.00429 0.17317
 H2167 H 0.22595 0.04490 0.14665
 H2168 H 0.24072 0.02977 0.16769
 C2169 C 0.71130 0.21358 0.60787
 C2170 C 0.72645 0.20739 0.59945
 C2171 C 0.73337 0.21435 0.58165
 C2172 C 0.72713 0.22946 0.57317
 H2173 H 0.73407 0.19616 0.60548
 H2174 H 0.74410 0.20631 0.57523
 H2175 H 0.70325 0.22457 0.60202
 H2176 H 0.71665 0.23791 0.57938
 C2177 C 0.71426 0.71267 0.10838
 C2178 C 0.70773 0.72747 0.09961
 C2179 C 0.71467 0.73434 0.08176
 C2180 C 0.73007 0.72849 0.07348
 H2181 H 0.69611 0.73476 0.10530
 H2182 H 0.70633 0.74469 0.07510
 H2183 H 0.72556 0.70489 0.10277
 H2184 H 0.73877 0.71834 0.07989
 C2185 C 0.53531 0.71403 0.13970
 C2186 C 0.54144 0.72931 0.14795
 C2187 C 0.53438 0.73635 0.16567
 C2188 C 0.51866 0.73087 0.17357
 H2189 H 0.55295 0.73666 0.14213
 H2190 H 0.54298 0.74628 0.17265
 H2191 H 0.52420 0.70616 0.14557
 H2192 H 0.50967 0.72123 0.16674
 C2193 C 0.03762 0.71467 0.64102
 C2194 C 0.02263 0.70827 0.64957
 C2195 C 0.01576 0.71520 0.66740
 C2196 C 0.02135 0.73082 0.67545
 H2197 H 0.01525 0.69676 0.64375
 H2198 H 0.00565 0.70670 0.67423
 H2199 H 0.04553 0.72579 0.64683
 H2200 H 0.03117 0.73971 0.66879
 C2201 C 0.53514 0.64057 0.21259
 C2202 C 0.54124 0.64909 0.22774
 C2203 C 0.53430 0.66695 0.23451
 C2204 C 0.51882 0.67507 0.22869
 H2205 H 0.55266 0.64333 0.23527
 H2206 H 0.54277 0.67381 0.24464
 H2207 H 0.52408 0.64632 0.20456
 H2208 H 0.50996 0.66837 0.21885
 C2209 C 0.03803 0.64214 0.71385
 C2210 C 0.02328 0.65094 0.70721
 C2211 C 0.01636 0.66876 0.71414
 C2212 C 0.02238 0.67719 0.72938
 H2213 H 0.01606 0.64527 0.69552
 H2214 H 0.00585 0.67530 0.70590
 H2215 H 0.04571 0.64766 0.72527
 H2216 H 0.03271 0.67094 0.73799
 C2217 C 0.03363 0.11022 0.03706
 C2218 C 0.03988 0.10166 0.02199
 C2219 C 0.03318 0.08373 0.01515
 C2220 C 0.01798 0.07518 0.02104
 H2221 H 0.05129 0.10751 0.01451
 H2222 H 0.04167 0.07715 0.00486
 H2223 H 0.02252 0.10447 0.04501
 H2224 H 0.00912 0.08154 0.03109
 C2225 C 0.03414 0.61040 0.53669
 C2226 C 0.04026 0.60190 0.52154
 C2227 C 0.03333 0.58405 0.51467
 C2228 C 0.01794 0.57579 0.52047
 H2229 H 0.05171 0.60767 0.51408
 H2230 H 0.04182 0.57728 0.50450
 H2231 H 0.02301 0.60468 0.54464
 H2232 H 0.00908 0.58237 0.53039
 C2233 C 0.53359 0.11040 0.53601
 C2234 C 0.53985 0.10183 0.52097
 C2235 C 0.53290 0.08398 0.51411
 C2236 C 0.51728 0.07589 0.51963
 H2237 H 0.55144 0.10753 0.51365
 H2238 H 0.54155 0.07706 0.50420
 H2239 H 0.52236 0.10471 0.54383
 H2240 H 0.50826 0.08263 0.52928
 C2241 C 0.53499 0.60979 0.03562
 C2242 C 0.54120 0.60140 0.02045
 C2243 C 0.53424 0.58360 0.01352
 C2244 C 0.51856 0.57563 0.01899
 H2245 H 0.55275 0.60718 0.01314
 H2246 H 0.54291 0.57660 0.00367
 H2247 H 0.52382 0.60399 0.04345
 H2248 H 0.50952 0.58247 0.02855
 C2249 C 0.71134 0.14188 0.53580
 C2250 C 0.72633 0.15058 0.54204
 C2251 C 0.73334 0.16823 0.53482
 C2252 C 0.72774 0.17621 0.51918
 H2253 H 0.73366 0.14501 0.55369
 H2254 H 0.74361 0.17503 0.54318
 H2255 H 0.70350 0.14741 0.52449
 H2256 H 0.71769 0.16963 0.51046
 C2257 C 0.71280 0.64130 0.03513
 C2258 C 0.72783 0.64993 0.04141
 C2259 C 0.73471 0.66774 0.03442
 C2260 C 0.72869 0.67602 0.01911
 H2261 H 0.73530 0.64417 0.05287
 H2262 H 0.74516 0.67440 0.04267
 H2263 H 0.70487 0.64696 0.02397
 H2264 H 0.71848 0.66957 0.01049
 C2265 C 0.21279 0.61089 0.71559
 C2266 C 0.22801 0.60243 0.70962
 C2267 C 0.23486 0.58461 0.71658
 C2268 C 0.22882 0.57621 0.73182
 H2269 H 0.23561 0.60825 0.69828
 H2270 H 0.24527 0.57799 0.70828
 H2271 H 0.20473 0.60514 0.72662
 H2272 H 0.21866 0.58263 0.74050
 C2273 C 0.21423 0.10987 0.21413
 C2274 C 0.22928 0.10142 0.20774
 C2275 C 0.23634 0.08371 0.21482
 C2276 C 0.23082 0.07575 0.23049
 H2277 H 0.23642 0.10711 0.19605
 H2278 H 0.24629 0.07675 0.20624
 H2279 H 0.20659 0.10420 0.22548
 H2280 H 0.22112 0.08250 0.23944
 C2281 C 0.71435 1.10955 0.71227
 C2282 C 0.70847 1.10141 0.72769
 C2283 C 0.71539 1.08364 0.73465
 C2284 C 0.73097 1.07555 0.72909
 H2285 H 0.69727 1.10744 0.73533
 H2286 H 0.70683 1.07685 0.74472
 H2287 H 0.72516 1.10349 0.70412
 H2288 H 0.73991 1.08222 0.71931
 C2289 C 0.71535 0.61010 0.21401
 C2290 C 0.70932 0.60182 0.22930
 C2291 C 0.71633 0.58402 0.23620
 C2292 C 0.73199 0.57606 0.23064
 H2293 H 0.69789 0.60768 0.23673
 H2294 H 0.70775 0.57705 0.24613
 H2295 H 0.72636 0.60418 0.20605
 H2296 H 0.74097 0.58290 0.22103
 C2297 C 0.53706 0.14023 0.71411
 C2298 C 0.52271 0.14957 0.70722
 C2299 C 0.51574 0.16727 0.71453
 C2300 C 0.52109 0.17515 0.73034
 H2301 H 0.51583 0.14456 0.69505
 H2302 H 0.50583 0.17429 0.70595
 H2303 H 0.54419 0.14528 0.72611
 H2304 H 0.53088 0.16845 0.73924
 C2305 C 1.03677 0.14040 0.21424
 C2306 C 1.02162 0.14877 0.20795
 C2307 C 1.01468 0.16657 0.21489
 C2308 C 1.01999 0.17438 0.23070
 H2309 H 1.01430 0.14297 0.19639
 H2310 H 1.00492 0.17363 0.20617
 H2311 H 1.04464 0.14628 0.22535
 H2312 H 1.02945 0.16745 0.23978
 C2313 C 0.21483 0.64124 0.53721
 C2314 C 0.20857 0.64976 0.52214
 C2315 C 0.21562 0.66750 0.51515
 C2316 C 0.23096 0.67582 0.52110
 H2317 H 0.19706 0.64398 0.51474
 H2318 H 0.20739 0.67407 0.50466
 H2319 H 0.22603 0.64694 0.54509
 H2320 H 0.23959 0.66948 0.53135
 C2321 C 0.21234 0.14172 1.03617
 C2322 C 0.22720 0.15047 1.04261
 C2323 C 0.23413 0.16819 1.03547
 C2324 C 0.22863 0.17601 1.01972
 H2325 H 0.23444 0.14494 1.05433
 H2326 H 0.24419 0.17515 1.04394
 H2327 H 0.20457 0.14724 1.02482
 H2328 H 0.21881 0.16925 1.01087
 C2329 C 0.21467 0.71314 0.60839
 C2330 C 0.20798 0.72777 0.59943
 C2331 C 0.21493 0.73457 0.58159
 C2332 C 0.23052 0.72895 0.57355
 H2333 H 0.19620 0.73494 0.60492
 H2334 H 0.20641 0.74462 0.57470
 H2335 H 0.22613 0.70547 0.60297
 H2336 H 0.23939 0.71911 0.58020
 C2337 C 0.21180 0.21381 1.10825
 C2338 C 0.22673 0.20746 1.09956
 C2339 C 0.23368 0.21455 1.08181
 C2340 C 0.22734 0.22959 1.07326
 H2341 H 0.23415 0.19596 1.10532
 H2342 H 0.24450 0.20658 1.07543
 H2343 H 0.20399 0.22511 1.10269
 H2344 H 0.21672 0.23793 1.07936
 C2345 C 0.71540 0.53697 0.13991
 C2346 C 0.70916 0.52193 0.14849
 C2347 C 0.71612 0.51519 0.16636
 C2348 C 0.73156 0.52107 0.17457
 H2349 H 0.69766 0.51448 0.14275
 H2350 H 0.70768 0.50502 0.17316
 H2351 H 0.72654 0.54492 0.14563
 H2352 H 0.74039 0.53099 0.16797
 C2353 C 0.71429 1.03685 0.64072
 C2354 C 0.70816 1.02150 0.64886
 C2355 C 0.71517 1.01430 0.66653
 C2356 C 0.73097 1.01954 0.67444
 H2357 H 0.69664 1.01420 0.64297
 H2358 H 0.70648 1.00442 0.67346
 H2359 H 0.72539 1.04469 0.64667
 H2360 H 0.74001 1.02914 0.66765
 C2361 C 0.53657 0.21590 0.63993
 C2362 C 0.52137 0.20974 0.64829
 C2363 C 0.51459 0.21644 0.66622
 C2364 C 0.52036 0.23183 0.67455
 H2365 H 0.51381 0.19842 0.64232
 H2366 H 0.50449 0.20785 0.67295
 H2367 H 0.54463 0.22684 0.64589
 H2368 H 0.53016 0.24081 0.66798
 C2369 C 1.03691 0.21603 0.14016
 C2370 C 1.02180 0.20983 0.14866
 C2371 C 1.01507 0.21655 0.16664
 C2372 C 1.02116 0.23169 0.17525
 H2373 H 1.01423 0.19851 0.14272
 H2374 H 1.00469 0.20815 0.17319
 H2375 H 1.04494 0.22704 0.14602
 H2376 H 1.03130 0.24046 0.16892
 C2377 C 0.61012 0.21460 0.71577
 C2378 C 0.60176 0.22979 0.70960
 C2379 C 0.58394 0.23668 0.71647
 C2380 C 0.57574 0.23090 0.73190
 H2381 H 0.60758 0.23719 0.69812
 H2382 H 0.57713 0.24675 0.70792
 H2383 H 0.60433 0.20671 0.72690
 H2384 H 0.58239 0.22112 0.74086
 C2385 C 1.11050 0.21420 0.21612
 C2386 C 1.10205 0.22938 0.21004
 C2387 C 1.08422 0.23619 0.21699
 C2388 C 1.07591 0.23011 0.23226
 H2389 H 1.10786 0.23690 0.19863
 H2390 H 1.07747 0.24646 0.20863
 H2391 H 1.10476 0.20622 0.22721
 H2392 H 1.08246 0.22009 0.24101
 C2393 C 0.14167 0.71238 0.53564
 C2394 C 0.15054 0.72716 0.54216
 C2395 C 0.16837 0.73400 0.53517
 C2396 C 0.17662 0.72804 0.51981
 H2397 H 0.14495 0.73449 0.55380
 H2398 H 0.17505 0.74442 0.54344
 H2399 H 0.14715 0.70460 0.52428
 H2400 H 0.17018 0.71783 0.51117
 C2401 C 0.14047 0.21273 1.03416
 C2402 C 0.14917 0.22775 1.04035
 C2403 C 0.16700 0.23456 1.03336
 C2404 C 0.17557 0.22823 1.01833
 H2405 H 0.14343 0.23531 1.05177
 H2406 H 0.17343 0.24528 1.04143
 H2407 H 0.14605 0.20475 1.02298
 H2408 H 0.16938 0.21772 1.00988
 C2409 C 0.64098 0.53708 0.21495
 C2410 C 0.64948 0.52201 0.20866
 C2411 C 0.66731 0.51515 0.21556
 C2412 C 0.67542 0.52074 0.23114
 H2413 H 0.64373 0.51464 0.19712
 H2414 H 0.67417 0.50516 0.20694
 H2415 H 0.64673 0.54496 0.22613
 H2416 H 0.66874 0.53046 0.24014
 C2417 C 0.64038 1.03570 0.71246
 C2418 C 0.64841 1.04139 0.72804
 C2419 C 0.66631 1.03461 0.73489
 C2420 C 0.67460 1.01918 0.72912
 H2421 H 0.64218 1.05236 0.73587
 H2422 H 0.67299 1.04308 0.74515
 H2423 H 0.64671 1.02520 0.70410
 H2424 H 0.66802 1.01030 0.71920
 C2425 C 0.85903 0.46214 0.28642
 C2426 C 0.85048 0.47721 0.29263
 C2427 C 0.83274 0.48417 0.28551
 C2428 C 0.82458 0.47835 0.27002
 H2429 H 0.85624 0.48464 0.30414
 H2430 H 0.82606 0.49459 0.29377
 H2431 H 0.85330 0.45421 0.27526
 H2432 H 0.83106 0.46820 0.26136
 C2433 C 0.85813 0.96479 0.78919
 C2434 C 0.84965 0.95856 0.77406
 C2435 C 0.83192 0.96555 0.76703
 C2436 C 0.82360 0.98089 0.77292
 H2437 H 0.85550 0.94714 0.76658
 H2438 H 0.82541 0.95731 0.75648
 H2439 H 0.85238 0.97590 0.79713
 H2440 H 0.82991 0.98953 0.78321
 C2441 C 0.39125 0.28639 0.78662
 C2442 C 0.39984 0.29279 0.77166
 C2443 C 0.41761 0.28574 0.76472
 C2444 C 0.42564 0.27015 0.77037
 H2445 H 0.39413 0.30441 0.76440
 H2446 H 0.42444 0.29417 0.75456
 H2447 H 0.39692 0.27513 0.79440
 H2448 H 0.41900 0.26132 0.78025
 C2449 C 0.89176 0.28596 0.28792
 C2450 C 0.90056 0.29238 0.27308
 C2451 C 0.91829 0.28525 0.26618
 C2452 C 0.92616 0.26954 0.27171
 H2453 H 0.89504 0.30410 0.26583
 H2454 H 0.92524 0.29372 0.25613
 H2455 H 0.89724 0.27458 0.29568
 H2456 H 0.91941 0.26070 0.28151
 C2457 C 0.35992 0.78605 0.46278
 C2458 C 0.35140 0.79233 0.47785
 C2459 C 0.33357 0.78536 0.48467
 C2460 C 0.32555 0.76974 0.47902
 H2461 H 0.35715 0.80388 0.48522
 H2462 H 0.32664 0.79390 0.49468
 H2463 H 0.35416 0.77489 0.45488
 H2464 H 0.33230 0.76081 0.46929
 C2465 C 0.36039 0.28656 0.96617
 C2466 C 0.35194 0.27135 0.96006
 C2467 C 0.33408 0.26446 0.96690
 C2468 C 0.32557 0.27047 0.98210
 H2469 H 0.35779 0.26385 0.94866
 H2470 H 0.32749 0.25409 0.95850
 H2471 H 0.35461 0.29452 0.97726
 H2472 H 0.33195 0.28059 0.99088
 C2473 C 0.78641 0.46203 0.35829
 C2474 C 0.79312 0.47672 0.34944
 C2475 C 0.78614 0.48368 0.33167
 C2476 C 0.77073 0.47786 0.32341
 H2477 H 0.80488 0.48387 0.35503
 H2478 H 0.79448 0.49405 0.32504
 H2479 H 0.77493 0.45441 0.35283
 H2480 H 0.76204 0.46767 0.32976
 C2481 C 0.78677 0.96476 0.85889
 C2482 C 0.77157 0.95859 0.85050
 C2483 C 0.76457 0.96560 0.83275
 C2484 C 0.77025 0.98115 0.82468
 H2485 H 0.76416 0.94711 0.85633
 H2486 H 0.75435 0.95717 0.82596
 H2487 H 0.79469 0.97585 0.85307
 H2488 H 0.78017 0.98997 0.83131
 C2489 C 0.28594 0.78548 0.38973
 C2490 C 0.27072 0.79161 0.39805
 C2491 C 0.26385 0.78466 0.41587
 C2492 C 0.26953 0.76908 0.42388
 H2493 H 0.26328 0.80305 0.39220
 H2494 H 0.25388 0.79323 0.42281
 H2495 H 0.29390 0.77444 0.39561
 H2496 H 0.27920 0.76012 0.41709
 C2497 C 0.28690 0.28583 0.89023
 C2498 C 0.27183 0.29206 0.89875
 C2499 C 0.26492 0.28502 0.91653
 C2500 C 0.27082 0.26962 0.92476
 H2501 H 0.26444 0.30359 0.89301
 H2502 H 0.25464 0.29339 0.92326
 H2503 H 0.29476 0.27462 0.89592
 H2504 H 0.28088 0.26088 0.91826
 C2505 C 0.46340 0.28756 0.85859
 C2506 C 0.45695 0.27260 0.84994
 C2507 C 0.46382 0.26572 0.83205
 C2508 C 0.47918 0.27162 0.82378
 H2509 H 0.44547 0.26521 0.85577
 H2510 H 0.45551 0.25533 0.82538
 H2511 H 0.47453 0.29547 0.85282
 H2512 H 0.48787 0.28175 0.83026
 C2513 C 0.96256 0.28524 0.35971
 C2514 C 0.97738 0.29163 0.35086
 C2515 C 0.98434 0.28440 0.33316
 C2516 C 0.97820 0.26916 0.32478
 H2517 H 0.98467 0.30334 0.35639
 H2518 H 0.99497 0.29249 0.32664
 H2519 H 0.95485 0.27376 0.35434
 H2520 H 0.96772 0.26072 0.33101
 C2521 C 0.46205 0.35899 0.78545
 C2522 C 0.47709 0.35043 0.79176
 C2523 C 0.48403 0.33265 0.78479
 C2524 C 0.47796 0.32423 0.76955
 H2525 H 0.48452 0.35624 0.80323
 H2526 H 0.49459 0.32614 0.79298
 H2527 H 0.45415 0.35329 0.77426
 H2528 H 0.46766 0.33053 0.76095
 C2529 C 0.96428 0.35822 0.28863
 C2530 C 0.95772 0.34944 0.27380
 C2531 C 0.96466 0.33162 0.26686
 C2532 C 0.98004 0.32336 0.27272
 H2533 H 0.94608 0.35510 0.26654
 H2534 H 0.95634 0.32496 0.25648
 H2535 H 0.97563 0.35266 0.29638
 H2536 H 0.98873 0.32978 0.28291
 C2537 C 0.28494 0.86003 0.46353
 C2538 C 0.29113 0.85159 0.47866
 C2539 C 0.28419 0.83375 0.48550
 C2540 C 0.26874 0.82553 0.47969
 H2541 H 0.30262 0.85739 0.48608
 H2542 H 0.29272 0.82694 0.49560
 H2543 H 0.27380 0.85425 0.45561
 H2544 H 0.25985 0.83214 0.46983
 C2545 C 0.28607 0.36023 0.96539
 C2546 C 0.27090 0.35184 0.95917
 C2547 C 0.26409 0.33393 0.96595
 C2548 C 0.26981 0.32573 0.98143
 H2549 H 0.26345 0.35772 0.94775
 H2550 H 0.25408 0.32708 0.95734
 H2551 H 0.29402 0.35435 0.97643
 H2552 H 0.27951 0.33242 0.99045
 C2553 C 0.78804 0.39162 0.28546
 C2554 C 0.77300 0.40016 0.29175
 C2555 C 0.76599 0.41788 0.28469
 C2556 C 0.77158 0.42591 0.26909
 H2557 H 0.76569 0.39447 0.30334
 H2558 H 0.75581 0.42469 0.29313
 H2559 H 0.79586 0.39730 0.27422
 H2560 H 0.78149 0.41929 0.26026
   
