data_POSCAR
  _audit_creation_date              2014-09-24
  _audit_creation_method            'ToBaCCo'
  _symmetry_space_group_name_H-M    'P1'
  _symmetry_Int_Tables_number       1
  _symmetry_cell_setting            triclinic
  loop_
  _symmetry_equiv_pos_as_xyz
 x,y,z
_cell_length_a 32.2022
_cell_length_b 32.2309
_cell_length_c 32.2228
_cell_angle_alpha 89.663700
_cell_angle_beta 90.135900
_cell_angle_gamma 89.698000
loop_
  _atom_site_label
  _atom_site_type_symbol
  _atom_site_fract_x
  _atom_site_fract_y
  _atom_site_fract_z
C1 C 0.22960 0.95329 0.01395
 C2 C 0.23921 0.95275 -0.02913
 C3 C 0.24438 0.99123 -0.04968
 C4 C 0.24278 1.02921 -0.02834
 C5 C 0.23429 1.02878 0.01454
 C6 C 0.22588 0.99129 0.03448
 H7 H 0.22145 0.99136 0.06789
 H8 H 0.24944 0.99176 -0.08297
 C9 C 0.75113 0.45344 0.46721
 C10 C 0.75529 0.45118 0.51090
 C11 C 0.75773 0.48781 0.53359
 C12 C 0.75351 0.52670 0.51474
 C13 C 0.75027 0.52928 0.47126
 C14 C 0.74915 0.49268 0.44800
 H15 H 0.74643 0.49477 0.41448
 H16 H 0.76090 0.48598 0.56712
 C17 C 0.72709 0.96980 1.03053
 C18 C 0.72097 1.01352 1.02842
 C19 C 0.72562 1.03375 0.99002
 C20 C 0.73722 1.01266 0.95412
 C21 C 0.74229 0.96918 0.95556
 C22 C 0.73548 0.94855 0.99339
 H23 H 0.73772 0.91493 0.99407
 H24 H 0.72315 1.06736 0.98851
 C25 C 0.23946 0.46835 0.45507
 C26 C 0.23227 0.51168 0.45403
 C27 C 0.22642 0.53308 0.49125
 C28 C 0.22765 0.51286 0.52965
 C29 C 0.23463 0.46979 0.53101
 C30 C 0.23890 0.44793 0.49371
 H31 H 0.24385 0.41462 0.49495
 H32 H 0.22200 0.56650 0.49040
 C33 C 1.02727 0.24860 0.02946
 C34 C 1.02732 0.26137 -0.01273
 C35 C 0.98956 0.26746 -0.03326
 C36 C 0.95174 0.25879 -0.01420
 C37 C 0.95100 0.24808 0.02832
 C38 C 0.98880 0.24398 0.04971
 H39 H 0.98818 0.23668 0.08262
 H40 H 0.98977 0.27491 -0.06622
 C41 C 0.44749 0.74813 0.48753
 C42 C 0.44710 0.75087 0.53126
 C43 C 0.48513 0.75137 0.55242
 C44 C 0.52322 0.74909 0.53143
 C45 C 0.52350 0.74695 0.48742
 C46 C 0.48539 0.74532 0.46663
 H47 H 0.48510 0.74341 0.43299
 H48 H 0.48514 0.75250 0.58608
 C49 C -0.03243 0.75094 0.04708
 C50 C 0.00677 0.73032 0.04825
 C51 C 0.02470 0.71605 0.01151
 C52 C 0.00689 0.72402 -0.02730
 C53 C -0.03187 0.74480 -0.02895
 C54 C -0.05132 0.75707 0.00792
 H55 H -0.08229 0.77037 0.00594
 H56 H 0.05585 0.70298 0.01298
 C57 C 0.51151 0.25888 0.47012
 C58 C 0.46823 0.26545 0.47006
 C59 C 0.44770 0.26972 0.50824
 C60 C 0.46927 0.26752 0.54634
 C61 C 0.51307 0.26229 0.54559
 C62 C 0.53315 0.25805 0.50752
 H63 H 0.56654 0.25306 0.50700
 H64 H 0.41424 0.27378 0.50834
 C65 C 0.96637 0.03185 0.25390
 C66 C 0.96472 -0.01178 0.25756
 C67 C 1.00160 -0.03447 0.25676
 C68 C 1.03983 -0.01615 0.24800
 C69 C 1.04255 0.02797 0.24652
 C70 C 1.00517 0.05102 0.24971
 H71 H 1.00609 0.08464 0.24790
 H72 H 1.00014 -0.06806 0.25962
 C73 C 0.46646 0.48240 0.77246
 C74 C 0.46790 0.52613 0.77369
 C75 C 0.50665 0.54553 0.77329
 C76 C 0.54388 0.52278 0.76950
 C77 C 0.54195 0.47885 0.76760
 C78 C 0.50331 0.45957 0.77005
 H79 H 0.50173 0.42597 0.76827
 H80 H 0.50774 0.57916 0.77422
 C81 C 1.02786 1.03916 0.74600
 C82 C 0.98604 1.04347 0.73181
 C83 C 0.96336 1.00740 0.72329
 C84 C 0.97952 0.96802 0.73145
 C85 C 1.02172 0.96352 0.74125
 C86 C 1.04573 0.99910 0.74670
 H87 H 1.07852 0.99530 0.75362
 H88 H 0.93062 1.00989 0.71533
 C89 C 0.52166 0.46939 0.22817
 C90 C 0.47829 0.47410 0.22905
 C91 C 0.46139 0.51401 0.22900
 C92 C 0.48596 0.54886 0.23634
 C93 C 0.52972 0.54409 0.23949
 C94 C 0.54677 0.50465 0.23107
 H95 H 0.58023 0.50062 0.23056
 H96 H 0.42785 0.51758 0.22775
 O97 O 0.26889 0.14189 0.17403
 O98 O 0.31955 0.13357 0.23152
 O99 O 0.16106 0.18128 0.23885
 O100 O 0.14252 0.23464 0.28050
 O101 O 0.20208 0.24664 0.12753
 O102 O 0.25734 0.29635 0.11547
 O103 O 0.26147 0.30609 0.34010
 O104 O 0.21670 0.24576 0.35156
 O105 O 0.37083 0.25613 0.28903
 O106 O 0.38360 0.20776 0.22835
 O107 O 0.31329 0.35784 0.23483
 O108 O 0.25049 0.36512 0.18534
 O109 O 0.25519 0.35550 0.28979
 O110 O 0.21046 0.36678 0.23344
 O111 O 0.36610 0.31085 0.23160
 O112 O 0.38293 0.25503 0.18700
 O113 O 0.32175 0.25367 0.33953
 O114 O 0.27177 0.20520 0.35622
 O115 O 0.26107 0.19259 0.12495
 O116 O 0.30535 0.25087 0.11293
 O117 O 0.15404 0.23839 0.17865
 O118 O 0.14088 0.28600 0.23537
 O119 O 0.21475 0.13523 0.23513
 O120 O 0.27404 0.12686 0.27742
 Zr121 Zr 0.26725 0.17351 0.23148
 O122 O 0.30332 0.21153 0.27027
 Zr123 Zr 0.18860 0.24056 0.23414
 O124 O 0.22195 0.28236 0.27159
 Zr125 Zr 0.25919 0.24733 0.15936
 O126 O 0.29651 0.28776 0.19405
 Zr127 Zr 0.26525 0.24929 0.30758
 O128 O 0.22904 0.20660 0.27324
 Zr129 Zr 0.33641 0.25346 0.23323
 O130 O 0.30325 0.21287 0.19391
 Zr131 Zr 0.25851 0.32179 0.23441
 O132 O 0.22036 0.28396 0.19671
 O133 O 0.22492 0.20553 0.19459
 O134 O 0.30069 0.29047 0.27264
 C135 C 0.26486 0.15459 0.13621
 C136 C 0.17597 0.14406 0.23800
 C137 C 0.16467 0.24178 0.14036
 C138 C 0.25761 0.34407 0.32789
 C139 C 0.35953 0.25627 0.32727
 C140 C 0.35208 0.34802 0.23353
 H141 H 0.32211 0.19394 0.28721
 H142 H 0.31208 0.30595 0.17488
 H143 H 0.20774 0.18662 0.17776
 H144 H 0.20236 0.29810 0.28915
 H145 H 0.19935 0.22168 0.34388
 H146 H 0.15020 0.25312 0.30365
 H147 H 0.37186 0.27147 0.16341
 H148 H 0.32784 0.23151 0.12138
 H149 H 0.28610 0.18067 0.34473
 H150 H 0.25536 0.13467 0.30048
 H151 H 0.27620 0.36525 0.16859
 H152 H 0.23527 0.31572 0.12460
 H153 H 0.33820 0.14359 0.20929
 H154 H 0.38216 0.18965 0.25319
 H155 H 0.14737 0.30659 0.21343
 H156 H 0.18709 0.35529 0.24961
 O157 O 0.73511 0.87471 0.21079
 O158 O 0.69368 0.88372 0.27212
 O159 O 0.85061 0.83325 0.26767
 O160 O 0.86848 0.78095 0.31350
 O161 O 0.80695 0.77078 0.16175
 O162 O 0.74951 0.72072 0.15096
 O163 O 0.75222 0.70891 0.37553
 O164 O 0.80145 0.76669 0.38372
 O165 O 0.64538 0.75893 0.33201
 O166 O 0.62737 0.80894 0.27135
 O167 O 0.69585 0.65837 0.26561
 O168 O 0.75973 0.65134 0.22039
 O169 O 0.74981 0.65991 0.32505
 O170 O 0.79788 0.64759 0.26951
 O171 O 0.64373 0.70563 0.27101
 O172 O 0.62433 0.76277 0.23024
 O173 O 0.69692 0.76447 0.37979
 O174 O 0.74432 0.80986 0.39106
 O175 O 0.74204 0.82513 0.16131
 O176 O 0.70369 0.76572 0.14752
 O177 O 0.85676 0.77299 0.21192
 O178 O 0.87026 0.72882 0.26723
 O179 O 0.79688 0.87948 0.26532
 O180 O 0.74043 0.88795 0.31371
 Zr181 Zr 0.74420 0.84201 0.26716
 O182 O 0.70999 0.80411 0.30775
 Zr183 Zr 0.82248 0.77423 0.26698
 O184 O 0.79021 0.73197 0.30526
 Zr185 Zr 0.74929 0.76948 0.19460
 O186 O 0.71213 0.72956 0.23082
 Zr187 Zr 0.74979 0.76576 0.34302
 O188 O 0.78450 0.80865 0.30738
 Zr189 Zr 0.67444 0.76283 0.27275
 O190 O 0.70638 0.80305 0.23141
 Zr191 Zr 0.75100 0.69390 0.26939
 O192 O 0.78855 0.73174 0.23076
 O193 O 0.78503 0.81044 0.22829
 O194 O 0.71169 0.72518 0.31003
 C195 C 0.73583 0.86272 0.17279
 C196 C 0.83558 0.87037 0.26612
 C197 C 0.84529 0.77118 0.17392
 C198 C 0.75056 0.67117 0.36312
 C199 C 0.65882 0.76045 0.36984
 C200 C 0.65708 0.66828 0.26735
 H201 H 0.69278 0.82186 0.32589
 H202 H 0.69546 0.71235 0.21178
 H203 H 0.80089 0.82905 0.20970
 H204 H 0.80995 0.71546 0.32222
 H205 H 0.81708 0.79237 0.37754
 H206 H 0.86381 0.75934 0.33490
 H207 H 0.63441 0.74909 0.20477
 H208 H 0.67881 0.78022 0.15828
 H209 H 0.75539 0.83612 0.37987
 H210 H 0.76500 0.88451 0.33194
 H211 H 0.73591 0.65449 0.20116
 H212 H 0.77345 0.70258 0.15796
 H213 H 0.67059 0.87129 0.25635
 H214 H 0.62860 0.82440 0.29776
 H215 H 0.85962 0.70492 0.25132
 H216 H 0.81977 0.65620 0.28919
 O217 O 0.75621 0.13667 0.80119
 O218 O 0.71752 0.12033 0.74728
 O219 O 0.86346 0.19704 0.75028
 O220 O 0.87459 0.25184 0.70792
 O221 O 0.80357 0.25079 0.85721
 O222 O 0.74701 0.28279 0.87361
 O223 O 0.74873 0.29874 0.63666
 O224 O 0.78896 0.24416 0.62279
 O225 O 0.64071 0.24578 0.69539
 O226 O 0.62719 0.20540 0.74867
 O227 O 0.69438 0.35503 0.74246
 O228 O 0.74579 0.37148 0.78449
 O229 O 0.74958 0.35083 0.68396
 O230 O 0.79925 0.36282 0.74763
 O231 O 0.64454 0.30564 0.74871
 O232 O 0.63719 0.24179 0.80008
 O233 O 0.68832 0.24844 0.64348
 O234 O 0.75043 0.19400 0.63364
 O235 O 0.75191 0.18476 0.85245
 O236 O 0.69823 0.24492 0.86076
 O237 O 0.85559 0.25237 0.80961
 O238 O 0.86424 0.30153 0.74784
 O239 O 0.81712 0.14448 0.74323
 O240 O 0.75275 0.13188 0.69644
 Zr241 Zr 0.75685 0.17257 0.74756
 O242 O 0.71334 0.20681 0.71198
 Zr243 Zr 0.82516 0.24902 0.75084
 O244 O 0.78848 0.28329 0.70847
 Zr245 Zr 0.75079 0.24356 0.82147
 O246 O 0.71408 0.28478 0.78583
 Zr247 Zr 0.74757 0.24592 0.67352
 O248 O 0.79160 0.21110 0.70875
 Zr249 Zr 0.67704 0.24770 0.74825
 O250 O 0.71351 0.20600 0.78437
 Zr251 Zr 0.74910 0.32078 0.74340
 O252 O 0.78625 0.28684 0.78646
 O253 O 0.79250 0.20772 0.78787
 O254 O 0.70920 0.28576 0.70690
 C255 C 0.75341 0.14701 0.83921
 C256 C 0.85453 0.15894 0.74509
 C257 C 0.84165 0.25359 0.84713
 C258 C 0.74980 0.33696 0.64637
 C259 C 0.65065 0.24733 0.65722
 C260 C 0.65668 0.34370 0.74607
 H261 H 0.69556 0.18764 0.69607
 H262 H 0.69768 0.30263 0.80462
 H263 H 0.81108 0.19073 0.80572
 H264 H 0.80716 0.29942 0.69034
 H265 H 0.81623 0.25304 0.63363
 H266 H 0.86503 0.23698 0.68289
 H267 H 0.63488 0.26929 0.81340
 H268 H 0.68472 0.21747 0.85890
 H269 H 0.72206 0.18270 0.63081
 H270 H 0.77780 0.13629 0.67931
 H271 H 0.75188 0.36005 0.81239
 H272 H 0.74930 0.31144 0.86276
 H273 H 0.69046 0.13002 0.75814
 H274 H 0.63966 0.17762 0.74469
 H275 H 0.85914 0.31803 0.77317
 H276 H 0.81399 0.36286 0.72073
 O277 O 0.22962 0.83391 0.81497
 O278 O 0.26597 0.85207 0.75394
 O279 O 0.11758 0.78310 0.75288
 O280 O 0.10539 0.73011 0.71035
 O281 O 0.16886 0.72160 0.86119
 O282 O 0.23209 0.68069 0.87394
 O283 O 0.22682 0.67249 0.64711
 O284 O 0.17722 0.72953 0.63811
 O285 O 0.33272 0.73573 0.69452
 O286 O 0.34206 0.78000 0.76241
 O287 O 0.28861 0.62336 0.75742
 O288 O 0.23185 0.60455 0.79503
 O289 O 0.23357 0.62243 0.69674
 O290 O 0.18320 0.61048 0.75750
 O291 O 0.33647 0.67469 0.75196
 O292 O 0.35200 0.72794 0.79406
 O293 O 0.28229 0.73074 0.64532
 O294 O 0.22924 0.77389 0.63240
 O295 O 0.22507 0.78339 0.86429
 O296 O 0.27303 0.72873 0.87483
 O297 O 0.11928 0.72433 0.81074
 O298 O 0.11154 0.67719 0.75352
 O299 O 0.16575 0.83417 0.75892
 O300 O 0.22172 0.84885 0.71059
 Zr301 Zr 0.22317 0.80279 0.75762
 O302 O 0.26251 0.76927 0.71755
 Zr303 Zr 0.15300 0.72797 0.75574
 O304 O 0.18970 0.69063 0.71673
 Zr305 Zr 0.22575 0.72861 0.82920
 O306 O 0.26595 0.69242 0.79281
 Zr307 Zr 0.22769 0.72866 0.68030
 O308 O 0.18780 0.76665 0.71630
 Zr309 Zr 0.30125 0.72982 0.75233
 O310 O 0.26499 0.76675 0.79313
 Zr311 Zr 0.23124 0.65489 0.75282
 O312 O 0.19066 0.68811 0.79244
 O313 O 0.18574 0.76671 0.79554
 O314 O 0.26865 0.69011 0.71321
 C315 C 0.22936 0.82134 0.85304
 C316 C 0.12825 0.82137 0.75528
 C317 C 0.13093 0.72078 0.84855
 C318 C 0.22953 0.63441 0.65900
 C319 C 0.32015 0.73535 0.65644
 C320 C 0.32621 0.63649 0.75645
 H321 H 0.27855 0.78932 0.70083
 H322 H 0.28372 0.67584 0.81176
 H323 H 0.16773 0.78344 0.81391
 H324 H 0.17133 0.67326 0.69957
 H325 H 0.15856 0.75258 0.64637
 H326 H 0.11473 0.71346 0.68640
 H327 H 0.34118 0.71735 0.82077
 H328 H 0.29436 0.74851 0.86508
 H329 H 0.23611 0.80061 0.64551
 H330 H 0.19931 0.84116 0.69103
 H331 H 0.23854 0.61629 0.82243
 H332 H 0.21075 0.65970 0.86760
 H333 H 0.29242 0.84118 0.76518
 H334 H 0.34204 0.79722 0.73693
 H335 H 0.12068 0.65703 0.77501
 H336 H 0.16687 0.61145 0.73146
 O337 O 0.23906 0.36975 0.70718
 O338 O 0.18923 0.37792 0.76428
 O339 O 0.34745 0.32909 0.77340
 O340 O 0.36346 0.27625 0.81843
 O341 O 0.30965 0.26446 0.66390
 O342 O 0.25280 0.21487 0.65045
 O343 O 0.24473 0.20622 0.87509
 O344 O 0.29086 0.26488 0.88573
 O345 O 0.13774 0.25590 0.82267
 O346 O 0.12611 0.30659 0.76077
 O347 O 0.19244 0.15474 0.76741
 O348 O 0.25749 0.14762 0.71980
 O349 O 0.25010 0.15676 0.82526
 O350 O 0.29318 0.14208 0.77109
 O351 O 0.14049 0.20262 0.76386
 O352 O 0.12438 0.25812 0.72072
 O353 O 0.18655 0.25919 0.87371
 O354 O 0.23268 0.30712 0.88825
 O355 O 0.24769 0.31941 0.65859
 O356 O 0.20724 0.26058 0.64428
 O357 O 0.35654 0.27120 0.71629
 O358 O 0.36741 0.22477 0.77306
 O359 O 0.29421 0.37550 0.76713
 O360 O 0.23395 0.38553 0.80889
 Zr361 Zr 0.24153 0.33792 0.76457
 O362 O 0.20494 0.30053 0.80348
 Zr363 Zr 0.31962 0.27014 0.76979
 O364 O 0.28513 0.22844 0.80637
 Zr365 Zr 0.25071 0.26425 0.69335
 O366 O 0.21148 0.22480 0.72774
 Zr367 Zr 0.24232 0.26239 0.84145
 O368 O 0.27918 0.30490 0.80753
 Zr369 Zr 0.17159 0.25919 0.76641
 O370 O 0.20600 0.29878 0.72672
 Zr371 Zr 0.24805 0.18982 0.76904
 O372 O 0.28802 0.22701 0.73218
 O373 O 0.28442 0.30567 0.72879
 O374 O 0.20629 0.22165 0.80658
 C375 C 0.24287 0.35735 0.66953
 C376 C 0.33274 0.36626 0.77086
 C377 C 0.34709 0.26801 0.67780
 C378 C 0.24843 0.16841 0.86323
 C379 C 0.14903 0.25668 0.86103
 C380 C 0.15379 0.16516 0.76515
 H381 H 0.18667 0.31842 0.82043
 H382 H 0.19580 0.20710 0.70833
 H383 H 0.30177 0.32426 0.71162
 H384 H 0.30431 0.21213 0.82414
 H385 H 0.30706 0.29021 0.87961
 H386 H 0.35619 0.25614 0.84051
 H387 H 0.13633 0.24454 0.69600
 H388 H 0.18293 0.27744 0.65273
 H389 H 0.24520 0.33309 0.87799
 H390 H 0.25559 0.38135 0.83038
 H391 H 0.23183 0.14714 0.70287
 H392 H 0.27580 0.19631 0.65930
 H393 H 0.17098 0.36889 0.74131
 H394 H 0.12541 0.32213 0.78716
 H395 H 0.36163 0.20413 0.75118
 H396 H 0.31953 0.15538 0.77916
 O397 O 0.76202 0.63846 0.67993
 O398 O 0.81632 0.63147 0.73543
 O399 O 0.65815 0.68216 0.74663
 O400 O 0.63958 0.73742 0.78366
 O401 O 0.70005 0.74502 0.63105
 O402 O 0.75619 0.79191 0.61796
 O403 O 0.76337 0.80522 0.84326
 O404 O 0.71826 0.74878 0.85760
 O405 O 0.87059 0.75114 0.79089
 O406 O 0.88084 0.70253 0.73021
 O407 O 0.81395 0.85431 0.73669
 O408 O 0.75146 0.86315 0.68831
 O409 O 0.75772 0.85387 0.79224
 O410 O 0.71093 0.86483 0.73584
 O411 O 0.86587 0.80625 0.73508
 O412 O 0.88097 0.75030 0.68907
 O413 O 0.82223 0.75096 0.84227
 O414 O 0.76681 0.70148 0.85825
 O415 O 0.75858 0.68840 0.62971
 O416 O 0.80320 0.74605 0.61644
 O417 O 0.65219 0.73809 0.68251
 O418 O 0.64103 0.78771 0.73898
 O419 O 0.71121 0.63522 0.74767
 O420 O 0.77247 0.62312 0.78023
 Zr421 Zr 0.76400 0.67145 0.73650
 O422 O 0.80156 0.70896 0.77423
 Zr423 Zr 0.68690 0.74038 0.73830
 O424 O 0.72170 0.78142 0.77531
 Zr425 Zr 0.75706 0.74391 0.66297
 O426 O 0.79545 0.78415 0.69679
 Zr427 Zr 0.76479 0.74803 0.81140
 O428 O 0.72702 0.70635 0.77783
 Zr429 Zr 0.83504 0.74950 0.73594
 O430 O 0.80050 0.70909 0.69775
 Zr431 Zr 0.75864 0.81946 0.73719
 O432 O 0.71954 0.78217 0.70002
 O433 O 0.72182 0.70343 0.69915
 O434 O 0.80063 0.78772 0.77530
 C435 C 0.75968 0.65046 0.64177
 C436 C 0.67269 0.64502 0.75066
 C437 C 0.66261 0.74152 0.64407
 C438 C 0.76084 0.84312 0.83052
 C439 C 0.85984 0.75146 0.82921
 C440 C 0.85249 0.84367 0.73632
 H441 H 0.82010 0.69099 0.79102
 H442 H 0.81120 0.80188 0.67736
 H443 H 0.70368 0.68453 0.68332
 H444 H 0.70278 0.79785 0.79298
 H445 H 0.69722 0.72810 0.84929
 H446 H 0.64851 0.75453 0.80740
 H447 H 0.87068 0.76826 0.66625
 H448 H 0.82575 0.72704 0.62551
 H449 H 0.79142 0.68365 0.85350
 H450 H 0.76635 0.63545 0.80757
 H451 H 0.77649 0.86171 0.67062
 H452 H 0.73605 0.81296 0.62778
 H453 H 0.83273 0.63896 0.71057
 H454 H 0.87907 0.68428 0.75492
 H455 H 0.64777 0.80730 0.71622
 H456 H 0.68862 0.85512 0.75450
 O457 O 0.25126 0.63653 0.30175
 O458 O 0.21326 0.62123 0.24565
 O459 O 0.35864 0.69915 0.25296
 O460 O 0.37070 0.75419 0.21288
 O461 O 0.29679 0.74445 0.36046
 O462 O 0.24178 0.78484 0.37380
 O463 O 0.24034 0.80090 0.13986
 O464 O 0.28541 0.75058 0.12504
 O465 O 0.13656 0.74243 0.19503
 O466 O 0.12189 0.70503 0.24967
 O467 O 0.18894 0.85519 0.24737
 O468 O 0.24188 0.87113 0.28857
 O469 O 0.24070 0.85209 0.18814
 O470 O 0.29302 0.86329 0.25078
 O471 O 0.13905 0.80569 0.24541
 O472 O 0.13107 0.74291 0.30008
 O473 O 0.18517 0.74352 0.14395
 O474 O 0.25182 0.69638 0.13480
 O475 O 0.24066 0.68376 0.35293
 O476 O 0.19245 0.74644 0.36377
 O477 O 0.34873 0.75424 0.31362
 O478 O 0.35803 0.80368 0.25075
 O479 O 0.31328 0.64546 0.24835
 O480 O 0.25323 0.63332 0.19695
 Zr481 Zr 0.25275 0.67326 0.24884
 O482 O 0.20946 0.70723 0.21302
 Zr483 Zr 0.31981 0.75057 0.25397
 O484 O 0.28335 0.78488 0.21136
 Zr485 Zr 0.24415 0.74320 0.32346
 O486 O 0.20738 0.78422 0.28765
 Zr487 Zr 0.24363 0.74716 0.17537
 O488 O 0.28761 0.71263 0.21092
 Zr489 Zr 0.17160 0.74748 0.24864
 O490 O 0.20803 0.70582 0.28500
 Zr491 Zr 0.24314 0.82096 0.24670
 O492 O 0.28004 0.78711 0.28978
 O493 O 0.28691 0.70851 0.29006
 O494 O 0.20427 0.78618 0.20862
 C495 C 0.24428 0.64623 0.33937
 C496 C 0.35035 0.66069 0.24999
 C497 C 0.33470 0.75057 0.35105
 C498 C 0.23970 0.83894 0.15038
 C499 C 0.14732 0.74120 0.15704
 C500 C 0.15116 0.84397 0.24567
 H501 H 0.19271 0.68735 0.19695
 H502 H 0.19017 0.80159 0.30616
 H503 H 0.30480 0.69111 0.30819
 H504 H 0.30157 0.80190 0.19353
 H505 H 0.31281 0.75736 0.13705
 H506 H 0.36135 0.74140 0.18664
 H507 H 0.12613 0.77122 0.31078
 H508 H 0.17601 0.72094 0.35963
 H509 H 0.22547 0.68075 0.13398
 H510 H 0.27936 0.63848 0.18168
 H511 H 0.23436 0.85930 0.31590
 H512 H 0.25496 0.81076 0.36398
 H513 H 0.18642 0.63016 0.25762
 H514 H 0.13460 0.67719 0.24700
 H515 H 0.35313 0.81981 0.27631
 H516 H 0.30566 0.86592 0.22294
 O517 O 0.72951 0.34081 0.30307
 O518 O 0.76920 0.35472 0.24096
 O519 O 0.61703 0.28966 0.24189
 O520 O 0.60437 0.23584 0.20112
 O521 O 0.66774 0.23665 0.35243
 O522 O 0.72537 0.18814 0.36506
 O523 O 0.72378 0.17372 0.14066
 O524 O 0.67582 0.23344 0.12938
 O525 O 0.83171 0.23478 0.18605
 O526 O 0.84360 0.28262 0.24660
 O527 O 0.78580 0.12777 0.24935
 O528 O 0.72845 0.11294 0.29264
 O529 O 0.72899 0.12514 0.19188
 O530 O 0.68145 0.11462 0.25242
 O531 O 0.83418 0.17868 0.24395
 O532 O 0.84794 0.23692 0.28811
 O533 O 0.78128 0.22930 0.13694
 O534 O 0.73042 0.27347 0.12125
 O535 O 0.72759 0.29111 0.35348
 O536 O 0.77163 0.23419 0.36557
 O537 O 0.61800 0.23337 0.30224
 O538 O 0.60875 0.18499 0.24628
 O539 O 0.66618 0.34022 0.24299
 O540 O 0.72383 0.35518 0.19997
 Zr541 Zr 0.72340 0.30830 0.24613
 O542 O 0.76176 0.27263 0.20699
 Zr543 Zr 0.65168 0.23450 0.24685
 O544 O 0.68759 0.19507 0.20925
 Zr545 Zr 0.72443 0.23603 0.31988
 O546 O 0.76426 0.19802 0.28495
 Zr547 Zr 0.72632 0.23111 0.17150
 O548 O 0.68742 0.27119 0.20615
 Zr549 Zr 0.79978 0.23397 0.24342
 O550 O 0.76425 0.27263 0.28292
 Zr551 Zr 0.72859 0.15984 0.24654
 O552 O 0.68838 0.19510 0.28471
 O553 O 0.68530 0.27421 0.28501
 O554 O 0.76645 0.19328 0.20596
 C555 C 0.73102 0.32876 0.34133
 C556 C 0.62844 0.32769 0.24030
 C557 C 0.62977 0.23503 0.34015
 C558 C 0.72497 0.13597 0.15382
 C559 C 0.81931 0.23227 0.14814
 C560 C 0.82348 0.14061 0.24765
 H561 H 0.77815 0.29141 0.18911
 H562 H 0.78184 0.18163 0.30423
 H563 H 0.66778 0.29264 0.30223
 H564 H 0.66875 0.17749 0.19280
 H565 H 0.65838 0.25768 0.13691
 H566 H 0.61388 0.21883 0.17750
 H567 H 0.84101 0.21738 0.31080
 H568 H 0.79459 0.25146 0.35481
 H569 H 0.73485 0.30118 0.13330
 H570 H 0.70521 0.34573 0.17751
 H571 H 0.74051 0.12517 0.31792
 H572 H 0.70209 0.16929 0.35852
 H573 H 0.79352 0.34449 0.25679
 H574 H 0.83977 0.30049 0.22179
 H575 H 0.61915 0.16399 0.26629
 H576 H 0.66266 0.11745 0.22821
 C577 C 0.28505 0.06628 0.06053
 C578 C 0.24519 0.06398 0.04167
 C579 C 0.21399 0.09179 0.05336
 C580 C 0.22165 0.12164 0.08335
 C581 C 0.26025 0.12358 0.10342
 C582 C 0.29254 0.09624 0.09187
 C583 C 0.31745 0.03886 0.04939
 C584 C 0.35623 0.04110 0.06855
 C585 C 0.36358 0.07068 0.09897
 C586 C 0.33213 0.09815 0.11058
 H587 H 0.31318 0.01564 0.02576
 H588 H 0.38073 0.01983 0.05966
 H589 H 0.39381 0.07240 0.11360
 H590 H 0.33914 0.12092 0.13407
 H591 H 0.18306 0.08942 0.04036
 H592 H 0.19666 0.14243 0.09220
 C593 C 0.71887 0.56276 0.57433
 C594 C 0.74952 0.56271 0.54276
 C595 C 0.78134 0.59204 0.54375
 C596 C 0.78374 0.62051 0.57595
 C597 C 0.75575 0.61901 0.60915
 C598 C 0.72287 0.58992 0.60867
 C599 C 0.68478 0.53536 0.57280
 C600 C 0.65716 0.53255 0.60578
 C601 C 0.66225 0.55756 0.64035
 C602 C 0.69380 0.58699 0.64136
 H603 H 0.67945 0.51561 0.54629
 H604 H 0.63177 0.51082 0.60451
 H605 H 0.64108 0.55461 0.66615
 H606 H 0.69510 0.60692 0.66807
 H607 H 0.80564 0.59170 0.52064
 H608 H 0.80871 0.64293 0.57583
 C609 C 0.69439 0.94685 0.09782
 C610 C 0.72695 0.94615 0.06784
 C611 C 0.76041 0.91864 0.07416
 C612 C 0.76230 0.89279 0.10846
 C613 C 0.73188 0.89396 0.13915
 C614 C 0.69758 0.92142 0.13434
 C615 C 0.65709 0.96905 0.09075
 C616 C 0.62563 0.96959 0.12035
 C617 C 0.62976 0.94660 0.15678
 C618 C 0.66497 0.92212 0.16346
 H619 H 0.65135 0.98519 0.06188
 H620 H 0.59754 0.98734 0.11461
 H621 H 0.60499 0.94675 0.17943
 H622 H 0.66584 0.90316 0.19110
 H623 H 0.78581 0.91708 0.05218
 H624 H 0.78796 0.87128 0.11092
 C625 C 0.27751 0.42451 0.57846
 C626 C 0.24018 0.44648 0.57036
 C627 C 0.20636 0.44186 0.59715
 C628 C 0.20838 0.41394 0.63033
 C629 C 0.24361 0.38892 0.63643
 C630 C 0.27879 0.39419 0.61056
 C631 C 0.31382 0.43263 0.55544
 C632 C 0.34982 0.40941 0.56191
 C633 C 0.35053 0.37827 0.59185
 C634 C 0.31572 0.37096 0.61649
 H635 H 0.31486 0.45763 0.53302
 H636 H 0.37736 0.41580 0.54383
 H637 H 0.37855 0.36037 0.59641
 H638 H 0.31844 0.34772 0.64061
 H639 H 0.17775 0.45878 0.59139
 H640 H 0.18150 0.41035 0.65018
 C641 C 0.78457 0.06042 0.91463
 C642 C 0.74613 0.03932 0.91777
 C643 C 0.71193 0.05389 0.89501
 C644 C 0.71487 0.08946 0.87051
 C645 C 0.75180 0.11210 0.86873
 C646 C 0.78743 0.09716 0.88997
 C647 C 0.82000 0.04624 0.93639
 C648 C 0.85756 0.06742 0.93340
 C649 C 0.86044 0.10316 0.90907
 C650 C 0.82576 0.11804 0.88748
 H651 H 0.81899 0.01851 0.95544
 H652 H 0.88458 0.05606 0.95006
 H653 H 0.88967 0.11947 0.90699
 H654 H 0.82914 0.14600 0.86907
 H655 H 0.68201 0.03897 0.89816
 H656 H 0.68775 0.09992 0.85334
 C657 C 0.19631 0.55992 0.40434
 C658 C 0.23266 0.53786 0.41630
 C659 C 0.27133 0.55096 0.40162
 C660 C 0.27458 0.58683 0.37748
 C661 C 0.23938 0.61083 0.36788
 C662 C 0.19966 0.59670 0.37998
 C663 C 0.15666 0.54647 0.41704
 C664 C 0.12106 0.56854 0.40553
 C665 C 0.12427 0.60423 0.38120
 C666 C 0.16312 0.61826 0.36840
 H667 H 0.15296 0.51856 0.43552
 H668 H 0.09083 0.55780 0.41536
 H669 H 0.09651 0.62112 0.37218
 H670 H 0.16423 0.64601 0.34941
 H671 H 0.29943 0.53489 0.41122
 H672 H 0.30495 0.59647 0.36694
 C673 C 0.27506 0.90924 0.91804
 C674 C 0.24237 0.91575 0.94720
 C675 C 0.20934 0.88736 0.94791
 C676 C 0.20590 0.85650 0.91769
 C677 C 0.23559 0.85258 0.88615
 C678 C 0.27151 0.87770 0.88740
 C679 C 0.31239 0.93200 0.92018
 C680 C 0.34441 0.92541 0.89196
 C681 C 0.34059 0.89512 0.86172
 C682 C 0.30483 0.87107 0.85970
 H683 H 0.31769 0.95416 0.94446
 H684 H 0.37265 0.94336 0.89410
 H685 H 0.36583 0.88958 0.84029
 H686 H 0.30418 0.84652 0.83707
 H687 H 0.18410 0.89113 0.96975
 H688 H 0.17884 0.83665 0.91787
 C689 C 0.78299 0.40842 0.41174
 C690 C 0.75002 0.41677 0.43967
 C691 C 0.71255 0.39532 0.43547
 C692 C 0.70685 0.36704 0.40330
 C693 C 0.73829 0.35975 0.37416
 C694 C 0.77723 0.37941 0.37905
 C695 C 0.82167 0.42849 0.41564
 C696 C 0.85414 0.41956 0.38852
 C697 C 0.84882 0.39051 0.35720
 C698 C 0.81085 0.37047 0.35247
 H699 H 0.82727 0.45090 0.43984
 H700 H 0.88368 0.43504 0.39202
 H701 H 0.87428 0.38337 0.33652
 H702 H 0.80827 0.34765 0.32820
 H703 H 0.68686 0.40193 0.45609
 H704 H 0.67730 0.35138 0.40054
 C705 C 0.07048 0.20621 0.07786
 C706 C 0.06421 0.24200 0.05239
 C707 C 0.09368 0.27394 0.05360
 C708 C 0.12691 0.27242 0.08117
 C709 C 0.13159 0.23924 0.10889
 C710 C 0.10420 0.20505 0.10659
 C711 C 0.04510 0.17072 0.07403
 C712 C 0.05154 0.13595 0.09914
 C713 C 0.08378 0.13531 0.12786
 C714 C 0.11023 0.16921 0.13139
 H715 H 0.02060 0.16915 0.05109
 H716 H 0.03166 0.10916 0.09598
 H717 H 0.08865 0.10812 0.14701
 H718 H 0.13579 0.16663 0.15305
 H719 H 0.08924 0.30205 0.03567
 H720 H 0.14792 0.29855 0.08246
 C721 C 0.56731 0.70863 0.58225
 C722 C 0.56084 0.74479 0.55765
 C723 C 0.58920 0.77746 0.55981
 C724 C 0.62276 0.77549 0.58730
 C725 C 0.62917 0.74051 0.61265
 C726 C 0.60274 0.70583 0.60847
 C727 C 0.54021 0.67427 0.57972
 C728 C 0.54925 0.63737 0.60040
 C729 C 0.58516 0.63391 0.62400
 C730 C 0.61157 0.66783 0.62857
 H731 H 0.51286 0.67471 0.56021
 H732 H 0.52879 0.61102 0.59733
 H733 H 0.59222 0.60467 0.63886
 H734 H 0.63939 0.66380 0.64701
 H735 H 0.58451 0.80516 0.54115
 H736 H 0.64329 0.80191 0.58962
 C737 C 0.05615 0.68123 0.93136
 C738 C 0.03211 0.71799 0.93740
 C739 C 0.04003 0.75262 0.91210
 C740 C 0.07182 0.75236 0.88333
 C741 C 0.09768 0.71786 0.87928
 C742 C 0.08948 0.68141 0.90234
 C743 C 0.04688 0.64393 0.95257
 C744 C 0.07079 0.60829 0.94647
 C745 C 0.10385 0.60883 0.91871
 C746 C 0.11303 0.64490 0.89654
 H747 H 0.02072 0.64190 0.97351
 H748 H 0.06341 0.58001 0.96310
 H749 H 0.12214 0.58100 0.91391
 H750 H 0.13823 0.64378 0.87445
 H751 H 0.02444 0.78172 0.91706
 H752 H 0.07739 0.78013 0.86522
 C753 C 0.53721 0.21439 0.41082
 C754 C 0.53643 0.25258 0.43234
 C755 C 0.56568 0.28320 0.42292
 C756 C 0.59564 0.27657 0.39295
 C757 C 0.59730 0.23913 0.37148
 C758 C 0.56773 0.20779 0.37963
 C759 C 0.50958 0.18200 0.42074
 C760 C 0.51106 0.14453 0.39937
 C761 C 0.54055 0.13830 0.36846
 C762 C 0.56895 0.16941 0.35885
 H763 H 0.48688 0.18517 0.44518
 H764 H 0.48949 0.12005 0.40710
 H765 H 0.54182 0.10899 0.35227
 H766 H 0.59215 0.16292 0.33558
 H767 H 0.56617 0.31203 0.44005
 H768 H 0.61797 0.30082 0.38660
 C769 C 0.92171 0.79927 0.08654
 C770 C 0.94417 0.76115 0.08306
 C771 C 0.93657 0.72995 0.11272
 C772 C 0.90444 0.73389 0.14160
 C773 C 0.87922 0.76945 0.14265
 C774 C 0.88939 0.80342 0.11663
 C775 C 0.93233 0.83419 0.06212
 C776 C 0.91117 0.87173 0.06649
 C777 C 0.87955 0.87555 0.09556
 C778 C 0.86902 0.84195 0.12083
 H779 H 0.95775 0.83304 0.04024
 H780 H 0.91974 0.89819 0.04758
 H781 H 0.86351 0.90488 0.09885
 H782 H 0.84554 0.84656 0.14431
 H783 H 0.95288 0.70064 0.11138
 H784 H 0.89833 0.70824 0.16257
 C785 C 0.44305 0.29981 0.61398
 C786 C 0.44365 0.26701 0.58484
 C787 C 0.41407 0.23536 0.58827
 C788 C 0.38343 0.23637 0.61858
 C789 C 0.38168 0.26852 0.64744
 C790 C 0.41238 0.30018 0.64611
 C791 C 0.47078 0.33339 0.61068
 C792 C 0.46997 0.36556 0.63938
 C793 C 0.44080 0.36559 0.67112
 C794 C 0.41185 0.33371 0.67422
 H795 H 0.49290 0.33539 0.58565
 H796 H 0.49178 0.39089 0.63667
 H797 H 0.44013 0.39089 0.69301
 H798 H 0.38866 0.33635 0.69818
 H799 H 0.41367 0.21031 0.56598
 H800 H 0.36058 0.21180 0.61932
 C801 C 0.89201 0.29140 0.94688
 C802 C 0.91604 0.25601 0.95722
 C803 C 0.91590 0.22166 0.93058
 C804 C 0.89346 0.22236 0.89369
 C805 C 0.87028 0.25734 0.88236
 C806 C 0.86873 0.29203 0.90925
 C807 C 0.89153 0.32660 0.97264
 C808 C 0.86797 0.36149 0.96191
 C809 C 0.84498 0.36211 0.92524
 C810 C 0.84541 0.32787 0.89896
 H811 H 0.90909 0.32724 1.00130
 H812 H 0.86767 0.38824 0.98206
 H813 H 0.82697 0.38939 0.91696
 H814 H 0.82789 0.32995 0.87031
 H815 H 0.93558 0.19503 0.93712
 H816 H 0.89399 0.19528 0.87391
 C817 C 0.40459 0.79008 0.43772
 C818 C 0.41074 0.75268 0.46045
 C819 C 0.39151 0.71632 0.44704
 C820 C 0.36774 0.71623 0.41088
 C821 C 0.36317 0.75228 0.38669
 C822 C 0.38057 0.78991 0.40059
 C823 C 0.42304 0.82750 0.45062
 C824 C 0.41726 0.86403 0.42787
 C825 C 0.39304 0.86401 0.39202
 C826 C 0.37470 0.82739 0.37844
 H827 H 0.44182 0.82881 0.47845
 H828 H 0.43153 0.89251 0.43818
 H829 H 0.38851 0.89249 0.37460
 H830 H 0.35605 0.82870 0.35052
 H831 H 0.39711 0.68725 0.46319
 H832 H 0.35345 0.68750 0.40114
 C833 C 0.10934 0.04866 0.21182
 C834 C 0.08011 0.05080 0.24492
 C835 C 0.08551 0.08159 0.27527
 C836 C 0.11727 0.11040 0.27282
 C837 C 0.14605 0.10928 0.24057
 C838 C 0.14334 0.07724 0.21047
 C839 C 0.10361 0.02177 0.17792
 C840 C 0.13271 0.01938 0.14611
 C841 C 0.16710 0.04519 0.14625
 C842 C 0.17190 0.07464 0.17735
 H843 H 0.07610 0.00329 0.17495
 H844 H 0.12817 -0.00213 0.12084
 H845 H 0.18957 0.04314 0.12147
 H846 H 0.19783 0.09548 0.17460
 H847 H 0.06391 0.08418 0.30092
 H848 H 0.11902 0.13435 0.29622
 C849 C 0.61350 0.55109 0.79471
 C850 C 0.58226 0.54758 0.76381
 C851 C 0.58199 0.57578 0.73055
 C852 C 0.61065 0.60765 0.72829
 C853 C 0.64269 0.61096 0.75709
 C854 C 0.64463 0.58240 0.79077
 C855 C 0.61323 0.52584 0.83055
 C856 C 0.64397 0.52969 0.86080
 C857 C 0.67479 0.55952 0.85654
 C858 C 0.67490 0.58605 0.82220
 H859 H 0.58894 0.50355 0.83586
 H860 H 0.64351 0.50984 0.88801
 H861 H 0.69820 0.56275 0.88045
 H862 H 0.69811 0.61006 0.82117
 H863 H 0.55751 0.57474 0.70743
 H864 H 0.60766 0.63048 0.70402
 C865 C 0.93791 0.09081 0.69566
 C866 C 0.96276 0.08072 0.73098
 C867 C 0.95351 0.09980 0.76893
 C868 C 0.91785 0.12446 0.77313
 C869 C 0.89058 0.13092 0.73960
 C870 C 0.90165 0.11583 0.70000
 C871 C 0.94882 0.07626 0.65583
 C872 C 0.92447 0.08595 0.62125
 C873 C 0.88907 0.11048 0.62552
 C874 C 0.87774 0.12548 0.66440
 H875 H 0.97660 0.05779 0.65122
 H876 H 0.93328 0.07461 0.59095
 H877 H 0.87044 0.11817 0.59852
 H878 H 0.85043 0.14503 0.66617
 H879 H 0.97162 0.09247 0.79644
 H880 H 0.91074 0.13758 0.80320
 C881 C 0.44276 0.59335 0.28300
 C882 C 0.46192 0.58725 0.24393
 C883 C 0.44494 0.60678 0.20876
 C884 C 0.40813 0.62952 0.21129
 C885 C 0.38694 0.63316 0.24897
 C886 C 0.40499 0.61645 0.28558
 C887 C 0.45973 0.57559 0.31940
 C888 C 0.44027 0.58102 0.35764
 C889 C 0.40366 0.60406 0.36027
 C890 C 0.38606 0.62169 0.32466
 H891 H 0.48833 0.55781 0.31854
 H892 H 0.45370 0.56733 0.38537
 H893 H 0.38874 0.60820 0.39005
 H894 H 0.35751 0.63918 0.32792
 H895 H 0.45849 0.60153 0.17847
 H896 H 0.39552 0.64366 0.18335
 C897 C 0.05400 0.90804 0.78708
 C898 C 0.04189 0.92253 0.74726
 C899 C 0.05488 0.90105 0.71192
 C900 C 0.08094 0.86658 0.71537
 C901 C 0.09548 0.85331 0.75420
 C902 C 0.08167 0.87359 0.79056
 C903 C 0.03979 0.92759 0.82348
 C904 C 0.05310 0.91385 0.86246
 C905 C 0.08088 0.88073 0.86585
 C906 C 0.09526 0.86080 0.83030
 H907 H 0.01809 0.95331 0.82206
 H908 H 0.04191 0.92907 0.89015
 H909 H 0.09130 0.87035 0.89617
 H910 H 0.11690 0.83531 0.83419
 H911 H 0.04642 0.91230 0.68128
 H912 H 0.09166 0.85151 0.68737
 C913 C 0.56350 0.41418 0.19201
 C914 C 0.54243 0.42844 0.22770
 C915 C 0.54646 0.40669 0.26528
 C916 C 0.57305 0.37255 0.26849
 C917 C 0.59619 0.35953 0.23420
 C918 C 0.59047 0.37926 0.19523
 C919 C 0.55867 0.43428 0.15325
 C920 C 0.57980 0.41997 0.11836
 C921 C 0.60595 0.38554 0.12142
 C922 C 0.61131 0.36524 0.15941
 H923 H 0.53827 0.46086 0.14956
 H924 H 0.57572 0.43557 0.08878
 H925 H 0.62209 0.37444 0.09419
 H926 H 0.63149 0.33830 0.16040
 H927 H 0.53064 0.41761 0.29281
 H928 H 0.57709 0.35741 0.29837
 C929 C 0.89840 0.96301 0.22777
 C930 C 0.92787 0.96527 0.26063
 C931 C 0.92456 0.93779 0.29449
 C932 C 0.89390 0.90796 0.29594
 C933 C 0.86484 0.90497 0.26406
 C934 C 0.86572 0.93343 0.23024
 C935 C 0.90245 0.98677 0.19099
 C936 C 0.87258 0.98504 0.15973
 C937 C 0.83925 0.95810 0.16339
 C938 C 0.83643 0.93158 0.19755
 H939 H 0.92897 1.00635 0.18560
 H940 H 0.87565 1.00423 0.13224
 H941 H 0.81628 0.95676 0.13891
 H942 H 0.81141 0.90948 0.19761
 H943 H 0.94708 0.93856 0.31956
 H944 H 0.89325 0.88651 0.32197
 C945 C 0.40032 0.45759 0.73814
 C946 C 0.42758 0.45845 0.77260
 C947 C 0.42139 0.43126 0.80604
 C948 C 0.38976 0.40232 0.80520
 C949 C 0.36251 0.40058 0.77151
 C950 C 0.36639 0.42947 0.73825
 C951 C 0.40717 0.48256 0.70271
 C952 C 0.37890 0.48309 0.67000
 C953 C 0.34433 0.45755 0.67119
 C954 C 0.33870 0.42996 0.70420
 H955 H 0.43440 0.50176 0.69984
 H956 H 0.38389 0.50330 0.64354
 H957 H 0.32222 0.45872 0.64598
 H958 H 0.31253 0.40934 0.70259
 H959 H 0.44256 0.43121 0.83224
 H960 H 0.38694 0.38056 0.83080
 C961 C 0.06623 0.21998 0.93710
 C962 C 0.06186 0.25647 0.96138
 C963 C 0.08474 0.29180 0.95083
 C964 C 0.11295 0.29093 0.91829
 C965 C 0.11725 0.25562 0.89358
 C966 C 0.09368 0.21980 0.90255
 C967 C 0.04263 0.18406 0.94573
 C968 C 0.04526 0.14939 0.92032
 C969 C 0.07164 0.14954 0.88628
 C970 C 0.09629 0.18399 0.87770
 H971 H 0.02164 0.18262 0.97185
 H972 H 0.02650 0.12238 0.92691
 H973 H 0.07266 0.12283 0.86637
 H974 H 0.11672 0.18261 0.85116
 H975 H 0.07980 0.32078 0.96699
 H976 H 0.13078 0.31857 0.91147
 C977 C 0.59656 0.72398 0.46429
 C978 C 0.56138 0.75033 0.46082
 C979 C 0.56070 0.78048 0.42910
 C980 C 0.59241 0.78296 0.40007
 C981 C 0.62816 0.75849 0.40408
 C982 C 0.63212 0.73158 0.43921
 C983 C 0.59689 0.68927 0.49086
 C984 C 0.63386 0.66866 0.50030
 C985 C 0.67051 0.68085 0.48119
 C986 C 0.66954 0.71088 0.44975
 H987 H 0.56848 0.67802 0.50426
 H988 H 0.63406 0.64320 0.52236
 H989 H 0.69938 0.66523 0.48892
 H990 H 0.69832 0.71701 0.43416
 H991 H 0.53431 0.80123 0.42559
 H992 H 0.58923 0.80470 0.37445
 C993 C 0.93852 0.78618 0.91021
 C994 C 0.94416 0.74818 0.93188
 C995 C 0.92495 0.71224 0.91732
 C996 C 0.89885 0.71378 0.88292
 C997 C 0.89258 0.75091 0.86108
 C998 C 0.91389 0.78714 0.87341
 C999 C 0.95660 0.82331 0.92440
 C1000 C 0.95300 0.85981 0.90127
 C1001 C 0.93062 0.86023 0.86428
 C1002 C 0.91052 0.82451 0.85068
 H1003 H 0.97435 0.82417 0.95296
 H1004 H 0.96782 0.88787 0.91196
 H1005 H 0.92863 0.88852 0.84635
 H1006 H 0.89255 0.82629 0.82232
 H1007 H 0.92889 0.68307 0.93380
 H1008 H 0.88265 0.68589 0.87374
 C1009 C 0.44748 0.29359 0.39852
 C1010 C 0.44313 0.26435 0.43129
 C1011 C 0.41331 0.23313 0.42798
 C1012 C 0.38787 0.23049 0.39331
 C1013 C 0.39148 0.25866 0.36027
 C1014 C 0.42209 0.29023 0.36224
 C1015 C 0.47488 0.32742 0.40196
 C1016 C 0.47947 0.35564 0.36941
 C1017 C 0.45588 0.35158 0.33351
 C1018 C 0.42678 0.31989 0.33019
 H1019 H 0.49258 0.33263 0.42996
 H1020 H 0.50118 0.38101 0.37219
 H1021 H 0.45979 0.37348 0.30833
 H1022 H 0.40809 0.31923 0.30245
 H1023 H 0.40945 0.21066 0.45280
 H1024 H 0.36462 0.20631 0.39247
 C1025 C 0.05142 0.69710 0.10388
 C1026 C 0.03680 0.73310 0.08296
 C1027 C 0.06088 0.76922 0.08397
 C1028 C 0.09832 0.77051 0.10575
 C1029 C 0.11266 0.73580 0.12768
 C1030 C 0.08909 0.69869 0.12712
 C1031 C 0.02995 0.65915 0.10115
 C1032 C 0.04433 0.62398 0.12220
 C1033 C 0.08052 0.62578 0.14582
 C1034 C 0.10291 0.66261 0.14814
 H1035 H 0.00199 0.65637 0.08272
 H1036 H 0.02739 0.59515 0.12007
 H1037 H 0.09161 0.59833 0.16198
 H1038 H 0.13145 0.66229 0.16582
 H1039 H 0.05157 0.79616 0.06585
 H1040 H 0.11581 0.79914 0.10619
 C1041 C 0.54877 0.22159 0.60258
 C1042 C 0.54099 0.25985 0.58212
 C1043 C 0.56990 0.29211 0.58615
 C1044 C 0.60643 0.28668 0.60871
 C1045 C 0.61520 0.24892 0.62836
 C1046 C 0.58596 0.21619 0.62616
 C1047 C 0.52108 0.18803 0.59889
 C1048 C 0.52923 0.15038 0.61890
 C1049 C 0.56528 0.14523 0.64235
 C1050 C 0.59359 0.17763 0.64582
 H1051 H 0.49295 0.19063 0.58069
 H1052 H 0.50756 0.12499 0.61603
 H1053 H 0.57156 0.11582 0.65756
 H1054 H 0.62173 0.17196 0.66342
 H1055 H 0.56541 0.32100 0.56932
 H1056 H 0.62797 0.31225 0.61099
 C1057 C 0.89052 0.20584 0.05653
 C1058 C 0.91239 0.24377 0.05299
 C1059 C 0.90263 0.27637 0.07991
 C1060 C 0.87255 0.27179 0.11050
 C1061 C 0.85078 0.23462 0.11494
 C1062 C 0.85900 0.20141 0.08737
 C1063 C 0.90015 0.17176 0.03101
 C1064 C 0.87843 0.13459 0.03482
 C1065 C 0.84730 0.13044 0.06448
 C1066 C 0.83779 0.16333 0.09082
 H1067 H 0.92456 0.17354 0.00811
 H1068 H 0.88600 0.10877 0.01485
 H1069 H 0.83075 0.10141 0.06741
 H1070 H 0.81407 0.15850 0.11405
 H1071 H 0.91983 0.30515 0.07835
 H1072 H 0.86638 0.29749 0.13116
 C1073 C 0.40010 0.78539 0.58378
 C1074 C 0.40887 0.75156 0.55715
 C1075 C 0.38687 0.71448 0.56235
 C1076 C 0.35807 0.70990 0.59445
 C1077 C 0.35074 0.74205 0.62269
 C1078 C 0.37072 0.78072 0.61655
 C1079 C 0.42030 0.82385 0.57862
 C1080 C 0.41149 0.85703 0.60476
 C1081 C 0.38227 0.85274 0.63620
 C1082 C 0.36188 0.81511 0.64202
 H1083 H 0.44277 0.82869 0.55418
 H1084 H 0.42720 0.88634 0.60041
 H1085 H 0.37525 0.87878 0.65610
 H1086 H 0.33890 0.81345 0.66626
 H1087 H 0.39377 0.68803 0.54291
 H1088 H 0.34234 0.68048 0.59812
 C1089 C 0.28468 0.07348 0.92469
 C1090 C 0.24897 0.06660 0.94960
 C1091 C 0.21689 0.09634 0.94922
 C1092 C 0.21811 0.13035 0.92239
 C1093 C 0.25141 0.13568 0.89517
 C1094 C 0.28577 0.10812 0.89715
 C1095 C 0.32025 0.04789 0.92821
 C1096 C 0.35516 0.05490 0.90373
 C1097 C 0.35584 0.08822 0.87614
 C1098 C 0.32177 0.11494 0.87316
 H1099 H 0.32187 0.02318 0.95084
 H1100 H 0.38206 0.03482 0.90675
 H1101 H 0.38324 0.09394 0.85762
 H1102 H 0.32439 0.14152 0.85279
 H1103 H 0.18904 0.09155 0.96732
 H1104 H 0.19171 0.15135 0.92118
 C1105 C 0.70983 0.58598 0.43446
 C1106 C 0.74801 0.56924 0.44874
 C1107 C 0.78540 0.58756 0.43654
 C1108 C 0.78554 0.62189 0.41017
 C1109 C 0.74833 0.63811 0.39452
 C1110 C 0.70999 0.62042 0.40663
 C1111 C 0.67153 0.56877 0.44671
 C1112 C 0.63417 0.58517 0.43177
 C1113 C 0.63428 0.61864 0.40424
 C1114 C 0.67178 0.63604 0.39150
 H1115 H 0.67021 0.54274 0.46804
 H1116 H 0.60499 0.57180 0.44152
 H1117 H 0.60521 0.63117 0.39264
 H1118 H 0.67056 0.66204 0.37010
 H1119 H 0.81479 0.57430 0.44648
 H1120 H 0.81499 0.63491 0.40061
 C1121 C 0.68465 0.07058 0.06435
 C1122 C 0.71605 0.03928 0.06328
 C1123 C 0.74652 0.03827 0.09450
 C1124 C 0.74854 0.06960 0.12395
 C1125 C 0.71996 0.10251 0.12339
 C1126 C 0.68640 0.10210 0.09491
 C1127 C 0.65051 0.07009 0.03655
 C1128 C 0.61931 0.10008 0.03864
 C1129 C 0.62090 0.13069 0.06877
 C1130 C 0.65380 0.13159 0.09690
 H1131 H 0.64713 0.04600 0.01356
 H1132 H 0.59342 0.09917 0.01718
 H1133 H 0.59621 0.15351 0.07076
 H1134 H 0.65268 0.15496 0.12071
 H1135 H 0.77099 0.01506 0.09422
 H1136 H 0.77371 0.06908 0.14635
 C1137 C 0.18834 0.56394 0.57384
 C1138 C 0.22398 0.53891 0.56711
 C1139 C 0.25915 0.54398 0.59219
 C1140 C 0.26015 0.57477 0.62231
 C1141 C 0.22639 0.60179 0.62748
 C1142 C 0.18965 0.59593 0.60399
 C1143 C 0.15138 0.55778 0.55103
 C1144 C 0.11668 0.58293 0.55749
 C1145 C 0.11797 0.61434 0.58690
 C1146 C 0.15393 0.62078 0.61013
 H1147 H 0.14884 0.53321 0.52842
 H1148 H 0.08859 0.57788 0.53975
 H1149 H 0.09087 0.63366 0.59194
 H1150 H 0.15325 0.64510 0.63302
 H1151 H 0.28669 0.52523 0.58712
 H1152 H 0.28806 0.57850 0.64075
 C1153 C 0.78684 0.91302 0.92353
 C1154 C 0.75463 0.94308 0.91951
 C1155 C 0.72838 0.94162 0.88491
 C1156 C 0.73191 0.90966 0.85606
 C1157 C 0.76078 0.87721 0.86152
 C1158 C 0.78916 0.87912 0.89532
 C1159 C 0.81655 0.91581 0.95574
 C1160 C 0.84598 0.88464 0.96187
 C1161 C 0.84721 0.85079 0.93547
 C1162 C 0.82012 0.84856 0.90176
 H1163 H 0.81707 0.94200 0.97659
 H1164 H 0.86789 0.88671 0.98725
 H1165 H 0.86960 0.82634 0.94096
 H1166 H 0.82404 0.82277 0.88105
 H1167 H 0.70327 0.96384 0.88148
 H1168 H 0.71031 0.90913 0.83024
 C1169 C 0.28529 0.41753 0.41683
 C1170 C 0.24890 0.44257 0.41797
 C1171 C 0.21798 0.43648 0.38807
 C1172 C 0.22175 0.40482 0.35878
 C1173 C 0.25576 0.37731 0.35949
 C1174 C 0.28815 0.38378 0.38856
 C1175 C 0.31935 0.42603 0.44299
 C1176 C 0.35443 0.40062 0.44313
 C1177 C 0.35661 0.36677 0.41671
 C1178 C 0.32421 0.35861 0.38921
 H1179 H 0.31945 0.45306 0.46263
 H1180 H 0.38023 0.40744 0.46352
 H1181 H 0.38394 0.34730 0.41703
 H1182 H 0.32821 0.33311 0.36801
 H1183 H 0.18989 0.45511 0.38854
 H1184 H 0.19705 0.40071 0.33632
 C1185 C 0.27334 0.90710 0.05980
 C1186 C 0.23401 0.91706 0.04219
 C1187 C 0.19796 0.90183 0.06108
 C1188 C 0.20027 0.87761 0.09703
 C1189 C 0.23865 0.86868 0.11564
 C1190 C 0.27563 0.88269 0.09670
 C1191 C 0.31050 0.92216 0.04227
 C1192 C 0.34891 0.91279 0.06012
 C1193 C 0.35113 0.88836 0.09580
 C1194 C 0.31494 0.87341 0.11405
 H1195 H 0.31027 0.94118 0.01467
 H1196 H 0.37708 0.92457 0.04620
 H1197 H 0.38104 0.88117 0.10954
 H1198 H 0.31801 0.85495 0.14203
 H1199 H 0.16768 0.91042 0.04895
 H1200 H 0.17185 0.86602 0.11071
 C1201 C 0.79346 0.40054 0.55638
 C1202 C 0.75616 0.41278 0.53626
 C1203 C 0.71813 0.39920 0.55235
 C1204 C 0.71659 0.37567 0.58881
 C1205 C 0.75292 0.36576 0.61079
 C1206 C 0.79190 0.37705 0.59393
 C1207 C 0.83239 0.41243 0.54039
 C1208 C 0.86904 0.40092 0.56059
 C1209 C 0.86759 0.37772 0.59713
 C1210 C 0.82948 0.36590 0.61379
 H1211 H 0.83467 0.43035 0.51202
 H1212 H 0.89871 0.41010 0.54787
 H1213 H 0.89615 0.36895 0.61274
 H1214 H 0.82975 0.34830 0.64240
 H1215 H 0.68923 0.40931 0.53815
 H1216 H 0.68674 0.36562 0.60037
 C1217 C 0.08363 0.07271 0.79086
 C1218 C 0.05587 0.07455 0.75629
 C1219 C 0.06025 0.10672 0.72729
 C1220 C 0.09206 0.13561 0.73108
 C1221 C 0.12170 0.13249 0.76299
 C1222 C 0.11773 0.10074 0.79330
 C1223 C 0.07798 0.04362 0.82334
 C1224 C 0.10668 0.04010 0.85564
 C1225 C 0.14084 0.06628 0.85706
 C1226 C 0.14607 0.09681 0.82669
 H1227 H 0.05110 0.02368 0.82428
 H1228 H 0.10213 0.01723 0.87992
 H1229 H 0.16283 0.06359 0.88237
 H1230 H 0.17204 0.11753 0.83024
 H1231 H 0.03998 0.10858 0.70047
 H1232 H 0.09441 0.16002 0.70794
 C1233 C 0.59148 0.56940 0.28178
 C1234 C 0.55901 0.57757 0.25262
 C1235 C 0.55883 0.61553 0.23136
 C1236 C 0.59049 0.64431 0.23741
 C1237 C 0.62489 0.63539 0.26303
 C1238 C 0.62601 0.59688 0.28475
 C1239 C 0.59031 0.53417 0.30813
 C1240 C 0.62408 0.52368 0.33320
 C1241 C 0.65928 0.54838 0.33320
 C1242 C 0.66010 0.58494 0.30989
 H1243 H 0.56326 0.51445 0.30962
 H1244 H 0.62298 0.49618 0.35261
 H1245 H 0.68561 0.53991 0.35248
 H1246 H 0.68756 0.60360 0.31259
 H1247 H 0.53484 0.62248 0.20876
 H1248 H 0.58893 0.67338 0.22039
 C1249 C 0.06799 0.92192 0.21015
 C1250 C 0.07369 0.95333 0.24059
 C1251 C 0.10424 0.94800 0.27090
 C1252 C 0.12783 0.91163 0.27245
 C1253 C 0.12116 0.87898 0.24434
 C1254 C 0.09119 0.88420 0.21250
 C1255 C 0.03822 0.92698 0.17811
 C1256 C 0.03062 0.89541 0.14998
 C1257 C 0.05289 0.85853 0.15263
 C1258 C 0.08350 0.85303 0.18291
 H1259 H 0.02027 0.95529 0.17474
 H1260 H 0.00719 0.89948 0.12612
 H1261 H 0.04606 0.83413 0.13112
 H1262 H 0.10041 0.82405 0.18308
 H1263 H 0.10831 0.97108 0.29485
 H1264 H 0.15124 0.90857 0.29651
 C1265 C 0.58899 0.43815 0.72001
 C1266 C 0.57762 0.45045 0.76065
 C1267 C 0.59058 0.42601 0.79452
 C1268 C 0.61480 0.39059 0.78890
 C1269 C 0.62627 0.37784 0.74915
 C1270 C 0.61378 0.40179 0.71426
 C1271 C 0.57478 0.46029 0.68479
 C1272 C 0.58483 0.44698 0.64493
 C1273 C 0.60970 0.41198 0.63937
 C1274 C 0.62429 0.38958 0.67364
 H1275 H 0.55568 0.48783 0.68779
 H1276 H 0.57321 0.46392 0.61819
 H1277 H 0.61737 0.40194 0.60831
 H1278 H 0.64306 0.36221 0.66815
 H1279 H 0.58004 0.43314 0.82557
 H1280 H 0.62469 0.37289 0.81589
 C1281 C 0.90142 0.06055 0.28906
 C1282 C 0.92860 0.05854 0.25456
 C1283 C 0.92052 0.08328 0.21950
 C1284 C 0.88550 0.10850 0.21744
 C1285 C 0.85746 0.11003 0.25044
 C1286 C 0.86524 0.08616 0.28680
 C1287 C 0.91035 0.03920 0.32644
 C1288 C 0.88348 0.04167 0.36019
 C1289 C 0.84787 0.06619 0.35779
 C1290 C 0.83897 0.08863 0.32170
 H1291 H 0.93841 0.02101 0.33020
 H1292 H 0.89062 0.02490 0.38854
 H1293 H 0.82736 0.06837 0.38426
 H1294 H 0.81178 0.10830 0.32173
 H1295 H 0.94147 0.08276 0.19323
 H1296 H 0.88037 0.12734 0.18990
 C1297 C 0.39984 0.55441 0.80309
 C1298 C 0.43004 0.55276 0.77127
 C1299 C 0.42545 0.57849 0.73625
 C1300 C 0.39119 0.60455 0.73168
 C1301 C 0.36032 0.60605 0.76206
 C1302 C 0.36464 0.58118 0.79846
 C1303 C 0.40478 0.53146 0.84021
 C1304 C 0.37528 0.53390 0.87168
 C1305 C 0.34098 0.55997 0.86727
 C1306 C 0.33587 0.58378 0.83133
 H1307 H 0.43173 0.51198 0.84554
 H1308 H 0.37941 0.51597 0.89992
 H1309 H 0.31853 0.56228 0.89211
 H1310 H 0.30973 0.60473 0.83007
 H1311 H 0.44869 0.57818 0.71197
 H1312 H 0.38880 0.62392 0.70415
 C1313 C 0.91860 0.93623 0.76812
 C1314 C 0.94935 0.93418 0.73665
 C1315 C 0.94772 0.90300 0.70685
 C1316 C 0.91597 0.87403 0.70753
 C1317 C 0.88427 0.87621 0.73721
 C1318 C 0.88536 0.90741 0.76804
 C1319 C 0.92031 0.96648 0.79976
 C1320 C 0.88923 0.96916 0.82962
 C1321 C 0.85654 0.94121 0.82933
 C1322 C 0.85489 0.91017 0.79941
 H1323 H 0.94576 0.98812 0.80198
 H1324 H 0.89076 0.99273 0.85337
 H1325 H 0.83269 0.94332 0.85277
 H1326 H 0.82995 0.88822 0.80162
 H1327 H 0.97039 0.90181 0.68214
 H1328 H 0.91554 0.85017 0.68398
 C1329 C 0.42020 0.43858 0.26730
 C1330 C 0.44904 0.43909 0.23403
 C1331 C 0.44595 0.40956 0.20263
 C1332 C 0.41411 0.38050 0.20315
 C1333 C 0.38351 0.38115 0.23410
 C1334 C 0.38624 0.41054 0.26656
 C1335 C 0.42483 0.46529 0.30165
 C1336 C 0.39486 0.46698 0.33257
 C1337 C 0.36055 0.44122 0.33067
 C1338 C 0.35674 0.41231 0.29885
 H1339 H 0.45168 0.48500 0.30499
 H1340 H 0.39827 0.48840 0.35810
 H1341 H 0.33706 0.44351 0.35430
 H1342 H 0.33050 0.39172 0.29990
 H1343 H 0.46760 0.40972 0.17696
 H1344 H 0.41273 0.35780 0.17851
   
