data_POSCAR
  _audit_creation_date              2014-09-24
  _audit_creation_method            'ToBaCCo'
  _symmetry_space_group_name_H-M    'P1'
  _symmetry_Int_Tables_number       1
  _symmetry_cell_setting            triclinic
  loop_
  _symmetry_equiv_pos_as_xyz
 x,y,z
_cell_length_a 43.4134
_cell_length_b 43.3659
_cell_length_c 39.6974
_cell_angle_alpha 90.125900
_cell_angle_beta 89.847000
_cell_angle_gamma 90.415000
loop_
  _atom_site_label
  _atom_site_type_symbol
  _atom_site_fract_x
  _atom_site_fract_y
  _atom_site_fract_z
C1 C 0.37914 0.03827 0.30173
 H2 H 0.36104 0.05415 0.29519
 C3 C 0.40008 0.04601 0.32735
 H4 H 0.39705 0.06725 0.34127
 C5 C 0.40381 -0.00961 0.29302
 H6 H 0.40511 -0.03131 0.27961
 C7 C 0.42511 -0.00282 0.31801
 H8 H 0.44161 -0.02039 0.32454
 N9 N 0.38100 0.01047 0.28579
 C10 C 0.37406 -0.04022 0.19532
 H11 H 0.35316 -0.05334 0.19956
 C12 C 0.39378 -0.04837 0.16880
 H13 H 0.38694 -0.06692 0.15214
 C14 C 0.40670 0.00158 0.21019
 H15 H 0.41132 0.02143 0.22598
 C16 C 0.42730 -0.00615 0.18472
 H17 H 0.44706 0.00873 0.18048
 Zn18 Zn 0.35449 -0.00197 0.25036
 N19 N 0.38041 -0.01504 0.21470
 C20 C 0.33829 0.04977 0.21039
 N21 N 0.33013 0.03178 0.23702
 C22 C 0.30570 0.03896 0.25687
 C23 C 0.28936 0.06603 0.25140
 C24 C 0.32280 0.07737 0.20425
 C25 C 0.33580 -0.05360 0.29002
 C26 C 0.31973 -0.08118 0.29555
 C27 C 0.28662 -0.06865 0.24883
 C28 C 0.30371 -0.04166 0.24390
 N29 N 0.32840 -0.03516 0.26366
 H30 H 0.35799 0.04371 0.19511
 H31 H 0.29993 0.02442 0.27811
 H32 H 0.27149 0.07230 0.26915
 H33 H 0.33152 0.09244 0.18472
 H34 H 0.35541 -0.04803 0.30559
 H35 H 0.32840 -0.09643 0.31475
 H36 H 0.26868 -0.07424 0.23089
 H37 H 0.29840 -0.02673 0.22294
 C38 C 0.42074 -0.03095 0.16288
 C39 C 0.42352 0.02524 0.33590
 C40 C 0.29503 -0.08977 0.27425
 C41 C 0.29829 0.08624 0.22536
 C42 C 0.11927 0.03815 0.69927
 H43 H 0.13640 0.05517 0.70637
 C44 C 0.09841 0.04467 0.67337
 H45 H 0.10055 0.06621 0.65984
 C46 C 0.09700 -0.01136 0.70693
 H47 H 0.09672 -0.03321 0.72003
 C48 C 0.07583 -0.00584 0.68154
 H49 H 0.06031 -0.02436 0.67442
 N50 N 0.11856 0.01019 0.71485
 C51 C 0.12529 -0.03893 0.80536
 H52 H 0.14526 -0.05286 0.80018
 C53 C 0.10606 -0.04657 0.83253
 H54 H 0.11246 -0.06556 0.84857
 C55 C 0.09424 0.00399 0.79210
 H56 H 0.09003 0.02398 0.77657
 C57 C 0.07417 -0.00313 0.81836
 H58 H 0.05517 0.01226 0.82343
 Zn59 Zn 0.14524 -0.00046 0.75042
 N60 N 0.11963 -0.01337 0.78656
 C61 C 0.16172 0.05232 0.78942
 N62 N 0.16925 0.03424 0.76265
 C63 C 0.19307 0.04172 0.74194
 C64 C 0.20930 0.06922 0.74660
 C65 C 0.17710 0.08035 0.79476
 C66 C 0.19438 -0.03996 0.76018
 C67 C 0.21198 -0.06639 0.75576
 C68 C 0.18511 -0.07636 0.70365
 C69 C 0.16794 -0.04961 0.70912
 N70 N 0.17198 -0.03283 0.73780
 H71 H 0.14261 0.04594 0.80551
 H72 H 0.19841 0.02701 0.72071
 H73 H 0.22666 0.07568 0.72824
 H74 H 0.16882 0.09539 0.81447
 H75 H 0.19715 -0.02615 0.78272
 H76 H 0.22749 -0.07286 0.77576
 H77 H 0.17959 -0.09082 0.68223
 H78 H 0.15021 -0.04337 0.69143
 C79 C 0.08026 -0.02822 0.83972
 C80 C 0.07625 0.02244 0.66409
 C81 C 0.20704 -0.08559 0.72758
 C82 C 0.20091 0.08954 0.77271
 C83 C 0.62028 0.53698 0.19906
 H84 H 0.63738 0.55392 0.20642
 C85 C 0.59952 0.54375 0.17314
 H86 H 0.60173 0.56541 0.15986
 C87 C 0.59789 0.48745 0.20616
 H88 H 0.59749 0.46551 0.21908
 C89 C 0.57682 0.49322 0.18074
 H90 H 0.56126 0.47481 0.17339
 N91 N 0.61946 0.50890 0.21439
 C92 C 0.62539 0.45986 0.30511
 H93 H 0.64526 0.44575 0.30004
 C94 C 0.60605 0.45250 0.33227
 H95 H 0.61225 0.43351 0.34840
 C96 C 0.59474 0.50301 0.29158
 H97 H 0.59075 0.52298 0.27595
 C98 C 0.57455 0.49616 0.31781
 H99 H 0.55566 0.51172 0.32275
 Zn100 Zn 0.64584 0.49803 0.25016
 N101 N 0.61999 0.48540 0.28617
 C102 C 0.66314 0.55032 0.28962
 N103 N 0.67009 0.53248 0.26248
 C104 C 0.69373 0.53988 0.24150
 C105 C 0.71037 0.56710 0.24626
 C106 C 0.67897 0.57809 0.29510
 C107 C 0.66874 0.44869 0.20919
 C108 C 0.68610 0.42203 0.20389
 C109 C 0.71260 0.43223 0.25618
 C110 C 0.69481 0.45854 0.26043
 N111 N 0.67252 0.46553 0.23786
 H112 H 0.64417 0.54397 0.30593
 H113 H 0.69861 0.52533 0.22000
 H114 H 0.72754 0.57354 0.22769
 H115 H 0.67118 0.59304 0.31515
 H116 H 0.65109 0.45482 0.19134
 H117 H 0.68078 0.40750 0.18246
 H118 H 0.72804 0.42587 0.27629
 H119 H 0.69740 0.47242 0.28294
 C120 C 0.58040 0.47111 0.33931
 C121 C 0.57734 0.52165 0.16357
 C122 C 0.70796 0.41297 0.22799
 C123 C 0.70261 0.58719 0.27281
 C124 C 0.88140 0.53903 0.80261
 H125 H 0.86412 0.55584 0.79630
 C126 C 0.90243 0.54541 0.82852
 H127 H 0.89999 0.56660 0.84270
 C128 C 0.90398 0.49029 0.79304
 H129 H 0.90431 0.46874 0.77927
 C130 C 0.92535 0.49565 0.81835
 H131 H 0.94090 0.47710 0.82447
 N132 N 0.88206 0.51141 0.78620
 C133 C 0.87461 0.46095 0.69688
 H134 H 0.85462 0.44686 0.70238
 C135 C 0.89422 0.45267 0.67033
 H136 H 0.88811 0.43303 0.65486
 C137 C 0.90536 0.50490 0.70895
 H138 H 0.90934 0.52546 0.72385
 C139 C 0.92589 0.49709 0.68346
 H140 H 0.94495 0.51260 0.67816
 Zn141 Zn 0.85481 0.50018 0.75098
 N142 N 0.88001 0.48724 0.71481
 C143 C 0.83491 0.55050 0.70990
 N144 N 0.83062 0.53440 0.73895
 C145 C 0.80961 0.54333 0.76225
 C146 C 0.79321 0.57045 0.75790
 C147 C 0.81883 0.57795 0.70443
 C148 C 0.83448 0.44980 0.79166
 C149 C 0.81838 0.42223 0.79715
 C150 C 0.78779 0.43292 0.74790
 C151 C 0.80475 0.46001 0.74312
 N152 N 0.82840 0.46727 0.76408
 H153 H 0.85189 0.54295 0.69176
 H154 H 0.80686 0.53016 0.78519
 H155 H 0.77861 0.57810 0.77835
 H156 H 0.82422 0.59161 0.68239
 H157 H 0.85313 0.45611 0.80829
 H158 H 0.82580 0.40758 0.81749
 H159 H 0.77078 0.42640 0.72925
 H160 H 0.80036 0.47431 0.72138
 C161 C 0.92015 0.47113 0.66297
 C162 C 0.92496 0.52348 0.83707
 C163 C 0.79522 0.41287 0.77447
 C164 C 0.79781 0.58854 0.72884
 C165 C 0.20058 0.41739 0.96019
 H166 H 0.20669 0.40033 0.94147
 C167 C 0.17418 0.43534 0.95580
 H168 H 0.15975 0.43132 0.93401
 C169 C 0.21041 0.44133 1.01273
 H170 H 0.22429 0.44296 1.03528
 C171 C 0.18424 0.45938 1.00962
 H172 H 0.17829 0.47380 1.03080
 N173 N 0.21728 0.41990 0.98902
 C174 C 0.30248 0.40948 1.03926
 H175 H 0.29719 0.38914 1.05391
 C176 C 0.32977 0.42585 1.04533
 H177 H 0.34547 0.41705 1.06402
 C178 C 0.28991 0.44315 0.99456
 H179 H 0.27474 0.44908 0.97403
 C180 C 0.31665 0.46037 1.00000
 H181 H 0.32211 0.47900 0.98284
 Zn182 Zn 0.24987 0.39316 1.00014
 N183 N 0.28379 0.41776 1.01346
 C184 C 0.28793 0.37278 0.94565
 N185 N 0.26128 0.36826 0.96318
 C186 C 0.24217 0.34426 0.95608
 C187 C 0.24895 0.32422 0.92976
 C188 C 0.29529 0.35361 0.91838
 C189 C 0.21126 0.37077 1.05362
 C190 C 0.20365 0.35106 1.08029
 C191 C 0.24800 0.32031 1.06618
 C192 C 0.25511 0.34095 1.04043
 N193 N 0.23729 0.36607 1.03518
 H194 H 0.30305 0.39178 0.95210
 H195 H 0.22133 0.34099 0.97068
 H196 H 0.23246 0.30624 0.92356
 H197 H 0.31542 0.35905 0.90341
 H198 H 0.19689 0.39044 1.04862
 H199 H 0.18425 0.35691 1.09607
 H200 H 0.26368 0.30156 1.07112
 H201 H 0.27542 0.33740 1.02510
 C202 C 0.33758 0.45140 1.02508
 C203 C 0.16497 0.45601 0.98129
 C204 C 0.22254 0.32567 1.08740
 C205 C 0.27543 0.32905 0.90982
 C206 C 0.80255 0.08379 0.95956
 H207 H 0.79614 0.10162 0.94201
 C208 C 0.82991 0.06750 0.95443
 H209 H 0.84443 0.07389 0.93333
 C210 C 0.79273 0.05642 1.00996
 H211 H 0.77863 0.05301 1.03218
 C212 C 0.81976 0.03973 1.00599
 H213 H 0.82608 0.02427 1.02614
 N214 N 0.78532 0.07884 0.98773
 C215 C 0.70157 0.08328 1.04111
 H216 H 0.70866 0.10060 1.05917
 C217 C 0.67417 0.06669 1.04632
 H218 H 0.66011 0.07212 1.06805
 C219 C 0.70975 0.05763 0.98917
 H220 H 0.72328 0.05499 0.96643
 C221 C 0.68268 0.04063 0.99332
 H222 H 0.67543 0.02563 0.97299
 Zn223 Zn 0.75211 0.10446 1.00061
 N224 N 0.71814 0.07913 1.01234
 C225 C 0.71260 0.13021 0.95013
 N226 N 0.74065 0.13135 0.96544
 C227 C 0.76168 0.15340 0.95743
 C228 C 0.75562 0.17447 0.93205
 C229 C 0.70556 0.15092 0.92425
 C230 C 0.79082 0.12528 1.05483
 C231 C 0.79842 0.14452 1.08199
 C232 C 0.75314 0.17453 1.06994
 C233 C 0.74606 0.15437 1.04373
 N234 N 0.76443 0.12992 1.03710
 H235 H 0.69590 0.11285 0.95737
 H236 H 0.78358 0.15410 0.97037
 H237 H 0.77379 0.19035 0.92478
 H238 H 0.68401 0.14835 0.91089
 H239 H 0.80559 0.10614 1.04870
 H240 H 0.81828 0.13893 1.09705
 H241 H 0.73719 0.19287 1.07580
 H242 H 0.72548 0.15786 1.02895
 C243 C 0.66405 0.04525 1.02198
 C244 C 0.83951 0.04536 0.97821
 C245 C 0.77914 0.16934 1.09028
 C246 C 0.72733 0.17343 0.91472
 C247 C 0.30094 0.58419 0.45857
 H248 H 0.29439 0.60193 0.44098
 C249 C 0.32810 0.56762 0.45308
 H250 H 0.34250 0.57354 0.43173
 C251 C 0.29169 0.55716 0.50937
 H252 H 0.27788 0.55394 0.53184
 C253 C 0.31850 0.54021 0.50496
 H254 H 0.32520 0.52473 0.52491
 N255 N 0.28410 0.57951 0.48710
 C256 C 0.20073 0.58415 0.54120
 H257 H 0.20779 0.60169 0.55903
 C258 C 0.17346 0.56744 0.54672
 H259 H 0.15944 0.57298 0.56844
 C260 C 0.20888 0.55809 0.48950
 H261 H 0.22233 0.55532 0.46673
 C262 C 0.18196 0.54094 0.49397
 H263 H 0.17473 0.52571 0.47383
 Zn264 Zn 0.25097 0.60519 0.50016
 N265 N 0.21720 0.57984 0.51239
 C266 C 0.21105 0.63041 0.44970
 N267 N 0.23916 0.63177 0.46486
 C268 C 0.26009 0.65381 0.45654
 C269 C 0.25386 0.67465 0.43098
 C270 C 0.20384 0.65089 0.42364
 C271 C 0.28976 0.62625 0.55421
 C272 C 0.29733 0.64557 0.58132
 C273 C 0.25210 0.67559 0.56907
 C274 C 0.24506 0.65537 0.54290
 N275 N 0.26342 0.63087 0.53640
 H276 H 0.19444 0.61305 0.45718
 H277 H 0.28205 0.65467 0.46935
 H278 H 0.27196 0.69052 0.42347
 H279 H 0.18224 0.64816 0.41041
 H280 H 0.30449 0.60705 0.54821
 H281 H 0.31714 0.63998 0.59647
 H282 H 0.23614 0.69395 0.57483
 H283 H 0.22450 0.65881 0.52809
 C284 C 0.16340 0.54572 0.52265
 C285 C 0.33766 0.54566 0.47684
 C286 C 0.27804 0.67043 0.58949
 C287 C 0.22550 0.67338 0.41378
 C288 C 0.69906 0.91688 0.45962
 H289 H 0.70464 0.89856 0.44217
 C290 C 0.67268 0.93457 0.45451
 H291 H 0.65777 0.92894 0.43354
 C292 C 0.70999 0.94403 0.51005
 H293 H 0.72419 0.94690 0.53221
 C294 C 0.68395 0.96219 0.50597
 H295 H 0.67810 0.97821 0.52584
 N296 N 0.71640 0.92119 0.48772
 C297 C 0.80132 0.91085 0.53849
 H298 H 0.79570 0.89076 0.55340
 C299 C 0.82878 0.92694 0.54451
 H300 H 0.84423 0.91819 0.56346
 C301 C 0.78943 0.94409 0.49318
 H302 H 0.77447 0.94993 0.47244
 C303 C 0.81637 0.96103 0.49854
 H304 H 0.82217 0.97938 0.48115
 Zn305 Zn 0.74886 0.89451 0.49935
 N306 N 0.78289 0.91903 0.51243
 C307 C 0.78699 0.87340 0.44527
 N308 N 0.76032 0.86892 0.46276
 C309 C 0.74138 0.84472 0.45582
 C310 C 0.74837 0.82447 0.42970
 C311 C 0.79458 0.85401 0.41827
 C312 C 0.71052 0.87390 0.55377
 C313 C 0.70285 0.85471 0.58088
 C314 C 0.74625 0.82273 0.56645
 C315 C 0.75341 0.84280 0.54023
 N316 N 0.73607 0.86822 0.53486
 H317 H 0.80199 0.89254 0.45155
 H318 H 0.72051 0.84144 0.47036
 H319 H 0.73206 0.80629 0.42363
 H320 H 0.81478 0.85944 0.40343
 H321 H 0.69667 0.89394 0.54878
 H322 H 0.68388 0.86121 0.59699
 H323 H 0.76160 0.80371 0.57143
 H324 H 0.77343 0.83860 0.52464
 C325 C 0.83702 0.95212 0.52392
 C326 C 0.66435 0.95724 0.47826
 C327 C 0.72120 0.82893 0.58798
 C328 C 0.77492 0.82925 0.40984
 C329 C 0.00553 0.31121 0.38941
 H330 H 0.01091 0.31222 0.36290
 C331 C 0.00452 0.33834 0.40813
 H332 H 0.00936 0.36001 0.39559
 C333 C -0.00780 0.28211 0.43772
 H334 H -0.01322 0.26010 0.44906
 C335 C -0.00927 0.30889 0.45749
 H336 H -0.01554 0.30690 0.48374
 N337 N -0.00027 0.28368 0.40435
 C338 C -0.02232 0.19212 0.40629
 H339 H -0.04037 0.19471 0.38783
 C340 C -0.02261 0.16660 0.42757
 H341 H -0.04068 0.14951 0.42429
 C342 C 0.02366 0.21045 0.43134
 H343 H 0.04164 0.22782 0.43265
 C344 C 0.02469 0.18487 0.45278
 H345 H 0.04436 0.18273 0.46918
 Zn346 Zn 0.00100 0.24717 0.37762
 N347 N 0.00096 0.21309 0.40793
 C348 C 0.05941 0.22644 0.35536
 N349 N 0.03658 0.24680 0.34890
 C350 C 0.03853 0.26611 0.32186
 C351 C 0.06445 0.26585 0.30066
 C352 C 0.08578 0.22584 0.33539
 C353 C -0.06122 0.25535 0.36376
 C354 C -0.08818 0.25528 0.34492
 C355 C -0.06001 0.23486 0.29741
 C356 C -0.03338 0.23522 0.31738
 N357 N -0.03448 0.24556 0.34984
 H358 H 0.05759 0.21085 0.37636
 H359 H 0.01984 0.28166 0.31649
 H360 H 0.06592 0.28209 0.28006
 H361 H 0.10422 0.21064 0.34276
 H362 H -0.06158 0.26316 0.38965
 H363 H -0.10931 0.26291 0.35676
 H364 H -0.05860 0.22616 0.27194
 H365 H -0.01193 0.22695 0.30699
 C366 C 0.00147 0.16198 0.45100
 C367 C -0.00291 0.33761 0.44272
 C368 C -0.08796 0.24520 0.31112
 C369 C 0.08859 0.24534 0.30716
 C370 C 0.02419 0.69343 0.09636
 H371 H 0.04174 0.69602 0.11540
 C372 C 0.02466 0.66774 0.07511
 H373 H 0.04207 0.65037 0.07902
 C374 C -0.02018 0.71219 0.06901
 H375 H -0.03750 0.72985 0.06654
 C376 C -0.02076 0.68664 0.04733
 H377 H -0.03940 0.68458 0.02950
 N378 N 0.00143 0.71463 0.09374
 C379 C -0.00696 0.81251 0.11188
 H380 H -0.01418 0.81293 0.13792
 C381 C -0.00649 0.83972 0.09335
 H382 H -0.01329 0.86095 0.10561
 C383 C 0.01134 0.78462 0.06466
 H384 H 0.01876 0.76306 0.05374
 C385 C 0.01216 0.81149 0.04505
 H386 H 0.02029 0.81009 0.01935
 Zn387 Zn 0.00036 0.74915 0.12405
 N388 N 0.00174 0.78558 0.09740
 C389 C 0.05483 0.77224 0.15402
 N390 N 0.03420 0.74856 0.15435
 C391 C 0.03677 0.72507 0.17685
 C392 C 0.06188 0.72386 0.19891
 C393 C 0.07991 0.77221 0.17587
 C394 C -0.06075 0.73176 0.14211
 C395 C -0.08749 0.73192 0.16148
 C396 C -0.06264 0.76602 0.20126
 C397 C -0.03631 0.76554 0.18062
 N398 N -0.03591 0.74880 0.15148
 H399 H 0.05227 0.79087 0.13624
 H400 H 0.01974 0.70673 0.17695
 H401 H 0.06428 0.70389 0.21487
 H402 H 0.09687 0.79055 0.17384
 H403 H -0.06023 0.71835 0.11926
 H404 H -0.10729 0.71921 0.15214
 H405 H -0.06247 0.78045 0.22351
 H406 H -0.01618 0.77883 0.18780
 C407 C 0.00300 0.83962 0.05935
 C408 C 0.00167 0.66359 0.05046
 C409 C -0.08897 0.74884 0.19201
 C410 C 0.08422 0.74753 0.19838
 C411 C 0.52427 0.19513 0.59854
 H412 H 0.54263 0.19819 0.61653
 C413 C 0.52436 0.16933 0.57742
 H414 H 0.54226 0.15230 0.58051
 C415 C 0.47868 0.21304 0.57301
 H416 H 0.46134 0.23051 0.57052
 C417 C 0.47772 0.18741 0.55154
 H418 H 0.45859 0.18516 0.53439
 N419 N 0.50113 0.21602 0.59675
 C420 C 0.49525 0.31398 0.61332
 H421 H 0.48839 0.31450 0.63953
 C422 C 0.49545 0.34101 0.59450
 H423 H 0.48891 0.36238 0.60668
 C424 C 0.51233 0.28553 0.56593
 H425 H 0.51911 0.26374 0.55502
 C426 C 0.51292 0.31223 0.54602
 H427 H 0.52037 0.31053 0.52011
 Zn428 Zn 0.50126 0.25115 0.62627
 N429 N 0.50354 0.28692 0.59890
 C430 C 0.55572 0.27379 0.65678
 N431 N 0.53537 0.24988 0.65642
 C432 C 0.53868 0.22554 0.67772
 C433 C 0.56385 0.22410 0.69967
 C434 C 0.58096 0.27344 0.67841
 C435 C 0.43719 0.25544 0.63663
 C436 C 0.40976 0.25732 0.65467
 C437 C 0.43855 0.25684 0.70651
 C438 C 0.46563 0.25442 0.68731
 N439 N 0.46450 0.25329 0.65294
 H440 H 0.55280 0.29294 0.63974
 H441 H 0.52207 0.20683 0.67711
 H442 H 0.56676 0.20363 0.71475
 H443 H 0.59766 0.29205 0.67687
 H444 H 0.43655 0.25609 0.60953
 H445 H 0.38830 0.25811 0.64086
 H446 H 0.44023 0.25729 0.73364
 H447 H 0.48752 0.25378 0.70008
 C448 C 0.50422 0.34056 0.56027
 C449 C 0.50060 0.16475 0.55380
 C450 C 0.40997 0.25818 0.69016
 C451 C 0.58563 0.24826 0.70017
 C452 C 0.50521 0.81203 0.88813
 H453 H 0.51087 0.81305 0.86170
 C454 C 0.50443 0.83911 0.90696
 H455 H 0.50965 0.86077 0.89456
 C456 C 0.49097 0.78297 0.93616
 H457 H 0.48507 0.76101 0.94734
 C458 C 0.48977 0.80969 0.95604
 H459 H 0.48317 0.80769 0.98220
 N460 N 0.49888 0.78454 0.90290
 C461 C 0.47706 0.69270 0.90481
 H462 H 0.45918 0.69492 0.88610
 C463 C 0.47693 0.66732 0.92631
 H464 H 0.45924 0.64982 0.92317
 C465 C 0.52255 0.71186 0.93033
 H466 H 0.54028 0.72948 0.93171
 C467 C 0.52358 0.68653 0.95210
 H468 H 0.54283 0.68463 0.96911
 Zn469 Zn 0.50005 0.74801 0.87621
 N470 N 0.50004 0.71402 0.90660
 C471 C 0.55838 0.72709 0.85406
 N472 N 0.53562 0.74751 0.84755
 C473 C 0.53767 0.76685 0.82054
 C474 C 0.56368 0.76661 0.79948
 C475 C 0.58482 0.72647 0.83419
 C476 C 0.43785 0.75622 0.86248
 C477 C 0.41088 0.75633 0.84364
 C478 C 0.43897 0.73603 0.79602
 C479 C 0.46561 0.73624 0.81596
 N480 N 0.46456 0.74643 0.84848
 H481 H 0.55648 0.71152 0.87508
 H482 H 0.51903 0.78244 0.81514
 H483 H 0.56526 0.78293 0.77896
 H484 H 0.60322 0.71125 0.84160
 H485 H 0.43753 0.76393 0.88840
 H486 H 0.38978 0.76396 0.85554
 H487 H 0.44034 0.72743 0.77050
 H488 H 0.48704 0.72799 0.80551
 C489 C 0.50075 0.66345 0.94997
 C490 C 0.49674 0.83835 0.94148
 C491 C 0.41105 0.74638 0.80980
 C492 C 0.58778 0.74607 0.80605
 C493 C -0.21103 0.62462 0.94361
 H494 H -0.19728 0.60440 0.94816
 C495 C -0.20327 0.64435 0.91697
 H496 H -0.18437 0.63810 0.90064
 C497 C -0.25374 0.65568 0.95793
 H498 H -0.27370 0.65972 0.97365
 C499 C -0.24645 0.67630 0.93227
 H500 H -0.26170 0.69551 0.92781
 N501 N -0.23648 0.63010 0.96274
 C502 C -0.28826 0.62862 1.05067
 H503 H -0.30456 0.61062 1.04418
 C504 C -0.29513 0.64934 1.07680
 H505 H -0.31623 0.64608 1.09098
 C506 C -0.24009 0.65308 1.04136
 H507 H -0.21857 0.65424 1.02760
 C508 C -0.24591 0.67413 1.06687
 H509 H -0.22770 0.69030 1.07317
 Zn510 Zn -0.24894 0.60408 0.99867
 N511 N -0.26074 0.63048 1.03423
 C512 C -0.19869 0.58468 1.03953
 N513 N -0.21577 0.57858 1.01158
 C514 C -0.20827 0.55520 0.99035
 C515 C -0.18138 0.53849 0.99535
 C516 C -0.17131 0.56877 1.04529
 C517 C -0.30071 0.58634 0.95948
 C518 C -0.32831 0.57037 0.95389
 C519 C -0.31676 0.53799 1.00159
 C520 C -0.28968 0.55482 1.00652
 N521 N -0.28265 0.57899 0.98616
 H522 H -0.20521 0.60310 1.05637
 H523 H -0.22231 0.55077 0.96836
 H524 H -0.17469 0.52169 0.97654
 H525 H -0.15690 0.57609 1.06600
 H526 H -0.29471 0.60579 0.94375
 H527 H -0.34343 0.57856 0.93433
 H528 H -0.32295 0.52037 1.01971
 H529 H -0.27500 0.54968 1.02772
 C530 C -0.27375 0.67269 1.08552
 C531 C -0.22139 0.67050 0.91065
 C532 C -0.33709 0.54619 0.97560
 C533 C -0.16180 0.54582 1.02248
 C534 C -0.21222 0.36939 0.55405
 H535 H -0.19516 0.38647 0.54696
 C536 C -0.20572 0.34886 0.57826
 H537 H -0.18368 0.35022 0.59083
 C538 C -0.26219 0.34788 0.54484
 H539 H -0.28393 0.34742 0.53159
 C540 C -0.25635 0.32535 0.57154
 H541 H -0.27541 0.31061 0.57902
 N542 N -0.24179 0.36888 0.53764
 C543 C -0.29045 0.37477 0.44729
 H544 H -0.30525 0.39397 0.45308
 C545 C -0.29768 0.35542 0.42008
 H546 H -0.31731 0.36098 0.40465
 C547 C -0.24590 0.34565 0.45927
 H548 H -0.22553 0.34222 0.47440
 C549 C -0.25261 0.32541 0.43303
 H550 H -0.23658 0.30704 0.42752
 Zn551 Zn -0.25228 0.39573 0.50198
 N552 N -0.26434 0.37015 0.46549
 C553 C -0.20132 0.41618 0.46164
 N554 N -0.21770 0.42027 0.49056
 C555 C -0.20891 0.44137 0.51396
 C556 C -0.18166 0.45805 0.50985
 C557 C -0.17373 0.43247 0.45646
 C558 C -0.30222 0.41841 0.54244
 C559 C -0.32899 0.43568 0.54746
 C560 C -0.31848 0.46215 0.49519
 C561 C -0.29203 0.44448 0.49131
 N562 N -0.28509 0.42228 0.51401
 H563 H -0.20878 0.39921 0.44337
 H564 H -0.22233 0.44401 0.53678
 H565 H -0.17412 0.47276 0.53032
 H566 H -0.15988 0.42713 0.43456
 H567 H -0.29619 0.40075 0.56036
 H568 H -0.34355 0.43017 0.56881
 H569 H -0.32456 0.47743 0.47480
 H570 H -0.27798 0.44708 0.46892
 C571 C -0.27831 0.33053 0.41224
 C572 C -0.22918 0.32534 0.58825
 C573 C -0.33804 0.45764 0.52328
 C574 C -0.16326 0.45354 0.48099
 C575 C 0.28816 -0.13105 0.05414
 H576 H 0.30500 -0.11356 0.04765
 C577 C 0.29471 -0.15184 0.07807
 H578 H 0.31655 -0.15025 0.09102
 C579 C 0.23873 -0.15333 0.04373
 H580 H 0.21714 -0.15393 0.03019
 C581 C 0.24466 -0.17624 0.07002
 H582 H 0.22576 -0.19140 0.07694
 N583 N 0.25880 -0.13181 0.03730
 C584 C 0.20973 -0.12480 -0.05255
 H585 H 0.19490 -0.10573 -0.04632
 C586 C 0.20228 -0.14389 -0.07991
 H587 H 0.18247 -0.13825 -0.09502
 C588 C 0.25449 -0.15390 -0.04145
 H589 H 0.27499 -0.15745 -0.02657
 C590 C 0.24757 -0.17389 -0.06784
 H591 H 0.26357 -0.19218 -0.07373
 Zn592 Zn 0.24818 -0.10447 0.00214
 N593 N 0.23603 -0.12954 -0.03471
 C594 C 0.29889 -0.08327 -0.03811
 N595 N 0.28263 -0.07964 -0.00903
 C596 C 0.29141 -0.05875 0.01460
 C597 C 0.31856 -0.04187 0.01057
 C598 C 0.32635 -0.06677 -0.04322
 C599 C 0.19790 -0.08276 0.04274
 C600 C 0.17102 -0.06567 0.04784
 C601 C 0.18192 -0.03819 -0.00371
 C602 C 0.20849 -0.05565 -0.00767
 N603 N 0.21530 -0.07824 0.01461
 H604 H 0.29143 -0.10006 -0.05659
 H605 H 0.27808 -0.05645 0.03753
 H606 H 0.32611 -0.02736 0.03121
 H607 H 0.34013 -0.07177 -0.06528
 H608 H 0.20381 -0.10079 0.06026
 H609 H 0.15627 -0.07163 0.06890
 H610 H 0.17598 -0.02259 -0.02385
 H611 H 0.22271 -0.05260 -0.02985
 C612 C 0.22165 -0.16864 -0.08825
 C613 C 0.27154 -0.17591 0.08728
 C614 C 0.16212 -0.04329 0.02406
 C615 C 0.33684 -0.04593 -0.01846
 C616 C 0.29024 1.12829 0.44788
 H617 H 0.30670 1.11077 0.45457
 C618 C 0.29709 1.14911 0.42183
 H619 H 0.31829 1.14656 0.40775
 C620 C 0.24176 1.15170 0.45676
 H621 H 0.22015 1.15245 0.47035
 C622 C 0.24762 1.17279 0.43129
 H623 H 0.22950 1.18866 0.42466
 N624 N 0.26257 1.12958 0.46409
 C625 C 0.21042 1.12852 0.55081
 H626 H 0.19439 1.11023 0.54450
 C627 C 0.20276 1.14993 0.57598
 H628 H 0.18148 1.14701 0.58989
 C629 C 0.25846 1.15339 0.54178
 H630 H 0.28020 1.15452 0.52843
 C631 C 0.25174 1.17518 0.56631
 H632 H 0.26940 1.19195 0.57260
 Zn633 Zn 0.25075 1.10349 0.49997
 N634 N 0.23828 1.13024 0.53500
 C635 C 0.30128 1.08498 0.54094
 N636 N 0.28428 1.07875 0.51297
 C637 C 0.29195 1.05550 0.49169
 C638 C 0.31883 1.03882 0.49680
 C639 C 0.32875 1.06921 0.54672
 C640 C 0.20108 1.08242 0.45905
 C641 C 0.17351 1.06638 0.45359
 C642 C 0.18239 1.03821 0.50505
 C643 C 0.20941 1.05516 0.50979
 N644 N 0.21757 1.07755 0.48760
 H645 H 0.29460 1.10339 0.55773
 H646 H 0.27798 1.05104 0.46966
 H647 H 0.32561 1.02203 0.47802
 H648 H 0.34311 1.07662 0.56743
 H649 H 0.20821 1.10005 0.44146
 H650 H 0.15962 1.07285 0.43226
 H651 H 0.17515 1.02217 0.52443
 H652 H 0.22304 1.05172 0.53223
 C653 C 0.22366 1.17370 0.58416
 C654 C 0.27554 1.17180 0.41314
 C655 C 0.16325 1.04456 0.47739
 C656 C 0.33837 1.04628 0.52391
 C657 C 0.16248 0.44593 0.28881
 H658 H 0.14358 0.45121 0.30552
 C659 C 0.17946 0.41901 0.29391
 H660 H 0.17276 0.40355 0.31405
 C661 C 0.19227 0.45808 0.24059
 H662 H 0.19689 0.47317 0.21950
 C663 C 0.20964 0.43148 0.24460
 H664 H 0.22653 0.42619 0.22544
 N665 N 0.16841 0.46419 0.26168
 C666 C 0.15802 0.55052 0.21118
 H667 H 0.13697 0.54554 0.19762
 C668 C 0.17387 0.57819 0.20536
 H669 H 0.16418 0.59442 0.18776
 C670 C 0.19347 0.53693 0.25378
 H671 H 0.20017 0.52134 0.27364
 C672 C 0.21014 0.56412 0.24861
 H673 H 0.22923 0.56933 0.26520
 Zn674 Zn 0.14251 0.49737 0.24904
 N675 N 0.16758 0.53099 0.23567
 C676 C 0.12092 0.53775 0.30111
 N677 N 0.11729 0.50990 0.28560
 C678 C 0.09476 0.48994 0.29524
 C679 C 0.07509 0.49737 0.32161
 C680 C 0.10230 0.54573 0.32868
 C681 C 0.12918 0.46886 0.18632
 C682 C 0.11108 0.46034 0.15875
 C683 C 0.06699 0.48229 0.18676
 C684 C 0.08608 0.49080 0.21348
 N685 N 0.11667 0.48425 0.21280
 H686 H 0.13887 0.55342 0.29286
 H687 H 0.09222 0.46803 0.28244
 H688 H 0.05805 0.48049 0.32950
 H689 H 0.10695 0.56706 0.34189
 H690 H 0.15355 0.46423 0.18578
 H691 H 0.12265 0.45044 0.13717
 H692 H 0.04329 0.48991 0.18727
 H693 H 0.07652 0.50411 0.23393
 C694 C 0.20012 0.58568 0.22462
 C695 C 0.20304 0.41099 0.27117
 C696 C 0.07929 0.46728 0.15819
 C697 C 0.07924 0.52511 0.33962
 C698 C -0.16634 1.05036 0.29160
 H699 H -0.14842 1.04411 0.30908
 C700 C -0.18357 1.07703 0.29740
 H701 H -0.17790 1.09145 0.31881
 C702 C -0.19327 1.04078 0.24085
 H703 H -0.19626 1.02701 0.21832
 C704 C -0.21094 1.06711 0.24559
 H705 H -0.22668 1.07358 0.22580
 N706 N -0.17062 1.03365 0.26292
 C707 C -0.16441 0.95040 0.20899
 H708 H -0.14686 0.95753 0.19121
 C709 C -0.18097 0.92301 0.20349
 H710 H -0.17530 0.90896 0.18184
 C711 C -0.19067 0.95854 0.26058
 H712 H -0.19359 0.97206 0.28328
 C713 C -0.20767 0.93154 0.25612
 H714 H -0.22295 0.92429 0.27622
 Zn715 Zn -0.14422 1.00112 0.24981
 N716 N -0.16893 0.96693 0.23771
 C717 C -0.11828 0.96164 0.30024
 N718 N -0.11747 0.98982 0.28513
 C719 C -0.09586 1.01119 0.29349
 C720 C -0.07489 1.00529 0.31899
 C721 C -0.09766 0.95475 0.32625
 C722 C -0.12454 1.03964 0.19486
 C723 C -0.10535 1.04754 0.16775
 C724 C -0.07320 1.00423 0.18177
 C725 C -0.09337 0.99678 0.20784
 N726 N -0.11880 1.01403 0.21351
 H727 H -0.13531 0.94470 0.29274
 H728 H -0.09543 1.03320 0.28072
 H729 H -0.05935 1.02367 0.32650
 H730 H -0.09996 0.93304 0.33942
 H731 H -0.14457 1.05347 0.20014
 H732 H -0.11208 1.06660 0.15201
 H733 H -0.05411 0.98890 0.17682
 H734 H -0.08910 0.97672 0.22324
 C735 C -0.20276 0.91295 0.22750
 C736 C -0.20581 1.08624 0.27379
 C737 C -0.07930 1.02944 0.16038
 C738 C -0.07558 0.97684 0.33610
 C739 C 0.33248 0.55186 -0.20796
 H740 H 0.35030 0.54563 -0.19035
 C741 C 0.31533 0.57864 -0.20247
 H742 H 0.32096 0.59318 -0.18115
 C743 C 0.30572 0.54207 -0.25879
 H744 H 0.30277 0.52816 -0.28123
 C745 C 0.28813 0.56847 -0.25434
 H746 H 0.27249 0.57486 -0.27426
 N747 N 0.32821 0.53497 -0.23652
 C748 C 0.33258 0.45063 -0.29126
 H749 H 0.34982 0.45764 -0.30947
 C750 C 0.31566 0.42510 -0.29663
 H751 H 0.31998 0.41159 -0.31907
 C752 C 0.30742 0.46090 -0.23902
 H753 H 0.30503 0.47439 -0.21622
 C754 C 0.28863 0.43287 -0.24356
 H755 H 0.27424 0.42579 -0.22261
 Zn756 Zn 0.35409 0.50198 -0.24926
 N757 N 0.32857 0.46819 -0.26084
 C758 C 0.37993 0.46259 -0.19862
 N759 N 0.38091 0.49066 -0.21399
 C760 C 0.40276 0.51188 -0.20599
 C761 C 0.42388 0.50596 -0.18063
 C762 C 0.40072 0.45568 -0.17278
 C763 C 0.37495 0.54073 -0.30350
 C764 C 0.39425 0.54842 -0.33060
 C765 C 0.42412 0.50299 -0.31869
 C766 C 0.40390 0.49582 -0.29255
 N767 N 0.37950 0.51425 -0.28586
 H768 H 0.36266 0.44578 -0.20582
 H769 H 0.40329 0.53381 -0.21894
 H770 H 0.43962 0.52426 -0.17340
 H771 H 0.39834 0.43408 -0.15941
 H772 H 0.35586 0.55554 -0.29731
 H773 H 0.38874 0.56840 -0.34554
 H774 H 0.44247 0.48705 -0.32455
 H775 H 0.40733 0.47518 -0.27782
 C776 C 0.29251 0.41482 -0.27105
 C777 C 0.29318 0.58773 -0.22625
 C778 C 0.41904 0.52911 -0.33894
 C779 C 0.42311 0.47761 -0.16333
 C780 C 0.66288 -0.05263 -0.20813
 H781 H 0.64509 -0.04607 -0.19044
 C782 C 0.67901 -0.07852 -0.20311
 H783 H 0.67367 -0.09273 -0.18147
 C784 C 0.69023 -0.04092 -0.25869
 H785 H 0.69364 -0.02690 -0.28092
 C786 C 0.70800 -0.06937 -0.25465
 H787 H 0.72281 -0.07582 -0.27542
 N788 N 0.66841 -0.03410 -0.23758
 C789 C 0.65943 0.05259 -0.28786
 H790 H 0.63878 0.04770 -0.30209
 C791 C 0.67541 0.08025 -0.29330
 H792 H 0.66588 0.09632 -0.31120
 C793 C 0.69394 0.03890 -0.24449
 H794 H 0.70024 0.02325 -0.22451
 C795 C 0.71079 0.06607 -0.24922
 H796 H 0.72953 0.07099 -0.23205
 Zn797 Zn 0.64299 -0.00065 -0.24993
 N798 N 0.66834 0.03307 -0.26307
 C799 C 0.62326 0.03821 -0.19584
 N800 N 0.61769 0.01186 -0.21361
 C801 C 0.59270 -0.00608 -0.20698
 C802 C 0.57270 0.00158 -0.18091
 C803 C 0.60417 0.04639 -0.16879
 C804 C 0.62157 -0.03894 -0.30424
 C805 C 0.60217 -0.04649 -0.33122
 C806 C 0.57115 -0.00229 -0.31717
 C807 C 0.59139 0.00471 -0.29107
 N808 N 0.61646 -0.01309 -0.28555
 H809 H 0.64309 0.05238 -0.20184
 H810 H 0.58863 -0.02674 -0.22168
 H811 H 0.55392 -0.01410 -0.17502
 H812 H 0.61043 0.06613 -0.15356
 H813 H 0.64132 -0.05317 -0.29919
 H814 H 0.60823 -0.06571 -0.34721
 H815 H 0.55249 0.01345 -0.32227
 H816 H 0.58759 0.02494 -0.27567
 C817 C 0.70141 0.08791 -0.27345
 C818 C 0.70279 -0.08825 -0.22810
 C819 C 0.57673 -0.02773 -0.33840
 C820 C 0.57861 0.02769 -0.16067
 C821 C 0.05403 0.27565 0.84524
 H822 H 0.05119 0.29386 0.86358
 C823 C 0.07956 0.27600 0.82375
 H824 H 0.09666 0.29411 0.82667
 C825 C 0.03587 0.22953 0.82002
 H826 H 0.01862 0.21143 0.81880
 C827 C 0.06128 0.22875 0.79827
 H828 H 0.06352 0.20933 0.78141
 N829 N 0.03326 0.25213 0.84369
 C830 C -0.05681 0.22642 0.84513
 H831 H -0.05371 0.20776 0.86276
 C832 C -0.08235 0.22633 0.82383
 H833 H -0.09924 0.20797 0.82629
 C834 C -0.03930 0.27348 0.82157
 H835 H -0.02230 0.29184 0.82095
 C836 C -0.06472 0.27448 0.79997
 H837 H -0.06735 0.29432 0.78386
 Zn838 Zn -0.00138 0.25069 0.87313
 N839 N -0.03630 0.25019 0.84426
 C840 C -0.02564 0.30564 0.90070
 N841 N -0.00208 0.28535 0.90274
 C842 C 0.02037 0.28888 0.92641
 C843 C 0.02020 0.31428 0.94839
 C844 C -0.02651 0.33136 0.92174
 C845 C 0.02266 0.19435 0.89709
 C846 C 0.02395 0.16814 0.91722
 C847 C -0.02123 0.18539 0.94704
 C848 C -0.02197 0.21122 0.92580
 N849 N -0.00037 0.21503 0.90114
 H850 H -0.04356 0.30233 0.88222
 H851 H 0.03877 0.27225 0.92778
 H852 H 0.03909 0.31748 0.96581
 H853 H -0.04447 0.34804 0.91753
 H854 H 0.03991 0.19780 0.87782
 H855 H 0.04146 0.15132 0.91150
 H856 H -0.03928 0.18219 0.96559
 H857 H -0.04000 0.22811 0.92873
 C858 C -0.08699 0.25079 0.80106
 C859 C 0.08396 0.25200 0.80023
 C860 C 0.00214 0.16338 0.94314
 C861 C -0.00355 0.33608 0.94636
 C862 C 0.44413 0.27492 0.15240
 H863 H 0.44650 0.29257 0.13344
 C864 C 0.41825 0.27483 0.17337
 H865 H 0.40053 0.29187 0.16932
 C866 C 0.46380 0.23130 0.18045
 H867 H 0.48217 0.21506 0.18413
 C868 C 0.43809 0.23010 0.20174
 H869 H 0.43668 0.21173 0.21997
 N870 N 0.46584 0.25267 0.15540
 C871 C 0.56334 0.24445 0.13885
 H872 H 0.56366 0.23681 0.11289
 C873 C 0.59034 0.24448 0.15765
 H874 H 0.61149 0.23705 0.14571
 C875 C 0.53547 0.26392 0.18555
 H876 H 0.51396 0.27184 0.19613
 C877 C 0.56212 0.26427 0.20545
 H878 H 0.56067 0.27268 0.23103
 Zn879 Zn 0.50078 0.25217 0.12575
 N880 N 0.53657 0.25396 0.15296
 C881 C 0.52412 0.30627 0.09499
 N882 N 0.50008 0.28609 0.09541
 C883 C 0.47610 0.28914 0.07362
 C884 C 0.47500 0.31408 0.05133
 C885 C 0.52415 0.33124 0.07293
 C886 C 0.49919 0.18770 0.11446
 C887 C 0.50020 0.16053 0.09584
 C888 C 0.50833 0.19023 0.04528
 C889 C 0.50671 0.21709 0.06498
 N890 N 0.50192 0.21542 0.09896
 H891 H 0.54307 0.30341 0.11228
 H892 H 0.45742 0.27250 0.07413
 H893 H 0.45473 0.31688 0.03595
 H894 H 0.54281 0.34789 0.07442
 H895 H 0.49640 0.18643 0.14135
 H896 H 0.49750 0.13876 0.10890
 H897 H 0.51219 0.19235 0.01850
 H898 H 0.50982 0.23922 0.05300
 C899 C 0.59011 0.25425 0.19157
 C900 C 0.41438 0.25169 0.19792
 C901 C 0.50493 0.16132 0.06072
 C902 C 0.49919 0.33582 0.05090
 C903 C -0.05980 0.77448 0.64687
 H904 H -0.05749 0.79000 0.62582
 C905 C -0.08501 0.77581 0.66606
 H906 H -0.10282 0.79186 0.65900
 C907 C -0.03851 0.73407 0.67972
 H908 H -0.02013 0.71825 0.68535
 C909 C -0.06615 0.73465 0.70176
 H910 H -0.06824 0.71756 0.72148
 N911 N -0.03617 0.75245 0.65381
 C912 C 0.06189 0.74426 0.63903
 H913 H 0.06227 0.73654 0.61311
 C914 C 0.08894 0.74477 0.65773
 H915 H 0.11015 0.73751 0.64576
 C916 C 0.03392 0.76376 0.68563
 H917 H 0.01238 0.77165 0.69616
 C918 C 0.06063 0.76456 0.70545
 H919 H 0.05918 0.77314 0.73097
 Zn920 Zn -0.00044 0.75156 0.62534
 N921 N 0.03504 0.75353 0.65313
 C922 C 0.02267 0.80653 0.59624
 N923 N -0.00039 0.78527 0.59466
 C924 C -0.02292 0.78732 0.57096
 C925 C -0.02392 0.81252 0.54901
 C926 C 0.02285 0.83174 0.57453
 C927 C -0.00573 0.68742 0.61368
 C928 C -0.00483 0.66027 0.59497
 C929 C 0.01042 0.68949 0.54595
 C930 C 0.00908 0.71629 0.56572
 N931 N 0.00084 0.71485 0.59890
 H932 H 0.04057 0.80440 0.61494
 H933 H -0.04072 0.76975 0.56978
 H934 H -0.04321 0.81439 0.53204
 H935 H 0.04060 0.84921 0.57751
 H936 H -0.01167 0.68648 0.64005
 H937 H -0.01024 0.63867 0.60739
 H938 H 0.01729 0.69138 0.51986
 H939 H 0.01514 0.73819 0.55452
 C940 C 0.08871 0.75478 0.69155
 C941 C -0.08879 0.75502 0.69579
 C942 C 0.00324 0.66089 0.56054
 C943 C -0.00102 0.83554 0.55093
 C944 C 0.55744 0.77129 0.34588
 H945 H 0.55642 0.78738 0.36660
 C946 C 0.58336 0.77130 0.32514
 H947 H 0.60190 0.78742 0.33050
 C948 C 0.53595 0.72945 0.31547
 H949 H 0.51754 0.71287 0.31206
 C950 C 0.56189 0.72828 0.29435
 H951 H 0.56304 0.71031 0.27554
 N952 N 0.53432 0.75049 0.34097
 C953 C 0.44775 0.77892 0.33771
 H954 H 0.45445 0.79977 0.35052
 C955 C 0.42246 0.77970 0.31611
 H956 H 0.41005 0.80111 0.31329
 C957 C 0.45402 0.72562 0.32755
 H958 H 0.46625 0.70446 0.33239
 C959 C 0.42827 0.72520 0.30631
 H960 H 0.42084 0.70330 0.29612
 Zn961 Zn 0.49939 0.75116 0.37064
 N962 N 0.46319 0.75217 0.34303
 C963 C 0.50393 0.81466 0.38400
 N964 N 0.50227 0.78675 0.39928
 C965 C 0.50374 0.78448 0.43355
 C966 C 0.50611 0.81104 0.45374
 C967 C 0.50568 0.84154 0.40300
 C968 C 0.47558 0.70992 0.42076
 C969 C 0.47614 0.68401 0.44193
 C970 C 0.52407 0.66923 0.41590
 C971 C 0.52291 0.69553 0.39589
 N972 N 0.49889 0.71525 0.39841
 H973 H 0.50405 0.81607 0.35680
 H974 H 0.50323 0.76210 0.44541
 H975 H 0.50685 0.80856 0.48080
 H976 H 0.50600 0.86346 0.38999
 H977 H 0.45654 0.72584 0.42221
 H978 H 0.45706 0.67976 0.45893
 H979 H 0.54268 0.65334 0.41135
 H980 H 0.54118 0.69994 0.37798
 C981 C 0.41191 0.75258 0.30030
 C982 C 0.58630 0.74931 0.29921
 C983 C 0.50086 0.66326 0.44004
 C984 C 0.50695 0.84021 0.43844
 B985 B -0.01717 0.01757 1.03226
 B986 B -0.03367 0.01226 0.99364
 B987 B -0.00416 0.03832 0.99816
 B988 B 0.02124 0.02342 1.02615
 B989 B 0.00787 -0.01167 1.03820
 B990 B -0.02584 -0.01809 1.01802
 B991 B 0.01887 -0.01488 0.97005
 B992 B 0.03547 -0.00942 1.00858
 B993 B 0.00597 -0.03551 1.00426
 B994 B -0.01945 -0.02067 0.97621
 B995 B -0.00602 0.01443 0.96414
 B996 B 0.02770 0.02084 0.98421
 B997 B 0.48238 0.51808 0.53127
 B998 B 0.46601 0.51241 0.49261
 B999 B 0.49531 0.53869 0.49696
 B1000 B 0.52077 0.52410 0.52511
 B1001 B 0.50757 0.48902 0.53742
 B1002 B 0.47388 0.48229 0.51724
 B1003 B 0.51865 0.48537 0.46934
 B1004 B 0.53520 0.49122 0.50782
 B1005 B 0.50582 0.46493 0.50372
 B1006 B 0.48036 0.47943 0.47549
 B1007 B 0.49363 0.51451 0.46314
 B1008 B 0.52729 0.52125 0.48319
 B1009 B 0.51798 0.98569 0.53021
 B1010 B 0.53613 0.99157 0.49278
 B1011 B 0.50673 0.96481 0.49539
 B1012 B 0.47997 0.97920 0.52217
 B1013 B 0.49236 1.01426 0.53501
 B1014 B 0.52674 1.02199 0.51681
 B1015 B 0.48453 1.01752 0.46632
 B1016 B 0.46613 1.01202 0.50431
 B1017 B 0.49496 1.03848 0.50139
 B1018 B 0.52218 1.02405 0.47459
 B1019 B 0.51006 0.98857 0.46206
 B1020 B 0.47517 0.98191 0.48004
 B1021 B 0.01744 0.48450 1.03141
 B1022 B 0.03560 0.48850 0.99366
 B1023 B 0.00589 0.46235 0.99776
 B1024 B -0.02066 0.47814 1.02373
 B1025 B -0.00782 0.51337 1.03512
 B1026 B 0.02664 0.52002 1.01617
 B1027 B -0.01575 0.51436 0.96626
 B1028 B -0.03418 0.51030 1.00446
 B1029 B -0.00508 0.53639 1.00044
 B1030 B 0.02197 0.52070 0.97417
 B1031 B 0.00948 0.48496 0.96321
 B1032 B -0.02543 0.47923 0.98133
 B1033 B 0.01808 0.51547 0.47045
 B1034 B 0.03490 0.51027 0.50889
 B1035 B 0.00559 0.53615 0.50479
 B1036 B -0.02017 0.52106 0.47698
 B1037 B -0.00717 0.48598 0.46481
 B1038 B 0.02669 0.47989 0.48459
 B1039 B -0.01766 0.48297 0.53300
 B1040 B -0.03449 0.48818 0.49461
 B1041 B -0.00516 0.46228 0.49868
 B1042 B 0.02059 0.47737 0.52650
 B1043 B 0.00758 0.51244 0.53871
 B1044 B -0.02626 0.51855 0.51889
 B1045 B 0.51810 0.01605 -0.02961
 B1046 B 0.53523 0.01051 0.00859
 B1047 B 0.50592 0.03647 0.00505
 B1048 B 0.47992 0.02166 -0.02267
 B1049 B 0.49277 -0.01334 -0.03532
 B1050 B 0.52677 -0.01964 -0.01590
 B1051 B 0.48278 -0.01688 0.03293
 B1052 B 0.46568 -0.01135 -0.00525
 B1053 B 0.49501 -0.03731 -0.00170
 B1054 B 0.52098 -0.02249 0.02604
 B1055 B 0.50812 0.01251 0.03874
 B1056 B 0.47413 0.01883 0.01926
 B1057 B 0.48344 0.48473 -0.03255
 B1058 B 0.46480 0.48919 0.00516
 B1059 B 0.49339 0.46268 0.00162
 B1060 B 0.52100 0.47784 -0.02415
 B1061 B 0.50941 0.51339 -0.03533
 B1062 B 0.47461 0.52037 -0.01770
 B1063 B 0.51661 0.51440 0.03304
 B1064 B 0.53524 0.50991 -0.00467
 B1065 B 0.50665 0.53645 -0.00110
 B1066 B 0.47902 0.52129 0.02466
 B1067 B 0.49062 0.48578 0.03583
 B1068 B 0.52540 0.47875 0.01821
 B1069 B -0.01646 0.98431 0.46744
 B1070 B -0.03540 0.98895 0.50494
 B1071 B -0.00681 0.96241 0.50179
 B1072 B 0.02101 0.97744 0.47624
 B1073 B 0.00955 1.01292 0.46475
 B1074 B -0.02538 1.02001 0.48201
 B1075 B 0.01620 1.01425 0.53321
 B1076 B 0.03512 1.00957 0.49570
 B1077 B 0.00654 1.03623 0.49882
 B1078 B -0.02130 1.02110 0.52442
 B1079 B -0.00984 0.98562 0.53590
 B1080 B 0.02506 0.97852 0.51866
 B1081 B 0.76726 0.23154 0.22044
 B1082 B 0.76125 0.21491 0.25890
 B1083 B 0.78777 0.24409 0.25491
 B1084 B 0.77358 0.26983 0.22683
 B1085 B 0.73843 0.25695 0.21436
 B1086 B 0.73137 0.22319 0.23428
 B1087 B 0.73478 0.26781 0.28250
 B1088 B 0.74081 0.28443 0.24405
 B1089 B 0.71429 0.25525 0.24803
 B1090 B 0.72848 0.22951 0.27614
 B1091 B 0.76363 0.24239 0.28862
 B1092 B 0.77069 0.27616 0.26870
 B1093 B 0.73396 0.76843 0.71854
 B1094 B 0.73816 0.78519 0.75727
 B1095 B 0.71297 0.75505 0.75225
 B1096 B 0.72903 0.72994 0.72448
 B1097 B 0.76394 0.74421 0.71307
 B1098 B 0.76909 0.77813 0.73341
 B1099 B 0.76607 0.73328 0.78123
 B1100 B 0.76187 0.71660 0.74249
 B1101 B 0.78707 0.74673 0.74753
 B1102 B 0.77102 0.77182 0.77533
 B1103 B 0.73613 0.75756 0.78673
 B1104 B 0.73095 0.72366 0.76636
 B1105 B 0.26323 0.26954 0.77841
 B1106 B 0.25797 0.28755 0.74091
 B1107 B 0.28426 0.25815 0.74384
 B1108 B 0.26929 0.23147 0.77047
 B1109 B 0.23432 0.24387 0.78291
 B1110 B 0.22722 0.27818 0.76462
 B1111 B 0.23161 0.23572 0.71424
 B1112 B 0.23650 0.21747 0.75227
 B1113 B 0.21049 0.24628 0.74906
 B1114 B 0.22552 0.27344 0.72238
 B1115 B 0.26094 0.26132 0.71023
 B1116 B 0.26694 0.22646 0.72832
 B1117 B 0.23269 0.73223 0.28223
 B1118 B 0.23738 0.71335 0.24470
 B1119 B 0.21096 0.74208 0.24783
 B1120 B 0.22597 0.76983 0.27355
 B1121 B 0.26132 0.75818 0.28507
 B1122 B 0.26842 0.72323 0.26773
 B1123 B 0.26293 0.76507 0.21674
 B1124 B 0.25826 0.78399 0.25429
 B1125 B 0.28466 0.75517 0.25116
 B1126 B 0.26963 0.72745 0.22540
 B1127 B 0.23427 0.73909 0.21383
 B1128 B 0.22720 0.77403 0.23120
 B1129 B 0.26606 0.73285 0.71951
 B1130 B 0.26019 0.71626 0.75801
 B1131 B 0.28668 0.74544 0.75388
 B1132 B 0.27237 0.77115 0.72582
 B1133 B 0.23718 0.75824 0.71351
 B1134 B 0.23022 0.72449 0.73349
 B1135 B 0.23378 0.76915 0.78166
 B1136 B 0.23965 0.78574 0.74317
 B1137 B 0.21316 0.75655 0.74731
 B1138 B 0.22748 0.73085 0.77536
 B1139 B 0.26266 0.74377 0.78767
 B1140 B 0.26964 0.77751 0.76769
 B1141 B 0.23496 0.26538 0.21826
 B1142 B 0.23945 0.28317 0.25612
 B1143 B 0.21361 0.25317 0.25231
 B1144 B 0.22924 0.22703 0.22571
 B1145 B 0.26412 0.24037 0.21381
 B1146 B 0.27064 0.27479 0.23267
 B1147 B 0.26632 0.23203 0.28248
 B1148 B 0.26194 0.21374 0.24427
 B1149 B 0.28759 0.24321 0.24799
 B1150 B 0.27201 0.26988 0.27476
 B1151 B 0.23668 0.25670 0.28635
 B1152 B 0.23121 0.22187 0.26800
 B1153 B 0.76544 0.76725 0.27923
 B1154 B 0.76110 0.78463 0.24123
 B1155 B 0.78721 0.75523 0.24540
 B1156 B 0.77145 0.72899 0.27201
 B1157 B 0.73632 0.74170 0.28346
 B1158 B 0.72978 0.77578 0.26442
 B1159 B 0.73476 0.73268 0.21477
 B1160 B 0.73902 0.71486 0.25318
 B1161 B 0.71313 0.74369 0.24899
 B1162 B 0.72876 0.77051 0.22233
 B1163 B 0.76429 0.75802 0.21116
 B1164 B 0.76984 0.72344 0.22972
 B1165 B 0.73446 0.23285 0.78345
 B1166 B 0.73891 0.21397 0.74582
 B1167 B 0.71239 0.24258 0.74929
 B1168 B 0.72747 0.27039 0.77488
 B1169 B 0.76301 0.25894 0.78608
 B1170 B 0.77007 0.22404 0.76862
 B1171 B 0.76397 0.26591 0.71768
 B1172 B 0.75946 0.28468 0.75530
 B1173 B 0.78606 0.25610 0.75187
 B1174 B 0.77096 0.22831 0.72623
 B1175 B 0.73543 0.23980 0.71504
 B1176 B 0.72833 0.27464 0.73252
 C1177 C 0.44098 1.02777 0.36894
 C1178 C 0.44709 1.05960 0.38538
 C1179 C 0.46210 1.05798 0.41592
 C1180 C 0.46843 1.02480 0.42822
 C1181 C 0.43688 1.00805 0.42529
 C1182 C 0.42307 1.00968 0.39524
 C1183 C 0.47309 1.01329 0.36768
 C1184 C 0.48730 1.01187 0.39798
 H1185 H 0.44399 1.08128 0.37228
 H1186 H 0.47276 1.07818 0.42690
 H1187 H 0.42547 0.99558 0.44526
 H1188 H 0.40076 0.99896 0.39068
 H1189 H 0.48520 1.00796 0.34444
 H1190 H 0.51149 1.00588 0.39901
 C1191 C -0.05860 0.52482 0.86881
 C1192 C -0.05175 0.55512 0.88398
 C1193 C -0.03628 0.55297 0.91633
 C1194 C -0.03169 0.52122 0.92784
 C1195 C -0.06218 0.50644 0.92549
 C1196 C -0.07656 0.50842 0.89389
 C1197 C -0.02858 0.50981 0.86765
 C1198 C -0.01394 0.50786 0.89964
 H1199 H -0.05159 0.57644 0.86972
 H1200 H -0.02224 0.57197 0.92524
 H1201 H -0.07390 0.49422 0.94539
 H1202 H -0.09927 0.49845 0.88946
 H1203 H -0.01573 0.50585 0.84452
 H1204 H 0.01057 0.50321 0.90044
 C1205 C 0.06393 -0.02923 0.87361
 C1206 C 0.07623 -0.00265 0.89470
 C1207 C 0.06267 0.00041 0.92488
 C1208 C 0.03695 -0.02356 0.93321
 C1209 C 0.01506 -0.02165 0.90243
 C1210 C 0.02898 -0.02443 0.87182
 C1211 C 0.06728 -0.05773 0.89640
 C1212 C 0.05317 -0.05481 0.92720
 H1213 H 0.09462 0.01280 0.88658
 H1214 H 0.07043 0.01906 0.94074
 H1215 H -0.00981 -0.02007 0.90437
 H1216 H 0.01596 -0.02497 0.84851
 H1217 H 0.07738 -0.07932 0.88835
 H1218 H 0.05206 -0.07434 0.94359
 C1219 C 0.56395 0.47036 0.37315
 C1220 C 0.52902 0.47524 0.37117
 C1221 C 0.51500 0.47823 0.40171
 C1222 C 0.53679 0.47647 0.43259
 C1223 C 0.55294 0.44514 0.42687
 C1224 C 0.56715 0.44201 0.39616
 C1225 C 0.57623 0.49706 0.39409
 C1226 C 0.56256 0.50035 0.42418
 H1227 H 0.51609 0.47459 0.34781
 H1228 H 0.49012 0.47989 0.40353
 H1229 H 0.55163 0.42568 0.44334
 H1230 H 0.57716 0.42032 0.38829
 H1231 H 0.59459 0.51249 0.38587
 H1232 H 0.57011 0.51924 0.43980
 C1233 C 0.55988 0.52392 0.13057
 C1234 C 0.57805 0.50669 0.10388
 C1235 C 0.56419 0.50500 0.07381
 C1236 C 0.53248 0.52096 0.07131
 C1237 C 0.51383 0.50694 0.10119
 C1238 C 0.52803 0.50839 0.13154
 C1239 C 0.55325 0.55577 0.11481
 C1240 C 0.53833 0.55412 0.08426
 H1241 H 0.60038 0.49629 0.10831
 H1242 H 0.57541 0.49263 0.05370
 H1243 H 0.48986 0.49981 0.09992
 H1244 H 0.51619 0.50202 0.15465
 H1245 H 0.55596 0.57737 0.12834
 H1246 H 0.52743 0.57414 0.07357
 C1247 C 0.05889 1.02435 0.63101
 C1248 C 0.05197 1.05607 0.61516
 C1249 C 0.03718 1.05421 0.58455
 C1250 C 0.03179 1.02098 0.57160
 C1251 C 0.06364 1.00534 0.57434
 C1252 C 0.07736 1.00726 0.60447
 C1253 C 0.02720 1.00846 0.63184
 C1254 C 0.01315 1.00678 0.60140
 H1255 H 0.05403 1.07767 0.62884
 H1256 H 0.02552 1.07399 0.57432
 H1257 H 0.07489 0.99270 0.55450
 H1258 H 0.09967 0.99691 0.60912
 H1259 H 0.01531 1.00202 0.65490
 H1260 H -0.01072 0.99937 0.60002
 C1261 C -0.06323 0.46949 0.62932
 C1262 C -0.07552 0.49537 0.60765
 C1263 C -0.06174 0.49815 0.57762
 C1264 C -0.03585 0.47453 0.56988
 C1265 C -0.01417 0.47744 0.60078
 C1266 C -0.02831 0.47501 0.63132
 C1267 C -0.06628 0.44047 0.60705
 C1268 C -0.05192 0.44306 0.57632
 H1269 H -0.09393 0.51073 0.61537
 H1270 H -0.06924 0.51665 0.56170
 H1271 H 0.01071 0.47938 0.59900
 H1272 H -0.01546 0.47512 0.65475
 H1273 H -0.07638 0.41887 0.61544
 H1274 H -0.05049 0.42325 0.56026
 C1275 C 0.43747 -0.03180 0.12922
 C1276 C 0.42538 -0.00532 0.10827
 C1277 C 0.43910 -0.00203 0.07825
 C1278 C 0.46473 -0.02574 0.06980
 C1279 C 0.48653 -0.02360 0.10064
 C1280 C 0.47247 -0.02661 0.13120
 C1281 C 0.43412 -0.06029 0.10626
 C1282 C 0.44842 -0.05720 0.07558
 H1283 H 0.40725 0.01014 0.11656
 H1284 H 0.43186 0.01699 0.06290
 H1285 H 0.51141 -0.02172 0.09876
 H1286 H 0.48541 -0.02710 0.15455
 H1287 H 0.42398 -0.08201 0.11423
 H1288 H 0.44979 -0.07677 0.05919
 C1289 C 0.37063 0.46299 0.02283
 C1290 C 0.38656 0.44604 -0.00595
 C1291 C 0.41598 0.45475 -0.01115
 C1292 C 0.42829 0.47970 0.01273
 C1293 C 0.40485 0.50618 0.00943
 C1294 C 0.37488 0.49751 0.01460
 C1295 C 0.39152 0.45812 0.05358
 C1296 C 0.42141 0.46687 0.04836
 H1297 H 0.37506 0.42947 -0.02230
 H1298 H 0.42803 0.44620 -0.03255
 H1299 H 0.41126 0.52999 0.00454
 H1300 H 0.35618 0.51397 0.01433
 H1301 H 0.38318 0.45172 0.07839
 H1302 H 0.43745 0.46793 0.06916
 C1303 C -0.12982 0.96340 0.52187
 C1304 C -0.11378 0.94616 0.49336
 C1305 C -0.08426 0.95463 0.48838
 C1306 C -0.07199 0.97965 0.51220
 C1307 C -0.09523 1.00627 0.50849
 C1308 C -0.12529 0.99783 0.51344
 C1309 C -0.10921 0.95858 0.55286
 C1310 C -0.07922 0.96709 0.54785
 H1311 H -0.12527 0.92958 0.47702
 H1312 H -0.07209 0.94590 0.46713
 H1313 H -0.08864 1.03001 0.50350
 H1314 H -0.14387 1.01442 0.51288
 H1315 H -0.11777 0.95241 0.57765
 H1316 H -0.06334 0.96817 0.56879
 C1317 C -0.12864 0.03534 0.97939
 C1318 C -0.12390 0.00612 0.99684
 C1319 C -0.09227 -0.00176 1.00054
 C1320 C -0.07055 0.02082 0.98620
 C1321 C -0.08038 0.02303 0.95092
 C1322 C -0.11248 0.03113 0.94705
 C1323 C -0.11044 0.05816 0.99760
 C1324 C -0.07895 0.05044 1.00073
 H1325 H -0.14185 -0.01116 1.00037
 H1326 H -0.08638 -0.02544 1.00621
 H1327 H -0.06602 0.01667 0.92962
 H1328 H -0.12378 0.03076 0.92270
 H1329 H -0.11845 0.08129 1.00338
 H1330 H -0.06269 0.06859 1.00558
 C1331 C 0.37098 0.53506 0.47777
 C1332 C 0.39018 0.55918 0.49645
 C1333 C 0.42017 0.55199 0.49949
 C1334 C 0.42938 0.52069 0.48485
 C1335 C 0.40630 0.49714 0.49994
 C1336 C 0.37622 0.50464 0.49648
 C1337 C 0.38822 0.53033 0.44400
 C1338 C 0.41871 0.52264 0.44776
 H1339 H 0.38167 0.58190 0.50311
 H1340 H 0.43639 0.56962 0.50624
 H1341 H 0.41242 0.47404 0.50767
 H1342 H 0.35801 0.48817 0.50222
 H1343 H 0.37726 0.53139 0.41951
 H1344 H 0.43340 0.51735 0.42640
 C1345 C 0.13013 0.53451 0.52219
 C1346 C 0.11078 0.55781 0.50304
 C1347 C 0.08083 0.54999 0.50023
 C1348 C 0.07173 0.51897 0.51592
 C1349 C 0.09474 0.49539 0.50128
 C1350 C 0.12487 0.50354 0.50423
 C1351 C 0.11315 0.53024 0.55618
 C1352 C 0.08273 0.52184 0.55285
 H1353 H 0.11930 0.58033 0.49529
 H1354 H 0.06455 0.56686 0.49214
 H1355 H 0.08856 0.47202 0.49412
 H1356 H 0.14315 0.48740 0.49851
 H1357 H 0.12430 0.53177 0.58055
 H1358 H 0.06831 0.51645 0.57445
 C1359 C 0.63073 0.03416 0.02140
 C1360 C 0.61138 0.05781 0.00275
 C1361 C 0.58138 0.05014 -0.00003
 C1362 C 0.57220 0.01897 0.01527
 C1363 C 0.59503 -0.00449 0.00002
 C1364 C 0.62522 0.00347 0.00293
 C1365 C 0.61391 0.02948 0.05541
 C1366 C 0.58344 0.02127 0.05215
 H1367 H 0.61999 0.08035 -0.00479
 H1368 H 0.56516 0.06715 -0.00793
 H1369 H 0.58869 -0.02769 -0.00762
 H1370 H 0.64340 -0.01265 -0.00326
 H1371 H 0.62519 0.03065 0.07973
 H1372 H 0.56910 0.01574 0.07377
 C1373 C 0.63139 0.96872 0.47977
 C1374 C 0.61180 0.94482 0.49829
 C1375 C 0.58194 0.95240 0.50148
 C1376 C 0.57310 0.98364 0.48649
 C1377 C 0.59610 1.00702 0.50202
 C1378 C 0.62628 0.99918 0.49881
 C1379 C 0.61468 0.97379 0.44598
 C1380 C 0.58439 0.98189 0.44953
 H1381 H 0.62021 0.92233 0.50581
 H1382 H 0.56561 0.93542 0.50982
 H1383 H 0.58988 1.03003 0.51014
 H1384 H 0.64462 1.01529 0.50512
 H1385 H 0.62597 0.97296 0.42159
 H1386 H 0.57018 0.98764 0.42802
 C1387 C 0.13169 0.46692 0.98258
 C1388 C 0.11747 0.47967 0.94987
 C1389 C 0.08670 0.48661 0.95270
 C1390 C 0.07270 0.48015 0.98794
 C1391 C 0.08086 0.44625 0.99378
 C1392 C 0.11106 0.43956 0.99179
 C1393 C 0.12449 0.49188 1.00890
 C1394 C 0.09418 0.49851 1.01180
 H1395 H 0.13041 0.48324 0.92677
 H1396 H 0.07363 0.49578 0.93177
 H1397 H 0.06460 0.42790 0.99680
 H1398 H 0.11932 0.41609 0.99432
 H1399 H 0.14161 0.50639 1.02105
 H1400 H 0.08710 0.51798 1.02699
 C1401 C -0.00406 0.36818 0.46163
 C1402 C 0.02682 0.38513 0.45882
 C1403 C 0.02682 0.41391 0.47200
 C1404 C -0.00462 0.42466 0.48695
 C1405 C -0.02759 0.41827 0.45804
 C1406 C -0.02758 0.38941 0.44552
 C1407 C -0.01145 0.36960 0.49981
 C1408 C -0.01121 0.39904 0.51295
 H1409 H 0.04782 0.37435 0.44986
 H1410 H 0.04861 0.42600 0.47466
 H1411 H -0.04209 0.43531 0.44670
 H1412 H -0.04264 0.38252 0.42498
 H1413 H -0.01240 0.34959 0.51608
 H1414 H -0.00984 0.40279 0.53982
 C1415 C 0.49580 -0.13115 -0.03947
 C1416 C 0.52673 -0.11427 -0.04228
 C1417 C 0.52684 -0.08556 -0.02891
 C1418 C 0.49547 -0.07482 -0.01377
 C1419 C 0.47240 -0.08097 -0.04265
 C1420 C 0.47231 -0.10977 -0.05538
 C1421 C 0.48855 -0.12993 -0.00126
 C1422 C 0.48893 -0.10058 0.01208
 H1423 H 0.54767 -0.12505 -0.05139
 H1424 H 0.54866 -0.07352 -0.02626
 H1425 H 0.45786 -0.06383 -0.05377
 H1426 H 0.45718 -0.11650 -0.07591
 H1427 H 0.48775 -0.15002 0.01490
 H1428 H 0.49058 -0.09702 0.03897
 C1429 C 0.00414 -0.12965 1.04081
 C1430 C -0.02685 -0.11318 1.04298
 C1431 C -0.02660 -0.08432 1.03004
 C1432 C 0.00510 -0.07312 1.01587
 C1433 C 0.02751 -0.07919 1.04528
 C1434 C 0.02724 -0.10807 1.05765
 C1435 C 0.01222 -0.12806 1.00282
 C1436 C 0.01213 -0.09862 0.98986
 H1437 H -0.04801 -0.12429 1.05140
 H1438 H -0.04828 -0.07243 1.02708
 H1439 H 0.04185 -0.06194 1.05700
 H1440 H 0.04184 -0.11475 1.07855
 H1441 H 0.01314 -0.14803 0.98641
 H1442 H 0.01088 -0.09492 0.96299
 C1443 C 0.50493 0.37110 0.54135
 C1444 C 0.47386 0.38741 0.54379
 C1445 C 0.47378 0.41617 0.53055
 C1446 C 0.50524 0.42743 0.51580
 C1447 C 0.52798 0.42176 0.54502
 C1448 C 0.52809 0.39299 0.55765
 C1449 C 0.51257 0.37241 0.50325
 C1450 C 0.51213 0.40173 0.48998
 H1451 H 0.45289 0.37627 0.55270
 H1452 H 0.45200 0.42795 0.52786
 H1453 H 0.54210 0.43925 0.55660
 H1454 H 0.54288 0.38664 0.57851
 H1455 H 0.51346 0.35230 0.48704
 H1456 H 0.51055 0.40518 0.46309
 C1457 C 0.49770 1.13342 0.53650
 C1458 C 0.47362 1.12881 0.50837
 C1459 C 0.47187 1.09925 0.49617
 C1460 C 0.49418 1.07627 0.51280
 C1461 C 0.52591 1.09251 0.50824
 C1462 C 0.52770 1.12181 0.52056
 C1463 C 0.48908 1.10946 0.56284
 C1464 C 0.48720 1.08043 0.55105
 H1465 H 0.46061 1.14725 0.49694
 H1466 H 0.45726 1.09430 0.47520
 H1467 H 0.54528 1.08238 0.49504
 H1468 H 0.54830 1.13594 0.51780
 H1469 H 0.48416 1.11497 0.58902
 H1470 H 0.48064 1.06251 0.56851
 C1471 C -0.00142 0.63210 1.03344
 C1472 C -0.02406 0.62781 1.00383
 C1473 C -0.02614 0.59807 0.99204
 C1474 C -0.00558 0.57462 1.01063
 C1475 C 0.02683 0.58983 1.00783
 C1476 C 0.02895 0.61924 1.01970
 C1477 C -0.01232 0.60890 1.05957
 C1478 C -0.01462 0.57976 1.04819
 H1479 H -0.03582 0.64654 0.99136
 H1480 H -0.03976 0.59327 0.97020
 H1481 H 0.04645 0.57903 0.99574
 H1482 H 0.05004 0.63272 1.01776
 H1483 H -0.01880 0.61506 1.08517
 H1484 H -0.02332 0.56250 1.06531
 C1485 C 0.50405 0.63206 -0.03330
 C1486 C 0.52828 0.62741 -0.00538
 C1487 C 0.53016 0.59763 0.00607
 C1488 C 0.50781 0.57457 -0.01113
 C1489 C 0.47609 0.59025 -0.00600
 C1490 C 0.47417 0.61968 -0.01754
 C1491 C 0.51274 0.60876 -0.06026
 C1492 C 0.51479 0.57960 -0.04925
 H1493 H 0.54143 0.64590 0.00622
 H1494 H 0.54503 0.59249 0.02672
 H1495 H 0.45682 0.57970 0.00721
 H1496 H 0.45360 0.63345 -0.01418
 H1497 H 0.51795 0.61487 -0.08621
 H1498 H 0.52194 0.56228 -0.06712
 C1499 C 0.00439 1.13182 0.46659
 C1500 C 0.02731 1.12751 0.49339
 C1501 C 0.02911 1.09603 0.50526
 C1502 C 0.00775 1.07458 0.48855
 C1503 C -0.02243 1.08935 0.49345
 C1504 C -0.02426 1.12034 0.48147
 C1505 C 0.01275 1.10968 0.44080
 C1506 C 0.01471 1.07908 0.45244
 H1507 H 0.03838 1.14611 0.50717
 H1508 H 0.04220 1.09105 0.52732
 H1509 H -0.04121 1.07949 0.50805
 H1510 H -0.04424 1.13464 0.48637
 H1511 H 0.01991 1.11586 0.41539
 H1512 H 0.02439 1.06231 0.43543
 C1513 C 0.77966 0.68739 0.87714
 C1514 C 0.77499 0.72241 0.87948
 C1515 C 0.77233 0.73664 0.84905
 C1516 C 0.77426 0.71497 0.81798
 C1517 C 0.80532 0.69846 0.82367
 C1518 C 0.80812 0.68410 0.85422
 C1519 C 0.75307 0.67542 0.85597
 C1520 C 0.75010 0.68930 0.82604
 H1521 H 0.77534 0.73521 0.90301
 H1522 H 0.77057 0.76154 0.84742
 H1523 H 0.82472 0.69920 0.80708
 H1524 H 0.82958 0.67367 0.86193
 H1525 H 0.73743 0.65713 0.86393
 H1526 H 0.73123 0.68192 0.81036
 C1527 C 0.27741 0.18913 0.37999
 C1528 C 0.26201 0.22084 0.38111
 C1529 C 0.26017 0.23489 0.35074
 C1530 C 0.27369 0.21626 0.32063
 C1531 C 0.30699 0.21098 0.33299
 C1532 C 0.30902 0.19612 0.36356
 C1533 C 0.25984 0.17059 0.35376
 C1534 C 0.25781 0.18427 0.32363
 H1535 H 0.25631 0.23288 0.40428
 H1536 H 0.25342 0.25889 0.34957
 H1537 H 0.32681 0.22246 0.32217
 H1538 H 0.33073 0.19386 0.37676
 H1539 H 0.24973 0.14800 0.35847
 H1540 H 0.24561 0.17254 0.30365
 C1541 C 0.72057 0.31387 0.37851
 C1542 C 0.69209 0.31698 0.35570
 C1543 C 0.69499 0.30253 0.32508
 C1544 C 0.72619 0.28623 0.31922
 C1545 C 0.75015 0.31205 0.32723
 C1546 C 0.74708 0.32598 0.35719
 C1547 C 0.72542 0.27891 0.38073
 C1548 C 0.72814 0.26464 0.35028
 H1549 H 0.67054 0.32725 0.36354
 H1550 H 0.67554 0.30140 0.30863
 H1551 H 0.76902 0.31940 0.31149
 H1552 H 0.76260 0.34439 0.36509
 H1553 H 0.72502 0.26616 0.40423
 H1554 H 0.72976 0.23973 0.34865
 C1555 C 0.22020 0.81493 0.87791
 C1556 C 0.19161 0.81827 0.85530
 C1557 C 0.19428 0.80394 0.82458
 C1558 C 0.22537 0.78751 0.81846
 C1559 C 0.24947 0.81322 0.82643
 C1560 C 0.24663 0.82702 0.85648
 C1561 C 0.22489 0.77994 0.87993
 C1562 C 0.22737 0.76579 0.84941
 H1563 H 0.17018 0.82870 0.86330
 H1564 H 0.17477 0.80305 0.80818
 H1565 H 0.26816 0.82070 0.81052
 H1566 H 0.26221 0.84541 0.86431
 H1567 H 0.22454 0.76709 0.90337
 H1568 H 0.22883 0.74087 0.84766
 C1569 C 0.27315 0.80775 0.11887
 C1570 C 0.30487 0.80197 0.13543
 C1571 C 0.30305 0.78736 0.16618
 C1572 C 0.26984 0.78075 0.17844
 C1573 C 0.25318 0.81210 0.17527
 C1574 C 0.25507 0.82576 0.14511
 C1575 C 0.25851 0.77537 0.11802
 C1576 C 0.25686 0.76144 0.14853
 H1577 H 0.32671 0.80532 0.12257
 H1578 H 0.32322 0.77795 0.17817
 H1579 H 0.24076 0.82353 0.19525
 H1580 H 0.24453 0.84801 0.14043
 H1581 H 0.25285 0.76308 0.09496
 H1582 H 0.25028 0.73731 0.15003
 C1583 C 0.77283 0.30896 0.61977
 C1584 C 0.75771 0.27680 0.61913
 C1585 C 0.75649 0.26277 0.64960
 C1586 C 0.77038 0.28175 0.67930
 C1587 C 0.80339 0.28788 0.66619
 C1588 C 0.80479 0.30262 0.63548
 C1589 C 0.75558 0.32712 0.64654
 C1590 C 0.75415 0.31334 0.67669
 H1591 H 0.75146 0.26466 0.59616
 H1592 H 0.74972 0.23869 0.65104
 H1593 H 0.82354 0.27730 0.67695
 H1594 H 0.82635 0.30524 0.62188
 H1595 H 0.74504 0.34942 0.64216
 H1596 H 0.74191 0.32462 0.69683
 C1597 C 0.22127 0.19148 0.61705
 C1598 C 0.23619 0.22363 0.61572
 C1599 C 0.23768 0.23807 0.64599
 C1600 C 0.22437 0.21937 0.67620
 C1601 C 0.19119 0.21293 0.66381
 C1602 C 0.18949 0.19769 0.63331
 C1603 C 0.23900 0.17375 0.64348
 C1604 C 0.24069 0.18778 0.67348
 H1605 H 0.24178 0.23558 0.59247
 H1606 H 0.24404 0.26228 0.64700
 H1607 H 0.17111 0.22362 0.67473
 H1608 H 0.16785 0.19446 0.62014
 H1609 H 0.24941 0.15138 0.63904
 H1610 H 0.25290 0.17650 0.69356
 C1611 C 0.72453 0.68911 0.11732
 C1612 C 0.69415 0.69508 0.13251
 C1613 C 0.69606 0.71077 0.16489
 C1614 C 0.72772 0.71633 0.17640
 C1615 C 0.74285 0.68619 0.17401
 C1616 C 0.74116 0.67169 0.14235
 C1617 C 0.73901 0.71961 0.11620
 C1618 C 0.74071 0.73440 0.14817
 H1619 H 0.67288 0.69457 0.11821
 H1620 H 0.67692 0.72447 0.17362
 H1621 H 0.75436 0.67442 0.19421
 H1622 H 0.75096 0.64898 0.13806
 H1623 H 0.74256 0.73260 0.09311
 H1624 H 0.74472 0.75912 0.14892
 C1625 C 0.21155 0.61884 0.22715
 C1626 C 0.20625 0.63987 0.19658
 C1627 C 0.21479 0.66983 0.20182
 C1628 C 0.22792 0.67670 0.23730
 C1629 C 0.20332 0.66407 0.26145
 C1630 C 0.19480 0.63454 0.25623
 C1631 C 0.24608 0.62334 0.23500
 C1632 C 0.25456 0.65339 0.24024
 H1633 H 0.19947 0.63158 0.17186
 H1634 H 0.21528 0.68604 0.18114
 H1635 H 0.19483 0.67600 0.28296
 H1636 H 0.17850 0.62282 0.27271
 H1637 H 0.26270 0.60477 0.23498
 H1638 H 0.27833 0.65995 0.24498
 C1639 C 0.71245 0.11955 0.72901
 C1640 C 0.70825 0.13904 0.69926
 C1641 C 0.71743 0.17058 0.70454
 C1642 C 0.72928 0.17708 0.73851
 C1643 C 0.70524 0.16597 0.76116
 C1644 C 0.69600 0.13499 0.75607
 C1645 C 0.74527 0.12332 0.73707
 C1646 C 0.75444 0.15492 0.74230
 H1647 H 0.70427 0.13015 0.67405
 H1648 H 0.72058 0.18582 0.68319
 H1649 H 0.69729 0.17794 0.78291
 H1650 H 0.67968 0.12365 0.77289
 H1651 H 0.76197 0.10483 0.73589
 H1652 H 0.77840 0.16140 0.74593
 C1653 C 0.78337 0.11950 0.27288
 C1654 C 0.75300 0.12486 0.25415
 C1655 C 0.74552 0.15506 0.25092
 C1656 C 0.76912 0.17802 0.26616
 C1657 C 0.77090 0.16705 0.30316
 C1658 C 0.77861 0.13655 0.30673
 C1659 C 0.80747 0.13876 0.25426
 C1660 C 0.80030 0.16876 0.25127
 H1661 H 0.73660 0.10666 0.24817
 H1662 H 0.72250 0.16133 0.24315
 H1663 H 0.76544 0.18158 0.32462
 H1664 H 0.77949 0.12541 0.33114
 H1665 H 0.83002 0.13016 0.24712
 H1666 H 0.81773 0.18493 0.24379
 C1667 C 0.28235 0.62096 0.77257
 C1668 C 0.27753 0.63820 0.80628
 C1669 C 0.26981 0.66866 0.80248
 C1670 C 0.26807 0.67942 0.76540
 C1671 C 0.29926 0.67009 0.75059
 C1672 C 0.30646 0.64012 0.75384
 C1673 C 0.25199 0.62619 0.75375
 C1674 C 0.24451 0.65637 0.75027
 H1675 H 0.27838 0.62720 0.83078
 H1676 H 0.26430 0.68330 0.82384
 H1677 H 0.31667 0.68621 0.74293
 H1678 H 0.32900 0.63148 0.74676
 H1679 H 0.23562 0.60795 0.74786
 H1680 H 0.22150 0.66259 0.74238
 C1681 C 0.28178 0.38324 0.72953
 C1682 C 0.30501 0.36367 0.74859
 C1683 C 0.29718 0.33368 0.75109
 C1684 C 0.26638 0.32463 0.73496
 C1685 C 0.24264 0.34735 0.74982
 C1686 C 0.25064 0.37762 0.74725
 C1687 C 0.27760 0.36659 0.69531
 C1688 C 0.26930 0.33613 0.69822
 H1689 H 0.32741 0.37212 0.75677
 H1690 H 0.31393 0.31738 0.75942
 H1691 H 0.21937 0.34086 0.75700
 H1692 H 0.23442 0.39577 0.75324
 H1693 H 0.27874 0.37801 0.67105
 H1694 H 0.26392 0.32200 0.67639
 C1695 C 0.78597 0.87969 0.22796
 C1696 C 0.75481 0.87457 0.24552
 C1697 C 0.74657 0.84446 0.24859
 C1698 C 0.77020 0.82134 0.23434
 C1699 C 0.77370 0.83213 0.19738
 C1700 C 0.78212 0.86257 0.19400
 C1701 C 0.80898 0.86033 0.24752
 C1702 C 0.80105 0.83036 0.25031
 H1703 H 0.73871 0.89296 0.25102
 H1704 H 0.72318 0.83831 0.25563
 H1705 H 0.76881 0.81758 0.17575
 H1706 H 0.78409 0.87360 0.16958
 H1707 H 0.83152 0.86875 0.25523
 H1708 H 0.81795 0.81406 0.25811
 C1709 C 0.71330 0.88017 0.77091
 C1710 C 0.68960 0.86016 0.75253
 C1711 C 0.69737 0.83020 0.74991
 C1712 C 0.72880 0.82180 0.76455
 C1713 C 0.75190 0.84512 0.74907
 C1714 C 0.74396 0.87511 0.75233
 C1715 C 0.71829 0.86343 0.80490
 C1716 C 0.72651 0.83299 0.80149
 H1717 H 0.66669 0.86805 0.74598
 H1718 H 0.67996 0.81352 0.74383
 H1719 H 0.77508 0.83938 0.74122
 H1720 H 0.76030 0.89342 0.74651
 H1721 H 0.71702 0.87468 0.82929
 H1722 H 0.73186 0.81864 0.82302
 C1723 C 0.21463 0.37797 0.26973
 C1724 C 0.24492 0.37315 0.25041
 C1725 C 0.25304 0.34313 0.24708
 C1726 C 0.23027 0.31977 0.26299
 C1727 C 0.22846 0.33097 0.29998
 C1728 C 0.22015 0.36131 0.30354
 C1729 C 0.19078 0.35795 0.25168
 C1730 C 0.19863 0.32804 0.24881
 H1731 H 0.26107 0.39155 0.24439
 H1732 H 0.27615 0.33738 0.23898
 H1733 H 0.23404 0.31666 0.32147
 H1734 H 0.21886 0.37257 0.32793
 H1735 H 0.16784 0.36585 0.24531
 H1736 H 0.18128 0.31136 0.24258
 C1737 C 0.11536 0.24907 0.78320
 C1738 C 0.12000 0.22455 0.75542
 C1739 C 0.14962 0.22277 0.74355
 C1740 C 0.17262 0.24551 0.76011
 C1741 C 0.15673 0.27711 0.75499
 C1742 C 0.12737 0.27893 0.76700
 C1743 C 0.13899 0.24096 0.80987
 C1744 C 0.16807 0.23908 0.79840
 H1745 H 0.10157 0.21121 0.74403
 H1746 H 0.15467 0.20776 0.72291
 H1747 H 0.16717 0.29636 0.74169
 H1748 H 0.11348 0.29943 0.76389
 H1749 H 0.13323 0.23642 0.83606
 H1750 H 0.18575 0.23295 0.81617
 C1751 C 0.61765 0.74617 0.28213
 C1752 C 0.62186 0.72340 0.25258
 C1753 C 0.65155 0.72169 0.24075
 C1754 C 0.67502 0.74273 0.25927
 C1755 C 0.65988 0.77493 0.25646
 C1756 C 0.63052 0.77668 0.26837
 C1757 C 0.64086 0.73565 0.30822
 C1758 C 0.66997 0.73383 0.29684
 H1759 H 0.60321 0.71100 0.24037
 H1760 H 0.65637 0.70776 0.21914
 H1761 H 0.67071 0.79469 0.24444
 H1762 H 0.61710 0.79764 0.26657
 H1763 H 0.63475 0.72924 0.33385
 H1764 H 0.68730 0.72581 0.31404
 C1765 C 0.62061 0.25485 0.21045
 C1766 C 0.64267 0.27765 0.19386
 C1767 C 0.67137 0.27748 0.20656
 C1768 C 0.67683 0.25493 0.23603
 C1769 C 0.65121 0.26230 0.26175
 C1770 C 0.62194 0.26287 0.24846
 C1771 C 0.63660 0.22357 0.20845
 C1772 C 0.66531 0.22338 0.22171
 H1773 H 0.63644 0.29234 0.17285
 H1774 H 0.68893 0.29151 0.19495
 H1775 H 0.65457 0.26077 0.28865
 H1776 H 0.60184 0.26394 0.26465
 H1777 H 0.62527 0.20256 0.19994
 H1778 H 0.67682 0.20149 0.22484
 C1779 C 0.11928 0.75572 0.71031
 C1780 C 0.12075 0.76405 0.74823
 C1781 C 0.15009 0.76368 0.76139
 C1782 C 0.17562 0.75616 0.73560
 C1783 C 0.16410 0.72447 0.72165
 C1784 C 0.13536 0.72448 0.70854
 C1785 C 0.14122 0.77847 0.69341
 C1786 C 0.16998 0.77850 0.70599
 H1787 H 0.10070 0.76529 0.76449
 H1788 H 0.15359 0.76247 0.78829
 H1789 H 0.17563 0.70261 0.72500
 H1790 H 0.12403 0.70336 0.70034
 H1791 H 0.13482 0.79308 0.67240
 H1792 H 0.18741 0.79268 0.69436
 C1793 C 0.88155 0.75297 0.71237
 C1794 C 0.87984 0.74171 0.74936
 C1795 C 0.85034 0.74024 0.76223
 C1796 C 0.82490 0.74885 0.73691
 C1797 C 0.83560 0.78183 0.72645
 C1798 C 0.86454 0.78383 0.71385
 C1799 C 0.86049 0.73112 0.69294
 C1800 C 0.83169 0.72889 0.70542
 H1801 H 0.89987 0.74006 0.76554
 H1802 H 0.84662 0.73973 0.78912
 H1803 H 0.82366 0.80290 0.73297
 H1804 H 0.87556 0.80610 0.70990
 H1805 H 0.86774 0.71798 0.67101
 H1806 H 0.81521 0.71377 0.69336
 C1807 C 0.38291 0.24802 0.21469
 C1808 C 0.37046 0.27775 0.23050
 C1809 C 0.34104 0.27530 0.24228
 C1810 C 0.32553 0.24325 0.23729
 C1811 C 0.33043 0.23651 0.19910
 C1812 C 0.35958 0.23898 0.18788
 C1813 C 0.37832 0.22367 0.24261
 C1814 C 0.34864 0.22126 0.25420
 H1815 H 0.38409 0.29865 0.23349
 H1816 H 0.33029 0.29444 0.25532
 H1817 H 0.31299 0.22958 0.18126
 H1818 H 0.36560 0.23415 0.16181
 H1819 H 0.39669 0.21062 0.25406
 H1820 H 0.34354 0.20599 0.27458
 C1821 C 0.38007 0.75283 0.28400
 C1822 C 0.37459 0.77887 0.25841
 C1823 C 0.34495 0.78054 0.24676
 C1824 C 0.32262 0.75623 0.26171
 C1825 C 0.33932 0.72549 0.25389
 C1826 C 0.36885 0.72367 0.26541
 C1827 C 0.35628 0.75812 0.31150
 C1828 C 0.32719 0.76029 0.30044
 H1829 H 0.39288 0.79360 0.24874
 H1830 H 0.33959 0.79633 0.22698
 H1831 H 0.32948 0.70713 0.23865
 H1832 H 0.38320 0.70416 0.25912
 H1833 H 0.36193 0.76076 0.33801
 H1834 H 0.30958 0.76549 0.31884
 C1835 C 0.88158 0.25380 0.78434
 C1836 C 0.85822 0.26234 0.81126
 C1837 C 0.82909 0.26433 0.80018
 C1838 C 0.82415 0.25736 0.76203
 C1839 C 0.84713 0.27981 0.74487
 C1840 C 0.87687 0.27804 0.75640
 C1841 C 0.86935 0.22385 0.76852
 C1842 C 0.83995 0.22566 0.75693
 H1843 H 0.86425 0.26750 0.83723
 H1844 H 0.81174 0.27146 0.81801
 H1845 H 0.84198 0.29454 0.72407
 H1846 H 0.89536 0.29116 0.74474
 H1847 H 0.88320 0.20333 0.76511
 H1848 H 0.82950 0.20636 0.74368
 C1849 C 0.56071 0.97138 0.62758
 C1850 C 0.52593 0.97754 0.62888
 C1851 C 0.51257 0.98035 0.59803
 C1852 C 0.53485 0.97712 0.56759
 C1853 C 0.56124 1.00028 0.57594
 C1854 C 0.57427 0.99716 0.60629
 C1855 C 0.56327 0.94240 0.60521
 C1856 C 0.54971 0.94536 0.57422
 H1857 H 0.51256 0.97780 0.65202
 H1858 H 0.48781 0.98276 0.59573
 H1859 H 0.56932 1.01888 0.56032
 H1860 H 0.59279 1.01234 0.61462
 H1861 H 0.57229 0.92053 0.61375
 H1862 H 0.54779 0.92561 0.55808
 C1863 C 0.06272 0.46859 1.12654
 C1864 C 0.02925 0.46313 1.12812
 C1865 C 0.01390 0.46762 1.09626
 C1866 C 0.03469 0.47664 1.06868
 C1867 C 0.05109 0.50395 1.08224
 C1868 C 0.06641 0.49936 1.11296
 C1869 C 0.07314 0.44772 1.09992
 C1870 C 0.05779 0.45226 1.06840
 H1871 H 0.01728 0.45406 1.15005
 H1872 H -0.01044 0.46264 1.09302
 H1873 H 0.04889 0.52755 1.07384
 H1874 H 0.07724 0.51849 1.12632
 H1875 H 0.08587 0.42671 1.10465
 H1876 H 0.05844 0.43409 1.05028
 C1877 C -0.06359 0.03075 1.12828
 C1878 C -0.02849 0.02679 1.13034
 C1879 C -0.01427 0.02434 1.09987
 C1880 C -0.03591 0.02579 1.06888
 C1881 C -0.06127 0.00130 1.07686
 C1882 C -0.07515 0.00397 1.10689
 C1883 C -0.06730 0.05925 1.10538
 C1884 C -0.05298 0.05658 1.07466
 H1885 H -0.01561 0.02766 1.15374
 H1886 H 0.01065 0.02333 1.09815
 H1887 H -0.06917 -0.01694 1.06048
 H1888 H -0.09367 -0.01158 1.11442
 H1889 H -0.07833 0.08053 1.11290
 H1890 H -0.05342 0.07555 1.05751
 C1891 C 0.43575 0.53086 0.62736
 C1892 C 0.42409 0.50437 0.60573
 C1893 C 0.43808 0.50179 0.57576
 C1894 C 0.46362 0.52620 0.56803
 C1895 C 0.44676 0.55708 0.57413
 C1896 C 0.43225 0.55951 0.60478
 C1897 C 0.47074 0.52651 0.62959
 C1898 C 0.48511 0.52432 0.59914
 H1899 H 0.40569 0.48868 0.61328
 H1900 H 0.43059 0.48327 0.55961
 H1901 H 0.44693 0.57641 0.55749
 H1902 H 0.42122 0.58070 0.61258
 H1903 H 0.48340 0.52683 0.65313
 H1904 H 0.51002 0.52306 0.59755
 C1905 C 0.44046 0.47531 -0.13025
 C1906 C 0.47236 0.49072 -0.13109
 C1907 C 0.48646 0.49212 -0.10069
 C1908 C 0.46766 0.47817 -0.07086
 C1909 C 0.43600 0.49423 -0.07347
 C1910 C 0.42225 0.49260 -0.10362
 C1911 C 0.44693 0.44343 -0.11445
 C1912 C 0.46174 0.44502 -0.08382
 H1913 H 0.48432 0.49701 -0.15415
 H1914 H 0.51046 0.49912 -0.09934
 H1915 H 0.42465 0.50642 -0.05330
 H1916 H 0.39992 0.50297 -0.10811
 H1917 H 0.44403 0.42181 -0.12791
 H1918 H 0.47225 0.42491 -0.07285
 C1919 C -0.05856 0.97456 0.36936
 C1920 C -0.02666 0.98995 0.36877
 C1921 C -0.01282 0.99143 0.39931
 C1922 C -0.03190 0.97760 0.42900
 C1923 C -0.06352 0.99367 0.42600
 C1924 C -0.07700 0.99195 0.39572
 C1925 C -0.05226 0.94273 0.38534
 C1926 C -0.03773 0.94442 0.41612
 H1927 H -0.01451 0.99617 0.34580
 H1928 H 0.01118 0.99840 0.40087
 H1929 H -0.07504 1.00594 0.44599
 H1930 H -0.09928 1.00230 0.39096
 H1931 H -0.05495 0.92108 0.37190
 H1932 H -0.02718 0.92436 0.42716
 C1933 C 0.06326 0.52771 0.37361
 C1934 C 0.02845 0.52170 0.37201
 C1935 C 0.01449 0.51986 0.40264
 C1936 C 0.03622 0.52369 0.43339
 C1937 C 0.06245 0.50033 0.42618
 C1938 C 0.07609 0.50261 0.39604
 C1939 C 0.06610 0.55728 0.39508
 C1940 C 0.05192 0.55522 0.42603
 H1941 H 0.01550 0.52084 0.34866
 H1942 H -0.01038 0.51784 0.40452
 H1943 H 0.07052 0.48258 0.44273
 H1944 H 0.09494 0.48758 0.38885
 H1945 H 0.07639 0.57866 0.38633
 H1946 H 0.05087 0.57518 0.44193
 C1947 C 0.56251 0.02947 -0.12668
 C1948 C 0.57518 0.00375 -0.10505
 C1949 C 0.56183 0.00108 -0.07477
 C1950 C 0.53591 0.02459 -0.06676
 C1951 C 0.55178 0.05611 -0.07358
 C1952 C 0.56575 0.05861 -0.10457
 C1953 C 0.52760 0.02384 -0.12811
 C1954 C 0.51387 0.02152 -0.09735
 H1955 H 0.59366 -0.01148 -0.11292
 H1956 H 0.56981 -0.01711 -0.05872
 H1957 H 0.55047 0.07598 -0.05755
 H1958 H 0.57569 0.08020 -0.11321
 H1959 H 0.51444 0.02365 -0.15132
 H1960 H 0.48901 0.01965 -0.09523
 C1961 C 0.62966 0.53516 -0.02225
 C1962 C 0.60892 0.53990 -0.05318
 C1963 C 0.57892 0.53149 -0.04797
 C1964 C 0.57181 0.51912 -0.01222
 C1965 C 0.59501 0.49245 -0.00852
 C1966 C 0.62507 0.50080 -0.01361
 C1967 C 0.61375 0.55260 0.00623
 C1968 C 0.58422 0.54423 0.01139
 H1969 H 0.61737 0.54582 -0.07808
 H1970 H 0.56295 0.53028 -0.06884
 H1971 H 0.58840 0.46874 -0.00340
 H1972 H 0.64363 0.48419 -0.01297
 H1973 H 0.62533 0.56927 0.02239
 H1974 H 0.57213 0.55310 0.03262
 C1975 C 0.12983 1.03401 0.47903
 C1976 C 0.12495 0.99988 0.48839
 C1977 C 0.09480 0.99178 0.49312
 C1978 C 0.07179 1.01849 0.48849
 C1979 C 0.08398 1.04400 0.51173
 C1980 C 0.11361 1.05213 0.50681
 C1981 C 0.10951 1.03827 0.44764
 C1982 C 0.07941 1.03011 0.45257
 H1983 H 0.14345 0.98324 0.48982
 H1984 H 0.08802 0.96818 0.49863
 H1985 H 0.07167 1.05332 0.53262
 H1986 H 0.12503 1.06909 0.52273
 H1987 H 0.11824 1.04350 0.42268
 H1988 H 0.06372 1.02848 0.43147
 C1989 C 0.13062 -0.03275 1.02277
 C1990 C 0.12555 -0.00224 1.00394
 C1991 C 0.09547 0.00547 1.00048
 C1992 C 0.07225 -0.01782 1.01582
 C1993 C 0.08120 -0.04919 1.00110
 C1994 C 0.11109 -0.05671 1.00419
 C1995 C 0.11347 -0.02758 1.05656
 C1996 C 0.08309 -0.01960 1.05285
 H1997 H 0.14380 0.01415 0.99813
 H1998 H 0.08947 0.02853 0.99250
 H1999 H 0.06487 -0.06651 0.99374
 H2000 H 0.11937 -0.07944 0.99715
 H2001 H 0.12448 -0.02827 1.08105
 H2002 H 0.06858 -0.01388 1.07423
 C2003 C 0.63046 0.46819 0.52201
 C2004 C 0.62533 0.49854 0.50291
 C2005 C 0.59522 0.50622 0.49948
 C2006 C 0.57205 0.48301 0.51507
 C2007 C 0.58104 0.45157 0.50058
 C2008 C 0.61092 0.44408 0.50369
 C2009 C 0.61337 0.47362 0.55579
 C2010 C 0.58298 0.48155 0.55207
 H2011 H 0.64359 0.51485 0.49683
 H2012 H 0.58917 0.52922 0.49132
 H2013 H 0.56474 0.43421 0.49325
 H2014 H 0.61922 0.42134 0.49676
 H2015 H 0.62443 0.47320 0.58026
 H2016 H 0.56852 0.48748 0.57343
 C2017 C -0.12990 0.46449 0.48143
 C2018 C -0.11060 0.44080 0.50008
 C2019 C -0.08059 0.44841 0.50284
 C2020 C -0.07138 0.47961 0.48765
 C2021 C -0.08253 0.47728 0.45074
 C2022 C -0.11302 0.46912 0.44743
 C2023 C -0.12439 0.49516 0.49988
 C2024 C -0.09423 0.50309 0.50284
 H2025 H -0.11920 0.41817 0.50736
 H2026 H -0.06438 0.43124 0.51030
 H2027 H -0.06812 0.48273 0.42915
 H2028 H -0.12426 0.46791 0.42308
 H2029 H -0.14256 0.51132 0.50597
 H2030 H -0.08794 0.52632 0.51036
 C2031 C 0.37018 -0.03492 -0.01804
 C2032 C 0.38682 -0.02967 -0.05208
 C2033 C 0.41734 -0.02157 -0.04886
 C2034 C 0.42874 -0.01986 -0.01200
 C2035 C 0.40599 0.00331 0.00390
 C2036 C 0.37580 -0.00458 0.00102
 C2037 C 0.38962 -0.05892 -0.00007
 C2038 C 0.41965 -0.05133 0.00259
 H2039 H 0.37542 -0.03051 -0.07635
 H2040 H 0.43162 -0.01582 -0.07045
 H2041 H 0.41232 0.02640 0.01189
 H2042 H 0.35766 0.01146 0.00761
 H2043 H 0.38111 -0.08169 0.00676
 H2044 H 0.43589 -0.06867 0.00943
 C2045 C 0.37169 1.03590 0.52213
 C2046 C 0.37631 1.00173 0.51290
 C2047 C 0.40635 0.99385 0.50782
 C2048 C 0.42959 1.02077 0.51212
 C2049 C 0.41729 1.04598 0.48894
 C2050 C 0.38777 1.05390 0.49410
 C2051 C 0.39234 1.04062 0.55326
 C2052 C 0.42239 1.03266 0.54804
 H2053 H 0.35771 0.98490 0.51179
 H2054 H 0.41292 0.97028 0.50226
 H2055 H 0.42945 1.05535 0.46801
 H2056 H 0.37633 1.07069 0.47825
 H2057 H 0.38383 1.04629 0.57820
 H2058 H 0.43838 1.03157 0.56887
 C2059 C -0.12856 0.53512 1.02097
 C2060 C -0.10837 0.53904 1.05261
 C2061 C -0.07836 0.53073 1.04784
 C2062 C -0.07070 0.51942 1.01182
 C2063 C -0.09422 0.49286 1.00661
 C2064 C -0.12423 0.50105 1.01121
 C2065 C -0.11180 0.55337 0.99360
 C2066 C -0.08225 0.54521 0.98892
 H2067 H -0.11728 0.54424 1.07751
 H2068 H -0.06282 0.52874 1.06901
 H2069 H -0.08789 0.46925 1.00102
 H2070 H -0.14298 0.48443 1.00960
 H2071 H -0.12275 0.57062 0.97794
 H2072 H -0.06943 0.55490 0.96860
 C2073 C 0.00441 0.63031 0.54166
 C2074 C 0.02772 0.60904 0.55804
 C2075 C 0.02779 0.58018 0.54552
 C2076 C 0.00504 0.57380 0.51640
 C2077 C -0.02649 0.58464 0.53100
 C2078 C -0.02655 0.61344 0.54414
 C2079 C 0.01212 0.62884 0.50356
 C2080 C 0.01193 0.59938 0.49045
 H2081 H 0.04257 0.61589 0.57877
 H2082 H 0.04210 0.56313 0.55708
 H2083 H -0.04828 0.57259 0.52809
 H2084 H -0.04761 0.62428 0.55284
 H2085 H 0.01322 0.64884 0.48727
 H2086 H 0.01078 0.59562 0.46357
 C2087 C 0.50574 0.13067 0.04191
 C2088 C 0.47506 0.11360 0.04613
 C2089 C 0.47470 0.08475 0.03311
 C2090 C 0.50561 0.07405 0.01689
 C2091 C 0.51129 0.09958 -0.00947
 C2092 C 0.51184 0.12909 0.00347
 C2093 C 0.52992 0.10956 0.05710
 C2094 C 0.52946 0.08059 0.04485
 H2095 H 0.45440 0.12428 0.05611
 H2096 H 0.45291 0.07248 0.03171
 H2097 H 0.50950 0.09561 -0.03629
 H2098 H 0.51261 0.14903 -0.01290
 H2099 H 0.54557 0.11650 0.07708
 H2100 H 0.54393 0.06351 0.05611
 C2101 C 0.00055 0.13234 0.96120
 C2102 C 0.03173 0.11615 0.96391
 C2103 C 0.03010 0.08745 0.97714
 C2104 C -0.00285 0.07609 0.98688
 C2105 C -0.01287 0.10194 1.01132
 C2106 C -0.01180 0.13119 0.99777
 C2107 C -0.02016 0.11031 0.94165
 C2108 C -0.02207 0.08172 0.95470
 H2109 H 0.05378 0.12768 0.96051
 H2110 H 0.05123 0.07621 0.98462
 H2111 H -0.01430 0.09884 1.03823
 H2112 H -0.01476 0.15164 1.01321
 H2113 H -0.03282 0.11683 0.91922
 H2114 H -0.03650 0.06465 0.94261
 C2115 C 0.49959 0.63230 0.45844
 C2116 C 0.53082 0.61619 0.46137
 C2117 C 0.52926 0.58769 0.47511
 C2118 C 0.49638 0.57638 0.48512
 C2119 C 0.48635 0.60257 0.50912
 C2120 C 0.48733 0.63163 0.49506
 C2121 C 0.47889 0.60994 0.43933
 C2122 C 0.47705 0.58153 0.45292
 H2123 H 0.55289 0.62775 0.45831
 H2124 H 0.55042 0.57676 0.48302
 H2125 H 0.48487 0.59986 0.53607
 H2126 H 0.48421 0.65231 0.51009
 H2127 H 0.46618 0.61608 0.41682
 H2128 H 0.46261 0.56428 0.44119
 C2129 C 0.50745 0.87067 0.45770
 C2130 C 0.53274 0.89192 0.44427
 C2131 C 0.53185 0.92084 0.45661
 C2132 C 0.50667 0.92716 0.48324
 C2133 C 0.47656 0.91645 0.46508
 C2134 C 0.47731 0.88775 0.45179
 C2135 C 0.51144 0.87195 0.49644
 C2136 C 0.51059 0.90138 0.50963
 H2137 H 0.54939 0.88520 0.42520
 H2138 H 0.54680 0.93804 0.44598
 H2139 H 0.45479 0.92850 0.46536
 H2140 H 0.45708 0.87710 0.44050
 H2141 H 0.51131 0.85184 0.51258
 H2142 H 0.50741 0.90510 0.53635
 C2143 C -0.00089 0.36733 0.96392
 C2144 C 0.01815 0.38897 0.94198
 C2145 C 0.02098 0.41781 0.95418
 C2146 C 0.00418 0.42415 0.98802
 C2147 C -0.02933 0.41239 0.98185
 C2148 C -0.03182 0.38343 0.96933
 C2149 C 0.01426 0.36932 0.99914
 C2150 C 0.01623 0.39887 1.01197
 H2151 H 0.02989 0.38175 0.91912
 H2152 H 0.03590 0.43415 0.94132
 H2153 H -0.04982 0.42393 0.99096
 H2154 H -0.05399 0.37177 0.96803
 H2155 H 0.01932 0.34921 1.01431
 H2156 H 0.02143 0.40282 1.03822
 C2157 C 0.49605 0.36716 0.03407
 C2158 C 0.48803 0.39056 0.06112
 C2159 C 0.48596 0.41969 0.05007
 C2160 C 0.49226 0.42458 0.01177
 C2161 C 0.52380 0.40873 0.00603
 C2162 C 0.52574 0.37930 0.01760
 C2163 C 0.47139 0.37184 0.00664
 C2164 C 0.46952 0.40159 -0.00492
 H2165 H 0.48340 0.38458 0.08724
 H2166 H 0.47940 0.43708 0.06813
 H2167 H 0.54287 0.41914 -0.00764
 H2168 H 0.54613 0.36537 0.01374
 H2169 H 0.45819 0.35328 -0.00478
 H2170 H 0.45468 0.40665 -0.02564
 C2171 C -0.00431 0.86688 0.53413
 C2172 C -0.01286 0.89024 0.56109
 C2173 C -0.01485 0.91939 0.55005
 C2174 C -0.00799 0.92433 0.51189
 C2175 C 0.02368 0.90858 0.50667
 C2176 C 0.02555 0.87916 0.51824
 C2177 C -0.02861 0.87154 0.50630
 C2178 C -0.03045 0.90131 0.49481
 H2179 H -0.01796 0.88420 0.58708
 H2180 H -0.02180 0.93677 0.56795
 H2181 H 0.04294 0.91908 0.49340
 H2182 H 0.04608 0.86534 0.51483
 H2183 H -0.04181 0.85305 0.49476
 H2184 H -0.04531 0.90645 0.47414
 C2185 C 0.22158 0.30931 0.12125
 C2186 C 0.19308 0.31286 0.14408
 C2187 C 0.19594 0.29914 0.17495
 C2188 C 0.22700 0.28283 0.18101
 C2189 C 0.22910 0.26061 0.15041
 C2190 C 0.22646 0.27428 0.11965
 C2191 C 0.24809 0.32177 0.14225
 C2192 C 0.25108 0.30843 0.17248
 H2193 H 0.17159 0.32315 0.13626
 H2194 H 0.17672 0.29900 0.19175
 H2195 H 0.23105 0.23576 0.15261
 H2196 H 0.22634 0.26110 0.09638
 H2197 H 0.26370 0.33996 0.13394
 H2198 H 0.26991 0.31609 0.18805
 C2199 C 0.72020 0.81280 0.62191
 C2200 C 0.69183 0.81665 0.64490
 C2201 C 0.69468 0.80286 0.67576
 C2202 C 0.72566 0.78629 0.68162
 C2203 C 0.72735 0.76407 0.65097
 C2204 C 0.72468 0.77775 0.62028
 C2205 C 0.74693 0.82503 0.64275
 C2206 C 0.74989 0.81172 0.67301
 H2207 H 0.67042 0.82714 0.63712
 H2208 H 0.67544 0.80271 0.69258
 H2209 H 0.72893 0.73919 0.65305
 H2210 H 0.72416 0.76454 0.59703
 H2211 H 0.76244 0.84331 0.63448
 H2212 H 0.76845 0.81965 0.68885
 C2213 C 0.27952 0.68697 0.62327
 C2214 C 0.25321 0.67481 0.64483
 C2215 C 0.25042 0.68865 0.67487
 C2216 C 0.27444 0.71447 0.68269
 C2217 C 0.30558 0.69817 0.67647
 C2218 C 0.30821 0.68380 0.64577
 C2219 C 0.27467 0.72193 0.62120
 C2220 C 0.27224 0.73613 0.65171
 H2221 H 0.23768 0.65635 0.63709
 H2222 H 0.23181 0.68112 0.69087
 H2223 H 0.32515 0.69918 0.69278
 H2224 H 0.32966 0.67348 0.63769
 H2225 H 0.27490 0.73475 0.59774
 H2226 H 0.27071 0.76104 0.65342
 C2227 C 0.78069 0.18581 0.12409
 C2228 C 0.75439 0.17363 0.14564
 C2229 C 0.75162 0.18741 0.17570
 C2230 C 0.77566 0.21320 0.18358
 C2231 C 0.80679 0.19689 0.17731
 C2232 C 0.80939 0.18257 0.14657
 C2233 C 0.77588 0.22078 0.12210
 C2234 C 0.77348 0.23492 0.15264
 H2235 H 0.73884 0.15519 0.13787
 H2236 H 0.73301 0.17986 0.19168
 H2237 H 0.82637 0.19785 0.19361
 H2238 H 0.83082 0.17223 0.13846
 H2239 H 0.77612 0.23364 0.09867
 H2240 H 0.77201 0.25984 0.15439
 C2241 C 0.72501 0.19052 0.88149
 C2242 C 0.69318 0.19657 0.86547
 C2243 C 0.69477 0.21115 0.83470
 C2244 C 0.72789 0.21729 0.82187
 C2245 C 0.74151 0.23648 0.85157
 C2246 C 0.74011 0.22259 0.88210
 C2247 C 0.74257 0.17224 0.85513
 C2248 C 0.74420 0.18577 0.82485
 H2249 H 0.67155 0.19360 0.87886
 H2250 H 0.67464 0.22140 0.82353
 H2251 H 0.74830 0.26055 0.85000
 H2252 H 0.74619 0.23479 0.90508
 H2253 H 0.75309 0.15001 0.85989
 H2254 H 0.75655 0.17434 0.80485
 C2255 C 0.22304 0.69025 0.38043
 C2256 C 0.24071 0.67193 0.35419
 C2257 C 0.24230 0.68531 0.32384
 C2258 C 0.22588 0.71677 0.32066
 C2259 C 0.19276 0.71052 0.33345
 C2260 C 0.19119 0.69606 0.36431
 C2261 C 0.23795 0.72240 0.38090
 C2262 C 0.23931 0.73616 0.35032
 H2263 H 0.25112 0.64966 0.35902
 H2264 H 0.25436 0.67364 0.30376
 H2265 H 0.17257 0.72043 0.32204
 H2266 H 0.16954 0.69290 0.37761
 H2267 H 0.24385 0.73476 0.40384
 H2268 H 0.24585 0.76029 0.34870
 C2269 C 0.77684 0.81255 0.37616
 C2270 C 0.75175 0.82527 0.35369
 C2271 C 0.74952 0.81149 0.32354
 C2272 C 0.77289 0.78520 0.31654
 C2273 C 0.80434 0.80081 0.32393
 C2274 C 0.80640 0.81509 0.35472
 C2275 C 0.77064 0.77768 0.37797
 C2276 C 0.76876 0.76356 0.34734
 H2277 H 0.73649 0.84391 0.36098
 H2278 H 0.73157 0.81920 0.30702
 H2279 H 0.82437 0.79945 0.30829
 H2280 H 0.82793 0.82493 0.36358
 H2281 H 0.76951 0.76486 0.40140
 H2282 H 0.76628 0.73870 0.34547
 C2283 C 0.27684 0.31294 0.87584
 C2284 C 0.30628 0.31509 0.85415
 C2285 C 0.30360 0.30125 0.82315
 C2286 C 0.27163 0.28663 0.81586
 C2287 C 0.26732 0.26460 0.84631
 C2288 C 0.26985 0.27820 0.87713
 C2289 C 0.25186 0.32662 0.85390
 C2290 C 0.24899 0.31333 0.82359
 H2291 H 0.32815 0.32405 0.86311
 H2292 H 0.32358 0.29905 0.80743
 H2293 H 0.26446 0.23981 0.84407
 H2294 H 0.26883 0.26501 0.90032
 H2295 H 0.23699 0.34538 0.86178
 H2296 H 0.23081 0.32139 0.80762
 C2297 C 0.78437 0.37947 0.77244
 C2298 C 0.75009 0.37472 0.76375
 C2299 C 0.74185 0.34457 0.75881
 C2300 C 0.76854 0.32141 0.76264
 C2301 C 0.79361 0.33385 0.73899
 C2302 C 0.80188 0.36347 0.74406
 C2303 C 0.78911 0.35876 0.80346
 C2304 C 0.78084 0.32869 0.79836
 H2305 H 0.73348 0.39328 0.76287
 H2306 H 0.71820 0.33786 0.75363
 H2307 H 0.80258 0.32166 0.71786
 H2308 H 0.81856 0.37504 0.72790
 H2309 H 0.79491 0.36725 0.82837
 H2310 H 0.77973 0.31273 0.81926
 C2311 C 0.28436 0.87845 0.27186
 C2312 C 0.25147 0.87450 0.26439
 C2313 C 0.24247 0.84289 0.25888
 C2314 C 0.26786 0.82086 0.26183
 C2315 C 0.29137 0.83249 0.23886
 C2316 C 0.30050 0.86344 0.24427
 C2317 C 0.28927 0.85860 0.30121
 C2318 C 0.28038 0.82702 0.29560
 H2319 H 0.23476 0.89299 0.26552
 H2320 H 0.21856 0.83631 0.25508
 H2321 H 0.29916 0.82091 0.21684
 H2322 H 0.31663 0.87501 0.22742
 H2323 H 0.29354 0.86706 0.32653
 H2324 H 0.27860 0.81116 0.31658
 C2325 C 0.21774 0.88113 0.72873
 C2326 C 0.19351 0.86200 0.74734
 C2327 C 0.20060 0.83198 0.75052
 C2328 C 0.23182 0.82261 0.73581
 C2329 C 0.23018 0.83342 0.69875
 C2330 C 0.22259 0.86392 0.69499
 C2331 C 0.24801 0.87578 0.74764
 C2332 C 0.25540 0.84558 0.75107
 H2333 H 0.17095 0.87068 0.75430
 H2334 H 0.18309 0.81588 0.75797
 H2335 H 0.23563 0.81877 0.67739
 H2336 H 0.22182 0.87495 0.67051
 H2337 H 0.26440 0.89397 0.75364
 H2338 H 0.27837 0.83930 0.75902
 C2339 C 0.71879 0.37975 0.22932
 C2340 C 0.74898 0.37452 0.24846
 C2341 C 0.75643 0.34434 0.25201
 C2342 C 0.73300 0.32129 0.23663
 C2343 C 0.70168 0.33062 0.25113
 C2344 C 0.69452 0.36059 0.24780
 C2345 C 0.72390 0.36250 0.19566
 C2346 C 0.73157 0.33204 0.19954
 H2347 H 0.76527 0.39278 0.25456
 H2348 H 0.77936 0.33812 0.26014
 H2349 H 0.68420 0.31451 0.25861
 H2350 H 0.67192 0.36924 0.25465
 H2351 H 0.72328 0.37350 0.17115
 H2352 H 0.73723 0.31739 0.17824
 C2353 C 0.71359 0.62048 0.27088
 C2354 C 0.74769 0.62492 0.26108
 C2355 C 0.75609 0.65495 0.25607
 C2356 C 0.72972 0.67835 0.26102
 C2357 C 0.70392 0.66623 0.23823
 C2358 C 0.69552 0.63669 0.24330
 C2359 C 0.70981 0.64109 0.30227
 C2360 C 0.71838 0.67112 0.29714
 H2361 H 0.76418 0.60626 0.25979
 H2362 H 0.77973 0.66139 0.25039
 H2363 H 0.69456 0.67855 0.21754
 H2364 H 0.67835 0.62532 0.22764
 H2365 H 0.70456 0.63244 0.32725
 H2366 H 0.72069 0.68691 0.31817
 C2367 C 0.21155 0.12295 0.77052
 C2368 C 0.19411 0.13851 0.74201
 C2369 C 0.20229 0.16809 0.73668
 C2370 C 0.22724 0.18090 0.76015
 C2371 C 0.21479 0.17406 0.79594
 C2372 C 0.20655 0.14400 0.80134
 C2373 C 0.24585 0.12771 0.76183
 C2374 C 0.25401 0.15777 0.75652
 H2375 H 0.17750 0.12670 0.72601
 H2376 H 0.19326 0.17995 0.71551
 H2377 H 0.21563 0.19035 0.81662
 H2378 H 0.20040 0.13576 0.82625
 H2379 H 0.26256 0.10922 0.76124
 H2380 H 0.27767 0.16444 0.75124
 C2381 C 0.28750 0.11950 0.22701
 C2382 C 0.30461 0.13572 0.25554
 C2383 C 0.29630 0.16521 0.26047
 C2384 C 0.27149 0.17730 0.23663
 C2385 C 0.28429 0.17027 0.20104
 C2386 C 0.29272 0.14028 0.19603
 C2387 C 0.25310 0.12373 0.23526
 C2388 C 0.24480 0.15370 0.24019
 H2389 H 0.32113 0.12442 0.27182
 H2390 H 0.30514 0.17747 0.28158
 H2391 H 0.28361 0.18635 0.18025
 H2392 H 0.29925 0.13183 0.17132
 H2393 H 0.23643 0.10497 0.23573
 H2394 H 0.22104 0.15996 0.24504
 C2395 C 0.78682 0.62177 0.72894
 C2396 C 0.81047 0.64179 0.74726
 C2397 C 0.80266 0.67172 0.74981
 C2398 C 0.77122 0.68004 0.73515
 C2399 C 0.77358 0.66880 0.69821
 C2400 C 0.78189 0.63836 0.69489
 C2401 C 0.75627 0.62670 0.74755
 C2402 C 0.74816 0.65666 0.75061
 H2403 H 0.83339 0.63390 0.75375
 H2404 H 0.82006 0.68841 0.75586
 H2405 H 0.76831 0.68313 0.67664
 H2406 H 0.78339 0.62705 0.67055
 H2407 H 0.74024 0.60821 0.75367
 H2408 H 0.72492 0.66231 0.75833
 C2409 C 0.88161 0.75107 0.20951
 C2410 C 0.86139 0.77139 0.19108
 C2411 C 0.83135 0.77328 0.20465
 C2412 C 0.82550 0.75427 0.23463
 C2413 C 0.83565 0.72297 0.22503
 C2414 C 0.86583 0.72133 0.21132
 C2415 C 0.88065 0.76239 0.24458
 C2416 C 0.84958 0.76353 0.25854
 H2417 H 0.86865 0.78552 0.16985
 H2418 H 0.81528 0.78919 0.19373
 H2419 H 0.82524 0.70182 0.23438
 H2420 H 0.87747 0.69934 0.20875
 H2421 H 0.90056 0.76240 0.26105
 H2422 H 0.84646 0.76145 0.28544
 C2423 C 0.37901 0.25874 0.70840
 C2424 C 0.37688 0.26220 0.74717
 C2425 C 0.34718 0.26138 0.75952
 C2426 C 0.32201 0.25804 0.73236
 C2427 C 0.32944 0.28357 0.70648
 C2428 C 0.35864 0.28439 0.69491
 C2429 C 0.36145 0.22880 0.70130
 C2430 C 0.33245 0.22809 0.71375
 H2431 H 0.39654 0.26173 0.76390
 H2432 H 0.34275 0.25791 0.78606
 H2433 H 0.31275 0.29869 0.69568
 H2434 H 0.36613 0.30117 0.67628
 H2435 H 0.37186 0.20868 0.68970
 H2436 H 0.31987 0.20645 0.71291
 C2437 C 0.38051 0.74580 0.79099
 C2438 C 0.36457 0.77712 0.79292
 C2439 C 0.33582 0.77731 0.77979
 C2440 C 0.32420 0.74573 0.76566
 C2441 C 0.34973 0.73823 0.73985
 C2442 C 0.37905 0.73765 0.75303
 C2443 C 0.35847 0.72308 0.80776
 C2444 C 0.32973 0.72326 0.79518
 H2445 H 0.37598 0.79814 0.80128
 H2446 H 0.32432 0.79920 0.77662
 H2447 H 0.34627 0.73965 0.71296
 H2448 H 0.39910 0.73646 0.73678
 H2449 H 0.36475 0.70846 0.82880
 H2450 H 0.31221 0.70931 0.80693
 C2451 C 0.88152 0.24453 0.29225
 C2452 C 0.86555 0.27583 0.29409
 C2453 C 0.83683 0.27598 0.28089
 C2454 C 0.82526 0.24438 0.26677
 C2455 C 0.85085 0.23686 0.24104
 C2456 C 0.88014 0.23633 0.25430
 C2457 C 0.85946 0.22181 0.30900
 C2458 C 0.83074 0.22193 0.29633
 H2459 H 0.87693 0.29688 0.30243
 H2460 H 0.82534 0.29787 0.27762
 H2461 H 0.84743 0.23820 0.21414
 H2462 H 0.90023 0.23511 0.23810
 H2463 H 0.86572 0.20718 0.33005
 H2464 H 0.81321 0.20790 0.30796
 C2465 C 0.11943 0.24757 0.28881
 C2466 C 0.13626 0.21670 0.28705
 C2467 C 0.16492 0.21857 0.27380
 C2468 C 0.17569 0.25152 0.26318
 C2469 C 0.14981 0.26021 0.23836
 C2470 C 0.12051 0.25889 0.25187
 C2471 C 0.14079 0.26939 0.30778
 C2472 C 0.16937 0.27161 0.29473
 H2473 H 0.12519 0.19453 0.29145
 H2474 H 0.17656 0.19742 0.26690
 H2475 H 0.15296 0.26056 0.21140
 H2476 H 0.10016 0.26067 0.23622
 H2477 H 0.13375 0.28275 0.32962
 H2478 H 0.18588 0.28710 0.30617
 C2479 C 0.61875 0.74850 0.78803
 C2480 C 0.63987 0.77025 0.80743
 C2481 C 0.66856 0.77267 0.79469
 C2482 C 0.67515 0.75291 0.76298
 C2483 C 0.66454 0.71983 0.77323
 C2484 C 0.63576 0.71772 0.78616
 C2485 C 0.62007 0.76014 0.75123
 C2486 C 0.64946 0.76175 0.73802
 H2487 H 0.63265 0.78329 0.82944
 H2488 H 0.68501 0.78793 0.80659
 H2489 H 0.67646 0.69881 0.76646
 H2490 H 0.62480 0.69547 0.79040
 H2491 H 0.59983 0.76212 0.73542
 H2492 H 0.65294 0.76272 0.71112
 C2493 C 0.61696 0.24502 0.71694
 C2494 C 0.62916 0.27478 0.73318
 C2495 C 0.65853 0.27284 0.74474
 C2496 C 0.67432 0.24121 0.73924
 C2497 C 0.65131 0.21855 0.75612
 C2498 C 0.62158 0.22047 0.74456
 C2499 C 0.64032 0.23673 0.68993
 C2500 C 0.66941 0.23453 0.70103
 H2501 H 0.61528 0.29522 0.73702
 H2502 H 0.66891 0.29197 0.75835
 H2503 H 0.65651 0.20331 0.77649
 H2504 H 0.60305 0.20706 0.75577
 H2505 H 0.63425 0.23148 0.66399
 H2506 H 0.68667 0.22686 0.68333
 C2507 C 0.11557 0.74437 0.21519
 C2508 C 0.13908 0.73686 0.18805
 C2509 C 0.16821 0.73502 0.19908
 C2510 C 0.17297 0.74090 0.23748
 C2511 C 0.15685 0.77225 0.24359
 C2512 C 0.12743 0.77403 0.23202
 C2513 C 0.12048 0.71942 0.24228
 C2514 C 0.15021 0.71771 0.25382
 H2515 H 0.13320 0.73256 0.16185
 H2516 H 0.18573 0.72911 0.18090
 H2517 H 0.16716 0.79135 0.25732
 H2518 H 0.11336 0.79432 0.23595
 H2519 H 0.10212 0.70579 0.25347
 H2520 H 0.15546 0.70259 0.27425
   
