data_POSCAR
  _audit_creation_date              2014-09-24
  _audit_creation_method            'ToBaCCo'
  _symmetry_space_group_name_H-M    'P1'
  _symmetry_Int_Tables_number       1
  _symmetry_cell_setting            triclinic
  loop_
  _symmetry_equiv_pos_as_xyz
 x,y,z
_cell_length_a 53.6064
_cell_length_b 53.0840
_cell_length_c 53.9779
_cell_angle_alpha 90.133000
_cell_angle_beta 90.386900
_cell_angle_gamma 87.626400
loop_
  _atom_site_label
  _atom_site_type_symbol
  _atom_site_fract_x
  _atom_site_fract_y
  _atom_site_fract_z
C1 C 0.08606 0.02640 0.22185
 H2 H 0.08784 0.03932 0.23722
 C3 C 0.06953 0.03238 0.20247
 H4 H 0.05845 0.04991 0.20297
 C5 C 0.09872 -0.01203 0.20227
 H6 H 0.11035 -0.02914 0.20216
 C7 C 0.08282 -0.00653 0.18224
 H8 H 0.08194 -0.01980 0.16703
 N9 N 0.09996 0.00437 0.22157
 C10 C 0.11969 -0.00339 0.29946
 H11 H 0.13977 -0.00581 0.29800
 C12 C 0.10839 -0.00400 0.32263
 H13 H 0.12010 -0.00718 0.33880
 C14 C 0.08027 0.00202 0.27962
 H15 H 0.06932 0.00357 0.26280
 C16 C 0.06819 0.00152 0.30239
 H17 H 0.04799 0.00318 0.30290
 Zn18 Zn 0.12252 -0.00134 0.24811
 N19 N 0.10560 -0.00011 0.27860
 C20 C 0.14715 0.04213 0.26416
 N21 N 0.14586 0.02416 0.24628
 C22 C 0.16014 0.02484 0.22558
 C23 C 0.17666 0.04417 0.22227
 C24 C 0.16324 0.06192 0.26150
 C25 C 0.12444 -0.05402 0.24627
 C26 C 0.13543 -0.07828 0.24800
 C27 C 0.17582 -0.05976 0.25052
 C28 C 0.16402 -0.03594 0.24849
 N29 N 0.13877 -0.03351 0.24646
 H30 H 0.13532 0.04149 0.28025
 H31 H 0.15846 0.01045 0.21152
 H32 H 0.18779 0.04460 0.20561
 H33 H 0.16409 0.07595 0.27602
 H34 H 0.10433 -0.05146 0.24536
 H35 H 0.12311 -0.09384 0.24816
 H36 H 0.19598 -0.06105 0.25249
 H37 H 0.17504 -0.01939 0.24948
 C38 C 0.08224 -0.00133 0.32428
 C39 C 0.06811 0.01602 0.18221
 C40 C 0.16163 -0.08151 0.25049
 C41 C 0.17795 0.06328 0.24010
 C42 C 0.40077 0.01347 0.79947
 H43 H 0.40472 0.02800 0.78621
 C44 C 0.40902 0.01560 0.82402
 H45 H 0.41961 0.03175 0.82897
 C46 C 0.38152 -0.02470 0.80864
 H47 H 0.37022 -0.04004 0.80284
 C48 C 0.38936 -0.02333 0.83331
 H49 H 0.38434 -0.03797 0.84607
 N50 N 0.38734 -0.00648 0.79224
 C51 C 0.39104 -0.00901 0.71117
 H52 H 0.37129 -0.01035 0.70742
 C53 C 0.40783 -0.00866 0.69157
 H54 H 0.40075 -0.01024 0.67283
 C55 C 0.42401 -0.00629 0.74037
 H56 H 0.43020 -0.00551 0.75944
 C57 C 0.44155 -0.00610 0.72124
 H58 H 0.46121 -0.00509 0.72573
 Zn59 Zn 0.37396 -0.00671 0.75951
 N60 N 0.39923 -0.00729 0.73498
 C61 C 0.35783 0.04007 0.73814
 N62 N 0.35334 0.02292 0.75609
 C63 C 0.33446 0.02688 0.77252
 C64 C 0.31889 0.04858 0.77098
 C65 C 0.34272 0.06200 0.73593
 C66 C 0.36710 -0.05857 0.75569
 C67 C 0.35421 -0.08061 0.75196
 C68 C 0.31654 -0.05509 0.74478
 C69 C 0.33014 -0.03353 0.74873
 N70 N 0.35492 -0.03564 0.75435
 H71 H 0.37317 0.03689 0.72552
 H72 H 0.33148 0.01308 0.78680
 H73 H 0.30389 0.05141 0.78417
 H74 H 0.34640 0.07489 0.72105
 H75 H 0.38686 -0.05971 0.75997
 H76 H 0.36441 -0.09847 0.75401
 H77 H 0.29679 -0.05304 0.74048
 H78 H 0.32086 -0.01516 0.74716
 C79 C 0.43347 -0.00672 0.69646
 C80 C 0.40314 -0.00293 0.84145
 C81 C 0.32850 -0.07905 0.74629
 C82 C 0.32304 0.06659 0.75267
 C83 C 0.90777 0.51066 0.28485
 H84 H 0.91465 0.52339 0.27111
 C85 C 0.91346 0.51429 0.30998
 H86 H 0.92505 0.52972 0.31483
 C87 C 0.88306 0.47623 0.29478
 H88 H 0.87052 0.46189 0.28911
 C89 C 0.88799 0.47930 0.31994
 H90 H 0.87960 0.46674 0.33300
 N91 N 0.89296 0.49170 0.27772
 C92 C 0.89865 0.47674 0.19830
 H93 H 0.87936 0.47180 0.19638
 C94 C 0.91383 0.47655 0.17755
 H95 H 0.90622 0.47059 0.15997
 C96 C 0.93157 0.49074 0.22371
 H97 H 0.93818 0.49669 0.24166
 C98 C 0.94754 0.49086 0.20323
 H99 H 0.96650 0.49679 0.20555
 Zn100 Zn 0.88169 0.48842 0.24439
 N101 N 0.90740 0.48439 0.22066
 C102 C 0.87181 0.53311 0.21779
 N103 N 0.86300 0.51849 0.23621
 C104 C 0.84382 0.52696 0.25078
 C105 C 0.83317 0.55128 0.24742
 C106 C 0.86180 0.55741 0.21384
 C107 C 0.87847 0.43745 0.24492
 C108 C 0.86837 0.41377 0.24474
 C109 C 0.82748 0.43374 0.23851
 C110 C 0.83850 0.45729 0.23879
 N111 N 0.86357 0.45861 0.24224
 H112 H 0.88748 0.52657 0.20676
 H113 H 0.83762 0.51532 0.26577
 H114 H 0.81875 0.55796 0.26001
 H115 H 0.86960 0.56893 0.19952
 H116 H 0.89836 0.43910 0.24761
 H117 H 0.88068 0.39725 0.24722
 H118 H 0.80747 0.43320 0.23627
 H119 H 0.82705 0.47441 0.23665
 C120 C 0.93834 0.48463 0.17965
 C121 C 0.90335 0.49847 0.32804
 C122 C 0.84260 0.41155 0.24166
 C123 C 0.84248 0.56697 0.22887
 C124 C 0.59151 0.52694 0.72253
 H125 H 0.59169 0.54300 0.73491
 C126 C 0.57568 0.52741 0.70184
 H127 H 0.56366 0.54394 0.69833
 C128 C 0.60718 0.48599 0.71189
 H129 H 0.61960 0.46992 0.71570
 C130 C 0.59165 0.48563 0.69108
 H131 H 0.59202 0.46884 0.67970
 N132 N 0.60676 0.50636 0.72721
 C133 C 0.62353 0.50541 0.80601
 H134 H 0.64364 0.50312 0.80493
 C135 C 0.61188 0.50525 0.82898
 H136 H 0.62339 0.50243 0.84533
 C137 C 0.58447 0.51036 0.78538
 H138 H 0.57389 0.51188 0.76831
 C139 C 0.57201 0.51037 0.80802
 H140 H 0.55181 0.51213 0.80821
 Zn141 Zn 0.62821 0.50652 0.75521
 N142 N 0.60981 0.50811 0.78485
 C143 C 0.66444 0.53798 0.73429
 N144 N 0.64826 0.53504 0.75331
 C145 C 0.64439 0.55345 0.77057
 C146 C 0.65699 0.57578 0.76921
 C147 C 0.67767 0.56012 0.73231
 C148 C 0.63352 0.45554 0.76240
 C149 C 0.64508 0.43179 0.76540
 C150 C 0.68478 0.45007 0.75747
 C151 C 0.67239 0.47365 0.75476
 N152 N 0.64714 0.47581 0.75697
 H153 H 0.66668 0.52336 0.72039
 H154 H 0.63092 0.55128 0.78508
 H155 H 0.65329 0.59031 0.78298
 H156 H 0.69000 0.56233 0.71676
 H157 H 0.61352 0.45797 0.76466
 H158 H 0.63364 0.41632 0.77036
 H159 H 0.70489 0.44852 0.75556
 H160 H 0.68293 0.49013 0.75110
 C161 C 0.58572 0.50796 0.83021
 C162 C 0.57580 0.50669 0.68564
 C163 C 0.67108 0.42872 0.76260
 C164 C 0.67383 0.57941 0.74996
 C165 C 0.26805 0.09515 0.96752
 H166 H 0.25490 0.09474 0.95225
 C167 C 0.28984 0.07973 0.96701
 H168 H 0.29339 0.06743 0.95127
 C169 C 0.27970 0.11212 1.00633
 H170 H 0.27602 0.12503 1.02146
 C171 C 0.30160 0.09701 1.00662
 H172 H 0.31389 0.09805 1.02253
 N173 N 0.26338 0.11091 0.98702
 C174 C 0.18264 0.12582 0.98426
 H175 H 0.18176 0.14613 0.98246
 C176 C 0.16062 0.11276 0.98626
 H177 H 0.14308 0.12347 0.98537
 C178 C 0.20701 0.08775 0.98778
 H179 H 0.22511 0.07811 0.98904
 C180 C 0.18549 0.07397 0.98992
 H181 H 0.18734 0.05373 0.99241
 Zn182 Zn 0.23427 0.13248 0.98590
 N183 N 0.20523 0.11323 0.98511
 C184 C 0.22111 0.15026 0.93753
 N185 N 0.23695 0.15260 0.95712
 C186 C 0.25662 0.16793 0.95598
 C187 C 0.26081 0.18196 0.93465
 C188 C 0.22486 0.16364 0.91566
 C189 C 0.23041 0.13982 1.03668
 C190 C 0.23023 0.15258 1.05930
 C191 C 0.23180 0.19184 1.03696
 C192 C 0.23227 0.17819 1.01473
 N193 N 0.23225 0.15258 1.01504
 H194 H 0.20587 0.13761 0.93862
 H195 H 0.26926 0.16904 0.97162
 H196 H 0.27655 0.19409 0.93406
 H197 H 0.21197 0.16162 0.90033
 H198 H 0.22964 0.11948 1.03635
 H199 H 0.22879 0.14128 1.07576
 H200 H 0.23230 0.21222 1.03616
 H201 H 0.23283 0.18811 0.99731
 C202 C 0.16187 0.08641 0.98957
 C203 C 0.30716 0.08085 0.98652
 C204 C 0.23154 0.17913 1.05986
 C205 C 0.24512 0.17957 0.91400
 C206 C 0.72135 0.39124 1.01869
 H207 H 0.72185 0.37525 1.03099
 C208 C 0.70043 0.40773 1.01871
 H209 H 0.68573 0.40462 1.03185
 C210 C 0.73954 0.41422 0.98639
 H211 H 0.75465 0.41625 0.97346
 C212 C 0.71890 0.43125 0.98582
 H213 H 0.71833 0.44654 0.97255
 N214 N 0.74044 0.39471 1.00273
 C215 C 0.81882 0.36771 1.00348
 H216 H 0.81597 0.34777 1.00134
 C217 C 0.84300 0.37646 1.00408
 H218 H 0.85874 0.36310 1.00247
 C219 C 0.80159 0.40929 1.00779
 H220 H 0.78539 0.42196 1.00946
 C221 C 0.82548 0.41887 1.00864
 H222 H 0.82708 0.43891 1.01136
 Zn223 Zn 0.76713 0.37007 1.00093
 N224 N 0.79874 0.38418 1.00462
 C225 C 0.78294 0.35954 0.95214
 N226 N 0.76502 0.35518 0.96916
 C227 C 0.74411 0.34295 0.96287
 C228 C 0.74070 0.33436 0.93862
 C229 C 0.78028 0.35135 0.92775
 C230 C 0.76438 0.35642 1.05004
 C231 C 0.76079 0.34130 1.07065
 C232 C 0.75943 0.30518 1.04342
 C233 C 0.76228 0.32127 1.02318
 N234 N 0.76419 0.34646 1.02686
 H235 H 0.79895 0.37018 0.95714
 H236 H 0.72975 0.34051 0.97654
 H237 H 0.72355 0.32536 0.93398
 H238 H 0.79461 0.35525 0.91440
 H239 H 0.76672 0.37643 1.05243
 H240 H 0.76124 0.35031 1.08860
 H241 H 0.75774 0.28519 1.04002
 H242 H 0.76289 0.31363 1.00460
 C243 C 0.84663 0.40238 1.00606
 C244 C 0.69878 0.42779 1.00176
 C245 C 0.75777 0.31517 1.06762
 C246 C 0.75901 0.33859 0.92068
 C247 C 0.23816 0.91453 0.48229
 H248 H 0.25273 0.91721 0.46889
 C249 C 0.21652 0.93021 0.48187
 H250 H 0.21471 0.94519 0.46831
 C251 C 0.22229 0.89108 0.51552
 H252 H 0.22426 0.87544 0.52824
 C253 C 0.20028 0.90613 0.51558
 H254 H 0.18604 0.90231 0.52901
 N255 N 0.24061 0.89534 0.49889
 C256 C 0.31947 0.86997 0.49844
 H257 H 0.31659 0.85005 0.49611
 C258 C 0.34365 0.87845 0.50070
 H259 H 0.35931 0.86491 0.50001
 C260 C 0.30238 0.91166 0.50220
 H261 H 0.28620 0.92448 0.50287
 C262 C 0.32636 0.92101 0.50464
 H263 H 0.32819 0.94111 0.50663
 Zn264 Zn 0.26798 0.87163 0.49596
 N265 N 0.29945 0.88653 0.49896
 C266 C 0.28304 0.85998 0.44688
 N267 N 0.26510 0.85663 0.46414
 C268 C 0.24362 0.84522 0.45815
 C269 C 0.23956 0.83660 0.43399
 C270 C 0.27978 0.85163 0.42257
 C271 C 0.27096 0.85748 0.54497
 C272 C 0.27129 0.84198 0.56578
 C273 C 0.26351 0.80653 0.53910
 C274 C 0.26338 0.82280 0.51867
 N275 N 0.26685 0.84783 0.52203
 H276 H 0.29961 0.86985 0.45165
 H277 H 0.22930 0.84349 0.47200
 H278 H 0.22196 0.82830 0.42973
 H279 H 0.29420 0.85471 0.40907
 H280 H 0.27419 0.87736 0.54702
 H281 H 0.27527 0.85027 0.58360
 H282 H 0.26069 0.78665 0.53621
 H283 H 0.26066 0.81542 0.50021
 C284 C 0.34743 0.90421 0.50395
 C285 C 0.19698 0.92569 0.49822
 C286 C 0.26720 0.81611 0.56308
 C287 C 0.25784 0.83980 0.41576
 C288 C 0.76828 0.58887 0.47151
 H289 H 0.75373 0.58790 0.45759
 C290 C 0.79004 0.57362 0.46940
 H291 H 0.79207 0.56070 0.45392
 C292 C 0.78377 0.60769 0.50805
 H293 H 0.78159 0.62141 0.52275
 C294 C 0.80584 0.59290 0.50660
 H295 H 0.81992 0.59488 0.52084
 N296 N 0.76559 0.60556 0.49057
 C297 C 0.68602 0.62655 0.49142
 H298 H 0.68735 0.64681 0.49061
 C299 C 0.66269 0.61601 0.49264
 H300 H 0.64606 0.62831 0.49265
 C301 C 0.70623 0.58601 0.49256
 H302 H 0.72330 0.57445 0.49273
 C303 C 0.68320 0.57462 0.49392
 H304 H 0.68295 0.55428 0.49452
 Zn305 Zn 0.73753 0.62838 0.49009
 N306 N 0.70717 0.61154 0.49115
 C307 C 0.72196 0.64600 0.44260
 N308 N 0.73976 0.64705 0.46059
 C309 C 0.76061 0.66040 0.45743
 C310 C 0.76403 0.67375 0.43557
 C311 C 0.72474 0.65889 0.42036
 C312 C 0.73687 0.63903 0.54050
 C313 C 0.73774 0.65360 0.56196
 C314 C 0.73926 0.69092 0.53654
 C315 C 0.73855 0.67556 0.51550
 N316 N 0.73797 0.65007 0.51787
 H317 H 0.70577 0.63490 0.44529
 H318 H 0.77464 0.66055 0.47192
 H319 H 0.78072 0.68432 0.43330
 H320 H 0.71016 0.65810 0.40645
 H321 H 0.73566 0.61878 0.54180
 H322 H 0.73688 0.64437 0.57978
 H323 H 0.74013 0.71115 0.53446
 H324 H 0.73849 0.68406 0.49734
 C325 C 0.66101 0.58977 0.49404
 C326 C 0.80941 0.57598 0.48672
 C327 C 0.73953 0.67988 0.56009
 C328 C 0.74617 0.67277 0.41658
 C329 C 0.01833 0.23587 0.09453
 H330 H 0.03341 0.24879 0.09486
 C331 C 0.01896 0.21557 0.07786
 H332 H 0.03451 0.21306 0.06526
 C333 C -0.01982 0.22282 0.11110
 H334 H -0.03470 0.22528 0.12437
 C335 C -0.01986 0.20229 0.09490
 H336 H -0.03529 0.18980 0.09551
 N337 N -0.00085 0.23907 0.11079
 C338 C 0.00174 0.31672 0.13867
 H339 H 0.00123 0.31254 0.15827
 C340 C 0.00282 0.34165 0.13081
 H341 H 0.00314 0.35652 0.14459
 C342 C 0.00183 0.30210 0.09720
 H343 H 0.00142 0.28659 0.08422
 C344 C 0.00245 0.32686 0.08845
 H345 H 0.00312 0.32953 0.06865
 Zn346 Zn 0.00009 0.26474 0.13550
 N347 N 0.00164 0.29753 0.12195
 C348 C 0.04729 0.27459 0.15573
 N349 N 0.02871 0.25791 0.15572
 C350 C 0.03102 0.23605 0.16883
 C351 C 0.05261 0.23047 0.18288
 C352 C 0.06907 0.26978 0.16942
 C353 C -0.05087 0.27186 0.14113
 C354 C -0.07395 0.27330 0.15290
 C355 C -0.05313 0.26177 0.19131
 C356 C -0.03037 0.26054 0.17876
 N357 N -0.02974 0.26523 0.15402
 H358 H 0.04556 0.29154 0.14476
 H359 H 0.01618 0.22285 0.16820
 H360 H 0.05429 0.21296 0.19313
 H361 H 0.08327 0.28368 0.16939
 H362 H -0.04970 0.27610 0.12159
 H363 H -0.09031 0.27903 0.14217
 H364 H -0.05341 0.25785 0.21099
 H365 H -0.01329 0.25601 0.18882
 C366 C 0.00292 0.34720 0.10540
 C367 C 0.00001 0.19811 0.07833
 C368 C -0.07533 0.26786 0.17831
 C369 C 0.07215 0.24725 0.18292
 C370 C -0.00958 0.78019 0.42259
 H371 H -0.00717 0.76113 0.42943
 C372 C -0.00514 0.80051 0.43838
 H373 H 0.00032 0.79691 0.45744
 C374 C -0.01854 0.80816 0.38926
 H375 H -0.02348 0.81092 0.36996
 C376 C -0.01435 0.82894 0.40435
 H377 H -0.01696 0.84758 0.39649
 N378 N -0.01601 0.78438 0.39847
 C379 C 0.00467 0.70985 0.37920
 H380 H 0.01564 0.71586 0.36378
 C381 C 0.00816 0.68525 0.38777
 H382 H 0.02211 0.67281 0.37915
 C383 C -0.02775 0.71803 0.40810
 H384 H -0.04216 0.73078 0.41542
 C385 C -0.02480 0.69349 0.41737
 H386 H -0.03721 0.68759 0.43176
 Zn387 Zn -0.01870 0.75799 0.37503
 N388 N -0.01297 0.72577 0.38946
 C389 C 0.02984 0.76446 0.36227
 N390 N 0.00692 0.76238 0.35173
 C391 C 0.00397 0.76132 0.32669
 C392 C 0.02496 0.76066 0.31133
 C393 C 0.05117 0.76382 0.34771
 C394 C -0.06947 0.77453 0.36889
 C395 C -0.09382 0.77324 0.35969
 C396 C -0.07988 0.73885 0.33315
 C397 C -0.05586 0.74070 0.34307
 N398 N -0.05104 0.75845 0.36043
 H399 H 0.03160 0.76550 0.38221
 H400 H -0.01445 0.76003 0.31866
 H401 H 0.02256 0.75894 0.29147
 H402 H 0.06918 0.76523 0.35666
 H403 H -0.06550 0.78800 0.38327
 H404 H -0.10810 0.78625 0.36696
 H405 H -0.08254 0.72418 0.31965
 H406 H -0.04106 0.72758 0.33725
 C407 C -0.00655 0.67677 0.40710
 C408 C -0.00696 0.82524 0.42919
 C409 C -0.09954 0.75528 0.34148
 C410 C 0.04894 0.76091 0.32195
 C411 C 0.49366 0.28734 0.92535
 H412 H 0.49452 0.26841 0.93270
 C413 C 0.49850 0.30768 0.94091
 H414 H 0.50277 0.30426 0.96029
 C415 C 0.48796 0.31485 0.89108
 H416 H 0.48405 0.31738 0.87153
 C417 C 0.49254 0.33566 0.90593
 H418 H 0.49127 0.35414 0.89756
 N419 N 0.48853 0.29132 0.90093
 C420 C 0.50473 0.21562 0.88584
 H421 H 0.51716 0.22014 0.87100
 C422 C 0.50617 0.19148 0.89586
 H423 H 0.52003 0.17785 0.88890
 C424 C 0.47082 0.22725 0.91199
 H425 H 0.45673 0.24121 0.91770
 C426 C 0.47164 0.20324 0.92262
 H427 H 0.45792 0.19898 0.93642
 Zn428 Zn 0.48447 0.26467 0.87829
 N429 N 0.48736 0.23300 0.89409
 C430 C 0.53371 0.26741 0.86574
 N431 N 0.51066 0.26648 0.85521
 C432 C 0.50761 0.26580 0.83018
 C433 C 0.52854 0.26477 0.81475
 C434 C 0.55499 0.26634 0.85111
 C435 C 0.43534 0.28535 0.87016
 C436 C 0.41100 0.28542 0.86071
 C437 C 0.42224 0.24773 0.83751
 C438 C 0.44636 0.24842 0.84735
 N439 N 0.45248 0.26709 0.86325
 H440 H 0.53553 0.26827 0.88569
 H441 H 0.48909 0.26546 0.82220
 H442 H 0.52602 0.26367 0.79486
 H443 H 0.57307 0.26713 0.86004
 H444 H 0.44025 0.29953 0.88350
 H445 H 0.39755 0.30001 0.86651
 H446 H 0.41782 0.23215 0.82555
 H447 H 0.46009 0.23364 0.84285
 C448 C 0.48961 0.18501 0.91452
 C449 C 0.49839 0.33217 0.93118
 C450 C 0.40418 0.26654 0.84409
 C451 C 0.55259 0.26425 0.82527
 C452 C 0.54137 0.71096 0.59477
 H453 H 0.55593 0.72447 0.59550
 C454 C 0.54372 0.69010 0.57898
 H455 H 0.56012 0.68756 0.56749
 C456 C 0.50249 0.69748 0.60930
 H457 H 0.48662 0.70017 0.62136
 C458 C 0.50417 0.67633 0.59398
 H459 H 0.48912 0.66336 0.59401
 N460 N 0.52094 0.71428 0.60944
 C461 C 0.51677 0.79423 0.62777
 H462 H 0.51637 0.79311 0.64778
 C463 C 0.51369 0.81761 0.61610
 H464 H 0.51115 0.83413 0.62764
 C465 C 0.51923 0.77335 0.58900
 H466 H 0.52057 0.75603 0.57848
 C467 C 0.51627 0.79632 0.57655
 H468 H 0.51588 0.79640 0.55649
 Zn469 Zn 0.51931 0.74188 0.63161
 N470 N 0.51941 0.77273 0.61418
 C471 C 0.56515 0.75520 0.65356
 N472 N 0.54705 0.73801 0.65336
 C473 C 0.54917 0.71675 0.66741
 C474 C 0.57013 0.71217 0.68255
 C475 C 0.58655 0.75119 0.66814
 C476 C 0.46774 0.74652 0.63558
 C477 C 0.44449 0.74810 0.64705
 C478 C 0.46533 0.74205 0.68655
 C479 C 0.48820 0.74059 0.67430
 N480 N 0.48895 0.74251 0.64921
 H481 H 0.56330 0.77177 0.64200
 H482 H 0.53468 0.70319 0.66659
 H483 H 0.57169 0.69508 0.69348
 H484 H 0.60076 0.76509 0.66803
 H485 H 0.46897 0.74864 0.61570
 H486 H 0.42807 0.75176 0.63570
 H487 H 0.46502 0.74043 0.70655
 H488 H 0.50529 0.73822 0.68489
 C489 C 0.51324 0.81887 0.59003
 C490 C 0.52521 0.67224 0.57886
 C491 C 0.44308 0.74560 0.67293
 C492 C 0.58937 0.72921 0.68257
 C493 C 0.93038 0.98938 0.72118
 H494 H 0.93510 0.97602 0.73575
 C495 C 0.94535 0.99103 0.70160
 H496 H 0.96229 0.97920 0.70073
 C497 C 0.90122 1.02041 0.70502
 H498 H 0.88367 1.03111 0.70588
 C499 C 0.91686 1.02245 0.68282
 H500 H 0.91067 1.03577 0.66874
 N501 N 0.90759 1.00462 0.72259
 C502 C 0.88290 1.00241 0.80125
 H503 H 0.86295 1.00188 0.79842
 C504 C 0.89209 1.00394 0.82430
 H505 H 0.87912 1.00407 0.83952
 C506 C 0.92304 1.00517 0.78305
 H507 H 0.93503 1.00630 0.76720
 C508 C 0.93410 1.00660 0.80806
 H509 H 0.95416 1.00805 0.80968
 Zn510 Zn 0.88444 0.99877 0.74827
 N511 N 0.89921 1.00224 0.78020
 C512 C 0.85891 0.95522 0.76192
 N513 N 0.87308 0.96562 0.74415
 C514 C 0.88017 0.95222 0.72365
 C515 C 0.87370 0.92720 0.72083
 C516 C 0.85202 0.93024 0.75985
 C517 C 0.86328 1.04679 0.75212
 C518 C 0.84512 1.06623 0.75058
 C519 C 0.81539 1.03605 0.73690
 C520 C 0.83423 1.01704 0.73879
 N521 N 0.85767 1.02284 0.74605
 H522 H 0.85324 0.96611 0.77795
 H523 H 0.89096 0.96082 0.70940
 H524 H 0.87974 0.91677 0.70451
 H525 H 0.84155 0.92228 0.77476
 H526 H 0.88200 1.05073 0.75815
 H527 H 0.85009 1.08496 0.75614
 H528 H 0.79684 1.03132 0.73089
 H529 H 0.83023 0.99777 0.73420
 C530 C 0.91952 1.00564 0.82823
 C531 C 0.93795 1.00783 0.68064
 C532 C 0.82088 1.06109 0.74236
 C533 C 0.85948 0.91588 0.73903
 C534 C 0.42068 0.47503 0.22060
 H535 H 0.42283 0.45943 0.23341
 C536 C 0.43716 0.47690 0.20084
 H537 H 0.45203 0.46267 0.19845
 C538 C 0.39864 0.51253 0.20809
 H539 H 0.38352 0.52631 0.21085
 C540 C 0.41447 0.51494 0.18788
 H541 H 0.41163 0.53094 0.17564
 N542 N 0.40219 0.49298 0.22415
 C543 C 0.38790 0.48714 0.30339
 H544 H 0.36784 0.48551 0.30319
 C545 C 0.40100 0.48613 0.32584
 H546 H 0.39078 0.48334 0.34276
 C547 C 0.42544 0.49182 0.28127
 H548 H 0.43492 0.49442 0.26396
 C549 C 0.43928 0.49076 0.30326
 H550 H 0.45936 0.49227 0.30260
 Zn551 Zn 0.38117 0.48956 0.25192
 N552 N 0.40025 0.48953 0.28165
 C553 C 0.36924 0.43955 0.26475
 N554 N 0.36510 0.45864 0.24826
 C555 C 0.34947 0.45609 0.22854
 C556 C 0.33597 0.43433 0.22575
 C557 C 0.35656 0.41721 0.26232
 C558 C 0.36592 0.54049 0.25607
 C559 C 0.34943 0.56157 0.25610
 C560 C 0.31512 0.53377 0.25204
 C561 C 0.33227 0.51323 0.25218
 N562 N 0.35722 0.51694 0.25346
 H563 H 0.38223 0.44164 0.27992
 H564 H 0.34694 0.47135 0.21539
 H565 H 0.32292 0.43290 0.21045
 H566 H 0.35954 0.40250 0.27602
 H567 H 0.38580 0.54290 0.25775
 H568 H 0.35708 0.57994 0.25835
 H569 H 0.29536 0.53044 0.25057
 H570 H 0.32552 0.49439 0.25118
 C571 C 0.42712 0.48791 0.32592
 C572 C 0.43406 0.49694 0.18411
 C573 C 0.32358 0.55837 0.25345
 C574 C 0.33943 0.41462 0.24278
 C575 C 0.57462 0.98941 0.29216
 H576 H 0.56383 0.98587 0.27568
 C577 C 0.56348 0.98873 0.31422
 H578 H 0.54376 0.98510 0.31504
 C579 C 0.61432 0.99656 0.31033
 H580 H 0.63405 0.99944 0.30882
 C581 C 0.60289 0.99555 0.33518
 H582 H 0.61486 0.99850 0.35099
 N583 N 0.60075 0.99430 0.29039
 C584 C 0.59663 0.97541 0.21477
 H585 H 0.61370 0.96387 0.21531
 C586 C 0.58028 0.97324 0.19471
 H587 H 0.58479 0.95970 0.18022
 C588 C 0.57027 1.00742 0.23252
 H589 H 0.56681 1.02120 0.24702
 C590 C 0.55323 1.00561 0.21296
 H591 H 0.53662 1.01795 0.21255
 Zn592 Zn 0.61590 0.99701 0.25855
 N593 N 0.59161 0.99256 0.23303
 C594 C 0.63511 0.94752 0.26153
 N595 N 0.64137 0.97127 0.25553
 C596 C 0.66452 0.97597 0.24685
 C597 C 0.68231 0.95618 0.24356
 C598 C 0.65220 0.92725 0.25839
 C599 C 0.62029 1.04535 0.23700
 C600 C 0.63011 1.06902 0.23365
 C601 C 0.66017 1.05930 0.26606
 C602 C 0.64940 1.03595 0.26911
 N603 N 0.62980 1.02936 0.25467
 H604 H 0.61662 0.94432 0.26848
 H605 H 0.66907 0.99494 0.24192
 H606 H 0.70054 0.96010 0.23634
 H607 H 0.64677 0.90857 0.26352
 H608 H 0.60514 1.03986 0.22523
 H609 H 0.62200 1.08134 0.21949
 H610 H 0.67554 1.06371 0.27813
 H611 H 0.65711 1.02289 0.28271
 C612 C 0.55850 0.98885 0.19344
 C613 C 0.57814 0.99217 0.33729
 C614 C 0.65050 1.07635 0.24802
 C615 C 0.67603 0.93138 0.24879
 C616 C 0.06724 0.50335 0.77323
 H617 H 0.05653 0.49952 0.75676
 C618 C 0.05495 0.50607 0.79588
 H619 H 0.03488 0.50453 0.79647
 C620 C 0.10618 0.50949 0.79273
 H621 H 0.12617 0.51050 0.79156
 C622 C 0.09467 0.51237 0.81574
 H623 H 0.10621 0.51633 0.83165
 N624 N 0.09239 0.50565 0.77191
 C625 C 0.08982 0.47765 0.70019
 H626 H 0.10564 0.46487 0.70364
 C627 C 0.07380 0.47287 0.68042
 H628 H 0.07741 0.45618 0.66926
 C629 C 0.06576 0.51447 0.71081
 H630 H 0.06276 0.53071 0.72274
 C631 C 0.04923 0.51039 0.69120
 H632 H 0.03367 0.52368 0.68800
 Zn633 Zn 0.10905 0.50429 0.74079
 N634 N 0.08579 0.49834 0.71477
 C635 C 0.12690 0.45526 0.75196
 N636 N 0.13325 0.47719 0.74119
 C637 C 0.15533 0.47899 0.72917
 C638 C 0.17184 0.45796 0.72725
 C639 C 0.14280 0.43380 0.75044
 C640 C 0.11641 0.55225 0.71820
 C641 C 0.12683 0.57589 0.71625
 C642 C 0.15528 0.56427 0.74950
 C643 C 0.14435 0.54091 0.75079
 N644 N 0.12490 0.53545 0.73567
 H645 H 0.10918 0.45431 0.76130
 H646 H 0.15983 0.49653 0.72044
 H647 H 0.18916 0.45955 0.71726
 H648 H 0.13731 0.41670 0.75938
 H649 H 0.10133 0.54761 0.70592
 H650 H 0.11954 0.58916 0.70252
 H651 H 0.17001 0.56820 0.76254
 H652 H 0.15144 0.52713 0.76401
 C653 C 0.05349 0.48970 0.67538
 C654 C 0.06861 0.51079 0.81752
 C655 C 0.14645 0.58225 0.73207
 C656 C 0.16540 0.43483 0.73742
 C657 C 0.77153 0.91595 -0.02587
 H658 H 0.75799 0.91735 -0.04082
 C659 C 0.79093 0.93273 -0.02471
 H660 H 0.79216 0.94711 -0.03881
 C661 C 0.78666 0.89515 0.01032
 H662 H 0.78514 0.88030 0.02380
 C663 C 0.80638 0.91150 0.01216
 H664 H 0.81927 0.90926 0.02756
 N665 N 0.76969 0.89764 -0.00847
 C666 C 0.69251 0.87475 -0.01099
 H667 H 0.69624 0.85461 -0.01233
 C668 C 0.66796 0.88441 -0.01073
 H669 H 0.65278 0.87159 -0.01176
 C670 C 0.70796 0.91588 -0.00829
 H671 H 0.72363 0.92801 -0.00744
 C672 C 0.68360 0.92639 -0.00787
 H673 H 0.68095 0.94668 -0.00716
 Zn674 Zn 0.74388 0.87435 -0.01192
 N675 N 0.71188 0.89048 -0.01012
 C676 C 0.74871 0.82554 0.01171
 N677 N 0.74514 0.85091 0.01455
 C678 C 0.73987 0.86123 0.03707
 C679 C 0.73824 0.84605 0.05796
 C680 C 0.74735 0.80956 0.03226
 C681 C 0.72929 0.86496 -0.06093
 C682 C 0.73132 0.85561 -0.08498
 C683 C 0.77009 0.83391 -0.07331
 C684 C 0.76737 0.84385 -0.04936
 N685 N 0.74703 0.85884 -0.04356
 H686 H 0.75215 0.81763 -0.00647
 H687 H 0.73640 0.88139 0.03866
 H688 H 0.73317 0.85495 0.07534
 H689 H 0.75013 0.78939 0.02976
 H690 H 0.71377 0.87769 -0.05644
 H691 H 0.71702 0.86088 -0.09850
 H692 H 0.78664 0.82243 -0.07756
 H693 H 0.78165 0.83991 -0.03548
 C694 C 0.66321 0.91049 -0.00909
 C695 C 0.80891 0.93044 -0.00574
 C696 C 0.75177 0.83978 -0.09147
 C697 C 0.74223 0.81978 0.05581
 C698 C 0.28211 0.39518 0.51832
 H699 H 0.26761 0.39331 0.53196
 C700 C 0.30510 0.40442 0.52546
 H701 H 0.30812 0.41003 0.54452
 C702 C 0.29639 0.38892 0.47721
 H703 H 0.29325 0.38219 0.45860
 C704 C 0.31942 0.39855 0.48342
 H705 H 0.33378 0.39915 0.46944
 N706 N 0.27830 0.38730 0.49462
 C707 C 0.19937 0.38749 0.47657
 H708 H 0.19947 0.37021 0.46590
 C709 C 0.17756 0.40261 0.47801
 H710 H 0.16132 0.39678 0.46789
 C711 C 0.22115 0.41629 0.50135
 H712 H 0.23818 0.42167 0.51030
 C713 C 0.19962 0.43193 0.50347
 H714 H 0.20030 0.44917 0.51418
 Zn715 Zn 0.24834 0.37120 0.48642
 N716 N 0.22049 0.39426 0.48848
 C717 C 0.22070 0.33538 0.51252
 N718 N 0.24374 0.34481 0.50963
 C719 C 0.26276 0.33835 0.52552
 C720 C 0.25835 0.32405 0.54657
 C721 C 0.21562 0.32048 0.53309
 C722 C 0.24741 0.37643 0.43498
 C723 C 0.24868 0.36905 0.41017
 C724 C 0.25587 0.32594 0.42355
 C725 C 0.25418 0.33414 0.44818
 N726 N 0.25017 0.35905 0.45338
 H727 H 0.20588 0.34042 0.49959
 H728 H 0.28120 0.34514 0.52252
 H729 H 0.27347 0.31995 0.55954
 H730 H 0.19695 0.31394 0.53574
 H731 H 0.24420 0.39613 0.43965
 H732 H 0.24634 0.38315 0.39577
 H733 H 0.25869 0.30600 0.41983
 H734 H 0.25616 0.32067 0.46314
 C735 C 0.17730 0.42490 0.49219
 C736 C 0.32400 0.40624 0.50788
 C737 C 0.25327 0.34360 0.40415
 C738 C 0.23428 0.31576 0.55096
 C739 C 0.23355 0.57681 -0.00010
 H740 H 0.25203 0.56853 0.00305
 C741 C 0.21313 0.56127 -0.00139
 H742 H 0.21623 0.54108 0.00073
 C743 C 0.20708 0.61308 -0.00643
 H744 H 0.20500 0.63329 -0.00877
 C745 C 0.18616 0.59838 -0.00742
 H746 H 0.16835 0.60791 -0.01118
 N747 N 0.23013 0.60223 -0.00258
 C748 C 0.30410 0.61033 0.01868
 H749 H 0.29917 0.62371 0.03305
 C750 C 0.32733 0.59754 0.01976
 H751 H 0.33990 0.60126 0.03499
 C752 C 0.29355 0.58827 -0.01786
 H753 H 0.28024 0.58434 -0.03227
 C754 C 0.31638 0.57469 -0.01721
 H755 H 0.32059 0.56065 -0.03133
 Zn756 Zn 0.25679 0.62447 -0.00172
 N757 N 0.28785 0.60586 -0.00017
 C758 C 0.26966 0.66464 0.03040
 N759 N 0.25372 0.64560 0.02687
 C760 C 0.23659 0.64016 0.04436
 C761 C 0.23530 0.65377 0.06651
 C762 C 0.26883 0.67889 0.05220
 C763 C 0.25444 0.63050 -0.05317
 C764 C 0.25405 0.64302 -0.07587
 C765 C 0.25349 0.68262 -0.05380
 C766 C 0.25390 0.66930 -0.03148
 N767 N 0.25505 0.64364 -0.03152
 H768 H 0.28354 0.66829 0.01656
 H769 H 0.22427 0.62482 0.04146
 H770 H 0.22143 0.64911 0.08005
 H771 H 0.28184 0.69376 0.05484
 H772 H 0.25380 0.61023 -0.05289
 H773 H 0.25322 0.63198 -0.09268
 H774 H 0.25288 0.70304 -0.05342
 H775 H 0.25320 0.67960 -0.01424
 C776 C 0.33371 0.57964 0.00149
 C777 C 0.18890 0.57198 -0.00452
 C778 C 0.25412 0.66948 -0.07637
 C779 C 0.25188 0.67316 0.07081
 C780 C 0.72458 0.10608 0.53102
 H781 H 0.73831 0.10899 0.54541
 C782 C 0.70196 0.09545 0.53693
 H783 H 0.69844 0.08995 0.55586
 C784 C 0.71181 0.11100 0.48913
 H785 H 0.71532 0.11782 0.47071
 C786 C 0.68920 0.09991 0.49411
 H787 H 0.67555 0.09834 0.47937
 N788 N 0.72892 0.11398 0.50753
 C789 C 0.80814 0.12126 0.49199
 H790 H 0.80755 0.14027 0.48477
 C791 C 0.83066 0.10708 0.49237
 H792 H 0.84707 0.11532 0.48483
 C793 C 0.78699 0.08754 0.50987
 H794 H 0.76993 0.08008 0.51679
 C795 C 0.80912 0.07267 0.51059
 H796 H 0.80889 0.05375 0.51803
 Zn797 Zn 0.75778 0.13279 0.50202
 N798 N 0.78700 0.11151 0.50106
 C799 C 0.78287 0.16060 0.53897
 N800 N 0.76035 0.15583 0.52857
 C801 C 0.73875 0.16614 0.53791
 C802 C 0.73915 0.18084 0.55932
 C803 C 0.78417 0.17571 0.56011
 C804 C 0.75685 0.13787 0.45017
 C805 C 0.75459 0.15061 0.42760
 C806 C 0.74796 0.18966 0.45016
 C807 C 0.75041 0.17618 0.47228
 N808 N 0.75463 0.15075 0.47189
 H809 H 0.79983 0.15229 0.53128
 H810 H 0.72111 0.16224 0.52916
 H811 H 0.72176 0.18835 0.56697
 H812 H 0.80213 0.17892 0.56861
 H813 H 0.76020 0.11764 0.45042
 H814 H 0.75577 0.13977 0.41064
 H815 H 0.74445 0.20989 0.45079
 H816 H 0.74878 0.18607 0.48974
 C817 C 0.83145 0.08256 0.50228
 C818 C 0.68396 0.09229 0.51837
 C819 C 0.75023 0.17695 0.42745
 C820 C 0.76207 0.18527 0.57090
 C821 C 1.03330 0.71292 0.89486
 H822 H 1.03595 0.71049 0.87513
 C823 C 1.03531 0.69301 0.90983
 H824 H 1.04059 0.67499 0.90167
 C825 C 1.02610 0.74153 0.92843
 H826 H 1.02177 0.76025 0.93547
 C827 C 1.02820 0.71995 0.94585
 H828 H 1.02534 0.72350 0.96543
 N829 N 1.02748 0.73759 0.90464
 C830 C 1.03458 0.81402 0.88264
 H831 H 1.04855 0.80876 0.86904
 C832 C 1.03193 0.83808 0.88995
 H833 H 1.04408 0.85188 0.88232
 C834 C 1.00113 0.80147 0.90810
 H835 H 0.98868 0.78733 0.91439
 C836 C 0.99766 0.82773 0.91688
 H837 H 0.98289 0.83145 0.93001
 Zn838 Zn 1.02018 0.76195 0.87981
 N839 N 1.01858 0.79536 0.89232
 C840 C 0.97512 0.73643 0.87531
 N841 N 0.98853 0.75542 0.86601
 C842 C 0.97892 0.77096 0.84806
 C843 C 0.95505 0.76742 0.83844
 C844 C 0.95121 0.73223 0.86624
 C845 C 1.06938 0.76097 0.86419
 C846 C 1.08957 0.75728 0.84827
 C847 C 1.06071 0.74775 0.81532
 C848 C 1.04099 0.75176 0.83191
 N849 N 1.04568 0.75825 0.85584
 H850 H 0.98271 0.72469 0.89006
 H851 H 0.98971 0.78634 0.84147
 H852 H 0.94769 0.78048 0.82461
 H853 H 0.94080 0.71704 0.87390
 H854 H 1.07255 0.76600 0.88335
 H855 H 1.10807 0.76034 0.85543
 H856 H 1.05674 0.74245 0.79635
 H857 H 1.02203 0.74928 0.82574
 C858 C 1.01242 0.84577 0.90819
 C859 C 1.03113 0.69624 0.93698
 C860 C 1.08542 0.75013 0.82350
 C861 C 0.94094 0.74763 0.84744
 C862 C 0.50462 0.19283 0.39798
 H863 H 0.49668 0.18962 0.37982
 C864 C 0.50885 0.17269 0.41411
 H865 H 0.50332 0.15421 0.40829
 C866 C 0.52047 0.22130 0.42748
 H867 H 0.52517 0.24029 0.43240
 C868 C 0.52508 0.20155 0.44430
 H869 H 0.53314 0.20548 0.46228
 N870 N 0.51061 0.21649 0.40475
 C871 C 0.52319 0.29060 0.38175
 H872 H 0.53507 0.28429 0.36674
 C873 C 0.52380 0.31567 0.38954
 H874 H 0.53606 0.32832 0.38031
 C875 C 0.49327 0.28199 0.41228
 H876 H 0.48193 0.26869 0.42160
 C877 C 0.49327 0.30692 0.42065
 H878 H 0.48188 0.31221 0.43643
 Zn879 Zn 0.50523 0.24103 0.37985
 N880 N 0.50762 0.27441 0.39272
 C881 C 0.45281 0.23949 0.38236
 N882 N 0.47261 0.23658 0.36682
 C883 C 0.46934 0.22912 0.34293
 C884 C 0.44542 0.22543 0.33357
 C885 C 0.42855 0.23611 0.37376
 C886 C 0.54929 0.21868 0.36001
 C887 C 0.56889 0.21528 0.34333
 C888 C 0.54802 0.24541 0.31598
 C889 C 0.52882 0.24837 0.33328
 N890 N 0.52989 0.23526 0.35496
 H891 H 0.45575 0.24412 0.40157
 H892 H 0.48526 0.22550 0.33114
 H893 H 0.44357 0.21907 0.31464
 H894 H 0.41302 0.23883 0.38635
 H895 H 0.55000 0.20850 0.37731
 H896 H 0.58413 0.20204 0.34785
 H897 H 0.54720 0.25637 0.29907
 H898 H 0.51334 0.26162 0.32973
 C899 C 0.50829 0.32431 0.40881
 C900 C 0.51972 0.17680 0.43747
 C901 C 0.56868 0.22922 0.32125
 C902 C 0.42454 0.22947 0.34897
 C903 C 0.96181 0.30657 0.62064
 H904 H 0.95166 0.30437 0.63760
 C905 C 0.95969 0.32950 0.60809
 H906 H 0.94785 0.34457 0.61578
 C907 C 0.98968 0.28991 0.59039
 H908 H 1.00142 0.27436 0.58363
 C909 C 0.98802 0.31253 0.57711
 H910 H 0.99885 0.31377 0.56041
 N911 N 0.97701 0.28747 0.61196
 C912 C 1.00229 0.21071 0.61524
 H913 H 1.01428 0.21261 0.63126
 C914 C 1.00459 0.18903 0.60066
 H915 H 1.01889 0.17487 0.60541
 C916 C 0.96957 0.22730 0.58958
 H917 H 0.95588 0.24230 0.58553
 C918 C 0.97125 0.20588 0.57444
 H919 H 0.95881 0.20449 0.55865
 Zn920 Zn 0.98210 0.25752 0.63095
 N921 N 0.98492 0.22923 0.60960
 C922 C 0.93893 0.23483 0.64862
 N923 N 0.95502 0.25353 0.65304
 C924 C 0.95191 0.26925 0.67284
 C925 C 0.93191 0.26664 0.68897
 C926 C 0.91846 0.23183 0.66402
 C927 C 1.03316 0.26480 0.63561
 C928 C 1.05646 0.26561 0.64714
 C929 C 1.03704 0.25554 0.68592
 C930 C 1.01413 0.25470 0.67353
 N931 N 1.01257 0.25944 0.64881
 H932 H 0.94179 0.22233 0.63300
 H933 H 0.96501 0.28388 0.67613
 H934 H 0.92960 0.27937 0.70457
 H935 H 0.90590 0.21684 0.66017
 H936 H 1.03158 0.26819 0.61594
 H937 H 1.07207 0.27027 0.63575
 H938 H 1.03779 0.25156 0.70560
 H939 H 0.99777 0.24969 0.68366
 C940 C 0.98864 0.18622 0.58014
 C941 C 0.97314 0.33300 0.58620
 C942 C 1.05878 0.26072 0.67276
 C943 C 0.91465 0.24808 0.68433
 C944 C 0.45706 0.80817 0.11912
 H945 H 0.44165 0.80254 0.13033
 C946 C 0.45604 0.83197 0.10809
 H947 H 0.43981 0.84443 0.11103
 C948 C 0.49701 0.79917 0.10207
 H949 H 0.51310 0.78647 0.09997
 C950 C 0.49679 0.82279 0.09071
 H951 H 0.51303 0.82777 0.08036
 N952 N 0.47765 0.79256 0.11652
 C953 C 0.48994 0.71160 0.12698
 H954 H 0.49266 0.71157 0.14686
 C955 C 0.49256 0.68912 0.11372
 H956 H 0.49701 0.67207 0.12397
 C957 C 0.48020 0.73443 0.09027
 H958 H 0.47532 0.75217 0.08133
 C959 C 0.48275 0.71232 0.07619
 H960 H 0.47982 0.71324 0.05634
 Zn961 Zn 0.48102 0.76252 0.13562
 N962 N 0.48374 0.73360 0.11521
 C963 C 0.43815 0.73982 0.15356
 N964 N 0.45302 0.75975 0.15683
 C965 C 0.44770 0.77757 0.17442
 C966 C 0.42709 0.77540 0.18989
 C967 C 0.41728 0.73707 0.16840
 C968 C 0.53237 0.75802 0.14081
 C969 C 0.55573 0.75853 0.15215
 C970 C 0.53541 0.76921 0.19077
 C971 C 0.51234 0.76832 0.17866
 N972 N 0.51125 0.76331 0.15395
 H973 H 0.44224 0.72607 0.13926
 H974 H 0.45930 0.79368 0.17625
 H975 H 0.42307 0.78971 0.20380
 H976 H 0.40598 0.72086 0.16564
 H977 H 0.53107 0.75296 0.12145
 H978 H 0.57197 0.75362 0.14113
 H979 H 0.53599 0.77347 0.21040
 H980 H 0.49547 0.77167 0.18912
 C981 C 0.48908 0.68924 0.08784
 C982 C 0.47624 0.83979 0.09406
 C983 C 0.55751 0.76470 0.17742
 C984 C 0.41145 0.75512 0.18673
 O985 O -0.03976 0.99990 0.94062
 O986 O -0.00051 1.01516 0.93290
 O987 O -0.02275 0.94132 0.99451
 O988 O -0.00540 0.93831 1.03166
 O989 O -0.08588 0.99190 1.00398
 O990 O -0.09074 1.03392 1.01926
 O991 O 0.04254 1.01347 1.05170
 O992 O 0.04915 0.97580 1.03068
 O993 O 0.02853 1.06903 0.99794
 O994 O -0.00077 1.07408 0.96312
 O995 O -0.01833 1.06550 1.05947
 O996 O -0.05088 1.04148 1.07231
 O997 O 0.00913 1.02682 1.07471
 O998 O -0.03367 1.00814 1.08126
 O999 O -0.00876 1.08511 1.02360
 O1000 O -0.03091 1.08558 0.98244
 O1001 O 0.05288 1.03546 1.01088
 O1002 O 0.05743 0.99206 0.99476
 O1003 O -0.07357 1.01498 0.96212
 O1004 O -0.08052 1.05273 0.98696
 O1005 O -0.06218 0.95895 1.01935
 O1006 O -0.03276 0.95711 1.05532
 O1007 O -0.01233 0.95932 0.95797
 O1008 O 0.02199 0.98600 0.94731
 Zr1009 Zr -0.01054 0.99823 0.96660
 O1010 O 0.01282 1.02372 0.98432
 Zr1011 Zr -0.02532 0.97131 1.01959
 O1012 O -0.00123 0.99443 1.03945
 Zr1013 Zr -0.05981 1.02002 0.99849
 O1014 O -0.03813 1.04540 1.01865
 Zr1015 Zr 0.02744 1.00679 1.01661
 O1016 O 0.00567 0.98030 0.99780
 Zr1017 Zr -0.00784 1.05574 0.99699
 O1018 O -0.03072 1.03194 0.97588
 Zr1019 Zr -0.02137 1.02752 1.04967
 O1020 O -0.04627 1.00330 1.03160
 O1021 O -0.04058 0.98717 0.98745
 O1022 O 0.00840 1.03960 1.02872
 C1023 C -0.06277 1.00748 0.94205
 C1024 C -0.01727 0.94017 0.97146
 C1025 C -0.08318 0.96938 1.01261
 C1026 C 0.03243 1.02059 1.07211
 C1027 C 0.04975 1.05840 1.00349
 C1028 C -0.01334 1.08514 1.04697
 H1029 H 0.02604 1.02836 0.97273
 H1030 H -0.04880 1.06017 1.02358
 H1031 H -0.05125 0.97565 0.97809
 H1032 H 0.00562 0.98501 1.05392
 H1033 H 0.04265 0.96047 1.02289
 H1034 H 0.00969 0.94375 1.04047
 H1035 H -0.04436 1.08944 0.99449
 H1036 H -0.07099 1.06022 0.97339
 H1037 H 0.05822 1.00214 0.97943
 H1038 H 0.03106 0.97361 0.95810
 H1039 H -0.06374 1.04921 1.06117
 H1040 H -0.08921 1.02599 1.03581
 H1041 H -0.00787 1.03257 0.93329
 H1042 H 0.01278 1.06432 0.95463
 H1043 H -0.04775 0.96655 1.06159
 H1044 H -0.02063 0.99516 1.08571
 O1045 O 0.54835 0.47504 0.55822
 O1046 O 0.54871 0.43774 0.53374
 O1047 O 0.55598 0.53280 0.50403
 O1048 O 0.53344 0.54543 0.46813
 O1049 O 0.50022 0.54184 0.56091
 O1050 O 0.46078 0.52504 0.56763
 O1051 O 0.47654 0.48408 0.43846
 O1052 O 0.52017 0.49063 0.43405
 O1053 O 0.47303 0.42538 0.48915
 O1054 O 0.48781 0.41768 0.53085
 O1055 O 0.42543 0.48876 0.49416
 O1056 O 0.42908 0.53128 0.51257
 O1057 O 0.44579 0.50735 0.45768
 O1058 O 0.44623 0.54644 0.48340
 O1059 O 0.43782 0.45067 0.51020
 O1060 O 0.46193 0.43868 0.54929
 O1061 O 0.49309 0.44042 0.45562
 O1062 O 0.53513 0.45928 0.44943
 O1063 O 0.51718 0.49744 0.57784
 O1064 O 0.47304 0.48921 0.58004
 O1065 O 0.51851 0.55879 0.52721
 O1066 O 0.50369 0.56491 0.48511
 O1067 O 0.56958 0.49428 0.51818
 O1068 O 0.56457 0.45226 0.50195
 Zr1069 Zr 0.53674 0.47389 0.52097
 O1070 O 0.51122 0.45520 0.49833
 Zr1071 Zr 0.51719 0.53012 0.50002
 O1072 O 0.49138 0.51386 0.47584
 Zr1073 Zr 0.49078 0.50572 0.54958
 O1074 O 0.46319 0.48913 0.52774
 Zr1075 Zr 0.50346 0.47684 0.46646
 O1076 O 0.53105 0.49445 0.48795
 Zr1077 Zr 0.47656 0.45336 0.51623
 O1078 O 0.50328 0.46888 0.54030
 Zr1079 Zr 0.45774 0.50958 0.49471
 O1080 O 0.48275 0.52823 0.51819
 O1081 O 0.52485 0.50984 0.53221
 O1082 O 0.46908 0.47324 0.48357
 C1083 C 0.53835 0.48511 0.57761
 C1084 C 0.57333 0.51685 0.51091
 C1085 C 0.51050 0.55989 0.54964
 C1086 C 0.45540 0.49644 0.43857
 C1087 C 0.48131 0.42331 0.46700
 C1088 C 0.42127 0.46623 0.50091
 H1089 H 0.51846 0.43828 0.49426
 H1090 H 0.44761 0.48827 0.53731
 H1091 H 0.53718 0.51812 0.54289
 H1092 H 0.48906 0.52461 0.46102
 H1093 H 0.51594 0.50891 0.43306
 H1094 H 0.54210 0.53117 0.45946
 H1095 H 0.44824 0.45033 0.55492
 H1096 H 0.47946 0.47147 0.58093
 H1097 H 0.53866 0.44297 0.45785
 H1098 H 0.56749 0.46108 0.48616
 H1099 H 0.42349 0.52162 0.52702
 H1100 H 0.45369 0.53743 0.55556
 H1101 H 0.53553 0.43207 0.54495
 H1102 H 0.50375 0.41238 0.52290
 H1103 H 0.48790 0.56939 0.49378
 H1104 H 0.45623 0.55081 0.46880
 O1105 O 0.45682 -0.04372 0.51881
 O1106 O 0.47999 -0.05825 0.48390
 O1107 O 0.51485 -0.04602 0.57589
 O1108 O 0.54993 -0.02731 0.58400
 O1109 O 0.46211 0.01815 0.56842
 O1110 O 0.46064 0.05395 0.54138
 O1111 O 0.58535 0.00566 0.50552
 O1112 O 0.58434 -0.03246 0.52847
 O1113 O 0.53322 0.00200 0.44945
 O1114 O 0.48875 -0.00703 0.44706
 O1115 O 0.53309 0.06661 0.49548
 O1116 O 0.51969 0.07642 0.53679
 O1117 O 0.57096 0.04455 0.51794
 O1118 O 0.54715 0.05849 0.55617
 O1119 O 0.51684 0.04571 0.46268
 O1120 O 0.47508 0.02681 0.45802
 O1121 O 0.56606 -0.01625 0.47050
 O1122 O 0.56709 -0.05371 0.49793
 O1123 O 0.44193 -0.00453 0.52980
 O1124 O 0.44481 0.03605 0.51088
 O1125 O 0.49426 -0.00114 0.58971
 O1126 O 0.53845 0.01183 0.58994
 O1127 O 0.49686 -0.06628 0.54358
 O1128 O 0.51000 -0.07520 0.50240
 Zr1129 Zr 0.49562 -0.03967 0.51463
 O1130 O 0.52058 -0.02446 0.48926
 Zr1131 Zr 0.52119 -0.00989 0.56221
 O1132 O 0.54774 0.00614 0.53888
 Zr1133 Zr 0.47375 0.01726 0.53130
 O1134 O 0.49802 0.03501 0.50699
 Zr1135 Zr 0.55411 -0.01668 0.50753
 O1136 O 0.53016 -0.03446 0.53244
 Zr1137 Zr 0.50660 0.01089 0.47701
 O1138 O 0.48003 -0.00579 0.49997
 Zr1139 Zr 0.53255 0.04030 0.52460
 O1140 O 0.50695 0.02551 0.55005
 O1141 O 0.48728 -0.01719 0.54525
 O1142 O 0.54077 0.01796 0.49367
 C1143 C 0.43894 -0.02774 0.52423
 C1144 C 0.50570 -0.06553 0.56578
 C1145 C 0.47248 0.00995 0.58851
 C1146 C 0.58831 0.02903 0.51023
 C1147 C 0.55537 -0.00822 0.45052
 C1148 C 0.52626 0.06514 0.47267
 H1149 H 0.52325 -0.03633 0.47532
 H1150 H 0.48998 0.05115 0.50151
 H1151 H 0.47555 -0.02541 0.55644
 H1152 H 0.56348 0.00849 0.54808
 H1153 H 0.57714 -0.04399 0.54065
 H1154 H 0.56594 -0.02422 0.57578
 H1155 H 0.47096 0.04351 0.46546
 H1156 H 0.44304 0.02653 0.49521
 H1157 H 0.55740 -0.05938 0.48345
 H1158 H 0.52687 -0.07752 0.50983
 H1159 H 0.50307 0.07990 0.52919
 H1160 H 0.47305 0.06054 0.55313
 H1161 H 0.47035 -0.04519 0.47438
 H1162 H 0.49590 -0.02446 0.44585
 H1163 H 0.52917 0.02833 0.59066
 H1164 H 0.56124 0.04781 0.56270
 O1165 O 0.02550 0.52376 0.93176
 O1166 O -0.01795 0.51381 0.92781
 O1167 O 0.01946 0.58316 0.98795
 O1168 O 0.00384 0.58571 1.02683
 O1169 O 0.07733 0.52480 0.99365
 O1170 O 0.07704 0.48082 1.00670
 O1171 O -0.04730 0.51623 1.04996
 O1172 O -0.04909 0.55784 1.03025
 O1173 O -0.04784 0.46437 0.99275
 O1174 O -0.02226 0.45944 0.95298
 O1175 O 0.00582 0.45600 1.04804
 O1176 O 0.04628 0.47817 1.05692
 O1177 O -0.01378 0.49627 1.06843
 O1178 O 0.02835 0.50697 1.07449
 O1179 O -0.00945 0.44138 1.01162
 O1180 O 0.00533 0.43956 0.97029
 O1181 O -0.06544 0.50048 1.00882
 O1182 O -0.06774 0.54152 0.99752
 O1183 O 0.05944 0.50560 0.95124
 O1184 O 0.06451 0.46714 0.97277
 O1185 O 0.05834 0.56032 1.00956
 O1186 O 0.03464 0.56457 1.04694
 O1187 O 0.00583 0.56647 0.95165
 O1188 O -0.03233 0.54730 0.94220
 Zr1189 Zr -0.00136 0.52893 0.95992
 O1190 O -0.02693 0.50738 0.97914
 Zr1191 Zr 0.02071 0.55205 1.01242
 O1192 O -0.00302 0.53046 1.03410
 Zr1193 Zr 0.04752 0.50037 0.98777
 O1194 O 0.02404 0.47658 1.00727
 Zr1195 Zr -0.03544 0.52388 1.01368
 O1196 O -0.01285 0.54761 0.99273
 Zr1197 Zr -0.00978 0.47235 0.98790
 O1198 O 0.01530 0.49303 0.96662
 Zr1199 Zr 0.01331 0.49420 1.04059
 O1200 O 0.03865 0.51723 1.02201
 O1201 O 0.03150 0.53550 0.97900
 O1202 O -0.02010 0.48809 1.02195
 C1203 C 0.04796 0.51421 0.93191
 C1204 C 0.01341 0.58480 0.96485
 C1205 C 0.07768 0.54746 1.00228
 C1206 C -0.03627 0.50552 1.06860
 C1207 C -0.06662 0.47789 1.00072
 C1208 C -0.00275 0.43843 1.03425
 H1209 H -0.04205 0.50563 0.96881
 H1210 H 0.03304 0.46020 1.01009
 H1211 H 0.04293 0.54576 0.96930
 H1212 H -0.00699 0.53947 1.04972
 H1213 H -0.04373 0.57184 1.01968
 H1214 H -0.00781 0.58102 1.04002
 H1215 H 0.02212 0.43598 0.97749
 H1216 H 0.05242 0.46048 0.96073
 H1217 H -0.06589 0.54017 0.97936
 H1218 H -0.03920 0.56003 0.95403
 H1219 H 0.05103 0.46265 1.04762
 H1220 H 0.07861 0.48900 1.02310
 H1221 H -0.01043 0.49661 0.92561
 H1222 H -0.03801 0.46888 0.94874
 H1223 H 0.04658 0.55125 1.05306
 H1224 H 0.02229 0.52465 1.07681
 O1225 O 0.06298 0.47692 0.50337
 O1226 O 0.06594 0.52201 0.49987
 O1227 O 0.00620 0.47469 0.56128
 O1228 O -0.03382 0.48650 0.56553
 O1229 O 0.00263 0.42678 0.49501
 O1230 O -0.01122 0.43594 0.45291
 O1231 O -0.05797 0.55370 0.50794
 O1232 O -0.03681 0.54705 0.54767
 O1233 O -0.00089 0.56351 0.45720
 O1234 O 0.03933 0.53826 0.44783
 O1235 O -0.05479 0.51082 0.43974
 O1236 O -0.06362 0.46767 0.45680
 O1237 O -0.07582 0.52556 0.48218
 O1238 O -0.08167 0.48212 0.48604
 O1239 O -0.01994 0.53108 0.42909
 O1240 O 0.02227 0.51465 0.42463
 O1241 O -0.01849 0.57427 0.49412
 O1242 O -0.00498 0.56839 0.53411
 O1243 O 0.04402 0.44743 0.48004
 O1244 O 0.02229 0.45126 0.44172
 O1245 O -0.01432 0.43841 0.53199
 O1246 O -0.05276 0.46273 0.54000
 O1247 O 0.04297 0.48882 0.54702
 O1248 O 0.05096 0.53073 0.53448
 Zr1249 Zr 0.03401 0.50357 0.51194
 O1250 O 0.01379 0.53385 0.49513
 Zr1251 Zr -0.01820 0.47793 0.53046
 O1252 O -0.04073 0.50662 0.51366
 Zr1253 Zr 0.00697 0.46131 0.47652
 O1254 O -0.01379 0.48976 0.45746
 Zr1255 Zr -0.02096 0.53982 0.51244
 O1256 O 0.00078 0.51190 0.53161
 Zr1257 Zr 0.00477 0.52393 0.45867
 O1258 O 0.02731 0.49443 0.47465
 Zr1259 Zr -0.04742 0.49768 0.47619
 O1260 O -0.02769 0.46728 0.49406
 O1261 O 0.01566 0.46986 0.51305
 O1262 O -0.02957 0.53180 0.47553
 C1263 C 0.06319 0.45633 0.49073
 C1264 C 0.02941 0.47953 0.56391
 C1265 C -0.00629 0.42167 0.51639
 C1266 C -0.07653 0.54568 0.49550
 C1267 C -0.01028 0.57972 0.47266
 C1268 C -0.04182 0.52340 0.42443
 H1269 H 0.02374 0.54909 0.49575
 H1270 H -0.01657 0.48390 0.44030
 H1271 H 0.02572 0.45627 0.52140
 H1272 H -0.05640 0.50912 0.52306
 H1273 H -0.02561 0.53867 0.56010
 H1274 H -0.04502 0.50164 0.56352
 H1275 H 0.01456 0.49937 0.41809
 H1276 H 0.03417 0.46438 0.43759
 H1277 H 0.01330 0.56671 0.53205
 H1278 H 0.03897 0.53518 0.54783
 H1279 H -0.05389 0.46465 0.44149
 H1280 H -0.02748 0.43269 0.46060
 H1281 H 0.06793 0.51792 0.48207
 H1282 H 0.04382 0.55143 0.45987
 H1283 H -0.05848 0.45316 0.52541
 H1284 H -0.08336 0.48381 0.50420
 O1285 O 0.51345 0.94312 0.01555
 O1286 O 0.50130 0.94747 -0.02668
 O1287 O 0.56586 1.00349 0.02219
 O1288 O 0.56515 1.04479 0.01956
 O1289 O 0.51001 0.99171 0.07884
 O1290 O 0.46629 1.00359 0.08106
 O1291 O 0.49243 1.07581 -0.03014
 O1292 O 0.53374 1.05869 -0.03627
 O1293 O 0.44575 1.01548 -0.04407
 O1294 O 0.44145 0.97388 -0.02642
 O1295 O 0.43675 1.06208 0.02071
 O1296 O 0.45771 1.06368 0.06064
 O1297 O 0.47338 1.08669 0.00605
 O1298 O 0.48789 1.08190 0.04994
 O1299 O 0.42309 1.03033 -0.00354
 O1300 O 0.42495 0.98375 0.00521
 O1301 O 0.47792 1.03905 -0.05626
 O1302 O 0.52157 1.02747 -0.05944
 O1303 O 0.49258 0.95357 0.05093
 O1304 O 0.45346 0.97379 0.06016
 O1305 O 0.54324 1.01297 0.06515
 O1306 O 0.54208 1.05732 0.05029
 O1307 O 0.55263 0.96960 0.00065
 O1308 O 0.53109 0.96813 -0.03855
 Zr1309 Zr 0.51393 0.97719 -0.00433
 O1310 O 0.48931 1.00093 -0.02505
 Zr1311 Zr 0.53316 1.02508 0.02933
 O1312 O 0.50985 1.05104 0.00971
 Zr1313 Zr 0.48515 0.99269 0.04823
 O1314 O 0.45952 1.01740 0.02971
 Zr1315 Zr 0.50289 1.03748 -0.02610
 O1316 O 0.52907 1.01302 -0.00767
 Zr1317 Zr 0.45471 1.00545 -0.00713
 O1318 O 0.47836 0.97904 0.01220
 Zr1319 Zr 0.47468 1.05312 0.02667
 O1320 O 0.49894 1.02919 0.04799
 O1321 O 0.52010 0.98881 0.03183
 O1322 O 0.46786 1.04176 -0.00974
 C1323 C 0.50350 0.93752 0.03631
 C1324 C 0.56976 0.98243 0.01094
 C1325 C 0.53181 1.00066 0.08172
 C1326 C 0.48122 1.09180 -0.01568
 C1327 C 0.45710 1.02859 -0.06018
 C1328 C 0.41977 1.05127 0.00828
 H1329 H 0.48749 0.99358 -0.04176
 H1330 H 0.44357 1.01819 0.03879
 H1331 H 0.53167 0.97686 0.04069
 H1332 H 0.51764 1.06759 0.00917
 H1333 H 0.54896 1.04876 -0.03119
 H1334 H 0.55968 1.05822 0.00783
 H1335 H 0.41836 0.99144 0.02067
 H1336 H 0.44691 0.96504 0.04543
 H1337 H 0.51559 1.01104 -0.06507
 H1338 H 0.54175 0.98233 -0.04261
 H1339 H 0.44604 1.05049 0.06507
 H1340 H 0.47243 1.02028 0.08580
 H1341 H 0.48449 0.94366 -0.02061
 H1342 H 0.45373 0.96931 -0.03945
 H1343 H 0.53049 1.05835 0.06450
 H1344 H 0.50240 1.08918 0.04179
 O1345 O 0.56532 0.45201 0.01336
 O1346 O 0.53832 0.44398 0.04707
 O1347 O 0.51389 0.46390 -0.04711
 O1348 O 0.48146 0.48958 -0.05629
 O1349 O 0.57352 0.51504 -0.03525
 O1350 O 0.57938 0.54871 -0.00668
 O1351 O 0.44664 0.53167 0.01657
 O1352 O 0.44366 0.49294 -0.00411
 O1353 O 0.49329 0.51552 0.07856
 O1354 O 0.53538 0.49642 0.08385
 O1355 O 0.50573 0.57873 0.03378
 O1356 O 0.52515 0.58484 -0.00645
 O1357 O 0.46820 0.56659 0.00813
 O1358 O 0.49635 0.57458 -0.02766
 O1359 O 0.51733 0.55504 0.06725
 O1360 O 0.55462 0.52627 0.07455
 O1361 O 0.45955 0.50705 0.05466
 O1362 O 0.45445 0.46987 0.02809
 O1363 O 0.58724 0.48644 0.00376
 O1364 O 0.58982 0.52661 0.02407
 O1365 O 0.53999 0.50432 -0.05842
 O1366 O 0.49882 0.52539 -0.06188
 O1367 O 0.52486 0.43968 -0.01372
 O1368 O 0.50731 0.43454 0.02635
 Zr1369 Zr 0.52800 0.46569 0.01556
 O1370 O 0.50428 0.48690 0.03932
 Zr1371 Zr 0.51096 0.50075 -0.03301
 O1372 O 0.48609 0.52319 -0.01154
 Zr1373 Zr 0.55981 0.51595 0.00126
 O1374 O 0.53716 0.53950 0.02414
 Zr1375 Zr 0.47400 0.50249 0.01885
 O1376 O 0.49627 0.47890 -0.00445
 Zr1377 Zr 0.52272 0.51819 0.05309
 O1378 O 0.54767 0.49513 0.03175
 Zr1379 Zr 0.50545 0.55293 0.00429
 O1380 O 0.52981 0.53197 -0.01950
 O1381 O 0.54191 0.48556 -0.01409
 O1382 O 0.49152 0.53327 0.03420
 C1383 C 0.58577 0.46290 0.00893
 C1384 C 0.51888 0.44256 -0.03668
 C1385 C 0.56280 0.51046 -0.05605
 C1386 C 0.44791 0.55538 0.01244
 C1387 C 0.46997 0.51148 0.07557
 C1388 C 0.51077 0.57608 0.05693
 H1389 H 0.49882 0.47599 0.05288
 H1390 H 0.54710 0.55344 0.03044
 H1391 H 0.55289 0.47489 -0.02487
 H1392 H 0.47187 0.52923 -0.02200
 H1393 H 0.44996 0.47953 -0.01552
 H1394 H 0.46576 0.49701 -0.04942
 H1395 H 0.56227 0.54113 0.06721
 H1396 H 0.58887 0.51662 0.03947
 H1397 H 0.46233 0.46203 0.04295
 H1398 H 0.49095 0.43643 0.01780
 H1399 H 0.54029 0.58546 0.00407
 H1400 H 0.56867 0.55890 -0.01821
 H1401 H 0.54967 0.45429 0.05703
 H1402 H 0.52589 0.48084 0.08404
 H1403 H 0.50932 0.54028 -0.06105
 H1404 H 0.48158 0.56735 -0.03562
 O1405 O 0.01082 -0.04281 0.44905
 O1406 O -0.02400 -0.01461 0.44121
 O1407 O 0.07054 0.00836 0.45844
 O1408 O 0.07969 0.03987 0.48327
 O1409 O 0.06211 -0.05338 0.50959
 O1410 O 0.03494 -0.05936 0.54395
 O1411 O 0.00408 0.07528 0.52578
 O1412 O 0.02547 0.07931 0.48798
 O1413 O -0.05556 0.02895 0.51065
 O1414 O -0.05926 -0.01350 0.49331
 O1415 O -0.00795 0.01456 0.57288
 O1416 O 0.03333 -0.00533 0.57854
 O1417 O 0.01630 0.05259 0.55974
 O1418 O 0.05358 0.02334 0.56727
 O1419 O -0.04224 0.00561 0.55000
 O1420 O -0.04877 -0.03267 0.52382
 O1421 O -0.03338 0.06294 0.50036
 O1422 O -0.00637 0.06901 0.46465
 O1423 O 0.02084 -0.06611 0.48331
 O1424 O 0.00380 -0.06931 0.52369
 O1425 O 0.08424 -0.01967 0.49823
 O1426 O 0.08644 0.02154 0.51885
 O1427 O 0.03676 -0.00304 0.43598
 O1428 O -0.00397 0.01641 0.43105
 Zr1429 Zr 0.00799 -0.00544 0.46194
 O1430 O -0.01623 0.01838 0.48269
 Zr1431 Zr 0.05737 0.01025 0.49502
 O1432 O 0.03534 0.03528 0.51701
 Zr1433 Zr 0.02488 -0.03897 0.51155
 O1434 O 0.00170 -0.01624 0.53469
 Zr1435 Zr 0.00361 0.04845 0.49715
 O1436 O 0.02737 0.02610 0.47397
 Zr1437 Zr -0.02854 -0.00078 0.51401
 O1438 O -0.00682 -0.02578 0.49146
 Zr1439 Zr 0.02099 0.01521 0.54688
 O1440 O 0.04524 -0.00929 0.52630
 O1441 O 0.03889 -0.02048 0.48107
 O1442 O -0.01023 0.03015 0.52794
 C1443 C 0.01510 -0.06390 0.46020
 C1444 C 0.05964 0.00304 0.43794
 C1445 C 0.08266 -0.04289 0.50452
 C1446 C 0.00952 0.07330 0.54893
 C1447 C -0.05389 0.05240 0.50531
 C1448 C -0.03140 0.01102 0.57049
 H1449 H -0.03032 0.02417 0.47197
 H1450 H -0.00393 -0.02642 0.54873
 H1451 H 0.04964 -0.03164 0.47054
 H1452 H 0.04538 0.04946 0.52258
 H1453 H 0.03720 0.07334 0.47493
 H1454 H 0.07245 0.05569 0.49042
 H1455 H -0.04144 -0.03977 0.53928
 H1456 H -0.01279 -0.06717 0.51564
 H1457 H -0.02037 0.06068 0.45643
 H1458 H 0.00498 0.03233 0.43200
 H1459 H 0.02381 -0.02088 0.57923
 H1460 H 0.04681 -0.04900 0.55321
 H1461 H -0.03332 -0.02638 0.45150
 H1462 H -0.06055 -0.00341 0.47793
 H1463 H 0.08675 0.01007 0.53330
 H1464 H 0.06081 0.03839 0.55984
 O1465 O 0.74289 0.17138 0.25726
 O1466 O 0.78300 0.17514 0.23790
 O1467 O 0.74470 0.22602 0.31517
 O1468 O 0.75003 0.26735 0.31870
 O1469 O 0.67963 0.22382 0.26659
 O1470 O 0.67169 0.23673 0.22492
 O1471 O 0.78717 0.30324 0.24391
 O1472 O 0.79921 0.28276 0.28190
 O1473 O 0.79257 0.24715 0.18941
 O1474 O 0.77425 0.20474 0.18465
 O1475 O 0.72944 0.29570 0.19483
 O1476 O 0.69094 0.29578 0.22129
 O1477 O 0.74810 0.31667 0.23202
 O1478 O 0.70679 0.31280 0.25035
 O1479 O 0.74918 0.26318 0.17451
 O1480 O 0.74124 0.21849 0.17186
 O1481 O 0.81077 0.26612 0.22232
 O1482 O 0.82038 0.25214 0.26315
 O1483 O 0.70404 0.18468 0.24436
 O1484 O 0.69080 0.20666 0.20730
 O1485 O 0.69887 0.24092 0.29999
 O1486 O 0.71489 0.28320 0.30287
 O1487 O 0.76477 0.19352 0.29495
 O1488 O 0.80015 0.19232 0.26819
 Zr1489 Zr 0.76353 0.20425 0.25751
 O1490 O 0.78078 0.22913 0.23339
 Zr1491 Zr 0.73375 0.25140 0.28679
 O1492 O 0.74975 0.27843 0.26394
 Zr1493 Zr 0.70693 0.22375 0.23864
 O1494 O 0.72174 0.24956 0.21359
 Zr1495 Zr 0.78429 0.26437 0.25066
 O1496 O 0.76979 0.23844 0.27606
 Zr1497 Zr 0.75756 0.23663 0.20256
 O1498 O 0.74146 0.20925 0.22533
 Zr1499 Zr 0.72764 0.28379 0.23189
 O1500 O 0.71002 0.25893 0.25619
 O1501 O 0.72863 0.21672 0.27011
 O1502 O 0.76272 0.27164 0.21903
 C1503 C 0.72007 0.16746 0.25159
 C1504 C 0.75663 0.20449 0.31469
 C1505 C 0.68007 0.23124 0.28929
 C1506 C 0.77105 0.32050 0.23701
 C1507 C 0.81084 0.25805 0.19988
 C1508 C 0.73856 0.28532 0.17519
 H1509 H 0.79710 0.22145 0.22846
 H1510 H 0.71032 0.25191 0.19927
 H1511 H 0.72113 0.20469 0.28158
 H1512 H 0.75161 0.29427 0.27331
 H1513 H 0.79665 0.27171 0.29636
 H1514 H 0.75949 0.28193 0.31326
 H1515 H 0.72350 0.22428 0.17088
 H1516 H 0.70436 0.19652 0.19919
 H1517 H 0.82456 0.23561 0.25543
 H1518 H 0.80622 0.20531 0.27968
 H1519 H 0.68631 0.28623 0.20631
 H1520 H 0.66860 0.25383 0.23187
 H1521 H 0.77336 0.17229 0.22251
 H1522 H 0.79043 0.20070 0.19296
 H1523 H 0.69974 0.28691 0.29270
 H1524 H 0.71628 0.31740 0.26536
 O1525 O 0.77998 0.81179 0.76066
 O1526 O 0.73767 0.81000 0.74971
 O1527 O 0.79063 0.75094 0.81216
 O1528 O 0.78435 0.70743 0.81061
 O1529 O 0.84393 0.76106 0.75439
 O1530 O 0.84538 0.75202 0.71198
 O1531 O 0.73331 0.68245 0.74148
 O1532 O 0.72443 0.69880 0.78090
 O1533 O 0.72052 0.74313 0.69336
 O1534 O 0.73620 0.78440 0.68897
 O1535 O 0.78346 0.69464 0.68518
 O1536 O 0.82404 0.69042 0.70471
 O1537 O 0.76939 0.66986 0.72246
 O1538 O 0.81442 0.67281 0.73595
 O1539 O 0.76003 0.72853 0.67149
 O1540 O 0.76952 0.77528 0.67360
 O1541 O 0.70680 0.72191 0.72683
 O1542 O 0.70733 0.73240 0.77329
 O1543 O 0.81550 0.80101 0.73960
 O1544 O 0.82233 0.78172 0.69894
 O1545 O 0.83250 0.73821 0.78779
 O1546 O 0.81585 0.69589 0.79030
 O1547 O 0.76645 0.78482 0.79959
 O1548 O 0.72577 0.78778 0.77871
 Zr1549 Zr 0.76025 0.77860 0.76139
 O1550 O 0.73895 0.75686 0.73716
 Zr1551 Zr 0.79517 0.72905 0.77997
 O1552 O 0.77435 0.70478 0.75771
 Zr1553 Zr 0.81237 0.76232 0.73136
 O1554 O 0.79371 0.73854 0.70680
 Zr1555 Zr 0.73802 0.72016 0.75123
 O1556 O 0.75765 0.74250 0.77682
 Zr1557 Zr 0.75681 0.75249 0.70269
 O1558 O 0.77605 0.77765 0.72566
 Zr1559 Zr 0.79056 0.70255 0.72248
 O1560 O 0.81272 0.72524 0.74538
 O1561 O 0.79696 0.76553 0.76650
 O1562 O 0.75391 0.71600 0.71627
 C1563 C 0.80090 0.81700 0.75098
 C1564 C 0.77852 0.77186 0.81625
 C1565 C 0.84840 0.75062 0.77542
 C1566 C 0.74749 0.66579 0.73067
 C1567 C 0.70375 0.73167 0.70513
 C1568 C 0.77104 0.70677 0.66838
 H1569 H 0.72207 0.76494 0.73552
 H1570 H 0.80259 0.73774 0.69082
 H1571 H 0.80649 0.77655 0.77760
 H1572 H 0.77403 0.68809 0.76575
 H1573 H 0.73897 0.68974 0.78861
 H1574 H 0.76637 0.71156 0.81318
 H1575 H 0.78415 0.76645 0.66594
 H1576 H 0.80816 0.79357 0.69487
 H1577 H 0.69854 0.74659 0.76459
 H1578 H 0.72298 0.77433 0.79094
 H1579 H 0.82860 0.70386 0.69314
 H1580 H 0.84940 0.73415 0.71615
 H1581 H 0.74256 0.81354 0.73246
 H1582 H 0.72395 0.78966 0.70178
 H1583 H 0.82892 0.69302 0.77761
 H1584 H 0.80606 0.66496 0.75009
 O1585 O 0.29853 0.19887 0.72470
 O1586 O 0.30293 0.22541 0.68918
 O1587 O 0.29607 0.25309 0.78396
 O1588 O 0.27236 0.28650 0.79497
 O1589 O 0.24134 0.19425 0.78063
 O1590 O 0.20546 0.18800 0.75569
 O1591 O 0.22181 0.32087 0.72490
 O1592 O 0.26239 0.32353 0.74196
 O1593 O 0.23094 0.27063 0.66393
 O1594 O 0.24811 0.22716 0.65937
 O1595 O 0.17306 0.26141 0.71605
 O1596 O 0.17196 0.24306 0.75826
 O1597 O 0.18869 0.29981 0.73903
 O1598 O 0.18394 0.27336 0.77593
 O1599 O 0.19257 0.24903 0.68054
 O1600 O 0.21791 0.21037 0.67170
 O1601 O 0.24422 0.30505 0.68454
 O1602 O 0.28148 0.31158 0.70803
 O1603 O 0.26560 0.17824 0.73992
 O1604 O 0.22395 0.17585 0.72359
 O1605 O 0.25577 0.22802 0.80152
 O1606 O 0.23733 0.27055 0.80522
 O1607 O 0.31477 0.23850 0.74871
 O1608 O 0.31583 0.25659 0.70839
 Zr1609 Zr 0.28571 0.23680 0.72274
 O1610 O 0.26270 0.26069 0.70063
 Zr1611 Zr 0.25777 0.25647 0.77435
 O1612 O 0.23350 0.28143 0.75430
 Zr1613 Zr 0.23733 0.20669 0.74386
 O1614 O 0.21204 0.22935 0.72275
 Zr1615 Zr 0.25026 0.29243 0.72119
 O1616 O 0.27585 0.26991 0.74267
 Zr1617 Zr 0.23002 0.24241 0.69111
 O1618 O 0.25452 0.21721 0.71075
 Zr1619 Zr 0.20193 0.26222 0.74262
 O1620 O 0.22491 0.23804 0.76503
 O1621 O 0.26946 0.22425 0.75511
 O1622 O 0.21789 0.27496 0.71006
 C1623 C 0.28810 0.17884 0.73188
 C1624 C 0.31539 0.24583 0.77133
 C1625 C 0.24815 0.20535 0.80056
 C1626 C 0.19906 0.31998 0.73222
 C1627 C 0.23730 0.29367 0.66476
 C1628 C 0.17310 0.25603 0.69283
 H1629 H 0.27218 0.26532 0.68581
 H1630 H 0.19735 0.21954 0.71846
 H1631 H 0.28079 0.21315 0.76521
 H1632 H 0.22900 0.29627 0.76470
 H1633 H 0.27682 0.31731 0.75210
 H1634 H 0.26455 0.30233 0.78839
 H1635 H 0.20469 0.20278 0.68156
 H1636 H 0.23197 0.17622 0.70714
 H1637 H 0.28978 0.30097 0.69520
 H1638 H 0.31610 0.27278 0.71750
 H1639 H 0.16863 0.22841 0.74756
 H1640 H 0.19675 0.19943 0.76762
 H1641 H 0.29191 0.21315 0.68131
 H1642 H 0.26316 0.23688 0.65646
 H1643 H 0.22202 0.26080 0.80622
 H1644 H 0.19311 0.28744 0.78314
 O1645 O 0.18022 0.72774 0.30538
 O1646 O 0.20922 0.69161 0.31122
 O1647 O 0.23081 0.78873 0.30571
 O1648 O 0.26265 0.80111 0.28332
 O1649 O 0.17250 0.78381 0.24837
 O1650 O 0.16926 0.75801 0.21176
 O1651 O 0.30163 0.73247 0.23642
 O1652 O 0.30122 0.74968 0.27835
 O1653 O 0.25786 0.66766 0.24288
 O1654 O 0.21447 0.66169 0.25909
 O1655 O 0.24347 0.71939 0.18439
 O1656 O 0.22235 0.76201 0.18217
 O1657 O 0.27995 0.74332 0.20144
 O1658 O 0.25171 0.78047 0.19479
 O1659 O 0.23345 0.68316 0.20361
 O1660 O 0.19791 0.67193 0.22705
 O1661 O 0.29003 0.69091 0.25621
 O1662 O 0.29480 0.71165 0.29308
 O1663 O 0.15939 0.74255 0.27121
 O1664 O 0.15846 0.72544 0.23036
 O1665 O 0.20460 0.80581 0.26391
 O1666 O 0.24610 0.81117 0.24839
 O1667 O 0.21754 0.75298 0.32371
 O1668 O 0.23767 0.71234 0.32662
 Zr1669 Zr 0.21815 0.72630 0.29502
 O1670 O 0.24410 0.70466 0.27391
 Zr1671 Zr 0.23446 0.77912 0.26779
 O1672 O 0.26058 0.75969 0.24494
 Zr1673 Zr 0.18762 0.74674 0.24497
 O1674 O 0.21172 0.72545 0.22161
 Zr1675 Zr 0.27373 0.72676 0.26286
 O1676 O 0.24958 0.74746 0.28703
 Zr1677 Zr 0.22713 0.69387 0.24062
 O1678 O 0.20021 0.71336 0.26295
 Zr1679 Zr 0.24261 0.74670 0.21281
 O1680 O 0.21716 0.76907 0.23419
 O1681 O 0.20384 0.75882 0.27777
 O1682 O 0.25767 0.71434 0.22996
 C1683 C 0.16013 0.73478 0.29373
 C1684 C 0.22400 0.77594 0.32459
 C1685 C 0.18222 0.80438 0.25542
 C1686 C 0.30032 0.73827 0.21333
 C1687 C 0.28087 0.67021 0.24901
 C1688 C 0.23932 0.69571 0.18437
 H1689 H 0.25015 0.68987 0.28367
 H1690 H 0.20232 0.72054 0.20666
 H1691 H 0.19216 0.76894 0.28833
 H1692 H 0.27438 0.77081 0.24112
 H1693 H 0.29413 0.75730 0.29367
 H1694 H 0.27884 0.79419 0.27708
 H1695 H 0.18754 0.68275 0.21582
 H1696 H 0.15970 0.70883 0.23869
 H1697 H 0.28301 0.70390 0.30446
 H1698 H 0.25275 0.72237 0.32840
 H1699 H 0.20874 0.75059 0.17826
 H1700 H 0.17907 0.77156 0.20457
 H1701 H 0.19723 0.68371 0.29987
 H1702 H 0.22552 0.65837 0.27357
 H1703 H 0.23742 0.81127 0.23215
 H1704 H 0.26501 0.78831 0.20455
 O1705 O 0.24687 0.66701 0.75146
 O1706 O 0.28684 0.66347 0.73316
 O1707 O 0.25908 0.71791 0.81213
 O1708 O 0.27185 0.75674 0.81726
 O1709 O 0.19388 0.72913 0.76497
 O1710 O 0.18757 0.74556 0.72451
 O1711 O 0.31587 0.78642 0.74301
 O1712 O 0.32425 0.76315 0.77949
 O1713 O 0.30864 0.73460 0.68593
 O1714 O 0.28322 0.69742 0.67935
 O1715 O 0.25484 0.79337 0.69492
 O1716 O 0.21939 0.80129 0.72195
 O1717 O 0.27989 0.80826 0.73281
 O1718 O 0.23761 0.81138 0.75255
 O1719 O 0.26801 0.75888 0.67283
 O1720 O 0.25157 0.71609 0.66956
 O1721 O 0.33082 0.74760 0.71929
 O1722 O 0.33787 0.72901 0.75992
 O1723 O 0.21067 0.68755 0.73950
 O1724 O 0.20088 0.71433 0.70433
 O1725 O 0.21655 0.74155 0.79830
 O1726 O 0.24075 0.77981 0.80204
 O1727 O 0.27227 0.68298 0.79065
 O1728 O 0.30745 0.67656 0.76318
 Zr1729 Zr 0.27311 0.69512 0.75349
 O1730 O 0.29439 0.71676 0.72960
 Zr1731 Zr 0.25282 0.74558 0.78483
 O1732 O 0.27390 0.76948 0.76286
 Zr1733 Zr 0.22046 0.72565 0.73633
 O1734 O 0.23970 0.74924 0.71223
 Zr1735 Zr 0.30498 0.74938 0.74827
 O1736 O 0.28591 0.72636 0.77317
 Zr1737 Zr 0.27237 0.73018 0.69968
 O1738 O 0.25182 0.70559 0.72188
 Zr1739 Zr 0.25263 0.78063 0.73164
 O1740 O 0.23046 0.75871 0.75500
 O1741 O 0.24099 0.71336 0.76709
 O1742 O 0.28464 0.76239 0.71744
 C1743 C 0.22370 0.66747 0.74535
 C1744 C 0.26654 0.69463 0.81086
 C1745 C 0.19603 0.73568 0.78783
 C1746 C 0.30349 0.80682 0.73745
 C1747 C 0.32892 0.74128 0.69641
 C1748 C 0.26102 0.78227 0.67459
 H1749 H 0.30894 0.70635 0.72389
 H1750 H 0.22852 0.75440 0.69836
 H1751 H 0.23141 0.70245 0.77806
 H1752 H 0.27907 0.78401 0.77286
 H1753 H 0.31938 0.75289 0.79384
 H1754 H 0.28475 0.76843 0.81216
 H1755 H 0.23602 0.72666 0.66794
 H1756 H 0.21204 0.70201 0.69556
 H1757 H 0.33974 0.71352 0.74979
 H1758 H 0.31560 0.68743 0.77548
 H1759 H 0.21047 0.79137 0.70943
 H1760 H 0.18787 0.76244 0.73231
 H1761 H 0.27804 0.66404 0.71698
 H1762 H 0.29799 0.68943 0.68770
 H1763 H 0.22584 0.78634 0.79280
 H1764 H 0.24928 0.81449 0.76640
 O1765 O 0.25425 0.18614 0.18968
 O1766 O 0.29252 0.17372 0.20923
 O1767 O 0.20456 0.19502 0.25144
 O1768 O 0.19948 0.21901 0.28428
 O1769 O 0.20598 0.25176 0.19288
 O1770 O 0.23252 0.28473 0.18419
 O1771 O 0.28120 0.25217 0.30912
 O1772 O 0.26140 0.21450 0.31349
 O1773 O 0.33295 0.23957 0.25100
 O1774 O 0.33069 0.22581 0.20895
 O1775 O 0.28650 0.30553 0.25202
 O1776 O 0.24537 0.31671 0.24209
 O1777 O 0.26616 0.28938 0.29302
 O1778 O 0.22564 0.30155 0.26949
 O1779 O 0.31762 0.28177 0.23393
 O1780 O 0.31625 0.25760 0.19316
 O1781 O 0.31637 0.22762 0.28759
 O1782 O 0.28953 0.19065 0.29461
 O1783 O 0.24246 0.22340 0.17147
 O1784 O 0.26225 0.26391 0.16880
 O1785 O 0.18826 0.23800 0.22827
 O1786 O 0.19323 0.25622 0.27104
 O1787 O 0.23487 0.17090 0.23245
 O1788 O 0.27815 0.16238 0.24298
 Zr1789 Zr 0.26370 0.19588 0.22616
 O1790 O 0.29199 0.21356 0.24607
 Zr1791 Zr 0.21880 0.23115 0.25275
 O1792 O 0.24509 0.24930 0.27502
 Zr1793 Zr 0.24439 0.25008 0.20052
 O1794 O 0.27082 0.27047 0.22047
 Zr1795 Zr 0.27767 0.22634 0.28012
 O1796 O 0.24976 0.20660 0.26115
 Zr1797 Zr 0.30205 0.24650 0.22781
 O1798 O 0.27651 0.22664 0.20592
 Zr1799 Zr 0.25717 0.28081 0.25572
 O1800 O 0.22919 0.26381 0.23412
 O1801 O 0.23199 0.21847 0.21866
 O1802 O 0.28946 0.25862 0.26255
 C1803 C 0.24701 0.19938 0.17090
 C1804 C 0.21353 0.17396 0.24303
 C1805 C 0.18703 0.24645 0.20594
 C1806 C 0.27516 0.27571 0.31092
 C1807 C 0.33489 0.23291 0.27374
 C1808 C 0.30864 0.30245 0.24324
 H1809 H 0.30645 0.20159 0.24815
 H1810 H 0.27523 0.28540 0.21078
 H1811 H 0.21931 0.20933 0.20918
 H1812 H 0.23729 0.25389 0.29104
 H1813 H 0.24787 0.20325 0.30879
 H1814 H 0.21075 0.22102 0.29865
 H1815 H 0.30959 0.27487 0.18956
 H1816 H 0.27697 0.25248 0.16572
 H1817 H 0.30375 0.18389 0.28469
 H1818 H 0.27165 0.16235 0.26009
 H1819 H 0.24823 0.31651 0.22401
 H1820 H 0.22343 0.29448 0.19719
 H1821 H 0.30040 0.18472 0.19700
 H1822 H 0.33112 0.20841 0.21547
 H1823 H 0.19009 0.27089 0.25999
 H1824 H 0.22122 0.29412 0.28559
 O1825 O 0.78720 0.68235 0.22913
 O1826 O 0.79612 0.70764 0.19252
 O1827 O 0.79459 0.74042 0.28600
 O1828 O 0.77445 0.77501 0.29834
 O1829 O 0.73042 0.68930 0.28419
 O1830 O 0.69275 0.69002 0.25906
 O1831 O 0.73080 0.81564 0.22735
 O1832 O 0.77292 0.81040 0.24560
 O1833 O 0.73333 0.76478 0.16645
 O1834 O 0.74410 0.71887 0.16258
 O1835 O 0.67332 0.76387 0.21817
 O1836 O 0.66994 0.74679 0.26137
 O1837 O 0.69412 0.79973 0.23952
 O1838 O 0.68492 0.77706 0.27692
 O1839 O 0.69136 0.74916 0.18270
 O1840 O 0.71071 0.70787 0.17376
 O1841 O 0.75077 0.79671 0.18769
 O1842 O 0.78768 0.79812 0.20912
 O1843 O 0.75046 0.66889 0.24398
 O1844 O 0.70963 0.67305 0.22805
 O1845 O 0.75123 0.71988 0.30425
 O1846 O 0.73805 0.76456 0.30774
 O1847 O 0.81030 0.71934 0.25248
 O1848 O 0.81514 0.73489 0.21179
 Zr1849 Zr 0.78134 0.72207 0.22614
 O1850 O 0.76283 0.74967 0.20382
 Zr1851 Zr 0.75651 0.74750 0.27704
 O1852 O 0.73617 0.77554 0.25681
 Zr1853 Zr 0.72799 0.70173 0.24729
 O1854 O 0.70711 0.72747 0.22518
 Zr1855 Zr 0.75498 0.78312 0.22397
 O1856 O 0.77685 0.75679 0.24528
 Zr1857 Zr 0.72759 0.73711 0.19369
 O1858 O 0.74709 0.70835 0.21410
 Zr1859 Zr 0.70202 0.76134 0.24487
 O1860 O 0.72086 0.73468 0.26805
 O1861 O 0.76288 0.71350 0.25853
 O1862 O 0.72030 0.77099 0.21245
 C1863 C 0.77284 0.66494 0.23642
 C1864 C 0.81252 0.72894 0.27418
 C1865 C 0.73994 0.69896 0.30372
 C1866 C 0.70751 0.81796 0.23308
 C1867 C 0.74247 0.78677 0.16776
 C1868 C 0.67274 0.75843 0.19499
 H1869 H 0.77321 0.75281 0.18917
 H1870 H 0.69107 0.72003 0.22077
 H1871 H 0.77248 0.70098 0.26876
 H1872 H 0.73386 0.79095 0.26699
 H1873 H 0.78742 0.80166 0.25382
 H1874 H 0.77046 0.79153 0.29053
 H1875 H 0.69691 0.70180 0.18393
 H1876 H 0.71678 0.67239 0.21119
 H1877 H 0.79758 0.78393 0.20177
 H1878 H 0.81840 0.75090 0.22046
 H1879 H 0.66375 0.73348 0.25034
 H1880 H 0.68728 0.70154 0.27260
 H1881 H 0.78348 0.69657 0.18541
 H1882 H 0.76034 0.72647 0.15960
 H1883 H 0.72144 0.75716 0.30878
 H1884 H 0.69704 0.78798 0.28506
 O1885 O 0.67900 0.29234 0.75405
 O1886 O 0.67275 0.26995 0.71586
 O1887 O 0.68346 0.23000 0.80597
 O1888 O 0.70734 0.19436 0.81025
 O1889 O 0.73653 0.28843 0.81054
 O1890 O 0.77293 0.29773 0.78667
 O1891 O 0.75578 0.17173 0.73663
 O1892 O 0.71525 0.16671 0.75494
 O1893 O 0.74456 0.22923 0.68395
 O1894 O 0.72598 0.27299 0.68546
 O1895 O 0.80389 0.23290 0.73547
 O1896 O 0.80603 0.24471 0.78020
 O1897 O 0.78952 0.19138 0.75195
 O1898 O 0.79563 0.21121 0.79264
 O1899 O 0.78254 0.24900 0.70219
 O1900 O 0.75649 0.28856 0.69943
 O1901 O 0.73151 0.19242 0.69982
 O1902 O 0.69618 0.18195 0.72151
 O1903 O 0.71283 0.31071 0.77083
 O1904 O 0.75391 0.31531 0.75752
 O1905 O 0.72263 0.25168 0.82587
 O1906 O 0.74251 0.21013 0.82377
 O1907 O 0.66313 0.24983 0.77392
 O1908 O 0.66010 0.23717 0.73168
 Zr1909 Zr 0.69116 0.25468 0.74753
 O1910 O 0.71340 0.23416 0.72196
 Zr1911 Zr 0.72113 0.22772 0.79502
 O1912 O 0.74510 0.20629 0.77150
 Zr1913 Zr 0.74050 0.28158 0.77215
 O1914 O 0.76488 0.26267 0.74722
 Zr1915 Zr 0.72687 0.19997 0.73770
 O1916 O 0.70174 0.21902 0.76224
 Zr1917 Zr 0.74561 0.25390 0.71447
 O1918 O 0.72205 0.27583 0.73811
 Zr1919 Zr 0.77600 0.22748 0.76207
 O1920 O 0.75365 0.24756 0.78826
 O1921 O 0.70870 0.26250 0.78094
 O1922 O 0.75864 0.21924 0.72853
 C1923 C 0.69028 0.31145 0.76257
 C1924 C 0.66365 0.23947 0.79541
 C1925 C 0.72963 0.27435 0.82843
 C1926 C 0.77901 0.17224 0.74268
 C1927 C 0.73841 0.20619 0.68183
 C1928 C 0.80266 0.24097 0.71303
 H1929 H 0.70344 0.23142 0.70679
 H1930 H 0.77927 0.27321 0.74401
 H1931 H 0.69767 0.27231 0.79238
 H1932 H 0.75019 0.19017 0.77955
 H1933 H 0.70030 0.17148 0.76487
 H1934 H 0.71662 0.17989 0.80259
 H1935 H 0.77094 0.29422 0.70913
 H1936 H 0.74752 0.31652 0.74030
 H1937 H 0.68526 0.19512 0.71365
 H1938 H 0.65987 0.22004 0.73887
 H1939 H 0.80881 0.26084 0.77171
 H1940 H 0.78095 0.28503 0.79788
 H1941 H 0.68358 0.28296 0.70923
 H1942 H 0.71163 0.26284 0.68071
 H1943 H 0.75808 0.21941 0.82536
 H1944 H 0.78656 0.19637 0.79809
 C1945 C 0.05125 1.02271 1.16131
 C1946 C 0.05804 1.01835 1.13791
 C1947 C 0.04091 1.02366 1.11700
 C1948 C 0.04903 1.02023 1.09387
 H1949 H 0.07655 1.01032 1.13407
 H1950 H 0.02150 1.02890 1.12054
 H1951 H 0.03341 1.03223 1.16519
 H1952 H 0.06853 1.01489 1.09085
 C1953 C 0.55917 0.50762 0.66354
 C1954 C 0.56344 0.49349 0.64331
 C1955 C 0.54704 0.49559 0.62135
 C1956 C 0.55290 0.48270 0.60074
 H1957 H 0.57973 0.48081 0.64234
 H1958 H 0.53059 0.50816 0.62182
 H1959 H 0.54348 0.52118 0.66350
 H1960 H 0.56972 0.47062 0.60045
 C1961 C 0.45196 -0.00614 0.67612
 C1962 C 0.44630 0.00377 0.65387
 C1963 C 0.46409 0.00271 0.63309
 C1964 C 0.45738 0.01272 0.61117
 H1965 H 0.42799 0.01261 0.65068
 H1966 H 0.48206 -0.00717 0.63537
 H1967 H 0.47075 -0.01365 0.67968
 H1968 H 0.43921 0.02232 0.60932
 C1969 C -0.04590 0.48712 1.15741
 C1970 C -0.05578 0.49360 1.13533
 C1971 C -0.04037 0.49567 1.11303
 C1972 C -0.05065 0.50375 1.09163
 H1973 H -0.07566 0.49777 1.13357
 H1974 H -0.02063 0.49042 1.11410
 H1975 H -0.02582 0.48462 1.15944
 H1976 H -0.07032 0.50937 1.09098
 C1977 C -0.09236 0.50080 0.35373
 C1978 C -0.07573 0.51706 0.36484
 C1979 C -0.07101 0.51584 0.39031
 C1980 C -0.05107 0.52835 0.40063
 H1981 H -0.06496 0.52951 0.35373
 H1982 H -0.08142 0.50318 0.40168
 H1983 H -0.10188 0.48812 0.36590
 H1984 H -0.04019 0.54001 0.38865
 C1985 C 0.41068 0.99795 -0.13194
 C1986 C 0.42301 1.01661 -0.12124
 C1987 C 0.43058 1.01512 -0.09490
 C1988 C 0.44631 1.03148 -0.08526
 H1989 H 0.42830 1.03280 -0.13178
 H1990 H 0.42441 0.99964 -0.08371
 H1991 H 0.40592 0.98211 -0.12048
 H1992 H 0.45334 1.04616 -0.09694
 C1993 C 0.57205 0.50725 -0.14606
 C1994 C 0.58263 0.51058 -0.12381
 C1995 C 0.56772 0.50893 -0.10118
 C1996 C 0.57779 0.51210 -0.07870
 H1997 H 0.60213 0.51474 -0.12202
 H1998 H 0.54811 0.50497 -0.10303
 H1999 H 0.55219 0.50412 -0.14700
 H2000 H 0.59737 0.51621 -0.07689
 C2001 C 0.06883 -0.00246 0.34810
 C2002 C 0.07949 0.00108 0.37024
 C2003 C 0.06459 -0.00027 0.39290
 C2004 C 0.07458 0.00386 0.41522
 H2005 H 0.09896 0.00546 0.37185
 H2006 H 0.04505 -0.00455 0.39121
 H2007 H 0.04900 -0.00576 0.34730
 H2008 H 0.09409 0.00829 0.41683
 C2009 C 0.13946 1.07115 0.99300
 C2010 C 0.11627 1.08081 0.99657
 C2011 C 0.09512 1.06429 1.00025
 C2012 C 0.07171 1.07398 1.00096
 H2013 H 0.11249 1.10096 0.99694
 H2014 H 0.09867 1.04410 1.00179
 H2015 H 0.14232 1.05080 0.99311
 H2016 H 0.06836 1.09411 0.99849
 C2017 C 0.63581 0.57932 0.49491
 C2018 C 0.63103 0.55601 0.50247
 C2019 C 0.60509 0.54788 0.50291
 C2020 C 0.59933 0.52496 0.51076
 H2021 H 0.64588 0.54310 0.50873
 H2022 H 0.59039 0.56102 0.49658
 H2023 H 0.62018 0.59188 0.48969
 H2024 H 0.61402 0.51179 0.51701
 C2025 C 0.67637 0.44509 0.00026
 C2026 C 0.65355 0.43783 0.00621
 C2027 C 0.63139 0.45513 0.00455
 C2028 C 0.60879 0.44680 0.00970
 H2029 H 0.65090 0.41861 0.01199
 H2030 H 0.63357 0.47460 -0.00075
 H2031 H 0.67854 0.46392 -0.00694
 H2032 H 0.60701 0.42721 0.01481
 C2033 C 0.17358 -0.05840 0.49670
 C2034 C 0.15120 -0.06658 0.50316
 C2035 C 0.12838 -0.05020 0.50084
 C2036 C 0.10585 -0.05887 0.50592
 H2037 H 0.14948 -0.08569 0.50973
 H2038 H 0.13009 -0.03081 0.49504
 H2039 H 0.17465 -0.03969 0.48884
 H2040 H 0.10436 -0.07833 0.51160
 C2041 C 0.37353 -0.08752 0.50576
 C2042 C 0.38007 -0.06527 0.51492
 C2043 C 0.40654 -0.05859 0.51587
 C2044 C 0.41302 -0.03605 0.52426
 H2045 H 0.36606 -0.05188 0.52193
 H2046 H 0.42074 -0.07198 0.50910
 H2047 H 0.38822 -0.10077 0.49974
 H2048 H 0.39858 -0.02268 0.53058
 C2049 C -0.12744 0.41122 1.00535
 C2050 C -0.12197 0.43511 1.00085
 C2051 C -0.09600 0.44313 1.00014
 C2052 C -0.09166 0.46769 1.00046
 H2053 H -0.13670 0.44926 0.99754
 H2054 H -0.08063 0.42920 1.00013
 H2055 H -0.11222 0.39735 1.00790
 H2056 H -0.10734 0.48121 1.00175
 C2057 C -0.16700 0.56080 0.48346
 C2058 C -0.14496 0.56838 0.49178
 C2059 C -0.12177 0.55302 0.48810
 C2060 C -0.10012 0.56076 0.49721
 H2061 H -0.14378 0.58633 0.50120
 H2062 H -0.12252 0.53513 0.47845
 H2063 H -0.16763 0.54342 0.47292
 H2064 H -0.09981 0.57850 0.50719
 C2065 C 0.33074 1.06521 -0.01460
 C2066 C 0.35157 1.07183 -0.00292
 C2067 C 0.37514 1.05658 -0.00413
 C2068 C 0.39514 1.06451 0.00803
 H2069 H 0.35160 1.08929 0.00747
 H2070 H 0.37614 1.03921 -0.01475
 H2071 H 0.33127 1.04845 -0.02614
 H2072 H 0.39351 1.08198 0.01849
 C2073 C 0.00143 1.17569 1.06174
 C2074 C -0.00787 1.15363 1.06825
 C2075 C -0.00627 1.13102 1.05219
 C2076 C -0.01347 1.10897 1.06109
 H2077 H -0.01639 1.15184 1.08627
 H2078 H 0.00067 1.13237 1.03345
 H2079 H 0.01145 1.17698 1.04444
 H2080 H -0.01981 1.10816 1.08011
 C2081 C 0.52811 0.64943 0.56317
 C2082 C 0.51994 0.62731 0.57070
 C2083 C 0.52125 0.60454 0.55509
 C2084 C 0.51274 0.58315 0.56409
 H2085 H 0.51180 0.62589 0.58895
 H2086 H 0.52809 0.60549 0.53628
 H2087 H 0.53773 0.65067 0.54565
 H2088 H 0.50591 0.58288 0.58297
 C2089 C -0.00309 0.65014 0.41491
 C2090 C -0.00972 0.64167 0.43708
 C2091 C -0.00596 0.61482 0.44341
 C2092 C -0.01235 0.60648 0.46568
 H2093 H -0.01776 0.65447 0.45077
 H2094 H 0.00166 0.60179 0.42965
 H2095 H 0.00596 0.63704 0.40203
 H2096 H -0.02007 0.61973 0.47921
 C2097 C 0.49125 1.15890 -0.07597
 C2098 C 0.48170 1.15174 -0.05443
 C2099 C 0.48514 1.12540 -0.04635
 C2100 C 0.47710 1.11791 -0.02432
 H2101 H 0.47205 1.16519 -0.04240
 H2102 H 0.49478 1.11202 -0.05854
 H2103 H 0.50169 1.14497 -0.08693
 H2104 H 0.46758 1.13136 -0.01213
 C2105 C 0.50393 0.35352 -0.05216
 C2106 C 0.51122 0.37578 -0.06043
 C2107 C 0.51502 0.39701 -0.04348
 C2108 C 0.51754 0.42015 -0.05255
 H2109 H 0.51407 0.37879 -0.08000
 H2110 H 0.51443 0.39399 -0.02363
 H2111 H 0.50214 0.35074 -0.03237
 H2112 H 0.51689 0.42305 -0.07244
 C2113 C -0.00134 -0.15337 0.44586
 C2114 C 0.00560 -0.13100 0.43747
 C2115 C 0.00993 -0.10964 0.45427
 C2116 C 0.01323 -0.08673 0.44489
 H2117 H 0.00793 -0.12805 0.41781
 H2118 H 0.00920 -0.11235 0.47415
 H2119 H -0.00250 -0.15630 0.46569
 H2120 H 0.01281 -0.08422 0.42495
 C2121 C 0.50907 -0.15718 0.57607
 C2122 C 0.50751 -0.13422 0.58642
 C2123 C 0.50412 -0.11147 0.57098
 C2124 C 0.50592 -0.08854 0.58093
 H2125 H 0.50948 -0.13174 0.60618
 H2126 H 0.50138 -0.11354 0.55116
 H2127 H 0.50751 -0.15854 0.55607
 H2128 H 0.50967 -0.08672 0.60060
 C2129 C 0.00365 0.37267 1.09813
 C2130 C -0.00042 0.38121 1.07394
 C2131 C 0.00114 0.40659 1.06759
 C2132 C -0.00487 0.41414 1.04350
 H2133 H -0.00568 0.36817 1.05960
 H2134 H 0.00698 0.42022 1.08122
 H2135 H 0.00661 0.38675 1.11235
 H2136 H -0.01149 0.40004 1.03069
 C2137 C 0.75379 0.29954 0.08689
 C2138 C 0.74725 0.30773 0.11080
 C2139 C 0.74591 0.29104 0.13061
 C2140 C 0.73728 0.29971 0.15361
 H2141 H 0.74236 0.32738 0.11429
 H2142 H 0.75203 0.27146 0.12822
 H2143 H 0.75462 0.27934 0.08357
 H2144 H 0.72974 0.31895 0.15507
 C2145 C 0.26759 0.79872 0.58468
 C2146 C 0.26316 0.80657 0.60792
 C2147 C 0.26450 0.78919 0.62925
 C2148 C 0.25986 0.79800 0.65210
 H2149 H 0.25820 0.82620 0.61153
 H2150 H 0.26943 0.76941 0.62632
 H2151 H 0.27121 0.77877 0.58127
 H2152 H 0.25486 0.81786 0.65454
 C2153 C 0.74169 0.69593 0.58238
 C2154 C 0.75397 0.68766 0.60259
 C2155 C 0.75601 0.70312 0.62510
 C2156 C 0.76932 0.69401 0.64431
 H2157 H 0.76297 0.66899 0.60256
 H2158 H 0.74623 0.72137 0.62621
 H2159 H 0.73407 0.71515 0.58177
 H2160 H 0.77889 0.67567 0.64266
 C2161 C 0.23277 0.19272 0.08115
 C2162 C 0.23584 0.18234 0.10491
 C2163 C 0.23792 0.19740 0.12602
 C2164 C 0.24377 0.18616 0.14883
 H2165 H 0.23793 0.16219 0.10743
 H2166 H 0.23576 0.21774 0.12455
 H2167 H 0.23255 0.21313 0.07982
 H2168 H 0.24677 0.16581 0.14947
 C2169 C 0.25015 0.19407 0.89126
 C2170 C 0.24534 0.18540 0.86850
 C2171 C 0.25024 0.20038 0.84618
 C2172 C 0.24649 0.19070 0.82362
 H2173 H 0.23778 0.16691 0.86621
 H2174 H 0.25609 0.21959 0.84823
 H2175 H 0.25910 0.21191 0.89329
 H2176 H 0.24052 0.17149 0.82200
 C2177 C 0.75028 0.68653 0.39329
 C2178 C 0.74152 0.67885 0.37143
 C2179 C 0.74583 0.69308 0.34865
 C2180 C 0.73754 0.68476 0.32686
 H2181 H 0.73125 0.66173 0.37017
 H2182 H 0.75538 0.71066 0.34980
 H2183 H 0.76175 0.70288 0.39400
 H2184 H 0.72799 0.66715 0.32602
 C2185 C 0.25469 0.83194 0.38948
 C2186 C 0.23792 0.81561 0.38173
 C2187 C 0.23697 0.80725 0.35564
 C2188 C 0.22331 0.78774 0.34930
 H2189 H 0.22560 0.80713 0.39480
 H2190 H 0.24855 0.81599 0.34198
 H2191 H 0.26753 0.83913 0.37603
 H2192 H 0.21278 0.77849 0.36349
 C2193 C 0.75634 0.33099 0.89438
 C2194 C 0.74168 0.31271 0.88677
 C2195 C 0.74091 0.30508 0.86053
 C2196 C 0.72930 0.28435 0.85384
 H2197 H 0.73102 0.30236 0.90000
 H2198 H 0.75071 0.31580 0.84687
 H2199 H 0.76783 0.34005 0.88085
 H2200 H 0.72032 0.27338 0.86789
 C2201 C 0.83288 0.38577 0.24267
 C2202 C 0.80941 0.37977 0.23758
 C2203 C 0.80221 0.35332 0.23960
 C2204 C 0.77894 0.34668 0.23467
 H2205 H 0.79552 0.39398 0.23191
 H2206 H 0.81616 0.33912 0.24540
 H2207 H 0.84610 0.37062 0.24784
 H2208 H 0.76508 0.36096 0.22890
 C2209 C 0.31338 0.89834 0.74275
 C2210 C 0.32319 0.87511 0.73870
 C2211 C 0.30735 0.85310 0.73702
 C2212 C 0.31786 0.82983 0.73675
 H2213 H 0.34315 0.87190 0.73700
 H2214 H 0.28720 0.85585 0.73721
 H2215 H 0.29323 0.90096 0.74358
 H2216 H 0.33805 0.82746 0.73749
 C2217 C 0.17371 0.89579 0.25343
 C2218 C 0.16266 0.87232 0.25279
 C2219 C 0.17716 0.85029 0.25678
 C2220 C 0.16741 0.82652 0.25342
 H2221 H 0.14310 0.87063 0.24846
 H2222 H 0.19673 0.85176 0.26160
 H2223 H 0.19380 0.89552 0.25634
 H2224 H 0.14815 0.82520 0.24743
 C2225 C 0.68443 0.40385 0.76551
 C2226 C 0.67316 0.38186 0.76364
 C2227 C 0.68736 0.35768 0.76613
 C2228 C 0.67626 0.33586 0.76244
 H2229 H 0.65345 0.38137 0.75938
 H2230 H 0.70718 0.35780 0.77021
 H2231 H 0.70446 0.40362 0.76853
 H2232 H 0.65655 0.33600 0.75776
 C2233 C 0.68546 0.60415 0.74853
 C2234 C 0.70628 0.60883 0.73610
 C2235 C 0.71594 0.63440 0.73719
 C2236 C 0.73803 0.64019 0.72781
 H2237 H 0.71643 0.59409 0.72602
 H2238 H 0.70470 0.64886 0.74664
 H2239 H 0.67665 0.61938 0.75920
 H2240 H 0.74954 0.62583 0.71856
 C2241 C 0.19444 0.08445 0.23580
 C2242 C 0.18869 0.10777 0.24384
 C2243 C 0.20495 0.12881 0.23899
 C2244 C 0.19788 0.15212 0.24609
 H2245 H 0.17144 0.11163 0.25375
 H2246 H 0.22273 0.12520 0.22993
 H2247 H 0.21094 0.08108 0.22456
 H2248 H 0.17999 0.15533 0.25510
 C2249 C 0.30643 0.08961 0.75147
 C2250 C 0.31297 0.11104 0.74074
 C2251 C 0.29612 0.13365 0.74077
 C2252 C 0.30358 0.15531 0.73131
 H2253 H 0.33121 0.11240 0.73253
 H2254 H 0.27779 0.13268 0.74899
 H2255 H 0.28853 0.08922 0.76068
 H2256 H 0.32211 0.15605 0.72346
 C2257 C 0.83401 0.59375 0.22566
 C2258 C 0.81192 0.60317 0.23334
 C2259 C 0.80470 0.63014 0.23040
 C2260 C 0.78196 0.63843 0.23725
 H2261 H 0.79875 0.59091 0.24176
 H2262 H 0.81790 0.64309 0.22307
 H2263 H 0.84638 0.60615 0.21619
 H2264 H 0.76913 0.62496 0.24439
 C2265 C 0.90068 0.26888 0.19188
 C2266 C 0.87844 0.26641 0.18087
 C2267 C 0.85539 0.26637 0.19555
 C2268 C 0.83359 0.26070 0.18514
 H2269 H 0.87711 0.26327 0.16110
 H2270 H 0.85652 0.26999 0.21530
 H2271 H 0.90147 0.27058 0.21189
 H2272 H 0.83278 0.25633 0.16553
 C2273 C 0.41910 0.74736 0.68645
 C2274 C 0.39676 0.74428 0.67587
 C2275 C 0.37398 0.74570 0.69092
 C2276 C 0.35159 0.74126 0.68113
 H2277 H 0.39511 0.73998 0.65635
 H2278 H 0.37570 0.74996 0.71050
 H2279 H 0.41998 0.75055 0.70629
 H2280 H 0.34997 0.73672 0.66160
 C2281 C 0.37803 0.26661 0.83477
 C2282 C 0.37143 0.25482 0.81397
 C2283 C 0.34543 0.25560 0.80483
 C2284 C 0.34030 0.24521 0.78292
 H2285 H 0.38547 0.24500 0.80284
 H2286 H 0.33077 0.26498 0.81558
 H2287 H 0.36389 0.27748 0.84491
 H2288 H 0.35544 0.23643 0.77232
 C2289 C 0.87656 0.75451 0.33308
 C2290 C 0.86823 0.73886 0.31402
 C2291 C 0.84332 0.73993 0.30611
 C2292 C 0.83627 0.72677 0.28492
 H2293 H 0.88112 0.72637 0.30416
 H2294 H 0.82976 0.75211 0.31564
 H2295 H 0.86267 0.76743 0.34126
 H2296 H 0.85050 0.71572 0.27502
 C2297 C 0.07129 0.75796 0.30605
 C2298 C 0.09273 0.74697 0.31426
 C2299 C 0.11513 0.74497 0.29867
 C2300 C 0.13663 0.73488 0.30769
 H2301 H 0.09395 0.73938 0.33286
 H2302 H 0.11426 0.75269 0.28009
 H2303 H 0.06983 0.76419 0.28696
 H2304 H 0.13731 0.72760 0.32645
 C2305 C 0.57482 0.26182 0.80915
 C2306 C 0.59642 0.25083 0.81689
 C2307 C 0.61873 0.24971 0.80114
 C2308 C 0.64026 0.23912 0.80953
 H2309 H 0.59786 0.24262 0.83522
 H2310 H 0.61774 0.25833 0.78295
 H2311 H 0.57318 0.26868 0.79028
 H2312 H 0.64100 0.23069 0.82781
 C2313 C 0.61239 0.72366 0.69725
 C2314 C 0.63477 0.72905 0.68845
 C2315 C 0.65812 0.72497 0.70277
 C2316 C 0.67959 0.73076 0.69220
 H2317 H 0.63596 0.73704 0.67005
 H2318 H 0.65765 0.71882 0.72188
 H2319 H 0.61100 0.71415 0.71490
 H2320 H 0.67922 0.73725 0.67315
 C2321 C 0.09549 0.24101 0.19692
 C2322 C 0.11761 0.24892 0.18948
 C2323 C 0.14099 0.24335 0.20329
 C2324 C 0.16256 0.25041 0.19377
 H2325 H 0.11872 0.25954 0.17243
 H2326 H 0.14057 0.23376 0.22098
 H2327 H 0.09462 0.22896 0.21305
 H2328 H 0.16242 0.25958 0.17581
 C2329 C -0.06913 1.00595 0.85184
 C2330 C -0.08124 1.00568 0.87352
 C2331 C -0.06686 1.00513 0.89687
 C2332 C -0.07777 1.00757 0.91904
 H2333 H -0.10136 1.00588 0.87450
 H2334 H -0.04668 1.00302 0.89580
 H2335 H -0.04889 1.00632 0.85259
 H2336 H -0.09785 1.01052 0.92023
 C2337 C 0.44228 0.48605 0.34895
 C2338 C 0.43332 0.49227 0.37130
 C2339 C 0.44917 0.48999 0.39365
 C2340 C 0.44066 0.49838 0.41549
 H2341 H 0.41428 0.49960 0.37323
 H2342 H 0.46785 0.48150 0.39220
 H2343 H 0.46180 0.48011 0.34732
 H2344 H 0.42209 0.50722 0.41654
 C2345 C 0.56523 -0.00782 0.36000
 C2346 C 0.57577 -0.00766 0.38264
 C2347 C 0.56010 -0.00646 0.40505
 C2348 C 0.57006 -0.01054 0.42755
 H2349 H 0.59581 -0.00868 0.38511
 H2350 H 0.54025 -0.00207 0.40310
 H2351 H 0.54503 -0.00828 0.35904
 H2352 H 0.58978 -0.01571 0.42925
 C2353 C 0.05496 0.51449 0.84120
 C2354 C 0.06585 0.51302 0.86356
 C2355 C 0.05116 0.51647 0.88638
 C2356 C 0.06195 0.51280 0.90855
 H2357 H 0.08563 0.50846 0.86537
 H2358 H 0.03135 0.52132 0.88501
 H2359 H 0.03490 0.51796 0.84016
 H2360 H 0.08164 0.50732 0.90958
 C2361 C 0.03712 0.48673 0.65341
 C2362 C 0.04548 0.47612 0.63239
 C2363 C 0.03052 0.47711 0.60942
 C2364 C 0.04197 0.47422 0.58765
 H2365 H 0.06458 0.46874 0.63128
 H2366 H 0.01078 0.48240 0.61013
 H2367 H 0.01860 0.49577 0.65367
 H2368 H 0.06205 0.47078 0.58729
 C2369 C 0.54182 0.98894 0.17147
 C2370 C 0.55101 0.98673 0.14857
 C2371 C 0.53515 0.99007 0.12634
 C2372 C 0.54572 0.99593 0.10489
 H2373 H 0.57101 0.98427 0.14606
 H2374 H 0.51507 0.98885 0.12767
 H2375 H 0.52210 0.99354 0.17394
 H2376 H 0.56570 0.99846 0.10444
 C2377 C 0.45161 0.49876 0.16322
 C2378 C 0.44460 0.50820 0.14121
 C2379 C 0.46215 0.50867 0.12039
 C2380 C 0.45359 0.51201 0.09730
 H2381 H 0.42538 0.51459 0.13806
 H2382 H 0.48196 0.50534 0.12383
 H2383 H 0.47039 0.49070 0.16556
 H2384 H 0.43361 0.51398 0.09402
 C2385 C -0.04701 0.00721 0.65936
 C2386 C -0.05438 0.01589 0.63705
 C2387 C -0.03785 0.01313 0.61552
 C2388 C -0.04725 0.01367 0.59253
 H2389 H -0.07313 0.02360 0.63392
 H2390 H -0.01795 0.00990 0.61852
 H2391 H -0.02887 -0.00256 0.66070
 H2392 H -0.06730 0.01556 0.58977
 C2393 C -0.17021 0.94804 0.99472
 C2394 C -0.14830 0.94288 1.00611
 C2395 C -0.12759 0.96034 1.00488
 C2396 C -0.10519 0.95371 1.01448
 H2397 H -0.14501 0.92514 1.01566
 H2398 H -0.13048 0.97829 0.99553
 H2399 H -0.17251 0.96537 0.98421
 H2400 H -0.10253 0.93547 1.02333
 C2401 C 0.34861 0.41517 0.51548
 C2402 C 0.36162 0.42988 0.50080
 C2403 C 0.38653 0.43809 0.50785
 C2404 C 0.39588 0.45785 0.49651
 H2405 H 0.35361 0.43634 0.48332
 H2406 H 0.39718 0.42799 0.52210
 H2407 H 0.35573 0.41033 0.53378
 H2408 H 0.38438 0.46850 0.48327
 C2409 C 0.35781 0.56527 0.00206
 C2410 C 0.37895 0.57539 0.00967
 C2411 C 0.40242 0.56018 0.00993
 C2412 C 0.42449 0.57077 0.01242
 H2413 H 0.37908 0.59503 0.01519
 H2414 H 0.40160 0.53994 0.00755
 H2415 H 0.35837 0.54614 -0.00507
 H2416 H 0.42539 0.59110 0.01362
 C2417 C -0.14512 0.06671 0.50398
 C2418 C -0.12227 0.07602 0.50382
 C2419 C -0.09971 0.05928 0.50581
 C2420 C -0.07692 0.06854 0.50443
 H2421 H -0.11994 0.09613 0.50255
 H2422 H -0.10180 0.03918 0.50795
 H2423 H -0.14679 0.04656 0.50631
 H2424 H -0.07506 0.08862 0.50179
 C2425 C 0.65940 0.08259 0.52496
 C2426 C 0.64682 0.06764 0.50982
 C2427 C 0.62203 0.05880 0.51642
 C2428 C 0.61327 0.03838 0.50545
 H2429 H 0.65511 0.06135 0.49250
 H2430 H 0.61108 0.06884 0.53039
 H2431 H 0.65188 0.08717 0.54309
 H2432 H 0.62511 0.02768 0.49265
 C2433 C 0.16839 0.55618 0.99525
 C2434 C 0.14378 0.56517 0.99852
 C2435 C 0.12344 0.54964 0.99756
 C2436 C 0.09992 0.56000 1.00354
 H2437 H 0.14010 0.58482 1.00307
 H2438 H 0.12590 0.52994 0.99242
 H2439 H 0.17191 0.53594 0.99398
 H2440 H 0.09861 0.57949 1.00976
 C2441 C 0.15437 0.44120 0.49541
 C2442 C 0.13138 0.43292 0.49181
 C2443 C 0.10891 0.44944 0.49509
 C2444 C 0.08662 0.44118 0.48845
 H2445 H 0.12875 0.41353 0.48657
 H2446 H 0.11061 0.46830 0.50247
 H2447 H 0.15644 0.46043 0.50166
 H2448 H 0.08548 0.42251 0.48040
 C2449 C 0.63691 0.92018 -0.00936
 C2450 C 0.62952 0.94253 0.00003
 C2451 C 0.60299 0.95091 -0.00020
 C2452 C 0.59585 0.97277 0.01033
 H2453 H 0.64291 0.95460 0.00859
 H2454 H 0.58934 0.93918 -0.00889
 H2455 H 0.62291 0.90795 -0.01670
 H2456 H 0.60978 0.98420 0.01902
 C2457 C 0.01050 0.87139 0.91542
 C2458 C -0.00557 0.88106 0.93223
 C2459 C -0.00536 0.90772 0.94003
 C2460 C -0.01769 0.91486 0.96045
 H2461 H -0.01861 0.86935 0.94146
 H2462 H 0.00564 0.92099 0.93005
 H2463 H 0.02336 0.88412 0.90713
 H2464 H -0.02749 0.90085 0.97078
 C2465 C 0.50901 0.35114 0.41650
 C2466 C 0.49072 0.36315 0.42917
 C2467 C 0.49314 0.38933 0.43774
 C2468 C 0.47733 0.39915 0.45454
 H2469 H 0.47400 0.35356 0.43395
 H2470 H 0.50892 0.39988 0.43179
 H2471 H 0.52518 0.36150 0.41127
 H2472 H 0.46253 0.38780 0.46146
 C2473 C -0.02829 0.35698 0.57505
 C2474 C -0.01658 0.36363 0.55304
 C2475 C -0.01742 0.38875 0.54544
 C2476 C -0.00673 0.39632 0.52324
 H2477 H -0.00669 0.34972 0.54176
 H2478 H -0.02654 0.40281 0.55729
 H2479 H -0.03912 0.37175 0.58457
 H2480 H 0.00135 0.38215 0.51083
 C2481 C 0.47569 0.86616 0.08485
 C2482 C 0.49164 0.87501 0.06831
 C2483 C 0.49047 0.90191 0.06153
 C2484 C 0.50487 0.91078 0.04367
 H2485 H 0.50556 0.86269 0.05960
 H2486 H 0.47743 0.91458 0.07115
 H2487 H 0.46143 0.87907 0.09233
 H2488 H 0.51730 0.89792 0.03352
 C2489 C 0.49143 0.66601 0.07243
 C2490 C 0.49989 0.64346 0.08083
 C2491 C 0.50144 0.62132 0.06433
 C2492 C 0.50900 0.59861 0.07292
 H2493 H 0.50593 0.64093 0.09981
 H2494 H 0.49622 0.62366 0.04501
 H2495 H 0.48605 0.66761 0.05307
 H2496 H 0.51398 0.59642 0.09232
 C2497 C -0.01003 0.16340 0.56423
 C2498 C -0.00119 0.14088 0.57227
 C2499 C -0.00014 0.11866 0.55587
 C2500 C 0.00801 0.09615 0.56447
 H2501 H 0.00498 0.13851 0.59129
 H2502 H -0.00605 0.12074 0.53672
 H2503 H -0.01736 0.16499 0.54550
 H2504 H 0.01367 0.09432 0.58374
 C2505 C 0.52469 0.15577 0.45513
 C2506 C 0.52862 0.13190 0.44757
 C2507 C 0.53021 0.11064 0.46506
 C2508 C 0.52870 0.08710 0.45648
 H2509 H 0.52965 0.12762 0.42797
 H2510 H 0.53070 0.11429 0.48483
 H2511 H 0.52485 0.16000 0.47479
 H2512 H 0.52694 0.08400 0.43669
 C2513 C 0.02937 0.67547 0.95311
 C2514 C 0.02627 0.65192 0.94490
 C2515 C 0.02319 0.63020 0.96145
 C2516 C 0.01598 0.60859 0.95144
 H2517 H 0.02454 0.64823 0.92530
 H2518 H 0.02685 0.63174 0.98115
 H2519 H 0.02892 0.67879 0.97295
 H2520 H 0.01205 0.60798 0.93170
 C2521 C 0.25394 0.68395 0.90015
 C2522 C 0.26175 0.67424 0.87848
 C2523 C 0.26088 0.68963 0.85582
 C2524 C 0.26814 0.67992 0.83399
 H2525 H 0.26908 0.65498 0.87730
 H2526 H 0.25382 0.70904 0.85698
 H2527 H 0.24774 0.70364 0.90089
 H2528 H 0.27494 0.66043 0.83294
 C2529 C 0.74714 0.19164 0.40423
 C2530 C 0.75621 0.18378 0.38239
 C2531 C 0.75218 0.19901 0.35984
 C2532 C 0.76103 0.19074 0.33807
 H2533 H 0.76689 0.16609 0.38097
 H2534 H 0.74155 0.21680 0.36097
 H2535 H 0.73752 0.21000 0.40530
 H2536 H 0.77146 0.17282 0.33721
 C2537 C 0.25419 0.33614 0.37764
 C2538 C 0.26715 0.31577 0.36940
 C2539 C 0.26644 0.30822 0.34305
 C2540 C 0.27829 0.28687 0.33571
 H2541 H 0.27816 0.30418 0.38224
 H2542 H 0.25499 0.31920 0.33005
 H2543 H 0.24425 0.34820 0.36436
 H2544 H 0.28896 0.27573 0.34922
 C2545 C 0.75344 0.83082 0.88253
 C2546 C 0.76724 0.81067 0.87519
 C2547 C 0.76675 0.80245 0.84909
 C2548 C 0.77909 0.78135 0.84191
 H2549 H 0.77827 0.79962 0.88843
 H2550 H 0.75585 0.81355 0.83573
 H2551 H 0.74180 0.84074 0.86888
 H2552 H 0.78978 0.77031 0.85547
 C2553 C 0.74016 0.80268 0.07745
 C2554 C 0.74280 0.81049 0.10091
 C2555 C 0.74008 0.79352 0.12227
 C2556 C 0.74394 0.80219 0.14521
 H2557 H 0.74753 0.82973 0.10473
 H2558 H 0.73521 0.77413 0.11926
 H2559 H 0.73680 0.78299 0.07393
 H2560 H 0.74926 0.82154 0.14766
 C2561 C 0.22837 0.30285 0.57430
 C2562 C 0.23665 0.31114 0.59618
 C2563 C 0.23171 0.29789 0.61947
 C2564 C 0.23801 0.30787 0.64134
 H2565 H 0.24753 0.32791 0.59691
 H2566 H 0.22394 0.27937 0.61860
 H2567 H 0.21608 0.28715 0.57360
 H2568 H 0.24545 0.32655 0.64192
 C2569 C 0.76310 0.19860 0.59482
 C2570 C 0.74771 0.19299 0.61315
 C2571 C 0.74937 0.20493 0.63762
 C2572 C 0.73850 0.19462 0.65711
 H2573 H 0.73421 0.17856 0.61035
 H2574 H 0.75962 0.22200 0.63971
 H2575 H 0.77798 0.21145 0.59813
 H2576 H 0.72926 0.17695 0.65487
 C2577 C 0.25190 0.68764 0.09432
 C2578 C 0.24563 0.67763 0.11603
 C2579 C 0.24593 0.69244 0.13915
 C2580 C 0.24079 0.68167 0.16081
 H2581 H 0.24054 0.65812 0.11694
 H2582 H 0.24995 0.71227 0.13837
 H2583 H 0.25839 0.70671 0.09392
 H2584 H 0.23686 0.66180 0.16124
 C2585 C 0.15661 0.60784 0.73046
 C2586 C 0.17928 0.61327 0.73896
 C2587 C 0.18880 0.63893 0.73773
 C2588 C 0.21194 0.64290 0.74579
 H2589 H 0.19146 0.59851 0.74671
 H2590 H 0.17713 0.65431 0.73031
 H2591 H 0.14521 0.62260 0.72156
 H2592 H 0.22329 0.62706 0.75281
 C2593 C 0.65999 0.10035 0.24380
 C2594 C 0.68123 0.10867 0.25352
 C2595 C 0.68908 0.13442 0.24834
 C2596 C 0.71186 0.14153 0.25481
 H2597 H 0.69332 0.09670 0.26496
 H2598 H 0.67604 0.14771 0.23939
 H2599 H 0.64960 0.11289 0.23125
 H2600 H 0.72492 0.12790 0.26325
 C2601 C 0.80110 0.08140 0.74019
 C2602 C 0.80655 0.10537 0.73595
 C2603 C 0.78771 0.12634 0.73701
 C2604 C 0.79552 0.14985 0.73881
 H2605 H 0.82571 0.11002 0.73258
 H2606 H 0.76801 0.12261 0.73794
 H2607 H 0.78178 0.07658 0.74238
 H2608 H 0.81543 0.15282 0.73918
 C2609 C 0.30491 0.57987 0.25253
 C2610 C 0.31076 0.60371 0.24817
 C2611 C 0.29159 0.62445 0.24784
 C2612 C 0.29854 0.64831 0.24779
 H2613 H 0.32989 0.60836 0.24487
 H2614 H 0.27198 0.62027 0.24857
 H2615 H 0.28543 0.57581 0.25509
 H2616 H 0.31828 0.65207 0.24823
 C2617 C 0.32395 0.39235 0.24064
 C2618 C 0.33250 0.36906 0.24631
 C2619 C 0.31590 0.34773 0.24494
 C2620 C 0.32506 0.32396 0.24405
 H2621 H 0.35185 0.36565 0.25172
 H2622 H 0.29588 0.35157 0.24433
 H2623 H 0.30508 0.39516 0.23349
 H2624 H 0.34507 0.32021 0.24316
 C2625 C 0.85340 0.88908 0.73596
 C2626 C 0.83401 0.87895 0.74701
 C2627 C 0.82844 0.85229 0.74341
 C2628 C 0.80821 0.84320 0.75382
 H2629 H 0.82156 0.89048 0.75846
 H2630 H 0.84069 0.84025 0.73219
 H2631 H 0.86482 0.87750 0.72352
 H2632 H 0.79607 0.85568 0.76475
 C2633 C 0.69437 0.91013 0.24431
 C2634 C 0.68694 0.88744 0.23730
 C2635 C 0.70403 0.86498 0.23510
 C2636 C 0.69395 0.84258 0.23204
 H2637 H 0.66725 0.88499 0.23383
 H2638 H 0.72399 0.86642 0.23765
 H2639 H 0.71410 0.91327 0.24653
 H2640 H 0.67377 0.84190 0.23080
 C2641 C 0.18250 0.41231 0.73416
 C2642 C 0.17461 0.38870 0.73444
 C2643 C 0.19186 0.36652 0.73135
 C2644 C 0.18323 0.34332 0.73330
 H2645 H 0.15497 0.38545 0.73684
 H2646 H 0.21155 0.36912 0.72825
 H2647 H 0.20202 0.41530 0.73050
 H2648 H 0.16356 0.34125 0.73703
 C2649 C 0.10623 0.74562 0.80578
 C2650 C 0.12972 0.73998 0.81306
 C2651 C 0.15047 0.73727 0.79535
 C2652 C 0.17396 0.73628 0.80386
 H2653 H 0.13409 0.73766 0.83254
 H2654 H 0.14666 0.73731 0.77560
 H2655 H 0.10206 0.74682 0.78612
 H2656 H 0.17728 0.73742 0.82367
 C2657 C 0.59005 0.22784 0.30399
 C2658 C 0.61358 0.22454 0.31213
 C2659 C 0.63503 0.22557 0.29534
 C2660 C 0.65790 0.22830 0.30471
 H2661 H 0.61730 0.22257 0.33181
 H2662 H 0.63202 0.22521 0.27546
 H2663 H 0.58657 0.23173 0.28454
 H2664 H 0.66032 0.22988 0.32461
 C2665 C 0.58179 0.76551 0.19063
 C2666 C 0.60371 0.76698 0.17911
 C2667 C 0.62728 0.76582 0.19315
 C2668 C 0.64906 0.76243 0.18146
 H2669 H 0.60462 0.76850 0.15917
 H2670 H 0.62671 0.76632 0.21322
 H2671 H 0.58161 0.76482 0.21071
 H2672 H 0.64934 0.76088 0.16142
 C2673 C 0.08173 0.26055 0.68570
 C2674 C 0.10415 0.26202 0.67503
 C2675 C 0.12724 0.26087 0.68996
 C2676 C 0.14943 0.25797 0.67894
 H2677 H 0.10609 0.26307 0.65517
 H2678 H 0.12607 0.26180 0.70998
 H2679 H 0.08133 0.25822 0.70567
 H2680 H 0.15027 0.25625 0.65893
 C2681 C 0.89285 0.24610 0.70075
 C2682 C 0.87041 0.24037 0.69196
 C2683 C 0.84844 0.23989 0.70812
 C2684 C 0.82554 0.24090 0.69818
 H2685 H 0.86788 0.23714 0.67228
 H2686 H 0.85095 0.23946 0.72806
 H2687 H 0.89485 0.25126 0.72009
 H2688 H 0.82338 0.24264 0.67825
 C2689 C 0.38921 0.75316 0.20257
 C2690 C 0.36800 0.74393 0.19395
 C2691 C 0.34571 0.74260 0.20952
 C2692 C 0.32346 0.73918 0.19904
 H2693 H 0.36667 0.73810 0.17474
 H2694 H 0.34735 0.74509 0.22940
 H2695 H 0.38983 0.76077 0.22121
 H2696 H 0.32195 0.73810 0.17902
 C2697 C 0.39855 0.22677 0.34001
 C2698 C 0.39208 0.22886 0.31613
 C2699 C 0.36591 0.22786 0.30779
 C2700 C 0.36039 0.23173 0.28392
 H2701 H 0.40605 0.23255 0.30237
 H2702 H 0.35129 0.22474 0.32108
 H2703 H 0.38406 0.22441 0.35364
 H2704 H 0.37537 0.23514 0.27109
 C2705 C 0.91535 0.74297 0.83838
 C2706 C 0.90686 0.75052 0.81617
 C2707 C 0.88130 0.74563 0.80774
 C2708 C 0.87358 0.75393 0.78555
 H2709 H 0.91893 0.76019 0.80369
 H2710 H 0.86888 0.73560 0.81961
 H2711 H 0.90334 0.73224 0.85010
 H2712 H 0.88635 0.76408 0.77412
   
