data_POSCAR
  _audit_creation_date              2014-09-24
  _audit_creation_method            'ToBaCCo'
  _symmetry_space_group_name_H-M    'P1'
  _symmetry_Int_Tables_number       1
  _symmetry_cell_setting            triclinic
  loop_
  _symmetry_equiv_pos_as_xyz
 x,y,z
_cell_length_a 75.6064
_cell_length_b 75.6013
_cell_length_c 75.6653
_cell_angle_alpha 89.999100
_cell_angle_beta 89.999600
_cell_angle_gamma 90.028900
loop_
  _atom_site_label
  _atom_site_type_symbol
  _atom_site_fract_x
  _atom_site_fract_y
  _atom_site_fract_z
N1 N 0.17950 0.22140 0.22564
 N2 N 0.18455 0.20768 0.23500
 C3 C 0.17320 0.20543 0.24855
 C4 C 0.16032 0.21849 0.24766
 C5 C 0.16483 0.22836 0.23289
 H6 H 0.17427 0.19506 0.25831
 H7 H 0.15801 0.23979 0.22772
 Cu8 Cu 0.20546 0.19410 0.22857
 Cu9 Cu 0.19231 0.22934 0.20480
 Cu10 Cu 0.22907 0.20498 0.19246
 N11 N 0.22588 0.18028 0.22113
 N12 N 0.23501 0.18461 0.20701
 C13 C 0.24832 0.17300 0.20487
 C14 C 0.24757 0.16063 0.21839
 C15 C 0.23308 0.16573 0.22844
 H16 H 0.25783 0.17360 0.19423
 H17 H 0.22813 0.15936 0.24022
 N18 N 0.22097 0.22603 0.17942
 N19 N 0.20697 0.23530 0.18412
 C20 C 0.20489 0.24881 0.17271
 C21 C 0.21823 0.24807 0.16016
 C22 C 0.22816 0.23340 0.16489
 H23 H 0.19442 0.25848 0.17354
 H24 H 0.23980 0.22842 0.15829
 H25 H 0.20237 0.20475 0.19833
 H26 H 0.21672 0.21944 0.21205
 N27 N 0.67965 0.72150 0.72555
 N28 N 0.68422 0.70730 0.73443
 C29 C 0.67289 0.70506 0.74799
 C30 C 0.66050 0.71860 0.74760
 C31 C 0.66528 0.72876 0.73311
 H32 H 0.67365 0.69437 0.75742
 H33 H 0.65885 0.74059 0.72834
 Cu34 Cu 0.70455 0.69314 0.72739
 Cu35 Cu 0.69256 0.72955 0.70481
 Cu36 Cu 0.72930 0.70518 0.69243
 N37 N 0.72554 0.67990 0.72051
 N38 N 0.73513 0.68470 0.70686
 C39 C 0.74874 0.67340 0.70501
 C40 C 0.74770 0.66074 0.71824
 C41 C 0.73275 0.66536 0.72783
 H42 H 0.75862 0.67439 0.69475
 H43 H 0.72749 0.65866 0.73928
 N44 N 0.72128 0.72631 0.67949
 N45 N 0.70729 0.73559 0.68421
 C46 C 0.70522 0.74911 0.67282
 C47 C 0.71856 0.74836 0.66027
 C48 C 0.72848 0.73369 0.66498
 H49 H 0.69474 0.75877 0.67364
 H50 H 0.74009 0.72869 0.65836
 H51 H 0.70247 0.70514 0.69753
 H52 H 0.71663 0.71896 0.71234
 N53 N 0.32007 0.77883 0.72567
 N54 N 0.31522 0.79275 0.73484
 C55 C 0.32661 0.79502 0.74836
 C56 C 0.33930 0.78178 0.74765
 C57 C 0.33466 0.77177 0.73300
 H58 H 0.32568 0.80552 0.75799
 H59 H 0.34130 0.76017 0.72800
 Cu60 Cu 0.29441 0.80641 0.72818
 Cu61 Cu 0.30717 0.77078 0.70490
 Cu62 Cu 0.27040 0.79518 0.69252
 N63 N 0.27388 0.82019 0.72093
 N64 N 0.26456 0.81567 0.70700
 C65 C 0.25115 0.82718 0.70494
 C66 C 0.25201 0.83974 0.71834
 C67 C 0.26671 0.83478 0.72822
 H68 H 0.24154 0.82633 0.69442
 H69 H 0.27187 0.84123 0.73986
 N70 N 0.27843 0.77402 0.67957
 N71 N 0.29242 0.76474 0.68428
 C72 C 0.29447 0.75120 0.67291
 C73 C 0.28113 0.75192 0.66037
 C74 C 0.27122 0.76662 0.66507
 H75 H 0.30495 0.74153 0.67374
 H76 H 0.25960 0.77160 0.65845
 H77 H 0.29716 0.79529 0.69807
 H78 H 0.28286 0.78091 0.71217
 N79 N 0.82087 0.27857 0.22581
 N80 N 0.81562 0.29206 0.23540
 C81 C 0.82671 0.29403 0.24919
 C82 C 0.83971 0.28104 0.24824
 C83 C 0.83543 0.27147 0.23314
 H84 H 0.82541 0.30427 0.25905
 H85 H 0.84241 0.26030 0.22764
 Cu86 Cu 0.79490 0.30586 0.22870
 Cu87 Cu 0.80900 0.27190 0.20398
 Cu88 Cu 0.77105 0.29484 0.19276
 N89 N 0.77460 0.31982 0.22121
 N90 N 0.76532 0.31535 0.20723
 C91 C 0.75200 0.32694 0.20512
 C92 C 0.75288 0.33943 0.21852
 C93 C 0.76746 0.33443 0.22847
 H94 H 0.74238 0.32624 0.19458
 H95 H 0.77249 0.34088 0.24018
 N96 N 0.77924 0.27373 0.17982
 N97 N 0.79366 0.26491 0.18414
 C98 C 0.79572 0.25131 0.17283
 C99 C 0.78198 0.25158 0.16069
 C100 C 0.77180 0.26602 0.16562
 H101 H 0.80652 0.24198 0.17338
 H102 H 0.75988 0.27067 0.15929
 H103 H 0.79748 0.29627 0.19806
 H104 H 0.78433 0.28057 0.21190
 N105 N 0.82051 0.72155 0.27445
 N106 N 0.81564 0.70762 0.26529
 C107 C 0.82699 0.70534 0.25177
 C108 C 0.83969 0.71859 0.25244
 C109 C 0.83508 0.72861 0.26708
 H110 H 0.82602 0.69483 0.24215
 H111 H 0.84175 0.74022 0.27207
 Cu112 Cu 0.79484 0.69397 0.27194
 Cu113 Cu 0.80762 0.72961 0.29522
 Cu114 Cu 0.77085 0.70517 0.30762
 N115 N 0.77434 0.68018 0.27922
 N116 N 0.76502 0.68468 0.29316
 C117 C 0.75163 0.67315 0.29521
 C118 C 0.75252 0.66065 0.28183
 C119 C 0.76718 0.66559 0.27194
 H120 H 0.74197 0.67389 0.30571
 H121 H 0.77226 0.65910 0.26028
 N122 N 0.77888 0.72633 0.32054
 N123 N 0.79287 0.73562 0.31582
 C124 C 0.79492 0.74916 0.32721
 C125 C 0.78158 0.74840 0.33975
 C126 C 0.77167 0.73370 0.33504
 H127 H 0.80540 0.75883 0.32638
 H128 H 0.76006 0.72869 0.34167
 H129 H 0.79761 0.70509 0.30204
 H130 H 0.78331 0.71946 0.28796
 N131 N 0.32054 0.22156 -0.22595
 N132 N 0.31552 0.20781 -0.23528
 C133 C 0.32688 0.20554 -0.24882
 C134 C 0.33979 0.21864 -0.24800
 C135 C 0.33522 0.22853 -0.23320
 H136 H 0.32574 0.19512 -0.25850
 H137 H 0.34197 0.23999 -0.22798
 Cu138 Cu 0.29459 0.19421 -0.22883
 Cu139 Cu 0.30770 0.22951 -0.20510
 Cu140 Cu 0.27092 0.20511 -0.19277
 N141 N 0.27413 0.18037 -0.22140
 N142 N 0.26498 0.18473 -0.20731
 C143 C 0.25166 0.17313 -0.20516
 C144 C 0.25241 0.16074 -0.21865
 C145 C 0.26691 0.16581 -0.22870
 H146 H 0.24214 0.17376 -0.19454
 H147 H 0.27187 0.15941 -0.24046
 N148 N 0.27900 0.22617 -0.17974
 N149 N 0.29300 0.23547 -0.18441
 C150 C 0.29504 0.24898 -0.17299
 C151 C 0.28167 0.24820 -0.16047
 C152 C 0.27177 0.23352 -0.16523
 H153 H 0.30550 0.25867 -0.17379
 H154 H 0.26012 0.22851 -0.15865
 H155 H 0.29764 0.20492 -0.19859
 H156 H 0.28331 0.21956 -0.21237
 N157 N 0.67956 0.27833 -0.22581
 N158 N 0.68432 0.29236 -0.23488
 C159 C 0.67301 0.29458 -0.24847
 C160 C 0.66038 0.28119 -0.24793
 C161 C 0.66509 0.27115 -0.23327
 H162 H 0.67396 0.30519 -0.25797
 H163 H 0.65857 0.25947 -0.22827
 Cu164 Cu 0.70480 0.30637 -0.22790
 Cu165 Cu 0.69243 0.27037 -0.20496
 Cu166 Cu 0.72920 0.29482 -0.19262
 N167 N 0.72566 0.31984 -0.22100
 N168 N 0.73509 0.31523 -0.20717
 C169 C 0.74860 0.32665 -0.20523
 C170 C 0.74768 0.33918 -0.21858
 C171 C 0.73289 0.33438 -0.22834
 H172 H 0.75834 0.32582 -0.19482
 H173 H 0.72774 0.34096 -0.23991
 N174 N 0.72113 0.27375 -0.17959
 N175 N 0.70715 0.26443 -0.18427
 C176 C 0.70511 0.25093 -0.17284
 C177 C 0.71847 0.25173 -0.16030
 C178 C 0.72836 0.26642 -0.16507
 H179 H 0.69466 0.24122 -0.17363
 H180 H 0.73999 0.27145 -0.15849
 H181 H 0.70241 0.29480 -0.19791
 H182 H 0.71662 0.28073 -0.21236
 N183 N 0.17969 0.77879 0.27439
 N184 N 0.18446 0.79285 0.26536
 C185 C 0.17315 0.79509 0.25178
 C186 C 0.16059 0.78170 0.25230
 C187 C 0.16524 0.77162 0.26689
 H188 H 0.17406 0.80566 0.24221
 H189 H 0.15868 0.75991 0.27176
 Cu190 Cu 0.20512 0.80656 0.27233
 Cu191 Cu 0.19254 0.77072 0.29521
 Cu192 Cu 0.22936 0.79516 0.30764
 N193 N 0.22578 0.82028 0.27930
 N194 N 0.23521 0.81567 0.29313
 C195 C 0.24873 0.82709 0.29506
 C196 C 0.24783 0.83967 0.28168
 C197 C 0.23299 0.83482 0.27195
 H198 H 0.25844 0.82616 0.30548
 H199 H 0.22780 0.84128 0.26033
 N200 N 0.22126 0.77400 0.32060
 N201 N 0.20726 0.76472 0.31587
 C202 C 0.20516 0.75120 0.32726
 C203 C 0.21847 0.75193 0.33983
 C204 C 0.22842 0.76661 0.33513
 H205 H 0.19467 0.74154 0.32642
 H206 H 0.24003 0.77160 0.34178
 H207 H 0.20262 0.79507 0.30232
 H208 H 0.21684 0.78094 0.28800
 N209 N 0.47138 0.42929 0.47570
 N210 N 0.45746 0.43414 0.48488
 C211 C 0.45520 0.42279 0.49842
 C212 C 0.46846 0.41010 0.49773
 C213 C 0.47845 0.41472 0.48307
 H214 H 0.44471 0.42374 0.50806
 H215 H 0.49005 0.40806 0.47807
 Cu216 Cu 0.44379 0.45493 0.47822
 Cu217 Cu 0.47940 0.44220 0.45491
 Cu218 Cu 0.45494 0.47893 0.44252
 N219 N 0.42998 0.47542 0.47095
 N220 N 0.43446 0.48474 0.45700
 C221 C 0.42292 0.49811 0.45494
 C222 C 0.41044 0.49722 0.46835
 C223 C 0.41540 0.48257 0.47824
 H224 H 0.42364 0.50776 0.44444
 H225 H 0.40892 0.47750 0.48991
 N226 N 0.47609 0.47093 0.42956
 N227 N 0.48540 0.45696 0.43427
 C228 C 0.49893 0.45492 0.42287
 C229 C 0.49816 0.46827 0.41032
 C230 C 0.48346 0.47815 0.41505
 H231 H 0.50861 0.44446 0.42369
 H232 H 0.47843 0.48976 0.40843
 H233 H 0.46924 0.46652 0.46216
 H234 H 0.45487 0.45220 0.44810
 N235 N -0.02848 -0.07044 0.97570
 N236 N -0.04244 -0.06561 0.98483
 C237 C -0.04472 -0.07695 0.99837
 C238 C -0.03145 -0.08961 0.99773
 C239 C -0.02141 -0.08498 0.98310
 H240 H -0.05527 -0.07603 1.00795
 H241 H -0.00980 -0.09164 0.97813
 Cu242 Cu -0.05619 -0.04491 0.97815
 Cu243 Cu -0.02055 -0.05763 0.95482
 Cu244 Cu -0.04537 -0.02129 0.94210
 N245 N -0.07010 -0.02457 0.97073
 N246 N -0.06581 -0.01545 0.95660
 C247 C -0.07737 -0.00209 0.95453
 C248 C -0.08964 -0.00279 0.96813
 C249 C -0.08457 -0.01730 0.97814
 H250 H -0.07674 0.00746 0.94393
 H251 H -0.09085 -0.02218 0.99000
 N252 N -0.02422 -0.02925 0.92915
 N253 N -0.01469 -0.04301 0.93405
 C254 C -0.00109 -0.04494 0.92272
 C255 C -0.00206 -0.03175 0.91001
 C256 C -0.01694 -0.02207 0.91458
 H257 H 0.00878 -0.05520 0.92370
 H258 H -0.02212 -0.01061 0.90784
 H259 H -0.03088 -0.03334 0.96182
 H260 H -0.04518 -0.04799 0.94802
 N261 N 1.02866 0.57055 0.97559
 N262 N 1.04243 0.56553 0.98491
 C263 C 1.04467 0.57683 0.99848
 C264 C 1.03156 0.58965 0.99769
 C265 C 1.02166 0.58517 0.98292
 H266 H 1.05509 0.57578 1.00819
 H267 H 1.01019 0.59196 0.97780
 Cu268 Cu 1.05616 0.54476 0.97837
 Cu269 Cu 1.02072 0.55781 0.95469
 Cu270 Cu 1.04380 0.51983 0.94382
 N271 N 1.07016 0.52457 0.97061
 N272 N 1.06536 0.51500 0.95695
 C273 C 1.07697 0.50170 0.95474
 C274 C 1.08981 0.50292 0.96778
 C275 C 1.08502 0.51768 0.97757
 H276 H 1.07589 0.49176 0.94455
 H277 H 1.09169 0.52292 0.98906
 N278 N 1.02364 0.52856 0.92987
 N279 N 1.01480 0.54299 0.93407
 C280 C 1.00164 0.54532 0.92230
 C281 C 1.00220 0.53170 0.91003
 C282 C 1.01640 0.52138 0.91529
 H283 H 0.99229 0.55610 0.92275
 H284 H 1.02112 0.50943 0.90905
 H285 H 1.02989 0.53385 0.96303
 H286 H 1.04495 0.54675 0.94831
 N287 N 0.52881 0.07067 0.47559
 N288 N 0.54296 0.06602 0.48453
 C289 C 0.54519 0.07732 0.49812
 C290 C 0.53171 0.08977 0.49770
 C291 C 0.52158 0.08505 0.48316
 H292 H 0.55583 0.07648 0.50761
 H293 H 0.50978 0.09152 0.47838
 Cu294 Cu 0.55705 0.04563 0.47758
 Cu295 Cu 0.52072 0.05767 0.45490
 Cu296 Cu 0.54476 0.02059 0.44290
 N297 N 0.57017 0.02455 0.47082
 N298 N 0.56522 0.01479 0.45734
 C299 C 0.57651 0.00116 0.45553
 C300 C 0.58932 0.00238 0.46858
 C301 C 0.58481 0.01744 0.47805
 H302 H 0.57544 -0.00881 0.44537
 H303 H 0.59167 0.02289 0.48932
 N304 N 0.52369 0.02863 0.42990
 N305 N 0.51459 0.04282 0.43438
 C306 C 0.50118 0.04494 0.42286
 C307 C 0.50181 0.03143 0.41048
 C308 C 0.51630 0.02136 0.41543
 H309 H 0.49170 0.05560 0.42346
 H310 H 0.52120 0.00961 0.40896
 H311 H 0.53112 0.03359 0.46269
 H312 H 0.54504 0.04744 0.44771
 N313 N -0.02894 0.07079 0.52437
 N314 N -0.04312 0.06615 0.51548
 C315 C -0.04541 0.07746 0.50191
 C316 C -0.03193 0.08991 0.50230
 C317 C -0.02174 0.08520 0.51680
 H318 H -0.05607 0.07661 0.49245
 H319 H -0.00993 0.09167 0.52155
 Cu320 Cu -0.05684 0.04554 0.52245
 Cu321 Cu -0.02076 0.05784 0.54510
 Cu322 Cu -0.04526 0.02103 0.55750
 N323 N -0.07055 0.02491 0.52938
 N324 N -0.06583 0.01533 0.54308
 C325 C -0.07721 0.00179 0.54493
 C326 C -0.08982 0.00285 0.53166
 C327 C -0.08511 0.01776 0.52205
 H328 H -0.07627 -0.00810 0.55519
 H329 H -0.09172 0.02299 0.51053
 N330 N -0.02404 0.02900 0.57037
 N331 N -0.01472 0.04298 0.56568
 C332 C -0.00119 0.04501 0.57708
 C333 C -0.00199 0.03165 0.58962
 C334 C -0.01669 0.02177 0.58488
 H335 H 0.00848 0.05549 0.57630
 H336 H -0.02174 0.01017 0.59150
 H337 H -0.03114 0.03363 0.53781
 H338 H -0.04510 0.04783 0.55235
 N339 N 0.47142 0.57054 0.02442
 N340 N 0.45749 0.56568 0.01526
 C341 C 0.45521 0.57704 0.00173
 C342 C 0.46847 0.58973 0.00240
 C343 C 0.47849 0.58510 0.01704
 H344 H 0.44470 0.57609 -0.00789
 H345 H 0.49010 0.59177 0.02203
 Cu346 Cu 0.44381 0.54489 0.02192
 Cu347 Cu 0.47946 0.55764 0.04520
 Cu348 Cu 0.45498 0.52088 0.05759
 N349 N 0.43001 0.52441 0.02918
 N350 N 0.43449 0.51507 0.04311
 C351 C 0.42295 0.50168 0.04515
 C352 C 0.41046 0.50260 0.03176
 C353 C 0.41541 0.51726 0.02188
 H354 H 0.42368 0.49202 0.05563
 H355 H 0.40892 0.52235 0.01023
 N356 N 0.47614 0.52889 0.07053
 N357 N 0.48545 0.54287 0.06582
 C358 C 0.49898 0.54491 0.07722
 C359 C 0.49821 0.53156 0.08976
 C360 C 0.48350 0.52168 0.08504
 H361 H 0.50866 0.55538 0.07640
 H362 H 0.47847 0.51006 0.09165
 H363 H 0.46927 0.53333 0.03795
 H364 H 0.45491 0.54765 0.05203
 N365 N 0.52869 -0.07050 0.02444
 N366 N 0.54267 -0.06568 0.01531
 C367 C 0.54491 -0.07700 0.00175
 C368 C 0.53159 -0.08963 0.00236
 C369 C 0.52157 -0.08501 0.01700
 H370 H 0.55545 -0.07607 -0.00785
 H371 H 0.50994 -0.09165 0.02196
 Cu372 Cu 0.55653 -0.04507 0.02214
 Cu373 Cu 0.52071 -0.05764 0.04526
 Cu374 Cu 0.54519 -0.02090 0.05767
 N375 N 0.57017 -0.02440 0.02925
 N376 N 0.56564 -0.01505 0.04316
 C377 C 0.57714 -0.00161 0.04515
 C378 C 0.58963 -0.00252 0.03177
 C379 C 0.58473 -0.01723 0.02193
 H380 H 0.57639 0.00807 0.05563
 H381 H 0.59124 -0.02234 0.01030
 N382 N 0.52407 -0.02895 0.07065
 N383 N 0.51475 -0.04293 0.06594
 C384 C 0.50123 -0.04498 0.07735
 C385 C 0.50202 -0.03164 0.08991
 C386 C 0.51672 -0.02175 0.08518
 H387 H 0.49154 -0.05544 0.07653
 H388 H 0.52176 -0.01014 0.09180
 H389 H 0.53100 -0.03339 0.03797
 H390 H 0.54521 -0.04767 0.05221
 N391 N 1.02843 0.42951 0.52413
 N392 N 1.04216 0.43456 0.51478
 C393 C 1.04441 0.42323 0.50122
 C394 C 1.03135 0.41036 0.50208
 C395 C 1.02146 0.41484 0.51686
 H396 H 1.05478 0.42432 0.49147
 H397 H 1.01002 0.40800 0.52201
 Cu398 Cu 1.05576 0.45545 0.52120
 Cu399 Cu 1.02051 0.44231 0.54499
 Cu400 Cu 1.04496 0.47901 0.55735
 N401 N 1.06963 0.47581 0.52869
 N402 N 1.06533 0.48492 0.54282
 C403 C 1.07698 0.49820 0.54498
 C404 C 1.08933 0.49744 0.53146
 C405 C 1.08420 0.48299 0.52138
 H406 H 1.07640 0.50769 0.55563
 H407 H 1.09055 0.47804 0.50959
 N408 N 1.02391 0.47095 0.57038
 N409 N 1.01459 0.45697 0.56568
 C410 C 1.00109 0.45493 0.57711
 C411 C 1.00190 0.46828 0.58965
 C412 C 1.01659 0.47816 0.58490
 H413 H 0.99138 0.44448 0.57630
 H414 H 1.02163 0.48979 0.59149
 H415 H 1.03046 0.46670 0.53774
 H416 H 1.04514 0.45230 0.55144
 C417 C 0.40124 0.00843 0.22613
 H418 H 0.40174 0.02051 0.23378
 C419 C 0.41274 0.00606 0.21188
 H420 H 0.42211 0.01637 0.20847
 C421 C 0.38860 -0.01989 0.22132
 H422 H 0.37939 -0.03009 0.22521
 C423 C 0.39988 -0.02280 0.20699
 H424 H 0.39920 -0.03516 0.19978
 N425 N 0.38932 -0.00437 0.23043
 C426 C 0.34773 0.02398 0.25877
 H427 H 0.34720 0.01635 0.27086
 C428 C 0.33634 0.03833 0.25641
 H429 H 0.32702 0.04182 0.26671
 C430 C 0.36037 0.02869 0.23047
 H431 H 0.36953 0.02474 0.22027
 C432 C 0.34919 0.04311 0.22756
 H433 H 0.34992 0.05032 0.21521
 Zn434 Zn 0.37443 -0.00020 0.25015
 N435 N 0.35960 0.01958 0.24598
 C436 C 0.38864 0.01954 0.27892
 N437 N 0.38933 0.00399 0.26986
 C438 C 0.40123 -0.00880 0.27418
 C439 C 0.41277 -0.00639 0.28840
 C440 C 0.39996 0.02249 0.29321
 C441 C 0.34764 -0.02431 0.24156
 C442 C 0.33616 -0.03860 0.24395
 C443 C 0.34902 -0.04343 0.27278
 C444 C 0.36028 -0.02906 0.26985
 N445 N 0.35955 -0.01996 0.25434
 H446 H 0.37945 0.02974 0.27502
 H447 H 0.40170 -0.02091 0.26658
 H448 H 0.42213 -0.01668 0.29182
 H449 H 0.39932 0.03488 0.30038
 H450 H 0.34711 -0.01667 0.22949
 H451 H 0.32681 -0.04205 0.23365
 H452 H 0.34973 -0.05065 0.28513
 H453 H 0.36947 -0.02514 0.28005
 C454 C 0.33712 0.04800 0.24068
 C455 C 0.41202 -0.00968 0.20220
 C456 C 0.33690 -0.04828 0.25968
 C457 C 0.41209 0.00939 0.29801
 C458 C 0.09865 -0.00879 0.72574
 H459 H 0.09816 -0.02091 0.73333
 C460 C 0.08710 -0.00636 0.71153
 H461 H 0.07773 -0.01664 0.70810
 C462 C 0.11125 0.01957 0.72105
 H463 H 0.12044 0.02977 0.72498
 C464 C 0.09993 0.02254 0.70677
 H465 H 0.10057 0.03494 0.69963
 N466 N 0.11056 0.00400 0.73008
 C467 C 0.15218 -0.02433 0.75842
 H468 H 0.15271 -0.01668 0.77050
 C469 C 0.16361 -0.03866 0.75607
 H470 H 0.17295 -0.04210 0.76637
 C471 C 0.13954 -0.02910 0.73013
 H472 H 0.13036 -0.02518 0.71993
 C473 C 0.15075 -0.04350 0.72724
 H474 H 0.15004 -0.05073 0.71490
 Zn475 Zn 0.12544 -0.00019 0.74979
 N476 N 0.14030 -0.01997 0.74563
 C477 C 0.11122 -0.01984 0.77862
 N478 N 0.11052 -0.00434 0.76948
 C479 C 0.09861 0.00847 0.77373
 C480 C 0.08710 0.00615 0.78798
 C481 C 0.09992 -0.02270 0.79295
 C482 C 0.15216 0.02401 0.74120
 C483 C 0.16354 0.03838 0.74356
 C484 C 0.15064 0.04315 0.77240
 C485 C 0.13948 0.02870 0.76949
 N486 N 0.14029 0.01959 0.75398
 H487 H 0.12040 -0.03006 0.77477
 H488 H 0.09812 0.02053 0.76604
 H489 H 0.07775 0.01646 0.79135
 H490 H 0.10058 -0.03504 0.80020
 H491 H 0.15271 0.01637 0.72911
 H492 H 0.17286 0.04188 0.73327
 H493 H 0.14990 0.05036 0.78475
 H494 H 0.13031 0.02474 0.77968
 C495 C 0.16285 -0.04835 0.74035
 C496 C 0.08780 0.00944 0.70195
 C497 C 0.16273 0.04806 0.75929
 C498 C 0.08782 -0.00956 0.79771
 C499 C 0.59885 0.49127 0.22592
 H500 H 0.59834 0.47916 0.23352
 C501 C 0.58739 0.49368 0.21165
 H502 H 0.57804 0.48339 0.20818
 C503 C 0.61148 0.51962 0.22125
 H504 H 0.62065 0.52983 0.22519
 C505 C 0.60023 0.52257 0.20690
 H506 H 0.60091 0.53496 0.19973
 N507 N 0.61074 0.50407 0.23030
 C508 C 0.65237 0.47584 0.25865
 H509 H 0.65287 0.48350 0.27072
 C510 C 0.66384 0.46156 0.25631
 H511 H 0.67318 0.45814 0.26662
 C512 C 0.63976 0.47103 0.23035
 H513 H 0.63058 0.47493 0.22014
 C514 C 0.65101 0.45667 0.22747
 H515 H 0.65033 0.44944 0.21512
 Zn516 Zn 0.62560 0.49987 0.25003
 N517 N 0.64048 0.48016 0.24585
 C518 C 0.61146 0.48014 0.27882
 N519 N 0.61072 0.49567 0.26973
 C520 C 0.59881 0.50845 0.27407
 C521 C 0.58733 0.50605 0.28834
 C522 C 0.60021 0.47720 0.29317
 C523 C 0.65235 0.52398 0.24144
 C524 C 0.66379 0.53830 0.24381
 C525 C 0.65091 0.54313 0.27264
 C526 C 0.63969 0.52873 0.26973
 N527 N 0.64046 0.51962 0.25422
 H528 H 0.62066 0.46994 0.27491
 H529 H 0.59829 0.52054 0.26645
 H530 H 0.57798 0.51633 0.29178
 H531 H 0.60091 0.46483 0.30036
 H532 H 0.65288 0.51634 0.22937
 H533 H 0.67313 0.54176 0.23352
 H534 H 0.65020 0.55034 0.28499
 H535 H 0.63051 0.52479 0.27993
 C536 C 0.66311 0.45186 0.24060
 C537 C 0.58812 0.50946 0.20204
 C538 C 0.66301 0.54799 0.25953
 C539 C 0.58808 0.49029 0.29800
 C540 C 0.90142 0.50868 0.72589
 H541 H 0.90193 0.52077 0.73351
 C542 C 0.91291 0.50629 0.71163
 H543 H 0.92226 0.51659 0.70819
 C544 C 0.88878 0.48035 0.72114
 H545 H 0.87959 0.47014 0.72505
 C546 C 0.90004 0.47742 0.70680
 H547 H 0.89936 0.46505 0.69961
 N548 N 0.88951 0.49588 0.73021
 C549 C 0.84793 0.52419 0.75852
 H550 H 0.84740 0.51655 0.77060
 C551 C 0.83650 0.53850 0.75615
 H552 H 0.82717 0.54197 0.76645
 C553 C 0.86056 0.52891 0.73022
 H554 H 0.86973 0.52497 0.72001
 C555 C 0.84935 0.54330 0.72730
 H556 H 0.85006 0.55051 0.71495
 Zn557 Zn 0.87465 0.50007 0.74992
 N558 N 0.85981 0.51982 0.74573
 C559 C 0.88884 0.51977 0.77871
 N560 N 0.88954 0.50425 0.76961
 C561 C 0.90145 0.49145 0.77391
 C562 C 0.91295 0.49381 0.78815
 C563 C 0.90012 0.52267 0.79304
 C564 C 0.84788 0.47595 0.74134
 C565 C 0.83644 0.46163 0.74371
 C566 C 0.84932 0.45682 0.77254
 C567 C 0.86054 0.47121 0.76962
 N568 N 0.85978 0.48032 0.75411
 H569 H 0.87965 0.52998 0.77483
 H570 H 0.90194 0.47937 0.76626
 H571 H 0.92230 0.48351 0.79156
 H572 H 0.89946 0.53503 0.80026
 H573 H 0.84735 0.48359 0.72926
 H574 H 0.82709 0.45817 0.73343
 H575 H 0.85004 0.44961 0.78489
 H576 H 0.86973 0.47514 0.77981
 C577 C 0.83727 0.54817 0.74042
 C578 C 0.91216 0.49053 0.70198
 C579 C 0.83721 0.45196 0.75944
 C580 C 0.91223 0.50955 0.79783
 C581 C 0.22587 0.40224 0.00854
 H582 H 0.23353 0.40274 0.02061
 C583 C 0.21156 0.41368 0.00622
 H584 H 0.20814 0.42302 0.01652
 C585 C 0.22107 0.38962 -0.01976
 H586 H 0.22498 0.38045 -0.02997
 C587 C 0.20669 0.40085 -0.02263
 H588 H 0.19947 0.40017 -0.03498
 N589 N 0.23019 0.39035 -0.00426
 C590 C 0.25842 0.34873 0.02402
 H591 H 0.27053 0.34820 0.01642
 C592 C 0.25599 0.33729 0.03831
 H593 H 0.26627 0.32794 0.04179
 C594 C 0.23009 0.36138 0.02868
 H595 H 0.21990 0.37056 0.02472
 C596 C 0.22713 0.35017 0.04304
 H597 H 0.21474 0.35088 0.05021
 Zn598 Zn 0.24988 0.37547 -0.00009
 N599 N 0.24565 0.36062 0.01963
 C600 C 0.27867 0.38965 0.01962
 N601 N 0.26960 0.39035 0.00410
 C602 C 0.27391 0.40227 -0.00868
 C603 C 0.28816 0.41378 -0.00630
 C604 C 0.29300 0.40095 0.02255
 C605 C 0.24125 0.34872 -0.02417
 C606 C 0.24361 0.33728 -0.03847
 C607 C 0.27247 0.35016 -0.04330
 C608 C 0.26957 0.36138 -0.02892
 N609 N 0.25405 0.36061 -0.01982
 H610 H 0.27476 0.38046 0.02982
 H611 H 0.26627 0.40276 -0.02076
 H612 H 0.29159 0.42314 -0.01659
 H613 H 0.30020 0.40028 0.03491
 H614 H 0.22917 0.34819 -0.01653
 H615 H 0.23331 0.32793 -0.04192
 H616 H 0.28483 0.35087 -0.05052
 H617 H 0.27977 0.37057 -0.02501
 C618 C 0.24022 0.33806 0.04793
 C619 C 0.20186 0.41292 -0.00949
 C620 C 0.25935 0.33805 -0.04815
 C621 C 0.29783 0.41306 0.00944
 C622 C 0.72624 0.09780 -0.00845
 H623 H 0.73389 0.09731 -0.02053
 C624 C 0.71200 0.08627 -0.00607
 H625 H 0.70858 0.07691 -0.01636
 C626 C 0.72148 0.11040 0.01986
 H627 H 0.72539 0.11959 0.03006
 C628 C 0.70715 0.09909 0.02278
 H629 H 0.69996 0.09975 0.03515
 N630 N 0.73055 0.10971 0.00433
 C631 C 0.75890 0.15135 -0.02392
 H632 H 0.77098 0.15188 -0.01629
 C633 C 0.75654 0.16278 -0.03824
 H634 H 0.76685 0.17212 -0.04169
 C635 C 0.73058 0.13869 -0.02867
 H636 H 0.72037 0.12951 -0.02475
 C637 C 0.72768 0.14990 -0.04306
 H638 H 0.71532 0.14918 -0.05027
 Zn639 Zn 0.75027 0.12459 0.00014
 N640 N 0.74609 0.13946 -0.01957
 C641 C 0.77905 0.11044 -0.01957
 N642 N 0.76994 0.10970 -0.00407
 C643 C 0.77425 0.09780 0.00872
 C644 C 0.78854 0.08634 0.00638
 C645 C 0.79342 0.09920 -0.02246
 C646 C 0.74178 0.15130 0.02431
 C647 C 0.74425 0.16273 0.03861
 C648 C 0.77312 0.14982 0.04325
 C649 C 0.77011 0.13862 0.02888
 N650 N 0.75454 0.13941 0.01987
 H651 H 0.77515 0.11962 -0.02978
 H652 H 0.76659 0.09729 0.02079
 H653 H 0.79196 0.07699 0.01667
 H654 H 0.80064 0.09988 -0.03481
 H655 H 0.72966 0.15185 0.01674
 H656 H 0.73399 0.17207 0.04213
 H657 H 0.78552 0.14909 0.05039
 H658 H 0.78029 0.12944 0.02489
 C659 C 0.74080 0.16200 -0.04791
 C660 C 0.70235 0.08697 0.00967
 C661 C 0.76005 0.16193 0.04819
 C662 C 0.79824 0.08711 -0.00934
 C663 C 0.22596 0.59765 0.49141
 H664 H 0.23362 0.59716 0.47934
 C665 C 0.21166 0.58619 0.49374
 H666 H 0.20823 0.57685 0.48344
 C667 C 0.22115 0.61027 0.51971
 H668 H 0.22505 0.61945 0.52992
 C669 C 0.20677 0.59902 0.52259
 H670 H 0.19954 0.59970 0.53493
 N671 N 0.23026 0.60955 0.50421
 C672 C 0.25851 0.65116 0.47589
 H673 H 0.27063 0.65170 0.48348
 C674 C 0.25607 0.66260 0.46160
 H675 H 0.26635 0.67195 0.45811
 C676 C 0.23017 0.63850 0.47128
 H677 H 0.21997 0.62932 0.47526
 C678 C 0.22719 0.64971 0.45691
 H679 H 0.21480 0.64900 0.44977
 Zn680 Zn 0.24997 0.62442 0.50004
 N681 N 0.24573 0.63927 0.48031
 C682 C 0.27877 0.61023 0.48034
 N683 N 0.26968 0.60953 0.49586
 C684 C 0.27396 0.59762 0.50864
 C685 C 0.28820 0.58609 0.50627
 C686 C 0.29309 0.59893 0.47743
 C687 C 0.24133 0.65116 0.52411
 C688 C 0.24367 0.66259 0.53843
 C689 C 0.27251 0.64971 0.54331
 C690 C 0.26963 0.63850 0.52891
 N691 N 0.25414 0.63928 0.51977
 H692 H 0.27489 0.61943 0.47014
 H693 H 0.26631 0.59713 0.52071
 H694 H 0.29159 0.57673 0.51656
 H695 H 0.30030 0.59958 0.46507
 H696 H 0.22926 0.65169 0.51645
 H697 H 0.23337 0.67192 0.54187
 H698 H 0.28485 0.64899 0.55055
 H699 H 0.27983 0.62932 0.52501
 C700 C 0.24029 0.66182 0.45201
 C701 C 0.20196 0.58693 0.50945
 C702 C 0.25939 0.66181 0.54813
 C703 C 0.29788 0.58680 0.49054
 C704 C 0.72595 0.90236 0.50857
 H705 H 0.73358 0.90284 0.52065
 C706 C 0.71172 0.91387 0.50618
 H707 H 0.70830 0.92324 0.51646
 C708 C 0.72117 0.88974 0.48025
 H709 H 0.72508 0.88055 0.47006
 C710 C 0.70687 0.90104 0.47732
 H711 H 0.69967 0.90038 0.46496
 N712 N 0.73024 0.89045 0.49578
 C713 C 0.75852 0.84889 0.52404
 H714 H 0.77060 0.84837 0.51641
 C715 C 0.75615 0.83748 0.53836
 H716 H 0.76645 0.82814 0.54182
 C717 C 0.73020 0.86154 0.52878
 H718 H 0.72000 0.87071 0.52484
 C719 C 0.72729 0.85034 0.54317
 H720 H 0.71493 0.85106 0.55038
 Zn721 Zn 0.74992 0.87560 0.49998
 N722 N 0.74572 0.86077 0.51968
 C723 C 0.77867 0.88980 0.51969
 N724 N 0.76958 0.89049 0.50417
 C725 C 0.77385 0.90240 0.49137
 C726 C 0.78809 0.91391 0.49372
 C727 C 0.79299 0.90111 0.52258
 C728 C 0.74137 0.84887 0.47590
 C729 C 0.74378 0.83745 0.46160
 C730 C 0.77264 0.85037 0.45684
 C731 C 0.76969 0.86157 0.47122
 N732 N 0.75415 0.86077 0.48028
 H733 H 0.77478 0.88062 0.52990
 H734 H 0.76619 0.90286 0.47930
 H735 H 0.79150 0.92327 0.48341
 H736 H 0.80021 0.90046 0.53493
 H737 H 0.72927 0.84832 0.48351
 H738 H 0.73350 0.82810 0.45811
 H739 H 0.78502 0.85111 0.44966
 H740 H 0.77988 0.87076 0.47518
 C741 C 0.74041 0.83826 0.54802
 C742 C 0.70208 0.91316 0.49043
 C743 C 0.75954 0.83826 0.45197
 C744 C 0.79777 0.91321 0.50944
 C745 C 0.00813 0.22594 0.40149
 H746 H 0.02026 0.23351 0.40203
 C747 C 0.00565 0.21164 0.41291
 H748 H 0.01591 0.20812 0.42227
 C749 C -0.02019 0.22134 0.38880
 H750 H -0.03036 0.22532 0.37961
 C751 C -0.02321 0.20697 0.40000
 H752 H -0.03561 0.19982 0.39927
 N753 N -0.00462 0.23035 0.38957
 C754 C 0.02387 0.25848 0.34796
 H755 H 0.01629 0.27060 0.34741
 C756 C 0.03820 0.25604 0.33656
 H757 H 0.04171 0.26630 0.32722
 C758 C 0.02847 0.23018 0.36068
 H759 H 0.02449 0.22001 0.36987
 C760 C 0.04287 0.22719 0.34950
 H761 H 0.05003 0.21480 0.35025
 Zn762 Zn -0.00029 0.25005 0.37471
 N763 N 0.01944 0.24573 0.35987
 C764 C 0.01961 0.27878 0.38877
 N765 N 0.00403 0.26977 0.38954
 C766 C -0.00873 0.27420 0.40144
 C767 C -0.00626 0.28851 0.41286
 C768 C 0.02262 0.29316 0.39997
 C769 C -0.02441 0.24158 0.34795
 C770 C -0.03871 0.24401 0.33653
 C771 C -0.04342 0.27287 0.34942
 C772 C -0.02904 0.26989 0.36063
 N773 N -0.02000 0.25434 0.35985
 H774 H 0.02979 0.27479 0.37960
 H775 H -0.02086 0.26663 0.40198
 H776 H -0.01653 0.29203 0.42220
 H777 H 0.03503 0.30030 0.39925
 H778 H -0.01682 0.22946 0.34742
 H779 H -0.04221 0.23373 0.32718
 H780 H -0.05059 0.28525 0.35016
 H781 H -0.02508 0.28007 0.36982
 C782 C 0.04780 0.24026 0.33739
 C783 C -0.01014 0.20204 0.41210
 C784 C -0.04833 0.25979 0.33731
 C785 C 0.00955 0.29809 0.41207
 C786 C -0.00837 0.72585 0.09831
 H787 H -0.02050 0.73342 0.09778
 C788 C -0.00592 0.71153 0.08691
 H789 H -0.01619 0.70802 0.07756
 C790 C 0.01995 0.72127 0.11099
 H791 H 0.03012 0.72526 0.12018
 C792 C 0.02295 0.70689 0.09980
 H793 H 0.03535 0.69975 0.10053
 N794 N 0.00439 0.73029 0.11021
 C795 C -0.02406 0.75846 0.15180
 H796 H -0.01645 0.77057 0.15235
 C797 C -0.03839 0.75604 0.16320
 H798 H -0.04189 0.76632 0.17254
 C799 C -0.02872 0.73014 0.13911
 H800 H -0.02476 0.71996 0.12992
 C801 C -0.04313 0.72718 0.15029
 H802 H -0.05032 0.71480 0.14954
 Zn803 Zn 0.00007 0.75000 0.12506
 N804 N -0.01965 0.74569 0.13991
 C805 C -0.01983 0.77871 0.11099
 N806 N -0.00425 0.76972 0.11021
 C807 C 0.00850 0.77417 0.09831
 C808 C 0.00602 0.78847 0.08689
 C809 C -0.02285 0.79309 0.09979
 C810 C 0.02420 0.74158 0.15184
 C811 C 0.03851 0.74404 0.16327
 C812 C 0.04321 0.77289 0.15034
 C813 C 0.02884 0.76988 0.13913
 N814 N 0.01980 0.75432 0.13992
 H815 H -0.03001 0.77471 0.12017
 H816 H 0.02063 0.76660 0.09776
 H817 H 0.01628 0.79200 0.07754
 H818 H -0.03526 0.80022 0.10052
 H819 H 0.01661 0.72946 0.15239
 H820 H 0.04201 0.73377 0.17262
 H821 H 0.05039 0.78527 0.14959
 H822 H 0.02487 0.78005 0.12993
 C823 C -0.04804 0.74027 0.16238
 C824 C 0.00987 0.70194 0.08771
 C825 C 0.04812 0.75982 0.16246
 C826 C -0.00978 0.79805 0.08769
 C827 C 0.49168 0.22576 0.59877
 H828 H 0.47956 0.23333 0.59824
 C829 C 0.49415 0.21149 0.58730
 H830 H 0.48388 0.20800 0.57794
 C831 C 0.52000 0.22114 0.61144
 H832 H 0.53018 0.22510 0.62063
 C833 C 0.52301 0.20680 0.60018
 H834 H 0.53541 0.19966 0.60089
 N835 N 0.50443 0.23016 0.61069
 C836 C 0.47585 0.25836 0.65229
 H837 H 0.48344 0.27048 0.65287
 C838 C 0.46148 0.25591 0.66365
 H839 H 0.45794 0.26619 0.67297
 C840 C 0.47127 0.23005 0.63959
 H841 H 0.47527 0.21987 0.63041
 C842 C 0.45682 0.22706 0.65072
 H843 H 0.44965 0.21468 0.64995
 Zn844 Zn 0.50013 0.24990 0.62557
 N845 N 0.48033 0.24560 0.64041
 C846 C 0.48029 0.27866 0.61138
 N847 N 0.49586 0.26963 0.61065
 C848 C 0.50862 0.27402 0.59874
 C849 C 0.50617 0.28828 0.58725
 C850 C 0.47730 0.29299 0.60010
 C851 C 0.52437 0.24145 0.65233
 C852 C 0.53874 0.24389 0.66369
 C853 C 0.54343 0.27273 0.65074
 C854 C 0.52899 0.26975 0.63960
 N855 N 0.51991 0.25421 0.64043
 H856 H 0.47011 0.27471 0.62057
 H857 H 0.52074 0.26643 0.59823
 H858 H 0.51645 0.29174 0.57789
 H859 H 0.46490 0.30013 0.60078
 H860 H 0.51678 0.22933 0.65290
 H861 H 0.54227 0.23362 0.67302
 H862 H 0.55062 0.28511 0.64996
 H863 H 0.52501 0.27992 0.63041
 C864 C 0.45184 0.24014 0.66282
 C865 C 0.50994 0.20190 0.58805
 C866 C 0.54839 0.25966 0.66285
 C867 C 0.49038 0.29788 0.58797
 C868 C 0.50842 0.72593 0.90157
 H869 H 0.52054 0.73353 0.90210
 C870 C 0.50600 0.71162 0.91301
 H871 H 0.51629 0.70814 0.92235
 C872 C 0.48010 0.72125 0.88892
 H873 H 0.46992 0.72520 0.87973
 C874 C 0.47714 0.70687 0.90013
 H875 H 0.46476 0.69969 0.89942
 N876 N 0.49566 0.73031 0.88967
 C877 C 0.52409 0.75853 0.84805
 H878 H 0.51649 0.77064 0.84750
 C879 C 0.53842 0.75610 0.83665
 H880 H 0.54193 0.76639 0.82731
 C881 C 0.52872 0.73022 0.86073
 H882 H 0.52475 0.72004 0.86992
 C883 C 0.54312 0.72725 0.84955
 H884 H 0.55029 0.71487 0.85029
 Zn885 Zn 0.49993 0.75005 0.87480
 N886 N 0.51967 0.74577 0.85994
 C887 C 0.51981 0.77881 0.88890
 N888 N 0.50424 0.76978 0.88967
 C889 C 0.49149 0.77419 0.90158
 C890 C 0.49395 0.78848 0.91303
 C891 C 0.52282 0.79318 0.90013
 C892 C 0.47575 0.74157 0.84806
 C893 C 0.46142 0.74400 0.83665
 C894 C 0.45673 0.77286 0.84956
 C895 C 0.47113 0.76988 0.86075
 N896 N 0.48018 0.75433 0.85995
 H897 H 0.52998 0.77485 0.87972
 H898 H 0.47936 0.76660 0.90212
 H899 H 0.48369 0.79197 0.92238
 H900 H 0.53521 0.80033 0.89941
 H901 H 0.48334 0.72946 0.84751
 H902 H 0.45792 0.73373 0.82731
 H903 H 0.44956 0.78524 0.85031
 H904 H 0.47510 0.78006 0.86993
 C905 C 0.54804 0.74034 0.83745
 C906 C 0.49023 0.70197 0.91223
 C907 C 0.45180 0.75978 0.83746
 C908 C 0.50975 0.79808 0.91226
 C909 C 0.12812 0.21284 0.28587
 C910 C 0.11646 0.22691 0.28299
 C911 C 0.11908 0.23820 0.26859
 C912 C 0.13330 0.23546 0.25711
 C913 C 0.14516 0.22135 0.25985
 C914 C 0.14235 0.21007 0.27440
 C915 C 0.10178 0.22975 0.29477
 C916 C 0.08945 0.23217 0.30458
 C917 C 0.07498 0.23501 0.31601
 C918 C 0.06260 0.23742 0.32576
 H919 H 0.12621 0.20401 0.29698
 H920 H 0.11013 0.24913 0.26623
 H921 H 0.13491 0.24446 0.24613
 H922 H 0.15110 0.19907 0.27702
 C923 C 0.61973 0.73877 0.76903
 C924 C 0.61678 0.72714 0.78309
 C925 C 0.62811 0.71274 0.78562
 C926 C 0.64232 0.70995 0.77412
 C927 C 0.64543 0.72155 0.75989
 C928 C 0.63392 0.73602 0.75751
 C929 C 0.60209 0.72996 0.79487
 C930 C 0.58975 0.73235 0.80467
 C931 C 0.57525 0.73515 0.81609
 C932 C 0.56286 0.73753 0.82583
 H933 H 0.61104 0.74996 0.76694
 H934 H 0.62595 0.70364 0.79647
 H935 H 0.65080 0.69868 0.77646
 H936 H 0.63577 0.74527 0.74678
 C937 C 0.37163 0.78744 0.78577
 C938 C 0.38309 0.77318 0.78307
 C939 C 0.38027 0.76173 0.76883
 C940 C 0.36608 0.76451 0.75732
 C941 C 0.35443 0.77883 0.75988
 C942 C 0.35741 0.79026 0.77428
 C943 C 0.39777 0.77030 0.79485
 C944 C 0.41011 0.76787 0.80465
 C945 C 0.42460 0.76501 0.81608
 C946 C 0.43699 0.76260 0.82583
 H947 H 0.37368 0.79640 0.79676
 H948 H 0.38907 0.75064 0.76660
 H949 H 0.36433 0.75539 0.74647
 H950 H 0.34882 0.80142 0.77675
 C951 C -0.11951 0.26174 0.26840
 C952 C -0.11697 0.27294 0.28287
 C953 C -0.12879 0.28683 0.28588
 C954 C -0.14310 0.28952 0.27450
 C955 C -0.14588 0.27833 0.25981
 C956 C -0.13379 0.26437 0.25697
 C957 C -0.10226 0.27016 0.29461
 C958 C -0.08992 0.26779 0.30442
 C959 C -0.07546 0.26499 0.31588
 C960 C -0.06309 0.26261 0.32565
 H961 H -0.11042 0.25093 0.26594
 H962 H -0.12693 0.29561 0.29705
 H963 H -0.15187 0.30044 0.27735
 H964 H -0.13519 0.25536 0.24598
 C965 C -0.11937 0.73856 0.23112
 C966 C -0.11662 0.72707 0.21690
 C967 C -0.12810 0.71280 0.21427
 C968 C -0.14229 0.71002 0.22580
 C969 C -0.14521 0.72149 0.24018
 C970 C -0.13354 0.73581 0.24267
 C971 C -0.10198 0.72990 0.20508
 C972 C -0.08967 0.73228 0.19524
 C973 C -0.07521 0.73509 0.18378
 C974 C -0.06283 0.73747 0.17402
 H975 H -0.11056 0.74966 0.23329
 H976 H -0.12609 0.70381 0.20330
 H977 H -0.15090 0.69886 0.22337
 H978 H -0.13526 0.74497 0.25350
 C979 C 0.38041 0.23815 0.73158
 C980 C 0.38303 0.22685 0.71720
 C981 C 0.37134 0.21280 0.71436
 C982 C 0.35708 0.21004 0.72582
 C983 C 0.35422 0.22134 0.74042
 C984 C 0.36618 0.23545 0.74308
 C985 C 0.39773 0.22966 0.70541
 C986 C 0.41008 0.23206 0.69559
 C987 C 0.42458 0.23489 0.68415
 C988 C 0.43700 0.23730 0.67442
 H989 H 0.38939 0.24908 0.73392
 H990 H 0.37324 0.20394 0.70326
 H991 H 0.34841 0.19901 0.72309
 H992 H 0.36472 0.24455 0.75400
 C993 C 0.62002 0.26142 0.73140
 C994 C 0.61723 0.27290 0.71719
 C995 C 0.62874 0.28712 0.71453
 C996 C 0.64298 0.28989 0.72600
 C997 C 0.64601 0.27843 0.74043
 C998 C 0.63424 0.26412 0.74291
 C999 C 0.60252 0.27009 0.70541
 C1000 C 0.59017 0.26770 0.69560
 C1001 C 0.57566 0.26488 0.68417
 C1002 C 0.56324 0.26249 0.67445
 H1003 H 0.61118 0.25035 0.73361
 H1004 H 0.62671 0.29611 0.70356
 H1005 H 0.65152 0.30106 0.72341
 H1006 H 0.63583 0.25491 0.75370
 C1007 C 0.12835 0.78739 0.21411
 C1008 C 0.11686 0.77314 0.21680
 C1009 C 0.11964 0.76167 0.23103
 C1010 C 0.13383 0.76444 0.24255
 C1011 C 0.14551 0.77875 0.24001
 C1012 C 0.14257 0.79019 0.22561
 C1013 C 0.10217 0.77029 0.20503
 C1014 C 0.08983 0.76788 0.19523
 C1015 C 0.07533 0.76504 0.18381
 C1016 C 0.06293 0.76265 0.17409
 H1017 H 0.12632 0.79635 0.20312
 H1018 H 0.11082 0.75059 0.23325
 H1019 H 0.13553 0.75533 0.25342
 H1020 H 0.15117 0.80134 0.22315
 C1021 C 0.26849 0.11972 0.23883
 C1022 C 0.28264 0.11664 0.22733
 C1023 C 0.28533 0.12787 0.21290
 C1024 C 0.27394 0.14214 0.20996
 C1025 C 0.25965 0.14541 0.22146
 C1026 C 0.25708 0.13398 0.23594
 C1027 C 0.29437 0.10194 0.23031
 C1028 C 0.30418 0.08961 0.23276
 C1029 C 0.31566 0.07516 0.23557
 C1030 C 0.32545 0.06279 0.23792
 H1031 H 0.26627 0.11110 0.25005
 H1032 H 0.29624 0.12561 0.20389
 H1033 H 0.27644 0.15054 0.19868
 H1034 H 0.24629 0.13596 0.24509
 C1035 C 0.76842 0.61961 0.73843
 C1036 C 0.78288 0.61687 0.72724
 C1037 C 0.78590 0.62844 0.71314
 C1038 C 0.77450 0.64269 0.71021
 C1039 C 0.75987 0.64561 0.72137
 C1040 C 0.75700 0.63386 0.73553
 C1041 C 0.79458 0.60215 0.73017
 C1042 C 0.80438 0.58980 0.73258
 C1043 C 0.81583 0.57533 0.73535
 C1044 C 0.82560 0.56295 0.73768
 H1045 H 0.76595 0.61073 0.74939
 H1046 H 0.79706 0.62643 0.70438
 H1047 H 0.77723 0.65135 0.69917
 H1048 H 0.74595 0.63557 0.74444
 C1049 C 0.76848 0.38029 0.76119
 C1050 C 0.78278 0.38321 0.77256
 C1051 C 0.78564 0.37178 0.78680
 C1052 C 0.77426 0.35748 0.78969
 C1053 C 0.75981 0.35438 0.77835
 C1054 C 0.75708 0.36600 0.76405
 C1055 C 0.79448 0.39795 0.76965
 C1056 C 0.80427 0.41031 0.76726
 C1057 C 0.81574 0.42479 0.76451
 C1058 C 0.82553 0.43717 0.76219
 H1059 H 0.76613 0.38907 0.75012
 H1060 H 0.79667 0.37392 0.79569
 H1061 H 0.77688 0.34894 0.80084
 H1062 H 0.74616 0.36415 0.75501
 C1063 C 0.28529 -0.12847 0.28704
 C1064 C 0.28243 -0.11705 0.27280
 C1065 C 0.26812 -0.11999 0.26147
 C1066 C 0.25669 -0.13425 0.26436
 C1067 C 0.25937 -0.14592 0.27870
 C1068 C 0.27391 -0.14275 0.28999
 C1069 C 0.29414 -0.10231 0.26987
 C1070 C 0.30394 -0.08995 0.26747
 C1071 C 0.31542 -0.07546 0.26471
 C1072 C 0.32521 -0.06307 0.26241
 H1073 H 0.29634 -0.12632 0.29591
 H1074 H 0.26578 -0.11122 0.25039
 H1075 H 0.24581 -0.13597 0.25527
 H1076 H 0.27665 -0.15117 0.30119
 C1077 C 0.23174 -0.11990 0.73848
 C1078 C 0.21742 -0.11700 0.72716
 C1079 C 0.21456 -0.12842 0.71293
 C1080 C 0.22595 -0.14268 0.70997
 C1081 C 0.24050 -0.14583 0.72127
 C1082 C 0.24317 -0.13415 0.73559
 C1083 C 0.20569 -0.10228 0.73012
 C1084 C 0.19586 -0.08996 0.73254
 C1085 C 0.18436 -0.07550 0.73530
 C1086 C 0.17455 -0.06314 0.73762
 H1087 H 0.23409 -0.11113 0.74956
 H1088 H 0.20351 -0.12630 0.70406
 H1089 H 0.22319 -0.15113 0.69880
 H1090 H 0.25406 -0.13585 0.74469
 C1091 C 0.73194 0.38033 0.23894
 C1092 C 0.71773 0.38333 0.22750
 C1093 C 0.71498 0.37203 0.21312
 C1094 C 0.72640 0.35779 0.21018
 C1095 C 0.74077 0.35462 0.22160
 C1096 C 0.74338 0.36610 0.23603
 C1097 C 0.70599 0.39802 0.23045
 C1098 C 0.69616 0.41034 0.23285
 C1099 C 0.68465 0.42477 0.23559
 C1100 C 0.67483 0.43711 0.23789
 H1101 H 0.73419 0.38900 0.25012
 H1102 H 0.70402 0.37423 0.20417
 H1103 H 0.72386 0.34934 0.19894
 H1104 H 0.75422 0.36418 0.24514
 C1105 C 0.71454 0.62809 0.28708
 C1106 C 0.71742 0.61669 0.27281
 C1107 C 0.73174 0.61962 0.26148
 C1108 C 0.74315 0.63388 0.26440
 C1109 C 0.74042 0.64546 0.27872
 C1110 C 0.72593 0.64235 0.29003
 C1111 C 0.70571 0.60197 0.26984
 C1112 C 0.69592 0.58962 0.26740
 C1113 C 0.68446 0.57515 0.26461
 C1114 C 0.67468 0.56277 0.26228
 H1115 H 0.70349 0.62594 0.29594
 H1116 H 0.73409 0.61087 0.25039
 H1117 H 0.75408 0.63573 0.25538
 H1118 H 0.72330 0.65088 0.30119
 C1119 C 0.21458 0.12802 0.78693
 C1120 C 0.21724 0.11675 0.77252
 C1121 C 0.23139 0.11979 0.76101
 C1122 C 0.24284 0.13405 0.76387
 C1123 C 0.24029 0.14552 0.77832
 C1124 C 0.22599 0.14229 0.78982
 C1125 C 0.20549 0.10204 0.76959
 C1126 C 0.19566 0.08971 0.76717
 C1127 C 0.18417 0.07525 0.76439
 C1128 C 0.17438 0.06287 0.76205
 H1129 H 0.20367 0.12578 0.79594
 H1130 H 0.23360 0.11114 0.74981
 H1131 H 0.25363 0.13600 0.75470
 H1132 H 0.22351 0.15072 0.80109
 C1133 C 0.23838 0.26921 0.11923
 C1134 C 0.22696 0.28348 0.11642
 C1135 C 0.21270 0.28622 0.12786
 C1136 C 0.20984 0.27474 0.14206
 C1137 C 0.22124 0.26030 0.14505
 C1138 C 0.23556 0.25771 0.13342
 C1139 C 0.22984 0.29526 0.10176
 C1140 C 0.23224 0.30510 0.08945
 C1141 C 0.23504 0.31659 0.07502
 C1142 C 0.23742 0.32638 0.06268
 H1143 H 0.24947 0.26697 0.11044
 H1144 H 0.20377 0.29723 0.12580
 H1145 H 0.19869 0.27726 0.15063
 H1146 H 0.24465 0.24682 0.13518
 C1147 C 0.73867 0.76944 0.61930
 C1148 C 0.72726 0.78371 0.61650
 C1149 C 0.71300 0.78646 0.62794
 C1150 C 0.71016 0.77500 0.64215
 C1151 C 0.72156 0.76057 0.64514
 C1152 C 0.73586 0.75795 0.63350
 C1153 C 0.73014 0.79549 0.60185
 C1154 C 0.73254 0.80533 0.58955
 C1155 C 0.73532 0.81681 0.57513
 C1156 C 0.73766 0.82660 0.56278
 H1157 H 0.74975 0.76718 0.61050
 H1158 H 0.70407 0.79747 0.62587
 H1159 H 0.69900 0.77752 0.65071
 H1160 H 0.74495 0.74706 0.63525
 C1161 C 0.76142 0.76947 0.38068
 C1162 C 0.77283 0.78375 0.38350
 C1163 C 0.78710 0.78653 0.37206
 C1164 C 0.78996 0.77506 0.35786
 C1165 C 0.77856 0.76061 0.35486
 C1166 C 0.76425 0.75798 0.36649
 C1167 C 0.76994 0.79552 0.39815
 C1168 C 0.76752 0.80535 0.41045
 C1169 C 0.76471 0.81682 0.42487
 C1170 C 0.76234 0.82660 0.43722
 H1171 H 0.75033 0.76721 0.38947
 H1172 H 0.79602 0.79755 0.37413
 H1173 H 0.80111 0.77760 0.34929
 H1174 H 0.75516 0.74708 0.36473
 C1175 C 0.28700 0.28633 -0.12808
 C1176 C 0.27268 0.28355 -0.11671
 C1177 C 0.26130 0.26926 -0.11959
 C1178 C 0.26420 0.25777 -0.13378
 C1179 C 0.27857 0.26041 -0.14535
 C1180 C 0.28994 0.27487 -0.14229
 C1181 C 0.26973 0.29530 -0.10203
 C1182 C 0.26728 0.30512 -0.08972
 C1183 C 0.26446 0.31658 -0.07527
 C1184 C 0.26210 0.32637 -0.06291
 H1185 H 0.29590 0.29736 -0.12597
 H1186 H 0.25017 0.26697 -0.11086
 H1187 H 0.25513 0.24687 -0.13559
 H1188 H 0.30113 0.27742 -0.15080
 C1189 C 0.73880 0.23078 -0.11936
 C1190 C 0.72745 0.21645 -0.11650
 C1191 C 0.71317 0.21363 -0.12790
 C1192 C 0.71023 0.22507 -0.14212
 C1193 C 0.72156 0.23955 -0.14517
 C1194 C 0.73590 0.24224 -0.13357
 C1195 C 0.73041 0.20471 -0.10182
 C1196 C 0.73287 0.19490 -0.08950
 C1197 C 0.73570 0.18344 -0.07505
 C1198 C 0.73806 0.17367 -0.06269
 H1199 H 0.74990 0.23310 -0.11061
 H1200 H 0.70428 0.20258 -0.12579
 H1201 H 0.69906 0.22248 -0.15065
 H1202 H 0.74494 0.25317 -0.13536
 C1203 C 0.21279 0.71379 0.37213
 C1204 C 0.22702 0.71653 0.38361
 C1205 C 0.23846 0.73080 0.38084
 C1206 C 0.23570 0.74231 0.36664
 C1207 C 0.22142 0.73971 0.35496
 C1208 C 0.21000 0.72527 0.35791
 C1209 C 0.22988 0.70472 0.39826
 C1210 C 0.23227 0.69485 0.41054
 C1211 C 0.23508 0.68333 0.42494
 C1212 C 0.23746 0.67352 0.43727
 H1213 H 0.20384 0.70278 0.37416
 H1214 H 0.24951 0.73305 0.38967
 H1215 H 0.24481 0.75319 0.36491
 H1216 H 0.19887 0.72274 0.34931
 C1217 C 0.28668 0.71375 0.62808
 C1218 C 0.27243 0.71648 0.61662
 C1219 C 0.26102 0.73076 0.61942
 C1220 C 0.26382 0.74227 0.63360
 C1221 C 0.27813 0.73968 0.64525
 C1222 C 0.28953 0.72524 0.64228
 C1223 C 0.26956 0.70468 0.60197
 C1224 C 0.26719 0.69482 0.58967
 C1225 C 0.26444 0.68331 0.57524
 C1226 C 0.26212 0.67350 0.56290
 H1227 H 0.29561 0.70273 0.62604
 H1228 H 0.24994 0.73300 0.61061
 H1229 H 0.25474 0.75317 0.63534
 H1230 H 0.30068 0.72272 0.65085
 C1231 C 0.76177 0.23033 0.11986
 C1232 C 0.77340 0.21628 0.11684
 C1233 C 0.78780 0.21369 0.12815
 C1234 C 0.79059 0.22511 0.14241
 C1235 C 0.77898 0.23934 0.14560
 C1236 C 0.76452 0.24177 0.13411
 C1237 C 0.77056 0.20455 0.10213
 C1238 C 0.76815 0.19477 0.08979
 C1239 C 0.76532 0.18334 0.07532
 C1240 C 0.76290 0.17358 0.06295
 H1241 H 0.75058 0.23246 0.11118
 H1242 H 0.79690 0.20284 0.12592
 H1243 H 0.80186 0.22272 0.15087
 H1244 H 0.75528 0.25250 0.13601
 C1245 C 0.46274 0.37784 0.53592
 C1246 C 0.47700 0.36636 0.53325
 C1247 C 0.48846 0.36915 0.51902
 C1248 C 0.48570 0.38333 0.50748
 C1249 C 0.47138 0.39499 0.51000
 C1250 C 0.45994 0.39204 0.52440
 C1251 C 0.47986 0.35170 0.54508
 C1252 C 0.48229 0.33940 0.55493
 C1253 C 0.48513 0.32496 0.56644
 C1254 C 0.48755 0.31262 0.57625
 H1255 H 0.45377 0.37581 0.54690
 H1256 H 0.49956 0.36035 0.51682
 H1257 H 0.49483 0.38506 0.49663
 H1258 H 0.44878 0.40063 0.52685
 C1259 C -0.01159 0.86940 0.01900
 C1260 C -0.02312 0.86661 0.03318
 C1261 C -0.03738 0.87809 0.03582
 C1262 C -0.04011 0.89231 0.02432
 C1263 C -0.02859 0.89527 0.00998
 C1264 C -0.01429 0.88360 0.00749
 C1265 C -0.02030 0.85196 0.04500
 C1266 C -0.01790 0.83965 0.05484
 C1267 C -0.01507 0.82519 0.06629
 C1268 C -0.01265 0.81282 0.07604
 H1269 H -0.00050 0.86059 0.01684
 H1270 H -0.04639 0.87606 0.04677
 H1271 H -0.05126 0.90091 0.02673
 H1272 H -0.00512 0.88533 -0.00333
 C1273 C 0.03737 0.62183 0.03588
 C1274 C 0.02319 0.63338 0.03318
 C1275 C 0.01176 0.63069 0.01891
 C1276 C 0.01448 0.61652 0.00736
 C1277 C 0.02871 0.60477 0.00993
 C1278 C 0.04013 0.60763 0.02436
 C1279 C 0.02037 0.64803 0.04500
 C1280 C 0.01797 0.66035 0.05483
 C1281 C 0.01514 0.67481 0.06629
 C1282 C 0.01272 0.68717 0.07605
 H1283 H 0.04632 0.62379 0.04690
 H1284 H 0.00073 0.63956 0.01669
 H1285 H 0.00536 0.61484 -0.00351
 H1286 H 0.05122 0.59897 0.02685
 C1287 C 0.53748 0.12192 0.53596
 C1288 C 0.52315 0.13333 0.53342
 C1289 C 0.51159 0.13051 0.51927
 C1290 C 0.51435 0.11637 0.50768
 C1291 C 0.52875 0.10479 0.51007
 C1292 C 0.54028 0.10776 0.52440
 C1293 C 0.52034 0.14799 0.54525
 C1294 C 0.51796 0.16030 0.55510
 C1295 C 0.51516 0.17476 0.56658
 C1296 C 0.51278 0.18713 0.57636
 H1297 H 0.54653 0.12397 0.54688
 H1298 H 0.50044 0.13925 0.51717
 H1299 H 0.50516 0.11462 0.49688
 H1300 H 0.55150 0.09922 0.52675
 C1301 C -0.03783 0.12208 0.46410
 C1302 C -0.02341 0.13341 0.46654
 C1303 C -0.01175 0.13053 0.48059
 C1304 C -0.01450 0.11641 0.49220
 C1305 C -0.02899 0.10491 0.48992
 C1306 C -0.04062 0.10793 0.47569
 C1307 C -0.02060 0.14805 0.45471
 C1308 C -0.01821 0.16037 0.44489
 C1309 C -0.01539 0.17485 0.43346
 C1310 C -0.01298 0.18724 0.42373
 H1311 H -0.04694 0.12418 0.45325
 H1312 H -0.00053 0.13923 0.48261
 H1313 H -0.00523 0.11461 0.50292
 H1314 H -0.05190 0.09946 0.47342
 C1315 C 0.48847 0.63066 0.98106
 C1316 C 0.47700 0.63340 0.96682
 C1317 C 0.46274 0.62191 0.96419
 C1318 C 0.45993 0.60774 0.97573
 C1319 C 0.47137 0.60483 0.99013
 C1320 C 0.48570 0.61650 0.99263
 C1321 C 0.47984 0.64806 0.95500
 C1322 C 0.48223 0.66037 0.94516
 C1323 C 0.48505 0.67482 0.93367
 C1324 C 0.48743 0.68718 0.92389
 H1325 H 0.49955 0.63948 0.98325
 H1326 H 0.45375 0.62392 0.95322
 H1327 H 0.44878 0.59914 0.97329
 H1328 H 0.49484 0.61479 1.00348
 C1329 C 0.51164 0.86938 0.98109
 C1330 C 0.52312 0.86662 0.96686
 C1331 C 0.53736 0.87813 0.96419
 C1332 C 0.54014 0.89234 0.97570
 C1333 C 0.52868 0.89526 0.99009
 C1334 C 0.51438 0.88357 0.99262
 C1335 C 0.52028 0.85196 0.95504
 C1336 C 0.51786 0.83965 0.94520
 C1337 C 0.51502 0.82520 0.93372
 C1338 C 0.51260 0.81284 0.92394
 H1339 H 0.50057 0.86055 0.98328
 H1340 H 0.54633 0.87612 0.95321
 H1341 H 0.55128 0.90096 0.97324
 H1342 H 0.50525 0.88528 1.00347
 C1343 C 0.03702 0.37826 0.46380
 C1344 C 0.02295 0.36660 0.46663
 C1345 C 0.01164 0.36917 0.48102
 C1346 C 0.01437 0.38335 0.49255
 C1347 C 0.02849 0.39522 0.48986
 C1348 C 0.03979 0.39247 0.47531
 C1349 C 0.02011 0.35195 0.45481
 C1350 C 0.01769 0.33965 0.44497
 C1351 C 0.01483 0.32522 0.43350
 C1352 C 0.01241 0.31286 0.42373
 H1353 H 0.04587 0.37639 0.45269
 H1354 H 0.00069 0.36021 0.48334
 H1355 H 0.00536 0.38493 0.50352
 H1356 H 0.05080 0.40122 0.47273
 C1357 C 0.37785 0.53515 0.46308
 C1358 C 0.36645 0.53226 0.47734
 C1359 C 0.36938 0.51795 0.48868
 C1360 C 0.38365 0.50655 0.48577
 C1361 C 0.39524 0.50931 0.47145
 C1362 C 0.39213 0.52379 0.46014
 C1363 C 0.35172 0.54395 0.48030
 C1364 C 0.33938 0.55375 0.48272
 C1365 C 0.32494 0.56523 0.48549
 C1366 C 0.31260 0.57506 0.48781
 H1367 H 0.37570 0.54620 0.45422
 H1368 H 0.36063 0.51558 0.49977
 H1369 H 0.38551 0.49563 0.49479
 H1370 H 0.40066 0.52644 0.44899
 C1371 C 0.87796 0.03529 -0.03701
 C1372 C 0.86678 0.03262 -0.02254
 C1373 C 0.86980 0.01842 -0.01109
 C1374 C 0.88395 0.00690 -0.01410
 C1375 C 0.89530 0.00943 -0.02865
 C1376 C 0.89211 0.02380 -0.04006
 C1377 C 0.85214 0.04438 -0.01951
 C1378 C 0.83983 0.05420 -0.01707
 C1379 C 0.82538 0.06566 -0.01433
 C1380 C 0.81300 0.07543 -0.01204
 H1381 H 0.87573 0.04625 -0.04596
 H1382 H 0.86122 0.01623 0.00017
 H1383 H 0.88588 -0.00395 -0.00501
 H1384 H 0.90045 0.02626 -0.05139
 C1385 C 0.62231 0.03535 0.03710
 C1386 C 0.63371 0.03247 0.02284
 C1387 C 0.63073 0.01819 0.01147
 C1388 C 0.61643 0.00682 0.01435
 C1389 C 0.60485 0.00956 0.02868
 C1390 C 0.60800 0.02401 0.04002
 C1391 C 0.64845 0.04414 0.01990
 C1392 C 0.66080 0.05394 0.01749
 C1393 C 0.67526 0.06542 0.01473
 C1394 C 0.68761 0.07523 0.01241
 H1395 H 0.62449 0.04638 0.04599
 H1396 H 0.63947 0.01583 0.00037
 H1397 H 0.61454 -0.00408 0.00530
 H1398 H 0.59948 0.02664 0.05118
 C1399 C 0.13027 0.51831 0.51105
 C1400 C 0.13336 0.53244 0.52257
 C1401 C 0.12213 0.53515 0.53699
 C1402 C 0.10784 0.52378 0.53991
 C1403 C 0.10456 0.50950 0.52841
 C1404 C 0.11599 0.50691 0.51393
 C1405 C 0.14807 0.54414 0.51962
 C1406 C 0.16041 0.55395 0.51721
 C1407 C 0.17485 0.56543 0.51446
 C1408 C 0.18721 0.57523 0.51216
 H1409 H 0.13890 0.51609 0.49984
 H1410 H 0.12441 0.54606 0.54599
 H1411 H 0.09944 0.52629 0.55118
 H1412 H 0.11400 0.49613 0.50477
 C1413 C 0.12190 0.46452 -0.03705
 C1414 C 0.13336 0.46747 -0.02286
 C1415 C 0.13066 0.48199 -0.01173
 C1416 C 0.11656 0.49354 -0.01479
 C1417 C 0.10491 0.49074 -0.02905
 C1418 C 0.10778 0.47605 -0.04015
 C1419 C 0.14799 0.45569 -0.01980
 C1420 C 0.16029 0.44586 -0.01733
 C1421 C 0.17473 0.43438 -0.01453
 C1422 C 0.18709 0.42459 -0.01220
 H1423 H 0.12387 0.45331 -0.04575
 H1424 H 0.13946 0.48440 -0.00069
 H1425 H 0.11486 0.50461 -0.00591
 H1426 H 0.09918 0.47336 -0.05123
 C1427 C 0.62177 0.96436 0.46337
 C1428 C 0.63349 0.96756 0.47731
 C1429 C 0.63080 0.98209 0.48842
 C1430 C 0.61645 0.99340 0.48562
 C1431 C 0.60455 0.99034 0.47162
 C1432 C 0.60742 0.97565 0.46053
 C1433 C 0.64825 0.95593 0.48020
 C1434 C 0.66061 0.94617 0.48258
 C1435 C 0.67505 0.93471 0.48534
 C1436 C 0.68738 0.92490 0.48767
 H1437 H 0.62374 0.95314 0.45468
 H1438 H 0.63980 0.98468 0.49926
 H1439 H 0.61478 1.00449 0.49447
 H1440 H 0.59864 0.97277 0.44963
 C1441 C 0.87791 0.96462 0.53657
 C1442 C 0.86638 0.96766 0.52245
 C1443 C 0.86915 0.98214 0.51129
 C1444 C 0.88338 0.99358 0.51425
 C1445 C 0.89507 0.99069 0.52845
 C1446 C 0.89214 0.97602 0.53956
 C1447 C 0.85166 0.95598 0.51949
 C1448 C 0.83932 0.94619 0.51710
 C1449 C 0.82486 0.93472 0.51439
 C1450 C 0.81251 0.92492 0.51212
 H1451 H 0.87588 0.95343 0.54529
 H1452 H 0.86030 0.98461 0.50030
 H1453 H 0.88511 1.00465 0.50537
 H1454 H 0.90076 0.97327 0.55062
 C1455 C 0.36943 0.48185 0.01137
 C1456 C 0.36648 0.46754 0.02269
 C1457 C 0.37786 0.46465 0.03697
 C1458 C 0.39212 0.47603 0.03995
 C1459 C 0.39524 0.49052 0.02865
 C1460 C 0.38368 0.49327 0.01431
 C1461 C 0.35174 0.45586 0.01972
 C1462 C 0.33939 0.44607 0.01729
 C1463 C 0.32493 0.43459 0.01451
 C1464 C 0.31258 0.42478 0.01218
 H1465 H 0.36069 0.48424 0.00028
 H1466 H 0.37568 0.45360 0.04584
 H1467 H 0.40065 0.47338 0.05110
 H1468 H 0.38556 0.50419 0.00528
 C1469 C 0.51917 0.48844 0.36932
 C1470 C 0.53347 0.47706 0.36649
 C1471 C 0.53626 0.46281 0.37795
 C1472 C 0.52481 0.45994 0.39218
 C1473 C 0.51035 0.47130 0.39518
 C1474 C 0.50770 0.48560 0.38354
 C1475 C 0.54523 0.47996 0.35181
 C1476 C 0.55506 0.48237 0.33950
 C1477 C 0.56655 0.48516 0.32507
 C1478 C 0.57637 0.48752 0.31273
 H1479 H 0.51688 0.49952 0.36053
 H1480 H 0.54730 0.45391 0.37588
 H1481 H 0.52738 0.44880 0.40075
 H1482 H 0.49679 0.49466 0.38531
 C1483 C 0.03628 -0.03680 0.87786
 C1484 C 0.03328 -0.02271 0.86627
 C1485 C 0.01878 -0.01155 0.86894
 C1486 C 0.00730 -0.01447 0.88314
 C1487 C 0.01015 -0.02863 0.89491
 C1488 C 0.02483 -0.03975 0.89207
 C1489 C 0.04502 -0.01975 0.85158
 C1490 C 0.05483 -0.01732 0.83926
 C1491 C 0.06630 -0.01455 0.82481
 C1492 C 0.07610 -0.01224 0.81246
 H1493 H 0.04747 -0.04553 0.87590
 H1494 H 0.01632 -0.00060 0.86004
 H1495 H -0.00377 -0.00559 0.88478
 H1496 H 0.02755 -0.05078 0.90074
 C1497 C 0.03598 0.03714 0.62214
 C1498 C 0.03313 0.02289 0.63357
 C1499 C 0.01885 0.01150 0.63069
 C1500 C 0.00744 0.01433 0.61643
 C1501 C 0.01015 0.02863 0.60480
 C1502 C 0.02459 0.04001 0.60786
 C1503 C 0.04486 0.01996 0.64826
 C1504 C 0.05468 0.01751 0.66057
 C1505 C 0.06618 0.01466 0.67497
 C1506 C 0.07602 0.01226 0.68727
 H1507 H 0.04700 0.04606 0.62425
 H1508 H 0.01652 0.00042 0.63947
 H1509 H -0.00346 0.00526 0.61462
 H1510 H 0.02719 0.05116 0.59930
 C1511 C 0.51919 0.51140 0.13076
 C1512 C 0.53349 0.52279 0.13360
 C1513 C 0.53630 0.53703 0.12214
 C1514 C 0.52486 0.53990 0.10791
 C1515 C 0.51040 0.52853 0.10490
 C1516 C 0.50773 0.51423 0.11654
 C1517 C 0.54525 0.51988 0.14827
 C1518 C 0.55509 0.51745 0.16057
 C1519 C 0.56659 0.51463 0.17499
 C1520 C 0.57640 0.51226 0.18732
 H1521 H 0.51689 0.50033 0.13956
 H1522 H 0.54734 0.54594 0.12422
 H1523 H 0.52744 0.55104 0.09934
 H1524 H 0.49682 0.50516 0.11477
 C1525 C 0.46390 -0.03709 0.12228
 C1526 C 0.46670 -0.02284 0.13373
 C1527 C 0.48101 -0.01146 0.13090
 C1528 C 0.49248 -0.01430 0.11669
 C1529 C 0.48982 -0.02861 0.10505
 C1530 C 0.47535 -0.03997 0.10805
 C1531 C 0.45493 -0.01994 0.14841
 C1532 C 0.44510 -0.01753 0.16072
 C1533 C 0.43359 -0.01476 0.17515
 C1534 C 0.42376 -0.01242 0.18748
 H1535 H 0.45285 -0.04599 0.12434
 H1536 H 0.48330 -0.00038 0.13969
 H1537 H 0.50340 -0.00524 0.11492
 H1538 H 0.47277 -0.05111 0.09948
 C1539 C 0.98097 0.48855 0.63061
 C1540 C 0.96666 0.47719 0.63347
 C1541 C 0.96381 0.46293 0.62205
 C1542 C 0.97524 0.46002 0.60782
 C1543 C 0.98972 0.47135 0.60479
 C1544 C 0.99242 0.48567 0.61640
 C1545 C 0.95493 0.48014 0.64816
 C1546 C 0.94513 0.48258 0.66047
 C1547 C 0.93367 0.48540 0.67491
 C1548 C 0.92387 0.48777 0.68725
 H1549 H 0.98330 0.49964 0.63938
 H1550 H 0.95276 0.45405 0.62414
 H1551 H 0.97264 0.44886 0.59926
 H1552 H 1.00335 0.49472 0.61461
 C1553 C 0.96434 0.53727 0.87741
 C1554 C 0.96693 0.52278 0.86622
 C1555 C 0.98103 0.51122 0.86928
 C1556 C 0.99252 0.51413 0.88346
 C1557 C 0.99007 0.52867 0.89485
 C1558 C 0.97581 0.54021 0.89160
 C1559 C 0.95516 0.51982 0.85157
 C1560 C 0.94531 0.51739 0.83928
 C1561 C 0.93379 0.51461 0.82487
 C1562 C 0.92397 0.51228 0.81255
 H1563 H 0.95345 0.54630 0.87516
 H1564 H 0.98316 0.49995 0.86069
 H1565 H 1.00328 0.50493 0.88542
 H1566 H 0.97339 0.55153 0.89999
 C1567 C 0.46413 0.03717 0.37767
 C1568 C 0.46679 0.02275 0.36641
 C1569 C 0.48087 0.01117 0.36949
 C1570 C 0.49225 0.01397 0.38379
 C1571 C 0.48972 0.02844 0.39525
 C1572 C 0.47549 0.04001 0.39198
 C1573 C 0.45508 0.01984 0.35169
 C1574 C 0.44526 0.01741 0.33938
 C1575 C 0.43374 0.01458 0.32498
 C1576 C 0.42388 0.01220 0.31268
 H1577 H 0.45327 0.04623 0.37540
 H1578 H 0.48305 -0.00004 0.36085
 H1579 H 0.50298 0.00474 0.38576
 H1580 H 0.47303 0.05128 0.40041
   
