data_POSCAR
  _audit_creation_date              2014-09-24
  _audit_creation_method            'ToBaCCo'
  _symmetry_space_group_name_H-M    'P1'
  _symmetry_Int_Tables_number       1
  _symmetry_cell_setting            triclinic
  loop_
  _symmetry_equiv_pos_as_xyz
 x,y,z
_cell_length_a 46.6277
_cell_length_b 46.6382
_cell_length_c 46.5922
_cell_angle_alpha 89.993400
_cell_angle_beta 89.981000
_cell_angle_gamma 89.999600
loop_
  _atom_site_label
  _atom_site_type_symbol
  _atom_site_fract_x
  _atom_site_fract_y
  _atom_site_fract_z
C1 C 0.35935 1.36030 0.32356
 N2 N 0.33543 1.37201 0.33546
 C3 C 0.32347 1.36024 0.35934
 N4 N 0.33561 1.33658 0.37128
 C5 C 0.35952 1.32477 0.35957
 N6 N 0.37127 1.33665 0.33571
 C7 C 0.35914 0.86030 0.82462
 N8 N 0.37094 0.83651 0.83655
 C9 C 0.35908 0.82449 0.86029
 N10 N 0.33518 0.83632 0.87204
 C11 C 0.32317 0.86012 0.86023
 N12 N 0.33524 0.87201 0.83649
 C13 C 0.85870 1.35967 0.82301
 N14 N 0.83481 1.37143 0.83495
 C15 C 0.82287 1.35968 0.85886
 N16 N 0.83500 1.33601 0.87078
 C17 C 0.85886 1.32414 0.85903
 N18 N 0.87060 1.33600 0.83515
 C19 C 0.86032 0.86031 0.32364
 N20 N 0.87210 0.83650 0.33565
 C21 C 0.86030 0.82459 0.35949
 N22 N 0.83651 0.83655 0.37131
 C23 C 0.82460 0.86036 0.35950
 N24 N 0.83654 0.87213 0.33566
 C25 C 0.63904 0.63908 0.32530
 N26 N 0.66287 0.62728 0.33718
 C27 C 0.67490 0.63912 0.36092
 N28 N 0.66306 0.66299 0.37271
 C29 C 0.63923 0.67492 0.36095
 N30 N 0.62733 0.66294 0.33721
 C31 C 0.64093 0.14013 0.82341
 N32 N 0.66482 0.12839 0.83534
 C33 C 0.67676 0.14014 0.85924
 N34 N 0.66462 0.16381 0.87116
 C35 C 0.64075 0.17566 0.85942
 N36 N 0.62902 0.16380 0.83555
 C37 C 1.13912 0.63890 0.82518
 N38 N 1.12734 0.66272 0.83709
 C39 C 1.13914 0.67466 0.86090
 N40 N 1.16294 0.66272 0.87272
 C41 C 1.17485 0.63889 0.86094
 N42 N 1.16291 0.62709 0.83713
 C43 C 1.14120 0.14000 0.32337
 N44 N 1.16511 0.12831 0.33531
 C45 C 1.17705 0.14013 0.35916
 N46 N 1.16491 0.16382 0.37104
 C47 C 1.14102 0.17562 0.35930
 N48 N 1.12928 0.16369 0.33547
 C49 C 0.64055 1.36047 0.67518
 N50 N 0.66449 1.37214 0.66336
 C51 C 0.67652 1.36029 0.63956
 N52 N 0.66442 1.33657 0.62768
 C53 C 0.64048 1.32479 0.63939
 N54 N 0.62867 1.33677 0.66316
 C55 C 0.63971 0.86037 1.17643
 N56 N 0.62790 0.83657 1.16443
 C57 C 0.63968 0.82466 1.14057
 N58 N 0.66347 0.83660 1.12874
 C59 C 0.67541 0.86040 1.14055
 N60 N 0.66349 0.87218 1.16439
 C61 C 1.14081 1.36007 1.17628
 N62 N 1.12893 1.33636 1.16419
 C63 C 1.14072 1.32444 1.14037
 N64 N 1.16461 1.33627 1.12864
 C65 C 1.17671 1.35998 1.14052
 N66 N 1.16471 1.37179 1.16436
 C67 C 1.14079 0.86023 0.67545
 N68 N 1.12903 0.83643 0.66350
 C69 C 1.14092 0.82445 0.63976
 N70 N 1.16481 0.83633 0.62802
 C71 C 1.17677 0.86015 0.63985
 N72 N 1.16466 0.87199 0.66360
 C73 C 0.35931 0.63971 0.67544
 N74 N 0.37109 0.66352 0.66352
 C75 C 0.35923 0.67553 0.63977
 N76 N 0.33536 0.66366 0.62801
 C77 C 0.32338 0.63984 0.63981
 N78 N 0.33544 0.62796 0.66356
 C79 C 0.35940 0.13963 1.17635
 N80 N 0.33549 0.12789 1.16445
 C81 C 0.32354 0.13965 1.14057
 N82 N 0.33566 0.16332 1.12863
 C83 C 0.35954 0.17516 1.14035
 N84 N 0.37129 0.16329 1.16420
 C85 C 0.86067 0.63916 1.17489
 N86 N 0.83681 0.62742 1.16302
 C87 C 0.82479 0.63930 1.13929
 N88 N 0.83668 0.66315 1.12750
 C89 C 0.86054 0.67502 1.13926
 N90 N 0.87243 0.66300 1.16299
 C91 C 0.85894 0.14013 0.67680
 N92 N 0.83503 0.12840 0.66488
 C93 C 0.82312 0.14014 0.64096
 N94 N 0.83530 0.16378 0.62901
 C95 C 0.85917 0.17562 0.64074
 N96 N 0.87088 0.16377 0.66463
 C97 C 1.36000 0.35887 0.67673
 N98 N 1.37179 0.33503 0.66476
 C99 C 1.36005 0.32310 0.64086
 N100 N 1.33635 0.33519 0.62896
 C101 C 1.32444 0.35902 0.64073
 N102 N 1.33629 0.37075 0.66462
 C103 C 1.36062 0.85970 1.17514
 N104 N 1.37228 0.83573 1.16337
 C105 C 1.36039 0.82365 1.13963
 N106 N 1.33666 0.83572 1.12775
 C107 C 1.32489 0.85969 1.13940
 N108 N 1.33690 0.87156 1.16312
 C109 C 0.86052 0.36018 1.17615
 N110 N 0.83673 0.37199 1.16415
 C111 C 0.82485 0.36023 1.14027
 N112 N 0.83682 0.33647 1.12843
 C113 C 0.86061 0.32454 1.14024
 N114 N 0.87236 0.33642 1.16411
 C115 C 0.86089 0.86098 0.67485
 N116 N 0.87265 0.83714 0.66294
 C117 C 0.86082 0.82519 0.63914
 N118 N 0.83703 0.83715 0.62732
 C119 C 0.82514 0.86099 0.63910
 N120 N 0.83710 0.87279 0.66290
 C121 C 0.63956 0.63975 0.67535
 N122 N 0.66335 0.62794 0.66338
 C123 C 0.67531 0.63977 0.63959
 N124 N 0.66344 0.66362 0.62782
 C125 C 0.63964 0.67557 0.63966
 N126 N 0.62780 0.66360 0.66346
 C127 C 0.63989 1.14090 1.17637
 N128 N 0.66364 1.12906 1.16433
 C129 C 0.67561 1.14084 1.14053
 N130 N 0.66376 1.16471 1.12876
 C131 C 0.63999 1.17677 1.14060
 N132 N 0.62816 1.16477 1.16442
 C133 C 0.13993 0.64083 1.17663
 N134 N 0.12823 0.66476 1.16476
 C135 C 0.14004 0.67676 1.14091
 N136 N 0.16373 0.66464 1.12898
 C137 C 0.17554 0.64072 1.14068
 N138 N 0.16361 0.62894 1.16450
 C139 C 0.13943 1.14064 0.67522
 N140 N 0.12770 1.16455 0.66340
 C141 C 0.13953 1.17660 0.63960
 N142 N 0.16328 1.16455 0.62771
 C143 C 0.17512 1.14065 0.63941
 N144 N 0.16316 1.12881 0.66319
 C145 C 1.36036 0.63982 0.32371
 N146 N 1.37213 0.66367 0.33566
 C147 C 1.36038 0.67555 0.35955
 N148 N 1.33667 0.66352 0.37146
 C149 C 1.32479 0.63968 0.35970
 N150 N 1.33666 0.62794 0.33583
 C151 C 1.36015 1.14092 0.82336
 N152 N 1.33646 1.12901 0.83547
 C153 C 1.32459 1.14072 0.85937
 N154 N 1.33647 1.16456 0.87114
 C155 C 1.36016 1.17668 0.85924
 N156 N 1.37191 1.16477 0.83533
 C157 C 0.86030 0.63969 0.82464
 N158 N 0.83652 0.62787 0.83663
 C159 C 0.82459 0.63968 0.86045
 N160 N 0.83648 0.66352 0.87221
 C161 C 0.86026 0.67547 0.86035
 N162 N 0.87207 0.66353 0.83653
 C163 C 0.86053 1.14072 0.32364
 N164 N 0.83677 1.12889 0.33569
 C165 C 0.82482 1.14070 0.35950
 N166 N 0.83668 1.16455 0.37125
 C167 C 0.86045 1.17659 0.35940
 N168 N 0.87228 1.16458 0.33558
 C169 C 0.63985 0.35908 0.32351
 N170 N 0.62811 0.33521 0.33547
 C171 C 0.63993 0.32322 0.35929
 N172 N 0.66367 0.33528 0.37113
 C173 C 0.67553 0.35914 0.35937
 N174 N 0.66359 0.37093 0.33556
 C175 C 0.63925 0.86069 0.82494
 N176 N 0.62746 0.83686 0.83684
 C177 C 0.63927 0.82489 0.86064
 N178 N 0.66307 0.83681 0.87246
 C179 C 0.67499 0.86064 0.86069
 N180 N 0.66305 0.87248 0.83689
 C181 C 0.13944 0.35924 0.82474
 N182 N 0.12772 0.33533 0.83658
 C183 C 0.13956 0.32328 0.86036
 N184 N 0.16331 0.33532 0.87222
 C185 C 0.17515 0.35923 0.86051
 N186 N 0.16319 0.37107 0.83674
 C187 C 0.13971 0.86040 0.32383
 N188 N 0.12795 0.83657 0.33583
 C189 C 0.13971 0.82471 0.35971
 N190 N 0.16342 0.83674 0.37158
 C191 C 0.17531 0.86056 0.35978
 N192 N 0.16343 0.87229 0.33590
 O193 O 0.97221 0.89692 0.85737
 O194 O 0.97213 0.86361 0.82378
 C195 C 0.96240 0.88693 0.83399
 C196 C 0.93895 0.90223 0.81897
 C197 C 0.92900 0.89255 0.79222
 H198 H 0.93927 0.87431 0.78215
 O199 O 1.02772 1.10351 0.85727
 O200 O 1.02786 1.13690 0.82375
 C201 C 1.03759 1.11356 0.83393
 C202 C 1.06113 1.09836 0.81895
 C203 C 1.07118 1.10818 0.79229
 H204 H 1.06087 1.12642 0.78225
 O205 O 0.85713 0.97251 0.89661
 O206 O 0.82363 0.97232 0.86321
 C207 C 0.83381 0.96263 0.88658
 C208 C 0.81882 0.93916 0.90190
 C209 C 0.79214 0.92909 0.89219
 H210 H 0.78209 0.93928 0.87389
 O211 O 1.14311 1.02809 0.89658
 O212 O 1.17659 1.02810 0.86315
 C213 C 1.16646 1.03787 0.88650
 C214 C 1.18151 1.06135 0.90172
 C215 C 1.20809 1.07153 0.89181
 H216 H 1.21805 1.06138 0.87343
 O217 O 0.89651 0.85766 0.97221
 O218 O 0.86312 0.82416 0.97223
 C219 C 0.88643 0.83432 0.96241
 C220 C 0.90164 0.81931 0.93886
 C221 C 0.89185 0.79266 0.92879
 H222 H 0.87355 0.78264 0.93902
 O223 O 1.10380 1.14265 0.97209
 O224 O 1.13711 1.17622 0.97201
 C225 C 1.11380 1.16600 0.96223
 C226 C 1.09853 1.18098 0.93868
 C227 C 1.10836 1.20760 0.92851
 H228 H 1.12671 1.21759 0.93865
 O229 O 0.89626 1.02848 0.85716
 O230 O 0.86290 1.02834 0.82362
 C231 C 0.88617 1.03822 0.83378
 C232 C 0.90129 1.06179 0.81874
 C233 C 0.89126 1.07201 0.79222
 H234 H 0.87288 1.06184 0.78231
 O235 O 1.10367 0.97226 0.85731
 O236 O 1.13701 0.97224 0.82373
 C237 C 1.11370 0.96247 0.83393
 C238 C 1.09848 0.93898 0.81891
 C239 C 1.10833 0.92888 0.79228
 H240 H 1.12663 0.93910 0.78227
 O241 O 1.02801 0.85737 0.89659
 O242 O 1.02796 0.82388 0.86318
 C243 C 1.03773 0.83399 0.88654
 C244 C 1.06111 0.81886 0.90184
 C245 C 1.07106 0.79213 0.89213
 H246 H 1.06085 0.78213 0.87382
 O247 O 0.97184 1.14298 0.89649
 O248 O 0.97194 1.17652 0.86313
 C249 C 0.96210 1.16635 0.88645
 C250 C 0.93856 1.18135 0.90165
 C251 C 0.92832 1.20788 0.89171
 H252 H 0.93845 1.21785 0.87332
 O253 O 0.85685 1.10378 0.97197
 O254 O 0.82342 1.13723 0.97211
 C255 C 0.83352 1.11393 0.96221
 C256 C 0.81850 1.09882 0.93858
 C257 C 0.79199 1.10878 0.92825
 H258 H 0.78200 1.12716 0.93835
 O259 O 1.14266 0.89623 0.97212
 O260 O 1.17619 0.86288 0.97201
 C261 C 1.16600 0.88619 0.96224
 C262 C 1.18099 0.90142 0.93867
 C263 C 1.20757 0.89153 0.92846
 H264 H 1.21753 0.87316 0.93859
 O265 O 0.97173 1.10390 0.85698
 O266 O 0.97182 1.13730 0.82347
 C267 C 0.96194 1.11401 0.83362
 C268 C 0.93832 1.09888 0.81863
 C269 C 0.92797 1.10883 0.79210
 H270 H 0.93805 1.12721 0.78209
 O271 O 1.02816 0.89669 0.85730
 O272 O 1.02813 0.86337 0.82373
 C273 C 1.03795 0.88665 0.83392
 C274 C 1.06148 0.90187 0.81891
 C275 C 1.07164 0.89206 0.79227
 H276 H 1.06149 0.87372 0.78225
 O277 O 1.14288 0.97212 0.89663
 O278 O 1.17638 0.97207 0.86321
 C279 C 1.16618 0.96225 0.88653
 C280 C 1.18110 0.93861 0.90168
 C281 C 1.20768 0.92841 0.89179
 H282 H 1.21772 0.93862 0.87348
 O283 O 0.85698 1.02846 0.89646
 O284 O 0.82348 1.02831 0.86306
 C285 C 0.83362 1.03819 0.88636
 C286 C 0.81858 1.06174 0.90150
 C287 C 0.79208 1.07197 0.89149
 H288 H 0.78216 1.06181 0.87310
 O289 O 0.89630 1.14290 0.97200
 O290 O 0.86302 1.17649 0.97216
 C291 C 0.88628 1.16629 0.96228
 C292 C 0.90147 1.18131 0.93873
 C293 C 0.89153 1.20785 0.92849
 H294 H 0.87315 1.21780 0.93863
 O295 O 1.10329 0.85704 0.97234
 O296 O 1.13666 0.82354 0.97224
 C297 C 1.11332 0.83370 0.96252
 C298 C 1.09805 0.81871 0.93903
 C299 C 1.10770 0.79199 0.92904
 H300 H 1.12591 0.78189 0.93934
 O301 O 1.10368 1.02820 0.85739
 O302 O 1.13701 1.02823 0.82380
 C303 C 1.11369 1.03801 0.83400
 C304 C 1.09839 1.06149 0.81898
 C305 C 1.10815 1.07163 0.79230
 H306 H 1.12651 1.06154 0.78227
 O307 O 0.89649 0.97254 0.85734
 O308 O 0.86315 0.97235 0.82378
 C309 C 0.88650 0.96267 0.83398
 C310 C 0.90184 0.93924 0.81896
 C311 C 0.89219 0.92925 0.79221
 H312 H 0.87393 0.93947 0.78214
 O313 O 1.02784 1.14283 0.89650
 O314 O 1.02798 1.17637 0.86315
 C315 C 1.03774 1.16614 0.88646
 C316 C 1.06135 1.18105 0.90168
 C317 C 1.07150 1.20767 0.89183
 H318 H 1.06128 1.21771 0.87354
 O319 O 0.97208 0.85757 0.89658
 O320 O 0.97198 0.82409 0.86316
 C321 C 0.96222 0.83426 0.88651
 C322 C 0.93869 0.81929 0.90175
 C323 C 0.92861 0.79264 0.89198
 H324 H 0.93882 0.78261 0.87368
 O325 O 1.14321 1.10350 0.97220
 O326 O 1.17668 1.13691 0.97212
 C327 C 1.16654 1.11358 0.96237
 C328 C 1.18155 1.09837 0.93883
 C329 C 1.20812 1.10825 0.92863
 H330 H 1.21812 1.12658 0.93880
 O331 O 0.85727 0.89697 0.97231
 O332 O 0.82374 0.86363 0.97234
 C333 C 0.83390 0.88694 0.96254
 C334 C 0.81886 0.90217 0.93905
 C335 C 0.79218 0.89240 0.92904
 H336 H 0.78216 0.87413 0.93931
 Cu337 Cu 1.00014 0.88048 0.88031
 Cu338 Cu 1.00004 0.84039 0.84009
 Cu339 Cu 0.99975 1.11996 0.88015
 Cu340 Cu 0.99992 1.16013 0.84002
 Cu341 Cu 0.88006 1.00051 0.88024
 Cu342 Cu 0.83993 1.00029 0.84005
 Cu343 Cu 1.12000 1.00019 0.88033
 Cu344 Cu 1.16011 1.00017 0.84011
 C345 C 0.92540 0.92576 0.83202
 H346 H 0.93269 0.93307 0.85284
 C347 C 0.90560 0.90588 0.77865
 C348 C 1.07470 1.07483 0.83198
 H349 H 1.06732 1.06742 0.85274
 C350 C 1.09470 1.09501 0.77876
 C351 C 0.83186 0.92573 0.92551
 H352 H 0.85262 0.93311 0.93285
 C353 C 0.77862 0.90568 0.90558
 C354 C 1.16857 1.07474 0.92542
 H355 H 1.14788 1.06728 0.93290
 C356 C 1.22158 1.09501 0.90508
 C357 C 0.92524 0.83230 0.92537
 H358 H 0.93264 0.85304 0.93275
 C359 C 0.90516 0.77912 0.90532
 C360 C 1.07485 1.16803 0.92528
 H361 H 1.06741 1.14732 0.93272
 C362 C 1.09503 1.22113 0.90506
 C363 C 0.92498 1.07519 0.83161
 H364 H 0.93256 1.06767 0.85225
 C365 C 0.90440 1.09556 0.77869
 C366 C 1.07487 0.92551 0.83190
 H367 H 1.06743 0.93293 0.85264
 C368 C 1.09510 0.90539 0.77876
 C369 C 1.07457 0.83181 0.92547
 H370 H 1.06728 0.85262 0.93280
 C371 C 1.09438 0.77849 0.90557
 C372 C 0.92516 1.16840 0.92534
 H373 H 0.93268 1.14774 0.93285
 C374 C 0.90476 1.22132 0.90494
 C375 C 0.83145 1.07513 0.92522
 H376 H 0.85208 1.06760 0.93279
 C377 C 0.77857 1.09552 0.90466
 C378 C 1.16808 0.92513 0.92530
 H379 H 1.14739 0.93261 0.93279
 C380 C 1.22111 0.90484 0.90500
 O381 O 1.02823 0.89656 1.14315
 O382 O 1.02815 0.86324 1.17673
 C383 C 1.03799 0.88652 1.16653
 C384 C 1.06153 0.90171 1.18154
 C385 C 1.07165 0.89187 1.20817
 H386 H 1.06143 0.87358 1.21819
 O387 O 0.97250 1.10350 1.14342
 O388 O 0.97247 1.13697 1.17685
 C389 C 0.96268 1.11363 1.16675
 C390 C 0.93911 1.09851 1.18179
 C391 C 0.92894 1.10849 1.20836
 H392 H 0.93916 1.12681 1.21832
 O393 O 0.85742 1.02835 1.10408
 O394 O 0.82390 1.02836 1.13749
 C395 C 0.83406 1.03814 1.11414
 C396 C 0.81901 1.06160 1.09885
 C397 C 0.79241 1.07178 1.10871
 H398 H 0.78244 1.06170 1.12713
 O399 O 1.14303 0.97211 1.10371
 O400 O 1.17662 0.97196 1.13702
 C401 C 1.16639 0.96224 1.11368
 C402 C 1.18133 0.93875 1.09835
 C403 C 1.20802 0.92865 1.10801
 H404 H 1.21813 0.93883 1.12629
 O405 O 1.10366 0.85690 1.02836
 O406 O 1.13706 0.82343 1.02832
 C407 C 1.11378 0.83359 1.03820
 C408 C 1.09866 0.81864 1.06187
 C409 C 1.10861 0.79212 1.07219
 H410 H 1.12696 0.78212 1.06205
 O411 O 0.89655 1.14261 1.02801
 O412 O 0.86329 1.17622 1.02822
 C413 C 0.88661 1.16595 1.03792
 C414 C 0.90194 1.18087 1.06146
 C415 C 0.89224 1.20754 1.07156
 H416 H 0.87396 1.21761 1.06136
 O417 O 0.89674 0.97235 1.14330
 O418 O 0.86338 0.97230 1.17687
 C419 C 0.88668 0.96251 1.16665
 C420 C 0.90187 0.93892 1.18161
 C421 C 0.89200 0.92874 1.20822
 H422 H 0.87369 0.93893 1.21825
 O423 O 1.10393 1.02804 1.14321
 O424 O 1.13736 1.02795 1.17668
 C425 C 1.11405 1.03781 1.16655
 C426 C 1.09894 1.06139 1.18159
 C427 C 1.10896 1.07162 1.20811
 H428 H 1.12732 1.06144 1.21804
 O429 O 0.97231 0.85735 1.10379
 O430 O 0.97215 0.82384 1.13718
 C431 C 0.96244 0.83403 1.11382
 C432 C 0.93895 0.81907 1.09852
 C433 C 0.92891 0.79234 1.10816
 H434 H 0.93914 0.78224 1.12641
 O435 O 1.02838 1.14271 1.10391
 O436 O 1.02838 1.17632 1.13720
 C437 C 1.03815 1.16611 1.11388
 C438 C 1.06161 1.18112 1.09857
 C439 C 1.07173 1.20776 1.10836
 H440 H 1.06158 1.21776 1.12672
 O441 O 0.85735 0.89692 1.02832
 O442 O 0.82383 0.86357 1.02839
 C443 C 0.83402 0.88688 1.03818
 C444 C 0.81904 0.90209 1.06174
 C445 C 0.79239 0.89229 1.07185
 H446 H 0.78237 0.87401 1.06163
 O447 O 1.14322 1.10361 1.02822
 O448 O 1.17668 1.13702 1.02820
 C449 C 1.16654 1.11371 1.03805
 C450 C 1.18153 1.09854 1.06165
 C451 C 1.20809 1.10843 1.07192
 H452 H 1.21808 1.12680 1.06180
 O453 O 1.02849 1.10352 1.14334
 O454 O 1.02852 1.13699 1.17677
 C455 C 1.03833 1.11366 1.16666
 C456 C 1.06193 1.09851 1.18165
 C457 C 1.07226 1.10845 1.20818
 H458 H 1.06218 1.12684 1.21816
 O459 O 0.97226 0.89656 1.14317
 O460 O 0.97212 0.86322 1.17673
 C461 C 0.96239 0.88654 1.16653
 C462 C 0.93887 0.90179 1.18154
 C463 C 0.92869 0.89192 1.20815
 H464 H 0.93883 0.87356 1.21813
 O465 O 1.14314 1.02807 1.10383
 O466 O 1.17671 1.02797 1.13716
 C467 C 1.16650 1.03783 1.11387
 C468 C 1.18150 1.06141 1.09870
 C469 C 1.20805 1.07159 1.10864
 H470 H 1.21801 1.06140 1.12699
 O471 O 0.85742 0.97241 1.10407
 O472 O 0.82390 0.97236 1.13747
 C473 C 0.83407 0.96260 1.11412
 C474 C 0.81906 0.93911 1.09886
 C475 C 0.79241 0.92901 1.10868
 H476 H 0.78240 0.93919 1.12701
 O477 O 1.10382 1.14277 1.02811
 O478 O 1.13713 1.17634 1.02807
 C479 C 1.11383 1.16614 1.03788
 C480 C 1.09860 1.18114 1.06140
 C481 C 1.10842 1.20777 1.07149
 H482 H 1.12671 1.21778 1.06126
 O483 O 0.89665 0.85765 1.02821
 O484 O 0.86327 0.82415 1.02825
 C485 C 0.88661 0.83429 1.03800
 C486 C 0.90189 0.81921 1.06144
 C487 C 0.89215 0.79249 1.07138
 H488 H 0.87388 0.78249 1.06111
 O489 O 1.10385 0.97208 1.14315
 O490 O 1.13727 0.97194 1.17662
 C491 C 1.11392 0.96222 1.16648
 C492 C 1.09867 0.93871 1.18151
 C493 C 1.10848 0.92856 1.20815
 H494 H 1.12682 0.93871 1.21815
 O495 O 0.89668 1.02831 1.14344
 O496 O 0.86332 1.02833 1.17700
 C497 C 0.88664 1.03811 1.16682
 C498 C 0.90190 1.06161 1.18183
 C499 C 0.89202 1.07188 1.20840
 H500 H 0.87362 1.06182 1.21840
 O501 O 0.97241 1.14247 1.10382
 O502 O 0.97238 1.17610 1.13709
 C503 C 0.96258 1.16584 1.11380
 C504 C 0.93905 1.18081 1.09852
 C505 C 0.92903 1.20748 1.10830
 H506 H 0.93927 1.21750 1.12658
 O507 O 1.02828 0.85712 1.10403
 O508 O 1.02818 0.82364 1.13746
 C509 C 1.03804 0.83377 1.11414
 C510 C 1.06161 0.81874 1.09900
 C511 C 1.07185 0.79222 1.10901
 H512 H 1.06170 0.78230 1.12741
 O513 O 1.14267 0.89644 1.02811
 O514 O 1.17622 0.86311 1.02805
 C515 C 1.16606 0.88644 1.03783
 C516 C 1.18115 0.90171 1.06126
 C517 C 1.20784 0.89192 1.07121
 H518 H 1.21781 0.87362 1.06094
 O519 O 0.85711 1.10352 1.02801
 O520 O 0.82368 1.13697 1.02821
 C521 C 0.83383 1.11362 1.03794
 C522 C 0.81890 1.09846 1.06155
 C523 C 0.79230 1.10833 1.07171
 H524 H 0.78227 1.12658 1.06144
 Cu525 Cu 1.00028 0.88024 1.12019
 Cu526 Cu 1.00013 0.84013 1.16039
 Cu527 Cu 1.00046 1.11969 1.12030
 Cu528 Cu 1.00043 1.15996 1.16033
 Cu529 Cu 0.88029 0.88065 1.00026
 Cu530 Cu 0.84012 0.84052 1.00031
 Cu531 Cu 1.11972 0.87998 1.00024
 Cu532 Cu 1.15990 0.83988 1.00014
 Cu533 Cu 0.88002 1.11984 0.99996
 Cu534 Cu 0.84000 1.16009 1.00021
 Cu535 Cu 1.12018 1.11978 1.00016
 Cu536 Cu 1.16025 1.15999 1.00009
 Cu537 Cu 0.88041 1.00037 1.12038
 Cu538 Cu 0.84027 1.00034 1.16057
 Cu539 Cu 1.12014 1.00008 1.12014
 Cu540 Cu 1.16035 0.99993 1.16022
 C541 C 1.07501 0.92531 1.16853
 H542 H 1.06759 0.93275 1.14780
 C543 C 1.09515 0.90511 1.22167
 C544 C 0.92563 1.07490 1.16886
 H545 H 0.93309 1.06737 1.14817
 C546 C 0.90537 1.09536 1.22186
 C547 C 0.83193 1.07492 1.07509
 H548 H 0.85263 1.06747 1.06764
 C549 C 0.77886 1.09518 1.09531
 C550 C 1.16822 0.92531 1.07479
 H551 H 1.14744 0.93270 1.06749
 C552 C 1.22146 0.90520 1.09461
 C553 C 1.07499 0.83160 1.07526
 H554 H 1.06747 0.85224 1.06769
 C555 C 1.09537 0.77871 1.09579
 C556 C 0.92553 1.16781 1.07492
 H557 H 0.93288 1.14705 1.06753
 C558 C 0.90559 1.22104 1.09500
 C559 C 0.92549 0.92547 1.16860
 H560 H 0.93295 0.93293 1.14788
 C561 C 0.90523 0.90521 1.22168
 C562 C 1.07525 1.07480 1.16870
 H563 H 1.06768 1.06728 1.14805
 C564 C 1.09581 1.09518 1.22160
 C565 C 0.92547 0.83217 1.07497
 H566 H 0.93282 0.85297 1.06768
 C567 C 0.90549 0.77886 1.09476
 C568 C 1.07501 1.16815 1.07491
 H569 H 1.06760 1.14741 1.06751
 C570 C 1.09517 1.22127 1.09501
 C571 C 0.83204 0.92568 1.07522
 H572 H 0.85278 0.93308 1.06780
 C573 C 0.77889 0.90557 1.09535
 C574 C 1.16857 1.07485 1.07503
 H575 H 1.14790 1.06737 1.06752
 C576 C 1.22155 1.09513 1.09545
 O577 O 0.97228 0.39623 0.35668
 O578 O 0.97227 0.36286 0.32315
 C579 C 0.96247 0.38616 0.33333
 C580 C 0.93890 0.40135 0.31836
 C581 C 0.92876 0.39154 0.29172
 H582 H 0.93897 0.37327 0.28167
 O583 O 1.02828 0.60337 0.35696
 O584 O 1.02822 0.63673 0.32341
 C585 C 1.03806 0.61344 0.33358
 C586 C 1.06159 0.59831 0.31851
 C587 C 1.07176 0.60833 0.29197
 H588 H 1.06158 0.62671 0.28207
 O589 O 0.85724 0.47151 0.39627
 O590 O 0.82375 0.47159 0.36286
 C591 C 0.83389 0.46175 0.38618
 C592 C 0.81885 0.43823 0.40137
 C593 C 0.79225 0.42809 0.39150
 H594 H 0.78226 0.43827 0.37316
 O595 O 1.14286 0.52764 0.39606
 O596 O 1.17643 0.52772 0.36271
 C597 C 1.16623 0.53744 0.38606
 C598 C 1.18125 0.56088 0.40139
 C599 C 1.20793 0.57094 0.39162
 H600 H 1.21794 0.56076 0.37329
 O601 O 0.89655 0.35680 0.47164
 O602 O 0.86323 0.32325 0.47161
 C603 C 0.88652 0.33346 0.46179
 C604 C 0.90174 0.31852 0.43818
 C605 C 0.89188 0.29195 0.42794
 H606 H 0.87353 0.28194 0.43809
 O607 O 1.10384 0.64256 0.47188
 O608 O 1.13725 0.67603 0.47177
 C609 C 1.11390 0.66588 0.46203
 C610 C 1.09864 0.68090 0.43852
 C611 C 1.10838 0.70756 0.42841
 H612 H 1.12669 0.71760 0.43858
 O613 O 0.89671 0.52745 0.35715
 O614 O 0.86337 0.52759 0.32359
 C615 C 0.88671 0.53730 0.33379
 C616 C 0.90201 0.56076 0.31879
 C617 C 0.89232 0.57076 0.29205
 H618 H 0.87407 0.56052 0.28199
 O619 O 1.10363 0.47180 0.35658
 O620 O 1.13704 0.47185 0.32307
 C621 C 1.11372 0.46202 0.33322
 C622 C 1.09858 0.43847 0.31820
 C623 C 1.10855 0.42830 0.29163
 H624 H 1.12689 0.43852 0.28166
 O625 O 1.02821 0.35702 0.39605
 O626 O 1.02828 0.32348 0.36270
 C627 C 1.03803 0.33368 0.38603
 C628 C 1.06154 0.31870 0.40131
 C629 C 1.07173 0.29211 0.39147
 H630 H 1.06161 0.28211 0.37311
 O631 O 0.97226 0.64263 0.39624
 O632 O 0.97221 0.67611 0.36281
 C633 C 0.96244 0.66596 0.38615
 C634 C 0.93892 0.68097 0.40136
 C635 C 0.92882 0.70760 0.39151
 H636 H 0.93904 0.71760 0.37319
 O637 O 0.85756 0.60324 0.47185
 O638 O 0.82398 0.63655 0.47182
 C639 C 0.83418 0.61323 0.46207
 C640 C 0.81913 0.59791 0.43864
 C641 C 0.79239 0.60759 0.42871
 H642 H 0.78237 0.62586 0.43897
 O643 O 1.14310 0.39628 0.47167
 O644 O 1.17657 0.36288 0.47165
 C645 C 1.16642 0.38618 0.46181
 C646 C 1.18138 0.40134 0.43817
 C647 C 1.20795 0.39146 0.42792
 H648 H 1.21798 0.37314 0.43809
 O649 O 0.97233 0.60311 0.35718
 O650 O 0.97225 0.63644 0.32360
 C651 C 0.96252 0.61312 0.33381
 C652 C 0.93906 0.59782 0.31879
 C653 C 0.92908 0.60751 0.29206
 H654 H 0.93931 0.62578 0.28200
 O655 O 1.02825 0.39613 0.35655
 O656 O 1.02831 0.36275 0.32303
 C657 C 1.03808 0.38607 0.33319
 C658 C 1.06163 0.40130 0.31817
 C659 C 1.07191 0.39142 0.29159
 H660 H 1.06184 0.37304 0.28160
 O661 O 1.14292 0.47170 0.39586
 O662 O 1.17647 0.47174 0.36250
 C663 C 1.16628 0.46190 0.38581
 C664 C 1.18128 0.43836 0.40101
 C665 C 1.20785 0.42819 0.39108
 H666 H 1.21781 0.43835 0.37271
 O667 O 0.85734 0.52745 0.39637
 O668 O 0.82383 0.52759 0.36297
 C669 C 0.83401 0.53731 0.38633
 C670 C 0.81902 0.56081 0.40161
 C671 C 0.79228 0.57080 0.39197
 H672 H 0.78218 0.56054 0.37374
 O673 O 0.89668 0.64266 0.47177
 O674 O 0.86326 0.67613 0.47172
 C675 C 0.88660 0.66598 0.46194
 C676 C 0.90181 0.68099 0.43840
 C677 C 0.89200 0.70761 0.42826
 H678 H 0.87368 0.71762 0.43844
 O679 O 1.10374 0.35709 0.47179
 O680 O 1.13706 0.32353 0.47179
 C681 C 1.11376 0.33373 0.46200
 C682 C 1.09854 0.31873 0.43846
 C683 C 1.10842 0.29214 0.42832
 H684 H 1.12674 0.28216 0.43852
 O685 O 1.10377 0.52778 0.35657
 O686 O 1.13718 0.52788 0.32306
 C687 C 1.11386 0.53766 0.33324
 C688 C 1.09868 0.56127 0.31832
 C689 C 1.10857 0.57162 0.29176
 H690 H 1.12693 0.56154 0.28171
 O691 O 0.89654 0.47152 0.35697
 O692 O 0.86321 0.47161 0.32340
 C693 C 0.88651 0.46178 0.33357
 C694 C 0.90175 0.43832 0.31849
 C695 C 0.89190 0.42821 0.29185
 H696 H 0.87354 0.43837 0.28189
 O697 O 1.02823 0.64251 0.39639
 O698 O 1.02820 0.67601 0.36298
 C699 C 1.03800 0.66585 0.38631
 C700 C 1.06151 0.68087 0.40152
 C701 C 1.07154 0.70753 0.39171
 H702 H 1.06128 0.71754 0.37343
 O703 O 0.97223 0.35692 0.39594
 O704 O 0.97225 0.32339 0.36258
 C705 C 0.96242 0.33358 0.38589
 C706 C 0.93885 0.31858 0.40109
 C707 C 0.92868 0.29201 0.39117
 H708 H 0.93886 0.28205 0.37281
 O709 O 1.14296 0.60311 0.47191
 O710 O 1.17652 0.63643 0.47181
 C711 C 1.16631 0.61312 0.46206
 C712 C 1.18129 0.59786 0.43854
 C713 C 1.20796 0.60761 0.42848
 H714 H 1.21801 0.62588 0.43872
 O715 O 0.85720 0.39599 0.47175
 O716 O 0.82371 0.36260 0.47172
 C717 C 0.83385 0.38593 0.46195
 C718 C 0.81884 0.40116 0.43844
 C719 C 0.79224 0.39131 0.42828
 H720 H 0.78225 0.37298 0.43846
 Cu721 Cu 1.00025 0.37992 0.37964
 Cu722 Cu 1.00028 0.33976 0.33951
 Cu723 Cu 1.00028 0.61957 0.38005
 Cu724 Cu 1.00021 0.65968 0.33983
 Cu725 Cu 0.88029 0.49946 0.38004
 Cu726 Cu 0.84018 0.49961 0.33984
 Cu727 Cu 1.11994 0.49973 0.37960
 Cu728 Cu 1.16014 0.49981 0.33947
 C729 C 0.92542 0.42492 0.33141
 H730 H 0.93287 0.43233 0.35214
 C731 C 0.90523 0.40479 0.27827
 C732 C 1.07501 0.57460 0.33136
 H733 H 1.06753 0.56703 0.35202
 C734 C 1.09528 0.59519 0.27840
 C735 C 0.83181 0.42480 0.42502
 H736 H 0.85252 0.43223 0.43247
 C737 C 0.77875 0.40460 0.40478
 C738 C 1.16826 0.57431 0.42503
 H739 H 1.14749 0.56694 0.43241
 C740 C 1.22147 0.59434 0.40499
 C741 C 0.92541 0.33151 0.42478
 H742 H 0.93287 0.35218 0.43228
 C743 C 0.90516 0.27851 0.40441
 C744 C 1.07502 0.66789 0.42510
 H745 H 1.06766 0.64714 0.43251
 C746 C 1.09500 0.72107 0.40497
 C747 C 0.92556 0.57426 0.33184
 H748 H 0.93288 0.56693 0.35265
 C749 C 0.90568 0.59416 0.27850
 C750 C 1.07494 0.42501 0.33114
 H751 H 1.06741 0.43247 0.35182
 C752 C 1.09541 0.40475 0.27813
 C753 C 1.07492 0.33169 0.42498
 H754 H 1.06746 0.35239 0.43242
 C755 C 1.09521 0.27865 0.40479
 C756 C 0.92545 0.66800 0.42498
 H757 H 0.93286 0.64728 0.43242
 C758 C 0.90534 0.72111 0.40479
 C759 C 0.83212 0.57434 0.42514
 H760 H 0.85293 0.56702 0.43242
 C761 C 0.77877 0.59422 0.40535
 C762 C 1.16837 0.42496 0.42473
 H763 H 1.14769 0.43243 0.43224
 C764 C 1.22139 0.40471 0.40434
 O765 O 1.02772 0.39640 0.64274
 O766 O 1.02781 0.36302 0.67625
 C767 C 1.03756 0.38635 0.66608
 C768 C 1.06109 0.40154 0.68107
 C769 C 1.07112 0.39171 0.70774
 H770 H 1.06081 0.37347 0.71777
 O771 O 0.97212 0.60336 0.64236
 O772 O 0.97208 0.63665 0.67598
 C773 C 0.96229 0.61336 0.66574
 C774 C 0.93878 0.59809 0.68075
 C775 C 0.92871 0.60787 0.70742
 H776 H 0.93890 0.62618 0.71744
 O777 O 0.85723 0.52754 0.60331
 O778 O 0.82368 0.52767 0.63667
 C779 C 0.83390 0.53741 0.61334
 C780 C 0.81895 0.56095 0.59809
 C781 C 0.79229 0.57105 0.60785
 H782 H 0.78220 0.56082 0.62612
 O783 O 1.14308 0.47172 0.60335
 O784 O 1.17650 0.47168 0.63683
 C785 C 1.16640 0.46192 0.61346
 C786 C 1.18143 0.43841 0.59825
 C787 C 1.20798 0.42819 0.60818
 H788 H 1.21792 0.43832 0.62658
 O789 O 1.10374 0.35718 0.52783
 O790 O 1.13705 0.32362 0.52786
 C791 C 1.11375 0.33384 0.53767
 C792 C 1.09850 0.31887 0.56125
 C793 C 1.10833 0.29226 0.57142
 H794 H 1.12667 0.28226 0.56126
 O795 O 0.89674 0.64269 0.52775
 O796 O 0.86333 0.67617 0.52775
 C797 C 0.88667 0.66604 0.53752
 C798 C 0.90193 0.68111 0.56098
 C799 C 0.89221 0.70781 0.57098
 H800 H 0.87393 0.71784 0.56075
 O801 O 0.89634 0.47157 0.64279
 O802 O 0.86291 0.47168 0.67628
 C803 C 0.88621 0.46181 0.66615
 C804 C 0.90129 0.43821 0.68119
 C805 C 0.89121 0.42797 0.70769
 H806 H 0.87282 0.43814 0.71760
 O807 O 1.10362 0.52760 0.64254
 O808 O 1.13687 0.52762 0.67619
 C809 C 1.11358 0.53738 0.66595
 C810 C 1.09826 0.56082 0.68096
 C811 C 1.10787 0.57076 0.70774
 H812 H 1.12610 0.56050 0.71784
 O813 O 0.97190 0.35695 0.60344
 O814 O 0.97196 0.32341 0.63680
 C815 C 0.96217 0.33357 0.61347
 C816 C 0.93870 0.31852 0.59821
 C817 C 0.92852 0.29195 0.60813
 H818 H 0.93863 0.28201 0.62654
 O819 O 1.02823 0.64275 0.60332
 O820 O 1.02826 0.67618 0.63679
 C821 C 1.03807 0.66605 0.61345
 C822 C 1.06165 0.68102 0.59827
 C823 C 1.07186 0.70762 0.60810
 H824 H 1.06170 0.71765 0.62644
 O825 O 0.85724 0.39595 0.52775
 O826 O 0.82374 0.36257 0.52779
 C827 C 0.83390 0.38589 0.53759
 C828 C 0.81889 0.40111 0.56115
 C829 C 0.79227 0.39128 0.57134
 H830 H 0.78227 0.37295 0.56119
 O831 O 1.14309 0.60328 0.52792
 O832 O 1.17664 0.63660 0.52786
 C833 C 1.16645 0.61333 0.53771
 C834 C 1.18143 0.59815 0.56130
 C835 C 1.20798 0.60807 0.57151
 H836 H 1.21796 0.62641 0.56133
 O837 O 1.02807 0.60328 0.64244
 O838 O 1.02807 0.63654 0.67607
 C839 C 1.03782 0.61323 0.66585
 C840 C 1.06123 0.59790 0.68091
 C841 C 1.07114 0.60754 0.70769
 H842 H 1.06088 0.62579 0.71775
 O843 O 0.97173 0.39604 0.64296
 O844 O 0.97176 0.36265 0.67646
 C845 C 0.96191 0.38593 0.66630
 C846 C 0.93828 0.40107 0.68129
 C847 C 0.92788 0.39110 0.70780
 H848 H 0.93792 0.37270 0.71779
 O849 O 1.14313 0.52768 0.60346
 O850 O 1.17654 0.52772 0.63694
 C851 C 1.16643 0.53752 0.61359
 C852 C 1.18143 0.56110 0.59841
 C853 C 1.20799 0.57133 0.60833
 H854 H 1.21797 0.56119 0.62670
 O855 O 0.85725 0.47157 0.60331
 O856 O 0.82368 0.47166 0.63666
 C857 C 0.83388 0.46181 0.61336
 C858 C 0.81888 0.43824 0.59818
 C859 C 0.79227 0.42812 0.60805
 H860 H 0.78226 0.43835 0.62636
 O861 O 1.10381 0.64254 0.52787
 O862 O 1.13722 0.67601 0.52781
 C863 C 1.11390 0.66588 0.53764
 C864 C 1.09871 0.68093 0.56117
 C865 C 1.10861 0.70751 0.57128
 H866 H 1.12695 0.71746 0.56107
 O867 O 0.89656 0.35673 0.52767
 O868 O 0.86323 0.32319 0.52769
 C869 C 0.88653 0.33338 0.53748
 C870 C 0.90173 0.31842 0.56105
 C871 C 0.89184 0.29186 0.57126
 H872 H 0.87353 0.28185 0.56109
 O873 O 1.10373 0.47167 0.64262
 O874 O 1.13699 0.47163 0.67626
 C875 C 1.11369 0.46187 0.66603
 C876 C 1.09835 0.43840 0.68105
 C877 C 1.10809 0.42826 0.70773
 H878 H 1.12644 0.43835 0.71775
 O879 O 0.89659 0.52755 0.64253
 O880 O 0.86319 0.52769 0.67604
 C881 C 0.88653 0.53743 0.66586
 C882 C 0.90177 0.56097 0.68082
 C883 C 0.89199 0.57107 0.70750
 H884 H 0.87372 0.56085 0.71757
 O885 O 0.97227 0.64277 0.60319
 O886 O 0.97223 0.67622 0.63664
 C887 C 0.96248 0.66611 0.61327
 C888 C 0.93902 0.68115 0.59802
 C889 C 0.92901 0.70785 0.60774
 H890 H 0.93925 0.71790 0.62600
 O891 O 1.02788 0.35709 0.60349
 O892 O 1.02798 0.32355 0.63685
 C893 C 1.03776 0.33377 0.61353
 C894 C 1.06136 0.31884 0.59831
 C895 C 1.07151 0.29223 0.60816
 H896 H 1.06130 0.28221 0.62648
 O897 O 1.14317 0.39632 0.52772
 O898 O 1.17663 0.36291 0.52775
 C899 C 1.16650 0.38624 0.53754
 C900 C 1.18149 0.40141 0.56110
 C901 C 1.20804 0.39149 0.57134
 H902 H 1.21803 0.37315 0.56117
 O903 O 0.85752 0.60335 0.52783
 O904 O 0.82396 0.63667 0.52783
 C905 C 0.83415 0.61337 0.53762
 C906 C 0.81910 0.59810 0.56110
 C907 C 0.79243 0.60789 0.57115
 H908 H 0.78246 0.62622 0.56096
 Cu909 Cu 0.99978 0.37997 0.61982
 Cu910 Cu 0.99989 0.33980 0.65995
 Cu911 Cu 1.00018 0.61972 0.61946
 Cu912 Cu 1.00015 0.65975 0.65974
 Cu913 Cu 0.88023 0.37971 0.49970
 Cu914 Cu 0.84013 0.33954 0.49970
 Cu915 Cu 1.12011 0.38007 0.49975
 Cu916 Cu 1.16018 0.33987 0.49977
 Cu917 Cu 0.88048 0.61965 0.49981
 Cu918 Cu 0.84027 0.65973 0.49978
 Cu919 Cu 1.12008 0.61953 0.49990
 Cu920 Cu 1.16028 0.65962 0.49980
 Cu921 Cu 0.88020 0.49954 0.61964
 Cu922 Cu 0.84001 0.49969 0.65977
 Cu923 Cu 1.12007 0.49966 0.61963
 Cu924 Cu 1.16008 0.49966 0.65992
 C925 C 1.07467 0.42507 0.66805
 H926 H 1.06731 0.43249 0.64729
 C927 C 1.09464 0.40487 0.72126
 C928 C 0.92534 0.57446 0.66777
 H929 H 0.93273 0.56707 0.64700
 C930 C 0.90528 0.59454 0.72099
 C931 C 0.83203 0.57445 0.57453
 H932 H 0.85279 0.56705 0.56716
 C933 C 0.77884 0.59455 0.59456
 C934 C 1.16853 0.42505 0.57453
 H935 H 1.14786 0.43254 0.56702
 C936 C 1.22148 0.40470 0.59491
 C937 C 1.07484 0.33184 0.57468
 H938 H 1.06740 0.35254 0.56723
 C939 C 1.09502 0.27875 0.59491
 C940 C 0.92551 0.66812 0.57446
 H941 H 0.93285 0.64733 0.56712
 C942 C 0.90558 0.72138 0.59438
 C943 C 0.92499 0.42480 0.66833
 H944 H 0.93261 0.43234 0.64770
 C945 C 0.90430 0.40438 0.72120
 C946 C 1.07475 0.57436 0.66787
 H947 H 1.06749 0.56708 0.64703
 C948 C 1.09449 0.59415 0.72130
 C949 C 0.92534 0.33142 0.57449
 H950 H 0.93280 0.35210 0.56700
 C951 C 0.90505 0.27844 0.59485
 C952 C 1.07506 0.66802 0.57462
 H953 H 1.06758 0.64732 0.56718
 C954 C 1.09537 0.72106 0.59478
 C955 C 0.83186 0.42476 0.57455
 H956 H 0.85257 0.43219 0.56709
 C957 C 0.77876 0.40462 0.59481
 C958 C 1.16849 0.57449 0.57472
 H959 H 1.14782 0.56699 0.56722
 C960 C 1.22146 0.59484 0.59505
 O961 O 0.60362 1.02857 0.64301
 O962 O 0.63697 1.02839 0.67655
 C963 C 0.61369 1.03828 0.66640
 C964 C 0.59857 1.06182 0.68147
 C965 C 0.60860 1.07201 0.70800
 H966 H 0.62697 1.06182 0.71791
 O967 O 0.39634 0.97261 0.64288
 O968 O 0.36295 0.97261 0.67640
 C969 C 0.38627 0.96281 0.66623
 C970 C 0.40144 0.93926 0.68122
 C971 C 0.39157 0.92913 0.70785
 H972 H 0.37329 0.93937 0.71787
 O973 O 0.52806 1.14294 0.60361
 O974 O 0.52813 1.17655 0.63690
 C975 C 0.53788 1.16632 0.61357
 C976 C 0.56135 1.18129 0.59821
 C977 C 0.57146 1.20797 0.60791
 H978 H 0.56132 1.21802 0.62624
 O979 O 0.47168 0.85744 0.60351
 O980 O 0.47171 0.82396 0.63693
 C981 C 0.46190 0.83410 0.61360
 C982 C 0.43839 0.81907 0.59837
 C983 C 0.42822 0.79246 0.60819
 H984 H 0.43835 0.78244 0.62654
 O985 O 0.64322 1.10394 0.52788
 O986 O 0.67667 1.13737 0.52791
 C987 C 0.66651 1.11407 0.53776
 C988 C 0.68143 1.09895 0.56145
 C989 C 0.70794 1.10888 0.57183
 H990 H 0.71798 1.12723 0.56172
 O991 O 0.35713 0.89686 0.52803
 O992 O 0.32358 0.86354 0.52799
 C993 C 0.33378 0.88682 0.53784
 C994 C 0.31879 0.90199 0.56144
 C995 C 0.29223 0.89205 0.57164
 H996 H 0.28228 0.87370 0.56146
 O997 O 0.47211 1.10378 0.64309
 O998 O 0.47212 1.13722 0.67654
 C999 C 0.46228 1.11391 0.66640
 C1000 C 0.43864 1.09882 0.68138
 C1001 C 0.42843 1.10880 0.70793
 H1002 H 0.43867 1.12710 0.71792
 O1003 O 0.52761 0.89694 0.64263
 O1004 O 0.52768 0.86363 0.67622
 C1005 C 0.53743 0.88694 0.66600
 C1006 C 0.56093 0.90221 0.68100
 C1007 C 0.57094 0.89247 0.70771
 H1008 H 0.56069 0.87421 0.71776
 O1009 O 0.64280 0.97268 0.60350
 O1010 O 0.67630 0.97249 0.63690
 C1011 C 0.66614 0.96282 0.61352
 C1012 C 0.68116 0.93940 0.59818
 C1013 C 0.70789 0.92939 0.60784
 H1014 H 0.71795 0.93959 0.62613
 O1015 O 0.35707 1.02846 0.60348
 O1016 O 0.32349 1.02852 0.63682
 C1017 C 0.33370 1.03826 0.61348
 C1018 C 0.31871 1.06171 0.59814
 C1019 C 0.29202 1.07181 0.60785
 H1020 H 0.28195 1.06164 0.62616
 O1021 O 0.39649 1.14324 0.52801
 O1022 O 0.36316 1.17677 0.52805
 C1023 C 0.38643 1.16656 0.53789
 C1024 C 0.40160 1.18147 0.56155
 C1025 C 0.39167 1.20799 0.57187
 H1026 H 0.37330 1.21799 0.56176
 O1027 O 0.60348 0.85785 0.52793
 O1028 O 0.63688 0.82437 0.52800
 C1029 C 0.61354 0.83453 0.53777
 C1030 C 0.59828 0.81950 0.56128
 C1031 C 0.60807 0.79284 0.57135
 H1032 H 0.62641 0.78286 0.56116
 O1033 O 0.39620 1.02857 0.64297
 O1034 O 0.36279 1.02864 0.67648
 C1035 C 0.38612 1.03842 0.66632
 C1036 C 0.40136 1.06195 0.68134
 C1037 C 0.39145 1.07224 0.70790
 H1038 H 0.37302 1.06221 0.71787
 O1039 O 0.60335 0.97261 0.64268
 O1040 O 0.63669 0.97240 0.67623
 C1041 C 0.61335 0.96271 0.66602
 C1042 C 0.59804 0.93922 0.68100
 C1043 C 0.60775 0.92917 0.70772
 H1044 H 0.62603 0.93937 0.71777
 O1045 O 0.52766 0.85762 0.60340
 O1046 O 0.52775 0.82414 0.63682
 C1047 C 0.53752 0.83432 0.61348
 C1048 C 0.56110 0.81937 0.59827
 C1049 C 0.57119 0.79272 0.60804
 H1050 H 0.56094 0.78265 0.62631
 O1051 O 0.47208 1.14306 0.60380
 O1052 O 0.47211 1.17664 0.63711
 C1053 C 0.46227 1.16642 0.61382
 C1054 C 0.43869 1.18139 0.59863
 C1055 C 0.42845 1.20790 0.60863
 H1056 H 0.43861 1.21784 0.62701
 O1057 O 0.35726 1.10391 0.52777
 O1058 O 0.32377 1.13730 0.52778
 C1059 C 0.33389 1.11395 0.53754
 C1060 C 0.31881 1.09871 0.56100
 C1061 C 0.29213 1.10850 0.57099
 H1062 H 0.28214 1.12678 0.56072
 O1063 O 0.64275 0.89714 0.52779
 O1064 O 0.67630 0.86382 0.52783
 C1065 C 0.66612 0.88714 0.53758
 C1066 C 0.68115 0.90241 0.56104
 C1067 C 0.70787 0.89271 0.57099
 H1068 H 0.71792 0.87447 0.56070
 O1069 O 0.47165 0.89683 0.64273
 O1070 O 0.47167 0.86351 0.67631
 C1071 C 0.46187 0.88681 0.66612
 C1072 C 0.43838 0.90207 0.68116
 C1073 C 0.42821 0.89224 0.70779
 H1074 H 0.43832 0.87388 0.71778
 O1075 O 0.52812 1.10399 0.64328
 O1076 O 0.52819 1.13743 0.67673
 C1077 C 0.53797 1.11410 0.66660
 C1078 C 0.56157 1.09893 0.68159
 C1079 C 0.57190 1.10885 0.70814
 H1080 H 0.56183 1.12723 0.71815
 O1081 O 0.35700 0.97250 0.60367
 O1082 O 0.32344 0.97249 0.63703
 C1083 C 0.33365 0.96266 0.61373
 C1084 C 0.31871 0.93906 0.59854
 C1085 C 0.29215 0.92880 0.60844
 H1086 H 0.28213 0.93893 0.62680
 O1087 O 0.64281 1.02863 0.60361
 O1088 O 0.67630 1.02847 0.63702
 C1089 C 0.66617 1.03836 0.61371
 C1090 C 0.68123 1.06191 0.59858
 C1091 C 0.70773 1.07212 0.60864
 H1092 H 0.71760 1.06197 0.62705
 O1093 O 0.39632 0.85750 0.52792
 O1094 O 0.36291 0.82403 0.52788
 C1095 C 0.38623 0.83416 0.53769
 C1096 C 0.40140 0.81911 0.56122
 C1097 C 0.39153 0.79251 0.57132
 H1098 H 0.37322 0.78253 0.56108
 O1099 O 0.60359 1.14286 0.52771
 O1100 O 0.63688 1.17644 0.52771
 C1101 C 0.61357 1.16623 0.53749
 C1102 C 0.59831 1.18125 0.56099
 C1103 C 0.60810 1.20791 0.57100
 H1104 H 0.62637 1.21792 0.56071
 Cu1105 Cu 0.61980 1.00064 0.61985
 Cu1106 Cu 0.65992 1.00040 0.66004
 Cu1107 Cu 0.38000 1.00054 0.61991
 Cu1108 Cu 0.33981 1.00058 0.66004
 Cu1109 Cu 0.50011 1.12008 0.62012
 Cu1110 Cu 0.50014 1.16032 0.66017
 Cu1111 Cu 0.49963 0.88054 0.61971
 Cu1112 Cu 0.49971 0.84046 0.65994
 C1113 C 0.57489 1.07525 0.66860
 H1114 H 0.56732 1.06775 0.64795
 C1115 C 0.59546 1.09555 0.72154
 C1116 C 0.42502 0.92576 0.66821
 H1117 H 0.43248 0.93319 0.64748
 C1118 C 0.40477 0.90560 0.72132
 C1119 C 0.57475 1.16826 0.57456
 H1120 H 0.56736 1.14750 0.56722
 C1121 C 0.59487 1.22146 0.59448
 C1122 C 0.42501 0.83206 0.57470
 H1123 H 0.43247 0.85277 0.56728
 C1124 C 0.40475 0.77898 0.59483
 C1125 C 0.66842 1.07529 0.57482
 H1126 H 0.64779 1.06778 0.56722
 C1127 C 0.72129 1.09563 0.59546
 C1128 C 0.33170 0.92566 0.57486
 H1129 H 0.35237 0.93318 0.56737
 C1130 C 0.27871 0.90526 0.59517
 C1131 C 0.42513 1.07522 0.66842
 H1132 H 0.43263 1.06769 0.64774
 C1133 C 0.40481 1.09570 0.72139
 C1134 C 0.57445 0.92577 0.66797
 H1135 H 0.56711 0.93313 0.64718
 C1136 C 0.59438 0.90577 0.72126
 C1137 C 0.66812 0.92594 0.57459
 H1138 H 0.64732 0.93327 0.56729
 C1139 C 0.72144 0.90602 0.59442
 C1140 C 0.33177 1.07513 0.57453
 H1141 H 0.35254 1.06774 0.56720
 C1142 C 0.27855 1.09523 0.59444
 C1143 C 0.42529 1.16849 0.57492
 H1144 H 0.43280 1.14786 0.56736
 C1145 C 0.40491 1.22140 0.59545
 C1146 C 0.57462 0.83243 0.57471
 H1147 H 0.56722 0.85318 0.56732
 C1148 C 0.59470 0.77926 0.59476
 O1149 O 0.60352 0.97256 0.35669
 O1150 O 0.63689 0.97247 0.32313
 C1151 C 0.61358 0.96270 0.33335
 C1152 C 0.59839 0.93911 0.31843
 C1153 C 0.60822 0.92890 0.29182
 H1154 H 0.62650 0.93909 0.28174
 O1155 O 0.39655 1.02840 0.35690
 O1156 O 0.36319 1.02832 0.32337
 C1157 C 0.38648 1.03815 0.33353
 C1158 C 0.40163 1.06168 0.31847
 C1159 C 0.39167 1.07179 0.29188
 H1160 H 0.37335 1.06154 0.28194
 O1161 O 0.47211 1.14319 0.39610
 O1162 O 0.47207 1.17676 0.36277
 C1163 C 0.46233 1.16657 0.38611
 C1164 C 0.43889 1.18161 0.40144
 C1165 C 0.42875 1.20823 0.39164
 H1166 H 0.43886 1.21822 0.37326
 O1167 O 0.52804 0.85755 0.39645
 O1168 O 0.52806 0.82402 0.36308
 C1169 C 0.53781 0.83418 0.38642
 C1170 C 0.56124 0.81915 0.40172
 C1171 C 0.57121 0.79240 0.39208
 H1172 H 0.56096 0.78232 0.37383
 O1173 O 0.64269 0.89704 0.47178
 O1174 O 0.67623 0.86370 0.47179
 C1175 C 0.66603 0.88699 0.46195
 C1176 C 0.68102 0.90218 0.43837
 C1177 C 0.70765 0.89234 0.42825
 H1178 H 0.71766 0.87404 0.43847
 O1179 O 0.35726 1.10417 0.47175
 O1180 O 0.32378 1.13757 0.47172
 C1181 C 0.33395 1.11427 0.46189
 C1182 C 0.31899 1.09909 0.43827
 C1183 C 0.29244 1.10900 0.42797
 H1184 H 0.28245 1.12738 0.43805
 O1185 O 0.52794 1.10389 0.35662
 O1186 O 0.52794 1.13731 0.32313
 C1187 C 0.53774 1.11398 0.33327
 C1188 C 0.56128 1.09882 0.31823
 C1189 C 0.57146 1.10877 0.29166
 H1190 H 0.56127 1.12710 0.28169
 O1191 O 0.47219 0.89693 0.35717
 O1192 O 0.47217 0.86356 0.32364
 C1193 C 0.46240 0.88688 0.33381
 C1194 C 0.43892 0.90209 0.31876
 C1195 C 0.42890 0.89225 0.29211
 H1196 H 0.43916 0.87396 0.28213
 O1197 O 0.64287 1.02849 0.39592
 O1198 O 0.67641 1.02847 0.36254
 C1199 C 0.66625 1.03825 0.38588
 C1200 C 0.68131 1.06169 0.40117
 C1201 C 0.70794 1.07183 0.39134
 H1202 H 0.71791 1.06173 0.37294
 O1203 O 0.35725 0.97254 0.39634
 O1204 O 0.32374 0.97246 0.36295
 C1205 C 0.33390 0.96273 0.38631
 C1206 C 0.31885 0.93928 0.40159
 C1207 C 0.29219 0.92924 0.39180
 H1208 H 0.28219 0.93944 0.37348
 O1209 O 0.60386 1.14298 0.47168
 O1210 O 0.63717 1.17655 0.47164
 C1211 C 0.61389 1.16633 0.46182
 C1212 C 0.59868 1.18128 0.43821
 C1213 C 0.60856 1.20785 0.42796
 H1214 H 0.62693 1.21784 0.43808
 O1215 O 0.39633 0.85759 0.47191
 O1216 O 0.36292 0.82412 0.47182
 C1217 C 0.38626 0.83427 0.46206
 C1218 C 0.40152 0.81928 0.43851
 C1219 C 0.39173 0.79264 0.42835
 H1220 H 0.37340 0.78262 0.43850
 O1221 O 0.39655 0.97244 0.35700
 O1222 O 0.36319 0.97233 0.32346
 C1223 C 0.38651 0.96259 0.33365
 C1224 C 0.40178 0.93907 0.31867
 C1225 C 0.39204 0.92891 0.29201
 H1226 H 0.37372 0.93903 0.28194
 O1227 O 0.60359 1.02853 0.35659
 O1228 O 0.63696 1.02851 0.32305
 C1229 C 0.61365 1.03832 0.33322
 C1230 C 0.59843 1.06185 0.31821
 C1231 C 0.60832 1.07210 0.29163
 H1232 H 0.62670 1.06201 0.28163
 O1233 O 0.47208 0.85761 0.39640
 O1234 O 0.47207 0.82409 0.36302
 C1235 C 0.46226 0.83428 0.38633
 C1236 C 0.43869 0.81929 0.40152
 C1237 C 0.42862 0.79267 0.39167
 H1238 H 0.43889 0.78266 0.37338
 O1239 O 0.52808 1.14302 0.39604
 O1240 O 0.52810 1.17659 0.36270
 C1241 C 0.53793 1.16635 0.38600
 C1242 C 0.56154 1.18128 0.40118
 C1243 C 0.57173 1.20784 0.39125
 H1244 H 0.56154 1.21783 0.37291
 O1245 O 0.35713 0.89695 0.47201
 O1246 O 0.32356 0.86364 0.47193
 C1247 C 0.33377 0.88696 0.46219
 C1248 C 0.31878 0.90224 0.43869
 C1249 C 0.29213 0.89249 0.42860
 H1250 H 0.28208 0.87420 0.43881
 O1251 O 0.64308 1.10365 0.47183
 O1252 O 0.67655 1.13706 0.47180
 C1253 C 0.66641 1.11373 0.46201
 C1254 C 0.68140 1.09857 0.43843
 C1255 C 0.70802 1.10841 0.42831
 H1256 H 0.71805 1.12667 0.43857
 O1257 O 0.52814 0.89680 0.35708
 O1258 O 0.52815 0.86341 0.32357
 C1259 C 0.53794 0.88673 0.33372
 C1260 C 0.56143 0.90195 0.31863
 C1261 C 0.57155 0.89205 0.29202
 H1262 H 0.56141 0.87367 0.28209
 O1263 O 0.47197 1.10400 0.35668
 O1264 O 0.47191 1.13741 0.32318
 C1265 C 0.46212 1.11409 0.33334
 C1266 C 0.43857 1.09886 0.31836
 C1267 C 0.42829 1.10870 0.29176
 H1268 H 0.43835 1.12707 0.28173
 O1269 O 0.35732 1.02850 0.39623
 O1270 O 0.32381 1.02846 0.36284
 C1271 C 0.33399 1.03831 0.38614
 C1272 C 0.31902 1.06193 0.40127
 C1273 C 0.29249 1.07212 0.39129
 H1274 H 0.28253 1.06191 0.37295
 O1275 O 0.64274 0.97256 0.39601
 O1276 O 0.67628 0.97247 0.36262
 C1277 C 0.66608 0.96272 0.38597
 C1278 C 0.68105 0.93920 0.40123
 C1279 C 0.70767 0.92906 0.39142
 H1280 H 0.71770 0.93923 0.37308
 O1281 O 0.60351 0.85767 0.47196
 O1282 O 0.63689 0.82418 0.47198
 C1283 C 0.61356 0.83430 0.46221
 C1284 C 0.59829 0.81921 0.43879
 C1285 C 0.60798 0.79247 0.42886
 H1286 H 0.62623 0.78244 0.43914
 O1287 O 0.39672 1.14327 0.47197
 O1288 O 0.36340 1.17682 0.47196
 C1289 C 0.38671 1.16663 0.46218
 C1290 C 0.40195 1.18164 0.43866
 C1291 C 0.39211 1.20826 0.42856
 H1292 H 0.37382 1.21826 0.43881
 Cu1293 Cu 0.61983 1.00056 0.37964
 Cu1294 Cu 0.65999 1.00048 0.33947
 Cu1295 Cu 0.38026 1.00046 0.37997
 Cu1296 Cu 0.34012 1.00038 0.33980
 Cu1297 Cu 0.62012 1.12000 0.49978
 Cu1298 Cu 0.66017 1.16022 0.49976
 Cu1299 Cu 0.61976 0.88077 0.49986
 Cu1300 Cu 0.65995 0.84067 0.49991
 Cu1301 Cu 0.38027 1.12031 0.49987
 Cu1302 Cu 0.34018 1.16048 0.49988
 Cu1303 Cu 0.38008 0.88056 0.49997
 Cu1304 Cu 0.33988 0.84048 0.49990
 Cu1305 Cu 0.50001 1.12017 0.37969
 Cu1306 Cu 0.50000 1.16038 0.33959
 Cu1307 Cu 0.50013 0.88057 0.38013
 Cu1308 Cu 0.50012 0.84041 0.33997
 C1309 C 0.57481 0.92566 0.33151
 H1310 H 0.56738 0.93314 0.35222
 C1311 C 0.59498 0.90534 0.27842
 C1312 C 0.42525 1.07518 0.33138
 H1313 H 0.43277 1.06774 0.35207
 C1314 C 0.40480 1.09532 0.27833
 C1315 C 0.42552 1.16864 0.42514
 H1316 H 0.43295 1.14791 0.43255
 C1317 C 0.40532 1.22174 0.40502
 C1318 C 0.57475 0.83222 0.42526
 H1319 H 0.56744 0.85303 0.43254
 C1320 C 0.59460 0.77886 0.40549
 C1321 C 0.66805 0.92578 0.42489
 H1322 H 0.64732 0.93322 0.43231
 C1323 C 0.72117 0.90561 0.40474
 C1324 C 0.33194 1.07538 0.42493
 H1325 H 0.35259 1.06789 0.43248
 C1326 C 0.27900 1.09568 0.40444
 C1327 C 0.57473 1.07518 0.33117
 H1328 H 0.56725 1.06767 0.35187
 C1329 C 0.59501 1.09560 0.27816
 C1330 C 0.42540 0.92569 0.33172
 H1331 H 0.43277 0.93312 0.35247
 C1332 C 0.40543 0.90546 0.27854
 C1333 C 0.66838 1.07503 0.42490
 H1334 H 0.64766 1.06760 0.43233
 C1335 C 0.72148 1.09522 0.40474
 C1336 C 0.33182 0.92582 0.42522
 H1337 H 0.35257 0.93319 0.43262
 C1338 C 0.27864 0.90581 0.40512
 C1339 C 0.57499 1.16833 0.42484
 H1340 H 0.56750 1.14766 0.43235
 C1341 C 0.59527 1.22132 0.40444
 C1342 C 0.42517 0.83227 0.42512
 H1343 H 0.43257 0.85299 0.43256
 C1344 C 0.40512 0.77914 0.40490
 O1345 O 0.47188 0.39601 0.85701
 O1346 O 0.47201 0.36264 0.82349
 C1347 C 0.46213 0.38591 0.83365
 C1348 C 0.43852 0.40101 0.81863
 C1349 C 0.42830 0.39100 0.79210
 H1350 H 0.43849 0.37266 0.78214
 O1351 O 0.52759 0.60327 0.85748
 O1352 O 0.52764 0.63657 0.82387
 C1353 C 0.53743 0.61328 0.83411
 C1354 C 0.56097 0.59805 0.81914
 C1355 C 0.57104 0.60782 0.79246
 H1356 H 0.56080 0.62608 0.78240
 O1357 O 0.35715 0.47138 0.89646
 O1358 O 0.32354 0.47141 0.86317
 C1359 C 0.33375 0.46162 0.88648
 C1360 C 0.31873 0.43817 0.90179
 C1361 C 0.29207 0.42807 0.89206
 H1362 H 0.28203 0.43822 0.87373
 O1363 O 0.64265 0.52765 0.89690
 O1364 O 0.67614 0.52782 0.86347
 C1365 C 0.66597 0.53752 0.88683
 C1366 C 0.68093 0.56103 0.90209
 C1367 C 0.70760 0.57110 0.89233
 H1368 H 0.71767 0.56086 0.87406
 O1369 O 0.39632 0.35665 0.97205
 O1370 O 0.36297 0.32313 0.97205
 C1371 C 0.38625 0.33332 0.96220
 C1372 C 0.40144 0.31838 0.93856
 C1373 C 0.39153 0.29185 0.92823
 H1374 H 0.37315 0.28185 0.93833
 O1375 O 0.60298 0.64263 0.97228
 O1376 O 0.63637 0.67612 0.97224
 C1377 C 0.61305 0.66597 0.96246
 C1378 C 0.59782 0.68098 0.93895
 C1379 C 0.60758 0.70766 0.92890
 H1380 H 0.62585 0.71768 0.93915
 O1381 O 0.39644 0.52730 0.85713
 O1382 O 0.36300 0.52739 0.82367
 C1383 C 0.38634 0.53715 0.83382
 C1384 C 0.40151 0.56073 0.81884
 C1385 C 0.39165 0.57085 0.79221
 H1386 H 0.37339 0.56060 0.78218
 O1387 O 0.60340 0.47179 0.85749
 O1388 O 0.63673 0.47193 0.82390
 C1389 C 0.61344 0.46209 0.83408
 C1390 C 0.59824 0.43862 0.81899
 C1391 C 0.60811 0.42863 0.79232
 H1392 H 0.62641 0.43890 0.78235
 O1393 O 0.52788 0.35694 0.89649
 O1394 O 0.52805 0.32342 0.86311
 C1395 C 0.53776 0.33361 0.88646
 C1396 C 0.56129 0.31865 0.90172
 C1397 C 0.57148 0.29207 0.89185
 H1398 H 0.56135 0.28208 0.87349
 O1399 O 0.47155 0.64265 0.89655
 O1400 O 0.47155 0.67612 0.86311
 C1401 C 0.46175 0.66598 0.88645
 C1402 C 0.43824 0.68100 0.90169
 C1403 C 0.42806 0.70761 0.89187
 H1404 H 0.43819 0.71762 0.87350
 O1405 O 0.35728 0.60312 0.97230
 O1406 O 0.32362 0.63634 0.97220
 C1407 C 0.33390 0.61304 0.96246
 C1408 C 0.31893 0.59771 0.93898
 C1409 C 0.29219 0.60737 0.92901
 H1410 H 0.28212 0.62561 0.93927
 O1411 O 0.64303 0.39603 0.97204
 O1412 O 0.67653 0.36266 0.97202
 C1413 C 0.66636 0.38595 0.96218
 C1414 C 0.68130 0.40112 0.93853
 C1415 C 0.70779 0.39116 0.92811
 H1416 H 0.71777 0.37275 0.93815
 O1417 O 0.47163 0.60325 0.85735
 O1418 O 0.47163 0.63656 0.82375
 C1419 C 0.46186 0.61325 0.83395
 C1420 C 0.43841 0.59795 0.81891
 C1421 C 0.42826 0.60776 0.79227
 H1422 H 0.43836 0.62614 0.78229
 O1423 O 0.52786 0.39620 0.85715
 O1424 O 0.52804 0.36285 0.82361
 C1425 C 0.53774 0.38619 0.83380
 C1426 C 0.56125 0.40149 0.81883
 C1427 C 0.57143 0.39179 0.79216
 H1428 H 0.56131 0.37349 0.78207
 O1429 O 0.64284 0.47167 0.89663
 O1430 O 0.67630 0.47181 0.86317
 C1431 C 0.66617 0.46191 0.88647
 C1432 C 0.68119 0.43828 0.90153
 C1433 C 0.70767 0.42803 0.89142
 H1434 H 0.71756 0.43822 0.87302
 O1435 O 0.35727 0.52732 0.89655
 O1436 O 0.32366 0.52740 0.86325
 C1437 C 0.33390 0.53715 0.88657
 C1438 C 0.31892 0.56064 0.90189
 C1439 C 0.29218 0.57062 0.89223
 H1440 H 0.28210 0.56037 0.87397
 O1441 O 0.39626 0.64267 0.97229
 O1442 O 0.36276 0.67604 0.97219
 C1443 C 0.38612 0.66595 0.96243
 C1444 C 0.40128 0.68097 0.93888
 C1445 C 0.39140 0.70757 0.92878
 H1446 H 0.37310 0.71756 0.93903
 O1447 O 0.60352 0.35699 0.97219
 O1448 O 0.63686 0.32346 0.97218
 C1449 C 0.61354 0.33364 0.96239
 C1450 C 0.59832 0.31865 0.93884
 C1451 C 0.60821 0.29208 0.92867
 H1452 H 0.62654 0.28209 0.93884
 O1453 O 0.60339 0.52773 0.85756
 O1454 O 0.63674 0.52789 0.82399
 C1455 C 0.61341 0.53760 0.83420
 C1456 C 0.59812 0.56108 0.81919
 C1457 C 0.60788 0.57116 0.79250
 H1458 H 0.62620 0.56099 0.78247
 O1459 O 0.39629 0.47133 0.85699
 O1460 O 0.36285 0.47135 0.82353
 C1461 C 0.38618 0.46153 0.83365
 C1462 C 0.40135 0.43796 0.81862
 C1463 C 0.39141 0.42765 0.79208
 H1464 H 0.37301 0.43772 0.78211
 O1465 O 0.52749 0.64264 0.89665
 O1466 O 0.52756 0.67611 0.86322
 C1467 C 0.53731 0.66597 0.88658
 C1468 C 0.56079 0.68100 0.90184
 C1469 C 0.57084 0.70767 0.89209
 H1470 H 0.56064 0.71771 0.87379
 O1471 O 0.47190 0.35684 0.89641
 O1472 O 0.47202 0.32333 0.86303
 C1473 C 0.46214 0.33349 0.88634
 C1474 C 0.43856 0.31848 0.90149
 C1475 C 0.42836 0.29196 0.89149
 H1476 H 0.43855 0.28204 0.87311
 O1477 O 0.64236 0.60345 0.97231
 O1478 O 0.67590 0.63678 0.97228
 C1479 C 0.66574 0.61346 0.96252
 C1480 C 0.68081 0.59818 0.93907
 C1481 C 0.70748 0.60796 0.92901
 H1482 H 0.71747 0.62629 0.93919
 O1483 O 0.35716 0.39604 0.97223
 O1484 O 0.32365 0.36267 0.97226
 C1485 C 0.33380 0.38599 0.96247
 C1486 C 0.31876 0.40121 0.93897
 C1487 C 0.29210 0.39141 0.92895
 H1488 H 0.28209 0.37314 0.93923
 Cu1489 Cu 0.49987 0.37984 0.88010
 Cu1490 Cu 0.50006 0.33970 0.83995
 Cu1491 Cu 0.49955 0.61962 0.88036
 Cu1492 Cu 0.49960 0.65969 0.84011
 Cu1493 Cu 0.38015 0.49931 0.88011
 Cu1494 Cu 0.33990 0.49940 0.84005
 Cu1495 Cu 0.61974 0.49970 0.88051
 Cu1496 Cu 0.65984 0.49988 0.84027
 C1497 C 0.42508 0.42466 0.83155
 H1498 H 0.43260 0.43221 0.85221
 C1499 C 0.40471 0.40414 0.77862
 C1500 C 0.57448 0.57450 0.83219
 H1501 H 0.56710 0.56712 0.85296
 C1502 C 0.59452 0.59456 0.77895
 C1503 C 0.33175 0.42477 0.92543
 H1504 H 0.35250 0.43217 0.93279
 C1505 C 0.27856 0.40465 0.90547
 C1506 C 0.66786 0.57454 0.92564
 H1507 H 0.64710 0.56715 0.93301
 C1508 C 0.72107 0.59459 0.90561
 C1509 C 0.42513 0.33136 0.92520
 H1510 H 0.43263 0.35200 0.93276
 C1511 C 0.40482 0.27845 0.90466
 C1512 C 0.57424 0.66798 0.92545
 H1513 H 0.56687 0.64722 0.93282
 C1514 C 0.59427 0.72120 0.90545
 C1515 C 0.42506 0.57424 0.83186
 H1516 H 0.43250 0.56682 0.85259
 C1517 C 0.40484 0.59439 0.77874
 C1518 C 0.57464 0.42509 0.83192
 H1519 H 0.56719 0.43242 0.85268
 C1520 C 0.59490 0.40519 0.77871
 C1521 C 0.57468 0.33161 0.92540
 H1522 H 0.56720 0.35231 0.93286
 C1523 C 0.59498 0.27860 0.90514
 C1524 C 0.42487 0.66802 0.92537
 H1525 H 0.43233 0.64731 0.93280
 C1526 C 0.40461 0.72109 0.90525
 C1527 C 0.33198 0.57416 0.92545
 H1528 H 0.35278 0.56686 0.93276
 C1529 C 0.27863 0.59401 0.90561
 C1530 C 0.66835 0.42485 0.92526
 H1531 H 0.64774 0.43239 0.93290
 C1532 C 0.72117 0.40444 0.90451
 O1533 O 0.52783 0.39609 1.14334
 O1534 O 0.52780 0.36269 1.17686
 C1535 C 0.53761 0.38601 1.16670
 C1536 C 0.56115 0.40116 1.18172
 C1537 C 0.57137 0.39120 1.20827
 H1538 H 0.56120 0.37285 1.21824
 O1539 O 0.47155 0.60344 1.14294
 O1540 O 0.47157 0.63672 1.17656
 C1541 C 0.46177 0.61344 1.16634
 C1542 C 0.43827 0.59821 1.18137
 C1543 C 0.42817 0.60806 1.20800
 H1544 H 0.43836 0.62639 1.21797
 O1545 O 0.35689 0.52765 1.10380
 O1546 O 0.32336 0.52766 1.13718
 C1547 C 0.33354 0.53745 1.11385
 C1548 C 0.31855 0.56099 1.09863
 C1549 C 0.29197 0.57120 1.10851
 H1550 H 0.28194 0.56107 1.12686
 O1551 O 0.64249 0.47162 1.10382
 O1552 O 0.67601 0.47173 1.13719
 C1553 C 0.66588 0.46192 1.11386
 C1554 C 0.68100 0.43849 1.09859
 C1555 C 0.70767 0.42849 1.10840
 H1556 H 0.71762 0.43869 1.12674
 O1557 O 0.60370 0.35693 1.02822
 O1558 O 0.63705 0.32341 1.02827
 C1559 C 0.61375 0.33361 1.03809
 C1560 C 0.59856 0.31865 1.06172
 C1561 C 0.60847 0.29211 1.07198
 H1562 H 0.62683 0.28212 1.06185
 O1563 O 0.39619 0.64275 1.02829
 O1564 O 0.36271 0.67614 1.02823
 C1565 C 0.38604 0.66607 1.03807
 C1566 C 0.40121 0.68114 1.06160
 C1567 C 0.39137 0.70776 1.07172
 H1568 H 0.37305 0.71775 1.06152
 O1569 O 0.39630 0.47176 1.14307
 O1570 O 0.36291 0.47172 1.17660
 C1571 C 0.38623 0.46194 1.16642
 C1572 C 0.40141 0.43840 1.18144
 C1573 C 0.39148 0.42827 1.20803
 H1574 H 0.37316 0.43849 1.21800
 O1575 O 0.60296 0.52745 1.14303
 O1576 O 0.63631 0.52760 1.17658
 C1577 C 0.61297 0.53730 1.16638
 C1578 C 0.59767 0.56078 1.18137
 C1579 C 0.60735 0.57076 1.20811
 H1580 H 0.62557 0.56048 1.21820
 O1581 O 0.47202 0.35681 1.10385
 O1582 O 0.47194 0.32327 1.13721
 C1583 C 0.46222 0.33344 1.11386
 C1584 C 0.43878 0.31842 1.09854
 C1585 C 0.42866 0.29178 1.10833
 H1586 H 0.43880 0.28177 1.12669
 O1587 O 0.52755 0.64281 1.10377
 O1588 O 0.52760 0.67623 1.13725
 C1589 C 0.53737 0.66612 1.11390
 C1590 C 0.56090 0.68114 1.09869
 C1591 C 0.57102 0.70775 1.10855
 H1592 H 0.56082 0.71774 1.12689
 O1593 O 0.35713 0.39587 1.02824
 O1594 O 0.32364 0.36249 1.02832
 C1595 C 0.33381 0.38581 1.03811
 C1596 C 0.31881 0.40103 1.06170
 C1597 C 0.29223 0.39115 1.07195
 H1598 H 0.28225 0.37277 1.06185
 O1599 O 0.64216 0.60331 1.02829
 O1600 O 0.67572 0.63664 1.02830
 C1601 C 0.66552 0.61333 1.03808
 C1602 C 0.68056 0.59805 1.06155
 C1603 C 0.70728 0.60776 1.07150
 H1604 H 0.71729 0.62603 1.06122
 O1605 O 0.52749 0.60332 1.14287
 O1606 O 0.52754 0.63658 1.17651
 C1607 C 0.53728 0.61327 1.16628
 C1608 C 0.56070 0.59793 1.18131
 C1609 C 0.57067 0.60760 1.20806
 H1610 H 0.56047 0.62588 1.21810
 O1611 O 0.47185 0.39609 1.14319
 O1612 O 0.47175 0.36270 1.17671
 C1613 C 0.46198 0.38602 1.16653
 C1614 C 0.43840 0.40125 1.18150
 C1615 C 0.42814 0.39141 1.20811
 H1616 H 0.43823 0.37305 1.21814
 O1617 O 0.64239 0.52756 1.10387
 O1618 O 0.67591 0.52772 1.13725
 C1619 C 0.66571 0.53744 1.11391
 C1620 C 0.68066 0.56097 1.09862
 C1621 C 0.70739 0.57099 1.10827
 H1622 H 0.71749 0.56076 1.12652
 O1623 O 0.35703 0.47167 1.10377
 O1624 O 0.32350 0.47163 1.13716
 C1625 C 0.33371 0.46182 1.11384
 C1626 C 0.31877 0.43821 1.09868
 C1627 C 0.29220 0.42804 1.10861
 H1628 H 0.28220 0.43826 1.12692
 O1629 O 0.60311 0.64281 1.02828
 O1630 O 0.63651 0.67629 1.02829
 C1631 C 0.61318 0.66614 1.03808
 C1632 C 0.59797 0.68116 1.06162
 C1633 C 0.60780 0.70777 1.07177
 H1634 H 0.62613 0.71777 1.06158
 O1635 O 0.39658 0.35676 1.02807
 O1636 O 0.36324 0.32322 1.02813
 C1637 C 0.38657 0.33340 1.03788
 C1638 C 0.40181 0.31840 1.06138
 C1639 C 0.39200 0.29177 1.07146
 H1640 H 0.37371 0.28176 1.06122
 O1641 O 0.60335 0.47149 1.14331
 O1642 O 0.63672 0.47159 1.17684
 C1643 C 0.61343 0.46173 1.16668
 C1644 C 0.59827 0.43817 1.18171
 C1645 C 0.60820 0.42790 1.20827
 H1646 H 0.62659 0.43800 1.21824
 O1647 O 0.39614 0.52773 1.14314
 O1648 O 0.36276 0.52773 1.17668
 C1649 C 0.38606 0.53755 1.16649
 C1650 C 0.40125 0.56112 1.18148
 C1651 C 0.39142 0.57129 1.20812
 H1652 H 0.37311 0.56112 1.21817
 O1653 O 0.47159 0.64283 1.10375
 O1654 O 0.47159 0.67626 1.13722
 C1655 C 0.46180 0.66615 1.11387
 C1656 C 0.43828 0.68117 1.09867
 C1657 C 0.42815 0.70779 1.10850
 H1658 H 0.43836 0.71780 1.12681
 O1659 O 0.52800 0.35695 1.10392
 O1660 O 0.52797 0.32340 1.13728
 C1661 C 0.53782 0.33362 1.11399
 C1662 C 0.56144 0.31866 1.09881
 C1663 C 0.57167 0.29212 1.10875
 H1664 H 0.56150 0.28215 1.12712
 O1665 O 0.64288 0.39629 1.02807
 O1666 O 0.67640 0.36294 1.02812
 C1667 C 0.66622 0.38626 1.03789
 C1668 C 0.68118 0.40151 1.06143
 C1669 C 0.70785 0.39180 1.07154
 H1670 H 0.71794 0.37355 1.06131
 O1671 O 0.35708 0.60330 1.02830
 O1672 O 0.32345 0.63655 1.02822
 C1673 C 0.33368 0.61328 1.03805
 C1674 C 0.31865 0.59806 1.06156
 C1675 C 0.29207 0.60796 1.07171
 H1676 H 0.28212 0.62631 1.06154
 Cu1677 Cu 0.49992 0.37983 1.12024
 Cu1678 Cu 0.49985 0.33966 1.16037
 Cu1679 Cu 0.49955 0.61977 1.11997
 Cu1680 Cu 0.49958 0.65980 1.16026
 Cu1681 Cu 0.38014 0.37967 1.00014
 Cu1682 Cu 0.34002 0.33952 1.00020
 Cu1683 Cu 0.61995 0.37990 1.00012
 Cu1684 Cu 0.66006 0.33976 1.00016
 Cu1685 Cu 0.38007 0.61964 1.00031
 Cu1686 Cu 0.33976 0.65961 1.00020
 Cu1687 Cu 0.61930 0.61972 1.00029
 Cu1688 Cu 0.65949 0.65982 1.00028
 Cu1689 Cu 0.37993 0.49972 1.12010
 Cu1690 Cu 0.33977 0.49967 1.16026
 Cu1691 Cu 0.61945 0.49950 1.12017
 Cu1692 Cu 0.65959 0.49968 1.16033
 C1693 C 0.57457 0.42482 1.16878
 H1694 H 0.56706 0.43235 1.14811
 C1695 C 0.59493 0.40438 1.22174
 C1696 C 0.42485 0.57456 1.16844
 H1697 H 0.43228 0.56711 1.14770
 C1698 C 0.40472 0.59480 1.22157
 C1699 C 0.33156 0.57440 1.07498
 H1700 H 0.35226 0.56692 1.06753
 C1701 C 0.27854 0.59473 1.09522
 C1702 C 0.66809 0.42504 1.07493
 H1703 H 0.64733 0.43238 1.06752
 C1704 C 0.72129 0.40511 1.09505
 C1705 C 0.57487 0.33160 1.07512
 H1706 H 0.56737 0.35226 1.06759
 C1707 C 0.59521 0.27865 1.09553
 C1708 C 0.42484 0.66819 1.07505
 H1709 H 0.43227 0.64747 1.06762
 C1710 C 0.40468 0.72129 1.09520
 C1711 C 0.42505 0.42492 1.16850
 H1712 H 0.43256 0.43237 1.14779
 C1713 C 0.40464 0.40475 1.22156
 C1714 C 0.57416 0.57433 1.16829
 H1715 H 0.56686 0.56702 1.14747
 C1716 C 0.59403 0.59419 1.22165
 C1717 C 0.42539 0.33140 1.07488
 H1718 H 0.43279 0.35214 1.06749
 C1719 C 0.40523 0.27827 1.09497
 C1720 C 0.57434 0.66818 1.07505
 H1721 H 0.56691 0.64747 1.06760
 C1722 C 0.59450 0.72126 1.09527
 C1723 C 0.33175 0.42473 1.07505
 H1724 H 0.35243 0.43221 1.06755
 C1725 C 0.27873 0.40448 1.09543
 C1726 C 0.66757 0.57447 1.07508
 H1727 H 0.64678 0.56713 1.06778
 C1728 C 0.72089 0.59442 1.09488
 N1729 N 1.14152 1.10505 1.28581
 C1730 C 1.12943 1.12831 1.29850
 N1731 N 1.10596 1.14035 1.28612
 N1732 N 1.09514 1.12967 1.26192
 C1733 C 1.10731 1.10651 1.24908
 N1734 N 1.13068 1.09439 1.26161
 N1735 N 1.10372 0.63889 0.78622
 C1736 C 1.12690 0.62666 0.79886
 N1737 N 1.13913 0.60344 0.78628
 N1738 N 1.12864 0.59294 0.76186
 C1739 C 1.10553 0.60523 0.74903
 N1740 N 1.09325 0.62837 0.76180
 N1741 N 0.64120 1.10526 0.78576
 C1742 C 0.62915 1.12851 0.79850
 N1743 N 0.60569 1.14059 0.78615
 N1744 N 0.59485 1.12998 0.76193
 C1745 C 0.60699 1.10683 0.74903
 N1746 N 0.63034 1.09466 0.76154
 N1747 N 0.63887 0.60354 1.28648
 C1748 C 0.62672 0.62681 1.29905
 N1749 N 0.60351 0.63904 1.28645
 N1750 N 0.59295 0.62849 1.26209
 C1751 C 0.60516 0.60531 1.24933
 N1752 N 0.62829 0.59301 1.26211
 N1753 N 0.85997 0.89537 1.28622
 C1754 C 0.87204 0.87201 1.29874
 N1755 N 0.89536 0.85991 1.28617
 N1756 N 0.90606 0.87062 1.26192
 C1757 C 0.89390 0.89387 1.24923
 N1758 N 0.87068 0.90606 1.26196
 N1759 N 0.89396 0.35923 0.78574
 C1760 C 0.87050 0.37131 0.79810
 N1761 N 0.85846 0.39458 0.78538
 N1762 N 0.86936 0.40521 0.76117
 C1763 C 0.89272 0.39305 0.74866
 N1764 N 0.90483 0.36988 0.76154
 N1765 N 0.35943 0.89592 0.78582
 C1766 C 0.37154 0.87266 0.79841
 N1767 N 0.39487 0.86051 0.78594
 N1768 N 0.40559 0.87115 0.76166
 C1769 C 0.39342 0.89434 0.74888
 N1770 N 0.37016 0.90655 0.76155
 N1771 N 0.39458 0.35984 1.28628
 C1772 C 0.37112 0.37192 1.29864
 N1773 N 0.35902 0.39513 1.28589
 N1774 N 0.36984 0.40570 1.26163
 C1775 C 0.39319 0.39353 1.24911
 N1776 N 0.40537 0.37042 1.26202
 N1777 N 0.89418 1.14059 0.71406
 C1778 C 0.87071 1.12852 0.70173
 N1779 N 0.85863 1.10529 0.71449
 N1780 N 0.86950 1.09469 0.73872
 C1781 C 0.89287 1.10685 0.75120
 N1782 N 0.90502 1.12998 0.73829
 N1783 N 0.89623 0.63904 0.21370
 C1784 C 0.87298 0.62685 0.20113
 N1785 N 0.86079 0.60362 0.21372
 N1786 N 0.87137 0.59305 0.23807
 C1787 C 0.89454 0.60530 0.25083
 N1788 N 0.90679 0.62846 0.23806
 N1789 N 0.39462 1.14017 0.21359
 C1790 C 0.37118 1.12804 0.20127
 N1791 N 0.35913 1.10481 0.21405
 N1792 N 0.36998 1.09428 0.23830
 C1793 C 0.39332 1.10650 0.25079
 N1794 N 0.40545 1.12962 0.23785
 N1795 N 0.35959 0.60407 0.71421
 C1796 C 0.37169 0.62736 0.70164
 N1797 N 0.39499 0.63952 0.71415
 N1798 N 0.40568 0.62887 0.73842
 C1799 C 0.39352 0.60565 0.75117
 N1800 N 0.37030 0.59343 0.73849
 N1801 N 1.14044 0.89582 0.71426
 C1802 C 1.12835 0.87254 0.70166
 N1803 N 1.10504 0.86036 0.71413
 N1804 N 1.09431 0.87096 0.73841
 C1805 C 1.10645 0.89417 0.75120
 N1806 N 1.12969 0.90641 0.73854
 N1807 N 1.10557 0.35966 0.21355
 C1808 C 1.12901 0.37174 0.20116
 N1809 N 1.14107 0.39501 0.21385
 N1810 N 1.13023 0.40564 0.23807
 C1811 C 1.10689 0.39347 0.25062
 N1812 N 1.09475 0.37031 0.23777
 N1813 N 0.64014 0.89544 0.21383
 C1814 C 0.62803 0.87209 0.20133
 N1815 N 0.60471 0.86001 0.21394
 N1816 N 0.59406 0.87074 0.23820
 C1817 C 0.60626 0.89398 0.25087
 N1818 N 0.62947 0.90615 0.23810
 N1819 N 0.64031 0.39586 0.71420
 C1820 C 0.62815 0.37271 0.70144
 N1821 N 0.60478 0.36053 0.71382
 N1822 N 0.59405 0.37102 0.73814
 C1823 C 0.60626 0.39410 0.75109
 N1824 N 0.62956 0.40634 0.73853
 N1825 N 1.28618 1.14013 1.10543
 C1826 C 1.29860 1.12804 1.12885
 N1827 N 1.28590 1.10480 1.14097
 N1828 N 1.26165 1.09421 1.13020
 C1829 C 1.24907 1.10639 1.10687
 N1830 N 1.26193 1.12953 1.09468
 N1831 N 1.28585 0.64023 0.60484
 C1832 C 1.29847 0.62814 0.62815
 N1833 N 1.28598 0.60476 0.64024
 N1834 N 1.26175 0.59404 0.62958
 C1835 C 1.24897 0.60622 0.60637
 N1836 N 1.26161 0.62950 0.59419
 N1837 N 0.78589 1.14063 0.60569
 C1838 C 0.79821 1.12855 0.62918
 N1839 N 0.78544 1.10533 0.64127
 N1840 N 0.76123 1.09474 0.63040
 C1841 C 0.74876 1.10691 0.60701
 N1842 N 0.76168 1.13003 0.59485
 N1843 N 0.78592 0.60382 1.13940
 C1844 C 0.79843 0.62707 1.12715
 N1845 N 0.78570 0.63930 1.10400
 N1846 N 0.76128 0.62875 1.09359
 C1847 C 0.74860 0.60557 1.10590
 N1848 N 0.76150 0.59328 1.12898
 N1849 N 1.28561 0.85961 0.89519
 C1850 C 1.29822 0.87176 0.87189
 N1851 N 1.28570 0.89511 0.85982
 N1852 N 1.26143 0.90576 0.87049
 C1853 C 1.24865 0.89353 0.89368
 N1854 N 1.26134 0.87027 0.90584
 N1855 N 1.28607 0.35975 0.39446
 C1856 C 1.29851 0.37183 0.37103
 N1857 N 1.28581 0.39505 0.35889
 N1858 N 1.26153 0.40563 0.36963
 C1859 C 1.24894 0.39346 0.39295
 N1860 N 1.26180 0.37035 0.40518
 N1861 N 0.78578 0.86052 0.39511
 C1862 C 0.79835 0.87267 0.37182
 N1863 N 0.78580 0.89593 0.35964
 N1864 N 0.76150 0.90655 0.37027
 C1865 C 0.74875 0.89435 0.39349
 N1866 N 0.76148 0.87115 0.40573
 N1867 N 0.78528 0.39461 0.85862
 C1868 C 0.79798 0.37133 0.87067
 N1869 N 0.78564 0.35927 0.89415
 N1870 N 0.76146 0.36993 0.90503
 C1871 C 0.74860 0.39310 0.89291
 N1872 N 0.76110 0.40525 0.86952
 N1873 N 0.71423 0.86055 1.10495
 C1874 C 0.70167 0.87270 1.12824
 N1875 N 0.71423 0.89594 1.14043
 N1876 N 0.73855 0.90654 1.12981
 C1877 C 0.75129 0.89434 1.10659
 N1878 N 0.73854 0.87117 1.09434
 N1879 N 0.71405 0.35969 0.60458
 C1880 C 0.70151 0.37184 0.62791
 N1881 N 0.71416 0.39511 0.64003
 N1882 N 0.73848 0.40566 0.62936
 C1883 C 0.75117 0.39341 0.60613
 N1884 N 0.73837 0.37025 0.59392
 N1885 N 0.21434 0.85981 0.60490
 C1886 C 0.20169 0.87188 0.62821
 N1887 N 0.21414 0.89525 0.64033
 N1888 N 0.23839 0.90600 0.62969
 C1889 C 0.25120 0.89385 0.60648
 N1890 N 0.23858 0.87058 0.59427
 N1891 N 0.21430 0.39486 1.14088
 C1892 C 0.20165 0.37158 1.12880
 N1893 N 0.21411 0.35945 1.10542
 N1894 N 0.23838 0.37005 1.09468
 C1895 C 0.25120 0.39323 1.10684
 N1896 N 0.23857 0.40544 1.13012
 N1897 N 0.71403 1.14060 0.89447
 C1898 C 0.70166 1.12852 0.87101
 N1899 N 0.71437 1.10526 0.85894
 N1900 N 0.73858 1.09465 0.86979
 C1901 C 0.75110 1.10682 0.89315
 N1902 N 0.73824 1.12998 0.90530
 N1903 N 0.71375 0.60361 0.36082
 C1904 C 0.70124 0.62686 0.37307
 N1905 N 0.71396 0.63909 0.39622
 N1906 N 0.73837 0.62853 0.40664
 C1907 C 0.75106 0.60535 0.39433
 N1908 N 0.73816 0.59307 0.37125
 N1909 N 0.21468 1.10529 0.35886
 C1910 C 0.20198 1.12856 0.37091
 N1911 N 0.21439 1.14069 0.39432
 N1912 N 0.23863 1.13011 0.40511
 C1913 C 0.25149 1.10694 0.39297
 N1914 N 0.23893 1.09472 0.36967
 N1915 N 0.21372 0.60341 0.86091
 C1916 C 0.20116 0.62663 0.87316
 N1917 N 0.21379 0.63883 0.89637
 N1918 N 0.23818 0.62828 0.90685
 C1919 C 0.25093 0.60513 0.89454
 N1920 N 0.23811 0.59287 0.87140
 N1921 N 1.14045 1.28571 1.10470
 C1922 C 1.12831 1.29828 1.12799
 N1923 N 1.10499 1.28581 1.14014
 N1924 N 1.09429 1.26156 1.12948
 C1925 C 1.10648 1.24881 1.10626
 N1926 N 1.12973 1.26147 1.09405
 N1927 N 1.14073 0.78550 0.60428
 C1928 C 1.12858 0.79819 0.62750
 N1929 N 1.10523 0.78577 0.63968
 N1930 N 1.09453 0.76148 0.62912
 C1931 C 1.10673 0.74861 0.60597
 N1932 N 1.13002 0.76121 0.59374
 N1933 N 0.60472 1.28620 0.63931
 C1934 C 0.62806 1.29860 0.62710
 N1935 N 0.64018 1.28592 0.60387
 N1936 N 0.62945 1.26164 0.59334
 C1937 C 0.60618 1.24905 0.60561
 N1938 N 0.59400 1.26191 0.62876
 N1939 N 0.60413 0.78583 1.14044
 C1940 C 0.62738 0.79841 1.12826
 N1941 N 0.63954 0.78588 1.10495
 N1942 N 0.62893 0.76159 1.09432
 C1943 C 0.60574 0.74883 1.10655
 N1944 N 0.59353 0.76153 1.12979
 N1945 N 0.85925 1.28556 0.89488
 C1946 C 0.87133 1.29804 0.87151
 N1947 N 0.89469 1.28558 0.85942
 N1948 N 0.90547 1.26142 0.87022
 C1949 C 0.89334 1.24876 0.89352
 N1950 N 0.87004 1.26141 0.90566
 N1951 N 0.89581 0.78572 0.35964
 C1952 C 0.87256 0.79832 0.37181
 N1953 N 0.86036 0.78579 0.39510
 N1954 N 0.87094 0.76147 0.40573
 C1955 C 0.89413 0.74870 0.39351
 N1956 N 0.90637 0.76141 0.37029
 N1957 N 0.35992 1.28609 0.39530
 C1958 C 0.37200 1.29866 0.37198
 N1959 N 0.39533 1.28621 0.35982
 N1960 N 0.40609 1.26200 0.37050
 C1961 C 0.39396 1.24925 0.39375
 N1962 N 0.37069 1.26188 0.40597
 N1963 N 0.35930 0.78556 0.89577
 C1964 C 0.37144 0.79823 0.87254
 N1965 N 0.39477 0.78581 0.86034
 N1966 N 0.40546 0.76151 0.87089
 C1967 C 0.39327 0.74865 0.89406
 N1968 N 0.37001 0.76126 0.90631
 N1969 N 1.10374 0.71361 0.86082
 C1970 C 1.12692 0.70099 0.87310
 N1971 N 1.13910 0.71359 0.89634
 N1972 N 1.12858 0.73800 0.90682
 C1973 C 1.10548 0.75080 0.89448
 N1974 N 1.09323 0.73801 0.87131
 N1975 N 1.14063 0.21431 0.39501
 C1976 C 1.12855 0.20175 0.37169
 N1977 N 1.10521 0.21420 0.35955
 N1978 N 1.09445 0.23840 0.37024
 C1979 C 1.10659 0.25115 0.39349
 N1980 N 1.12986 0.23852 0.40569
 N1981 N 0.63934 0.71397 0.39627
 C1982 C 0.62706 0.70129 0.37313
 N1983 N 0.60382 0.71384 0.36092
 N1984 N 0.59335 0.73828 0.37138
 C1985 C 0.60569 0.75114 0.39445
 N1986 N 0.62885 0.73840 0.40672
 N1987 N 0.64039 0.21428 0.89521
 C1988 C 0.62830 0.20177 0.87187
 N1989 N 0.60496 0.21425 0.85976
 N1990 N 0.59421 0.23843 0.87051
 C1991 C 0.60636 0.25112 0.89378
 N1992 N 0.62962 0.23846 0.90595
 N1993 N 0.86055 0.71409 1.10394
 C1994 C 0.87279 0.70136 1.12709
 N1995 N 0.89606 0.71385 1.13931
 N1996 N 0.90661 0.73825 1.12886
 C1997 C 0.89432 0.75117 1.10579
 N1998 N 0.87112 0.73850 1.09351
 N1999 N 0.89500 0.21418 0.64035
 C2000 C 0.87167 0.20169 0.62824
 N2001 N 0.85961 0.21416 0.60486
 N2002 N 0.87040 0.23831 0.59409
 C2003 C 0.89366 0.25099 0.60625
 N2004 N 0.90577 0.23833 0.62956
 N2005 N 0.39490 0.71425 0.63973
 C2006 C 0.37158 0.70181 0.62753
 N2007 N 0.35945 0.71448 0.60430
 N2008 N 0.37016 0.73879 0.59377
 C2009 C 0.39341 0.75141 0.60602
 N2010 N 0.40559 0.73855 0.62919
 N2011 N 0.35991 0.21386 1.10464
 C2012 C 0.37199 0.20129 1.12795
 N2013 N 0.39531 0.21375 1.14011
 N2014 N 0.40605 0.23798 1.12945
 C2015 C 0.39390 0.25073 1.10621
 N2016 N 0.37066 0.23809 1.09399
 N2017 N 1.13945 1.10493 0.71390
 C2018 C 1.12721 1.12823 0.70149
 N2019 N 1.10400 1.14033 0.71421
 N2020 N 1.09351 1.12959 0.73854
 C2021 C 1.10581 1.10635 0.75114
 N2022 N 1.12896 1.09421 0.73824
 N2023 N 1.10502 0.64104 0.21425
 C2024 C 1.12827 0.62900 0.20150
 N2025 N 1.14033 0.60551 0.21380
 N2026 N 1.12970 0.59462 0.23800
 C2027 C 1.10655 0.60675 0.25092
 N2028 N 1.09440 0.63013 0.23846
 N2029 N 0.64023 1.10571 0.21366
 C2030 C 0.62817 1.12912 0.20123
 N2031 N 0.60485 1.14118 0.21386
 N2032 N 0.59417 1.13036 0.23807
 C2033 C 0.60633 1.10705 0.25066
 N2034 N 0.62954 1.09491 0.23787
 N2035 N 0.63946 0.60417 0.71417
 C2036 C 0.62728 0.62744 0.70163
 N2037 N 0.60403 0.63960 0.71424
 N2038 N 0.59347 0.62898 0.73858
 C2039 C 0.60571 0.60578 0.75131
 N2040 N 0.62888 0.59356 0.73851
 N2041 N 0.86090 0.89647 0.71372
 C2042 C 0.87312 0.87324 0.70116
 N2043 N 0.89631 0.86103 0.71380
 N2044 N 0.90680 0.87158 0.73820
 C2045 C 0.89452 0.89475 0.75094
 N2046 N 0.87140 0.90702 0.73811
 N2047 N 0.86006 0.39512 0.21369
 C2048 C 0.87218 0.37183 0.20109
 N2049 N 0.89552 0.35973 0.21363
 N2050 N 0.90616 0.37037 0.23792
 C2051 C 0.89395 0.39354 0.25069
 N2052 N 0.87072 0.40574 0.23799
 N2053 N 0.39606 0.86002 0.21410
 C2054 C 0.37288 0.87214 0.20136
 N2055 N 0.36070 0.89552 0.21371
 N2056 N 0.37122 0.90627 0.23801
 C2057 C 0.39432 0.89409 0.25094
 N2058 N 0.40656 0.87079 0.23840
 N2059 N 0.35955 0.39402 0.71408
 C2060 C 0.37164 0.37061 0.70165
 N2061 N 0.39493 0.35855 0.71431
 N2062 N 0.40557 0.36936 0.73854
 C2063 C 0.39339 0.39267 0.75113
 N2064 N 0.37020 0.40480 0.73831
 N2065 N 1.14016 0.89541 1.28636
 C2066 C 1.12807 0.87205 1.29888
 N2067 N 1.10481 0.85991 1.28625
 N2068 N 1.09421 0.87058 1.26195
 C2069 C 1.10639 0.89382 1.24926
 N2070 N 1.12954 0.90606 1.26206
 N2071 N 1.10398 0.35955 0.78580
 C2072 C 1.12720 0.37165 0.79849
 N2073 N 1.13942 0.39496 0.78606
 N2074 N 1.12891 0.40568 0.76175
 C2075 C 1.10576 0.39353 0.74887
 N2076 N 1.09348 0.37029 0.76148
 N2077 N 0.60378 0.86081 0.78603
 C2078 C 0.62701 0.87299 0.79864
 N2079 N 0.63921 0.89623 0.78608
 N2080 N 0.62867 0.90681 0.76172
 C2081 C 0.60551 0.89458 0.74892
 N2082 N 0.59324 0.87141 0.76167
 N2083 N 0.60482 0.35879 1.28603
 C2084 C 0.62814 0.37085 1.29865
 N2085 N 0.64019 0.39427 1.28621
 N2086 N 0.62949 0.40507 1.26200
 C2087 C 0.60628 0.39292 1.24923
 N2088 N 0.59413 0.36961 1.26183
 N2089 N 0.86016 1.10551 1.28637
 C2090 C 0.87224 1.12892 1.29879
 N2091 N 0.89556 1.14095 1.28615
 N2092 N 0.90624 1.13012 1.26194
 C2093 C 0.89406 1.10682 1.24936
 N2094 N 0.87084 1.09470 1.26216
 N2095 N 0.89577 0.63958 0.78570
 C2096 C 0.87256 0.62739 0.79834
 N2097 N 0.86038 0.60412 0.78581
 N2098 N 0.87095 0.59352 0.76145
 C2099 C 0.89410 0.60576 0.74863
 N2100 N 0.90633 0.62897 0.76135
 N2101 N 0.39507 1.14126 0.78574
 C2102 C 0.37179 1.12919 0.79843
 N2103 N 0.35970 1.10578 0.78600
 N2104 N 0.37034 1.09501 0.76176
 C2105 C 0.39351 1.10716 0.74891
 N2106 N 0.40569 1.13047 0.76149
 N2107 N 0.39520 0.64019 1.28604
 C2108 C 0.37196 0.62810 1.29876
 N2109 N 0.35983 0.60471 1.28634
 N2110 N 0.37039 0.59398 1.26204
 C2111 C 0.39353 0.60616 1.24916
 N2112 N 0.40575 0.62944 1.26175
 N2113 N 1.14008 1.28576 0.89532
 C2114 C 1.12794 1.29832 0.87200
 N2115 N 1.10464 1.28573 0.85989
 N2116 N 1.09405 1.26143 0.87055
 C2117 C 1.10628 1.24871 0.89376
 N2118 N 1.12947 1.26146 0.90596
 N2119 N 1.13972 0.78592 0.39533
 C2120 C 1.12751 0.79840 0.37203
 N2121 N 1.10433 0.78572 0.35984
 N2122 N 1.09385 0.76137 0.37049
 C2123 C 1.10611 0.74871 0.39372
 N2124 N 1.12923 0.76157 0.40595
 N2125 N 0.60498 1.28569 0.35897
 C2126 C 0.62829 1.29831 0.37103
 N2127 N 0.64041 1.28584 0.39441
 N2128 N 0.62977 1.26160 0.40517
 C2129 C 0.60656 1.24883 0.39302
 N2130 N 0.59435 1.26146 0.36975
 N2131 N 0.63918 0.78596 0.89609
 C2132 C 0.62701 0.79858 0.87285
 N2133 N 0.60378 0.78602 0.86062
 N2134 N 0.59322 0.76165 0.87114
 C2135 C 0.60545 0.74885 0.89431
 N2136 N 0.62861 0.76159 0.90660
 N2137 N 0.86072 1.28578 1.10462
 C2138 C 0.87290 1.29829 1.12791
 N2139 N 0.89612 1.28567 1.14010
 N2140 N 0.90667 1.26135 1.12946
 C2141 C 0.89444 1.24866 1.10624
 N2142 N 0.87129 1.26146 1.09400
 N2143 N 0.86080 0.78624 0.60371
 C2144 C 0.87303 0.79886 0.62692
 N2145 N 0.89624 0.78626 0.63915
 N2146 N 0.90674 0.76187 0.62864
 C2147 C 0.89446 0.74907 0.60550
 N2148 N 0.87131 0.76184 0.59321
 N2149 N 0.35970 1.28585 0.60561
 C2150 C 0.37174 1.29824 0.62907
 N2151 N 0.39502 1.28558 0.64115
 N2152 N 0.40570 1.26140 0.63031
 C2153 C 0.39357 1.24885 0.60695
 N2154 N 0.37039 1.26167 0.59479
 N2155 N 0.35975 0.78603 1.10478
 C2156 C 0.37193 0.79863 1.12806
 N2157 N 0.39520 0.78601 1.14020
 N2158 N 0.40574 0.76166 1.12960
 C2159 C 0.39347 0.74891 1.10643
 N2160 N 0.37031 0.76168 1.09420
 N2161 N 0.86029 0.71436 0.89585
 C2162 C 0.87249 0.70179 0.87259
 N2163 N 0.89571 0.71438 0.86038
 N2164 N 0.90625 0.73874 0.87095
 C2165 C 0.89399 0.75150 0.89414
 N2166 N 0.87083 0.73872 0.90641
 N2167 N 0.89543 0.21409 0.35902
 C2168 C 0.87211 0.20150 0.37111
 N2169 N 0.85999 0.21400 0.39448
 N2170 N 0.87065 0.23823 0.40520
 C2171 C 0.89387 0.25099 0.39302
 N2172 N 0.90607 0.23833 0.36976
 N2173 N 0.39576 0.71456 0.35968
 C2174 C 0.37257 0.70186 0.37186
 N2175 N 0.36036 0.71432 0.39518
 N2176 N 0.37086 0.73866 0.40583
 C2177 C 0.39398 0.75153 0.39360
 N2178 N 0.40625 0.73890 0.37034
 N2179 N 0.39507 0.21426 0.85895
 C2180 C 0.37180 0.20156 0.87103
 N2181 N 0.35972 0.21392 0.89449
 N2182 N 0.37036 0.23813 0.90532
 C2183 C 0.39352 0.25098 0.89316
 N2184 N 0.40569 0.23846 0.86979
 N2185 N 1.14051 0.71416 1.10580
 C2186 C 1.12843 0.70171 1.12921
 N2187 N 1.10515 0.71437 1.14133
 N2188 N 1.09453 0.73861 1.13056
 C2189 C 1.10670 0.75121 1.10724
 N2190 N 1.12987 0.73840 1.09505
 N2191 N 1.14005 0.21411 0.60463
 C2192 C 1.12792 0.20156 0.62796
 N2193 N 1.10463 0.21416 0.64010
 N2194 N 1.09404 0.23846 0.62944
 C2195 C 1.10626 0.25117 0.60620
 N2196 N 1.12944 0.23841 0.59398
 N2197 N 0.63964 0.71452 0.60421
 C2198 C 0.62741 0.70190 0.62743
 N2199 N 0.60416 0.71446 0.63964
 N2200 N 0.59361 0.73882 0.62909
 C2201 C 0.60589 0.75162 0.60593
 N2202 N 0.62908 0.73888 0.59368
 N2203 N 0.64044 0.21418 1.10550
 C2204 C 0.62834 0.20167 1.12888
 N2205 N 0.60501 0.21426 1.14096
 N2206 N 0.59435 0.23849 1.13021
 C2207 C 0.60654 0.25115 1.10693
 N2208 N 0.62977 0.23841 1.09477
 N2209 N 1.28595 1.10498 0.85967
 C2210 C 1.29846 1.12828 0.87180
 N2211 N 1.28597 1.14035 0.89517
 N2212 N 1.26177 1.12960 0.90591
 C2213 C 1.24907 1.10637 0.89371
 N2214 N 1.26175 1.09424 0.87041
 N2215 N 1.28606 0.63943 0.39538
 C2216 C 1.29861 0.62730 0.37207
 N2217 N 1.28608 0.60404 0.35989
 N2218 N 1.26179 0.59339 0.37053
 C2219 C 1.24906 0.60557 0.39377
 N2220 N 1.26177 0.62877 0.40601
 N2221 N 0.78601 1.14044 0.39511
 C2222 C 0.79859 1.12833 0.37182
 N2223 N 0.78610 1.10504 0.35964
 N2224 N 0.76182 1.09436 0.37027
 C2225 C 0.74905 1.10653 0.39349
 N2226 N 0.76173 1.12975 0.40573
 N2227 N 0.78580 0.60411 0.86062
 C2228 C 0.79833 0.62739 0.87277
 N2229 N 0.78573 0.63961 0.89600
 N2230 N 0.76140 0.62901 0.90660
 C2231 C 0.74869 0.60579 0.89440
 N2232 N 0.76147 0.59352 0.87124
 N2233 N 1.28632 0.89545 1.13929
 C2234 C 1.29868 0.87208 1.12713
 N2235 N 1.28594 0.85989 1.10397
 N2236 N 1.26163 0.87061 1.09347
 C2237 C 1.24908 0.89391 1.10569
 N2238 N 1.26201 0.90615 1.12877
 N2239 N 1.28585 0.35935 0.60491
 C2240 C 1.29831 0.37144 0.62828
 N2241 N 1.28578 0.39474 0.64039
 N2242 N 1.26159 0.40547 0.62962
 C2243 C 1.24894 0.39333 0.60632
 N2244 N 1.26166 0.37009 0.59415
 N2245 N 0.78621 0.86110 0.60367
 C2246 C 0.79885 0.87328 0.62688
 N2247 N 0.78632 0.89652 0.63913
 N2248 N 0.76195 0.90709 0.62864
 C2249 C 0.74911 0.89485 0.60549
 N2250 N 0.76183 0.87169 0.59319
 N2251 N 0.78609 0.36032 1.10464
 C2252 C 0.79857 0.37249 1.12796
 N2253 N 0.78591 0.39567 1.14017
 N2254 N 0.76158 0.40620 1.12954
 C2255 C 0.74891 0.39398 1.10629
 N2256 N 0.76176 0.37087 1.09402
 N2257 N 0.71428 1.10514 1.14043
 C2258 C 0.70181 1.12843 1.12821
 N2259 N 0.71441 1.14050 1.10490
 N2260 N 0.73867 1.12976 1.09429
 C2261 C 0.75132 1.10653 1.10656
 N2262 N 0.73854 1.09441 1.12981
 N2263 N 0.71407 0.60415 0.63947
 C2264 C 0.70158 0.62746 0.62730
 N2265 N 0.71422 0.63965 0.60408
 N2266 N 0.73855 0.62902 0.59352
 C2267 C 0.75122 0.60579 0.60574
 N2268 N 0.73839 0.59354 0.62889
 N2269 N 0.21401 1.14045 0.60389
 C2270 C 0.20134 1.12828 0.62710
 N2271 N 0.21377 1.10496 0.63928
 N2272 N 0.23807 1.09429 0.62872
 C2273 C 0.25094 1.10651 0.60558
 N2274 N 0.23832 1.12976 0.59334
 N2275 N 0.21405 0.60485 1.14042
 C2276 C 0.20167 0.62823 1.12828
 N2277 N 0.21429 0.64030 1.10499
 N2278 N 0.23849 0.62948 1.09433
 C2279 C 0.25105 0.60617 1.10651
 N2280 N 0.23824 0.59404 1.12974
 N2281 N 0.71390 0.86071 0.89617
 C2282 C 0.70128 0.87291 0.87295
 N2283 N 0.71382 0.89617 0.86075
 N2284 N 0.73817 0.90674 0.87129
 C2285 C 0.75098 0.89449 0.89445
 N2286 N 0.73826 0.87129 0.90671
 N2287 N 0.71423 0.39482 0.35959
 C2288 C 0.70173 0.37151 0.37173
 N2289 N 0.71428 0.35937 0.39502
 N2290 N 0.73853 0.37006 0.40568
 C2291 C 0.75122 0.39330 0.39348
 N2292 N 0.73849 0.40550 0.37026
 N2293 N 0.21401 0.86079 0.39546
 C2294 C 0.20150 0.87292 0.37214
 N2295 N 0.21408 0.89617 0.35996
 N2296 N 0.23836 0.90679 0.37062
 C2297 C 0.25105 0.89459 0.39387
 N2298 N 0.23829 0.87142 0.40611
 N2299 N 0.21403 0.35943 0.89602
 C2300 C 0.20137 0.37159 0.87280
 N2301 N 0.21382 0.39491 0.86062
 N2302 N 0.23812 0.40558 0.87117
 C2303 C 0.25096 0.39337 0.89432
 N2304 N 0.23833 0.37012 0.90657
   
