data_POSCAR
  _audit_creation_date              2014-09-24
  _audit_creation_method            'ToBaCCo'
  _symmetry_space_group_name_H-M    'P1'
  _symmetry_Int_Tables_number       1
  _symmetry_cell_setting            triclinic
  loop_
  _symmetry_equiv_pos_as_xyz
 x,y,z
_cell_length_a 61.1034
_cell_length_b 60.7224
_cell_length_c 59.0824
_cell_angle_alpha 92.405500
_cell_angle_beta 87.081800
_cell_angle_gamma 91.883800
loop_
  _atom_site_label
  _atom_site_type_symbol
  _atom_site_fract_x
  _atom_site_fract_y
  _atom_site_fract_z
N1 N 0.18751 0.20371 0.22100
 N2 N 0.19355 0.18575 0.23034
 C3 C 0.17884 0.18058 0.24720
 C4 C 0.16264 0.19610 0.24849
 C5 C 0.16872 0.21050 0.23152
 H6 H 0.17991 0.16664 0.25781
 H7 H 0.16043 0.22518 0.22747
 Cu8 Cu 0.22052 0.17143 0.22004
 Cu9 Cu 0.20487 0.21752 0.19645
 Cu10 Cu 0.25282 0.19180 0.17799
 N11 N 0.24737 0.15706 0.20947
 N12 N 0.25990 0.16523 0.19296
 C13 C 0.27757 0.15274 0.18912
 C14 C 0.27618 0.13573 0.20407
 C15 C 0.25672 0.13903 0.21675
 H16 H 0.29067 0.15613 0.17665
 H17 H 0.24991 0.12913 0.23032
 N18 N 0.24299 0.21879 0.16491
 N19 N 0.22482 0.22871 0.17183
 C20 C 0.22291 0.24671 0.15953
 C21 C 0.24080 0.24818 0.14417
 C22 C 0.25308 0.23013 0.14813
 H23 H 0.20958 0.25799 0.16170
 H24 H 0.26819 0.22540 0.13924
 H25 H 0.21908 0.18906 0.18383
 H26 H 0.23457 0.20615 0.20498
 N27 N 0.67088 0.72093 0.74021
 N28 N 0.67598 0.70403 0.75185
 C29 C 0.65923 0.69886 0.76646
 C30 C 0.64270 0.71346 0.76411
 C31 C 0.65067 0.72735 0.74733
 H32 H 0.65927 0.68572 0.77825
 H33 H 0.64230 0.74088 0.74061
 Cu34 Cu 0.70418 0.69075 0.74741
 Cu35 Cu 0.69080 0.73241 0.71617
 Cu36 Cu 0.73864 0.70351 0.70379
 N37 N 0.72834 0.67224 0.73816
 N38 N 0.74248 0.67755 0.72163
 C39 C 0.75760 0.66183 0.71898
 C40 C 0.75229 0.64573 0.73448
 C41 C 0.73364 0.65292 0.74632
 H42 H 0.77093 0.66167 0.70621
 H43 H 0.72456 0.64468 0.75988
 N44 N 0.73129 0.73012 0.68785
 N45 N 0.71314 0.74103 0.69249
 C46 C 0.71258 0.75775 0.67826
 C47 C 0.73124 0.75739 0.66389
 C48 C 0.74270 0.73964 0.67057
 H49 H 0.69946 0.76923 0.67827
 H50 H 0.75799 0.73371 0.66304
 H51 H 0.70488 0.70227 0.70854
 H52 H 0.72020 0.72212 0.72727
 N53 N 0.30793 0.75944 0.74282
 N54 N 0.30486 0.77765 0.75525
 C55 C 0.32072 0.77988 0.77036
 C56 C 0.33447 0.76215 0.76707
 C57 C 0.32568 0.74953 0.74952
 H58 H 0.32258 0.79371 0.78231
 H59 H 0.33188 0.73436 0.74187
 Cu60 Cu 0.28104 0.79700 0.74932
 Cu61 Cu 0.28982 0.75021 0.71780
 Cu62 Cu 0.24654 0.78315 0.70812
 N63 N 0.25630 0.81531 0.74367
 N64 N 0.24289 0.80940 0.72768
 C65 C 0.22772 0.82473 0.72652
 C66 C 0.23163 0.84150 0.74263
 C67 C 0.25000 0.83481 0.75330
 H68 H 0.21509 0.82373 0.71438
 H69 H 0.25843 0.84357 0.76674
 N70 N 0.25287 0.75603 0.68997
 N71 N 0.26961 0.74363 0.69332
 C72 C 0.27079 0.72762 0.67683
 C73 C 0.25397 0.73008 0.66232
 C74 C 0.24291 0.74823 0.67137
 H75 H 0.28357 0.71571 0.67495
 H76 H 0.22913 0.75582 0.66445
 H77 H 0.28010 0.78127 0.71065
 H78 H 0.26226 0.76543 0.73128
 N79 N 0.81604 0.25974 0.24607
 N80 N 0.81505 0.27832 0.25825
 C81 C 0.83087 0.27873 0.27345
 C82 C 0.84239 0.25928 0.27062
 C83 C 0.83226 0.24773 0.25306
 H84 H 0.83393 0.29234 0.28536
 H85 H 0.83663 0.23201 0.24523
 Cu86 Cu 0.79345 0.30023 0.25230
 Cu87 Cu 0.79763 0.25254 0.22076
 Cu88 Cu 0.76077 0.29141 0.20835
 N89 N 0.77283 0.32232 0.24417
 N90 N 0.76042 0.31839 0.22685
 C91 C 0.74792 0.33574 0.22433
 C92 C 0.75252 0.35166 0.24088
 C93 C 0.76838 0.34255 0.25340
 H94 H 0.73593 0.33646 0.21158
 H95 H 0.77611 0.35009 0.26799
 N96 N 0.76333 0.26319 0.19133
 N97 N 0.77759 0.24833 0.19577
 C98 C 0.77675 0.23183 0.17980
 C99 C 0.76116 0.23658 0.16461
 C100 C 0.75298 0.25655 0.17259
 H101 H 0.78725 0.21782 0.17885
 H102 H 0.74128 0.26621 0.16456
 H103 H 0.79324 0.28492 0.21346
 H104 H 0.77192 0.27147 0.23263
 N105 N 0.80472 0.73105 0.26830
 N106 N 0.79686 0.71783 0.25230
 C107 C 0.81325 0.71133 0.23786
 C108 C 0.83255 0.72110 0.24496
 C109 C 0.82657 0.73380 0.26424
 H110 H 0.81123 0.70020 0.22328
 H111 H 0.83732 0.74372 0.27483
 Cu112 Cu 0.76628 0.70902 0.25213
 Cu113 Cu 0.78539 0.74257 0.29320
 Cu114 Cu 0.73682 0.71142 0.30125
 N115 N 0.74015 0.69089 0.25668
 N116 N 0.72918 0.69070 0.27636
 C117 C 0.71413 0.67394 0.27586
 C118 C 0.71599 0.66297 0.25471
 C119 C 0.73260 0.67448 0.24302
 H120 H 0.70355 0.66939 0.29024
 H121 H 0.73989 0.67046 0.22639
 N122 N 0.74748 0.73372 0.32387
 N123 N 0.76573 0.74573 0.32072
 C124 C 0.76795 0.75986 0.33871
 C125 C 0.75020 0.75670 0.35396
 C126 C 0.73763 0.73996 0.34389
 H127 H 0.78150 0.77158 0.34051
 H128 H 0.72213 0.73314 0.35038
 H129 H 0.77013 0.71236 0.29269
 H130 H 0.75375 0.73499 0.28258
 N131 N 0.29994 0.22933 -0.24215
 N132 N 0.29130 0.21506 -0.25670
 C133 C 0.30606 0.21023 -0.27357
 C134 C 0.32535 0.22216 -0.26974
 C135 C 0.32073 0.23429 -0.24953
 H136 H 0.30276 0.19854 -0.28735
 H137 H 0.33159 0.24568 -0.24065
 Cu138 Cu 0.26216 0.20252 -0.25200
 Cu139 Cu 0.28263 0.23988 -0.21513
 Cu140 Cu 0.23832 0.20503 -0.19989
 N141 N 0.23949 0.18149 -0.24297
 N142 N 0.23056 0.18177 -0.22227
 C143 C 0.21742 0.16361 -0.21996
 C144 C 0.21857 0.15126 -0.24029
 C145 C 0.23259 0.16329 -0.25449
 H146 H 0.20869 0.15914 -0.20436
 H147 H 0.23824 0.15871 -0.27163
 N148 N 0.24881 0.22985 -0.18014
 N149 N 0.26549 0.24324 -0.18581
 C150 C 0.26764 0.25897 -0.16918
 C151 C 0.25146 0.25538 -0.15223
 C152 C 0.23995 0.23671 -0.15988
 H153 H 0.27986 0.27224 -0.16961
 H154 H 0.22574 0.22889 -0.15165
 H155 H 0.27052 0.20843 -0.21253
 H156 H 0.25080 0.22877 -0.22146
 N157 N 0.68820 0.25297 -0.26455
 N158 N 0.69092 0.27143 -0.27524
 C159 C 0.67412 0.27339 -0.28886
 C160 C 0.65983 0.25519 -0.28631
 C161 C 0.66960 0.24256 -0.27077
 H162 H 0.67223 0.28743 -0.29916
 H163 H 0.66348 0.22731 -0.26369
 Cu164 Cu 0.71576 0.29156 -0.26957
 Cu165 Cu 0.70791 0.24512 -0.24181
 Cu166 Cu 0.73952 0.28503 -0.21801
 N167 N 0.73629 0.31349 -0.25614
 N168 N 0.74538 0.31117 -0.23661
 C169 C 0.75844 0.32903 -0.23228
 C170 C 0.75734 0.34332 -0.24984
 C171 C 0.74312 0.33287 -0.26462
 H172 H 0.76781 0.33161 -0.21731
 H173 H 0.73819 0.33886 -0.28050
 N174 N 0.73154 0.25769 -0.20275
 N175 N 0.71961 0.24195 -0.21246
 C176 C 0.71601 0.22542 -0.19822
 C177 C 0.72622 0.23097 -0.17830
 C178 C 0.73605 0.25159 -0.18185
 H179 H 0.70633 0.21066 -0.20207
 H180 H 0.74533 0.26166 -0.16999
 H181 H 0.71137 0.28478 -0.23598
 H182 H 0.73643 0.27331 -0.25069
 N183 N 0.17801 0.75940 0.26467
 N184 N 0.18616 0.77201 0.24860
 C185 C 0.17317 0.76979 0.23074
 C186 C 0.15622 0.75474 0.23603
 C187 C 0.15992 0.74866 0.25771
 H188 H 0.17580 0.77844 0.21516
 H189 H 0.14990 0.73758 0.26798
 Cu190 Cu 0.21271 0.79008 0.25353
 Cu191 Cu 0.19093 0.75729 0.29360
 Cu192 Cu 0.23923 0.78703 0.30210
 N193 N 0.23927 0.80781 0.25917
 N194 N 0.24977 0.80617 0.27787
 C195 C 0.26674 0.82087 0.27793
 C196 C 0.26688 0.83274 0.25831
 C197 C 0.24915 0.82376 0.24679
 H198 H 0.27745 0.82337 0.29186
 H199 H 0.24339 0.82878 0.23087
 N200 N 0.22553 0.76701 0.32464
 N201 N 0.20635 0.75695 0.32176
 C202 C 0.20078 0.74503 0.33991
 C203 C 0.21731 0.74732 0.35491
 C204 C 0.23286 0.76134 0.34470
 H205 H 0.18632 0.73439 0.34159
 H206 H 0.24841 0.76675 0.35128
 H207 H 0.20664 0.78809 0.29457
 H208 H 0.22252 0.76451 0.28177
 N209 N 0.50141 0.44237 0.49560
 N210 N 0.48473 0.44659 0.50992
 C211 C 0.48337 0.43123 0.52576
 C212 C 0.50020 0.41677 0.52121
 C213 C 0.51142 0.42438 0.50204
 H214 H 0.47096 0.43037 0.53945
 H215 H 0.52514 0.41675 0.49285
 Cu216 Cu 0.46582 0.47098 0.50530
 Cu217 Cu 0.50776 0.45929 0.46849
 Cu218 Cu 0.47285 0.50182 0.45987
 N219 N 0.44589 0.49450 0.50053
 N220 N 0.44840 0.50576 0.48199
 C221 C 0.43154 0.51926 0.48099
 C222 C 0.41780 0.51655 0.50002
 C223 C 0.42746 0.50086 0.51225
 H224 H 0.42920 0.53000 0.46722
 H225 H 0.42097 0.49398 0.52789
 N226 N 0.49847 0.49517 0.43946
 N227 N 0.51126 0.47847 0.44224
 C228 C 0.52598 0.47704 0.42451
 C229 C 0.52246 0.49383 0.41014
 C230 C 0.50501 0.50506 0.42017
 H231 H 0.53828 0.46466 0.42210
 H232 H 0.49712 0.51883 0.41336
 H233 H 0.49426 0.48825 0.48106
 H234 H 0.47608 0.46866 0.46496
 N235 N -0.03143 -0.07687 0.99996
 N236 N -0.04923 -0.06976 1.01096
 C237 C -0.05267 -0.08093 1.03009
 C238 C -0.03618 -0.09590 1.03103
 C239 C -0.02302 -0.09288 1.01160
 H240 H -0.06623 -0.07854 1.04231
 H241 H -0.00817 -0.10138 1.00654
 Cu242 Cu -0.06602 -0.04657 0.99921
 Cu243 Cu -0.02002 -0.06423 0.97194
 Cu244 Cu -0.04900 -0.02186 0.95120
 N245 N -0.08252 -0.02336 0.98713
 N246 N -0.07552 -0.01331 0.96873
 C247 C -0.08953 0.00256 0.96471
 C248 C -0.10630 0.00230 0.98139
 C249 C -0.10132 -0.01440 0.99529
 H250 H -0.08776 0.01333 0.95057
 H251 H -0.11048 -0.01931 1.01048
 N252 N -0.02183 -0.03313 0.93598
 N253 N -0.01102 -0.04936 0.94392
 C254 C 0.00673 -0.05328 0.93016
 C255 C 0.00729 -0.03884 0.91265
 C256 C -0.01118 -0.02634 0.91684
 H257 H 0.01837 -0.06586 0.93265
 H258 H -0.01630 -0.01309 0.90686
 H259 H -0.03326 -0.03355 0.97795
 H260 H -0.04984 -0.05413 0.96110
 N261 N 1.04099 0.58491 0.97662
 N262 N 1.06048 0.57987 0.98280
 C263 C 1.06667 0.59438 0.99939
 C264 C 1.05001 0.60924 1.00386
 C265 C 1.03409 0.60266 0.98891
 H266 H 1.08183 0.59374 1.00797
 H267 H 1.01842 0.60997 0.98720
 Cu268 Cu 1.07512 0.55411 0.96923
 Cu269 Cu 1.02520 0.56770 0.95396
 Cu270 Cu 1.04702 0.51819 0.93522
 N271 N 1.08529 0.52453 0.96154
 N272 N 1.07389 0.51042 0.94898
 C273 C 1.08352 0.49077 0.94813
 C274 C 1.10205 0.49271 0.96064
 C275 C 1.10276 0.51439 0.96884
 H276 H 1.07732 0.47605 0.93937
 H277 H 1.11445 0.52186 0.98020
 N278 N 1.01995 0.52929 0.92351
 N279 N 1.01158 0.54813 0.93103
 C280 C 0.99289 0.55110 0.92065
 C281 C 0.98924 0.53333 0.90579
 C282 C 1.00681 0.51983 0.90794
 H283 H 0.98276 0.56530 0.92348
 H284 H 1.00959 0.50414 0.89911
 H285 H 1.03880 0.53857 0.96272
 H286 H 1.05148 0.55203 0.93703
 N287 N 0.52386 0.07688 0.48284
 N288 N 0.54306 0.08059 0.49155
 C289 C 0.54182 0.09799 0.50640
 C290 C 0.52058 0.10551 0.50719
 C291 C 0.50966 0.09162 0.49200
 H292 H 0.55516 0.10422 0.51643
 H293 H 0.49266 0.09216 0.48785
 Cu294 Cu 0.56728 0.06127 0.48378
 Cu295 Cu 0.51855 0.05270 0.46089
 Cu296 Cu 0.56488 0.02672 0.43817
 N297 N 0.58728 0.03704 0.47891
 N298 N 0.58675 0.02381 0.46075
 C299 C 0.60226 0.00865 0.46173
 C300 C 0.61288 0.01239 0.48179
 C301 C 0.60292 0.03061 0.49221
 H302 H 0.60491 -0.00464 0.44923
 H303 H 0.60657 0.03852 0.50838
 N304 N 0.53645 0.02441 0.42386
 N305 N 0.51869 0.03369 0.43297
 C306 C 0.50192 0.02910 0.41948
 C307 C 0.50939 0.01620 0.40094
 C308 C 0.53143 0.01357 0.40434
 H309 H 0.48566 0.03540 0.42258
 H310 H 0.54302 0.00446 0.39349
 H311 H 0.54471 0.03246 0.46560
 H312 H 0.54964 0.05676 0.44751
 N313 N -0.02381 0.08370 0.51877
 N314 N -0.04242 0.08260 0.50847
 C315 C -0.04169 0.09772 0.49235
 C316 C -0.02145 0.10871 0.49242
 C317 C -0.01058 0.09936 0.50944
 H318 H -0.05453 0.09989 0.48077
 H319 H 0.00590 0.10341 0.51444
 Cu320 Cu -0.06525 0.06045 0.51573
 Cu321 Cu -0.01737 0.06400 0.54262
 Cu322 Cu -0.05356 0.01986 0.54977
 N323 N -0.08370 0.03366 0.51779
 N324 N -0.07865 0.01784 0.53090
 C325 C -0.09384 0.00143 0.52962
 C326 C -0.10944 0.00707 0.51488
 C327 C -0.10248 0.02778 0.50770
 H328 H -0.09384 -0.01325 0.53933
 H329 H -0.11047 0.03783 0.49610
 N330 N -0.02747 0.02454 0.56759
 N331 N -0.01396 0.04182 0.56559
 C332 C 0.00201 0.04042 0.58038
 C333 C -0.00156 0.02117 0.59198
 C334 C -0.02038 0.01159 0.58344
 H335 H 0.01561 0.05212 0.58209
 H336 H -0.02835 -0.00370 0.58852
 H337 H -0.03496 0.03910 0.52688
 H338 H -0.04890 0.05412 0.55167
 N339 N 0.47477 0.58817 0.02968
 N340 N 0.45613 0.58658 0.01949
 C341 C 0.45536 0.60304 0.00502
 C342 C 0.47463 0.61565 0.00609
 C343 C 0.48654 0.60568 0.02198
 H344 H 0.44212 0.60513 -0.00609
 H345 H 0.50272 0.61055 0.02729
 Cu346 Cu 0.43509 0.56251 0.02497
 Cu347 Cu 0.48301 0.56656 0.05097
 Cu348 Cu 0.45004 0.51921 0.05362
 N349 N 0.41849 0.53469 0.02402
 N350 N 0.42456 0.51774 0.03501
 C351 C 0.41003 0.50089 0.03198
 C352 C 0.39388 0.50759 0.01834
 C353 C 0.39987 0.52921 0.01360
 H354 H 0.41082 0.48518 0.03979
 H355 H 0.39128 0.54024 0.00351
 N356 N 0.47639 0.52395 0.07133
 N357 N 0.48848 0.54237 0.07107
 C358 C 0.50472 0.54089 0.08550
 C359 C 0.50288 0.52046 0.09510
 C360 C 0.48476 0.51018 0.08570
 H361 H 0.51729 0.55349 0.08840
 H362 H 0.47802 0.49396 0.08932
 H363 H 0.46679 0.54162 0.03311
 H364 H 0.45229 0.55300 0.05950
 N365 N 0.53928 -0.06524 0.02586
 N366 N 0.55522 -0.05914 0.01149
 C367 C 0.55227 -0.06911 -0.00886
 C368 C 0.53353 -0.08245 -0.00728
 C369 C 0.52574 -0.07975 0.01513
 H370 H 0.56330 -0.06716 -0.02359
 H371 H 0.51126 -0.08753 0.02297
 Cu372 Cu 0.57878 -0.03930 0.02061
 Cu373 Cu 0.53798 -0.05348 0.05722
 Cu374 Cu 0.57092 -0.00617 0.06670
 N375 N 0.59695 -0.01313 0.02535
 N376 N 0.59418 -0.00015 0.04355
 C377 C 0.60862 0.01707 0.04210
 C378 C 0.62077 0.01480 0.02170
 C379 C 0.61288 -0.00457 0.01155
 H380 H 0.60968 0.03062 0.05452
 H381 H 0.61814 -0.01178 -0.00479
 N382 N 0.54658 -0.01555 0.08790
 N383 N 0.53454 -0.03377 0.08459
 C384 C 0.51913 -0.03529 0.10163
 C385 C 0.52143 -0.01709 0.11631
 C386 C 0.53902 -0.00496 0.10707
 H387 H 0.50647 -0.04812 0.10266
 H388 H 0.54560 0.01061 0.11367
 H389 H 0.54999 -0.02400 0.04557
 H390 H 0.56931 -0.03967 0.06159
 N391 N 1.02521 0.42701 0.51427
 N392 N 1.04308 0.42972 0.50123
 C393 C 1.04219 0.41560 0.48311
 C394 C 1.02265 0.40344 0.48485
 C395 C 1.01222 0.41119 0.50481
 H396 H 1.05493 0.41408 0.46980
 H397 H 0.99683 0.40509 0.51240
 Cu398 Cu 1.06634 0.45064 0.50961
 Cu399 Cu 1.02150 0.44249 0.54365
 Cu400 Cu 1.05616 0.48824 0.55198
 N401 N 1.08494 0.47695 0.51362
 N402 N 1.08122 0.49133 0.53052
 C403 C 1.09668 0.50762 0.52952
 C404 C 1.11068 0.50337 0.51081
 C405 C 1.10269 0.48379 0.50106
 H406 H 1.09739 0.52178 0.54122
 H407 H 1.10936 0.47512 0.48604
 N408 N 1.02998 0.48197 0.57184
 N409 N 1.01710 0.46430 0.56893
 C410 C 1.00090 0.46452 0.58524
 C411 C 1.00364 0.48328 0.59904
 C412 C 1.02223 0.49396 0.59001
 H413 H 0.98773 0.45224 0.58661
 H414 H 1.02961 0.50927 0.59632
 H415 H 1.03657 0.46983 0.52992
 H416 H 1.05306 0.45463 0.54949
 C417 C 0.36792 0.00824 0.25644
 C418 C 0.35634 -0.01451 0.25657
 C419 C 0.36937 -0.03133 0.26122
 C420 C 0.39322 -0.02391 0.26520
 C421 C 0.37837 0.01086 0.27945
 C422 C 0.39150 -0.00583 0.28413
 C423 C 0.38755 0.00526 0.23929
 C424 C 0.40070 -0.01158 0.24378
 H425 H 0.33899 -0.01689 0.25394
 H426 H 0.40397 -0.03752 0.26903
 H427 H 0.37618 0.02525 0.29072
 H428 H 0.39044 0.01451 0.22418
 C429 C 0.12453 -0.03177 0.73677
 C430 C 0.13794 -0.01066 0.74282
 C431 C 0.12554 0.00729 0.74807
 C432 C 0.10081 0.00266 0.74639
 C433 C 0.10796 -0.03450 0.75684
 C434 C 0.09558 -0.01659 0.76197
 C435 C 0.11086 -0.02497 0.71717
 C436 C 0.09838 -0.00709 0.72221
 H437 H 0.15566 -0.00998 0.74288
 H438 H 0.09072 0.01728 0.75049
 H439 H 0.10619 -0.04955 0.76608
 H440 H 0.11241 -0.03219 0.70014
 C441 C 0.64152 0.47369 0.23038
 C442 C 0.65145 0.49619 0.23769
 C443 C 0.63647 0.51137 0.24484
 C444 C 0.61261 0.50270 0.24412
 C445 C 0.62666 0.46678 0.25066
 C446 C 0.61150 0.48174 0.25802
 C447 C 0.62539 0.47902 0.21224
 C448 C 0.61041 0.49429 0.21939
 H449 H 0.66892 0.49994 0.23654
 H450 H 0.60035 0.51512 0.24967
 H451 H 0.62871 0.45146 0.25891
 H452 H 0.62632 0.47275 0.19488
 C453 C 0.86175 0.52118 0.75056
 C454 C 0.84773 0.49992 0.75402
 C455 C 0.85958 0.48153 0.75596
 C456 C 0.88448 0.48593 0.75426
 C457 C 0.87697 0.52246 0.77047
 C458 C 0.88899 0.50417 0.77242
 C459 C 0.87683 0.51546 0.72971
 C460 C 0.88879 0.49720 0.73164
 H461 H 0.83008 0.49897 0.75444
 H462 H 0.89409 0.47092 0.75570
 H463 H 0.87889 0.53721 0.78122
 H464 H 0.87761 0.52490 0.71452
 C465 C 0.23897 0.36819 0.02540
 C466 C 0.24190 0.35454 0.00316
 C467 C 0.24844 0.36636 -0.01523
 C468 C 0.25171 0.39122 -0.00958
 C469 C 0.26094 0.38070 0.02788
 C470 C 0.26786 0.39242 0.00961
 C471 C 0.22303 0.38612 0.02008
 C472 C 0.22958 0.39806 0.00179
 H473 H 0.23946 0.33679 0.00235
 H474 H 0.25704 0.40108 -0.02439
 H475 H 0.27041 0.38007 0.04284
 H476 H 0.20815 0.38975 0.02997
 C477 C 0.76205 0.15745 -0.03037
 C478 C 0.76593 0.16894 -0.00719
 C479 C 0.77074 0.15497 0.00914
 C480 C 0.77096 0.13069 0.00107
 C481 C 0.78243 0.14389 -0.03593
 C482 C 0.78720 0.12992 -0.01963
 C483 C 0.74360 0.14026 -0.02503
 C484 C 0.74823 0.12633 -0.00850
 H485 H 0.76416 0.18647 -0.00380
 H486 H 0.77477 0.11945 0.01458
 H487 H 0.79183 0.14486 -0.05192
 H488 H 0.72732 0.14076 -0.03133
 C489 C 0.26263 0.64004 0.47360
 C490 C 0.26688 0.65100 0.49676
 C491 C 0.26849 0.63673 0.51368
 C492 C 0.26619 0.61239 0.50582
 C493 C 0.28108 0.62373 0.46909
 C494 C 0.28305 0.60923 0.48577
 C495 C 0.24212 0.62498 0.47774
 C496 C 0.24392 0.61073 0.49477
 H497 H 0.26733 0.66874 0.49971
 H498 H 0.26765 0.60061 0.51950
 H499 H 0.29120 0.62316 0.45352
 H500 H 0.22748 0.62545 0.46826
 C501 C 0.73537 0.86775 0.53470
 C502 C 0.73825 0.85310 0.51303
 C503 C 0.74537 0.86402 0.49422
 C504 C 0.74897 0.88898 0.49882
 C505 C 0.75760 0.87993 0.53690
 C506 C 0.76483 0.89086 0.51819
 C507 C 0.71999 0.88587 0.52835
 C508 C 0.72698 0.89682 0.50951
 H509 H 0.73557 0.83538 0.51298
 H510 H 0.75477 0.89820 0.48373
 H511 H 0.76673 0.88005 0.55215
 H512 H 0.70476 0.88974 0.53745
 C513 C 0.02260 0.24167 0.34218
 C514 C 0.00003 0.24723 0.33417
 C515 C -0.01448 0.25398 0.35109
 C516 C -0.00521 0.25435 0.37482
 C517 C 0.03014 0.26216 0.35584
 C518 C 0.01601 0.26875 0.37316
 C519 C 0.01731 0.22418 0.35993
 C520 C 0.00275 0.23076 0.37697
 H521 H -0.00448 0.24495 0.31672
 H522 H -0.01707 0.25960 0.38869
 H523 H 0.04574 0.27053 0.35206
 H524 H 0.02281 0.20741 0.35810
 C525 C -0.02215 0.74691 0.15289
 C526 C 0.00060 0.74856 0.16262
 C527 C 0.01737 0.75046 0.14675
 C528 C 0.01008 0.75035 0.12233
 C529 C -0.02314 0.76701 0.13813
 C530 C -0.00633 0.76900 0.12221
 C531 C -0.02096 0.72737 0.13542
 C532 C -0.00408 0.72917 0.11956
 H533 H 0.00313 0.74874 0.18065
 H534 H 0.02400 0.75167 0.10959
 H535 H -0.03699 0.77774 0.13922
 H536 H -0.03275 0.71377 0.13458
 C537 C 0.47433 0.25534 0.64856
 C538 C 0.49695 0.26107 0.65768
 C539 C 0.51267 0.26606 0.64138
 C540 C 0.50441 0.26483 0.61722
 C541 C 0.46913 0.27485 0.63452
 C542 C 0.48453 0.27983 0.61795
 C543 C 0.47886 0.23631 0.63106
 C544 C 0.49462 0.24121 0.61468
 H545 H 0.50065 0.25948 0.67526
 H546 H 0.51720 0.26882 0.60390
 H547 H 0.45436 0.28409 0.63781
 H548 H 0.47230 0.21969 0.63300
 C549 C 0.50725 0.75934 0.86498
 C550 C 0.48585 0.76111 0.85295
 C551 C 0.46768 0.76338 0.86708
 C552 C 0.47259 0.76375 0.89236
 C553 C 0.50819 0.77978 0.88108
 C554 C 0.49013 0.78222 0.89532
 C555 C 0.50301 0.74020 0.88110
 C556 C 0.48483 0.74240 0.89527
 H557 H 0.48536 0.76115 0.83465
 H558 H 0.45792 0.76568 0.90404
 H559 H 0.52263 0.79053 0.88220
 H560 H 0.51357 0.72636 0.88183
 C561 C 0.12601 0.21111 0.26115
 C562 C 0.10831 0.21315 0.27712
 C563 C 0.10803 0.20144 0.29732
 C564 C 0.12535 0.18767 0.30103
 C565 C 0.14293 0.18575 0.28507
 C566 C 0.14357 0.19756 0.26504
 C567 C 0.09061 0.20390 0.31357
 C568 C 0.07353 0.21806 0.30996
 C569 C 0.07375 0.22960 0.28966
 C570 C 0.09104 0.22699 0.27333
 C571 C 0.05699 0.24410 0.28630
 C572 C 0.04029 0.24739 0.30298
 C573 C 0.03953 0.23580 0.32319
 C574 C 0.05653 0.22130 0.32659
 H575 H 0.12606 0.22012 0.24571
 H576 H 0.12542 0.17856 0.31642
 H577 H 0.15621 0.17529 0.28869
 H578 H 0.09052 0.19503 0.32915
 H579 H 0.09126 0.23603 0.25786
 H580 H 0.05708 0.25335 0.27100
 H581 H 0.02825 0.25956 0.30023
 H582 H 0.05712 0.21311 0.34245
 C583 C 0.61081 0.73413 0.78164
 C584 C 0.59176 0.73497 0.79599
 C585 C 0.58312 0.71548 0.80582
 C586 C 0.59352 0.69550 0.80101
 C587 C 0.61264 0.69488 0.78710
 C588 C 0.62159 0.71416 0.77747
 C589 C 0.56450 0.71632 0.82064
 C590 C 0.55460 0.73647 0.82618
 C591 C 0.56310 0.75593 0.81626
 C592 C 0.58153 0.75506 0.80110
 C593 C 0.55302 0.77597 0.82172
 C594 C 0.53505 0.77681 0.83728
 C595 C 0.52692 0.75773 0.84808
 C596 C 0.53645 0.73743 0.84169
 H597 H 0.61766 0.74912 0.77443
 H598 H 0.58708 0.68040 0.80833
 H599 H 0.62047 0.67924 0.78391
 H600 H 0.55798 0.70135 0.82823
 H601 H 0.58810 0.77003 0.79358
 H602 H 0.55907 0.79102 0.81403
 H603 H 0.52749 0.79252 0.84094
 H604 H 0.52979 0.72222 0.84843
 C605 C 0.35979 0.76876 0.79927
 C606 C 0.37951 0.76486 0.80957
 C607 C 0.39459 0.75015 0.79876
 C608 C 0.38975 0.73949 0.77810
 C609 C 0.37021 0.74341 0.76804
 C610 C 0.35501 0.75807 0.77839
 C611 C 0.41443 0.74644 0.80858
 C612 C 0.41959 0.75736 0.82905
 C613 C 0.40453 0.77189 0.84013
 C614 C 0.38451 0.77551 0.83036
 C615 C 0.40996 0.78273 0.86065
 C616 C 0.43030 0.77961 0.86974
 C617 C 0.44552 0.76558 0.85849
 C618 C 0.43981 0.75420 0.83835
 H619 H 0.34821 0.77999 0.80754
 H620 H 0.40118 0.72823 0.76960
 H621 H 0.36729 0.73513 0.75186
 H622 H 0.42601 0.73527 0.80013
 H623 H 0.37299 0.78676 0.83876
 H624 H 0.39864 0.79391 0.86945
 H625 H 0.43437 0.78869 0.88520
 H626 H 0.45121 0.74295 0.82976
 C627 C -0.12913 0.26674 0.29849
 C628 C -0.10981 0.26057 0.30834
 C629 C -0.10046 0.24017 0.30167
 C630 C -0.11075 0.22603 0.28601
 C631 C -0.12976 0.23221 0.27629
 C632 C -0.13911 0.25282 0.28191
 C633 C -0.08065 0.23434 0.31029
 C634 C -0.06976 0.24873 0.32535
 C635 C -0.07928 0.26883 0.33282
 C636 C -0.09935 0.27461 0.32433
 C637 C -0.06819 0.28297 0.34816
 C638 C -0.04743 0.27770 0.35508
 C639 C -0.03750 0.25832 0.34666
 C640 C -0.04907 0.24361 0.33237
 H641 H -0.13592 0.28257 0.30342
 H642 H -0.10388 0.21024 0.28093
 H643 H -0.13679 0.22062 0.26414
 H644 H -0.07338 0.21883 0.30477
 H645 H -0.10650 0.29021 0.32969
 H646 H -0.07527 0.29836 0.35428
 H647 H -0.03875 0.28919 0.36619
 H648 H -0.04163 0.22839 0.32620
 C649 C -0.12969 0.73538 0.23353
 C650 C -0.11007 0.73321 0.22021
 C651 C -0.10608 0.71327 0.20762
 C652 C -0.12139 0.69568 0.20901
 C653 C -0.14099 0.69812 0.22184
 C654 C -0.14552 0.71808 0.23380
 C655 C -0.08725 0.71144 0.19323
 C656 C -0.07254 0.72947 0.19077
 C657 C -0.07617 0.74922 0.20374
 C658 C -0.09480 0.75091 0.21856
 C659 C -0.06132 0.76710 0.20128
 C660 C -0.04366 0.76577 0.18539
 C661 C -0.04048 0.74663 0.17143
 C662 C -0.05465 0.72819 0.17498
 H663 H -0.13312 0.75084 0.24265
 H664 H -0.11850 0.68023 0.19964
 H665 H -0.15278 0.68442 0.22215
 H666 H -0.08445 0.69625 0.18334
 H667 H -0.09775 0.76620 0.22823
 H668 H -0.06363 0.78230 0.21128
 H669 H -0.03268 0.78003 0.18354
 H670 H -0.05223 0.71284 0.16547
 C671 C 0.36346 0.23508 0.72192
 C672 C 0.38265 0.23490 0.70769
 C673 C 0.38352 0.22105 0.68785
 C674 C 0.36546 0.20740 0.68272
 C675 C 0.34648 0.20770 0.69679
 C676 C 0.34498 0.22167 0.71652
 C677 C 0.40227 0.22132 0.67318
 C678 C 0.42017 0.23547 0.67790
 C679 C 0.41955 0.24907 0.69792
 C680 C 0.40085 0.24862 0.71277
 C681 C 0.43736 0.26345 0.70233
 C682 C 0.45532 0.26477 0.68679
 C683 C 0.45621 0.25133 0.66673
 C684 C 0.43835 0.23674 0.66247
 H685 H 0.36298 0.24594 0.73692
 H686 H 0.36591 0.19658 0.66763
 H687 H 0.33304 0.19686 0.69183
 H688 H 0.40274 0.21082 0.65784
 H689 H 0.40029 0.25928 0.72797
 H690 H 0.43713 0.27418 0.71747
 H691 H 0.46825 0.27689 0.69018
 H692 H 0.43799 0.22704 0.64670
 C693 C 0.63091 0.26581 0.68905
 C694 C 0.60985 0.26225 0.68075
 C695 C 0.59699 0.24367 0.68749
 C696 C 0.60550 0.22868 0.70176
 C697 C 0.62637 0.23226 0.70989
 C698 C 0.63931 0.25106 0.70409
 C699 C 0.57565 0.24048 0.68018
 C700 C 0.56689 0.25568 0.66625
 C701 C 0.57985 0.27395 0.65882
 C702 C 0.60130 0.27714 0.66613
 C703 C 0.57093 0.28885 0.64449
 C704 C 0.54918 0.28599 0.63820
 C705 C 0.53605 0.26840 0.64639
 C706 C 0.54516 0.25306 0.66000
 H707 H 0.64043 0.28028 0.68398
 H708 H 0.59588 0.21426 0.70691
 H709 H 0.63197 0.22024 0.72107
 H710 H 0.56572 0.22636 0.68567
 H711 H 0.61116 0.29134 0.66076
 H712 H 0.58064 0.30286 0.63845
 H713 H 0.54242 0.29788 0.62755
 H714 H 0.53519 0.23913 0.66589
 C715 C 0.13043 0.75959 0.20484
 C716 C 0.11078 0.75377 0.19437
 C717 C 0.09806 0.73526 0.20170
 C718 C 0.10551 0.72242 0.21863
 C719 C 0.12490 0.72835 0.22899
 C720 C 0.13725 0.74731 0.22272
 C721 C 0.07777 0.73020 0.19251
 C722 C 0.06980 0.74357 0.17628
 C723 C 0.08274 0.76163 0.16825
 C724 C 0.10324 0.76656 0.17728
 C725 C 0.07463 0.77480 0.15180
 C726 C 0.05357 0.77059 0.14407
 C727 C 0.04036 0.75332 0.15284
 C728 C 0.04872 0.73956 0.16853
 H729 H 0.13979 0.77418 0.19977
 H730 H 0.09607 0.70807 0.22428
 H731 H 0.12995 0.71817 0.24226
 H732 H 0.06788 0.71625 0.19850
 H733 H 0.11299 0.78067 0.17150
 H734 H 0.08431 0.78865 0.14536
 H735 H 0.04725 0.78139 0.13197
 H736 H 0.03860 0.72600 0.17503
 C737 C 0.29097 0.10481 0.22515
 C738 C 0.30648 0.08863 0.22749
 C739 C 0.32366 0.08582 0.21078
 C740 C 0.32494 0.09914 0.19195
 C741 C 0.30944 0.11519 0.18973
 C742 C 0.29234 0.11831 0.20632
 C743 C 0.33927 0.06975 0.21314
 C744 C 0.33786 0.05635 0.23198
 C745 C 0.32063 0.05913 0.24863
 C746 C 0.30509 0.07527 0.24633
 C747 C 0.31915 0.04565 0.26730
 C748 C 0.33453 0.02950 0.26943
 C749 C 0.35190 0.02646 0.25308
 C750 C 0.35338 0.04014 0.23431
 H751 H 0.27802 0.10697 0.23817
 H752 H 0.33794 0.09715 0.17892
 H753 H 0.31088 0.12506 0.17489
 H754 H 0.35246 0.06765 0.20032
 H755 H 0.29189 0.07738 0.25915
 H756 H 0.30604 0.04751 0.28022
 H757 H 0.33286 0.01919 0.28399
 H758 H 0.36628 0.03839 0.22129
 C759 C 0.78616 0.62346 0.73427
 C760 C 0.79654 0.60382 0.73850
 C761 C 0.78376 0.58522 0.74550
 C762 C 0.76094 0.58659 0.74833
 C763 C 0.75084 0.60627 0.74455
 C764 C 0.76330 0.62485 0.73754
 C765 C 0.79396 0.56557 0.74970
 C766 C 0.81683 0.56422 0.74716
 C767 C 0.82966 0.58285 0.74048
 C768 C 0.81945 0.60252 0.73612
 C769 C 0.85251 0.58147 0.73832
 C770 C 0.86249 0.56169 0.74216
 C771 C 0.84994 0.54270 0.74804
 C772 C 0.82699 0.54442 0.75109
 H773 H 0.79589 0.63781 0.72907
 H774 H 0.75090 0.57250 0.75364
 H775 H 0.73318 0.60690 0.74695
 H776 H 0.78407 0.55132 0.75493
 H777 H 0.82932 0.61679 0.73094
 H778 H 0.86269 0.59563 0.73348
 H779 H 0.88019 0.56108 0.74017
 H780 H 0.81670 0.53068 0.75654
 C781 C 0.78773 0.37077 0.75910
 C782 C 0.79855 0.39133 0.75612
 C783 C 0.78994 0.40650 0.74165
 C784 C 0.77078 0.40093 0.73041
 C785 C 0.76025 0.38045 0.73331
 C786 C 0.76858 0.36514 0.74760
 C787 C 0.80056 0.42703 0.73860
 C788 C 0.81973 0.43267 0.74983
 C789 C 0.82853 0.41752 0.76418
 C790 C 0.81786 0.39693 0.76726
 C791 C 0.84781 0.42331 0.77522
 C792 C 0.85809 0.44402 0.77233
 C793 C 0.84921 0.45929 0.75841
 C794 C 0.83015 0.45333 0.74698
 H795 H 0.79442 0.35909 0.77004
 H796 H 0.76393 0.41241 0.71934
 H797 H 0.74540 0.37674 0.72449
 H798 H 0.79387 0.43866 0.72754
 H799 H 0.82455 0.38532 0.77833
 H800 H 0.85484 0.41192 0.78625
 H801 H 0.87270 0.44827 0.78139
 H802 H 0.82345 0.46475 0.73574
 C803 C 0.29824 -0.14190 0.26589
 C804 C 0.31092 -0.12282 0.26084
 C805 C 0.30618 -0.11066 0.24191
 C806 C 0.28944 -0.11814 0.22796
 C807 C 0.27694 -0.13710 0.23303
 C808 C 0.28074 -0.14907 0.25233
 C809 C 0.31791 -0.09096 0.23748
 C810 C 0.33425 -0.08312 0.25183
 C811 C 0.33960 -0.09558 0.27034
 C812 C 0.32794 -0.11542 0.27469
 C813 C 0.35615 -0.08765 0.28449
 C814 C 0.36660 -0.06714 0.28092
 C815 C 0.36061 -0.05422 0.26321
 C816 C 0.34484 -0.06262 0.24835
 H817 H 0.30199 -0.15085 0.28059
 H818 H 0.28571 -0.10908 0.21328
 H819 H 0.26393 -0.14187 0.22193
 H820 H 0.31396 -0.08146 0.22316
 H821 H 0.33176 -0.12479 0.28914
 H822 H 0.36058 -0.09704 0.29868
 H823 H 0.37866 -0.06094 0.29261
 H824 H 0.34042 -0.05292 0.23439
 C825 C 0.20193 -0.13473 0.73332
 C826 C 0.19038 -0.11521 0.73659
 C827 C 0.19654 -0.09936 0.75341
 C828 C 0.21421 -0.10343 0.76674
 C829 C 0.22575 -0.12294 0.76333
 C830 C 0.21987 -0.13890 0.74650
 C831 C 0.18495 -0.07975 0.75657
 C832 C 0.16731 -0.07588 0.74303
 C833 C 0.16119 -0.09187 0.72627
 C834 C 0.17274 -0.11139 0.72315
 C835 C 0.14337 -0.08826 0.71308
 C836 C 0.13173 -0.06892 0.71627
 C837 C 0.13796 -0.05239 0.73234
 C838 C 0.15555 -0.05639 0.74607
 H839 H 0.19674 -0.14647 0.72027
 H840 H 0.21915 -0.09148 0.77979
 H841 H 0.23929 -0.12534 0.77397
 H842 H 0.18967 -0.06754 0.76949
 H843 H 0.16796 -0.12363 0.71027
 H844 H 0.13821 -0.10058 0.70048
 H845 H 0.11751 -0.06734 0.70638
 H846 H 0.15993 -0.04446 0.75936
 C847 C 0.73043 0.38135 0.22637
 C848 C 0.71718 0.39964 0.22984
 C849 C 0.71543 0.41045 0.25146
 C850 C 0.72752 0.40298 0.26908
 C851 C 0.74040 0.38433 0.26557
 C852 C 0.74149 0.37302 0.24433
 C853 C 0.70117 0.42808 0.25516
 C854 C 0.68832 0.43454 0.23764
 C855 C 0.69035 0.42379 0.21601
 C856 C 0.70500 0.40665 0.21215
 C857 C 0.67727 0.42996 0.19870
 C858 C 0.66174 0.44618 0.20285
 C859 C 0.65909 0.45680 0.22444
 C860 C 0.67297 0.45113 0.24156
 H861 H 0.73158 0.37324 0.20970
 H862 H 0.72648 0.41113 0.28576
 H863 H 0.74882 0.37833 0.27965
 H864 H 0.69958 0.43628 0.27180
 H865 H 0.70637 0.39825 0.19559
 H866 H 0.67873 0.42188 0.18200
 H867 H 0.65191 0.44996 0.18899
 H868 H 0.67129 0.45926 0.25822
 C869 C 0.68882 0.63129 0.26085
 C870 C 0.68032 0.61024 0.25448
 C871 C 0.68850 0.59949 0.23424
 C872 C 0.70442 0.61010 0.22041
 C873 C 0.71274 0.63092 0.22680
 C874 C 0.70542 0.64165 0.24727
 C875 C 0.68094 0.57815 0.22825
 C876 C 0.66525 0.56730 0.24221
 C877 C 0.65651 0.57814 0.26214
 C878 C 0.66411 0.59958 0.26818
 C879 C 0.64052 0.56717 0.27579
 C880 C 0.63364 0.54555 0.26996
 C881 C 0.64278 0.53453 0.25056
 C882 C 0.65839 0.54562 0.23662
 H883 H 0.68274 0.63934 0.27651
 H884 H 0.71074 0.60213 0.20477
 H885 H 0.72533 0.63823 0.21575
 H886 H 0.68751 0.56986 0.21288
 H887 H 0.65765 0.60780 0.28363
 H888 H 0.63354 0.57519 0.29109
 H889 H 0.62167 0.53724 0.28097
 H890 H 0.66522 0.53732 0.22138
 C891 C 0.19011 0.12109 0.76644
 C892 C 0.18115 0.10001 0.76103
 C893 C 0.19167 0.08652 0.74393
 C894 C 0.21084 0.09426 0.73253
 C895 C 0.21946 0.11525 0.73781
 C896 C 0.20920 0.12892 0.75468
 C897 C 0.18286 0.06555 0.73834
 C898 C 0.16350 0.05786 0.74944
 C899 C 0.15281 0.07129 0.76645
 C900 C 0.16177 0.09225 0.77224
 C901 C 0.13327 0.06353 0.77727
 C902 C 0.12441 0.04271 0.77125
 C903 C 0.13501 0.02925 0.75445
 C904 C 0.15458 0.03696 0.74363
 H905 H 0.18203 0.13152 0.77942
 H906 H 0.21914 0.08410 0.71947
 H907 H 0.23440 0.12062 0.72877
 H908 H 0.19100 0.05526 0.72523
 H909 H 0.15360 0.10255 0.78530
 H910 H 0.12484 0.07355 0.79035
 H911 H 0.10941 0.03700 0.77999
 H912 H 0.16268 0.02685 0.73038
 C913 C 0.22987 0.27968 0.12115
 C914 C 0.23457 0.29489 0.10413
 C915 C 0.25553 0.29544 0.09283
 C916 C 0.27151 0.28113 0.09893
 C917 C 0.26674 0.26610 0.11581
 C918 C 0.24584 0.26497 0.12694
 C919 C 0.26020 0.31016 0.07550
 C920 C 0.24420 0.32443 0.06928
 C921 C 0.22333 0.32418 0.08068
 C922 C 0.21860 0.30939 0.09806
 C923 C 0.20747 0.33856 0.07428
 C924 C 0.21220 0.35301 0.05673
 C925 C 0.23302 0.35349 0.04526
 C926 C 0.24879 0.33885 0.05167
 H927 H 0.21368 0.27908 0.12950
 H928 H 0.28771 0.28147 0.09055
 H929 H 0.27957 0.25540 0.12006
 H930 H 0.27626 0.31042 0.06676
 H931 H 0.20251 0.30906 0.10671
 H932 H 0.19130 0.33849 0.08272
 H933 H 0.19924 0.36331 0.05212
 H934 H 0.26472 0.33860 0.04271
 C935 C 0.72182 0.78642 0.63708
 C936 C 0.72735 0.79998 0.61882
 C937 C 0.74860 0.79935 0.60823
 C938 C 0.76398 0.78530 0.61616
 C939 C 0.75836 0.77185 0.63430
 C940 C 0.73723 0.77214 0.64493
 C941 C 0.75411 0.81268 0.58984
 C942 C 0.73862 0.82666 0.58187
 C943 C 0.71742 0.82739 0.59251
 C944 C 0.71190 0.81405 0.61091
 C945 C 0.70202 0.84129 0.58439
 C946 C 0.70751 0.85443 0.56594
 C947 C 0.72870 0.85415 0.55528
 C948 C 0.74401 0.83983 0.56332
 H949 H 0.70542 0.78683 0.64487
 H950 H 0.78037 0.78465 0.60829
 H951 H 0.77070 0.76128 0.63998
 H952 H 0.77041 0.81213 0.58169
 H953 H 0.69557 0.81456 0.61900
 H954 H 0.68560 0.84188 0.59219
 H955 H 0.69480 0.86432 0.56005
 H956 H 0.76020 0.83892 0.55501
 C957 C 0.75724 0.78824 0.38206
 C958 C 0.75238 0.79974 0.40277
 C959 C 0.73535 0.79174 0.41762
 C960 C 0.72353 0.77243 0.41157
 C961 C 0.72846 0.76110 0.39100
 C962 C 0.74531 0.76883 0.37595
 C963 C 0.73042 0.80311 0.43832
 C964 C 0.74240 0.82234 0.44447
 C965 C 0.75943 0.83039 0.42967
 C966 C 0.76428 0.81908 0.40888
 C967 C 0.77143 0.84955 0.43600
 C968 C 0.76674 0.86053 0.45688
 C969 C 0.74989 0.85265 0.47179
 C970 C 0.73767 0.83357 0.46531
 H971 H 0.77018 0.79459 0.37070
 H972 H 0.71046 0.76604 0.42279
 H973 H 0.71907 0.74616 0.38705
 H974 H 0.71735 0.79691 0.44969
 H975 H 0.77736 0.82527 0.39753
 H976 H 0.78461 0.85592 0.42492
 H977 H 0.77670 0.87491 0.46153
 H978 H 0.72437 0.82746 0.47641
 C979 C 0.25861 0.28854 -0.12591
 C980 C 0.25371 0.30110 -0.10580
 C981 C 0.23657 0.29387 -0.09064
 C982 C 0.22472 0.27436 -0.09568
 C983 C 0.22972 0.26197 -0.11553
 C984 C 0.24665 0.26882 -0.13097
 C985 C 0.23162 0.30608 -0.07052
 C986 C 0.24380 0.32533 -0.06506
 C987 C 0.26094 0.33276 -0.08007
 C988 C 0.26571 0.32067 -0.10047
 C989 C 0.27315 0.35197 -0.07417
 C990 C 0.26879 0.36331 -0.05334
 C991 C 0.25207 0.35569 -0.03814
 C992 C 0.23931 0.33696 -0.04447
 H993 H 0.27170 0.29418 -0.13749
 H994 H 0.21158 0.26858 -0.08417
 H995 H 0.22018 0.24694 -0.11857
 H996 H 0.21850 0.30039 -0.05891
 H997 H 0.27889 0.32630 -0.11201
 H998 H 0.28636 0.35797 -0.08545
 H999 H 0.27897 0.37759 -0.04885
 H1000 H 0.22597 0.33119 -0.03323
 C1001 C 0.74060 0.22300 -0.14045
 C1002 C 0.74088 0.20996 -0.12140
 C1003 C 0.72632 0.19148 -0.11945
 C1004 C 0.71153 0.18653 -0.13640
 C1005 C 0.71139 0.19952 -0.15531
 C1006 C 0.72604 0.21776 -0.15770
 C1007 C 0.72692 0.17807 -0.10076
 C1008 C 0.74203 0.18279 -0.08401
 C1009 C 0.75647 0.20138 -0.08584
 C1010 C 0.75574 0.21490 -0.10444
 C1011 C 0.77179 0.20582 -0.06931
 C1012 C 0.77301 0.19185 -0.05130
 C1013 C 0.75866 0.17333 -0.04906
 C1014 C 0.74327 0.16888 -0.06575
 H1015 H 0.75203 0.23693 -0.14199
 H1016 H 0.70016 0.17251 -0.13512
 H1017 H 0.69969 0.19518 -0.16800
 H1018 H 0.71584 0.16380 -0.09941
 H1019 H 0.76696 0.22905 -0.10590
 H1020 H 0.78315 0.21985 -0.07054
 H1021 H 0.78558 0.19530 -0.03925
 H1022 H 0.73274 0.15424 -0.06523
 C1023 C 0.23894 0.72824 0.38272
 C1024 C 0.23979 0.71362 0.40045
 C1025 C 0.22011 0.70604 0.41165
 C1026 C 0.19999 0.71357 0.40531
 C1027 C 0.19927 0.72775 0.38742
 C1028 C 0.21864 0.73487 0.37571
 C1029 C 0.22078 0.69059 0.42856
 C1030 C 0.24085 0.68229 0.43418
 C1031 C 0.26055 0.69019 0.42333
 C1032 C 0.25992 0.70588 0.40662
 C1033 C 0.28058 0.68223 0.42935
 C1034 C 0.28109 0.66618 0.44552
 C1035 C 0.26155 0.65719 0.45560
 C1036 C 0.24149 0.66609 0.45038
 H1037 H 0.25394 0.73349 0.37366
 H1038 H 0.18477 0.70802 0.41377
 H1039 H 0.18344 0.73286 0.38248
 H1040 H 0.20565 0.68465 0.43695
 H1041 H 0.27504 0.71172 0.39814
 H1042 H 0.29588 0.68845 0.42161
 H1043 H 0.29692 0.66088 0.45020
 H1044 H 0.22634 0.66069 0.45900
 C1045 C 0.26253 0.69932 0.63349
 C1046 C 0.26007 0.68896 0.61199
 C1047 C 0.24496 0.69716 0.59733
 C1048 C 0.23220 0.71507 0.60453
 C1049 C 0.23479 0.72530 0.62582
 C1050 C 0.25020 0.71786 0.64044
 C1051 C 0.24312 0.68767 0.57550
 C1052 C 0.25632 0.67016 0.56798
 C1053 C 0.27103 0.66142 0.58271
 C1054 C 0.27278 0.67085 0.60471
 C1055 C 0.28395 0.64364 0.57497
 C1056 C 0.28278 0.63513 0.55263
 C1057 C 0.26886 0.64442 0.53772
 C1058 C 0.25531 0.66159 0.54570
 H1059 H 0.27430 0.69312 0.64454
 H1060 H 0.22047 0.72146 0.59352
 H1061 H 0.22492 0.73939 0.63045
 H1062 H 0.23172 0.69422 0.56418
 H1063 H 0.28429 0.66441 0.61595
 H1064 H 0.29519 0.63657 0.58606
 H1065 H 0.29321 0.62177 0.54682
 H1066 H 0.24406 0.66843 0.53445
 C1067 C 0.77063 0.20928 0.13271
 C1068 C 0.76709 0.20009 0.11093
 C1069 C 0.74878 0.20641 0.09928
 C1070 C 0.73395 0.22112 0.10983
 C1071 C 0.73762 0.23022 0.13140
 C1072 C 0.75622 0.22484 0.14287
 C1073 C 0.74578 0.19830 0.07710
 C1074 C 0.76088 0.18397 0.06633
 C1075 C 0.77883 0.17702 0.07814
 C1076 C 0.78183 0.18514 0.10039
 C1077 C 0.79358 0.16226 0.06733
 C1078 C 0.79077 0.15481 0.04491
 C1079 C 0.77342 0.16230 0.03293
 C1080 C 0.75839 0.17668 0.04379
 H1081 H 0.78502 0.20491 0.14127
 H1082 H 0.71972 0.22592 0.10122
 H1083 H 0.72595 0.24174 0.13891
 H1084 H 0.73191 0.20343 0.06808
 H1085 H 0.79579 0.18012 0.10935
 H1086 H 0.80734 0.15661 0.07613
 H1087 H 0.80242 0.14358 0.03673
 H1088 H 0.74468 0.18207 0.03471
 C1089 C 0.48627 0.38384 0.54183
 C1090 C 0.48968 0.36494 0.55384
 C1091 C 0.51127 0.35891 0.55782
 C1092 C 0.52910 0.37144 0.54880
 C1093 C 0.52554 0.39003 0.53640
 C1094 C 0.50413 0.39659 0.53326
 C1095 C 0.51462 0.34058 0.57083
 C1096 C 0.49665 0.32801 0.57952
 C1097 C 0.47513 0.33362 0.57468
 C1098 C 0.47179 0.35209 0.56201
 C1099 C 0.45722 0.32080 0.58278
 C1100 C 0.46045 0.30298 0.59618
 C1101 C 0.48165 0.29775 0.60209
 C1102 C 0.49976 0.31011 0.59326
 H1103 H 0.46971 0.38857 0.53898
 H1104 H 0.54577 0.36696 0.55145
 H1105 H 0.53951 0.39960 0.52975
 H1106 H 0.53116 0.33619 0.57426
 H1107 H 0.45524 0.35653 0.55863
 H1108 H 0.44067 0.32464 0.57887
 H1109 H 0.44621 0.29334 0.60201
 H1110 H 0.51618 0.30631 0.59759
 C1111 C -0.02178 0.86890 0.04390
 C1112 C -0.01946 0.85360 0.06067
 C1113 C -0.02842 0.85797 0.08289
 C1114 C -0.03961 0.87749 0.08791
 C1115 C -0.04213 0.89247 0.07102
 C1116 C -0.03326 0.88832 0.04891
 C1117 C -0.02636 0.84262 0.09963
 C1118 C -0.01590 0.82272 0.09432
 C1119 C -0.00703 0.81827 0.07211
 C1120 C -0.00866 0.83385 0.05546
 C1121 C 0.00295 0.79811 0.06683
 C1122 C 0.00361 0.78225 0.08323
 C1123 C -0.00544 0.78640 0.10529
 C1124 C -0.01471 0.80695 0.11079
 H1125 H -0.01511 0.86541 0.02683
 H1126 H -0.04658 0.88108 0.10485
 H1127 H -0.05085 0.90741 0.07535
 H1128 H -0.03330 0.84595 0.11666
 H1129 H -0.00191 0.83042 0.03839
 H1130 H 0.00977 0.79439 0.04986
 H1131 H 0.01055 0.76649 0.07833
 H1132 H -0.02133 0.81062 0.12785
 C1133 C 0.02836 0.63747 0.02662
 C1134 C 0.02645 0.65449 0.04325
 C1135 C 0.04499 0.66191 0.05507
 C1136 C 0.06519 0.65200 0.04995
 C1137 C 0.06693 0.63488 0.03334
 C1138 C 0.04854 0.62746 0.02145
 C1139 C 0.04289 0.67889 0.07191
 C1140 C 0.02238 0.68819 0.07725
 C1141 C 0.00389 0.68055 0.06535
 C1142 C 0.00610 0.66393 0.04835
 C1143 C -0.01667 0.68939 0.07087
 C1144 C -0.01909 0.70534 0.08838
 C1145 C -0.00096 0.71296 0.10045
 C1146 C 0.01986 0.70466 0.09457
 H1147 H 0.01386 0.63188 0.01802
 H1148 H 0.07960 0.65741 0.05886
 H1149 H 0.08271 0.62757 0.02977
 H1150 H 0.05708 0.68462 0.08106
 H1151 H -0.00812 0.65813 0.03929
 H1152 H -0.03094 0.68374 0.06186
 H1153 H -0.03519 0.71180 0.09248
 H1154 H 0.03386 0.71049 0.10395
 C1155 C 0.52510 0.14042 0.53108
 C1156 C 0.51634 0.15755 0.54511
 C1157 C 0.49346 0.15798 0.55003
 C1158 C 0.47974 0.14147 0.54061
 C1159 C 0.48857 0.12458 0.52656
 C1160 C 0.51131 0.12377 0.52174
 C1161 C 0.48467 0.17482 0.56438
 C1162 C 0.49845 0.19129 0.57385
 C1163 C 0.52130 0.19105 0.56867
 C1164 C 0.53010 0.17419 0.55434
 C1165 C 0.53501 0.20759 0.57808
 C1166 C 0.52623 0.22408 0.59270
 C1167 C 0.50360 0.22433 0.59822
 C1168 C 0.48977 0.20791 0.58860
 H1169 H 0.54264 0.14017 0.52732
 H1170 H 0.46217 0.14155 0.54419
 H1171 H 0.47755 0.11194 0.51980
 H1172 H 0.46713 0.17503 0.56827
 H1173 H 0.54764 0.17395 0.55050
 H1174 H 0.55255 0.20764 0.57435
 H1175 H 0.53730 0.23628 0.60020
 H1176 H 0.47226 0.20807 0.59260
 C1177 C -0.02665 0.13960 0.46640
 C1178 C -0.01813 0.15540 0.45130
 C1179 C 0.00471 0.15680 0.44603
 C1180 C 0.01864 0.14277 0.45630
 C1181 C 0.01009 0.12738 0.47155
 C1182 C -0.01260 0.12551 0.47663
 C1183 C 0.01327 0.17212 0.43054
 C1184 C -0.00065 0.18630 0.42041
 C1185 C -0.02342 0.18536 0.42611
 C1186 C -0.03203 0.16983 0.44141
 C1187 C -0.03720 0.19991 0.41627
 C1188 C -0.02857 0.21502 0.40069
 C1189 C -0.00607 0.21567 0.39449
 C1190 C 0.00783 0.20134 0.40455
 H1191 H -0.04415 0.13845 0.47039
 H1192 H 0.03618 0.14364 0.45249
 H1193 H 0.02125 0.11662 0.47902
 H1194 H 0.03076 0.17299 0.42634
 H1195 H -0.04953 0.16895 0.44558
 H1196 H -0.05467 0.19949 0.42048
 H1197 H -0.03960 0.22576 0.39299
 H1198 H 0.02526 0.20195 0.40004
 C1199 C 0.46598 0.64632 0.98107
 C1200 C 0.47259 0.66379 0.96718
 C1201 C 0.49511 0.66967 0.96424
 C1202 C 0.51056 0.65825 0.97552
 C1203 C 0.50384 0.64094 0.98936
 C1204 C 0.48155 0.63465 0.99213
 C1205 C 0.50184 0.68672 0.94991
 C1206 C 0.48636 0.69797 0.93845
 C1207 C 0.46380 0.69238 0.94169
 C1208 C 0.45705 0.67533 0.95603
 C1209 C 0.44838 0.70381 0.93031
 C1210 C 0.45525 0.72035 0.91556
 C1211 C 0.47764 0.72569 0.91185
 C1212 C 0.49310 0.71458 0.92358
 H1213 H 0.44871 0.64187 0.98324
 H1214 H 0.52788 0.66255 0.97348
 H1215 H 0.51624 0.63220 0.99748
 H1216 H 0.51914 0.69108 0.94752
 H1217 H 0.43976 0.67091 0.95835
 H1218 H 0.43102 0.69977 0.93260
 H1219 H 0.44306 0.72856 0.90655
 H1220 H 0.51040 0.71885 0.92115
 C1221 C 0.51272 0.88352 0.97907
 C1222 C 0.50710 0.86851 0.96134
 C1223 C 0.51330 0.87342 0.93865
 C1224 C 0.52431 0.89339 0.93397
 C1225 C 0.53013 0.90798 0.95162
 C1226 C 0.52488 0.90301 0.97432
 C1227 C 0.50917 0.85798 0.92102
 C1228 C 0.49943 0.83740 0.92575
 C1229 C 0.49254 0.83260 0.94826
 C1230 C 0.49622 0.84830 0.96594
 C1231 C 0.48285 0.81184 0.95274
 C1232 C 0.48106 0.79566 0.93527
 C1233 C 0.48891 0.80004 0.91311
 C1234 C 0.49739 0.82119 0.90836
 H1235 H 0.50863 0.87951 0.99651
 H1236 H 0.52900 0.89746 0.91667
 H1237 H 0.53907 0.92307 0.94746
 H1238 H 0.51435 0.86164 0.90371
 H1239 H 0.49136 0.84449 0.98328
 H1240 H 0.47735 0.80787 0.96985
 H1241 H 0.47452 0.77942 0.93930
 H1242 H 0.50313 0.82479 0.89120
 C1243 C 0.03123 0.37143 0.45847
 C1244 C 0.02480 0.35354 0.44432
 C1245 C 0.00232 0.34920 0.44084
 C1246 C -0.01338 0.36263 0.45214
 C1247 C -0.00682 0.38019 0.46664
 C1248 C 0.01553 0.38485 0.46972
 C1249 C -0.00403 0.33151 0.42622
 C1250 C 0.01185 0.31792 0.41537
 C1251 C 0.03426 0.32206 0.41948
 C1252 C 0.04058 0.33986 0.43375
 C1253 C 0.05011 0.30832 0.40923
 C1254 C 0.04398 0.29085 0.39466
 C1255 C 0.02187 0.28688 0.38967
 C1256 C 0.00579 0.30034 0.40042
 H1257 H 0.04850 0.37465 0.46108
 H1258 H -0.03070 0.35953 0.44981
 H1259 H -0.01920 0.39034 0.47519
 H1260 H -0.02125 0.32831 0.42332
 H1261 H 0.05781 0.34307 0.43666
 H1262 H 0.06730 0.31106 0.41248
 H1263 H 0.05671 0.28036 0.38739
 H1264 H -0.01129 0.29750 0.39684
 C1265 C 0.38344 0.53165 0.48715
 C1266 C 0.36426 0.54347 0.49122
 C1267 C 0.35832 0.55138 0.51346
 C1268 C 0.37115 0.54620 0.53145
 C1269 C 0.39016 0.53411 0.52726
 C1270 C 0.39672 0.52731 0.50502
 C1271 C 0.34004 0.56477 0.51719
 C1272 C 0.32770 0.57028 0.49892
 C1273 C 0.33312 0.56135 0.47691
 C1274 C 0.35128 0.54798 0.47322
 C1275 C 0.32071 0.56647 0.45872
 C1276 C 0.30380 0.58125 0.46196
 C1277 C 0.29903 0.59135 0.48343
 C1278 C 0.31052 0.58517 0.50207
 H1279 H 0.38820 0.52602 0.47000
 H1280 H 0.36675 0.55187 0.54866
 H1281 H 0.40017 0.53076 0.54125
 H1282 H 0.33579 0.57133 0.53414
 H1283 H 0.35568 0.54159 0.45622
 H1284 H 0.32441 0.55945 0.44184
 H1285 H 0.29468 0.58512 0.44747
 H1286 H 0.30689 0.59276 0.51870
 C1287 C 0.87600 0.03793 -0.02498
 C1288 C 0.85827 0.05204 -0.02198
 C1289 C 0.83890 0.04495 -0.00991
 C1290 C 0.83770 0.02395 -0.00089
 C1291 C 0.85553 0.01011 -0.00372
 C1292 C 0.87479 0.01693 -0.01583
 C1293 C 0.82111 0.05899 -0.00700
 C1294 C 0.82253 0.08011 -0.01583
 C1295 C 0.84200 0.08723 -0.02771
 C1296 C 0.85970 0.07314 -0.03077
 C1297 C 0.84343 0.10835 -0.03641
 C1298 C 0.82571 0.12226 -0.03354
 C1299 C 0.80616 0.11530 -0.02200
 C1300 C 0.80475 0.09420 -0.01306
 H1301 H 0.89088 0.04350 -0.03407
 H1302 H 0.82299 0.01824 0.00840
 H1303 H 0.85411 -0.00605 0.00337
 H1304 H 0.80622 0.05352 0.00217
 H1305 H 0.87458 0.07861 -0.03995
 H1306 H 0.85827 0.11412 -0.04543
 H1307 H 0.82738 0.13859 -0.04025
 H1308 H 0.78968 0.08851 -0.00441
 C1309 C 0.65135 0.04296 0.02611
 C1310 C 0.66791 0.05690 0.01666
 C1311 C 0.67040 0.05838 -0.00718
 C1312 C 0.65659 0.04571 -0.02114
 C1313 C 0.64051 0.03158 -0.01165
 C1314 C 0.63770 0.03010 0.01200
 C1315 C 0.68673 0.07238 -0.01672
 C1316 C 0.70089 0.08468 -0.00279
 C1317 C 0.69874 0.08291 0.02102
 C1318 C 0.68214 0.06916 0.03062
 C1319 C 0.71324 0.09496 0.03483
 C1320 C 0.72959 0.10875 0.02516
 C1321 C 0.73161 0.11088 0.00155
 C1322 C 0.71722 0.09873 -0.01234
 H1323 H 0.64943 0.04173 0.04436
 H1324 H 0.65830 0.04663 -0.03943
 H1325 H 0.63007 0.02198 -0.02286
 H1326 H 0.68849 0.07362 -0.03499
 H1327 H 0.68040 0.06792 0.04889
 H1328 H 0.71185 0.09382 0.05310
 H1329 H 0.74030 0.11820 0.03623
 H1330 H 0.71881 0.10014 -0.03058
 C1331 C 0.14193 0.52995 0.51818
 C1332 C 0.15993 0.54309 0.51052
 C1333 C 0.16544 0.54382 0.48701
 C1334 C 0.15320 0.53094 0.47164
 C1335 C 0.13561 0.51756 0.47945
 C1336 C 0.12969 0.51710 0.50271
 C1337 C 0.18306 0.55738 0.47926
 C1338 C 0.19550 0.56994 0.49475
 C1339 C 0.19039 0.56867 0.51830
 C1340 C 0.17254 0.55542 0.52602
 C1341 C 0.20324 0.58072 0.53376
 C1342 C 0.22086 0.59409 0.52600
 C1343 C 0.22572 0.59588 0.50267
 C1344 C 0.21300 0.58373 0.48709
 H1345 H 0.13765 0.52948 0.53618
 H1346 H 0.15723 0.53122 0.45358
 H1347 H 0.12632 0.50789 0.46722
 H1348 H 0.18713 0.55812 0.46122
 H1349 H 0.16849 0.55467 0.54406
 H1350 H 0.19964 0.57986 0.55185
 H1351 H 0.23039 0.60345 0.53825
 H1352 H 0.21689 0.58485 0.46905
 C1353 C 0.13917 0.47921 -0.03173
 C1354 C 0.15292 0.46223 -0.02648
 C1355 C 0.14384 0.44085 -0.02283
 C1356 C 0.12137 0.43665 -0.02524
 C1357 C 0.10795 0.45348 -0.03106
 C1358 C 0.11664 0.47490 -0.03408
 C1359 C 0.15731 0.42403 -0.01679
 C1360 C 0.17985 0.42812 -0.01482
 C1361 C 0.18914 0.44922 -0.01932
 C1362 C 0.17558 0.46622 -0.02489
 C1363 C 0.21184 0.45294 -0.01807
 C1364 C 0.22513 0.43607 -0.01192
 C1365 C 0.21591 0.41538 -0.00651
 C1366 C 0.19326 0.41144 -0.00828
 H1367 H 0.14600 0.49568 -0.03430
 H1368 H 0.11417 0.42036 -0.02261
 H1369 H 0.09061 0.44985 -0.03267
 H1370 H 0.15024 0.40775 -0.01362
 H1371 H 0.18264 0.48250 -0.02799
 H1372 H 0.21929 0.46894 -0.02165
 H1373 H 0.24250 0.43943 -0.01071
 H1374 H 0.18610 0.39534 -0.00453
 C1375 C 0.64282 0.98487 0.47667
 C1376 C 0.65827 0.97143 0.48567
 C1377 C 0.66071 0.97190 0.50937
 C1378 C 0.64809 0.98612 0.52356
 C1379 C 0.63287 0.99949 0.51449
 C1380 C 0.62988 0.99887 0.49103
 C1381 C 0.67547 0.95794 0.51857
 C1382 C 0.68781 0.94340 0.50441
 C1383 C 0.68585 0.94329 0.48066
 C1384 C 0.67111 0.95733 0.47143
 C1385 C 0.69841 0.92883 0.46659
 C1386 C 0.71227 0.91418 0.47599
 C1387 C 0.71378 0.91369 0.49960
 C1388 C 0.70177 0.92865 0.51370
 H1389 H 0.64088 0.98440 0.45853
 H1390 H 0.64978 0.98671 0.54175
 H1391 H 0.62308 1.00993 0.52600
 H1392 H 0.67709 0.95814 0.53678
 H1393 H 0.66941 0.95703 0.45323
 H1394 H 0.69719 0.92855 0.44835
 H1395 H 0.72123 0.90269 0.46480
 H1396 H 0.70312 0.92867 0.53192
 C1397 C 0.86848 0.97164 0.51495
 C1398 C 0.84888 0.95946 0.51212
 C1399 C 0.83085 0.96945 0.50314
 C1400 C 0.83300 0.99147 0.49676
 C1401 C 0.85258 1.00364 0.49996
 C1402 C 0.87038 0.99396 0.50949
 C1403 C 0.81091 0.95741 0.50120
 C1404 C 0.80876 0.93569 0.50862
 C1405 C 0.82700 0.92578 0.51740
 C1406 C 0.84697 0.93760 0.51880
 C1407 C 0.82488 0.90433 0.52524
 C1408 C 0.80471 0.89298 0.52509
 C1409 C 0.78635 0.90270 0.51680
 C1410 C 0.78854 0.92389 0.50807
 H1411 H 0.88212 0.96367 0.52183
 H1412 H 0.81939 0.99943 0.48977
 H1413 H 0.85353 1.02077 0.49553
 H1414 H 0.79697 0.96510 0.49451
 H1415 H 0.86085 0.92998 0.52573
 H1416 H 0.83873 0.89650 0.53193
 H1417 H 0.80341 0.87653 0.53156
 H1418 H 0.77437 0.93150 0.50177
 C1419 C 0.37198 0.47203 0.01493
 C1420 C 0.35251 0.46014 0.01037
 C1421 C 0.33464 0.47109 0.00217
 C1422 C 0.33676 0.49368 -0.00176
 C1423 C 0.35616 0.50546 0.00302
 C1424 C 0.37385 0.49485 0.01174
 C1425 C 0.31481 0.45939 -0.00141
 C1426 C 0.31252 0.43700 0.00359
 C1427 C 0.33059 0.42604 0.01144
 C1428 C 0.35051 0.43759 0.01450
 C1429 C 0.32825 0.40382 0.01681
 C1430 C 0.30795 0.39281 0.01546
 C1431 C 0.28969 0.40368 0.00837
 C1432 C 0.29224 0.42558 0.00174
 H1433 H 0.38550 0.46346 0.02130
 H1434 H 0.32327 0.50236 -0.00809
 H1435 H 0.35701 0.52298 0.00037
 H1436 H 0.30100 0.46786 -0.00742
 H1437 H 0.36424 0.42919 0.02078
 H1438 H 0.34195 0.39513 0.02270
 H1439 H 0.30640 0.37580 0.02030
 H1440 H 0.27827 0.43405 -0.00369
 C1441 C 0.54137 0.48040 0.37406
 C1442 C 0.55233 0.48423 0.35311
 C1443 C 0.55657 0.50611 0.34638
 C1444 C 0.54905 0.52375 0.36044
 C1445 C 0.53769 0.51975 0.38108
 C1446 C 0.53404 0.49809 0.38816
 C1447 C 0.56837 0.50994 0.32583
 C1448 C 0.57574 0.49216 0.31184
 C1449 C 0.57072 0.47032 0.31824
 C1450 C 0.55913 0.46649 0.33884
 C1451 C 0.57763 0.45260 0.30406
 C1452 C 0.59010 0.45641 0.28411
 C1453 C 0.59620 0.47802 0.27801
 C1454 C 0.58839 0.49585 0.29175
 H1455 H 0.53826 0.46363 0.37926
 H1456 H 0.55200 0.54062 0.35550
 H1457 H 0.53212 0.53361 0.39173
 H1458 H 0.57197 0.52672 0.32084
 H1459 H 0.55558 0.44971 0.34385
 H1460 H 0.57360 0.43577 0.30852
 H1461 H 0.59506 0.44227 0.27356
 H1462 H 0.59268 0.51258 0.28739
 C1463 C 0.02024 -0.02612 0.87410
 C1464 C 0.03614 -0.02539 0.85607
 C1465 C 0.05630 -0.03582 0.85790
 C1466 C 0.06036 -0.04652 0.87770
 C1467 C 0.04449 -0.04724 0.89545
 C1468 C 0.02421 -0.03726 0.89384
 C1469 C 0.07204 -0.03562 0.83985
 C1470 C 0.06787 -0.02529 0.81984
 C1471 C 0.04786 -0.01461 0.81798
 C1472 C 0.03212 -0.01467 0.83614
 C1473 C 0.04392 -0.00423 0.79787
 C1474 C 0.05951 -0.00471 0.77969
 C1475 C 0.07925 -0.01562 0.78132
 C1476 C 0.08339 -0.02568 0.80157
 H1477 H 0.00469 -0.01840 0.87252
 H1478 H 0.07578 -0.05447 0.87941
 H1479 H 0.04826 -0.05562 0.91050
 H1480 H 0.08744 -0.04374 0.84127
 H1481 H 0.01671 -0.00660 0.83469
 H1482 H 0.02870 0.00407 0.79612
 H1483 H 0.05591 0.00304 0.76419
 H1484 H 0.09877 -0.03373 0.80318
 C1485 C 0.02409 0.02585 0.62386
 C1486 C 0.03644 0.01684 0.64048
 C1487 C 0.03712 -0.00633 0.64191
 C1488 C 0.02526 -0.02007 0.62700
 C1489 C 0.01274 -0.01100 0.61086
 C1490 C 0.01206 0.01196 0.60907
 C1491 C 0.04953 -0.01545 0.65827
 C1492 C 0.06108 -0.00174 0.67349
 C1493 C 0.06016 0.02142 0.67240
 C1494 C 0.04795 0.03059 0.65581
 C1495 C 0.07149 0.03501 0.68796
 C1496 C 0.08371 0.02574 0.70434
 C1497 C 0.08494 0.00274 0.70531
 C1498 C 0.07351 -0.01090 0.68984
 H1499 H 0.02346 0.04358 0.62276
 H1500 H 0.02559 -0.03784 0.62789
 H1501 H 0.00377 -0.02204 0.59955
 H1502 H 0.05012 -0.03323 0.65921
 H1503 H 0.04732 0.04836 0.65490
 H1504 H 0.07097 0.05280 0.68742
 H1505 H 0.09259 0.03658 0.71591
 H1506 H 0.07412 -0.02867 0.69067
 C1507 C 0.52868 0.52523 0.12679
 C1508 C 0.54229 0.51641 0.14240
 C1509 C 0.54495 0.49335 0.14236
 C1510 C 0.53364 0.47950 0.12705
 C1511 C 0.51986 0.48837 0.11187
 C1512 C 0.51735 0.51127 0.11147
 C1513 C 0.55885 0.48449 0.15759
 C1514 C 0.56993 0.49835 0.17312
 C1515 C 0.56687 0.52136 0.17355
 C1516 C 0.55318 0.53025 0.15811
 C1517 C 0.57764 0.53509 0.18940
 C1518 C 0.59146 0.52618 0.20454
 C1519 C 0.59493 0.50341 0.20398
 C1520 C 0.58404 0.48956 0.18823
 H1521 H 0.52663 0.54289 0.12682
 H1522 H 0.53544 0.46180 0.12681
 H1523 H 0.51144 0.47728 0.10014
 H1524 H 0.56103 0.46682 0.15737
 H1525 H 0.55100 0.54792 0.15833
 H1526 H 0.57549 0.55275 0.19000
 H1527 H 0.59990 0.53720 0.21632
 H1528 H 0.58647 0.47194 0.18783
 C1529 C 0.49444 -0.02710 0.14797
 C1530 C 0.47975 -0.02110 0.16610
 C1531 C 0.47736 0.00144 0.17246
 C1532 C 0.49017 0.01749 0.16112
 C1533 C 0.50486 0.01137 0.14326
 C1534 C 0.50690 -0.01090 0.13626
 C1535 C 0.46198 0.00761 0.18980
 C1536 C 0.44895 -0.00846 0.20091
 C1537 C 0.45182 -0.03104 0.19512
 C1538 C 0.46720 -0.03723 0.17773
 C1539 C 0.43892 -0.04703 0.20655
 C1540 C 0.42283 -0.04068 0.22301
 C1541 C 0.41929 -0.01827 0.22822
 C1542 C 0.43273 -0.00224 0.21740
 H1543 H 0.49609 -0.04436 0.14293
 H1544 H 0.48861 0.03483 0.16585
 H1545 H 0.51415 0.02420 0.13452
 H1546 H 0.45989 0.02493 0.19438
 H1547 H 0.46916 -0.05454 0.17303
 H1548 H 0.44097 -0.06442 0.20243
 H1549 H 0.41258 -0.05331 0.23102
 H1550 H 0.43035 0.01509 0.22160
 C1551 C 0.97593 0.47540 0.63059
 C1552 C 0.96185 0.48247 0.64877
 C1553 C 0.96104 0.50519 0.65497
 C1554 C 0.97462 0.52036 0.64323
 C1555 C 0.98869 0.51316 0.62528
 C1556 C 0.98932 0.49069 0.61863
 C1557 C 0.94657 0.51242 0.67269
 C1558 C 0.93299 0.49722 0.68439
 C1559 C 0.93411 0.47444 0.67857
 C1560 C 0.94851 0.46721 0.66075
 C1561 C 0.92071 0.45931 0.69063
 C1562 C 0.90614 0.46670 0.70812
 C1563 C 0.90462 0.48931 0.71364
 C1564 C 0.91820 0.50448 0.70180
 H1565 H 0.97651 0.45799 0.62586
 H1566 H 0.97424 0.53781 0.64781
 H1567 H 0.99873 0.52529 0.61630
 H1568 H 0.94581 0.52987 0.67729
 H1569 H 0.94925 0.44976 0.65613
 H1570 H 0.92138 0.44179 0.68645
 H1571 H 0.89570 0.45477 0.71698
 H1572 H 0.91736 0.52195 0.70626
 C1573 C 0.97234 0.51704 0.87067
 C1574 C 0.95491 0.51533 0.85595
 C1575 C 0.93524 0.52629 0.86191
 C1576 C 0.93321 0.53854 0.88247
 C1577 C 0.95069 0.54046 0.89677
 C1578 C 0.97048 0.52997 0.89096
 C1579 C 0.91804 0.52525 0.84704
 C1580 C 0.92038 0.51379 0.82602
 C1581 C 0.93995 0.50268 0.82005
 C1582 C 0.95702 0.50334 0.83515
 C1583 C 0.94224 0.49148 0.79886
 C1584 C 0.92554 0.49169 0.78356
 C1585 C 0.90614 0.50293 0.78921
 C1586 C 0.90360 0.51371 0.81067
 H1587 H 0.98756 0.50896 0.86596
 H1588 H 0.91821 0.54695 0.88733
 H1589 H 0.94865 0.55021 0.91244
 H1590 H 0.90304 0.53380 0.85161
 H1591 H 0.97209 0.49493 0.83050
 H1592 H 0.95714 0.48293 0.79394
 H1593 H 0.92816 0.48358 0.76702
 H1594 H 0.88861 0.52219 0.81539
 C1595 C 0.47370 0.00891 0.38236
 C1596 C 0.46167 0.00307 0.36330
 C1597 C 0.47270 -0.00389 0.34276
 C1598 C 0.49559 -0.00532 0.34185
 C1599 C 0.50749 0.00072 0.36088
 C1600 C 0.49672 0.00825 0.38122
 C1601 C 0.46074 -0.00877 0.32339
 C1602 C 0.43793 -0.00632 0.32421
 C1603 C 0.42693 0.00037 0.34491
 C1604 C 0.43881 0.00472 0.36434
 C1605 C 0.40426 0.00333 0.34568
 C1606 C 0.39269 0.00058 0.32597
 C1607 C 0.40348 -0.00556 0.30522
 C1608 C 0.42602 -0.00959 0.30452
 H1609 H 0.46505 0.01426 0.39797
 H1610 H 0.50434 -0.01068 0.32628
 H1611 H 0.52517 0.00000 0.35940
 H1612 H 0.46923 -0.01384 0.30755
 H1613 H 0.43035 0.01007 0.38011
 H1614 H 0.39559 0.00841 0.36139
 H1615 H 0.37529 0.00361 0.32683
 H1616 H 0.43443 -0.01410 0.28848
   
