data_POSCAR
  _audit_creation_date              2014-09-24
  _audit_creation_method            'ToBaCCo'
  _symmetry_space_group_name_H-M    'P1'
  _symmetry_Int_Tables_number       1
  _symmetry_cell_setting            triclinic
  loop_
  _symmetry_equiv_pos_as_xyz
 x,y,z
_cell_length_a 73.2739
_cell_length_b 74.4969
_cell_length_c 73.7878
_cell_angle_alpha 89.883800
_cell_angle_beta 90.095500
_cell_angle_gamma 90.061100
loop_
  _atom_site_label
  _atom_site_type_symbol
  _atom_site_fract_x
  _atom_site_fract_y
  _atom_site_fract_z
O1 O 0.36527 0.34128 -0.01745
 O2 O 0.33935 0.36694 0.01646
 O3 O 0.36397 0.34162 0.01777
 O4 O 0.34074 0.36663 -0.01875
 O5 O 0.31888 0.34630 -0.01912
 O6 O 0.34248 0.32089 0.01670
 O7 O 0.31786 0.34618 0.01619
 O8 O 0.34325 0.32109 -0.01842
 Cu9 Cu 0.35451 0.35618 -0.00041
 Cu10 Cu 0.32841 0.33159 -0.00118
 C11 C 0.35866 0.32681 -0.02377
 C12 C 0.32416 0.36094 0.02213
 C13 C 0.35732 0.32684 0.02331
 C14 C 0.32577 0.36078 -0.02519
 O15 O 0.65824 0.63287 0.01722
 O16 O 0.63445 0.65775 -0.01891
 O17 O 0.65942 0.63298 -0.01800
 O18 O 0.63316 0.65795 0.01626
 O19 O 0.65477 0.67860 0.01718
 O20 O 0.68096 0.65362 -0.01700
 O21 O 0.65593 0.67850 -0.01822
 O22 O 0.67956 0.65378 0.01808
 Cu23 Cu 0.64416 0.64330 -0.00089
 Cu24 Cu 0.66991 0.66824 0.00005
 C25 C 0.67304 0.63901 0.02376
 C26 C 0.64114 0.67237 -0.02478
 C27 C 0.67477 0.63895 -0.02332
 C28 C 0.63949 0.67256 0.02255
 O29 O 0.63207 0.34141 1.01812
 O30 O 0.65769 0.36648 0.98329
 O31 O 0.63245 0.34171 0.98281
 O32 O 0.65713 0.36633 1.01857
 O33 O 0.67836 0.34540 1.01884
 O34 O 0.65383 0.32090 0.98301
 O35 O 0.67897 0.34557 0.98359
 O36 O 0.65342 0.32057 1.01826
 Cu37 Cu 0.64269 0.35607 1.00067
 Cu38 Cu 0.66827 0.33103 1.00094
 C39 C 0.63838 0.32667 1.02414
 C40 C 0.67275 0.36031 0.97751
 C41 C 0.63892 0.32707 0.97679
 C42 C 0.67201 0.36010 1.02486
 O43 O 0.34150 0.63407 0.98262
 O44 O 0.36580 0.65958 1.01797
 O45 O 0.34105 0.63449 1.01786
 O46 O 0.36652 0.65919 0.98274
 O47 O 0.34481 0.67967 0.98182
 O48 O 0.31968 0.65527 1.01734
 O49 O 0.34442 0.68039 1.01696
 O50 O 0.31997 0.65474 0.98202
 Cu51 Cu 0.35587 0.64475 1.00033
 Cu52 Cu 0.33004 0.66956 0.99947
 C53 C 0.32652 0.64002 0.97633
 C54 C 0.35930 0.67442 1.02343
 C55 C 0.32601 0.64067 1.02370
 C56 C 0.36006 0.67370 0.97632
 O57 O 0.01927 0.34115 0.36732
 O58 O -0.01659 0.36591 0.34281
 O59 O -0.01630 0.34083 0.36759
 O60 O 0.01886 0.36608 0.34247
 O61 O 0.01861 0.34536 0.32116
 O62 O -0.01630 0.32010 0.34633
 O63 O -0.01689 0.34503 0.32166
 O64 O 0.01924 0.32051 0.34593
 Cu65 Cu 0.00131 0.35556 0.35720
 Cu66 Cu 0.00115 0.33067 0.33166
 C67 C 0.02544 0.32661 0.36078
 C68 C -0.02285 0.35973 0.32801
 C69 C -0.02234 0.32610 0.36128
 C70 C 0.02470 0.36005 0.32746
 O71 O 0.01624 0.65660 0.63008
 O72 O -0.01847 0.63154 0.65587
 O73 O -0.01918 0.65651 0.63107
 O74 O 0.01711 0.63168 0.65513
 O75 O 0.01736 0.65239 0.67645
 O76 O -0.01838 0.67738 0.65218
 O77 O -0.01814 0.65251 0.67693
 O78 O 0.01721 0.67710 0.65162
 Cu79 Cu -0.00110 0.64198 0.64092
 Cu80 Cu -0.00044 0.66692 0.66641
 C81 C 0.02267 0.67112 0.63646
 C82 C -0.02432 0.63779 0.67078
 C83 C -0.02499 0.67127 0.63749
 C84 C 0.02339 0.63777 0.66997
 O85 O 1.01650 0.63434 0.34162
 O86 O 0.98077 0.65825 0.36706
 O87 O 0.98108 0.63296 0.34247
 O88 O 1.01613 0.65933 0.36633
 O89 O 1.01543 0.67962 0.34458
 O90 O 0.97918 0.65400 0.32144
 O91 O 0.97992 0.67907 0.34577
 O92 O 1.01463 0.65460 0.31985
 Cu93 Cu 0.99874 0.64414 0.35652
 Cu94 Cu 0.99720 0.66889 0.33076
 C95 C 1.02151 0.64029 0.32626
 C96 C 0.97436 0.67285 0.36082
 C97 C 0.97409 0.63899 0.32792
 C98 C 1.02183 0.67401 0.35959
 O99 O 0.98239 0.33884 0.63548
 O100 O 1.01919 0.36289 0.65928
 O101 O 1.01783 0.33796 0.63449
 O102 O 0.98375 0.36369 0.66033
 O103 O 0.98330 0.34246 0.68120
 O104 O 1.01856 0.31758 0.65617
 O105 O 1.01872 0.34247 0.68096
 O106 O 0.98311 0.31761 0.65636
 Cu107 Cu 1.00078 0.35293 0.64526
 Cu108 Cu 1.00094 0.32794 0.67080
 C109 C 0.97662 0.32398 0.64172
 C110 C 1.02507 0.35693 0.67434
 C111 C 1.02409 0.32334 0.64090
 C112 C 0.97767 0.35746 0.67518
 O113 O 0.36810 0.01641 0.34281
 O114 O 0.34391 -0.01962 0.36732
 O115 O 0.36901 -0.01859 0.34224
 O116 O 0.34295 0.01535 0.36777
 O117 O 0.32145 0.01475 0.34682
 O118 O 0.34771 -0.01863 0.32109
 O119 O 0.32278 -0.02002 0.34600
 O120 O 0.34656 0.01635 0.32190
 Cu121 Cu 0.35815 -0.00159 0.35714
 Cu122 Cu 0.33252 -0.00189 0.33182
 C123 C 0.36142 0.02259 0.32818
 C124 C 0.32919 -0.02599 0.36083
 C125 C 0.36278 -0.02443 0.32728
 C126 C 0.32765 0.02074 0.36171
 O127 O 0.63345 0.01836 0.65942
 O128 O 0.65962 -0.01557 0.63418
 O129 O 0.63485 -0.01650 0.65943
 O130 O 0.65811 0.01941 0.63394
 O131 O 0.67971 0.02031 0.65477
 O132 O 0.65634 -0.01536 0.68037
 O133 O 0.68123 -0.01455 0.65500
 O134 O 0.65524 0.01945 0.68006
 Cu135 Cu 0.64435 0.00133 0.64463
 Cu136 Cu 0.67031 0.00250 0.66962
 C137 C 0.63988 0.02470 0.67408
 C138 C 0.67494 -0.02083 0.64027
 C139 C 0.64153 -0.02195 0.67435
 C140 C 0.67289 0.02603 0.64001
 O141 O 0.36526 0.98131 0.66006
 O142 O 0.34050 1.01689 0.63560
 O143 O 0.36570 1.01629 0.66053
 O144 O 0.33988 0.98205 0.63510
 O145 O 0.31883 0.98185 0.65643
 O146 O 0.34440 1.01629 0.68161
 O147 O 0.31925 1.01674 0.65674
 O148 O 0.34410 0.98132 0.68128
 Cu149 Cu 0.35498 0.99911 0.64571
 Cu150 Cu 0.32954 0.99903 0.67115
 C151 C 0.35895 0.97526 0.67490
 C152 C 0.32560 1.02287 0.64195
 C153 C 0.35941 1.02221 0.67540
 C154 C 0.32488 0.97616 0.64138
 O155 O 0.63573 0.98306 0.33862
 O156 O 0.66048 1.01777 0.36432
 O157 O 0.63539 1.01785 0.33907
 O158 O 0.66053 0.98288 0.36404
 O159 O 0.68212 0.98337 0.34326
 O160 O 0.65686 1.01823 0.31815
 O161 O 0.68179 1.01834 0.34329
 O162 O 0.65739 0.98333 0.31789
 Cu163 Cu 0.64589 1.00036 0.35362
 Cu164 Cu 0.67171 1.00086 0.32857
 C165 C 0.64231 0.97730 0.32381
 C166 C 0.67543 1.02402 0.35823
 C167 C 0.64173 1.02392 0.32426
 C168 C 0.67566 0.97716 0.35796
 C169 C 0.81220 0.81378 0.51061
 C170 C 0.81290 0.81391 0.49215
 C171 C 0.82560 0.80215 0.48194
 C172 C 0.80121 0.82613 0.48122
 C173 C 0.80115 0.82710 0.52067
 C174 C 0.82297 0.80090 0.52168
 C175 C 0.84439 0.80204 0.48577
 C176 C 0.85613 0.79086 0.47609
 C177 C 0.84936 0.77987 0.46215
 C178 C 0.83063 0.78028 0.45810
 C179 C 0.81886 0.79132 0.46790
 C180 C 0.80928 0.83794 0.46876
 C181 C 0.79850 0.84957 0.45844
 C182 C 0.77940 0.84952 0.46027
 C183 C 0.77133 0.83750 0.47263
 C184 C 0.78214 0.82587 0.48296
 C185 C 0.78731 0.82127 0.53238
 C186 C 0.77680 0.83372 0.54189
 C187 C 0.78020 0.85221 0.54006
 C188 C 0.79427 0.85800 0.52852
 C189 C 0.80465 0.84554 0.51888
 C190 C 0.82165 0.78230 0.51888
 C191 C 0.83246 0.77045 0.52897
 C192 C 0.84465 0.77698 0.54216
 C193 C 0.84561 0.79559 0.54517
 C194 C 0.83483 0.80740 0.53509
 H195 H 0.84995 0.81066 0.49621
 H196 H 0.87057 0.79102 0.47927
 H197 H 0.82504 0.77187 0.44749
 H198 H 0.80444 0.79130 0.46466
 H199 H 0.82397 0.83832 0.46721
 H200 H 0.80516 0.85881 0.44924
 H201 H 0.77563 0.81660 0.49225
 H202 H 0.78454 0.80707 0.53400
 H203 H 0.76619 0.82891 0.55087
 H204 H 0.79710 0.87217 0.52681
 H205 H 0.81545 0.85025 0.51006
 H206 H 0.81234 0.77699 0.50881
 H207 H 0.83120 0.75618 0.52653
 H208 H 0.85503 0.80108 0.55503
 H209 H 0.83606 0.82170 0.53746
 H210 H 0.75665 0.83691 0.47413
 C211 C 0.18684 0.18523 0.50892
 C212 C 0.18792 0.18524 0.49048
 C213 C 0.17739 0.19805 0.47914
 C214 C 0.19930 0.17193 0.48070
 C215 C 0.19869 0.17337 0.52005
 C216 C 0.17372 0.19678 0.51893
 C217 C 0.16602 0.19152 0.46534
 C218 C 0.15547 0.20329 0.45500
 C219 C 0.15618 0.22189 0.45814
 C220 C 0.16792 0.22846 0.47170
 C221 C 0.17850 0.21664 0.48205
 C222 C 0.19600 0.15346 0.48263
 C223 C 0.20664 0.14101 0.47324
 C224 C 0.22080 0.14682 0.46181
 C225 C 0.22402 0.16533 0.45987
 C226 C 0.21325 0.17778 0.46912
 C227 C 0.21776 0.17417 0.51855
 C228 C 0.22876 0.16279 0.52894
 C229 C 0.22087 0.15051 0.54113
 C230 C 0.20176 0.14996 0.54279
 C231 C 0.19079 0.16134 0.53240
 C232 C 0.17988 0.20722 0.53353
 C233 C 0.16769 0.21778 0.54338
 C234 C 0.14907 0.21813 0.53881
 C235 C 0.14287 0.20763 0.52424
 C236 C 0.15504 0.19689 0.51452
 H237 H 0.16497 0.17722 0.46288
 H238 H 0.14640 0.19779 0.44483
 H239 H 0.16899 0.24273 0.47424
 H240 H 0.18747 0.22198 0.49241
 H241 H 0.18513 0.14871 0.49134
 H242 H 0.20393 0.12683 0.47505
 H243 H 0.21589 0.19198 0.46738
 H244 H 0.22412 0.18363 0.50935
 H245 H 0.24344 0.16375 0.52759
 H246 H 0.19527 0.14051 0.55190
 H247 H 0.17609 0.16057 0.53377
 H248 H 0.19419 0.20726 0.53725
 H249 H 0.17284 0.22582 0.55448
 H250 H 0.12855 0.20745 0.52062
 H251 H 0.14986 0.18855 0.50367
 H252 H 0.23470 0.17017 0.45097
 C253 C 0.18392 0.81486 0.49005
 C254 C 0.18349 0.81551 0.50852
 C255 C 0.17177 0.80310 0.51906
 C256 C 0.19459 0.82855 0.51910
 C257 C 0.19698 0.82585 0.47936
 C258 C 0.17117 0.80323 0.47957
 C259 C 0.15730 0.80994 0.52935
 C260 C 0.14564 0.79829 0.53864
 C261 C 0.14863 0.77969 0.53819
 C262 C 0.16345 0.77289 0.52834
 C263 C 0.17487 0.78451 0.51869
 C264 C 0.19425 0.84700 0.51505
 C265 C 0.20494 0.85904 0.52498
 C266 C 0.21584 0.85293 0.53941
 C267 C 0.21582 0.83455 0.54372
 C268 C 0.20530 0.82250 0.53366
 C269 C 0.21583 0.82504 0.48270
 C270 C 0.22790 0.83570 0.47269
 C271 C 0.22133 0.84721 0.45903
 C272 C 0.20246 0.84773 0.45554
 C273 C 0.19044 0.83710 0.46556
 C274 C 0.17800 0.79162 0.46625
 C275 C 0.16614 0.78087 0.45611
 C276 C 0.14724 0.78148 0.45918
 C277 C 0.14039 0.79323 0.47238
 C278 C 0.15222 0.80418 0.48231
 H279 H 0.15478 0.82425 0.52979
 H280 H 0.13433 0.80377 0.54627
 H281 H 0.16594 0.75857 0.52783
 H282 H 0.18608 0.77907 0.51090
 H283 H 0.18570 0.85207 0.50422
 H284 H 0.20447 0.87318 0.52157
 H285 H 0.20570 0.80836 0.53710
 H286 H 0.22119 0.81617 0.49307
 H287 H 0.24237 0.83480 0.47550
 H288 H 0.19695 0.85661 0.44528
 H289 H 0.17594 0.83789 0.46275
 H290 H 0.19254 0.79081 0.46378
 H291 H 0.17176 0.77188 0.44605
 H292 H 0.12584 0.79418 0.47477
 H293 H 0.14657 0.81349 0.49203
 H294 H 0.22419 0.82947 0.55469
 C295 C 0.81110 0.18847 0.48981
 C296 C 0.81067 0.18935 0.50825
 C297 C 0.82379 0.20066 0.51843
 C298 C 0.79783 0.17841 0.51926
 C299 C 0.79987 0.17536 0.47950
 C300 C 0.82332 0.20032 0.47904
 C301 C 0.84264 0.19761 0.51706
 C302 C 0.85491 0.20800 0.52705
 C303 C 0.84853 0.22164 0.53854
 C304 C 0.82966 0.22467 0.53987
 C305 C 0.81738 0.21415 0.53001
 C306 C 0.80469 0.16745 0.53317
 C307 C 0.79297 0.15672 0.54340
 C308 C 0.77408 0.15679 0.54004
 C309 C 0.76717 0.16800 0.52629
 C310 C 0.77893 0.17879 0.51605
 C311 C 0.78916 0.18127 0.46489
 C312 C 0.77868 0.16910 0.45494
 C313 C 0.77872 0.15077 0.45944
 C314 C 0.78960 0.14481 0.47395
 C315 C 0.80025 0.15696 0.48375
 C316 C 0.82246 0.21908 0.48071
 C317 C 0.83429 0.23003 0.47076
 C318 C 0.84710 0.22244 0.45885
 C319 C 0.84770 0.20366 0.45703
 C320 C 0.83587 0.19273 0.46697
 H321 H 0.84779 0.18708 0.50836
 H322 H 0.86939 0.20547 0.52572
 H323 H 0.82440 0.23495 0.54880
 H324 H 0.80287 0.21656 0.53132
 H325 H 0.81922 0.16693 0.53586
 H326 H 0.79876 0.14805 0.55370
 H327 H 0.77332 0.18740 0.50560
 H328 H 0.78879 0.19537 0.46129
 H329 H 0.77035 0.17403 0.44387
 H330 H 0.79010 0.13070 0.47748
 H331 H 0.80884 0.15201 0.49461
 H332 H 0.81262 0.22521 0.48970
 H333 H 0.83327 0.24445 0.47223
 H334 H 0.85755 0.19738 0.44816
 H335 H 0.83673 0.17829 0.46549
 H336 H 0.75265 0.16853 0.52356
 C337 C 0.51113 0.81316 0.81260
 C338 C 0.49255 0.81313 0.81343
 C339 C 0.48146 0.82495 0.80151
 C340 C 0.48236 0.80157 0.82642
 C341 C 0.52242 0.80051 0.82339
 C342 C 0.52116 0.82633 0.80125
 C343 C 0.46890 0.83690 0.80919
 C344 C 0.45852 0.84823 0.79816
 C345 C 0.46039 0.84773 0.77920
 C346 C 0.47281 0.83554 0.77153
 C347 C 0.48320 0.82421 0.78258
 C348 C 0.48646 0.80170 0.84503
 C349 C 0.47670 0.79082 0.85705
 C350 C 0.46239 0.77990 0.85074
 C351 C 0.45810 0.78004 0.83217
 C352 C 0.46799 0.79077 0.82014
 C353 C 0.51965 0.78188 0.82237
 C354 C 0.53005 0.77022 0.83307
 C355 C 0.54352 0.77697 0.84485
 C356 C 0.54648 0.79561 0.84552
 C357 C 0.53609 0.80724 0.83484
 C358 C 0.53302 0.82030 0.78768
 C359 C 0.54266 0.83259 0.77704
 C360 C 0.54084 0.85113 0.78001
 C361 C 0.52909 0.85714 0.79376
 C362 C 0.51931 0.84484 0.80428
 H363 H 0.46735 0.83763 0.82377
 H364 H 0.44925 0.85761 0.80450
 H365 H 0.47434 0.83461 0.75697
 H366 H 0.49256 0.81481 0.77639
 H367 H 0.49715 0.81031 0.85026
 H368 H 0.48009 0.79119 0.87133
 H369 H 0.46452 0.79054 0.80587
 H370 H 0.50939 0.77641 0.81336
 H371 H 0.52765 0.75592 0.83204
 H372 H 0.55655 0.80126 0.85462
 H373 H 0.53844 0.82156 0.83582
 H374 H 0.53470 0.80606 0.78526
 H375 H 0.55179 0.82761 0.76668
 H376 H 0.52737 0.87135 0.79626
 H377 H 0.51039 0.84972 0.81486
 H378 H 0.44722 0.77167 0.82694
 C379 C 0.50680 0.18644 0.18691
 C380 C 0.48822 0.18722 0.18731
 C381 C 0.47726 0.17626 0.20015
 C382 C 0.47788 0.19861 0.17436
 C383 C 0.51758 0.19846 0.17491
 C384 C 0.51731 0.17337 0.19807
 C385 C 0.46342 0.16506 0.19346
 C386 C 0.45340 0.15417 0.20521
 C387 C 0.45690 0.15437 0.22395
 C388 C 0.47051 0.16591 0.23069
 C389 C 0.48054 0.17682 0.21889
 C390 C 0.47935 0.19583 0.15561
 C391 C 0.46943 0.20648 0.14350
 C392 C 0.45792 0.22013 0.14994
 C393 C 0.45644 0.22283 0.16873
 C394 C 0.46622 0.21205 0.18084
 C395 C 0.51577 0.21719 0.17595
 C396 C 0.52584 0.22834 0.16444
 C397 C 0.53803 0.22096 0.15178
 C398 C 0.53997 0.20220 0.15097
 C399 C 0.52990 0.19108 0.16247
 C400 C 0.53198 0.17939 0.20870
 C401 C 0.54217 0.16727 0.21905
 C402 C 0.53788 0.14889 0.21897
 C403 C 0.52328 0.14284 0.20820
 C404 C 0.51322 0.15494 0.19770
 H405 H 0.46067 0.16442 0.17904
 H406 H 0.44319 0.14527 0.19956
 H407 H 0.47333 0.16657 0.24508
 H408 H 0.49094 0.18563 0.22436
 H409 H 0.48812 0.18536 0.15039
 H410 H 0.47089 0.20419 0.12909
 H411 H 0.46484 0.21428 0.19527
 H412 H 0.50659 0.22316 0.18572
 H413 H 0.52427 0.24274 0.16560
 H414 H 0.54907 0.19609 0.14123
 H415 H 0.53150 0.17666 0.16149
 H416 H 0.53545 0.19352 0.20910
 H417 H 0.55328 0.17231 0.22731
 H418 H 0.51988 0.12870 0.20767
 H419 H 0.50231 0.14991 0.18919
 H420 H 0.44750 0.23312 0.17405
 C421 C 0.48982 0.18650 0.81425
 C422 C 0.50844 0.18641 0.81393
 C423 C 0.51881 0.17353 0.80257
 C424 C 0.51942 0.19891 0.82525
 C425 C 0.47946 0.19785 0.82717
 C426 C 0.47884 0.17489 0.80200
 C427 C 0.51553 0.15497 0.80371
 C428 C 0.52525 0.14304 0.79281
 C429 C 0.53871 0.14942 0.78088
 C430 C 0.54228 0.16793 0.78008
 C431 C 0.53241 0.17987 0.79083
 C432 C 0.53270 0.19199 0.83705
 C433 C 0.54288 0.20346 0.84809
 C434 C 0.54009 0.22212 0.84747
 C435 C 0.52698 0.22906 0.83540
 C436 C 0.51681 0.21756 0.82432
 C437 C 0.46558 0.20915 0.82072
 C438 C 0.45570 0.21988 0.83270
 C439 C 0.45953 0.21949 0.85136
 C440 C 0.47328 0.20800 0.85784
 C441 C 0.48302 0.19713 0.84588
 C442 C 0.48119 0.17548 0.78313
 C443 C 0.47108 0.16409 0.77187
 C444 C 0.45830 0.15204 0.77928
 C445 C 0.45576 0.15176 0.79817
 C446 C 0.46587 0.16312 0.80939
 H447 H 0.50546 0.14974 0.81306
 H448 H 0.52247 0.12880 0.79391
 H449 H 0.55252 0.17319 0.77092
 H450 H 0.53524 0.19412 0.78985
 H451 H 0.53494 0.17765 0.83796
 H452 H 0.55268 0.19766 0.85740
 H453 H 0.50686 0.22319 0.81505
 H454 H 0.46254 0.20980 0.80637
 H455 H 0.44524 0.22868 0.82735
 H456 H 0.47628 0.20723 0.87220
 H457 H 0.49332 0.18813 0.85120
 H458 H 0.49089 0.18471 0.77713
 H459 H 0.47314 0.16483 0.75736
 H460 H 0.44622 0.14248 0.80433
 H461 H 0.46384 0.16247 0.82391
 H462 H 0.52472 0.24339 0.83439
 C463 C 0.49222 0.81482 0.18430
 C464 C 0.51073 0.81570 0.18319
 C465 C 0.52165 0.82882 0.19377
 C466 C 0.52091 0.80354 0.17100
 C467 C 0.48167 0.80309 0.17194
 C468 C 0.48155 0.82596 0.19717
 C469 C 0.51747 0.84721 0.19339
 C470 C 0.52752 0.85933 0.20385
 C471 C 0.54217 0.85331 0.21456
 C472 C 0.54668 0.83499 0.21448
 C473 C 0.53651 0.82286 0.20417
 C474 C 0.52905 0.81034 0.15524
 C475 C 0.53819 0.79885 0.14338
 C476 C 0.53970 0.78047 0.14738
 C477 C 0.53182 0.77374 0.16335
 C478 C 0.52233 0.78518 0.17500
 C479 C 0.47148 0.78873 0.17890
 C480 C 0.46138 0.77775 0.16726
 C481 C 0.46110 0.78119 0.14852
 C482 C 0.47123 0.79570 0.14163
 C483 C 0.48145 0.80655 0.15325
 C484 C 0.48540 0.82590 0.21582
 C485 C 0.47552 0.83689 0.22762
 C486 C 0.46149 0.84800 0.22100
 C487 C 0.45750 0.84776 0.20236
 C488 C 0.46736 0.83681 0.19060
 H489 H 0.50639 0.85218 0.18506
 H490 H 0.52397 0.87343 0.20343
 H491 H 0.55784 0.82999 0.22269
 H492 H 0.54003 0.80875 0.20457
 H493 H 0.52805 0.82450 0.15200
 H494 H 0.54427 0.80431 0.13119
 H495 H 0.51612 0.77977 0.18716
 H496 H 0.47144 0.78599 0.19332
 H497 H 0.45354 0.76676 0.17291
 H498 H 0.47135 0.79856 0.12724
 H499 H 0.48909 0.81773 0.14771
 H500 H 0.49609 0.81738 0.22122
 H501 H 0.47874 0.83657 0.24194
 H502 H 0.44697 0.85633 0.19677
 H503 H 0.46418 0.83708 0.17626
 H504 H 0.53279 0.75960 0.16664
 C505 C 0.81481 0.50838 0.81493
 C506 C 0.81558 0.49010 0.81524
 C507 C 0.80344 0.47945 0.82727
 C508 C 0.82865 0.47983 0.80386
 C509 C 0.82574 0.51927 0.80202
 C510 C 0.80336 0.51845 0.82799
 C511 C 0.81102 0.46728 0.83969
 C512 C 0.79978 0.45733 0.85122
 C513 C 0.78070 0.45926 0.85045
 C514 C 0.77313 0.47129 0.83781
 C515 C 0.78439 0.48123 0.82627
 C516 C 0.84740 0.48382 0.80398
 C517 C 0.85950 0.47398 0.79326
 C518 C 0.85313 0.45972 0.78252
 C519 C 0.83444 0.45553 0.78269
 C520 C 0.82233 0.46548 0.79326
 C521 C 0.82483 0.51624 0.78326
 C522 C 0.83559 0.52633 0.77137
 C523 C 0.84732 0.53976 0.77802
 C524 C 0.84792 0.54295 0.79679
 C525 C 0.83718 0.53286 0.80864
 C526 C 0.78946 0.52976 0.82164
 C527 C 0.77863 0.53932 0.83384
 C528 C 0.78178 0.53797 0.85259
 C529 C 0.79588 0.52681 0.85890
 C530 C 0.80655 0.51708 0.84670
 H531 H 0.82569 0.46570 0.84063
 H532 H 0.80605 0.44835 0.86095
 H533 H 0.75848 0.47284 0.83667
 H534 H 0.77826 0.49029 0.81651
 H535 H 0.85269 0.49449 0.81245
 H536 H 0.87389 0.47731 0.79360
 H537 H 0.80795 0.46209 0.79305
 H538 H 0.81582 0.50602 0.77786
 H539 H 0.83462 0.52375 0.75697
 H540 H 0.85699 0.55302 0.80237
 H541 H 0.83809 0.53542 0.82306
 H542 H 0.78691 0.53104 0.80723
 H543 H 0.76798 0.54798 0.82863
 H544 H 0.79852 0.52548 0.87329
 H545 H 0.81737 0.50856 0.85182
 H546 H 0.82915 0.44468 0.77446
 C547 C 0.18570 0.51095 0.18621
 C548 C 0.18562 0.49267 0.18555
 C549 C 0.19697 0.48253 0.17240
 C550 C 0.17379 0.48186 0.19775
 C551 C 0.17259 0.52089 0.19771
 C552 C 0.19828 0.52196 0.17499
 C553 C 0.19631 0.48641 0.15376
 C554 C 0.20695 0.47666 0.14157
 C555 C 0.21813 0.46259 0.14773
 C556 C 0.21850 0.45851 0.16632
 C557 C 0.20803 0.46840 0.17853
 C558 C 0.16148 0.46945 0.19034
 C559 C 0.15017 0.45928 0.20160
 C560 C 0.15105 0.46122 0.22054
 C561 C 0.16357 0.47352 0.22794
 C562 C 0.17489 0.48369 0.21665
 C563 C 0.17904 0.53258 0.21114
 C564 C 0.16679 0.54206 0.22199
 C565 C 0.14788 0.54022 0.21935
 C566 C 0.14146 0.52866 0.20572
 C567 C 0.15372 0.51906 0.19500
 C568 C 0.21724 0.51930 0.17560
 C569 C 0.22881 0.52953 0.16459
 C570 C 0.22163 0.54269 0.15289
 C571 C 0.20265 0.54548 0.15258
 C572 C 0.19113 0.53528 0.16357
 H573 H 0.18747 0.49691 0.14865
 H574 H 0.20619 0.47987 0.12727
 H575 H 0.22708 0.44780 0.17143
 H576 H 0.20863 0.46510 0.19283
 H577 H 0.16044 0.46783 0.17579
 H578 H 0.14052 0.45010 0.19546
 H579 H 0.18456 0.49295 0.22264
 H580 H 0.19357 0.53424 0.21330
 H581 H 0.17208 0.55105 0.23225
 H582 H 0.12696 0.52694 0.20348
 H583 H 0.14852 0.51025 0.18452
 H584 H 0.22305 0.50929 0.18457
 H585 H 0.24338 0.52724 0.16535
 H586 H 0.19665 0.55531 0.14354
 H587 H 0.17654 0.53753 0.16289
 H588 H 0.16480 0.47510 0.24248
 C589 C 0.81212 0.48921 0.18815
 C590 C 0.81232 0.50749 0.18755
 C591 C 0.80105 0.51788 0.17447
 C592 C 0.82413 0.51806 0.19989
 C593 C 0.82484 0.47902 0.20004
 C594 C 0.79954 0.47842 0.17670
 C595 C 0.80162 0.51423 0.15581
 C596 C 0.79079 0.52402 0.14373
 C597 C 0.77950 0.53789 0.15006
 C598 C 0.77926 0.54178 0.16867
 C599 C 0.78994 0.53186 0.18076
 C600 C 0.83857 0.52820 0.19274
 C601 C 0.85028 0.53762 0.20427
 C602 C 0.84738 0.53745 0.22306
 C603 C 0.83261 0.52771 0.23018
 C604 C 0.82115 0.51793 0.21867
 C605 C 0.81796 0.46612 0.21211
 C606 C 0.82979 0.45632 0.22321
 C607 C 0.84872 0.45928 0.22244
 C608 C 0.85560 0.47206 0.21021
 C609 C 0.84378 0.48169 0.19896
 C610 C 0.78059 0.48117 0.17715
 C611 C 0.76902 0.47110 0.16599
 C612 C 0.77619 0.45799 0.15430
 C613 C 0.79516 0.45511 0.15413
 C614 C 0.80668 0.46516 0.16527
 H615 H 0.81048 0.50383 0.15059
 H616 H 0.79145 0.52096 0.12941
 H617 H 0.77060 0.55232 0.17391
 H618 H 0.78937 0.53497 0.19508
 H619 H 0.84101 0.52845 0.17827
 H620 H 0.86153 0.54515 0.19854
 H621 H 0.80997 0.51025 0.22436
 H622 H 0.80340 0.46374 0.21302
 H623 H 0.82415 0.44658 0.23257
 H624 H 0.87015 0.47435 0.20911
 H625 H 0.84943 0.49113 0.18930
 H626 H 0.77478 0.49112 0.18612
 H627 H 0.75446 0.47344 0.16664
 H628 H 0.80115 0.44531 0.14512
 H629 H 0.82126 0.46283 0.16473
 H630 H 0.83019 0.52742 0.24466
 C631 C 0.19031 0.49128 0.80890
 C632 C 0.19019 0.50956 0.80946
 C633 C 0.20146 0.51976 0.82268
 C634 C 0.17824 0.52026 0.79724
 C635 C 0.17716 0.48120 0.79750
 C636 C 0.20281 0.48035 0.82032
 C637 C 0.20066 0.51594 0.84132
 C638 C 0.21137 0.52561 0.85357
 C639 C 0.22276 0.53953 0.84746
 C640 C 0.22324 0.54360 0.82887
 C641 C 0.21268 0.53380 0.81659
 C642 C 0.16595 0.53265 0.80462
 C643 C 0.15436 0.54253 0.79336
 C644 C 0.15492 0.54032 0.77444
 C645 C 0.16746 0.52808 0.76705
 C646 C 0.17907 0.51820 0.77834
 C647 C 0.18356 0.46939 0.78418
 C648 C 0.17127 0.45959 0.77362
 C649 C 0.15239 0.46122 0.77643
 C650 C 0.14602 0.47297 0.78988
 C651 C 0.15831 0.48290 0.80032
 C652 C 0.22178 0.48306 0.81998
 C653 C 0.23325 0.47287 0.83116
 C654 C 0.22595 0.45967 0.84274
 C655 C 0.20698 0.45684 0.84280
 C656 C 0.19556 0.46701 0.83166
 H657 H 0.19169 0.50552 0.84638
 H658 H 0.21051 0.52242 0.86787
 H659 H 0.23197 0.55421 0.82380
 H660 H 0.21338 0.53705 0.80230
 H661 H 0.16511 0.53444 0.81916
 H662 H 0.14471 0.55167 0.79950
 H663 H 0.18871 0.50895 0.77235
 H664 H 0.19808 0.46784 0.78195
 H665 H 0.17652 0.45047 0.76348
 H666 H 0.13152 0.47453 0.79225
 H667 H 0.15316 0.49179 0.81072
 H668 H 0.22768 0.49309 0.81109
 H669 H 0.24782 0.47519 0.83061
 H670 H 0.20089 0.44699 0.85175
 H671 H 0.18097 0.46472 0.83216
 H672 H 0.16844 0.52630 0.75253
 C673 C 0.29301 0.39134 0.06078
 C674 C 0.28829 0.37349 0.05677
 C675 C 0.29843 0.36361 0.04426
 C676 C 0.31363 0.37129 0.03562
 C677 C 0.31849 0.38906 0.03979
 C678 C 0.30824 0.39901 0.05216
 C679 C 0.28202 0.40192 0.07377
 N680 N 0.28419 0.41999 0.07508
 N681 N 0.27419 0.42952 0.08663
 C682 C 0.26164 0.42138 0.09741
 N683 N 0.25951 0.40331 0.09614
 N684 N 0.26946 0.39379 0.08453
 C685 C 0.25050 0.43196 0.11027
 C686 C 0.24018 0.42330 0.12375
 C687 C 0.22973 0.43326 0.13594
 C688 C 0.22923 0.45207 0.13480
 C689 C 0.23944 0.46075 0.12128
 C690 C 0.25005 0.45081 0.10920
 H691 H 0.27662 0.36718 0.06314
 H692 H 0.29436 0.34993 0.04137
 H693 H 0.33011 0.39538 0.03332
 H694 H 0.31229 0.41270 0.05500
 H695 H 0.24023 0.40882 0.12498
 H696 H 0.22185 0.42624 0.14614
 H697 H 0.23940 0.47525 0.12022
 H698 H 0.25781 0.45789 0.09895
 C699 C 0.70301 0.60888 0.06373
 C700 C 0.68826 0.60101 0.05447
 C701 C 0.67828 0.61090 0.04174
 C702 C 0.68295 0.62879 0.03787
 C703 C 0.69758 0.63671 0.04726
 C704 C 0.70744 0.62690 0.06010
 C705 C 0.71395 0.59832 0.07686
 N706 N 0.72621 0.60654 0.08790
 N707 N 0.73631 0.59705 0.09947
 C708 C 0.73464 0.57891 0.10043
 N709 N 0.72237 0.57068 0.08940
 N710 N 0.71222 0.58019 0.07787
 C711 C 0.74607 0.56836 0.11314
 C712 C 0.74692 0.54955 0.11187
 C713 C 0.75788 0.53966 0.12376
 C714 C 0.76806 0.54836 0.13729
 C715 C 0.76717 0.56714 0.13863
 C716 C 0.75637 0.57704 0.12664
 H717 H 0.68445 0.58719 0.05701
 H718 H 0.66710 0.60441 0.03470
 H719 H 0.70149 0.65049 0.04462
 H720 H 0.71873 0.63337 0.06697
 H721 H 0.73920 0.54245 0.10161
 H722 H 0.75820 0.52518 0.12255
 H723 H 0.77503 0.57418 0.14883
 H724 H 0.75603 0.59150 0.12801
 C725 C 0.70373 0.38967 0.93764
 C726 C 0.68751 0.39686 0.94476
 C727 C 0.67737 0.38729 0.95760
 C728 C 0.68324 0.37035 0.96366
 C729 C 0.69939 0.36314 0.95649
 C730 C 0.70949 0.37266 0.94362
 C731 C 0.71469 0.39986 0.92423
 N732 N 0.72986 0.39251 0.91675
 N733 N 0.73989 0.40171 0.90490
 C734 C 0.73520 0.41867 0.90001
 N735 N 0.72000 0.42603 0.90745
 N736 N 0.70995 0.41681 0.91930
 C737 C 0.74657 0.42898 0.88703
 C738 C 0.74246 0.44696 0.88287
 C739 C 0.75345 0.45674 0.87093
 C740 C 0.76879 0.44878 0.86285
 C741 C 0.77280 0.43076 0.86687
 C742 C 0.76184 0.42099 0.87882
 H743 H 0.68265 0.40990 0.94044
 H744 H 0.66498 0.39323 0.96287
 H745 H 0.70429 0.35011 0.96084
 H746 H 0.72191 0.36670 0.93845
 H747 H 0.73085 0.45356 0.88898
 H748 H 0.75013 0.47067 0.86828
 H749 H 0.78435 0.42415 0.86066
 H750 H 0.76537 0.40715 0.88162
 C751 C 0.29676 0.60986 0.93628
 C752 C 0.31159 0.60208 0.94550
 C753 C 0.32142 0.61194 0.95834
 C754 C 0.31651 0.62971 0.96237
 C755 C 0.30172 0.63750 0.95312
 C756 C 0.29202 0.62772 0.94016
 C757 C 0.28616 0.59940 0.92283
 N758 N 0.27401 0.60766 0.91168
 N759 N 0.26430 0.59826 0.89974
 C760 C 0.26627 0.58018 0.89848
 N761 N 0.27842 0.57191 0.90962
 N762 N 0.28819 0.58132 0.92152
 C763 C 0.25528 0.56973 0.88533
 C764 C 0.25456 0.55089 0.88636
 C765 C 0.24395 0.54109 0.87411
 C766 C 0.23400 0.54990 0.86046
 C767 C 0.23481 0.56870 0.85933
 C768 C 0.24526 0.57852 0.87168
 H769 H 0.31565 0.58838 0.94278
 H770 H 0.33273 0.60556 0.96528
 H771 H 0.29762 0.65118 0.95588
 H772 H 0.28064 0.63411 0.93334
 H773 H 0.26209 0.54371 0.89671
 H774 H 0.24368 0.52659 0.87516
 H775 H 0.22713 0.57583 0.84904
 H776 H 0.24552 0.59301 0.87049
 C777 C 0.06738 0.29742 0.38924
 C778 C 0.05949 0.31280 0.39696
 C779 C 0.04595 0.32234 0.38769
 C780 C 0.03994 0.31667 0.37053
 C781 C 0.04786 0.30133 0.36279
 C782 C 0.06145 0.29184 0.37201
 C783 C 0.08151 0.28708 0.39916
 N784 N 0.08999 0.27294 0.39121
 N785 N 0.10241 0.26340 0.40022
 C786 C 0.10688 0.26756 0.41758
 N787 N 0.09846 0.28175 0.42552
 N788 N 0.08606 0.29132 0.41649
 C789 C 0.12024 0.25651 0.42778
 C790 C 0.12349 0.25963 0.44629
 C791 C 0.13542 0.24861 0.45607
 C792 C 0.14438 0.23426 0.44755
 C793 C 0.14145 0.23141 0.42895
 C794 C 0.12952 0.24239 0.41919
 H795 H 0.06375 0.31749 0.41019
 H796 H 0.04011 0.33411 0.39403
 H797 H 0.04356 0.29662 0.34958
 H798 H 0.06720 0.28005 0.36566
 H799 H 0.11657 0.27036 0.45335
 H800 H 0.13722 0.25102 0.47043
 H801 H 0.14839 0.22065 0.42193
 H802 H 0.12746 0.23968 0.40492
 C803 C 0.06236 0.70128 0.60625
 C804 C 0.06168 0.70254 0.62523
 C805 C 0.04873 0.69277 0.63505
 C806 C 0.03652 0.68123 0.62611
 C807 C 0.03746 0.67967 0.60717
 C808 C 0.05012 0.68977 0.59731
 C809 C 0.07553 0.71219 0.59581
 N810 N 0.07174 0.71726 0.57852
 N811 N 0.08337 0.72750 0.56926
 C812 C 0.09934 0.73293 0.57685
 N813 N 0.10321 0.72773 0.59408
 N814 N 0.09149 0.71764 0.60341
 C815 C 0.11206 0.74459 0.56669
 C816 C 0.13085 0.74438 0.57056
 C817 C 0.14282 0.75556 0.56104
 C818 C 0.13613 0.76744 0.54783
 C819 C 0.11738 0.76773 0.54400
 C820 C 0.10546 0.75625 0.55320
 H821 H 0.07090 0.71137 0.63245
 H822 H 0.04833 0.69416 0.64965
 H823 H 0.02815 0.67092 0.59996
 H824 H 0.05041 0.68849 0.58270
 H825 H 0.13629 0.73546 0.58084
 H826 H 0.15726 0.75520 0.56419
 H827 H 0.11199 0.77677 0.53380
 H828 H 0.09104 0.75675 0.55002
 C829 C 0.93482 0.70297 0.39123
 C830 C 0.93840 0.70719 0.37301
 C831 C 0.95114 0.69731 0.36313
 C832 C 0.96046 0.68288 0.37119
 C833 C 0.95667 0.67844 0.38931
 C834 C 0.94404 0.68844 0.39926
 C835 C 0.92174 0.71387 0.40181
 N836 N 0.92070 0.71223 0.42012
 N837 N 0.90922 0.72236 0.42964
 C838 C 0.89825 0.73450 0.42123
 N839 N 0.89924 0.73606 0.40292
 N840 N 0.91076 0.72599 0.39342
 C841 C 0.88563 0.74594 0.43177
 C842 C 0.87231 0.75632 0.42289
 C843 C 0.86049 0.76724 0.43277
 C844 C 0.86182 0.76815 0.45173
 C845 C 0.87514 0.75783 0.46064
 C846 C 0.88687 0.74677 0.45077
 H847 H 0.93157 0.71830 0.36641
 H848 H 0.95372 0.70104 0.34917
 H849 H 0.96366 0.66741 0.39590
 H850 H 0.94154 0.68479 0.41325
 H851 H 0.87097 0.75599 0.40828
 H852 H 0.85046 0.77519 0.42556
 H853 H 0.87633 0.75818 0.47527
 H854 H 0.89699 0.73898 0.45803
 C855 C 0.93635 0.29400 0.61190
 C856 C 0.94010 0.31197 0.60739
 C857 C 0.95309 0.32176 0.61714
 C858 C 0.96245 0.31385 0.63174
 C859 C 0.95847 0.29599 0.63646
 C860 C 0.94563 0.28615 0.62659
 C861 C 0.92308 0.28339 0.60119
 N862 N 0.92223 0.26526 0.60300
 N863 N 0.91052 0.25565 0.59318
 C864 C 0.89911 0.26377 0.58118
 N865 N 0.89990 0.28191 0.57943
 N866 N 0.91167 0.29151 0.58919
 C867 C 0.88617 0.25303 0.57021
 C868 C 0.87193 0.26140 0.56060
 C869 C 0.85967 0.25121 0.55035
 C870 C 0.86152 0.23248 0.54934
 C871 C 0.87581 0.22411 0.55883
 C872 C 0.88795 0.23427 0.56923
 H873 H 0.93321 0.31840 0.59613
 H874 H 0.95583 0.33551 0.61321
 H875 H 0.96548 0.28951 0.64762
 H876 H 0.94301 0.27237 0.63049
 H877 H 0.87017 0.27582 0.56109
 H878 H 0.84884 0.25798 0.54305
 H879 H 0.87743 0.20967 0.55841
 H880 H 0.89878 0.22740 0.57643
 C881 C 0.38942 0.06463 0.29918
 C882 C 0.37211 0.05870 0.29352
 C883 C 0.36303 0.04509 0.30295
 C884 C 0.37101 0.03714 0.31832
 C885 C 0.38825 0.04316 0.32409
 C886 C 0.39737 0.05672 0.31460
 C887 C 0.39918 0.07881 0.28888
 N888 N 0.41663 0.08336 0.29311
 N889 N 0.42549 0.09583 0.28357
 C890 C 0.41726 0.10431 0.26944
 N891 N 0.39978 0.09982 0.26530
 N892 N 0.39093 0.08734 0.27480
 C893 C 0.42724 0.11779 0.25845
 C894 C 0.41829 0.12716 0.24447
 C895 C 0.42783 0.13928 0.23354
 C896 C 0.44657 0.14230 0.23628
 C897 C 0.45546 0.13323 0.25049
 C898 C 0.44590 0.12112 0.26146
 H899 H 0.36557 0.06446 0.28170
 H900 H 0.34975 0.04079 0.29817
 H901 H 0.39476 0.03731 0.33588
 H902 H 0.41067 0.06098 0.31935
 H903 H 0.40391 0.12506 0.24184
 H904 H 0.42052 0.14628 0.22291
 H905 H 0.46993 0.13511 0.25282
 H906 H 0.45324 0.11413 0.27208
 C907 C 0.60934 0.06344 0.70474
 C908 C 0.60108 0.05413 0.69034
 C909 C 0.61105 0.04170 0.68021
 C910 C 0.62942 0.03820 0.68439
 C911 C 0.63768 0.04755 0.69875
 C912 C 0.62778 0.06009 0.70875
 C913 C 0.59879 0.07644 0.71567
 N914 N 0.60740 0.08769 0.72736
 N915 N 0.59794 0.09924 0.73737
 C916 C 0.57946 0.09998 0.73619
 N917 N 0.57084 0.08873 0.72450
 N918 N 0.58031 0.07723 0.71442
 C919 C 0.56897 0.11270 0.74751
 C920 C 0.54991 0.11116 0.74903
 C921 C 0.54009 0.12303 0.75993
 C922 C 0.54910 0.13678 0.76939
 C923 C 0.56812 0.13841 0.76779
 C924 C 0.57797 0.12644 0.75704
 H925 H 0.58691 0.05645 0.68686
 H926 H 0.60430 0.03468 0.66924
 H927 H 0.65183 0.04519 0.70227
 H928 H 0.63455 0.06699 0.71977
 H929 H 0.54257 0.10071 0.74189
 H930 H 0.52540 0.12160 0.76082
 H931 H 0.57541 0.14880 0.77507
 H932 H 0.59263 0.12802 0.75616
 C933 C 0.38858 0.93478 0.70453
 C934 C 0.39582 0.94217 0.68853
 C935 C 0.38613 0.95519 0.67881
 C936 C 0.36902 0.96115 0.68491
 C937 C 0.36173 0.95367 0.70083
 C938 C 0.37137 0.94062 0.71050
 C939 C 0.39900 0.92126 0.71508
 N940 N 0.39165 0.91350 0.73006
 N941 N 0.40111 0.90160 0.73974
 C942 C 0.41833 0.89695 0.73487
 N943 N 0.42566 0.90466 0.71985
 N944 N 0.41619 0.91655 0.71016
 C945 C 0.42897 0.88398 0.74590
 C946 C 0.44726 0.88017 0.74165
 C947 C 0.45741 0.86830 0.75236
 C948 C 0.44949 0.85996 0.76753
 C949 C 0.43115 0.86360 0.77165
 C950 C 0.42102 0.87547 0.76097
 H951 H 0.40901 0.93797 0.68351
 H952 H 0.39213 0.96069 0.66660
 H953 H 0.34857 0.95795 0.70588
 H954 H 0.36538 0.93523 0.72276
 H955 H 0.45385 0.88651 0.73017
 H956 H 0.47157 0.86595 0.74896
 H957 H 0.42457 0.85717 0.78308
 H958 H 0.40694 0.87800 0.76459
 C959 C 0.61262 0.93855 0.29216
 C960 C 0.60440 0.94688 0.30715
 C961 C 0.61414 0.95924 0.31761
 C962 C 0.63224 0.96366 0.31322
 C963 C 0.64050 0.95525 0.29832
 C964 C 0.63083 0.94277 0.28795
 C965 C 0.60219 0.92575 0.28081
 N966 N 0.61077 0.91554 0.26820
 N967 N 0.60138 0.90418 0.25784
 C968 C 0.58300 0.90261 0.25959
 N969 N 0.57442 0.91282 0.27219
 N970 N 0.58382 0.92413 0.28260
 C971 C 0.57255 0.89006 0.24798
 C972 C 0.55338 0.89073 0.24744
 C973 C 0.54353 0.87892 0.23646
 C974 C 0.55263 0.86607 0.22591
 C975 C 0.57178 0.86536 0.22645
 C976 C 0.58164 0.87728 0.23730
 H977 H 0.59042 0.94387 0.31080
 H978 H 0.60738 0.96553 0.32900
 H979 H 0.65445 0.95835 0.29461
 H980 H 0.63756 0.93663 0.27649
 H981 H 0.54595 0.90043 0.25547
 H982 H 0.52877 0.87962 0.23642
 H983 H 0.57912 0.85567 0.21833
 H984 H 0.59639 0.87639 0.23740
 C985 C 0.38899 0.29586 0.93739
 C986 C 0.37054 0.29199 0.94087
 C987 C 0.36070 0.30209 0.95343
 C988 C 0.36903 0.31640 0.96267
 C989 C 0.38739 0.32045 0.95903
 C990 C 0.39730 0.31023 0.94659
 C991 C 0.39950 0.28484 0.92440
 N992 N 0.41796 0.28616 0.92347
 N993 N 0.42741 0.27603 0.91196
 C994 C 0.41878 0.26421 0.90087
 N995 N 0.40032 0.26295 0.90176
 N996 N 0.39088 0.27302 0.91331
 C997 C 0.42926 0.25285 0.88815
 C998 C 0.42023 0.24304 0.87456
 C999 C 0.43007 0.23228 0.86258
 C1000 C 0.44913 0.23097 0.86403
 C1001 C 0.45818 0.24069 0.87763
 C1002 C 0.44836 0.25160 0.88951
 H1003 H 0.36373 0.28100 0.93406
 H1004 H 0.34656 0.29866 0.95590
 H1005 H 0.39419 0.33138 0.96596
 H1006 H 0.41146 0.31361 0.94417
 H1007 H 0.40554 0.24371 0.87312
 H1008 H 0.42276 0.22479 0.85231
 H1009 H 0.47289 0.24003 0.87892
 H1010 H 0.45573 0.25896 0.89984
 C1011 C 0.61296 0.70174 0.93335
 C1012 C 0.60526 0.68612 0.94085
 C1013 C 0.61447 0.67653 0.95434
 C1014 C 0.63155 0.68238 0.96070
 C1015 C 0.63931 0.69794 0.95315
 C1016 C 0.63013 0.70749 0.93960
 C1017 C 0.60302 0.71212 0.91930
 N1018 N 0.61090 0.72653 0.91116
 N1019 N 0.60184 0.73609 0.89882
 C1020 C 0.58448 0.73166 0.89410
 N1021 N 0.57662 0.71721 0.90219
 N1022 N 0.58570 0.70763 0.91450
 C1023 C 0.57420 0.74267 0.88080
 C1024 C 0.55562 0.73929 0.87739
 C1025 C 0.54574 0.75022 0.86549
 C1026 C 0.55422 0.76475 0.85670
 C1027 C 0.57288 0.76788 0.85981
 C1028 C 0.58275 0.75699 0.87173
 H1029 H 0.59208 0.68128 0.93634
 H1030 H 0.60812 0.66459 0.95988
 H1031 H 0.65246 0.70278 0.95774
 H1032 H 0.63646 0.71947 0.93415
 H1033 H 0.54859 0.72840 0.88416
 H1034 H 0.53133 0.74759 0.86355
 H1035 H 0.57988 0.77879 0.85301
 H1036 H 0.59706 0.75991 0.87392
 C1037 C 0.38864 0.70560 0.06298
 C1038 C 0.39389 0.68785 0.05920
 C1039 C 0.38433 0.67767 0.04641
 C1040 C 0.36922 0.68498 0.03727
 C1041 C 0.36381 0.70262 0.04124
 C1042 C 0.37346 0.71284 0.05390
 C1043 C 0.39907 0.71663 0.07609
 N1044 N 0.39615 0.73458 0.07727
 N1045 N 0.40571 0.74460 0.08882
 C1046 C 0.41856 0.73708 0.09972
 N1047 N 0.42143 0.71911 0.09861
 N1048 N 0.41191 0.70909 0.08701
 C1049 C 0.42932 0.74832 0.11237
 C1050 C 0.44030 0.74039 0.12583
 C1051 C 0.45051 0.75105 0.13768
 C1052 C 0.45010 0.76984 0.13618
 C1053 C 0.43915 0.77777 0.12275
 C1054 C 0.42881 0.76714 0.11103
 H1055 H 0.40554 0.68188 0.06594
 H1056 H 0.38880 0.66410 0.04367
 H1057 H 0.35225 0.70865 0.03441
 H1058 H 0.36899 0.72643 0.05654
 H1059 H 0.44098 0.72593 0.12725
 H1060 H 0.45895 0.74461 0.14784
 H1061 H 0.43845 0.79224 0.12143
 H1062 H 0.42052 0.77369 0.10082
 C1063 C 0.60857 0.29645 0.06423
 C1064 C 0.60120 0.31230 0.05686
 C1065 C 0.61090 0.32220 0.04393
 C1066 C 0.62816 0.31643 0.03804
 C1067 C 0.63555 0.30064 0.04547
 C1068 C 0.62589 0.29079 0.05842
 C1069 C 0.59823 0.28575 0.07773
 N1070 N 0.60575 0.27090 0.08539
 N1071 N 0.59644 0.26111 0.09733
 C1072 C 0.57919 0.26572 0.10213
 N1073 N 0.57167 0.28060 0.09451
 N1074 N 0.58100 0.29042 0.08257
 C1075 C 0.56874 0.25457 0.11518
 C1076 C 0.55049 0.25865 0.11933
 C1077 C 0.54057 0.24784 0.13131
 C1078 C 0.54867 0.23273 0.13942
 C1079 C 0.56698 0.22879 0.13544
 C1080 C 0.57689 0.23956 0.12346
 H1081 H 0.58791 0.31707 0.06104
 H1082 H 0.60483 0.33430 0.03847
 H1083 H 0.64882 0.29584 0.04126
 H1084 H 0.63200 0.27866 0.06378
 H1085 H 0.54377 0.27008 0.11318
 H1086 H 0.52642 0.25112 0.13394
 H1087 H 0.57370 0.21741 0.14169
 H1088 H 0.59094 0.23607 0.12067
 C1089 C 0.29569 0.06333 0.61260
 C1090 C 0.28965 0.05736 0.62966
 C1091 C 0.29942 0.04431 0.63923
 C1092 C 0.31547 0.03696 0.63198
 C1093 C 0.32162 0.04305 0.61502
 C1094 C 0.31183 0.05606 0.60542
 C1095 C 0.28507 0.07684 0.60226
 N1096 N 0.29011 0.08169 0.58523
 N1097 N 0.28037 0.09358 0.57581
 C1098 C 0.26518 0.10116 0.58304
 N1099 N 0.26019 0.09637 0.60009
 N1100 N 0.26992 0.08446 0.60950
 C1101 C 0.25413 0.11413 0.57244
 C1102 C 0.23889 0.12253 0.58026
 C1103 C 0.22821 0.13443 0.57016
 C1104 C 0.23250 0.13821 0.55199
 C1105 C 0.24782 0.12995 0.54421
 C1106 C 0.25852 0.11806 0.55432
 H1107 H 0.27728 0.06266 0.63561
 H1108 H 0.29433 0.03994 0.65228
 H1109 H 0.33395 0.03766 0.60906
 H1110 H 0.31690 0.06037 0.59234
 H1111 H 0.23515 0.11990 0.59421
 H1112 H 0.21665 0.14080 0.57663
 H1113 H 0.25135 0.13240 0.53018
 H1114 H 0.27013 0.11179 0.54784
 C1115 C 0.70491 0.06299 0.38811
 C1116 C 0.71094 0.05751 0.37094
 C1117 C 0.70121 0.04469 0.36108
 C1118 C 0.68503 0.03713 0.36805
 C1119 C 0.67888 0.04286 0.38517
 C1120 C 0.68876 0.05554 0.39512
 C1121 C 0.71552 0.07626 0.39870
 N1122 N 0.71240 0.07858 0.41668
 N1123 N 0.72218 0.09032 0.42624
 C1124 C 0.73542 0.10030 0.41818
 N1125 N 0.73848 0.09804 0.40018
 N1126 N 0.72877 0.08624 0.39065
 C1127 C 0.74639 0.11328 0.42878
 C1128 C 0.75715 0.12624 0.41993
 C1129 C 0.76755 0.13847 0.42990
 C1130 C 0.76757 0.13788 0.44891
 C1131 C 0.75691 0.12490 0.45779
 C1132 C 0.74633 0.11280 0.44783
 H1133 H 0.72335 0.06295 0.36517
 H1134 H 0.70643 0.04072 0.34796
 H1135 H 0.66651 0.03741 0.39105
 H1136 H 0.68371 0.05954 0.40828
 H1137 H 0.75748 0.12700 0.40528
 H1138 H 0.77578 0.14825 0.42273
 H1139 H 0.75659 0.12428 0.47246
 H1140 H 0.73823 0.10296 0.45506
 C1141 C 0.70627 0.94048 0.61028
 C1142 C 0.71411 0.94982 0.62488
 C1143 C 0.70388 0.96224 0.63472
 C1144 C 0.68562 0.96573 0.63007
 C1145 C 0.67776 0.95641 0.61547
 C1146 C 0.68795 0.94384 0.60574
 C1147 C 0.71718 0.92738 0.59981
 N1148 N 0.70901 0.91589 0.58805
 N1149 N 0.71885 0.90413 0.57864
 C1150 C 0.73728 0.90343 0.58053
 N1151 N 0.74544 0.91495 0.59227
 N1152 N 0.73560 0.92665 0.60173
 C1153 C 0.74824 0.89038 0.57006
 C1154 C 0.76734 0.89198 0.56927
 C1155 C 0.77770 0.87967 0.55941
 C1156 C 0.76919 0.86539 0.55030
 C1157 C 0.75011 0.86374 0.55110
 C1158 C 0.73973 0.87616 0.56080
 H1159 H 0.72817 0.94750 0.62879
 H1160 H 0.71034 0.96924 0.64587
 H1161 H 0.66371 0.95878 0.61158
 H1162 H 0.68150 0.93691 0.59455
 H1163 H 0.77432 0.90279 0.57621
 H1164 H 0.79240 0.88114 0.55913
 H1165 H 0.74322 0.85294 0.54406
 H1166 H 0.72505 0.87453 0.56115
 C1167 C 0.29967 0.93287 0.38961
 C1168 C 0.31519 0.94089 0.39739
 C1169 C 0.32493 0.95410 0.38798
 C1170 C 0.31930 0.95964 0.37064
 C1171 C 0.30389 0.95151 0.36281
 C1172 C 0.29422 0.93826 0.37216
 C1173 C 0.28897 0.91922 0.39971
 N1174 N 0.27469 0.91072 0.39169
 N1175 N 0.26473 0.89881 0.40084
 C1176 C 0.26860 0.89489 0.41841
 N1177 N 0.28295 0.90332 0.42641
 N1178 N 0.29293 0.91522 0.41725
 C1179 C 0.25708 0.88206 0.42870
 C1180 C 0.25996 0.87919 0.44733
 C1181 C 0.24854 0.86768 0.45713
 C1182 C 0.23400 0.85878 0.44852
 C1183 C 0.23136 0.86138 0.42983
 C1184 C 0.24274 0.87289 0.42005
 H1185 H 0.31980 0.93703 0.41079
 H1186 H 0.33675 0.96011 0.39439
 H1187 H 0.29921 0.95544 0.34945
 H1188 H 0.28233 0.93240 0.36574
 H1189 H 0.27085 0.88606 0.45444
 H1190 H 0.25081 0.86610 0.47155
 H1191 H 0.22048 0.85448 0.42275
 H1192 H 0.24019 0.87467 0.40570
 C1193 C 0.06508 0.38719 0.70420
 C1194 C 0.06130 0.39138 0.68599
 C1195 C 0.04841 0.38148 0.67623
 C1196 C 0.03918 0.36705 0.68441
 C1197 C 0.04320 0.36265 0.70251
 C1198 C 0.05594 0.37267 0.71232
 C1199 C 0.07823 0.39807 0.71478
 N1200 N 0.07897 0.39664 0.73312
 N1201 N 0.09057 0.40660 0.74271
 C1202 C 0.10198 0.41836 0.73436
 N1203 N 0.10130 0.41974 0.71601
 N1204 N 0.08963 0.40984 0.70642
 C1205 C 0.11483 0.42945 0.74507
 C1206 C 0.12920 0.43870 0.73655
 C1207 C 0.14142 0.44900 0.74673
 C1208 C 0.13938 0.45044 0.76559
 C1209 C 0.12495 0.44134 0.77410
 C1210 C 0.11286 0.43088 0.76396
 H1211 H 0.06808 0.40251 0.67935
 H1212 H 0.04563 0.38516 0.66229
 H1213 H 0.03629 0.35163 0.70920
 H1214 H 0.05860 0.36903 0.72629
 H1215 H 0.13111 0.43786 0.72203
 H1216 H 0.15237 0.45600 0.73985
 H1217 H 0.12320 0.44209 0.78865
 H1218 H 0.10192 0.42397 0.77094
 C1219 C 0.06073 0.61082 0.29479
 C1220 C 0.05096 0.62514 0.28706
 C1221 C 0.03844 0.63486 0.29737
 C1222 C 0.03527 0.63036 0.31560
 C1223 C 0.04510 0.61610 0.32337
 C1224 C 0.05777 0.60649 0.31310
 C1225 C 0.07376 0.60036 0.28371
 N1226 N 0.08569 0.58877 0.29161
 N1227 N 0.09732 0.57932 0.28159
 C1228 C 0.09745 0.58098 0.26325
 N1229 N 0.08551 0.59254 0.25536
 N1230 N 0.07394 0.60205 0.26538
 C1231 C 0.11031 0.57043 0.25206
 C1232 C 0.10800 0.56941 0.23317
 C1233 C 0.12011 0.55948 0.22259
 C1234 C 0.13490 0.55051 0.23063
 C1235 C 0.13727 0.55154 0.24949
 C1236 C 0.12504 0.56132 0.26012
 H1237 H 0.05297 0.62889 0.27302
 H1238 H 0.03106 0.64575 0.29097
 H1239 H 0.04298 0.61234 0.33740
 H1240 H 0.06505 0.59551 0.31946
 H1241 H 0.09677 0.57623 0.22653
 H1242 H 0.11808 0.55903 0.20805
 H1243 H 0.14848 0.54462 0.25604
 H1244 H 0.12722 0.56185 0.27462
 C1245 C 0.93649 0.38929 0.29824
 C1246 C 0.94035 0.37134 0.29385
 C1247 C 0.95351 0.36172 0.30356
 C1248 C 0.96294 0.36978 0.31801
 C1249 C 0.95889 0.38763 0.32260
 C1250 C 0.94588 0.39731 0.31275
 C1251 C 0.92298 0.39965 0.28756
 N1252 N 0.92206 0.41780 0.28898
 N1253 N 0.91018 0.42716 0.27909
 C1254 C 0.89866 0.41875 0.26742
 N1255 N 0.89951 0.40059 0.26607
 N1256 N 0.91145 0.39124 0.27590
 C1257 C 0.88565 0.42917 0.25620
 C1258 C 0.87141 0.42049 0.24689
 C1259 C 0.85929 0.43029 0.23610
 C1260 C 0.86129 0.44895 0.23422
 C1261 C 0.87548 0.45766 0.24352
 C1262 C 0.88748 0.44789 0.25448
 H1263 H 0.93340 0.36477 0.28273
 H1264 H 0.95629 0.34797 0.29974
 H1265 H 0.96596 0.39422 0.33364
 H1266 H 0.94318 0.41109 0.31653
 H1267 H 0.86959 0.40610 0.24796
 H1268 H 0.84854 0.42325 0.22895
 H1269 H 0.87721 0.47206 0.24242
 H1270 H 0.89831 0.45499 0.26143
 C1271 C 0.93485 0.60885 0.70103
 C1272 C 0.94249 0.60140 0.68527
 C1273 C 0.95567 0.61082 0.67539
 C1274 C 0.96158 0.62786 0.68109
 C1275 C 0.95392 0.63532 0.69681
 C1276 C 0.94069 0.62595 0.70664
 C1277 C 0.92105 0.59881 0.71169
 N1278 N 0.91271 0.60655 0.72611
 N1279 N 0.90055 0.59747 0.73591
 C1280 C 0.89620 0.58024 0.73172
 N1281 N 0.90449 0.57250 0.71725
 N1282 N 0.91664 0.58160 0.70743
 C1283 C 0.88305 0.57001 0.74299
 C1284 C 0.87992 0.55165 0.73987
 C1285 C 0.86810 0.54188 0.75104
 C1286 C 0.85913 0.55028 0.76556
 C1287 C 0.86197 0.56871 0.76843
 C1288 C 0.87379 0.57845 0.75730
 H1289 H 0.93830 0.58828 0.68055
 H1290 H 0.96130 0.60470 0.66334
 H1291 H 0.95814 0.64843 0.70155
 H1292 H 0.93514 0.63209 0.71871
 H1293 H 0.88683 0.54471 0.72899
 H1294 H 0.86636 0.52766 0.74860
 H1295 H 0.85502 0.57563 0.77930
 H1296 H 0.87575 0.59260 0.76002
 C1297 C 0.70606 0.60928 0.93886
 C1298 C 0.71298 0.62515 0.94650
 C1299 C 0.70257 0.63507 0.95877
 C1300 C 0.68502 0.62925 0.96391
 C1301 C 0.67811 0.61335 0.95618
 C1302 C 0.68845 0.60357 0.94373
 C1303 C 0.71722 0.59869 0.92602
 N1304 N 0.70945 0.58587 0.91543
 N1305 N 0.71952 0.57632 0.90393
 C1306 C 0.73780 0.57910 0.90262
 N1307 N 0.74556 0.59189 0.91324
 N1308 N 0.73548 0.60150 0.92466
 C1309 C 0.74903 0.56845 0.88989
 C1310 C 0.76814 0.56810 0.89160
 C1311 C 0.77875 0.55806 0.87960
 C1312 C 0.77049 0.54835 0.86550
 C1313 C 0.75141 0.54872 0.86373
 C1314 C 0.74077 0.55857 0.87588
 H1315 H 0.72646 0.62998 0.94296
 H1316 H 0.70843 0.64722 0.96436
 H1317 H 0.66467 0.60838 0.95971
 H1318 H 0.68274 0.59137 0.93811
 H1319 H 0.77492 0.57552 0.90227
 H1320 H 0.79345 0.55810 0.88116
 H1321 H 0.74471 0.54122 0.85306
 H1322 H 0.72609 0.55858 0.87417
 C1323 C 0.29837 0.38960 0.93328
 C1324 C 0.31471 0.39621 0.94074
 C1325 C 0.32383 0.38667 0.95436
 C1326 C 0.31677 0.37032 0.96097
 C1327 C 0.30041 0.36375 0.95343
 C1328 C 0.29138 0.37323 0.93975
 C1329 C 0.28852 0.39977 0.91900
 N1330 N 0.27380 0.39249 0.91054
 N1331 N 0.26470 0.40167 0.89795
 C1332 C 0.26989 0.41856 0.89327
 N1333 N 0.28465 0.42584 0.90168
 N1334 N 0.29379 0.41663 0.91425
 C1335 C 0.25934 0.42893 0.87964
 C1336 C 0.26315 0.44716 0.87639
 C1337 C 0.25255 0.45708 0.86417
 C1338 C 0.23793 0.44897 0.85491
 C1339 C 0.23443 0.43064 0.85783
 C1340 C 0.24497 0.42076 0.87006
 H1341 H 0.32049 0.40876 0.93605
 H1342 H 0.33638 0.39222 0.95975
 H1343 H 0.29449 0.35123 0.95806
 H1344 H 0.27881 0.36775 0.93435
 H1345 H 0.27409 0.45389 0.88355
 H1346 H 0.25547 0.47122 0.86236
 H1347 H 0.22349 0.42392 0.85066
 H1348 H 0.24175 0.40671 0.87209
 C1349 C 0.29666 0.61227 0.06414
 C1350 C 0.31314 0.60546 0.05731
 C1351 C 0.32288 0.61485 0.04406
 C1352 C 0.31633 0.63130 0.03719
 C1353 C 0.29982 0.63810 0.04409
 C1354 C 0.29016 0.62873 0.05741
 C1355 C 0.28621 0.60220 0.07804
 N1356 N 0.27124 0.60955 0.08592
 N1357 N 0.26168 0.60043 0.09821
 C1358 C 0.26665 0.58355 0.10315
 N1359 N 0.28165 0.57621 0.09531
 N1360 N 0.29124 0.58535 0.08304
 C1361 C 0.25568 0.57325 0.11648
 C1362 C 0.25938 0.55504 0.11991
 C1363 C 0.24852 0.54518 0.13192
 C1364 C 0.23375 0.55333 0.14082
 C1365 C 0.23031 0.57163 0.13768
 C1366 C 0.24111 0.58146 0.12563
 H1367 H 0.31858 0.59283 0.06221
 H1368 H 0.33552 0.60912 0.03915
 H1369 H 0.29428 0.65070 0.03922
 H1370 H 0.27749 0.63437 0.06233
 H1371 H 0.27047 0.54827 0.11306
 H1372 H 0.25140 0.53106 0.13387
 H1373 H 0.21924 0.57839 0.14456
 H1374 H 0.23795 0.59550 0.12345
 C1375 C 0.70101 0.38858 0.06549
 C1376 C 0.68470 0.39550 0.05827
 C1377 C 0.67505 0.38607 0.04497
 C1378 C 0.68152 0.36950 0.03845
 C1379 C 0.69784 0.36258 0.04577
 C1380 C 0.70741 0.37198 0.05912
 C1381 C 0.71144 0.39867 0.07940
 N1382 N 0.72628 0.39124 0.08752
 N1383 N 0.73586 0.40037 0.09978
 C1384 C 0.73105 0.41734 0.10446
 N1385 N 0.71618 0.42477 0.09638
 N1386 N 0.70657 0.41562 0.08413
 C1387 C 0.74206 0.42761 0.11778
 C1388 C 0.73846 0.44585 0.12112
 C1389 C 0.74935 0.45565 0.13315
 C1390 C 0.76406 0.44743 0.14216
 C1391 C 0.76743 0.42912 0.13909
 C1392 C 0.75659 0.41934 0.12704
 H1393 H 0.67936 0.40824 0.06289
 H1394 H 0.66255 0.39189 0.03975
 H1395 H 0.70332 0.34988 0.04119
 H1396 H 0.71993 0.36624 0.06435
 H1397 H 0.72741 0.45266 0.11420
 H1398 H 0.74652 0.46978 0.13505
 H1399 H 0.77845 0.42230 0.14605
 H1400 H 0.75969 0.40529 0.12492
 C1401 C 0.93391 0.70062 0.60981
 C1402 C 0.94063 0.68448 0.60260
 C1403 C 0.95410 0.67472 0.61175
 C1404 C 0.96130 0.68091 0.62833
 C1405 C 0.95448 0.69707 0.63552
 C1406 C 0.94095 0.70674 0.62641
 C1407 C 0.91979 0.71115 0.60003
 N1408 N 0.91211 0.72581 0.60783
 N1409 N 0.89969 0.73550 0.59898
 C1410 C 0.89441 0.73097 0.58194
 N1411 N 0.90204 0.71627 0.57415
 N1412 N 0.91444 0.70655 0.58302
 C1413 C 0.88098 0.74214 0.57194
 C1414 C 0.87711 0.73884 0.55356
 C1415 C 0.86509 0.74994 0.54397
 C1416 C 0.85662 0.76456 0.55255
 C1417 C 0.86017 0.76759 0.57102
 C1418 C 0.87221 0.75655 0.58058
 H1419 H 0.93548 0.67935 0.58986
 H1420 H 0.95893 0.66236 0.60573
 H1421 H 0.95958 0.70234 0.64823
 H1422 H 0.93613 0.71914 0.63235
 H1423 H 0.88364 0.72789 0.54647
 H1424 H 0.86281 0.74736 0.52971
 H1425 H 0.85362 0.77854 0.57810
 H1426 H 0.87473 0.75940 0.59475
 C1427 C 0.93752 0.29651 0.39002
 C1428 C 0.94411 0.29041 0.37326
 C1429 C 0.95732 0.30016 0.36380
 C1430 C 0.96429 0.31636 0.37081
 C1431 C 0.95758 0.32251 0.38757
 C1432 C 0.94440 0.31268 0.39706
 C1433 C 0.92364 0.28597 0.40010
 N1434 N 0.91822 0.29098 0.41695
 N1435 N 0.90591 0.28135 0.42604
 C1436 C 0.89848 0.26632 0.41866
 N1437 N 0.90388 0.26135 0.40180
 N1438 N 0.91619 0.27096 0.39272
 C1439 C 0.88499 0.25540 0.42884
 C1440 C 0.87666 0.24043 0.42071
 C1441 C 0.86424 0.22988 0.43037
 C1442 C 0.85988 0.23401 0.44843
 C1443 C 0.86806 0.24908 0.45652
 C1444 C 0.88045 0.25967 0.44683
 H1445 H 0.93914 0.27800 0.36743
 H1446 H 0.96206 0.29492 0.35096
 H1447 H 0.96254 0.33490 0.39346
 H1448 H 0.93960 0.31780 0.40992
 H1449 H 0.87972 0.23680 0.40684
 H1450 H 0.85796 0.21853 0.42365
 H1451 H 0.86516 0.25249 0.47048
 H1452 H 0.88664 0.27107 0.45354
 C1453 C 0.06230 0.29290 0.61074
 C1454 C 0.05489 0.30878 0.60354
 C1455 C 0.04249 0.31897 0.61358
 C1456 C 0.03701 0.31342 0.63101
 C1457 C 0.04454 0.29753 0.63819
 C1458 C 0.05708 0.28747 0.62822
 C1459 C 0.07528 0.28196 0.60003
 N1460 N 0.08523 0.26878 0.60806
 N1461 N 0.09680 0.25886 0.59844
 C1462 C 0.09886 0.26163 0.58036
 N1463 N 0.08889 0.27480 0.57232
 N1464 N 0.07738 0.28478 0.58196
 C1465 C 0.11168 0.25051 0.56967
 C1466 C 0.11106 0.25058 0.55062
 C1467 C 0.12310 0.23997 0.54059
 C1468 C 0.13615 0.22924 0.54939
 C1469 C 0.13683 0.22921 0.56842
 C1470 C 0.12467 0.23965 0.57845
 H1471 H 0.05870 0.31339 0.59015
 H1472 H 0.03706 0.33111 0.60752
 H1473 H 0.04075 0.29276 0.65155
 H1474 H 0.06251 0.27528 0.63416
 H1475 H 0.10120 0.25875 0.54344
 H1476 H 0.12239 0.24033 0.52593
 H1477 H 0.14665 0.22093 0.57554
 H1478 H 0.12554 0.23929 0.59310
 C1479 C 0.06092 0.70499 0.38824
 C1480 C 0.05396 0.68903 0.39569
 C1481 C 0.04133 0.67867 0.38611
 C1482 C 0.03508 0.68412 0.36889
 C1483 C 0.04217 0.70008 0.36140
 C1484 C 0.05502 0.71031 0.37091
 C1485 C 0.07402 0.71612 0.39862
 N1486 N 0.08415 0.72898 0.39028
 N1487 N 0.09581 0.73907 0.39970
 C1488 C 0.09773 0.73679 0.41788
 N1489 N 0.08758 0.72395 0.42622
 N1490 N 0.07602 0.71380 0.41678
 C1491 C 0.11050 0.74815 0.42843
 C1492 C 0.10900 0.74926 0.44739
 C1493 C 0.12087 0.76015 0.45735
 C1494 C 0.13466 0.76996 0.44859
 C1495 C 0.13631 0.76874 0.42967
 C1496 C 0.12426 0.75805 0.41967
 H1497 H 0.05832 0.68450 0.40896
 H1498 H 0.03628 0.66648 0.39240
 H1499 H 0.03780 0.70476 0.34818
 H1500 H 0.06009 0.72256 0.36481
 H1501 H 0.09852 0.74184 0.45455
 H1502 H 0.11941 0.76076 0.47194
 H1503 H 0.14675 0.77628 0.42260
 H1504 H 0.12581 0.75746 0.40510
 C1505 C 0.61244 0.93841 0.70558
 C1506 C 0.60767 0.94178 0.68743
 C1507 C 0.61719 0.95456 0.67725
 C1508 C 0.63182 0.96410 0.68493
 C1509 C 0.63680 0.96052 0.70298
 C1510 C 0.62716 0.94789 0.71322
 C1511 C 0.60197 0.92530 0.71656
 N1512 N 0.60387 0.92474 0.73487
 N1513 N 0.59426 0.91314 0.74478
 C1514 C 0.58239 0.90157 0.73680
 N1515 N 0.58055 0.90208 0.71848
 N1516 N 0.59010 0.91373 0.70858
 C1517 C 0.57167 0.88870 0.74784
 C1518 C 0.56235 0.87437 0.73958
 C1519 C 0.55236 0.86216 0.75003
 C1520 C 0.55132 0.86414 0.76892
 C1521 C 0.56050 0.87853 0.77718
 C1522 C 0.57065 0.89062 0.76677
 H1523 H 0.59639 0.93474 0.68114
 H1524 H 0.61305 0.95699 0.66336
 H1525 H 0.64799 0.96768 0.70930
 H1526 H 0.63124 0.94556 0.72713
 H1527 H 0.56287 0.87249 0.72504
 H1528 H 0.54529 0.85127 0.74332
 H1529 H 0.56005 0.88025 0.79174
 H1530 H 0.57762 0.90153 0.77355
 C1531 C 0.39255 0.93570 0.29708
 C1532 C 0.37504 0.94117 0.29155
 C1533 C 0.36546 0.95413 0.30133
 C1534 C 0.37308 0.96189 0.31695
 C1535 C 0.39056 0.95640 0.32255
 C1536 C 0.40021 0.94349 0.31270
 C1537 C 0.40272 0.92205 0.28652
 N1538 N 0.42035 0.91801 0.29053
 N1539 N 0.42949 0.90592 0.28083
 C1540 C 0.42136 0.89730 0.26674
 N1541 N 0.40370 0.90129 0.26281
 N1542 N 0.39459 0.91340 0.27247
 C1543 C 0.43156 0.88412 0.25562
 C1544 C 0.42261 0.87439 0.24192
 C1545 C 0.43226 0.86246 0.23095
 C1546 C 0.45112 0.85998 0.23335
 C1547 C 0.46004 0.86944 0.24726
 C1548 C 0.45036 0.88136 0.25829
 H1549 H 0.36872 0.93551 0.27958
 H1550 H 0.35201 0.95802 0.29665
 H1551 H 0.39682 0.96213 0.33452
 H1552 H 0.41365 0.93958 0.31736
 H1553 H 0.40812 0.87604 0.23957
 H1554 H 0.42492 0.85515 0.22058
 H1555 H 0.47459 0.86799 0.24933
 H1556 H 0.45770 0.88864 0.26869
 C1557 C 0.61091 0.06270 0.29350
 C1558 C 0.60307 0.05394 0.30849
 C1559 C 0.61318 0.04157 0.31863
 C1560 C 0.63129 0.03754 0.31392
 C1561 C 0.63916 0.04635 0.29900
 C1562 C 0.62911 0.05885 0.28895
 C1563 C 0.60009 0.07560 0.28257
 N1564 N 0.60829 0.08629 0.27005
 N1565 N 0.59855 0.09778 0.26014
 C1566 C 0.58018 0.09903 0.26226
 N1567 N 0.57198 0.08833 0.27476
 N1568 N 0.58173 0.07688 0.28472
 C1569 C 0.56933 0.11176 0.25116
 C1570 C 0.55016 0.11079 0.25089
 C1571 C 0.53996 0.12276 0.24035
 C1572 C 0.54869 0.13606 0.22999
 C1573 C 0.56783 0.13709 0.23029
 C1574 C 0.57804 0.12502 0.24068
 H1575 H 0.58911 0.05663 0.31241
 H1576 H 0.60670 0.03498 0.33003
 H1577 H 0.65310 0.04356 0.29504
 H1578 H 0.63556 0.06533 0.27748
 H1579 H 0.54301 0.10073 0.25877
 H1580 H 0.52521 0.12177 0.24048
 H1581 H 0.57491 0.14711 0.22230
 H1582 H 0.59277 0.12615 0.24058
 C1583 C 0.38893 0.06267 0.70519
 C1584 C 0.37169 0.05677 0.71105
 C1585 C 0.36215 0.04364 0.70139
 C1586 C 0.36959 0.03612 0.68559
 C1587 C 0.38680 0.04205 0.67967
 C1588 C 0.39638 0.05515 0.68937
 C1589 C 0.39908 0.07649 0.71560
 N1590 N 0.41635 0.08126 0.71090
 N1591 N 0.42549 0.09351 0.72043
 C1592 C 0.41776 0.10155 0.73504
 N1593 N 0.40048 0.09681 0.73968
 N1594 N 0.39135 0.08455 0.73018
 C1595 C 0.42801 0.11494 0.74591
 C1596 C 0.41955 0.12382 0.76043
 C1597 C 0.42930 0.13603 0.77106
 C1598 C 0.44777 0.13964 0.76746
 C1599 C 0.45618 0.13097 0.75278
 C1600 C 0.44641 0.11877 0.74211
 H1601 H 0.36553 0.06222 0.72317
 H1602 H 0.34891 0.03940 0.70632
 H1603 H 0.39291 0.03653 0.66755
 H1604 H 0.40962 0.05938 0.68445
 H1605 H 0.40536 0.12131 0.76368
 H1606 H 0.42233 0.14270 0.78208
 H1607 H 0.47045 0.13330 0.74979
 H1608 H 0.45338 0.11216 0.73106
 C1609 C 0.60878 0.70284 0.06158
 C1610 C 0.59988 0.69100 0.04967
 C1611 C 0.60990 0.68088 0.03722
 C1612 C 0.62895 0.68272 0.03616
 C1613 C 0.63783 0.69459 0.04803
 C1614 C 0.62787 0.70440 0.06075
 C1615 C 0.59821 0.71371 0.07462
 N1616 N 0.60606 0.71980 0.09012
 N1617 N 0.59662 0.72982 0.10173
 C1618 C 0.57900 0.73431 0.09823
 N1619 N 0.57116 0.72824 0.08271
 N1620 N 0.58054 0.71808 0.07118
 C1621 C 0.56869 0.74581 0.11090
 C1622 C 0.55416 0.75645 0.10461
 C1623 C 0.54479 0.76778 0.11646
 C1624 C 0.54951 0.76837 0.13489
 C1625 C 0.56379 0.75751 0.14129
 C1626 C 0.57343 0.74648 0.12936
 H1627 H 0.58519 0.68947 0.05006
 H1628 H 0.60271 0.67187 0.02818
 H1629 H 0.65251 0.69621 0.04755
 H1630 H 0.63508 0.71348 0.06971
 H1631 H 0.55025 0.75626 0.09045
 H1632 H 0.53376 0.77601 0.11129
 H1633 H 0.56768 0.75783 0.15545
 H1634 H 0.58451 0.73837 0.13459
 C1635 C 0.38643 0.29558 0.06311
 C1636 C 0.39142 0.31349 0.05965
 C1637 C 0.38189 0.32371 0.04683
 C1638 C 0.36705 0.31630 0.03734
 C1639 C 0.36187 0.29850 0.04104
 C1640 C 0.37150 0.28823 0.05370
 C1641 C 0.39688 0.28451 0.07621
 N1642 N 0.39470 0.26640 0.07672
 N1643 N 0.40426 0.25638 0.08829
 C1644 C 0.41636 0.26403 0.09991
 N1645 N 0.41850 0.28215 0.09946
 N1646 N 0.40900 0.29217 0.08782
 C1647 C 0.42704 0.25283 0.11272
 C1648 C 0.43661 0.26073 0.12720
 C1649 C 0.44657 0.25011 0.13933
 C1650 C 0.44735 0.23140 0.13711
 C1651 C 0.43791 0.22351 0.12259
 C1652 C 0.42778 0.23409 0.11058
 H1653 H 0.40287 0.31955 0.06663
 H1654 H 0.38620 0.33740 0.04430
 H1655 H 0.35052 0.29238 0.03393
 H1656 H 0.36724 0.27451 0.05610
 H1657 H 0.43630 0.27511 0.12925
 H1658 H 0.45385 0.25654 0.15033
 H1659 H 0.43816 0.20910 0.12067
 H1660 H 0.42061 0.22758 0.09956
 C1661 C 0.60987 0.29753 0.93564
 C1662 C 0.60229 0.31314 0.94320
 C1663 C 0.61176 0.32281 0.95646
 C1664 C 0.62900 0.31706 0.96251
 C1665 C 0.63661 0.30151 0.95488
 C1666 C 0.62719 0.29188 0.94159
 C1667 C 0.59974 0.28703 0.92181
 N1668 N 0.60754 0.27259 0.91374
 N1669 N 0.59838 0.26295 0.90156
 C1670 C 0.58098 0.26731 0.89694
 N1671 N 0.57318 0.28179 0.90497
 N1672 N 0.58237 0.29145 0.91713
 C1673 C 0.57065 0.25623 0.88373
 C1674 C 0.55214 0.25972 0.88010
 C1675 C 0.54228 0.24882 0.86815
 C1676 C 0.55071 0.23421 0.85954
 C1677 C 0.56930 0.23093 0.86292
 C1678 C 0.57914 0.24179 0.87487
 H1679 H 0.58900 0.31789 0.93893
 H1680 H 0.60551 0.33474 0.96206
 H1681 H 0.64987 0.29672 0.95921
 H1682 H 0.63345 0.27992 0.93609
 H1683 H 0.54515 0.27070 0.88670
 H1684 H 0.52793 0.25158 0.86600
 H1685 H 0.57627 0.21996 0.85628
 H1686 H 0.59340 0.23877 0.87723
 C1687 C 0.39065 0.70420 0.93707
 C1688 C 0.39871 0.68960 0.94616
 C1689 C 0.38870 0.67951 0.95868
 C1690 C 0.37046 0.68390 0.96252
 C1691 C 0.36237 0.69841 0.95336
 C1692 C 0.37232 0.70839 0.94072
 C1693 C 0.40133 0.71514 0.92404
 N1694 N 0.39293 0.72732 0.91315
 N1695 N 0.40253 0.73732 0.90160
 C1696 C 0.42094 0.73562 0.90049
 N1697 N 0.42936 0.72344 0.91138
 N1698 N 0.41975 0.71339 0.92289
 C1699 C 0.43160 0.74689 0.88773
 C1700 C 0.45076 0.74755 0.88878
 C1701 C 0.46076 0.75834 0.87685
 C1702 C 0.45183 0.76855 0.86349
 C1703 C 0.43270 0.76783 0.86237
 C1704 C 0.42270 0.75719 0.87440
 H1705 H 0.41278 0.68597 0.94362
 H1706 H 0.39533 0.66843 0.96555
 H1707 H 0.34833 0.70211 0.95598
 H1708 H 0.36569 0.71955 0.93399
 H1709 H 0.45805 0.73982 0.89890
 H1710 H 0.47550 0.75854 0.87791
 H1711 H 0.42546 0.77570 0.85232
 H1712 H 0.40797 0.75699 0.87320
 C1713 C 0.70570 0.93721 0.38800
 C1714 C 0.71191 0.94317 0.37099
 C1715 C 0.70213 0.95607 0.36121
 C1716 C 0.68587 0.96327 0.36817
 C1717 C 0.67957 0.95721 0.38510
 C1718 C 0.68939 0.94436 0.39491
 C1719 C 0.71626 0.92377 0.39854
 N1720 N 0.71108 0.91902 0.41556
 N1721 N 0.72070 0.90713 0.42511
 C1722 C 0.73590 0.89945 0.41804
 N1723 N 0.74105 0.90416 0.40100
 N1724 N 0.73145 0.91607 0.39146
 C1725 C 0.74677 0.88639 0.42875
 C1726 C 0.76187 0.87769 0.42099
 C1727 C 0.77233 0.86563 0.43116
 C1728 C 0.76798 0.86201 0.44935
 C1729 C 0.75280 0.87059 0.45708
 C1730 C 0.74231 0.88262 0.44689
 H1731 H 0.72442 0.93797 0.36525
 H1732 H 0.70734 0.96043 0.34820
 H1733 H 0.66710 0.96249 0.39086
 H1734 H 0.68417 0.94007 0.40794
 H1735 H 0.76565 0.88017 0.40703
 H1736 H 0.78376 0.85903 0.42471
 H1737 H 0.74923 0.86827 0.47112
 H1738 H 0.73081 0.88911 0.45333
 C1739 C 0.29311 0.93797 0.61089
 C1740 C 0.28880 0.94177 0.62904
 C1741 C 0.29918 0.95408 0.63895
 C1742 C 0.31422 0.96275 0.63101
 C1743 C 0.31871 0.95877 0.61294
 C1744 C 0.30821 0.94659 0.60297
 C1745 C 0.28178 0.92526 0.60026
 N1746 N 0.28365 0.92401 0.58199
 N1747 N 0.27330 0.91275 0.57243
 C1748 C 0.26069 0.90220 0.58075
 N1749 N 0.25887 0.90341 0.59902
 N1750 N 0.26916 0.91473 0.60857
 C1751 C 0.24916 0.88966 0.57014
 C1752 C 0.23855 0.87656 0.57895
 C1753 C 0.22776 0.86464 0.56898
 C1754 C 0.22720 0.86567 0.54998
 C1755 C 0.23767 0.87883 0.54114
 C1756 C 0.24861 0.89065 0.55111
 H1757 H 0.27725 0.93540 0.63557
 H1758 H 0.29540 0.95682 0.65286
 H1759 H 0.33019 0.96526 0.60642
 H1760 H 0.31195 0.94392 0.58904
 H1761 H 0.23865 0.87541 0.59358
 H1762 H 0.21969 0.85473 0.57614
 H1763 H 0.23762 0.87981 0.52649
 H1764 H 0.25657 0.90059 0.54389
 C1765 C 0.29597 0.05893 0.39212
 C1766 C 0.28826 0.04970 0.37738
 C1767 C 0.29860 0.03746 0.36744
 C1768 C 0.31687 0.03399 0.37211
 C1769 C 0.32460 0.04318 0.38686
 C1770 C 0.31430 0.05560 0.39670
 C1771 C 0.28492 0.07189 0.40266
 N1772 N 0.29294 0.08343 0.41448
 N1773 N 0.28296 0.09511 0.42387
 C1774 C 0.26453 0.09568 0.42190
 N1775 N 0.25651 0.08410 0.41012
 N1776 N 0.26649 0.07249 0.40067
 C1777 C 0.25339 0.10868 0.43229
 C1778 C 0.23429 0.10690 0.43301
 C1779 C 0.22375 0.11919 0.44273
 C1780 C 0.23204 0.13363 0.45177
 C1781 C 0.25111 0.13545 0.45104
 C1782 C 0.26168 0.12305 0.44150
 H1783 H 0.27421 0.05200 0.37344
 H1784 H 0.29222 0.03056 0.35617
 H1785 H 0.33865 0.04083 0.39077
 H1786 H 0.32065 0.06244 0.40800
 H1787 H 0.22746 0.09597 0.42612
 H1788 H 0.20906 0.11756 0.44293
 H1789 H 0.25785 0.14639 0.45802
 H1790 H 0.27635 0.12483 0.44120
 C1791 C 0.70060 0.06787 0.61045
 C1792 C 0.68514 0.05941 0.60304
 C1793 C 0.67605 0.04589 0.61266
 C1794 C 0.68229 0.04048 0.62985
 C1795 C 0.69771 0.04898 0.63726
 C1796 C 0.70673 0.06253 0.62770
 C1797 C 0.71048 0.08201 0.60021
 N1798 N 0.72452 0.09110 0.60799
 N1799 N 0.73369 0.10352 0.59874
 C1800 C 0.72925 0.10740 0.58129
 N1801 N 0.71516 0.09837 0.57351
 N1802 N 0.70595 0.08595 0.58278
 C1803 C 0.73996 0.12080 0.57087
 C1804 C 0.73672 0.12355 0.55227
 C1805 C 0.74753 0.13551 0.54232
 C1806 C 0.76180 0.14498 0.55075
 C1807 C 0.76471 0.14258 0.56942
 C1808 C 0.75394 0.13063 0.57935
 H1809 H 0.68003 0.06320 0.58980
 H1810 H 0.66421 0.03961 0.60658
 H1811 H 0.70285 0.04517 0.65048
 H1812 H 0.71860 0.06872 0.63382
 H1813 H 0.72607 0.11621 0.54530
 H1814 H 0.74507 0.13695 0.52792
 H1815 H 0.77538 0.14992 0.57638
 H1816 H 0.75673 0.12899 0.59367
 C1817 C 0.93402 0.60786 0.29916
 C1818 C 0.93442 0.62664 0.29741
 C1819 C 0.94747 0.63678 0.30674
 C1820 C 0.96007 0.62836 0.31832
 C1821 C 0.95941 0.60962 0.32038
 C1822 C 0.94664 0.59945 0.31073
 C1823 C 0.92077 0.59706 0.28868
 N1824 N 0.92468 0.57986 0.28403
 N1825 N 0.91299 0.57025 0.27417
 C1826 C 0.89683 0.57739 0.26873
 N1827 N 0.89284 0.59454 0.27352
 N1828 N 0.90462 0.60421 0.28322
 C1829 C 0.88405 0.56685 0.25744
 C1830 C 0.86522 0.57046 0.25774
 C1831 C 0.85321 0.56062 0.24685
 C1832 C 0.85989 0.54732 0.23517
 C1833 C 0.87868 0.54372 0.23483
 C1834 C 0.89063 0.55325 0.24602
 H1835 H 0.92490 0.63346 0.28852
 H1836 H 0.94765 0.65121 0.30495
 H1837 H 0.96902 0.60279 0.32917
 H1838 H 0.94659 0.58500 0.31239
 H1839 H 0.85979 0.58082 0.26647
 H1840 H 0.83876 0.56361 0.24724
 H1841 H 0.88406 0.53346 0.22594
 H1842 H 0.90507 0.55025 0.24546
 C1843 C 0.93906 0.38800 0.70649
 C1844 C 0.94282 0.37000 0.71089
 C1845 C 0.95526 0.36007 0.70067
 C1846 C 0.96411 0.36784 0.68570
 C1847 C 0.96017 0.38575 0.68113
 C1848 C 0.94786 0.39574 0.69146
 C1849 C 0.92621 0.39866 0.71763
 N1850 N 0.92503 0.41675 0.71560
 N1851 N 0.91363 0.42634 0.72576
 C1852 C 0.90288 0.41824 0.73834
 N1853 N 0.90402 0.40014 0.74032
 N1854 N 0.91546 0.39057 0.73022
 C1855 C 0.89019 0.42889 0.74967
 C1856 C 0.87685 0.42030 0.76029
 C1857 C 0.86482 0.43031 0.77090
 C1858 C 0.86595 0.44913 0.77128
 C1859 C 0.87935 0.45774 0.76079
 C1860 C 0.89128 0.44774 0.75003
 H1861 H 0.93631 0.36362 0.72239
 H1862 H 0.95797 0.34629 0.70452
 H1863 H 0.96680 0.39214 0.66970
 H1864 H 0.94523 0.40954 0.68765
 H1865 H 0.87562 0.40581 0.76033
 H1866 H 0.85474 0.42332 0.77899
 H1867 H 0.88042 0.47224 0.76072
 H1868 H 0.90141 0.45479 0.74205
 C1869 C 0.06491 0.60881 0.69938
 C1870 C 0.05715 0.60150 0.68358
 C1871 C 0.04376 0.61093 0.67392
 C1872 C 0.03780 0.62783 0.67990
 C1873 C 0.04562 0.63516 0.69563
 C1874 C 0.05902 0.62579 0.70523
 C1875 C 0.07889 0.59879 0.70987
 N1876 N 0.08697 0.60634 0.72458
 N1877 N 0.09930 0.59732 0.73424
 C1878 C 0.10409 0.58033 0.72962
 N1879 N 0.09606 0.57277 0.71487
 N1880 N 0.08373 0.58182 0.70520
 C1881 C 0.11754 0.57019 0.74068
 C1882 C 0.12164 0.55218 0.73674
 C1883 C 0.13391 0.54254 0.74756
 C1884 C 0.14237 0.55069 0.76255
 C1885 C 0.13847 0.56877 0.76632
 C1886 C 0.12621 0.57839 0.75554
 H1887 H 0.06137 0.58847 0.67867
 H1888 H 0.03800 0.60491 0.66185
 H1889 H 0.04137 0.64817 0.70060
 H1890 H 0.06467 0.63186 0.71733
 H1891 H 0.11519 0.54543 0.72543
 H1892 H 0.13646 0.52858 0.74442
 H1893 H 0.14499 0.57553 0.77759
 H1894 H 0.12349 0.59227 0.75892
 C1895 C 0.06466 0.38991 0.29696
 C1896 C 0.05882 0.37289 0.29112
 C1897 C 0.04593 0.36319 0.30107
 C1898 C 0.03861 0.37024 0.31714
 C1899 C 0.04457 0.38718 0.32310
 C1900 C 0.05742 0.39692 0.31310
 C1901 C 0.07805 0.40032 0.28613
 N1902 N 0.08278 0.41731 0.29092
 N1903 N 0.09457 0.42673 0.28099
 C1904 C 0.10217 0.41957 0.26586
 N1905 N 0.09749 0.40256 0.26112
 N1906 N 0.08569 0.39315 0.27103
 C1907 C 0.11505 0.43013 0.25458
 C1908 C 0.12343 0.42234 0.23939
 C1909 C 0.13522 0.43237 0.22848
 C1910 C 0.13891 0.45045 0.23246
 C1911 C 0.13070 0.45821 0.24776
 C1912 C 0.11891 0.44817 0.25870
 H1913 H 0.06408 0.36706 0.27876
 H1914 H 0.04166 0.35017 0.29612
 H1915 H 0.03919 0.39299 0.33542
 H1916 H 0.06163 0.40997 0.31801
 H1917 H 0.12087 0.40846 0.23586
 H1918 H 0.14156 0.42591 0.21696
 H1919 H 0.13309 0.47217 0.25107
 H1920 H 0.11267 0.45462 0.27027
   
