data_POSCAR
  _audit_creation_date              2014-09-24
  _audit_creation_method            'ToBaCCo'
  _symmetry_space_group_name_H-M    'P1'
  _symmetry_Int_Tables_number       1
  _symmetry_cell_setting            triclinic
  loop_
  _symmetry_equiv_pos_as_xyz
 x,y,z
_cell_length_a 71.9678
_cell_length_b 71.9844
_cell_length_c 72.0671
_cell_angle_alpha 90.189300
_cell_angle_beta 90.057800
_cell_angle_gamma 90.163500
loop_
  _atom_site_label
  _atom_site_type_symbol
  _atom_site_fract_x
  _atom_site_fract_y
  _atom_site_fract_z
N1 N 0.29909 0.43707 0.90049
 N2 N 0.31113 0.45080 0.90134
 C3 C 0.30872 0.46190 0.88656
 C4 C 0.29446 0.45474 0.87575
 C5 C 0.28873 0.43888 0.88503
 H6 H 0.31702 0.47408 0.88369
 H7 H 0.27789 0.42933 0.88089
 Cu8 Cu 0.32910 0.45259 0.92142
 Cu9 Cu 0.29769 0.41805 0.91965
 Cu10 Cu 0.32931 0.42146 0.95599
 N11 N 0.34727 0.45385 0.94136
 N12 N 0.34685 0.44209 0.95525
 C13 C 0.36046 0.44646 0.96735
 C14 C 0.37023 0.46164 0.96054
 C15 C 0.36133 0.46590 0.94399
 H16 H 0.36309 0.43893 0.98001
 H17 H 0.36468 0.47703 0.93455
 N18 N 0.31054 0.40155 0.95417
 N19 N 0.29849 0.40026 0.94040
 C20 C 0.28734 0.38550 0.94336
 C21 C 0.29269 0.37705 0.95972
 C22 C 0.30744 0.38757 0.96617
 H23 H 0.27615 0.38121 0.93429
 H24 H 0.31511 0.38537 0.97886
 H25 H 0.30849 0.43414 0.94087
 H26 H 0.32531 0.41956 0.92758
 N27 N 0.44016 0.84976 0.45091
 N28 N 0.45025 0.85145 0.43584
 C29 C 0.46180 0.86605 0.43782
 C30 C 0.45882 0.87401 0.45516
 C31 C 0.44501 0.86315 0.46308
 H32 H 0.47153 0.87050 0.42732
 H33 H 0.43859 0.86501 0.47648
 Cu34 Cu 0.44735 0.83466 0.41486
 Cu35 Cu 0.42071 0.83109 0.45311
 Cu36 Cu 0.41868 0.79773 0.41854
 N37 N 0.44851 0.81390 0.39759
 N38 N 0.43722 0.79959 0.39898
 C39 C 0.44114 0.78731 0.38544
 C40 C 0.45572 0.79423 0.37500
 C41 C 0.46006 0.81116 0.38314
 H42 H 0.43414 0.77412 0.38356
 H43 H 0.47082 0.82077 0.37894
 N44 N 0.40120 0.79838 0.43956
 N45 N 0.40199 0.81112 0.45273
 C46 C 0.38818 0.80804 0.46494
 C47 C 0.37827 0.79256 0.45923
 C48 C 0.38693 0.78678 0.44308
 H49 H 0.38556 0.81637 0.47716
 H50 H 0.38300 0.77514 0.43442
 H51 H 0.43530 0.81231 0.43696
 H52 H 0.41636 0.82566 0.42518
 N53 N 0.93565 0.89740 0.80225
 N54 N 0.94886 0.89766 0.81485
 C55 C 0.96053 0.88342 0.81163
 C56 C 0.95435 0.87384 0.79610
 C57 C 0.93849 0.88310 0.79055
 H58 H 0.97290 0.88053 0.81962
 H59 H 0.92975 0.87981 0.77877
 Cu60 Cu 0.94979 0.91725 0.83350
 Cu61 Cu 0.91621 0.91611 0.80131
 Cu62 Cu 0.91794 0.95110 0.83451
 N63 N 0.95089 0.93689 0.85210
 N64 N 0.93828 0.95004 0.85237
 C65 C 0.94208 0.96195 0.86626
 C66 C 0.95799 0.95601 0.87533
 C67 C 0.96320 0.94000 0.86589
 H68 H 0.93398 0.97419 0.86931
 H69 H 0.97497 0.93120 0.86882
 N70 N 0.89853 0.94967 0.81524
 N71 N 0.89789 0.93630 0.80268
 C72 C 0.88351 0.93940 0.79118
 C73 C 0.87460 0.95546 0.79675
 C74 C 0.88452 0.96164 0.81204
 H75 H 0.88006 0.93088 0.77930
 H76 H 0.88189 0.97403 0.82010
 H77 H 0.93147 0.93725 0.81341
 H78 H 0.91674 0.92296 0.82918
 N79 N 0.43623 -0.10186 0.30106
 N80 N 0.44857 -0.10203 0.31449
 C81 C 0.46059 -0.11601 0.31147
 C82 C 0.45550 -0.12510 0.29528
 C83 C 0.43994 -0.11572 0.28906
 H84 H 0.47242 -0.11907 0.32018
 H85 H 0.43196 -0.11863 0.27667
 Cu86 Cu 0.44836 -0.08377 0.33443
 Cu87 Cu 0.41673 -0.08332 0.29973
 Cu88 Cu 0.41773 -0.04835 0.33268
 N89 N 0.44979 -0.06275 0.35140
 N90 N 0.43778 -0.04906 0.35072
 C91 C 0.44205 -0.03649 0.36390
 C92 C 0.45760 -0.04258 0.37339
 C93 C 0.46215 -0.05931 0.36504
 H94 H 0.43452 -0.02373 0.36627
 H95 H 0.47356 -0.06836 0.36865
 N96 N 0.39853 -0.04999 0.31329
 N97 N 0.39820 -0.06332 0.30070
 C98 C 0.38397 -0.06028 0.28898
 C99 C 0.37486 -0.04428 0.29444
 C100 C 0.38448 -0.03814 0.30994
 H101 H 0.38075 -0.06883 0.27704
 H102 H 0.38164 -0.02582 0.31804
 H103 H 0.43253 -0.06316 0.31289
 H104 H 0.41588 -0.07664 0.32762
 N105 N 0.79853 0.31186 0.34947
 N106 N 0.81160 0.29915 0.34928
 C107 C 0.80870 0.28732 0.36346
 C108 C 0.79297 0.29298 0.37302
 C109 C 0.78694 0.30860 0.36371
 H110 H 0.81729 0.27541 0.36650
 H111 H 0.77471 0.31672 0.36676
 Cu112 Cu 0.83069 0.29919 0.33011
 Cu113 Cu 0.79673 0.33110 0.33073
 Cu114 Cu 0.82964 0.33077 0.29570
 N115 N 0.84954 0.29964 0.31073
 N116 N 0.84884 0.31181 0.29720
 C117 C 0.86367 0.30949 0.28609
 C118 C 0.87435 0.29511 0.29302
 C119 C 0.86491 0.28920 0.30869
 H120 H 0.86669 0.31804 0.27416
 H121 H 0.86924 0.27849 0.31822
 N122 N 0.80918 0.34891 0.29681
 N123 N 0.79707 0.34936 0.31052
 C124 C 0.78531 0.36359 0.30781
 C125 C 0.79015 0.37258 0.29155
 C126 C 0.80532 0.36279 0.28492
 H127 H 0.77392 0.36700 0.31693
 H128 H 0.81307 0.36558 0.27242
 H129 H 0.80953 0.31605 0.30983
 H130 H 0.82471 0.33189 0.32383
 N131 N -0.18995 0.84974 0.79855
 N132 N -0.20039 0.85119 0.81343
 C133 C -0.21194 0.86570 0.81149
 C134 C -0.20870 0.87388 0.79439
 C135 C -0.19469 0.86321 0.78650
 H136 H -0.22190 0.86991 0.82187
 H137 H -0.18793 0.86544 0.77333
 Cu138 Cu -0.19800 0.83454 0.83444
 Cu139 Cu -0.16996 0.83146 0.79680
 Cu140 Cu -0.17052 0.79707 0.82978
 N141 N -0.19921 0.81381 0.85162
 N142 N -0.18834 0.79927 0.84995
 C143 C -0.19243 0.78705 0.86344
 C144 C -0.20669 0.79429 0.87411
 C145 C -0.21067 0.81130 0.86616
 H146 H -0.18590 0.77364 0.86507
 H147 H -0.22123 0.82106 0.87047
 N148 N -0.15130 0.79838 0.81043
 N149 N -0.15105 0.81160 0.79779
 C150 C -0.13632 0.80893 0.78657
 C151 C -0.12686 0.79322 0.79237
 C152 C -0.13678 0.78695 0.80759
 H153 H -0.13282 0.81766 0.77491
 H154 H -0.13359 0.77502 0.81606
 H155 H -0.18640 0.81359 0.81106
 H156 H -0.16726 0.82559 0.82437
 N157 N 0.95591 0.34698 0.44117
 N158 N 0.94261 0.34733 0.45363
 C159 C 0.94467 0.36263 0.46426
 C160 C 0.96021 0.37238 0.45823
 C161 C 0.96697 0.36192 0.44350
 H162 H 0.93580 0.36609 0.47584
 H163 H 0.97906 0.36477 0.43509
 Cu164 Cu 0.92438 0.32732 0.45557
 Cu165 Cu 0.95841 0.32680 0.42340
 Cu166 Cu 0.92098 0.29663 0.42024
 N167 N 0.90416 0.30926 0.45406
 N168 N 0.90285 0.29752 0.44013
 C169 C 0.88734 0.28726 0.44206
 C170 C 0.87831 0.29282 0.45808
 C171 C 0.88943 0.30686 0.46535
 H172 H 0.88269 0.27687 0.43224
 H173 H 0.88679 0.31504 0.47766
 N174 N 0.94081 0.29767 0.40157
 N175 N 0.95519 0.30899 0.40285
 C176 C 0.96594 0.30683 0.38770
 C177 C 0.95796 0.29343 0.37636
 C178 C 0.94207 0.28792 0.38566
 H179 H 0.97829 0.31489 0.38483
 H180 H 0.93194 0.27782 0.38104
 H181 H 0.93001 0.32409 0.42245
 H182 H 0.94262 0.30604 0.43608
 N183 N 0.44724 0.43565 0.85228
 N184 N 0.43412 0.44827 0.85172
 C185 C 0.43768 0.46141 0.86456
 C186 C 0.45392 0.45674 0.87369
 C187 C 0.45961 0.44027 0.86552
 H188 H 0.42912 0.47350 0.86701
 H189 H 0.47170 0.43212 0.86903
 Cu190 Cu 0.41347 0.44618 0.83457
 Cu191 Cu 0.44686 0.41393 0.83617
 Cu192 Cu 0.41755 0.41727 0.79801
 N193 N 0.39719 0.44799 0.81327
 N194 N 0.39885 0.43691 0.79885
 C195 C 0.38569 0.44126 0.78628
 C196 C 0.37524 0.45589 0.79324
 C197 C 0.38307 0.45980 0.81037
 H198 H 0.38380 0.43419 0.77317
 H199 H 0.37891 0.47052 0.82001
 N200 N 0.43720 0.39822 0.80018
 N201 N 0.44800 0.39677 0.81492
 C202 C 0.45978 0.38250 0.81244
 C203 C 0.45624 0.37447 0.79534
 C204 C 0.44183 0.38482 0.78793
 H205 H 0.47044 0.37849 0.82221
 H206 H 0.43517 0.38270 0.77464
 H207 H 0.43647 0.43041 0.81563
 H208 H 0.41969 0.41368 0.82607
 N209 N 0.79757 0.90008 0.93953
 N210 N 0.81034 0.90015 0.95258
 C211 C 0.80717 0.88580 0.96415
 C212 C 0.79156 0.87628 0.95799
 C213 C 0.78589 0.88576 0.94232
 H214 H 0.81558 0.88252 0.97613
 H215 H 0.77392 0.88266 0.93378
 Cu216 Cu 0.82971 0.91912 0.95319
 Cu217 Cu 0.79653 0.91882 0.92023
 Cu218 Cu 0.83131 0.95209 0.92002
 N219 N 0.84958 0.93752 0.95228
 N220 N 0.85011 0.95032 0.93933
 C221 C 0.86546 0.96079 0.94163
 C222 C 0.87516 0.95420 0.95682
 C223 C 0.86465 0.93940 0.96323
 H224 H 0.86956 0.97202 0.93258
 H225 H 0.86788 0.93047 0.97481
 N226 N 0.81100 0.95153 0.90169
 N227 N 0.79771 0.93887 0.90180
 C228 C 0.78581 0.94233 0.88780
 C229 C 0.79192 0.95789 0.87838
 C230 C 0.80793 0.96334 0.88758
 H231 H 0.77362 0.93410 0.88468
 H232 H 0.81657 0.97520 0.88436
 H233 H 0.82490 0.92417 0.92011
 H234 H 0.81016 0.93972 0.93477
 N235 N 0.29606 0.84733 0.30899
 N236 N 0.30819 0.84666 0.29539
 C237 C 0.30586 0.86161 0.28443
 C238 C 0.29158 0.87225 0.29163
 C239 C 0.28569 0.86273 0.30721
 H240 H 0.31435 0.86487 0.27252
 H241 H 0.27480 0.86679 0.31670
 Cu242 Cu 0.32674 0.82709 0.29397
 Cu243 Cu 0.29499 0.82863 0.32834
 Cu244 Cu 0.32812 0.79393 0.32701
 N245 N 0.34610 0.80828 0.29454
 N246 N 0.34636 0.79514 0.30716
 C247 C 0.36153 0.78453 0.30461
 C248 C 0.37142 0.79149 0.28970
 C249 C 0.36119 0.80656 0.28365
 H250 H 0.36552 0.77316 0.31349
 H251 H 0.36467 0.81582 0.27239
 N252 N 0.30855 0.79514 0.34607
 N253 N 0.29604 0.80848 0.34668
 C254 C 0.28557 0.80632 0.36201
 C255 C 0.29180 0.79091 0.37158
 C256 C 0.30637 0.78415 0.36100
 H257 H 0.27476 0.81576 0.36637
 H258 H 0.31520 0.77250 0.36427
 H259 H 0.32304 0.82221 0.32724
 H260 H 0.30692 0.80737 0.31317
 N261 N 0.79385 0.40371 0.44201
 N262 N 0.80740 0.40327 0.45423
 C263 C 0.80520 0.38824 0.46510
 C264 C 0.78936 0.37880 0.45946
 C265 C 0.78252 0.38911 0.44476
 H266 H 0.81485 0.38403 0.47577
 H267 H 0.77075 0.38576 0.43604
 Cu268 Cu 0.82727 0.42164 0.45367
 Cu269 Cu 0.79300 0.42183 0.42201
 Cu270 Cu 0.82822 0.45479 0.42109
 N271 N 0.84695 0.44021 0.45315
 N272 N 0.84706 0.45324 0.44042
 C273 C 0.86249 0.46363 0.44237
 C274 C 0.87270 0.45676 0.45710
 C275 C 0.86237 0.44189 0.46365
 H276 H 0.86626 0.47496 0.43330
 H277 H 0.86624 0.43254 0.47470
 N278 N 0.80793 0.45397 0.40273
 N279 N 0.79464 0.44132 0.40293
 C280 C 0.78399 0.44340 0.38770
 C281 C 0.79088 0.45809 0.37741
 C282 C 0.80603 0.46448 0.38744
 H283 H 0.77260 0.43435 0.38390
 H284 H 0.81551 0.47543 0.38351
 H285 H 0.82129 0.42686 0.42081
 H286 H 0.80724 0.44237 0.43611
 N287 N 0.93430 0.85262 -0.05250
 N288 N 0.94687 0.85253 -0.06571
 C289 C 0.95929 0.86616 -0.06239
 C290 C 0.95427 0.87530 -0.04624
 C291 C 0.93828 0.86633 -0.04037
 H292 H 0.97143 0.86889 -0.07079
 H293 H 0.93026 0.86935 -0.02805
 Cu294 Cu 0.94660 0.83420 -0.08559
 Cu295 Cu 0.91451 0.83419 -0.05132
 Cu296 Cu 0.91458 0.79988 -0.08501
 N297 N 0.94682 0.81402 -0.10361
 N298 N 0.93417 0.80084 -0.10343
 C299 C 0.93776 0.78863 -0.11711
 C300 C 0.95357 0.79440 -0.12636
 C301 C 0.95898 0.81058 -0.11740
 H302 H 0.92970 0.77623 -0.11987
 H303 H 0.97090 0.81915 -0.12060
 N304 N 0.89583 0.80107 -0.06526
 N305 N 0.89574 0.81423 -0.05248
 C306 C 0.88179 0.81086 -0.04052
 C307 C 0.87269 0.79478 -0.04596
 C308 C 0.88198 0.78896 -0.06173
 H309 H 0.87881 0.81914 -0.02836
 H310 H 0.87905 0.77666 -0.06988
 H311 H 0.92971 0.81383 -0.06445
 H312 H 0.91384 0.82816 -0.07913
 N313 N 0.30093 0.35305 0.81425
 N314 N 0.31435 0.35306 0.80189
 C315 C 0.31163 0.36715 0.78996
 C316 C 0.29562 0.37645 0.79507
 C317 C 0.28920 0.36711 0.81058
 H318 H 0.32034 0.37017 0.77813
 H319 H 0.27686 0.37018 0.81855
 Cu320 Cu 0.33361 0.33416 0.80221
 Cu321 Cu 0.29929 0.33443 0.83377
 Cu322 Cu 0.33369 0.30072 0.83458
 N323 N 0.35300 0.31542 0.80301
 N324 N 0.35290 0.30233 0.81567
 C325 C 0.36785 0.29141 0.81330
 C326 C 0.37790 0.29798 0.79833
 C327 C 0.36805 0.31326 0.79214
 H328 H 0.37138 0.27980 0.82210
 H329 H 0.37163 0.32221 0.78067
 N330 N 0.31311 0.30147 0.85253
 N331 N 0.30012 0.31438 0.85235
 C332 C 0.28797 0.31094 0.86613
 C333 C 0.29355 0.29510 0.87539
 C334 C 0.30954 0.28948 0.86639
 H335 H 0.27571 0.31909 0.86900
 H336 H 0.31793 0.27750 0.86965
 H337 H 0.32734 0.32871 0.83495
 H338 H 0.31292 0.31363 0.81944
 N339 N 0.15338 0.56016 0.54589
 N340 N 0.15292 0.54781 0.55926
 C341 C 0.13762 0.53716 0.55718
 C342 C 0.12802 0.54316 0.54163
 C343 C 0.13851 0.55777 0.53483
 H344 H 0.13340 0.52633 0.56663
 H345 H 0.13532 0.56646 0.52307
 Cu346 Cu 0.17180 0.54770 0.57863
 Cu347 Cu 0.17227 0.57946 0.54457
 Cu348 Cu 0.20603 0.57967 0.57885
 N349 N 0.19090 0.54795 0.59779
 N350 N 0.20432 0.56037 0.59760
 C351 C 0.21519 0.55796 0.61257
 C352 C 0.20821 0.54329 0.62283
 C353 C 0.19276 0.53726 0.61299
 H354 H 0.22697 0.56667 0.61598
 H355 H 0.18324 0.52635 0.61696
 N356 N 0.20533 0.59803 0.55865
 N357 N 0.19248 0.59788 0.54559
 C358 C 0.19547 0.61225 0.53406
 C359 C 0.21094 0.62196 0.54014
 C360 C 0.21685 0.61252 0.55577
 H361 H 0.18702 0.61546 0.52211
 H362 H 0.22850 0.61611 0.56455
 H363 H 0.19273 0.56478 0.55824
 H364 H 0.17799 0.58046 0.57272
 N365 N 0.59369 0.69296 0.04294
 N366 N 0.59283 0.70673 0.05492
 C367 C 0.60809 0.71744 0.05307
 C368 C 0.61907 0.70995 0.03914
 C369 C 0.60943 0.69447 0.03301
 H370 H 0.61118 0.72942 0.06162
 H371 H 0.61400 0.68449 0.02276
 Cu372 Cu 0.57249 0.70870 0.07261
 Cu373 Cu 0.57558 0.67295 0.04241
 Cu374 Cu 0.54277 0.67281 0.07739
 N375 N 0.55556 0.70706 0.09360
 N376 N 0.54409 0.69295 0.09538
 C377 C 0.53468 0.69472 0.11139
 C378 C 0.54047 0.71085 0.12021
 C379 C 0.55379 0.71834 0.10846
 H380 H 0.52480 0.68466 0.11650
 H381 H 0.56201 0.73072 0.11076
 N382 N 0.54370 0.65371 0.05782
 N383 N 0.55612 0.65389 0.04438
 C384 C 0.55400 0.63851 0.03394
 C385 C 0.53958 0.62809 0.04116
 C386 C 0.53333 0.63819 0.05628
 H387 H 0.56290 0.63467 0.02249
 H388 H 0.52247 0.63424 0.06584
 H389 H 0.55365 0.68672 0.05480
 H390 H 0.57064 0.67505 0.07059
 N391 N 0.68996 0.20036 0.65009
 N392 N 0.70307 0.18771 0.65054
 C393 C 0.71390 0.18961 0.63543
 C394 C 0.70717 0.20422 0.62490
 C395 C 0.69194 0.21066 0.63468
 H396 H 0.72549 0.18070 0.63212
 H397 H 0.68263 0.22168 0.63065
 Cu398 Cu 0.70398 0.16937 0.67031
 Cu399 Cu 0.67075 0.20203 0.66896
 Cu400 Cu 0.67200 0.16959 0.70433
 N401 N 0.70454 0.15121 0.69026
 N402 N 0.69205 0.15153 0.70355
 C403 C 0.69541 0.13757 0.71541
 C404 C 0.71078 0.12784 0.70923
 C405 C 0.71625 0.13695 0.69322
 H406 H 0.68724 0.13470 0.72764
 H407 H 0.72774 0.13332 0.68429
 N408 N 0.65285 0.18901 0.70267
 N409 N 0.65253 0.20148 0.68930
 C410 C 0.63748 0.21231 0.69149
 C411 C 0.62776 0.20637 0.70694
 C412 C 0.63794 0.19156 0.71367
 H413 H 0.63359 0.22332 0.68213
 H414 H 0.63436 0.18285 0.72532
 H415 H 0.68600 0.19009 0.69013
 H416 H 0.67096 0.17418 0.67610
 N417 N 1.09658 0.05814 0.20622
 N418 N 1.09604 0.04468 0.19388
 C419 C 1.11057 0.03329 0.19671
 C420 C 1.12078 0.03997 0.21162
 C421 C 1.11144 0.05577 0.21732
 H422 H 1.11348 0.02100 0.18858
 H423 H 1.11523 0.06500 0.22857
 Cu424 Cu 1.07664 0.04335 0.17505
 Cu425 Cu 1.07821 0.07783 0.20678
 Cu426 Cu 1.04464 0.07749 0.17239
 N427 N 1.05810 0.04403 0.15537
 N428 N 1.04572 0.05737 0.15434
 C429 C 1.03542 0.05495 0.13892
 C430 C 1.04165 0.03925 0.12971
 C431 C 1.05607 0.03267 0.14061
 H432 H 1.02467 0.06435 0.13437
 H433 H 1.06484 0.02086 0.13773
 N434 N 1.04580 0.09665 0.19195
 N435 N 1.05851 0.09662 0.20514
 C436 C 1.05620 0.11172 0.21592
 C437 C 1.04137 0.12188 0.20918
 C438 C 1.03510 0.11186 0.19396
 H439 H 1.06507 0.11534 0.22748
 H440 H 1.02401 0.11574 0.18465
 H441 H 1.05682 0.06328 0.19400
 H442 H 1.07268 0.07680 0.17852
 N443 N 0.06124 0.15041 1.04694
 N444 N 0.04873 0.15037 1.06022
 C445 C 0.03701 0.13601 1.05749
 C446 C 0.04246 0.12650 1.04168
 C447 C 0.05792 0.13607 1.03536
 H448 H 0.02519 0.13285 1.06617
 H449 H 0.06614 0.13292 1.02322
 Cu450 Cu 0.04868 0.16924 1.07963
 Cu451 Cu 0.08066 0.16921 1.04544
 Cu452 Cu 0.07996 0.20409 1.07859
 N453 N 0.04832 0.18933 1.09778
 N454 N 0.06032 0.20308 1.09698
 C455 C 0.05734 0.21478 1.11123
 C456 C 0.04270 0.20800 1.12169
 C457 C 0.03733 0.19179 1.11271
 H458 H 0.06573 0.22691 1.11413
 H459 H 0.02660 0.18222 1.11701
 N460 N 0.09880 0.20277 1.05894
 N461 N 0.09910 0.18948 1.04630
 C462 C 0.11370 0.19229 1.03499
 C463 C 0.12311 0.20806 1.04084
 C464 C 0.11324 0.21433 1.05606
 H465 H 0.11724 0.18352 1.02334
 H466 H 0.11645 0.22630 1.06457
 H467 H 0.08135 0.17580 1.07334
 H468 H 0.06530 0.18962 1.05838
 N469 N 0.15173 0.70407 0.69083
 N470 N 0.15251 0.69205 0.70449
 C471 C 0.13839 0.69534 0.71630
 C472 C 0.12823 0.71026 0.70971
 C473 C 0.13718 0.71544 0.69352
 H474 H 0.13566 0.68742 0.72872
 H475 H 0.13347 0.72674 0.68442
 Cu476 Cu 0.17187 0.67325 0.70553
 Cu477 Cu 0.16952 0.70409 0.67053
 Cu478 Cu 0.20356 0.67022 0.67123
 N479 N 0.19069 0.65389 0.70521
 N480 N 0.20297 0.65277 0.69178
 C481 C 0.21354 0.63762 0.69438
 C482 C 0.20762 0.62870 0.71033
 C483 C 0.19307 0.63947 0.71684
 H484 H 0.22423 0.63301 0.68493
 H485 H 0.18443 0.63670 0.72876
 N486 N 0.20185 0.68913 0.65162
 N487 N 0.18876 0.70191 0.65122
 C488 C 0.19080 0.71216 0.63575
 C489 C 0.20595 0.70558 0.62592
 C490 C 0.21261 0.69097 0.63645
 H491 H 0.18166 0.72331 0.63170
 H492 H 0.22419 0.68206 0.63314
 H493 H 0.17543 0.67597 0.67200
 H494 H 0.19117 0.69209 0.68502
 N495 N 1.18789 0.14952 0.20121
 N496 N 1.20052 0.14919 0.18807
 C497 C 1.21240 0.13514 0.19138
 C498 C 1.20684 0.12616 0.20743
 C499 C 1.19123 0.13570 0.21326
 H500 H 1.22422 0.13174 0.18279
 H501 H 1.18313 0.13301 0.22559
 Cu502 Cu 1.20053 0.16745 0.16817
 Cu503 Cu 1.16846 0.16819 0.20224
 Cu504 Cu 1.16870 0.20171 0.16791
 N505 N 1.20077 0.18690 0.14943
 N506 N 1.18824 0.20014 0.14936
 C507 C 1.19177 0.21181 0.13524
 C508 C 1.20741 0.20561 0.12592
 C509 C 1.21274 0.18975 0.13536
 H510 H 1.18361 0.22398 0.13211
 H511 H 1.22465 0.18114 0.13239
 N512 N 1.15006 0.20099 0.18788
 N513 N 1.14996 0.18821 0.20096
 C514 C 1.13593 0.19176 0.21281
 C515 C 1.12674 0.20754 0.20691
 C516 C 1.13610 0.21299 0.19107
 H517 H 1.13274 0.18353 0.22491
 H518 H 1.13319 0.22508 0.18271
 H519 H 1.16774 0.17373 0.17415
 H520 H 1.18357 0.18848 0.18860
 N521 N 0.65393 1.04569 0.55999
 N522 N 0.65528 1.05729 0.54602
 C523 C 0.64011 1.05551 0.53518
 C524 C 0.62864 1.04203 0.54279
 C525 C 0.63794 1.03611 0.55851
 H526 H 0.63732 1.06388 0.52307
 H527 H 0.63323 1.02600 0.56851
 Cu528 Cu 0.67621 1.07431 0.54388
 Cu529 Cu 0.67204 1.04492 0.57998
 Cu530 Cu 0.70599 1.07896 0.57974
 N531 N 0.69369 1.09493 0.54538
 N532 N 0.70515 1.09674 0.55947
 C533 C 0.71495 1.11254 0.55751
 C534 C 0.70942 1.12116 0.54127
 C535 C 0.69585 1.10952 0.53393
 H536 H 0.72495 1.11765 0.56750
 H537 H 0.68772 1.11173 0.52152
 N538 N 0.70452 1.05962 0.59898
 N539 N 0.69161 1.04658 0.59899
 C540 C 0.69362 1.03610 0.61430
 C541 C 0.70850 1.04287 0.62447
 C542 C 0.71510 1.05778 0.61428
 H543 H 0.68447 1.02485 0.61819
 H544 H 0.72645 1.06693 0.61797
 H545 H 0.67794 1.07293 0.57752
 H546 H 0.69442 1.05640 0.56610
 N547 N 0.56419 0.55157 0.14578
 N548 N 0.55114 0.56431 0.14589
 C549 C 0.53912 0.56074 0.13195
 C550 C 0.54502 0.54495 0.12261
 C551 C 0.56100 0.53957 0.13179
 H552 H 0.52691 0.56891 0.12895
 H553 H 0.56937 0.52748 0.12884
 Cu554 Cu 0.55085 0.58398 0.16460
 Cu555 Cu 0.58370 0.55068 0.16442
 Cu556 Cu 0.58287 0.58425 0.19883
 N557 N 0.55038 0.60240 0.18453
 N558 N 0.56299 0.60238 0.19772
 C559 C 0.55936 0.61614 0.20981
 C560 C 0.54360 0.62539 0.20397
 C561 C 0.53823 0.61626 0.18785
 H562 H 0.56739 0.61897 0.22218
 H563 H 0.52634 0.61939 0.17925
 N564 N 0.60190 0.56474 0.19764
 N565 N 0.60224 0.55198 0.18447
 C566 C 0.61636 0.54023 0.18781
 C567 C 0.62534 0.54583 0.20388
 C568 C 0.61580 0.56144 0.20971
 H569 H 0.61954 0.52814 0.17950
 H570 H 0.61858 0.56964 0.22200
 H571 H 0.56834 0.56356 0.18508
 H572 H 0.58379 0.57873 0.17076
 N573 N 0.65135 0.68853 0.20283
 N574 N 0.65031 0.70024 0.18892
 C575 C 0.63553 0.71138 0.19149
 C576 C 0.62680 0.70636 0.20786
 C577 C 0.63727 0.69177 0.21467
 H578 H 0.63164 0.72256 0.18232
 H579 H 0.63504 0.68422 0.22742
 Cu580 Cu 0.66862 0.70005 0.16904
 Cu581 Cu 0.67157 0.67081 0.20510
 Cu582 Cu 0.70245 0.66787 0.16841
 N583 N 0.68717 0.69940 0.14942
 N584 N 0.70032 0.68678 0.14933
 C585 C 0.71090 0.68899 0.13414
 C586 C 0.70402 0.70378 0.12403
 C587 C 0.68892 0.71004 0.13417
 H588 H 0.72253 0.68021 0.13060
 H589 H 0.67962 0.72118 0.13044
 N590 N 0.70231 0.65016 0.18915
 N591 N 0.69053 0.65125 0.20312
 C592 C 0.69395 0.63728 0.21500
 C593 C 0.70865 0.62695 0.20823
 C594 C 0.71361 0.63553 0.19182
 H595 H 0.68645 0.63491 0.22776
 H596 H 0.72459 0.63139 0.18248
 H597 H 0.69126 0.68427 0.18863
 H598 H 0.67489 0.66785 0.17680
 N599 N 0.15572 0.05637 1.04329
 N600 N 0.15542 0.04414 1.05679
 C601 C 0.14076 0.03274 1.05436
 C602 C 0.13131 0.03814 1.03852
 C603 C 0.14126 0.05319 1.03185
 H604 H 0.13718 0.02137 1.06344
 H605 H 0.13810 0.06143 1.01975
 Cu606 Cu 0.17394 0.04470 1.07645
 Cu607 Cu 0.17443 0.07588 1.04187
 Cu608 Cu 0.20789 0.07681 1.07654
 N609 N 0.19288 0.04517 1.09571
 N610 N 0.20624 0.05765 1.09551
 C611 C 0.21685 0.05558 1.11073
 C612 C 0.20974 0.04104 1.12113
 C613 C 0.19452 0.03477 1.11112
 H614 H 0.22847 0.06447 1.11424
 H615 H 0.18492 0.02396 1.11518
 N616 N 0.20716 0.09497 1.05613
 N617 N 0.19450 0.09451 1.04289
 C618 C 0.19683 0.10937 1.03184
 C619 C 0.21162 0.11980 1.03847
 C620 C 0.21784 0.11020 1.05388
 H621 H 0.18787 0.11278 1.02033
 H622 H 0.22872 0.11452 1.06330
 H623 H 0.19484 0.06160 1.05595
 H624 H 0.17987 0.07742 1.07002
 N625 N 0.60102 0.20100 0.56280
 N626 N 0.60113 0.18741 0.55058
 C627 C 0.61529 0.19006 0.53869
 C628 C 0.62461 0.20615 0.54369
 C629 C 0.61514 0.21274 0.55910
 H630 H 0.61840 0.18114 0.52702
 H631 H 0.61819 0.22517 0.56699
 Cu632 Cu 0.58258 0.16773 0.55092
 Cu633 Cu 0.58226 0.20268 0.58222
 Cu634 Cu 0.54825 0.16850 0.58256
 N635 N 0.56283 0.14923 0.55100
 N636 N 0.54955 0.14951 0.56347
 C637 C 0.53766 0.13542 0.56014
 C638 C 0.54379 0.12578 0.54469
 C639 C 0.55980 0.13498 0.53925
 H640 H 0.52539 0.13255 0.56829
 H641 H 0.56840 0.13173 0.52740
 N642 N 0.54918 0.18883 0.60075
 N643 N 0.56207 0.20190 0.60070
 C644 C 0.55858 0.21393 0.61465
 C645 C 0.54274 0.20810 0.62387
 C646 C 0.53720 0.19217 0.61466
 H647 H 0.56693 0.22603 0.61782
 H648 H 0.52510 0.18380 0.61770
 H649 H 0.57639 0.17466 0.58348
 H650 H 0.56188 0.18884 0.56736
 N651 N 0.09469 0.55648 0.70662
 N652 N 0.09592 0.54510 0.69239
 C653 C 0.11127 0.53459 0.69436
 C654 C 0.12017 0.53971 0.71067
 C655 C 0.10915 0.55361 0.71809
 H656 H 0.11602 0.52449 0.68432
 H657 H 0.11181 0.56164 0.73051
 Cu658 Cu 0.07807 0.54582 0.67203
 Cu659 Cu 0.07578 0.57564 0.70824
 Cu660 Cu 0.04235 0.57606 0.67388
 N661 N 0.05806 0.54544 0.65376
 N662 N 0.04400 0.55700 0.65482
 C663 C 0.03269 0.55426 0.64020
 C664 C 0.04003 0.54027 0.62923
 C665 C 0.05615 0.53497 0.63833
 H666 H 0.02042 0.56241 0.63742
 H667 H 0.06606 0.52469 0.63374
 N668 N 0.04295 0.59432 0.69424
 N669 N 0.05562 0.59405 0.70747
 C670 C 0.05341 0.60911 0.71836
 C671 C 0.03873 0.61951 0.71159
 C672 C 0.03238 0.60960 0.69634
 H673 H 0.06245 0.61272 0.72979
 H674 H 0.02156 0.61378 0.68684
 H675 H 0.05632 0.56028 0.69353
 H676 H 0.07029 0.57774 0.68030
 N677 N 0.64739 0.54912 0.06272
 N678 N 0.64752 0.56211 0.04995
 C679 C 0.63351 0.55891 0.03796
 C680 C 0.62409 0.54307 0.04348
 C681 C 0.63331 0.53722 0.05927
 H682 H 0.63061 0.56723 0.02586
 H683 H 0.63013 0.52515 0.06760
 Cu684 Cu 0.66649 0.58147 0.04984
 Cu685 Cu 0.66588 0.54826 0.08249
 Cu686 Cu 0.69968 0.58273 0.08254
 N687 N 0.68555 0.60074 0.04992
 N688 N 0.69853 0.60112 0.06276
 C689 C 0.71028 0.61528 0.05932
 C690 C 0.70439 0.62432 0.04344
 C691 C 0.68863 0.61469 0.03788
 H692 H 0.72233 0.61861 0.06768
 H693 H 0.68030 0.61739 0.02571
 N694 N 0.69855 0.56293 0.10138
 N695 N 0.68574 0.54977 0.10134
 C696 C 0.68913 0.53801 0.11545
 C697 C 0.70484 0.54404 0.12483
 C698 C 0.71038 0.55990 0.11553
 H699 H 0.68088 0.52585 0.11856
 H700 H 0.72246 0.56832 0.11858
 H701 H 0.67170 0.57637 0.08288
 H702 H 0.68683 0.56151 0.06804
 N703 N 0.05930 0.70421 0.59616
 N704 N 0.04762 0.69022 0.59735
 C705 C 0.03689 0.69257 0.61247
 C706 C 0.04210 0.70895 0.62125
 C707 C 0.05637 0.71595 0.61042
 H708 H 0.02655 0.68274 0.61713
 H709 H 0.06465 0.72821 0.61314
 Cu710 Cu 0.04813 0.66959 0.57980
 Cu711 Cu 0.07888 0.70495 0.57763
 Cu712 Cu 0.07898 0.67021 0.54440
 N713 N 0.04716 0.65159 0.55960
 N714 N 0.05913 0.65188 0.54584
 C715 C 0.05521 0.63787 0.53403
 C716 C 0.03994 0.62825 0.54073
 C717 C 0.03520 0.63741 0.55697
 H718 H 0.06301 0.63485 0.52158
 H719 H 0.02379 0.63408 0.56612
 N720 N 0.09790 0.69003 0.54532
 N721 N 0.09770 0.70338 0.55791
 C722 C 0.11290 0.71407 0.55575
 C723 C 0.12325 0.70714 0.54112
 C724 C 0.11325 0.69193 0.53479
 H725 H 0.11651 0.72565 0.56463
 H726 H 0.11734 0.68244 0.52389
 H727 H 0.06362 0.69021 0.55800
 H728 H 0.08049 0.67664 0.57233
 N729 N 0.56292 1.05031 0.64809
 N730 N 0.55040 1.06355 0.64761
 C731 C 0.53888 1.06045 0.63317
 C732 C 0.54443 1.04435 0.62409
 C733 C 0.55977 1.03832 0.63405
 H734 H 0.52702 1.06899 0.62987
 H735 H 0.56807 1.02612 0.63141
 Cu736 Cu 0.54968 1.08318 0.66632
 Cu737 Cu 0.58214 1.04937 0.66706
 Cu738 Cu 0.58024 1.08246 0.70187
 N739 N 0.54846 1.10109 0.68668
 N740 N 0.56039 1.10063 0.70047
 C741 C 0.55645 1.11435 0.71253
 C742 C 0.54116 1.12407 0.70605
 C743 C 0.53642 1.11513 0.68957
 H744 H 0.56403 1.11685 0.72523
 H745 H 0.52514 1.11859 0.68031
 N746 N 0.59939 1.06302 0.70094
 N747 N 0.60036 1.05065 0.68745
 C748 C 0.61554 1.04006 0.69006
 C749 C 0.62453 1.04595 0.70605
 C750 C 0.61385 1.06056 0.71255
 H751 H 0.61996 1.02917 0.68074
 H752 H 0.61673 1.06921 0.72448
 H753 H 0.56605 1.06217 0.68712
 H754 H 0.58230 1.07735 0.67370
 N755 N 0.45109 0.34836 0.93798
 N756 N 0.43472 0.35295 0.94462
 C757 C 0.43599 0.36949 0.95320
 C758 C 0.45429 0.37549 0.95235
 C759 C 0.46354 0.36160 0.94265
 H760 H 0.42462 0.37619 0.96035
 H761 H 0.47810 0.36121 0.93898
 Cu762 Cu 0.41375 0.33600 0.94361
 Cu763 Cu 0.45459 0.32565 0.92357
 Cu764 Cu 0.41429 0.30146 0.91268
 N765 N 0.39653 0.31525 0.94543
 N766 N 0.39668 0.30179 0.93308
 C767 C 0.38344 0.28933 0.93731
 C768 C 0.37451 0.29522 0.95327
 C769 C 0.38323 0.31176 0.95807
 H770 H 0.38082 0.27672 0.92952
 H771 H 0.38022 0.32060 0.96984
 N772 N 0.43752 0.29823 0.89905
 N773 N 0.45305 0.30706 0.90333
 C774 C 0.46601 0.30294 0.89049
 C775 C 0.45823 0.29083 0.87761
 C776 C 0.44016 0.28819 0.88357
 H777 H 0.47966 0.30921 0.88998
 H778 H 0.42935 0.28041 0.87656
 H779 H 0.42785 0.32753 0.91405
 H780 H 0.43199 0.30978 0.93246
 N781 N 0.95016 0.43694 0.35167
 N782 N 0.93730 0.44985 0.35156
 C783 C 0.94048 0.46171 0.36573
 C784 C 0.95613 0.45581 0.37534
 C785 C 0.96182 0.43999 0.36595
 H786 H 0.93197 0.47367 0.36880
 H787 H 0.97389 0.43161 0.36892
 Cu788 Cu 0.91770 0.44982 0.33287
 Cu789 Cu 0.95158 0.41765 0.33280
 Cu790 Cu 0.91792 0.41805 0.29846
 N791 N 0.89902 0.44992 0.31325
 N792 N 0.89935 0.43748 0.29988
 C793 C 0.88473 0.44010 0.28860
 C794 C 0.87454 0.45498 0.29521
 C795 C 0.88405 0.46089 0.31090
 H796 H 0.88153 0.43141 0.27677
 H797 H 0.88003 0.47194 0.32023
 N798 N 0.93788 0.39952 0.29939
 N799 N 0.95071 0.39937 0.31246
 C800 C 0.96260 0.38538 0.30904
 C801 C 0.95696 0.37624 0.29307
 C802 C 0.94121 0.38558 0.28735
 H803 H 0.97467 0.38225 0.31736
 H804 H 0.93283 0.38251 0.27528
 H805 H 0.93847 0.43283 0.31223
 H806 H 0.92356 0.41708 0.32651
 N807 N 0.30023 0.93734 0.39974
 N808 N 0.31315 0.95027 0.39994
 C809 C 0.31106 0.96116 0.38494
 C810 C 0.29604 0.95470 0.37472
 C811 C 0.28952 0.93954 0.38459
 H812 H 0.32004 0.97270 0.38155
 H813 H 0.27810 0.93050 0.38081
 Cu814 Cu 0.33196 0.95110 0.41934
 Cu815 Cu 0.29862 0.91833 0.41887
 Cu816 Cu 0.33210 0.91954 0.45356
 N817 N 0.35064 0.95171 0.43887
 N818 N 0.35063 0.93927 0.45216
 C819 C 0.36484 0.94276 0.46379
 C820 C 0.37444 0.95824 0.45747
 C821 C 0.36492 0.96356 0.44159
 H822 H 0.36775 0.93474 0.47609
 H823 H 0.36815 0.97509 0.43260
 N824 N 0.31218 0.90071 0.45257
 N825 N 0.29937 0.90035 0.43946
 C826 C 0.28760 0.88618 0.44278
 C827 C 0.29326 0.87711 0.45871
 C828 C 0.30891 0.88673 0.46453
 H829 H 0.27565 0.88281 0.43433
 H830 H 0.31731 0.88378 0.47660
 H831 H 0.31132 0.93361 0.43969
 H832 H 0.32658 0.91823 0.42545
 O833 O 0.20008 0.52312 0.75017
 O834 O 0.20709 0.52095 0.78284
 O835 O 0.24774 0.55024 0.72828
 O836 O 0.27877 0.54588 0.72877
 O837 O 0.22562 0.50251 0.70143
 O838 O 0.22829 0.46954 0.70720
 O839 O 0.29856 0.49898 0.77426
 O840 O 0.29264 0.53169 0.77203
 O841 O 0.25289 0.47468 0.79805
 O842 O 0.21834 0.47708 0.79230
 O843 O 0.27488 0.45250 0.75141
 O844 O 0.27239 0.45936 0.71744
 O845 O 0.29900 0.47752 0.75105
 O846 O 0.29177 0.47984 0.71747
 O847 O 0.25193 0.45120 0.77301
 O848 O 0.21819 0.45754 0.77196
 O849 O 0.27436 0.49787 0.79892
 O850 O 0.27160 0.53131 0.79420
 O851 O 0.20032 0.50154 0.72701
 O852 O 0.20744 0.46867 0.72824
 O853 O 0.24765 0.52525 0.70208
 O854 O 0.28108 0.52242 0.70870
 O855 O 0.22528 0.54935 0.75048
 O856 O 0.22762 0.54209 0.78315
 Zr857 Zr 0.22709 0.52229 0.76143
 O858 O 0.24376 0.50576 0.77879
 Zr859 Zr 0.25956 0.52357 0.72869
 O860 O 0.27777 0.50724 0.74465
 Zr861 Zr 0.22731 0.49035 0.72794
 O862 O 0.24409 0.47243 0.74376
 Zr863 Zr 0.27192 0.51082 0.77296
 O864 O 0.25527 0.52910 0.75712
 Zr865 Zr 0.23972 0.47763 0.77213
 O866 O 0.22122 0.49404 0.75630
 Zr867 Zr 0.27224 0.47899 0.73940
 O868 O 0.25545 0.49541 0.72175
 O869 O 0.23162 0.51834 0.73330
 O870 O 0.26785 0.48267 0.76768
 C871 C 0.19237 0.51438 0.73657
 C872 C 0.23424 0.55756 0.73740
 C873 C 0.23443 0.51621 0.69407
 C874 C 0.30656 0.48614 0.76476
 C875 C 0.26620 0.48365 0.80595
 C876 C 0.26582 0.44419 0.76434
 H877 H 0.24073 0.50831 0.79191
 H878 H 0.24124 0.45940 0.74044
 H879 H 0.22350 0.52632 0.72567
 H880 H 0.29079 0.51062 0.74185
 H881 H 0.28678 0.54286 0.76660
 H882 H 0.28995 0.54171 0.73556
 H883 H 0.21948 0.45006 0.76049
 H884 H 0.20107 0.46941 0.74039
 H885 H 0.26026 0.52952 0.80173
 H886 H 0.23987 0.54835 0.78247
 H887 H 0.26177 0.45082 0.71926
 H888 H 0.24059 0.47067 0.70117
 H889 H 0.20161 0.50834 0.78224
 H890 H 0.22098 0.48687 0.80160
 H891 H 0.27904 0.51100 0.70126
 H892 H 0.29957 0.49104 0.71925
 O893 O 0.24879 0.04976 0.22723
 O894 O 0.28153 0.04270 0.22812
 O895 O 0.22547 0.00203 0.20115
 O896 O 0.22663 -0.02907 0.20558
 O897 O 0.20055 0.02361 0.25021
 O898 O 0.20808 0.02194 0.28262
 O899 O 0.27398 -0.04858 0.25118
 O900 O 0.27026 -0.04313 0.21876
 O901 O 0.29921 -0.00114 0.27309
 O902 O 0.29216 0.03260 0.27208
 O903 O 0.25298 -0.02466 0.29807
 O904 O 0.21839 -0.02184 0.29231
 O905 O 0.25204 -0.04831 0.27386
 O906 O 0.21811 -0.04196 0.27232
 O907 O 0.27553 -0.00251 0.29782
 O908 O 0.27268 0.03188 0.29241
 O909 O 0.29855 -0.02400 0.25127
 O910 O 0.29229 -0.02162 0.21778
 O911 O 0.22664 0.04956 0.24975
 O912 O 0.22885 0.04270 0.28235
 O913 O 0.20029 0.00150 0.22758
 O914 O 0.20735 -0.03151 0.22963
 O915 O 0.24795 0.02432 0.20123
 O916 O 0.28081 0.02217 0.20717
 Zr917 Zr 0.25993 0.02274 0.22777
 O918 O 0.27798 0.00629 0.24372
 Zr919 Zr 0.22720 -0.00981 0.22783
 O920 O 0.24382 -0.02783 0.24379
 Zr921 Zr 0.22780 0.02262 0.26091
 O922 O 0.24441 0.00613 0.27839
 Zr923 Zr 0.27203 -0.02199 0.23915
 O924 O 0.25543 -0.00551 0.22133
 Zr925 Zr 0.27254 0.01063 0.27202
 O926 O 0.25599 0.02885 0.25609
 Zr927 Zr 0.23978 -0.02201 0.27213
 O928 O 0.22147 -0.00555 0.25619
 O929 O 0.23189 0.01822 0.23276
 O930 O 0.26791 -0.01753 0.26734
 C931 C 0.23579 0.05755 0.23668
 C932 C 0.23452 0.01541 0.19346
 C933 C 0.19245 0.01433 0.23722
 C934 C 0.26535 -0.05604 0.26490
 C935 C 0.30662 -0.01478 0.26430
 C936 C 0.26705 -0.01630 0.30531
 H937 H 0.29097 0.00944 0.24060
 H938 H 0.24166 0.00896 0.29153
 H939 H 0.22379 0.02624 0.22513
 H940 H 0.24092 -0.04091 0.24069
 H941 H 0.26438 -0.03750 0.20770
 H942 H 0.23337 -0.04029 0.20968
 H943 H 0.26257 0.02928 0.30132
 H944 H 0.24139 0.04835 0.28183
 H945 H 0.30006 -0.01039 0.21938
 H946 H 0.27999 0.00982 0.20114
 H947 H 0.22133 -0.01206 0.30153
 H948 H 0.20235 0.00943 0.28226
 H949 H 0.28096 0.04894 0.24037
 H950 H 0.30012 0.03112 0.26100
 H951 H 0.20100 -0.03008 0.24172
 H952 H 0.21981 -0.05017 0.26142
 O953 O 0.50113 0.70142 0.22550
 O954 O 0.46862 0.70871 0.22648
 O955 O 0.52486 0.74987 0.20081
 O956 O 0.52468 0.78062 0.20634
 O957 O 0.54955 0.72633 0.24925
 O958 O 0.54215 0.72768 0.28174
 O959 O 0.47707 0.79955 0.25155
 O960 O 0.48071 0.79441 0.21921
 O961 O 0.45127 0.75247 0.27282
 O962 O 0.45735 0.71888 0.27127
 O963 O 0.49872 0.77396 0.29877
 O964 O 0.53228 0.77230 0.29254
 O965 O 0.49875 0.79882 0.27449
 O966 O 0.53288 0.79201 0.27270
 O967 O 0.47592 0.75209 0.29810
 O968 O 0.47724 0.71804 0.29078
 O969 O 0.45229 0.77550 0.25133
 O970 O 0.45848 0.77314 0.21782
 O971 O 0.52319 0.70097 0.24814
 O972 O 0.52095 0.70733 0.28107
 O973 O 0.55006 0.74884 0.22716
 O974 O 0.54353 0.78218 0.23065
 O975 O 0.50259 0.72736 0.20031
 O976 O 0.46945 0.72996 0.20620
 Zr977 Zr 0.49033 0.72856 0.22681
 O978 O 0.47244 0.74486 0.24320
 Zr979 Zr 0.52344 0.76078 0.22790
 O980 O 0.50693 0.77867 0.24413
 Zr981 Zr 0.52236 0.72769 0.26004
 O982 O 0.50599 0.74414 0.27782
 Zr983 Zr 0.47871 0.77311 0.23926
 O984 O 0.49519 0.75686 0.22112
 Zr985 Zr 0.47776 0.74013 0.27145
 O986 O 0.49408 0.72195 0.25503
 Zr987 Zr 0.51091 0.77238 0.27233
 O988 O 0.52908 0.75588 0.25615
 O989 O 0.51838 0.73271 0.23202
 O990 O 0.48267 0.76835 0.26749
 C991 C 0.51405 0.69334 0.23477
 C992 C 0.51594 0.73657 0.19277
 C993 C 0.55767 0.73559 0.23634
 C994 C 0.48575 0.80689 0.26535
 C995 C 0.44410 0.76634 0.26422
 C996 C 0.48513 0.76512 0.30621
 H997 H 0.45941 0.74193 0.24001
 H998 H 0.50881 0.74095 0.29084
 H999 H 0.52634 0.72474 0.22416
 H1000 H 0.50996 0.79176 0.24131
 H1001 H 0.48664 0.78885 0.20812
 H1002 H 0.51772 0.79169 0.21053
 H1003 H 0.48790 0.71971 0.29931
 H1004 H 0.50863 0.70130 0.27987
 H1005 H 0.45051 0.76203 0.21925
 H1006 H 0.47081 0.74222 0.20017
 H1007 H 0.53084 0.76090 0.30003
 H1008 H 0.54846 0.73991 0.28135
 H1009 H 0.46875 0.70266 0.23880
 H1010 H 0.44988 0.72025 0.25983
 H1011 H 0.55023 0.77996 0.24244
 H1012 H 0.53093 0.80072 0.26230
 O1013 O 0.04947 0.72739 0.74922
 O1014 O 0.04173 0.72835 0.78181
 O1015 O 0.00155 0.70073 0.72574
 O1016 O -0.02944 0.70552 0.72579
 O1017 O 0.02425 0.74933 0.70067
 O1018 O 0.02160 0.78209 0.70760
 O1019 O -0.04944 0.75103 0.77306
 O1020 O -0.04375 0.71856 0.76929
 O1021 O -0.00259 0.77336 0.79856
 O1022 O 0.03129 0.77214 0.79221
 O1023 O -0.02457 0.79847 0.75151
 O1024 O -0.02238 0.79182 0.71748
 O1025 O -0.04906 0.77365 0.75113
 O1026 O -0.04244 0.77213 0.71748
 O1027 O -0.00273 0.79818 0.77430
 O1028 O 0.03123 0.79217 0.77280
 O1029 O -0.02515 0.75121 0.79780
 O1030 O -0.02270 0.71778 0.79160
 O1031 O 0.04942 0.74985 0.72705
 O1032 O 0.04208 0.78246 0.72863
 O1033 O 0.00236 0.72647 0.70029
 O1034 O -0.03109 0.72953 0.70638
 O1035 O 0.02388 0.70106 0.74813
 O1036 O 0.02146 0.70719 0.78076
 Zr1037 Zr 0.02218 0.72775 0.75990
 O1038 O 0.00540 0.74374 0.77765
 Zr1039 Zr -0.00996 0.72758 0.72676
 O1040 O -0.02826 0.74361 0.74312
 Zr1041 Zr 0.02233 0.76068 0.72761
 O1042 O 0.00561 0.77819 0.74399
 Zr1043 Zr -0.02278 0.73912 0.77135
 O1044 O -0.00601 0.72126 0.75504
 Zr1045 Zr 0.00976 0.77201 0.77216
 O1046 O 0.02824 0.75608 0.75586
 Zr1047 Zr -0.02252 0.77200 0.73911
 O1048 O -0.00576 0.75596 0.72098
 O1049 O 0.01801 0.73253 0.73186
 O1050 O -0.01842 0.76741 0.76731
 C1051 C 0.05742 0.73695 0.73641
 C1052 C 0.01487 0.69310 0.73489
 C1053 C 0.01558 0.73582 0.69272
 C1054 C -0.05700 0.76457 0.76426
 C1055 C -0.01618 0.76440 0.80588
 C1056 C -0.01594 0.80597 0.76527
 H1057 H 0.00834 0.74068 0.79068
 H1058 H 0.00856 0.79129 0.74119
 H1059 H 0.02626 0.72476 0.72411
 H1060 H -0.04129 0.74045 0.74010
 H1061 H -0.03796 0.70755 0.76340
 H1062 H -0.04077 0.70972 0.73231
 H1063 H 0.02955 0.80044 0.76199
 H1064 H 0.04799 0.78184 0.74102
 H1065 H -0.01157 0.71938 0.79950
 H1066 H 0.00907 0.70123 0.77995
 H1067 H -0.01153 0.80006 0.71939
 H1068 H 0.00950 0.78096 0.70114
 H1069 H 0.04789 0.74065 0.78131
 H1070 H 0.02957 0.76117 0.80026
 H1071 H -0.02908 0.74137 0.69972
 H1072 H -0.05005 0.76073 0.71862
 O1073 O 0.00223 0.04769 0.02403
 O1074 O -0.03018 0.04024 0.02311
 O1075 O 0.02573 -0.00041 0.04954
 O1076 O 0.02512 -0.03128 0.04441
 O1077 O 0.05110 0.02217 0.00104
 O1078 O 0.04378 0.02117 -0.03132
 O1079 O -0.02202 -0.05063 -0.00136
 O1080 O -0.01868 -0.04535 0.03093
 O1081 O -0.04677 -0.00443 -0.02390
 O1082 O -0.04107 0.02988 -0.02125
 O1083 O 0.00035 -0.02508 -0.04863
 O1084 O 0.03392 -0.02364 -0.04178
 O1085 O -0.00037 -0.04990 -0.02429
 O1086 O 0.03389 -0.04343 -0.02201
 O1087 O -0.02200 -0.00286 -0.04837
 O1088 O -0.02125 0.03076 -0.04094
 O1089 O -0.04646 -0.02686 -0.00178
 O1090 O -0.04061 -0.02370 0.03210
 O1091 O 0.02463 0.04810 0.00177
 O1092 O 0.02292 0.04142 -0.03093
 O1093 O 0.05129 -0.00022 0.02324
 O1094 O 0.04428 -0.03325 0.02045
 O1095 O 0.00334 0.02186 0.04980
 O1096 O -0.02959 0.01928 0.04346
 Zr1097 Zr -0.00851 0.02049 0.02309
 O1098 O -0.02637 0.00408 0.00659
 Zr1099 Zr 0.02442 -0.01170 0.02258
 O1100 O 0.00796 -0.02970 0.00624
 Zr1101 Zr 0.02389 0.02119 -0.00976
 O1102 O 0.00758 0.00467 -0.02762
 Zr1103 Zr -0.02028 -0.02412 0.01078
 O1104 O -0.00386 -0.00777 0.02901
 Zr1105 Zr -0.02068 0.00872 -0.02158
 O1106 O -0.00440 0.02693 -0.00510
 Zr1107 Zr 0.01223 -0.02358 -0.02197
 O1108 O 0.03032 -0.00701 -0.00564
 O1109 O 0.01964 0.01639 0.01828
 O1110 O -0.01598 -0.01946 -0.01741
 C1111 C 0.01512 0.05586 0.01474
 C1112 C 0.01665 0.01277 0.05749
 C1113 C 0.05918 0.01269 0.01380
 C1114 C -0.01347 -0.05794 -0.01521
 C1115 C -0.05413 -0.01827 -0.01535
 C1116 C -0.01291 -0.01600 -0.05632
 H1117 H -0.03944 0.00698 0.00957
 H1118 H 0.01057 0.00784 -0.04062
 H1119 H 0.02763 0.02442 0.02611
 H1120 H 0.01087 -0.04277 0.00917
 H1121 H -0.01290 -0.03976 0.04211
 H1122 H 0.01810 -0.04236 0.04022
 H1123 H -0.01011 0.02963 -0.04888
 H1124 H 0.01062 0.04748 -0.02997
 H1125 H -0.04926 -0.01333 0.02974
 H1126 H -0.02859 0.00694 0.04939
 H1127 H 0.03257 -0.01236 -0.04946
 H1128 H 0.04990 0.00887 -0.03100
 H1129 H -0.03040 0.04571 0.01053
 H1130 H -0.04975 0.02732 -0.01094
 H1131 H 0.05069 -0.03162 0.00842
 H1132 H 0.03160 -0.05220 -0.01173
 O1133 O -0.00034 0.54927 0.52345
 O1134 O -0.03275 0.54148 0.52204
 O1135 O 0.02344 0.50158 0.54926
 O1136 O 0.02348 0.47066 0.54414
 O1137 O 0.04857 0.52518 0.50168
 O1138 O 0.04248 0.52281 0.46896
 O1139 O -0.02302 0.45058 0.49814
 O1140 O -0.02045 0.45610 0.53045
 O1141 O -0.04820 0.49669 0.47513
 O1142 O -0.04275 0.53092 0.47754
 O1143 O -0.00117 0.47574 0.45128
 O1144 O 0.03256 0.47807 0.45784
 O1145 O -0.00058 0.45102 0.47597
 O1146 O 0.03324 0.45872 0.47805
 O1147 O -0.02359 0.49790 0.45107
 O1148 O -0.02260 0.53176 0.45810
 O1149 O -0.04802 0.47422 0.49720
 O1150 O -0.04256 0.47731 0.53116
 O1151 O 0.02185 0.55005 0.50097
 O1152 O 0.02099 0.54270 0.46824
 O1153 O 0.04905 0.50282 0.52390
 O1154 O 0.04297 0.46919 0.52016
 O1155 O 0.00061 0.52340 0.54926
 O1156 O -0.03219 0.52060 0.54250
 Zr1157 Zr -0.01088 0.52195 0.52239
 O1158 O -0.02832 0.50528 0.50575
 Zr1159 Zr 0.02260 0.49027 0.52235
 O1160 O 0.00647 0.47197 0.50600
 Zr1161 Zr 0.02190 0.52294 0.48986
 O1162 O 0.00607 0.50605 0.47190
 Zr1163 Zr -0.02193 0.47718 0.51013
 O1164 O -0.00585 0.49379 0.52844
 Zr1165 Zr -0.02226 0.50987 0.47765
 O1166 O -0.00649 0.52838 0.49422
 Zr1167 Zr 0.01099 0.47790 0.47780
 O1168 O 0.02875 0.49487 0.49418
 O1169 O 0.01730 0.51822 0.51784
 O1170 O -0.01731 0.48173 0.48200
 C1171 C 0.01233 0.55765 0.51404
 C1172 C 0.01407 0.51463 0.55706
 C1173 C 0.05651 0.51637 0.51499
 C1174 C -0.01381 0.44299 0.48488
 C1175 C -0.05559 0.48284 0.48357
 C1176 C -0.01455 0.48456 0.44345
 H1177 H -0.04145 0.50803 0.50856
 H1178 H 0.00910 0.50914 0.45890
 H1179 H 0.02486 0.52651 0.52581
 H1180 H 0.00955 0.45896 0.50907
 H1181 H -0.01455 0.46174 0.54155
 H1182 H 0.01670 0.45945 0.53989
 H1183 H -0.01173 0.53022 0.44986
 H1184 H 0.00866 0.54871 0.46898
 H1185 H -0.05132 0.48755 0.52866
 H1186 H -0.03129 0.50818 0.54829
 H1187 H 0.03114 0.48939 0.45025
 H1188 H 0.04869 0.51058 0.46966
 H1189 H -0.03262 0.54718 0.50956
 H1190 H -0.05129 0.52863 0.48804
 H1191 H 0.05022 0.47175 0.50877
 H1192 H 0.03159 0.45055 0.48893
 O1193 O 0.45199 -0.00107 0.47533
 O1194 O 0.45856 0.03156 0.47740
 O1195 O 0.50100 -0.02244 0.44940
 O1196 O 0.53179 -0.02164 0.45494
 O1197 O 0.47827 -0.04957 0.49701
 O1198 O 0.47945 -0.04322 0.52976
 O1199 O 0.54938 0.02540 0.50218
 O1200 O 0.54489 0.02203 0.46964
 O1201 O 0.50183 0.04876 0.52382
 O1202 O 0.46799 0.04118 0.52182
 O1203 O 0.52459 0.00144 0.54826
 O1204 O 0.52344 -0.03239 0.54065
 O1205 O 0.54922 0.00291 0.52425
 O1206 O 0.54370 -0.03129 0.52118
 O1207 O 0.50243 0.02385 0.54811
 O1208 O 0.46862 0.02150 0.54165
 O1209 O 0.52451 0.04920 0.50190
 O1210 O 0.52287 0.04343 0.46836
 O1211 O 0.45197 -0.02363 0.49736
 O1212 O 0.45860 -0.02288 0.53003
 O1213 O 0.50059 -0.04862 0.47469
 O1214 O 0.53365 -0.04138 0.47857
 O1215 O 0.47817 -0.00064 0.44982
 O1216 O 0.47947 0.03203 0.45704
 Zr1217 Zr 0.47888 0.01042 0.47682
 O1218 O 0.49484 0.02827 0.49366
 Zr1219 Zr 0.51189 -0.02174 0.47655
 O1220 O 0.52944 -0.00525 0.49336
 Zr1221 Zr 0.47888 -0.02272 0.50884
 O1222 O 0.49489 -0.00632 0.52714
 Zr1223 Zr 0.52321 0.02290 0.48941
 O1224 O 0.50728 0.00656 0.47079
 Zr1225 Zr 0.49019 0.02195 0.52169
 O1226 O 0.47243 0.00552 0.50488
 Zr1227 Zr 0.52324 -0.01020 0.52144
 O1228 O 0.50722 -0.02837 0.50461
 O1229 O 0.48367 -0.01768 0.48093
 O1230 O 0.51849 0.01800 0.51746
 C1231 C 0.44405 -0.01421 0.48444
 C1232 C 0.48769 -0.01336 0.44170
 C1233 C 0.48762 -0.05694 0.48368
 C1234 C 0.55679 0.01671 0.51585
 C1235 C 0.51524 0.05672 0.51512
 C1236 C 0.51570 0.01489 0.55592
 H1237 H 0.49157 0.04128 0.49085
 H1238 H 0.49182 -0.00958 0.54009
 H1239 H 0.47582 -0.02553 0.47278
 H1240 H 0.54262 -0.00774 0.49045
 H1241 H 0.53968 0.01614 0.45833
 H1242 H 0.54284 -0.01482 0.45950
 H1243 H 0.47045 0.01048 0.54959
 H1244 H 0.45274 -0.01045 0.52990
 H1245 H 0.51152 0.05097 0.46989
 H1246 H 0.49178 0.03145 0.45096
 H1247 H 0.51242 -0.03104 0.54873
 H1248 H 0.49187 -0.04908 0.52912
 H1249 H 0.45237 0.03071 0.48963
 H1250 H 0.46974 0.04968 0.51121
 H1251 H 0.53174 -0.04827 0.49028
 H1252 H 0.55212 -0.02892 0.51060
 O1253 O 0.44874 0.50098 -0.02383
 O1254 O 0.45660 0.53316 -0.02254
 O1255 O 0.49680 0.47807 -0.05136
 O1256 O 0.52753 0.47757 -0.04640
 O1257 O 0.47287 0.45177 -0.00480
 O1258 O 0.47645 0.45642 0.02840
 O1259 O 0.54748 0.52365 0.00046
 O1260 O 0.54188 0.52146 -0.03190
 O1261 O 0.50141 0.54788 0.02433
 O1262 O 0.46738 0.54217 0.02249
 O1263 O 0.52324 0.50064 0.04688
 O1264 O 0.52128 0.46740 0.04019
 O1265 O 0.54760 0.50055 0.02188
 O1266 O 0.53983 0.46653 0.01907
 O1267 O 0.50086 0.52282 0.04793
 O1268 O 0.46678 0.52149 0.04127
 O1269 O 0.52344 0.54838 0.00176
 O1270 O 0.52048 0.54330 -0.03209
 O1271 O 0.44816 0.47869 -0.00156
 O1272 O 0.45649 0.47751 0.03059
 O1273 O 0.49600 0.45130 -0.02634
 O1274 O 0.52942 0.45789 -0.02305
 O1275 O 0.47440 0.50032 -0.05035
 O1276 O 0.47723 0.53299 -0.04296
 Zr1277 Zr 0.47611 0.51129 -0.02329
 O1278 O 0.49280 0.52848 -0.00648
 Zr1279 Zr 0.50804 0.47800 -0.02444
 O1280 O 0.52639 0.49397 -0.00796
 Zr1281 Zr 0.47566 0.47781 0.00839
 O1282 O 0.49262 0.49341 0.02653
 Zr1283 Zr 0.52088 0.52238 -0.01141
 O1284 O 0.50423 0.50654 -0.02983
 Zr1285 Zr 0.48855 0.52182 0.02153
 O1286 O 0.47002 0.50626 0.00483
 Zr1287 Zr 0.52077 0.48886 0.02020
 O1288 O 0.50375 0.47127 0.00365
 O1289 O 0.48003 0.48303 -0.01956
 O1290 O 0.51669 0.51721 0.01668
 C1291 C 0.44034 0.48851 -0.01420
 C1292 C 0.48358 0.48749 -0.05875
 C1293 C 0.48212 0.44390 -0.01791
 C1294 C 0.55532 0.51419 0.01335
 C1295 C 0.51490 0.55564 0.01564
 C1296 C 0.51444 0.51383 0.05511
 H1297 H 0.48990 0.54164 -0.00899
 H1298 H 0.48971 0.49012 0.03951
 H1299 H 0.47161 0.47571 -0.02764
 H1300 H 0.53940 0.49107 -0.01125
 H1301 H 0.53624 0.51573 -0.04308
 H1302 H 0.53861 0.48461 -0.04225
 H1303 H 0.46883 0.51081 0.04963
 H1304 H 0.45068 0.48996 0.03089
 H1305 H 0.50981 0.55160 -0.02970
 H1306 H 0.48942 0.53198 -0.04923
 H1307 H 0.50903 0.46721 0.04637
 H1308 H 0.48836 0.44981 0.02662
 H1309 H 0.45115 0.53307 -0.00993
 H1310 H 0.46926 0.55073 0.01194
 H1311 H 0.52725 0.45049 -0.01170
 H1312 H 0.54830 0.46874 0.00850
 O1313 O 0.77332 0.29876 0.49805
 O1314 O 0.77139 0.29177 0.53090
 O1315 O 0.79944 0.25173 0.47509
 O1316 O 0.79515 0.22037 0.47619
 O1317 O 0.75088 0.27290 0.44985
 O1318 O 0.71812 0.27074 0.45678
 O1319 O 0.74878 0.20046 0.52286
 O1320 O 0.78139 0.20588 0.51902
 O1321 O 0.72556 0.24565 0.54699
 O1322 O 0.72845 0.28053 0.54155
 O1323 O 0.70175 0.22472 0.50056
 O1324 O 0.70868 0.22667 0.46637
 O1325 O 0.72650 0.20027 0.50049
 O1326 O 0.72817 0.20654 0.46685
 O1327 O 0.70133 0.24742 0.52254
 O1328 O 0.70804 0.28070 0.52208
 O1329 O 0.74864 0.22418 0.54704
 O1330 O 0.78235 0.22755 0.54119
 O1331 O 0.75079 0.29858 0.47585
 O1332 O 0.71810 0.29147 0.47753
 O1333 O 0.77350 0.25088 0.44952
 O1334 O 0.77130 0.21791 0.45629
 O1335 O 0.79915 0.27372 0.49788
 O1336 O 0.79265 0.27135 0.53056
 Zr1337 Zr 0.77237 0.27181 0.50934
 O1338 O 0.75625 0.25506 0.52707
 Zr1339 Zr 0.77281 0.23943 0.47635
 O1340 O 0.75666 0.22116 0.49262
 Zr1341 Zr 0.73963 0.27156 0.47677
 O1342 O 0.72203 0.25486 0.49300
 Zr1343 Zr 0.76102 0.22693 0.52085
 O1344 O 0.77900 0.24366 0.50466
 Zr1345 Zr 0.72800 0.25919 0.52124
 O1346 O 0.74404 0.27769 0.50502
 Zr1347 Zr 0.72828 0.22672 0.48829
 O1348 O 0.74444 0.24346 0.47031
 O1349 O 0.76773 0.26734 0.48125
 O1350 O 0.73275 0.23110 0.51644
 C1351 C 0.76403 0.30651 0.48493
 C1352 C 0.80702 0.26510 0.48436
 C1353 C 0.76403 0.26386 0.44181
 C1354 C 0.73526 0.19274 0.51405
 C1355 C 0.73455 0.23218 0.55444
 C1356 C 0.69377 0.23389 0.51366
 H1357 H 0.75916 0.25802 0.54014
 H1358 H 0.70896 0.25778 0.49000
 H1359 H 0.77546 0.27544 0.47331
 H1360 H 0.75982 0.20811 0.48972
 H1361 H 0.79258 0.21165 0.51346
 H1362 H 0.79083 0.20891 0.48241
 H1363 H 0.70073 0.27999 0.51047
 H1364 H 0.71902 0.29779 0.48972
 H1365 H 0.78016 0.23825 0.54953
 H1366 H 0.79876 0.25907 0.52979
 H1367 H 0.70007 0.23716 0.46845
 H1368 H 0.71905 0.25854 0.45047
 H1369 H 0.75898 0.29761 0.53022
 H1370 H 0.73796 0.27738 0.55094
 H1371 H 0.75917 0.21917 0.44994
 H1372 H 0.73943 0.19883 0.46830
 O1373 O 0.77137 0.79906 -0.00152
 O1374 O 0.77001 0.79177 0.03100
 O1375 O 0.79753 0.75083 -0.02455
 O1376 O 0.79229 0.71997 -0.02468
 O1377 O 0.74920 0.77373 -0.05023
 O1378 O 0.71647 0.77147 -0.04356
 O1379 O 0.74707 0.70050 0.02218
 O1380 O 0.77933 0.70642 0.01933
 O1381 O 0.72347 0.74664 0.04706
 O1382 O 0.72669 0.78146 0.04113
 O1383 O 0.69957 0.72521 0.00088
 O1384 O 0.70588 0.72733 -0.03330
 O1385 O 0.72432 0.70077 0.00027
 O1386 O 0.72569 0.70750 -0.03350
 O1387 O 0.69951 0.74781 0.02296
 O1388 O 0.70596 0.78130 0.02180
 O1389 O 0.74563 0.72423 0.04663
 O1390 O 0.77979 0.72795 0.04140
 O1391 O 0.74912 0.79904 -0.02399
 O1392 O 0.71624 0.79201 -0.02253
 O1393 O 0.77168 0.75158 -0.05027
 O1394 O 0.76831 0.71818 -0.04383
 O1395 O 0.79725 0.77330 -0.00225
 O1396 O 0.79081 0.77127 0.03047
 Zr1397 Zr 0.77047 0.77194 0.00931
 O1398 O 0.75417 0.75539 0.02705
 Zr1399 Zr 0.77048 0.73961 -0.02373
 O1400 O 0.75425 0.72154 -0.00744
 Zr1401 Zr 0.73776 0.77210 -0.02335
 O1402 O 0.71996 0.75554 -0.00709
 Zr1403 Zr 0.75870 0.72724 0.02080
 O1404 O 0.77677 0.74374 0.00456
 Zr1405 Zr 0.72599 0.75982 0.02115
 O1406 O 0.74222 0.77813 0.00493
 Zr1407 Zr 0.72592 0.72734 -0.01177
 O1408 O 0.74219 0.74394 -0.02981
 O1409 O 0.76584 0.76761 -0.01880
 O1410 O 0.73050 0.73167 0.01636
 C1411 C 0.76212 0.80695 -0.01456
 C1412 C 0.80523 0.76413 -0.01535
 C1413 C 0.76251 0.76474 -0.05804
 C1414 C 0.73351 0.69287 0.01336
 C1415 C 0.73190 0.73267 0.05422
 C1416 C 0.69194 0.73413 0.01435
 H1417 H 0.75707 0.75835 0.04012
 H1418 H 0.70689 0.75850 -0.01004
 H1419 H 0.77378 0.77570 -0.02655
 H1420 H 0.75734 0.70849 -0.01041
 H1421 H 0.79040 0.71220 0.01356
 H1422 H 0.78823 0.70899 -0.01753
 H1423 H 0.69836 0.78024 0.01041
 H1424 H 0.71707 0.79817 -0.01025
 H1425 H 0.77687 0.73791 0.05040
 H1426 H 0.79640 0.75873 0.03002
 H1427 H 0.69736 0.73787 -0.03111
 H1428 H 0.71698 0.75903 -0.04944
 H1429 H 0.75756 0.79757 0.03068
 H1430 H 0.73600 0.77821 0.05069
 H1431 H 0.75669 0.72036 -0.05086
 H1432 H 0.73698 0.69980 -0.03223
 O1433 O 1.05002 0.22777 0.24869
 O1434 O 1.04272 0.22929 0.28126
 O1435 O 1.00185 0.20147 0.22572
 O1436 O 0.97078 0.20640 0.22649
 O1437 O 1.02453 0.24940 0.20011
 O1438 O 1.02262 0.28225 0.20658
 O1439 O 0.95208 0.25341 0.27358
 O1440 O 0.95665 0.22074 0.26971
 O1441 O 0.99828 0.27569 0.29749
 O1442 O 1.03240 0.27353 0.29154
 O1443 O 0.97699 0.29984 0.25011
 O1444 O 0.97845 0.29241 0.21643
 O1445 O 0.95236 0.27564 0.25126
 O1446 O 0.95827 0.27268 0.21708
 O1447 O 0.99904 0.29980 0.27271
 O1448 O 1.03294 0.29301 0.27146
 O1449 O 0.97586 0.25338 0.29741
 O1450 O 0.97859 0.21940 0.29155
 O1451 O 1.05003 0.24987 0.22618
 O1452 O 1.04320 0.28260 0.22738
 O1453 O 1.00239 0.22677 0.20015
 O1454 O 0.96905 0.23029 0.20661
 O1455 O 1.02426 0.20185 0.24804
 O1456 O 1.02195 0.20849 0.28086
 Zr1457 Zr 1.02286 0.22867 0.25963
 O1458 O 1.00646 0.24517 0.27732
 Zr1459 Zr 0.99041 0.22836 0.22674
 O1460 O 0.97243 0.24481 0.24304
 Zr1461 Zr 1.02312 0.26112 0.22688
 O1462 O 1.00672 0.27905 0.24305
 Zr1463 Zr 0.97822 0.24069 0.27127
 O1464 O 0.99457 0.22238 0.25507
 Zr1465 Zr 1.01104 0.27331 0.27131
 O1466 O 1.02921 0.25687 0.25514
 Zr1467 Zr 0.97848 0.27303 0.23846
 O1468 O 0.99495 0.25658 0.22048
 O1469 O 1.01846 0.23311 0.23157
 O1470 O 0.98288 0.26883 0.26663
 C1471 C 1.05793 0.23696 0.23558
 C1472 C 1.01524 0.19389 0.23478
 C1473 C 1.01564 0.23591 0.19239
 C1474 C 0.94475 0.26720 0.26499
 C1475 C 0.98452 0.26709 0.30494
 C1476 C 0.98590 0.30758 0.26355
 H1477 H 1.00942 0.24234 0.29039
 H1478 H 1.00982 0.29206 0.23994
 H1479 H 1.02657 0.22519 0.22382
 H1480 H 0.95930 0.24180 0.24028
 H1481 H 0.96204 0.20952 0.26386
 H1482 H 0.95941 0.21094 0.23272
 H1483 H 1.03129 0.30118 0.26057
 H1484 H 1.04924 0.28206 0.23971
 H1485 H 0.98920 0.22168 0.29999
 H1486 H 1.00961 0.20244 0.27999
 H1487 H 0.98954 0.30043 0.21789
 H1488 H 1.01045 0.28124 0.20022
 H1489 H 1.04854 0.24175 0.28091
 H1490 H 1.03021 0.26302 0.30007
 H1491 H 0.97103 0.24209 0.19986
 H1492 H 0.94978 0.26210 0.21935
 O1493 O 0.74984 0.97752 0.80152
 O1494 O 0.71715 0.97983 0.79432
 O1495 O 0.77140 0.95021 0.75324
 O1496 O 0.77163 0.95512 0.72254
 O1497 O 0.79887 0.99842 0.77579
 O1498 O 0.79300 1.03113 0.77379
 O1499 O 0.72550 1.00249 0.70327
 O1500 O 0.72801 0.96985 0.70866
 O1501 O 0.70188 1.02613 0.74944
 O1502 O 0.70785 1.02430 0.78341
 O1503 O 0.75013 1.04907 0.72794
 O1504 O 0.78365 1.04070 0.72945
 O1505 O 0.74809 1.02462 0.70359
 O1506 O 0.78214 1.02100 0.70933
 O1507 O 0.72756 1.04978 0.74995
 O1508 O 0.72861 1.04314 0.78390
 O1509 O 0.70149 1.00390 0.72699
 O1510 O 0.70599 0.96979 0.73030
 O1511 O 0.77298 0.99913 0.80121
 O1512 O 0.77205 1.03189 0.79429
 O1513 O 0.79819 0.97562 0.75386
 O1514 O 0.79140 0.97849 0.72043
 O1515 O 0.74947 0.95141 0.77596
 O1516 O 0.71686 0.95880 0.77381
 Zr1517 Zr 0.73867 0.97850 0.77443
 O1518 O 0.72135 0.99523 0.75788
 Zr1519 Zr 0.77146 0.97720 0.74199
 O1520 O 0.75552 0.99379 0.72389
 Zr1521 Zr 0.77226 1.01029 0.77435
 O1522 O 0.75655 1.02839 0.75777
 Zr1523 Zr 0.72716 0.99037 0.72971
 O1524 O 0.74294 0.97190 0.74622
 Zr1525 Zr 0.72811 1.02331 0.76214
 O1526 O 0.74387 1.00669 0.78047
 Zr1527 Zr 0.76092 1.02198 0.72964
 O1528 O 0.77848 1.00533 0.74625
 O1529 O 0.76691 0.98228 0.76997
 O1530 O 0.73258 1.01846 0.73405
 C1531 C 0.76331 0.98646 0.80925
 C1532 C 0.76219 0.94295 0.76671
 C1533 C 0.80635 0.98493 0.76681
 C1534 C 0.73436 1.01613 0.69591
 C1535 C 0.69423 1.01772 0.73563
 C1536 C 0.73700 1.05725 0.73681
 H1537 H 0.70820 0.99271 0.76087
 H1538 H 0.76005 1.04135 0.76075
 H1539 H 0.77456 0.97422 0.77800
 H1540 H 0.75818 0.99054 0.71083
 H1541 H 0.73335 0.95855 0.71435
 H1542 H 0.76445 0.95922 0.71160
 H1543 H 0.73978 1.05099 0.78223
 H1544 H 0.75983 1.03129 0.80055
 H1545 H 0.69741 0.97266 0.74062
 H1546 H 0.71715 0.95301 0.76134
 H1547 H 0.78237 1.04900 0.74034
 H1548 H 0.79931 1.03001 0.76163
 H1549 H 0.71800 0.99229 0.80013
 H1550 H 0.69937 1.01360 0.78168
 H1551 H 0.79852 0.99014 0.72225
 H1552 H 0.77962 1.01028 0.70107
 O1553 O 0.70028 0.52402 0.24825
 O1554 O 0.70677 0.52202 0.28103
 O1555 O 0.74942 0.54913 0.22668
 O1556 O 0.78012 0.54337 0.22700
 O1557 O 0.72591 0.50103 0.20029
 O1558 O 0.72706 0.46827 0.20710
 O1559 O 0.79750 0.49719 0.27465
 O1560 O 0.79315 0.52968 0.27069
 O1561 O 0.75105 0.47516 0.29805
 O1562 O 0.71648 0.47850 0.29167
 O1563 O 0.77158 0.45022 0.25092
 O1564 O 0.77131 0.45753 0.21751
 O1565 O 0.79698 0.47440 0.25275
 O1566 O 0.79153 0.47694 0.21839
 O1567 O 0.74953 0.45091 0.27344
 O1568 O 0.71627 0.45804 0.27225
 O1569 O 0.77340 0.49751 0.29830
 O1570 O 0.77111 0.53135 0.29236
 O1571 O 0.70018 0.50166 0.22585
 O1572 O 0.70614 0.46874 0.22764
 O1573 O 0.74839 0.52332 0.20068
 O1574 O 0.78153 0.51946 0.20760
 O1575 O 0.72674 0.54925 0.24868
 O1576 O 0.72783 0.54247 0.28132
 Zr1577 Zr 0.72711 0.52236 0.25990
 O1578 O 0.74310 0.50582 0.27786
 Zr1579 Zr 0.75998 0.52189 0.22744
 O1580 O 0.77749 0.50532 0.24401
 Zr1581 Zr 0.72674 0.48973 0.22719
 O1582 O 0.74265 0.47168 0.24365
 Zr1583 Zr 0.77143 0.50989 0.27211
 O1584 O 0.75553 0.52822 0.25568
 Zr1585 Zr 0.73820 0.47768 0.27188
 O1586 O 0.72042 0.49421 0.25538
 Zr1587 Zr 0.77105 0.47712 0.23947
 O1588 O 0.75507 0.49368 0.22121
 O1589 O 0.73181 0.51773 0.23186
 O1590 O 0.76648 0.48172 0.26757
 C1591 C 0.69246 0.51495 0.23494
 C1592 C 0.73630 0.55710 0.23583
 C1593 C 0.73523 0.51421 0.19265
 C1594 C 0.80470 0.48317 0.26630
 C1595 C 0.76473 0.48381 0.30569
 C1596 C 0.76240 0.44271 0.26425
 H1597 H 0.74004 0.50881 0.29088
 H1598 H 0.73934 0.45871 0.24051
 H1599 H 0.72409 0.52586 0.22396
 H1600 H 0.79068 0.50812 0.24139
 H1601 H 0.78786 0.54092 0.26483
 H1602 H 0.79113 0.53893 0.23388
 H1603 H 0.71709 0.45061 0.26071
 H1604 H 0.69986 0.46973 0.23983
 H1605 H 0.76044 0.52925 0.30073
 H1606 H 0.74034 0.54819 0.28094
 H1607 H 0.75980 0.45004 0.21844
 H1608 H 0.73927 0.46902 0.20082
 H1609 H 0.70067 0.50969 0.28037
 H1610 H 0.71948 0.48825 0.30091
 H1611 H 0.77958 0.50752 0.20102
 H1612 H 0.80023 0.48733 0.22082
 O1613 O 0.50013 0.20085 0.72582
 O1614 O 0.46776 0.20833 0.72809
 O1615 O 0.52310 0.24948 0.70051
 O1616 O 0.52454 0.27995 0.70645
 O1617 O 0.54922 0.22461 0.74771
 O1618 O 0.54343 0.22665 0.78059
 O1619 O 0.47838 0.29950 0.75204
 O1620 O 0.48006 0.29377 0.71991
 O1621 O 0.45281 0.25307 0.77554
 O1622 O 0.45798 0.21870 0.77245
 O1623 O 0.50059 0.27338 0.79930
 O1624 O 0.53349 0.27177 0.79273
 O1625 O 0.50001 0.29813 0.77503
 O1626 O 0.53467 0.29057 0.77173
 O1627 O 0.47748 0.25180 0.79901
 O1628 O 0.47835 0.21770 0.79190
 O1629 O 0.45359 0.27631 0.75429
 O1630 O 0.45793 0.27234 0.71966
 O1631 O 0.52243 0.19993 0.74821
 O1632 O 0.52186 0.20667 0.78111
 O1633 O 0.54943 0.24725 0.72577
 O1634 O 0.54361 0.28100 0.73020
 O1635 O 0.50048 0.22730 0.70062
 O1636 O 0.46778 0.22953 0.70797
 Zr1637 Zr 0.48952 0.22809 0.72765
 O1638 O 0.47231 0.24465 0.74453
 Zr1639 Zr 0.52319 0.25988 0.72779
 O1640 O 0.50737 0.27799 0.74444
 Zr1641 Zr 0.52267 0.22677 0.75981
 O1642 O 0.50706 0.24341 0.77809
 Zr1643 Zr 0.47895 0.27278 0.74035
 O1644 O 0.49471 0.25633 0.72183
 Zr1645 Zr 0.47862 0.23973 0.77251
 O1646 O 0.49419 0.22137 0.75568
 Zr1647 Zr 0.51214 0.27162 0.77252
 O1648 O 0.52966 0.25487 0.75583
 O1649 O 0.51778 0.23187 0.73192
 O1650 O 0.48383 0.26784 0.76835
 C1651 C 0.51298 0.19247 0.73496
 C1652 C 0.51350 0.23658 0.69264
 C1653 C 0.55697 0.23360 0.73439
 C1654 C 0.48717 0.30653 0.76591
 C1655 C 0.44595 0.26757 0.76779
 C1656 C 0.48681 0.26489 0.80683
 H1657 H 0.45912 0.24198 0.74180
 H1658 H 0.51019 0.24019 0.79104
 H1659 H 0.52519 0.22379 0.72364
 H1660 H 0.51052 0.29102 0.74150
 H1661 H 0.48568 0.28810 0.70871
 H1662 H 0.51688 0.29063 0.71042
 H1663 H 0.48907 0.21941 0.80033
 H1664 H 0.50936 0.20092 0.78058
 H1665 H 0.44815 0.26342 0.72338
 H1666 H 0.46853 0.24203 0.70233
 H1667 H 0.53324 0.25958 0.79900
 H1668 H 0.55003 0.23870 0.77968
 H1669 H 0.46796 0.20267 0.74058
 H1670 H 0.44908 0.22143 0.76236
 H1671 H 0.55113 0.27813 0.74133
 H1672 H 0.53190 0.30001 0.76218
 O1673 O 0.25296 0.77434 0.45146
 O1674 O 0.22012 0.77192 0.45748
 O1675 O 0.27401 0.79994 0.50046
 O1676 O 0.27327 0.79452 0.53111
 O1677 O 0.30088 0.75179 0.47788
 O1678 O 0.29410 0.71911 0.47862
 O1679 O 0.22573 0.74716 0.54830
 O1680 O 0.22947 0.77994 0.54404
 O1681 O 0.20286 0.72498 0.50172
 O1682 O 0.20935 0.72766 0.46767
 O1683 O 0.25030 0.70098 0.52326
 O1684 O 0.28386 0.70890 0.52282
 O1685 O 0.24807 0.72492 0.54816
 O1686 O 0.28244 0.72833 0.54315
 O1687 O 0.22801 0.70100 0.50090
 O1688 O 0.22958 0.70824 0.46728
 O1689 O 0.20231 0.74735 0.52404
 O1690 O 0.20800 0.78125 0.52177
 O1691 O 0.27559 0.75232 0.45164
 O1692 O 0.27365 0.71938 0.45764
 O1693 O 0.30022 0.77427 0.50014
 O1694 O 0.29278 0.77078 0.53313
 O1695 O 0.25202 0.79967 0.47775
 O1696 O 0.21932 0.79234 0.47855
 Zr1697 Zr 0.24100 0.77260 0.47812
 O1698 O 0.22303 0.75583 0.49399
 Zr1699 Zr 0.27321 0.77279 0.51126
 O1700 O 0.25661 0.75610 0.52870
 Zr1701 Zr 0.27393 0.74041 0.47818
 O1702 O 0.25755 0.72221 0.49410
 Zr1703 Zr 0.22847 0.76010 0.52234
 O1704 O 0.24490 0.77863 0.50653
 Zr1705 Zr 0.22927 0.72774 0.48932
 O1706 O 0.24572 0.74447 0.47162
 Zr1707 Zr 0.26153 0.72797 0.52245
 O1708 O 0.27972 0.74466 0.50651
 O1709 O 0.26908 0.76838 0.48310
 O1710 O 0.23336 0.73201 0.51757
 C1711 C 0.26649 0.76550 0.44381
 C1712 C 0.26484 0.80773 0.48729
 C1713 C 0.30847 0.76497 0.48732
 C1714 C 0.23420 0.73329 0.55562
 C1715 C 0.19504 0.73356 0.51530
 C1716 C 0.23718 0.69314 0.51399
 H1717 H 0.20999 0.75863 0.49079
 H1718 H 0.26085 0.70927 0.49092
 H1719 H 0.27707 0.77655 0.47548
 H1720 H 0.25907 0.75901 0.54189
 H1721 H 0.23523 0.79128 0.53882
 H1722 H 0.26624 0.79011 0.54204
 H1723 H 0.24090 0.70060 0.46864
 H1724 H 0.26156 0.72034 0.45116
 H1725 H 0.19977 0.77903 0.51099
 H1726 H 0.21963 0.79821 0.49098
 H1727 H 0.28271 0.70091 0.51168
 H1728 H 0.30019 0.71978 0.49093
 H1729 H 0.22081 0.75951 0.45159
 H1730 H 0.20076 0.73816 0.46979
 H1731 H 0.29950 0.75892 0.53136
 H1732 H 0.27968 0.73859 0.55188
 O1733 O 0.29988 0.25127 0.97622
 O1734 O 0.29324 0.21854 0.97738
 O1735 O 0.25141 0.27396 0.95171
 O1736 O 0.22078 0.27380 0.95706
 O1737 O 0.27480 0.29894 1.00029
 O1738 O 0.27387 0.29147 1.03267
 O1739 O 0.20222 0.22561 1.00176
 O1740 O 0.20732 0.22910 0.96962
 O1741 O 0.24952 0.20046 1.02336
 O1742 O 0.28294 0.20690 1.02202
 O1743 O 0.22746 0.24733 1.04925
 O1744 O 0.22863 0.28059 1.04367
 O1745 O 0.20235 0.24769 1.02437
 O1746 O 0.20968 0.28180 1.02321
 O1747 O 0.24972 0.22503 1.04873
 O1748 O 0.28370 0.22687 1.04151
 O1749 O 0.22685 0.20089 1.00140
 O1750 O 0.22886 0.20751 0.96806
 O1751 O 0.30050 0.27327 0.99896
 O1752 O 0.29424 0.27040 1.03190
 O1753 O 0.25225 0.29939 0.97816
 O1754 O 0.21899 0.29227 0.98151
 O1755 O 0.27372 0.25162 0.95084
 O1756 O 0.27203 0.21867 0.95712
 Zr1757 Zr 0.27304 0.23981 0.97754
 O1758 O 0.25694 0.22170 0.99382
 Zr1759 Zr 0.24061 0.27255 0.97872
 O1760 O 0.22286 0.25568 0.99468
 Zr1761 Zr 0.27379 0.27176 1.01087
 O1762 O 0.25736 0.25523 1.02851
 Zr1763 Zr 0.22867 0.22754 0.98973
 O1764 O 0.24471 0.24436 0.97178
 Zr1765 Zr 0.26160 0.22708 1.02210
 O1766 O 0.27968 0.24358 1.00578
 Zr1767 Zr 0.22903 0.25970 1.02293
 O1768 O 0.24551 0.27814 1.00700
 O1769 O 0.26872 0.26781 0.98280
 O1770 O 0.23328 0.23150 1.01803
 C1771 C 0.30799 0.26429 0.98545
 C1772 C 0.26437 0.26489 0.94344
 C1773 C 0.26540 0.30709 0.98753
 C1774 C 0.19447 0.23458 1.01509
 C1775 C 0.23599 0.19290 1.01442
 C1776 C 0.23653 0.23398 1.05676
 H1777 H 0.26000 0.20872 0.99058
 H1778 H 0.26051 0.25808 1.04156
 H1779 H 0.27652 0.27589 0.97490
 H1780 H 0.20977 0.25858 0.99174
 H1781 H 0.21268 0.23543 0.95867
 H1782 H 0.20982 0.26649 0.96099
 H1783 H 0.28210 0.23765 1.04990
 H1784 H 0.30061 0.25833 1.03034
 H1785 H 0.24002 0.19966 0.96949
 H1786 H 0.25972 0.21963 0.95107
 H1787 H 0.24044 0.27983 1.05064
 H1788 H 0.26151 0.29747 1.03250
 H1789 H 0.29965 0.21918 0.98953
 H1790 H 0.28217 0.20002 1.01015
 H1791 H 0.22136 0.29924 0.99314
 H1792 H 0.20097 0.27989 1.01275
 C1793 C 0.29669 0.40254 0.77210
 C1794 C 0.28691 0.39235 0.78546
 C1795 C 0.26848 0.39778 0.78928
 C1796 C 0.26114 0.41417 0.78162
 C1797 C 0.27200 0.42545 0.76986
 C1798 C 0.28943 0.41870 0.76454
 C1799 C 0.30787 0.42824 0.76473
 C1800 C 0.31586 0.41057 0.77293
 H1801 H 0.25997 0.38989 0.79880
 H1802 H 0.24734 0.41849 0.78573
 H1803 H 0.30831 0.44025 0.77447
 H1804 H 0.31302 0.43119 0.75051
 H1805 H 0.32101 0.41236 0.78738
 H1806 H 0.32559 0.40335 0.76338
 C1807 C 0.28833 -0.10311 0.26709
 C1808 C 0.28487 -0.10956 0.28499
 C1809 C 0.27450 -0.09751 0.29659
 C1810 C 0.26797 -0.08018 0.28999
 C1811 C 0.27154 -0.07435 0.27155
 C1812 C 0.28191 -0.08654 0.26071
 C1813 C 0.28851 -0.08994 0.24145
 C1814 C 0.29593 -0.10863 0.24866
 H1815 H 0.27151 -0.10129 0.31079
 H1816 H 0.26031 -0.07132 0.29942
 H1817 H 0.29957 -0.08011 0.23714
 H1818 H 0.27680 -0.09149 0.23149
 H1819 H 0.31135 -0.10945 0.24871
 H1820 H 0.28860 -0.12087 0.24269
 C1821 C 0.78610 0.89640 0.76926
 C1822 C 0.78287 0.88997 0.78725
 C1823 C 0.77073 0.90114 0.79812
 C1824 C 0.76333 0.91800 0.79117
 C1825 C 0.76751 0.92420 0.77301
 C1826 C 0.77859 0.91237 0.76247
 C1827 C 0.78740 0.91024 0.74394
 C1828 C 0.79615 0.89235 0.75161
 H1829 H 0.76737 0.89745 0.81225
 H1830 H 0.75491 0.92644 0.80032
 H1831 H 0.79761 0.92135 0.74089
 H1832 H 0.77697 0.90767 0.73284
 H1833 H 0.81148 0.89335 0.75325
 H1834 H 0.79098 0.87950 0.74472
 C1835 C 0.47901 0.84929 0.29562
 C1836 C 0.46507 0.85908 0.28630
 C1837 C 0.46050 0.85320 0.26815
 C1838 C 0.46799 0.83669 0.26077
 C1839 C 0.48027 0.82574 0.27135
 C1840 C 0.48639 0.83303 0.28833
 C1841 C 0.48735 0.82404 0.30693
 C1842 C 0.47932 0.84182 0.31494
 H1843 H 0.45048 0.86076 0.25994
 H1844 H 0.46337 0.83203 0.24722
 H1845 H 0.50190 0.82145 0.31138
 H1846 H 0.47780 0.81193 0.30812
 H1847 H 0.48929 0.84944 0.32398
 H1848 H 0.46517 0.83999 0.32085
 C1849 C -0.02257 0.84797 0.79599
 C1850 C -0.03660 0.85785 0.78696
 C1851 C -0.04154 0.85206 0.76885
 C1852 C -0.03410 0.83565 0.76119
 C1853 C -0.02165 0.82466 0.77150
 C1854 C -0.01534 0.83178 0.78848
 C1855 C -0.01421 0.82260 0.80700
 C1856 C -0.02209 0.84033 0.81525
 H1857 H -0.05168 0.85972 0.76088
 H1858 H -0.03883 0.83112 0.74763
 H1859 H 0.00037 0.81991 0.81128
 H1860 H -0.02379 0.81051 0.80817
 H1861 H -0.01201 0.84785 0.82426
 H1862 H -0.03618 0.83849 0.82131
 C1863 C -0.02133 -0.09978 -0.04605
 C1864 C -0.03561 -0.10934 -0.03694
 C1865 C -0.03992 -0.10369 -0.01867
 C1866 C -0.03189 -0.08750 -0.01100
 C1867 C -0.01932 -0.07666 -0.02141
 C1868 C -0.01344 -0.08383 -0.03850
 C1869 C -0.01216 -0.07459 -0.05696
 C1870 C -0.02070 -0.09205 -0.06527
 H1871 H -0.05014 -0.11116 -0.01060
 H1872 H -0.03636 -0.08295 0.00261
 H1873 H 0.00248 -0.07228 -0.06131
 H1874 H -0.02134 -0.06224 -0.05802
 H1875 H -0.01092 -0.09979 -0.07436
 H1876 H -0.03476 -0.08979 -0.07125
 C1877 C -0.04118 0.39820 0.48042
 C1878 C -0.03220 0.38875 0.46592
 C1879 C -0.01511 0.39630 0.45969
 C1880 C -0.00856 0.41353 0.46644
 C1881 C -0.01892 0.42375 0.47954
 C1882 C -0.03472 0.41520 0.48698
 C1883 C -0.05386 0.42274 0.48923
 C1884 C -0.06100 0.40420 0.48210
 H1885 H -0.00701 0.38936 0.44913
 H1886 H 0.00413 0.41921 0.46071
 H1887 H -0.05670 0.43444 0.47962
 H1888 H -0.05737 0.42539 0.50402
 H1889 H -0.06813 0.40519 0.46844
 H1890 H -0.06866 0.39621 0.49284
 C1891 C 0.46339 -0.10337 0.48045
 C1892 C 0.46733 -0.11002 0.46262
 C1893 C 0.48018 -0.09917 0.45229
 C1894 C 0.48747 -0.08229 0.45946
 C1895 C 0.48233 -0.07570 0.47727
 C1896 C 0.47065 -0.08727 0.48739
 C1897 C 0.46022 -0.08853 0.50514
 C1898 C 0.45181 -0.10659 0.49731
 H1899 H 0.48423 -0.10317 0.43841
 H1900 H 0.49654 -0.07410 0.45070
 H1901 H 0.44996 -0.07721 0.50686
 H1902 H 0.46957 -0.09074 0.51721
 H1903 H 0.43668 -0.10547 0.49436
 H1904 H 0.45610 -0.11923 0.50501
 C1905 C 0.44959 0.40574 -0.03330
 C1906 C 0.46158 0.39173 -0.03958
 C1907 C 0.48089 0.39462 -0.03729
 C1908 C 0.48776 0.41139 -0.02974
 C1909 C 0.47550 0.42563 -0.02439
 C1910 C 0.45643 0.42240 -0.02612
 C1911 C 0.44278 0.43363 -0.03697
 C1912 C 0.43499 0.41553 -0.04434
 H1913 H 0.49075 0.38408 -0.04142
 H1914 H 0.50263 0.41338 -0.02847
 H1915 H 0.44954 0.44224 -0.04787
 H1916 H 0.43277 0.44127 -0.02821
 H1917 H 0.43682 0.41381 -0.05958
 H1918 H 0.42075 0.41252 -0.03917
 C1919 C 0.79288 0.35007 0.47882
 C1920 C 0.78272 0.36041 0.46588
 C1921 C 0.76669 0.35201 0.45822
 C1922 C 0.76039 0.33464 0.46460
 C1923 C 0.76994 0.32517 0.47879
 C1924 C 0.78668 0.33291 0.48504
 C1925 C 0.79322 0.33651 0.50436
 C1926 C 0.79998 0.35533 0.49761
 H1927 H 0.75865 0.35893 0.44764
 H1928 H 0.74785 0.32884 0.45859
 H1929 H 0.80471 0.32706 0.50841
 H1930 H 0.78159 0.33743 0.51448
 H1931 H 0.81536 0.35667 0.49790
 H1932 H 0.79229 0.36720 0.50381
 C1933 C 0.76860 0.85014 -0.04331
 C1934 C 0.78234 0.85996 -0.03358
 C1935 C 0.78681 0.85376 -0.01556
 C1936 C 0.77939 0.83698 -0.00872
 C1937 C 0.76726 0.82612 -0.01972
 C1938 C 0.76125 0.83367 -0.03655
 C1939 C 0.76056 0.82501 -0.05540
 C1940 C 0.76866 0.84300 -0.06281
 H1941 H 0.79666 0.86134 -0.00705
 H1942 H 0.78394 0.83204 0.00471
 H1943 H 0.74607 0.82240 -0.06011
 H1944 H 0.77012 0.81296 -0.05681
 H1945 H 0.75884 0.85069 -0.07187
 H1946 H 0.78294 0.84141 -0.06849
 C1947 C 0.76952 0.29300 0.39870
 C1948 C 0.78389 0.28404 0.38913
 C1949 C 0.78917 0.26627 0.39541
 C1950 C 0.78188 0.25901 0.41205
 C1951 C 0.76909 0.26934 0.42272
 C1952 C 0.76235 0.28585 0.41506
 C1953 C 0.76059 0.30465 0.42366
 C1954 C 0.76840 0.31251 0.40577
 H1955 H 0.79957 0.25832 0.38805
 H1956 H 0.78707 0.24584 0.41704
 H1957 H 0.76999 0.30659 0.43577
 H1958 H 0.74585 0.30853 0.42612
 H1959 H 0.78230 0.31910 0.40752
 H1960 H 0.75813 0.32093 0.39795
 C1961 C 0.79224 0.77036 -0.10083
 C1962 C 0.78397 0.78534 -0.10997
 C1963 C 0.76651 0.79142 -0.10344
 C1964 C 0.75878 0.78395 -0.08710
 C1965 C 0.76841 0.77034 -0.07686
 C1966 C 0.78472 0.76315 -0.08466
 C1967 C 0.80342 0.76045 -0.07608
 C1968 C 0.81167 0.76830 -0.09379
 H1969 H 0.75917 0.80246 -0.11045
 H1970 H 0.74583 0.78959 -0.08197
 H1971 H 0.80669 0.74553 -0.07395
 H1972 H 0.80573 0.76951 -0.06374
 H1973 H 0.81969 0.75787 -0.10185
 H1974 H 0.81881 0.78188 -0.09170
 C1975 C 0.27641 0.45130 0.84598
 C1976 C 0.28773 0.46200 0.85773
 C1977 C 0.29325 0.47967 0.85126
 C1978 C 0.28608 0.48688 0.83459
 C1979 C 0.27337 0.47653 0.82378
 C1980 C 0.26953 0.45834 0.82944
 C1981 C 0.25137 0.44858 0.83160
 C1982 C 0.25882 0.44091 0.84975
 H1983 H 0.30255 0.48833 0.85932
 H1984 H 0.29019 0.50073 0.83043
 H1985 H 0.24926 0.43773 0.82078
 H1986 H 0.23957 0.45835 0.83347
 H1987 H 0.26089 0.42562 0.84937
 H1988 H 0.25136 0.44624 0.86217
 C1989 C 0.27386 -0.04641 0.34777
 C1990 C 0.28933 -0.03841 0.35656
 C1991 C 0.29867 -0.02405 0.34702
 C1992 C 0.29147 -0.01682 0.33037
 C1993 C 0.27471 -0.02373 0.32281
 C1994 C 0.26680 -0.03930 0.33132
 C1995 C 0.24720 -0.04280 0.33703
 C1996 C 0.25488 -0.05054 0.35506
 H1997 H 0.31126 -0.01795 0.35257
 H1998 H 0.29885 -0.00554 0.32370
 H1999 H 0.24038 -0.05352 0.32818
 H2000 H 0.23915 -0.02976 0.33891
 H2001 H 0.25238 -0.06571 0.35658
 H2002 H 0.25132 -0.04200 0.36743
 C2003 C -0.04110 -0.02006 -0.10043
 C2004 C -0.03317 -0.03546 -0.10942
 C2005 C -0.01600 -0.04192 -0.10237
 C2006 C -0.00860 -0.03473 -0.08569
 C2007 C -0.01827 -0.02107 -0.07551
 C2008 C -0.03387 -0.01315 -0.08393
 C2009 C -0.05261 -0.00931 -0.07608
 C2010 C -0.06063 -0.01678 -0.09410
 H2011 H -0.00859 -0.05309 -0.10914
 H2012 H 0.00407 -0.04069 -0.08025
 H2013 H -0.05508 0.00579 -0.07403
 H2014 H -0.05575 -0.01822 -0.06393
 H2015 H -0.06771 -0.00591 -0.10241
 H2016 H -0.06867 -0.02987 -0.09229
 C2017 C -0.02033 0.45555 0.39994
 C2018 C -0.03523 0.46417 0.39079
 C2019 C -0.04098 0.48163 0.39774
 C2020 C -0.03349 0.48887 0.41434
 C2021 C -0.02011 0.47885 0.42450
 C2022 C -0.01305 0.46268 0.41636
 C2023 C -0.01046 0.44387 0.42457
 C2024 C -0.01841 0.43600 0.40667
 H2025 H -0.05175 0.48950 0.39089
 H2026 H -0.03895 0.50183 0.41967
 H2027 H -0.01953 0.44146 0.43682
 H2028 H 0.00445 0.44046 0.42665
 H2029 H -0.03204 0.42893 0.40857
 H2030 H -0.00804 0.42800 0.39852
 C2031 C 0.45866 -0.01830 0.39833
 C2032 C 0.46711 -0.03313 0.38901
 C2033 C 0.48475 -0.03884 0.39539
 C2034 C 0.49225 -0.03154 0.41199
 C2035 C 0.48227 -0.01836 0.42252
 C2036 C 0.46601 -0.01116 0.41466
 C2037 C 0.44723 -0.00851 0.42305
 C2038 C 0.43916 -0.01628 0.40516
 H2039 H 0.49232 -0.04964 0.38819
 H2040 H 0.50523 -0.03710 0.41711
 H2041 H 0.44393 0.00640 0.42529
 H2042 H 0.44480 -0.01764 0.43524
 H2043 H 0.43122 -0.00580 0.39713
 H2044 H 0.43201 -0.02987 0.40699
 C2045 C 0.45351 0.48084 -0.10114
 C2046 C 0.46302 0.46703 -0.11100
 C2047 C 0.48134 0.46296 -0.10541
 C2048 C 0.48873 0.47067 -0.08899
 C2049 C 0.47795 0.48267 -0.07787
 C2050 C 0.46080 0.48845 -0.08496
 C2051 C 0.44222 0.48904 -0.07578
 C2052 C 0.43423 0.48073 -0.09346
 H2053 H 0.48962 0.45302 -0.11304
 H2054 H 0.50236 0.46626 -0.08443
 H2055 H 0.43754 0.50351 -0.07317
 H2056 H 0.44127 0.47956 -0.06365
 H2057 H 0.42489 0.49042 -0.10096
 H2058 H 0.42861 0.46645 -0.09157
 C2059 C 0.45677 0.76980 0.35016
 C2060 C 0.46490 0.78514 0.35900
 C2061 C 0.48210 0.79149 0.35203
 C2062 C 0.48943 0.78413 0.33543
 C2063 C 0.47961 0.77043 0.32529
 C2064 C 0.46392 0.76267 0.33375
 C2065 C 0.44505 0.75875 0.32608
 C2066 C 0.43719 0.76665 0.34399
 H2067 H 0.48950 0.80270 0.35885
 H2068 H 0.50217 0.79002 0.33000
 H2069 H 0.44255 0.74358 0.32453
 H2070 H 0.44176 0.76728 0.31367
 H2071 H 0.42997 0.75605 0.35256
 H2072 H 0.42943 0.77983 0.34199
 C2073 C -0.04637 0.77072 0.84816
 C2074 C -0.03723 0.78488 0.85796
 C2075 C -0.01912 0.78968 0.85220
 C2076 C -0.01163 0.78219 0.83575
 C2077 C -0.02213 0.76977 0.82473
 C2078 C -0.03903 0.76342 0.83193
 C2079 C -0.05768 0.76213 0.82290
 C2080 C -0.06575 0.77003 0.84070
 H2081 H -0.01105 0.79987 0.85982
 H2082 H 0.00187 0.78698 0.83115
 H2083 H -0.06193 0.74751 0.82022
 H2084 H -0.05908 0.77165 0.81086
 H2085 H -0.07459 0.75990 0.84828
 H2086 H -0.07192 0.78406 0.83896
 C2087 C 0.39677 0.76767 0.28673
 C2088 C 0.38967 0.78520 0.28275
 C2089 C 0.40121 0.79681 0.27181
 C2090 C 0.41885 0.79064 0.26553
 C2091 C 0.42545 0.77263 0.26989
 C2092 C 0.41359 0.76169 0.28052
 C2093 C 0.41121 0.74274 0.28837
 C2094 C 0.39225 0.74952 0.29556
 H2095 H 0.39686 0.81073 0.26830
 H2096 H 0.42736 0.80008 0.25750
 H2097 H 0.42133 0.73968 0.29955
 H2098 H 0.41007 0.73195 0.27736
 H2099 H 0.39157 0.75053 0.31094
 H2100 H 0.38023 0.74250 0.28880
 C2101 C -0.09995 0.79422 0.77024
 C2102 C -0.11018 0.78472 0.78375
 C2103 C -0.10407 0.76672 0.78857
 C2104 C -0.08717 0.75964 0.78162
 C2105 C -0.07599 0.77037 0.76963
 C2106 C -0.08332 0.78724 0.76341
 C2107 C -0.07451 0.80603 0.76291
 C2108 C -0.09268 0.81369 0.77036
 H2109 H -0.11190 0.75834 0.79826
 H2110 H -0.08246 0.74618 0.78633
 H2111 H -0.07142 0.81058 0.74852
 H2112 H -0.06276 0.80740 0.77287
 H2113 H -0.10003 0.82266 0.76022
 H2114 H -0.09146 0.81956 0.78460
 C2115 C 0.85065 0.27163 0.45577
 C2116 C 0.85998 0.28621 0.46478
 C2117 C 0.85071 0.29494 0.47968
 C2118 C 0.83359 0.28801 0.48622
 C2119 C 0.82531 0.27213 0.47808
 C2120 C 0.83379 0.26483 0.46221
 C2121 C 0.83877 0.24524 0.45767
 C2122 C 0.85725 0.25264 0.45063
 H2123 H 0.85676 0.30687 0.48658
 H2124 H 0.82706 0.29494 0.49786
 H2125 H 0.82984 0.23940 0.44648
 H2126 H 0.84009 0.23641 0.47023
 H2127 H 0.85893 0.25095 0.43539
 H2128 H 0.86934 0.24811 0.45909
 C2129 C 0.84714 0.79482 -0.02246
 C2130 C 0.85706 0.78552 -0.03635
 C2131 C 0.85146 0.76720 -0.04079
 C2132 C 0.83515 0.75956 -0.03308
 C2133 C 0.82414 0.77006 -0.02072
 C2134 C 0.83109 0.78730 -0.01488
 C2135 C 0.82165 0.80576 -0.01417
 C2136 C 0.83920 0.81400 -0.02245
 H2137 H 0.85911 0.75907 -0.05086
 H2138 H 0.83064 0.74591 -0.03760
 H2139 H 0.81905 0.81045 0.00030
 H2140 H 0.80945 0.80654 -0.02364
 H2141 H 0.84665 0.82344 -0.01271
 H2142 H 0.83715 0.81957 -0.03669
 C2143 C -0.09839 -0.02309 -0.04336
 C2144 C -0.10652 -0.03932 -0.03639
 C2145 C -0.09614 -0.04965 -0.02341
 C2146 C -0.07912 -0.04283 -0.01648
 C2147 C -0.07209 -0.02547 -0.02228
 C2148 C -0.08168 -0.01634 -0.03644
 C2149 C -0.08787 0.00336 -0.03763
 C2150 C -0.10620 -0.00398 -0.04524
 H2151 H -0.10125 -0.06280 -0.01826
 H2152 H -0.07167 -0.05103 -0.00634
 H2153 H -0.07974 0.01138 -0.04799
 H2154 H -0.08918 0.01007 -0.02377
 H2155 H -0.10856 -0.00014 -0.05997
 H2156 H -0.11818 -0.00149 -0.03583
 C2157 C -0.10049 0.45556 0.47938
 C2158 C -0.10855 0.46268 0.46320
 C2159 C -0.09778 0.47512 0.45257
 C2160 C -0.08050 0.48160 0.45911
 C2161 C -0.07355 0.47582 0.47646
 C2162 C -0.08346 0.46199 0.48583
 C2163 C -0.08948 0.46116 0.50560
 C2164 C -0.10815 0.45413 0.49857
 H2165 H -0.10280 0.48031 0.43943
 H2166 H -0.07284 0.49145 0.45073
 H2167 H -0.09020 0.47513 0.51221
 H2168 H -0.08164 0.45058 0.51358
 H2169 H -0.11975 0.46399 0.50112
 H2170 H -0.11103 0.43950 0.50257
 C2171 C 0.39892 -0.04109 0.48111
 C2172 C 0.39016 -0.03331 0.46556
 C2173 C 0.39794 -0.01668 0.45849
 C2174 C 0.41496 -0.00972 0.46534
 C2175 C 0.42472 -0.01921 0.47939
 C2176 C 0.41570 -0.03424 0.48777
 C2177 C 0.42281 -0.05314 0.49218
 C2178 C 0.40452 -0.06072 0.48489
 H2179 H 0.39147 -0.00939 0.44710
 H2180 H 0.42096 0.00244 0.45884
 H2181 H 0.42459 -0.05514 0.50736
 H2182 H 0.43494 -0.05712 0.48348
 H2183 H 0.39591 -0.06722 0.49591
 H2184 H 0.40605 -0.06912 0.47201
 C2185 C 0.39284 0.46610 -0.01405
 C2186 C 0.38570 0.47074 -0.03157
 C2187 C 0.39502 0.48529 -0.04101
 C2188 C 0.41221 0.49220 -0.03455
 C2189 C 0.42055 0.48486 -0.01843
 C2190 C 0.40944 0.47324 -0.00750
 C2191 C 0.41307 0.45672 0.00441
 C2192 C 0.39507 0.44851 -0.00333
 H2193 H 0.38996 0.49056 -0.05409
 H2194 H 0.41951 0.50227 -0.04296
 H2195 H 0.41210 0.46025 0.01941
 H2196 H 0.42570 0.44883 0.00058
 H2197 H 0.38412 0.44677 0.00740
 H2198 H 0.39743 0.43625 -0.01246
 C2199 C 0.34927 0.47901 0.79433
 C2200 C 0.35921 0.46543 0.78456
 C2201 C 0.35321 0.46121 0.76636
 C2202 C 0.33657 0.46876 0.75930
 C2203 C 0.32561 0.48075 0.77027
 C2204 C 0.33295 0.48648 0.78734
 C2205 C 0.32392 0.48677 0.80595
 C2206 C 0.34171 0.47860 0.81365
 H2207 H 0.36075 0.45136 0.75789
 H2208 H 0.33180 0.46435 0.74573
 H2209 H 0.31190 0.47708 0.80675
 H2210 H 0.32122 0.50114 0.81091
 H2211 H 0.33994 0.46423 0.81902
 H2212 H 0.34920 0.48829 0.82309
 C2213 C 0.34956 -0.04420 0.27049
 C2214 C 0.35892 -0.03531 0.28508
 C2215 C 0.35260 -0.01750 0.29033
 C2216 C 0.33609 -0.01018 0.28279
 C2217 C 0.32557 -0.02048 0.26978
 C2218 C 0.33335 -0.03696 0.26304
 C2219 C 0.32484 -0.05573 0.26065
 C2220 C 0.34251 -0.06369 0.26890
 H2221 H 0.35980 -0.00955 0.30089
 H2222 H 0.33107 0.00302 0.28796
 H2223 H 0.32300 -0.05928 0.24576
 H2224 H 0.31239 -0.05784 0.26953
 H2225 H 0.35061 -0.07206 0.25878
 H2226 H 0.34033 -0.07035 0.28264
 C2227 C 0.14872 0.51994 0.70776
 C2228 C 0.13861 0.53349 0.71738
 C2229 C 0.14728 0.54184 0.73292
 C2230 C 0.16462 0.53550 0.73937
 C2231 C 0.17376 0.52060 0.73051
 C2232 C 0.16580 0.51370 0.71414
 C2233 C 0.16180 0.49415 0.70845
 C2234 C 0.14311 0.50097 0.70144
 H2235 H 0.14064 0.55303 0.74039
 H2236 H 0.17068 0.54212 0.75147
 H2237 H 0.16068 0.48459 0.72049
 H2238 H 0.17116 0.48938 0.69715
 H2239 H 0.13110 0.49535 0.70936
 H2240 H 0.14176 0.50009 0.68609
 C2241 C 0.14725 0.01742 0.21069
 C2242 C 0.13783 0.03183 0.21972
 C2243 C 0.14528 0.03825 0.23672
 C2244 C 0.16268 0.03191 0.24306
 C2245 C 0.17300 0.01899 0.23256
 C2246 C 0.16437 0.01119 0.21694
 C2247 C 0.17160 0.00872 0.19768
 C2248 C 0.15289 0.01555 0.19081
 H2249 H 0.13817 0.04877 0.24474
 H2250 H 0.16844 0.03789 0.25563
 H2251 H 0.17422 -0.00612 0.19431
 H2252 H 0.18325 0.01836 0.19445
 H2253 H 0.14480 0.00462 0.18343
 H2254 H 0.15367 0.02914 0.18357
 C2255 C 0.60089 0.72955 0.20738
 C2256 C 0.61047 0.71536 0.21654
 C2257 C 0.60400 0.71021 0.23431
 C2258 C 0.58728 0.71752 0.24142
 C2259 C 0.57673 0.73023 0.23096
 C2260 C 0.58449 0.73677 0.21441
 C2261 C 0.57593 0.73827 0.19560
 C2262 C 0.59385 0.73037 0.18787
 H2263 H 0.61126 0.69989 0.24239
 H2264 H 0.58216 0.71245 0.25459
 H2265 H 0.57350 0.75294 0.19153
 H2266 H 0.56380 0.72882 0.19377
 H2267 H 0.60170 0.74053 0.17932
 H2268 H 0.59211 0.71638 0.18150
 C2269 C 0.10155 0.73255 0.70847
 C2270 C 0.11156 0.71896 0.71806
 C2271 C 0.10502 0.71389 0.73582
 C2272 C 0.08782 0.72053 0.74245
 C2273 C 0.07684 0.73245 0.73150
 C2274 C 0.08467 0.73911 0.71503
 C2275 C 0.07650 0.74001 0.69600
 C2276 C 0.09495 0.73283 0.68879
 H2277 H 0.11263 0.70409 0.74424
 H2278 H 0.08272 0.71554 0.75566
 H2279 H 0.07354 0.75452 0.69171
 H2280 H 0.06484 0.73003 0.69400
 H2281 H 0.10256 0.74322 0.68031
 H2282 H 0.09398 0.71870 0.68257
 C2283 C 0.65036 0.20495 0.52026
 C2284 C 0.64079 0.21460 0.53418
 C2285 C 0.64725 0.23258 0.53876
 C2286 C 0.66403 0.23940 0.53131
 C2287 C 0.67469 0.22844 0.51903
 C2288 C 0.66687 0.21170 0.51289
 C2289 C 0.67530 0.19281 0.51198
 C2290 C 0.65725 0.18538 0.51998
 H2291 H 0.63992 0.24105 0.54876
 H2292 H 0.66910 0.25280 0.53597
 H2293 H 0.68731 0.19134 0.52157
 H2294 H 0.67782 0.18823 0.49746
 H2295 H 0.65885 0.17946 0.53412
 H2296 H 0.64940 0.17652 0.51002
 C2297 C 0.64641 0.70788 0.01775
 C2298 C 0.63796 0.71570 0.03343
 C2299 C 0.64853 0.72839 0.04404
 C2300 C 0.66615 0.73431 0.03793
 C2301 C 0.67359 0.72777 0.02100
 C2302 C 0.66373 0.71382 0.01168
 C2303 C 0.65825 0.71248 -0.00825
 C2304 C 0.63929 0.70592 -0.00163
 H2305 H 0.64313 0.73407 0.05685
 H2306 H 0.67371 0.74432 0.04630
 H2307 H 0.66615 0.70156 -0.01576
 H2308 H 0.65791 0.72625 -0.01519
 H2309 H 0.63634 0.69120 -0.00534
 H2310 H 0.62791 0.71583 -0.00479
 C2311 C 0.10427 0.01621 0.04044
 C2312 C 0.11423 0.02973 0.03065
 C2313 C 0.10717 0.03514 0.01320
 C2314 C 0.08958 0.02895 0.00713
 C2315 C 0.07873 0.01712 0.01833
 C2316 C 0.08699 0.01006 0.03441
 C2317 C 0.07952 0.00906 0.05368
 C2318 C 0.09840 0.01579 0.06033
 H2319 H 0.11471 0.04488 0.00461
 H2320 H 0.08412 0.03419 -0.00584
 H2321 H 0.07635 -0.00544 0.05790
 H2322 H 0.06820 0.01924 0.05620
 H2323 H 0.10605 0.00513 0.06842
 H2324 H 0.09802 0.02985 0.06676
 C2325 C 0.10045 0.52181 0.54344
 C2326 C 0.10958 0.53676 0.53501
 C2327 C 0.10004 0.54612 0.52069
 C2328 C 0.08287 0.53946 0.51404
 C2329 C 0.07477 0.52325 0.52150
 C2330 C 0.08349 0.51528 0.53689
 C2331 C 0.08859 0.49552 0.54032
 C2332 C 0.10718 0.50263 0.54747
 H2333 H 0.10592 0.55834 0.51427
 H2334 H 0.07616 0.54684 0.50282
 H2335 H 0.08971 0.48728 0.52729
 H2336 H 0.07987 0.48913 0.55132
 H2337 H 0.11913 0.49853 0.53860
 H2338 H 0.10913 0.50025 0.56258
 C2339 C 0.60221 0.04317 0.51999
 C2340 C 0.60982 0.03643 0.53655
 C2341 C 0.59854 0.02461 0.54739
 C2342 C 0.58125 0.01829 0.54073
 C2343 C 0.57477 0.02359 0.52305
 C2344 C 0.58515 0.03690 0.51343
 C2345 C 0.59151 0.03703 0.49376
 C2346 C 0.61021 0.04388 0.50090
 H2347 H 0.60317 0.01973 0.56078
 H2348 H 0.57320 0.00891 0.54928
 H2349 H 0.58403 0.04754 0.48534
 H2350 H 0.59206 0.02287 0.48756
 H2351 H 0.61345 0.05833 0.49653
 H2352 H 0.62164 0.03372 0.49884
 C2353 C 0.59850 0.54341 0.01992
 C2354 C 0.60804 0.53417 0.03407
 C2355 C 0.60170 0.51623 0.03889
 C2356 C 0.58506 0.50905 0.03133
 C2357 C 0.57438 0.51968 0.01885
 C2358 C 0.58211 0.53636 0.01254
 C2359 C 0.57358 0.55517 0.01122
 C2360 C 0.59150 0.56292 0.01925
 H2361 H 0.60904 0.50807 0.04911
 H2362 H 0.58006 0.49568 0.03609
 H2363 H 0.56148 0.55680 0.02066
 H2364 H 0.57113 0.55938 -0.00341
 H2365 H 0.58975 0.56916 0.03327
 H2366 H 0.59938 0.57158 0.00922
 C2367 C 0.02069 0.04070 0.10194
 C2368 C 0.03555 0.03235 0.11128
 C2369 C 0.04503 0.01793 0.10197
 C2370 C 0.03873 0.01126 0.08467
 C2371 C 0.02284 0.01888 0.07614
 C2372 C 0.01451 0.03413 0.08486
 C2373 C -0.00539 0.03708 0.08981
 C2374 C 0.00134 0.04434 0.10846
 H2375 H 0.05710 0.01148 0.10812
 H2376 H 0.04619 -0.00004 0.07814
 H2377 H -0.01332 0.02384 0.09081
 H2378 H -0.01201 0.04794 0.08114
 H2379 H -0.00274 0.03536 0.12032
 H2380 H -0.00137 0.05941 0.11044
 C2381 C 0.04327 0.52093 0.60035
 C2382 C 0.03336 0.53403 0.61075
 C2383 C 0.01746 0.54191 0.60238
 C2384 C 0.01098 0.53548 0.58506
 C2385 C 0.02019 0.52100 0.57562
 C2386 C 0.03687 0.51462 0.58327
 C2387 C 0.04322 0.49525 0.58687
 C2388 C 0.05026 0.50214 0.60556
 H2389 H 0.00969 0.55273 0.60928
 H2390 H -0.00144 0.54165 0.57928
 H2391 H 0.05456 0.49100 0.57732
 H2392 H 0.03149 0.48523 0.58799
 H2393 H 0.06566 0.50182 0.60669
 H2394 H 0.04267 0.49611 0.61755
 C2395 C 0.52121 0.04435 0.59917
 C2396 C 0.53596 0.03582 0.60860
 C2397 C 0.54177 0.01826 0.60188
 C2398 C 0.53448 0.01083 0.58526
 C2399 C 0.52122 0.02074 0.57486
 C2400 C 0.51412 0.03703 0.58275
 C2401 C 0.51166 0.05576 0.57430
 C2402 C 0.51940 0.06383 0.59219
 H2403 H 0.55247 0.01046 0.60892
 H2404 H 0.53997 -0.00219 0.58010
 H2405 H 0.49678 0.05917 0.57200
 H2406 H 0.52089 0.05802 0.56214
 H2407 H 0.50893 0.07194 0.60012
 H2408 H 0.53306 0.07086 0.59037
 C2409 C 0.54526 0.52129 0.09696
 C2410 C 0.53594 0.53523 0.10686
 C2411 C 0.51764 0.53946 0.10129
 C2412 C 0.51006 0.53162 0.08499
 C2413 C 0.52059 0.51933 0.07393
 C2414 C 0.53779 0.51358 0.08090
 C2415 C 0.55625 0.51284 0.07153
 C2416 C 0.56447 0.52124 0.08908
 H2417 H 0.50945 0.54945 0.10896
 H2418 H 0.49638 0.53602 0.08056
 H2419 H 0.55708 0.52225 0.05935
 H2420 H 0.56085 0.49834 0.06893
 H2421 H 0.57015 0.53547 0.08704
 H2422 H 0.57381 0.51153 0.09656
 C2423 C 0.20602 0.52185 0.65019
 C2424 C 0.21465 0.53681 0.64123
 C2425 C 0.22903 0.54608 0.65089
 C2426 C 0.23556 0.53934 0.66799
 C2427 C 0.22795 0.52310 0.67589
 C2428 C 0.21247 0.51522 0.66708
 C2429 C 0.20880 0.49550 0.66179
 C2430 C 0.20176 0.50272 0.64328
 H2431 H 0.23562 0.55829 0.64516
 H2432 H 0.24682 0.54671 0.67479
 H2433 H 0.19769 0.48916 0.67042
 H2434 H 0.22174 0.48719 0.66061
 H2435 H 0.18661 0.50044 0.64128
 H2436 H 0.21062 0.49861 0.63133
 C2437 C 0.20717 0.01991 0.14872
 C2438 C 0.21572 0.03496 0.13983
 C2439 C 0.22955 0.04470 0.14981
 C2440 C 0.23571 0.03833 0.16719
 C2441 C 0.22824 0.02201 0.17509
 C2442 C 0.21325 0.01363 0.16589
 C2443 C 0.21026 -0.00623 0.16071
 C2444 C 0.20359 0.00061 0.14192
 H2445 H 0.23600 0.05701 0.14414
 H2446 H 0.24659 0.04603 0.17422
 H2447 H 0.19908 -0.01280 0.16906
 H2448 H 0.22345 -0.01420 0.15999
 H2449 H 0.18855 -0.00207 0.13952
 H2450 H 0.21287 -0.00343 0.13027
 C2451 C 0.70451 0.22467 0.59684
 C2452 C 0.71376 0.21056 0.60649
 C2453 C 0.72905 0.20214 0.59758
 C2454 C 0.73585 0.20909 0.58064
 C2455 C 0.72754 0.22465 0.57217
 C2456 C 0.71119 0.23145 0.58013
 C2457 C 0.70571 0.25090 0.58466
 C2458 C 0.69842 0.24353 0.60300
 H2459 H 0.73623 0.19059 0.60388
 H2460 H 0.74793 0.20259 0.57452
 H2461 H 0.69455 0.25603 0.57533
 H2462 H 0.71787 0.26035 0.58622
 H2463 H 0.68306 0.24455 0.60421
 H2464 H 0.70634 0.24869 0.61524
 C2465 C 0.70230 0.72580 0.09709
 C2466 C 0.71049 0.71044 0.10572
 C2467 C 0.72470 0.70115 0.09592
 C2468 C 0.73165 0.70833 0.07918
 C2469 C 0.72461 0.72502 0.07177
 C2470 C 0.70914 0.73284 0.08053
 C2471 C 0.70565 0.75244 0.08630
 C2472 C 0.69821 0.74476 0.10447
 H2473 H 0.73091 0.68864 0.10134
 H2474 H 0.74286 0.70102 0.07233
 H2475 H 0.69476 0.75910 0.07765
 H2476 H 0.71868 0.76062 0.08795
 H2477 H 0.68306 0.74712 0.10627
 H2478 H 0.70693 0.74846 0.11669
 C2479 C 0.52208 0.70734 0.14954
 C2480 C 0.53485 0.71744 0.13889
 C2481 C 0.54276 0.73346 0.14713
 C2482 C 0.53659 0.73988 0.16459
 C2483 C 0.52237 0.73045 0.17425
 C2484 C 0.51608 0.71364 0.16671
 C2485 C 0.49675 0.70680 0.16358
 C2486 C 0.50326 0.69991 0.14474
 H2487 H 0.55332 0.74137 0.13997
 H2488 H 0.54267 0.75245 0.17026
 H2489 H 0.48646 0.71827 0.16273
 H2490 H 0.49301 0.69537 0.17324
 H2491 H 0.49676 0.70737 0.13292
 H2492 H 0.50313 0.68451 0.14359
 C2493 C 0.02259 0.70603 0.64996
 C2494 C 0.03558 0.71600 0.63948
 C2495 C 0.04313 0.73226 0.64760
 C2496 C 0.03653 0.73894 0.66478
 C2497 C 0.02221 0.72955 0.67431
 C2498 C 0.01614 0.71260 0.66688
 C2499 C -0.00311 0.70575 0.66332
 C2500 C 0.00389 0.69856 0.64476
 H2501 H 0.05381 0.74014 0.64059
 H2502 H 0.04242 0.75163 0.67038
 H2503 H -0.01334 0.71722 0.66201
 H2504 H -0.00714 0.69447 0.67303
 H2505 H -0.00227 0.70585 0.63265
 H2506 H 0.00377 0.68314 0.64383
 C2507 C 0.54322 0.65036 0.22825
 C2508 C 0.53445 0.64120 0.21345
 C2509 C 0.51673 0.64764 0.20810
 C2510 C 0.50934 0.66406 0.21586
 C2511 C 0.51950 0.67435 0.22917
 C2512 C 0.53595 0.66649 0.23587
 C2513 C 0.55473 0.67506 0.23829
 C2514 C 0.56271 0.65741 0.22996
 H2515 H 0.50895 0.64059 0.19731
 H2516 H 0.49623 0.66923 0.21063
 H2517 H 0.55839 0.67701 0.25316
 H2518 H 0.55684 0.68750 0.22942
 H2519 H 0.57100 0.64925 0.24007
 H2520 H 0.56947 0.65962 0.21627
 C2521 C 0.01850 0.64771 0.70841
 C2522 C 0.03302 0.63843 0.71741
 C2523 C 0.04283 0.64836 0.73123
 C2524 C 0.03697 0.66613 0.73693
 C2525 C 0.02113 0.67446 0.72899
 C2526 C 0.01276 0.66526 0.71402
 C2527 C -0.00722 0.66082 0.71067
 C2528 C -0.00098 0.64160 0.70456
 H2529 H 0.05480 0.64238 0.73801
 H2530 H 0.04466 0.67312 0.74784
 H2531 H -0.01315 0.66919 0.69917
 H2532 H -0.01555 0.66076 0.72366
 H2533 H -0.00342 0.63893 0.68956
 H2534 H -0.00567 0.63034 0.71401
 C2535 C 0.01945 0.10023 0.04260
 C2536 C 0.03346 0.10997 0.03324
 C2537 C 0.03871 0.10326 0.01558
 C2538 C 0.03192 0.08610 0.00891
 C2539 C 0.01966 0.07530 0.01973
 C2540 C 0.01272 0.08337 0.03600
 C2541 C 0.01110 0.07547 0.05504
 C2542 C 0.01850 0.09389 0.06231
 H2543 H 0.04878 0.11068 0.00728
 H2544 H 0.03712 0.08084 -0.00418
 H2545 H 0.02073 0.06366 0.05740
 H2546 H -0.00361 0.07284 0.05894
 H2547 H 0.03243 0.09276 0.06889
 H2548 H 0.00804 0.10176 0.07049
 C2549 C 0.01735 0.60164 0.54238
 C2550 C 0.03065 0.61179 0.53245
 C2551 C 0.03503 0.60548 0.51440
 C2552 C 0.02817 0.58833 0.50780
 C2553 C 0.01670 0.57712 0.51905
 C2554 C 0.01056 0.58476 0.53585
 C2555 C 0.01028 0.57646 0.55479
 C2556 C 0.01771 0.59490 0.56197
 H2557 H 0.04453 0.61323 0.50573
 H2558 H 0.03273 0.58339 0.49435
 H2559 H 0.02032 0.56484 0.55630
 H2560 H -0.00408 0.57338 0.55956
 H2561 H 0.03204 0.59396 0.56769
 H2562 H 0.00760 0.60238 0.57091
 C2563 C 0.54407 0.10015 0.52118
 C2564 C 0.53497 0.10959 0.53552
 C2565 C 0.51725 0.10300 0.54081
 C2566 C 0.51017 0.08622 0.53349
 C2567 C 0.52066 0.07573 0.52072
 C2568 C 0.53709 0.08365 0.51400
 C2569 C 0.55597 0.07530 0.51233
 C2570 C 0.56365 0.09335 0.52012
 H2571 H 0.50920 0.11021 0.55124
 H2572 H 0.49702 0.08100 0.53862
 H2573 H 0.55996 0.07277 0.49764
 H2574 H 0.55788 0.06331 0.52181
 H2575 H 0.57205 0.10124 0.50986
 H2576 H 0.57019 0.09177 0.53401
 C2577 C 0.54080 0.60129 0.01897
 C2578 C 0.53381 0.60925 0.03528
 C2579 C 0.52195 0.59823 0.04630
 C2580 C 0.51589 0.58070 0.04004
 C2581 C 0.52152 0.57378 0.02259
 C2582 C 0.53478 0.58404 0.01279
 C2583 C 0.53494 0.58988 -0.00704
 C2584 C 0.54152 0.60882 -0.00031
 H2585 H 0.51695 0.60322 0.05955
 H2586 H 0.50646 0.57280 0.04868
 H2587 H 0.52081 0.59009 -0.01329
 H2588 H 0.54559 0.58231 -0.01524
 H2589 H 0.53123 0.62006 -0.00267
 H2590 H 0.55595 0.61213 -0.00472
 C2591 C 0.72829 0.15042 0.54432
 C2592 C 0.71549 0.13959 0.53434
 C2593 C 0.70803 0.14734 0.51798
 C2594 C 0.71457 0.16449 0.51119
 C2595 C 0.72864 0.17443 0.52063
 C2596 C 0.73463 0.16736 0.53767
 C2597 C 0.75389 0.16407 0.54457
 C2598 C 0.74698 0.14553 0.55187
 H2599 H 0.69753 0.14001 0.51007
 H2600 H 0.70885 0.16973 0.49834
 H2601 H 0.75786 0.17397 0.55576
 H2602 H 0.76416 0.16270 0.53313
 H2603 H 0.74704 0.14483 0.56728
 H2604 H 0.75327 0.13337 0.54471
 C2605 C 0.70432 0.64956 0.01950
 C2606 C 0.71331 0.64028 0.03398
 C2607 C 0.73111 0.64681 0.03916
 C2608 C 0.73832 0.66340 0.03165
 C2609 C 0.72791 0.67385 0.01879
 C2610 C 0.71141 0.66591 0.01213
 C2611 C 0.69257 0.67426 0.01017
 C2612 C 0.68478 0.65639 0.01818
 H2613 H 0.73914 0.63969 0.04964
 H2614 H 0.75156 0.66854 0.03672
 H2615 H 0.68871 0.67644 -0.00460
 H2616 H 0.69061 0.68649 0.01941
 H2617 H 0.67643 0.64828 0.00799
 H2618 H 0.67818 0.65829 0.03200
 C2619 C 0.22850 0.60096 0.70863
 C2620 C 0.21408 0.61054 0.71746
 C2621 C 0.20525 0.60160 0.73250
 C2622 C 0.21190 0.58451 0.73929
 C2623 C 0.22759 0.57595 0.73124
 C2624 C 0.23502 0.58416 0.71532
 C2625 C 0.25469 0.58883 0.71076
 C2626 C 0.24759 0.60727 0.70344
 H2627 H 0.19343 0.60787 0.73931
 H2628 H 0.20490 0.57818 0.75098
 H2629 H 0.26035 0.57965 0.69971
 H2630 H 0.26357 0.59026 0.72332
 H2631 H 0.24928 0.60867 0.68818
 H2632 H 0.25235 0.61944 0.71174
 C2633 C 0.20670 0.10069 0.23107
 C2634 C 0.21579 0.11023 0.21678
 C2635 C 0.23365 0.10397 0.21169
 C2636 C 0.24085 0.08734 0.21902
 C2637 C 0.23039 0.07667 0.23168
 C2638 C 0.21380 0.08434 0.23830
 C2639 C 0.19498 0.07574 0.24001
 C2640 C 0.18717 0.09363 0.23210
 H2641 H 0.24170 0.11133 0.20137
 H2642 H 0.25409 0.08233 0.21394
 H2643 H 0.19101 0.07339 0.25472
 H2644 H 0.19305 0.06354 0.23068
 H2645 H 0.17868 0.10153 0.24229
 H2646 H 0.18070 0.09180 0.21819
 C2647 C 0.71021 1.10207 0.73247
 C2648 C 0.71919 1.11123 0.71788
 C2649 C 0.73627 1.10382 0.71172
 C2650 C 0.74272 1.08663 0.71849
 C2651 C 0.73224 1.07652 0.73159
 C2652 C 0.71657 1.08518 0.73910
 C2653 C 0.69734 1.07775 0.74147
 C2654 C 0.69035 1.09624 0.73429
 H2655 H 0.74422 1.11075 0.70104
 H2656 H 0.75535 1.08086 0.71273
 H2657 H 0.69385 1.07527 0.75628
 H2658 H 0.69436 1.06598 0.73190
 H2659 H 0.68287 1.10443 0.74502
 H2660 H 0.68313 1.09513 0.72068
 C2661 C 0.70843 0.60119 0.23142
 C2662 C 0.71731 0.61054 0.21692
 C2663 C 0.73467 0.60365 0.21097
 C2664 C 0.74158 0.58671 0.21786
 C2665 C 0.73126 0.57633 0.23087
 C2666 C 0.71519 0.58450 0.23815
 C2667 C 0.69613 0.57655 0.24037
 C2668 C 0.68871 0.59483 0.23302
 H2669 H 0.74254 0.61082 0.20038
 H2670 H 0.75440 0.58129 0.21221
 H2671 H 0.69258 0.57409 0.25517
 H2672 H 0.69344 0.56459 0.23092
 H2673 H 0.68088 0.60288 0.24361
 H2674 H 0.68169 0.59347 0.21932
 C2675 C 0.54004 0.14774 0.73051
 C2676 C 0.53248 0.13941 0.71454
 C2677 C 0.51586 0.14720 0.70750
 C2678 C 0.50864 0.16385 0.71492
 C2679 C 0.51789 0.17324 0.72947
 C2680 C 0.53298 0.16419 0.73768
 C2681 C 0.55181 0.17148 0.74251
 C2682 C 0.55960 0.15354 0.73469
 H2683 H 0.50879 0.14103 0.69575
 H2684 H 0.49651 0.16992 0.70847
 H2685 H 0.55380 0.17291 0.75774
 H2686 H 0.55567 0.18391 0.73424
 H2687 H 0.56614 0.14471 0.74549
 H2688 H 0.56808 0.15562 0.72196
 C2689 C 1.01995 0.14931 0.20711
 C2690 C 1.03503 0.14040 0.21554
 C2691 C 1.04461 0.15026 0.22958
 C2692 C 1.03809 0.16753 0.23599
 C2693 C 1.02179 0.17544 0.22856
 C2694 C 1.01355 0.16639 0.21342
 C2695 C 0.99372 0.16111 0.21035
 C2696 C 1.00070 0.14242 0.20344
 H2697 H 1.05692 0.14458 0.23599
 H2698 H 1.04571 0.17449 0.24696
 H2699 H 0.98713 0.16956 0.19928
 H2700 H 0.98571 0.16021 0.22350
 H2701 H 0.99807 0.14015 0.18840
 H2702 H 0.99673 0.13064 0.21258
 C2703 C 0.20963 0.64859 0.51790
 C2704 C 0.21914 0.63880 0.53171
 C2705 C 0.23664 0.64574 0.53730
 C2706 C 0.24308 0.66307 0.53089
 C2707 C 0.23219 0.67379 0.51868
 C2708 C 0.21600 0.66564 0.51157
 C2709 C 0.19684 0.67341 0.51036
 C2710 C 0.18982 0.65477 0.51725
 H2711 H 0.24499 0.63828 0.54728
 H2712 H 0.25610 0.66845 0.53626
 H2713 H 0.19271 0.67641 0.49581
 H2714 H 0.19454 0.68492 0.52040
 H2715 H 0.18162 0.64706 0.50663
 H2716 H 0.18333 0.65551 0.53123
 C2717 C 0.23241 0.14772 1.04098
 C2718 C 0.21772 0.13840 1.03216
 C2719 C 0.20832 0.14788 1.01786
 C2720 C 0.21445 0.16540 1.01182
 C2721 C 0.22999 0.17409 1.02006
 C2722 C 0.23841 0.16508 1.03503
 C2723 C 0.25837 0.16022 1.03781
 C2724 C 0.25182 0.14132 1.04443
 H2725 H 0.19646 0.14170 1.01096
 H2726 H 0.20716 0.17197 1.00048
 H2727 H 0.26500 0.16865 1.04893
 H2728 H 0.26625 0.15965 1.02455
 H2729 H 0.25457 0.13897 1.05942
 H2730 H 0.25598 0.12972 1.03510
 C2731 C 0.20423 0.72679 0.59832
 C2732 C 0.21262 0.71188 0.60751
 C2733 C 0.22718 0.70265 0.59815
 C2734 C 0.23418 0.70952 0.58125
 C2735 C 0.22686 0.72581 0.57326
 C2736 C 0.21112 0.73352 0.58165
 C2737 C 0.20710 0.75318 0.58678
 C2738 C 0.19959 0.74587 0.60507
 H2739 H 0.23361 0.69047 0.60404
 H2740 H 0.24566 0.70231 0.57476
 H2741 H 0.19618 0.75934 0.57780
 H2742 H 0.21992 0.76170 0.58837
 H2743 H 0.18436 0.74793 0.60658
 H2744 H 0.20804 0.75013 0.61729
 C2745 C 0.23122 0.20536 1.10043
 C2746 C 0.21673 0.21433 1.10980
 C2747 C 0.21133 0.23195 1.10315
 C2748 C 0.21852 0.23892 1.08637
 C2749 C 0.23133 0.22848 1.07584
 C2750 C 0.23833 0.21227 1.08391
 C2751 C 0.24053 0.19332 1.07581
 C2752 C 0.23275 0.18572 1.09384
 H2753 H 0.20086 0.23998 1.11031
 H2754 H 0.21325 0.25199 1.08119
 H2755 H 0.25538 0.18975 1.07361
 H2756 H 0.23125 0.19093 1.06369
 H2757 H 0.24313 0.17770 1.10193
 H2758 H 0.21899 0.17885 1.09216
 C2759 C 0.72846 0.54433 0.15043
 C2760 C 0.71435 0.53507 0.14067
 C2761 C 0.70973 0.51691 0.14647
 C2762 C 0.71741 0.50946 0.16283
 C2763 C 0.72993 0.51997 0.17371
 C2764 C 0.73602 0.53698 0.16653
 C2765 C 0.73718 0.55558 0.17571
 C2766 C 0.72891 0.56365 0.15812
 H2767 H 0.69956 0.50876 0.13895
 H2768 H 0.71271 0.49596 0.16749
 H2769 H 0.75179 0.56000 0.17819
 H2770 H 0.72785 0.55678 0.18796
 H2771 H 0.73878 0.57275 0.15050
 H2772 H 0.71478 0.56954 0.16016
 C2773 C 0.70707 1.02070 0.65122
 C2774 C 0.71464 1.03666 0.64305
 C2775 C 0.72761 1.04697 0.65359
 C2776 C 0.73403 1.04035 0.67079
 C2777 C 0.72767 1.02322 0.67789
 C2778 C 0.71340 1.01418 0.66820
 C2779 C 0.71206 0.99439 0.66213
 C2780 C 0.70510 1.00149 0.64356
 H2781 H 0.73320 1.05993 0.64846
 H2782 H 0.74426 1.04849 0.67830
 H2783 H 0.70135 0.98656 0.66999
 H2784 H 0.72586 0.98753 0.66127
 H2785 H 0.69035 0.99776 0.64081
 H2786 H 0.71482 0.99871 0.63189
 C2787 C 0.51913 0.20768 0.64935
 C2788 C 0.53331 0.21697 0.63981
 C2789 C 0.53821 0.23493 0.64609
 C2790 C 0.53081 0.24205 0.66274
 C2791 C 0.51831 0.23138 0.67342
 C2792 C 0.51184 0.21470 0.66573
 C2793 C 0.51043 0.19587 0.67428
 C2794 C 0.51840 0.18816 0.65636
 H2795 H 0.54846 0.24309 0.63875
 H2796 H 0.53576 0.25536 0.66780
 H2797 H 0.49577 0.19163 0.67671
 H2798 H 0.51986 0.19416 0.68640
 H2799 H 0.50829 0.17945 0.64852
 H2800 H 0.53242 0.18194 0.65809
 C2801 C 1.02302 0.20534 0.15029
 C2802 C 1.03590 0.21530 0.13967
 C2803 C 1.04311 0.23188 0.14742
 C2804 C 1.03632 0.23884 0.16437
 C2805 C 1.02217 0.22941 0.17407
 C2806 C 1.01639 0.21219 0.16704
 C2807 C 0.99725 0.20501 0.16350
 C2808 C 1.00446 0.19752 0.14514
 H2809 H 1.05366 0.23982 0.14028
 H2810 H 1.04197 0.25176 0.16968
 H2811 H 0.98688 0.21632 0.16189
 H2812 H 0.99330 0.19390 0.17343
 H2813 H 0.99828 0.20447 0.13284
 H2814 H 1.00456 0.18209 0.14454
 C2815 C 0.60087 0.20519 0.72914
 C2816 C 0.60947 0.21304 0.71358
 C2817 C 0.59955 0.22685 0.70388
 C2818 C 0.58258 0.23364 0.71070
 C2819 C 0.57504 0.22686 0.72744
 C2820 C 0.58410 0.21192 0.73586
 C2821 C 0.58982 0.20938 0.75557
 C2822 C 0.60819 0.20201 0.74827
 H2823 H 0.60499 0.23281 0.69125
 H2824 H 0.57555 0.24442 0.70298
 H2825 H 0.58134 0.19862 0.76268
 H2826 H 0.59118 0.22278 0.76319
 H2827 H 0.61023 0.18701 0.75123
 H2828 H 0.62025 0.21110 0.75166
 C2829 C 1.10127 0.23120 0.20669
 C2830 C 1.11078 0.21695 0.21581
 C2831 C 1.10443 0.21192 0.23365
 C2832 C 1.08777 0.21930 0.24081
 C2833 C 1.07711 0.23189 0.23029
 C2834 C 1.08487 0.23843 0.21373
 C2835 C 1.07635 0.23998 0.19491
 C2836 C 1.09428 0.23208 0.18717
 H2837 H 1.11173 0.20160 0.24171
 H2838 H 1.08272 0.21430 0.25404
 H2839 H 1.07393 0.25466 0.19087
 H2840 H 1.06422 0.23054 0.19305
 H2841 H 1.10217 0.24226 0.17867
 H2842 H 1.09253 0.21812 0.18075
 C2843 C 0.15017 0.70608 0.51896
 C2844 C 0.14195 0.71325 0.53507
 C2845 C 0.15256 0.72585 0.54578
 C2846 C 0.16984 0.73238 0.53940
 C2847 C 0.17697 0.72655 0.52210
 C2848 C 0.16722 0.71259 0.51264
 C2849 C 0.16127 0.71165 0.49283
 C2850 C 0.14261 0.70451 0.49972
 H2851 H 0.14744 0.73106 0.55890
 H2852 H 0.17739 0.74230 0.54789
 H2853 H 0.16921 0.70109 0.48486
 H2854 H 0.16048 0.72558 0.48626
 H2855 H 0.13986 0.68984 0.49569
 H2856 H 0.13096 0.71428 0.49712
 C2857 C 0.14982 0.20707 1.01857
 C2858 C 0.14002 0.21634 1.03257
 C2859 C 0.14706 0.23370 1.03855
 C2860 C 0.16449 0.24014 1.03237
 C2861 C 0.17519 0.22944 1.01993
 C2862 C 0.16693 0.21348 1.01242
 C2863 C 0.17457 0.19432 1.01077
 C2864 C 0.15586 0.18725 1.01742
 H2865 H 0.13961 0.24194 1.04866
 H2866 H 0.16993 0.25300 1.03804
 H2867 H 0.18601 0.19175 1.02081
 H2868 H 0.17762 0.19050 0.99613
 H2869 H 0.15649 0.18042 1.03123
 H2870 H 0.14815 0.17937 1.00657
 C2871 C 0.65061 0.52203 0.20428
 C2872 C 0.64103 0.53640 0.21319
 C2873 C 0.64684 0.54133 0.23128
 C2874 C 0.66304 0.53357 0.23904
 C2875 C 0.67372 0.52066 0.22889
 C2876 C 0.66654 0.51440 0.21191
 C2877 C 0.67584 0.51287 0.19345
 C2878 C 0.65840 0.52119 0.18507
 H2879 H 0.63946 0.55179 0.23914
 H2880 H 0.66772 0.53845 0.25249
 H2881 H 0.67814 0.49818 0.18926
 H2882 H 0.68822 0.52207 0.19224
 H2883 H 0.65069 0.51125 0.17606
 H2884 H 0.66068 0.53518 0.17897
 C2885 C 0.65346 1.02659 0.70369
 C2886 C 0.64251 1.03928 0.71357
 C2887 C 0.64981 1.04616 0.73048
 C2888 C 0.66652 1.03911 0.73784
 C2889 C 0.67645 1.02507 0.72845
 C2890 C 0.66994 1.01974 0.71091
 C2891 C 0.66667 1.00084 0.70301
 C2892 C 0.64860 1.00828 0.69510
 H2893 H 0.64240 1.05652 0.73842
 H2894 H 0.67139 1.04437 0.75107
 H2895 H 0.66461 0.99011 0.71389
 H2896 H 0.67703 0.99726 0.69216
 H2897 H 0.63602 1.00187 0.70138
 H2898 H 0.64861 1.00887 0.67969
 C2899 C 0.84741 0.47686 0.29638
 C2900 C 0.85650 0.46180 0.28807
 C2901 C 0.84740 0.45284 0.27315
 C2902 C 0.83076 0.45994 0.26585
 C2903 C 0.82254 0.47599 0.27346
 C2904 C 0.83080 0.48370 0.28933
 C2905 C 0.83628 0.50337 0.29305
 C2906 C 0.85448 0.49594 0.30067
 H2907 H 0.85328 0.44066 0.26664
 H2908 H 0.82467 0.45312 0.25392
 H2909 H 0.82741 0.50993 0.30384
 H2910 H 0.83799 0.51159 0.28012
 H2911 H 0.85609 0.49837 0.31583
 H2912 H 0.86675 0.49981 0.29213
 C2913 C 0.84875 0.95503 0.77358
 C2914 C 0.85854 0.96434 0.78759
 C2915 C 0.85262 0.98243 0.79232
 C2916 C 0.83612 0.98975 0.78476
 C2917 C 0.82527 0.97918 0.77224
 C2918 C 0.83261 0.96230 0.76606
 C2919 C 0.82367 0.94363 0.76462
 C2920 C 0.84122 0.93566 0.77309
 H2921 H 0.86016 0.99061 0.80247
 H2922 H 0.83139 1.00321 0.78952
 H2923 H 0.82173 0.93948 0.74991
 H2924 H 0.81122 0.94216 0.77363
 H2925 H 0.84896 0.92654 0.76334
 H2926 H 0.83904 0.92978 0.78718
 C2927 C 0.40307 0.27394 0.79751
 C2928 C 0.39583 0.29086 0.79128
 C2929 C 0.40651 0.30105 0.77843
 C2930 C 0.42279 0.29349 0.77076
 C2931 C 0.42877 0.27550 0.77568
 C2932 C 0.41914 0.26646 0.78991
 C2933 C 0.41152 0.24717 0.79047
 C2934 C 0.39398 0.25533 0.79887
 H2935 H 0.40213 0.31466 0.77387
 H2936 H 0.43045 0.30162 0.76071
 H2937 H 0.41927 0.23814 0.80024
 H2938 H 0.40934 0.24116 0.77639
 H2939 H 0.39177 0.25108 0.81352
 H2940 H 0.38159 0.25399 0.78973
 C2941 C 0.90193 0.27385 0.29480
 C2942 C 0.89269 0.28865 0.28625
 C2943 C 0.90194 0.29764 0.27151
 C2944 C 0.91884 0.29070 0.26453
 C2945 C 0.92694 0.27456 0.27208
 C2946 C 0.91860 0.26705 0.28792
 C2947 C 0.91344 0.24743 0.29211
 C2948 C 0.89517 0.25484 0.29962
 H2949 H 0.89599 0.30973 0.26496
 H2950 H 0.92528 0.29776 0.25295
 H2951 H 0.92247 0.24133 0.30301
 H2952 H 0.91178 0.23881 0.27937
 H2953 H 0.89372 0.25292 0.31485
 H2954 H 0.88289 0.25052 0.29127
 C2955 C 0.35211 0.79374 0.48216
 C2956 C 0.36200 0.78408 0.46847
 C2957 C 0.35568 0.76611 0.46372
 C2958 C 0.33873 0.75928 0.47072
 C2959 C 0.32775 0.77027 0.48266
 C2960 C 0.33540 0.78702 0.48904
 C2961 C 0.32701 0.80596 0.48984
 C2962 C 0.34529 0.81334 0.48231
 H2963 H 0.36328 0.75767 0.45389
 H2964 H 0.33376 0.74589 0.46592
 H2965 H 0.32417 0.81050 0.50432
 H2966 H 0.31518 0.80763 0.48004
 H2967 H 0.35295 0.82213 0.49248
 H2968 H 0.34408 0.81930 0.46815
 C2969 C 0.34985 0.27072 0.95469
 C2970 C 0.35924 0.28560 0.96307
 C2971 C 0.35349 0.29100 0.98102
 C2972 C 0.33744 0.28319 0.98909
 C2973 C 0.32679 0.26985 0.97934
 C2974 C 0.33401 0.26312 0.96259
 C2975 C 0.32473 0.26066 0.94421
 C2976 C 0.34207 0.26891 0.93551
 H2977 H 0.36077 0.30188 0.98846
 H2978 H 0.33278 0.28845 1.00238
 H2979 H 0.31225 0.26960 0.94261
 H2980 H 0.32257 0.24577 0.94067
 H2981 H 0.33962 0.28256 0.92878
 H2982 H 0.34988 0.25871 0.92696
 C2983 C 0.76967 0.45571 0.34976
 C2984 C 0.78483 0.46410 0.35872
 C2985 C 0.79468 0.47784 0.34880
 C2986 C 0.78822 0.48418 0.33153
 C2987 C 0.77172 0.47698 0.32369
 C2988 C 0.76333 0.46195 0.33267
 C2989 C 0.74348 0.45888 0.33776
 C2990 C 0.75038 0.45207 0.35648
 H2991 H 0.80707 0.48418 0.35449
 H2992 H 0.79595 0.49507 0.32460
 H2993 H 0.73693 0.44774 0.32924
 H2994 H 0.73547 0.47204 0.33862
 H2995 H 0.74771 0.43703 0.35871
 H2996 H 0.74639 0.46127 0.36824
 C2997 C 0.79278 0.98059 0.85215
 C2998 C 0.78318 0.96702 0.86221
 C2999 C 0.76505 0.96237 0.85621
 C3000 C 0.75794 0.96947 0.83943
 C3001 C 0.76878 0.98143 0.82835
 C3002 C 0.78577 0.98757 0.83566
 C3003 C 0.80454 0.98810 0.82683
 C3004 C 0.81222 0.98046 0.84488
 H3005 H 0.75667 0.95259 0.86394
 H3006 H 0.74442 0.96480 0.83469
 H3007 H 0.80921 1.00253 0.82392
 H3008 H 0.80581 0.97825 0.81497
 H3009 H 0.82133 0.99051 0.85232
 H3010 H 0.81795 0.96619 0.84349
 C3011 C 0.27038 0.79265 0.39901
 C3012 C 0.28572 0.78460 0.39016
 C3013 C 0.29577 0.77110 0.40013
 C3014 C 0.28950 0.76480 0.41751
 C3015 C 0.27297 0.77179 0.42539
 C3016 C 0.26418 0.78640 0.41614
 C3017 C 0.24426 0.78857 0.41086
 C3018 C 0.25101 0.79544 0.39212
 H3019 H 0.30829 0.76507 0.39447
 H3020 H 0.29747 0.75422 0.42457
 H3021 H 0.23723 0.79950 0.41918
 H3022 H 0.23676 0.77506 0.41009
 H3023 H 0.24785 0.81035 0.38971
 H3024 H 0.24738 0.78597 0.38044
 C3025 C 0.27020 0.29511 0.90115
 C3026 C 0.28412 0.28595 0.89115
 C3027 C 0.28889 0.26782 0.89683
 C3028 C 0.28160 0.26032 0.91333
 C3029 C 0.26933 0.27076 0.92447
 C3030 C 0.26304 0.28772 0.91741
 C3031 C 0.26204 0.30635 0.92656
 C3032 C 0.26986 0.31445 0.90876
 H3033 H 0.29892 0.25975 0.88910
 H3034 H 0.28645 0.24685 0.91789
 H3035 H 0.27167 0.30769 0.93859
 H3036 H 0.24749 0.31067 0.92935
 H3037 H 0.28400 0.32050 0.91046
 H3038 H 0.25977 0.32341 0.90132
 C3039 C 0.45571 0.27263 0.84819
 C3040 C 0.46612 0.28431 0.85980
 C3041 C 0.48349 0.29058 0.85316
 C3042 C 0.49053 0.28413 0.83605
 C3043 C 0.48039 0.27123 0.82524
 C3044 C 0.46265 0.26628 0.83143
 C3045 C 0.45425 0.24747 0.83387
 C3046 C 0.44665 0.25439 0.85227
 H3047 H 0.49181 0.30020 0.86122
 H3048 H 0.50399 0.28903 0.83146
 H3049 H 0.46485 0.23635 0.83538
 H3050 H 0.44323 0.24460 0.82345
 H3051 H 0.45285 0.24733 0.86449
 H3052 H 0.43124 0.25536 0.85236
 C3053 C 0.98101 0.29370 0.35021
 C3054 C 0.96417 0.28745 0.35770
 C3055 C 0.95304 0.27579 0.34644
 C3056 C 0.95962 0.26917 0.32928
 C3057 C 0.97751 0.27404 0.32291
 C3058 C 0.98748 0.28717 0.33326
 C3059 C 1.00714 0.28680 0.33977
 C3060 C 1.00010 0.29394 0.35836
 H3061 H 0.93944 0.27130 0.35098
 H3062 H 0.95082 0.25995 0.32122
 H3063 H 1.01594 0.29705 0.33231
 H3064 H 1.01287 0.27249 0.34042
 H3065 H 1.00493 0.30827 0.36157
 H3066 H 1.00175 0.28378 0.36983
 C3067 C 0.47811 0.34750 0.79737
 C3068 C 0.46613 0.35856 0.78683
 C3069 C 0.46398 0.35395 0.76789
 C3070 C 0.47170 0.33747 0.76063
 C3071 C 0.48192 0.32537 0.77211
 C3072 C 0.48587 0.33139 0.79016
 C3073 C 0.48388 0.32127 0.80808
 C3074 C 0.47525 0.33881 0.81598
 H3075 H 0.45565 0.36253 0.75885
 H3076 H 0.46885 0.33377 0.74633
 H3077 H 0.49760 0.31801 0.81434
 H3078 H 0.47398 0.30941 0.80720
 H3079 H 0.48392 0.34539 0.82695
 H3080 H 0.46032 0.33713 0.81957
 C3081 C 0.98070 0.35090 0.29267
 C3082 C 0.96612 0.36028 0.28393
 C3083 C 0.96050 0.35380 0.26627
 C3084 C 0.96766 0.33712 0.25895
 C3085 C 0.98063 0.32660 0.26914
 C3086 C 0.98772 0.33447 0.28546
 C3087 C 0.98986 0.32607 0.30425
 C3088 C 0.98226 0.34406 0.31216
 H3089 H 0.94991 0.36101 0.25847
 H3090 H 0.96225 0.33198 0.24587
 H3091 H 1.00466 0.32362 0.30789
 H3092 H 0.98041 0.31403 0.30634
 H3093 H 0.99275 0.35200 0.32031
 H3094 H 0.96853 0.34238 0.31902
 C3095 C 0.26959 0.85149 0.45892
 C3096 C 0.28422 0.86093 0.46767
 C3097 C 0.28998 0.85432 0.48519
 C3098 C 0.28290 0.83749 0.49230
 C3099 C 0.26981 0.82698 0.48211
 C3100 C 0.26259 0.83497 0.46595
 C3101 C 0.26016 0.82673 0.44707
 C3102 C 0.26780 0.84479 0.43934
 H3103 H 0.30064 0.86152 0.49300
 H3104 H 0.28851 0.83223 0.50519
 H3105 H 0.24529 0.82438 0.44360
 H3106 H 0.26944 0.81465 0.44461
 H3107 H 0.25728 0.85278 0.43139
 H3108 H 0.28147 0.84316 0.43235
 C3109 C 0.29367 0.35108 0.98273
 C3110 C 0.28424 0.36066 0.96872
 C3111 C 0.26653 0.35399 0.96350
 C3112 C 0.25973 0.33705 0.97052
 C3113 C 0.27055 0.32638 0.98284
 C3114 C 0.28702 0.33433 0.98957
 C3115 C 0.30608 0.32625 0.99083
 C3116 C 0.31336 0.34457 0.98335
 H3117 H 0.25827 0.36132 0.95335
 H3118 H 0.24654 0.33185 0.96545
 H3119 H 0.30817 0.31438 0.98113
 H3120 H 0.31032 0.32360 1.00542
 H3121 H 0.31967 0.34334 0.96932
 H3122 H 0.32179 0.35245 0.99365
 C3123 C 0.78558 0.39553 0.26553
 C3124 C 0.78090 0.38895 0.28322
 C3125 C 0.76691 0.39872 0.29291
 C3126 C 0.76004 0.41571 0.28618
 C3127 C 0.76693 0.42340 0.26956
 C3128 C 0.77873 0.41224 0.25887
 C3129 C 0.79636 0.41670 0.24900
 C3130 C 0.80395 0.39846 0.25633
 H3131 H 0.76209 0.39404 0.30630
 H3132 H 0.75033 0.42337 0.29473
 H3133 H 0.80345 0.42905 0.25492
 H3134 H 0.79455 0.41679 0.23368
 H3135 H 0.81550 0.40039 0.26643
 H3136 H 0.80659 0.38810 0.24518
   
