data_POSCAR
  _audit_creation_date              2014-09-24
  _audit_creation_method            'ToBaCCo'
  _symmetry_space_group_name_H-M    'P1'
  _symmetry_Int_Tables_number       1
  _symmetry_cell_setting            triclinic
  loop_
  _symmetry_equiv_pos_as_xyz
 x,y,z
_cell_length_a 32.9912
_cell_length_b 33.2446
_cell_length_c 46.4309
_cell_angle_alpha 90.353000
_cell_angle_beta 90.112700
_cell_angle_gamma 89.990700
loop_
  _atom_site_label
  _atom_site_type_symbol
  _atom_site_fract_x
  _atom_site_fract_y
  _atom_site_fract_z
B1 B 0.26552 0.23201 0.22307
 B2 B 0.27744 0.27974 0.22974
 B3 B 0.22951 0.26711 0.22309
 B4 B 0.22026 0.22197 0.23789
 B5 B 0.26433 0.20694 0.25421
 B6 B 0.30016 0.24317 0.24866
 B7 B 0.23889 0.27663 0.27995
 B8 B 0.22707 0.22882 0.27329
 B9 B 0.27499 0.24150 0.27990
 B10 B 0.28420 0.28664 0.26514
 B11 B 0.24013 0.30168 0.24878
 B12 B 0.20427 0.26540 0.25433
 B13 B 0.72293 0.75733 0.27679
 B14 B 0.77143 0.77034 0.27336
 B15 B 0.75893 0.72212 0.27634
 B16 B 0.71517 0.71385 0.25867
 B17 B 0.70065 0.75899 0.24424
 B18 B 0.73591 0.79452 0.25395
 B19 B 0.77377 0.73782 0.22094
 B20 B 0.72545 0.72449 0.22420
 B21 B 0.73758 0.77291 0.22119
 B22 B 0.78143 0.78116 0.23891
 B23 B 0.79582 0.73595 0.25330
 B24 B 0.76080 0.70064 0.24374
 B25 B 0.73202 0.22849 -0.22235
 B26 B 0.71787 0.27613 -0.22682
 B27 B 0.76645 0.26526 -0.22074
 B28 B 0.77773 0.22167 -0.23763
 B29 B 0.73431 0.20592 -0.25463
 B30 B 0.69690 0.23999 -0.24747
 B31 B 0.75640 0.27846 -0.27716
 B32 B 0.77043 0.23084 -0.27266
 B33 B 0.72199 0.24177 -0.27868
 B34 B 0.71071 0.28527 -0.26189
 B35 B 0.75408 0.30115 -0.24485
 B36 B 0.79159 0.26697 -0.25210
 B37 B 0.25578 0.77929 -0.22139
 B38 B 0.27079 0.73231 -0.22739
 B39 B 0.22211 0.74197 -0.22108
 B40 B 0.21004 0.78604 -0.23646
 B41 B 0.25312 0.80334 -0.25281
 B42 B 0.29112 0.76966 -0.24672
 B43 B 0.23219 0.73163 -0.27784
 B44 B 0.21736 0.77880 -0.27177
 B45 B 0.26601 0.76893 -0.27805
 B46 B 0.27808 0.72485 -0.26266
 B47 B 0.23502 0.70749 -0.24626
 B48 B 0.19684 0.74131 -0.25244
 B49 B 1.24013 1.27599 0.72123
 B50 B 1.22496 1.22867 0.72509
 B51 B 1.27384 1.23852 0.72034
 B52 B 1.28528 1.28163 0.73773
 B53 B 1.24141 1.29805 0.75371
 B54 B 1.20362 1.26487 0.74533
 B55 B 1.26089 1.22472 0.77630
 B56 B 1.27614 1.27202 0.77247
 B57 B 1.22721 1.26209 0.77714
 B58 B 1.21581 1.21907 0.75979
 B59 B 1.25965 1.20259 0.74382
 B60 B 1.29751 1.23581 0.75224
 B61 B 0.77055 0.73470 0.78129
 B62 B 0.72236 0.72337 0.77440
 B63 B 0.73529 0.77072 0.78160
 B64 B 0.78093 0.77988 0.76694
 B65 B 0.79598 0.73633 0.75011
 B66 B 0.75921 0.70087 0.75525
 B67 B 0.72600 0.76233 0.72464
 B68 B 0.77415 0.77370 0.73149
 B69 B 0.76121 0.72635 0.72433
 B70 B 0.71564 0.71726 0.73894
 B71 B 0.70059 0.76078 0.75575
 B72 B 0.73732 0.79620 0.75065
 B73 B 1.24549 0.71696 0.27738
 B74 B 1.23159 0.76480 0.27415
 B75 B 1.28020 0.75347 0.27882
 B76 B 1.29047 0.71059 0.26097
 B77 B 1.24630 0.69557 0.24460
 B78 B 1.20928 0.72960 0.25333
 B79 B 1.26760 0.76900 0.22305
 B80 B 1.28174 0.72121 0.22630
 B81 B 1.23308 0.73243 0.22154
 B82 B 1.22268 0.77537 0.23951
 B83 B 1.26691 0.79031 0.25578
 B84 B 1.30381 0.75642 0.24709
 B85 B 0.77555 1.25922 0.22247
 B86 B 0.72737 1.27150 0.22791
 B87 B 0.73977 1.22379 0.22173
 B88 B 0.78449 1.21438 0.23764
 B89 B 0.79948 1.25815 0.25426
 B90 B 0.76358 1.29402 0.24768
 B91 B 0.72793 1.23398 0.27825
 B92 B 0.77613 1.22167 0.27278
 B93 B 0.76373 1.26940 0.27902
 B94 B 0.71895 1.27888 0.26303
 B95 B 0.70399 1.23506 0.24645
 B96 B 0.73987 1.19921 0.25302
 O97 O 0.55275 1.07340 0.05199
 O98 O 0.59808 1.03550 0.02579
 C99 C 0.58919 1.06227 0.04536
 O100 O 0.43969 0.93117 0.05347
 O101 O 0.39357 0.96731 0.02689
 C102 C 0.40303 0.94112 0.04656
 O103 O 0.55172 0.93384 0.05546
 O104 O 0.59761 0.96705 0.02695
 C105 C 0.58833 0.94284 0.04789
 O106 O 0.44073 1.07800 0.04961
 O107 O 0.39429 1.03886 0.02531
 C108 C 0.40400 1.06732 0.04340
 Zr109 Zr 0.49643 1.05422 0.03534
 O110 O 0.49326 1.05854 0.08078
 O111 O 0.50143 1.11753 0.03173
 Zr112 Zr 0.49570 0.95345 0.03883
 O113 O 0.49534 0.96270 0.08391
 O114 O 0.49466 0.89022 0.04404
 O115 O 0.53259 1.00388 0.04249
 O116 O 0.46048 1.00436 0.04255
 O117 O 0.43893 1.07030 -0.05190
 O118 O 0.39313 1.03560 -0.02422
 C119 C 0.40232 1.06091 -0.04449
 O120 O 0.55062 0.92735 -0.05010
 O121 O 0.59710 0.96515 -0.02478
 C122 C 0.58736 0.93806 -0.04391
 O123 O 0.43839 0.92506 -0.04719
 O124 O 0.39315 0.96494 -0.02250
 C125 C 0.40198 0.93659 -0.04085
 O126 O 0.55090 1.06653 -0.05474
 O127 O 0.59728 1.03349 -0.02641
 C128 C 0.58759 1.05733 -0.04751
 Zr129 Zr 0.49529 1.04905 -0.03671
 O130 O 0.49040 1.04754 -0.08218
 O131 O 0.50011 1.11260 -0.03699
 Zr132 Zr 0.49487 0.94782 -0.03335
 O133 O 0.49010 0.94275 -0.07871
 O134 O 0.49807 0.88445 -0.02951
 Zr135 Zr 0.55704 1.00065 0.00058
 Zr136 Zr 0.43426 1.00150 0.00123
 O137 O 0.45978 0.99827 -0.04026
 O138 O 0.53126 0.99782 -0.04103
 O139 O 0.45924 1.05984 -0.00075
 O140 O 0.53100 0.94300 0.00273
 O141 O 0.53175 1.05872 -0.00109
 O142 O 0.45877 0.94294 0.00314
 H143 H 0.44269 1.00547 0.05971
 H144 H 0.54942 0.91949 0.00309
 H145 H 0.44193 0.99724 -0.05743
 H146 H 0.55036 1.08209 -0.00178
 H147 H 0.50943 0.87799 0.02770
 H148 H 0.47500 0.87583 -0.01742
 H149 H 0.51074 0.96066 -0.08719
 H150 H 0.51072 1.02814 -0.08944
 H151 H 0.47537 1.12377 -0.02797
 H152 H 0.47696 1.12736 0.02163
 H153 H 0.51102 1.03732 0.08871
 H154 H 0.49409 0.93562 0.09267
 O155 O 1.05188 0.57202 0.55351
 O156 O 1.09784 0.53597 0.52658
 C157 C 1.08851 0.56169 0.54673
 O158 O 0.94020 0.43088 0.55364
 O159 O 0.89412 0.46657 0.52675
 C160 C 0.90355 0.44063 0.54654
 O161 O 1.05234 0.43450 0.55569
 O162 O 1.09804 0.46904 0.52786
 C163 C 1.08891 0.44447 0.54860
 O164 O 0.93987 0.57600 0.55071
 O165 O 0.89396 0.53736 0.52547
 C166 C 0.90327 0.56506 0.54428
 Zr167 Zr 0.99591 0.55386 0.53571
 O168 O 0.99544 0.56275 0.58087
 O169 O 0.99723 0.61663 0.52892
 Zr170 Zr 0.99616 0.45232 0.53811
 O171 O 0.99285 0.45358 0.58364
 O172 O 1.00068 0.38874 0.53781
 O173 O 1.03203 0.50343 0.54267
 O174 O 0.96079 0.50322 0.54233
 O175 O 0.93926 0.57060 0.44818
 O176 O 0.89356 0.53475 0.47514
 C177 C 0.90268 0.56053 0.45518
 O178 O 1.05197 0.42916 0.44955
 O179 O 1.09792 0.46649 0.47568
 C180 C 1.08854 0.43993 0.45610
 O181 O 0.93998 0.42556 0.45155
 O182 O 0.89399 0.46400 0.47669
 C183 C 0.90336 0.43614 0.45802
 O184 O 1.05121 0.56618 0.44520
 O185 O 1.09757 0.53338 0.47369
 C186 C 1.08795 0.55694 0.45243
 Zr187 Zr 0.99559 0.55035 0.46415
 O188 O 0.99343 0.55481 0.41878
 O189 O 0.99956 0.61388 0.46697
 Zr190 Zr 0.99588 0.44867 0.46614
 O191 O 0.99201 0.44506 0.42066
 O192 O 1.00041 0.38527 0.46915
 Zr193 Zr 1.05723 0.50131 0.50096
 Zr194 Zr 0.93439 0.50092 0.50102
 O195 O 0.96054 0.49909 0.45969
 O196 O 1.03165 0.49925 0.45926
 O197 O 0.95867 0.55969 0.49982
 O198 O 1.03190 0.44327 0.50226
 O199 O 1.03209 0.55943 0.49977
 O200 O 0.95925 0.44246 0.50231
 H201 H 0.94313 0.50386 0.55954
 H202 H 1.05047 0.41985 0.50279
 H203 H 0.94283 0.49801 0.44246
 H204 H 1.05103 0.58256 0.49927
 H205 H 0.97585 0.37788 0.52866
 H206 H 0.97589 0.37541 0.47910
 H207 H 1.01295 0.46315 0.41270
 H208 H 0.99022 0.52720 0.41116
 H209 H 0.97364 0.62402 0.47489
 H210 H 0.99819 0.62917 0.54831
 H211 H 0.98728 0.53701 0.58965
 H212 H 1.01295 0.47351 0.59060
 O213 O 0.93057 0.44430 -0.05224
 O214 O 0.96705 0.39852 -0.02577
 C215 C 0.94091 0.40791 -0.04572
 O216 O 1.07519 0.55463 -0.05067
 O217 O 1.03837 0.60067 -0.02435
 C218 C 1.06538 0.59112 -0.04360
 O219 O 1.07133 0.44328 -0.05316
 O220 O 1.03613 0.39800 -0.02551
 C221 C 1.06151 0.40706 -0.04592
 O222 O 0.92736 0.55527 -0.04936
 O223 O 0.96640 0.60074 -0.02415
 C224 C 0.93823 0.59156 -0.04274
 Zr225 Zr 0.95000 0.49970 -0.03481
 O226 O 0.94713 0.50297 -0.08027
 O227 O 0.88605 0.49557 -0.03196
 Zr228 Zr 1.05177 0.49906 -0.03660
 O229 O 1.04481 0.49954 -0.08186
 O230 O 1.11578 0.49997 -0.04020
 O231 O 1.00055 0.46320 -0.04134
 O232 O 1.00105 0.53465 -0.04104
 O233 O 0.93135 0.55648 0.05267
 O234 O 0.96859 0.60136 0.02611
 C235 C 0.94199 0.59264 0.04575
 O236 O 1.07358 0.44386 0.05257
 O237 O 1.03602 0.39827 0.02634
 C238 C 1.06260 0.40755 0.04605
 O239 O 1.07849 0.55486 0.04977
 O240 O 1.03960 0.60052 0.02500
 C241 C 1.06790 0.59122 0.04337
 O242 O 0.93336 0.44518 0.05454
 O243 O 0.96723 0.39890 0.02653
 C244 C 0.94259 0.40867 0.04730
 Zr245 Zr 0.95246 0.50040 0.03726
 O246 O 0.95236 0.50490 0.08278
 O247 O 0.88837 0.49663 0.03635
 Zr248 Zr 1.05457 0.49940 0.03555
 O249 O 1.05784 0.50411 0.08099
 O250 O 1.11849 0.49504 0.03279
 Zr251 Zr 1.00183 0.43859 0.00043
 Zr252 Zr 1.00270 0.56054 0.00041
 O253 O 1.00405 0.53493 0.04179
 O254 O 1.00339 0.46397 0.04221
 O255 O 0.94349 0.53659 0.00135
 O256 O 1.06036 0.46361 -0.00058
 O257 O 0.94361 0.46448 0.00130
 O258 O 1.06139 0.53538 -0.00060
 H259 H 1.00081 0.55234 -0.05813
 H260 H 1.08377 0.44497 -0.00055
 H261 H 1.00494 0.55253 0.05907
 H262 H 0.91981 0.44630 0.00148
 H263 H 1.12715 0.48146 -0.02570
 H264 H 1.12790 0.51665 0.01984
 H265 H 1.03849 0.48449 0.08904
 H266 H 0.97051 0.48372 0.09028
 H267 H 0.87790 0.52151 0.02744
 H268 H 0.87609 0.52022 -0.02225
 H269 H 0.96938 0.48610 -0.08794
 H270 H 1.07255 0.50067 -0.08996
 O271 O 0.57029 0.94526 0.55448
 O272 O 0.53539 0.89862 0.52728
 C273 C 0.56067 0.90867 0.54767
 O274 O 0.42630 1.05550 0.54906
 O275 O 0.46470 1.10054 0.52349
 C276 C 0.43691 1.09167 0.54230
 O277 O 0.43027 0.94472 0.55259
 O278 O 0.46719 0.89832 0.52669
 C279 C 0.44082 0.90823 0.54637
 O280 O 0.57323 1.05639 0.55124
 O281 O 0.53610 1.10092 0.52417
 C282 C 0.56288 1.09246 0.54383
 Zr283 Zr 0.55178 1.00015 0.53637
 O284 O 0.55245 1.00452 0.58184
 O285 O 0.61585 0.99620 0.53510
 Zr286 Zr 0.44972 0.99965 0.53527
 O287 O 0.45223 1.00249 0.58076
 O288 O 0.38567 0.99547 0.53470
 O289 O 0.50075 0.96410 0.54183
 O290 O 0.50043 1.03517 0.54082
 O291 O 0.57535 1.05339 0.44900
 O292 O 0.53701 1.09948 0.47407
 C293 C 0.56472 1.08985 0.45535
 O294 O 0.43338 0.94139 0.44604
 O295 O 0.46871 0.89682 0.47425
 C296 C 0.44386 0.90533 0.45339
 O297 O 0.42914 1.05318 0.44738
 O298 O 0.46613 1.09935 0.47347
 C299 C 0.43938 1.08970 0.45404
 O300 O 0.57160 0.94215 0.44720
 O301 O 0.53587 0.89715 0.47468
 C302 C 0.56134 0.90596 0.45429
 Zr303 Zr 0.55336 0.99807 0.46449
 O304 O 0.55853 1.00083 0.41914
 O305 O 0.61720 0.99362 0.46850
 Zr306 Zr 0.45079 0.99772 0.46330
 O307 O 0.44791 1.00074 0.41782
 O308 O 0.38683 0.99289 0.46553
 Zr309 Zr 0.50163 0.93804 0.50037
 Zr310 Zr 0.50114 1.05983 0.49919
 O311 O 0.50207 1.03255 0.45809
 O312 O 0.50231 0.96208 0.45839
 O313 O 0.56034 1.03573 0.50014
 O314 O 0.44306 0.96301 0.49953
 O315 O 0.56004 0.96340 0.50083
 O316 O 0.44218 1.03516 0.49883
 H317 H 0.49995 1.05320 0.55788
 H318 H 0.41953 0.94449 0.49943
 H319 H 0.50237 1.04940 0.44057
 H320 H 0.58359 0.94489 0.50117
 H321 H 0.37535 1.01723 0.52224
 H322 H 0.37606 1.01895 0.47251
 H323 H 0.46837 0.98183 0.41011
 H324 H 0.53625 0.98446 0.41098
 H325 H 0.62746 1.01970 0.47587
 H326 H 0.62626 1.02101 0.52606
 H327 H 0.52881 0.98918 0.58891
 H328 H 0.42378 1.00292 0.58758
 O329 O 1.07816 0.95282 0.54993
 O330 O 1.02976 0.98752 0.57548
 C331 C 1.06242 0.96624 0.57362
 O332 O 1.05730 1.07279 0.45379
 O333 O 1.03227 1.02140 0.42565
 C334 C 1.05182 1.05473 0.42934
 O335 O 1.05362 1.08716 0.53351
 O336 O 1.01794 1.05203 0.56757
 C337 C 1.04212 1.08042 0.55964
 O338 O 1.08382 0.92992 0.47115
 O339 O 1.04456 0.95389 0.43407
 C340 C 1.07409 0.93272 0.44422
 Zr341 Zr 1.05676 0.95755 0.50733
 O342 O 1.11986 0.96901 0.50694
 O343 O 1.06755 0.89669 0.51808
 Zr344 Zr 1.03898 1.05586 0.49539
 O345 O 1.10259 1.06318 0.49670
 O346 O 1.02986 1.11854 0.49091
 O347 O 1.05269 1.01388 0.52691
 O348 O 1.05802 1.00256 0.47690
 O349 O 0.94561 0.90459 0.46576
 O350 O 0.97879 0.94166 0.43152
 C351 C 0.95696 0.91156 0.43959
 O352 O 0.90844 1.06120 0.52804
 O353 O 0.94940 1.03937 0.56481
 C354 C 0.91839 1.05858 0.55494
 O355 O 0.92123 1.04700 0.44862
 O356 O 0.96727 1.00922 0.42310
 C357 C 0.93680 1.03344 0.42496
 O358 O 0.93174 0.92633 0.54436
 O359 O 0.96064 0.97529 0.57286
 C360 C 0.93765 0.94437 0.56878
 Zr361 Zr 0.95635 0.93864 0.50353
 O362 O 0.89424 0.92456 0.49809
 O363 O 0.96845 0.87811 0.51464
 Zr364 Zr 0.93835 1.03717 0.49160
 O365 O 0.87608 1.02365 0.48600
 O366 O 0.92578 1.09927 0.48708
 Zr367 Zr 0.99275 1.00690 0.54147
 Zr368 Zr 1.00238 0.98787 0.45740
 O369 O 0.94277 0.98106 0.47266
 O370 O 0.93658 0.99216 0.52244
 O371 O 1.01080 0.93467 0.48112
 O372 O 0.98463 1.05937 0.51711
 O373 O 1.00500 0.94646 0.53097
 O374 O 0.99014 1.04860 0.46743
 H375 H 1.08275 1.00405 0.46488
 H376 H 0.97920 1.08532 0.52699
 H377 H 0.92088 0.97397 0.45889
 H378 H 1.00752 0.92660 0.54670
 H379 H 1.01036 1.12237 0.47496
 H380 H 0.94315 1.10954 0.47143
 H381 H 0.86609 1.01200 0.50421
 H382 H 0.87859 0.94481 0.50909
 H383 H 0.98599 0.86650 0.49946
 H384 H 1.05403 0.87984 0.50330
 H385 H 1.12448 0.99386 0.51833
 H386 H 1.10769 1.09224 0.49381
 O387 O 0.56368 0.41581 0.03251
 O388 O 0.54378 0.46211 0.06667
 C389 C 0.56283 0.43009 0.05847
 O390 O 0.57314 0.55049 -0.05380
 O391 O 0.52010 0.52098 -0.07808
 C392 C 0.55290 0.54201 -0.07697
 O393 O 0.59878 0.54962 0.02497
 O394 O 0.56110 0.52607 0.06287
 C395 C 0.59240 0.54387 0.05214
 O396 O 0.53683 0.40861 -0.04537
 O397 O 0.50328 0.45366 -0.07408
 C398 C 0.52303 0.42062 -0.06992
 Zr399 Zr 0.53500 0.43726 -0.00485
 O400 O 0.59469 0.41948 -0.01561
 O401 O 0.51881 0.37648 0.00224
 Zr402 Zr 0.56153 0.53484 -0.01058
 O403 O 0.62046 0.51351 -0.01971
 O404 O 0.58147 0.59534 -0.01185
 O405 O 0.56268 0.48530 0.01644
 O406 O 0.54859 0.48291 -0.03326
 O407 O 0.40415 0.44450 -0.02791
 O408 O 0.43982 0.47166 -0.06556
 C409 C 0.41046 0.45076 -0.05502
 O410 O 0.45890 0.58854 0.04338
 O411 O 0.49474 0.54473 0.07183
 C412 C 0.47292 0.57653 0.06789
 O413 O 0.44280 0.58768 -0.03635
 O414 O 0.45810 0.53866 -0.06971
 C415 C 0.44326 0.57314 -0.06226
 O416 O 0.42289 0.45389 0.05120
 O417 O 0.47731 0.48052 0.07560
 C418 C 0.44289 0.46198 0.07449
 Zr419 Zr 0.43794 0.46482 0.00795
 O420 O 0.37700 0.48387 0.01235
 O421 O 0.42014 0.40454 0.01504
 Zr422 Zr 0.46441 0.56227 0.00225
 O423 O 0.40257 0.57810 0.00681
 O424 O 0.48050 0.62390 0.00216
 Zr425 Zr 0.51134 0.50191 0.04062
 Zr426 Zr 0.48820 0.49763 -0.04316
 O427 O 0.43733 0.51428 -0.01862
 O428 O 0.45063 0.51690 0.03134
 O429 O 0.47754 0.44199 -0.02304
 O430 O 0.52163 0.55701 0.01986
 O431 O 0.49136 0.44500 0.02645
 O432 O 0.50812 0.55495 -0.02958
 H433 H 0.56754 0.47617 -0.04911
 H434 H 0.53121 0.58052 0.03119
 H435 H 0.41149 0.51994 -0.02873
 H436 H 0.48902 0.42279 0.04049
 H437 H 0.56177 0.61046 -0.02365
 H438 H 0.49687 0.62873 -0.01531
 H439 H 0.39309 0.56713 0.02537
 H440 H 0.37521 0.50043 0.03008
 H441 H 0.43349 0.38791 0.00011
 H442 H 0.49762 0.36920 -0.01197
 H443 H 0.61336 0.43854 -0.00590
 H444 H 0.63717 0.53770 -0.02339
 C445 C 0.33153 1.12388 0.10148
 C446 C 0.34070 1.11143 0.12994
 C447 C 0.32575 1.13372 0.15387
 C448 C 0.30149 1.16822 0.14932
 C449 C 0.29089 1.17975 0.12099
 C450 C 0.30612 1.15762 0.09697
 C451 C 0.29574 1.17015 0.06888
 C452 C 0.27071 1.20342 0.06459
 C453 C 0.25561 1.22488 0.08805
 C454 C 0.26555 1.21334 0.11599
 C455 C 0.33594 1.12106 0.18206
 C456 C 0.36029 1.08743 0.18648
 C457 C 0.37496 1.06566 0.16311
 C458 C 0.36530 1.07727 0.13515
 C459 C 0.28826 1.19190 0.17395
 C460 C 0.27812 1.21034 0.19517
 C461 C 0.35188 1.10399 0.07750
 C462 C 0.37312 1.08704 0.06008
 H463 H 0.30663 1.15422 0.05003
 H464 H 0.26295 1.21257 0.04294
 H465 H 0.23619 1.25067 0.08459
 H466 H 0.25324 1.23101 0.13358
 H467 H 0.32529 1.13697 0.20098
 H468 H 0.36783 1.07826 0.20817
 H469 H 0.39404 1.03970 0.16664
 H470 H 0.37731 1.05909 0.11775
 C471 C 0.82778 0.61790 0.60265
 C472 C 0.80394 0.65272 0.59810
 C473 C 0.78801 0.67449 0.62207
 C474 C 0.79631 0.66148 0.65047
 C475 C 0.81808 0.62531 0.65495
 C476 C 0.83367 0.60340 0.63100
 C477 C 0.85545 0.56741 0.63611
 C478 C 0.86174 0.55353 0.66402
 C479 C 0.84661 0.57500 0.68740
 C480 C 0.82504 0.61050 0.68306
 C481 C 0.76414 0.70908 0.61696
 C482 C 0.75599 0.72166 0.58896
 C483 C 0.77185 0.70063 0.56558
 C484 C 0.79571 0.66659 0.56998
 C485 C 0.78342 0.68546 0.67517
 C486 C 0.77352 0.70433 0.69634
 C487 C 0.84987 0.59912 0.57895
 C488 C 0.87198 0.58340 0.56145
 H489 H 0.86752 0.54941 0.61863
 H490 H 0.87831 0.52587 0.66749
 H491 H 0.85155 0.56407 0.70904
 H492 H 0.81374 0.62602 0.70196
 H493 H 0.75120 0.72643 0.63448
 H494 H 0.73714 0.74777 0.58535
 H495 H 0.76547 0.71063 0.54389
 H496 H 0.80716 0.65096 0.55116
 C497 C 0.66321 0.88026 0.10161
 C498 C 0.64635 0.84295 0.11019
 C499 C 0.66327 0.82165 0.13385
 C500 C 0.69816 0.83669 0.14813
 C501 C 0.71614 0.87302 0.13872
 C502 C 0.69844 0.89500 0.11558
 C503 C 0.71639 0.93167 0.10713
 C504 C 0.75102 0.94619 0.12094
 C505 C 0.76840 0.92469 0.14340
 C506 C 0.75128 0.88851 0.15229
 C507 C 0.64429 0.78573 0.14297
 C508 C 0.61065 0.77036 0.12847
 C509 C 0.59481 0.79053 0.10488
 C510 C 0.61216 0.82652 0.09587
 C511 C 0.71435 0.81531 0.17304
 C512 C 0.72587 0.79700 0.19397
 C513 C 0.64156 0.90474 0.08052
 C514 C 0.61972 0.92347 0.06445
 H515 H 0.70394 0.94937 0.08974
 H516 H 0.76439 0.97434 0.11421
 H517 H 0.79528 0.93615 0.15406
 H518 H 0.76582 0.87286 0.16988
 H519 H 0.65538 0.76894 0.16125
 H520 H 0.59690 0.74256 0.13554
 H521 H 0.56877 0.77837 0.09359
 H522 H 0.59858 0.84116 0.07747
 C523 C 1.16756 0.38574 0.60228
 C524 C 1.19118 0.40574 0.62347
 C525 C 1.20921 0.38351 0.64634
 C526 C 1.20380 0.34128 0.64787
 C527 C 1.18243 0.32099 0.62562
 C528 C 1.16415 0.34323 0.60290
 C529 C 1.14232 0.32217 0.58130
 C530 C 1.13889 0.28041 0.58194
 C531 C 1.15704 0.25873 0.60395
 C532 C 1.17850 0.27861 0.62564
 C533 C 1.23215 0.40438 0.66742
 C534 C 1.23756 0.44588 0.66584
 C535 C 1.22023 0.46749 0.64342
 C536 C 1.19703 0.44785 0.62253
 C537 C 1.21825 0.31900 0.67293
 C538 C 1.22882 0.30033 0.69397
 C539 C 1.14355 0.40873 0.58159
 C540 C 1.12060 0.42623 0.56557
 H541 H 1.12801 0.33768 0.56356
 H542 H 1.12224 0.26478 0.56517
 H543 H 1.15467 0.22628 0.60411
 H544 H 1.19223 0.26043 0.64224
 H545 H 1.24642 0.38880 0.68515
 H546 H 1.25544 0.46134 0.68204
 H547 H 1.22483 0.49967 0.64220
 H548 H 1.18415 0.46591 0.60549
 C549 C 0.65760 1.11901 -0.10417
 C550 C 0.63426 1.14916 -0.11803
 C551 C 0.65061 1.17055 -0.14177
 C552 C 0.69092 1.16318 -0.15080
 C553 C 0.71458 1.13374 -0.13658
 C554 C 0.69775 1.11133 -0.11341
 C555 C 0.72163 1.08139 -0.10011
 C556 C 0.76114 1.07388 -0.10928
 C557 C 0.77769 1.09596 -0.13172
 C558 C 0.75481 1.12561 -0.14529
 C559 C 0.62587 1.19892 -0.15615
 C560 C 0.58669 1.20714 -0.14669
 C561 C 0.57108 1.18710 -0.12302
 C562 C 0.59432 1.15828 -0.10889
 C563 C 0.70735 1.18552 -0.17505
 C564 C 0.71925 1.20437 -0.19553
 C565 C 0.63866 1.09462 -0.08186
 C566 C 0.61834 1.07604 -0.06484
 H567 H 0.71003 1.06356 -0.08253
 H568 H 0.77904 1.05084 -0.09889
 H569 H 0.80841 1.09002 -0.13872
 H570 H 0.76890 1.14191 -0.16272
 H571 H 0.63667 1.21551 -0.17458
 H572 H 0.56848 1.22941 -0.15767
 H573 H 0.54070 1.19379 -0.11562
 H574 H 0.58061 1.14341 -0.09069
 C575 C 1.16205 0.61374 0.39526
 C576 C 1.14119 0.64424 0.37994
 C577 C 1.16016 0.66373 0.35632
 C578 C 1.20056 0.65391 0.34874
 C579 C 1.22179 0.62417 0.36447
 C580 C 1.20238 0.60381 0.38761
 C581 C 1.22397 0.57370 0.40256
 C582 C 1.26367 0.56398 0.39501
 C583 C 1.28269 0.58401 0.37255
 C584 C 1.26213 0.61380 0.35739
 C585 C 1.13799 0.69295 0.34075
 C586 C 1.09878 0.70359 0.34880
 C587 C 1.08058 0.68524 0.37224
 C588 C 1.10129 0.65579 0.38761
 C589 C 1.21959 0.67441 0.32458
 C590 C 1.23284 0.69249 0.30412
 C591 C 1.14062 0.59149 0.41761
 C592 C 1.11903 0.57448 0.43472
 H593 H 1.21042 0.55746 0.42024
 H594 H 1.27977 0.54083 0.40667
 H595 H 1.31355 0.57637 0.36682
 H596 H 1.27810 0.62853 0.34006
 H597 H 1.15083 0.70833 0.32244
 H598 H 1.08251 0.72633 0.33684
 H599 H 1.05016 0.69375 0.37851
 H600 H 1.08570 0.64240 0.40564
 C601 C 0.32727 0.88552 -0.10032
 C602 C 0.29345 0.85993 -0.09644
 C603 C 0.27609 0.83952 -0.12056
 C604 C 0.29312 0.84430 -0.14830
 C605 C 0.32568 0.87136 -0.15239
 C606 C 0.34263 0.89220 -0.12841
 C607 C 0.37512 0.91922 -0.13319
 C608 C 0.39040 0.92540 -0.16076
 C609 C 0.37396 0.90484 -0.18415
 C610 C 0.34202 0.87808 -0.18015
 C611 C 0.24193 0.81461 -0.11625
 C612 C 0.22537 0.80993 -0.08887
 C613 C 0.24270 0.82939 -0.06526
 C614 C 0.27643 0.85411 -0.06888
 C615 C 0.27816 0.82098 -0.17269
 C616 C 0.26751 0.80226 -0.19371
 C617 C 0.34845 0.90336 -0.07581
 C618 C 0.37041 0.91854 -0.05794
 H619 H 0.38892 0.93612 -0.11578
 H620 H 0.41513 0.94628 -0.16398
 H621 H 0.38595 0.90971 -0.20553
 H622 H 0.33018 0.86297 -0.19908
 H623 H 0.22767 0.79863 -0.13394
 H624 H 0.19918 0.79077 -0.08594
 H625 H 0.22987 0.82540 -0.04403
 H626 H 0.28877 0.86890 -0.04997
 C627 C 0.82786 0.37922 0.40119
 C628 C 0.81194 0.34009 0.40532
 C629 C 0.79613 0.31786 0.38147
 C630 C 0.79689 0.33459 0.35349
 C631 C 0.81077 0.37453 0.34962
 C632 C 0.82608 0.39692 0.37351
 C633 C 0.83996 0.43668 0.36896
 C634 C 0.83874 0.45386 0.34168
 C635 C 0.82391 0.43196 0.31835
 C636 C 0.81009 0.39274 0.32214
 C637 C 0.78012 0.27901 0.38624
 C638 C 0.77990 0.26245 0.41375
 C639 C 0.79581 0.28391 0.43694
 C640 C 0.81176 0.32229 0.43290
 C641 C 0.78473 0.31062 0.32850
 C642 C 0.77536 0.29174 0.30716
 C643 C 0.85010 0.39967 0.42423
 C644 C 0.87212 0.41667 0.44127
 H645 H 0.85160 0.45502 0.38645
 H646 H 0.84936 0.48435 0.33864
 H647 H 0.82306 0.44543 0.29719
 H648 H 0.79870 0.37699 0.30333
 H649 H 0.76753 0.26116 0.36882
 H650 H 0.76745 0.23277 0.41710
 H651 H 0.79568 0.27081 0.45823
 H652 H 0.82353 0.33801 0.45160
 C653 C 1.12381 0.33188 0.09984
 C654 C 1.10395 0.30870 0.12105
 C655 C 1.12630 0.29304 0.14475
 C656 C 1.16843 0.30069 0.14720
 C657 C 1.18876 0.32160 0.12503
 C658 C 1.16643 0.33717 0.10130
 C659 C 1.18741 0.35847 0.07966
 C660 C 1.22919 0.36427 0.08138
 C661 C 1.25095 0.34913 0.10457
 C662 C 1.23114 0.32799 0.12622
 C663 C 1.10561 0.27036 0.16580
 C664 C 1.06408 0.26330 0.16353
 C665 C 1.04225 0.27870 0.14044
 C666 C 1.06181 0.30122 0.11940
 C667 C 1.19028 0.28872 0.17310
 C668 C 1.20781 0.27927 0.19493
 C669 C 1.10020 0.35437 0.07873
 C670 C 1.08185 0.37645 0.06268
 H671 H 1.17182 0.37063 0.06113
 H672 H 1.24475 0.38066 0.06463
 H673 H 1.28334 0.35388 0.10579
 H674 H 1.24937 0.31664 0.14379
 H675 H 1.12131 0.25768 0.18411
 H676 H 1.04878 0.24575 0.17979
 H677 H 1.01000 0.27313 0.13880
 H678 H 1.04367 0.31236 0.10171
 C679 C 0.62484 0.83863 0.60305
 C680 C 0.62027 0.79732 0.60944
 C681 C 0.64222 0.78011 0.63280
 C682 C 0.66812 0.80447 0.64992
 C683 C 0.67383 0.84544 0.64286
 C684 C 0.65263 0.86240 0.61916
 C685 C 0.65963 0.90327 0.61227
 C686 C 0.68654 0.92668 0.62835
 C687 C 0.70681 0.91022 0.65172
 C688 C 0.70047 0.87018 0.65910
 C689 C 0.63733 0.73871 0.63863
 C690 C 0.61138 0.71496 0.62198
 C691 C 0.58975 0.73184 0.59933
 C692 C 0.59402 0.77257 0.59304
 C693 C 0.68810 0.78808 0.67526
 C694 C 0.70475 0.77603 0.69673
 C695 C 0.59979 0.85793 0.58119
 C696 C 0.58044 0.87834 0.56463
 H697 H 0.64469 0.91755 0.59426
 H698 H 0.69161 0.95780 0.62266
 H699 H 0.72766 0.92853 0.66418
 H700 H 0.71716 0.85874 0.67739
 H701 H 0.65358 0.72427 0.65601
 H702 H 0.60800 0.68330 0.62671
 H703 H 0.56959 0.71326 0.58651
 H704 H 0.57680 0.78440 0.57512
 C705 C 1.12634 0.66750 -0.09682
 C706 C 1.10698 0.69797 -0.11300
 C707 C 1.12733 0.71587 -0.13674
 C708 C 1.16648 0.70233 -0.14477
 C709 C 1.18622 0.67258 -0.12813
 C710 C 1.16651 0.65584 -0.10374
 C711 C 1.18732 0.62677 -0.08717
 C712 C 1.22609 0.61396 -0.09480
 C713 C 1.24483 0.62942 -0.11911
 C714 C 1.22523 0.65835 -0.13567
 C715 C 1.10740 0.74645 -0.15239
 C716 C 1.06823 0.75853 -0.14517
 C717 C 1.04810 0.74053 -0.12233
 C718 C 1.06715 0.71066 -0.10630
 C719 C 1.18559 0.71732 -0.17089
 C720 C 1.20151 0.72865 -0.19282
 C721 C 1.10361 0.64451 -0.07558
 C722 C 1.08546 0.62218 -0.05967
 H723 H 1.17391 0.61375 -0.06814
 H724 H 1.24154 0.59166 -0.08189
 H725 H 1.27476 0.61904 -0.12512
 H726 H 1.24103 0.66944 -0.15441
 H727 H 1.12186 0.76128 -0.17035
 H728 H 1.05338 0.78191 -0.15742
 H729 H 1.01756 0.74981 -0.11696
 H730 H 1.05043 0.69771 -0.08860
 C731 C 0.62456 1.16551 0.40103
 C732 C 0.60310 1.18678 0.37950
 C733 C 0.62422 1.20302 0.35552
 C734 C 0.66673 1.19792 0.35315
 C735 C 0.68844 1.17820 0.37529
 C736 C 0.66734 1.16214 0.39934
 C737 C 0.68974 1.14222 0.42101
 C738 C 0.73169 1.13805 0.41893
 C739 C 0.75223 1.15342 0.39531
 C740 C 0.73103 1.17339 0.37372
 C741 C 0.60195 1.22352 0.33406
 C742 C 0.56004 1.22791 0.33621
 C743 C 0.53944 1.21211 0.35965
 C744 C 0.56055 1.19167 0.38108
 C745 C 0.68784 1.21126 0.32741
 C746 C 0.70541 1.22154 0.30588
 C747 C 0.60237 1.14274 0.42265
 C748 C 0.58448 1.12067 0.43888
 H749 H 0.67509 1.12987 0.43983
 H750 H 0.74834 1.12276 0.43573
 H751 H 0.78480 1.15008 0.39380
 H752 H 0.74839 1.18505 0.35586
 H753 H 0.61665 1.23639 0.31545
 H754 H 0.54347 1.24367 0.31959
 H755 H 0.50691 1.21574 0.36125
 H756 H 0.54323 1.18001 0.39895
 C757 C 0.89006 0.67018 0.10338
 C758 C 0.85822 0.69755 0.09762
 C759 C 0.83572 0.71481 0.12080
 C760 C 0.84490 0.70423 0.14959
 C761 C 0.87861 0.67913 0.15539
 C762 C 0.90141 0.66236 0.13227
 C763 C 0.93514 0.63762 0.13870
 C764 C 0.94599 0.62959 0.16711
 C765 C 0.92349 0.64566 0.18968
 C766 C 0.89012 0.67008 0.18403
 C767 C 0.80441 0.74245 0.11449
 C768 C 0.79589 0.75317 0.08614
 C769 C 0.81746 0.73591 0.06352
 C770 C 0.84820 0.70823 0.06907
 C771 C 0.81930 0.71792 0.17328
 C772 C 0.79876 0.72762 0.19371
 C773 C 0.90890 0.64703 0.08017
 C774 C 0.92430 0.62428 0.06294
 H775 H 0.95378 0.62463 0.12190
 H776 H 0.97203 0.61083 0.17161
 H777 H 0.93201 0.63926 0.21171
 H778 H 0.87373 0.68203 0.20234
 H779 H 0.78671 0.75650 0.13139
 H780 H 0.77251 0.77510 0.08168
 H781 H 0.81053 0.74423 0.04155
 H782 H 0.86452 0.69587 0.05085
 C783 C 0.38039 1.16727 0.59890
 C784 C 0.39944 1.17113 0.62618
 C785 C 0.37784 1.18794 0.64989
 C786 C 0.33713 1.20059 0.64637
 C787 C 0.31826 1.19733 0.61902
 C788 C 0.33998 1.18077 0.59523
 C789 C 0.32025 1.17740 0.56826
 C790 C 0.28020 1.18989 0.56484
 C791 C 0.25898 1.20590 0.58807
 C792 C 0.27762 1.20967 0.61491
 C793 C 0.39748 1.19094 0.67697
 C794 C 0.43708 1.17730 0.68064
 C795 C 0.45800 1.16050 0.65759
 C796 C 0.43967 1.15763 0.63059
 C797 C 0.31435 1.21514 0.67123
 C798 C 0.29616 1.22615 0.69243
 C799 C 0.40077 1.14494 0.57595
 C800 C 0.41767 1.12294 0.55893
 H801 H 0.33557 1.16517 0.54957
 H802 H 0.26554 1.18709 0.54404
 H803 H 0.22789 1.21542 0.58525
 H804 H 0.25989 1.22227 0.63235
 H805 H 0.38245 1.20366 0.69561
 H806 H 0.45156 1.17970 0.70152
 H807 H 0.48874 1.14988 0.66057
 H808 H 0.45742 1.14473 0.61328
 C809 C 0.88265 0.33260 -0.10226
 C810 C 0.84476 0.31444 -0.09625
 C811 C 0.82069 0.29820 -0.11909
 C812 C 0.83450 0.30034 -0.14791
 C813 C 0.87330 0.31669 -0.15374
 C814 C 0.89739 0.33273 -0.13091
 C815 C 0.93583 0.34919 -0.13747
 C816 C 0.95013 0.34979 -0.16568
 C817 C 0.92662 0.33418 -0.18795
 C818 C 0.88863 0.31782 -0.18219
 C819 C 0.78294 0.28040 -0.11245
 C820 C 0.76935 0.27856 -0.08408
 C821 C 0.79271 0.29456 -0.06184
 C822 C 0.82998 0.31240 -0.06774
 C823 C 0.80876 0.28700 -0.17178
 C824 C 0.78892 0.27697 -0.19259
 C825 C 0.90451 0.35497 -0.07987
 C826 C 0.92196 0.37690 -0.06298
 H827 H 0.95536 0.36152 -0.12088
 H828 H 0.97963 0.36243 -0.17027
 H829 H 0.93787 0.33470 -0.20983
 H830 H 0.87155 0.30599 -0.20027
 H831 H 0.76374 0.26752 -0.12905
 H832 H 0.74058 0.26458 -0.07928
 H833 H 0.78193 0.29305 -0.03987
 H834 H 0.84723 0.32424 -0.04974
 C835 C 0.39260 0.82485 0.39729
 C836 C 0.35543 0.80516 0.40295
 C837 C 0.33337 0.78662 0.38004
 C838 C 0.34821 0.78856 0.35148
 C839 C 0.38663 0.80603 0.34613
 C840 C 0.40901 0.82388 0.36912
 C841 C 0.44733 0.84107 0.36320
 C842 C 0.46305 0.84083 0.33537
 C843 C 0.44103 0.82375 0.31286
 C844 C 0.40324 0.80655 0.31804
 C845 C 0.29658 0.76673 0.38633
 C846 C 0.28198 0.76523 0.41447
 C847 C 0.30311 0.78398 0.43673
 C848 C 0.33942 0.80383 0.43115
 C849 C 0.32340 0.77455 0.32740
 C850 C 0.30365 0.76441 0.30663
 C851 C 0.41180 0.84975 0.41938
 C852 C 0.42700 0.87336 0.43611
 H853 H 0.46570 0.85453 0.38003
 H854 H 0.49250 0.85395 0.33128
 H855 H 0.45332 0.82377 0.29126
 H856 H 0.38733 0.79353 0.29983
 H857 H 0.27906 0.75177 0.36969
 H858 H 0.25424 0.74930 0.41910
 H859 H 0.29145 0.78290 0.45849
 H860 H 0.35505 0.81765 0.44918
 C861 C 1.10995 1.11524 0.36683
 C862 C 1.12864 1.15095 0.37700
 C863 C 1.15382 1.17328 0.35837
 C864 C 1.15893 1.16034 0.32958
 C865 C 1.13969 1.12505 0.31925
 C866 C 1.11514 1.10223 0.33807
 C867 C 1.09628 1.06684 0.32756
 C868 C 1.10144 1.05450 0.29906
 C869 C 1.12549 1.07689 0.28055
 C870 C 1.14450 1.11180 0.29042
 C871 C 1.17324 1.20833 0.36905
 C872 C 1.16651 1.22179 0.39710
 C873 C 1.14137 1.20023 0.41532
 C874 C 1.12279 1.16503 0.40558
 C875 C 1.18305 1.18405 0.31039
 C876 C 1.20275 1.20397 0.29429
 C877 C 1.08708 1.09130 0.38667
 C878 C 1.06980 1.07321 0.40513
 H879 H 1.07731 1.04848 0.34120
 H880 H 1.08675 1.02739 0.29131
 H881 H 1.12947 1.06715 0.25845
 H882 H 1.16298 1.12820 0.27525
 H883 H 1.19336 1.22598 0.35577
 H884 H 1.18050 1.24935 0.40462
 H885 H 1.13623 1.21079 0.43710
 H886 H 1.10356 1.14931 0.42062
 C887 C 0.59756 0.59970 -0.14576
 C888 C 0.58860 0.64123 -0.14674
 C889 C 0.61369 0.66706 -0.16291
 C890 C 0.64709 0.65079 -0.17797
 C891 C 0.65388 0.60880 -0.17899
 C892 C 0.62872 0.58302 -0.16281
 C893 C 0.63596 0.54108 -0.16356
 C894 C 0.66744 0.52508 -0.18001
 C895 C 0.69232 0.55040 -0.19586
 C896 C 0.68579 0.59184 -0.19542
 C897 C 0.60513 0.70880 -0.16313
 C898 C 0.57253 0.72444 -0.14764
 C899 C 0.54780 0.69902 -0.13177
 C900 C 0.55558 0.65782 -0.13127
 C901 C 0.67432 0.67713 -0.19262
 C902 C 0.69645 0.69840 -0.20592
 C903 C 0.57993 0.57605 -0.12341
 C904 C 0.56707 0.55890 -0.10288
 H905 H 0.61712 0.52033 -0.15168
 H906 H 0.67253 0.49291 -0.18046
 H907 H 0.71679 0.53788 -0.20857
 H908 H 0.70588 0.61034 -0.20812
 H909 H 0.62352 0.72973 -0.17518
 H910 H 0.56651 0.75645 -0.14791
 H911 H 0.52246 0.71124 -0.11981
 H912 H 0.53533 0.63908 -0.11886
 C913 C 0.85981 1.12265 0.61621
 C914 C 0.82583 1.10759 0.63113
 C915 C 0.80963 1.12984 0.65451
 C916 C 0.82784 1.16672 0.66270
 C917 C 0.86162 1.18192 0.64766
 C918 C 0.87754 1.15989 0.62409
 C919 C 0.91094 1.17590 0.60883
 C920 C 0.92799 1.21270 0.61673
 C921 C 0.91252 1.23417 0.64002
 C922 C 0.87977 1.21905 0.65545
 C923 C 0.77500 1.11484 0.66889
 C924 C 0.75696 1.07882 0.66027
 C925 C 0.77300 1.05691 0.63738
 C926 C 0.80710 1.07096 0.62292
 C927 C 0.81047 1.18980 0.68576
 C928 C 0.79427 1.20853 0.70451
 C929 C 0.87782 1.09920 0.59354
 C930 C 0.89497 1.08015 0.57536
 H931 H 0.92403 1.16035 0.59055
 H932 H 0.95329 1.22460 0.60467
 H933 H 0.92583 1.26277 0.64608
 H934 H 0.86860 1.23693 0.67330
 H935 H 0.76134 1.13086 0.68676
 H936 H 0.73039 1.06787 0.67139
 H937 H 0.75890 1.02894 0.63075
 H938 H 0.81835 1.05304 0.60511
 C939 C 0.42295 0.63954 0.13273
 C940 C 0.40196 0.67470 0.12442
 C941 C 0.37152 0.69070 0.14259
 C942 C 0.36263 0.67125 0.16880
 C943 C 0.38530 0.63747 0.17788
 C944 C 0.41596 0.62175 0.15977
 C945 C 0.43866 0.58808 0.16903
 C946 C 0.43109 0.57041 0.19561
 C947 C 0.40063 0.58549 0.21330
 C948 C 0.37785 0.61863 0.20464
 C949 C 0.35042 0.72571 0.13387
 C950 C 0.35952 0.74438 0.10787
 C951 C 0.38931 0.72858 0.08998
 C952 C 0.41033 0.69406 0.09801
 C953 C 0.33169 0.68720 0.18721
 C954 C 0.30773 0.70136 0.20360
 C955 C 0.44595 0.61798 0.11150
 C956 C 0.46083 0.59912 0.09228
 H957 H 0.46275 0.57547 0.15600
 H958 H 0.44903 0.54494 0.20249
 H959 H 0.39470 0.57154 0.23387
 H960 H 0.35449 0.62930 0.21913
 H961 H 0.32684 0.73899 0.14702
 H962 H 0.34351 0.77126 0.10152
 H963 H 0.39625 0.74321 0.06981
 H964 H 0.43349 0.68300 0.08351
 C965 C 1.11532 0.91558 0.64253
 C966 C 1.09203 0.88619 0.65688
 C967 C 1.11175 0.85676 0.67377
 C968 C 1.15447 0.85717 0.67603
 C969 C 1.17759 0.88785 0.66291
 C970 C 1.15777 0.91749 0.64625
 C971 C 1.18113 0.94801 0.63313
 C972 C 1.22313 0.94898 0.63632
 C973 C 1.24270 0.91967 0.65243
 C974 C 1.22036 0.88938 0.66566
 C975 C 1.08813 0.82708 0.68764
 C976 C 1.04608 0.82647 0.68465
 C977 C 1.02673 0.85520 0.66789
 C978 C 1.04927 0.88490 0.65419
 C979 C 1.17470 0.82687 0.69261
 C980 C 1.19262 0.80352 0.70738
 C981 C 1.09668 0.93854 0.62003
 C982 C 1.08109 0.95361 0.59950
 H983 H 1.16711 0.97152 0.62051
 H984 H 1.24057 0.97256 0.62620
 H985 H 1.27533 0.92046 0.65471
 H986 H 1.23696 0.86726 0.67798
 H987 H 1.10187 0.80403 0.70080
 H988 H 1.02844 0.80352 0.69531
 H989 H 0.99412 0.85441 0.66546
 H990 H 1.03287 0.90688 0.64161
 C991 C 0.62623 0.37069 0.11900
 C992 C 0.61525 0.33092 0.12619
 C993 C 0.63551 0.31146 0.14901
 C994 C 0.66675 0.33192 0.16391
 C995 C 0.67867 0.37115 0.15610
 C996 C 0.65819 0.39075 0.13342
 C997 C 0.67036 0.43008 0.12567
 C998 C 0.70213 0.44930 0.14000
 C999 C 0.72208 0.43012 0.16244
 C1000 C 0.71067 0.39143 0.17048
 C1001 C 0.62408 0.27171 0.15629
 C1002 C 0.59380 0.25164 0.14095
 C1003 C 0.57406 0.27070 0.11836
 C1004 C 0.58442 0.30997 0.11103
 C1005 C 0.68726 0.31210 0.18685
 C1006 C 0.70462 0.29479 0.20551
 C1007 C 0.60381 0.39144 0.09734
 C1008 C 0.58491 0.40904 0.07954
 H1009 H 0.65570 0.44625 0.10837
 H1010 H 0.71122 0.47927 0.13370
 H1011 H 0.74647 0.44531 0.17369
 H1012 H 0.72715 0.37766 0.18802
 H1013 H 0.63872 0.25558 0.17360
 H1014 H 0.58573 0.22113 0.14658
 H1015 H 0.55061 0.25501 0.10644
 H1016 H 0.56827 0.32355 0.09327
 C1017 C 0.90286 0.84571 0.37730
 C1018 C 0.87323 0.81736 0.38551
 C1019 C 0.84571 0.80222 0.36469
 C1020 C 0.84786 0.81621 0.33604
 C1021 C 0.87896 0.84286 0.32749
 C1022 C 0.90670 0.85767 0.34829
 C1023 C 0.93739 0.88474 0.33959
 C1024 C 0.94062 0.89666 0.31096
 C1025 C 0.91348 0.88202 0.29049
 C1026 C 0.88289 0.85546 0.29854
 C1027 C 0.81624 0.77376 0.37324
 C1028 C 0.81361 0.76146 0.40182
 C1029 C 0.84034 0.77664 0.42231
 C1030 C 0.86999 0.80419 0.41436
 C1031 C 0.81862 0.80268 0.31517
 C1032 C 0.79588 0.79012 0.29717
 C1033 C 0.92552 0.86649 0.39921
 C1034 C 0.94152 0.88595 0.41772
 H1035 H 0.95932 0.89669 0.35475
 H1036 H 0.96432 0.91730 0.30464
 H1037 H 0.91614 0.89126 0.26826
 H1038 H 0.86253 0.84485 0.28184
 H1039 H 0.79483 0.76100 0.35805
 H1040 H 0.79069 0.74017 0.40820
 H1041 H 0.83814 0.76698 0.44448
 H1042 H 0.89039 0.81491 0.43100
 C1043 C 0.35340 0.38765 -0.11677
 C1044 C 0.32309 0.35872 -0.11140
 C1045 C 0.31180 0.33153 -0.13352
 C1046 C 0.32995 0.33475 -0.16097
 C1047 C 0.36040 0.36357 -0.16633
 C1048 C 0.37230 0.39021 -0.14404
 C1049 C 0.40313 0.41883 -0.14962
 C1050 C 0.42158 0.42084 -0.17655
 C1051 C 0.40977 0.39468 -0.19846
 C1052 C 0.37948 0.36633 -0.19355
 C1053 C 0.28220 0.30184 -0.12765
 C1054 C 0.26340 0.30016 -0.10083
 C1055 C 0.27399 0.32737 -0.07926
 C1056 C 0.30372 0.35624 -0.08430
 C1057 C 0.31440 0.31122 -0.18438
 C1058 C 0.29922 0.29309 -0.20381
 C1059 C 0.36873 0.41182 -0.09358
 C1060 C 0.38551 0.43063 -0.07515
 H1061 H 0.41323 0.43998 -0.13333
 H1062 H 0.44510 0.44284 -0.18043
 H1063 H 0.42417 0.39631 -0.21935
 H1064 H 0.37147 0.34643 -0.21120
 H1065 H 0.27295 0.28004 -0.14378
 H1066 H 0.24015 0.27798 -0.09688
 H1067 H 0.25914 0.32610 -0.05852
 H1068 H 0.31111 0.37674 -0.06687
 C1069 C 1.12589 0.33436 -0.09979
 C1070 C 1.15902 0.35537 -0.11204
 C1071 C 1.17977 0.33894 -0.13622
 C1072 C 1.16847 0.30080 -0.14735
 C1073 C 1.13716 0.27862 -0.13392
 C1074 C 1.11552 0.29564 -0.11027
 C1075 C 1.08362 0.27342 -0.09777
 C1076 C 1.07356 0.23524 -0.10812
 C1077 C 1.09493 0.21844 -0.13101
 C1078 C 1.12638 0.23977 -0.14388
 C1079 C 1.21151 0.36142 -0.14884
 C1080 C 1.22348 0.39832 -0.13728
 C1081 C 1.20379 0.41400 -0.11330
 C1082 C 1.17175 0.39306 -0.10087
 C1083 C 1.18833 0.28532 -0.17311
 C1084 C 1.20515 0.27416 -0.19482
 C1085 C 1.10078 0.35471 -0.07838
 C1086 C 1.08138 0.37592 -0.06226
 H1087 H 1.06637 0.28522 -0.07980
 H1088 H 1.04909 0.21856 -0.09828
 H1089 H 1.08704 0.18873 -0.13889
 H1090 H 1.14215 0.22551 -0.16163
 H1091 H 1.22796 0.35043 -0.16743
 H1092 H 1.24833 0.41469 -0.14689
 H1093 H 1.21328 0.44264 -0.10434
 H1094 H 1.15740 0.40661 -0.08226
 C1095 C 0.61919 0.82795 0.39962
 C1096 C 0.66147 0.83408 0.39628
 C1097 C 0.68225 0.81682 0.37234
 C1098 C 0.66099 0.79237 0.35225
 C1099 C 0.61924 0.78425 0.35657
 C1100 C 0.59819 0.80251 0.38006
 C1101 C 0.55614 0.79535 0.38309
 C1102 C 0.53551 0.77039 0.36379
 C1103 C 0.55617 0.75202 0.34118
 C1104 C 0.59755 0.75880 0.33749
 C1105 C 0.72400 0.82528 0.36876
 C1106 C 0.74480 0.84956 0.38839
 C1107 C 0.72473 0.86572 0.41205
 C1108 C 0.68357 0.85820 0.41605
 C1109 C 0.68155 0.77802 0.32630
 C1110 C 0.69924 0.76786 0.30462
 C1111 C 0.59692 0.85158 0.42101
 C1112 C 0.57968 0.87436 0.43734
 H1113 H 0.53882 0.80884 0.40042
 H1114 H 0.50334 0.76520 0.36644
 H1115 H 0.54002 0.73245 0.32638
 H1116 H 0.61236 0.74384 0.31960
 H1117 H 0.74095 0.81338 0.35071
 H1118 H 0.77667 0.85590 0.38526
 H1119 H 0.74110 0.88441 0.42731
 H1120 H 0.66930 0.87147 0.43479
 C1121 C 0.87922 0.66746 -0.09741
 C1122 C 0.89935 0.67732 -0.12336
 C1123 C 0.87686 0.69232 -0.14719
 C1124 C 0.83441 0.69821 -0.14480
 C1125 C 0.81470 0.69073 -0.11829
 C1126 C 0.83711 0.67511 -0.09459
 C1127 C 0.81654 0.66712 -0.06854
 C1128 C 0.77517 0.67485 -0.06579
 C1129 C 0.75336 0.69032 -0.08886
 C1130 C 0.77268 0.69808 -0.11491
 C1131 C 0.89757 0.70070 -0.17316
 C1132 C 0.93930 0.69488 -0.17544
 C1133 C 0.96134 0.68070 -0.15207
 C1134 C 0.94176 0.67191 -0.12629
 C1135 C 0.81107 0.71105 -0.16980
 C1136 C 0.79251 0.72139 -0.19097
 C1137 C 0.90080 0.64483 -0.07534
 C1138 C 0.91847 0.62269 -0.05899
 H1139 H 0.83228 0.65521 -0.04998
 H1140 H 0.75995 0.66889 -0.04563
 H1141 H 0.72128 0.69632 -0.08654
 H1142 H 0.75440 0.71003 -0.13226
 H1143 H 0.88180 0.71190 -0.19193
 H1144 H 0.95465 0.70149 -0.19545
 H1145 H 0.99379 0.67644 -0.15393
 H1146 H 0.96026 0.66113 -0.10867
 C1147 C 0.38557 1.16799 0.39817
 C1148 C 0.34882 1.18848 0.40393
 C1149 C 0.32660 1.20642 0.38099
 C1150 C 0.34119 1.20361 0.35238
 C1151 C 0.37928 1.18541 0.34692
 C1152 C 0.40157 1.16774 0.36987
 C1153 C 0.43947 1.14962 0.36380
 C1154 C 0.45485 1.14880 0.33588
 C1155 C 0.43301 1.16587 0.31345
 C1156 C 0.39566 1.18401 0.31877
 C1157 C 0.28997 1.22669 0.38734
 C1158 C 0.27588 1.22947 0.41557
 C1159 C 0.29741 1.21172 0.43791
 C1160 C 0.33344 1.19130 0.43226
 C1161 C 0.31675 1.21800 0.32835
 C1162 C 0.29752 1.22881 0.30760
 C1163 C 0.40499 1.14378 0.42037
 C1164 C 0.42091 1.12080 0.43703
 H1165 H 0.45777 1.13625 0.38057
 H1166 H 0.48396 1.13493 0.33167
 H1167 H 0.44509 1.16512 0.29179
 H1168 H 0.37993 1.19705 0.30061
 H1169 H 0.27217 1.24095 0.37065
 H1170 H 0.24823 1.24566 0.42021
 H1171 H 0.28624 1.21397 0.45977
 H1172 H 0.34939 1.17825 0.45033
 C1173 C 1.12756 0.66822 0.09770
 C1174 C 1.17041 0.67108 0.09688
 C1175 C 1.19204 0.68697 0.12098
 C1176 C 1.17069 0.70035 0.14568
 C1177 C 1.12776 0.69966 0.14583
 C1178 C 1.10616 0.68351 0.12183
 C1179 C 1.06330 0.68232 0.12284
 C1180 C 1.04233 0.69672 0.14680
 C1181 C 1.06342 0.71255 0.17020
 C1182 C 1.10563 0.71409 0.16984
 C1183 C 1.23489 0.68838 0.11995
 C1184 C 1.25581 0.67494 0.09569
 C1185 C 1.23469 0.65969 0.07208
 C1186 C 1.19248 0.65760 0.07259
 C1187 C 1.19277 0.71266 0.17148
 C1188 C 1.21068 0.72185 0.19327
 C1189 C 1.10595 0.64488 0.07581
 C1190 C 1.08812 0.62239 0.05958
 H1191 H 1.04556 0.67046 0.10509
 H1192 H 1.00955 0.69563 0.14718
 H1193 H 1.04699 0.72371 0.18877
 H1194 H 1.12068 0.72673 0.18855
 H1195 H 1.25263 0.70010 0.13775
 H1196 H 1.28858 0.67645 0.09519
 H1197 H 1.25108 0.64935 0.05327
 H1198 H 1.17732 0.64555 0.05373
 C1199 C 0.62072 1.17231 0.59707
 C1200 C 0.59926 1.19470 0.61812
 C1201 C 0.62033 1.21202 0.64196
 C1202 C 0.66288 1.20728 0.64447
 C1203 C 0.68471 1.18811 0.62202
 C1204 C 0.66356 1.17030 0.59841
 C1205 C 0.68601 1.15045 0.57663
 C1206 C 0.72816 1.14890 0.57780
 C1207 C 0.74878 1.16685 0.60059
 C1208 C 0.72750 1.18601 0.62264
 C1209 C 0.59805 1.23368 0.66293
 C1210 C 0.55629 1.23880 0.66015
 C1211 C 0.53584 1.22232 0.63668
 C1212 C 0.55684 1.20006 0.61601
 C1213 C 0.68377 1.22029 0.67064
 C1214 C 0.70071 1.23012 0.69272
 C1215 C 0.59884 1.14780 0.57602
 C1216 C 0.58170 1.12441 0.56008
 H1217 H 0.67128 1.13645 0.55830
 H1218 H 0.74494 1.13392 0.56083
 H1219 H 0.78148 1.16584 0.60113
 H1220 H 0.74487 1.19950 0.63996
 H1221 H 0.61272 1.24733 0.68143
 H1222 H 0.53974 1.25585 0.67622
 H1223 H 0.50350 1.22683 0.63445
 H1224 H 0.53967 1.18771 0.59815
 C1225 C 0.88202 0.33869 0.10454
 C1226 C 0.86535 0.36310 0.12676
 C1227 C 0.84293 0.34526 0.14949
 C1228 C 0.83726 0.30306 0.15007
 C1229 C 0.85319 0.27872 0.12764
 C1230 C 0.87570 0.29657 0.10485
 C1231 C 0.89142 0.27160 0.08282
 C1232 C 0.88503 0.23015 0.08316
 C1233 C 0.86297 0.21275 0.10533
 C1234 C 0.84718 0.23662 0.12740
 C1235 C 0.82669 0.37035 0.17138
 C1236 C 0.83253 0.41182 0.17094
 C1237 C 0.85438 0.42929 0.14876
 C1238 C 0.87065 0.40542 0.12690
 C1239 C 0.81578 0.28516 0.17420
 C1240 C 0.79810 0.27246 0.19501
 C1241 C 0.90535 0.35778 0.08168
 C1242 C 0.92354 0.37815 0.06449
 H1243 H 0.90870 0.28386 0.06513
 H1244 H 0.89723 0.21144 0.06609
 H1245 H 0.85805 0.18056 0.10545
 H1246 H 0.83016 0.22179 0.14418
 H1247 H 0.80929 0.35830 0.18907
 H1248 H 0.82002 0.43048 0.18792
 H1249 H 0.85879 0.46156 0.14849
 H1250 H 0.88739 0.42062 0.11019
 C1251 C 0.37889 0.84116 0.60448
 C1252 C 0.37286 0.86401 0.63007
 C1253 C 0.34853 0.84849 0.65269
 C1254 C 0.33036 0.81009 0.64984
 C1255 C 0.33617 0.78730 0.62429
 C1256 C 0.36036 0.80292 0.60152
 C1257 C 0.36528 0.77974 0.57615
 C1258 C 0.34684 0.74218 0.57328
 C1259 C 0.32341 0.72686 0.59554
 C1260 C 0.31817 0.74899 0.62085
 C1261 C 0.34285 0.87207 0.67788
 C1262 C 0.36058 0.90990 0.68067
 C1263 C 0.38436 0.92510 0.65862
 C1264 C 0.39057 0.90258 0.63362
 C1265 C 0.30649 0.79417 0.67357
 C1266 C 0.28781 0.78238 0.69423
 C1267 C 0.40262 0.85863 0.58114
 C1268 C 0.42133 0.87810 0.56368
 H1269 H 0.38337 0.79041 0.55834
 H1270 H 0.35082 0.72482 0.55368
 H1271 H 0.30918 0.69768 0.59319
 H1272 H 0.29985 0.73581 0.63763
 H1273 H 0.32448 0.86172 0.69563
 H1274 H 0.35577 0.92755 0.70003
 H1275 H 0.39807 0.95453 0.66089
 H1276 H 0.40942 0.91585 0.61719
 C1277 C 0.32890 1.11312 -0.10433
 C1278 C 0.29594 1.13982 -0.10009
 C1279 C 0.27945 1.16141 -0.12386
 C1280 C 0.29625 1.15652 -0.15173
 C1281 C 0.32803 1.12854 -0.15618
 C1282 C 0.34421 1.10667 -0.13253
 C1283 C 0.37595 1.07885 -0.13773
 C1284 C 0.39133 1.07291 -0.16535
 C1285 C 0.37568 1.09444 -0.18838
 C1286 C 0.34443 1.12195 -0.18399
 C1287 C 0.24637 1.18765 -0.11906
 C1288 C 0.22983 1.19229 -0.09164
 C1289 C 0.24618 1.17155 -0.06842
 C1290 C 0.27895 1.14564 -0.07247
 C1291 C 0.28187 1.18069 -0.17582
 C1292 C 0.27169 1.20025 -0.19650
 C1293 C 0.34952 1.09426 -0.07997
 C1294 C 0.37097 1.07869 -0.06199
 H1295 H 0.38910 1.06119 -0.12060
 H1296 H 0.41552 1.05146 -0.16889
 H1297 H 0.38776 1.08975 -0.20980
 H1298 H 0.33321 1.13783 -0.20266
 H1299 H 0.23277 1.20454 -0.13645
 H1300 H 0.20421 1.21215 -0.08839
 H1301 H 0.23331 1.17545 -0.04716
 H1302 H 0.29054 1.12991 -0.05384
 C1303 C 0.82813 0.61090 0.39519
 C1304 C 0.84336 0.60457 0.36695
 C1305 C 0.82659 0.62599 0.34332
 C1306 C 0.79419 0.65322 0.34783
 C1307 C 0.77695 0.65730 0.37560
 C1308 C 0.79431 0.63652 0.39942
 C1309 C 0.77724 0.64202 0.42705
 C1310 C 0.74337 0.66655 0.43100
 C1311 C 0.72592 0.68617 0.40766
 C1312 C 0.74258 0.68191 0.38024
 C1313 C 0.84291 0.61965 0.31547
 C1314 C 0.87460 0.59266 0.31100
 C1315 C 0.89081 0.57151 0.33402
 C1316 C 0.87557 0.57732 0.36170
 C1317 C 0.77983 0.67767 0.32394
 C1318 C 0.76975 0.69752 0.30342
 C1319 C 0.84941 0.59278 0.41952
 C1320 C 0.87124 0.57778 0.43750
 H1321 H 0.78966 0.62712 0.44575
 H1322 H 0.73052 0.67026 0.45228
 H1323 H 0.69959 0.70510 0.41085
 H1324 H 0.72824 0.69800 0.36276
 H1325 H 0.83121 0.63519 0.29680
 H1326 H 0.88655 0.58806 0.28953
 H1327 H 0.91533 0.55044 0.33042
 H1328 H 0.88915 0.55995 0.37882
 C1329 C 0.66887 1.11878 0.09969
 C1330 C 0.67368 1.16110 0.09829
 C1331 C 0.69194 1.18241 0.12165
 C1332 C 0.70460 1.16144 0.14654
 C1333 C 0.70188 1.11893 0.14727
 C1334 C 0.68410 1.09755 0.12377
 C1335 C 0.68118 1.05514 0.12525
 C1336 C 0.69536 1.03440 0.14924
 C1337 C 0.71279 1.05525 0.17216
 C1338 C 0.71607 1.09703 0.17132
 C1339 C 0.69651 1.22461 0.11968
 C1340 C 0.68284 1.24535 0.09555
 C1341 C 0.66446 1.22466 0.07293
 C1342 C 0.65994 1.18300 0.07414
 C1343 C 0.71793 1.18364 0.17203
 C1344 C 0.72794 1.20165 0.19359
 C1345 C 0.64429 1.09776 0.07821
 C1346 C 0.62102 1.08086 0.06201
 H1347 H 0.66808 1.03758 0.10788
 H1348 H 0.69276 1.00198 0.15006
 H1349 H 0.72379 1.03898 0.19072
 H1350 H 0.72994 1.11193 0.18963
 H1351 H 0.71055 1.24201 0.13677
 H1352 H 0.68631 1.27769 0.09449
 H1353 H 0.65373 1.24095 0.05429
 H1354 H 0.64579 1.16814 0.05592
 C1355 C 1.16580 0.61731 0.60302
 C1356 C 1.18179 0.65616 0.59790
 C1357 C 1.19759 0.67947 0.62119
 C1358 C 1.19776 0.66366 0.64944
 C1359 C 1.18399 0.62390 0.65426
 C1360 C 1.16792 0.60073 0.63103
 C1361 C 1.15358 0.56140 0.63657
 C1362 C 1.15505 0.54540 0.66422
 C1363 C 1.17097 0.56793 0.68686
 C1364 C 1.18527 0.60676 0.68208
 C1365 C 1.21244 0.71856 0.61562
 C1366 C 1.21240 0.73396 0.58778
 C1367 C 1.19719 0.71112 0.56502
 C1368 C 1.18183 0.67270 0.56992
 C1369 C 1.21065 0.68849 0.67376
 C1370 C 1.22047 0.70821 0.69458
 C1371 C 1.14260 0.59650 0.58069
 C1372 C 1.11997 0.57990 0.56390
 H1373 H 1.14135 0.54251 0.61959
 H1374 H 1.14400 0.51525 0.66804
 H1375 H 1.17226 0.55528 0.70827
 H1376 H 1.19736 0.62310 0.70041
 H1377 H 1.22433 0.73752 0.63268
 H1378 H 1.22427 0.76379 0.58386
 H1379 H 1.19721 0.72325 0.54343
 H1380 H 1.17033 0.65599 0.55157
 C1381 C 0.66480 0.87631 -0.09665
 C1382 C 0.68805 0.89631 -0.11779
 C1383 C 0.70511 0.87416 -0.14115
 C1384 C 0.69888 0.83205 -0.14324
 C1385 C 0.67783 0.81171 -0.12114
 C1386 C 0.66077 0.83387 -0.09779
 C1387 C 0.63937 0.81285 -0.07622
 C1388 C 0.63494 0.77118 -0.07763
 C1389 C 0.65157 0.74957 -0.10044
 C1390 C 0.67281 0.76944 -0.12201
 C1391 C 0.72767 0.89500 -0.16221
 C1392 C 0.73336 0.93648 -0.16023
 C1393 C 0.71670 0.95810 -0.13741
 C1394 C 0.69422 0.93840 -0.11640
 C1395 C 0.71228 0.81008 -0.16875
 C1396 C 0.72261 0.79232 -0.19030
 C1397 C 0.64117 0.89957 -0.07591
 C1398 C 0.61855 0.91806 -0.06022
 H1399 H 0.62611 0.82836 -0.05796
 H1400 H 0.61854 0.75557 -0.06090
 H1401 H 0.64796 0.71722 -0.10147
 H1402 H 0.68530 0.75131 -0.13928
 H1403 H 0.74130 0.87946 -0.18031
 H1404 H 0.75082 0.95194 -0.17648
 H1405 H 0.72123 0.99031 -0.13595
 H1406 H 0.68202 0.95641 -0.09896
 C1407 C 1.16177 0.37753 0.40152
 C1408 C 1.20106 0.38778 0.39184
 C1409 C 1.21868 0.36640 0.36832
 C1410 C 1.19656 0.33546 0.35425
 C1411 C 1.15741 0.32501 0.36408
 C1412 C 1.14038 0.34542 0.38817
 C1413 C 1.10163 0.33349 0.39807
 C1414 C 1.08006 0.30291 0.38426
 C1415 C 1.09626 0.28376 0.36023
 C1416 C 1.13438 0.29467 0.35010
 C1417 C 1.25803 0.37712 0.35907
 C1418 C 1.27925 0.40829 0.37250
 C1419 C 1.26188 0.42940 0.39530
 C1420 C 1.22323 0.41934 0.40499
 C1421 C 1.21318 0.31511 0.32910
 C1422 C 1.22537 0.29810 0.30778
 C1423 C 1.14120 0.40182 0.42323
 C1424 C 1.11976 0.42054 0.43956
 H1425 H 1.08763 0.34749 0.41664
 H1426 H 1.05052 0.29420 0.39217
 H1427 H 1.07932 0.26015 0.34948
 H1428 H 1.14569 0.27874 0.33138
 H1429 H 1.27271 0.36161 0.34138
 H1430 H 1.30931 0.41616 0.36512
 H1431 H 1.27845 0.45367 0.40558
 H1432 H 1.21098 0.43639 0.42289
 C1433 C 0.32990 0.88593 0.10497
 C1434 C 0.33939 0.89718 0.13373
 C1435 C 0.32434 0.87418 0.15716
 C1436 C 0.29960 0.84012 0.15185
 C1437 C 0.28820 0.83022 0.12324
 C1438 C 0.30365 0.85296 0.09974
 C1439 C 0.29277 0.84166 0.07137
 C1440 C 0.26704 0.80911 0.06628
 C1441 C 0.25160 0.78721 0.08921
 C1442 C 0.26203 0.79745 0.11742
 C1443 C 0.33490 0.88571 0.18561
 C1444 C 0.35963 0.91892 0.19082
 C1445 C 0.37438 0.94134 0.16798
 C1446 C 0.36443 0.93082 0.13975
 C1447 C 0.28736 0.81471 0.17581
 C1448 C 0.27833 0.79423 0.19626
 C1449 C 0.35063 0.90603 0.08128
 C1450 C 0.37195 0.92255 0.06374
 H1451 H 0.30386 0.85801 0.05290
 H1452 H 0.25892 0.80090 0.04442
 H1453 H 0.23145 0.76215 0.08509
 H1454 H 0.24942 0.77948 0.13457
 H1455 H 0.32413 0.86929 0.20414
 H1456 H 0.36740 0.92729 0.21272
 H1457 H 0.39372 0.96699 0.17217
 H1458 H 0.37649 0.94944 0.12277
 C1459 C 0.82590 0.38405 0.60146
 C1460 C 0.80866 0.40558 0.62483
 C1461 C 0.79176 0.38443 0.64854
 C1462 C 0.79207 0.34180 0.64877
 C1463 C 0.80717 0.32031 0.62463
 C1464 C 0.82424 0.34146 0.60099
 C1465 C 0.84002 0.31922 0.57747
 C1466 C 0.83881 0.27734 0.57719
 C1467 C 0.82188 0.25674 0.60015
 C1468 C 0.80623 0.27777 0.62367
 C1469 C 0.77531 0.40671 0.67180
 C1470 C 0.77526 0.44865 0.67159
 C1471 C 0.79168 0.46927 0.64842
 C1472 C 0.80841 0.44815 0.62531
 C1473 C 0.77873 0.32013 0.67427
 C1474 C 0.76854 0.30202 0.69557
 C1475 C 0.84947 0.40525 0.57977
 C1476 C 0.87215 0.42205 0.56332
 H1477 H 0.85325 0.33395 0.55902
 H1478 H 0.85107 0.26077 0.55905
 H1479 H 0.82123 0.22427 0.59980
 H1480 H 0.79348 0.26036 0.64107
 H1481 H 0.76212 0.39200 0.69028
 H1482 H 0.76234 0.46523 0.68949
 H1483 H 0.79135 0.50183 0.64832
 H1484 H 0.82081 0.46549 0.60775
 C1485 C 1.10405 1.14164 0.62013
 C1486 C 1.09112 1.17695 0.63444
 C1487 C 1.11673 1.19495 0.65528
 C1488 C 1.15481 1.17736 0.66130
 C1489 C 1.16836 1.14291 0.64626
 C1490 C 1.14263 1.12464 0.62567
 C1491 C 1.15626 1.08955 0.61108
 C1492 C 1.19447 1.07342 0.61662
 C1493 C 1.21993 1.09175 0.63663
 C1494 C 1.20719 1.12611 0.65138
 C1495 C 1.10376 1.23059 0.66938
 C1496 C 1.06642 1.24792 0.66286
 C1497 C 1.04118 1.23014 0.64243
 C1498 C 1.05318 1.19495 0.62834
 C1499 C 1.17978 1.19434 0.68336
 C1500 C 1.20017 1.20884 0.70185
 C1501 C 1.07833 1.12260 0.59930
 C1502 C 1.05980 1.10446 0.58139
 H1503 H 1.13769 1.07420 0.59525
 H1504 H 1.20440 1.04662 0.60528
 H1505 H 1.24966 1.07926 0.64079
 H1506 H 1.22809 1.13934 0.66673
 H1507 H 1.12247 1.24564 0.68530
 H1508 H 1.05706 1.27530 0.67369
 H1509 H 1.01222 1.24374 0.63747
 H1510 H 1.03259 1.18219 0.61257
 C1511 C 0.66038 0.60211 0.11151
 C1512 C 0.67263 0.64192 0.10542
 C1513 C 0.68570 0.66739 0.12816
 C1514 C 0.68547 0.65300 0.15672
 C1515 C 0.67543 0.61251 0.16260
 C1516 C 0.66285 0.58688 0.13981
 C1517 C 0.65220 0.54662 0.14603
 C1518 C 0.65429 0.53206 0.17408
 C1519 C 0.66686 0.55713 0.19643
 C1520 C 0.67724 0.59699 0.19091
 C1521 C 0.69808 0.70709 0.12176
 C1522 C 0.69597 0.72169 0.09375
 C1523 C 0.68276 0.69687 0.07144
 C1524 C 0.67142 0.65728 0.07705
 C1525 C 0.69584 0.67968 0.18009
 C1526 C 0.70643 0.70079 0.19966
 C1527 C 0.64003 0.57894 0.08959
 C1528 C 0.61990 0.56157 0.07201
 H1529 H 0.64251 0.52596 0.12928
 H1530 H 0.64616 0.50116 0.17847
 H1531 H 0.66852 0.54563 0.21817
 H1532 H 0.68680 0.61539 0.20900
 H1533 H 0.70923 0.72732 0.13832
 H1534 H 0.70439 0.75251 0.08942
 H1535 H 0.68134 0.70837 0.04970
 H1536 H 0.66175 0.63885 0.05900
 C1537 C 1.13784 0.87078 0.38453
 C1538 C 1.14533 0.88953 0.35782
 C1539 C 1.16421 0.86741 0.33547
 C1540 C 1.17565 0.82704 0.34029
 C1541 C 1.16974 0.80887 0.36739
 C1542 C 1.15006 0.83068 0.38955
 C1543 C 1.14296 0.81167 0.41628
 C1544 C 1.15542 0.77218 0.42094
 C1545 C 1.17543 0.75104 0.39934
 C1546 C 1.18294 0.76916 0.37290
 C1547 C 1.17124 0.88638 0.30870
 C1548 C 1.15999 0.92629 0.30431
 C1549 C 1.14153 0.94806 0.32630
 C1550 C 1.13411 0.93003 0.35279
 C1551 C 1.19342 0.80428 0.31727
 C1552 C 1.20909 0.78618 0.29802
 C1553 C 1.11635 0.89245 0.40646
 C1554 C 1.09752 0.91079 0.42411
 H1555 H 1.12777 0.82707 0.43380
 H1556 H 1.14977 0.75803 0.44149
 H1557 H 1.18551 0.72055 0.40315
 H1558 H 1.19917 0.75179 0.35688
 H1559 H 1.18563 0.87071 0.29096
 H1560 H 1.16571 0.94040 0.28376
 H1561 H 1.13295 0.97906 0.32287
 H1562 H 1.11967 0.94823 0.36923
 C1563 C 0.57391 0.35649 -0.13391
 C1564 C 0.57678 0.37076 -0.16241
 C1565 C 0.60767 0.35578 -0.18072
 C1566 C 0.63533 0.32679 -0.17020
 C1567 C 0.63156 0.31153 -0.14200
 C1568 C 0.60014 0.32589 -0.12395
 C1569 C 0.59612 0.30966 -0.09597
 C1570 C 0.62262 0.28010 -0.08615
 C1571 C 0.65394 0.26657 -0.10367
 C1572 C 0.65877 0.28229 -0.13120
 C1573 C 0.61049 0.37079 -0.20912
 C1574 C 0.58341 0.39980 -0.21905
 C1575 C 0.55307 0.41441 -0.20105
 C1576 C 0.54969 0.40020 -0.17298
 C1577 C 0.66634 0.31113 -0.18886
 C1578 C 0.69070 0.29678 -0.20498
 C1579 C 0.54975 0.37810 -0.11323
 C1580 C 0.53449 0.39730 -0.09425
 H1581 H 0.57218 0.31927 -0.08159
 H1582 H 0.61886 0.26768 -0.06482
 H1583 H 0.67428 0.24341 -0.09605
 H1584 H 0.68358 0.27076 -0.14405
 H1585 H 0.63366 0.36041 -0.22387
 H1586 H 0.58600 0.41100 -0.24081
 H1587 H 0.53203 0.43686 -0.20886
 H1588 H 0.52548 0.41218 -0.15976
 C1589 C 0.88581 1.09546 0.36122
 C1590 C 0.88087 1.13604 0.37007
 C1591 C 0.85855 1.16266 0.35257
 C1592 C 0.84170 1.14834 0.32653
 C1593 C 0.84745 1.10810 0.31732
 C1594 C 0.86976 1.08142 0.33485
 C1595 C 0.87524 1.04114 0.32562
 C1596 C 0.85900 1.02769 0.29955
 C1597 C 0.83704 1.05389 0.28227
 C1598 C 0.83120 1.09369 0.29095
 C1599 C 0.85345 1.20313 0.36165
 C1600 C 0.87024 1.21683 0.38745
 C1601 C 0.89214 1.19068 0.40475
 C1602 C 0.89752 1.15075 0.39629
 C1603 C 0.81861 1.17509 0.30907
 C1604 C 0.79958 1.19671 0.29385
 C1605 C 0.90508 1.06816 0.38057
 C1606 C 0.92021 1.04930 0.39948
 H1607 H 0.89222 1.01978 0.33837
 H1608 H 0.86350 0.99681 0.29274
 H1609 H 0.82446 1.04335 0.26204
 H1610 H 0.81390 1.11295 0.27679
 H1611 H 0.83659 1.22459 0.34892
 H1612 H 0.86631 1.24787 0.39403
 H1613 H 0.90513 1.20141 0.42480
 H1614 H 0.91503 1.13174 0.41046
 C1615 C 0.39061 0.64081 -0.12384
 C1616 C 0.40060 0.63527 -0.15316
 C1617 C 0.37740 0.65489 -0.17453
 C1618 C 0.34495 0.68012 -0.16618
 C1619 C 0.33695 0.68800 -0.13679
 C1620 C 0.35960 0.66774 -0.11545
 C1621 C 0.35028 0.67460 -0.08606
 C1622 C 0.31944 0.70100 -0.07810
 C1623 C 0.29756 0.72129 -0.09906
 C1624 C 0.30626 0.71526 -0.12812
 C1625 C 0.38718 0.64855 -0.20389
 C1626 C 0.41936 0.62364 -0.21178
 C1627 C 0.44228 0.60452 -0.19075
 C1628 C 0.43309 0.61009 -0.16172
 C1629 C 0.31897 0.69699 -0.18773
 C1630 C 0.29727 0.71154 -0.20544
 C1631 C 0.41048 0.61709 -0.10235
 C1632 C 0.42587 0.59696 -0.08415
 H1633 H 0.36672 0.65975 -0.06897
 H1634 H 0.31254 0.70578 -0.05555
 H1635 H 0.27354 0.74152 -0.09272
 H1636 H 0.28840 0.73178 -0.14365
 H1637 H 0.37031 0.66294 -0.22098
 H1638 H 0.42658 0.61923 -0.23431
 H1639 H 0.46730 0.58528 -0.19695
 H1640 H 0.45182 0.59471 -0.14610
 C1641 C 0.87552 0.89346 0.63359
 C1642 C 0.89091 0.89087 0.66191
 C1643 C 0.87102 0.86614 0.68213
 C1644 C 0.83618 0.84436 0.67360
 C1645 C 0.82014 0.84786 0.64549
 C1646 C 0.83963 0.87312 0.62546
 C1647 C 0.82280 0.87713 0.59751
 C1648 C 0.78764 0.85652 0.58970
 C1649 C 0.76886 0.83122 0.60926
 C1650 C 0.78499 0.82653 0.63679
 C1651 C 0.88681 0.86356 0.71044
 C1652 C 0.92141 0.88501 0.71843
 C1653 C 0.94092 0.90935 0.69855
 C1654 C 0.92600 0.91233 0.67054
 C1655 C 0.81610 0.81903 0.69388
 C1656 C 0.79833 0.79842 0.71055
 C1657 C 0.89835 0.91387 0.61198
 C1658 C 0.91687 0.92878 0.59278
 H1659 H 0.83635 0.89649 0.58154
 H1660 H 0.77497 0.86016 0.56835
 H1661 H 0.74147 0.81542 0.60319
 H1662 H 0.76939 0.80634 0.65120
 H1663 H 0.87264 0.84501 0.72663
 H1664 H 0.93312 0.88271 0.74015
 H1665 H 0.96781 0.92590 0.70481
 H1666 H 0.94212 0.93167 0.65579
 C1667 C 0.39103 0.40029 0.13870
 C1668 C 0.38505 0.41165 0.16773
 C1669 C 0.36282 0.38601 0.18613
 C1670 C 0.34707 0.34937 0.17524
 C1671 C 0.35470 0.33708 0.14661
 C1672 C 0.37653 0.36285 0.12811
 C1673 C 0.38329 0.35039 0.09925
 C1674 C 0.36933 0.31327 0.08924
 C1675 C 0.34843 0.28778 0.10758
 C1676 C 0.34093 0.29945 0.13594
 C1677 C 0.35692 0.39772 0.21519
 C1678 C 0.37285 0.43374 0.22573
 C1679 C 0.39470 0.45886 0.20766
 C1680 C 0.40075 0.44817 0.17890
 C1681 C 0.32253 0.32457 0.19341
 C1682 C 0.30221 0.30438 0.20892
 C1683 C 0.41125 0.42685 0.11909
 C1684 C 0.42673 0.44554 0.10012
 H1685 H 0.39961 0.36897 0.08414
 H1686 H 0.37496 0.30416 0.06718
 H1687 H 0.33801 0.25883 0.09981
 H1688 H 0.32440 0.27864 0.14936
 H1689 H 0.34025 0.37908 0.23008
 H1690 H 0.36831 0.44212 0.24806
 H1691 H 0.40709 0.48669 0.21602
 H1692 H 0.41804 0.46857 0.16562
   
