data_POSCAR
  _audit_creation_date              2014-09-24
  _audit_creation_method            'ToBaCCo'
  _symmetry_space_group_name_H-M    'P1'
  _symmetry_Int_Tables_number       1
  _symmetry_cell_setting            triclinic
  loop_
  _symmetry_equiv_pos_as_xyz
 x,y,z
_cell_length_a 42.4973
_cell_length_b 42.6695
_cell_length_c 42.6601
_cell_angle_alpha 90.213700
_cell_angle_beta 89.910900
_cell_angle_gamma 90.017900
loop_
  _atom_site_label
  _atom_site_type_symbol
  _atom_site_fract_x
  _atom_site_fract_y
  _atom_site_fract_z
C1 C 0.24846 0.99217 -0.01393
 C2 C 0.24842 0.99182 0.01801
 C3 C 0.24601 0.96204 0.03606
 C4 C 0.25024 1.02145 0.03660
 C5 C 0.24879 1.02179 -0.03207
 C6 C 0.25003 0.96316 -0.03296
 C7 C 0.22237 0.93987 0.02962
 C8 C 0.21939 0.91294 0.04801
 C9 C 0.23926 0.90816 0.07378
 C10 C 0.26298 0.93026 0.08016
 C11 C 0.26629 0.95688 0.06148
 C12 C 0.22852 1.02691 0.06074
 C13 C 0.22927 1.05480 0.07796
 C14 C 0.25173 1.07832 0.07116
 C15 C 0.27341 1.07263 0.04679
 C16 C 0.27327 1.04422 0.03040
 C17 C 0.27330 1.02725 -0.05340
 C18 C 0.27444 1.05502 -0.07045
 C19 C 0.25075 1.07778 -0.06685
 C20 C 0.22635 1.07244 -0.04529
 C21 C 0.22516 1.04450 -0.02825
 C22 C 0.27781 0.94545 -0.03421
 C23 C 0.28113 0.92151 -0.05648
 C24 C 0.25645 0.91449 -0.07720
 C25 C 0.22823 0.93157 -0.07506
 C26 C 0.22522 0.95592 -0.05335
 H27 H 0.20576 0.94369 0.01081
 H28 H 0.20100 0.89619 0.04261
 H29 H 0.27924 0.92685 0.09936
 H30 H 0.28465 0.97363 0.06698
 H31 H 0.21051 1.00972 0.06594
 H32 H 0.21121 1.05791 0.09553
 H33 H 0.29100 1.04019 0.01259
 H34 H 0.29194 1.01020 -0.05644
 H35 H 0.29419 1.05875 -0.08603
 H36 H 0.20795 1.08971 -0.04200
 H37 H 0.20593 1.04060 -0.01204
 H38 H 0.29740 0.95123 -0.01904
 H39 H 0.30317 0.90885 -0.05797
 H40 H 0.20910 0.92723 -0.09124
 H41 H 0.20388 0.96979 -0.05303
 H42 H 0.29119 1.08985 0.04085
 C43 C 0.74642 0.50011 0.48096
 C44 C 0.74573 0.50761 0.51192
 C45 C 0.74445 0.48357 0.53707
 C46 C 0.74596 0.54065 0.52270
 C47 C 0.74771 0.52433 0.45599
 C48 C 0.74638 0.46726 0.46962
 C49 C 0.72084 0.46053 0.53781
 C50 C 0.71886 0.43965 0.56301
 C51 C 0.74033 0.44174 0.58808
 C52 C 0.76367 0.46495 0.58731
 C53 C 0.76580 0.48553 0.56208
 C54 C 0.72074 0.55166 0.54079
 C55 C 0.72173 0.58150 0.55405
 C56 C 0.74834 0.60068 0.54997
 C57 C 0.77280 0.59041 0.53033
 C58 C 0.77174 0.56043 0.51691
 C59 C 0.77048 0.52166 0.43222
 C60 C 0.77067 0.54241 0.40706
 C61 C 0.74851 0.56661 0.40546
 C62 C 0.72569 0.56946 0.42923
 C63 C 0.72508 0.54824 0.45411
 C64 C 0.77087 0.44652 0.47712
 C65 C 0.77349 0.41779 0.46138
 C66 C 0.75209 0.40993 0.43759
 C67 C 0.72652 0.42985 0.43163
 C68 C 0.72376 0.45828 0.44746
 H69 H 0.70346 0.45921 0.51931
 H70 H 0.69996 0.42268 0.56323
 H71 H 0.78035 0.46720 0.60638
 H72 H 0.78400 0.50331 0.56220
 H73 H 0.70054 0.53680 0.54519
 H74 H 0.70209 0.58919 0.56833
 H75 H 0.79145 0.55220 0.50302
 H76 H 0.78792 0.50316 0.43296
 H77 H 0.78828 0.53967 0.38886
 H78 H 0.70774 0.58741 0.42806
 H79 H 0.70657 0.55006 0.47149
 H80 H 0.78876 0.45325 0.49391
 H81 H 0.79319 0.40255 0.46648
 H82 H 0.70915 0.42387 0.41405
 H83 H 0.70466 0.47395 0.44149
 H84 H 0.79344 0.60488 0.52677
 C85 C 0.75583 0.98760 0.99625
 C86 C 0.75293 1.01936 0.99368
 C87 C 0.75044 1.04073 1.02125
 C88 C 0.75240 1.03525 0.96270
 C89 C 0.76151 0.96762 0.96792
 C90 C 0.75304 0.97115 1.02703
 C91 C 0.72675 1.06365 1.02164
 C92 C 0.72653 1.08705 1.04453
 C93 C 0.74975 1.08793 1.06781
 C94 C 0.77300 1.06440 1.06814
 C95 C 0.77341 1.04106 1.04491
 C96 C 0.72967 1.02774 0.94001
 C97 C 0.72785 1.04496 0.91220
 C98 C 0.74821 1.07034 0.90702
 C99 C 0.77159 1.07711 0.92934
 C100 C 0.77354 1.05982 0.95693
 C101 C 0.78597 0.97441 0.94671
 C102 C 0.78990 0.95651 0.91942
 C103 C 0.77030 0.93075 0.91336
 C104 C 0.74639 0.92341 0.93500
 C105 C 0.74207 0.94167 0.96197
 C106 C 0.77444 0.94734 1.03459
 C107 C 0.77151 0.93054 1.06251
 C108 C 0.74698 0.93722 1.08393
 C109 C 0.72607 0.96170 1.07662
 C110 C 0.72859 0.97794 1.04825
 H111 H 0.70892 1.06400 1.00353
 H112 H 0.70845 1.10492 1.04369
 H113 H 0.79170 1.06479 1.08532
 H114 H 0.79234 1.02408 1.04465
 H115 H 0.71289 1.00910 0.94418
 H116 H 0.70981 1.03918 0.89522
 H117 H 0.79135 1.06586 0.97406
 H118 H 0.80180 0.99382 0.95111
 H119 H 0.80851 0.96259 0.90315
 H120 H 0.73045 0.90407 0.93070
 H121 H 0.72310 0.93593 0.97793
 H122 H 0.79362 0.94172 1.01879
 H123 H 0.78917 0.91299 1.06725
 H124 H 0.70693 0.96760 1.09239
 H125 H 0.71112 0.99552 1.04274
 H126 H 0.78836 1.09583 0.92560
 C127 C 0.25163 0.50569 0.50210
 C128 C 0.25453 0.47417 0.49934
 C129 C 0.25954 0.45382 0.52680
 C130 C 0.25144 0.45792 0.46882
 C131 C 0.24776 0.52622 0.47443
 C132 C 0.25202 0.52211 0.53288
 C133 C 0.29013 0.44687 0.53682
 C134 C 0.29501 0.42462 0.56033
 C135 C 0.26935 0.40962 0.57461
 C136 C 0.23867 0.41708 0.56487
 C137 C 0.23387 0.43867 0.54081
 C138 C 0.27823 0.44679 0.45309
 C139 C 0.27515 0.42796 0.42633
 C140 C 0.24512 0.41941 0.41537
 C141 C 0.21840 0.43102 0.43096
 C142 C 0.22152 0.45038 0.45728
 C143 C 0.22246 0.54730 0.47362
 C144 C 0.22148 0.57096 0.45119
 C145 C 0.24564 0.57389 0.42899
 C146 C 0.27049 0.55204 0.42905
 C147 C 0.27156 0.52847 0.45172
 C148 C 0.22818 0.51695 0.55508
 C149 C 0.22527 0.53664 0.58121
 C150 C 0.24548 0.56240 0.58506
 C151 C 0.27007 0.56686 0.56345
 C152 C 0.27324 0.54691 0.53761
 H153 H 0.31020 0.45793 0.52575
 H154 H 0.31885 0.41889 0.56721
 H155 H 0.21851 0.40522 0.57486
 H156 H 0.21017 0.44317 0.53269
 H157 H 0.30149 0.45199 0.46206
 H158 H 0.29618 0.41874 0.41531
 H159 H 0.20063 0.45841 0.46946
 H160 H 0.20410 0.54621 0.49124
 H161 H 0.20221 0.58757 0.45173
 H162 H 0.28998 0.55411 0.41286
 H163 H 0.29185 0.51316 0.45262
 H164 H 0.21078 0.49882 0.55136
 H165 H 0.20623 0.53269 0.59763
 H166 H 0.28660 0.58597 0.56623
 H167 H 0.29160 0.55150 0.52059
 H168 H 0.19506 0.42444 0.42317
 C169 C 0.99731 0.23206 0.00182
 C170 C 0.99609 0.23012 -0.03007
 C171 C 0.96583 0.23288 -0.04740
 C172 C 1.02465 0.22602 -0.04993
 C173 C 1.02737 0.23143 0.01967
 C174 C 0.96832 0.23540 0.02109
 C175 C 0.94058 0.21241 -0.04196
 C176 C 0.91253 0.21558 -0.05882
 C177 C 0.90934 0.23871 -0.08211
 C178 C 0.93497 0.25916 -0.08738
 C179 C 0.96275 0.25614 -0.07027
 C180 C 1.02447 0.20301 -0.07348
 C181 C 1.04967 0.20013 -0.09425
 C182 C 1.07608 0.21981 -0.09176
 C183 C 1.07644 0.24273 -0.06774
 C184 C 1.05074 0.24607 -0.04743
 C185 C 1.03367 0.25575 0.04089
 C186 C 1.06081 0.25547 0.05921
 C187 C 1.08257 0.23050 0.05698
 C188 C 1.07645 0.20646 0.03504
 C189 C 1.04896 0.20668 0.01689
 C190 C 0.94755 0.26069 0.01709
 C191 C 0.92057 0.26329 0.03579
 C192 C 0.91446 0.24122 0.05934
 C193 C 0.93529 0.21591 0.06323
 C194 C 0.96199 0.21315 0.04436
 H195 H 0.94261 0.19394 -0.02474
 H196 H 0.89346 0.19942 -0.05400
 H197 H 0.93398 0.27801 -0.10414
 H198 H 0.98195 0.27224 -0.07474
 H199 H 1.00448 0.18746 -0.07610
 H200 H 1.04838 0.18236 -0.11244
 H201 H 1.05096 0.26479 -0.03022
 H202 H 1.01744 0.27520 0.04324
 H203 H 1.06445 0.27534 0.07449
 H204 H 1.09257 0.18695 0.03244
 H205 H 1.04440 0.18740 0.00095
 H206 H 0.95228 0.27841 -0.00040
 H207 H 0.90481 0.28292 0.03234
 H208 H 0.93082 0.19802 0.08059
 H209 H 0.97769 0.19347 0.04777
 H210 H 1.09560 0.25918 -0.06525
 C211 C 0.49973 0.76567 0.49323
 C212 C 0.50082 0.76593 0.52510
 C213 C 0.47153 0.76583 0.54438
 C214 C 0.53134 0.76760 0.54193
 C215 C 0.52822 0.77090 0.47389
 C216 C 0.47012 0.75968 0.47544
 C217 C 0.44779 0.78805 0.53893
 C218 C 0.41981 0.78744 0.55620
 C219 C 0.41511 0.76501 0.57975
 C220 C 0.43906 0.74296 0.58548
 C221 C 0.46700 0.74350 0.56808
 C222 C 0.54584 0.79660 0.54763
 C223 C 0.57391 0.79818 0.56477
 C224 C 0.58736 0.77090 0.57729
 C225 C 0.57306 0.74181 0.57108
 C226 C 0.54549 0.74018 0.55323
 C227 C 0.54264 0.74550 0.45871
 C228 C 0.56477 0.75065 0.43496
 C229 C 0.57230 0.78137 0.42563
 C230 C 0.55854 0.80672 0.44158
 C231 C 0.53698 0.80153 0.46582
 C232 C 0.45123 0.73338 0.48183
 C233 C 0.42478 0.72680 0.46338
 C234 C 0.41727 0.74584 0.43769
 C235 C 0.43580 0.77245 0.43170
 C236 C 0.46189 0.77924 0.45034
 H237 H 0.45086 0.80580 0.52109
 H238 H 0.40178 0.80466 0.55122
 H239 H 0.43609 0.72472 0.60276
 H240 H 0.48466 0.72588 0.57267
 H241 H 0.53530 0.81799 0.53898
 H242 H 0.58470 0.82080 0.56898
 H243 H 0.53500 0.71752 0.54851
 H244 H 0.53561 0.72174 0.46421
 H245 H 0.57452 0.73063 0.42269
 H246 H 0.56386 0.83055 0.43468
 H247 H 0.52555 0.82139 0.47688
 H248 H 0.45732 0.71759 0.50068
 H249 H 0.41069 0.70631 0.46859
 H250 H 0.43004 0.78821 0.41273
 H251 H 0.47571 0.79984 0.44499
 H252 H 0.58338 0.72032 0.57971
 C253 C 0.01901 0.73981 0.00451
 C254 C -0.01268 0.73739 0.00749
 C255 C -0.03291 0.73186 -0.02034
 C256 C -0.02928 0.73991 0.03812
 C257 C 0.03989 0.74767 0.03096
 C258 C 0.03468 0.73466 -0.02597
 C259 C -0.03367 0.75353 -0.04494
 C260 C -0.05426 0.74939 -0.07005
 C261 C -0.07539 0.72383 -0.07061
 C262 C -0.07472 0.70244 -0.04559
 C263 C -0.05359 0.70629 -0.02086
 C264 C -0.05666 0.75814 0.04006
 C265 C -0.07607 0.75668 0.06636
 C266 C -0.06841 0.73700 0.09175
 C267 C -0.03977 0.72047 0.09066
 C268 C -0.02077 0.72131 0.06384
 C269 C 0.05928 0.72441 0.04363
 C270 C 0.08156 0.73207 0.06635
 C271 C 0.08539 0.76333 0.07616
 C272 C 0.06622 0.78668 0.06318
 C273 C 0.04329 0.77883 0.04096
 C274 C 0.04074 0.70421 -0.03663
 C275 C 0.05650 0.69943 -0.06501
 C276 C 0.06554 0.72501 -0.08374
 C277 C 0.05890 0.75563 -0.07291
 C278 C 0.04419 0.76030 -0.04400
 H279 H -0.01904 0.77428 -0.04420
 H280 H -0.05439 0.76731 -0.08785
 H281 H -0.09074 0.68267 -0.04502
 H282 H -0.05372 0.68961 -0.00178
 H283 H -0.06359 0.77289 0.02064
 H284 H -0.09679 0.77136 0.06655
 H285 H -0.00036 0.70624 0.06269
 H286 H 0.05737 0.70037 0.03559
 H287 H 0.09659 0.71374 0.07543
 H288 H 0.06907 0.81094 0.07018
 H289 H 0.02893 0.79712 0.03078
 H290 H 0.03371 0.68420 -0.02272
 H291 H 0.06148 0.67561 -0.07240
 H292 H 0.06632 0.77620 -0.08565
 H293 H 0.04003 0.78397 -0.03571
 H294 H -0.03293 0.70537 0.10985
 C295 C 0.51290 0.24029 0.48545
 C296 C 0.48145 0.23946 0.49107
 C297 C 0.45756 0.24013 0.46575
 C298 C 0.46867 0.23941 0.52341
 C299 C 0.53623 0.23946 0.51130
 C300 C 0.52617 0.24233 0.45340
 C301 C 0.45711 0.26408 0.44325
 C302 C 0.43226 0.26614 0.42190
 C303 C 0.40721 0.24459 0.42317
 C304 C 0.40769 0.22081 0.44569
 C305 C 0.43272 0.21844 0.46659
 C306 C 0.44935 0.26428 0.53291
 C307 C 0.43535 0.26413 0.56241
 C308 C 0.44001 0.23877 0.58284
 C309 C 0.46035 0.21442 0.57382
 C310 C 0.47442 0.21457 0.54413
 C311 C 0.55979 0.21646 0.51091
 C312 C 0.58241 0.21554 0.53452
 C313 C 0.58169 0.23734 0.55917
 C314 C 0.55832 0.26068 0.55943
 C315 C 0.53596 0.26191 0.53547
 C316 C 0.52182 0.21830 0.43124
 C317 C 0.53825 0.21896 0.40272
 C318 C 0.55943 0.24340 0.39629
 C319 C 0.56211 0.26833 0.41778
 C320 C 0.54588 0.26760 0.44614
 H321 H 0.47534 0.28181 0.44291
 H322 H 0.43206 0.28527 0.40531
 H323 H 0.38855 0.20410 0.44718
 H324 H 0.43237 0.20004 0.48402
 H325 H 0.44497 0.28377 0.51731
 H326 H 0.42071 0.28381 0.56909
 H327 H 0.48922 0.19513 0.53705
 H328 H 0.56065 0.19918 0.49225
 H329 H 0.60047 0.19764 0.53363
 H330 H 0.55783 0.27850 0.57754
 H331 H 0.51865 0.28052 0.53563
 H332 H 0.50678 0.19853 0.43655
 H333 H 0.53558 0.19967 0.38636
 H334 H 0.57731 0.28812 0.41303
 H335 H 0.54925 0.28648 0.46286
 H336 H 0.46445 0.19480 0.58932
 C337 C 1.00740 0.01244 0.26793
 C338 C 1.00881 -0.01949 0.26840
 C339 C 0.97962 -0.03883 0.26830
 C340 C 1.03909 -0.03700 0.26814
 C341 C 1.03584 0.03280 0.26966
 C342 C 0.97674 0.02901 0.26580
 C343 C 0.95619 -0.03473 0.29116
 C344 C 0.92829 -0.05205 0.28976
 C345 C 0.92346 -0.07455 0.26601
 C346 C 0.94751 -0.07895 0.24345
 C347 C 0.97518 -0.06132 0.24473
 C348 C 1.04372 -0.06117 0.28978
 C349 C 1.07089 -0.07949 0.28881
 C350 C 1.09428 -0.07420 0.26583
 C351 C 1.08990 -0.04923 0.24477
 C352 C 1.06243 -0.03116 0.24558
 C353 C 1.03902 0.05769 0.24845
 C354 C 1.06456 0.07816 0.25039
 C355 C 1.08756 0.07421 0.27370
 C356 C 1.08468 0.04908 0.29467
 C357 C 1.05879 0.02883 0.29301
 C358 C 0.95626 0.02389 0.24046
 C359 C 0.92758 0.03987 0.23883
 C360 C 0.91930 0.06170 0.26209
 C361 C 0.93969 0.06642 0.28766
 C362 C 0.96821 0.05037 0.28933
 H363 H 0.95937 -0.01787 0.30992
 H364 H 0.91054 -0.04800 0.30759
 H365 H 0.94524 -0.09523 0.22418
 H366 H 0.99297 -0.06479 0.22683
 H367 H 1.02610 -0.06596 0.30751
 H368 H 1.07320 -0.09736 0.30650
 H369 H 1.05915 -0.01299 0.22823
 H370 H 1.02169 0.06124 0.23022
 H371 H 1.06654 0.09670 0.23326
 H372 H 1.10222 0.04548 0.31270
 H373 H 1.05653 0.01027 0.31011
 H374 H 0.96260 0.00768 0.22191
 H375 H 0.91222 0.03580 0.21899
 H376 H 0.93360 0.08238 0.30648
 H377 H 0.98361 0.05443 0.30916
 H378 H 1.10731 -0.04427 0.22688
 C379 C 0.49461 0.50072 0.76564
 C380 C 0.49150 0.53237 0.76674
 C381 C 0.51848 0.55415 0.76378
 C382 C 0.46055 0.54770 0.77113
 C383 C 0.46680 0.47982 0.76808
 C384 C 0.52559 0.48511 0.76148
 C385 C 0.54405 0.55295 0.78451
 C386 C 0.56726 0.57617 0.78359
 C387 C 0.56491 0.60108 0.76216
 C388 C 0.53942 0.60206 0.74145
 C389 C 0.51655 0.57872 0.74209
 C390 C 0.45615 0.56745 0.79705
 C391 C 0.42926 0.58593 0.79941
 C392 C 0.40629 0.58515 0.77585
 C393 C 0.41013 0.56435 0.75037
 C394 C 0.43715 0.54575 0.74807
 C395 C 0.46071 0.45839 0.74388
 C396 C 0.43467 0.43858 0.74546
 C397 C 0.41435 0.43961 0.77153
 C398 C 0.42028 0.46128 0.79562
 C399 C 0.44655 0.48099 0.79413
 C400 C 0.54505 0.49139 0.73557
 C401 C 0.57313 0.47468 0.73126
 C402 C 0.58178 0.45106 0.75239
 C403 C 0.56270 0.44560 0.77880
 C404 C 0.53483 0.46229 0.78313
 H405 H 0.54547 0.53472 0.80204
 H406 H 0.58626 0.57524 0.80042
 H407 H 0.53710 0.62108 0.72485
 H408 H 0.49684 0.58023 0.72610
 H409 H 0.47413 0.56934 0.81494
 H410 H 0.42697 0.60178 0.81918
 H411 H 0.44052 0.53098 0.72763
 H412 H 0.47596 0.45729 0.72354
 H413 H 0.43026 0.42281 0.72603
 H414 H 0.40490 0.46254 0.81585
 H415 H 0.45112 0.49708 0.81327
 H416 H 0.53816 0.50867 0.71837
 H417 H 0.58754 0.47943 0.71087
 H418 H 0.56919 0.42832 0.79614
 H419 H 0.52028 0.45726 0.80337
 H420 H 0.39335 0.56346 0.73138
 C421 C 1.00891 1.01393 0.75737
 C422 C 0.97704 1.01646 0.75956
 C423 C 0.95567 0.98912 0.76189
 C424 C 0.96087 1.04724 0.75776
 C425 C 1.02889 1.04243 0.75552
 C426 C 1.02583 0.98326 0.75671
 C427 C 0.95423 0.96641 0.73809
 C428 C 0.93074 0.94341 0.73862
 C429 C 0.90825 0.94293 0.76298
 C430 C 0.91008 0.96552 0.78682
 C431 C 0.93356 0.98833 0.78633
 C432 C 0.93952 1.05235 0.73338
 C433 C 0.92239 1.08009 0.73186
 C434 C 0.92587 1.10350 0.75513
 C435 C 0.94843 1.09876 0.77883
 C436 C 0.96549 1.07073 0.78038
 C437 C 1.05134 1.04796 0.77890
 C438 C 1.07008 1.07478 0.77799
 C439 C 1.06685 1.09647 0.75344
 C440 C 1.04419 1.09106 0.73017
 C441 C 1.02564 1.06400 0.73092
 C442 C 1.01973 0.95944 0.77854
 C443 C 1.03692 0.93141 0.77772
 C444 C 1.06150 0.92697 0.75594
 C445 C 1.06745 0.95103 0.73408
 C446 C 1.04979 0.97861 0.73450
 H447 H 0.97050 0.96722 0.71854
 H448 H 0.92958 0.92697 0.71931
 H449 H 0.89300 0.96579 0.80570
 H450 H 0.93402 1.00597 0.80465
 H451 H 0.93605 1.03465 0.71544
 H452 H 0.90684 1.08278 0.71207
 H453 H 0.98183 1.06712 0.79948
 H454 H 1.05406 1.03163 0.79810
 H455 H 1.08680 1.07868 0.79671
 H456 H 1.04132 1.10746 0.71107
 H457 H 1.00871 1.05989 0.71241
 H458 H 1.00204 0.96262 0.79655
 H459 H 1.03156 0.91352 0.79489
 H460 H 1.08507 0.94870 0.71596
 H461 H 1.05490 0.99650 0.71726
 H462 H 0.95208 1.11627 0.79693
 C463 C 0.52282 0.49470 0.25092
 C464 C 0.49143 0.50063 0.24866
 C465 C 0.46728 0.47538 0.24689
 C466 C 0.47884 0.53304 0.24776
 C467 C 0.54655 0.52017 0.25534
 C468 C 0.53549 0.46230 0.24948
 C469 C 0.46741 0.45263 0.22296
 C470 C 0.44245 0.43123 0.22020
 C471 C 0.41679 0.43258 0.24113
 C472 C 0.41695 0.45522 0.26503
 C473 C 0.44191 0.47623 0.26797
 C474 C 0.46317 0.54310 0.22075
 C475 C 0.44869 0.57241 0.21998
 C476 C 0.44891 0.59201 0.24660
 C477 C 0.46577 0.58241 0.27323
 C478 C 0.48052 0.55304 0.27389
 C479 C 0.56865 0.51760 0.27965
 C480 C 0.59166 0.54057 0.28404
 C481 C 0.59281 0.56696 0.26459
 C482 C 0.57089 0.56958 0.24005
 C483 C 0.54825 0.54617 0.23521
 C484 C 0.52946 0.44043 0.27326
 C485 C 0.54448 0.41116 0.27287
 C486 C 0.56588 0.40343 0.24888
 C487 C 0.57047 0.42490 0.22428
 C488 C 0.55575 0.45412 0.22486
 H489 H 0.48624 0.45208 0.20584
 H490 H 0.44275 0.41459 0.20101
 H491 H 0.39747 0.45688 0.28137
 H492 H 0.44113 0.49370 0.28645
 H493 H 0.46192 0.52803 0.20029
 H494 H 0.43711 0.57941 0.19856
 H495 H 0.49245 0.54556 0.29499
 H496 H 0.56812 0.49767 0.29531
 H497 H 0.60856 0.53780 0.30281
 H498 H 0.57188 0.58913 0.22398
 H499 H 0.53238 0.54818 0.21551
 H500 H 0.51395 0.44642 0.29254
 H501 H 0.54025 0.39499 0.29193
 H502 H 0.58562 0.41944 0.20462
 H503 H 0.56042 0.47062 0.20617
 H504 H 0.46653 0.59715 0.29394
 O505 O 0.23352 0.16831 0.20893
 O506 O 0.27138 0.16133 0.24954
 O507 O 0.16344 0.22497 0.25019
 O508 O 0.16071 0.27112 0.27517
 O509 O 0.19914 0.24684 0.15936
 O510 O 0.24486 0.27310 0.14138
 O511 O 0.26294 0.30957 0.30932
 O512 O 0.22503 0.27573 0.32799
 O513 O 0.33487 0.25121 0.27183
 O514 O 0.33533 0.20756 0.23432
 O515 O 0.30444 0.32750 0.22225
 O516 O 0.25956 0.33881 0.18830
 O517 O 0.26617 0.34037 0.26604
 O518 O 0.22716 0.34712 0.22189
 O519 O 0.33626 0.28475 0.22356
 O520 O 0.33485 0.23330 0.19493
 O521 O 0.30164 0.26323 0.31197
 O522 O 0.25463 0.23434 0.33100
 O523 O 0.23951 0.19760 0.16485
 O524 O 0.27626 0.23598 0.14510
 O525 O 0.16624 0.26138 0.19897
 O526 O 0.16792 0.30418 0.23724
 O527 O 0.19554 0.18261 0.25509
 O528 O 0.24141 0.17334 0.28715
 Zr529 Zr 0.24082 0.20020 0.24561
 O530 O 0.27681 0.22645 0.26697
 Zr531 Zr 0.19426 0.26212 0.23958
 O532 O 0.22774 0.29100 0.26186
 Zr533 Zr 0.24345 0.24424 0.18151
 O534 O 0.27884 0.27331 0.20064
 Zr535 Zr 0.25663 0.26422 0.29136
 O536 O 0.22016 0.23606 0.27259
 Zr537 Zr 0.30546 0.24722 0.23261
 O538 O 0.27206 0.21728 0.21120
 Zr539 Zr 0.25872 0.30927 0.22804
 O540 O 0.22314 0.28273 0.20521
 O541 O 0.21296 0.22490 0.21423
 O542 O 0.28712 0.28437 0.25883
 C543 C 0.23530 0.17133 0.17909
 C544 C 0.16831 0.19573 0.25552
 C545 C 0.17200 0.25487 0.17012
 C546 C 0.26623 0.33625 0.29589
 C547 C 0.32916 0.25765 0.30065
 C548 C 0.33165 0.31436 0.22123
 H549 H 0.28915 0.21272 0.28089
 H550 H 0.29205 0.28177 0.18357
 H551 H 0.19660 0.21162 0.20438
 H552 H 0.21665 0.30763 0.27370
 H553 H 0.20584 0.26299 0.32462
 H554 H 0.17124 0.28395 0.29141
 H555 H 0.33309 0.24925 0.17825
 H556 H 0.29159 0.22057 0.15323
 H557 H 0.27043 0.21753 0.32839
 H558 H 0.22936 0.18535 0.30302
 H559 H 0.27198 0.32815 0.17180
 H560 H 0.23510 0.29326 0.14757
 H561 H 0.28763 0.16390 0.23310
 H562 H 0.32972 0.19536 0.25318
 H563 H 0.17471 0.31526 0.21803
 H564 H 0.21458 0.34924 0.24131
 O565 O 0.75321 0.83428 0.20178
 O566 O 0.72481 0.85103 0.24756
 O567 O 0.83341 0.78806 0.23990
 O568 O 0.84349 0.74860 0.27245
 O569 O 0.77973 0.74542 0.16619
 O570 O 0.73107 0.71648 0.16538
 O571 O 0.75171 0.72006 0.33585
 O572 O 0.79398 0.75635 0.33609
 O573 O 0.67270 0.76689 0.30528
 O574 O 0.65969 0.80039 0.26441
 O575 O 0.69494 0.68188 0.26307
 O576 O 0.73360 0.66378 0.22546
 O577 O 0.74115 0.68024 0.30185
 O578 O 0.77109 0.66276 0.25393
 O579 O 0.66197 0.72382 0.26317
 O580 O 0.65619 0.77107 0.22634
 O581 O 0.71514 0.76366 0.33752
 O582 O 0.76262 0.79795 0.33800
 O583 O 0.74341 0.79402 0.16799
 O584 O 0.70106 0.75584 0.16731
 O585 O 0.82198 0.74303 0.19877
 O586 O 0.82969 0.70790 0.24379
 O587 O 0.80150 0.83089 0.24303
 O588 O 0.76172 0.84822 0.27963
 Zr589 Zr 0.75554 0.81209 0.24616
 O590 O 0.72673 0.79124 0.28068
 Zr591 Zr 0.80285 0.74972 0.24386
 O592 O 0.77660 0.72668 0.27873
 Zr593 Zr 0.74135 0.75396 0.19627
 O594 O 0.71240 0.73043 0.22860
 Zr595 Zr 0.75372 0.75977 0.30720
 O596 O 0.78333 0.78305 0.27494
 Zr597 Zr 0.69208 0.76306 0.25968
 O598 O 0.71833 0.78728 0.22488
 Zr599 Zr 0.73999 0.70140 0.25729
 O600 O 0.76843 0.72181 0.22199
 O601 O 0.77724 0.78036 0.21617
 O602 O 0.71784 0.73262 0.28770
 C603 C 0.74847 0.82306 0.17408
 C604 C 0.82871 0.81775 0.24070
 C605 C 0.80931 0.74227 0.17144
 C606 C 0.74603 0.69121 0.32956
 C607 C 0.68550 0.76576 0.33262
 C608 C 0.66736 0.69418 0.26402
 H609 H 0.71698 0.80762 0.29393
 H610 H 0.69640 0.71853 0.21669
 H611 H 0.79079 0.79102 0.20063
 H612 H 0.79054 0.71309 0.29127
 H613 H 0.81058 0.76935 0.32628
 H614 H 0.83752 0.73864 0.29249
 H615 H 0.65432 0.75190 0.21335
 H616 H 0.68885 0.77446 0.17400
 H617 H 0.74490 0.81289 0.33666
 H618 H 0.77631 0.83990 0.29563
 H619 H 0.71755 0.67033 0.21005
 H620 H 0.74478 0.69882 0.17161
 H621 H 0.70622 0.84529 0.23481
 H622 H 0.67211 0.81958 0.26832
 H623 H 0.81943 0.69325 0.22894
 H624 H 0.78772 0.66552 0.26990
 O625 O 0.74269 0.18050 0.79836
 O626 O 0.69891 0.16977 0.76092
 O627 O 0.81633 0.21345 0.73943
 O628 O 0.82220 0.25038 0.70247
 O629 O 0.78988 0.26422 0.82184
 O630 O 0.74781 0.30097 0.83261
 O631 O 0.72188 0.29149 0.66343
 O632 O 0.75819 0.25113 0.65409
 O633 O 0.64869 0.25437 0.71562
 O634 O 0.64673 0.22110 0.76450
 O635 O 0.68997 0.33712 0.74505
 O636 O 0.73925 0.35057 0.77271
 O637 O 0.72704 0.33283 0.69684
 O638 O 0.76779 0.34744 0.73545
 O639 O 0.65388 0.29903 0.75490
 O640 O 0.64897 0.25818 0.79361
 O641 O 0.68123 0.25018 0.67348
 O642 O 0.72003 0.21281 0.66284
 O643 O 0.74638 0.22185 0.83198
 O644 O 0.71327 0.26647 0.84144
 O645 O 0.82173 0.26211 0.77896
 O646 O 0.82276 0.29305 0.73165
 O647 O 0.77835 0.17615 0.74477
 O648 O 0.73313 0.16009 0.72627
 Zr649 Zr 0.73688 0.20116 0.75389
 O650 O 0.70364 0.22472 0.72609
 Zr651 Zr 0.79101 0.25590 0.74083
 O652 O 0.75980 0.28215 0.71293
 Zr653 Zr 0.74418 0.26139 0.80287
 O654 O 0.71067 0.28751 0.77766
 Zr655 Zr 0.72652 0.25221 0.69243
 O656 O 0.75984 0.22533 0.71731
 Zr657 Zr 0.67944 0.25713 0.75434
 O658 O 0.71049 0.23109 0.78303
 Zr659 Zr 0.73300 0.31244 0.74144
 O660 O 0.76717 0.28889 0.76902
 O661 O 0.76977 0.22969 0.77594
 O662 O 0.70024 0.28380 0.71908
 C663 C 0.74542 0.19236 0.82599
 C664 C 0.80693 0.18480 0.74034
 C665 C 0.81709 0.26456 0.80860
 C666 C 0.72310 0.32096 0.66934
 C667 C 0.65380 0.25169 0.68604
 C668 C 0.66177 0.32770 0.75075
 H669 H 0.68936 0.20941 0.71605
 H670 H 0.69952 0.30162 0.79235
 H671 H 0.78526 0.21744 0.78813
 H672 H 0.77179 0.29365 0.69676
 H673 H 0.77465 0.23560 0.65929
 H674 H 0.81306 0.26166 0.68444
 H675 H 0.65674 0.27462 0.80805
 H676 H 0.69608 0.25112 0.83824
 H677 H 0.73684 0.19768 0.66809
 H678 H 0.72191 0.16596 0.70688
 H679 H 0.72554 0.34698 0.79110
 H680 H 0.76169 0.31612 0.82177
 H681 H 0.68751 0.17693 0.77989
 H682 H 0.64723 0.20580 0.74703
 H683 H 0.81762 0.31015 0.74655
 H684 H 0.78108 0.34124 0.71741
 O685 O 0.23476 0.82119 0.80031
 O686 O 0.27867 0.82988 0.76627
 O687 O 0.15915 0.80772 0.73426
 O688 O 0.14986 0.77567 0.69338
 O689 O 0.16945 0.74394 0.81165
 O690 O 0.20468 0.70271 0.82395
 O691 O 0.24529 0.71750 0.65767
 O692 O 0.21717 0.76525 0.64885
 O693 O 0.31824 0.73754 0.71767
 O694 O 0.32352 0.76351 0.76858
 O695 O 0.25840 0.66182 0.73571
 O696 O 0.20475 0.65749 0.75956
 O697 O 0.22910 0.67617 0.68704
 O698 O 0.18187 0.66816 0.71953
 O699 O 0.30051 0.69084 0.75116
 O700 O 0.30903 0.72813 0.79539
 O701 O 0.29150 0.75155 0.67377
 O702 O 0.25719 0.79543 0.66202
 O703 O 0.21730 0.77979 0.82905
 O704 O 0.24339 0.73011 0.83657
 O705 O 0.14189 0.75964 0.76881
 O706 O 0.13912 0.73120 0.71879
 O707 O 0.20208 0.83665 0.74789
 O708 O 0.25378 0.84149 0.72631
 Zr709 Zr 0.23831 0.80356 0.75411
 O710 O 0.26898 0.77571 0.72705
 Zr711 Zr 0.17613 0.76134 0.73293
 O712 O 0.20422 0.73176 0.70451
 Zr713 Zr 0.21644 0.74242 0.79685
 O714 O 0.24589 0.71184 0.77163
 Zr715 Zr 0.24450 0.75578 0.68910
 O716 O 0.21440 0.78673 0.71415
 Zr717 Zr 0.28411 0.73717 0.75345
 O718 O 0.25652 0.76720 0.78189
 Zr719 Zr 0.22194 0.69494 0.73197
 O720 O 0.19101 0.72256 0.75949
 O721 O 0.19920 0.78018 0.77151
 O722 O 0.26159 0.71789 0.71458
 C723 C 0.22589 0.80847 0.82619
 C724 C 0.17298 0.83390 0.74023
 C725 C 0.14382 0.75152 0.79772
 C726 C 0.23879 0.68830 0.66128
 C727 C 0.31687 0.74408 0.68835
 C728 C 0.28731 0.66474 0.74382
 H729 H 0.28688 0.78871 0.72005
 H730 H 0.25268 0.69471 0.78561
 H731 H 0.18535 0.79400 0.78412
 H732 H 0.19192 0.72392 0.68646
 H733 H 0.20233 0.78218 0.65472
 H734 H 0.15746 0.76343 0.67515
 H735 H 0.29851 0.71047 0.80611
 H736 H 0.26271 0.74306 0.83591
 H737 H 0.27379 0.80703 0.67340
 H738 H 0.24282 0.83954 0.70593
 H739 H 0.21912 0.65485 0.77758
 H740 H 0.19062 0.68964 0.81083
 H741 H 0.29052 0.81714 0.78159
 H742 H 0.32505 0.78231 0.75519
 H743 H 0.13927 0.71307 0.73320
 H744 H 0.17197 0.67816 0.70115
 O745 O 0.25821 0.33076 0.72263
 O746 O 0.23217 0.33504 0.77146
 O747 O 0.34593 0.28683 0.74998
 O748 O 0.36105 0.24341 0.77352
 O749 O 0.29558 0.25364 0.66887
 O750 O 0.25032 0.22181 0.66170
 O751 O 0.27011 0.19217 0.82983
 O752 O 0.31030 0.23011 0.83846
 O753 O 0.18906 0.23837 0.80804
 O754 O 0.17315 0.27800 0.77035
 O755 O 0.22072 0.16402 0.75314
 O756 O 0.25894 0.15840 0.71029
 O757 O 0.26826 0.15950 0.78763
 O758 O 0.29768 0.15608 0.73703
 O759 O 0.18306 0.20104 0.76123
 O760 O 0.16995 0.25070 0.73219
 O761 O 0.23127 0.23610 0.84064
 O762 O 0.27727 0.26892 0.84791
 O763 O 0.25432 0.29807 0.68050
 O764 O 0.21634 0.25636 0.67190
 O765 O 0.33839 0.24862 0.70044
 O766 O 0.35066 0.20729 0.73887
 O767 O 0.30954 0.32486 0.75950
 O768 O 0.27065 0.32949 0.80085
 Zr769 Zr 0.26625 0.30055 0.76075
 O770 O 0.24000 0.27046 0.78978
 Zr771 Zr 0.31964 0.24550 0.74615
 O772 O 0.29643 0.21345 0.77569
 Zr773 Zr 0.25726 0.25284 0.69981
 O774 O 0.23159 0.22012 0.72638
 Zr775 Zr 0.27019 0.23729 0.81009
 O776 O 0.29718 0.26940 0.78342
 Zr777 Zr 0.20834 0.24364 0.76295
 O778 O 0.23151 0.27702 0.73439
 Zr779 Zr 0.26267 0.18934 0.74903
 O780 O 0.28805 0.21926 0.71878
 O781 O 0.29059 0.27823 0.72482
 O782 O 0.23737 0.21114 0.78490
 C783 C 0.25453 0.32545 0.69320
 C784 C 0.33800 0.31534 0.75532
 C785 C 0.32530 0.25134 0.67341
 C786 C 0.26971 0.16477 0.81720
 C787 C 0.20155 0.23645 0.83538
 C788 C 0.19217 0.17249 0.75773
 H789 H 0.22894 0.28322 0.80571
 H790 H 0.21672 0.20884 0.71258
 H791 H 0.30245 0.29308 0.71150
 H792 H 0.31189 0.19916 0.78538
 H793 H 0.32633 0.24546 0.83154
 H794 H 0.35645 0.22990 0.79175
 H795 H 0.17122 0.23470 0.71540
 H796 H 0.20201 0.27107 0.68285
 H797 H 0.26121 0.28561 0.84652
 H798 H 0.28824 0.32090 0.81336
 H799 H 0.24039 0.16475 0.69787
 H800 H 0.26416 0.20356 0.66549
 H801 H 0.21272 0.32873 0.76036
 H802 H 0.18077 0.29245 0.78685
 H803 H 0.34250 0.19516 0.72080
 H804 H 0.31446 0.15729 0.75302
 O805 O 0.75621 0.66637 0.70222
 O806 O 0.79868 0.65587 0.73747
 O807 O 0.68377 0.69929 0.76253
 O808 O 0.67543 0.73887 0.79577
 O809 O 0.70652 0.74970 0.67645
 O810 O 0.74777 0.78483 0.66308
 O811 O 0.77524 0.78169 0.83326
 O812 O 0.74288 0.73935 0.84449
 O813 O 0.85012 0.74603 0.77931
 O814 O 0.85202 0.71159 0.73123
 O815 O 0.80579 0.82600 0.75091
 O816 O 0.75685 0.83862 0.72422
 O817 O 0.76891 0.82231 0.79949
 O818 O 0.72668 0.83365 0.75997
 O819 O 0.84265 0.78914 0.73927
 O820 O 0.84724 0.74732 0.70121
 O821 O 0.81897 0.74187 0.82248
 O822 O 0.77797 0.70331 0.83609
 O823 O 0.75058 0.70583 0.66685
 O824 O 0.78326 0.75131 0.65571
 O825 O 0.67545 0.74451 0.71960
 O826 O 0.67506 0.77970 0.76589
 O827 O 0.72172 0.66262 0.75390
 O828 O 0.77106 0.65263 0.77785
 Zr829 Zr 0.76246 0.68894 0.74538
 O830 O 0.79598 0.71428 0.77110
 Zr831 Zr 0.70708 0.74254 0.75763
 O832 O 0.73816 0.77006 0.78464
 Zr833 Zr 0.75262 0.74702 0.69456
 O834 O 0.78548 0.77532 0.71861
 Zr835 Zr 0.77285 0.74165 0.80494
 O836 O 0.73934 0.71360 0.78147
 Zr837 Zr 0.81826 0.74665 0.74160
 O838 O 0.78746 0.71841 0.71472
 Zr839 Zr 0.76339 0.80046 0.75510
 O840 O 0.72963 0.77515 0.72823
 O841 O 0.72841 0.71574 0.72300
 O842 O 0.79753 0.77343 0.77715
 C843 C 0.75226 0.67665 0.67431
 C844 C 0.69343 0.67076 0.76041
 C845 C 0.67948 0.74788 0.68993
 C846 C 0.77283 0.81098 0.82717
 C847 C 0.84594 0.74378 0.80901
 C848 C 0.83407 0.81748 0.74419
 H849 H 0.81119 0.69961 0.78055
 H850 H 0.79582 0.78945 0.70345
 H851 H 0.71301 0.70267 0.71149
 H852 H 0.72600 0.78149 0.80081
 H853 H 0.72533 0.72515 0.83883
 H854 H 0.68557 0.74886 0.81411
 H855 H 0.83874 0.76335 0.68684
 H856 H 0.80008 0.73553 0.65856
 H857 H 0.79541 0.68990 0.82857
 H858 H 0.76024 0.65870 0.79751
 H859 H 0.76887 0.83411 0.70486
 H860 H 0.73577 0.80124 0.67439
 H861 H 0.81243 0.66471 0.72097
 H862 H 0.85225 0.69648 0.74875
 H863 H 0.67798 0.79501 0.74874
 H864 H 0.71455 0.82817 0.77899
 O865 O 0.26461 0.65487 0.28224
 O866 O 0.22431 0.65034 0.24331
 O867 O 0.33805 0.70392 0.23677
 O868 O 0.34183 0.74841 0.20843
 O869 O 0.30851 0.73366 0.32769
 O870 O 0.26505 0.76217 0.34731
 O871 O 0.24179 0.79656 0.18039
 O872 O 0.27772 0.75844 0.16118
 O873 O 0.16829 0.74176 0.22148
 O874 O 0.16620 0.70137 0.26078
 O875 O 0.20716 0.81894 0.26876
 O876 O 0.25560 0.82598 0.30124
 O877 O 0.24546 0.82799 0.22337
 O878 O 0.28489 0.83300 0.26520
 O879 O 0.17211 0.77867 0.26970
 O880 O 0.17020 0.72828 0.29884
 O881 O 0.19990 0.75322 0.18000
 O882 O 0.23763 0.72164 0.15931
 O883 O 0.26597 0.68624 0.32549
 O884 O 0.23185 0.72641 0.34584
 O885 O 0.34071 0.74259 0.28600
 O886 O 0.34109 0.78323 0.24632
 O887 O 0.30166 0.66496 0.23335
 O888 O 0.25212 0.65693 0.20525
 Zr889 Zr 0.25861 0.68623 0.24488
 O890 O 0.22435 0.71513 0.22443
 Zr891 Zr 0.31062 0.74395 0.24682
 O892 O 0.27852 0.77547 0.22615
 Zr893 Zr 0.26323 0.73222 0.30778
 O894 O 0.22924 0.76328 0.28992
 Zr895 Zr 0.24578 0.75099 0.19854
 O896 O 0.28052 0.71954 0.21572
 Zr897 Zr 0.19907 0.73863 0.25972
 O898 O 0.23091 0.70680 0.28038
 Zr899 Zr 0.25096 0.79689 0.26117
 O900 O 0.28557 0.76800 0.28216
 O901 O 0.29018 0.70930 0.27415
 O902 O 0.21876 0.77403 0.23226
 C903 C 0.26596 0.65922 0.31198
 C904 C 0.32996 0.67528 0.23180
 C905 C 0.33568 0.73884 0.31546
 C906 C 0.24257 0.82361 0.19372
 C907 C 0.17284 0.74786 0.19243
 C908 C 0.17920 0.80782 0.27177
 H909 H 0.21063 0.70216 0.21089
 H910 H 0.21767 0.77308 0.30749
 H911 H 0.30596 0.69518 0.28366
 H912 H 0.29035 0.79090 0.21355
 H913 H 0.29320 0.74112 0.16182
 H914 H 0.33142 0.76199 0.19284
 H915 H 0.17499 0.74367 0.31556
 H916 H 0.21517 0.71191 0.33859
 H917 H 0.25203 0.70364 0.16139
 H918 H 0.26772 0.66325 0.18924
 H919 H 0.23993 0.81912 0.31695
 H920 H 0.27569 0.78158 0.34033
 H921 H 0.21011 0.65383 0.26142
 H922 H 0.17082 0.68746 0.24276
 H923 H 0.33592 0.79601 0.26504
 H924 H 0.29847 0.83208 0.24637
 O925 O 0.75655 0.33565 0.28517
 O926 O 0.79289 0.34019 0.24205
 O927 O 0.67730 0.29049 0.24404
 O928 O 0.66897 0.24611 0.21615
 O929 O 0.71437 0.25803 0.33137
 O930 O 0.75844 0.22637 0.34563
 O931 O 0.76549 0.19658 0.17691
 O932 O 0.72858 0.23492 0.16200
 O933 O 0.84327 0.24499 0.21216
 O934 O 0.85022 0.28759 0.25128
 O935 O 0.80696 0.17110 0.26215
 O936 O 0.76009 0.16485 0.29769
 O937 O 0.76647 0.16411 0.21903
 O938 O 0.72925 0.15830 0.26249
 O939 O 0.84303 0.21042 0.26042
 O940 O 0.84973 0.26002 0.28902
 O941 O 0.80725 0.23977 0.17310
 O942 O 0.76290 0.27291 0.15778
 O943 O 0.75719 0.30292 0.32718
 O944 O 0.79228 0.26186 0.34259
 O945 O 0.67745 0.25157 0.29329
 O946 O 0.67256 0.21064 0.25392
 O947 O 0.71478 0.32828 0.23882
 O948 O 0.75974 0.33504 0.20655
 Zr949 Zr 0.75774 0.30536 0.24607
 O950 O 0.78897 0.27623 0.22124
 Zr951 Zr 0.70388 0.24917 0.25136
 O952 O 0.73302 0.21743 0.22652
 Zr953 Zr 0.75748 0.25777 0.30743
 O954 O 0.78869 0.22645 0.28543
 Zr955 Zr 0.76357 0.24188 0.19654
 O956 O 0.73183 0.27348 0.21845
 Zr957 Zr 0.81654 0.25104 0.25314
 O958 O 0.78794 0.28308 0.27799
 Zr959 Zr 0.76324 0.19429 0.25796
 O960 O 0.73155 0.22343 0.28317
 O961 O 0.72821 0.28245 0.27736
 O962 O 0.79301 0.21717 0.22669
 C963 C 0.75683 0.33032 0.31481
 C964 C 0.68608 0.31896 0.23905
 C965 C 0.68584 0.25491 0.32208
 C966 C 0.76668 0.16922 0.18942
 C967 C 0.83568 0.24119 0.18332
 C968 C 0.83536 0.18153 0.26300
 H969 H 0.80208 0.28912 0.20717
 H970 H 0.80147 0.21598 0.30164
 H971 H 0.71387 0.29698 0.28853
 H972 H 0.71984 0.20253 0.21454
 H973 H 0.71155 0.25012 0.16652
 H974 H 0.67629 0.23067 0.20041
 H975 H 0.84514 0.24561 0.30655
 H976 H 0.80847 0.27639 0.33441
 H977 H 0.77928 0.28906 0.16101
 H978 H 0.74721 0.32469 0.18994
 H979 H 0.77725 0.17071 0.31222
 H980 H 0.74484 0.20845 0.33978
 H981 H 0.80920 0.33511 0.25778
 H982 H 0.84627 0.29998 0.23214
 H983 H 0.67973 0.19738 0.27152
 H984 H 0.71385 0.16077 0.24532
 C985 C 0.25324 0.10592 0.08686
 C986 C 0.23783 0.11212 0.11523
 C987 C 0.24054 0.14108 0.13023
 C988 C 0.23206 0.14387 0.16170
 H989 H 0.22564 0.09361 0.12753
 H990 H 0.25115 0.16073 0.11811
 H991 H 0.26897 0.12397 0.07813
 H992 H 0.22482 0.12292 0.17416
 C993 C 0.75206 0.62985 0.56843
 C994 C 0.74316 0.63060 0.59847
 C995 C 0.74917 0.65733 0.61944
 C996 C 0.74778 0.65245 0.65029
 H997 H 0.73273 0.60981 0.60873
 H998 H 0.75502 0.68017 0.61005
 H999 H 0.76500 0.64937 0.55855
 H1000 H 0.74331 0.62890 0.65878
 C1001 C 0.74251 0.92038 0.11208
 C1002 C 0.75542 0.89228 0.11783
 C1003 C 0.74926 0.87476 0.14701
 C1004 C 0.75134 0.84351 0.14650
 H1005 H 0.76921 0.88044 0.10006
 H1006 H 0.74310 0.88711 0.16840
 H1007 H 0.72615 0.92969 0.12931
 H1008 H 0.75568 0.83187 0.12425
 C1009 C 0.27507 0.38442 0.59756
 C1010 C 0.25666 0.37993 0.62259
 C1011 C 0.26163 0.35293 0.64336
 C1012 C 0.25057 0.35279 0.67269
 H1013 H 0.23778 0.39623 0.62781
 H1014 H 0.27481 0.33296 0.63458
 H1015 H 0.29532 0.36937 0.59394
 H1016 H 0.23943 0.37359 0.68223
 C1017 C 0.74437 0.08975 0.87859
 C1018 C 0.75012 0.12058 0.87884
 C1019 C 0.74575 0.14010 0.85082
 C1020 C 0.74865 0.17124 0.85296
 H1021 H 0.75750 0.13196 0.90036
 H1022 H 0.74021 0.12906 0.82857
 H1023 H 0.73495 0.07886 0.85761
 H1024 H 0.75364 0.18184 0.87556
 C1025 C 0.24546 0.60152 0.40817
 C1026 C 0.26009 0.60249 0.38046
 C1027 C 0.25943 0.63130 0.36167
 C1028 C 0.26791 0.63103 0.33154
 H1029 H 0.27193 0.58197 0.37120
 H1030 H 0.25096 0.65280 0.37237
 H1031 H 0.23215 0.62185 0.41583
 H1032 H 0.27481 0.60915 0.32049
 C1033 C 0.26144 0.89143 0.89735
 C1034 C 0.23842 0.87280 0.88697
 C1035 C 0.24288 0.85249 0.85939
 C1036 C 0.22381 0.82814 0.85442
 H1037 H 0.21582 0.87263 0.89881
 H1038 H 0.26171 0.85758 0.84299
 H1039 H 0.28467 0.88977 0.88692
 H1040 H 0.20641 0.82199 0.87198
 C1041 C 0.75747 0.38190 0.41796
 C1042 C 0.75284 0.38283 0.38698
 C1043 C 0.75744 0.35517 0.36695
 C1044 C 0.75532 0.35766 0.33578
 H1045 H 0.74556 0.40455 0.37604
 H1046 H 0.76180 0.33265 0.37779
 H1047 H 0.76688 0.36093 0.42873
 H1048 H 0.75155 0.38046 0.32529
 C1049 C 0.10990 0.22859 0.07579
 C1050 C 0.11553 0.24692 0.10085
 C1051 C 0.14400 0.24340 0.12031
 C1052 C 0.14505 0.25701 0.14860
 H1053 H 0.09849 0.26403 0.10863
 H1054 H 0.16357 0.22938 0.11193
 H1055 H 0.12684 0.21029 0.07050
 H1056 H 0.12458 0.26968 0.15704
 C1057 C 0.61655 0.77314 0.59619
 C1058 C 0.62092 0.75611 0.62213
 C1059 C 0.65009 0.75845 0.64083
 C1060 C 0.65081 0.74803 0.67040
 H1061 H 0.60239 0.74061 0.63016
 H1062 H 0.67094 0.76874 0.63042
 H1063 H 0.63404 0.79040 0.58957
 H1064 H 0.62931 0.73927 0.68094
 C1065 C 0.08290 0.71915 0.88878
 C1066 C 0.08819 0.74031 0.86623
 C1067 C 0.11238 0.73445 0.84232
 C1068 C 0.11512 0.75247 0.81692
 H1069 H 0.07609 0.76262 0.86596
 H1070 H 0.12983 0.71648 0.84687
 H1071 H 0.09308 0.69599 0.88581
 H1072 H 0.09699 0.76938 0.81125
 C1073 C 0.57984 0.24181 0.36813
 C1074 C 0.60956 0.25213 0.36911
 C1075 C 0.63133 0.24963 0.34234
 C1076 C 0.66173 0.25634 0.34675
 H1077 H 0.61871 0.26174 0.39081
 H1078 H 0.62278 0.24215 0.31959
 H1079 H 0.57124 0.23002 0.34729
 H1080 H 0.66969 0.26294 0.37002
 C1081 C 0.91162 0.73319 0.11785
 C1082 C 0.88089 0.74041 0.11769
 C1083 C 0.86121 0.73720 0.14589
 C1084 C 0.82992 0.73982 0.14381
 H1085 H 0.86946 0.74825 0.09648
 H1086 H 0.87243 0.73415 0.16848
 H1087 H 0.92116 0.72229 0.13872
 H1088 H 0.81910 0.74234 0.12095
 C1089 C 0.42301 0.23699 0.61304
 C1090 C 0.39364 0.24782 0.61587
 C1091 C 0.37576 0.24560 0.64526
 C1092 C 0.34519 0.25280 0.64534
 H1093 H 0.38191 0.25776 0.59567
 H1094 H 0.38735 0.23787 0.66649
 H1095 H 0.43394 0.22494 0.63252
 H1096 H 0.33391 0.25955 0.62358
 C1097 C 0.88090 0.24027 0.90086
 C1098 C 0.87639 0.25788 0.87522
 C1099 C 0.84648 0.25695 0.85777
 C1100 C 0.84535 0.26726 0.82824
 H1101 H 0.89511 0.27190 0.86543
 H1102 H 0.82587 0.24645 0.86844
 H1103 H 0.86169 0.22519 0.90819
 H1104 H 0.86666 0.27583 0.81719
 C1105 C 0.38989 0.73794 0.41769
 C1106 C 0.38975 0.74350 0.38683
 C1107 C 0.36187 0.73726 0.36726
 C1108 C 0.36331 0.74123 0.33618
 H1109 H 0.41056 0.75308 0.37567
 H1110 H 0.33997 0.73047 0.37838
 H1111 H 0.36983 0.72649 0.42843
 H1112 H 0.38554 0.74769 0.32548
 C1113 C 0.11524 0.09523 0.27566
 C1114 C 0.11386 0.12560 0.26797
 C1115 C 0.14233 0.14530 0.26721
 C1116 C 0.14038 0.17594 0.26085
 H1117 H 0.09156 0.13601 0.26148
 H1118 H 0.16511 0.13436 0.27051
 H1119 H 0.13725 0.08550 0.28395
 H1120 H 0.11743 0.18664 0.25799
 C1121 C 0.58768 0.62714 0.76159
 C1122 C 0.61802 0.62353 0.76857
 C1123 C 0.63986 0.65002 0.76563
 C1124 C 0.67084 0.64523 0.76530
 H1125 H 0.62714 0.60070 0.77487
 H1126 H 0.63048 0.67342 0.76239
 H1127 H 0.57954 0.64972 0.75324
 H1128 H 0.67993 0.62157 0.76730
 C1129 C 0.90719 0.13084 0.75604
 C1130 C 0.88076 0.13453 0.73929
 C1131 C 0.86019 0.16198 0.74334
 C1132 C 0.82983 0.15953 0.73571
 H1133 H 0.87212 0.11612 0.72415
 H1134 H 0.86929 0.18332 0.75379
 H1135 H 0.91321 0.14901 0.77286
 H1136 H 0.82079 0.13723 0.72737
 C1137 C 0.43064 0.62168 0.24773
 C1138 C 0.40429 0.62567 0.23103
 C1139 C 0.38351 0.65299 0.23546
 C1140 C 0.35411 0.65178 0.22442
 H1141 H 0.39620 0.60718 0.21557
 H1142 H 0.39122 0.67274 0.24953
 H1143 H 0.43727 0.63935 0.26481
 H1144 H 0.34632 0.63088 0.21211
 C1145 C 0.07894 0.89878 0.75672
 C1146 C 0.10660 0.89434 0.74205
 C1147 C 0.12365 0.86428 0.74403
 C1148 C 0.15460 0.86308 0.73836
 H1149 H 0.11805 0.91320 0.72961
 H1150 H 0.11105 0.84329 0.75091
 H1151 H 0.07017 0.87989 0.77129
 H1152 H 0.16731 0.88459 0.73362
 C1153 C 0.58394 0.37358 0.25070
 C1154 C 0.61258 0.37046 0.23787
 C1155 C 0.63243 0.34238 0.24222
 C1156 C 0.66259 0.34360 0.23329
 H1157 H 0.62288 0.38999 0.22540
 H1158 H 0.62314 0.32183 0.25388
 H1159 H 0.57465 0.35473 0.26496
 H1160 H 0.67143 0.36507 0.22296
 C1161 C 0.89489 0.90851 0.26585
 C1162 C 0.88883 0.88377 0.24731
 C1163 C 0.85886 0.86650 0.24946
 C1164 C 0.85694 0.83743 0.23792
 H1165 H 0.90636 0.87460 0.23139
 H1166 H 0.83897 0.87688 0.26158
 H1167 H 0.87691 0.91522 0.28268
 H1168 H 0.87768 0.82673 0.22761
 C1169 C 0.38690 0.41843 0.77388
 C1170 C 0.38766 0.38933 0.76224
 C1171 C 0.36046 0.36811 0.76413
 C1172 C 0.36381 0.33821 0.75546
 H1173 H 0.40907 0.38059 0.75149
 H1174 H 0.33796 0.37685 0.77237
 H1175 H 0.36626 0.42639 0.78656
 H1176 H 0.38678 0.32988 0.74804
 C1177 C 0.10002 0.21672 0.88557
 C1178 C 0.12833 0.23050 0.88692
 C1179 C 0.15003 0.22819 0.86008
 C1180 C 0.18047 0.23556 0.86277
 H1181 H 0.13585 0.24353 0.90737
 H1182 H 0.14073 0.22085 0.83755
 H1183 H 0.09524 0.20183 0.86542
 H1184 H 0.19008 0.24145 0.88557
 C1185 C 0.59218 0.78735 0.39774
 C1186 C 0.61717 0.76970 0.39074
 C1187 C 0.63583 0.77476 0.36201
 C1188 C 0.66554 0.76474 0.36082
 H1189 H 0.62442 0.75138 0.40673
 H1190 H 0.62533 0.78635 0.34203
 H1191 H 0.58650 0.80722 0.38303
 H1192 H 0.67600 0.75490 0.38178
 C1193 C 0.90165 0.71983 0.90599
 C1194 C 0.90065 0.73582 0.87902
 C1195 C 0.87342 0.73274 0.85809
 C1196 C 0.87407 0.74407 0.82896
 H1197 H 0.91942 0.75144 0.87208
 H1198 H 0.85224 0.72165 0.86693
 H1199 H 0.88335 0.70256 0.91009
 H1200 H 0.89568 0.75379 0.81957
 C1201 C 0.37957 0.24709 0.40245
 C1202 C 0.38158 0.25693 0.37288
 C1203 C 0.35354 0.25735 0.35279
 C1204 C 0.35644 0.25877 0.32170
 H1205 H 0.40419 0.26323 0.36295
 H1206 H 0.33046 0.25517 0.36344
 H1207 H 0.35715 0.23870 0.41125
 H1208 H 0.37970 0.25940 0.31123
 C1209 C 0.11049 0.77185 0.09852
 C1210 C 0.11663 0.75408 0.12345
 C1211 C 0.14374 0.76013 0.14397
 C1212 C 0.14491 0.74689 0.17223
 H1213 H 0.10161 0.73419 0.12860
 H1214 H 0.16309 0.77443 0.13561
 H1215 H 0.12392 0.79306 0.09451
 H1216 H 0.12463 0.73403 0.18078
 C1217 C 0.60678 0.23620 0.58299
 C1218 C 0.60288 0.24558 0.61267
 C1219 C 0.62962 0.24467 0.63443
 C1220 C 0.62635 0.25080 0.66502
 H1221 H 0.58021 0.25382 0.62091
 H1222 H 0.65267 0.23916 0.62496
 H1223 H 0.62925 0.22636 0.57592
 H1224 H 0.60323 0.25561 0.67468
 C1225 C 0.88635 0.24492 0.07956
 C1226 C 0.88654 0.23656 0.10973
 C1227 C 0.85885 0.24065 0.13010
 C1228 C 0.86193 0.23771 0.16111
 H1229 H 0.90791 0.22735 0.12004
 H1230 H 0.83624 0.24640 0.11989
 H1231 H 0.86571 0.25626 0.06993
 H1232 H 0.88503 0.23323 0.17090
 C1233 C 0.38465 0.76481 0.59693
 C1234 C 0.38068 0.75208 0.62532
 C1235 C 0.34986 0.75306 0.64133
 C1236 C 0.34680 0.74287 0.67081
 H1237 H 0.40037 0.74156 0.63743
 H1238 H 0.32971 0.76263 0.62910
 H1239 H 0.36486 0.77661 0.58613
 H1240 H 0.36731 0.73396 0.68297
 C1241 C 0.25120 0.10723 0.91492
 C1242 C 0.26356 0.10871 0.88612
 C1243 C 0.26327 0.13782 0.86780
 C1244 C 0.27092 0.13706 0.83743
 H1245 H 0.27309 0.08780 0.87519
 H1246 H 0.25599 0.15958 0.87882
 H1247 H 0.23973 0.12773 0.92475
 H1248 H 0.27678 0.11482 0.82647
 C1249 C 0.74906 0.58773 0.37817
 C1250 C 0.74233 0.61818 0.38052
 C1251 C 0.74414 0.63864 0.35295
 C1252 C 0.74460 0.66973 0.35636
 H1253 H 0.73651 0.62835 0.40313
 H1254 H 0.74565 0.62817 0.32979
 H1255 H 0.75708 0.57833 0.35590
 H1256 H 0.74429 0.67986 0.37971
 C1257 C 0.75011 0.11507 0.08958
 C1258 C 0.76267 0.11452 0.11828
 C1259 C 0.76181 0.14283 0.13821
 C1260 C 0.76840 0.14148 0.16878
 H1261 H 0.77274 0.09314 0.12749
 H1262 H 0.75486 0.16492 0.12782
 H1263 H 0.73853 0.13633 0.08186
 H1264 H 0.77412 0.11910 0.17929
 C1265 C 0.24008 0.58436 0.61147
 C1266 C 0.24600 0.61514 0.60956
 C1267 C 0.23937 0.63617 0.63623
 C1268 C 0.24352 0.66724 0.63416
 H1269 H 0.25521 0.62507 0.58809
 H1270 H 0.23139 0.62591 0.65806
 H1271 H 0.22912 0.57519 0.63250
 H1272 H 0.25159 0.67735 0.61230
 C1273 C 0.77452 0.91248 0.88398
 C1274 C 0.76991 0.88149 0.88279
 C1275 C 0.77298 0.86327 0.85341
 C1276 C 0.77334 0.83198 0.85469
 H1277 H 0.76394 0.86906 0.90410
 H1278 H 0.77413 0.87524 0.83107
 H1279 H 0.78267 0.92461 0.86321
 H1280 H 0.77299 0.82079 0.87749
 C1281 C 0.24096 0.39560 0.39041
 C1282 C 0.26074 0.39183 0.36622
 C1283 C 0.25668 0.36504 0.34468
 C1284 C 0.26996 0.36403 0.31622
 H1285 H 0.28002 0.40803 0.36258
 H1286 H 0.24220 0.34558 0.35238
 H1287 H 0.22064 0.38031 0.39221
 H1288 H 0.28270 0.38416 0.30740
 C1289 C 0.23528 0.87975 0.09324
 C1290 C 0.24064 0.87976 0.12414
 C1291 C 0.23805 0.85089 0.14285
 C1292 C 0.24125 0.85190 0.17404
 H1293 H 0.24722 0.90134 0.13591
 H1294 H 0.23457 0.82866 0.13095
 H1295 H 0.22677 0.85855 0.08200
 H1296 H 0.24433 0.87438 0.18558
 C1297 C 0.73858 0.42116 0.61595
 C1298 C 0.72626 0.39232 0.61555
 C1299 C 0.72717 0.37258 0.64382
 C1300 C 0.72006 0.34211 0.64229
 H1301 H 0.71685 0.38257 0.59405
 H1302 H 0.73497 0.38279 0.66579
 H1303 H 0.74948 0.42954 0.63738
 H1304 H 0.71330 0.33191 0.61997
 C1305 C 0.08708 0.12461 0.75161
 C1306 C 0.11721 0.12376 0.76039
 C1307 C 0.13807 0.15111 0.75763
 C1308 C 0.16911 0.14699 0.75976
 H1309 H 0.12723 0.10195 0.76868
 H1310 H 0.12827 0.17417 0.75345
 H1311 H 0.07769 0.14568 0.74102
 H1312 H 0.17833 0.12345 0.76258
 C1313 C 0.61853 0.58997 0.26913
 C1314 C 0.61554 0.62066 0.26343
 C1315 C 0.64282 0.64183 0.26681
 C1316 C 0.63984 0.67301 0.26473
 H1317 H 0.59311 0.63015 0.25602
 H1318 H 0.66590 0.63155 0.27009
 H1319 H 0.64064 0.58131 0.27833
 H1320 H 0.61664 0.68321 0.26205
 C1321 C 0.12146 0.90697 0.26274
 C1322 C 0.12560 0.87935 0.27715
 C1323 C 0.15362 0.85984 0.27123
 C1324 C 0.15299 0.82935 0.27831
 H1325 H 0.10754 0.86950 0.29198
 H1326 H 0.17411 0.86998 0.26001
 H1327 H 0.13948 0.91441 0.24633
 H1328 H 0.13161 0.81926 0.28786
 C1329 C 0.61020 0.43180 0.74630
 C1330 C 0.61095 0.40139 0.75376
 C1331 C 0.63860 0.38123 0.74824
 C1332 C 0.63599 0.35050 0.75364
 H1333 H 0.59017 0.39063 0.76384
 H1334 H 0.66064 0.39127 0.74033
 H1335 H 0.62999 0.44225 0.73417
 H1336 H 0.61339 0.34123 0.76101
 C1337 C 0.88981 0.07984 0.25888
 C1338 C 0.88786 0.10956 0.26864
 C1339 C 0.85957 0.12879 0.26378
 C1340 C 0.86157 0.15974 0.26785
 H1341 H 0.90824 0.12069 0.27910
 H1342 H 0.83776 0.11799 0.25621
 H1343 H 0.87027 0.06945 0.24626
 H1344 H 0.88407 0.17001 0.27412
 C1345 C 0.38093 0.60883 0.77729
 C1346 C 0.35493 0.60843 0.75972
 C1347 C 0.33390 0.63574 0.76025
 C1348 C 0.30668 0.63620 0.74469
 H1349 H 0.34953 0.58887 0.74444
 H1350 H 0.34130 0.65635 0.77327
 H1351 H 0.38448 0.62844 0.79317
 H1352 H 0.29848 0.61537 0.73257
 C1353 C 0.88172 0.92042 0.76363
 C1354 C 0.88260 0.89244 0.74958
 C1355 C 0.85586 0.87061 0.75176
 C1356 C 0.85900 0.84118 0.74160
 H1357 H 0.90360 0.88488 0.73729
 H1358 H 0.83399 0.87830 0.76242
 H1359 H 0.86110 0.92664 0.77732
 H1360 H 0.88140 0.83366 0.73194
 C1361 C 0.38858 0.41232 0.23805
 C1362 C 0.38851 0.38386 0.22474
 C1363 C 0.35940 0.36495 0.22456
 C1364 C 0.35985 0.33429 0.21794
 H1365 H 0.41002 0.37387 0.21545
 H1366 H 0.33751 0.37597 0.23166
 H1367 H 0.36698 0.42073 0.24874
 H1368 H 0.38202 0.32304 0.21228
   
