data_POSCAR
  _audit_creation_date              2014-09-24
  _audit_creation_method            'ToBaCCo'
  _symmetry_space_group_name_H-M    'P1'
  _symmetry_Int_Tables_number       1
  _symmetry_cell_setting            triclinic
  loop_
  _symmetry_equiv_pos_as_xyz
 x,y,z
_cell_length_a 40.6151
_cell_length_b 40.5899
_cell_length_c 40.5580
_cell_angle_alpha 90.030700
_cell_angle_beta 89.963500
_cell_angle_gamma 89.967300
loop_
  _atom_site_label
  _atom_site_type_symbol
  _atom_site_fract_x
  _atom_site_fract_y
  _atom_site_fract_z
O1 O 0.87598 0.17062 0.78975
 O2 O 0.91158 0.12474 0.77999
 O3 O 0.78990 0.12346 0.82966
 O4 O 0.77777 0.09115 0.87238
 O5 O 0.82990 0.21052 0.87610
 O6 O 0.87578 0.21961 0.91197
 O7 O 0.87666 0.03939 0.92016
 O8 O 0.83818 0.03058 0.87717
 O9 O 0.96043 0.07916 0.87592
 O10 O 0.97058 0.12635 0.83856
 O11 O 0.92091 0.12347 0.96012
 O12 O 0.87393 0.16065 0.97059
 O13 O 0.87672 0.07895 0.95990
 O14 O 0.83894 0.12583 0.97019
 O15 O 0.96048 0.12353 0.92045
 O16 O 0.97048 0.16120 0.87348
 O17 O 0.92093 0.03951 0.87621
 O18 O 0.87565 0.02961 0.83807
 O19 O 0.87614 0.21027 0.82948
 O20 O 0.91231 0.21945 0.87540
 O21 O 0.79022 0.17095 0.87572
 O22 O 0.78277 0.12491 0.91414
 O23 O 0.82943 0.12428 0.78984
 O24 O 0.87526 0.08816 0.78030
 Zr25 Zr 0.87407 0.12600 0.81612
 O26 O 0.90502 0.09526 0.84411
 Zr27 Zr 0.81636 0.12611 0.87417
 O28 O 0.84466 0.09490 0.90457
 Zr29 Zr 0.87435 0.18386 0.87408
 O30 O 0.90506 0.15550 0.90480
 Zr31 Zr 0.87639 0.06594 0.87571
 O32 O 0.84502 0.09404 0.84492
 Zr33 Zr 0.93414 0.12389 0.87583
 O34 O 0.90608 0.15505 0.84479
 Zr35 Zr 0.87628 0.12370 0.93380
 O36 O 0.84527 0.15514 0.90596
 O37 O 0.84358 0.15671 0.84351
 O38 O 0.90721 0.09291 0.90670
 C39 C 0.87683 0.20083 0.79924
 C40 C 0.79928 0.12307 0.79938
 C41 C 0.79968 0.20115 0.87672
 C42 C 0.87683 0.04876 0.95040
 C43 C 0.95115 0.04888 0.87617
 C44 C 0.95109 0.12339 0.95068
 H45 H 0.91871 0.08186 0.82908
 H46 H 0.91863 0.17039 0.91845
 H47 H 0.82948 0.17076 0.82942
 H48 H 0.82992 0.08094 0.91802
 H49 H 0.82132 0.03776 0.86106
 H50 H 0.78498 0.07167 0.88510
 H51 H 0.96595 0.17719 0.89132
 H52 H 0.92964 0.21167 0.86008
 H53 H 0.89291 0.03502 0.82175
 H54 H 0.86011 0.07074 0.78814
 H55 H 0.89132 0.17701 0.96582
 H56 H 0.86083 0.21172 0.92955
 H57 H 0.92935 0.13938 0.78800
 H58 H 0.96604 0.10867 0.82241
 H59 H 0.78959 0.14236 0.92977
 H60 H 0.82310 0.10790 0.96566
 O61 O 0.82928 0.70980 0.37545
 O62 O 0.87507 0.71950 0.41125
 O63 O 0.87668 0.67001 0.28934
 O64 O 0.90918 0.62738 0.27725
 O65 O 0.78971 0.62353 0.32917
 O66 O 0.78049 0.58768 0.37512
 O67 O 0.96055 0.57946 0.37625
 O68 O 0.96936 0.62247 0.33762
 O69 O 0.92058 0.62382 0.46006
 O70 O 0.87327 0.66107 0.47014
 O71 O 0.87648 0.53959 0.42042
 O72 O 0.83938 0.52919 0.37329
 O73 O 0.92103 0.53978 0.37624
 O74 O 0.87432 0.52950 0.33838
 O75 O 0.87635 0.57924 0.46005
 O76 O 0.83862 0.62605 0.47010
 O77 O 0.96031 0.62346 0.42052
 O78 O 0.97038 0.66140 0.37529
 O79 O 0.78970 0.67010 0.37554
 O80 O 0.78045 0.62421 0.41167
 O81 O 0.82939 0.62397 0.28951
 O82 O 0.87536 0.58564 0.28207
 O83 O 0.87571 0.70976 0.32897
 O84 O 0.91163 0.71932 0.37486
 Zr85 Zr 0.87391 0.68347 0.37361
 O86 O 0.90461 0.65548 0.40457
 Zr87 Zr 0.87406 0.62551 0.31578
 O88 O 0.90518 0.59508 0.34411
 Zr89 Zr 0.81617 0.62555 0.37375
 O90 O 0.84445 0.59486 0.40454
 Zr91 Zr 0.93401 0.62390 0.37592
 O92 O 0.90598 0.65474 0.34454
 Zr93 Zr 0.87594 0.62380 0.43369
 O94 O 0.84482 0.65481 0.40559
 Zr95 Zr 0.87631 0.56589 0.37574
 O96 O 0.84498 0.59373 0.34465
 O97 O 0.84335 0.65611 0.34300
 O98 O 0.90699 0.59296 0.40675
 C99 C 0.79910 0.70031 0.37626
 C100 C 0.87700 0.70025 0.29877
 C101 C 0.79919 0.62294 0.29893
 C102 C 0.95119 0.54924 0.37640
 C103 C 0.95080 0.62358 0.45071
 C104 C 0.87653 0.54904 0.45065
 H105 H 0.91795 0.67050 0.41829
 H106 H 0.82955 0.58121 0.41811
 H107 H 0.82933 0.67021 0.32888
 H108 H 0.91916 0.58163 0.32937
 H109 H 0.96225 0.63868 0.32082
 H110 H 0.92855 0.61448 0.28441
 H111 H 0.82262 0.60828 0.46549
 H112 H 0.78820 0.63943 0.42909
 H113 H 0.96472 0.67791 0.39231
 H114 H 0.92911 0.71150 0.35973
 H115 H 0.82306 0.53387 0.39080
 H116 H 0.78843 0.57013 0.36013
 H117 H 0.86024 0.71158 0.42892
 H118 H 0.89094 0.67721 0.46564
 H119 H 0.85801 0.56996 0.28892
 H120 H 0.89223 0.53406 0.32249
 O121 O 0.37561 0.17000 0.28989
 O122 O 0.41150 0.12405 0.28046
 O123 O 0.28963 0.12265 0.32977
 O124 O 0.27758 0.09031 0.37253
 O125 O 0.32935 0.20987 0.37609
 O126 O 0.37509 0.21928 0.41197
 O127 O 0.37630 0.03907 0.42093
 O128 O 0.33777 0.03020 0.37774
 O129 O 0.46006 0.07895 0.37637
 O130 O 0.47027 0.12595 0.33911
 O131 O 0.42041 0.12336 0.46054
 O132 O 0.37323 0.16055 0.47076
 O133 O 0.37625 0.07874 0.46049
 O134 O 0.33843 0.12558 0.47055
 O135 O 0.45999 0.12336 0.42088
 O136 O 0.46992 0.16100 0.37383
 O137 O 0.42062 0.03919 0.37684
 O138 O 0.37562 0.02880 0.33902
 O139 O 0.37564 0.20972 0.32955
 O140 O 0.41175 0.21903 0.37554
 O141 O 0.28976 0.17021 0.37568
 O142 O 0.28222 0.12444 0.41417
 O143 O 0.32925 0.12347 0.29003
 O144 O 0.37513 0.08752 0.28062
 Zr145 Zr 0.37380 0.12540 0.31640
 O146 O 0.40466 0.09478 0.34462
 Zr147 Zr 0.31599 0.12547 0.37435
 O148 O 0.34424 0.09446 0.40500
 Zr149 Zr 0.37386 0.18337 0.37421
 O150 O 0.40454 0.15519 0.40511
 Zr151 Zr 0.37606 0.06547 0.37632
 O152 O 0.34479 0.09341 0.34525
 Zr153 Zr 0.43370 0.12358 0.37626
 O154 O 0.40570 0.15459 0.34505
 Zr155 Zr 0.37578 0.12341 0.43417
 O156 O 0.34478 0.15466 0.40612
 O157 O 0.34319 0.15607 0.34367
 O158 O 0.40681 0.09261 0.40722
 C159 C 0.37638 0.20025 0.29931
 C160 C 0.29908 0.12221 0.29950
 C161 C 0.29916 0.20041 0.37662
 C162 C 0.37640 0.04847 0.45121
 C163 C 0.45076 0.04871 0.37668
 C164 C 0.45060 0.12330 0.45110
 H165 H 0.41839 0.08135 0.32965
 H166 H 0.41806 0.17015 0.41873
 H167 H 0.32910 0.17004 0.32949
 H168 H 0.32950 0.08054 0.41848
 H169 H 0.32109 0.03724 0.36138
 H170 H 0.28468 0.07103 0.38562
 H171 H 0.46541 0.17696 0.39171
 H172 H 0.42909 0.21130 0.36020
 H173 H 0.39233 0.03461 0.32229
 H174 H 0.36006 0.07005 0.28850
 H175 H 0.39074 0.17682 0.46608
 H176 H 0.36020 0.21135 0.42959
 H177 H 0.42904 0.13905 0.28831
 H178 H 0.46556 0.10846 0.32279
 H179 H 0.28910 0.14180 0.42986
 H180 H 0.32255 0.10770 0.46598
 O181 O 0.12436 0.32907 0.28985
 O182 O 0.08858 0.37500 0.28034
 O183 O 0.21036 0.37638 0.32967
 O184 O 0.22258 0.40857 0.37242
 O185 O 0.17044 0.28924 0.37604
 O186 O 0.12463 0.28004 0.41197
 O187 O 0.12382 0.46029 0.42058
 O188 O 0.16241 0.46899 0.37744
 O189 O 0.04005 0.42053 0.37627
 O190 O 0.02978 0.37338 0.33900
 O191 O 0.07959 0.37620 0.46042
 O192 O 0.12656 0.33899 0.47075
 O193 O 0.12376 0.42070 0.46024
 O194 O 0.16159 0.37375 0.47030
 O195 O 0.04000 0.37620 0.42081
 O196 O 0.02992 0.33852 0.37386
 O197 O 0.07959 0.46018 0.37664
 O198 O 0.12470 0.47025 0.33861
 O199 O 0.12420 0.28942 0.32954
 O200 O 0.08801 0.28029 0.37554
 O201 O 0.21011 0.32882 0.37557
 O202 O 0.21767 0.37471 0.41407
 O203 O 0.17079 0.37555 0.28993
 O204 O 0.12495 0.41149 0.28046
 Zr205 Zr 0.12622 0.37370 0.31629
 O206 O 0.09539 0.40447 0.34445
 Zr207 Zr 0.18399 0.37362 0.37423
 O208 O 0.15580 0.40479 0.40480
 Zr209 Zr 0.12600 0.31585 0.37416
 O210 O 0.09537 0.34419 0.40503
 Zr211 Zr 0.12407 0.43377 0.37606
 O212 O 0.15531 0.40567 0.34507
 Zr213 Zr 0.06629 0.37581 0.37616
 O214 O 0.09424 0.34464 0.34498
 Zr215 Zr 0.12419 0.37596 0.43402
 O216 O 0.15512 0.34454 0.40602
 O217 O 0.15674 0.34302 0.34358
 O218 O 0.09326 0.40677 0.40703
 C219 C 0.12352 0.29884 0.29930
 C220 C 0.20094 0.37681 0.29941
 C221 C 0.20064 0.29864 0.37655
 C222 C 0.12365 0.45090 0.45082
 C223 C 0.04944 0.45074 0.37655
 C224 C 0.04941 0.37632 0.45101
 H225 H 0.08170 0.41788 0.32947
 H226 H 0.08180 0.32930 0.41868
 H227 H 0.17083 0.32900 0.32941
 H228 H 0.17056 0.41872 0.41824
 H229 H 0.17913 0.46186 0.36113
 H230 H 0.21545 0.42801 0.38528
 H231 H 0.03446 0.32253 0.39167
 H232 H 0.07071 0.28804 0.36021
 H233 H 0.10770 0.46464 0.32210
 H234 H 0.14001 0.42898 0.28831
 H235 H 0.10916 0.32264 0.46598
 H236 H 0.13956 0.28795 0.42956
 H237 H 0.07096 0.36012 0.28826
 H238 H 0.03444 0.39093 0.32274
 H239 H 0.21083 0.35729 0.42972
 H240 H 0.17739 0.39174 0.46582
 O241 O 0.62445 0.82910 0.28949
 O242 O 0.58881 0.87503 0.27990
 O243 O 0.71048 0.87619 0.32948
 O244 O 0.72246 0.90862 0.37223
 O245 O 0.67041 0.78916 0.37576
 O246 O 0.62459 0.77987 0.41153
 O247 O 0.62364 0.96013 0.42035
 O248 O 0.66223 0.96893 0.37730
 O249 O 0.53993 0.92029 0.37595
 O250 O 0.52966 0.87332 0.33868
 O251 O 0.57934 0.87603 0.46010
 O252 O 0.62640 0.83873 0.47038
 O253 O 0.62357 0.92052 0.46000
 O254 O 0.66131 0.87362 0.47014
 O255 O 0.53982 0.87598 0.42043
 O256 O 0.53005 0.83817 0.37327
 O257 O 0.57943 0.96000 0.37636
 O258 O 0.62459 0.97015 0.33839
 O259 O 0.62425 0.78940 0.32913
 O260 O 0.58799 0.78020 0.37508
 O261 O 0.71008 0.82875 0.37541
 O262 O 0.71760 0.87463 0.41389
 O263 O 0.67099 0.87540 0.28967
 O264 O 0.62515 0.91161 0.28029
 Zr265 Zr 0.62632 0.87368 0.31598
 O266 O 0.59537 0.90433 0.34414
 Zr267 Zr 0.68396 0.87355 0.37401
 O268 O 0.65566 0.90465 0.40458
 Zr269 Zr 0.62598 0.81576 0.37381
 O270 O 0.59527 0.84402 0.40469
 Zr271 Zr 0.62396 0.93364 0.37581
 O272 O 0.65532 0.90563 0.34485
 Zr273 Zr 0.56622 0.87562 0.37580
 O274 O 0.59428 0.84458 0.34459
 Zr275 Zr 0.62402 0.87580 0.43375
 O276 O 0.65503 0.84445 0.40574
 O277 O 0.65678 0.84296 0.34330
 O278 O 0.59311 0.90659 0.40673
 C279 C 0.62361 0.79888 0.29890
 C280 C 0.70115 0.87657 0.29919
 C281 C 0.70061 0.79856 0.37635
 C282 C 0.62346 0.95072 0.45058
 C283 C 0.54928 0.95051 0.37627
 C284 C 0.54916 0.87614 0.45066
 H285 H 0.58168 0.91775 0.32916
 H286 H 0.58170 0.82910 0.41831
 H287 H 0.67087 0.82894 0.32915
 H288 H 0.67039 0.91859 0.41806
 H289 H 0.67900 0.96184 0.36104
 H290 H 0.71531 0.92797 0.38521
 H291 H 0.53434 0.82237 0.39132
 H292 H 0.57073 0.78793 0.35970
 H293 H 0.60767 0.96450 0.32183
 H294 H 0.64038 0.92896 0.28812
 H295 H 0.60886 0.82250 0.46571
 H296 H 0.63936 0.78783 0.42922
 H297 H 0.57110 0.86027 0.28783
 H298 H 0.53447 0.89073 0.32232
 H299 H 0.71069 0.85725 0.42955
 H300 H 0.67720 0.89151 0.46560
 O301 O 0.62458 0.67023 0.20976
 O302 O 0.58884 0.62437 0.21933
 O303 O 0.71060 0.62293 0.16984
 O304 O 0.72260 0.59039 0.12713
 O305 O 0.67083 0.71001 0.12348
 O306 O 0.62500 0.71934 0.08765
 O307 O 0.62375 0.53914 0.07895
 O308 O 0.66232 0.53024 0.12199
 O309 O 0.54007 0.57913 0.12349
 O310 O 0.53000 0.62633 0.16082
 O311 O 0.57963 0.62341 0.03926
 O312 O 0.62679 0.66048 0.02893
 O313 O 0.62378 0.57872 0.03933
 O314 O 0.66158 0.62547 0.02913
 O315 O 0.54008 0.62352 0.07896
 O316 O 0.53014 0.66116 0.12594
 O317 O 0.57952 0.53934 0.12308
 O318 O 0.62468 0.52911 0.16092
 O319 O 0.62454 0.70992 0.17011
 O320 O 0.58843 0.71925 0.12416
 O321 O 0.71042 0.67030 0.12380
 O322 O 0.71788 0.62438 0.08541
 O323 O 0.67102 0.62382 0.20961
 O324 O 0.62521 0.58779 0.21906
 Zr325 Zr 0.62644 0.62563 0.18329
 O326 O 0.59551 0.59500 0.15518
 Zr327 Zr 0.68419 0.62558 0.12528
 O328 O 0.65587 0.59453 0.09474
 Zr329 Zr 0.62631 0.68353 0.12545
 O330 O 0.59557 0.65530 0.09465
 Zr331 Zr 0.62409 0.56562 0.12350
 O332 O 0.65544 0.59359 0.15445
 Zr333 Zr 0.56644 0.62377 0.12354
 O334 O 0.59451 0.65481 0.15467
 Zr335 Zr 0.62429 0.62344 0.06557
 O336 O 0.65534 0.65473 0.09353
 O337 O 0.65701 0.65626 0.15597
 O338 O 0.59329 0.59272 0.09259
 C339 C 0.62379 0.70046 0.20034
 C340 C 0.70118 0.62258 0.20012
 C341 C 0.70102 0.70053 0.12285
 C342 C 0.62362 0.54847 0.04867
 C343 C 0.54938 0.54888 0.12324
 C344 C 0.54945 0.62341 0.04873
 H345 H 0.58180 0.58163 0.17019
 H346 H 0.58203 0.67025 0.08102
 H347 H 0.67111 0.67027 0.17010
 H348 H 0.67059 0.58055 0.08125
 H349 H 0.67909 0.53731 0.13823
 H350 H 0.71548 0.57108 0.11408
 H351 H 0.53474 0.67718 0.10816
 H352 H 0.57108 0.71152 0.13946
 H353 H 0.60782 0.53485 0.17755
 H354 H 0.64037 0.57035 0.21122
 H355 H 0.60933 0.67682 0.03365
 H356 H 0.63990 0.71139 0.07003
 H357 H 0.57121 0.63925 0.21145
 H358 H 0.53456 0.60869 0.17700
 H359 H 0.71099 0.64172 0.06970
 H360 H 0.67747 0.60757 0.03370
 O361 O 0.37516 0.83022 0.71023
 O362 O 0.41097 0.87613 0.71968
 O363 O 0.28917 0.87759 0.67037
 O364 O 0.27719 0.90997 0.62759
 O365 O 0.32898 0.79034 0.62409
 O366 O 0.37476 0.78093 0.58816
 O367 O 0.37603 0.96113 0.57919
 O368 O 0.33742 0.97006 0.62232
 O369 O 0.45972 0.92121 0.62372
 O370 O 0.46990 0.87419 0.66095
 O371 O 0.42014 0.87673 0.53953
 O372 O 0.37295 0.83960 0.52938
 O373 O 0.37602 0.92143 0.53960
 O374 O 0.33818 0.87467 0.52956
 O375 O 0.45970 0.87674 0.57917
 O376 O 0.46955 0.83910 0.62629
 O377 O 0.42027 0.96100 0.62330
 O378 O 0.37515 0.97136 0.66113
 O379 O 0.37526 0.79049 0.67059
 O380 O 0.41139 0.78113 0.62459
 O381 O 0.28937 0.83003 0.62447
 O382 O 0.28190 0.87582 0.58595
 O383 O 0.32873 0.87676 0.71011
 O384 O 0.37462 0.91273 0.71945
 Zr385 Zr 0.37334 0.87482 0.68372
 O386 O 0.40426 0.90539 0.65548
 Zr387 Zr 0.31560 0.87476 0.62578
 O388 O 0.34391 0.90575 0.59512
 Zr389 Zr 0.37349 0.81682 0.62592
 O390 O 0.40422 0.84498 0.59501
 Zr391 Zr 0.37570 0.93473 0.62379
 O392 O 0.34437 0.90682 0.65485
 Zr393 Zr 0.43335 0.87658 0.62382
 O394 O 0.40529 0.84561 0.65506
 Zr395 Zr 0.37549 0.87677 0.56593
 O396 O 0.34445 0.84555 0.59401
 O397 O 0.34278 0.84415 0.65647
 O398 O 0.40649 0.90756 0.59287
 C399 C 0.37596 0.79997 0.70082
 C400 C 0.29856 0.87802 0.70064
 C401 C 0.29879 0.79980 0.62355
 C402 C 0.37618 0.95166 0.54895
 C403 C 0.45042 0.95146 0.62344
 C404 C 0.45034 0.87677 0.54894
 H405 H 0.41797 0.91880 0.67045
 H406 H 0.41775 0.82999 0.58139
 H407 H 0.32868 0.83019 0.67065
 H408 H 0.32919 0.91969 0.58164
 H409 H 0.32069 0.96303 0.63864
 H410 H 0.28431 0.92924 0.61449
 H411 H 0.46510 0.82317 0.60838
 H412 H 0.42872 0.78887 0.63990
 H413 H 0.39191 0.96558 0.67782
 H414 H 0.35949 0.93018 0.71160
 H415 H 0.39045 0.82331 0.53406
 H416 H 0.35984 0.78884 0.57056
 H417 H 0.42856 0.86118 0.71180
 H418 H 0.46514 0.89165 0.67730
 H419 H 0.28880 0.85843 0.57027
 H420 H 0.32228 0.89256 0.53416
 O421 O 0.87583 0.32949 0.71035
 O422 O 0.91146 0.37541 0.71993
 O423 O 0.78975 0.37666 0.67049
 O424 O 0.77756 0.40889 0.62775
 O425 O 0.82975 0.28949 0.62410
 O426 O 0.87565 0.28027 0.58823
 O427 O 0.87636 0.46045 0.57963
 O428 O 0.83778 0.46931 0.62271
 O429 O 0.96014 0.42075 0.62400
 O430 O 0.97033 0.37359 0.66136
 O431 O 0.92066 0.37630 0.53985
 O432 O 0.87369 0.33906 0.52954
 O433 O 0.87645 0.42079 0.53999
 O434 O 0.83872 0.37393 0.52985
 O435 O 0.96022 0.37635 0.57949
 O436 O 0.97032 0.33876 0.62644
 O437 O 0.92058 0.46043 0.62362
 O438 O 0.87538 0.47053 0.66163
 O439 O 0.87600 0.28977 0.67068
 O440 O 0.91216 0.28048 0.62474
 O441 O 0.79006 0.32910 0.62450
 O442 O 0.78252 0.37502 0.58606
 O443 O 0.82930 0.37586 0.71024
 O444 O 0.87505 0.41192 0.71970
 Zr445 Zr 0.87389 0.37406 0.68390
 O446 O 0.90476 0.40476 0.65579
 Zr447 Zr 0.81616 0.37390 0.62594
 O448 O 0.84439 0.40501 0.59541
 Zr449 Zr 0.87419 0.31611 0.62605
 O450 O 0.90487 0.34439 0.59524
 Zr451 Zr 0.87609 0.43403 0.62416
 O452 O 0.84480 0.40599 0.65510
 Zr453 Zr 0.93390 0.37604 0.62412
 O454 O 0.90591 0.34493 0.65524
 Zr455 Zr 0.87604 0.37612 0.56622
 O456 O 0.84507 0.34477 0.59417
 O457 O 0.84340 0.34333 0.65661
 O458 O 0.90694 0.40696 0.59321
 C459 C 0.87670 0.29926 0.70091
 C460 C 0.79915 0.37709 0.70075
 C461 C 0.79954 0.29890 0.62350
 C462 C 0.87654 0.45100 0.54940
 C463 C 0.95075 0.45098 0.62372
 C464 C 0.95083 0.37643 0.54928
 H465 H 0.91843 0.41818 0.67079
 H466 H 0.91845 0.32946 0.58160
 H467 H 0.82932 0.32931 0.67075
 H468 H 0.82964 0.41894 0.58194
 H469 H 0.82101 0.46221 0.63895
 H470 H 0.78471 0.42832 0.61490
 H471 H 0.96576 0.32271 0.60866
 H472 H 0.92950 0.28829 0.64000
 H473 H 0.89240 0.46495 0.67813
 H474 H 0.85992 0.42936 0.71185
 H475 H 0.89118 0.32277 0.53425
 H476 H 0.86070 0.28814 0.57064
 H477 H 0.92915 0.36060 0.71200
 H478 H 0.96575 0.39128 0.67751
 H479 H 0.78938 0.35759 0.57041
 H480 H 0.82284 0.39186 0.53438
 O481 O 0.79018 0.87538 0.17030
 O482 O 0.78072 0.91115 0.12432
 O483 O 0.82991 0.78919 0.12297
 O484 O 0.87249 0.77709 0.09040
 O485 O 0.87628 0.82903 0.21005
 O486 O 0.91210 0.87480 0.21941
 O487 O 0.92089 0.87589 0.03903
 O488 O 0.87779 0.83726 0.03022
 O489 O 0.87659 0.95967 0.07900
 O490 O 0.83942 0.97001 0.12610
 O491 O 0.96061 0.91992 0.12330
 O492 O 0.97080 0.87277 0.16047
 O493 O 0.96044 0.87583 0.07865
 O494 O 0.97046 0.83788 0.12548
 O495 O 0.92107 0.95960 0.12338
 O496 O 0.87407 0.96961 0.16116
 O497 O 0.87693 0.92015 0.03922
 O498 O 0.83906 0.87512 0.02895
 O499 O 0.82979 0.87544 0.21000
 O500 O 0.87578 0.91150 0.21922
 O501 O 0.87589 0.78937 0.17035
 O502 O 0.91418 0.78176 0.12441
 O503 O 0.79025 0.82885 0.12384
 O504 O 0.78089 0.87472 0.08776
 Zr505 Zr 0.81662 0.87344 0.12563
 O506 O 0.84479 0.90428 0.09494
 Zr507 Zr 0.87444 0.81556 0.12559
 O508 O 0.90503 0.84376 0.09448
 Zr509 Zr 0.87438 0.87354 0.18354
 O510 O 0.90525 0.90417 0.15526
 Zr511 Zr 0.87638 0.87560 0.06554
 O512 O 0.84537 0.84435 0.09356
 Zr513 Zr 0.87646 0.93335 0.12369
 O514 O 0.84527 0.90538 0.15477
 Zr515 Zr 0.93421 0.87532 0.12341
 O516 O 0.90619 0.84438 0.15475
 O517 O 0.84384 0.84284 0.15629
 O518 O 0.90730 0.90637 0.09264
 C519 C 0.79959 0.87621 0.20056
 C520 C 0.79969 0.79865 0.12262
 C521 C 0.87687 0.79881 0.20057
 C522 C 0.95113 0.87603 0.04837
 C523 C 0.87686 0.95032 0.04875
 C524 C 0.95124 0.95014 0.12325
 H525 H 0.82985 0.91802 0.08153
 H526 H 0.91889 0.91770 0.17021
 H527 H 0.82971 0.82877 0.17032
 H528 H 0.91847 0.82901 0.08050
 H529 H 0.86145 0.82058 0.03728
 H530 H 0.88556 0.78416 0.07108
 H531 H 0.89199 0.96515 0.17705
 H532 H 0.86049 0.92886 0.21149
 H533 H 0.82241 0.89191 0.03478
 H534 H 0.78870 0.85953 0.07031
 H535 H 0.96615 0.89028 0.17679
 H536 H 0.92970 0.85991 0.21144
 H537 H 0.78862 0.92877 0.13922
 H538 H 0.82310 0.96528 0.10864
 H539 H 0.92991 0.78866 0.14172
 H540 H 0.96598 0.82209 0.10745
 O541 O 0.37568 0.32911 0.21040
 O542 O 0.41150 0.37502 0.21995
 O543 O 0.28974 0.37655 0.17054
 O544 O 0.27758 0.40878 0.12782
 O545 O 0.32964 0.28934 0.12415
 O546 O 0.37547 0.28010 0.08821
 O547 O 0.37638 0.46038 0.07974
 O548 O 0.33782 0.46915 0.12291
 O549 O 0.46016 0.42044 0.12410
 O550 O 0.47026 0.37325 0.16145
 O551 O 0.42066 0.37625 0.03993
 O552 O 0.37374 0.33909 0.02947
 O553 O 0.37643 0.42077 0.04006
 O554 O 0.33864 0.37383 0.02996
 O555 O 0.46020 0.37615 0.07959
 O556 O 0.47022 0.33845 0.12645
 O557 O 0.42067 0.46018 0.12369
 O558 O 0.37549 0.47032 0.16177
 O559 O 0.37586 0.28945 0.17068
 O560 O 0.41208 0.28028 0.12467
 O561 O 0.28999 0.32899 0.12462
 O562 O 0.28252 0.37490 0.08611
 O563 O 0.32928 0.37567 0.21031
 O564 O 0.37510 0.41154 0.21986
 Zr565 Zr 0.37388 0.37377 0.18398
 O566 O 0.40474 0.40450 0.15589
 Zr567 Zr 0.31615 0.37376 0.12600
 O568 O 0.34440 0.40491 0.09549
 Zr569 Zr 0.37410 0.31589 0.12607
 O570 O 0.40478 0.34421 0.09527
 Zr571 Zr 0.37613 0.43385 0.12427
 O572 O 0.34484 0.40578 0.15519
 Zr573 Zr 0.43385 0.37577 0.12419
 O574 O 0.40586 0.34464 0.15530
 Zr575 Zr 0.37602 0.37603 0.06626
 O576 O 0.34504 0.34465 0.09420
 O577 O 0.34336 0.34312 0.15665
 O578 O 0.40695 0.40678 0.09331
 C579 C 0.37651 0.29888 0.20093
 C580 C 0.29914 0.37695 0.20081
 C581 C 0.29943 0.29878 0.12364
 C582 C 0.37653 0.45099 0.04949
 C583 C 0.45082 0.45068 0.12378
 C584 C 0.45083 0.37634 0.04938
 H585 H 0.41843 0.41789 0.17089
 H586 H 0.41836 0.32930 0.08160
 H587 H 0.32926 0.32913 0.17079
 H588 H 0.32965 0.41886 0.08204
 H589 H 0.32107 0.46202 0.13916
 H590 H 0.28475 0.42821 0.11498
 H591 H 0.46565 0.32243 0.10866
 H592 H 0.42937 0.28800 0.14003
 H593 H 0.39254 0.46474 0.17823
 H594 H 0.36012 0.42909 0.21197
 H595 H 0.39110 0.32269 0.03427
 H596 H 0.36057 0.28805 0.07062
 H597 H 0.42910 0.36008 0.21205
 H598 H 0.46570 0.39092 0.17762
 H599 H 0.28934 0.35742 0.07049
 H600 H 0.32282 0.39182 0.03445
 O601 O 0.37529 0.67113 0.78979
 O602 O 0.41112 0.62522 0.78017
 O603 O 0.28937 0.62373 0.82979
 O604 O 0.27734 0.59144 0.87256
 O605 O 0.32917 0.71095 0.87606
 O606 O 0.37502 0.72015 0.91200
 O607 O 0.37623 0.53991 0.92049
 O608 O 0.33765 0.53111 0.87743
 O609 O 0.45994 0.57979 0.87595
 O610 O 0.46993 0.62703 0.83856
 O611 O 0.42044 0.62408 0.96021
 O612 O 0.37343 0.66126 0.97069
 O613 O 0.37625 0.57953 0.96017
 O614 O 0.33844 0.62644 0.97035
 O615 O 0.45996 0.62413 0.92048
 O616 O 0.46992 0.66179 0.87359
 O617 O 0.42048 0.54006 0.87643
 O618 O 0.37526 0.52995 0.83845
 O619 O 0.37543 0.71080 0.82950
 O620 O 0.41161 0.72003 0.87543
 O621 O 0.28958 0.67129 0.87569
 O622 O 0.28222 0.62541 0.91425
 O623 O 0.32890 0.62459 0.78996
 O624 O 0.37476 0.58868 0.78037
 Zr625 Zr 0.37352 0.62648 0.81622
 O626 O 0.40446 0.59577 0.84427
 Zr627 Zr 0.31582 0.62651 0.87430
 O628 O 0.34415 0.59539 0.90477
 Zr629 Zr 0.37370 0.68438 0.87412
 O630 O 0.40447 0.65608 0.90486
 Zr631 Zr 0.37591 0.56642 0.87596
 O632 O 0.34455 0.59448 0.84508
 Zr633 Zr 0.43357 0.62448 0.87592
 O634 O 0.40549 0.65561 0.84486
 Zr635 Zr 0.37577 0.62426 0.93394
 O636 O 0.34470 0.65562 0.90606
 O637 O 0.34298 0.65714 0.84360
 O638 O 0.40672 0.59349 0.90686
 C639 C 0.37610 0.70136 0.79924
 C640 C 0.29875 0.62332 0.79950
 C641 C 0.29897 0.70152 0.87662
 C642 C 0.37639 0.54932 0.95074
 C643 C 0.45064 0.54954 0.87627
 C644 C 0.45062 0.62398 0.95072
 H645 H 0.41816 0.58237 0.82925
 H646 H 0.41803 0.67099 0.91850
 H647 H 0.32886 0.67113 0.82947
 H648 H 0.32944 0.58144 0.91825
 H649 H 0.32086 0.53824 0.86122
 H650 H 0.28451 0.57206 0.88546
 H651 H 0.46530 0.67785 0.89136
 H652 H 0.42894 0.71226 0.86012
 H653 H 0.39230 0.53553 0.82196
 H654 H 0.35977 0.57115 0.78829
 H655 H 0.39080 0.67764 0.96587
 H656 H 0.36007 0.71223 0.92958
 H657 H 0.42872 0.64012 0.78806
 H658 H 0.46541 0.60931 0.82244
 H659 H 0.28904 0.64288 0.92986
 H660 H 0.32259 0.60850 0.96583
 O661 O 0.12384 0.67116 0.71043
 O662 O 0.08811 0.62526 0.71998
 O663 O 0.20996 0.62381 0.67067
 O664 O 0.22223 0.59155 0.62793
 O665 O 0.17005 0.71095 0.62424
 O666 O 0.12429 0.72011 0.58827
 O667 O 0.12355 0.53987 0.57976
 O668 O 0.16203 0.53113 0.62291
 O669 O 0.03965 0.57970 0.62401
 O670 O 0.02932 0.62687 0.66125
 O671 O 0.07934 0.62396 0.53984
 O672 O 0.12631 0.66115 0.52954
 O673 O 0.12356 0.57945 0.54008
 O674 O 0.16135 0.62635 0.53001
 O675 O 0.03967 0.62402 0.57943
 O676 O 0.02955 0.66176 0.62641
 O677 O 0.07921 0.54002 0.62371
 O678 O 0.12431 0.52998 0.66178
 O679 O 0.12371 0.71079 0.67072
 O680 O 0.08761 0.71993 0.62471
 O681 O 0.20974 0.67134 0.62473
 O682 O 0.21736 0.62540 0.58625
 O683 O 0.17034 0.62467 0.71041
 O684 O 0.12448 0.58870 0.71983
 Zr685 Zr 0.12578 0.62650 0.68401
 O686 O 0.09498 0.59576 0.65585
 Zr687 Zr 0.18363 0.62654 0.62609
 O688 O 0.15548 0.59537 0.59554
 Zr689 Zr 0.12561 0.68434 0.62611
 O690 O 0.09502 0.65600 0.59525
 Zr691 Zr 0.12370 0.56641 0.62427
 O692 O 0.15491 0.59451 0.65524
 Zr693 Zr 0.06590 0.62441 0.62411
 O694 O 0.09382 0.65556 0.65528
 Zr695 Zr 0.12390 0.62420 0.56628
 O696 O 0.15479 0.65561 0.59427
 O697 O 0.15633 0.65717 0.65672
 O698 O 0.09293 0.59342 0.59327
 C699 C 0.12299 0.70137 0.70097
 C700 C 0.20051 0.62341 0.70093
 C701 C 0.20027 0.70154 0.62374
 C702 C 0.12345 0.54925 0.54952
 C703 C 0.04904 0.54947 0.62377
 C704 C 0.04913 0.62387 0.54922
 H705 H 0.08127 0.58237 0.67084
 H706 H 0.08147 0.67090 0.58158
 H707 H 0.17038 0.67119 0.67089
 H708 H 0.17026 0.58142 0.58211
 H709 H 0.17875 0.53828 0.63917
 H710 H 0.21511 0.57211 0.61509
 H711 H 0.03407 0.67770 0.60854
 H712 H 0.07027 0.71218 0.64001
 H713 H 0.10725 0.53559 0.67825
 H714 H 0.13961 0.57123 0.71200
 H715 H 0.10888 0.67751 0.53429
 H716 H 0.13926 0.71219 0.57070
 H717 H 0.07046 0.64009 0.71202
 H718 H 0.03398 0.60936 0.67753
 H719 H 0.21055 0.64283 0.57061
 H720 H 0.17718 0.60840 0.53453
 O721 O 0.12442 0.17001 0.21027
 O722 O 0.08863 0.12409 0.21968
 O723 O 0.21051 0.12272 0.17043
 O724 O 0.22269 0.09044 0.12762
 O725 O 0.17070 0.20995 0.12418
 O726 O 0.12492 0.21926 0.08822
 O727 O 0.12390 0.03911 0.07919
 O728 O 0.16252 0.03021 0.12227
 O729 O 0.04017 0.07884 0.12366
 O730 O 0.02989 0.12594 0.16102
 O731 O 0.07985 0.12338 0.03957
 O732 O 0.12698 0.16058 0.02946
 O733 O 0.12393 0.07878 0.03967
 O734 O 0.16180 0.12555 0.02965
 O735 O 0.04021 0.12328 0.07918
 O736 O 0.03011 0.16089 0.12624
 O737 O 0.07970 0.03913 0.12324
 O738 O 0.12479 0.02891 0.16116
 O739 O 0.12434 0.20974 0.17065
 O740 O 0.08829 0.21906 0.12469
 O741 O 0.21036 0.17031 0.12457
 O742 O 0.21795 0.12450 0.08601
 O743 O 0.17087 0.12352 0.21014
 O744 O 0.12502 0.08754 0.21947
 Zr745 Zr 0.12633 0.12542 0.18374
 O746 O 0.09551 0.09478 0.15550
 Zr747 Zr 0.18419 0.12554 0.12583
 O748 O 0.15599 0.09450 0.09516
 Zr749 Zr 0.12622 0.18340 0.12598
 O750 O 0.09558 0.15518 0.09507
 Zr751 Zr 0.12420 0.06550 0.12381
 O752 O 0.15543 0.09346 0.15488
 Zr753 Zr 0.06645 0.12354 0.12385
 O754 O 0.09440 0.15459 0.15509
 Zr755 Zr 0.12443 0.12344 0.06600
 O756 O 0.15537 0.15472 0.09408
 O757 O 0.15691 0.15612 0.15653
 O758 O 0.09343 0.09261 0.09290
 C759 C 0.12360 0.20025 0.20088
 C760 C 0.20105 0.12227 0.20069
 C761 C 0.20091 0.20052 0.12364
 C762 C 0.12373 0.04851 0.04893
 C763 C 0.04954 0.04861 0.12334
 C764 C 0.04965 0.12325 0.04897
 H765 H 0.08180 0.08135 0.17045
 H766 H 0.08205 0.17014 0.08144
 H767 H 0.17097 0.17010 0.17073
 H768 H 0.17074 0.08056 0.08167
 H769 H 0.17923 0.03726 0.13859
 H770 H 0.21561 0.07113 0.11456
 H771 H 0.03465 0.17690 0.10844
 H772 H 0.07091 0.21126 0.13992
 H773 H 0.10787 0.03457 0.17775
 H774 H 0.14014 0.07008 0.21160
 H775 H 0.10944 0.17684 0.03414
 H776 H 0.13993 0.21139 0.07066
 H777 H 0.07103 0.13900 0.21179
 H778 H 0.03453 0.10836 0.17724
 H779 H 0.21107 0.14188 0.07034
 H780 H 0.17767 0.10763 0.03419
 O781 O 0.71043 0.37638 0.82966
 O782 O 0.71992 0.41209 0.87563
 O783 O 0.67087 0.29015 0.87687
 O784 O 0.62827 0.27811 0.90948
 O785 O 0.62452 0.32990 0.78982
 O786 O 0.58848 0.37569 0.78056
 O787 O 0.57977 0.37676 0.96079
 O788 O 0.62295 0.33830 0.96965
 O789 O 0.62388 0.46070 0.92102
 O790 O 0.66109 0.47102 0.87390
 O791 O 0.53995 0.42089 0.87653
 O792 O 0.52997 0.37368 0.83923
 O793 O 0.54022 0.37670 0.92110
 O794 O 0.53017 0.33893 0.87432
 O795 O 0.57941 0.46060 0.87653
 O796 O 0.62649 0.47061 0.83883
 O797 O 0.62362 0.42117 0.96074
 O798 O 0.66157 0.37619 0.97095
 O799 O 0.67081 0.37641 0.78996
 O800 O 0.62485 0.41233 0.78063
 O801 O 0.62498 0.29028 0.82950
 O802 O 0.58663 0.28269 0.87540
 O803 O 0.71049 0.32980 0.87603
 O804 O 0.71971 0.37571 0.91223
 Zr805 Zr 0.68403 0.37441 0.87432
 O806 O 0.65581 0.40531 0.90499
 Zr807 Zr 0.62631 0.31651 0.87427
 O808 O 0.59568 0.34477 0.90534
 Zr809 Zr 0.62626 0.37446 0.81637
 O810 O 0.59538 0.40517 0.84463
 Zr811 Zr 0.62428 0.37661 0.93434
 O812 O 0.65532 0.34532 0.90634
 Zr813 Zr 0.62410 0.43436 0.87628
 O814 O 0.65531 0.40633 0.84519
 Zr815 Zr 0.56645 0.37630 0.87641
 O816 O 0.59450 0.34529 0.84511
 O817 O 0.65686 0.34380 0.84361
 O818 O 0.59329 0.40736 0.90726
 C819 C 0.70099 0.37720 0.79942
 C820 C 0.70109 0.29959 0.87722
 C821 C 0.62403 0.29969 0.79927
 C822 C 0.54959 0.37682 0.95133
 C823 C 0.62363 0.45135 0.95128
 C824 C 0.54925 0.45113 0.87661
 H825 H 0.67073 0.41905 0.91841
 H826 H 0.58174 0.41868 0.82967
 H827 H 0.67103 0.32974 0.82958
 H828 H 0.58226 0.32999 0.91929
 H829 H 0.63932 0.32162 0.96258
 H830 H 0.61516 0.28519 0.92879
 H831 H 0.60858 0.46616 0.82293
 H832 H 0.63995 0.42980 0.78846
 H833 H 0.67822 0.39297 0.96513
 H834 H 0.71195 0.36046 0.92961
 H835 H 0.53453 0.39129 0.82302
 H836 H 0.57101 0.36062 0.78843
 H837 H 0.71193 0.42978 0.86086
 H838 H 0.67737 0.46634 0.89140
 H839 H 0.57093 0.28954 0.85804
 H840 H 0.53485 0.32296 0.89213
 O841 O 0.12369 0.83024 0.78994
 O842 O 0.08789 0.87613 0.78050
 O843 O 0.20970 0.87756 0.82974
 O844 O 0.22171 0.90992 0.87254
 O845 O 0.16998 0.79034 0.87604
 O846 O 0.12416 0.78107 0.91204
 O847 O 0.12296 0.96122 0.92096
 O848 O 0.16143 0.97011 0.87779
 O849 O 0.03913 0.92143 0.87649
 O850 O 0.02903 0.87428 0.83917
 O851 O 0.07878 0.87690 0.96064
 O852 O 0.12597 0.83973 0.97074
 O853 O 0.12301 0.92154 0.96053
 O854 O 0.16072 0.87475 0.97058
 O855 O 0.03919 0.87693 0.92103
 O856 O 0.02925 0.83936 0.87395
 O857 O 0.07859 0.96116 0.87687
 O858 O 0.12370 0.97139 0.83901
 O859 O 0.12363 0.79053 0.82958
 O860 O 0.08759 0.78118 0.87554
 O861 O 0.20957 0.83000 0.87563
 O862 O 0.21702 0.87584 0.91417
 O863 O 0.17011 0.87674 0.79003
 O864 O 0.12421 0.91273 0.78073
 Zr865 Zr 0.12552 0.87484 0.81645
 O866 O 0.09459 0.90548 0.84468
 Zr867 Zr 0.18331 0.87476 0.87435
 O868 O 0.15498 0.90579 0.90500
 Zr869 Zr 0.12544 0.81689 0.87424
 O870 O 0.09468 0.84510 0.90513
 Zr871 Zr 0.12317 0.93480 0.87635
 O872 O 0.15451 0.90683 0.84530
 Zr873 Zr 0.06552 0.87674 0.87636
 O874 O 0.09360 0.84569 0.84514
 Zr875 Zr 0.12342 0.87687 0.93420
 O876 O 0.15449 0.84561 0.90614
 O877 O 0.15611 0.84416 0.84367
 O878 O 0.09240 0.90770 0.90730
 C879 C 0.12290 0.80000 0.79935
 C880 C 0.20029 0.87799 0.79947
 C881 C 0.20019 0.79977 0.87656
 C882 C 0.12290 0.95176 0.95118
 C883 C 0.04844 0.95168 0.87674
 C884 C 0.04858 0.87695 0.95126
 H885 H 0.08088 0.91889 0.82972
 H886 H 0.08115 0.83015 0.91875
 H887 H 0.17021 0.83017 0.82948
 H888 H 0.16971 0.91972 0.91847
 H889 H 0.17817 0.96303 0.86149
 H890 H 0.21457 0.92923 0.88561
 H891 H 0.03382 0.82333 0.89173
 H892 H 0.07019 0.78898 0.86035
 H893 H 0.10691 0.96563 0.82235
 H894 H 0.13934 0.93017 0.78857
 H895 H 0.10847 0.82345 0.96606
 H896 H 0.13917 0.78894 0.92958
 H897 H 0.07027 0.86126 0.78842
 H898 H 0.03366 0.89185 0.82294
 H899 H 0.21017 0.85843 0.92982
 H900 H 0.17670 0.89252 0.96591
 O901 O 0.71031 0.12399 0.67065
 O902 O 0.71969 0.08819 0.62466
 O903 O 0.67076 0.21023 0.62344
 O904 O 0.62817 0.22243 0.59099
 O905 O 0.62443 0.17061 0.71062
 O906 O 0.58840 0.12491 0.71997
 O907 O 0.57957 0.12373 0.53967
 O908 O 0.62275 0.16221 0.53076
 O909 O 0.62370 0.03982 0.57944
 O910 O 0.66087 0.02946 0.62655
 O911 O 0.53977 0.07985 0.62394
 O912 O 0.52974 0.12698 0.66123
 O913 O 0.54003 0.12395 0.57941
 O914 O 0.53014 0.16190 0.62628
 O915 O 0.57919 0.04006 0.62387
 O916 O 0.62617 0.02990 0.66159
 O917 O 0.62343 0.07933 0.53970
 O918 O 0.66140 0.12428 0.52942
 O919 O 0.67072 0.12403 0.71042
 O920 O 0.62468 0.08815 0.71977
 O921 O 0.62491 0.21023 0.67092
 O922 O 0.58651 0.21786 0.62507
 O923 O 0.71034 0.17050 0.62425
 O924 O 0.71956 0.12459 0.58809
 Zr925 Zr 0.68387 0.12597 0.62603
 O926 O 0.65562 0.09515 0.59538
 Zr927 Zr 0.62618 0.18398 0.62615
 O928 O 0.59553 0.15582 0.59509
 Zr929 Zr 0.62614 0.12605 0.68407
 O930 O 0.59520 0.09544 0.65584
 Zr931 Zr 0.62409 0.12390 0.56607
 O932 O 0.65517 0.15511 0.59404
 Zr933 Zr 0.62389 0.06618 0.62417
 O934 O 0.65514 0.09411 0.65522
 Zr935 Zr 0.56629 0.12436 0.62408
 O936 O 0.59438 0.15528 0.65537
 O937 O 0.65673 0.15665 0.65676
 O938 O 0.59311 0.09324 0.59322
 C939 C 0.70091 0.12320 0.70091
 C940 C 0.70096 0.20072 0.62306
 C941 C 0.62396 0.20083 0.70115
 C942 C 0.54938 0.12371 0.54916
 C943 C 0.62345 0.04916 0.54919
 C944 C 0.54905 0.04960 0.62379
 H945 H 0.67053 0.08137 0.58195
 H946 H 0.58154 0.08195 0.67080
 H947 H 0.67092 0.17068 0.67077
 H948 H 0.58212 0.17061 0.58115
 H949 H 0.63912 0.17887 0.53781
 H950 H 0.61511 0.21537 0.57167
 H951 H 0.60827 0.03442 0.67752
 H952 H 0.63981 0.07068 0.71194
 H953 H 0.67801 0.10744 0.53519
 H954 H 0.71179 0.13982 0.57068
 H955 H 0.53438 0.10946 0.67752
 H956 H 0.57089 0.13994 0.71209
 H957 H 0.71174 0.07057 0.63953
 H958 H 0.67716 0.03409 0.60902
 H959 H 0.57084 0.21108 0.64250
 H960 H 0.53468 0.17770 0.60829
 N961 N 0.37694 0.78264 0.75887
 C962 C 0.37687 0.77436 0.72642
 N963 N 0.37694 0.74196 0.71804
 N964 N 0.37697 0.71871 0.74122
 C965 C 0.37694 0.72699 0.77366
 N966 N 0.37698 0.75939 0.78205
 N967 N 0.37734 0.25826 0.28212
 C968 C 0.37729 0.22586 0.27373
 N969 N 0.37739 0.21759 0.24128
 N970 N 0.37743 0.24085 0.21810
 C971 C 0.37736 0.27325 0.22650
 N972 N 0.37737 0.28151 0.25895
 N973 N 0.62276 0.78164 0.24086
 C974 C 0.62275 0.77331 0.27328
 N975 N 0.62268 0.74091 0.28160
 N976 N 0.62273 0.71770 0.25837
 C977 C 0.62285 0.72603 0.22595
 N978 N 0.62281 0.75843 0.21763
 N979 N 0.12259 0.28150 0.24129
 C980 C 0.12262 0.27322 0.27373
 N981 N 0.12256 0.24083 0.28210
 N982 N 0.12258 0.21758 0.25891
 C983 C 0.12266 0.22585 0.22647
 N984 N 0.12260 0.25824 0.21810
 N985 N 0.12197 0.75939 0.71814
 C986 C 0.12204 0.72700 0.72653
 N987 N 0.12198 0.71874 0.75897
 N988 N 0.12196 0.74201 0.78215
 C989 C 0.12200 0.77439 0.77377
 N990 N 0.12195 0.78266 0.74133
 N991 N 0.87776 0.25879 0.78209
 C992 C 0.87773 0.22640 0.77370
 N993 N 0.87778 0.21809 0.74127
 N994 N 0.87775 0.24132 0.71808
 C995 C 0.87765 0.27370 0.72647
 N996 N 0.87772 0.28202 0.75890
 N997 N 0.78202 0.37803 0.75877
 C998 C 0.77363 0.37816 0.72636
 N999 N 0.74124 0.37842 0.71810
 N1000 N 0.71810 0.37843 0.74139
 C1001 C 0.72650 0.37818 0.77379
 N1002 N 0.75888 0.37805 0.78205
 N1003 N 0.28157 0.62219 0.74150
 C1004 C 0.27320 0.62225 0.77392
 N1005 N 0.24081 0.62222 0.78223
 N1006 N 0.21766 0.62225 0.75897
 C1007 C 0.22603 0.62231 0.72655
 N1008 N 0.25842 0.62221 0.71824
 N1009 N 0.28203 0.12106 0.24144
 C1010 C 0.27358 0.12112 0.27384
 N1011 N 0.24118 0.12105 0.28207
 N1012 N 0.21808 0.12108 0.25876
 C1013 C 0.22653 0.12115 0.22635
 N1014 N 0.25894 0.12107 0.21813
 N1015 N 0.78203 0.12224 0.74137
 C1016 C 0.77370 0.12209 0.77380
 N1017 N 0.74132 0.12187 0.78215
 N1018 N 0.71814 0.12192 0.75892
 C1019 C 0.72647 0.12218 0.72649
 N1020 N 0.75885 0.12228 0.71815
 N1021 N 0.71844 0.87729 0.24115
 C1022 C 0.72676 0.87749 0.27357
 N1023 N 0.75914 0.87768 0.28188
 N1024 N 0.78233 0.87756 0.25862
 C1025 C 0.77401 0.87724 0.22620
 N1026 N 0.74163 0.87718 0.21789
 N1027 N 0.78177 0.75823 0.37715
 C1028 C 0.77350 0.72583 0.37718
 N1029 N 0.74114 0.71744 0.37734
 N1030 N 0.71790 0.74061 0.37736
 C1031 C 0.72617 0.77301 0.37721
 N1032 N 0.75853 0.78140 0.37717
 N1033 N 0.78221 0.24094 0.62245
 C1034 C 0.77395 0.27336 0.62249
 N1035 N 0.74159 0.28178 0.62222
 N1036 N 0.71834 0.25864 0.62206
 C1037 C 0.72659 0.22622 0.62215
 N1038 N 0.75895 0.21780 0.62230
 N1039 N 0.75902 0.71759 0.12164
 C1040 C 0.72666 0.72603 0.12188
 N1041 N 0.71843 0.75846 0.12188
 N1042 N 0.74171 0.78158 0.12180
 C1043 C 0.77407 0.77313 0.12168
 N1044 N 0.78229 0.74071 0.12154
 N1045 N 0.28211 0.24082 0.12274
 C1046 C 0.27384 0.27324 0.12281
 N1047 N 0.24147 0.28163 0.12278
 N1048 N 0.21823 0.25848 0.12279
 C1049 C 0.22650 0.22607 0.12282
 N1050 N 0.25887 0.21767 0.12275
 N1051 N 0.28150 0.75950 0.87746
 C1052 C 0.27330 0.72707 0.87744
 N1053 N 0.24094 0.71866 0.87748
 N1054 N 0.21765 0.74180 0.87746
 C1055 C 0.22585 0.77422 0.87738
 N1056 N 0.25821 0.78264 0.87743
 N1057 N 0.28182 0.25834 0.37749
 C1058 C 0.27357 0.22593 0.37745
 N1059 N 0.24121 0.21753 0.37750
 N1060 N 0.21796 0.24069 0.37748
 C1061 C 0.22622 0.27310 0.37741
 N1062 N 0.25857 0.28149 0.37747
 N1063 N 0.53195 0.62343 0.99077
 C1064 C 0.52379 0.62338 1.02323
 N1065 N 0.49144 0.62345 1.03175
 N1066 N 0.46812 0.62360 1.00867
 C1067 C 0.47629 0.62370 0.97620
 N1068 N 0.50863 0.62358 0.96768
 N1069 N 0.46806 0.12332 0.50907
 C1070 C 0.47625 0.12323 0.47661
 N1071 N 0.50859 0.12319 0.46811
 N1072 N 0.53190 0.12330 0.49121
 C1073 C 0.52372 0.12345 0.52367
 N1074 N 0.49137 0.12343 0.53217
 N1075 N 0.53166 0.87656 0.50867
 C1076 C 0.52348 0.87643 0.47622
 N1077 N 0.49112 0.87652 0.46778
 N1078 N 0.46782 0.87669 0.49092
 C1079 C 0.47601 0.87677 0.52337
 N1080 N 0.50836 0.87672 0.53181
 N1081 N 1.03206 0.37659 0.50899
 C1082 C 1.02381 0.37654 0.47656
 N1083 N 0.99146 0.37657 0.46814
 N1084 N 0.96820 0.37659 0.49130
 C1085 C 0.97644 0.37659 0.52374
 N1086 N 1.00879 0.37661 0.53216
 N1087 N -0.03271 0.87660 0.99161
 C1088 C -0.02453 0.87640 1.02410
 N1089 N 0.00787 0.87653 1.03246
 N1090 N 0.03115 0.87678 1.00929
 C1091 C 0.02293 0.87692 0.97685
 N1092 N -0.00943 0.87684 0.96845
 N1093 N -0.03156 0.12310 0.00866
 C1094 C -0.02329 0.12318 -0.02378
 N1095 N 0.00907 0.12317 -0.03220
 N1096 N 0.03232 0.12315 -0.00904
 C1097 C 0.02406 0.12312 0.02340
 N1098 N -0.00831 0.12307 0.03182
 N1099 N 0.12319 1.03278 0.99210
 C1100 C 0.12335 1.02433 1.02453
 N1101 N 0.12317 0.99186 1.03265
 N1102 N 0.12294 0.96877 1.00929
 C1103 C 0.12285 0.97725 0.97691
 N1104 N 0.12296 1.00968 0.96874
 N1105 N 0.12336 0.50888 0.46819
 C1106 C 0.12339 0.47647 0.47646
 N1107 N 0.12332 0.46809 0.50888
 N1108 N 0.12327 0.49127 0.53216
 C1109 C 0.12329 0.52367 0.52388
 N1110 N 0.12331 0.53205 0.49147
 N1111 N 0.37674 0.50898 1.03210
 C1112 C 0.37673 0.47656 1.02383
 N1113 N 0.37675 0.46817 0.99141
 N1114 N 0.37672 0.49132 0.96813
 C1115 C 0.37666 0.52375 0.97640
 N1116 N 0.37670 0.53214 1.00882
 N1117 N 0.87672 0.53202 0.50869
 C1118 C 0.87674 0.52355 0.47629
 N1119 N 0.87682 0.49113 0.46805
 N1120 N 0.87683 0.46802 0.49136
 C1121 C 0.87675 0.47649 0.52375
 N1122 N 0.87673 0.50891 0.53200
 N1123 N 0.87700 1.03151 0.00838
 C1124 C 0.87706 1.02318 -0.02405
 N1125 N 0.87717 0.99080 -0.03243
 N1126 N 0.87718 0.96759 -0.00922
 C1127 C 0.87706 0.97591 0.02321
 N1128 N 0.87701 1.00830 0.03159
 N1129 N 0.62312 0.00870 0.46791
 C1130 C 0.62322 -0.02370 0.47622
 N1131 N 0.62325 -0.03205 0.50864
 N1132 N 0.62325 -0.00885 0.53189
 C1133 C 0.62321 0.02355 0.52358
 N1134 N 0.62312 0.03189 0.49116
 N1135 N 0.46810 0.99081 0.37677
 C1136 C 0.47637 1.02321 0.37678
 N1137 N 0.50872 1.03161 0.37673
 N1138 N 0.53196 1.00844 0.37662
 C1139 C 0.52369 0.97603 0.37654
 N1140 N 0.49134 0.96764 0.37665
 N1141 N 0.00917 -0.03259 0.12294
 C1142 C -0.02321 -0.02427 0.12309
 N1143 N -0.03157 0.00812 0.12320
 N1144 N -0.00841 0.03135 0.12322
 C1145 C 0.02398 0.02303 0.12313
 N1146 N 0.03234 -0.00936 0.12296
 N1147 N 0.53202 0.49095 0.12323
 C1148 C 0.52375 0.52337 0.12318
 N1149 N 0.49139 0.53178 0.12325
 N1150 N 0.46816 0.50862 0.12339
 C1151 C 0.47643 0.47620 0.12349
 N1152 N 0.50880 0.46779 0.12339
 N1153 N 0.00869 0.46826 0.62355
 C1154 C -0.02370 0.47657 0.62354
 N1155 N -0.03206 0.50897 0.62350
 N1156 N -0.00890 0.53220 0.62352
 C1157 C 0.02348 0.52389 0.62357
 N1158 N 0.03185 0.49149 0.62355
 N1159 N 0.46801 0.49156 0.87669
 C1160 C 0.47628 0.52397 0.87650
 N1161 N 0.50865 0.53232 0.87645
 N1162 N 0.53188 0.50912 0.87654
 C1163 C 0.52361 0.47671 0.87669
 N1164 N 0.49124 0.46836 0.87678
 N1165 N 0.62341 0.53253 0.99189
 C1166 C 0.62340 0.52421 1.02434
 N1167 N 0.62331 0.49177 1.03259
 N1168 N 0.62330 0.46859 1.00931
 C1169 C 0.62339 0.47695 0.97690
 N1170 N 0.62341 0.50935 0.96862
 N1171 N 0.37657 1.03271 0.50805
 C1172 C 0.37658 1.02427 0.47561
 N1173 N 0.37661 0.99178 0.46747
 N1174 N 0.37655 0.96870 0.49082
 C1175 C 0.37647 0.97717 0.52322
 N1176 N 0.37652 1.00961 0.53139
 N1177 N -0.03200 0.62360 0.50875
 C1178 C -0.02366 0.62348 0.47633
 N1179 N 0.00872 0.62338 0.46798
 N1180 N 0.03192 0.62345 0.49119
 C1181 C 0.02358 0.62363 0.52362
 N1182 N -0.00880 0.62367 0.53197
 N1183 N 0.46830 0.37674 0.99144
 C1184 C 0.47647 0.37663 1.02389
 N1185 N 0.50881 0.37674 1.03238
 N1186 N 0.53212 0.37687 1.00927
 C1187 C 0.52395 0.37692 0.97682
 N1188 N 0.49161 0.37688 0.96833
 N1189 N 0.50841 -0.03147 0.62346
 C1190 C 0.47606 -0.02304 0.62334
 N1191 N 0.46781 0.00939 0.62328
 N1192 N 0.49105 0.03253 0.62338
 C1193 C 0.52341 0.02410 0.62356
 N1194 N 0.53166 -0.00832 0.62356
 N1195 N -0.03163 0.49128 0.37661
 C1196 C -0.02327 0.52366 0.37667
 N1197 N 0.00911 0.53195 0.37682
 N1198 N 0.03227 0.50871 0.37686
 C1199 C 0.02390 0.47632 0.37674
 N1200 N -0.00847 0.46803 0.37664
 N1201 N -0.03279 0.99214 0.87663
 C1202 C -0.02455 1.02459 0.87645
 N1203 N 0.00787 1.03288 0.87650
 N1204 N 0.03108 1.00967 0.87668
 C1205 C 0.02280 0.97726 0.87680
 N1206 N -0.00958 0.96893 0.87679
 N1207 N 0.78218 0.62169 0.24086
 C1208 C 0.77372 0.62192 0.27326
 N1209 N 0.74132 0.62187 0.28148
 N1210 N 0.71823 0.62175 0.25817
 C1211 C 0.72668 0.62164 0.22576
 N1212 N 0.75909 0.62156 0.21754
 N1213 N 0.28138 0.87917 0.75873
 C1214 C 0.27300 0.87911 0.72631
 N1215 N 0.24060 0.87917 0.71808
 N1216 N 0.21746 0.87915 0.74138
 C1217 C 0.22584 0.87908 0.77380
 N1218 N 0.25824 0.87916 0.78203
 N1219 N 0.21808 0.37803 0.24140
 C1220 C 0.22646 0.37793 0.27381
 N1221 N 0.25884 0.37803 0.28209
 N1222 N 0.28199 0.37806 0.25881
 C1223 C 0.27361 0.37802 0.22641
 N1224 N 0.24123 0.37808 0.21812
 N1225 N 0.87786 0.75821 0.28167
 C1226 C 0.87797 0.72583 0.27324
 N1227 N 0.87812 0.71756 0.24080
 N1228 N 0.87805 0.74083 0.21765
 C1229 C 0.87783 0.77321 0.22609
 N1230 N 0.87780 0.78148 0.25852
 N1231 N 0.62315 0.28220 0.74131
 C1232 C 0.62321 0.27402 0.77376
 N1233 N 0.62315 0.24166 0.78223
 N1234 N 0.62313 0.21833 0.75912
 C1235 C 0.62317 0.22650 0.72667
 N1236 N 0.62314 0.25887 0.71819
 N1237 N 0.78234 0.25917 0.87778
 C1238 C 0.77408 0.22676 0.87775
 N1239 N 0.74170 0.21841 0.87802
 N1240 N 0.71846 0.24160 0.87818
 C1241 C 0.72672 0.27401 0.87809
 N1242 N 0.75910 0.28236 0.87793
 N1243 N 0.28145 0.74186 0.62276
 C1244 C 0.27318 0.77427 0.62276
 N1245 N 0.24081 0.78267 0.62273
 N1246 N 0.21757 0.75951 0.62277
 C1247 C 0.22585 0.72710 0.62287
 N1248 N 0.25822 0.71870 0.62281
   
