data_POSCAR
  _audit_creation_date              2014-09-24
  _audit_creation_method            'ToBaCCo'
  _symmetry_space_group_name_H-M    'P1'
  _symmetry_Int_Tables_number       1
  _symmetry_cell_setting            triclinic
  loop_
  _symmetry_equiv_pos_as_xyz
 x,y,z
_cell_length_a 48.4833
_cell_length_b 48.5578
_cell_length_c 48.5385
_cell_angle_alpha 89.985300
_cell_angle_beta 90.100000
_cell_angle_gamma 89.927700
loop_
  _atom_site_label
  _atom_site_type_symbol
  _atom_site_fract_x
  _atom_site_fract_y
  _atom_site_fract_z
C1 C 0.26472 0.93935 -0.02619
 C2 C 0.26526 0.92602 -0.00047
 C3 C 0.26503 0.94045 0.02438
 C4 C 0.26438 0.96950 0.02403
 C5 C 0.26326 0.98377 -0.00149
 C6 C 0.26410 0.96874 -0.02669
 C7 C 0.26734 0.98362 -0.05131
 C8 C 0.26710 1.01224 -0.05157
 C9 C 0.26342 1.02760 -0.02725
 C10 C 0.26283 1.01319 -0.00174
 C11 C 0.26668 0.98461 0.04851
 C12 C 0.26671 1.01314 0.04824
 C13 C 0.26342 1.02804 0.02356
 C14 C 0.26342 1.05734 0.02334
 C15 C 0.26391 1.07097 -0.00216
 C16 C 0.26326 1.05695 -0.02748
 H17 H 0.27139 0.97341 -0.07066
 H18 H 0.27109 1.02213 -0.07110
 H19 H 0.26950 0.97455 0.06821
 H20 H 0.27043 1.02324 0.06771
 H21 H 0.26489 0.90369 0.00044
 H22 H 0.26230 1.09325 -0.00224
 C23 C 0.76121 0.44199 0.47254
 C24 C 0.76219 0.42765 0.49755
 C25 C 0.76166 0.44127 0.52292
 C26 C 0.76016 0.47038 0.52346
 C27 C 0.75853 0.48530 0.49832
 C28 C 0.75938 0.47110 0.47276
 C29 C 0.75952 0.48646 0.44821
 C30 C 0.75778 0.51507 0.44864
 C31 C 0.75582 0.52956 0.47364
 C32 C 0.75685 0.51455 0.49876
 C33 C 0.76139 0.48499 0.54840
 C34 C 0.75993 0.51357 0.54881
 C35 C 0.75699 0.52876 0.52432
 C36 C 0.75529 0.55785 0.52464
 C37 C 0.75372 0.57225 0.49974
 C38 C 0.75398 0.55870 0.47430
 H39 H 0.76140 0.47657 0.42835
 H40 H 0.75850 0.52569 0.42908
 H41 H 0.76403 0.47456 0.56791
 H42 H 0.76157 0.52357 0.56864
 H43 H 0.76328 0.40533 0.49725
 H44 H 0.75209 0.59453 0.50021
 C45 C 0.73718 1.02587 1.05630
 C46 C 0.73683 1.00085 1.07048
 C47 C 0.73849 0.97533 1.05689
 C48 C 0.73954 0.97520 1.02750
 C49 C 0.74034 1.00058 1.01283
 C50 C 0.73891 1.02594 1.02728
 C51 C 0.73800 1.05070 1.01231
 C52 C 0.73919 1.05073 0.98374
 C53 C 0.74131 1.02600 0.96890
 C54 C 0.74148 1.00065 0.98351
 C55 C 0.73733 0.95065 1.01220
 C56 C 0.73878 0.95070 0.98359
 C57 C 0.74173 0.97538 0.96882
 C58 C 0.74332 0.97558 0.93966
 C59 C 0.74336 1.00080 0.92570
 C60 C 0.74206 1.02588 0.93978
 H61 H 0.73581 1.07039 1.02248
 H62 H 0.73795 1.07044 0.97343
 H63 H 0.73351 0.93106 1.02201
 H64 H 0.73670 0.93113 0.97318
 H65 H 0.73663 1.00154 1.09282
 H66 H 0.74436 1.00096 0.90337
 C67 C 0.24191 0.52321 0.55661
 C68 C 0.24283 0.49781 0.57016
 C69 C 0.24369 0.47291 0.55570
 C70 C 0.24372 0.47329 0.52651
 C71 C 0.24337 0.49891 0.51238
 C72 C 0.24210 0.52395 0.52748
 C73 C 0.23995 0.54893 0.51304
 C74 C 0.23991 0.54949 0.48441
 C75 C 0.24210 0.52508 0.46900
 C76 C 0.24346 0.49949 0.48307
 C77 C 0.24290 0.44883 0.51106
 C78 C 0.24309 0.44939 0.48241
 C79 C 0.24409 0.47445 0.46793
 C80 C 0.24448 0.47521 0.43871
 C81 C 0.24321 0.50070 0.42526
 C82 C 0.24187 0.52549 0.43987
 H83 H 0.23781 0.56837 0.52369
 H84 H 0.23778 0.56934 0.47453
 H85 H 0.24158 0.42891 0.52090
 H86 H 0.24186 0.42987 0.47178
 H87 H 0.24295 0.49744 0.59251
 H88 H 0.24342 0.50130 0.40292
 C89 C 0.93972 0.25223 -0.02301
 C90 C 0.92691 0.25336 0.00289
 C91 C 0.94159 0.24974 0.02743
 C92 C 0.97057 0.24628 0.02651
 C93 C 0.98436 0.24620 0.00072
 C94 C 0.96891 0.24885 -0.02412
 C95 C 0.98334 0.24944 -0.04920
 C96 C 1.01161 0.24539 -0.05018
 C97 C 1.02754 0.24348 -0.02602
 C98 C 1.01372 0.24367 -0.00019
 C99 C 0.98613 0.24317 0.05071
 C100 C 1.01451 0.23952 0.04976
 C101 C 1.02903 0.24075 0.02471
 C102 C 1.05817 0.23728 0.02369
 C103 C 1.07099 0.23568 -0.00218
 C104 C 1.05666 0.23977 -0.02699
 H105 H 0.97313 0.25316 -0.06862
 H106 H 1.02061 0.24351 -0.07042
 H107 H 0.97659 0.24335 0.07082
 H108 H 1.02478 0.23524 0.06905
 H109 H 0.90464 0.25525 0.00405
 H110 H 1.09331 0.23425 -0.00292
 C111 C 0.43696 0.75298 0.48073
 C112 C 0.42371 0.75069 0.50619
 C113 C 0.43851 0.74806 0.53084
 C114 C 0.46775 0.74752 0.53008
 C115 C 0.48154 0.74992 0.50438
 C116 C 0.46612 0.75303 0.47969
 C117 C 0.48024 0.75708 0.45475
 C118 C 0.50887 0.75673 0.45379
 C119 C 0.52462 0.75235 0.47771
 C120 C 0.51087 0.74973 0.50340
 C121 C 0.48359 0.74535 0.55427
 C122 C 0.51226 0.74464 0.55326
 C123 C 0.52636 0.74711 0.52811
 C124 C 0.55554 0.74685 0.52691
 C125 C 0.56868 0.74869 0.50134
 C126 C 0.55378 0.75134 0.47679
 H127 H 0.46933 0.76093 0.43569
 H128 H 0.51850 0.76034 0.43404
 H129 H 0.47408 0.74427 0.57436
 H130 H 0.52323 0.74215 0.57252
 H131 H 0.40134 0.75069 0.50679
 H132 H 0.59104 0.74811 0.50055
 C133 C 0.02167 0.74068 -0.05407
 C134 C -0.00382 0.74060 -0.06783
 C135 C -0.02896 0.74515 -0.05418
 C136 C -0.02872 0.74854 -0.02501
 C137 C -0.00331 0.74725 -0.01040
 C138 C 0.02180 0.74283 -0.02486
 C139 C 0.04606 0.73845 -0.00951
 C140 C 0.04649 0.74175 0.01883
 C141 C 0.02240 0.74840 0.03336
 C142 C -0.00301 0.74956 0.01893
 C143 C -0.05321 0.75142 -0.00974
 C144 C -0.05277 0.75477 0.01865
 C145 C -0.02808 0.75271 0.03375
 C146 C -0.02757 0.75477 0.06310
 C147 C -0.00181 0.75604 0.07644
 C148 C 0.02298 0.75277 0.06211
 H149 H 0.06503 0.73183 -0.01914
 H150 H 0.06591 0.73833 0.02929
 H151 H -0.07330 0.75070 -0.01930
 H152 H -0.07225 0.75911 0.02849
 H153 H -0.00393 0.73983 -0.09016
 H154 H -0.00082 0.75793 0.09867
 C155 C 0.52340 0.25209 0.44230
 C156 C 0.49795 0.25249 0.42871
 C157 C 0.47302 0.25317 0.44319
 C158 C 0.47344 0.25333 0.47239
 C159 C 0.49912 0.25319 0.48653
 C160 C 0.52416 0.25277 0.47144
 C161 C 0.54930 0.25336 0.48587
 C162 C 0.54994 0.25327 0.51446
 C163 C 0.52547 0.25360 0.52993
 C164 C 0.49977 0.25333 0.51585
 C165 C 0.44897 0.25323 0.48785
 C166 C 0.44961 0.25357 0.51650
 C167 C 0.47475 0.25306 0.53099
 C168 C 0.47560 0.25258 0.56019
 C169 C 0.50115 0.25309 0.57369
 C170 C 0.52601 0.25378 0.55909
 H171 H 0.56888 0.25395 0.47529
 H172 H 0.56999 0.25278 0.52421
 H173 H 0.42895 0.25276 0.47804
 H174 H 0.43004 0.25433 0.52709
 H175 H 0.49754 0.25215 0.40636
 H176 H 0.50172 0.25282 0.59604
 C177 C 1.06015 0.02858 0.24975
 C178 C 1.07470 0.00372 0.25079
 C179 C 1.06135 -0.02196 0.25002
 C180 C 1.03196 -0.02250 0.25002
 C181 C 1.01688 0.00262 0.24886
 C182 C 1.03100 0.02821 0.24859
 C183 C 1.01555 0.05273 0.24780
 C184 C 0.98693 0.05223 0.24619
 C185 C 0.97245 0.02722 0.24667
 C186 C 0.98752 0.00217 0.24835
 C187 C 1.01714 -0.04728 0.25295
 C188 C 0.98854 -0.04778 0.25169
 C189 C 0.97330 -0.02335 0.24922
 C190 C 0.94420 -0.02371 0.24746
 C191 C 0.92976 0.00110 0.24531
 C192 C 0.94331 0.02647 0.24512
 H193 H 1.02535 0.07270 0.24842
 H194 H 0.97633 0.07177 0.24463
 H195 H 1.02736 -0.06669 0.25672
 H196 H 0.97856 -0.06764 0.25291
 H197 H 1.09706 0.00459 0.25038
 H198 H 0.90741 0.00065 0.24403
 C199 C 0.44510 0.47344 0.74432
 C200 C 0.43049 0.49825 0.74541
 C201 C 0.44391 0.52366 0.74702
 C202 C 0.47309 0.52441 0.74809
 C203 C 0.48830 0.49942 0.74651
 C204 C 0.47425 0.47387 0.74437
 C205 C 0.48969 0.44957 0.74128
 C206 C 0.51835 0.45018 0.74094
 C207 C 0.53278 0.47510 0.74389
 C208 C 0.51762 0.50003 0.74630
 C209 C 0.48749 0.54942 0.74998
 C210 C 0.51616 0.54995 0.75054
 C211 C 0.53169 0.52560 0.74803
 C212 C 0.56090 0.52607 0.74732
 C213 C 0.57548 0.50126 0.74534
 C214 C 0.56197 0.47587 0.74363
 H215 H 0.47977 0.42981 0.73856
 H216 H 0.52901 0.43085 0.73794
 H217 H 0.47679 0.56893 0.75101
 H218 H 0.52597 0.56980 0.75284
 H219 H 0.40811 0.49778 0.74494
 H220 H 0.59785 0.50173 0.74478
 C221 C 1.02739 0.94147 0.74335
 C222 C 1.00194 0.92787 0.74612
 C223 C 0.97751 0.94201 0.75179
 C224 C 0.97815 0.97087 0.75511
 C225 C 1.00304 0.98545 0.75051
 C226 C 1.02773 0.97081 0.74451
 C227 C 1.05136 0.98603 0.73751
 C228 C 1.05138 1.01466 0.73843
 C229 C 1.02776 1.02957 0.74638
 C230 C 1.00297 1.01481 0.75125
 C231 C 0.95460 0.98547 0.76338
 C232 C 0.95460 1.01401 0.76429
 C233 C 0.97792 1.02922 0.75627
 C234 C 0.97723 1.05845 0.75464
 C235 C 1.00226 1.07253 0.75104
 C236 C 1.02761 1.05885 0.74740
 H237 H 1.06989 0.97604 0.73019
 H238 H 1.06995 1.02496 0.73176
 H239 H 0.93588 0.97495 0.76937
 H240 H 0.93605 1.02398 0.77157
 H241 H 1.00106 0.90559 0.74479
 H242 H 1.00199 1.09484 0.75069
 C243 C 0.52781 0.44489 0.25446
 C244 C 0.50286 0.43045 0.25526
 C245 C 0.47747 0.44408 0.25659
 C246 C 0.47690 0.47319 0.25788
 C247 C 0.50194 0.48821 0.25631
 C248 C 0.52751 0.47406 0.25471
 C249 C 0.55204 0.48946 0.25396
 C250 C 0.55147 0.51809 0.25354
 C251 C 0.52640 0.53255 0.25498
 C252 C 0.50139 0.51748 0.25656
 C253 C 0.45205 0.48763 0.26152
 C254 C 0.45151 0.51623 0.26174
 C255 C 0.47580 0.53160 0.25829
 C256 C 0.47527 0.56072 0.25719
 C257 C 0.50011 0.57524 0.25547
 C258 C 0.52558 0.56169 0.25456
 H259 H 0.57204 0.47962 0.25364
 H260 H 0.57100 0.52870 0.25206
 H261 H 0.43271 0.47700 0.26459
 H262 H 0.43177 0.52613 0.26492
 H263 H 0.50320 0.40813 0.25426
 H264 H 0.49961 0.59756 0.25457
 O265 O 0.25463 0.17971 0.20743
 O266 O 0.28432 0.17237 0.24676
 O267 O 0.18195 0.21384 0.24348
 O268 O 0.17131 0.25000 0.27013
 O269 O 0.21867 0.25033 0.17192
 O270 O 0.25682 0.28130 0.16542
 O271 O 0.25261 0.29114 0.31548
 O272 O 0.21934 0.25514 0.32187
 O273 O 0.32343 0.25150 0.28562
 O274 O 0.33354 0.22094 0.24740
 O275 O 0.29226 0.32252 0.24618
 O276 O 0.25388 0.33041 0.21277
 O277 O 0.25301 0.32348 0.28163
 O278 O 0.22403 0.33167 0.24123
 O279 O 0.32491 0.28905 0.24930
 O280 O 0.33419 0.24945 0.21735
 O281 O 0.28942 0.25480 0.31760
 O282 O 0.25527 0.22315 0.32531
 O283 O 0.25776 0.21260 0.17424
 O284 O 0.28763 0.25098 0.16694
 O285 O 0.18396 0.25118 0.20335
 O286 O 0.17615 0.28413 0.24109
 O287 O 0.21509 0.18073 0.24567
 O288 O 0.25435 0.17187 0.27583
 Zr289 Zr 0.25265 0.20228 0.24462
 O290 O 0.27733 0.22620 0.27108
 Zr291 Zr 0.20443 0.25087 0.24184
 O292 O 0.22722 0.27691 0.26824
 Zr293 Zr 0.25490 0.25001 0.19565
 O294 O 0.27983 0.27594 0.21980
 Zr295 Zr 0.25288 0.25345 0.29408
 O296 O 0.22746 0.22692 0.27018
 Zr297 Zr 0.30283 0.25196 0.24758
 O298 O 0.28042 0.22571 0.22100
 Zr299 Zr 0.25468 0.30078 0.24477
 O300 O 0.22955 0.27704 0.21808
 O301 O 0.22823 0.22483 0.21767
 O302 O 0.27956 0.27860 0.27192
 C303 C 0.25706 0.18737 0.18215
 C304 C 0.18978 0.18859 0.24523
 C305 C 0.19299 0.25074 0.17842
 C306 C 0.25257 0.31625 0.30709
 C307 C 0.31494 0.25326 0.31059
 C308 C 0.31743 0.31440 0.24831
 H309 H 0.28795 0.21383 0.28336
 H310 H 0.29180 0.28703 0.20766
 H311 H 0.21687 0.21278 0.20577
 H312 H 0.21445 0.28844 0.27915
 H313 H 0.20672 0.23994 0.31679
 H314 H 0.17720 0.26038 0.28664
 H315 H 0.33212 0.26537 0.20481
 H316 H 0.30228 0.23887 0.17442
 H317 H 0.24299 0.20797 0.31961
 H318 H 0.23874 0.17526 0.28847
 H319 H 0.26955 0.32657 0.20032
 H320 H 0.24345 0.29567 0.17101
 H321 H 0.29884 0.17825 0.23370
 H322 H 0.32791 0.20663 0.26075
 H323 H 0.18229 0.29682 0.22636
 H324 H 0.20930 0.32735 0.25461
 O325 O 0.74642 0.82696 0.21507
 O326 O 0.71663 0.83546 0.25370
 O327 O 0.81897 0.79490 0.25632
 O328 O 0.82803 0.75961 0.28510
 O329 O 0.78746 0.75438 0.18377
 O330 O 0.74880 0.72442 0.17565
 O331 O 0.74605 0.71922 0.32601
 O332 O 0.77827 0.75633 0.33295
 O333 O 0.67583 0.75515 0.29139
 O334 O 0.66876 0.78791 0.25130
 O335 O 0.70882 0.68547 0.25531
 O336 O 0.74939 0.67679 0.22474
 O337 O 0.74508 0.68575 0.29333
 O338 O 0.77730 0.67635 0.25542
 O339 O 0.67623 0.71904 0.25312
 O340 O 0.66756 0.75757 0.22336
 O341 O 0.70853 0.75658 0.32495
 O342 O 0.74464 0.78667 0.33482
 O343 O 0.74884 0.79366 0.18222
 O344 O 0.71862 0.75540 0.17416
 O345 O 0.81974 0.75608 0.21776
 O346 O 0.82560 0.72452 0.25613
 O347 O 0.78549 0.82763 0.25304
 O348 O 0.74766 0.83633 0.28353
 Zr349 Zr 0.74836 0.80558 0.25270
 O350 O 0.72237 0.78250 0.27843
 Zr351 Zr 0.79695 0.75744 0.25450
 O352 O 0.77281 0.73188 0.28004
 Zr353 Zr 0.74951 0.75664 0.20493
 O354 O 0.72311 0.73148 0.22842
 Zr355 Zr 0.74601 0.75626 0.30354
 O356 O 0.77234 0.78216 0.28038
 Zr357 Zr 0.69838 0.75594 0.25424
 O358 O 0.72224 0.78131 0.22805
 Zr359 Zr 0.74651 0.70730 0.25576
 O360 O 0.77328 0.73040 0.23005
 O361 O 0.77455 0.78251 0.22794
 O362 O 0.72035 0.73026 0.28086
 C363 C 0.74702 0.81899 0.18982
 C364 C 0.81084 0.82011 0.25474
 C365 C 0.81261 0.75457 0.19230
 C366 C 0.74540 0.69384 0.31852
 C367 C 0.68334 0.75585 0.31681
 C368 C 0.68363 0.69370 0.25378
 H369 H 0.71078 0.79512 0.28941
 H370 H 0.71192 0.72010 0.21577
 H371 H 0.78642 0.79410 0.21612
 H372 H 0.78497 0.72070 0.29199
 H373 H 0.79139 0.77093 0.32740
 H374 H 0.82212 0.74799 0.30074
 H375 H 0.67319 0.74489 0.20844
 H376 H 0.70408 0.76850 0.17995
 H377 H 0.73533 0.80307 0.32711
 H378 H 0.76111 0.83060 0.29781
 H379 H 0.73432 0.68005 0.21136
 H380 H 0.76146 0.70999 0.18260
 H381 H 0.70203 0.82891 0.24101
 H382 H 0.67057 0.79973 0.26779
 H383 H 0.81960 0.71079 0.24229
 H384 H 0.79093 0.68090 0.26990
 O385 O 0.74814 0.17908 0.78656
 O386 O 0.72241 0.16978 0.74702
 O387 O 0.82349 0.21131 0.75170
 O388 O 0.83629 0.24652 0.72599
 O389 O 0.78597 0.25143 0.82189
 O390 O 0.74817 0.28030 0.82812
 O391 O 0.75633 0.28568 0.67599
 O392 O 0.78542 0.24914 0.66941
 O393 O 0.68265 0.25058 0.70775
 O394 O 0.67046 0.22325 0.74583
 O395 O 0.71656 0.32187 0.74292
 O396 O 0.75312 0.33140 0.77518
 O397 O 0.75498 0.31987 0.70790
 O398 O 0.78581 0.32738 0.74978
 O399 O 0.68228 0.29003 0.74330
 O400 O 0.67309 0.25030 0.77693
 O401 O 0.71663 0.25127 0.67555
 O402 O 0.75506 0.21615 0.67071
 O403 O 0.74761 0.21201 0.81989
 O404 O 0.71623 0.25168 0.82451
 O405 O 0.82132 0.24985 0.79125
 O406 O 0.82963 0.28194 0.75155
 O407 O 0.79040 0.17822 0.75075
 O408 O 0.75302 0.17141 0.71732
 Zr409 Zr 0.75297 0.20067 0.74959
 O410 O 0.72799 0.22422 0.72305
 Zr411 Zr 0.80163 0.24851 0.75227
 O412 O 0.77979 0.27328 0.72394
 Zr413 Zr 0.75039 0.24938 0.79757
 O414 O 0.72708 0.27597 0.77228
 Zr415 Zr 0.75349 0.24942 0.69901
 O416 O 0.77890 0.22419 0.72415
 Zr417 Zr 0.70330 0.25189 0.74551
 O418 O 0.72501 0.22510 0.77225
 Zr419 Zr 0.75296 0.29893 0.74610
 O420 O 0.77643 0.27561 0.77473
 O421 O 0.77719 0.22334 0.77667
 O422 O 0.72745 0.27646 0.71987
 C423 C 0.74627 0.18679 0.81177
 C424 C 0.81578 0.18603 0.75124
 C425 C 0.81173 0.25151 0.81593
 C426 C 0.75651 0.31116 0.68290
 C427 C 0.69107 0.25081 0.68275
 C428 C 0.69104 0.31501 0.74213
 H429 H 0.71663 0.21170 0.71172
 H430 H 0.71550 0.28801 0.78392
 H431 H 0.78813 0.21153 0.78924
 H432 H 0.79303 0.28382 0.71262
 H433 H 0.80030 0.23736 0.67696
 H434 H 0.83030 0.25363 0.70785
 H435 H 0.67438 0.26748 0.78781
 H436 H 0.70322 0.23705 0.81883
 H437 H 0.73772 0.20555 0.67215
 H438 H 0.76800 0.17674 0.70457
 H439 H 0.73946 0.32686 0.78957
 H440 H 0.75912 0.29601 0.82114
 H441 H 0.70615 0.17690 0.75707
 H442 H 0.67657 0.20693 0.73530
 H443 H 0.82466 0.29424 0.76703
 H444 H 0.79823 0.32471 0.73385
 O445 O 0.24646 0.81410 0.79334
 O446 O 0.27660 0.82187 0.75512
 O447 O 0.17437 0.78135 0.75173
 O448 O 0.16351 0.74555 0.72587
 O449 O 0.20691 0.74251 0.82557
 O450 O 0.24489 0.71145 0.83301
 O451 O 0.24589 0.70482 0.68267
 O452 O 0.21354 0.74243 0.67598
 O453 O 0.31663 0.74084 0.71603
 O454 O 0.32553 0.77222 0.75481
 O455 O 0.28257 0.67153 0.75157
 O456 O 0.24418 0.66296 0.78404
 O457 O 0.24432 0.67206 0.71604
 O458 O 0.21397 0.66387 0.75588
 O459 O 0.31629 0.70392 0.75346
 O460 O 0.32467 0.74371 0.78499
 O461 O 0.28340 0.74198 0.68297
 O462 O 0.25029 0.77251 0.67392
 O463 O 0.24673 0.78034 0.82576
 O464 O 0.27569 0.74162 0.83372
 O465 O 0.17409 0.74301 0.79208
 O466 O 0.16742 0.71139 0.75318
 O467 O 0.20710 0.81468 0.75422
 O468 O 0.24738 0.82308 0.72479
 Zr469 Zr 0.24459 0.79235 0.75560
 O470 O 0.27009 0.76845 0.72970
 Zr471 Zr 0.19611 0.74421 0.75485
 O472 O 0.21939 0.71844 0.72897
 Zr473 Zr 0.24430 0.74346 0.80348
 O474 O 0.26997 0.71766 0.77984
 Zr475 Zr 0.24623 0.74219 0.70493
 O476 O 0.22034 0.76863 0.72827
 Zr477 Zr 0.29454 0.74158 0.75344
 O478 O 0.27120 0.76769 0.77961
 Zr479 Zr 0.24553 0.69384 0.75326
 O480 O 0.21969 0.71728 0.77933
 O481 O 0.21880 0.76951 0.78090
 O482 O 0.27172 0.71602 0.72752
 C483 C 0.24769 0.80575 0.81850
 C484 C 0.18190 0.80669 0.75185
 C485 C 0.18165 0.74211 0.81745
 C486 C 0.24466 0.67960 0.69071
 C487 C 0.30871 0.74140 0.69074
 C488 C 0.30801 0.67882 0.75201
 H489 H 0.28134 0.78087 0.71813
 H490 H 0.28129 0.70611 0.79224
 H491 H 0.20706 0.78141 0.79261
 H492 H 0.20678 0.70743 0.71734
 H493 H 0.20158 0.75831 0.68061
 H494 H 0.17054 0.73738 0.70860
 H495 H 0.32134 0.72831 0.79790
 H496 H 0.29079 0.75363 0.82714
 H497 H 0.24043 0.78897 0.68063
 H498 H 0.23157 0.82055 0.71213
 H499 H 0.25932 0.66651 0.79724
 H500 H 0.23217 0.69705 0.82616
 H501 H 0.29130 0.81473 0.76738
 H502 H 0.32117 0.78607 0.74050
 H503 H 0.17240 0.69837 0.76810
 H504 H 0.20037 0.66783 0.74118
 O505 O 0.24822 0.32240 0.71254
 O506 O 0.21870 0.33062 0.75199
 O507 O 0.32146 0.29063 0.75287
 O508 O 0.33045 0.25541 0.78217
 O509 O 0.28942 0.24989 0.68089
 O510 O 0.25049 0.21992 0.67311
 O511 O 0.25039 0.21424 0.82313
 O512 O 0.28177 0.25289 0.82975
 O513 O 0.17870 0.25158 0.78951
 O514 O 0.17143 0.28361 0.74930
 O515 O 0.21115 0.18093 0.75258
 O516 O 0.25183 0.17271 0.72136
 O517 O 0.24828 0.18088 0.79042
 O518 O 0.27940 0.17134 0.75233
 O519 O 0.17879 0.21474 0.75205
 O520 O 0.16976 0.25294 0.72169
 O521 O 0.21178 0.24958 0.82264
 O522 O 0.24503 0.28080 0.83278
 O523 O 0.25085 0.28914 0.67964
 O524 O 0.22050 0.25108 0.67180
 O525 O 0.32193 0.25188 0.71467
 O526 O 0.32844 0.22051 0.75305
 O527 O 0.28786 0.32320 0.74985
 O528 O 0.25036 0.33242 0.78053
 Zr529 Zr 0.25076 0.30112 0.75023
 O530 O 0.22523 0.27791 0.77634
 Zr531 Zr 0.29942 0.25311 0.75154
 O532 O 0.27560 0.22718 0.77702
 Zr533 Zr 0.25160 0.25217 0.70235
 O534 O 0.22532 0.22706 0.72603
 Zr535 Zr 0.24902 0.25136 0.80092
 O536 O 0.27497 0.27769 0.77772
 Zr537 Zr 0.20097 0.25157 0.75221
 O538 O 0.22452 0.27687 0.72573
 Zr539 Zr 0.24901 0.20267 0.75292
 O540 O 0.27566 0.22596 0.72722
 O541 O 0.27672 0.27809 0.72520
 O542 O 0.22315 0.22556 0.77835
 C543 C 0.24885 0.31443 0.68729
 C544 C 0.31326 0.31582 0.75125
 C545 C 0.31463 0.25031 0.68927
 C546 C 0.24946 0.18889 0.81563
 C547 C 0.18650 0.25017 0.81480
 C548 C 0.18595 0.18932 0.75209
 H549 H 0.21393 0.29040 0.78779
 H550 H 0.21394 0.21575 0.71349
 H551 H 0.28845 0.28968 0.71323
 H552 H 0.28799 0.21598 0.78871
 H553 H 0.29337 0.26893 0.82481
 H554 H 0.32419 0.24433 0.79806
 H555 H 0.17512 0.24005 0.70686
 H556 H 0.20584 0.26387 0.67796
 H557 H 0.24450 0.29903 0.82382
 H558 H 0.26505 0.32788 0.79399
 H559 H 0.23617 0.17559 0.70859
 H560 H 0.26354 0.20566 0.67970
 H561 H 0.20449 0.32469 0.73859
 H562 H 0.17383 0.29583 0.76542
 H563 H 0.32239 0.20664 0.73938
 H564 H 0.29387 0.17646 0.76576
 O565 O 0.75347 0.67860 0.71086
 O566 O 0.78357 0.67144 0.74980
 O567 O 0.68112 0.71262 0.74723
 O568 O 0.67070 0.74870 0.77416
 O569 O 0.71699 0.74890 0.67537
 O570 O 0.75484 0.78002 0.66831
 O571 O 0.75223 0.79033 0.81843
 O572 O 0.71931 0.75416 0.82534
 O573 O 0.82294 0.75101 0.78781
 O574 O 0.83281 0.72034 0.74972
 O575 O 0.79108 0.82170 0.74870
 O576 O 0.75247 0.82946 0.71570
 O577 O 0.75225 0.82255 0.78447
 O578 O 0.72269 0.83045 0.74422
 O579 O 0.82389 0.78836 0.75127
 O580 O 0.83288 0.74855 0.71942
 O581 O 0.78932 0.75408 0.82021
 O582 O 0.75544 0.72244 0.82846
 O583 O 0.75641 0.71135 0.67749
 O584 O 0.78585 0.74994 0.66963
 O585 O 0.68266 0.75025 0.70722
 O586 O 0.67506 0.78287 0.74518
 O587 O 0.71438 0.67962 0.74914
 O588 O 0.75391 0.67119 0.77937
 Zr589 Zr 0.75186 0.70132 0.74790
 O590 O 0.77680 0.72539 0.77394
 Zr591 Zr 0.70349 0.74973 0.74549
 O592 O 0.72649 0.77592 0.77154
 Zr593 Zr 0.75346 0.74886 0.69871
 O594 O 0.77854 0.77499 0.72247
 Zr595 Zr 0.75251 0.75260 0.79714
 O596 O 0.72687 0.72593 0.77365
 Zr597 Zr 0.80192 0.75117 0.75005
 O598 O 0.77930 0.72472 0.72387
 Zr599 Zr 0.75360 0.79980 0.74766
 O600 O 0.72827 0.77588 0.72134
 O601 O 0.72710 0.72371 0.72112
 O602 O 0.77885 0.77779 0.77460
 C603 C 0.75574 0.68616 0.68555
 C604 C 0.68904 0.68738 0.74882
 C605 C 0.69141 0.74962 0.68221
 C606 C 0.75201 0.81541 0.80995
 C607 C 0.81475 0.75266 0.81289
 C608 C 0.81631 0.81369 0.75043
 H609 H 0.78761 0.71310 0.78612
 H610 H 0.79034 0.78608 0.71015
 H611 H 0.71565 0.71162 0.70933
 H612 H 0.71379 0.78743 0.78255
 H613 H 0.70676 0.73883 0.82051
 H614 H 0.67679 0.75901 0.79063
 H615 H 0.83072 0.76450 0.70691
 H616 H 0.80063 0.73789 0.67694
 H617 H 0.74337 0.70707 0.82284
 H618 H 0.73810 0.67431 0.79184
 H619 H 0.76787 0.82548 0.70296
 H620 H 0.74158 0.79441 0.67409
 H621 H 0.79799 0.67736 0.73666
 H622 H 0.82732 0.70599 0.76308
 H623 H 0.68102 0.79568 0.73047
 H624 H 0.70835 0.82639 0.75810
 O625 O 0.24526 0.68066 0.28935
 O626 O 0.21933 0.67154 0.24992
 O627 O 0.32059 0.71278 0.25479
 O628 O 0.33326 0.74761 0.22840
 O629 O 0.28355 0.75306 0.32465
 O630 O 0.24563 0.78167 0.33125
 O631 O 0.25346 0.78730 0.17894
 O632 O 0.28245 0.75070 0.17226
 O633 O 0.17985 0.75249 0.21090
 O634 O 0.16780 0.72499 0.24922
 O635 O 0.21395 0.82368 0.24739
 O636 O 0.25090 0.83329 0.27783
 O637 O 0.25219 0.82153 0.21081
 O638 O 0.28350 0.82869 0.25268
 O639 O 0.17977 0.79179 0.24609
 O640 O 0.17030 0.75247 0.27989
 O641 O 0.21362 0.75274 0.17852
 O642 O 0.25198 0.71793 0.17343
 O643 O 0.24503 0.71351 0.32277
 O644 O 0.21371 0.75324 0.32750
 O645 O 0.31872 0.75149 0.29381
 O646 O 0.32702 0.78329 0.25406
 O647 O 0.28738 0.67979 0.25331
 O648 O 0.24989 0.67301 0.22019
 Zr649 Zr 0.25004 0.70230 0.25242
 O650 O 0.22507 0.72592 0.22598
 Zr651 Zr 0.29884 0.75001 0.25498
 O652 O 0.27698 0.77485 0.22675
 Zr653 Zr 0.24784 0.75093 0.30051
 O654 O 0.22456 0.77760 0.27531
 Zr655 Zr 0.25054 0.75107 0.20190
 O656 O 0.27596 0.72575 0.22693
 Zr657 Zr 0.20062 0.75366 0.24855
 O658 O 0.22228 0.72679 0.27523
 Zr659 Zr 0.25035 0.80057 0.24906
 O660 O 0.27383 0.77715 0.27760
 O661 O 0.27444 0.72486 0.27947
 O662 O 0.22468 0.77824 0.22283
 C663 C 0.24351 0.68832 0.31458
 C664 C 0.31275 0.68756 0.25411
 C665 C 0.30926 0.75325 0.31852
 C666 C 0.25383 0.81278 0.18582
 C667 C 0.18810 0.75246 0.18585
 C668 C 0.18845 0.81681 0.24626
 H669 H 0.21363 0.71343 0.21469
 H670 H 0.21311 0.78964 0.28707
 H671 H 0.28539 0.71305 0.29202
 H672 H 0.29022 0.78536 0.21541
 H673 H 0.29729 0.73884 0.17976
 H674 H 0.32738 0.75528 0.21045
 H675 H 0.17189 0.76955 0.29088
 H676 H 0.20061 0.73873 0.32172
 H677 H 0.23488 0.70701 0.17528
 H678 H 0.26475 0.67836 0.20730
 H679 H 0.23862 0.82807 0.29321
 H680 H 0.25697 0.79724 0.32459
 H681 H 0.20312 0.67876 0.25999
 H682 H 0.17358 0.70889 0.23817
 H683 H 0.32215 0.79569 0.26950
 H684 H 0.29554 0.82634 0.23642
 O685 O 0.75102 0.31882 0.28933
 O686 O 0.78140 0.32566 0.25078
 O687 O 0.67764 0.28834 0.25025
 O688 O 0.66654 0.25388 0.22185
 O689 O 0.70981 0.24786 0.32192
 O690 O 0.74733 0.21615 0.32904
 O691 O 0.74643 0.20972 0.17876
 O692 O 0.71512 0.24825 0.17233
 O693 O 0.81852 0.24405 0.21147
 O694 O 0.82848 0.27518 0.25034
 O695 O 0.78303 0.17556 0.24708
 O696 O 0.74456 0.16821 0.28037
 O697 O 0.74410 0.17707 0.21222
 O698 O 0.71446 0.16945 0.25216
 O699 O 0.81753 0.20713 0.24871
 O700 O 0.82745 0.24640 0.28014
 O701 O 0.78509 0.24603 0.17863
 O702 O 0.75257 0.27722 0.16980
 O703 O 0.75117 0.28506 0.32186
 O704 O 0.77865 0.24545 0.32968
 O705 O 0.67681 0.25041 0.28866
 O706 O 0.66874 0.21881 0.25023
 O707 O 0.71163 0.32055 0.25076
 O708 O 0.75165 0.32808 0.22099
 Zr709 Zr 0.74844 0.29722 0.25163
 O710 O 0.77293 0.27270 0.22544
 Zr711 Zr 0.69856 0.25064 0.25136
 O712 O 0.72086 0.22415 0.22533
 Zr713 Zr 0.74718 0.24825 0.29961
 O714 O 0.77194 0.22189 0.27566
 Zr715 Zr 0.74809 0.24711 0.20094
 O716 O 0.72320 0.27434 0.22452
 Zr717 Zr 0.79681 0.24524 0.24903
 O718 O 0.77448 0.27183 0.27549
 Zr719 Zr 0.74656 0.19881 0.24933
 O720 O 0.72156 0.22293 0.27559
 O721 O 0.72237 0.27507 0.27724
 O722 O 0.77309 0.22028 0.22331
 C723 C 0.75252 0.31042 0.31445
 C724 C 0.68610 0.31336 0.25020
 C725 C 0.68450 0.24892 0.31394
 C726 C 0.74437 0.18458 0.18689
 C727 C 0.81045 0.24486 0.18625
 C728 C 0.80864 0.18227 0.24731
 H729 H 0.78439 0.28484 0.21378
 H730 H 0.78308 0.21002 0.28792
 H731 H 0.71122 0.28722 0.28923
 H732 H 0.70782 0.21346 0.21388
 H733 H 0.70356 0.26435 0.17720
 H734 H 0.67236 0.24336 0.20541
 H735 H 0.82376 0.23117 0.29316
 H736 H 0.79420 0.25672 0.32285
 H737 H 0.74353 0.29405 0.17674
 H738 H 0.73576 0.32586 0.20836
 H739 H 0.76050 0.17076 0.29285
 H740 H 0.73421 0.20207 0.32229
 H741 H 0.79574 0.31838 0.26338
 H742 H 0.82454 0.28900 0.23587
 H743 H 0.67363 0.20557 0.26497
 H744 H 0.70036 0.17430 0.23823
 C745 C 0.25980 0.10794 0.09415
 C746 C 0.24269 0.08470 0.09250
 C747 C 0.24380 0.06788 0.06917
 C748 C 0.26226 0.07374 0.04756
 C749 C 0.27848 0.09767 0.04994
 N750 N 0.27688 0.11377 0.07274
 C751 C 0.25900 0.12727 0.11771
 N752 N 0.26698 0.15375 0.11337
 C753 C 0.26680 0.17300 0.13364
 C754 C 0.25838 0.16601 0.16041
 C755 C 0.25059 0.13865 0.16558
 C756 C 0.25080 0.11923 0.14429
 H757 H 0.22959 0.05075 0.06769
 H758 H 0.29299 0.10329 0.03397
 H759 H 0.27322 0.19376 0.12871
 H760 H 0.24401 0.13235 0.18593
 H761 H 0.22797 0.07998 0.10854
 H762 H 0.24496 0.09821 0.14876
 C763 C 0.75584 0.60716 0.59754
 C764 C 0.73512 0.58723 0.59413
 C765 C 0.73491 0.57096 0.57041
 C766 C 0.75552 0.57419 0.55044
 C767 C 0.77575 0.59435 0.55459
 N768 N 0.77532 0.61021 0.57761
 C769 C 0.75618 0.62625 0.62120
 N770 N 0.76697 0.65182 0.61748
 C771 C 0.76747 0.67095 0.63784
 C772 C 0.75683 0.66474 0.66398
 C773 C 0.74628 0.63823 0.66858
 C774 C 0.74580 0.61895 0.64720
 H775 H 0.71858 0.55604 0.56746
 H776 H 0.79177 0.59759 0.53942
 H777 H 0.77608 0.69104 0.63350
 H778 H 0.73788 0.63261 0.68847
 H779 H 0.71878 0.58483 0.60909
 H780 H 0.73760 0.59860 0.65108
 C781 C 0.74315 0.90536 0.10860
 C782 C 0.76024 0.90686 0.08534
 C783 C 0.75861 0.92980 0.06800
 C784 C 0.73966 0.95115 0.07337
 C785 C 0.72320 0.94875 0.09716
 N786 N 0.72537 0.92639 0.11380
 C787 C 0.74466 0.88238 0.12857
 N788 N 0.73712 0.88729 0.15510
 C789 C 0.73774 0.86747 0.17482
 C790 C 0.74605 0.84055 0.16825
 C791 C 0.75355 0.83485 0.14089
 C792 C 0.75298 0.85570 0.12102
 H793 H 0.77299 0.93129 0.05102
 H794 H 0.70817 0.96441 0.10233
 H795 H 0.73156 0.87278 0.19556
 H796 H 0.76003 0.81436 0.13490
 H797 H 0.77541 0.89108 0.08108
 H798 H 0.75852 0.85081 0.10000
 C799 C 0.24612 0.40101 0.60654
 C800 C 0.26680 0.40489 0.58667
 C801 C 0.26591 0.42814 0.56972
 C802 C 0.24421 0.44712 0.57215
 C803 C 0.22392 0.44236 0.59214
 N804 N 0.22548 0.41989 0.60873
 C805 C 0.24696 0.37794 0.62636
 N806 N 0.23648 0.38198 0.65203
 C807 C 0.23678 0.36202 0.67163
 C808 C 0.24781 0.33595 0.66576
 C809 C 0.25823 0.33110 0.63923
 C810 C 0.25800 0.35209 0.61952
 H811 H 0.28235 0.43160 0.55503
 H812 H 0.20706 0.45674 0.59481
 H813 H 0.22828 0.36655 0.69174
 H814 H 0.26691 0.31125 0.63386
 H815 H 0.28397 0.39074 0.58491
 H816 H 0.26602 0.34799 0.59913
 C817 C 0.73796 0.09753 0.88894
 C818 C 0.71628 0.07837 0.88856
 C819 C 0.71754 0.05527 0.90552
 C820 C 0.74015 0.05134 0.92305
 C821 C 0.76111 0.07123 0.92340
 N822 N 0.75952 0.09360 0.90655
 C823 C 0.73844 0.12099 0.86954
 N824 N 0.75054 0.14520 0.87703
 C825 C 0.75248 0.16698 0.85941
 C826 C 0.74257 0.16467 0.83231
 C827 C 0.73005 0.13990 0.82431
 C828 C 0.72787 0.11815 0.84278
 H829 H 0.70098 0.04033 0.90488
 H830 H 0.77887 0.06872 0.93671
 H831 H 0.76249 0.18568 0.86626
 H832 H 0.72214 0.13723 0.80360
 H833 H 0.69856 0.08111 0.87524
 H834 H 0.71882 0.09901 0.83582
 C835 C 0.23600 0.59818 0.39071
 C836 C 0.21443 0.57888 0.39045
 C837 C 0.21626 0.55542 0.40686
 C838 C 0.23931 0.55127 0.42374
 C839 C 0.26013 0.57131 0.42404
 N840 N 0.25800 0.59401 0.40770
 C841 C 0.23598 0.62200 0.37174
 N842 N 0.24861 0.64595 0.37924
 C843 C 0.25037 0.66795 0.36188
 C844 C 0.23974 0.66614 0.33503
 C845 C 0.22659 0.64170 0.32705
 C846 C 0.22458 0.61972 0.34527
 H847 H 0.19979 0.54037 0.40628
 H848 H 0.27823 0.56863 0.43686
 H849 H 0.26087 0.68640 0.36869
 H850 H 0.21811 0.63943 0.30651
 H851 H 0.19636 0.58178 0.37764
 H852 H 0.21511 0.60081 0.33825
 C853 C 0.26086 0.88528 0.90576
 C854 C 0.28002 0.88062 0.92690
 C855 C 0.28173 0.89895 0.94883
 C856 C 0.26474 0.92246 0.94990
 C857 C 0.24643 0.92685 0.92768
 N858 N 0.24492 0.90839 0.90656
 C859 C 0.25705 0.86477 0.88348
 N860 N 0.25057 0.87306 0.85742
 C861 C 0.24735 0.85481 0.83629
 C862 C 0.25044 0.82636 0.84094
 C863 C 0.25651 0.81755 0.86783
 C864 C 0.25980 0.83655 0.88900
 H865 H 0.29666 0.89482 0.96495
 H866 H 0.23223 0.94407 0.92783
 H867 H 0.24241 0.86251 0.81594
 H868 H 0.25893 0.79589 0.87260
 H869 H 0.29358 0.86290 0.92660
 H870 H 0.26413 0.82911 0.90958
 C871 C 0.76279 0.38966 0.40186
 C872 C 0.78521 0.38977 0.42020
 C873 C 0.78504 0.40760 0.44267
 C874 C 0.76271 0.42543 0.44688
 C875 C 0.74102 0.42530 0.42768
 N876 N 0.74159 0.40765 0.40589
 C877 C 0.76120 0.36940 0.37920
 N878 N 0.74925 0.37652 0.35478
 C879 C 0.74671 0.35832 0.33355
 C880 C 0.75588 0.33104 0.33662
 C881 C 0.76799 0.32332 0.36173
 C882 C 0.77080 0.34240 0.38293
 H883 H 0.80211 0.40718 0.45710
 H884 H 0.72334 0.43864 0.43047
 H885 H 0.73704 0.36500 0.31458
 H886 H 0.77533 0.30249 0.36499
 H887 H 0.80260 0.37607 0.41735
 H888 H 0.77976 0.33583 0.40230
 C889 C 0.11371 0.24009 0.09068
 C890 C 0.11678 0.21984 0.07034
 C891 C 0.09790 0.21841 0.04877
 C892 C 0.07550 0.23684 0.04732
 C893 C 0.07291 0.25647 0.06859
 N894 N 0.09176 0.25754 0.08939
 C895 C 0.13438 0.24327 0.11288
 N896 N 0.12630 0.25142 0.13848
 C897 C 0.14452 0.25429 0.15968
 C898 C 0.17276 0.24915 0.15556
 C899 C 0.18147 0.24138 0.12910
 C900 C 0.16244 0.23839 0.10783
 H901 H 0.10072 0.20264 0.03323
 H902 H 0.05682 0.27192 0.06795
 H903 H 0.13694 0.26050 0.17970
 H904 H 0.20300 0.23720 0.12486
 H905 H 0.13363 0.20520 0.07104
 H906 H 0.16971 0.23261 0.08757
 C907 C 0.61116 0.74381 0.59507
 C908 C 0.61142 0.72260 0.57541
 C909 C 0.59257 0.72314 0.55373
 C910 C 0.57339 0.74463 0.55165
 C911 C 0.57332 0.76512 0.57204
 N912 N 0.59193 0.76418 0.59304
 C913 C 0.63198 0.74491 0.61729
 N914 N 0.62497 0.75515 0.64245
 C915 C 0.64345 0.75685 0.66354
 C916 C 0.67090 0.74842 0.65965
 C917 C 0.67856 0.73825 0.63371
 C918 C 0.65921 0.73637 0.61259
 H919 H 0.59319 0.70704 0.53830
 H920 H 0.55897 0.78217 0.57085
 H921 H 0.63676 0.76497 0.68318
 H922 H 0.69948 0.73146 0.62978
 H923 H 0.62608 0.70582 0.57670
 H924 H 0.66567 0.72879 0.59264
 C925 C 0.09298 0.74081 0.89596
 C926 C 0.09175 0.75825 0.91895
 C927 C 0.06830 0.75813 0.93556
 C928 C 0.04610 0.74030 0.92981
 C929 C 0.04815 0.72357 0.90619
 N930 N 0.07110 0.72426 0.89020
 C931 C 0.11663 0.74097 0.87681
 N932 N 0.11212 0.73405 0.85003
 C933 C 0.13255 0.73408 0.83095
 C934 C 0.15960 0.74119 0.83845
 C935 C 0.16491 0.74782 0.86610
 C936 C 0.14348 0.74781 0.88533
 H937 H 0.06717 0.77275 0.95237
 H938 H 0.03178 0.70946 0.90068
 H939 H 0.12756 0.72852 0.80993
 H940 H 0.18550 0.75332 0.87280
 H941 H 0.10820 0.77257 0.92354
 H942 H 0.14802 0.75278 0.90658
 C943 C 0.59548 0.24930 0.39182
 C944 C 0.59093 0.22819 0.41105
 C945 C 0.56734 0.22894 0.42749
 C946 C 0.54869 0.25094 0.42519
 C947 C 0.55384 0.27143 0.40555
 N948 N 0.57670 0.27005 0.38949
 C949 C 0.61922 0.24894 0.37285
 N950 N 0.61603 0.26031 0.34745
 C951 C 0.63662 0.26059 0.32857
 C952 C 0.66249 0.24920 0.33493
 C953 C 0.66654 0.23793 0.36124
 C954 C 0.64487 0.23759 0.38023
 H955 H 0.56356 0.21240 0.44197
 H956 H 0.53967 0.28850 0.40299
 H957 H 0.63273 0.26983 0.30865
 H958 H 0.68623 0.22904 0.36695
 H959 H 0.60496 0.21092 0.41285
 H960 H 0.64830 0.22891 0.40049
 C961 C 0.90194 0.75286 0.11428
 C962 C 0.90361 0.73484 0.09178
 C963 C 0.92684 0.73544 0.07482
 C964 C 0.94831 0.75438 0.07970
 C965 C 0.94596 0.77153 0.10299
 N966 N 0.92325 0.77037 0.11931
 C967 C 0.87829 0.75267 0.13350
 N968 N 0.88257 0.76072 0.16001
 C969 C 0.86203 0.76128 0.17898
 C970 C 0.83503 0.75376 0.17161
 C971 C 0.83001 0.74578 0.14426
 C972 C 0.85158 0.74510 0.12518
 H973 H 0.92837 0.72042 0.05840
 H974 H 0.96182 0.78641 0.10790
 H975 H 0.86683 0.76789 0.19973
 H976 H 0.80948 0.73996 0.13765
 H977 H 0.88766 0.71979 0.08779
 H978 H 0.84721 0.73923 0.10412
 C979 C 0.40394 0.24956 0.61145
 C980 C 0.40814 0.22876 0.59179
 C981 C 0.43154 0.22962 0.57506
 C982 C 0.45035 0.25143 0.57745
 C983 C 0.44553 0.27161 0.59752
 N984 N 0.42286 0.27012 0.61387
 C985 C 0.38029 0.24914 0.63060
 N986 N 0.38368 0.26001 0.65620
 C987 C 0.36308 0.26043 0.67510
 C988 C 0.33694 0.24983 0.66854
 C989 C 0.33275 0.23899 0.64206
 C990 C 0.35443 0.23843 0.62308
 H991 H 0.43506 0.21326 0.56031
 H992 H 0.45982 0.28851 0.60022
 H993 H 0.36711 0.26933 0.69514
 H994 H 0.31286 0.23073 0.63615
 H995 H 0.39398 0.21166 0.58987
 H996 H 0.35084 0.23017 0.60269
 C997 C 0.88643 0.25565 0.90816
 C998 C 0.88363 0.27489 0.92952
 C999 C 0.90139 0.27380 0.95206
 C1000 C 0.92254 0.25398 0.95336
 C1001 C 0.92455 0.23503 0.93144
 N1002 N 0.90683 0.23643 0.90970
 C1003 C 0.86718 0.25539 0.88448
 N1004 N 0.87605 0.24661 0.85933
 C1005 C 0.85904 0.24561 0.83696
 C1006 C 0.83121 0.25330 0.83940
 C1007 C 0.82172 0.26217 0.86523
 C1008 C 0.83953 0.26326 0.88768
 H1009 H 0.89899 0.28898 0.96825
 H1010 H 0.93953 0.21849 0.93203
 H1011 H 0.86714 0.23839 0.81749
 H1012 H 0.80042 0.26823 0.86818
 H1013 H 0.86804 0.29085 0.92880
 H1014 H 0.83147 0.26958 0.90748
 C1015 C 0.38433 0.75810 0.41021
 C1016 C 0.38292 0.77850 0.43068
 C1017 C 0.40041 0.77700 0.45345
 C1018 C 0.41943 0.75542 0.45577
 C1019 C 0.42054 0.73563 0.43473
 N1020 N 0.40325 0.73748 0.41269
 C1021 C 0.36512 0.75805 0.38654
 N1022 N 0.37344 0.74757 0.36185
 C1023 C 0.35631 0.74633 0.33961
 C1024 C 0.32889 0.75542 0.34176
 C1025 C 0.31997 0.76612 0.36709
 C1026 C 0.33795 0.76753 0.38940
 H1027 H 0.39908 0.79263 0.46932
 H1028 H 0.43488 0.71858 0.43602
 H1029 H 0.36392 0.73772 0.32051
 H1030 H 0.29899 0.77335 0.36973
 H1031 H 0.36855 0.79550 0.42913
 H1032 H 0.33034 0.77527 0.40887
 C1033 C 0.11034 0.10092 0.24753
 C1034 C 0.09150 0.09611 0.22606
 C1035 C 0.07489 0.07264 0.22679
 C1036 C 0.07654 0.05441 0.24916
 C1037 C 0.09562 0.05996 0.27016
 N1038 N 0.11195 0.08263 0.26874
 C1039 C 0.12975 0.12431 0.24694
 N1040 N 0.15522 0.12091 0.25825
 C1041 C 0.17449 0.14117 0.25807
 C1042 C 0.16847 0.16689 0.24629
 C1043 C 0.14210 0.17113 0.23508
 C1044 C 0.12273 0.14982 0.23520
 H1045 H 0.06099 0.06850 0.20980
 H1046 H 0.09776 0.04609 0.28750
 H1047 H 0.19448 0.13716 0.26721
 H1048 H 0.13665 0.19069 0.22582
 H1049 H 0.09029 0.10974 0.20845
 H1050 H 0.10247 0.15339 0.22649
 C1051 C 0.61031 0.59896 0.74857
 C1052 C 0.59029 0.59574 0.72786
 C1053 C 0.57396 0.57208 0.72751
 C1054 C 0.57714 0.55197 0.74802
 C1055 C 0.59739 0.55593 0.76827
 N1056 N 0.61335 0.57890 0.76795
 C1057 C 0.62943 0.62263 0.74896
 N1058 N 0.65526 0.61883 0.75927
 C1059 C 0.67435 0.63925 0.75974
 C1060 C 0.66782 0.66555 0.74961
 C1061 C 0.64106 0.67019 0.73953
 C1062 C 0.62184 0.64875 0.73904
 H1063 H 0.55907 0.56926 0.71109
 H1064 H 0.60067 0.54063 0.78418
 H1065 H 0.69465 0.63486 0.76798
 H1066 H 0.63517 0.69019 0.73156
 H1067 H 0.58790 0.61080 0.71159
 H1068 H 0.60130 0.65269 0.73123
 C1069 C 0.90474 0.10715 0.75393
 C1070 C 0.90516 0.08212 0.73950
 C1071 C 0.92893 0.06582 0.74000
 C1072 C 0.95237 0.07404 0.75515
 C1073 C 0.95096 0.09945 0.76907
 N1074 N 0.92767 0.11498 0.76810
 C1075 C 0.88089 0.12626 0.75309
 N1076 N 0.88556 0.15336 0.75838
 C1077 C 0.86517 0.17252 0.75790
 C1078 C 0.83786 0.16486 0.75195
 C1079 C 0.83237 0.13693 0.74685
 C1080 C 0.85381 0.11757 0.74735
 H1081 H 0.92932 0.04731 0.72757
 H1082 H 0.96816 0.10681 0.78124
 H1083 H 0.87043 0.19372 0.76230
 H1084 H 0.81160 0.13007 0.74237
 H1085 H 0.88782 0.07559 0.72708
 H1086 H 0.84905 0.09613 0.74369
 C1087 C 0.40166 0.60925 0.25610
 C1088 C 0.40529 0.58867 0.23611
 C1089 C 0.42924 0.57267 0.23650
 C1090 C 0.44923 0.57680 0.25702
 C1091 C 0.44483 0.59757 0.27655
 N1092 N 0.42158 0.61317 0.27551
 C1093 C 0.37781 0.62818 0.25564
 N1094 N 0.38132 0.65408 0.26566
 C1095 C 0.36080 0.67308 0.26551
 C1096 C 0.33466 0.66640 0.25498
 C1097 C 0.33026 0.63958 0.24518
 C1098 C 0.35184 0.62043 0.24533
 H1099 H 0.43236 0.55727 0.22067
 H1100 H 0.45998 0.60153 0.29247
 H1101 H 0.36499 0.69340 0.27368
 H1102 H 0.31034 0.63359 0.23704
 H1103 H 0.39035 0.58555 0.21982
 H1104 H 0.34811 0.59981 0.23775
 C1105 C 0.09552 0.88759 0.74031
 C1106 C 0.07279 0.88311 0.72298
 C1107 C 0.05081 0.90152 0.72324
 C1108 C 0.05135 0.92497 0.74025
 C1109 C 0.07530 0.92948 0.75616
 N1110 N 0.09633 0.91084 0.75597
 C1111 C 0.11767 0.86671 0.74292
 N1112 N 0.14391 0.87455 0.74930
 C1113 C 0.16484 0.85597 0.75225
 C1114 C 0.15976 0.82763 0.74907
 C1115 C 0.13272 0.81927 0.74296
 C1116 C 0.11177 0.83859 0.73994
 H1117 H 0.03329 0.89740 0.70998
 H1118 H 0.07656 0.94679 0.77015
 H1119 H 0.18532 0.86334 0.75717
 H1120 H 0.12763 0.79771 0.74048
 H1121 H 0.07178 0.86539 0.70951
 H1122 H 0.09105 0.83141 0.73586
 C1123 C 0.59993 0.39442 0.25165
 C1124 C 0.59539 0.41364 0.23049
 C1125 C 0.57195 0.43040 0.23137
 C1126 C 0.55357 0.42845 0.25357
 C1127 C 0.55897 0.40910 0.27430
 N1128 N 0.58155 0.39264 0.27272
 C1129 C 0.62294 0.37459 0.25081
 N1130 N 0.61883 0.34911 0.26165
 C1131 C 0.63869 0.32944 0.26156
 C1132 C 0.66477 0.33504 0.25042
 C1133 C 0.66977 0.36138 0.23964
 C1134 C 0.64879 0.38118 0.23957
 H1135 H 0.56795 0.44461 0.21463
 H1136 H 0.54502 0.40681 0.29154
 H1137 H 0.63412 0.30951 0.27044
 H1138 H 0.68968 0.36648 0.23096
 H1139 H 0.60915 0.41500 0.21301
 H1140 H 0.65287 0.40145 0.23125
 C1141 C 0.89181 0.90592 0.24718
 C1142 C 0.89367 0.92252 0.22358
 C1143 C 0.91161 0.94486 0.22343
 C1144 C 0.92779 0.95061 0.24662
 C1145 C 0.92602 0.93309 0.26954
 N1146 N 0.90827 0.91138 0.26928
 C1147 C 0.87105 0.88385 0.24890
 N1148 N 0.87721 0.85962 0.26171
 C1149 C 0.85850 0.83882 0.26384
 C1150 C 0.83173 0.84216 0.25323
 C1151 C 0.82499 0.86718 0.24040
 C1152 C 0.84454 0.88793 0.23810
 H1153 H 0.91247 0.95805 0.20544
 H1154 H 0.93812 0.93715 0.28785
 H1155 H 0.86442 0.81986 0.27400
 H1156 H 0.80464 0.87063 0.23180
 H1157 H 0.88111 0.91848 0.20557
 H1158 H 0.83881 0.90717 0.22835
 C1159 C 0.39328 0.40261 0.74234
 C1160 C 0.39253 0.42152 0.72046
 C1161 C 0.41020 0.44408 0.72068
 C1162 C 0.42880 0.44771 0.74246
 C1163 C 0.42975 0.42782 0.76342
 N1164 N 0.41212 0.40602 0.76290
 C1165 C 0.37279 0.38022 0.74422
 N1166 N 0.37995 0.35539 0.75523
 C1167 C 0.36151 0.33436 0.75769
 C1168 C 0.33399 0.33805 0.74932
 C1169 C 0.32627 0.36367 0.73834
 C1170 C 0.34551 0.38466 0.73571
 H1171 H 0.40903 0.45904 0.70415
 H1172 H 0.44383 0.43013 0.78058
 H1173 H 0.36826 0.31495 0.76637
 H1174 H 0.30533 0.36750 0.73150
 H1175 H 0.37817 0.41913 0.70353
 H1176 H 0.33890 0.40436 0.72758
 C1177 C 0.10669 0.24504 0.90206
 C1178 C 0.08556 0.26441 0.90589
 C1179 C 0.06878 0.26265 0.92919
 C1180 C 0.07243 0.24122 0.94844
 C1181 C 0.09416 0.22251 0.94378
 N1182 N 0.11043 0.22491 0.92118
 C1183 C 0.12624 0.24675 0.87883
 N1184 N 0.15236 0.23725 0.88269
 C1185 C 0.17175 0.23818 0.86259
 C1186 C 0.16520 0.24889 0.83651
 C1187 C 0.13821 0.25830 0.83182
 C1188 C 0.11870 0.25742 0.85298
 H1189 H 0.05365 0.27871 0.93266
 H1190 H 0.09805 0.20571 0.95794
 H1191 H 0.19220 0.23035 0.86699
 H1192 H 0.13230 0.26659 0.81195
 H1193 H 0.08271 0.28138 0.89171
 H1194 H 0.09793 0.26460 0.84900
 C1195 C 0.60305 0.75397 0.40384
 C1196 C 0.58239 0.73384 0.40621
 C1197 C 0.56594 0.73317 0.42981
 C1198 C 0.56970 0.75276 0.45072
 C1199 C 0.59042 0.77259 0.44745
 N1200 N 0.60646 0.77257 0.42455
 C1201 C 0.62259 0.75447 0.38051
 N1202 N 0.64842 0.76440 0.38503
 C1203 C 0.66790 0.76515 0.36501
 C1204 C 0.66179 0.75576 0.33834
 C1205 C 0.63508 0.74598 0.33296
 C1206 C 0.61545 0.74518 0.35403
 H1207 H 0.55061 0.71711 0.43202
 H1208 H 0.59409 0.78784 0.46330
 H1209 H 0.68813 0.77316 0.36999
 H1210 H 0.62951 0.73861 0.31265
 H1211 H 0.57963 0.71818 0.39060
 H1212 H 0.59492 0.73767 0.34952
 C1213 C 0.90118 0.75079 0.89403
 C1214 C 0.90479 0.77042 0.91492
 C1215 C 0.92779 0.76864 0.93225
 C1216 C 0.94689 0.74694 0.92936
 C1217 C 0.94252 0.72806 0.90778
 N1218 N 0.92023 0.73046 0.89102
 C1219 C 0.87825 0.75221 0.87404
 N1220 N 0.88243 0.74179 0.84839
 C1221 C 0.86254 0.74191 0.82872
 C1222 C 0.83628 0.75262 0.83448
 C1223 C 0.83127 0.76318 0.86093
 C1224 C 0.85227 0.76317 0.88075
 H1225 H 0.93113 0.78483 0.94723
 H1226 H 0.95662 0.71107 0.90445
 H1227 H 0.86724 0.73332 0.80869
 H1228 H 0.81127 0.77161 0.86619
 H1229 H 0.89066 0.78754 0.91722
 H1230 H 0.84802 0.77112 0.90113
 C1231 C 0.40087 0.25395 0.39236
 C1232 C 0.40486 0.27532 0.41147
 C1233 C 0.42820 0.27501 0.42843
 C1234 C 0.44714 0.25320 0.42677
 C1235 C 0.44227 0.23221 0.40756
 N1236 N 0.41973 0.23322 0.39094
 C1237 C 0.37789 0.25414 0.37234
 N1238 N 0.38204 0.24234 0.34728
 C1239 C 0.36225 0.24183 0.32748
 C1240 C 0.33618 0.25336 0.33248
 C1241 C 0.33116 0.26519 0.35838
 C1242 C 0.35203 0.26579 0.37833
 H1243 H 0.43175 0.29194 0.44251
 H1244 H 0.45662 0.21524 0.40549
 H1245 H 0.36691 0.23223 0.30790
 H1246 H 0.31130 0.27429 0.36305
 H1247 H 0.39075 0.29257 0.41260
 H1248 H 0.34783 0.27489 0.39823
 C1249 C 0.09782 0.75295 0.10896
 C1250 C 0.09447 0.77214 0.08754
 C1251 C 0.06999 0.77225 0.07228
 C1252 C 0.04911 0.75313 0.07810
 C1253 C 0.05321 0.73445 0.09970
 N1254 N 0.07703 0.73492 0.11443
 C1255 C 0.12229 0.75268 0.12718
 N1256 N 0.11921 0.74218 0.15294
 C1257 C 0.14008 0.74153 0.17150
 C1258 C 0.16623 0.75181 0.16460
 C1259 C 0.17030 0.76205 0.13788
 C1260 C 0.14830 0.76265 0.11910
 H1261 H 0.06724 0.78726 0.05599
 H1262 H 0.03750 0.71950 0.10483
 H1263 H 0.13611 0.73305 0.19173
 H1264 H 0.19020 0.77008 0.13176
 H1265 H 0.11010 0.78737 0.08308
 H1266 H 0.15176 0.77060 0.09858
 C1267 C 0.60078 0.25309 0.60606
 C1268 C 0.59546 0.27528 0.58824
 C1269 C 0.57095 0.27573 0.57302
 C1270 C 0.55212 0.25390 0.57512
 C1271 C 0.55812 0.23229 0.59328
 N1272 N 0.58185 0.23250 0.60818
 C1273 C 0.62529 0.25222 0.62420
 N1274 N 0.62306 0.23880 0.64866
 C1275 C 0.64406 0.23763 0.66710
 C1276 C 0.66939 0.25034 0.66135
 C1277 C 0.67264 0.26353 0.63586
 C1278 C 0.65054 0.26468 0.61724
 H1279 H 0.56663 0.29304 0.55961
 H1280 H 0.54391 0.21527 0.59562
 H1281 H 0.64083 0.22691 0.68639
 H1282 H 0.69190 0.27355 0.63071
 H1283 H 0.60955 0.29247 0.58668
 H1284 H 0.65325 0.27505 0.59770
 C1285 C 0.89075 0.24632 0.09930
 C1286 C 0.90860 0.22428 0.09358
 C1287 C 0.92559 0.22548 0.07038
 C1288 C 0.92536 0.24887 0.05340
 C1289 C 0.90735 0.27051 0.05999
 N1290 N 0.89056 0.26861 0.08229
 C1291 C 0.87084 0.24530 0.12226
 N1292 N 0.84570 0.25729 0.11880
 C1293 C 0.82616 0.25712 0.13881
 C1294 C 0.83163 0.24478 0.16440
 C1295 C 0.85759 0.23265 0.16863
 C1296 C 0.87718 0.23265 0.14752
 H1297 H 0.93854 0.20800 0.06539
 H1298 H 0.90629 0.28868 0.04710
 H1299 H 0.80652 0.26697 0.13482
 H1300 H 0.86260 0.22295 0.18811
 H1301 H 0.90867 0.20591 0.10622
 H1302 H 0.89716 0.22332 0.15108
 C1303 C 0.38842 0.74351 0.60320
 C1304 C 0.40737 0.72227 0.59786
 C1305 C 0.42404 0.72372 0.57442
 C1306 C 0.42234 0.74658 0.55679
 C1307 C 0.40325 0.76738 0.56300
 N1308 N 0.38687 0.76525 0.58555
 C1309 C 0.36879 0.74227 0.62640
 N1310 N 0.34336 0.75364 0.62298
 C1311 C 0.32401 0.75342 0.64315
 C1312 C 0.32993 0.74165 0.66891
 C1313 C 0.35620 0.73018 0.67314
 C1314 C 0.37563 0.73024 0.65184
 H1315 H 0.43797 0.70690 0.56979
 H1316 H 0.40111 0.78514 0.54967
 H1317 H 0.30412 0.76274 0.63912
 H1318 H 0.36155 0.72092 0.69274
 H1319 H 0.40858 0.70431 0.61102
 H1320 H 0.39584 0.72143 0.65541
 C1321 C 0.25579 0.10811 0.90234
 C1322 C 0.24019 0.08382 0.90377
 C1323 C 0.24290 0.06655 0.92669
 C1324 C 0.26144 0.07308 0.94811
 C1325 C 0.27654 0.09775 0.94564
 N1326 N 0.27331 0.11428 0.92332
 C1327 C 0.25304 0.12805 0.87943
 N1328 N 0.25923 0.15492 0.88439
 C1329 C 0.25782 0.17459 0.86454
 C1330 C 0.25019 0.16761 0.83751
 C1331 C 0.24384 0.13996 0.83183
 C1332 C 0.24513 0.12015 0.85272
 H1333 H 0.22957 0.04873 0.92816
 H1334 H 0.29125 0.10380 0.96131
 H1335 H 0.26308 0.19557 0.86988
 H1336 H 0.23792 0.13362 0.81126
 H1337 H 0.22529 0.07867 0.88799
 H1338 H 0.24064 0.09890 0.84778
 C1339 C 0.74827 0.61224 0.40446
 C1340 C 0.72906 0.59079 0.40736
 C1341 C 0.73107 0.57294 0.42988
 C1342 C 0.75245 0.57609 0.44912
 C1343 C 0.77123 0.59772 0.44540
 N1344 N 0.76860 0.61509 0.42362
 C1345 C 0.74647 0.63264 0.38191
 N1346 N 0.75558 0.65872 0.38662
 C1347 C 0.75500 0.67859 0.36691
 C1348 C 0.74528 0.67255 0.34034
 C1349 C 0.73598 0.64570 0.33492
 C1350 C 0.73638 0.62575 0.35567
 H1351 H 0.71572 0.55698 0.43257
 H1352 H 0.78778 0.60100 0.46003
 H1353 H 0.76259 0.69894 0.37192
 H1354 H 0.72835 0.64016 0.31469
 H1355 H 0.71216 0.58837 0.39297
 H1356 H 0.72949 0.60508 0.35101
 C1357 C 0.73514 0.09690 0.10799
 C1358 C 0.71262 0.07873 0.10764
 C1359 C 0.71304 0.05599 0.09018
 C1360 C 0.73568 0.05143 0.07292
 C1361 C 0.75747 0.07043 0.07326
 N1362 N 0.75668 0.09245 0.09058
 C1363 C 0.73650 0.11973 0.12803
 N1364 N 0.74900 0.14388 0.12107
 C1365 C 0.75138 0.16520 0.13919
 C1366 C 0.74142 0.16246 0.16620
 C1367 C 0.72873 0.13763 0.17371
 C1368 C 0.72615 0.11636 0.15475
 H1369 H 0.69589 0.04172 0.09037
 H1370 H 0.77534 0.06736 0.06027
 H1371 H 0.76149 0.18396 0.13269
 H1372 H 0.72073 0.13460 0.19431
 H1373 H 0.69495 0.08193 0.12087
 H1374 H 0.71679 0.09720 0.16123
 C1375 C 0.23874 0.59264 0.61048
 C1376 C 0.21716 0.57338 0.61051
 C1377 C 0.21791 0.55122 0.59234
 C1378 C 0.23995 0.54827 0.57397
 C1379 C 0.26077 0.56833 0.57398
 N1380 N 0.25967 0.58980 0.59200
 C1381 C 0.23969 0.61506 0.63104
 N1382 N 0.25032 0.64011 0.62416
 C1383 C 0.25188 0.66122 0.64260
 C1384 C 0.24293 0.65745 0.66986
 C1385 C 0.23230 0.63164 0.67732
 C1386 C 0.23057 0.61054 0.65806
 H1387 H 0.20149 0.53612 0.59282
 H1388 H 0.27818 0.56653 0.56016
 H1389 H 0.26044 0.68074 0.63610
 H1390 H 0.22517 0.62774 0.69809
 H1391 H 0.19995 0.57530 0.62457
 H1392 H 0.22270 0.59069 0.66446
 C1393 C 0.74834 0.90388 0.88863
 C1394 C 0.76748 0.90731 0.91011
 C1395 C 0.76579 0.93056 0.92698
 C1396 C 0.74480 0.95005 0.92283
 C1397 C 0.72613 0.94584 0.90114
 N1398 N 0.72844 0.92330 0.88473
 C1399 C 0.74988 0.88051 0.86920
 N1400 N 0.74104 0.88436 0.84286
 C1401 C 0.74170 0.86399 0.82371
 C1402 C 0.75131 0.83763 0.83077
 C1403 C 0.76017 0.83303 0.85794
 C1404 C 0.75964 0.85444 0.87717
 H1405 H 0.78102 0.93356 0.94306
 H1406 H 0.70984 0.96058 0.89713
 H1407 H 0.73443 0.86837 0.80307
 H1408 H 0.76771 0.81298 0.86424
 H1409 H 0.78407 0.89272 0.91333
 H1410 H 0.76630 0.85046 0.89809
 C1411 C 0.24956 0.40440 0.38630
 C1412 C 0.26951 0.40816 0.40698
 C1413 C 0.26787 0.43116 0.42422
 C1414 C 0.24611 0.45003 0.42131
 C1415 C 0.22671 0.44556 0.40030
 N1416 N 0.22898 0.42330 0.38348
 C1417 C 0.25089 0.38115 0.36667
 N1418 N 0.24139 0.38500 0.34054
 C1419 C 0.24188 0.36469 0.32129
 C1420 C 0.25195 0.33841 0.32802
 C1421 C 0.26145 0.33382 0.35498
 C1422 C 0.26113 0.35517 0.37430
 H1423 H 0.28369 0.43440 0.43966
 H1424 H 0.20984 0.45986 0.39719
 H1425 H 0.23411 0.36904 0.30082
 H1426 H 0.26937 0.31384 0.36102
 H1427 H 0.28661 0.39401 0.40930
 H1428 H 0.26834 0.35121 0.39504
 C1429 C 0.26498 0.88960 0.09627
 C1430 C 0.28720 0.88831 0.07777
 C1431 C 0.28749 0.90545 0.05477
 C1432 C 0.26585 0.92404 0.05021
 C1433 C 0.24438 0.92531 0.06954
 N1434 N 0.24446 0.90828 0.09184
 C1435 C 0.26286 0.87000 0.11948
 N1436 N 0.25132 0.87803 0.14380
 C1437 C 0.24852 0.86043 0.16552
 C1438 C 0.25704 0.83288 0.16312
 C1439 C 0.26867 0.82428 0.13810
 C1440 C 0.27168 0.84268 0.11639
 H1441 H 0.30441 0.90401 0.04030
 H1442 H 0.22728 0.93936 0.06654
 H1443 H 0.23924 0.86782 0.18440
 H1444 H 0.27557 0.80324 0.13526
 H1445 H 0.30411 0.87408 0.08093
 H1446 H 0.28024 0.83536 0.09715
 C1447 C 0.76407 0.38868 0.59355
 C1448 C 0.78597 0.38835 0.57464
 C1449 C 0.78541 0.40600 0.55201
 C1450 C 0.76323 0.42412 0.54822
 C1451 C 0.74198 0.42427 0.56785
 N1452 N 0.74294 0.40682 0.58979
 C1453 C 0.76303 0.36887 0.61667
 N1454 N 0.75156 0.37640 0.64117
 C1455 C 0.74966 0.35866 0.66286
 C1456 C 0.75909 0.33141 0.66026
 C1457 C 0.77071 0.32329 0.63507
 C1458 C 0.77281 0.34188 0.61338
 H1459 H 0.80216 0.40538 0.53729
 H1460 H 0.72444 0.43786 0.56540
 H1461 H 0.74035 0.36566 0.68186
 H1462 H 0.77823 0.30249 0.63210
 H1463 H 0.80333 0.37455 0.57725
 H1464 H 0.78138 0.33494 0.59400
 C1465 C 0.09691 0.11117 0.74482
 C1466 C 0.07379 0.11696 0.72841
 C1467 C 0.05130 0.09925 0.72872
 C1468 C 0.05170 0.07521 0.74488
 C1469 C 0.07588 0.06953 0.76010
 N1470 N 0.09747 0.08748 0.75981
 C1471 C 0.11977 0.13121 0.74708
 N1472 N 0.14624 0.12243 0.75083
 C1473 C 0.16782 0.14036 0.75271
 C1474 C 0.16321 0.16891 0.75101
 C1475 C 0.13592 0.17817 0.74783
 C1476 C 0.11433 0.15954 0.74592
 H1477 H 0.03361 0.10427 0.71599
 H1478 H 0.07702 0.05170 0.77343
 H1479 H 0.18848 0.13231 0.75543
 H1480 H 0.13111 0.19992 0.74666
 H1481 H 0.07293 0.13516 0.71554
 H1482 H 0.09351 0.16736 0.74393
 C1483 C 0.59554 0.61469 0.24959
 C1484 C 0.57627 0.61414 0.22796
 C1485 C 0.55383 0.59633 0.22938
 C1486 C 0.55065 0.57893 0.25214
 C1487 C 0.57064 0.57956 0.27306
 N1488 N 0.59238 0.59719 0.27129
 C1489 C 0.61835 0.63483 0.24977
 N1490 N 0.64313 0.62803 0.26123
 C1491 C 0.66455 0.64617 0.26237
 C1492 C 0.66132 0.67304 0.25214
 C1493 C 0.63584 0.68040 0.24053
 C1494 C 0.61444 0.66143 0.23923
 H1495 H 0.53877 0.59629 0.21287
 H1496 H 0.56865 0.56647 0.29100
 H1497 H 0.68381 0.63978 0.27172
 H1498 H 0.63240 0.70090 0.23238
 H1499 H 0.57844 0.62739 0.21016
 H1500 H 0.59481 0.66780 0.23066
 C1501 C 0.11180 0.90725 0.24520
 C1502 C 0.08841 0.90917 0.22828
 C1503 C 0.07177 0.93261 0.22968
 C1504 C 0.07791 0.95399 0.24833
 C1505 C 0.10213 0.95146 0.26418
 N1506 N 0.11806 0.92853 0.26230
 C1507 C 0.13061 0.88331 0.24445
 N1508 N 0.15737 0.88720 0.25184
 C1509 C 0.17602 0.86638 0.25229
 C1510 C 0.16803 0.83945 0.24539
 C1511 C 0.14043 0.83482 0.23794
 C1512 C 0.12167 0.85671 0.23735
 H1513 H 0.05447 0.93429 0.21563
 H1514 H 0.10801 0.96728 0.27875
 H1515 H 0.19701 0.87091 0.25839
 H1516 H 0.13338 0.81436 0.23255
 H1517 H 0.08340 0.89321 0.21356
 H1518 H 0.10038 0.85267 0.23200
 C1519 C 0.61435 0.40530 0.73727
 C1520 C 0.61483 0.42551 0.71656
 C1521 C 0.59736 0.44825 0.71848
 C1522 C 0.57928 0.45081 0.74079
 C1523 C 0.57902 0.42998 0.76083
 N1524 N 0.59629 0.40797 0.75858
 C1525 C 0.63382 0.38182 0.73696
 N1526 N 0.62617 0.35718 0.74802
 C1527 C 0.64368 0.33523 0.74920
 C1528 C 0.67084 0.33771 0.73954
 C1529 C 0.67905 0.36294 0.72811
 C1530 C 0.66066 0.38492 0.72670
 H1531 H 0.59802 0.46394 0.70263
 H1532 H 0.56541 0.43145 0.77842
 H1533 H 0.63662 0.31616 0.75833
 H1534 H 0.69980 0.36578 0.72040
 H1535 H 0.62851 0.42382 0.69905
 H1536 H 0.66774 0.40437 0.71845
 C1537 C 0.88850 0.09510 0.24124
 C1538 C 0.88934 0.07623 0.21936
 C1539 C 0.90802 0.05444 0.22023
 C1540 C 0.92589 0.05145 0.24274
 C1541 C 0.92488 0.07106 0.26392
 N1542 N 0.90649 0.09221 0.26263
 C1543 C 0.86786 0.11741 0.24194
 N1544 N 0.87457 0.14209 0.25343
 C1545 C 0.85617 0.16320 0.25512
 C1546 C 0.82907 0.15979 0.24545
 C1547 C 0.82169 0.13439 0.23386
 C1548 C 0.84101 0.11325 0.23194
 H1549 H 0.90823 0.03958 0.20358
 H1550 H 0.93818 0.06914 0.28176
 H1551 H 0.86260 0.18243 0.26437
 H1552 H 0.80102 0.13091 0.22611
 H1553 H 0.87566 0.07822 0.20182
 H1554 H 0.83479 0.09366 0.22331
 C1555 C 0.38900 0.59246 0.74561
 C1556 C 0.39058 0.57483 0.72276
 C1557 C 0.40922 0.55300 0.72301
 C1558 C 0.42637 0.54870 0.74586
 C1559 C 0.42465 0.56710 0.76809
 N1560 N 0.40628 0.58834 0.76740
 C1561 C 0.36812 0.61462 0.74676
 N1562 N 0.37439 0.63916 0.75883
 C1563 C 0.35575 0.66011 0.76052
 C1564 C 0.32887 0.65666 0.75022
 C1565 C 0.32199 0.63138 0.73805
 C1566 C 0.34152 0.61044 0.73617
 H1567 H 0.41000 0.53914 0.70554
 H1568 H 0.43741 0.56417 0.78618
 H1569 H 0.36179 0.67924 0.77023
 H1570 H 0.30152 0.62785 0.72980
 H1571 H 0.37745 0.57780 0.70494
 H1572 H 0.33567 0.59098 0.72699
 C1573 C 0.90448 0.89277 0.75304
 C1574 C 0.90596 0.91548 0.73517
 C1575 C 0.92961 0.93183 0.73507
 C1576 C 0.95156 0.92585 0.75295
 C1577 C 0.94926 0.90308 0.77053
 N1578 N 0.92619 0.88724 0.77001
 C1579 C 0.88089 0.87353 0.75271
 N1580 N 0.88538 0.84690 0.76020
 C1581 C 0.86510 0.82766 0.75979
 C1582 C 0.83824 0.83482 0.75159
 C1583 C 0.83294 0.86233 0.74440
 C1584 C 0.85420 0.88173 0.74487
 H1585 H 0.93103 0.94884 0.72071
 H1586 H 0.96593 0.89771 0.78441
 H1587 H 0.87006 0.80679 0.76589
 H1588 H 0.81248 0.86880 0.73814
 H1589 H 0.88957 0.92003 0.72071
 H1590 H 0.84966 0.90286 0.73943
 C1591 C 0.40563 0.39323 0.25302
 C1592 C 0.40893 0.41443 0.23363
 C1593 C 0.43229 0.43115 0.23486
 C1594 C 0.45205 0.42711 0.25561
 C1595 C 0.44809 0.40562 0.27447
 N1596 N 0.42538 0.38935 0.27264
 C1597 C 0.38214 0.37394 0.25184
 N1598 N 0.38592 0.34774 0.26101
 C1599 C 0.36558 0.32857 0.26017
 C1600 C 0.33939 0.33544 0.24982
 C1601 C 0.33479 0.36253 0.24085
 C1602 C 0.35614 0.38182 0.24171
 H1603 H 0.43512 0.44706 0.21948
 H1604 H 0.46311 0.40169 0.29052
 H1605 H 0.36992 0.30802 0.26767
 H1606 H 0.31485 0.36872 0.23286
 H1607 H 0.39416 0.41756 0.21719
 H1608 H 0.35218 0.40266 0.23485
   
