data_POSCAR
  _audit_creation_date              2014-09-24
  _audit_creation_method            'ToBaCCo'
  _symmetry_space_group_name_H-M    'P1'
  _symmetry_Int_Tables_number       1
  _symmetry_cell_setting            triclinic
  loop_
  _symmetry_equiv_pos_as_xyz
 x,y,z
_cell_length_a 32.8359
_cell_length_b 32.8682
_cell_length_c 33.6613
_cell_angle_alpha 89.314100
_cell_angle_beta 90.784300
_cell_angle_gamma 91.292000
loop_
  _atom_site_label
  _atom_site_type_symbol
  _atom_site_fract_x
  _atom_site_fract_y
  _atom_site_fract_z
C1 C 0.41178 0.01200 0.29528
 C2 C 0.38474 0.04896 0.29226
 C3 C 0.36070 0.05027 0.25930
 C4 C 0.36518 0.01309 0.23213
 C5 C 0.38244 -0.02446 0.29280
 C6 C 0.35784 -0.02431 0.25991
 C7 C 0.43598 0.01217 0.25690
 C8 C 0.41145 0.01247 0.22380
 H9 H 0.38508 0.07271 0.31432
 H10 H 0.34547 0.01346 0.20507
 H11 H 0.38239 -0.04896 0.31461
 H12 H 0.46884 0.01059 0.25602
 C13 C 0.09152 -0.00342 0.78740
 C14 C 0.11984 -0.03921 0.78492
 C15 C 0.14306 -0.03966 0.75215
 C16 C 0.13629 -0.00283 0.72386
 C17 C 0.11909 0.03390 0.78403
 C18 C 0.14278 0.03489 0.75122
 C19 C 0.06648 -0.00430 0.75160
 C20 C 0.08949 -0.00443 0.71553
 H21 H 0.12121 -0.06284 0.80760
 H22 H 0.15538 -0.00228 0.69688
 H23 H 0.11870 0.05820 0.80547
 H24 H 0.03424 -0.01246 0.75218
 C25 C 0.59636 0.49220 0.29129
 C26 C 0.62311 0.45514 0.29051
 C27 C 0.64876 0.45401 0.25957
 C28 C 0.64582 0.49167 0.23153
 C29 C 0.62596 0.52840 0.29059
 C30 C 0.65179 0.52884 0.25939
 C31 C 0.57391 0.49291 0.25100
 C32 C 0.60001 0.49285 0.21953
 H33 H 0.62144 0.43107 0.31275
 H34 H 0.66691 0.49156 0.20604
 H35 H 0.62429 0.55314 0.31143
 H36 H 0.54114 0.49442 0.24777
 C37 C 0.91287 0.51320 0.78825
 C38 C 0.88718 0.55128 0.78580
 C39 C 0.86161 0.55284 0.75385
 C40 C 0.86385 0.51519 0.72692
 C41 C 0.88204 0.47795 0.78739
 C42 C 0.85605 0.47867 0.75569
 C43 C 0.93548 0.51195 0.74905
 C44 C 0.90982 0.51295 0.71682
 H45 H 0.88851 0.57478 0.80811
 H46 H 0.84307 0.51587 0.70064
 H47 H 0.88165 0.45394 0.80971
 H48 H 0.96825 0.51005 0.74701
 C49 C 0.29348 0.39458 0.99790
 C50 C 0.28872 0.36265 1.03101
 C51 C 0.25429 0.33871 1.02695
 C52 C 0.22849 0.34808 0.98911
 C53 C 0.29240 0.37050 0.95970
 C54 C 0.25912 0.34604 0.95475
 C55 C 0.25380 0.41799 0.99758
 C56 C 0.21985 0.39396 0.99271
 H57 H 0.30683 0.36322 1.05813
 H58 H 0.20082 0.32838 0.98544
 H59 H 0.31556 0.37398 0.93721
 H60 H 0.25253 0.45034 1.00296
 C61 C 0.78791 0.10915 0.99574
 C62 C 0.78575 0.14208 0.96320
 C63 C 0.75487 0.16862 0.96781
 C64 C 0.72868 0.15960 1.00531
 C65 C 0.79033 0.13240 1.03445
 C66 C 0.76011 0.15878 1.03995
 C67 C 0.74832 0.08813 0.99588
 C68 C 0.71440 0.11413 1.00189
 H69 H 0.80358 0.14145 0.93640
 H70 H 0.70350 0.18111 1.00933
 H71 H 0.81292 0.12615 1.05738
 H72 H 0.74556 0.05536 1.00012
 C73 C 0.29186 0.61150 0.49749
 C74 C 0.28856 0.64326 0.46402
 C75 C 0.25530 0.66721 0.46676
 C76 C 0.22843 0.65748 0.50360
 C77 C 0.29128 0.63570 0.53544
 C78 C 0.25878 0.65972 0.53910
 C79 C 0.25112 0.58759 0.49680
 C80 C 0.21786 0.61138 0.50058
 H81 H 0.30757 0.64342 0.43799
 H82 H 0.20151 0.67705 0.50628
 H83 H 0.31399 0.63240 0.55887
 H84 H 0.24875 0.55509 0.49212
 C85 C 0.79396 0.88721 0.49485
 C86 C 0.78694 0.85593 0.52816
 C87 C 0.74948 0.83700 0.52611
 C88 C 0.72309 0.85020 0.48989
 C89 C 0.78732 0.86368 0.45664
 C90 C 0.75070 0.84422 0.45372
 C91 C 0.75790 0.91601 0.49708
 C92 C 0.72084 0.89671 0.49430
 H93 H 0.80669 0.85358 0.55408
 H94 H 0.69299 0.83425 0.48780
 H95 H 0.80869 0.86494 0.43239
 H96 H 0.76138 0.94835 0.50227
 C97 C -0.00969 0.28824 0.40630
 C98 C 0.02762 0.28769 0.37966
 C99 C 0.03154 0.25200 0.36009
 C100 C -0.00165 0.22038 0.36895
 C101 C -0.04488 0.27948 0.38087
 C102 C -0.04127 0.24243 0.35950
 C103 C -0.00569 0.25145 0.43399
 C104 C -0.00137 0.21614 0.41452
 H105 H 0.04892 0.31317 0.37692
 H106 H 0.00170 0.19144 0.35272
 H107 H -0.07369 0.29474 0.38370
 H108 H -0.00716 0.25308 0.46606
 C109 C 0.00305 0.77574 0.07682
 C110 C -0.03420 0.77393 0.10289
 C111 C -0.03628 0.74035 0.12679
 C112 C -0.00133 0.71116 0.12185
 C113 C 0.03920 0.77155 0.10507
 C114 C 0.03643 0.73808 0.12875
 C115 C 0.00133 0.73666 0.05308
 C116 C -0.00100 0.70296 0.07693
 H117 H -0.05650 0.79773 0.10261
 H118 H -0.00299 0.68371 0.14137
 H119 H 0.06464 0.79309 0.10638
 H120 H 0.00307 0.73552 0.02102
 C121 C 0.49868 0.27841 0.58292
 C122 C 0.46700 0.28091 0.61506
 C123 C 0.46519 0.24769 0.63944
 C124 C 0.49562 0.21496 0.62944
 C125 C 0.53865 0.27064 0.60471
 C126 C 0.53679 0.23755 0.62904
 C127 C 0.48852 0.23943 0.56069
 C128 C 0.48722 0.20628 0.58526
 H129 H 0.44603 0.30582 0.61633
 H130 H 0.49451 0.18795 0.64955
 H131 H 0.56537 0.29046 0.60264
 H132 H 0.48708 0.23746 0.52861
 C133 C 0.50150 0.77626 0.92047
 C134 C 0.52449 0.78356 0.88160
 C135 C 0.51945 0.75313 0.85458
 C136 C 0.49002 0.71947 0.86832
 C137 C 0.45700 0.76972 0.90827
 C138 C 0.45143 0.74082 0.88056
 C139 C 0.51524 0.73749 0.93587
 C140 C 0.50902 0.70543 0.90784
 H141 H 0.54794 0.80713 0.87901
 H142 H 0.48468 0.69488 0.84635
 H143 H 0.43278 0.78929 0.91734
 H144 H 0.53441 0.73450 0.96225
 C145 C -0.23760 0.65941 0.95599
 C146 C -0.19922 0.63422 0.95842
 C147 C -0.19745 0.60858 0.99017
 C148 C -0.23510 0.61012 1.01702
 C149 C -0.27257 0.62816 0.95657
 C150 C -0.27151 0.60219 0.98831
 C151 C -0.23923 0.68166 0.99549
 C152 C -0.23812 0.65570 1.02751
 H153 H -0.17566 0.63589 0.93620
 H154 H -0.23419 0.58919 1.04314
 H155 H -0.29723 0.62824 0.93488
 H156 H -0.24178 0.71432 0.99783
 C157 C -0.25131 0.33755 0.46471
 C158 C -0.28950 0.36289 0.46621
 C159 C -0.29146 0.38746 0.49800
 C160 C -0.25414 0.38471 0.52626
 C161 C -0.21635 0.36803 0.46687
 C162 C -0.21716 0.39312 0.49847
 C163 C -0.24988 0.31400 0.50131
 C164 C -0.25266 0.33833 0.53638
 H165 H -0.31319 0.36166 0.44349
 H166 H -0.25500 0.40484 0.55247
 H167 H -0.19203 0.36862 0.44542
 H168 H -0.25645 0.28145 0.50194
 C169 C 0.24687 -0.15639 -0.03846
 C170 C 0.21164 -0.12733 -0.03622
 C171 C 0.21083 -0.10481 -0.00296
 C172 C 0.24707 -0.11289 0.02598
 C173 C 0.28474 -0.12982 -0.03377
 C174 C 0.28574 -0.10682 -0.00049
 C175 C 0.24464 -0.18205 -0.00319
 C176 C 0.24419 -0.15981 0.03335
 H177 H 0.18837 -0.12527 -0.05927
 H178 H 0.24747 -0.09436 0.05335
 H179 H 0.30948 -0.13048 -0.05469
 H180 H 0.23593 -0.21410 -0.00460
 C181 C 0.26596 1.16364 0.45860
 C182 C 0.30181 1.13510 0.46198
 C183 C 0.30139 1.11036 0.49446
 C184 C 0.26379 1.11591 0.52083
 C185 C 0.22831 1.13569 0.45965
 C186 C 0.22679 1.11050 0.49200
 C187 C 0.26619 1.18713 0.49748
 C188 C 0.26482 1.16205 0.53012
 H189 H 0.32595 1.13473 0.44037
 H190 H 0.26275 1.09570 0.54749
 H191 H 0.20444 1.13674 0.43717
 H192 H 0.26605 1.22000 0.49897
 C193 C 0.13302 0.54347 0.25221
 C194 C 0.10511 0.53492 0.21642
 C195 C 0.08714 0.49702 0.21769
 C196 C 0.09810 0.47148 0.25505
 C197 C 0.10608 0.53651 0.28820
 C198 C 0.08757 0.49926 0.28985
 C199 C 0.16316 0.50842 0.25315
 C200 C 0.14500 0.47082 0.25490
 H201 H 0.10321 0.55479 0.19061
 H202 H 0.08311 0.44087 0.25612
 H203 H 0.10470 0.55795 0.31231
 H204 H 0.19574 0.51292 0.25011
 C205 C -0.14493 1.03037 0.25397
 C206 C -0.11275 1.02958 0.28728
 C207 C -0.08458 1.00022 0.28306
 C208 C -0.09132 0.97382 0.24546
 C209 C -0.12059 1.03421 0.21587
 C210 C -0.09271 1.00512 0.21098
 C211 C -0.16404 0.99003 0.25304
 C212 C -0.13614 0.95764 0.24759
 H213 H -0.11454 1.04752 0.31394
 H214 H -0.06853 0.94970 0.24201
 H215 H -0.12703 1.05676 0.19301
 H216 H -0.19658 0.98570 0.24783
 C217 C 0.36188 0.54231 -0.24815
 C218 C 0.39246 0.53876 -0.21361
 C219 C 0.41727 0.50619 -0.21632
 C220 C 0.40934 0.48005 -0.25396
 C221 C 0.38761 0.54322 -0.28511
 C222 C 0.41226 0.51118 -0.28867
 C223 C 0.33871 0.50132 -0.24944
 C224 C 0.36332 0.46872 -0.25290
 H225 H 0.39141 0.55714 -0.18718
 H226 H 0.42950 0.45357 -0.25653
 H227 H 0.38440 0.56612 -0.30831
 H228 H 0.30604 0.49823 -0.24605
 C229 C 0.64089 0.04449 -0.24490
 C230 C 0.60665 0.03875 -0.27584
 C231 C 0.58545 0.00260 -0.27177
 C232 C 0.59927 -0.02343 -0.23532
 C233 C 0.62035 0.04055 -0.20516
 C234 C 0.59840 0.00595 -0.19964
 C235 C 0.66676 0.00648 -0.24807
 C236 C 0.64523 -0.02909 -0.24274
 H237 H 0.60470 0.05722 -0.30262
 H238 H 0.58153 -0.05226 -0.23108
 H239 H 0.62407 0.06324 -0.18219
 H240 H 0.69876 0.00754 -0.25543
 C241 C 0.02514 0.24386 0.82593
 C242 C 0.02865 0.27025 0.86297
 C243 C -0.00407 0.26706 0.88743
 C244 C -0.03663 0.23655 0.87294
 C245 C 0.01773 0.20063 0.84128
 C246 C -0.01415 0.19723 0.86607
 C247 C -0.01210 0.25573 0.80582
 C248 C -0.04692 0.25195 0.83085
 H249 H 0.05259 0.29320 0.86644
 H250 H -0.06325 0.23299 0.89284
 H251 H 0.03811 0.17583 0.83610
 H252 H -0.01230 0.27340 0.77834
 C253 C 0.53426 0.25703 0.15970
 C254 C 0.53497 0.22064 0.13258
 C255 C 0.50111 0.21650 0.10917
 C256 C 0.46966 0.24935 0.11492
 C257 C 0.52756 0.29351 0.13277
 C258 C 0.49396 0.28917 0.10916
 C259 C 0.49552 0.25192 0.18348
 C260 C 0.46176 0.24812 0.15999
 H261 H 0.55961 0.19927 0.13319
 H262 H 0.44205 0.24632 0.09567
 H263 H 0.54780 0.31998 0.13179
 H264 H 0.49446 0.25396 0.21553
 C265 C 0.02865 0.75340 0.66821
 C266 C 0.02844 0.71754 0.64033
 C267 C -0.00499 0.71534 0.61616
 C268 C -0.03551 0.74901 0.62248
 C269 C 0.02341 0.79070 0.64173
 C270 C -0.00987 0.78804 0.61766
 C271 C -0.01054 0.74912 0.69148
 C272 C -0.04402 0.74690 0.66733
 H273 H 0.05270 0.69574 0.64023
 H274 H -0.06284 0.74732 0.60272
 H275 H 0.04424 0.81674 0.64172
 H276 H -0.01198 0.75000 0.72357
 C277 C 0.53604 0.74772 0.33314
 C278 C 0.53398 0.78053 0.36455
 C279 C 0.49846 0.77935 0.38525
 C280 C 0.46849 0.74558 0.37228
 C281 C 0.52853 0.70769 0.35525
 C282 C 0.49323 0.70686 0.37572
 C283 C 0.49871 0.75328 0.30657
 C284 C 0.46358 0.75222 0.32715
 H285 H 0.55803 0.80317 0.36900
 H286 H 0.43965 0.74439 0.38915
 H287 H 0.54956 0.68276 0.35567
 H288 H 0.49982 0.75676 0.27457
 Zr289 Zr 0.03371 -0.02468 1.05702
 O290 O 0.07076 -0.00125 1.10374
 O291 O 0.02734 -0.08617 1.07236
 O292 O 0.00321 -0.02850 1.11242
 O293 O 0.11291 -0.03382 0.99114
 O294 O -0.05804 0.00008 1.09826
 O295 O 0.09393 -0.04769 1.05489
 O296 O -0.01184 -0.11321 1.02229
 O297 O -0.02705 -0.03885 1.04129
 O298 O 0.03455 -0.05212 1.00126
 O299 O 0.00316 0.03101 1.05655
 O300 O 0.06336 0.01785 1.01906
 Zr301 Zr -0.02935 0.03180 0.94424
 Zr302 Zr -0.05666 0.01685 1.03802
 Zr303 Zr 0.06100 -0.00952 0.96305
 Zr304 Zr -0.02569 -0.06411 0.98470
 O305 O 0.11195 0.02855 0.94979
 O306 O -0.08187 -0.08927 1.00480
 O307 O 0.00138 -0.02383 0.94371
 O308 O -0.05851 -0.01038 0.98219
 O309 O -0.03068 0.06016 0.99951
 O310 O 0.03129 0.04565 0.96004
 C311 C 0.00887 -0.11580 1.05480
 C312 C 0.11974 -0.04863 1.02621
 C313 C -0.03235 -0.01644 1.12243
 O314 O -0.10988 -0.01929 1.04732
 O315 O -0.10656 0.04628 1.01111
 O316 O -0.08723 0.05881 0.94726
 C317 C -0.11260 0.06127 0.97600
 O318 O 0.06953 0.08301 1.06525
 Zr319 Zr 0.02991 0.07176 1.01593
 O320 O -0.02358 0.09289 0.92841
 O321 O -0.07141 0.06778 1.07247
 O322 O 0.00178 0.11537 1.05180
 O323 O 0.08515 0.09930 0.99611
 O324 O 0.01437 0.12123 0.97858
 C325 C -0.00558 0.12311 0.94551
 O326 O -0.06896 0.00865 0.89935
 O327 O 0.07895 -0.06195 0.93240
 O328 O -0.00106 0.03230 0.88809
 O329 O 0.05856 0.00019 0.90135
 O330 O 0.00100 -0.10948 0.94982
 O331 O -0.06169 -0.07576 0.93294
 C332 C 0.03288 0.01711 0.87744
 H333 H 0.05025 -0.07746 1.00093
 H334 H -0.08686 -0.01626 0.97321
 H335 H 0.04511 0.06406 0.94075
 H336 H 0.00392 0.04346 1.08319
 H337 H -0.08182 -0.11888 0.99958
 H338 H -0.12743 -0.00377 1.06513
 H339 H -0.09883 0.06218 1.08349
 H340 H 0.01613 0.14184 1.04731
 H341 H -0.01463 -0.13525 0.95424
 H342 H 0.10589 -0.05553 0.92064
 H343 H 0.12906 0.01318 0.93146
 H344 H 0.08407 0.12875 1.00189
 H345 H -0.07321 -0.10383 0.93436
 H346 H -0.07541 0.03167 0.88117
 H347 H 0.07738 -0.02447 1.12160
 H348 H 0.07489 0.11267 1.06754
 Zr349 Zr 0.53719 0.47592 0.55859
 O350 O 0.57504 0.49847 0.60514
 O351 O 0.52937 0.41484 0.57413
 O352 O 0.50714 0.47246 0.61408
 O353 O 0.61471 0.46339 0.49180
 O354 O 0.44709 0.50341 0.60011
 O355 O 0.59662 0.45150 0.55614
 O356 O 0.48766 0.38918 0.52526
 O357 O 0.47582 0.46415 0.54342
 O358 O 0.53625 0.44810 0.50296
 O359 O 0.50896 0.53275 0.55844
 O360 O 0.56821 0.51684 0.52021
 Zr361 Zr 0.47546 0.53529 0.44614
 Zr362 Zr 0.44861 0.52101 0.54017
 Zr363 Zr 0.56369 0.48952 0.46429
 Zr364 Zr 0.47550 0.43859 0.48700
 O365 O 0.61601 0.52520 0.44991
 O366 O 0.41848 0.41606 0.50764
 O367 O 0.50338 0.47800 0.44563
 O368 O 0.44524 0.49392 0.48435
 O369 O 0.47601 0.56346 0.50160
 O370 O 0.53676 0.54610 0.46154
 C371 C 0.50911 0.38594 0.55734
 C372 C 0.62169 0.44919 0.52702
 C373 C 0.47209 0.48567 0.62413
 O374 O 0.39395 0.48727 0.55000
 O375 O 0.39924 0.55162 0.51400
 O376 O 0.41809 0.56342 0.44990
 C377 C 0.39298 0.56627 0.47884
 O378 O 0.57683 0.58174 0.56728
 Zr379 Zr 0.53725 0.57209 0.51760
 O380 O 0.48350 0.59688 0.43122
 O381 O 0.43648 0.57262 0.57471
 O382 O 0.51078 0.61751 0.55256
 O383 O 0.59426 0.59616 0.49845
 O384 O 0.52593 0.62190 0.47977
 C385 C 0.50481 0.62550 0.44765
 O386 O 0.43478 0.51460 0.40100
 O387 O 0.57897 0.43606 0.43381
 O388 O 0.50343 0.53418 0.38965
 O389 O 0.56085 0.49837 0.40272
 O390 O 0.50033 0.39229 0.45193
 O391 O 0.43826 0.42749 0.43594
 C392 C 0.53621 0.51668 0.37885
 H393 H 0.55094 0.42215 0.50259
 H394 H 0.41664 0.48906 0.47562
 H395 H 0.55131 0.56371 0.44207
 H396 H 0.51033 0.54514 0.58510
 H397 H 0.41739 0.38633 0.50308
 H398 H 0.37755 0.50324 0.56849
 H399 H 0.40925 0.56790 0.58646
 H400 H 0.52656 0.64319 0.54818
 H401 H 0.48450 0.36682 0.45725
 H402 H 0.60606 0.44112 0.42183
 H403 H 0.63213 0.50890 0.43149
 H404 H 0.59514 0.62563 0.50442
 H405 H 0.42650 0.39952 0.43749
 H406 H 0.42940 0.53816 0.38313
 H407 H 0.58129 0.47508 0.62293
 H408 H 0.58317 0.61120 0.56978
 Zr409 Zr 0.46367 1.00711 0.56492
 O410 O 0.42427 0.97798 0.60607
 O411 O 0.46840 1.06647 0.58670
 O412 O 0.49259 1.00781 0.62152
 O413 O 0.39084 1.02929 0.49311
 O414 O 0.55271 0.97582 0.61241
 O415 O 0.40464 1.03325 0.55950
 O416 O 0.51380 1.09687 0.54435
 O417 O 0.52576 1.02042 0.55629
 O418 O 0.46806 1.04147 0.51248
 O419 O 0.49247 0.95040 0.56191
 O420 O 0.43588 0.97043 0.52060
 Zr421 Zr 0.53297 0.96345 0.45327
 Zr422 Zr 0.55399 0.96430 0.55070
 Zr423 Zr 0.44313 1.00502 0.46837
 Zr424 Zr 0.52960 1.05302 0.50306
 O425 O 0.39160 0.97089 0.44835
 O426 O 0.58458 1.07272 0.53127
 O427 O 0.50415 1.01984 0.45575
 O428 O 0.56063 0.99869 0.49818
 O429 O 0.52985 0.92767 0.50520
 O430 O 0.47126 0.94950 0.46214
 C431 C 0.48929 1.09720 0.57380
 C432 C 0.38188 1.04015 0.52847
 C433 C 0.52734 0.99483 0.63403
 O434 O 0.60811 0.99585 0.56813
 O435 O 0.60524 0.93729 0.52504
 O436 O 0.58971 0.93454 0.45878
 C437 C 0.61331 0.92769 0.48895
 O438 O 0.42573 0.89812 0.55913
 Zr439 Zr 0.46809 0.91584 0.51460
 O440 O 0.52883 0.90521 0.43100
 O441 O 0.56313 0.90858 0.58125
 O442 O 0.49355 0.86658 0.54685
 O443 O 0.41308 0.89358 0.48823
 O444 O 0.48403 0.87170 0.47176
 C445 C 0.50827 0.87369 0.44179
 O446 O 0.57555 0.99169 0.41455
 O447 O 0.42978 1.06149 0.44064
 O448 O 0.50746 0.97011 0.39507
 O449 O 0.44820 1.00235 0.40694
 O450 O 0.50808 1.10448 0.47121
 O451 O 0.56975 1.07003 0.45640
 C452 C 0.47412 0.98706 0.38351
 H453 H 0.45339 1.06741 0.51288
 H454 H 0.58965 1.00473 0.49240
 H455 H 0.45831 0.93417 0.44003
 H456 H 0.48951 0.93510 0.58727
 H457 H 0.58573 1.10284 0.52960
 H458 H 0.62349 0.97724 0.58588
 H459 H 0.58994 0.91117 0.59496
 H460 H 0.47958 0.84133 0.53758
 H461 H 0.52436 1.12853 0.48013
 H462 H 0.40337 1.05800 0.42630
 H463 H 0.37625 0.98886 0.42997
 H464 H 0.41331 0.86346 0.48992
 H465 H 0.58300 1.09663 0.46248
 H466 H 0.58273 0.97109 0.39469
 H467 H 0.41682 0.99898 0.62541
 H468 H 0.42016 0.86843 0.55764
 Zr469 Zr -0.03519 0.50405 1.05631
 O470 O -0.07492 0.47717 1.09857
 O471 O -0.02789 0.56384 1.07689
 O472 O -0.00615 0.50441 1.11256
 O473 O -0.10807 0.52698 0.98527
 O474 O 0.05259 0.47014 1.10337
 O475 O -0.09355 0.53099 1.05151
 O476 O 0.01835 0.59191 1.03399
 O477 O 0.02709 0.51518 1.04695
 O478 O -0.03029 0.53749 1.00341
 O479 O -0.00857 0.44627 1.05400
 O480 O -0.06467 0.46754 1.01289
 Zr481 Zr 0.03146 0.45587 0.94481
 Zr482 Zr 0.05307 0.45795 1.04200
 Zr483 Zr -0.05677 0.50099 0.96014
 Zr484 Zr 0.03147 0.54672 0.99315
 O485 O -0.10909 0.46793 0.94037
 O486 O 0.08759 0.56509 1.02003
 O487 O 0.00457 0.51334 0.94680
 O488 O 0.06046 0.49118 0.98892
 O489 O 0.02750 0.42120 0.99738
 O490 O -0.03060 0.44429 0.95435
 C491 C -0.00573 0.59359 1.06367
 C492 C -0.11648 0.53795 1.02075
 C493 C 0.02807 0.49023 1.12487
 O494 O 0.10817 0.48809 1.05886
 O495 O 0.10323 0.42933 1.01682
 O496 O 0.08796 0.42610 0.95056
 C497 C 0.11148 0.41953 0.98090
 O498 O -0.07791 0.39707 1.05203
 Zr499 Zr -0.03451 0.41174 1.00752
 O500 O 0.02469 0.39707 0.92392
 O501 O 0.06075 0.40227 1.07305
 O502 O -0.01148 0.36251 1.04163
 O503 O -0.08975 0.39056 0.98078
 O504 O -0.01927 0.36547 0.96685
 C505 C 0.00432 0.36603 0.93645
 O506 O 0.07463 0.48116 0.90486
 O507 O -0.06934 0.55754 0.93216
 O508 O 0.00596 0.46379 0.88668
 O509 O -0.05168 0.49864 0.89884
 O510 O 0.01079 0.59810 0.96062
 O511 O 0.07145 0.56142 0.94569
 C512 C -0.02641 0.48262 0.87528
 H513 H -0.04417 0.56389 1.00371
 H514 H 0.08958 0.49626 0.98290
 H515 H -0.04403 0.42901 0.93244
 H516 H -0.01183 0.43151 1.07962
 H517 H 0.08989 0.59513 1.01757
 H518 H 0.12305 0.46932 1.07686
 H519 H 0.08758 0.40427 1.08679
 H520 H -0.02659 0.33755 1.03326
 H521 H 0.02783 0.62190 0.96886
 H522 H -0.09597 0.55452 0.91812
 H523 H -0.12411 0.48624 0.92207
 H524 H -0.09064 0.36049 0.98343
 H525 H 0.08507 0.58808 0.95074
 H526 H 0.08061 0.45973 0.88541
 H527 H -0.08139 0.49876 1.11767
 H528 H -0.08511 0.36768 1.05094
 Zr529 Zr -0.03963 0.48462 0.44491
 O530 O -0.08019 0.51154 0.40346
 O531 O -0.03622 0.42608 0.42212
 O532 O -0.01349 0.48871 0.38740
 O533 O -0.11367 0.46516 0.51761
 O534 O 0.05235 0.50793 0.40100
 O535 O -0.09989 0.45994 0.45163
 O536 O 0.00630 0.39473 0.46645
 O537 O 0.02144 0.46982 0.45538
 O538 O -0.03739 0.45117 0.49816
 O539 O -0.00697 0.54045 0.44706
 O540 O -0.06491 0.52243 0.48786
 Zr541 Zr 0.03345 0.53038 0.55696
 Zr542 Zr 0.05339 0.52523 0.46066
 Zr543 Zr -0.05933 0.48941 0.54141
 Zr544 Zr 0.02328 0.43851 0.50941
 O545 O -0.10956 0.52441 0.55805
 O546 O 0.07791 0.41729 0.48490
 O547 O 0.00100 0.47416 0.55547
 O548 O 0.05811 0.49245 0.51410
 O549 O 0.03179 0.56422 0.50388
 O550 O -0.02759 0.54458 0.54594
 C551 C -0.01642 0.39534 0.43487
 C552 C -0.12317 0.45446 0.48215
 C553 C 0.02359 0.49680 0.37698
 O554 O 0.10700 0.49327 0.44845
 O555 O 0.10495 0.55593 0.48435
 O556 O 0.09314 0.55711 0.55091
 C557 C 0.11549 0.56502 0.52017
 O558 O -0.07067 0.59244 0.44586
 Zr559 Zr -0.02940 0.57638 0.49235
 O560 O 0.03175 0.58993 0.57676
 O561 O 0.06503 0.57795 0.42553
 O562 O -0.00053 0.62425 0.45981
 O563 O -0.08323 0.60053 0.51588
 O564 O -0.01235 0.62137 0.53397
 C565 C 0.01148 0.62059 0.56464
 O566 O 0.07449 0.50422 0.59842
 O567 O -0.07294 0.43378 0.57124
 O568 O 0.00717 0.52548 0.61455
 O569 O -0.05605 0.49756 0.60281
 O570 O -0.00276 0.38792 0.54033
 O571 O 0.06103 0.42111 0.55824
 C572 C -0.02835 0.51240 0.62603
 H573 H -0.05341 0.42532 0.49739
 H574 H 0.08678 0.48621 0.52079
 H575 H -0.03982 0.56098 0.56695
 H576 H -0.00892 0.55534 0.42139
 H577 H 0.07688 0.38717 0.48671
 H578 H 0.12280 0.50997 0.42910
 H579 H 0.09130 0.57387 0.41215
 H580 H -0.01355 0.64992 0.46729
 H581 H 0.01155 0.36335 0.53176
 H582 H -0.09919 0.43716 0.58491
 H583 H -0.12591 0.50753 0.57682
 H584 H -0.08178 0.63048 0.51204
 H585 H 0.07168 0.39365 0.55360
 H586 H 0.08255 0.52595 0.61734
 H587 H -0.08886 0.48987 0.38470
 H588 H -0.07361 0.62236 0.44514
 Zr589 Zr 0.47352 -0.02855 -0.04362
 O590 O 0.43586 -0.00523 -0.08965
 O591 O 0.47828 -0.08897 -0.06028
 O592 O 0.50249 -0.03025 -0.09966
 O593 O 0.39548 -0.04490 0.02602
 O594 O 0.56471 -0.00064 -0.08659
 O595 O 0.41274 -0.05258 -0.03882
 O596 O 0.52109 -0.11666 -0.01389
 O597 O 0.53482 -0.04011 -0.03009
 O598 O 0.47415 -0.05882 0.01129
 O599 O 0.50404 0.02854 -0.04347
 O600 O 0.44465 0.01061 -0.00432
 Zr601 Zr 0.53903 0.02572 0.06791
 Zr602 Zr 0.56461 0.01697 -0.02671
 Zr603 Zr 0.44863 -0.01910 0.05115
 Zr604 Zr 0.53502 -0.06860 0.02556
 O605 O 0.39686 0.01517 0.06468
 O606 O 0.59110 -0.08930 0.00383
 O607 O 0.50884 -0.03156 0.06843
 O608 O 0.56770 -0.01307 0.02847
 O609 O 0.53883 0.05678 0.01333
 O610 O 0.47813 0.03736 0.05378
 C611 C 0.49838 -0.11850 -0.04534
 C612 C 0.38755 -0.05634 -0.00957
 C613 C 0.53832 -0.01767 -0.11024
 O614 O 0.61917 -0.01451 -0.03556
 O615 O 0.61413 0.05183 -0.00196
 O616 O 0.59655 0.05588 0.06315
 C617 C 0.62068 0.06405 0.03397
 O618 O 0.43737 0.07701 -0.05009
 Zr619 Zr 0.47785 0.06600 -0.00152
 O620 O 0.53424 0.08594 0.08469
 O621 O 0.57659 0.06868 -0.06313
 O622 O 0.50557 0.11283 -0.03634
 O623 O 0.42268 0.09009 0.01900
 O624 O 0.49274 0.11409 0.03738
 C625 C 0.51489 0.11564 0.06919
 O626 O 0.57969 0.00309 0.11175
 O627 O 0.43479 -0.07376 0.08254
 O628 O 0.51135 0.02303 0.12459
 O629 O 0.44966 -0.00779 0.11215
 O630 O 0.50999 -0.11795 0.05904
 O631 O 0.57177 -0.08057 0.07665
 C632 C 0.47603 0.00922 0.13546
 H633 H 0.45854 -0.08493 0.01134
 H634 H 0.59629 -0.01757 0.03682
 H635 H 0.46461 0.05456 0.07336
 H636 H 0.50249 0.04171 -0.07004
 H637 H 0.59153 -0.11914 0.00831
 H638 H 0.63530 0.00193 -0.05484
 H639 H 0.60360 0.06484 -0.07516
 H640 H 0.49116 0.13831 -0.03095
 H641 H 0.52636 -0.14220 0.05362
 H642 H 0.40808 -0.07014 0.09524
 H643 H 0.38035 -0.00131 0.08365
 H644 H 0.42341 0.11973 0.01320
 H645 H 0.58431 -0.10751 0.07409
 H646 H 0.58642 0.02594 0.12986
 H647 H 0.42777 -0.02852 -0.10673
 H648 H 0.43295 0.10662 -0.05276
 Zr649 Zr 0.54713 0.51618 -0.05771
 O650 O 0.58075 0.48279 -0.09882
 O651 O 0.55423 0.57466 -0.08069
 O652 O 0.51651 0.51860 -0.11409
 O653 O 0.62457 0.53366 0.01258
 O654 O 0.45301 0.49225 -0.10170
 O655 O 0.60930 0.53485 -0.05383
 O656 O 0.51279 0.61100 -0.04126
 O657 O 0.48800 0.53674 -0.04888
 O658 O 0.54962 0.55144 -0.00623
 O659 O 0.51040 0.46334 -0.05255
 O660 O 0.57086 0.47810 -0.01246
 Zr661 Zr 0.47503 0.48134 0.05697
 Zr662 Zr 0.45217 0.48394 -0.03987
 Zr663 Zr 0.57004 0.51336 0.03928
 Zr664 Zr 0.49083 0.57002 0.00331
 O665 O 0.61788 0.47467 0.05675
 O666 O 0.43873 0.59597 -0.02361
 O667 O 0.51166 0.53467 0.05201
 O668 O 0.45196 0.51921 0.01161
 O669 O 0.47207 0.44560 0.00586
 O670 O 0.53399 0.46115 0.04688
 C671 C 0.53791 0.60769 -0.07024
 C672 C 0.63350 0.54148 -0.02387
 C673 C 0.47999 0.50753 -0.12515
 O674 O 0.40268 0.52127 -0.05558
 O675 O 0.39981 0.45902 -0.01300
 O676 O 0.41513 0.45551 0.05319
 C677 C 0.39131 0.44872 0.02301
 O678 O 0.57265 0.40757 -0.04809
 Zr679 Zr 0.53106 0.42755 -0.00500
 O680 O 0.47401 0.42356 0.08250
 O681 O 0.43336 0.42994 -0.06925
 O682 O 0.50036 0.38149 -0.03819
 O683 O 0.58013 0.39736 0.02336
 O684 O 0.50518 0.38568 0.03590
 C685 C 0.48633 0.38994 0.06885
 O686 O 0.43611 0.51265 0.09508
 O687 O 0.58973 0.56807 0.06680
 O688 O 0.50273 0.48701 0.11428
 O689 O 0.56829 0.50698 0.10154
 O690 O 0.52084 0.61810 0.03414
 O691 O 0.45211 0.59699 0.04487
 C692 C 0.53959 0.49638 0.12546
 H693 H 0.56786 0.57575 -0.00773
 H694 H 0.42412 0.52791 0.01785
 H695 H 0.54510 0.44424 0.06882
 H696 H 0.51050 0.44758 -0.07743
 H697 H 0.44284 0.62593 -0.02300
 H698 H 0.38389 0.50454 -0.07228
 H699 H 0.40655 0.43516 -0.08199
 H700 H 0.51092 0.35498 -0.02887
 H701 H 0.50913 0.64381 0.02397
 H702 H 0.61635 0.56267 0.07984
 H703 H 0.63653 0.49088 0.07409
 H704 H 0.57464 0.36771 0.02095
 H705 H 0.45979 0.58580 0.07128
 H706 H 0.42750 0.49292 0.11601
 H707 H 0.59064 0.50267 -0.11907
 H708 H 0.57398 0.37751 -0.04702
 Zr709 Zr 0.04520 1.02148 0.44148
 O710 O 0.08427 1.00223 0.39630
 O711 O 0.03684 1.08178 0.42412
 O712 O 0.01372 1.02363 0.38520
 O713 O 0.12180 1.03965 0.51351
 O714 O -0.04398 0.98498 0.39481
 O715 O 0.10403 1.04924 0.44815
 O716 O -0.00708 1.10451 0.47038
 O717 O -0.01633 1.02955 0.45392
 O718 O 0.04351 1.04883 0.49744
 O719 O 0.01810 0.96305 0.43962
 O720 O 0.07613 0.98242 0.48148
 Zr721 Zr -0.01743 0.95840 0.55008
 Zr722 Zr -0.04276 0.97098 0.45539
 Zr723 Zr 0.07084 1.00876 0.53805
 Zr724 Zr -0.01750 1.05521 0.51023
 O725 O 0.12471 0.97717 0.55203
 O726 O -0.07518 1.07445 0.48918
 O727 O 0.00981 1.01713 0.55334
 O728 O -0.04730 0.99827 0.51090
 O729 O -0.01554 0.93018 0.49484
 O730 O 0.04416 0.95068 0.53756
 C731 C 0.01459 1.10911 0.43889
 C732 C 0.12880 1.05345 0.47820
 C733 C -0.02042 1.00705 0.37299
 O734 O -0.09660 1.00274 0.44163
 O735 O -0.09284 0.93934 0.48012
 O736 O -0.07567 0.92957 0.54526
 C737 C -0.10037 0.92582 0.51536
 O738 O 0.08841 0.92018 0.43464
 Zr739 Zr 0.04615 0.92527 0.48150
 O740 O -0.01240 0.89649 0.56268
 O741 O -0.05394 0.91733 0.42246
 O742 O 0.02229 0.87910 0.44375
 O743 O 0.10209 0.90263 0.50372
 O744 O 0.03289 0.87412 0.51750
 C745 C 0.00942 0.86896 0.54739
 O746 O -0.05659 0.97796 0.59516
 O747 O 0.08123 1.06223 0.57139
 O748 O 0.01163 0.95546 0.60623
 O749 O 0.07027 0.99348 0.59989
 O750 O 0.00635 1.10440 0.54422
 O751 O -0.05416 1.06378 0.56088
 C752 C 0.04520 0.97088 0.62023
 H753 H 0.05738 1.07587 0.49812
 H754 H -0.07599 1.00188 0.51853
 H755 H 0.05841 0.93265 0.55667
 H756 H 0.02038 0.95099 0.41295
 H757 H -0.07650 1.10412 0.49375
 H758 H -0.11343 0.98504 0.42396
 H759 H -0.08131 0.91975 0.40996
 H760 H 0.03847 0.85441 0.44868
 H761 H -0.01050 1.12837 0.53808
 H762 H 0.10839 1.05962 0.58426
 H763 H 0.14038 0.99409 0.57132
 H764 H 0.10309 0.87350 0.49656
 H765 H -0.06621 1.09112 0.55950
 H766 H -0.06247 0.95409 0.61264
 H767 H 0.08939 1.02625 0.37883
 H768 H 0.09467 0.89117 0.43085
 Zr769 Zr 0.73312 0.28065 0.19822
 O770 O 0.76553 0.31758 0.15695
 O771 O 0.67336 0.28109 0.17591
 O772 O 0.73128 0.25350 0.14118
 O773 O 0.72092 0.35614 0.26747
 O774 O 0.75218 0.18897 0.15425
 O775 O 0.71411 0.34218 0.20149
 O776 O 0.63862 0.24072 0.22014
 O777 O 0.71221 0.22068 0.20874
 O778 O 0.69988 0.28072 0.25076
 O779 O 0.78581 0.24522 0.20269
 O780 O 0.77397 0.30405 0.24190
 Zr781 Zr 0.77053 0.20651 0.31232
 Zr782 Zr 0.76442 0.18605 0.21561
 Zr783 Zr 0.74026 0.30140 0.29423
 Zr784 Zr 0.68113 0.22105 0.26237
 O785 O 0.78104 0.34871 0.31194
 O786 O 0.65389 0.16820 0.23691
 O787 O 0.71841 0.24258 0.30878
 O788 O 0.73108 0.18318 0.26820
 O789 O 0.80464 0.20573 0.26026
 O790 O 0.79191 0.26622 0.30185
 C791 C 0.64087 0.26348 0.18896
 C792 C 0.71054 0.36595 0.23156
 C793 C 0.74004 0.21723 0.13030
 O794 O 0.72602 0.13572 0.20103
 O795 O 0.78940 0.13364 0.24189
 O796 O 0.79366 0.14700 0.30817
 C797 C 0.79980 0.12437 0.27787
 O798 O 0.84531 0.30732 0.20535
 Zr799 Zr 0.82413 0.26532 0.24934
 O800 O 0.82936 0.20200 0.33437
 O801 O 0.81674 0.16970 0.18394
 O802 O 0.86858 0.23595 0.21550
 O803 O 0.85474 0.31521 0.27694
 O804 O 0.86697 0.23970 0.29020
 C805 C 0.86313 0.21550 0.32059
 O806 O 0.73781 0.16729 0.35134
 O807 O 0.68716 0.32180 0.32218
 O808 O 0.76765 0.23210 0.36984
 O809 O 0.74520 0.29589 0.35578
 O810 O 0.63367 0.24966 0.29288
 O811 O 0.66076 0.18424 0.31082
 C812 C 0.75649 0.26780 0.38021
 H813 H 0.67580 0.29828 0.24958
 H814 H 0.72206 0.15496 0.27469
 H815 H 0.80963 0.27667 0.32366
 H816 H 0.80095 0.24629 0.17746
 H817 H 0.62396 0.17071 0.23882
 H818 H 0.74189 0.11809 0.18360
 H819 H 0.81024 0.14334 0.17105
 H820 H 0.89566 0.24646 0.22447
 H821 H 0.60761 0.23623 0.28468
 H822 H 0.69459 0.34756 0.33580
 H823 H 0.76581 0.36623 0.33001
 H824 H 0.88436 0.31041 0.27538
 H825 H 0.63240 0.17468 0.30561
 H826 H 0.75772 0.15708 0.37129
 H827 H 0.74534 0.32747 0.13710
 H828 H 0.87536 0.31009 0.20731
 Zr829 Zr 0.75675 0.71554 0.68818
 O830 O 0.72888 0.67629 0.64599
 O831 O 0.81638 0.72204 0.66719
 O832 O 0.75719 0.74478 0.63205
 O833 O 0.77920 0.64189 0.75879
 O834 O 0.72447 0.80434 0.64177
 O835 O 0.78340 0.65690 0.69270
 O836 O 0.84553 0.76715 0.71068
 O837 O 0.76919 0.77753 0.69812
 O838 O 0.79033 0.71938 0.74116
 O839 O 0.69959 0.74357 0.69066
 O840 O 0.71960 0.68650 0.73124
 Zr841 Zr 0.71022 0.78216 0.80033
 Zr842 Zr 0.71257 0.80488 0.70330
 Zr843 Zr 0.75332 0.69318 0.78412
 Zr844 Zr 0.80089 0.78078 0.75199
 O845 O 0.71921 0.64105 0.80240
 O846 O 0.82034 0.83680 0.72585
 O847 O 0.76710 0.75407 0.79815
 O848 O 0.74601 0.81096 0.75655
 O849 O 0.67545 0.77957 0.74765
 O850 O 0.69715 0.72055 0.79000
 C851 C 0.84659 0.74349 0.68058
 C852 C 0.79034 0.63371 0.72331
 C853 C 0.74368 0.77933 0.61995
 O854 O 0.74405 0.85934 0.68709
 O855 O 0.68470 0.85535 0.72926
 O856 O 0.68118 0.83900 0.79526
 C857 C 0.67469 0.86301 0.76531
 O858 O 0.64917 0.67482 0.69217
 Zr859 Zr 0.66448 0.71799 0.73677
 O860 O 0.65137 0.77687 0.82114
 O861 O 0.65702 0.81418 0.67233
 O862 O 0.61597 0.74195 0.70221
 O863 O 0.64133 0.66360 0.76343
 O864 O 0.61844 0.73509 0.77697
 C865 C 0.61965 0.75814 0.80781
 O866 O 0.73696 0.82417 0.84066
 O867 O 0.80946 0.67981 0.81267
 O868 O 0.71678 0.75559 0.85820
 O869 O 0.74996 0.69709 0.84551
 O870 O 0.85224 0.75893 0.78390
 O871 O 0.81659 0.81971 0.80006
 C872 C 0.73431 0.72239 0.86931
 H873 H 0.81655 0.70517 0.74073
 H874 H 0.75165 0.83988 0.76295
 H875 H 0.68137 0.70729 0.81162
 H876 H 0.68471 0.74081 0.66502
 H877 H 0.85045 0.83837 0.72818
 H878 H 0.72557 0.87480 0.66929
 H879 H 0.65966 0.84107 0.65887
 H880 H 0.59062 0.72746 0.71042
 H881 H 0.87624 0.77570 0.77575
 H882 H 0.80601 0.65310 0.82638
 H883 H 0.73706 0.62546 0.82069
 H884 H 0.61125 0.66373 0.76052
 H885 H 0.84334 0.83315 0.79501
 H886 H 0.71575 0.83060 0.86018
 H887 H 0.75026 0.66950 0.62679
 H888 H 0.61961 0.66825 0.69301
 Zr889 Zr 0.22363 0.21917 0.79928
 O890 O 0.24666 0.18089 0.84489
 O891 O 0.16265 0.22292 0.81519
 O892 O 0.22190 0.24775 0.85598
 O893 O 0.20864 0.14261 0.72818
 O894 O 0.25110 0.31001 0.84340
 O895 O 0.20008 0.15864 0.79327
 O896 O 0.13496 0.26489 0.76808
 O897 O 0.21106 0.28017 0.78635
 O898 O 0.19412 0.22022 0.74378
 O899 O 0.28057 0.24985 0.79977
 O900 O 0.26375 0.19167 0.75964
 Zr901 Zr 0.27831 0.28760 0.68872
 Zr902 Zr 0.26795 0.31006 0.78385
 Zr903 Zr 0.23460 0.19607 0.70387
 Zr904 Zr 0.18344 0.28087 0.73015
 O905 O 0.26985 0.14505 0.69025
 O906 O 0.16128 0.33585 0.75302
 O907 O 0.22147 0.25629 0.68730
 O908 O 0.23845 0.31428 0.72850
 O909 O 0.30890 0.28647 0.74367
 O910 O 0.29067 0.22658 0.70191
 C911 C 0.13285 0.24205 0.79933
 C912 C 0.19657 0.13417 0.76348
 C913 C 0.23449 0.28358 0.86689
 O914 O 0.23540 0.36376 0.79387
 O915 O 0.30121 0.36005 0.76079
 O916 O 0.30525 0.34706 0.69464
 C917 C 0.31222 0.36968 0.72536
 O918 O 0.33120 0.18481 0.80550
 Zr919 Zr 0.31894 0.22543 0.75742
 O920 O 0.33913 0.28474 0.67342
 O921 O 0.31962 0.32224 0.82050
 O922 O 0.36529 0.25365 0.79263
 O923 O 0.34291 0.17048 0.73627
 O924 O 0.36717 0.24090 0.71869
 C925 C 0.36874 0.26444 0.68786
 O926 O 0.25571 0.32788 0.64458
 O927 O 0.18053 0.18183 0.67147
 O928 O 0.27635 0.26023 0.63163
 O929 O 0.24615 0.19803 0.64295
 O930 O 0.13540 0.25554 0.69495
 O931 O 0.17127 0.31887 0.68004
 C932 C 0.26289 0.22493 0.62009
 H933 H 0.16820 0.20429 0.74298
 H934 H 0.23332 0.34293 0.72094
 H935 H 0.30817 0.21365 0.68220
 H936 H 0.29368 0.24815 0.82638
 H937 H 0.13143 0.33577 0.74823
 H938 H 0.25175 0.38014 0.81308
 H939 H 0.31570 0.34911 0.83279
 H940 H 0.39112 0.23993 0.78703
 H941 H 0.11052 0.27097 0.70035
 H942 H 0.18457 0.15519 0.65877
 H943 H 0.25371 0.12846 0.67103
 H944 H 0.37270 0.17135 0.74150
 H945 H 0.14380 0.33035 0.68241
 H946 H 0.27879 0.33506 0.62693
 H947 H 0.22327 0.17285 0.86183
 H948 H 0.36093 0.18068 0.80768
 Zr949 Zr 0.26776 0.79465 0.30635
 O950 O 0.24827 0.83310 0.35196
 O951 O 0.32836 0.78672 0.32301
 O952 O 0.27152 0.76326 0.36224
 O953 O 0.28518 0.87188 0.23529
 O954 O 0.23358 0.70503 0.35316
 O955 O 0.29514 0.85343 0.30037
 O956 O 0.35088 0.74358 0.27594
 O957 O 0.27621 0.73335 0.29348
 O958 O 0.29474 0.79347 0.25025
 O959 O 0.20950 0.76720 0.30863
 O960 O 0.22817 0.82563 0.26695
 Zr961 Zr 0.20447 0.73234 0.19787
 Zr962 Zr 0.21780 0.70654 0.29262
 Zr963 Zr 0.25428 0.82097 0.21027
 Zr964 Zr 0.30127 0.73261 0.23689
 O965 O 0.22179 0.87435 0.19676
 O966 O 0.32139 0.67520 0.25763
 O967 O 0.26287 0.76012 0.19436
 O968 O 0.24459 0.70244 0.23674
 O969 O 0.17661 0.73369 0.25334
 O970 O 0.19633 0.79375 0.21077
 C971 C 0.35571 0.76507 0.30747
 C972 C 0.29917 0.87847 0.27067
 C973 C 0.25592 0.72889 0.37463
 O974 O 0.24966 0.65255 0.30532
 O975 O 0.18557 0.65674 0.26782
 O976 O 0.17598 0.67392 0.20263
 C977 C 0.17211 0.64923 0.23249
 O978 O 0.16613 0.83713 0.31416
 Zr979 Zr 0.17120 0.79517 0.26702
 O980 O 0.14261 0.73699 0.18556
 O981 O 0.16481 0.69524 0.32646
 O982 O 0.12542 0.77076 0.30482
 O983 O 0.14779 0.85090 0.24527
 O984 O 0.11983 0.78165 0.23113
 C985 C 0.11489 0.75833 0.20106
 O986 O 0.22369 0.69337 0.15248
 O987 O 0.30760 0.83243 0.17700
 O988 O 0.20167 0.76172 0.14172
 O989 O 0.23951 0.82043 0.14839
 O990 O 0.35002 0.75659 0.20248
 O991 O 0.30917 0.69619 0.18593
 C992 C 0.21726 0.79527 0.12781
 H993 H 0.32169 0.80752 0.24944
 H994 H 0.24829 0.67383 0.22892
 H995 H 0.17813 0.80786 0.19171
 H996 H 0.19779 0.76927 0.33546
 H997 H 0.35100 0.67413 0.25258
 H998 H 0.23228 0.63574 0.32325
 H999 H 0.16758 0.66790 0.33880
 H1000 H 0.10054 0.78674 0.30011
 H1001 H 0.37405 0.73963 0.20809
 H1002 H 0.30465 0.85965 0.16444
 H1003 H 0.23859 0.89046 0.17776
 H1004 H 0.11870 0.85161 0.25269
 H1005 H 0.33646 0.68399 0.18704
 H1006 H 0.19967 0.68766 0.13506
 H1007 H 0.27234 0.83851 0.36936
 H1008 H 0.13706 0.84304 0.31823
 Zr1009 Zr 0.22750 0.78707 0.69125
 O1010 O 0.25147 0.82391 0.64475
 O1011 O 0.16612 0.78094 0.67553
 O1012 O 0.22310 0.75666 0.63582
 O1013 O 0.21845 0.86606 0.75712
 O1014 O 0.25028 0.69496 0.65047
 O1015 O 0.20462 0.84717 0.69328
 O1016 O 0.13891 0.74147 0.72518
 O1017 O 0.21287 0.72654 0.70703
 O1018 O 0.20003 0.78813 0.74697
 O1019 O 0.28297 0.75618 0.69164
 O1020 O 0.27022 0.81655 0.72927
 Zr1021 Zr 0.28375 0.72403 0.80410
 Zr1022 Zr 0.26832 0.69666 0.71030
 Zr1023 Zr 0.24288 0.81438 0.78526
 Zr1024 Zr 0.18766 0.72809 0.76356
 O1025 O 0.28139 0.86503 0.79844
 O1026 O 0.16233 0.67175 0.74408
 O1027 O 0.22821 0.75496 0.80456
 O1028 O 0.24127 0.69504 0.76617
 O1029 O 0.31187 0.72241 0.74877
 O1030 O 0.29801 0.78447 0.78829
 C1031 C 0.13651 0.76210 0.69263
 C1032 C 0.20351 0.87279 0.72207
 C1033 C 0.23429 0.72075 0.62609
 O1034 O 0.23224 0.64327 0.70167
 O1035 O 0.29824 0.64712 0.73683
 O1036 O 0.31053 0.66614 0.80086
 C1037 C 0.31315 0.64101 0.77193
 O1038 O 0.33480 0.82316 0.68363
 Zr1039 Zr 0.32394 0.78276 0.73231
 O1040 O 0.34495 0.72984 0.82012
 O1041 O 0.31876 0.68183 0.67520
 O1042 O 0.36698 0.75528 0.69530
 O1043 O 0.35274 0.83697 0.75319
 O1044 O 0.37363 0.76510 0.76846
 C1045 C 0.37548 0.74606 0.80198
 O1046 O 0.26075 0.68443 0.84895
 O1047 O 0.19062 0.83288 0.81588
 O1048 O 0.28386 0.75219 0.86035
 O1049 O 0.25224 0.81199 0.84701
 O1050 O 0.14213 0.75537 0.79779
 O1051 O 0.17572 0.69277 0.81558
 C1052 C 0.26869 0.78612 0.87100
 H1053 H 0.17467 0.80382 0.74720
 H1054 H 0.23530 0.66676 0.77517
 H1055 H 0.31661 0.79807 0.80763
 H1056 H 0.29528 0.75676 0.66495
 H1057 H 0.13267 0.67202 0.74910
 H1058 H 0.24748 0.62576 0.68358
 H1059 H 0.31288 0.65449 0.66410
 H1060 H 0.39355 0.76955 0.69965
 H1061 H 0.11627 0.73992 0.79312
 H1062 H 0.19725 0.85980 0.82758
 H1063 H 0.26613 0.88234 0.81668
 H1064 H 0.38211 0.83541 0.74716
 H1065 H 0.14746 0.68165 0.81431
 H1066 H 0.28386 0.67796 0.86707
 H1067 H 0.22837 0.83070 0.62674
 H1068 H 0.36443 0.82884 0.68143
 Zr1069 Zr 0.26342 0.21684 0.18897
 O1070 O 0.23388 0.17716 0.14823
 O1071 O 0.32225 0.22218 0.16592
 O1072 O 0.26301 0.24529 0.13229
 O1073 O 0.28600 0.14454 0.26085
 O1074 O 0.23085 0.30520 0.14182
 O1075 O 0.28908 0.15768 0.19432
 O1076 O 0.35289 0.26850 0.20722
 O1077 O 0.27643 0.27899 0.19728
 O1078 O 0.29867 0.22170 0.24091
 O1079 O 0.20657 0.24532 0.19242
 O1080 O 0.22759 0.18924 0.23390
 Zr1081 Zr 0.22055 0.28659 0.30093
 Zr1082 Zr 0.22020 0.30686 0.20345
 Zr1083 Zr 0.26281 0.19715 0.28574
 Zr1084 Zr 0.30989 0.28334 0.25000
 O1085 O 0.22945 0.14569 0.30696
 O1086 O 0.32885 0.33868 0.22220
 O1087 O 0.27731 0.25828 0.29792
 O1088 O 0.25526 0.31405 0.25555
 O1089 O 0.18429 0.28277 0.24929
 O1090 O 0.20701 0.22481 0.29228
 C1091 C 0.35285 0.24411 0.17757
 C1092 C 0.29583 0.13497 0.22536
 C1093 C 0.24960 0.27987 0.12001
 O1094 O 0.25129 0.36108 0.18582
 O1095 O 0.19238 0.35768 0.22881
 O1096 O 0.19081 0.34297 0.29524
 C1097 C 0.18292 0.36596 0.26486
 O1098 O 0.15542 0.17751 0.19646
 Zr1099 Zr 0.17286 0.22100 0.24009
 O1100 O 0.16242 0.28239 0.32384
 O1101 O 0.16413 0.31545 0.17316
 O1102 O 0.12317 0.24514 0.20735
 O1103 O 0.15073 0.16669 0.26770
 O1104 O 0.12892 0.23820 0.28231
 C1105 C 0.13074 0.26232 0.31237
 O1106 O 0.24915 0.32945 0.33919
 O1107 O 0.32003 0.18454 0.31242
 O1108 O 0.22748 0.26105 0.35909
 O1109 O 0.26084 0.20245 0.34724
 O1110 O 0.36195 0.26156 0.28081
 O1111 O 0.32770 0.32352 0.29644
 C1112 C 0.24480 0.22791 0.37067
 H1113 H 0.32466 0.20712 0.23991
 H1114 H 0.26108 0.34313 0.26114
 H1115 H 0.19183 0.21194 0.31449
 H1116 H 0.19094 0.24209 0.16724
 H1117 H 0.35903 0.33996 0.22336
 H1118 H 0.23248 0.37619 0.16806
 H1119 H 0.16646 0.34209 0.15919
 H1120 H 0.09807 0.23110 0.21688
 H1121 H 0.38591 0.27752 0.27122
 H1122 H 0.31705 0.15819 0.32686
 H1123 H 0.24799 0.13053 0.32494
 H1124 H 0.12058 0.16692 0.26609
 H1125 H 0.35475 0.33590 0.29053
 H1126 H 0.22868 0.33663 0.35918
 H1127 H 0.25464 0.16973 0.12863
 H1128 H 0.12579 0.17156 0.19818
 Zr1129 Zr 0.73281 0.71592 0.29955
 O1130 O 0.75892 0.67764 0.34355
 O1131 O 0.67381 0.72171 0.32094
 O1132 O 0.73739 0.74454 0.35563
 O1133 O 0.71294 0.63733 0.23187
 O1134 O 0.75966 0.80897 0.34005
 O1135 O 0.70807 0.65549 0.29680
 O1136 O 0.64366 0.76294 0.27473
 O1137 O 0.71953 0.77677 0.28620
 O1138 O 0.69927 0.71570 0.24627
 O1139 O 0.78945 0.74705 0.29596
 O1140 O 0.76983 0.68718 0.25811
 Zr1141 Zr 0.77934 0.78089 0.18478
 Zr1142 Zr 0.77582 0.80722 0.27972
 Zr1143 Zr 0.73671 0.69012 0.20429
 Zr1144 Zr 0.68813 0.77619 0.23199
 O1145 O 0.77046 0.63851 0.18922
 O1146 O 0.66806 0.83260 0.25349
 O1147 O 0.72259 0.74994 0.18731
 O1148 O 0.74277 0.80955 0.22610
 O1149 O 0.81364 0.78166 0.23759
 O1150 O 0.79253 0.72031 0.19844
 C1151 C 0.64351 0.74147 0.30692
 C1152 C 0.70303 0.62996 0.26804
 C1153 C 0.74725 0.78146 0.36496
 O1154 O 0.74483 0.86194 0.28930
 O1155 O 0.80834 0.85659 0.25265
 O1156 O 0.80920 0.83853 0.18746
 C1157 C 0.81844 0.86293 0.21613
 O1158 O 0.83949 0.68174 0.30043
 Zr1159 Zr 0.82461 0.72099 0.25198
 O1160 O 0.83822 0.77671 0.16432
 O1161 O 0.82910 0.81974 0.31391
 O1162 O 0.87344 0.75019 0.28304
 O1163 O 0.84782 0.66556 0.23118
 O1164 O 0.86965 0.73512 0.20943
 C1165 C 0.86880 0.75709 0.17751
 O1166 O 0.75345 0.82099 0.14227
 O1167 O 0.68041 0.67538 0.17605
 O1168 O 0.77344 0.75302 0.12847
 O1169 O 0.74475 0.69070 0.14243
 O1170 O 0.63651 0.75018 0.20249
 O1171 O 0.67260 0.81131 0.18079
 C1172 C 0.75982 0.71746 0.11824
 H1173 H 0.67323 0.70007 0.24796
 H1174 H 0.73738 0.83794 0.21777
 H1175 H 0.80854 0.70673 0.17797
 H1176 H 0.80439 0.74599 0.32168
 H1177 H 0.63796 0.83247 0.25083
 H1178 H 0.76221 0.87847 0.30754
 H1179 H 0.82576 0.84694 0.32566
 H1180 H 0.89868 0.73606 0.27614
 H1181 H 0.61267 0.76663 0.20919
 H1182 H 0.68358 0.64854 0.16348
 H1183 H 0.75280 0.62159 0.17155
 H1184 H 0.87781 0.66673 0.23507
 H1185 H 0.64577 0.82376 0.18461
 H1186 H 0.77499 0.82789 0.12278
 H1187 H 0.73708 0.67028 0.36259
 H1188 H 0.86936 0.67821 0.30159
 Zr1189 Zr 0.76456 0.30136 0.80971
 O1190 O 0.74139 0.33743 0.85542
 O1191 O 0.82601 0.30377 0.82429
 O1192 O 0.77058 0.26904 0.86551
 O1193 O 0.77915 0.37797 0.73705
 O1194 O 0.73504 0.20935 0.85618
 O1195 O 0.78738 0.36216 0.80302
 O1196 O 0.85348 0.26026 0.78019
 O1197 O 0.77794 0.24067 0.79810
 O1198 O 0.79225 0.30129 0.75387
 O1199 O 0.70841 0.26970 0.81108
 O1200 O 0.72369 0.32920 0.76926
 Zr1201 Zr 0.70755 0.23408 0.70069
 Zr1202 Zr 0.72123 0.20973 0.79547
 Zr1203 Zr 0.75096 0.32541 0.71297
 Zr1204 Zr 0.80431 0.24124 0.74215
 O1205 O 0.71506 0.37639 0.69896
 O1206 O 0.82781 0.18721 0.76761
 O1207 O 0.76443 0.26527 0.69837
 O1208 O 0.74941 0.20735 0.74032
 O1209 O 0.67872 0.23385 0.75566
 O1210 O 0.69497 0.29472 0.71288
 C1211 C 0.85608 0.28593 0.80903
 C1212 C 0.79204 0.38608 0.77244
 C1213 C 0.75615 0.23395 0.87787
 O1214 O 0.75635 0.15806 0.80907
 O1215 O 0.69281 0.15785 0.76999
 O1216 O 0.68135 0.17497 0.70511
 C1217 C 0.67903 0.15004 0.73478
 O1218 O 0.66042 0.33626 0.81588
 Zr1219 Zr 0.66900 0.29485 0.76885
 O1220 O 0.64542 0.23599 0.68642
 O1221 O 0.66837 0.19476 0.82833
 O1222 O 0.62417 0.26742 0.80589
 O1223 O 0.64228 0.34886 0.74668
 O1224 O 0.61926 0.27836 0.73232
 C1225 C 0.61618 0.25566 0.70169
 O1226 O 0.73069 0.19565 0.65669
 O1227 O 0.80363 0.34010 0.67970
 O1228 O 0.70405 0.26203 0.64420
 O1229 O 0.73767 0.32306 0.65102
 O1230 O 0.85095 0.26666 0.70595
 O1231 O 0.81710 0.20251 0.69397
 C1232 C 0.71777 0.29624 0.63033
 H1233 H 0.81790 0.31750 0.75218
 H1234 H 0.75505 0.17902 0.73282
 H1235 H 0.67633 0.30758 0.69335
 H1236 H 0.69609 0.27098 0.83770
 H1237 H 0.85777 0.18853 0.76442
 H1238 H 0.73965 0.14016 0.82663
 H1239 H 0.67250 0.16743 0.84031
 H1240 H 0.59838 0.28183 0.80091
 H1241 H 0.87651 0.25259 0.71288
 H1242 H 0.79900 0.36691 0.66681
 H1243 H 0.73072 0.39318 0.67959
 H1244 H 0.61310 0.34782 0.75391
 H1245 H 0.84475 0.19150 0.69759
 H1246 H 0.70768 0.18822 0.63859
 H1247 H 0.76499 0.34495 0.87271
 H1248 H 0.63091 0.34017 0.81959
 N1249 N 0.43501 1.01239 0.33231
 N1250 N 0.46261 0.98749 0.34238
 N1251 N -0.06256 0.51244 0.82443
 N1252 N -0.03768 0.48470 0.83418
 N1253 N 0.07030 -0.00541 0.82504
 N1254 N 0.04420 0.01973 0.83663
 N1255 N 0.57216 0.49104 0.32714
 N1256 N 0.54803 0.51840 0.33811
 N1257 N 0.58706 0.49525 0.17858
 N1258 N 0.54982 0.49364 0.16707
 N1259 N 0.07386 0.97811 0.68558
 N1260 N 0.05607 0.95780 0.65974
 N1261 N -0.07626 0.51139 0.67673
 N1262 N -0.03890 0.51561 0.66701
 N1263 N 0.42659 0.00980 0.18435
 N1264 N 0.46418 0.01403 0.17579
 N1265 N 0.32998 0.42097 -0.00084
 N1266 N 0.35397 0.42597 0.02889
 N1267 N -0.16650 0.90862 0.49455
 N1268 N -0.13886 0.90538 0.52126
 N1269 N -0.17749 0.08174 0.99456
 N1270 N -0.14881 0.08424 0.96946
 N1271 N 0.32786 0.58590 0.49761
 N1272 N 0.35630 0.58847 0.47222
 N1273 N 0.17709 0.59470 0.49642
 N1274 N 0.15501 0.58441 0.52607
 N1275 N 0.68385 0.10064 0.02114
 N1276 N 0.65626 0.08889 0.04360
 N1277 N 0.68363 0.91787 0.49984
 N1278 N 0.65077 0.90763 0.48167
 N1279 N 0.18021 0.41052 0.99681
 N1280 N 0.15004 0.40136 0.97423
 N1281 N -0.01162 0.32548 0.42864
 N1282 N -0.01937 0.35934 0.41211
 N1283 N 0.50721 -0.18953 -0.05300
 N1284 N 0.49463 -0.15557 -0.06602
 N1285 N 0.00458 -0.18685 1.05405
 N1286 N 0.01104 -0.15428 1.07325
 N1287 N 0.49972 0.31508 0.55896
 N1288 N 0.51033 0.34768 0.57642
 N1289 N 0.48760 1.16664 0.56970
 N1290 N 0.48384 1.13526 0.59173
 N1291 N -0.00021 0.66342 1.06098
 N1292 N -0.00921 0.63203 1.08164
 N1293 N 0.52970 0.67406 -0.09101
 N1294 N 0.54978 0.64313 -0.09192
 N1295 N 0.00075 1.17843 0.43537
 N1296 N 0.01392 1.14715 0.41855
 N1297 N 0.76192 0.68417 0.91992
 N1298 N 0.73527 0.71028 0.91028
 N1299 N 0.26809 0.18746 0.42197
 N1300 N 0.24418 0.21585 0.41166
 N1301 N 0.74948 0.31590 0.42746
 N1302 N 0.75756 0.27886 0.42119
 N1303 N 0.24535 0.82306 0.92348
 N1304 N 0.27064 0.79707 0.91196
 N1305 N 0.22602 0.82416 0.06272
 N1306 N 0.20524 0.80582 0.08784
 N1307 N 0.72810 0.32303 0.56530
 N1308 N 0.70641 0.30549 0.59010
 N1309 N 0.26230 0.17657 0.56991
 N1310 N 0.26759 0.21381 0.57944
 N1311 N 0.75954 0.66894 0.06777
 N1312 N 0.76288 0.70625 0.07749
 N1313 N 0.15342 0.58352 0.25362
 N1314 N 0.15189 0.61063 0.22628
 N1315 N 0.66444 0.08278 0.75379
 N1316 N 0.65862 0.11155 0.72886
 N1317 N 0.82605 0.06352 0.25510
 N1318 N 0.82281 0.08818 0.28373
 N1319 N 0.33544 0.57755 0.75172
 N1320 N 0.33589 0.60476 0.77836
 N1321 N 0.34729 0.42778 0.74991
 N1322 N 0.33244 0.40867 0.72000
 N1323 N 0.85238 0.92680 0.22789
 N1324 N 0.84211 0.89870 0.20549
 N1325 N 0.66393 0.93238 0.75167
 N1326 N 0.65550 0.90095 0.77277
 N1327 N 0.16781 0.43449 0.25024
 N1328 N 0.16156 0.40281 0.27168
 N1329 N 0.06153 0.24798 0.80221
 N1330 N 0.09490 0.23736 0.81834
 N1331 N 0.57368 0.74922 0.31145
 N1332 N 0.60675 0.73891 0.32827
 N1333 N 0.57085 0.25982 0.18350
 N1334 N 0.60453 0.26820 0.16690
 N1335 N 0.06562 0.75516 0.69169
 N1336 N 0.09833 0.76361 0.67344
 N1337 N 0.91641 0.74741 0.68320
 N1338 N 0.88481 0.73974 0.66227
 N1339 N 0.42262 0.24881 0.17692
 N1340 N 0.39024 0.24016 0.15760
 N1341 N 0.42533 0.75474 0.30761
 N1342 N 0.39424 0.76490 0.32665
 N1343 N 0.92351 0.27471 0.82601
 N1344 N 0.89495 0.29799 0.82407
 N1345 N 0.56513 0.98531 0.69410
 N1346 N 0.54051 1.00636 0.67319
 N1347 N 0.06750 0.48032 1.18324
 N1348 N 0.04160 0.50114 1.16384
 N1349 N -0.07376 0.00261 1.17314
 N1350 N -0.04442 -0.01965 1.16326
 N1351 N 0.43164 0.50661 0.67410
 N1352 N 0.45988 0.48279 0.66486
 N1353 N 0.43990 0.49279 -0.18201
 N1354 N 0.46667 0.51578 -0.16516
 N1355 N -0.05857 0.98940 0.31595
 N1356 N -0.03557 1.01559 0.33363
 N1357 N 0.06955 0.48602 0.32626
 N1358 N 0.03399 0.49675 0.33587
 N1359 N 0.58199 -0.00086 -0.16096
 N1360 N 0.54948 -0.02011 -0.15134
 N1361 N 0.69554 0.57396 -0.00370
 N1362 N 0.67079 0.56331 -0.03145
 N1363 N 0.19242 1.08346 0.49915
 N1364 N 0.16544 1.07718 0.47203
 N1365 N 0.17770 -0.07739 1.00090
 N1366 N 0.15671 -0.07115 1.03174
 N1367 N 0.67433 0.41338 0.50090
 N1368 N 0.65819 0.42629 0.53240
 N1369 N -0.18449 0.42225 0.50516
 N1370 N -0.16023 0.43136 0.47678
 N1371 N 0.32138 -0.08213 0.00904
 N1372 N 0.34916 -0.07672 -0.01701
 N1373 N 0.33401 1.08231 0.49991
 N1374 N 0.34633 1.06490 0.53185
 N1375 N -0.16393 0.58153 0.99380
 N1376 N -0.15192 0.56246 1.02486
 N1377 N -0.01113 0.68318 0.58866
 N1378 N 0.01496 0.65532 0.58864
 N1379 N 0.49427 0.18181 0.08498
 N1380 N 0.51820 0.15242 0.09003
 N1381 N -0.01978 0.16185 0.88954
 N1382 N -0.00493 0.16063 0.92450
 N1383 N 0.48275 0.67343 0.40064
 N1384 N 0.50857 0.66295 0.42692
 N1385 N 0.48887 0.80947 0.41379
 N1386 N 0.51349 0.83950 0.41733
 N1387 N -0.01249 0.29808 0.91553
 N1388 N 0.00889 0.33066 0.91345
 N1389 N 0.48400 0.31994 0.08136
 N1390 N 0.48341 0.35587 0.09439
 N1391 N -0.01811 0.81934 0.58980
 N1392 N 0.01080 0.83122 0.56760
 N1393 N 0.23816 0.31769 0.06094
 N1394 N 0.26010 0.29306 0.08077
 N1395 N 0.73291 0.81723 0.56060
 N1396 N 0.75444 0.79256 0.58082
 N1397 N 0.25370 0.67876 0.57652
 N1398 N 0.23152 0.70852 0.58528
 N1399 N 0.75650 0.17554 0.07873
 N1400 N 0.73787 0.20727 0.08881
 N1401 N 0.74212 0.19396 0.93491
 N1402 N 0.76636 0.21898 0.91708
 N1403 N 0.24189 0.69074 0.43298
 N1404 N 0.26634 0.71423 0.41374
 N1405 N 0.73814 0.82805 0.41617
 N1406 N 0.74784 0.79238 0.40601
 N1407 N 0.25377 0.32664 0.91715
 N1408 N 0.23212 0.29540 0.90787
 N1409 N 0.82619 0.44657 0.74932
 N1410 N 0.81671 0.42217 0.77777
 N1411 N 0.33023 0.94218 0.25114
 N1412 N 0.32310 0.91479 0.27755
 N1413 N 0.17051 0.92738 0.74837
 N1414 N 0.18045 0.90930 0.71679
 N1415 N 0.67457 0.41940 0.25696
 N1416 N 0.68969 0.40389 0.22606
 N1417 N 0.67716 0.56405 0.25072
 N1418 N 0.68254 0.59196 0.27656
 N1419 N 0.16880 0.06971 0.74285
 N1420 N 0.17524 0.09627 0.76985
 N1421 N 0.33453 0.08435 0.25386
 N1422 N 0.31880 0.09830 0.22174
 N1423 N 0.83417 0.58617 0.75015
 N1424 N 0.81511 0.59837 0.71909
 N1425 N 0.93161 0.73394 0.15421
 N1426 N 0.90345 0.75966 0.15352
 N1427 N 0.43270 0.24147 0.66664
 N1428 N 0.40499 0.26772 0.66610
 N1429 N 0.41436 0.73817 0.85901
 N1430 N 0.41365 0.74534 0.82193
 N1431 N 0.92791 0.22233 0.34865
 N1432 N 0.89839 0.20056 0.34006
 N1433 N 0.06483 0.24394 0.33483
 N1434 N 0.09569 0.26776 0.33560
 N1435 N 0.55021 0.74529 0.82608
 N1436 N 0.58432 0.76365 0.83060
 N1437 N 0.56941 0.22910 0.65537
 N1438 N 0.57866 0.25596 0.68080
 N1439 N 0.06678 0.73041 0.15771
 N1440 N 0.07722 0.75924 0.18064
   
