data_POSCAR
  _audit_creation_date              2014-09-24
  _audit_creation_method            'ToBaCCo'
  _symmetry_space_group_name_H-M    'P1'
  _symmetry_Int_Tables_number       1
  _symmetry_cell_setting            triclinic
  loop_
  _symmetry_equiv_pos_as_xyz
 x,y,z
_cell_length_a 56.2114
_cell_length_b 56.5076
_cell_length_c 56.3490
_cell_angle_alpha 89.476600
_cell_angle_beta 90.471000
_cell_angle_gamma 90.325600
loop_
  _atom_site_label
  _atom_site_type_symbol
  _atom_site_fract_x
  _atom_site_fract_y
  _atom_site_fract_z
C1 C 0.11491 0.00413 0.22909
 C2 C 0.13384 0.02332 0.23229
 C3 C 0.14761 0.02072 0.25193
 C4 C 0.14114 -0.00093 0.26729
 C5 C 0.12846 -0.01920 0.23049
 C6 C 0.14195 -0.02212 0.25040
 C7 C 0.10065 0.00468 0.25233
 C8 C 0.11439 0.00198 0.27235
 H9 H 0.13540 0.03853 0.22052
 H10 H 0.15256 -0.00316 0.28331
 H11 H 0.12630 -0.03293 0.21731
 H12 H 0.08168 0.00742 0.25319
 C13 C 0.38728 0.00358 0.73194
 C14 C 0.37446 -0.02006 0.73616
 C15 C 0.36108 -0.02080 0.75611
 C16 C 0.36139 0.00257 0.77012
 C17 C 0.36705 0.02165 0.73180
 C18 C 0.35377 0.02175 0.75189
 C19 C 0.40058 0.00801 0.75359
 C20 C 0.38667 0.00744 0.77493
 H21 H 0.37470 -0.03470 0.72392
 H22 H 0.34951 0.00204 0.78566
 H23 H 0.36475 0.03467 0.71780
 H24 H 0.41978 0.00934 0.75346
 C25 C 0.88099 0.50041 0.22440
 C26 C 0.86203 0.48133 0.22774
 C27 C 0.85042 0.48208 0.24872
 C28 C 0.85880 0.50246 0.26492
 C29 C 0.86823 0.52378 0.22852
 C30 C 0.85673 0.52506 0.24956
 C31 C 0.89737 0.49757 0.24628
 C32 C 0.88594 0.49905 0.26756
 H33 H 0.85955 0.46700 0.21528
 H34 H 0.84897 0.50356 0.28186
 H35 H 0.86999 0.53889 0.21666
 H36 H 0.91631 0.49500 0.24534
 C37 C 0.61434 0.50152 0.72688
 C38 C 0.63322 0.52094 0.72828
 C39 C 0.64752 0.51985 0.74774
 C40 C 0.64168 0.49900 0.76457
 C41 C 0.62815 0.47837 0.72925
 C42 C 0.64235 0.47680 0.74890
 C43 C 0.60085 0.50329 0.75050
 C44 C 0.61502 0.50168 0.77029
 H45 H 0.63405 0.53545 0.71559
 H46 H 0.65355 0.49785 0.78035
 H47 H 0.62613 0.46409 0.71668
 H48 H 0.58183 0.50506 0.75177
 C49 C 0.22628 0.11614 1.00828
 C50 C 0.22963 0.13477 1.02742
 C51 C 0.25017 0.14735 1.02591
 C52 C 0.26608 0.14008 1.00515
 C53 C 0.22934 0.12954 0.98483
 C54 C 0.25002 0.14197 0.98299
 C55 C 0.24874 0.10076 1.01040
 C56 C 0.26963 0.11318 1.00842
 H57 H 0.21735 0.13674 1.04200
 H58 H 0.28274 0.15058 1.00370
 H59 H 0.21631 0.12868 0.97057
 H60 H 0.24842 0.08185 1.01309
 C61 C 0.72126 0.38015 0.99419
 C62 C 0.72318 0.36021 0.97837
 C63 C 0.74507 0.34759 0.98023
 C64 C 0.76121 0.35748 0.99839
 C65 C 0.72553 0.37060 1.01775
 C66 C 0.74750 0.35814 1.02063
 C67 C 0.74218 0.39468 0.98882
 C68 C 0.76462 0.38261 0.99179
 H69 H 0.71106 0.35786 0.96348
 H70 H 0.77767 0.34716 1.00021
 H71 H 0.71217 0.37145 1.03147
 H72 H 0.74091 0.41158 0.97984
 C73 C 0.23162 0.88471 0.50048
 C74 C 0.23623 0.87138 0.47757
 C75 C 0.25720 0.85968 0.47715
 C76 C 0.27220 0.86239 0.49995
 C77 C 0.23457 0.86628 0.52033
 C78 C 0.25569 0.85477 0.52030
 C79 C 0.25355 0.90102 0.50334
 C80 C 0.27480 0.88936 0.50300
 H81 H 0.22393 0.87151 0.46265
 H82 H 0.28926 0.85258 0.49979
 H83 H 0.22224 0.86471 0.53496
 H84 H 0.25275 0.91998 0.50521
 C85 C 0.73399 0.61906 0.49336
 C86 C 0.73582 0.63330 0.51616
 C87 C 0.75622 0.64595 0.51863
 C88 C 0.77353 0.64317 0.49785
 C89 C 0.73827 0.63712 0.47340
 C90 C 0.75878 0.64973 0.47569
 C91 C 0.75656 0.60367 0.49339
 C92 C 0.77731 0.61624 0.49570
 H93 H 0.72212 0.63298 0.52959
 H94 H 0.79004 0.65390 0.49958
 H95 H 0.72683 0.63861 0.45789
 H96 H 0.75638 0.58472 0.49122
 C97 C -0.00011 0.22850 0.11380
 C98 C 0.02210 0.23255 0.12893
 C99 C 0.02218 0.25296 0.14134
 C100 C -0.00025 0.26806 0.13755
 C101 C -0.02095 0.23085 0.13089
 C102 C -0.02134 0.25149 0.14313
 C103 C -0.00181 0.25082 0.09802
 C104 C -0.00197 0.27152 0.11040
 H105 H 0.03705 0.22049 0.12918
 H106 H -0.00030 0.28474 0.14781
 H107 H -0.03540 0.21809 0.13154
 H108 H -0.00319 0.25065 0.07892
 C109 C 0.00108 0.72682 0.38280
 C110 C -0.01841 0.72721 0.36606
 C111 C -0.02093 0.74874 0.35288
 C112 C -0.00283 0.76650 0.35908
 C113 C 0.02315 0.73334 0.36838
 C114 C 0.02122 0.75393 0.35593
 C115 C -0.00267 0.74857 0.39858
 C116 C -0.00419 0.76953 0.38628
 H117 H -0.03154 0.71309 0.36553
 H118 H -0.00390 0.78324 0.34869
 H119 H 0.03963 0.72350 0.36950
 H120 H -0.00171 0.74797 0.41769
 C121 C 0.49556 0.22653 0.88988
 C122 C 0.47436 0.22936 0.87288
 C123 C 0.47611 0.24816 0.85779
 C124 C 0.49924 0.26268 0.86078
 C125 C 0.51692 0.22545 0.87324
 C126 C 0.51921 0.24430 0.85823
 C127 C 0.49796 0.25040 0.90223
 C128 C 0.50005 0.26941 0.88724
 H129 H 0.45939 0.21731 0.87208
 H130 H 0.50075 0.27781 0.84819
 H131 H 0.52982 0.21130 0.87407
 H132 H 0.49766 0.25194 0.92137
 C133 C 0.49652 0.73163 0.60770
 C134 C 0.52026 0.73278 0.62094
 C135 C 0.52232 0.75082 0.63650
 C136 C 0.50010 0.76647 0.63770
 C137 C 0.47761 0.73134 0.62702
 C138 C 0.47935 0.74931 0.64284
 C139 C 0.49398 0.75625 0.59608
 C140 C 0.49596 0.77454 0.61174
 H141 H 0.53457 0.72044 0.61779
 H142 H 0.50174 0.78108 0.65065
 H143 H 0.46288 0.71890 0.62687
 H144 H 0.49163 0.75922 0.57726
 C145 C 0.88508 0.99863 0.77077
 C146 C 0.87287 1.02099 0.76871
 C147 C 0.85875 1.02400 0.74763
 C148 C 0.85924 1.00314 0.73229
 C149 C 0.86571 0.97978 0.76827
 C150 C 0.85216 0.98194 0.74833
 C151 C 0.89928 0.99649 0.74767
 C152 C 0.88599 0.99933 0.72744
 H153 H 0.87348 1.03378 0.78290
 H154 H 0.84835 1.00459 0.71587
 H155 H 0.86400 0.96487 0.78039
 H156 H 0.91796 0.99222 0.74708
 C157 C 0.38878 0.49858 0.26771
 C158 C 0.37543 0.52197 0.26494
 C159 C 0.35992 0.52278 0.24626
 C160 C 0.35908 0.49980 0.23177
 C161 C 0.36939 0.47962 0.26858
 C162 C 0.35391 0.48013 0.25006
 C163 C 0.40064 0.49521 0.24347
 C164 C 0.38520 0.49608 0.22462
 H165 H 0.37836 0.53679 0.27669
 H166 H 0.34629 0.50035 0.21665
 H167 H 0.36877 0.46598 0.28223
 H168 H 0.41953 0.49324 0.24103
 C169 C 0.61421 0.99949 0.27687
 C170 C 0.62816 0.97702 0.27130
 C171 C 0.64021 0.97806 0.25048
 C172 C 0.63708 1.00170 0.23683
 C173 C 0.63132 1.01852 0.27550
 C174 C 0.64395 1.02024 0.25368
 C175 C 0.59791 1.00260 0.25498
 C176 C 0.60977 1.00343 0.23388
 H177 H 0.62645 0.96073 0.28145
 H178 H 0.64699 1.00201 0.21987
 H179 H 0.63226 1.03203 0.28901
 H180 H 0.57872 1.00157 0.25589
 C181 C 0.11211 0.50220 0.77093
 C182 C 0.12571 0.47894 0.76878
 C183 C 0.13947 0.47751 0.74909
 C184 C 0.13850 0.49971 0.73306
 C185 C 0.13098 0.52151 0.76918
 C186 C 0.14473 0.52054 0.74956
 C187 C 0.09807 0.50391 0.74742
 C188 C 0.11171 0.50223 0.72755
 H189 H 0.12272 0.46392 0.78049
 H190 H 0.14997 0.49853 0.71718
 H191 H 0.13223 0.53585 0.78179
 H192 H 0.07890 0.50404 0.74639
 C193 C 0.76920 0.88508 0.00359
 C194 C 0.76628 0.86627 0.02314
 C195 C 0.74657 0.85239 0.02054
 C196 C 0.73141 0.85849 -0.00152
 C197 C 0.76842 0.87130 -0.01951
 C198 C 0.74894 0.85734 -0.02230
 C199 C 0.74564 0.89878 0.00407
 C200 C 0.72582 0.88498 0.00138
 H201 H 0.77752 0.86550 0.03883
 H202 H 0.71559 0.84683 -0.00358
 H203 H 0.78229 0.87263 -0.03273
 H204 H 0.74456 0.91753 0.00739
 C205 C 0.27665 0.38825 0.50387
 C206 C 0.27496 0.37150 0.52532
 C207 C 0.25486 0.35791 0.52583
 C208 C 0.23824 0.36197 0.50433
 C209 C 0.27373 0.37245 0.48229
 C210 C 0.25381 0.35887 0.48232
 C211 C 0.25334 0.40242 0.50479
 C212 C 0.23321 0.38873 0.50500
 H213 H 0.28768 0.37191 0.53985
 H214 H 0.22207 0.35061 0.50447
 H215 H 0.28581 0.37309 0.46739
 H216 H 0.25266 0.42144 0.50615
 C217 C 0.26715 0.61226 -0.00193
 C218 C 0.26292 0.62854 -0.02335
 C219 C 0.24287 0.64169 -0.02215
 C220 C 0.22848 0.63751 0.00058
 C221 C 0.26625 0.62842 0.01959
 C222 C 0.24631 0.64169 0.02108
 C223 C 0.24409 0.59736 -0.00039
 C224 C 0.22376 0.61055 0.00073
 H225 H 0.27371 0.62800 -0.03920
 H226 H 0.21237 0.64871 0.00136
 H227 H 0.27998 0.62847 0.03322
 H228 H 0.24361 0.57829 -0.00079
 C229 C 0.77704 0.11454 0.50003
 C230 C 0.77567 0.13017 0.47959
 C231 C 0.75528 0.14507 0.47872
 C232 C 0.74016 0.14221 0.49971
 C233 C 0.77569 0.12970 0.52049
 C234 C 0.75545 0.14482 0.52092
 C235 C 0.75432 0.10165 0.49996
 C236 C 0.73359 0.11683 0.49967
 H237 H 0.78736 0.12835 0.46447
 H238 H 0.72521 0.15483 0.49920
 H239 H 0.78872 0.12904 0.53477
 H240 H 0.75285 0.08294 0.50351
 C241 C 1.00179 0.77410 0.88658
 C242 C 1.02480 0.77127 0.87272
 C243 C 1.02552 0.75167 0.85887
 C244 C 1.00266 0.73655 0.85981
 C245 C 0.98206 0.77330 0.86791
 C246 C 0.98231 0.75392 0.85389
 C247 C 0.99889 0.75059 0.90026
 C248 C 0.99994 0.73087 0.88649
 H249 H 1.03982 0.78320 0.87478
 H250 H 1.00313 0.72080 0.84821
 H251 H 0.96782 0.78615 0.86716
 H252 H 0.99584 0.74931 0.91909
 C253 C 0.50902 0.27565 0.38597
 C254 C 0.52582 0.27384 0.36473
 C255 C 0.52286 0.25380 0.35174
 C256 C 0.50291 0.23741 0.36095
 C257 C 0.48412 0.27293 0.37549
 C258 C 0.48074 0.25315 0.36245
 C259 C 0.51341 0.25257 0.39994
 C260 C 0.51000 0.23254 0.38699
 H261 H 0.54112 0.28536 0.36245
 H262 H 0.50026 0.22126 0.35013
 H263 H 0.47034 0.28602 0.37786
 H264 H 0.51897 0.25211 0.41836
 C265 C 1.00002 0.26874 0.61007
 C266 C 0.97587 0.26536 0.62186
 C267 C 0.97372 0.24525 0.63506
 C268 C 0.99639 0.23008 0.63557
 C269 C 1.01823 0.26680 0.63023
 C270 C 1.01642 0.24688 0.64361
 C271 C 1.00339 0.24589 0.59574
 C272 C 1.00140 0.22561 0.60909
 H273 H 0.96147 0.27787 0.61953
 H274 H 0.99472 0.21385 0.64668
 H275 H 1.03242 0.27962 0.63281
 H276 H 1.00695 0.24553 0.57695
 C277 C 0.49964 0.76655 0.10972
 C278 C 0.47596 0.76366 0.12260
 C279 C 0.47437 0.74406 0.13668
 C280 C 0.49706 0.72890 0.13690
 C281 C 0.51855 0.76555 0.12928
 C282 C 0.51736 0.74611 0.14351
 C283 C 0.50253 0.74311 0.09636
 C284 C 0.50085 0.72338 0.11045
 H285 H 0.46140 0.77595 0.12016
 H286 H 0.49589 0.71306 0.14864
 H287 H 0.53254 0.77872 0.13099
 H288 H 0.50512 0.74182 0.07748
 O289 O -0.01469 0.98695 0.93398
 O290 O 0.02359 1.00122 0.93288
 O291 O -0.01337 0.93342 0.98837
 O292 O -0.00524 0.93041 1.02679
 O293 O -0.06933 0.98608 0.98731
 O294 O -0.07141 1.02597 0.99825
 O295 O 0.04542 0.99762 1.05221
 O296 O 0.04989 0.96152 1.03481
 O297 O 0.04757 1.04899 0.99872
 O298 O 0.02737 1.05548 0.96122
 O299 O -0.00695 1.05062 1.04846
 O300 O -0.04332 1.02961 1.05500
 O301 O 0.01212 1.01381 1.06780
 O302 O -0.03071 0.99905 1.06813
 O303 O 0.00976 1.06733 1.01579
 O304 O -0.00359 1.06798 0.97298
 O305 O 0.06392 1.01671 1.01660
 O306 O 0.06507 0.97692 0.99808
 O307 O -0.04807 1.00401 0.94850
 O308 O -0.05418 1.04114 0.96934
 O309 O -0.05366 0.95358 1.00541
 O310 O -0.03166 0.94990 1.04376
 O311 O 0.00341 0.94937 0.95530
 O312 O 0.04170 0.97148 0.95343
 Zr313 Zr 0.00824 0.98538 0.96337
 O314 O 0.03001 1.00781 0.98381
 Zr315 Zr -0.01760 0.96220 1.01113
 O316 O 0.00410 0.98266 1.03361
 Zr317 Zr -0.04061 1.00972 0.98482
 O318 O -0.02095 1.03238 1.00711
 Zr319 Zr 0.03616 0.99162 1.01685
 O320 O 0.01600 0.96804 0.99572
 Zr321 Zr 0.01218 1.03930 0.99160
 O322 O -0.00839 1.01830 0.96821
 Zr323 Zr -0.01260 1.01517 1.03937
 O324 O -0.03550 0.99383 1.01844
 O325 O -0.02467 0.97743 0.97821
 O326 O 0.02006 1.02383 1.02438
 C327 C -0.03579 0.99526 0.93151
 C328 C -0.00473 0.93178 0.96743
 C329 C -0.07114 0.96526 0.99640
 C330 C 0.03365 1.00629 1.06949
 C331 C 0.06509 1.03798 1.00844
 C332 C 0.00173 1.06836 1.03703
 H333 H 0.04510 1.01079 0.97536
 H334 H -0.03013 1.04701 1.00961
 H335 H -0.03459 0.96704 0.96805
 H336 H 0.00708 0.97378 1.04853
 H337 H 0.04664 0.94777 1.02449
 H338 H 0.01018 0.93421 1.03444
 H339 H -0.01781 1.07289 0.98187
 H340 H -0.04236 1.04660 0.95754
 H341 H 0.07954 0.97826 1.00819
 H342 H 0.03965 0.96235 0.93858
 H343 H -0.05057 1.04055 1.04325
 H344 H -0.07295 1.02042 1.01489
 H345 H 0.01769 1.01768 0.93205
 H346 H 0.03955 1.04462 0.95507
 H347 H -0.04516 0.96032 1.04764
 H348 H -0.02080 0.98587 1.07420
 O349 O 0.55097 0.50412 0.54812
 O350 O 0.55732 0.46795 0.53142
 O351 O 0.55458 0.55246 0.48824
 O352 O 0.53540 0.55918 0.45451
 O353 O 0.49698 0.55758 0.53911
 O354 O 0.46155 0.53577 0.54536
 O355 O 0.49357 0.48666 0.42888
 O356 O 0.53094 0.50252 0.42744
 O357 O 0.49283 0.43706 0.48466
 O358 O 0.50406 0.43721 0.52618
 O359 O 0.43864 0.48758 0.48025
 O360 O 0.43469 0.52837 0.48905
 O361 O 0.45966 0.50336 0.44253
 O362 O 0.45223 0.54295 0.46192
 O363 O 0.45436 0.45638 0.50045
 O364 O 0.47593 0.45358 0.53954
 O365 O 0.51036 0.45165 0.45139
 O366 O 0.54950 0.47210 0.45097
 O367 O 0.51680 0.52017 0.56196
 O368 O 0.47611 0.50667 0.56248
 O369 O 0.51443 0.57245 0.50594
 O370 O 0.50107 0.56953 0.46398
 O371 O 0.57105 0.52184 0.50882
 O372 O 0.57208 0.48002 0.49599
 Zr373 Zr 0.54304 0.49714 0.51236
 O374 O 0.52344 0.47264 0.49207
 Zr375 Zr 0.51875 0.54294 0.48398
 O376 O 0.49906 0.52031 0.46182
 Zr377 Zr 0.49349 0.52123 0.53253
 O378 O 0.47183 0.49828 0.51249
 Zr379 Zr 0.51613 0.48759 0.45864
 O380 O 0.53764 0.51147 0.47809
 Zr381 Zr 0.48992 0.46641 0.50708
 O382 O 0.51072 0.48857 0.52918
 Zr383 Zr 0.46660 0.51219 0.47814
 O384 O 0.48534 0.53683 0.49943
 O385 O 0.52620 0.52938 0.51758
 O386 O 0.48293 0.47966 0.47314
 C387 C 0.53815 0.51249 0.56484
 C388 C 0.57233 0.54200 0.49814
 C389 C 0.50507 0.57481 0.52648
 C390 C 0.47213 0.49398 0.42607
 C391 C 0.50148 0.43465 0.46379
 C392 C 0.43702 0.46703 0.48998
 H393 H 0.53271 0.45791 0.49063
 H394 H 0.45664 0.49582 0.52090
 H395 H 0.53587 0.54036 0.52735
 H396 H 0.49691 0.52802 0.44613
 H397 H 0.54558 0.51105 0.43238
 H398 H 0.53382 0.54801 0.44119
 H399 H 0.46154 0.46287 0.54309
 H400 H 0.48373 0.49124 0.56587
 H401 H 0.54804 0.46385 0.43556
 H402 H 0.58685 0.48349 0.50511
 H403 H 0.43189 0.52348 0.50570
 H404 H 0.45476 0.54537 0.53221
 H405 H 0.54411 0.46092 0.54066
 H406 H 0.52009 0.43404 0.51988
 H407 H 0.48615 0.57313 0.47239
 H408 H 0.46151 0.54643 0.44745
 O409 O 0.45196 -0.04137 0.50148
 O410 O 0.47176 -0.04602 0.46567
 O411 O 0.50773 -0.04369 0.55393
 O412 O 0.54163 -0.02442 0.56149
 O413 O 0.45574 0.01264 0.55592
 O414 O 0.44930 0.04754 0.53327
 O415 O 0.57035 0.02099 0.49234
 O416 O 0.57222 -0.01670 0.50841
 O417 O 0.51781 0.01886 0.43862
 O418 O 0.47638 0.00660 0.43652
 O419 O 0.51729 0.07276 0.48960
 O420 O 0.50346 0.07512 0.53108
 O421 O 0.55396 0.05371 0.50863
 O422 O 0.53215 0.06040 0.54593
 O423 O 0.50042 0.05666 0.45672
 O424 O 0.46168 0.03492 0.45156
 O425 O 0.55116 0.00373 0.45585
 O426 O 0.55206 -0.03549 0.47585
 O427 O 0.43589 -0.00814 0.51713
 O428 O 0.43445 0.03223 0.50331
 O429 O 0.48817 -0.00503 0.57252
 O430 O 0.52936 0.00973 0.57309
 O431 O 0.49015 -0.06000 0.52147
 O432 O 0.50663 -0.06026 0.48082
 Zr433 Zr 0.48794 -0.03199 0.49662
 O434 O 0.50945 -0.01147 0.47384
 Zr435 Zr 0.51235 -0.00786 0.54454
 O436 O 0.53521 0.01324 0.52379
 Zr437 Zr 0.46430 0.01625 0.51978
 O438 O 0.48503 0.03878 0.49818
 Zr439 Zr 0.54157 -0.00303 0.49118
 O440 O 0.52113 -0.02575 0.51325
 Zr441 Zr 0.49345 0.02129 0.46664
 O442 O 0.47050 -0.00032 0.48719
 Zr443 Zr 0.51809 0.04501 0.51466
 O444 O 0.49608 0.02499 0.53771
 O445 O 0.47993 -0.01587 0.52858
 O446 O 0.52610 0.02938 0.48242
 C447 C 0.43428 -0.02947 0.50937
 C448 C 0.49876 -0.06133 0.54265
 C449 C 0.46736 0.00408 0.57374
 C450 C 0.57162 0.04237 0.50000
 C451 C 0.53942 0.01161 0.43784
 C452 C 0.50978 0.07406 0.46804
 H453 H 0.51237 -0.02049 0.45919
 H454 H 0.47629 0.05363 0.49509
 H455 H 0.46969 -0.02583 0.53888
 H456 H 0.55025 0.01598 0.53259
 H457 H 0.56725 -0.03158 0.51641
 H458 H 0.55604 -0.01939 0.55284
 H459 H 0.45712 0.04903 0.46069
 H460 H 0.43284 0.02504 0.48741
 H461 H 0.56805 -0.03318 0.46885
 H462 H 0.49746 -0.07514 0.48323
 H463 H 0.48885 0.07951 0.52223
 H464 H 0.46171 0.05493 0.54337
 H465 H 0.46132 -0.03353 0.45901
 H466 H 0.48364 -0.00900 0.43362
 H467 H 0.52063 0.02467 0.57554
 H468 H 0.54543 0.05037 0.55161
 O469 O -0.05835 0.45151 0.98879
 O470 O -0.03801 0.44771 0.95358
 O471 O -0.00342 0.44825 1.04245
 O472 O 0.02973 0.46776 1.05171
 O473 O -0.05642 0.50373 1.04437
 O474 O -0.06220 0.53934 1.02330
 O475 O 0.06006 0.51408 0.98379
 O476 O 0.06156 0.47611 0.99836
 O477 O 0.00850 0.51495 0.92941
 O478 O -0.03252 0.50164 0.92548
 O479 O 0.00711 0.56614 0.98114
 O480 O -0.00714 0.56794 1.02211
 O481 O 0.04337 0.54660 1.00019
 O482 O 0.02054 0.55195 1.03780
 O483 O -0.01039 0.55125 0.94798
 O484 O -0.04852 0.52877 0.94153
 O485 O 0.04135 0.49824 0.94612
 O486 O 0.04172 0.45833 0.96511
 O487 O -0.07491 0.48433 1.00476
 O488 O -0.07597 0.52542 0.99201
 O489 O -0.02401 0.48674 1.06161
 O490 O 0.01754 0.50141 1.06313
 O491 O -0.02009 0.43262 1.00918
 O492 O -0.00317 0.43363 0.96859
 Zr493 Zr -0.02234 0.46123 0.98500
 O494 O -0.00064 0.48250 0.96307
 Zr495 Zr 0.00090 0.48434 1.03405
 O496 O 0.02422 0.50580 1.01414
 Zr497 Zr -0.04669 0.50875 1.00884
 O498 O -0.02555 0.53202 0.98848
 Zr499 Zr 0.03116 0.49040 0.98118
 O500 O 0.01043 0.46722 1.00248
 Zr501 Zr -0.01665 0.51544 0.95666
 O502 O -0.03981 0.49304 0.97603
 Zr503 Zr 0.00732 0.53782 1.00559
 O504 O -0.01531 0.51727 1.02762
 O505 O -0.03110 0.47648 1.01720
 O506 O 0.01580 0.52304 0.97310
 C507 C -0.07627 0.46319 0.99646
 C508 C -0.01178 0.43079 1.03045
 C509 C -0.04514 0.49525 1.06240
 C510 C 0.06122 0.53531 0.99181
 C511 C 0.03001 0.50754 0.92851
 C512 C -0.00067 0.56817 0.95973
 H513 H 0.00256 0.47400 0.94818
 H514 H -0.03429 0.54693 0.98568
 H515 H -0.04147 0.46616 1.02701
 H516 H 0.03911 0.50825 1.02328
 H517 H 0.05642 0.46108 1.00595
 H518 H 0.04414 0.47163 1.04250
 H519 H -0.05337 0.54266 0.95086
 H520 H -0.07789 0.51797 0.97628
 H521 H 0.05775 0.46081 0.95826
 H522 H -0.01207 0.41855 0.97070
 H523 H -0.02222 0.57185 1.01385
 H524 H -0.04982 0.54671 1.03347
 H525 H -0.04758 0.46065 0.94648
 H526 H -0.02492 0.48630 0.92217
 H527 H 0.00850 0.51607 1.06605
 H528 H 0.03438 0.54236 1.04286
 O529 O -0.04537 0.54716 0.49909
 O530 O -0.02642 0.55089 0.53530
 O531 O 0.01171 0.54804 0.44875
 O532 O 0.04327 0.52681 0.43972
 O533 O -0.04434 0.49427 0.44451
 O534 O -0.05183 0.45893 0.46590
 O535 O 0.06956 0.48192 0.51250
 O536 O 0.07363 0.51910 0.49571
 O537 O 0.01738 0.48334 0.56281
 O538 O -0.02356 0.49735 0.56456
 O539 O 0.01480 0.43076 0.51106
 O540 O 0.00371 0.42820 0.47095
 O541 O 0.05333 0.44971 0.49443
 O542 O 0.03074 0.44544 0.45474
 O543 O -0.00235 0.44710 0.54330
 O544 O -0.03966 0.47027 0.54842
 O545 O 0.05083 0.50016 0.54763
 O546 O 0.05309 0.53910 0.52705
 O547 O -0.06318 0.51461 0.48319
 O548 O -0.06573 0.47348 0.49656
 O549 O -0.01078 0.51038 0.42883
 O550 O 0.03056 0.49355 0.42966
 O551 O -0.00626 0.56461 0.48048
 O552 O 0.00937 0.56411 0.52166
 Zr553 Zr -0.01014 0.53655 0.50490
 O554 O 0.01004 0.51539 0.52829
 Zr555 Zr 0.01366 0.51193 0.45736
 O556 O 0.03582 0.49063 0.47882
 Zr557 Zr -0.03562 0.48936 0.48059
 O558 O -0.01565 0.46609 0.50225
 Zr559 Zr 0.04201 0.50658 0.51182
 O560 O 0.02284 0.52957 0.48897
 Zr561 Zr -0.00713 0.48290 0.53433
 O562 O -0.02903 0.50538 0.51351
 Zr563 Zr 0.01761 0.45912 0.48691
 O564 O -0.00396 0.47957 0.46352
 O565 O -0.01850 0.52100 0.47254
 O566 O 0.02548 0.47433 0.51960
 C567 C -0.06364 0.53600 0.49096
 C568 C 0.00326 0.56583 0.45986
 C569 C -0.03225 0.50256 0.42702
 C570 C 0.07070 0.46070 0.50464
 C571 C 0.03889 0.49101 0.56477
 C572 C 0.00625 0.42947 0.53207
 H573 H 0.01299 0.52414 0.54316
 H574 H -0.02498 0.45141 0.50477
 H575 H -0.02813 0.53150 0.46214
 H576 H 0.05096 0.48775 0.47055
 H577 H 0.06952 0.53410 0.48746
 H578 H 0.05704 0.52487 0.45056
 H579 H -0.04499 0.45673 0.53868
 H580 H -0.06792 0.48141 0.51197
 H581 H 0.06888 0.53665 0.53464
 H582 H 0.00090 0.57929 0.51904
 H583 H -0.01326 0.42709 0.47531
 H584 H -0.03980 0.45165 0.45556
 H585 H -0.03662 0.53826 0.54212
 H586 H -0.01558 0.51258 0.56807
 H587 H 0.02018 0.47996 0.42554
 H588 H 0.04630 0.45306 0.45157
 O589 O 0.56484 0.98293 0.01653
 O590 O 0.56743 1.02258 0.00478
 O591 O 0.51099 0.98322 0.07045
 O592 O 0.47257 0.99100 0.07364
 O593 O 0.50894 0.93144 0.01268
 O594 O 0.49630 0.93365 -0.02752
 O595 O 0.44817 1.04788 0.01119
 O596 O 0.46682 1.04807 0.04770
 O597 O 0.50314 1.05365 -0.03941
 O598 O 0.53876 1.03242 -0.04815
 O599 O 0.44980 1.00036 -0.04720
 O600 O 0.44234 0.96239 -0.02841
 O601 O 0.43186 1.01702 -0.00900
 O602 O 0.42890 0.97388 0.00208
 O603 O 0.48274 1.01884 -0.06150
 O604 O 0.52489 1.00388 -0.06374
 O605 O 0.48449 1.06690 -0.00648
 O606 O 0.50379 1.06402 0.03330
 O607 O 0.54784 0.95235 -0.00358
 O608 O 0.52666 0.95050 -0.04097
 O609 O 0.49283 0.94470 0.04689
 O610 O 0.45483 0.96654 0.05191
 O611 O 0.54491 0.99949 0.05570
 O612 O 0.54882 1.03859 0.03651
 Zr613 Zr 0.53660 1.00713 0.01994
 O614 O 0.51649 1.03149 -0.00027
 Zr615 Zr 0.48776 0.98122 0.04101
 O616 O 0.46576 1.00499 0.02218
 Zr617 Zr 0.51208 0.96188 -0.00857
 O618 O 0.49071 0.98423 -0.02970
 Zr619 Zr 0.48363 1.03715 0.01618
 O620 O 0.50463 1.01446 0.03781
 Zr621 Zr 0.50765 1.01722 -0.03343
 O622 O 0.53028 0.99391 -0.01439
 Zr623 Zr 0.45897 0.99172 -0.01192
 O624 O 0.47899 0.96659 0.00784
 O625 O 0.52012 0.97448 0.02512
 O626 O 0.47521 1.02447 -0.01755
 C627 C 0.56573 0.96260 0.00641
 C628 C 0.53243 0.99102 0.07283
 C629 C 0.50090 0.92815 0.03371
 C630 C 0.43064 1.03750 0.00070
 C631 C 0.49365 1.07003 -0.02707
 C632 C 0.46134 1.01098 -0.06379
 H633 H 0.52563 1.04643 -0.00180
 H634 H 0.48770 0.97663 -0.04517
 H635 H 0.53003 0.96358 0.03480
 H636 H 0.45099 1.00752 0.03120
 H637 H 0.47746 1.04341 0.06102
 H638 H 0.46495 1.00652 0.07095
 H639 H 0.51512 0.99072 -0.07004
 H640 H 0.53838 0.96272 -0.04585
 H641 H 0.49406 1.07861 0.03344
 H642 H 0.56402 1.03526 0.04495
 H643 H 0.45318 0.95667 -0.04081
 H644 H 0.48005 0.93159 -0.02114
 H645 H 0.56838 1.01683 -0.01172
 H646 H 0.54617 1.04250 -0.03585
 H647 H 0.45024 0.95457 0.03997
 H648 H 0.42418 0.98205 0.01674
 O649 O 0.42780 0.51147 0.00451
 O650 O 0.42623 0.47394 -0.01125
 O651 O 0.47803 0.50541 0.06205
 O652 O 0.51589 0.49484 0.06726
 O653 O 0.48421 0.56371 0.01199
 O654 O 0.49848 0.56695 -0.02750
 O655 O 0.54449 0.44822 0.00072
 O656 O 0.52357 0.44271 0.03536
 O657 O 0.49432 0.44951 -0.05494
 O658 O 0.45789 0.47153 -0.06286
 O659 O 0.54669 0.50255 -0.05142
 O660 O 0.55245 0.53826 -0.02805
 O661 O 0.56236 0.48139 -0.01401
 O662 O 0.56434 0.52268 0.00179
 O663 O 0.51439 0.48768 -0.07074
 O664 O 0.47222 0.50215 -0.07395
 O665 O 0.51054 0.43224 -0.02207
 O666 O 0.48804 0.42899 0.01583
 O667 O 0.44554 0.54474 -0.01026
 O668 O 0.46921 0.55262 -0.04482
 O669 O 0.49836 0.54535 0.04520
 O670 O 0.53537 0.52275 0.05052
 O671 O 0.44521 0.49104 0.04314
 O672 O 0.44353 0.45400 0.01978
 Zr673 Zr 0.45603 0.48745 0.00758
 O674 O 0.47727 0.46601 -0.01402
 Zr675 Zr 0.50331 0.51006 0.03516
 O676 O 0.52645 0.48908 0.01531
 Zr677 Zr 0.48188 0.53639 -0.01325
 O678 O 0.50452 0.51694 -0.03535
 Zr679 Zr 0.50895 0.45821 0.00419
 O680 O 0.48674 0.47764 0.02690
 Zr681 Zr 0.48807 0.48472 -0.04445
 O682 O 0.46437 0.50535 -0.02431
 Zr683 Zr 0.53522 0.50693 -0.01631
 O684 O 0.51397 0.52918 0.00480
 O685 O 0.47193 0.51916 0.01782
 O686 O 0.51943 0.47534 -0.02698
 C687 C 0.42717 0.53291 -0.00332
 C688 C 0.45641 0.49785 0.06189
 C689 C 0.49136 0.56382 0.03375
 C690 C 0.56274 0.45971 -0.00684
 C691 C 0.50366 0.43182 -0.04383
 C692 C 0.53608 0.49501 -0.07019
 H693 H 0.46848 0.45136 -0.01807
 H694 H 0.50840 0.52661 -0.04952
 H695 H 0.46143 0.52890 0.02777
 H696 H 0.54065 0.48525 0.02505
 H697 H 0.51201 0.44543 0.04821
 H698 H 0.52490 0.48056 0.06298
 H699 H 0.48193 0.51635 -0.07763
 H700 H 0.45827 0.54110 -0.05239
 H701 H 0.49789 0.41453 0.01475
 H702 H 0.42792 0.45615 0.02755
 H703 H 0.54262 0.54525 -0.04093
 H704 H 0.51453 0.56777 -0.02019
 H705 H 0.42687 0.48084 -0.02744
 H706 H 0.45088 0.45868 -0.05310
 H707 H 0.54105 0.53593 0.04030
 H708 H 0.56804 0.51275 0.01588
 O709 O -0.06578 0.01039 0.51058
 O710 O -0.06773 -0.02787 0.49686
 O711 O -0.01415 0.00770 0.56686
 O712 O 0.02365 -0.00429 0.57152
 O713 O -0.00933 0.06298 0.51457
 O714 O 0.00398 0.06487 0.47489
 O715 O 0.05078 -0.05321 0.50548
 O716 O 0.03130 -0.05746 0.54086
 O717 O -0.00176 -0.05339 0.45168
 O718 O -0.03772 -0.03161 0.44389
 O719 O 0.05122 -0.00044 0.45173
 O720 O 0.05791 0.03594 0.47378
 O721 O 0.06816 -0.02035 0.48954
 O722 O 0.07072 0.02130 0.50355
 O723 O 0.01829 -0.01577 0.43388
 O724 O -0.02403 -0.00124 0.43177
 O725 O 0.01507 -0.07005 0.48456
 O726 O -0.00524 -0.07145 0.52367
 O727 O -0.04835 0.04300 0.49406
 O728 O -0.02548 0.04981 0.45868
 O729 O 0.00624 0.04604 0.54790
 O730 O 0.04316 0.02325 0.55330
 O731 O -0.04728 -0.00820 0.54976
 O732 O -0.04930 -0.04635 0.52813
 Zr733 Zr -0.03741 -0.01340 0.51408
 O734 O -0.01693 -0.03554 0.49251
 Zr735 Zr 0.01064 0.01021 0.53926
 O736 O 0.03309 -0.01164 0.51946
 Zr737 Zr -0.01214 0.03472 0.49054
 O738 O 0.00977 0.01452 0.46853
 Zr739 Zr 0.01533 -0.04293 0.50988
 O740 O -0.00608 -0.02256 0.53269
 Zr741 Zr -0.00709 -0.01788 0.46113
 O742 O -0.03011 0.00337 0.48130
 Zr743 Zr 0.04096 0.00504 0.48701
 O744 O 0.02044 0.02814 0.50792
 O745 O -0.02120 0.01870 0.52249
 O746 O 0.02484 -0.02688 0.47781
 C747 C -0.06655 0.03144 0.50177
 C748 C -0.03574 0.00011 0.56768
 C749 C -0.00140 0.06401 0.53601
 C750 C 0.06884 -0.04181 0.49731
 C751 C 0.00720 -0.07103 0.46311
 C752 C 0.03994 -0.00835 0.43351
 H753 H -0.02596 -0.05025 0.48927
 H754 H 0.01322 0.02371 0.45394
 H755 H -0.03143 0.02892 0.53223
 H756 H 0.04757 -0.01516 0.52889
 H757 H 0.02048 -0.05402 0.55416
 H758 H 0.03318 -0.01829 0.56740
 H759 H -0.01418 0.01253 0.42698
 H760 H -0.03693 0.03824 0.45198
 H761 H 0.00438 -0.08607 0.52269
 H762 H -0.06465 -0.04394 0.53631
 H763 H 0.04770 0.04257 0.46101
 H764 H 0.02027 0.06587 0.48164
 H765 H -0.06775 -0.02156 0.48042
 H766 H -0.04484 -0.04370 0.45452
 H767 H 0.04866 0.03596 0.54242
 H768 H 0.07461 0.01210 0.51808
 O769 O 0.74039 0.18116 0.25967
 O770 O 0.78043 0.18297 0.25213
 O771 O 0.73131 0.23441 0.31429
 O772 O 0.73610 0.27325 0.31762
 O773 O 0.68269 0.23124 0.25311
 O774 O 0.68580 0.24408 0.21327
 O775 O 0.79334 0.30364 0.26060
 O776 O 0.79429 0.28429 0.29617
 O777 O 0.80667 0.25195 0.20854
 O778 O 0.79000 0.21219 0.20024
 O779 O 0.75069 0.29732 0.19782
 O780 O 0.71144 0.30155 0.21254
 O781 O 0.76193 0.31717 0.23879
 O782 O 0.71746 0.31404 0.24506
 O783 O 0.77119 0.26573 0.18439
 O784 O 0.76150 0.22313 0.18179
 O785 O 0.81731 0.26990 0.24297
 O786 O 0.81417 0.24978 0.28243
 O787 O 0.70936 0.19440 0.23704
 O788 O 0.70608 0.21657 0.20048
 O789 O 0.69327 0.24749 0.28847
 O790 O 0.71055 0.28801 0.29401
 O791 O 0.75153 0.20272 0.30057
 O792 O 0.79252 0.20317 0.28457
 Zr793 Zr 0.76097 0.21185 0.26550
 O794 O 0.78458 0.23429 0.24693
 Zr795 Zr 0.72925 0.25712 0.28456
 O796 O 0.75205 0.28142 0.26743
 Zr797 Zr 0.71470 0.23132 0.23384
 O798 O 0.73629 0.25500 0.21437
 Zr799 Zr 0.78627 0.26723 0.26375
 O800 O 0.76429 0.24406 0.28384
 Zr801 Zr 0.77104 0.24171 0.21294
 O802 O 0.74885 0.21688 0.23034
 Zr803 Zr 0.74011 0.28723 0.23242
 O804 O 0.71569 0.26458 0.25036
 O805 O 0.72641 0.22441 0.26827
 O806 O 0.77460 0.27456 0.22920
 C807 C 0.72125 0.17778 0.24742
 C808 C 0.74075 0.21391 0.31709
 C809 C 0.67799 0.23823 0.27419
 C810 C 0.78148 0.32036 0.25046
 C811 C 0.82178 0.26273 0.22189
 C812 C 0.76234 0.28645 0.18166
 H813 H 0.80048 0.22694 0.24634
 H814 H 0.72930 0.25728 0.19837
 H815 H 0.71600 0.21314 0.27694
 H816 H 0.75249 0.29614 0.27676
 H817 H 0.78961 0.27319 0.30903
 H818 H 0.75104 0.28238 0.31587
 H819 H 0.74700 0.23054 0.17508
 H820 H 0.71962 0.20642 0.19609
 H821 H 0.82793 0.26080 0.28340
 H822 H 0.78999 0.18801 0.29326
 H823 H 0.70598 0.28925 0.20135
 H824 H 0.68234 0.26015 0.21914
 H825 H 0.77747 0.18268 0.23480
 H826 H 0.80264 0.20830 0.21194
 H827 H 0.69815 0.29061 0.28169
 H828 H 0.72401 0.31951 0.26042
 O829 O 0.75924 0.70413 0.69755
 O830 O 0.79476 0.70150 0.71674
 O831 O 0.70850 0.69599 0.75533
 O832 O 0.69772 0.71502 0.78718
 O833 O 0.69926 0.75253 0.70174
 O834 O 0.71808 0.78907 0.69504
 O835 O 0.76517 0.76436 0.81572
 O836 O 0.75339 0.72632 0.81789
 O837 O 0.81771 0.76827 0.76236
 O838 O 0.82018 0.75848 0.72185
 O839 O 0.76046 0.81803 0.76166
 O840 O 0.71996 0.81727 0.75129
 O841 O 0.74495 0.79565 0.80011
 O842 O 0.70603 0.79874 0.77770
 O843 O 0.79429 0.80558 0.74413
 O844 O 0.80095 0.78340 0.70621
 O845 O 0.80355 0.74968 0.79528
 O846 O 0.78586 0.70982 0.79646
 O847 O 0.74012 0.73594 0.68160
 O848 O 0.74918 0.77752 0.68046
 O849 O 0.68476 0.73425 0.73465
 O850 O 0.68487 0.74753 0.77644
 O851 O 0.74147 0.68272 0.73675
 O852 O 0.78278 0.68645 0.75198
 Zr853 Zr 0.76332 0.71305 0.73346
 O854 O 0.78488 0.73537 0.75432
 Zr855 Zr 0.71393 0.73264 0.75826
 O856 O 0.73363 0.75477 0.78094
 Zr857 Zr 0.73513 0.75920 0.71014
 O858 O 0.75491 0.78331 0.73074
 Zr859 Zr 0.76800 0.74153 0.78672
 O860 O 0.74711 0.71748 0.76672
 Zr861 Zr 0.78849 0.76905 0.73867
 O862 O 0.76942 0.74573 0.71612
 Zr863 Zr 0.73908 0.78757 0.76408
 O864 O 0.71736 0.76612 0.74204
 O865 O 0.72954 0.72614 0.72567
 O866 O 0.77324 0.77514 0.77169
 C867 C 0.75052 0.71581 0.67986
 C868 C 0.72127 0.67936 0.74681
 C869 C 0.68218 0.74354 0.71390
 C870 C 0.75477 0.78446 0.81756
 C871 C 0.82044 0.75916 0.78319
 C872 C 0.78103 0.82187 0.75266
 H873 H 0.80044 0.72758 0.75673
 H874 H 0.75604 0.79842 0.72185
 H875 H 0.71993 0.71535 0.71563
 H876 H 0.72499 0.75621 0.79607
 H877 H 0.74616 0.71102 0.81322
 H878 H 0.70866 0.71685 0.80086
 H879 H 0.79049 0.79675 0.70170
 H880 H 0.76552 0.77154 0.67820
 H881 H 0.79338 0.71208 0.81228
 H882 H 0.78119 0.67128 0.74336
 H883 H 0.72478 0.82005 0.73465
 H884 H 0.70741 0.79529 0.70737
 H885 H 0.80093 0.71510 0.70742
 H886 H 0.82383 0.74225 0.72743
 H887 H 0.67998 0.76183 0.76742
 H888 H 0.70266 0.78924 0.79214
 O889 O 0.29173 0.19726 0.75001
 O890 O 0.29364 0.21276 0.71233
 O891 O 0.30072 0.26062 0.79353
 O892 O 0.28081 0.29306 0.80182
 O893 O 0.24576 0.20719 0.80896
 O894 O 0.20707 0.20012 0.79224
 O895 O 0.23086 0.31441 0.73294
 O896 O 0.26999 0.31707 0.74424
 O897 O 0.22522 0.25677 0.68621
 O898 O 0.23725 0.21578 0.68755
 O899 O 0.17697 0.26062 0.74332
 O900 O 0.17865 0.25444 0.78482
 O901 O 0.19895 0.30032 0.75333
 O902 O 0.19702 0.28298 0.79517
 O903 O 0.18956 0.24033 0.71123
 O904 O 0.21163 0.20220 0.70792
 O905 O 0.24276 0.29120 0.69760
 O906 O 0.28454 0.29320 0.71260
 O907 O 0.26037 0.18380 0.77177
 O908 O 0.21858 0.18160 0.76236
 O909 O 0.26465 0.24105 0.81988
 O910 O 0.24857 0.28220 0.81662
 O911 O 0.31347 0.23819 0.76290
 O912 O 0.30908 0.24886 0.72032
 Zr913 Zr 0.28269 0.23268 0.74192
 O914 O 0.25993 0.25159 0.71876
 Zr915 Zr 0.26366 0.26233 0.78892
 O916 O 0.24080 0.28292 0.76749
 Zr917 Zr 0.23689 0.21255 0.77308
 O918 O 0.21231 0.23089 0.75150
 Zr919 Zr 0.25372 0.28524 0.73276
 O920 O 0.27834 0.26729 0.75493
 Zr921 Zr 0.22624 0.23549 0.71724
 O922 O 0.24986 0.21486 0.73824
 Zr923 Zr 0.20789 0.26551 0.76402
 O924 O 0.23000 0.24590 0.78766
 O925 O 0.27009 0.22858 0.77630
 O926 O 0.22012 0.26961 0.72944
 C927 C 0.28051 0.18095 0.76158
 C928 C 0.31718 0.25044 0.78172
 C929 C 0.25649 0.22018 0.82431
 C930 C 0.21005 0.31676 0.74184
 C931 C 0.23249 0.27804 0.68211
 C932 C 0.17320 0.25005 0.72354
 H933 H 0.26728 0.25280 0.70291
 H934 H 0.19718 0.22189 0.75139
 H935 H 0.28143 0.21966 0.78646
 H936 H 0.23924 0.29882 0.77447
 H937 H 0.28563 0.31269 0.75115
 H938 H 0.27788 0.30571 0.78996
 H939 H 0.19888 0.19838 0.71935
 H940 H 0.22455 0.17764 0.74641
 H941 H 0.28163 0.30816 0.70373
 H942 H 0.32434 0.24037 0.72263
 H943 H 0.17619 0.23737 0.78191
 H944 H 0.20235 0.21308 0.80290
 H945 H 0.27981 0.20300 0.70740
 H946 H 0.25268 0.22234 0.68225
 H947 H 0.23464 0.27313 0.82245
 H948 H 0.20644 0.29774 0.79658
 O949 O 0.19802 0.74976 0.29842
 O950 O 0.21210 0.71147 0.30171
 O951 O 0.26123 0.79304 0.30279
 O952 O 0.29393 0.80010 0.28203
 O953 O 0.20654 0.80433 0.24870
 O954 O 0.19964 0.78666 0.21067
 O955 O 0.31412 0.72885 0.23712
 O956 O 0.31742 0.74211 0.27528
 O957 O 0.25611 0.68222 0.23409
 O958 O 0.21598 0.68266 0.24672
 O959 O 0.26000 0.73619 0.18307
 O960 O 0.25395 0.77716 0.18160
 O961 O 0.30011 0.74783 0.20414
 O962 O 0.28248 0.78942 0.19960
 O963 O 0.23868 0.70525 0.19789
 O964 O 0.20045 0.70314 0.22165
 O965 O 0.29075 0.69432 0.25119
 O966 O 0.29318 0.71129 0.29206
 O967 O 0.18351 0.76728 0.26480
 O968 O 0.18110 0.75701 0.22336
 O969 O 0.24126 0.81695 0.26540
 O970 O 0.28253 0.81319 0.24894
 O971 O 0.24006 0.76218 0.31813
 O972 O 0.24900 0.71952 0.31622
 Zr973 Zr 0.23290 0.74013 0.28884
 O974 O 0.25130 0.71598 0.26749
 Zr975 Zr 0.26267 0.78626 0.26622
 O976 O 0.28296 0.76376 0.24483
 Zr977 Zr 0.21224 0.76854 0.24123
 O978 O 0.23027 0.74609 0.21794
 Zr979 Zr 0.28512 0.72983 0.26008
 O980 O 0.26765 0.75318 0.28318
 Zr981 Zr 0.23473 0.71278 0.23416
 O982 O 0.21447 0.73460 0.25660
 Zr983 Zr 0.26514 0.75854 0.21240
 O984 O 0.24573 0.78306 0.23296
 O985 O 0.22886 0.77361 0.27388
 O986 O 0.26903 0.72482 0.22697
 C987 C 0.18123 0.75965 0.28622
 C988 C 0.25194 0.78159 0.32027
 C989 C 0.21978 0.82033 0.25812
 C990 C 0.31653 0.73683 0.21586
 C991 C 0.27754 0.67855 0.24133
 C992 C 0.24876 0.71646 0.18072
 H993 H 0.25251 0.70051 0.27575
 H994 H 0.22102 0.74519 0.20298
 H995 H 0.22021 0.78417 0.28472
 H996 H 0.29899 0.77071 0.24269
 H997 H 0.31325 0.74982 0.29039
 H998 H 0.30641 0.78807 0.28000
 H999 H 0.19701 0.71280 0.20730
 H1000 H 0.17667 0.74153 0.23046
 H1001 H 0.30801 0.70224 0.28958
 H1002 H 0.24064 0.72244 0.33135
 H1003 H 0.23648 0.77523 0.18043
 H1004 H 0.21261 0.79741 0.20551
 H1005 H 0.20158 0.70646 0.28848
 H1006 H 0.22087 0.67996 0.26342
 H1007 H 0.27302 0.81845 0.23502
 H1008 H 0.29767 0.79116 0.20841
 O1009 O 0.25303 0.79731 0.69823
 O1010 O 0.21428 0.79990 0.71143
 O1011 O 0.29531 0.80348 0.76201
 O1012 O 0.30108 0.78364 0.79577
 O1013 O 0.30882 0.74700 0.71088
 O1014 O 0.28990 0.71029 0.70292
 O1015 O 0.23106 0.73747 0.81579
 O1016 O 0.24308 0.77624 0.81756
 O1017 O 0.18427 0.73259 0.75666
 O1018 O 0.18551 0.74499 0.71628
 O1019 O 0.23877 0.68273 0.76262
 O1020 O 0.28157 0.68325 0.75743
 O1021 O 0.24885 0.70408 0.80250
 O1022 O 0.29048 0.69948 0.78749
 O1023 O 0.20802 0.69677 0.74035
 O1024 O 0.20646 0.72037 0.70180
 O1025 O 0.19636 0.74880 0.79155
 O1026 O 0.21168 0.79072 0.79258
 O1027 O 0.27150 0.76408 0.68533
 O1028 O 0.26144 0.72288 0.68359
 O1029 O 0.31989 0.76629 0.74446
 O1030 O 0.31546 0.75084 0.78561
 O1031 O 0.26471 0.81782 0.73964
 O1032 O 0.22178 0.81517 0.74795
 Zr1033 Zr 0.24286 0.78805 0.73311
 O1034 O 0.21828 0.76653 0.75164
 Zr1035 Zr 0.28851 0.76693 0.76466
 O1036 O 0.26576 0.74514 0.78488
 Zr1037 Zr 0.27213 0.74084 0.71470
 O1038 O 0.24911 0.71746 0.73271
 Zr1039 Zr 0.23157 0.75969 0.78588
 O1040 O 0.25511 0.78315 0.76829
 Zr1041 Zr 0.21545 0.73310 0.73595
 O1042 O 0.23788 0.75555 0.71565
 Zr1043 Zr 0.26092 0.71248 0.76792
 O1044 O 0.28585 0.73343 0.74878
 O1045 O 0.27676 0.77376 0.73027
 O1046 O 0.22694 0.72645 0.77060
 C1047 C 0.26331 0.78508 0.68211
 C1048 C 0.28394 0.82054 0.75188
 C1049 C 0.32443 0.75702 0.72427
 C1050 C 0.23823 0.71608 0.81860
 C1051 C 0.18069 0.73886 0.77822
 C1052 C 0.21927 0.67989 0.75087
 H1053 H 0.20265 0.77444 0.75234
 H1054 H 0.24846 0.70248 0.72378
 H1055 H 0.28772 0.78442 0.72151
 H1056 H 0.27244 0.74330 0.80107
 H1057 H 0.25045 0.79152 0.81283
 H1058 H 0.28910 0.78058 0.80817
 H1059 H 0.21640 0.70633 0.69882
 H1060 H 0.24576 0.72937 0.67886
 H1061 H 0.20241 0.78794 0.80725
 H1062 H 0.22465 0.83015 0.73907
 H1063 H 0.27699 0.67946 0.74090
 H1064 H 0.29942 0.70435 0.71656
 H1065 H 0.20954 0.78645 0.70126
 H1066 H 0.18243 0.76151 0.72093
 H1067 H 0.32002 0.73612 0.77746
 H1068 H 0.29298 0.70987 0.80133
 O1069 O 0.19789 0.25403 0.20729
 O1070 O 0.21442 0.29052 0.20355
 O1071 O 0.25959 0.20775 0.20128
 O1072 O 0.29225 0.19960 0.22117
 O1073 O 0.20686 0.19562 0.25779
 O1074 O 0.19923 0.21448 0.29382
 O1075 O 0.31649 0.26870 0.26766
 O1076 O 0.31867 0.25721 0.22982
 O1077 O 0.25892 0.31774 0.26984
 O1078 O 0.21746 0.31652 0.25884
 O1079 O 0.26301 0.26251 0.32175
 O1080 O 0.25561 0.22182 0.32277
 O1081 O 0.30241 0.24910 0.30012
 O1082 O 0.28253 0.20887 0.30447
 O1083 O 0.24323 0.29453 0.30742
 O1084 O 0.20459 0.29803 0.28577
 O1085 O 0.29304 0.30562 0.25254
 O1086 O 0.29485 0.28786 0.21274
 O1087 O 0.18332 0.23516 0.23994
 O1088 O 0.18219 0.24399 0.28136
 O1089 O 0.24069 0.18355 0.23998
 O1090 O 0.28243 0.18669 0.25400
 O1091 O 0.23833 0.23877 0.18677
 O1092 O 0.25027 0.28077 0.18896
 Zr1093 Zr 0.23356 0.26075 0.21630
 O1094 O 0.25312 0.28412 0.23788
 Zr1095 Zr 0.26217 0.21402 0.23786
 O1096 O 0.28359 0.23559 0.25949
 Zr1097 Zr 0.21266 0.23199 0.26340
 O1098 O 0.23204 0.25371 0.28691
 Zr1099 Zr 0.28679 0.26975 0.24491
 O1100 O 0.26805 0.24714 0.22148
 Zr1101 Zr 0.23738 0.28719 0.27131
 O1102 O 0.21600 0.26612 0.24868
 Zr1103 Zr 0.26664 0.24059 0.29209
 O1104 O 0.24602 0.21696 0.27122
 O1105 O 0.22833 0.22697 0.23054
 O1106 O 0.27161 0.27463 0.27826
 C1107 C 0.18075 0.24497 0.21937
 C1108 C 0.24999 0.21950 0.18413
 C1109 C 0.22028 0.17950 0.24926
 C1110 C 0.31921 0.25920 0.28831
 C1111 C 0.27973 0.32167 0.26134
 C1112 C 0.25291 0.28261 0.32440
 H1113 H 0.25437 0.29956 0.22956
 H1114 H 0.22326 0.25464 0.30200
 H1115 H 0.21886 0.21656 0.21996
 H1116 H 0.29933 0.22803 0.26132
 H1117 H 0.31415 0.24943 0.21476
 H1118 H 0.30516 0.21144 0.22278
 H1119 H 0.20081 0.28732 0.29922
 H1120 H 0.17900 0.26020 0.27538
 H1121 H 0.31006 0.29657 0.21496
 H1122 H 0.24154 0.27831 0.17379
 H1123 H 0.23848 0.22499 0.32487
 H1124 H 0.21247 0.20496 0.30046
 H1125 H 0.20482 0.29629 0.21694
 H1126 H 0.22391 0.32130 0.24322
 H1127 H 0.27379 0.18151 0.26839
 H1128 H 0.29726 0.20642 0.29533
 O1129 O 0.73067 0.81593 0.22730
 O1130 O 0.77101 0.81974 0.23427
 O1131 O 0.72680 0.75431 0.18183
 O1132 O 0.73589 0.71626 0.18391
 O1133 O 0.67882 0.76004 0.24249
 O1134 O 0.68406 0.75497 0.28387
 O1135 O 0.79727 0.70233 0.24632
 O1136 O 0.79515 0.71439 0.20733
 O1137 O 0.80528 0.76398 0.28713
 O1138 O 0.78322 0.80095 0.29045
 O1139 O 0.75537 0.71195 0.30519
 O1140 O 0.71441 0.70256 0.29184
 O1141 O 0.76703 0.68822 0.26907
 O1142 O 0.72338 0.68434 0.26298
 O1143 O 0.77149 0.74776 0.31425
 O1144 O 0.75673 0.78899 0.31070
 O1145 O 0.81682 0.74178 0.25591
 O1146 O 0.81072 0.75341 0.21380
 O1147 O 0.70065 0.80225 0.25068
 O1148 O 0.70105 0.78698 0.29101
 O1149 O 0.69052 0.73898 0.21053
 O1150 O 0.71330 0.70150 0.20977
 O1151 O 0.74206 0.79059 0.19068
 O1152 O 0.78393 0.79585 0.20461
 Zr1153 Zr 0.75412 0.78722 0.22597
 O1154 O 0.78024 0.77102 0.24748
 Zr1155 Zr 0.72768 0.73586 0.21449
 O1156 O 0.75320 0.71744 0.23488
 Zr1157 Zr 0.71081 0.76754 0.26075
 O1158 O 0.73515 0.74996 0.28344
 Zr1159 Zr 0.78550 0.73622 0.23600
 O1160 O 0.76094 0.75314 0.21277
 Zr1161 Zr 0.76820 0.76748 0.28248
 O1162 O 0.74311 0.78644 0.26162
 Zr1163 Zr 0.74223 0.71599 0.27039
 O1164 O 0.71534 0.73241 0.24952
 O1165 O 0.72121 0.77013 0.22559
 O1166 O 0.77512 0.73315 0.27133
 C1167 C 0.71082 0.81854 0.23810
 C1168 C 0.73272 0.77564 0.17627
 C1169 C 0.67442 0.74841 0.22342
 C1170 C 0.78731 0.68602 0.25897
 C1171 C 0.82123 0.75345 0.27494
 C1172 C 0.76581 0.72630 0.31947
 H1173 H 0.79511 0.78041 0.24650
 H1174 H 0.72866 0.74928 0.29967
 H1175 H 0.70922 0.77831 0.21554
 H1176 H 0.75542 0.70153 0.22811
 H1177 H 0.78924 0.72231 0.19270
 H1178 H 0.75173 0.70925 0.18677
 H1179 H 0.74307 0.78097 0.31835
 H1180 H 0.71344 0.79930 0.29322
 H1181 H 0.82567 0.74417 0.21438
 H1182 H 0.77969 0.80934 0.19402
 H1183 H 0.71105 0.71439 0.30418
 H1184 H 0.68311 0.73765 0.28155
 H1185 H 0.76732 0.82311 0.25104
 H1186 H 0.79422 0.80527 0.27748
 H1187 H 0.70198 0.69866 0.22288
 H1188 H 0.72986 0.67774 0.24818
 O1189 O 0.70603 0.30286 0.75235
 O1190 O 0.69963 0.28827 0.71422
 O1191 O 0.69752 0.24203 0.79727
 O1192 O 0.71433 0.20726 0.80352
 O1193 O 0.76036 0.28844 0.80618
 O1194 O 0.79542 0.29421 0.78402
 O1195 O 0.75578 0.18193 0.72933
 O1196 O 0.71840 0.18151 0.74553
 O1197 O 0.75838 0.24011 0.68210
 O1198 O 0.75175 0.28220 0.68508
 O1199 O 0.81352 0.22971 0.73448
 O1200 O 0.81706 0.23738 0.77656
 O1201 O 0.79050 0.19369 0.74675
 O1202 O 0.79812 0.20941 0.78825
 O1203 O 0.79907 0.25046 0.70289
 O1204 O 0.78195 0.29146 0.70144
 O1205 O 0.73960 0.20691 0.69548
 O1206 O 0.70075 0.20734 0.71612
 O1207 O 0.74088 0.31441 0.76966
 O1208 O 0.78128 0.31341 0.75582
 O1209 O 0.73948 0.25634 0.81911
 O1210 O 0.74935 0.21376 0.81444
 O1211 O 0.68338 0.26532 0.76729
 O1212 O 0.68143 0.25361 0.72536
 Zr1213 Zr 0.71177 0.26744 0.74330
 O1214 O 0.72986 0.24694 0.71829
 Zr1215 Zr 0.73334 0.23597 0.78848
 O1216 O 0.75168 0.21363 0.76524
 Zr1217 Zr 0.76238 0.28378 0.76918
 O1218 O 0.78260 0.26344 0.74557
 Zr1219 Zr 0.73475 0.21259 0.73195
 O1220 O 0.71448 0.23240 0.75625
 Zr1221 Zr 0.76438 0.26024 0.71301
 O1222 O 0.74522 0.28264 0.73592
 Zr1223 Zr 0.78521 0.22849 0.75834
 O1224 O 0.76783 0.24969 0.78354
 O1225 O 0.72865 0.27036 0.77620
 O1226 O 0.76882 0.22566 0.72519
 C1227 C 0.71958 0.31848 0.76210
 C1228 C 0.68085 0.25385 0.78688
 C1229 C 0.75109 0.27568 0.82274
 C1230 C 0.77746 0.17837 0.73594
 C1231 C 0.74844 0.21982 0.67882
 C1232 C 0.81562 0.23881 0.71369
 H1233 H 0.72039 0.24675 0.70342
 H1234 H 0.79844 0.27084 0.74363
 H1235 H 0.71976 0.28008 0.78763
 H1236 H 0.75281 0.19754 0.77219
 H1237 H 0.70406 0.18666 0.75413
 H1238 H 0.71479 0.19437 0.79181
 H1239 H 0.79640 0.29357 0.71135
 H1240 H 0.77424 0.31717 0.74008
 H1241 H 0.70113 0.19231 0.70718
 H1242 H 0.66763 0.26403 0.72832
 H1243 H 0.82240 0.25302 0.77058
 H1244 H 0.80157 0.28031 0.79290
 H1245 H 0.71308 0.29853 0.70929
 H1246 H 0.73511 0.27746 0.68166
 H1247 H 0.76505 0.22080 0.81832
 H1248 H 0.78813 0.19507 0.79028
 C1249 C 0.08057 1.00846 1.16047
 C1250 C 0.10541 1.00934 1.16254
 C1251 C 0.11597 1.00810 1.18482
 C1252 C 0.10207 1.00665 1.20539
 C1253 C 0.07716 1.00663 1.20263
 N1254 N 0.06720 1.00745 1.18051
 C1255 C 0.06884 1.00803 1.13693
 N1256 N 0.04633 1.01650 1.13428
 C1257 C 0.03472 1.01639 1.11298
 C1258 C 0.04584 1.00723 1.09281
 C1259 C 0.06893 0.99820 1.09534
 C1260 C 0.08036 0.99843 1.11726
 H1261 H 0.13521 1.00812 1.18603
 H1262 H 0.06550 1.00540 1.21769
 H1263 H 0.01685 1.02335 1.11188
 H1264 H 0.07816 0.99065 1.08044
 H1265 H 0.11672 1.01096 1.14717
 H1266 H 0.09785 0.99065 1.11873
 C1267 C 0.57775 0.50817 0.65930
 C1268 C 0.56446 0.50996 0.68021
 C1269 C 0.57579 0.50758 0.70225
 C1270 C 0.60038 0.50319 0.70363
 C1271 C 0.61282 0.50112 0.68220
 N1272 N 0.60142 0.50360 0.66103
 C1273 C 0.56701 0.51044 0.63531
 N1274 N 0.57934 0.50199 0.61652
 C1275 C 0.57082 0.50301 0.59392
 C1276 C 0.54846 0.51297 0.58910
 C1277 C 0.53565 0.52232 0.60811
 C1278 C 0.54486 0.52119 0.63116
 H1279 H 0.56502 0.50938 0.71786
 H1280 H 0.63177 0.49778 0.68234
 H1281 H 0.58140 0.49565 0.57986
 H1282 H 0.51841 0.53036 0.60524
 H1283 H 0.54547 0.51287 0.67978
 H1284 H 0.53472 0.52885 0.64535
 C1285 C 0.42643 0.00692 0.66645
 C1286 C 0.41944 0.02793 0.67730
 C1287 C 0.40801 0.02686 0.69911
 C1288 C 0.40267 0.00487 0.70979
 C1289 C 0.41208 -0.01554 0.69929
 N1290 N 0.42329 -0.01404 0.67807
 C1291 C 0.43687 0.00694 0.64259
 N1292 N 0.45335 -0.00967 0.63723
 C1293 C 0.46323 -0.01097 0.61538
 C1294 C 0.45619 0.00479 0.59727
 C1295 C 0.43885 0.02172 0.60228
 C1296 C 0.42925 0.02294 0.62495
 H1297 H 0.40286 0.04327 0.70732
 H1298 H 0.41036 -0.03274 0.70763
 H1299 H 0.47643 -0.02441 0.61214
 H1300 H 0.43298 0.03421 0.58880
 H1301 H 0.42274 0.04499 0.66904
 H1302 H 0.41569 0.03595 0.62848
 C1303 C -0.09005 0.49784 1.15365
 C1304 C -0.11456 0.50059 1.15703
 C1305 C -0.12343 0.50154 1.17996
 C1306 C -0.10818 0.49947 1.19976
 C1307 C -0.08375 0.49643 1.19555
 N1308 N -0.07551 0.49569 1.17297
 C1309 C -0.07947 0.49693 1.12974
 N1310 N -0.05763 0.48700 1.12729
 C1311 C -0.04649 0.48592 1.10602
 C1312 C -0.05735 0.49537 1.08554
 C1313 C -0.07986 0.50572 1.08768
 C1314 C -0.09090 0.50663 1.10968
 H1315 H -0.14240 0.50372 1.18233
 H1316 H -0.07098 0.49466 1.20979
 H1317 H -0.02909 0.47786 1.10525
 H1318 H -0.08883 0.51349 1.07244
 H1319 H -0.12696 0.50160 1.14230
 H1320 H -0.10788 0.51541 1.11084
 C1321 C -0.07715 0.50292 0.33451
 C1322 C -0.06571 0.51027 0.31360
 C1323 C -0.07774 0.50900 0.29194
 C1324 C -0.10108 0.50004 0.29068
 C1325 C -0.11185 0.49271 0.31194
 N1326 N -0.09978 0.49425 0.33293
 C1327 C -0.06524 0.50380 0.35816
 N1328 N -0.07498 0.49141 0.37657
 C1329 C -0.06503 0.49099 0.39867
 C1330 C -0.04382 0.50344 0.40329
 C1331 C -0.03367 0.51663 0.38471
 C1332 C -0.04435 0.51703 0.36229
 H1333 H -0.06873 0.51543 0.27625
 H1334 H -0.12971 0.48555 0.31197
 H1335 H -0.07355 0.48064 0.41247
 H1336 H -0.01752 0.52681 0.38752
 H1337 H -0.04760 0.51673 0.31360
 H1338 H -0.03626 0.52785 0.34865
 C1339 C 0.41792 1.01549 -0.15680
 C1340 C 0.43019 1.02317 -0.17704
 C1341 C 0.41969 1.02086 -0.19939
 C1342 C 0.39687 1.01065 -0.20213
 C1343 C 0.38509 1.00349 -0.18120
 N1344 N 0.39583 1.00586 -0.15960
 C1345 C 0.42875 1.01622 -0.13265
 N1346 N 0.41919 1.00241 -0.11518
 C1347 C 0.42875 1.00106 -0.09295
 C1348 C 0.44949 1.01386 -0.08725
 C1349 C 0.45925 1.02875 -0.10473
 C1350 C 0.44889 1.03015 -0.12728
 H1351 H 0.42963 1.02759 -0.21434
 H1352 H 0.36788 0.99498 -0.18170
 H1353 H 0.42049 0.98945 -0.08000
 H1354 H 0.47500 1.03927 -0.10103
 H1355 H 0.44797 1.03046 -0.17602
 H1356 H 0.45673 1.04207 -0.14015
 C1357 C 0.58607 0.49823 -0.15936
 C1358 C 0.60893 0.50787 -0.16287
 C1359 C 0.61845 0.50881 -0.18571
 C1360 C 0.60527 0.50055 -0.20522
 C1361 C 0.58260 0.49087 -0.20091
 N1362 N 0.57377 0.49005 -0.17854
 C1363 C 0.57435 0.49708 -0.13578
 N1364 N 0.55082 0.49123 -0.13500
 C1365 C 0.53841 0.49008 -0.11441
 C1366 C 0.54965 0.49515 -0.09269
 C1367 C 0.57400 0.50086 -0.09295
 C1368 C 0.58641 0.50175 -0.11433
 H1369 H 0.63596 0.51641 -0.18802
 H1370 H 0.57193 0.48362 -0.21517
 H1371 H 0.51969 0.48552 -0.11514
 H1372 H 0.58351 0.50469 -0.07663
 H1373 H 0.61940 0.51502 -0.14845
 H1374 H 0.60517 0.50593 -0.11373
 C1375 C 0.08618 -0.00256 0.34264
 C1376 C 0.10831 0.00853 0.33884
 C1377 C 0.11740 0.01012 0.31590
 C1378 C 0.10448 0.00100 0.29663
 C1379 C 0.08229 -0.00957 0.30108
 N1380 N 0.07387 -0.01108 0.32359
 C1381 C 0.07536 -0.00479 0.36653
 N1382 N 0.05176 -0.01020 0.36802
 C1383 C 0.04026 -0.01209 0.38910
 C1384 C 0.05258 -0.00823 0.41051
 C1385 C 0.07703 -0.00319 0.40946
 C1386 C 0.08849 -0.00161 0.38762
 H1387 H 0.13438 0.01883 0.31323
 H1388 H 0.07182 -0.01708 0.28678
 H1389 H 0.02141 -0.01609 0.38901
 H1390 H 0.08734 -0.00037 0.42552
 H1391 H 0.11848 0.01633 0.35314
 H1392 H 0.10739 0.00192 0.38754
 C1393 C 0.15609 1.08480 1.01087
 C1394 C 0.15899 1.10944 1.00990
 C1395 C 0.18176 1.11907 1.00910
 C1396 C 0.20190 1.10445 1.00971
 C1397 C 0.19821 1.07983 1.01122
 N1398 N 0.17573 1.07082 1.01173
 C1399 C 0.13227 1.07363 1.01078
 N1400 N 0.12971 1.05128 1.01968
 C1401 C 0.10845 1.03970 1.01959
 C1402 C 0.08814 1.05061 1.00988
 C1403 C 0.09043 1.07363 1.00061
 C1404 C 0.11237 1.08511 1.00092
 H1405 H 0.18371 1.13813 1.00802
 H1406 H 0.21281 1.06756 1.01168
 H1407 H 0.10755 1.02192 1.02683
 H1408 H 0.07535 1.08269 0.99271
 H1409 H 0.14398 1.12131 1.00998
 H1410 H 0.11368 1.10250 0.99286
 C1411 C 0.66408 0.58711 0.49208
 C1412 C 0.66686 0.61163 0.48915
 C1413 C 0.68957 0.62143 0.48892
 C1414 C 0.70977 0.60708 0.49153
 C1415 C 0.70619 0.58259 0.49466
 N1416 N 0.68376 0.57342 0.49492
 C1417 C 0.64027 0.57596 0.49326
 N1418 N 0.63763 0.55503 0.50514
 C1419 C 0.61619 0.54397 0.50719
 C1420 C 0.59574 0.55401 0.49686
 C1421 C 0.59816 0.57547 0.48434
 C1422 C 0.62031 0.58639 0.48240
 H1423 H 0.69138 0.64048 0.48729
 H1424 H 0.72085 0.57067 0.49760
 H1425 H 0.61521 0.52733 0.51682
 H1426 H 0.58300 0.58374 0.47575
 H1427 H 0.65175 0.62334 0.48785
 H1428 H 0.62169 0.60258 0.47211
 C1429 C 0.65280 0.41211 -0.00710
 C1430 C 0.65493 0.38747 -0.00803
 C1431 C 0.67736 0.37733 -0.00764
 C1432 C 0.69815 0.39149 -0.00723
 C1433 C 0.69505 0.41625 -0.00598
 N1434 N 0.67285 0.42568 -0.00614
 C1435 C 0.62933 0.42371 -0.00701
 N1436 N 0.62758 0.44654 -0.01470
 C1437 C 0.60658 0.45835 -0.01498
 C1438 C 0.58571 0.44713 -0.00706
 C1439 C 0.58720 0.42366 0.00112
 C1440 C 0.60890 0.41197 0.00130
 H1441 H 0.67845 0.35819 -0.00762
 H1442 H 0.70997 0.42823 -0.00422
 H1443 H 0.60629 0.47648 -0.02133
 H1444 H 0.57165 0.41433 0.00763
 H1445 H 0.63955 0.37596 -0.00925
 H1446 H 0.60959 0.39413 0.00837
 C1447 C 0.16058 -0.08638 0.49919
 C1448 C 0.16408 -0.11087 0.49804
 C1449 C 0.18710 -0.11976 0.49866
 C1450 C 0.20688 -0.10449 0.50034
 C1451 C 0.20257 -0.08001 0.50113
 N1452 N 0.17989 -0.07177 0.50049
 C1453 C 0.13656 -0.07587 0.49844
 N1454 N 0.13421 -0.05300 0.49106
 C1455 C 0.11283 -0.04195 0.49017
 C1456 C 0.09207 -0.05398 0.49721
 C1457 C 0.09409 -0.07756 0.50495
 C1458 C 0.11624 -0.08853 0.50565
 H1459 H 0.18957 -0.13872 0.49760
 H1460 H 0.21684 -0.06725 0.50204
 H1461 H 0.11218 -0.02371 0.48420
 H1462 H 0.07862 -0.08748 0.51074
 H1463 H 0.14936 -0.12313 0.49617
 H1464 H 0.11735 -0.10649 0.51233
 C1465 C 0.34197 -0.07493 0.50923
 C1466 C 0.32252 -0.06723 0.52260
 C1467 C 0.30067 -0.07891 0.52062
 C1468 C 0.29808 -0.09842 0.50559
 C1469 C 0.31807 -0.10602 0.49308
 N1470 N 0.33915 -0.09421 0.49512
 C1471 C 0.36548 -0.06277 0.51003
 N1472 N 0.38512 -0.07457 0.50266
 C1473 C 0.40717 -0.06449 0.50244
 C1474 C 0.41047 -0.04100 0.50984
 C1475 C 0.39043 -0.02848 0.51736
 C1476 C 0.36801 -0.03919 0.51739
 H1477 H 0.28589 -0.07286 0.53112
 H1478 H 0.31684 -0.12095 0.48125
 H1479 H 0.42205 -0.07484 0.49640
 H1480 H 0.39197 -0.01026 0.52299
 H1481 H 0.32403 -0.05260 0.53475
 H1482 H 0.35291 -0.02876 0.52263
 C1483 C -0.16879 0.41850 0.99181
 C1484 C -0.18996 0.43139 0.99056
 C1485 C -0.21174 0.41953 0.99003
 C1486 C -0.21297 0.39455 0.99053
 C1487 C -0.19104 0.38238 0.99087
 N1488 N -0.17001 0.39446 0.99150
 C1489 C -0.14521 0.43037 0.99345
 N1490 N -0.12549 0.41884 0.98590
 C1491 C -0.10336 0.42876 0.98684
 C1492 C -0.10008 0.45167 0.99590
 C1493 C -0.12015 0.46364 1.00420
 C1494 C -0.14260 0.45309 1.00310
 H1495 H -0.22745 0.43042 0.99013
 H1496 H -0.19010 0.36336 0.99047
 H1497 H -0.08841 0.41877 0.98039
 H1498 H -0.11856 0.48121 1.01158
 H1499 H -0.18990 0.45053 0.98998
 H1500 H -0.15758 0.46260 1.01012
 C1501 C -0.15358 0.58452 0.49339
 C1502 C -0.15712 0.60498 0.50688
 C1503 C -0.17959 0.61526 0.50756
 C1504 C -0.19876 0.60519 0.49511
 C1505 C -0.19456 0.58458 0.48202
 N1506 N -0.17245 0.57491 0.48154
 C1507 C -0.13008 0.57279 0.49214
 N1508 N -0.12907 0.54945 0.48634
 C1509 C -0.10818 0.53741 0.48536
 C1510 C -0.08656 0.54891 0.49055
 C1511 C -0.08718 0.57311 0.49598
 C1512 C -0.10876 0.58508 0.49666
 H1513 H -0.18192 0.63087 0.51821
 H1514 H -0.20866 0.57632 0.47182
 H1515 H -0.10857 0.51882 0.48094
 H1516 H -0.07097 0.58288 0.49973
 H1517 H -0.14293 0.61282 0.51728
 H1518 H -0.10853 0.60380 0.50047
 C1519 C 0.33796 1.08037 0.00265
 C1520 C 0.31737 1.06805 -0.00445
 C1521 C 0.29521 1.07868 -0.00243
 C1522 C 0.29322 1.10150 0.00700
 C1523 C 0.31419 1.11311 0.01423
 N1524 N 0.33567 1.10239 0.01198
 C1525 C 0.36197 1.06981 0.00081
 N1526 N 0.37993 1.07800 0.01496
 C1527 C 0.40216 1.06855 0.01479
 C1528 C 0.40726 1.04946 -0.00011
 C1529 C 0.38922 1.04128 -0.01536
 C1530 C 0.36672 1.05145 -0.01510
 H1531 H 0.27971 1.06908 -0.00868
 H1532 H 0.31361 1.13058 0.02181
 H1533 H 0.41559 1.07554 0.02672
 H1534 H 0.39244 1.02691 -0.02750
 H1535 H 0.31811 1.05025 -0.01127
 H1536 H 0.35339 1.04498 -0.02739
 C1537 C 0.00140 1.15894 1.08269
 C1538 C 0.00196 1.16161 1.10739
 C1539 C 0.00131 1.18417 1.11696
 C1540 C 0.00030 1.20432 1.10218
 C1541 C 0.00027 1.20086 1.07747
 N1542 N 0.00082 1.17858 1.06854
 C1543 C 0.00167 1.13533 1.07163
 N1544 N 0.00989 1.13320 1.04909
 C1545 C 0.01040 1.11206 1.03776
 C1546 C 0.00211 1.09144 1.04918
 C1547 C -0.00657 1.09334 1.07236
 C1548 C -0.00692 1.11516 1.08356
 H1549 H 0.00177 1.18598 1.13608
 H1550 H -0.00009 1.21547 1.06508
 H1551 H 0.01711 1.11147 1.01983
 H1552 H -0.01339 1.07800 1.08182
 H1553 H 0.00331 1.14658 1.11933
 H1554 H -0.01437 1.11613 1.10115
 C1555 C 0.49744 0.66729 0.56715
 C1556 C 0.49682 0.68898 0.55477
 C1557 C 0.49588 0.71014 0.56743
 C1558 C 0.49536 0.70967 0.59238
 C1559 C 0.49561 0.68749 0.60388
 N1560 N 0.49658 0.66730 0.59122
 C1561 C 0.49909 0.64416 0.55535
 N1562 N 0.49279 0.62451 0.56799
 C1563 C 0.49459 0.60236 0.55920
 C1564 C 0.50346 0.59890 0.53631
 C1565 C 0.51024 0.61889 0.52291
 C1566 C 0.50810 0.64154 0.53235
 H1567 H 0.49604 0.72655 0.55751
 H1568 H 0.49553 0.68622 0.62306
 H1569 H 0.48915 0.58753 0.57021
 H1570 H 0.51721 0.61706 0.50517
 H1571 H 0.49699 0.68976 0.53559
 H1572 H 0.51396 0.65659 0.52192
 C1573 C 0.00578 0.65717 0.41452
 C1574 C 0.01080 0.66060 0.39041
 C1575 C 0.00956 0.68322 0.38065
 C1576 C 0.00336 0.70266 0.39467
 C1577 C -0.00193 0.69836 0.41868
 N1578 N -0.00061 0.67607 0.42779
 C1579 C 0.00599 0.63347 0.42574
 N1580 N -0.00642 0.63006 0.44614
 C1581 C -0.00747 0.60874 0.45738
 C1582 C 0.00440 0.58918 0.44802
 C1583 C 0.01759 0.59238 0.42720
 C1584 C 0.01857 0.61447 0.41611
 H1585 H 0.01308 0.68556 0.36190
 H1586 H -0.00767 0.71225 0.43025
 H1587 H -0.01776 0.60711 0.47347
 H1588 H 0.02733 0.57787 0.41955
 H1589 H 0.01495 0.64604 0.37887
 H1590 H 0.02935 0.61650 0.40043
 C1591 C 0.49516 1.16396 -0.06589
 C1592 C 0.51617 1.17713 -0.06846
 C1593 C 0.51576 1.19815 -0.08150
 C1594 C 0.49468 1.20574 -0.09273
 C1595 C 0.47358 1.19315 -0.08763
 N1596 N 0.47441 1.17269 -0.07479
 C1597 C 0.49546 1.14014 -0.05520
 N1598 N 0.47715 1.13281 -0.04122
 C1599 C 0.47623 1.11057 -0.03181
 C1600 C 0.49406 1.09417 -0.03703
 C1601 C 0.51283 1.10132 -0.05169
 C1602 C 0.51370 1.12431 -0.06064
 H1603 H 0.53221 1.20797 -0.08367
 H1604 H 0.45648 1.19909 -0.09404
 H1605 H 0.46141 1.10559 -0.02063
 H1606 H 0.52698 1.08919 -0.05602
 H1607 H 0.53280 1.17097 -0.06087
 H1608 H 0.52817 1.12948 -0.07219
 C1609 C 0.50858 0.33994 -0.08637
 C1610 C 0.51798 0.32067 -0.07353
 C1611 C 0.51562 0.29788 -0.08243
 C1612 C 0.50364 0.29390 -0.10399
 C1613 C 0.49483 0.31363 -0.11653
 N1614 N 0.49727 0.33578 -0.10743
 C1615 C 0.50935 0.36435 -0.07682
 N1616 N 0.49304 0.38050 -0.08459
 C1617 C 0.49154 0.40259 -0.07522
 C1618 C 0.50670 0.40925 -0.05649
 C1619 C 0.52425 0.39328 -0.04894
 C1620 C 0.52583 0.37103 -0.05919
 H1621 H 0.52316 0.28335 -0.07228
 H1622 H 0.48546 0.31147 -0.13319
 H1623 H 0.47789 0.41449 -0.08169
 H1624 H 0.53668 0.39793 -0.03491
 H1625 H 0.52648 0.32282 -0.05641
 H1626 H 0.53977 0.35930 -0.05311
 C1627 C 0.00461 -0.16288 0.41950
 C1628 C 0.01473 -0.18317 0.42994
 C1629 C 0.01175 -0.20505 0.41914
 C1630 C -0.00167 -0.20717 0.39813
 C1631 C -0.01160 -0.18655 0.38826
 N1632 N -0.00833 -0.16530 0.39907
 C1633 C 0.00693 -0.13907 0.43037
 N1634 N -0.00726 -0.12126 0.42215
 C1635 C -0.00693 -0.09923 0.43172
 C1636 C 0.00809 -0.09416 0.45108
 C1637 C 0.02331 -0.11200 0.45944
 C1638 C 0.02299 -0.13428 0.44905
 H1639 H 0.02042 -0.22020 0.42719
 H1640 H -0.02212 -0.18730 0.37214
 H1641 H -0.01892 -0.08596 0.42466
 H1642 H 0.03547 -0.10873 0.47408
 H1643 H 0.02470 -0.18260 0.44637
 H1644 H 0.03531 -0.14733 0.45580
 C1645 C 0.49646 -0.15339 0.58765
 C1646 C 0.51077 -0.16012 0.60713
 C1647 C 0.51021 -0.18352 0.61531
 C1648 C 0.49559 -0.20030 0.60411
 C1649 C 0.48137 -0.19282 0.58491
 N1650 N 0.48226 -0.16998 0.57723
 C1651 C 0.49708 -0.12923 0.57716
 N1652 N 0.48879 -0.12613 0.55458
 C1653 C 0.48900 -0.10476 0.54335
 C1654 C 0.49803 -0.08467 0.55491
 C1655 C 0.50634 -0.08733 0.57835
 C1656 C 0.50584 -0.10948 0.58955
 H1657 H 0.52186 -0.18862 0.62985
 H1658 H 0.46960 -0.20509 0.57593
 H1659 H 0.48224 -0.10360 0.52534
 H1660 H 0.51321 -0.07231 0.58809
 H1661 H 0.52290 -0.14783 0.61557
 H1662 H 0.51198 -0.11086 0.60773
 C1663 C -0.00989 0.33866 1.07552
 C1664 C -0.02294 0.31899 1.06744
 C1665 C -0.02042 0.29719 1.07892
 C1666 C -0.00518 0.29484 1.09862
 C1667 C 0.00689 0.31503 1.10672
 N1668 N 0.00436 0.33609 1.09506
 C1669 C -0.01119 0.36210 1.06345
 N1670 N -0.00405 0.38174 1.07547
 C1671 C -0.00429 0.40375 1.06548
 C1672 C -0.01194 0.40701 1.04187
 C1673 C -0.01927 0.38699 1.02912
 C1674 C -0.01882 0.36461 1.03973
 H1675 H -0.03066 0.28223 1.07253
 H1676 H 0.01876 0.31397 1.12190
 H1677 H 0.00162 0.41863 1.07600
 H1678 H -0.02506 0.38854 1.01080
 H1679 H -0.03523 0.32026 1.05265
 H1680 H -0.02388 0.34954 1.02912
 C1681 C 0.76449 0.32876 0.08812
 C1682 C 0.77606 0.32013 0.06789
 C1683 C 0.77119 0.33019 0.04550
 C1684 C 0.75462 0.34870 0.04304
 C1685 C 0.74461 0.35749 0.06408
 N1686 N 0.74959 0.34741 0.08543
 C1687 C 0.76674 0.31812 0.11230
 N1688 N 0.75572 0.32919 0.13056
 C1689 C 0.75488 0.32001 0.15293
 C1690 C 0.76524 0.29802 0.15806
 C1691 C 0.77730 0.28654 0.13969
 C1692 C 0.77809 0.29645 0.11688
 H1693 H 0.77956 0.32247 0.03024
 H1694 H 0.73302 0.37267 0.06395
 H1695 H 0.74550 0.32962 0.16646
 H1696 H 0.78564 0.26954 0.14274
 H1697 H 0.78844 0.30562 0.06899
 H1698 H 0.78685 0.28671 0.10310
 C1699 C 0.26910 0.82314 0.58741
 C1700 C 0.28229 0.84321 0.58055
 C1701 C 0.27951 0.85243 0.55760
 C1702 C 0.26349 0.84180 0.54172
 C1703 C 0.25147 0.82120 0.54888
 N1704 N 0.25454 0.81247 0.57125
 C1705 C 0.26950 0.81403 0.61206
 N1706 N 0.26759 0.79031 0.61594
 C1707 C 0.26622 0.78081 0.63813
 C1708 C 0.26590 0.79552 0.65810
 C1709 C 0.26766 0.82006 0.65454
 C1710 C 0.26972 0.82938 0.63156
 H1711 H 0.28873 0.86862 0.55272
 H1712 H 0.23880 0.81275 0.53707
 H1713 H 0.26470 0.76179 0.64011
 H1714 H 0.26745 0.83198 0.66948
 H1715 H 0.29416 0.85197 0.59294
 H1716 H 0.27062 0.84838 0.62903
 C1717 C 0.76178 0.67999 0.58525
 C1718 C 0.78075 0.66586 0.57762
 C1719 C 0.77994 0.65599 0.55494
 C1720 C 0.76040 0.66027 0.54001
 C1721 C 0.74263 0.67566 0.54770
 N1722 N 0.74368 0.68487 0.56983
 C1723 C 0.76006 0.68896 0.60978
 N1724 N 0.74576 0.70783 0.61389
 C1725 C 0.74220 0.71646 0.63600
 C1726 C 0.75313 0.70574 0.65583
 C1727 C 0.76769 0.68602 0.65205
 C1728 C 0.77120 0.67760 0.62913
 H1729 H 0.79380 0.64398 0.54967
 H1730 H 0.72734 0.67943 0.53651
 H1731 H 0.73083 0.73169 0.63800
 H1732 H 0.77653 0.67719 0.66677
 H1733 H 0.79578 0.66202 0.58909
 H1734 H 0.78207 0.66207 0.62681
 C1735 C 0.26104 0.18606 0.08872
 C1736 C 0.27937 0.17128 0.08078
 C1737 C 0.27705 0.16018 0.05880
 C1738 C 0.25671 0.16399 0.04484
 C1739 C 0.23997 0.18053 0.05239
 N1740 N 0.24236 0.19077 0.07396
 C1741 C 0.26008 0.19505 0.11327
 N1742 N 0.24564 0.21369 0.11789
 C1743 C 0.24209 0.22173 0.14023
 C1744 C 0.25308 0.21052 0.15974
 C1745 C 0.26796 0.19118 0.15540
 C1746 C 0.27150 0.18341 0.13228
 H1747 H 0.29018 0.14734 0.05359
 H1748 H 0.22412 0.18397 0.04190
 H1749 H 0.23055 0.23677 0.14267
 H1750 H 0.27687 0.18200 0.16986
 H1751 H 0.29484 0.16756 0.09168
 H1752 H 0.28243 0.16800 0.12959
 C1753 C 0.26327 0.17807 0.91753
 C1754 C 0.26973 0.18914 0.93899
 C1755 C 0.26640 0.17703 0.96055
 C1756 C 0.25662 0.15417 0.96069
 C1757 C 0.25163 0.14339 0.93891
 N1758 N 0.25486 0.15546 0.91833
 C1759 C 0.26385 0.18993 0.89393
 N1760 N 0.25756 0.17672 0.87478
 C1761 C 0.25563 0.18590 0.85255
 C1762 C 0.25993 0.21004 0.84841
 C1763 C 0.26703 0.22407 0.86770
 C1764 C 0.26896 0.21413 0.89050
 H1765 H 0.27056 0.18583 0.97708
 H1766 H 0.24464 0.12551 0.93823
 H1767 H 0.25045 0.17427 0.83823
 H1768 H 0.27056 0.24279 0.86529
 H1769 H 0.27678 0.20694 0.93941
 H1770 H 0.27382 0.22552 0.90506
 C1771 C 0.77535 0.68927 0.41378
 C1772 C 0.79121 0.67173 0.42174
 C1773 C 0.78695 0.66001 0.44327
 C1774 C 0.76683 0.66562 0.45651
 C1775 C 0.75222 0.68416 0.44865
 N1776 N 0.75671 0.69533 0.42770
 C1777 C 0.77663 0.69938 0.38958
 N1778 N 0.77019 0.72231 0.38571
 C1779 C 0.76804 0.73170 0.36348
 C1780 C 0.77128 0.71740 0.34356
 C1781 C 0.77817 0.69382 0.34713
 C1782 C 0.78116 0.68483 0.37009
 H1783 H 0.79842 0.64559 0.44878
 H1784 H 0.73655 0.68889 0.45856
 H1785 H 0.76258 0.74995 0.36137
 H1786 H 0.78080 0.68226 0.33215
 H1787 H 0.80622 0.66659 0.41106
 H1788 H 0.78564 0.66635 0.37254
 C1789 C 0.26537 0.82210 0.41304
 C1790 C 0.26666 0.80959 0.43475
 C1791 C 0.26605 0.82202 0.45613
 C1792 C 0.26420 0.84671 0.45578
 C1793 C 0.26456 0.85858 0.43385
 N1794 N 0.26498 0.84617 0.41335
 C1795 C 0.26301 0.81025 0.38976
 N1796 N 0.26877 0.82270 0.36980
 C1797 C 0.26552 0.81393 0.34763
 C1798 C 0.25541 0.79137 0.34444
 C1799 C 0.24922 0.77821 0.36477
 C1800 C 0.25300 0.78753 0.38740
 H1801 H 0.26560 0.81236 0.47281
 H1802 H 0.26319 0.87768 0.43301
 H1803 H 0.27059 0.82475 0.33254
 H1804 H 0.24140 0.76073 0.36321
 H1805 H 0.26754 0.79048 0.43531
 H1806 H 0.24744 0.77729 0.40270
 C1807 C 0.75767 0.30783 0.91933
 C1808 C 0.77709 0.31905 0.93057
 C1809 C 0.77375 0.33046 0.95233
 C1810 C 0.75095 0.33130 0.96237
 C1811 C 0.73274 0.31788 0.95154
 N1812 N 0.73645 0.30693 0.93063
 C1813 C 0.75856 0.29838 0.89490
 N1814 N 0.74238 0.28154 0.88848
 C1815 C 0.74000 0.27380 0.86581
 C1816 C 0.75394 0.28368 0.84765
 C1817 C 0.77086 0.30103 0.85383
 C1818 C 0.77331 0.30834 0.87741
 H1819 H 0.78844 0.34034 0.95993
 H1820 H 0.71516 0.31688 0.95921
 H1821 H 0.72678 0.26035 0.86196
 H1822 H 0.78212 0.30904 0.84045
 H1823 H 0.79442 0.31965 0.92235
 H1824 H 0.78589 0.32228 0.88161
 C1825 C 0.81466 0.41684 0.25987
 C1826 C 0.83029 0.42525 0.27761
 C1827 C 0.84039 0.44786 0.27532
 C1828 C 0.83480 0.46207 0.25559
 C1829 C 0.81761 0.45384 0.23942
 N1830 N 0.80834 0.43170 0.24178
 C1831 C 0.80606 0.39193 0.25905
 N1832 N 0.78696 0.38664 0.24500
 C1833 C 0.77890 0.36412 0.24191
 C1834 C 0.79050 0.34501 0.25306
 C1835 C 0.81036 0.35001 0.26751
 C1836 C 0.81818 0.37332 0.27054
 H1837 H 0.85380 0.45349 0.28797
 H1838 H 0.81282 0.46438 0.22399
 H1839 H 0.76350 0.36121 0.23064
 H1840 H 0.81992 0.33592 0.27650
 H1841 H 0.83535 0.41434 0.29266
 H1842 H 0.83392 0.37647 0.28123
 C1843 C 0.32356 0.91418 0.76362
 C1844 C 0.31075 0.93552 0.76433
 C1845 C 0.32306 0.95717 0.76380
 C1846 C 0.34792 0.95744 0.76253
 C1847 C 0.36003 0.93584 0.76337
 N1848 N 0.34776 0.91510 0.76375
 C1849 C 0.31195 0.89063 0.76151
 N1850 N 0.32462 0.87108 0.76789
 C1851 C 0.31608 0.84872 0.76504
 C1852 C 0.29354 0.84490 0.75476
 C1853 C 0.28018 0.86481 0.74790
 C1854 C 0.28926 0.88764 0.75127
 H1855 H 0.31319 0.97357 0.76303
 H1856 H 0.37926 0.93545 0.76252
 H1857 H 0.32706 0.83398 0.77060
 H1858 H 0.26271 0.86276 0.73993
 H1859 H 0.29152 0.93559 0.76479
 H1860 H 0.27887 0.90261 0.74525
 C1861 C 0.17404 0.91060 0.26306
 C1862 C 0.15028 0.91202 0.25528
 C1863 C 0.13978 0.93398 0.25206
 C1864 C 0.15277 0.95476 0.25628
 C1865 C 0.17626 0.95280 0.26464
 N1866 N 0.18633 0.93102 0.26747
 C1867 C 0.18616 0.88739 0.26475
 N1868 N 0.21007 0.88603 0.26107
 C1869 C 0.22160 0.86489 0.25991
 C1870 C 0.20872 0.84361 0.26174
 C1871 C 0.18436 0.84469 0.26659
 C1872 C 0.17312 0.86642 0.26846
 H1873 H 0.12152 0.93473 0.24580
 H1874 H 0.18682 0.96851 0.26800
 H1875 H 0.24052 0.86472 0.25652
 H1876 H 0.17393 0.82864 0.26885
 H1877 H 0.14002 0.89644 0.25075
 H1878 H 0.15434 0.86663 0.27246
 C1879 C 0.67861 0.41175 0.76353
 C1880 C 0.68991 0.43333 0.76918
 C1881 C 0.67791 0.45472 0.76507
 C1882 C 0.65489 0.45460 0.75529
 C1883 C 0.64398 0.43268 0.75086
 N1884 N 0.65594 0.41227 0.75490
 C1885 C 0.69018 0.38821 0.76562
 N1886 N 0.67647 0.36879 0.76119
 C1887 C 0.68533 0.34653 0.76077
 C1888 C 0.70968 0.34260 0.76468
 C1889 C 0.72422 0.36221 0.76993
 C1890 C 0.71459 0.38504 0.77036
 H1891 H 0.68686 0.47129 0.76885
 H1892 H 0.62598 0.43170 0.74398
 H1893 H 0.67332 0.33200 0.75692
 H1894 H 0.74312 0.36000 0.77302
 H1895 H 0.70774 0.43396 0.77643
 H1896 H 0.72638 0.39981 0.77370
 C1897 C 0.68698 0.58339 0.75587
 C1898 C 0.67391 0.57451 0.77524
 C1899 C 0.66257 0.55250 0.77352
 C1900 C 0.66438 0.53936 0.75269
 C1901 C 0.67916 0.54797 0.73456
 N1902 N 0.68973 0.56955 0.73646
 C1903 C 0.69622 0.60800 0.75501
 N1904 N 0.71471 0.61338 0.74040
 C1905 C 0.72302 0.63588 0.73745
 C1906 C 0.71221 0.65475 0.74924
 C1907 C 0.69298 0.64959 0.76422
 C1908 C 0.68499 0.62635 0.76718
 H1909 H 0.65110 0.54661 0.78771
 H1910 H 0.68106 0.53818 0.71826
 H1911 H 0.73790 0.63899 0.72574
 H1912 H 0.68409 0.66351 0.77374
 H1913 H 0.67176 0.58472 0.79122
 H1914 H 0.66972 0.62303 0.77830
 C1915 C 0.18870 0.08267 0.25841
 C1916 C 0.19637 0.06471 0.24320
 C1917 C 0.18435 0.04307 0.24298
 C1918 C 0.16501 0.03917 0.25800
 C1919 C 0.15889 0.05681 0.27407
 N1920 N 0.17045 0.07803 0.27357
 C1921 C 0.19785 0.10725 0.25635
 N1922 N 0.18373 0.12534 0.26342
 C1923 C 0.19023 0.14845 0.26098
 C1924 C 0.21216 0.15453 0.25076
 C1925 C 0.22708 0.13612 0.24355
 C1926 C 0.22009 0.11256 0.24640
 H1927 H 0.18898 0.03002 0.22985
 H1928 H 0.14362 0.05454 0.28546
 H1929 H 0.17828 0.16199 0.26713
 H1930 H 0.24437 0.13986 0.23600
 H1931 H 0.21020 0.06773 0.23030
 H1932 H 0.23218 0.09881 0.24110
 C1933 C 0.31636 0.08600 0.76261
 C1934 C 0.32633 0.07426 0.78237
 C1935 C 0.33712 0.05222 0.77936
 C1936 C 0.33769 0.04186 0.75682
 C1937 C 0.32578 0.05342 0.73804
 N1938 N 0.31609 0.07508 0.74123
 C1939 C 0.30789 0.11065 0.76378
 N1940 N 0.31189 0.12535 0.74492
 C1941 C 0.30426 0.14813 0.74431
 C1942 C 0.29112 0.15713 0.76320
 C1943 C 0.28680 0.14230 0.78287
 C1944 C 0.29541 0.11913 0.78336
 H1945 H 0.34632 0.04411 0.79428
 H1946 H 0.32523 0.04583 0.72048
 H1947 H 0.30771 0.15890 0.72871
 H1948 H 0.27664 0.14859 0.79778
 H1949 H 0.32709 0.08263 0.79957
 H1950 H 0.29170 0.10779 0.79849
 C1951 C 0.83106 0.59396 0.26406
 C1952 C 0.85568 0.58996 0.26325
 C1953 C 0.86405 0.56706 0.26002
 C1954 C 0.84806 0.54806 0.25801
 C1955 C 0.82374 0.55240 0.26065
 N1956 N 0.81591 0.57501 0.26331
 C1957 C 0.82114 0.61828 0.26421
 N1958 N 0.79874 0.62168 0.27246
 C1959 C 0.78796 0.64319 0.27168
 C1960 C 0.79962 0.66293 0.26162
 C1961 C 0.82278 0.65985 0.25314
 C1962 C 0.83357 0.63767 0.25440
 H1963 H 0.88299 0.56423 0.25819
 H1964 H 0.81095 0.53809 0.25918
 H1965 H 0.77004 0.64465 0.27838
 H1966 H 0.83244 0.67447 0.24514
 H1967 H 0.86841 0.60432 0.26457
 H1968 H 0.85108 0.63570 0.24688
 C1969 C 0.91474 0.26745 0.18011
 C1970 C 0.93683 0.27216 0.19121
 C1971 C 0.95798 0.26787 0.17891
 C1972 C 0.95705 0.25878 0.15586
 C1973 C 0.93473 0.25545 0.14512
 N1974 N 0.91458 0.25965 0.15734
 C1975 C 0.89135 0.26932 0.19203
 N1976 N 0.87153 0.26620 0.17835
 C1977 C 0.84931 0.26509 0.18744
 C1978 C 0.84584 0.26674 0.21198
 C1979 C 0.86582 0.27083 0.22654
 C1980 C 0.88864 0.27205 0.21667
 H1981 H 0.97497 0.27084 0.18761
 H1982 H 0.93327 0.24904 0.12711
 H1983 H 0.83443 0.26232 0.17544
 H1984 H 0.86392 0.27218 0.24559
 H1985 H 0.93795 0.27875 0.20912
 H1986 H 0.90378 0.27423 0.22840
 C1987 C 0.41954 0.75747 0.68783
 C1988 C 0.43143 0.77785 0.67959
 C1989 C 0.45207 0.77544 0.66605
 C1990 C 0.46080 0.75283 0.66099
 C1991 C 0.44936 0.73313 0.67119
 N1992 N 0.42907 0.73587 0.68367
 C1993 C 0.39554 0.75830 0.69819
 N1994 N 0.38017 0.74035 0.69306
 C1995 C 0.35752 0.73974 0.70114
 C1996 C 0.34916 0.75783 0.71567
 C1997 C 0.36479 0.77637 0.72166
 C1998 C 0.38797 0.77681 0.71272
 H1999 H 0.46023 0.79108 0.65834
 H2000 H 0.45584 0.71540 0.66825
 H2001 H 0.34613 0.72499 0.69637
 H2002 H 0.35896 0.79063 0.73290
 H2003 H 0.42406 0.79529 0.68218
 H2004 H 0.39985 0.79122 0.71733
 C2005 C 0.41346 0.25803 0.81664
 C2006 C 0.42326 0.27747 0.82883
 C2007 C 0.44500 0.27498 0.84085
 C2008 C 0.45686 0.25328 0.84059
 C2009 C 0.44744 0.23497 0.82669
 N2010 N 0.42619 0.23768 0.81542
 C2011 C 0.38899 0.25811 0.80669
 N2012 N 0.38314 0.24223 0.78953
 C2013 C 0.36055 0.23968 0.78105
 C2014 C 0.34202 0.25322 0.79038
 C2015 C 0.34767 0.26973 0.80807
 C2016 C 0.37104 0.27226 0.81622
 H2017 H 0.45170 0.28940 0.85153
 H2018 H 0.45632 0.21805 0.82592
 H2019 H 0.35707 0.22676 0.76738
 H2020 H 0.33400 0.28063 0.81577
 H2021 H 0.41399 0.29416 0.82975
 H2022 H 0.37468 0.28453 0.83043
 C2023 C 0.91747 0.75542 0.31053
 C2024 C 0.92903 0.73362 0.31235
 C2025 C 0.94996 0.73184 0.32545
 C2026 C 0.95990 0.75173 0.33678
 C2027 C 0.94868 0.77369 0.33304
 N2028 N 0.92763 0.77483 0.32078
 C2029 C 0.89352 0.75672 0.29949
 N2030 N 0.87633 0.76992 0.30980
 C2031 C 0.85328 0.76948 0.30212
 C2032 C 0.84637 0.75490 0.28312
 C2033 C 0.86406 0.74178 0.27181
 C2034 C 0.88754 0.74267 0.27989
 H2035 H 0.95828 0.71463 0.32672
 H2036 H 0.95546 0.78955 0.34133
 H2037 H 0.84035 0.78025 0.31109
 H2038 H 0.85974 0.73052 0.25692
 H2039 H 0.92140 0.71775 0.30473
 H2040 H 0.90083 0.73219 0.27107
 C2041 C 0.08815 0.76955 0.32665
 C2042 C 0.08355 0.77609 0.35015
 C2043 C 0.06066 0.77325 0.35914
 C2044 C 0.04241 0.76423 0.34472
 C2045 C 0.04722 0.75963 0.32090
 N2046 N 0.06975 0.76217 0.31259
 C2047 C 0.11264 0.76863 0.31726
 N2048 N 0.11592 0.77079 0.29346
 C2049 C 0.13763 0.76839 0.28335
 C2050 C 0.15770 0.76287 0.29737
 C2051 C 0.15473 0.76047 0.32196
 C2052 C 0.13229 0.76342 0.33198
 H2053 H 0.05750 0.77664 0.37775
 H2054 H 0.03352 0.75236 0.30943
 H2055 H 0.13903 0.77032 0.26429
 H2056 H 0.16969 0.75622 0.33343
 H2057 H 0.09759 0.78250 0.36171
 H2058 H 0.13031 0.76079 0.35090
 C2059 C 0.58562 0.25027 0.82296
 C2060 C 0.57366 0.22846 0.82344
 C2061 C 0.55114 0.22693 0.83338
 C2062 C 0.54050 0.24702 0.84309
 C2063 C 0.55230 0.26888 0.84073
 N2064 N 0.57443 0.26994 0.83100
 C2065 C 0.61051 0.25170 0.81487
 N2066 N 0.61772 0.27004 0.80081
 C2067 C 0.64025 0.27145 0.79216
 C2068 C 0.65701 0.25384 0.79782
 C2069 C 0.65011 0.23531 0.81301
 C2070 C 0.62689 0.23412 0.82144
 H2071 H 0.54239 0.20982 0.83423
 H2072 H 0.54465 0.28479 0.84791
 H2073 H 0.64496 0.28618 0.78068
 H2074 H 0.66242 0.22136 0.81782
 H2075 H 0.58185 0.21264 0.81661
 H2076 H 0.62178 0.21956 0.83298
 C2077 C 0.58840 0.75381 0.67349
 C2078 C 0.56719 0.75626 0.68637
 C2079 C 0.54536 0.75685 0.67422
 C2080 C 0.54479 0.75493 0.64948
 C2081 C 0.56638 0.75395 0.63727
 N2082 N 0.58728 0.75330 0.64939
 C2083 C 0.61203 0.75113 0.68493
 N2084 N 0.63171 0.75580 0.67173
 C2085 C 0.65414 0.75297 0.68035
 C2086 C 0.65786 0.74471 0.70365
 C2087 C 0.63783 0.73932 0.71748
 C2088 C 0.61492 0.74249 0.70822
 H2089 H 0.52896 0.75766 0.68414
 H2090 H 0.56658 0.75282 0.61810
 H2091 H 0.66900 0.75736 0.66901
 H2092 H 0.63982 0.73296 0.73557
 H2093 H 0.56731 0.75741 0.70551
 H2094 H 0.59982 0.73782 0.71910
 C2095 C 0.08667 0.25810 0.17986
 C2096 C 0.06515 0.25665 0.19246
 C2097 C 0.04349 0.25728 0.18002
 C2098 C 0.04335 0.25962 0.15528
 C2099 C 0.06503 0.26279 0.14360
 N2100 N 0.08582 0.26175 0.15596
 C2101 C 0.11037 0.25459 0.19115
 N2102 N 0.13003 0.26110 0.17868
 C2103 C 0.15250 0.25764 0.18700
 C2104 C 0.15636 0.24682 0.20924
 C2105 C 0.13636 0.23959 0.22230
 C2106 C 0.11341 0.24338 0.21335
 H2107 H 0.02699 0.25447 0.18948
 H2108 H 0.06548 0.26448 0.12445
 H2109 H 0.16729 0.26360 0.17627
 H2110 H 0.13842 0.23122 0.23955
 H2111 H 0.06487 0.25437 0.21152
 H2112 H 0.09843 0.23717 0.22362
 C2113 C -0.07794 0.99500 0.83826
 C2114 C -0.06466 0.99824 0.81750
 C2115 C -0.07626 0.99924 0.79557
 C2116 C -0.10114 0.99667 0.79410
 C2117 C -0.11373 0.99408 0.81548
 N2118 N -0.10202 0.99332 0.83663
 C2119 C -0.06663 0.99443 0.86198
 N2120 N -0.07948 1.00125 0.88110
 C2121 C -0.07018 1.00150 0.90343
 C2122 C -0.04656 0.99449 0.90750
 C2123 C -0.03318 0.98693 0.88807
 C2124 C -0.04312 0.98684 0.86537
 H2125 H -0.06558 1.00273 0.78010
 H2126 H -0.13296 0.99292 0.81536
 H2127 H -0.08123 1.00726 0.91789
 H2128 H -0.01495 0.98117 0.89034
 H2129 H -0.04557 1.00077 0.81814
 H2130 H -0.03254 0.98059 0.85077
 C2131 C 0.42913 0.49410 0.33317
 C2132 C 0.44104 0.49047 0.31169
 C2133 C 0.42850 0.49216 0.29024
 C2134 C 0.40412 0.49770 0.29005
 C2135 C 0.39310 0.50150 0.31197
 N2136 N 0.40563 0.49964 0.33253
 C2137 C 0.44098 0.49277 0.35668
 N2138 N 0.42908 0.50145 0.37562
 C2139 C 0.43838 0.50140 0.39788
 C2140 C 0.46119 0.49231 0.40220
 C2141 C 0.47365 0.48274 0.38308
 C2142 C 0.46361 0.48285 0.36033
 H2143 H 0.43812 0.48887 0.27415
 H2144 H 0.37435 0.50567 0.31275
 H2145 H 0.42802 0.50888 0.41205
 H2146 H 0.49125 0.47538 0.38562
 H2147 H 0.45982 0.48657 0.31118
 H2148 H 0.47354 0.47513 0.34604
 C2149 C 0.58346 0.00373 0.34662
 C2150 C 0.60427 -0.00938 0.34328
 C2151 C 0.61368 -0.01131 0.32064
 C2152 C 0.60213 -0.00094 0.30095
 C2153 C 0.58120 0.01189 0.30507
 N2154 N 0.57250 0.01376 0.32742
 C2155 C 0.57304 0.00688 0.37040
 N2156 N 0.54951 0.01214 0.37210
 C2157 C 0.53856 0.01461 0.39335
 C2158 C 0.55144 0.01152 0.41461
 C2159 C 0.57588 0.00691 0.41324
 C2160 C 0.58675 0.00474 0.39126
 H2161 H 0.63036 -0.02053 0.31867
 H2162 H 0.57215 0.02113 0.29080
 H2163 H 0.51969 0.01831 0.39356
 H2164 H 0.58661 0.00476 0.42916
 H2165 H 0.61333 -0.01813 0.35787
 H2166 H 0.60568 0.00155 0.39081
 C2167 C 0.07508 0.50878 0.83742
 C2168 C 0.06317 0.51480 0.81623
 C2169 C 0.07483 0.51274 0.79464
 C2170 C 0.09822 0.50409 0.79387
 C2171 C 0.10953 0.49854 0.81554
 N2172 N 0.09783 0.50081 0.83636
 C2173 C 0.06356 0.51005 0.86087
 N2174 N 0.07312 0.49748 0.87930
 C2175 C 0.06322 0.49699 0.90121
 C2176 C 0.04221 0.50949 0.90547
 C2177 C 0.03244 0.52314 0.88693
 C2178 C 0.04311 0.52362 0.86472
 H2179 H 0.06538 0.51833 0.77884
 H2180 H 0.12775 0.49245 0.81592
 H2181 H 0.07144 0.48633 0.91503
 H2182 H 0.01647 0.53340 0.88954
 H2183 H 0.04494 0.52079 0.81604
 H2184 H 0.03533 0.53461 0.85095
 C2185 C 0.08101 0.49193 0.65839
 C2186 C 0.06920 0.48336 0.67862
 C2187 C 0.07935 0.48655 0.70098
 C2188 C 0.10110 0.49862 0.70359
 C2189 C 0.11251 0.50672 0.68299
 N2190 N 0.10226 0.50337 0.66128
 C2191 C 0.07056 0.48989 0.63414
 N2192 N 0.07972 0.50352 0.61633
 C2193 C 0.07046 0.50360 0.59394
 C2194 C 0.05044 0.48963 0.58846
 C2195 C 0.04111 0.47494 0.60631
 C2196 C 0.05120 0.47480 0.62900
 H2197 H 0.07011 0.47930 0.71620
 H2198 H 0.12931 0.51608 0.68412
 H2199 H 0.07834 0.51511 0.58067
 H2200 H 0.02595 0.46355 0.60276
 H2201 H 0.05209 0.47464 0.67761
 H2202 H 0.04372 0.46294 0.64211
 C2203 C 0.57484 0.99503 0.16647
 C2204 C 0.56593 0.98326 0.18663
 C2205 C 0.57716 0.98627 0.20856
 C2206 C 0.59739 1.00081 0.21065
 C2207 C 0.60610 1.01180 0.19005
 N2208 N 0.59475 1.00875 0.16884
 C2209 C 0.56348 0.99279 0.14265
 N2210 N 0.57614 0.99928 0.12311
 C2211 C 0.56687 0.99834 0.10075
 C2212 C 0.54333 0.99063 0.09695
 C2213 C 0.52998 0.98377 0.11682
 C2214 C 0.53987 0.98490 0.13959
 H2215 H 0.57030 0.97668 0.22378
 H2216 H 0.62173 1.02300 0.19080
 H2217 H 0.57786 1.00392 0.08602
 H2218 H 0.51167 0.97797 0.11487
 H2219 H 0.55080 0.97143 0.18564
 H2220 H 0.52876 0.98024 0.15449
 C2221 C 0.41010 0.49586 0.15292
 C2222 C 0.38800 0.48532 0.15825
 C2223 C 0.37970 0.48554 0.18161
 C2224 C 0.39340 0.49595 0.19966
 C2225 C 0.41519 0.50647 0.19352
 N2226 N 0.42283 0.50609 0.17077
 C2227 C 0.42075 0.49597 0.12888
 N2228 N 0.44380 0.50317 0.12687
 C2229 C 0.45536 0.50397 0.10585
 C2230 C 0.44368 0.49722 0.08484
 C2231 C 0.41981 0.48988 0.08633
 C2232 C 0.40826 0.48927 0.10824
 H2233 H 0.36284 0.47713 0.18559
 H2234 H 0.42611 0.51527 0.20669
 H2235 H 0.47372 0.50983 0.10567
 H2236 H 0.41002 0.48465 0.07058
 H2237 H 0.37731 0.47662 0.14489
 H2238 H 0.38982 0.48384 0.10869
 C2239 C -0.08127 0.00312 0.65896
 C2240 C -0.06894 0.01103 0.67918
 C2241 C -0.07981 0.01000 0.70122
 C2242 C -0.10287 0.00068 0.70361
 C2243 C -0.11468 -0.00714 0.68305
 N2244 N -0.10369 -0.00587 0.66156
 C2245 C -0.07005 0.00360 0.63514
 N2246 N -0.07831 -0.01115 0.61788
 C2247 C -0.06809 -0.01229 0.59607
 C2248 C -0.04806 0.00172 0.59074
 C2249 C -0.03972 0.01748 0.60802
 C2250 C -0.05075 0.01868 0.63000
 H2251 H -0.07006 0.01668 0.71642
 H2252 H -0.13239 -0.01465 0.68407
 H2253 H -0.07525 -0.02453 0.58315
 H2254 H -0.02471 0.02907 0.60450
 H2255 H -0.05086 0.01758 0.67833
 H2256 H -0.04414 0.03148 0.64261
 C2257 C -0.16425 0.92325 1.00193
 C2258 C -0.18541 0.93540 0.99682
 C2259 C -0.20710 0.92345 0.99808
 C2260 C -0.20801 0.89956 1.00523
 C2261 C -0.18638 0.88822 1.01055
 N2262 N -0.16544 0.90015 1.00884
 C2263 C -0.14058 0.93453 0.99974
 N2264 N -0.12172 0.92432 1.01106
 C2265 C -0.09936 0.93345 1.00986
 C2266 C -0.09499 0.95419 0.99666
 C2267 C -0.11408 0.96474 0.98445
 C2268 C -0.13681 0.95493 0.98581
 H2269 H -0.22288 0.93292 0.99264
 H2270 H -0.18603 0.86963 1.01531
 H2271 H -0.08516 0.92470 1.01953
 H2272 H -0.11149 0.98059 0.97382
 H2273 H -0.18545 0.95388 0.99171
 H2274 H -0.15099 0.96319 0.97574
 C2275 C 0.34405 0.42457 0.49630
 C2276 C 0.32293 0.43728 0.49257
 C2277 C 0.30102 0.42595 0.49545
 C2278 C 0.29994 0.40207 0.50263
 C2279 C 0.32157 0.39010 0.50624
 N2280 N 0.34267 0.40148 0.50317
 C2281 C 0.36784 0.43550 0.49330
 N2282 N 0.38685 0.42540 0.50448
 C2283 C 0.40918 0.43462 0.50306
 C2284 C 0.41337 0.45538 0.48983
 C2285 C 0.39415 0.46566 0.47755
 C2286 C 0.37146 0.45576 0.47913
 H2287 H 0.28520 0.43598 0.49141
 H2288 H 0.32170 0.37153 0.51108
 H2289 H 0.42347 0.42600 0.51273
 H2290 H 0.39656 0.48152 0.46688
 H2291 H 0.32311 0.45579 0.48757
 H2292 H 0.35710 0.46390 0.46920
 C2293 C 0.33622 0.57922 -0.00505
 C2294 C 0.33405 0.60391 -0.00621
 C2295 C 0.31162 0.61404 -0.00543
 C2296 C 0.29108 0.59990 -0.00333
 C2297 C 0.29404 0.57521 -0.00191
 N2298 N 0.31622 0.56570 -0.00273
 C2299 C 0.35976 0.56764 -0.00539
 N2300 N 0.36219 0.54573 0.00457
 C2301 C 0.38339 0.53427 0.00537
 C2302 C 0.40386 0.54494 -0.00421
 C2303 C 0.40163 0.56733 -0.01494
 C2304 C 0.37969 0.57863 -0.01570
 H2305 H 0.31025 0.63315 -0.00618
 H2306 H 0.27911 0.56334 0.00008
 H2307 H 0.38422 0.51694 0.01365
 H2308 H 0.41681 0.57610 -0.02292
 H2309 H 0.34942 0.61546 -0.00713
 H2310 H 0.37846 0.59563 -0.02457
 C2311 C -0.15661 0.07866 0.49907
 C2312 C -0.15747 0.10329 0.50078
 C2313 C -0.17928 0.11448 0.50103
 C2314 C -0.20079 0.10145 0.49998
 C2315 C -0.19902 0.07657 0.49842
 N2316 N -0.17729 0.06604 0.49815
 C2317 C -0.13358 0.06637 0.49866
 N2318 N -0.13161 0.04442 0.50859
 C2319 C -0.11050 0.03279 0.50966
 C2320 C -0.08981 0.04341 0.50048
 C2321 C -0.09171 0.06577 0.48965
 C2322 C -0.11349 0.07720 0.48860
 H2323 H -0.17943 0.13362 0.50213
 H2324 H -0.21447 0.06528 0.49712
 H2325 H -0.10990 0.01543 0.51790
 H2326 H -0.07637 0.07449 0.48193
 H2327 H -0.14146 0.11392 0.50227
 H2328 H -0.11453 0.09429 0.47984
 C2329 C 0.66323 0.08922 0.49937
 C2330 C 0.66718 0.11310 0.50498
 C2331 C 0.69030 0.12225 0.50521
 C2332 C 0.70988 0.10790 0.49961
 C2333 C 0.70490 0.08413 0.49367
 N2334 N 0.68222 0.07567 0.49371
 C2335 C 0.63916 0.07813 0.49932
 N2336 N 0.63622 0.05649 0.48913
 C2337 C 0.61495 0.04483 0.48883
 C2338 C 0.59489 0.05491 0.49935
 C2339 C 0.59752 0.07720 0.50992
 C2340 C 0.61949 0.08876 0.51006
 H2341 H 0.69241 0.14042 0.51056
 H2342 H 0.71875 0.07221 0.48830
 H2343 H 0.61382 0.02768 0.48049
 H2344 H 0.58267 0.08565 0.51847
 H2345 H 0.65277 0.12489 0.50909
 H2346 H 0.62085 0.10552 0.51902
 C2347 C 0.15321 0.58106 0.99694
 C2348 C 0.15731 0.60221 1.00931
 C2349 C 0.18026 0.61166 1.01061
 C2350 C 0.19938 0.60008 0.99999
 C2351 C 0.19460 0.57878 0.98809
 N2352 N 0.17203 0.56998 0.98691
 C2353 C 0.12915 0.57015 0.99492
 N2354 N 0.12722 0.54678 0.98940
 C2355 C 0.10586 0.53541 0.98774
 C2356 C 0.08462 0.54763 0.99192
 C2357 C 0.08617 0.57187 0.99702
 C2358 C 0.10825 0.58318 0.99839
 H2359 H 0.18294 0.62792 1.02021
 H2360 H 0.20861 0.56934 0.97925
 H2361 H 0.10555 0.51674 0.98362
 H2362 H 0.07029 0.58216 1.00000
 H2363 H 0.14319 0.61131 1.01830
 H2364 H 0.10869 0.60194 1.00192
 C2365 C 0.16331 0.41801 0.51031
 C2366 C 0.18266 0.42919 0.52163
 C2367 C 0.20530 0.41947 0.52014
 C2368 C 0.20901 0.39878 0.50716
 C2369 C 0.18928 0.38807 0.49613
 N2370 N 0.16730 0.39788 0.49784
 C2371 C 0.13896 0.42812 0.51054
 N2372 N 0.12275 0.42088 0.49396
 C2373 C 0.10054 0.43028 0.49223
 C2374 C 0.09372 0.44845 0.50752
 C2375 C 0.10981 0.45561 0.52523
 C2376 C 0.13224 0.44537 0.52698
 H2377 H 0.21986 0.42820 0.52927
 H2378 H 0.19137 0.37226 0.48568
 H2379 H 0.08858 0.42414 0.47843
 H2380 H 0.10508 0.46921 0.53773
 H2381 H 0.18076 0.44557 0.53115
 H2382 H 0.14395 0.45108 0.54112
 C2383 C 0.65563 0.91405 0.00418
 C2384 C 0.65996 0.89422 -0.01004
 C2385 C 0.68273 0.88451 -0.01061
 C2386 C 0.70133 0.89459 0.00264
 C2387 C 0.69621 0.91425 0.01679
 N2388 N 0.67391 0.92338 0.01709
 C2389 C 0.63207 0.92570 0.00501
 N2390 N 0.63080 0.94841 0.01282
 C2391 C 0.60996 0.96049 0.01374
 C2392 C 0.58862 0.94969 0.00639
 C2393 C 0.58947 0.92612 -0.00127
 C2394 C 0.61101 0.91407 -0.00187
 H2395 H 0.68582 0.86952 -0.02191
 H2396 H 0.70981 0.92234 0.02776
 H2397 H 0.61016 0.97857 0.01992
 H2398 H 0.57345 0.91687 -0.00675
 H2399 H 0.64627 0.88655 -0.02118
 H2400 H 0.61090 0.89581 -0.00740
 C2401 C -0.00009 0.84007 0.92463
 C2402 C 0.00183 0.81886 0.93762
 C2403 C 0.00278 0.79741 0.92569
 C2404 C 0.00164 0.79690 0.90074
 C2405 C 0.00086 0.81869 0.88849
 N2406 N -0.00010 0.83934 0.90052
 C2407 C -0.00161 0.86327 0.93629
 N2408 N 0.00534 0.88296 0.92406
 C2409 C 0.00435 0.90495 0.93350
 C2410 C -0.00417 0.90807 0.95661
 C2411 C -0.01181 0.88802 0.96938
 C2412 C -0.01063 0.86566 0.95930
 H2413 H 0.00477 0.78157 0.93630
 H2414 H 0.00073 0.81924 0.86928
 H2415 H 0.01030 0.91991 0.92293
 H2416 H -0.01870 0.88957 0.98719
 H2417 H 0.00305 0.81873 0.95679
 H2418 H -0.01709 0.85058 0.96934
 C2419 C 0.50715 0.34157 0.42377
 C2420 C 0.50184 0.32036 0.43582
 C2421 C 0.50331 0.29894 0.42387
 C2422 C 0.51087 0.29831 0.40016
 C2423 C 0.51620 0.31996 0.38888
 N2424 N 0.51429 0.34062 0.40079
 C2425 C 0.50496 0.36510 0.43487
 N2426 N 0.51507 0.38404 0.42369
 C2427 C 0.51382 0.40634 0.43232
 C2428 C 0.50181 0.41066 0.45357
 C2429 C 0.49090 0.39148 0.46525
 C2430 C 0.49232 0.36876 0.45594
 H2431 H 0.49782 0.28298 0.43310
 H2432 H 0.52102 0.32068 0.37035
 H2433 H 0.52249 0.42056 0.42266
 H2434 H 0.48127 0.39401 0.48159
 H2435 H 0.49640 0.32002 0.45416
 H2436 H 0.48329 0.35451 0.46514
 C2437 C 0.00331 0.33807 0.57753
 C2438 C 0.00049 0.33544 0.60208
 C2439 C -0.00058 0.31294 0.61201
 C2440 C 0.00162 0.29275 0.59784
 C2441 C 0.00500 0.29610 0.57334
 N2442 N 0.00573 0.31840 0.56395
 C2443 C 0.00384 0.36175 0.56622
 N2444 N 0.01525 0.36481 0.54519
 C2445 C 0.01646 0.38622 0.53402
 C2446 C 0.00574 0.40613 0.54408
 C2447 C -0.00631 0.40324 0.56560
 C2448 C -0.00745 0.38116 0.57659
 H2449 H -0.00306 0.31124 0.63100
 H2450 H 0.00684 0.28134 0.56151
 H2451 H 0.02578 0.38761 0.51733
 H2452 H -0.01521 0.41796 0.57384
 H2453 H -0.00059 0.35050 0.61371
 H2454 H -0.01753 0.37939 0.59278
 C2455 C 0.50173 0.83389 0.07288
 C2456 C 0.50366 0.81312 0.05955
 C2457 C 0.50318 0.79114 0.07103
 C2458 C 0.50068 0.78972 0.09583
 C2459 C 0.49855 0.81101 0.10835
 N2460 N 0.49908 0.83213 0.09678
 C2461 C 0.50179 0.85774 0.06193
 N2462 N 0.49252 0.87597 0.07441
 C2463 C 0.49203 0.89850 0.06585
 C2464 C 0.50136 0.90377 0.04339
 C2465 C 0.51125 0.88527 0.03030
 C2466 C 0.51158 0.86231 0.03950
 H2467 H 0.50452 0.77561 0.06019
 H2468 H 0.49638 0.81080 0.12742
 H2469 H 0.48432 0.91219 0.07662
 H2470 H 0.51890 0.88853 0.01299
 H2471 H 0.50501 0.81362 0.04043
 H2472 H 0.51982 0.84856 0.02926
 C2473 C 0.49685 0.65349 0.08168
 C2474 C 0.50775 0.65701 0.10398
 C2475 C 0.50906 0.67978 0.11340
 C2476 C 0.49989 0.69911 0.10063
 C2477 C 0.48925 0.69486 0.07841
 N2478 N 0.48807 0.67257 0.06967
 C2479 C 0.49501 0.62992 0.07033
 N2480 N 0.48972 0.62894 0.04671
 C2481 C 0.48795 0.60819 0.03476
 C2482 C 0.49173 0.58659 0.04665
 C2483 C 0.49672 0.58714 0.07111
 C2484 C 0.49825 0.60865 0.08301
 H2485 H 0.51761 0.68227 0.13048
 H2486 H 0.48146 0.70913 0.06811
 H2487 H 0.48400 0.60866 0.01593
 H2488 H 0.49951 0.57093 0.08113
 H2489 H 0.51562 0.64262 0.11399
 H2490 H 0.50173 0.60833 0.10189
 C2491 C 0.00207 0.15554 0.58059
 C2492 C 0.01176 0.15975 0.60328
 C2493 C 0.01173 0.18262 0.61240
 C2494 C 0.00248 0.20149 0.59898
 C2495 C -0.00648 0.19670 0.57617
 N2496 N -0.00652 0.17422 0.56775
 C2497 C 0.00105 0.13156 0.56998
 N2498 N -0.00353 0.12963 0.54629
 C2499 C -0.00475 0.10840 0.53513
 C2500 C -0.00111 0.08728 0.54795
 C2501 C 0.00327 0.08880 0.57245
 C2502 C 0.00421 0.11077 0.58353
 H2503 H 0.01918 0.18550 0.62990
 H2504 H -0.01403 0.21065 0.56527
 H2505 H -0.00823 0.10811 0.51622
 H2506 H 0.00586 0.07299 0.58315
 H2507 H 0.01955 0.14581 0.61396
 H2508 H 0.00708 0.11113 0.60249
 C2509 C 0.51568 0.16427 0.41971
 C2510 C 0.53235 0.18201 0.42538
 C2511 C 0.53082 0.20409 0.41429
 C2512 C 0.51296 0.20856 0.39735
 C2513 C 0.49743 0.19005 0.39124
 N2514 N 0.49903 0.16873 0.40255
 C2515 C 0.51534 0.14109 0.43227
 N2516 N 0.50455 0.12223 0.42172
 C2517 C 0.50282 0.10067 0.43256
 C2518 C 0.51204 0.09720 0.45559
 C2519 C 0.52315 0.11645 0.46679
 C2520 C 0.52478 0.13833 0.45529
 H2521 H 0.54362 0.21769 0.41900
 H2522 H 0.48345 0.19278 0.37820
 H2523 H 0.49402 0.08638 0.42324
 H2524 H 0.53040 0.11473 0.48458
 H2525 H 0.54647 0.17901 0.43817
 H2526 H 0.53276 0.15296 0.46475
 C2527 C 0.00389 0.66115 0.91711
 C2528 C 0.01268 0.68071 0.92969
 C2529 C 0.01153 0.70320 0.91954
 C2530 C 0.00123 0.70666 0.89700
 C2531 C -0.00734 0.68669 0.88491
 N2532 N -0.00596 0.66479 0.89518
 C2533 C 0.00421 0.63690 0.92754
 N2534 N -0.01108 0.62020 0.91892
 C2535 C -0.01254 0.59799 0.92840
 C2536 C 0.00168 0.59162 0.94803
 C2537 C 0.01804 0.60830 0.95673
 C2538 C 0.01955 0.63075 0.94643
 H2539 H 0.01895 0.71785 0.92944
 H2540 H -0.01546 0.68845 0.86753
 H2541 H -0.02526 0.58558 0.92101
 H2542 H 0.02975 0.60397 0.97148
 H2543 H 0.02001 0.67902 0.94740
 H2544 H 0.03273 0.64294 0.95330
 C2545 C 0.22857 0.67412 0.91144
 C2546 C 0.21949 0.65136 0.91617
 C2547 C 0.22238 0.64145 0.93878
 C2548 C 0.23408 0.65422 0.95660
 C2549 C 0.24160 0.67738 0.95167
 N2550 N 0.23881 0.68662 0.92944
 C2551 C 0.22899 0.68415 0.88709
 N2552 N 0.22839 0.70805 0.88403
 C2553 C 0.23056 0.71851 0.86231
 C2554 C 0.23433 0.70473 0.84205
 C2555 C 0.23498 0.68004 0.84479
 C2556 C 0.23218 0.66969 0.86720
 H2557 H 0.21667 0.62337 0.94203
 H2558 H 0.25093 0.68756 0.96505
 H2559 H 0.23005 0.73762 0.86103
 H2560 H 0.23784 0.66876 0.82966
 H2561 H 0.21090 0.64106 0.90241
 H2562 H 0.23346 0.65066 0.86900
 C2563 C 0.73889 0.17058 0.41041
 C2564 C 0.74456 0.14668 0.41387
 C2565 C 0.74897 0.13816 0.43661
 C2566 C 0.74683 0.15295 0.45639
 C2567 C 0.73810 0.17593 0.45253
 N2568 N 0.73507 0.18432 0.42985
 C2569 C 0.73866 0.18114 0.38609
 N2570 N 0.72664 0.20159 0.38154
 C2571 C 0.72665 0.21224 0.35969
 C2572 C 0.73946 0.20235 0.34085
 C2573 C 0.75201 0.18140 0.34529
 C2574 C 0.75184 0.17095 0.36771
 H2575 H 0.75423 0.11983 0.43868
 H2576 H 0.73568 0.18777 0.46730
 H2577 H 0.71682 0.22848 0.35712
 H2578 H 0.76247 0.17326 0.33156
 H2579 H 0.74624 0.13461 0.39921
 H2580 H 0.76263 0.15540 0.37057
 C2581 C 0.24483 0.32148 0.41809
 C2582 C 0.24556 0.30862 0.43963
 C2583 C 0.24667 0.32082 0.46114
 C2584 C 0.24695 0.34556 0.46104
 C2585 C 0.24459 0.35766 0.43936
 N2586 N 0.24378 0.34551 0.41874
 C2587 C 0.24638 0.31018 0.39456
 N2588 N 0.23941 0.32288 0.37508
 C2589 C 0.24155 0.31461 0.35266
 C2590 C 0.25154 0.29229 0.34870
 C2591 C 0.25908 0.27894 0.36851
 C2592 C 0.25655 0.28779 0.39141
 H2593 H 0.24857 0.31103 0.47766
 H2594 H 0.24465 0.37682 0.43876
 H2595 H 0.23543 0.32554 0.33799
 H2596 H 0.26686 0.26161 0.36635
 H2597 H 0.24579 0.28949 0.43998
 H2598 H 0.26306 0.27739 0.40627
 C2599 C 0.74520 0.82172 0.91169
 C2600 C 0.72495 0.83360 0.91988
 C2601 C 0.72546 0.84405 0.94228
 C2602 C 0.74602 0.84265 0.95636
 C2603 C 0.76528 0.82942 0.94815
 N2604 N 0.76445 0.81954 0.92630
 C2605 C 0.74680 0.81234 0.88735
 N2606 N 0.76216 0.79436 0.88305
 C2607 C 0.76535 0.78545 0.86098
 C2608 C 0.75289 0.79497 0.84145
 C2609 C 0.73731 0.81385 0.84544
 C2610 C 0.73419 0.82254 0.86828
 H2611 H 0.71035 0.85421 0.94801
 H2612 H 0.78135 0.82774 0.95874
 H2613 H 0.77757 0.77091 0.85877
 H2614 H 0.72726 0.82175 0.83095
 H2615 H 0.70907 0.83520 0.90903
 H2616 H 0.72242 0.83737 0.87078
 C2617 C 0.72890 0.81146 0.08137
 C2618 C 0.71183 0.82681 0.07151
 C2619 C 0.71688 0.83898 0.05044
 C2620 C 0.73898 0.83609 0.03957
 C2621 C 0.75500 0.81966 0.04928
 N2622 N 0.74968 0.80796 0.06974
 C2623 C 0.72617 0.80122 0.10534
 N2624 N 0.73432 0.77900 0.11002
 C2625 C 0.73509 0.76984 0.13244
 C2626 C 0.72859 0.78382 0.15173
 C2627 C 0.71990 0.80663 0.14730
 C2628 C 0.71834 0.81528 0.12409
 H2629 H 0.70420 0.85167 0.04346
 H2630 H 0.77215 0.81695 0.04117
 H2631 H 0.74203 0.75220 0.13530
 H2632 H 0.71480 0.81791 0.16183
 H2633 H 0.69515 0.82990 0.08041
 H2634 H 0.71240 0.83325 0.12100
 C2635 C 0.23586 0.32035 0.58927
 C2636 C 0.23056 0.31016 0.56712
 C2637 C 0.23644 0.32246 0.54621
 C2638 C 0.24774 0.34463 0.54743
 C2639 C 0.25204 0.35437 0.56985
 N2640 N 0.24613 0.34219 0.58977
 C2641 C 0.23144 0.30848 0.61241
 N2642 N 0.23302 0.32199 0.63223
 C2643 C 0.23196 0.31274 0.65447
 C2644 C 0.22969 0.28822 0.65794
 C2645 C 0.22702 0.27388 0.63785
 C2646 C 0.22794 0.28392 0.61502
 H2647 H 0.23261 0.31452 0.52918
 H2648 H 0.26000 0.37176 0.57163
 H2649 H 0.23374 0.32455 0.66940
 H2650 H 0.22536 0.25485 0.63976
 H2651 H 0.22197 0.29305 0.56580
 H2652 H 0.22703 0.27238 0.59985
 C2653 C 0.74333 0.18046 0.58508
 C2654 C 0.73506 0.19079 0.56374
 C2655 C 0.73766 0.17853 0.54226
 C2656 C 0.74940 0.15659 0.54206
 C2657 C 0.75625 0.14668 0.56412
 N2658 N 0.75305 0.15860 0.58452
 C2659 C 0.74237 0.19206 0.60847
 N2660 N 0.74093 0.17793 0.62810
 C2661 C 0.74254 0.18646 0.65049
 C2662 C 0.74658 0.21065 0.65428
 C2663 C 0.74813 0.22570 0.63430
 C2664 C 0.74585 0.21649 0.61135
 H2665 H 0.73185 0.18686 0.52584
 H2666 H 0.76388 0.12919 0.56543
 H2667 H 0.74118 0.17418 0.66528
 H2668 H 0.75106 0.24452 0.63643
 H2669 H 0.72679 0.20804 0.56365
 H2670 H 0.74771 0.22816 0.59613
 C2671 C 0.24027 0.67877 0.08617
 C2672 C 0.22052 0.66598 0.07749
 C2673 C 0.22175 0.65511 0.05532
 C2674 C 0.24249 0.65701 0.04185
 C2675 C 0.26119 0.67117 0.05047
 N2676 N 0.25970 0.68141 0.07212
 C2677 C 0.24123 0.68853 0.11051
 N2678 N 0.25655 0.70669 0.11525
 C2679 C 0.25935 0.71580 0.13738
 C2680 C 0.24655 0.70630 0.15658
 C2681 C 0.23087 0.68737 0.15213
 C2682 C 0.22815 0.67848 0.12923
 H2683 H 0.20707 0.64417 0.04940
 H2684 H 0.27742 0.67325 0.04042
 H2685 H 0.27166 0.73037 0.13992
 H2686 H 0.22060 0.67944 0.16634
 H2687 H 0.20449 0.66394 0.08781
 H2688 H 0.21638 0.66353 0.12647
 C2689 C 0.18374 0.58438 0.74128
 C2690 C 0.17025 0.57585 0.72194
 C2691 C 0.15913 0.55367 0.72360
 C2692 C 0.16154 0.54006 0.74436
 C2693 C 0.17674 0.54833 0.76238
 N2694 N 0.18708 0.57003 0.76053
 C2695 C 0.19309 0.60897 0.74231
 N2696 N 0.21112 0.61402 0.75780
 C2697 C 0.21963 0.63637 0.76098
 C2698 C 0.20960 0.65550 0.74841
 C2699 C 0.19082 0.65073 0.73253
 C2700 C 0.18254 0.62761 0.72942
 H2701 H 0.14738 0.54793 0.70944
 H2702 H 0.17912 0.53818 0.77861
 H2703 H 0.23415 0.63913 0.77340
 H2704 H 0.18252 0.66486 0.72239
 H2705 H 0.16765 0.58639 0.70602
 H2706 H 0.16765 0.62462 0.71754
 C2707 C 0.68410 0.08265 0.24333
 C2708 C 0.67483 0.07087 0.22337
 C2709 C 0.66288 0.04916 0.22635
 C2710 C 0.65948 0.03959 0.24924
 C2711 C 0.67067 0.05129 0.26836
 N2712 N 0.68231 0.07210 0.26497
 C2713 C 0.69487 0.10663 0.24217
 N2714 N 0.71073 0.11304 0.25938
 C2715 C 0.71971 0.13536 0.26108
 C2716 C 0.71219 0.15316 0.24523
 C2717 C 0.69588 0.14696 0.22725
 C2718 C 0.68729 0.12373 0.22557
 H2719 H 0.65501 0.04094 0.21091
 H2720 H 0.67011 0.04408 0.28620
 H2721 H 0.73224 0.13927 0.27521
 H2722 H 0.68966 0.16008 0.21456
 H2723 H 0.67644 0.07846 0.20576
 H2724 H 0.67421 0.11953 0.21204
 C2725 C 0.82425 0.08895 0.73323
 C2726 C 0.84420 0.08818 0.74820
 C2727 C 0.85548 0.06683 0.75265
 C2728 C 0.84721 0.04569 0.74227
 C2729 C 0.82727 0.04732 0.72692
 N2730 N 0.81621 0.06853 0.72317
 C2731 C 0.81184 0.11173 0.72935
 N2732 N 0.78763 0.11286 0.73042
 C2733 C 0.77590 0.13395 0.73084
 C2734 C 0.78877 0.15535 0.73107
 C2735 C 0.81354 0.15443 0.72852
 C2736 C 0.82505 0.13278 0.72746
 H2737 H 0.87124 0.06735 0.76375
 H2738 H 0.81974 0.03173 0.71872
 H2739 H 0.75672 0.13396 0.73246
 H2740 H 0.82413 0.17051 0.72805
 H2741 H 0.85089 0.10396 0.75680
 H2742 H 0.84425 0.13250 0.72611
 C2743 C 0.32109 0.58669 0.23473
 C2744 C 0.30949 0.56479 0.23129
 C2745 C 0.32235 0.54373 0.23401
 C2746 C 0.34652 0.54451 0.24030
 C2747 C 0.35759 0.56666 0.24249
 N2748 N 0.34478 0.58676 0.23988
 C2749 C 0.30876 0.60989 0.23465
 N2750 N 0.32164 0.62912 0.24156
 C2751 C 0.31216 0.65102 0.24338
 C2752 C 0.28800 0.65474 0.23824
 C2753 C 0.27430 0.63535 0.23055
 C2754 C 0.28458 0.61290 0.22873
 H2755 H 0.31323 0.52690 0.23223
 H2756 H 0.37635 0.56804 0.24679
 H2757 H 0.32357 0.66540 0.24910
 H2758 H 0.25562 0.63744 0.22624
 H2759 H 0.29069 0.56364 0.22733
 H2760 H 0.27354 0.59833 0.22290
 C2761 C 0.31198 0.41807 0.25099
 C2762 C 0.30768 0.43574 0.26776
 C2763 C 0.31984 0.45725 0.26609
 C2764 C 0.33594 0.46131 0.24764
 C2765 C 0.33855 0.44395 0.23034
 N2766 N 0.32702 0.42284 0.23267
 C2767 C 0.30291 0.39362 0.25420
 N2768 N 0.31561 0.37549 0.24499
 C2769 C 0.30903 0.35247 0.24776
 C2770 C 0.28835 0.34649 0.26036
 C2771 C 0.27495 0.36492 0.27001
 C2772 C 0.28214 0.38845 0.26698
 H2773 H 0.31790 0.47013 0.28006
 H2774 H 0.35125 0.44634 0.21618
 H2775 H 0.31977 0.33894 0.23971
 H2776 H 0.25869 0.36122 0.27957
 H2777 H 0.29647 0.43252 0.28297
 H2778 H 0.27126 0.40233 0.27419
 C2779 C 0.81233 0.91896 0.74285
 C2780 C 0.80436 0.93701 0.75781
 C2781 C 0.81587 0.95893 0.75762
 C2782 C 0.83506 0.96307 0.74244
 C2783 C 0.84150 0.94527 0.72665
 N2784 N 0.83042 0.92378 0.72754
 C2785 C 0.80342 0.89424 0.74517
 N2786 N 0.81759 0.87613 0.73821
 C2787 C 0.81117 0.85298 0.74081
 C2788 C 0.78925 0.84687 0.75108
 C2789 C 0.77432 0.86531 0.75821
 C2790 C 0.78122 0.88887 0.75519
 H2791 H 0.81100 0.97206 0.77057
 H2792 H 0.85667 0.94772 0.71515
 H2793 H 0.82314 0.83943 0.73472
 H2794 H 0.75704 0.86158 0.76580
 H2795 H 0.79065 0.93391 0.77082
 H2796 H 0.76905 0.90259 0.76039
 C2797 C 0.66800 0.91093 0.23345
 C2798 C 0.64350 0.91504 0.23082
 C2799 C 0.63462 0.93768 0.23450
 C2800 C 0.65007 0.95627 0.24047
 C2801 C 0.67455 0.95194 0.24122
 N2802 N 0.68282 0.92959 0.23796
 C2803 C 0.67788 0.88665 0.23316
 N2804 N 0.70098 0.88350 0.22692
 C2805 C 0.71159 0.86191 0.22775
 C2806 C 0.69898 0.84187 0.23584
 C2807 C 0.67515 0.84473 0.24238
 C2808 C 0.66455 0.86699 0.24100
 H2809 H 0.61557 0.94049 0.23389
 H2810 H 0.68691 0.96593 0.24593
 H2811 H 0.73005 0.86059 0.22266
 H2812 H 0.66477 0.82982 0.24878
 H2813 H 0.63120 0.90084 0.22665
 H2814 H 0.64638 0.86883 0.24686
 C2815 C 0.16683 0.40894 0.73609
 C2816 C 0.14216 0.41275 0.73510
 C2817 C 0.13336 0.43550 0.73814
 C2818 C 0.14900 0.45453 0.74170
 C2819 C 0.17351 0.45043 0.74085
 N2820 N 0.18174 0.42795 0.73837
 C2821 C 0.17688 0.38472 0.73615
 N2822 N 0.19981 0.38150 0.72932
 C2823 C 0.21053 0.35996 0.73032
 C2824 C 0.19818 0.34004 0.73909
 C2825 C 0.17451 0.34298 0.74614
 C2826 C 0.16385 0.36517 0.74472
 H2827 H 0.11430 0.43819 0.73842
 H2828 H 0.18602 0.46482 0.74344
 H2829 H 0.22885 0.35857 0.72477
 H2830 H 0.16430 0.32822 0.75312
 H2831 H 0.12969 0.39835 0.73248
 H2832 H 0.14588 0.36698 0.75113
 C2833 C 0.09086 0.73471 0.82502
 C2834 C 0.09075 0.74136 0.84898
 C2835 C 0.06933 0.74606 0.86004
 C2836 C 0.04783 0.74433 0.84743
 C2837 C 0.04843 0.73695 0.82374
 N2838 N 0.06971 0.73274 0.81311
 C2839 C 0.11366 0.73195 0.81227
 N2840 N 0.11484 0.73728 0.78864
 C2841 C 0.13590 0.73808 0.77679
 C2842 C 0.15735 0.73419 0.78909
 C2843 C 0.15639 0.72744 0.81303
 C2844 C 0.13465 0.72593 0.82455
 H2845 H 0.06960 0.75151 0.87842
 H2846 H 0.03214 0.73548 0.81347
 H2847 H 0.13599 0.74307 0.75820
 H2848 H 0.17256 0.72375 0.82296
 H2849 H 0.10704 0.74399 0.85898
 H2850 H 0.13448 0.72066 0.84305
 C2851 C 0.58343 0.23649 0.31102
 C2852 C 0.57418 0.21968 0.32702
 C2853 C 0.55313 0.22451 0.33901
 C2854 C 0.54158 0.24616 0.33529
 C2855 C 0.55066 0.26188 0.31817
 N2856 N 0.57115 0.25678 0.30667
 C2857 C 0.60739 0.23391 0.30089
 N2858 N 0.61158 0.24112 0.27815
 C2859 C 0.63385 0.24140 0.26880
 C2860 C 0.65353 0.23525 0.28297
 C2861 C 0.64960 0.22769 0.30637
 C2862 C 0.62655 0.22668 0.31529
 H2863 H 0.54677 0.21205 0.35226
 H2864 H 0.54208 0.27870 0.31480
 H2865 H 0.63629 0.24750 0.25071
 H2866 H 0.66442 0.22287 0.31782
 H2867 H 0.58357 0.20337 0.33079
 H2868 H 0.62387 0.22145 0.33361
 C2869 C 0.57783 0.74102 0.18867
 C2870 C 0.56142 0.75934 0.19203
 C2871 C 0.54051 0.75987 0.17854
 C2872 C 0.53570 0.74211 0.16196
 C2873 C 0.55170 0.72334 0.16015
 N2874 N 0.57232 0.72350 0.17302
 C2875 C 0.60205 0.74190 0.19936
 N2876 N 0.62018 0.73115 0.18784
 C2877 C 0.64319 0.73270 0.19534
 C2878 C 0.64923 0.74593 0.21555
 C2879 C 0.63073 0.75662 0.22809
 C2880 C 0.60719 0.75460 0.22013
 H2881 H 0.52872 0.77487 0.18004
 H2882 H 0.54875 0.70959 0.14719
 H2883 H 0.65676 0.72384 0.18526
 H2884 H 0.63442 0.76671 0.24396
 H2885 H 0.56527 0.77403 0.20364
 H2886 H 0.59331 0.76295 0.23019
 C2887 C 0.07701 0.24158 0.68800
 C2888 C 0.05906 0.25777 0.69362
 C2889 C 0.03796 0.25791 0.68044
 C2890 C 0.03452 0.24185 0.66194
 C2891 C 0.05210 0.22498 0.65783
 N2892 N 0.07282 0.22553 0.67050
 C2893 C 0.10129 0.24334 0.69841
 N2894 N 0.11987 0.23459 0.68592
 C2895 C 0.14283 0.23667 0.69344
 C2896 C 0.14829 0.24828 0.71476
 C2897 C 0.12937 0.25715 0.72810
 C2898 C 0.10593 0.25464 0.72008
 H2899 H 0.02495 0.27159 0.68360
 H2900 H 0.05029 0.21276 0.64325
 H2901 H 0.15674 0.22926 0.68267
 H2902 H 0.13263 0.26587 0.74486
 H2903 H 0.06176 0.27134 0.70678
 H2904 H 0.09174 0.26134 0.73093
 C2905 C 0.90714 0.23261 0.66893
 C2906 C 0.92837 0.22660 0.68097
 C2907 C 0.95023 0.22960 0.66957
 C2908 C 0.95094 0.23872 0.64640
 C2909 C 0.92934 0.24348 0.63469
 N2910 N 0.90839 0.24061 0.64614
 C2911 C 0.88353 0.23246 0.68049
 N2912 N 0.86574 0.24549 0.67040
 C2913 C 0.84384 0.24737 0.68025
 C2914 C 0.83881 0.23581 0.70177
 C2915 C 0.85669 0.22172 0.71217
 C2916 C 0.87897 0.21993 0.70161
 H2917 H 0.96656 0.22591 0.67921
 H2918 H 0.92910 0.25008 0.61659
 H2919 H 0.83060 0.25826 0.67146
 H2920 H 0.85357 0.21216 0.72861
 H2921 H 0.92840 0.22069 0.69926
 H2922 H 0.89225 0.20881 0.70996
 C2923 C 0.40847 0.73092 0.17180
 C2924 C 0.42999 0.72591 0.18382
 C2925 C 0.45166 0.72917 0.17208
 C2926 C 0.45189 0.73757 0.14863
 C2927 C 0.43006 0.74134 0.13701
 N2928 N 0.40932 0.73820 0.14875
 C2929 C 0.38488 0.73047 0.18347
 N2930 N 0.36644 0.74153 0.17221
 C2931 C 0.34445 0.74321 0.18182
 C2932 C 0.33992 0.73358 0.20437
 C2933 C 0.35847 0.72149 0.21609
 C2934 C 0.38089 0.71983 0.20572
 H2935 H 0.46819 0.72618 0.18163
 H2936 H 0.42945 0.74731 0.11871
 H2937 H 0.33072 0.75252 0.17199
 H2938 H 0.35576 0.71351 0.23342
 H2939 H 0.43038 0.72051 0.20226
 H2940 H 0.39472 0.71036 0.21518
 C2941 C 0.41326 0.24940 0.32823
 C2942 C 0.43384 0.24481 0.31499
 C2943 C 0.45604 0.24432 0.32643
 C2944 C 0.45762 0.24848 0.35084
 C2945 C 0.43655 0.25156 0.36359
 N2946 N 0.41525 0.25204 0.35213
 C2947 C 0.38946 0.25217 0.31716
 N2948 N 0.36987 0.24821 0.33072
 C2949 C 0.34738 0.25102 0.32217
 C2950 C 0.34354 0.25851 0.29862
 C2951 C 0.36351 0.26330 0.28450
 C2952 C 0.38644 0.26012 0.29365
 H2953 H 0.47199 0.24193 0.31609
 H2954 H 0.43714 0.25454 0.38254
 H2955 H 0.33255 0.24715 0.33374
 H2956 H 0.36144 0.26904 0.26621
 H2957 H 0.43293 0.24198 0.29605
 H2958 H 0.40153 0.26421 0.28252
 C2959 C 0.91671 0.74873 0.81729
 C2960 C 0.92460 0.72926 0.83094
 C2961 C 0.94736 0.72973 0.84114
 C2962 C 0.96213 0.74944 0.83765
 C2963 C 0.95437 0.76754 0.82229
 N2964 N 0.93209 0.76687 0.81282
 C2965 C 0.89176 0.75097 0.80897
 N2966 N 0.88685 0.76489 0.78970
 C2967 C 0.86427 0.76848 0.78161
 C2968 C 0.84486 0.75794 0.79330
 C2969 C 0.84953 0.74409 0.81363
 C2970 C 0.87285 0.74055 0.82147
 H2971 H 0.95268 0.71560 0.85312
 H2972 H 0.96542 0.78300 0.81919
 H2973 H 0.86157 0.77928 0.76586
 H2974 H 0.83522 0.73557 0.82326
 H2975 H 0.91312 0.71421 0.83440
 H2976 H 0.87588 0.73010 0.83738
   
