data_POSCAR
  _audit_creation_date              2014-09-24
  _audit_creation_method            'ToBaCCo'
  _symmetry_space_group_name_H-M    'P1'
  _symmetry_Int_Tables_number       1
  _symmetry_cell_setting            triclinic
  loop_
  _symmetry_equiv_pos_as_xyz
 x,y,z
_cell_length_a 66.1815
_cell_length_b 66.1410
_cell_length_c 66.1041
_cell_angle_alpha 90.245100
_cell_angle_beta 89.783100
_cell_angle_gamma 89.916200
loop_
  _atom_site_label
  _atom_site_type_symbol
  _atom_site_fract_x
  _atom_site_fract_y
  _atom_site_fract_z
N1 N 0.36452 1.36503 0.36553
 N2 N 0.36723 0.86701 0.86812
 N3 N 0.81982 1.31806 0.82107
 N4 N 0.86363 0.86454 0.36556
 N5 N 0.67718 0.67857 0.31790
 N6 N 0.68184 0.18032 0.81671
 N7 N 1.18189 0.68125 0.81295
 N8 N 1.17672 0.17685 0.31828
 N9 N 0.62814 1.36818 0.62894
 N10 N 0.67797 0.81643 1.18014
 N11 N 1.17600 1.31818 1.17666
 N12 N 1.18142 0.81424 0.68007
 N13 N 0.31747 0.67814 0.67830
 N14 N 0.31921 0.17526 1.17672
 N15 N 0.81715 0.67625 1.17825
 N16 N 0.81982 0.17653 0.67856
 N17 N 1.36487 0.36779 0.63001
 N18 N 1.36434 0.86606 1.13305
 N19 N 0.81973 0.32107 1.17502
 N20 N 0.86478 0.86699 0.62995
 N21 N 0.67917 0.68224 0.68239
 N22 N 0.67576 1.17751 1.17787
 N23 N 0.17964 0.68084 1.18276
 N24 N 0.17623 1.17976 0.68048
 N25 N 1.36375 0.63246 0.36612
 N26 N 1.36559 1.12956 0.86933
 N27 N 0.86498 0.62776 0.86843
 N28 N 0.81820 1.17717 0.31980
 N29 N 0.67485 0.32075 0.32023
 N30 N 0.62959 0.86532 0.86651
 N31 N 0.17414 0.31965 0.82118
 N32 N 0.17641 0.82014 0.32117
 O33 O 0.97738 0.92238 0.89730
 O34 O 0.97755 0.89878 0.87363
 C35 C 0.97060 0.91525 0.88079
 C36 C 0.95415 0.92603 0.87015
 C37 C 0.94766 0.91967 0.85093
 H38 H 0.95502 0.90706 0.84340
 O39 O 1.01773 1.06779 0.89775
 O40 O 1.01784 1.09124 0.87413
 C41 C 1.02473 1.07484 0.88131
 C42 C 1.04151 1.06421 0.87082
 C43 C 1.04934 1.07171 0.85256
 H44 H 1.04267 1.08493 0.84559
 O45 O 0.89629 0.97580 0.92513
 O46 O 0.87273 0.97596 0.90164
 C47 C 0.87979 0.96904 0.91806
 C48 C 0.86905 0.95267 0.92888
 C49 C 0.84988 0.94614 0.92256
 H50 H 0.84245 0.95345 0.90996
 O51 O 1.09914 1.01471 0.92528
 O52 O 1.12276 1.01446 0.90166
 C53 C 1.11564 1.02146 0.91814
 C54 C 1.12632 1.03793 0.92893
 C55 C 1.14553 1.04441 0.92256
 H56 H 1.15302 1.03702 0.90993
 O57 O 0.92383 0.89520 0.97821
 O58 O 0.90036 0.87157 0.97833
 C59 C 0.91680 0.87867 0.97139
 C60 C 0.92768 0.86791 0.95495
 C61 C 0.92141 0.84867 0.94845
 H62 H 0.90879 0.84125 0.95580
 O63 O 1.07125 1.09571 0.97838
 O64 O 1.09478 1.11929 0.97828
 C65 C 1.07837 1.11209 0.97140
 C66 C 1.06775 1.12253 0.95474
 C67 C 1.07514 1.14086 0.94704
 H68 H 1.08836 1.14788 0.95367
 O69 O 0.92446 1.01497 0.89768
 O70 O 0.90105 1.01518 0.87403
 C71 C 0.91748 1.02196 0.88126
 C72 C 0.92826 1.03857 0.87083
 C73 C 0.92087 1.04639 0.85256
 H74 H 0.90759 1.03985 0.84556
 O75 O 1.07105 0.97527 0.89799
 O76 O 1.09455 0.97495 0.87425
 C77 C 1.07809 0.96820 0.88152
 C78 C 1.06733 0.95158 0.87103
 C79 C 1.07492 0.94363 0.85278
 H80 H 1.08834 0.95005 0.84590
 O81 O 1.01671 0.89499 0.92528
 O82 O 1.01692 0.87129 0.90170
 C83 C 1.02375 0.87856 0.91814
 C84 C 1.04051 0.86815 0.92868
 C85 C 1.04842 0.84997 0.92093
 H86 H 1.04184 0.84305 0.90760
 O87 O 0.97829 1.09579 0.92551
 O88 O 0.97837 1.11929 0.90194
 C89 C 0.97141 1.11222 0.91839
 C90 C 0.95473 1.12284 0.92903
 C91 C 0.94710 1.14117 0.92155
 H92 H 0.95384 1.14807 0.90830
 O93 O 0.89711 1.06871 0.97893
 O94 O 0.87365 1.09242 0.97898
 C95 C 0.88076 1.07594 0.97200
 C96 C 0.87029 1.06545 0.95520
 C97 C 0.85233 1.07341 0.94722
 H98 H 0.84558 1.08686 0.95382
 O99 O 1.09857 0.92225 0.97851
 O100 O 1.12202 0.89853 0.97843
 C101 C 1.11502 0.91503 0.97161
 C102 C 1.12582 0.92578 0.95521
 C103 C 1.14510 0.91947 0.94880
 H104 H 1.15254 0.90692 0.95621
 O105 O 0.97824 1.06794 0.89782
 O106 O 0.97836 1.09138 0.87420
 C107 C 0.97136 1.07502 0.88139
 C108 C 0.95463 1.06450 0.87090
 C109 C 0.94699 1.07205 0.85263
 H110 H 0.95376 1.08524 0.84568
 O111 O 1.01685 0.92253 0.89760
 O112 O 1.01705 0.89890 0.87396
 C113 C 1.02394 0.91532 0.88121
 C114 C 1.04083 0.92577 0.87084
 C115 C 1.04870 0.91809 0.85259
 H116 H 1.04198 0.90488 0.84556
 O117 O 1.09899 0.97528 0.92531
 O118 O 1.12263 0.97501 0.90171
 C119 C 1.11545 0.96828 0.91820
 C120 C 1.12603 0.95185 0.92906
 C121 C 1.14531 0.94533 0.92287
 H122 H 1.15291 0.95266 0.91034
 O123 O 0.89673 1.01525 0.92538
 O124 O 0.87323 1.01550 0.90182
 C125 C 0.88042 1.02238 0.91826
 C126 C 0.87012 1.03928 0.92889
 C127 C 0.85217 1.04753 0.92115
 H128 H 0.84530 1.04110 0.90772
 O129 O 0.92486 1.09629 0.97891
 O130 O 0.90145 1.12006 0.97895
 C131 C 0.91784 1.11274 0.97199
 C132 C 0.92851 1.12310 0.95525
 C133 C 0.92112 1.14143 0.94752
 H134 H 0.90791 1.14852 0.95421
 O135 O 1.07043 0.89508 0.97847
 O136 O 1.09375 0.87123 0.97832
 C137 C 1.07741 0.87858 0.97145
 C138 C 1.06675 0.86817 0.95471
 C139 C 1.07438 0.84999 0.94669
 H140 H 1.08774 0.84308 0.95314
 O141 O 1.07135 1.01470 0.89781
 O142 O 1.09484 1.01449 0.87406
 C143 C 1.07845 1.02151 0.88132
 C144 C 1.06783 1.03816 0.87084
 C145 C 1.07541 1.04592 0.85258
 H146 H 1.08875 1.03932 0.84563
 O147 O 0.92414 0.97554 0.89749
 O148 O 0.90075 0.97568 0.87381
 C149 C 0.91713 0.96870 0.88097
 C150 C 0.92796 0.95220 0.87026
 C151 C 0.92170 0.94563 0.85105
 H152 H 0.90912 0.95297 0.84360
 O153 O 1.01776 1.09564 0.92540
 O154 O 1.01784 1.11915 0.90184
 C155 C 1.02474 1.11202 0.91824
 C156 C 1.04148 1.12250 0.92877
 C157 C 1.04912 1.14084 0.92131
 H158 H 1.04235 1.14784 0.90818
 O159 O 0.97727 0.89480 0.92504
 O160 O 0.97744 0.87105 0.90152
 C161 C 0.97046 0.87828 0.91797
 C162 C 0.95396 0.86770 0.92879
 C163 C 0.94746 0.84845 0.92251
 H164 H 0.95487 0.84087 0.90994
 O165 O 1.09908 1.06813 0.97844
 O166 O 1.12274 1.09158 0.97847
 C167 C 1.11560 1.07512 0.97158
 C168 C 1.12630 1.06419 0.95513
 C169 C 1.14550 1.07044 0.94855
 H170 H 1.15296 1.08306 0.95589
 O171 O 0.89607 0.92288 0.97829
 O172 O 0.87244 0.89941 0.97842
 C173 C 0.87959 0.91581 0.97148
 C174 C 0.86896 0.92659 0.95505
 C175 C 0.84978 0.92028 0.94850
 H176 H 0.84228 0.90772 0.95585
 Cu177 Cu 0.99698 0.91105 0.91366
 Cu178 Cu 0.99724 0.88263 0.88533
 Cu179 Cu 0.99799 1.07944 0.91398
 Cu180 Cu 0.99811 1.10761 0.88565
 Cu181 Cu 0.91274 0.99534 0.91378
 Cu182 Cu 0.88457 0.99558 0.88546
 Cu183 Cu 1.08279 0.99502 0.91398
 Cu184 Cu 1.11103 0.99469 0.88551
 C185 C 0.94431 0.94241 0.87959
 H186 H 0.94907 0.94724 0.89451
 C187 C 0.93155 0.92949 0.84139
 C188 C 1.05073 1.04729 0.87973
 H189 H 1.04499 1.04162 0.89399
 C190 C 1.06622 1.06262 0.84351
 C191 C 0.87836 0.94291 0.94525
 H192 H 0.89325 0.94769 0.95005
 C193 C 0.84025 0.93007 0.93238
 C194 C 1.11694 1.04780 0.94534
 H195 H 1.10203 1.04306 0.95017
 C196 C 1.15511 1.06055 0.93239
 C197 C 0.94409 0.87720 0.94514
 H198 H 0.94885 0.89213 0.94991
 C199 C 0.93130 0.83895 0.93236
 C200 C 1.05077 1.11358 0.94563
 H201 H 1.04517 1.09928 0.95127
 C202 C 1.06587 1.14996 0.93040
 C203 C 0.94529 1.04761 0.87978
 H204 H 0.95087 1.04190 0.89405
 C205 C 0.93018 1.06306 0.84352
 C206 C 1.05014 0.94267 0.87985
 H207 H 1.04439 0.94847 0.89410
 C208 C 1.06567 0.92696 0.84365
 C209 C 1.04966 0.87704 0.94572
 H210 H 1.04389 0.89125 0.95157
 C211 C 1.06529 0.84098 0.92986
 C212 C 0.94546 1.11404 0.94603
 H213 H 0.95104 1.09974 0.95168
 C214 C 0.93037 1.15040 0.93074
 C215 C 0.87895 1.04824 0.94606
 H216 H 0.89298 1.04222 0.95190
 C217 C 0.84335 1.06452 0.93026
 C218 C 1.11651 0.94210 0.94536
 H219 H 1.10154 0.94689 0.95006
 C220 C 1.15484 0.92926 0.93276
 O221 O 1.01670 0.92313 1.09898
 O222 O 1.01666 0.89957 1.12250
 C223 C 1.02365 0.91595 1.11534
 C224 C 1.04045 0.92643 1.12577
 C225 C 1.04810 0.91897 1.14409
 H226 H 1.04129 0.90586 1.15114
 O227 O 0.97804 1.06882 1.09902
 O228 O 0.97808 1.09244 1.12267
 C229 C 0.97111 1.07603 1.11549
 C230 C 0.95435 1.06557 1.12602
 C231 C 0.94662 1.07322 1.14434
 H232 H 0.95335 1.08645 1.15130
 O233 O 0.89662 1.01586 1.07180
 O234 O 0.87296 1.01608 1.09539
 C235 C 0.88021 1.02292 1.07896
 C236 C 0.86984 1.03968 1.06840
 C237 C 0.85167 1.04770 1.07604
 H238 H 0.84467 1.04121 1.08936
 O239 O 1.09859 0.97567 1.07120
 O240 O 1.12216 0.97568 1.09470
 C241 C 1.11504 0.96877 1.07825
 C242 C 1.12566 0.95223 1.06740
 C243 C 1.14476 0.94554 1.07376
 H244 H 1.15221 0.95287 1.08639
 O245 O 1.07042 0.89510 1.01797
 O246 O 1.09374 0.87125 1.01791
 C247 C 1.07737 0.87862 1.02489
 C248 C 1.06667 0.86830 1.04163
 C249 C 1.07431 0.85020 1.04964
 H250 H 1.08772 0.84328 1.04315
 O251 O 0.92479 1.09646 1.01840
 O252 O 0.90137 1.12022 1.01847
 C253 C 0.91774 1.11298 1.02535
 C254 C 0.92838 1.12350 1.04202
 C255 C 0.92097 1.14190 1.04978
 H256 H 0.90777 1.14893 1.04316
 O257 O 0.92405 0.97641 1.09951
 O258 O 0.90058 0.97667 1.12329
 C259 C 0.91699 0.96967 1.11606
 C260 C 0.92778 0.95323 1.12669
 C261 C 0.92136 0.94668 1.14587
 H262 H 0.90871 0.95402 1.15336
 O263 O 1.07078 1.01525 1.09888
 O264 O 1.09415 1.01522 1.12257
 C265 C 1.07780 1.02218 1.11536
 C266 C 1.06716 1.03894 1.12587
 C267 C 1.07459 1.04672 1.14421
 H268 H 1.08778 1.04003 1.15119
 O269 O 0.97715 0.89571 1.07123
 O270 O 0.97698 0.87213 1.09472
 C271 C 0.97013 0.87933 1.07831
 C272 C 0.95343 0.86888 1.06768
 C273 C 0.94563 0.85063 1.07519
 H274 H 0.95221 0.84370 1.08846
 O275 O 1.01760 1.09627 1.07124
 O276 O 1.01765 1.11996 1.09482
 C277 C 1.02456 1.11271 1.07835
 C278 C 1.04126 1.12313 1.06769
 C279 C 1.04893 1.14150 1.07515
 H280 H 1.04221 1.14856 1.08839
 O281 O 0.89629 0.92322 1.01777
 O282 O 0.87269 0.89971 1.01796
 C283 C 0.87991 0.91614 1.02486
 C284 C 0.86954 0.92678 1.04172
 C285 C 0.85131 0.91928 1.04963
 H286 H 0.84430 0.90605 1.04296
 O287 O 1.09878 1.06824 1.01791
 O288 O 1.12234 1.09179 1.01798
 C289 C 1.11514 1.07540 1.02490
 C290 C 1.12553 1.06487 1.04164
 C291 C 1.14376 1.07240 1.04946
 H292 H 1.15076 1.08563 1.04283
 O293 O 1.01750 1.06870 1.09897
 O294 O 1.01755 1.09232 1.12262
 C295 C 1.02442 1.07584 1.11541
 C296 C 1.04105 1.06519 1.12588
 C297 C 1.04873 1.07272 1.14422
 H298 H 1.04206 1.08601 1.15122
 O299 O 0.97725 0.92316 1.09934
 O300 O 0.97720 0.89969 1.12293
 C301 C 0.97037 0.91615 1.11585
 C302 C 0.95393 0.92704 1.12659
 C303 C 0.94729 0.92071 1.14577
 H304 H 0.95458 0.90808 1.15319
 O305 O 1.09851 1.01513 1.07117
 O306 O 1.12197 1.01518 1.09477
 C307 C 1.11488 1.02208 1.07834
 C308 C 1.12541 1.03877 1.06779
 C309 C 1.14363 1.04654 1.07536
 H310 H 1.15054 1.03991 1.08862
 O311 O 0.89670 0.97640 1.07157
 O312 O 0.87311 0.97653 1.09522
 C313 C 0.88027 0.96954 1.07874
 C314 C 0.86974 0.95287 1.06811
 C315 C 0.85151 0.94512 1.07576
 H316 H 0.84463 0.95174 1.08915
 O317 O 1.07113 1.09596 1.01785
 O318 O 1.09460 1.11960 1.01783
 C319 C 1.07818 1.11244 1.02477
 C320 C 1.06749 1.12301 1.04147
 C321 C 1.07490 1.14138 1.04918
 H322 H 1.08813 1.14835 1.04247
 O323 O 0.92394 0.89554 1.01768
 O324 O 0.90042 0.87194 1.01785
 C325 C 0.91683 0.87917 1.02471
 C326 C 0.92740 0.86879 1.04144
 C327 C 0.91987 0.85054 1.04921
 H328 H 0.90666 0.84354 1.04254
 O329 O 1.07060 0.97581 1.09870
 O330 O 1.09404 0.97571 1.12232
 C331 C 1.07762 0.96887 1.11512
 C332 C 1.06687 0.95230 1.12563
 C333 C 1.07426 0.94460 1.14394
 H334 H 1.08754 0.95118 1.15089
 O335 O 0.92444 1.01583 1.09921
 O336 O 0.90088 1.01614 1.12289
 C337 C 0.91734 1.02291 1.11565
 C338 C 0.92802 1.03960 1.12609
 C339 C 0.92054 1.04751 1.14442
 H340 H 0.90725 1.04099 1.15144
 O341 O 0.97815 1.09649 1.07142
 O342 O 0.97818 1.12018 1.09500
 C343 C 0.97125 1.11297 1.07860
 C344 C 0.95457 1.12350 1.06807
 C345 C 0.94692 1.14189 1.07559
 H346 H 0.95364 1.14891 1.08879
 O347 O 1.01662 0.89540 1.07124
 O348 O 1.01650 0.87178 1.09469
 C349 C 1.02351 0.87895 1.07830
 C350 C 1.04030 0.86844 1.06772
 C351 C 1.04822 0.85035 1.07547
 H352 H 1.04160 0.84354 1.08882
 O353 O 1.09850 0.92234 1.01795
 O354 O 1.12193 0.89859 1.01787
 C355 C 1.11491 0.91513 1.02479
 C356 C 1.12560 0.92593 1.04124
 C357 C 1.14471 0.91946 1.04783
 H358 H 1.15212 0.90674 1.04052
 O359 O 0.89700 1.06891 1.01845
 O360 O 0.87352 1.09260 1.01852
 C361 C 0.88061 1.07617 1.02544
 C362 C 0.87005 1.06573 1.04220
 C363 C 0.85187 1.07350 1.05009
 H364 H 0.84503 1.08681 1.04347
 Cu365 Cu 0.99691 0.91171 1.08285
 Cu366 Cu 0.99680 0.88341 1.11105
 Cu367 Cu 0.99782 1.08020 1.08280
 Cu368 Cu 0.99787 1.10860 1.11115
 Cu369 Cu 0.91238 0.91157 0.99793
 Cu370 Cu 0.88411 0.88329 0.99813
 Cu371 Cu 1.08215 0.91107 0.99824
 Cu372 Cu 1.11016 0.88246 0.99811
 Cu373 Cu 0.91328 1.08022 0.99867
 Cu374 Cu 0.88514 1.10870 0.99874
 Cu375 Cu 1.08271 1.07966 0.99813
 Cu376 Cu 1.11097 1.10794 0.99813
 Cu377 Cu 0.91281 0.99609 1.08316
 Cu378 Cu 0.88450 0.99636 1.11156
 Cu379 Cu 1.08228 0.99545 1.08262
 Cu380 Cu 1.11043 0.99543 1.11097
 C381 C 1.04982 0.94324 1.11677
 H382 H 1.04423 0.94888 1.10248
 C383 C 1.06493 0.92802 1.15311
 C384 C 0.94507 1.04861 1.11713
 H385 H 0.95073 1.04284 1.10283
 C386 C 0.92979 1.06424 1.15347
 C387 C 0.87880 1.04868 1.05134
 H388 H 0.89299 1.04281 1.04556
 C389 C 0.84275 1.06454 1.06693
 C390 C 1.11631 0.94244 1.05101
 H391 H 1.10148 0.94735 1.04619
 C392 C 1.15428 0.92928 1.06398
 C393 C 1.04951 0.87719 1.05065
 H394 H 1.04374 0.89133 1.04481
 C395 C 1.06516 0.84131 1.06649
 C396 C 0.94532 1.11453 1.05114
 H397 H 0.95092 1.10019 1.04546
 C398 C 0.93020 1.15103 1.06649
 C399 C 0.94419 0.94343 1.11729
 H400 H 0.94906 0.94823 1.10240
 C401 C 0.93112 0.93053 1.15539
 C402 C 1.05025 1.04816 1.11695
 H403 H 1.04464 1.04247 1.10264
 C404 C 1.06542 1.06353 1.15331
 C405 C 0.94433 0.87774 1.05066
 H406 H 0.95003 0.89198 1.04498
 C407 C 0.92892 0.84154 1.06601
 C408 C 1.05052 1.11412 1.05071
 H409 H 1.04491 1.09979 1.04508
 C410 C 1.06567 1.15056 1.06594
 C411 C 0.87853 0.94372 1.05094
 H412 H 0.89276 0.94938 1.04516
 C413 C 0.84237 0.92840 1.06657
 C414 C 1.11659 1.04790 1.05079
 H415 H 1.10237 1.04221 1.04506
 C416 C 1.15275 1.06328 1.06625
 O417 O 0.97724 0.42556 0.39843
 O418 O 0.97720 0.40196 0.37477
 C419 C 0.97028 0.41840 0.38201
 C420 C 0.95355 0.42897 0.37161
 C421 C 0.94586 0.42145 0.35328
 H422 H 0.95259 0.40823 0.34621
 O423 O 1.01663 0.57119 0.39869
 O424 O 1.01671 0.59461 0.37505
 C425 C 1.02362 0.57822 0.38224
 C426 C 1.04039 0.56758 0.37174
 C427 C 1.04821 0.57515 0.35350
 H428 H 1.04155 0.58841 0.34660
 O429 O 0.89604 0.47902 0.42652
 O430 O 0.87246 0.47903 0.40303
 C431 C 0.87960 0.47213 0.41943
 C432 C 0.86907 0.45549 0.43004
 C433 C 0.85077 0.44778 0.42257
 H434 H 0.84381 0.45445 0.40936
 O435 O 1.09845 0.51784 0.42568
 O436 O 1.12197 0.51781 0.40195
 C437 C 1.11488 0.52472 0.41849
 C438 C 1.12550 0.54122 0.42929
 C439 C 1.14461 0.54788 0.42282
 H440 H 1.15209 0.54058 0.41012
 O441 O 0.92364 0.39830 0.47962
 O442 O 0.90020 0.37465 0.47959
 C443 C 0.91660 0.38185 0.47265
 C444 C 0.92729 0.37133 0.45591
 C445 C 0.91984 0.35301 0.44813
 H446 H 0.90658 0.34606 0.45478
 O447 O 1.07029 0.59872 0.47902
 O448 O 1.09376 0.62236 0.47908
 C449 C 1.07737 0.61518 0.47216
 C450 C 1.06674 0.62571 0.45557
 C451 C 1.07422 0.64400 0.44787
 H452 H 1.08750 0.65093 0.45447
 O453 O 0.92389 0.51824 0.39880
 O454 O 0.90042 0.51824 0.37521
 C455 C 0.91682 0.52514 0.38237
 C456 C 0.92746 0.54176 0.37185
 C457 C 0.91999 0.54944 0.35356
 H458 H 0.90676 0.54275 0.34661
 O459 O 1.07047 0.47846 0.39824
 O460 O 1.09385 0.47835 0.37439
 C461 C 1.07746 0.47149 0.38171
 C462 C 1.06672 0.45485 0.37124
 C463 C 1.07412 0.44702 0.35286
 H464 H 1.08740 0.45356 0.34582
 O465 O 1.01676 0.39788 0.42591
 O466 O 1.01668 0.37422 0.40230
 C467 C 1.02367 0.38142 0.41869
 C468 C 1.04042 0.37090 0.42911
 C469 C 1.04806 0.35256 0.42146
 H470 H 1.04128 0.34559 0.40826
 O471 O 0.97722 0.59934 0.42634
 O472 O 0.97735 0.62291 0.40285
 C473 C 0.97042 0.61584 0.41931
 C474 C 0.95397 0.62660 0.43019
 C475 C 0.94730 0.64569 0.42374
 H476 H 0.95456 0.65304 0.41102
 O477 O 0.89641 0.57208 0.47986
 O478 O 0.87289 0.59573 0.48000
 C479 C 0.88003 0.57928 0.47297
 C480 C 0.86959 0.56876 0.45617
 C481 C 0.85167 0.57670 0.44808
 H482 H 0.84493 0.59021 0.45457
 O483 O 1.09840 0.42520 0.47858
 O484 O 1.12195 0.40157 0.47840
 C485 C 1.11484 0.41805 0.47160
 C486 C 1.12549 0.42881 0.45510
 C487 C 1.14462 0.42237 0.44837
 H488 H 1.15207 0.40973 0.45561
 O489 O 0.97717 0.57146 0.39868
 O490 O 0.97720 0.59492 0.37508
 C491 C 0.97026 0.57854 0.38226
 C492 C 0.95358 0.56793 0.37180
 C493 C 0.94585 0.57537 0.35351
 H494 H 0.95249 0.58859 0.34652
 O495 O 1.01672 0.42559 0.39834
 O496 O 1.01667 0.40199 0.37467
 C497 C 1.02363 0.41840 0.38186
 C498 C 1.04037 0.42890 0.37130
 C499 C 1.04803 0.42133 0.35292
 H500 H 1.04126 0.40813 0.34592
 O501 O 1.09840 0.47840 0.42557
 O502 O 1.12192 0.47834 0.40184
 C503 C 1.11483 0.47147 0.41833
 C504 C 1.12549 0.45496 0.42901
 C505 C 1.14462 0.44829 0.42250
 H506 H 1.15207 0.45557 0.40985
 O507 O 0.89621 0.51850 0.42657
 O508 O 0.87267 0.51856 0.40305
 C509 C 0.87985 0.52554 0.41945
 C510 C 0.86950 0.54246 0.42999
 C511 C 0.85157 0.55066 0.42215
 H512 H 0.84475 0.54417 0.40874
 O513 O 0.92405 0.59975 0.47983
 O514 O 0.90063 0.62351 0.48003
 C515 C 0.91703 0.61626 0.47303
 C516 C 0.92784 0.62680 0.45650
 C517 C 0.92141 0.64590 0.44983
 H518 H 0.90876 0.65341 0.45715
 O519 O 1.07054 0.39776 0.47864
 O520 O 1.09395 0.37399 0.47842
 C521 C 1.07755 0.38127 0.47161
 C522 C 1.06681 0.37083 0.45496
 C523 C 1.07420 0.35249 0.44705
 H524 H 1.08749 0.34547 0.45353
 O525 O 1.07041 0.51790 0.39846
 O526 O 1.09380 0.51790 0.37462
 C527 C 1.07741 0.52483 0.38198
 C528 C 1.06672 0.54152 0.37163
 C529 C 1.07427 0.54936 0.35339
 H530 H 1.08761 0.54281 0.34640
 O531 O 0.92378 0.47879 0.39877
 O532 O 0.90028 0.47876 0.37520
 C533 C 0.91668 0.47182 0.38234
 C534 C 0.92730 0.45508 0.37177
 C535 C 0.91985 0.44731 0.35344
 H536 H 0.90662 0.45397 0.34650
 O537 O 1.01666 0.59908 0.42627
 O538 O 1.01680 0.62258 0.40270
 C539 C 1.02368 0.61543 0.41910
 C540 C 1.04044 0.62585 0.42963
 C541 C 1.04818 0.64414 0.42217
 H542 H 1.04146 0.65117 0.40902
 O543 O 0.97727 0.39806 0.42622
 O544 O 0.97720 0.37440 0.40262
 C545 C 0.97030 0.38164 0.41909
 C546 C 0.95357 0.37122 0.42973
 C547 C 0.94586 0.35289 0.42221
 H548 H 0.95258 0.34585 0.40896
 O549 O 1.09816 0.57115 0.47888
 O550 O 1.12174 0.59468 0.47903
 C551 C 1.11465 0.57824 0.47205
 C552 C 1.12538 0.56743 0.45553
 C553 C 1.14450 0.57388 0.44884
 H554 H 1.15188 0.58656 0.45615
 O555 O 0.89587 0.42590 0.47975
 O556 O 0.87234 0.40233 0.47965
 C557 C 0.87949 0.41875 0.47279
 C558 C 0.86903 0.42935 0.45614
 C559 C 0.85073 0.42189 0.44843
 H560 H 0.84374 0.40867 0.45508
 Cu561 Cu 0.99700 0.41414 0.41459
 Cu562 Cu 0.99693 0.38577 0.38622
 Cu563 Cu 0.99688 0.58292 0.41486
 Cu564 Cu 0.99701 0.61110 0.38653
 Cu565 Cu 0.91233 0.49863 0.41503
 Cu566 Cu 0.88409 0.49864 0.38677
 Cu567 Cu 1.08211 0.49815 0.41438
 Cu568 Cu 1.11021 0.49809 0.38578
 C569 C 0.94429 0.44593 0.38062
 H570 H 0.94992 0.45161 0.39492
 C571 C 0.92909 0.43057 0.34425
 C572 C 1.04962 0.55061 0.38058
 H573 H 1.04390 0.54489 0.39483
 C574 C 1.06508 0.56611 0.34441
 C575 C 0.87796 0.44630 0.44698
 H576 H 0.89224 0.45194 0.45262
 C577 C 0.84167 0.43105 0.43172
 C578 C 1.11612 0.55098 0.44576
 H579 H 1.10128 0.54609 0.45066
 C580 C 1.15410 0.56410 0.43261
 C581 C 0.94430 0.38021 0.44673
 H582 H 0.94993 0.39451 0.45241
 C583 C 0.92908 0.34386 0.43136
 C584 C 1.04970 0.61686 0.44648
 H585 H 1.04403 0.60259 0.45212
 C586 C 1.06500 0.65315 0.43124
 C587 C 0.94440 0.55098 0.38074
 H588 H 0.95005 0.54536 0.39502
 C589 C 0.92912 0.56616 0.34446
 C590 C 1.04970 0.44581 0.38024
 H591 H 1.04410 0.45154 0.39458
 C592 C 1.06483 0.43033 0.34377
 C593 C 1.04977 0.37981 0.44601
 H594 H 1.04418 0.39411 0.45179
 C595 C 1.06488 0.34342 0.43037
 C596 C 0.94425 0.61738 0.44669
 H597 H 0.94913 0.60255 0.45158
 C598 C 0.93114 0.65533 0.43356
 C599 C 0.87827 0.55149 0.44714
 H600 H 0.89228 0.54549 0.45305
 C601 C 0.84274 0.56772 0.43114
 C602 C 1.11615 0.44523 0.44543
 H603 H 1.10129 0.45011 0.45037
 C604 C 1.15418 0.43212 0.43219
 O605 O 1.01674 0.42554 0.59944
 O606 O 1.01673 0.40200 0.62296
 C607 C 1.02367 0.41839 0.61582
 C608 C 1.04042 0.42891 0.62627
 C609 C 1.04810 0.42145 0.64458
 H610 H 1.04131 0.40832 0.65161
 O611 O 0.97696 0.57143 0.60015
 O612 O 0.97716 0.59492 0.62392
 C613 C 0.97021 0.57850 0.61675
 C614 C 0.95384 0.56767 0.62753
 C615 C 0.94746 0.57393 0.64688
 H616 H 0.95485 0.58651 0.65436
 O617 O 0.89629 0.51865 0.57256
 O618 O 0.87279 0.51893 0.59631
 C619 C 0.87999 0.52580 0.57986
 C620 C 0.86965 0.54266 0.56942
 C621 C 0.85155 0.55071 0.57722
 H622 H 0.84465 0.54420 0.59058
 O623 O 1.09821 0.47830 0.57149
 O624 O 1.12180 0.47845 0.59495
 C625 C 1.11471 0.47151 0.57850
 C626 C 1.12544 0.45507 0.56760
 C627 C 1.14461 0.44850 0.57390
 H628 H 1.15203 0.45584 0.58654
 O629 O 1.07051 0.39789 0.51810
 O630 O 1.09392 0.37414 0.51800
 C631 C 1.07754 0.38144 0.52500
 C632 C 1.06685 0.37105 0.54172
 C633 C 1.07437 0.35281 0.54951
 H634 H 1.08768 0.34583 0.54290
 O635 O 0.92407 0.59977 0.51930
 O636 O 0.90066 0.62355 0.51949
 C637 C 0.91706 0.61629 0.52628
 C638 C 0.92792 0.62686 0.54277
 C639 C 0.92179 0.64616 0.54932
 H640 H 0.90934 0.65379 0.54195
 O641 O 0.92367 0.47886 0.59985
 O642 O 0.90011 0.47882 0.62353
 C643 C 0.91652 0.47186 0.61624
 C644 C 0.92712 0.45510 0.62656
 C645 C 0.91961 0.44726 0.64483
 H646 H 0.90631 0.45384 0.65187
 O647 O 1.07011 0.51774 0.59911
 O648 O 1.09353 0.51784 0.62275
 C649 C 1.07712 0.52472 0.61557
 C650 C 1.06644 0.54141 0.62613
 C651 C 1.07403 0.54926 0.64436
 H652 H 1.08736 0.54268 0.65119
 O653 O 0.97730 0.39793 0.57172
 O654 O 0.97731 0.37430 0.59515
 C655 C 0.97036 0.38152 0.57881
 C656 C 0.95358 0.37110 0.56830
 C657 C 0.94590 0.35277 0.57575
 H658 H 0.95270 0.34571 0.58884
 O659 O 1.01641 0.59877 0.57213
 O660 O 1.01665 0.62238 0.59579
 C661 C 1.02348 0.61515 0.57927
 C662 C 1.04022 0.62553 0.56861
 C663 C 1.04807 0.64375 0.57623
 H664 H 1.04148 0.65071 0.58959
 O665 O 0.89573 0.42592 0.51921
 O666 O 0.87208 0.40247 0.51914
 C667 C 0.87921 0.41892 0.52605
 C668 C 0.86848 0.42986 0.54248
 C669 C 0.84918 0.42373 0.54891
 H670 H 0.84169 0.41117 0.54150
 O671 O 1.09793 0.57106 0.51835
 O672 O 1.12142 0.59468 0.51852
 C673 C 1.11429 0.57823 0.52535
 C674 C 1.12475 0.56765 0.54201
 C675 C 1.14299 0.57520 0.54979
 H676 H 1.14994 0.58846 0.54317
 O677 O 1.01640 0.57113 0.59971
 O678 O 1.01662 0.59466 0.62344
 C679 C 1.02346 0.57821 0.61611
 C680 C 1.04021 0.56756 0.62640
 C681 C 1.04807 0.57515 0.64462
 H682 H 1.04147 0.58846 0.65166
 O683 O 0.97725 0.42571 0.59943
 O684 O 0.97724 0.40214 0.62293
 C685 C 0.97029 0.41856 0.61583
 C686 C 0.95348 0.42908 0.62639
 C687 C 0.94573 0.42151 0.64465
 H688 H 0.95248 0.40829 0.65156
 O689 O 1.09797 0.51775 0.57152
 O690 O 1.12147 0.51792 0.59508
 C691 C 1.11432 0.52478 0.57867
 C692 C 1.12477 0.54150 0.56810
 C693 C 1.14301 0.54929 0.57562
 H694 H 1.14997 0.54266 0.58885
 O695 O 0.89569 0.47920 0.57256
 O696 O 0.87199 0.47941 0.59611
 C697 C 0.87913 0.47248 0.57961
 C698 C 0.86842 0.45612 0.56869
 C699 C 0.84912 0.44976 0.57490
 H700 H 0.84158 0.45720 0.58747
 O701 O 1.07005 0.59855 0.51850
 O702 O 1.09346 0.62225 0.51861
 C703 C 1.07706 0.61500 0.52553
 C704 C 1.06640 0.62545 0.54232
 C705 C 1.07396 0.64367 0.55020
 H706 H 1.08726 0.65059 0.54358
 O707 O 0.92353 0.39828 0.51908
 O708 O 0.90001 0.37469 0.51913
 C709 C 0.91644 0.38185 0.52598
 C710 C 0.92714 0.37130 0.54251
 C711 C 0.91971 0.35297 0.55021
 H712 H 0.90640 0.34605 0.54366
 O713 O 1.07038 0.47830 0.59917
 O714 O 1.09386 0.47834 0.62275
 C715 C 1.07746 0.47142 0.61560
 C716 C 1.06679 0.45482 0.62613
 C717 C 1.07423 0.44711 0.64443
 H718 H 1.08751 0.45370 0.65136
 O719 O 0.92370 0.51830 0.60038
 O720 O 0.90034 0.51832 0.62426
 C721 C 0.91676 0.52514 0.61701
 C722 C 0.92772 0.54151 0.62768
 C723 C 0.92157 0.54799 0.64702
 H724 H 0.90905 0.54064 0.65461
 O725 O 0.97699 0.59923 0.57259
 O726 O 0.97719 0.62287 0.59621
 C727 C 0.97025 0.61578 0.57975
 C728 C 0.95392 0.62660 0.56899
 C729 C 0.94758 0.64591 0.57532
 H730 H 0.95495 0.65334 0.58793
 O731 O 1.01678 0.39803 0.57144
 O732 O 1.01680 0.37442 0.59490
 C733 C 1.02375 0.38161 0.57849
 C734 C 1.04052 0.37113 0.56785
 C735 C 1.04830 0.35288 0.57538
 H736 H 1.04160 0.34596 0.58863
 O737 O 1.09848 0.42521 0.51803
 O738 O 1.12203 0.40159 0.51789
 C739 C 1.11492 0.41808 0.52484
 C740 C 1.12555 0.42889 0.54132
 C741 C 1.14472 0.42254 0.54785
 H742 H 1.15222 0.40992 0.54046
 O743 O 0.89649 0.57207 0.51936
 O744 O 0.87297 0.59571 0.51961
 C745 C 0.88013 0.57928 0.52646
 C746 C 0.86970 0.56878 0.54327
 C747 C 0.85160 0.57656 0.55132
 H748 H 0.84473 0.58990 0.54480
 Cu749 Cu 0.99702 0.41417 0.58316
 Cu750 Cu 0.99703 0.38585 0.61134
 Cu751 Cu 0.99662 0.58278 0.58377
 Cu752 Cu 0.99690 0.61107 0.61222
 Cu753 Cu 0.91204 0.41446 0.49944
 Cu754 Cu 0.88380 0.38615 0.49939
 Cu755 Cu 1.08215 0.41389 0.49835
 Cu756 Cu 1.11030 0.38541 0.49816
 Cu757 Cu 0.91260 0.58355 0.49956
 Cu758 Cu 0.88439 0.61197 0.49980
 Cu759 Cu 1.08177 0.58250 0.49865
 Cu760 Cu 1.10994 0.61088 0.49882
 Cu761 Cu 0.91218 0.49873 0.58397
 Cu762 Cu 0.88394 0.49888 0.61243
 Cu763 Cu 1.08182 0.49799 0.58295
 Cu764 Cu 1.11001 0.49814 0.61127
 C765 C 1.04975 0.44575 0.61729
 H766 H 1.04413 0.45139 0.60301
 C767 C 1.06492 0.43050 0.65360
 C768 C 0.94399 0.55133 0.61816
 H769 H 0.94865 0.54657 0.60315
 C770 C 0.93145 0.56408 0.65660
 C771 C 0.87850 0.55168 0.55231
 H772 H 0.89264 0.54580 0.54641
 C773 C 0.84261 0.56758 0.56822
 C774 C 1.11614 0.44528 0.55118
 H775 H 1.10126 0.45009 0.54640
 C776 C 1.15424 0.43236 0.56402
 C777 C 1.04978 0.37999 0.55087
 H778 H 1.04410 0.39423 0.54518
 C779 C 1.06514 0.34380 0.56627
 C780 C 0.94410 0.61730 0.55259
 H781 H 0.94875 0.60231 0.54777
 C782 C 0.93163 0.65568 0.56547
 C783 C 0.94420 0.44602 0.61757
 H784 H 0.94988 0.45176 0.60332
 C785 C 0.92888 0.43053 0.65381
 C786 C 1.04937 0.55054 0.61737
 H787 H 1.04364 0.54481 0.60314
 C788 C 1.06491 0.56606 0.65352
 C789 C 0.94423 0.38013 0.55154
 H790 H 0.94985 0.39442 0.54592
 C791 C 0.92904 0.34378 0.56675
 C792 C 1.04936 0.61660 0.55150
 H793 H 1.04364 0.60237 0.54574
 C794 C 1.06487 0.65274 0.56708
 C795 C 0.87787 0.44619 0.55235
 H796 H 0.89285 0.45084 0.54764
 C797 C 0.83952 0.43369 0.56500
 C798 C 1.11587 0.55065 0.55115
 H799 H 1.10164 0.54495 0.54546
 C800 C 1.15205 0.56607 0.56652
 O801 O 0.47743 0.92543 0.39909
 O802 O 0.47757 0.90184 0.37541
 C803 C 0.47064 0.91831 0.38258
 C804 C 0.45423 0.92915 0.37193
 C805 C 0.44760 0.92269 0.35279
 H806 H 0.45484 0.90995 0.34534
 O807 O 0.51700 1.07180 0.39938
 O808 O 0.51713 1.09522 0.37574
 C809 C 0.52399 1.07881 0.38292
 C810 C 0.54069 1.06808 0.37241
 C811 C 0.54845 1.07548 0.35406
 H812 H 0.54179 1.08870 0.34709
 O813 O 0.39704 0.97919 0.42705
 O814 O 0.37342 0.97909 0.40361
 C815 C 0.38062 0.97223 0.42000
 C816 C 0.37016 0.95557 0.43067
 C817 C 0.35185 0.94782 0.42328
 H818 H 0.34484 0.95445 0.41008
 O819 O 0.59782 1.01835 0.42708
 O820 O 0.62142 1.01836 0.40344
 C821 C 0.61422 1.02530 0.41992
 C822 C 0.62469 1.04201 0.43056
 C823 C 0.64299 1.04969 0.42301
 H824 H 0.64996 1.04299 0.40971
 O825 O 0.42459 0.89806 0.48035
 O826 O 0.40104 0.87452 0.48060
 C827 C 0.41746 0.88156 0.47357
 C828 C 0.42816 0.87079 0.45699
 C829 C 0.42163 0.85169 0.45032
 H830 H 0.40898 0.84432 0.45767
 O831 O 0.57018 1.09968 0.48052
 O832 O 0.59379 1.12317 0.48036
 C833 C 0.57737 1.11601 0.47348
 C834 C 0.56685 1.12641 0.45673
 C835 C 0.57441 1.14465 0.44894
 H836 H 0.58763 1.15163 0.45559
 O837 O 0.42464 1.01850 0.39920
 O838 O 0.40107 1.01852 0.37570
 C839 C 0.41749 1.02544 0.38282
 C840 C 0.42804 1.04216 0.37236
 C841 C 0.42060 1.04983 0.35404
 H842 H 0.40745 1.04309 0.34702
 O843 O 0.57025 0.97880 0.39937
 O844 O 0.59385 0.97867 0.37573
 C845 C 0.57742 0.97179 0.38293
 C846 C 0.56685 0.95505 0.37242
 C847 C 0.57447 0.94719 0.35414
 H848 H 0.58778 0.95378 0.34720
 O849 O 0.51687 0.89807 0.42692
 O850 O 0.51706 0.87436 0.40337
 C851 C 0.52391 0.88164 0.41979
 C852 C 0.54067 0.87127 0.43035
 C853 C 0.54849 0.85298 0.42277
 H854 H 0.54185 0.84595 0.40953
 O855 O 0.47759 1.09990 0.42703
 O856 O 0.47775 1.12350 0.40356
 C857 C 0.47080 1.11641 0.42001
 C858 C 0.45434 1.12715 0.43088
 C859 C 0.44765 1.14624 0.42443
 H860 H 0.45490 1.15360 0.41171
 O861 O 0.39712 1.07236 0.48053
 O862 O 0.37348 1.09588 0.48061
 C863 C 0.38072 1.07947 0.47360
 C864 C 0.37034 1.06890 0.45678
 C865 C 0.35242 1.07681 0.44866
 H866 H 0.34564 1.09031 0.45513
 O867 O 0.59827 0.92588 0.48008
 O868 O 0.62189 0.90233 0.47996
 C869 C 0.61474 0.91877 0.47312
 C870 C 0.62538 0.92952 0.45661
 C871 C 0.64451 0.92306 0.44988
 H872 H 0.65195 0.91042 0.45713
 O873 O 0.47756 1.07199 0.39940
 O874 O 0.47763 1.09547 0.37582
 C875 C 0.47068 1.07908 0.38298
 C876 C 0.45405 1.06844 0.37246
 C877 C 0.44636 1.07587 0.35415
 H878 H 0.45300 1.08912 0.34720
 O879 O 0.51685 0.92555 0.39919
 O880 O 0.51706 0.90193 0.37555
 C881 C 0.52390 0.91838 0.38277
 C882 C 0.54066 0.92894 0.37233
 C883 C 0.54854 0.92134 0.35405
 H884 H 0.54192 0.90807 0.34705
 O885 O 0.59817 0.97889 0.42676
 O886 O 0.62187 0.97889 0.40322
 C887 C 0.61469 0.97203 0.41966
 C888 C 0.62536 0.95559 0.43044
 C889 C 0.64449 0.94890 0.42394
 H890 H 0.65193 0.95613 0.41125
 O891 O 0.39709 1.01868 0.42709
 O892 O 0.37345 1.01866 0.40367
 C893 C 0.38068 1.02567 0.42003
 C894 C 0.37032 1.04258 0.43060
 C895 C 0.35239 1.05076 0.42274
 H896 H 0.34560 1.04427 0.40932
 O897 O 0.42453 1.10027 0.48054
 O898 O 0.40098 1.12390 0.48068
 C899 C 0.41743 1.11674 0.47371
 C900 C 0.42821 1.12732 0.45718
 C901 C 0.42174 1.14641 0.45051
 H902 H 0.40908 1.15389 0.45783
 O903 O 0.57043 0.89838 0.48011
 O904 O 0.59394 0.87471 0.47996
 C905 C 0.57753 0.88191 0.47310
 C906 C 0.56691 0.87140 0.45640
 C907 C 0.57447 0.85310 0.44854
 H908 H 0.58776 0.84617 0.45509
 O909 O 0.57035 1.01829 0.39926
 O910 O 0.59388 1.01821 0.37555
 C911 C 0.57746 1.02517 0.38280
 C912 C 0.56686 1.04186 0.37234
 C913 C 0.57437 1.04953 0.35400
 H914 H 0.58761 1.04281 0.34697
 O915 O 0.42456 0.97902 0.39909
 O916 O 0.40106 0.97902 0.37552
 C917 C 0.41748 0.97210 0.38262
 C918 C 0.42823 0.95552 0.37194
 C919 C 0.42184 0.94883 0.35280
 H920 H 0.40927 0.95619 0.34536
 O921 O 0.51702 1.09956 0.42711
 O922 O 0.51722 1.12306 0.40355
 C923 C 0.52406 1.11591 0.41998
 C924 C 0.54077 1.12636 0.43057
 C925 C 0.54856 1.14460 0.42304
 H926 H 0.54194 1.15154 0.40980
 O927 O 0.47744 0.89777 0.42676
 O928 O 0.47756 0.87403 0.40324
 C929 C 0.47063 0.88125 0.41970
 C930 C 0.45418 0.87065 0.43059
 C931 C 0.44744 0.85155 0.42413
 H932 H 0.45463 0.84408 0.41137
 O933 O 0.59780 1.07194 0.48055
 O934 O 0.62149 1.09535 0.48049
 C935 C 0.61426 1.07894 0.47358
 C936 C 0.62473 1.06822 0.45682
 C937 C 0.64304 1.07565 0.44902
 H938 H 0.65004 1.08889 0.45568
 O939 O 0.39717 0.92607 0.48038
 O940 O 0.37351 0.90262 0.48055
 C941 C 0.38072 0.91896 0.47354
 C942 C 0.37022 0.92950 0.45685
 C943 C 0.35190 0.92201 0.44922
 H944 H 0.34493 0.90881 0.45593
 Cu945 Cu 0.49708 0.91407 0.41535
 Cu946 Cu 0.49731 0.88566 0.38702
 Cu947 Cu 0.49725 1.08346 0.41559
 Cu948 Cu 0.49744 1.11166 0.38729
 Cu949 Cu 0.41319 0.99883 0.41545
 Cu950 Cu 0.38486 0.99880 0.38729
 Cu951 Cu 0.58178 0.99857 0.41548
 Cu952 Cu 0.61011 0.99852 0.38710
 C953 C 0.44455 0.94569 0.38128
 H954 H 0.44940 0.95059 0.39614
 C955 C 0.43152 0.93254 0.34323
 C956 C 0.54987 1.05113 0.38132
 H957 H 0.54420 1.04554 0.39563
 C958 C 0.56521 1.06626 0.34493
 C959 C 0.37912 0.94643 0.44760
 H960 H 0.39341 0.95209 0.45319
 C961 C 0.34278 0.93112 0.43251
 C962 C 0.61579 1.05125 0.44762
 H963 H 0.60151 1.04563 0.45332
 C964 C 0.65210 1.06644 0.43218
 C965 C 0.44456 0.88003 0.44715
 H966 H 0.44951 0.89486 0.45205
 C967 C 0.43127 0.84208 0.43400
 C968 C 0.54989 1.11750 0.44756
 H969 H 0.54418 1.10327 0.45325
 C970 C 0.56530 1.15368 0.43217
 C971 C 0.44491 1.05144 0.38133
 H972 H 0.45053 1.04582 0.39561
 C973 C 0.42971 1.06662 0.34500
 C974 C 0.54980 0.94595 0.38129
 H975 H 0.54404 0.95169 0.39556
 C976 C 0.56537 0.93041 0.34503
 C977 C 0.54986 0.88026 0.44732
 H978 H 0.54414 0.89453 0.45305
 C979 C 0.56531 0.84397 0.43180
 C980 C 0.44463 1.11793 0.44738
 H981 H 0.44954 1.10311 0.45227
 C982 C 0.43147 1.15586 0.43425
 C983 C 0.37907 1.05164 0.44776
 H984 H 0.39308 1.04566 0.45369
 C985 C 0.34353 1.06781 0.43170
 C986 C 0.61603 0.94592 0.44691
 H987 H 0.60118 0.95082 0.45185
 C988 C 0.65405 0.93275 0.43366
 O989 O 0.51719 0.92632 0.60137
 O990 O 0.51712 0.90285 0.62498
 C991 C 0.52404 0.91926 0.61784
 C992 C 0.54051 0.93004 0.62845
 C993 C 0.54716 0.92365 0.64756
 H994 H 0.53987 0.91104 0.65502
 O995 O 0.47765 1.07299 0.60129
 O996 O 0.47767 1.09652 0.62503
 C997 C 0.47082 1.08006 0.61786
 C998 C 0.45446 1.06917 0.62860
 C999 C 0.44800 1.07542 0.64792
 H1000 H 0.45532 1.08803 0.65542
 O1001 O 0.39726 1.01942 0.57374
 O1002 O 0.37357 1.01957 0.59729
 C1003 C 0.38081 1.02641 0.58085
 C1004 C 0.37034 1.04307 0.57022
 C1005 C 0.35206 1.05091 0.57780
 H1006 H 0.34511 1.04438 0.59113
 O1007 O 0.59798 0.97915 0.57321
 O1008 O 0.62164 0.97929 0.59662
 C1009 C 0.61449 0.97233 0.58019
 C1010 C 0.62518 0.95587 0.56925
 C1011 C 0.64441 0.94938 0.57545
 H1012 H 0.65187 0.95674 0.58805
 O1013 O 0.57044 0.89849 0.51962
 O1014 O 0.59396 0.87484 0.51956
 C1015 C 0.57756 0.88209 0.52657
 C1016 C 0.56699 0.87174 0.54338
 C1017 C 0.57462 0.85357 0.55124
 H1018 H 0.58792 0.84660 0.54458
 O1019 O 0.42457 1.10029 0.52002
 O1020 O 0.40102 1.12391 0.52014
 C1021 C 0.41746 1.11678 0.52697
 C1022 C 0.42823 1.12747 0.54344
 C1023 C 0.42192 1.14674 0.54994
 H1024 H 0.40940 1.15423 0.54253
 O1025 O 0.42470 0.98002 0.60157
 O1026 O 0.40113 0.98013 0.62524
 C1027 C 0.41759 0.97321 0.61806
 C1028 C 0.42838 0.95676 0.62869
 C1029 C 0.42206 0.95031 0.64793
 H1030 H 0.40949 0.95772 0.65547
 O1031 O 0.57014 1.01880 0.60082
 O1032 O 0.59367 1.01900 0.62435
 C1033 C 0.57727 1.02591 0.61718
 C1034 C 0.56674 1.04282 0.62758
 C1035 C 0.57435 1.05076 0.64576
 H1036 H 0.58758 1.04409 0.65270
 O1037 O 0.47778 0.89883 0.57354
 O1038 O 0.47767 0.87525 0.59702
 C1039 C 0.47080 0.88243 0.58061
 C1040 C 0.45415 0.87195 0.56995
 C1041 C 0.44637 0.85367 0.57742
 H1042 H 0.45295 0.84673 0.59068
 O1043 O 0.51693 1.10062 0.57342
 O1044 O 0.51691 1.12441 0.59690
 C1045 C 0.52378 1.11715 0.58042
 C1046 C 0.54018 1.12773 0.56946
 C1047 C 0.54667 1.14701 0.57564
 H1048 H 0.53931 1.15462 0.58822
 O1049 O 0.39728 0.92642 0.51989
 O1050 O 0.37358 0.90301 0.52009
 C1051 C 0.38085 0.91943 0.52695
 C1052 C 0.37044 0.93014 0.54375
 C1053 C 0.35222 0.92262 0.55164
 H1054 H 0.34526 0.90934 0.54499
 O1055 O 0.59765 1.07211 0.52005
 O1056 O 0.62127 1.09560 0.52004
 C1057 C 0.61407 1.07921 0.52696
 C1058 C 0.62456 1.06860 0.54360
 C1059 C 0.64288 1.07606 0.55126
 H1060 H 0.64983 1.08931 0.54462
 O1061 O 0.51705 1.07272 0.60077
 O1062 O 0.51718 1.09637 0.62438
 C1063 C 0.52407 1.07989 0.61714
 C1064 C 0.54077 1.06925 0.62753
 C1065 C 0.54866 1.07693 0.64570
 H1066 H 0.54215 1.09034 0.65261
 O1067 O 0.47779 0.92655 0.60134
 O1068 O 0.47771 0.90309 0.62495
 C1069 C 0.47088 0.91955 0.61783
 C1070 C 0.45447 0.93049 0.62856
 C1071 C 0.44793 0.92427 0.64779
 H1072 H 0.45524 0.91167 0.65524
 O1073 O 0.59790 1.01861 0.57318
 O1074 O 0.62151 1.01879 0.59662
 C1075 C 0.61429 1.02563 0.58023
 C1076 C 0.62469 1.04235 0.56961
 C1077 C 0.64301 1.05007 0.57701
 H1078 H 0.65006 1.04336 0.59015
 O1079 O 0.39736 0.97995 0.57364
 O1080 O 0.37367 0.98000 0.59719
 C1081 C 0.38092 0.97303 0.58074
 C1082 C 0.37048 0.95630 0.57009
 C1083 C 0.35226 0.94849 0.57772
 H1084 H 0.34534 0.95509 0.59110
 O1085 O 0.57019 1.10010 0.52000
 O1086 O 0.59369 1.12370 0.51986
 C1087 C 0.57723 1.11664 0.52679
 C1088 C 0.56636 1.12747 0.54320
 C1089 C 0.57262 1.14675 0.54960
 H1090 H 0.58520 1.15416 0.54217
 O1091 O 0.42483 0.89858 0.51986
 O1092 O 0.40120 0.87511 0.52011
 C1093 C 0.41764 0.88227 0.52693
 C1094 C 0.42817 0.87187 0.54368
 C1095 C 0.42065 0.85360 0.55140
 H1096 H 0.40747 0.84659 0.54468
 O1097 O 0.57042 0.97932 0.60119
 O1098 O 0.59392 0.97947 0.62475
 C1099 C 0.57750 0.97254 0.61767
 C1100 C 0.56670 0.95613 0.62837
 C1101 C 0.57313 0.94952 0.64748
 H1102 H 0.58579 0.95679 0.65487
 O1103 O 0.42477 1.01948 0.60151
 O1104 O 0.40120 1.01958 0.62519
 C1105 C 0.41766 1.02642 0.61802
 C1106 C 0.42845 1.04290 0.62868
 C1107 C 0.42221 1.04938 0.64799
 H1108 H 0.40971 1.04197 0.65555
 O1109 O 0.47754 1.10043 0.57345
 O1110 O 0.47746 1.12414 0.59700
 C1111 C 0.47062 1.11693 0.58055
 C1112 C 0.45421 1.12754 0.56970
 C1113 C 0.44767 1.14681 0.57597
 H1114 H 0.45495 1.15436 0.58857
 O1115 O 0.51722 0.89884 0.57336
 O1116 O 0.51720 0.87526 0.59684
 C1117 C 0.52415 0.88242 0.58042
 C1118 C 0.54088 0.87191 0.56973
 C1119 C 0.54877 0.85374 0.57732
 H1120 H 0.54221 0.84690 0.59069
 O1121 O 0.59823 0.92600 0.51956
 O1122 O 0.62187 0.90246 0.51944
 C1123 C 0.61469 0.91892 0.52640
 C1124 C 0.62529 0.92976 0.54290
 C1125 C 0.64452 0.92349 0.54932
 H1126 H 0.65207 0.91095 0.54185
 O1127 O 0.39710 1.07245 0.52007
 O1128 O 0.37343 1.09595 0.52023
 C1129 C 0.38068 1.07957 0.52711
 C1130 C 0.37027 1.06904 0.54391
 C1131 C 0.35199 1.07660 0.55175
 H1132 H 0.34499 1.08981 0.54509
 Cu1133 Cu 0.49750 0.91499 0.58505
 Cu1134 Cu 0.49741 0.88671 0.61328
 Cu1135 Cu 0.49727 1.08433 0.58487
 Cu1136 Cu 0.49730 1.11272 0.61322
 Cu1137 Cu 0.41334 0.91462 0.50007
 Cu1138 Cu 0.38494 0.88647 0.50036
 Cu1139 Cu 0.58199 0.91455 0.49985
 Cu1140 Cu 0.61025 0.88618 0.49971
 Cu1141 Cu 0.41319 1.08399 0.50027
 Cu1142 Cu 0.38482 1.11224 0.50043
 Cu1143 Cu 0.58159 1.08361 0.50031
 Cu1144 Cu 0.60995 1.11180 0.50020
 Cu1145 Cu 0.41339 0.99971 0.58526
 Cu1146 Cu 0.38499 0.99983 0.61357
 Cu1147 Cu 0.58175 0.99891 0.58476
 Cu1148 Cu 0.61005 0.99913 0.61295
 C1149 C 0.55026 0.94641 0.61909
 H1150 H 0.54538 0.95126 0.60426
 C1151 C 0.56335 0.93339 0.65706
 C1152 C 0.44470 1.05278 0.61920
 H1153 H 0.44944 1.04803 0.60421
 C1154 C 0.43200 1.06551 0.65760
 C1155 C 0.37922 1.05212 0.55313
 H1156 H 0.39349 1.04640 0.54740
 C1157 C 0.34296 1.06760 0.56862
 C1158 C 0.61584 0.94607 0.55285
 H1159 H 0.60092 0.95083 0.54814
 C1160 C 0.65407 0.93331 0.56547
 C1161 C 0.54997 0.88068 0.55261
 H1162 H 0.54420 0.89487 0.54687
 C1163 C 0.56557 0.84465 0.56814
 C1164 C 0.44449 1.11809 0.55331
 H1165 H 0.44928 1.10314 0.54855
 C1166 C 0.43165 1.15640 0.56607
 C1167 C 0.44471 0.94686 0.61923
 H1168 H 0.44951 0.95158 0.60429
 C1169 C 0.43185 0.93418 0.65747
 C1170 C 0.54979 1.05205 0.61869
 H1171 H 0.54404 1.04625 0.60449
 C1172 C 0.56538 1.06774 0.65474
 C1173 C 0.44507 0.88082 0.55293
 H1174 H 0.45075 0.89508 0.54729
 C1175 C 0.42969 0.84457 0.56819
 C1176 C 0.55001 1.11819 0.55311
 H1177 H 0.54526 1.10322 0.54842
 C1178 C 0.56277 1.15651 0.56570
 C1179 C 0.37936 0.94714 0.55296
 H1180 H 0.39359 0.95283 0.54719
 C1181 C 0.34321 0.93172 0.56854
 C1182 C 0.61569 1.05159 0.55275
 H1183 H 0.60140 1.04595 0.54716
 C1184 C 0.65204 1.06684 0.56789
 O1185 O 0.47686 0.42496 0.89685
 O1186 O 0.47684 0.40143 0.87311
 C1187 C 0.46999 0.41790 0.88035
 C1188 C 0.45361 0.42884 0.86978
 C1189 C 0.44708 0.42261 0.85053
 H1190 H 0.45433 0.40995 0.84297
 O1191 O 0.51656 0.57173 0.89780
 O1192 O 0.51665 0.59520 0.87421
 C1193 C 0.52355 0.57878 0.88136
 C1194 C 0.54027 0.56809 0.87085
 C1195 C 0.54824 0.57567 0.85268
 H1196 H 0.54174 0.58904 0.84582
 O1197 O 0.39644 0.47867 0.92518
 O1198 O 0.37287 0.47872 0.90170
 C1199 C 0.38003 0.47177 0.91807
 C1200 C 0.36953 0.45507 0.92863
 C1201 C 0.35121 0.44738 0.92118
 H1202 H 0.34422 0.45408 0.90801
 O1203 O 0.59725 0.51765 0.92487
 O1204 O 0.62104 0.51743 0.90142
 C1205 C 0.61381 0.52440 0.91787
 C1206 C 0.62446 0.54083 0.92877
 C1207 C 0.64374 0.54722 0.92252
 H1208 H 0.65129 0.53975 0.90996
 O1209 O 0.42395 0.39746 0.97826
 O1210 O 0.40041 0.37389 0.97829
 C1211 C 0.41688 0.38097 0.97137
 C1212 C 0.42770 0.37024 0.95485
 C1213 C 0.42142 0.35098 0.94839
 H1214 H 0.40889 0.34352 0.95587
 O1215 O 0.56974 0.59930 0.97829
 O1216 O 0.59333 0.62281 0.97842
 C1217 C 0.57689 0.61576 0.97150
 C1218 C 0.56614 0.62650 0.95512
 C1219 C 0.57259 0.64563 0.94857
 H1220 H 0.58525 0.65301 0.95586
 O1221 O 0.42420 0.51810 0.89759
 O1222 O 0.40067 0.51823 0.87406
 C1223 C 0.41708 0.52511 0.88123
 C1224 C 0.42764 0.54186 0.87082
 C1225 C 0.42015 0.54960 0.85255
 H1226 H 0.40698 0.54287 0.84554
 O1227 O 0.56945 0.47840 0.89696
 O1228 O 0.59294 0.47838 0.87321
 C1229 C 0.57648 0.47155 0.88038
 C1230 C 0.56561 0.45516 0.86963
 C1231 C 0.57186 0.44874 0.85030
 H1232 H 0.58440 0.45614 0.84279
 O1233 O 0.51629 0.39742 0.92441
 O1234 O 0.51650 0.37383 0.90073
 C1235 C 0.52334 0.38103 0.91719
 C1236 C 0.54005 0.37060 0.92778
 C1237 C 0.54819 0.35254 0.91998
 H1238 H 0.54187 0.34570 0.90648
 O1239 O 0.47713 0.59967 0.92553
 O1240 O 0.47716 0.62328 0.90207
 C1241 C 0.47028 0.61616 0.91854
 C1242 C 0.45387 0.62688 0.92950
 C1243 C 0.44743 0.64615 0.92336
 H1244 H 0.45482 0.65363 0.91080
 O1245 O 0.39656 0.57190 0.97889
 O1246 O 0.37291 0.59542 0.97893
 C1247 C 0.38019 0.57902 0.97192
 C1248 C 0.36989 0.56851 0.95502
 C1249 C 0.35221 0.57667 0.94664
 H1250 H 0.34555 0.59029 0.95297
 O1251 O 0.59665 0.42500 0.97824
 O1252 O 0.62028 0.40146 0.97814
 C1253 C 0.61309 0.41785 0.97124
 C1254 C 0.62359 0.42837 0.95449
 C1255 C 0.64192 0.42082 0.94674
 H1256 H 0.64891 0.40763 0.95345
 O1257 O 0.47714 0.57182 0.89786
 O1258 O 0.47713 0.59529 0.87427
 C1259 C 0.47023 0.57888 0.88144
 C1260 C 0.45361 0.56819 0.87094
 C1261 C 0.44587 0.57567 0.85267
 H1262 H 0.45246 0.58896 0.84575
 O1263 O 0.51624 0.42502 0.89677
 O1264 O 0.51629 0.40158 0.87294
 C1265 C 0.52312 0.41802 0.88020
 C1266 C 0.53952 0.42895 0.86955
 C1267 C 0.54601 0.42277 0.85022
 H1268 H 0.53868 0.41021 0.84265
 O1269 O 0.59686 0.47819 0.92485
 O1270 O 0.62047 0.47793 0.90122
 C1271 C 0.61323 0.47110 0.91766
 C1272 C 0.62363 0.45437 0.92824
 C1273 C 0.64196 0.44657 0.92074
 H1274 H 0.64899 0.45316 0.90748
 O1275 O 0.39657 0.51819 0.92540
 O1276 O 0.37298 0.51829 0.90192
 C1277 C 0.38021 0.52524 0.91832
 C1278 C 0.36988 0.54220 0.92884
 C1279 C 0.35219 0.55064 0.92073
 H1280 H 0.34554 0.54428 0.90716
 O1281 O 0.42395 0.59982 0.97902
 O1282 O 0.40040 0.62345 0.97915
 C1283 C 0.41687 0.61631 0.97222
 C1284 C 0.42773 0.62696 0.95579
 C1285 C 0.42151 0.64624 0.94942
 H1286 H 0.40897 0.65379 0.95689
 O1287 O 0.56899 0.39736 0.97820
 O1288 O 0.59257 0.37376 0.97809
 C1289 C 0.57619 0.38096 0.97115
 C1290 C 0.56583 0.37055 0.95425
 C1291 C 0.57370 0.35248 0.94621
 H1292 H 0.58698 0.34560 0.95284
 O1293 O 0.56947 0.51788 0.89739
 O1294 O 0.59315 0.51789 0.87383
 C1295 C 0.57673 0.52488 0.88105
 C1296 C 0.56629 0.54173 0.87070
 C1297 C 0.57400 0.54957 0.85253
 H1298 H 0.58729 0.54289 0.84556
 O1299 O 0.42401 0.47861 0.89724
 O1300 O 0.40054 0.47876 0.87365
 C1301 C 0.41694 0.47179 0.88072
 C1302 C 0.42769 0.45528 0.86995
 C1303 C 0.42138 0.44882 0.85070
 H1304 H 0.40888 0.45630 0.84327
 O1305 O 0.51654 0.59965 0.92535
 O1306 O 0.51659 0.62325 0.90188
 C1307 C 0.52346 0.61609 0.91829
 C1308 C 0.53996 0.62667 0.92907
 C1309 C 0.54663 0.64579 0.92275
 H1310 H 0.53933 0.65330 0.91019
 O1311 O 0.47690 0.39730 0.92447
 O1312 O 0.47698 0.37357 0.90093
 C1313 C 0.47008 0.38077 0.91743
 C1314 C 0.45371 0.37013 0.92841
 C1315 C 0.44720 0.35087 0.92218
 H1316 H 0.45449 0.34333 0.90952
 O1317 O 0.59712 0.57123 0.97816
 O1318 O 0.62087 0.59458 0.97827
 C1319 C 0.61367 0.57816 0.97133
 C1320 C 0.62437 0.56718 0.95489
 C1321 C 0.64365 0.57333 0.94841
 H1322 H 0.65113 0.58593 0.95576
 O1323 O 0.39637 0.42531 0.97831
 O1324 O 0.37272 0.40186 0.97823
 C1325 C 0.37995 0.41824 0.97135
 C1326 C 0.36951 0.42888 0.95470
 C1327 C 0.35119 0.42145 0.94701
 H1328 H 0.34419 0.40824 0.95367
 Cu1329 Cu 0.49654 0.41352 0.91299
 Cu1330 Cu 0.49665 0.38521 0.88456
 Cu1331 Cu 0.49683 0.58337 0.91399
 Cu1332 Cu 0.49687 0.61159 0.88571
 Cu1333 Cu 0.41266 0.49835 0.91370
 Cu1334 Cu 0.38438 0.49849 0.88549
 Cu1335 Cu 0.58089 0.49803 0.91337
 Cu1336 Cu 0.60927 0.49789 0.88505
 C1337 C 0.44393 0.44530 0.87926
 H1338 H 0.44872 0.45004 0.89420
 C1339 C 0.43108 0.43261 0.84101
 C1340 C 0.54927 0.55097 0.87963
 H1341 H 0.54344 0.54524 0.89382
 C1342 C 0.56504 0.56647 0.84359
 C1343 C 0.37845 0.44583 0.94554
 H1344 H 0.39274 0.45145 0.95117
 C1345 C 0.34210 0.43065 0.93033
 C1346 C 0.61500 0.55080 0.94508
 H1347 H 0.60004 0.54612 0.94982
 C1348 C 0.65331 0.56335 0.93235
 C1349 C 0.44397 0.37959 0.94488
 H1350 H 0.44873 0.39453 0.94962
 C1351 C 0.43117 0.34131 0.93219
 C1352 C 0.54970 0.61724 0.94538
 H1353 H 0.54481 0.60239 0.95017
 C1354 C 0.56283 0.65527 0.93250
 C1355 C 0.44452 0.55114 0.87979
 H1356 H 0.45018 0.54549 0.89404
 C1357 C 0.42921 0.56642 0.84355
 C1358 C 0.54930 0.44528 0.87904
 H1359 H 0.54456 0.44998 0.89404
 C1360 C 0.56205 0.43267 0.84061
 C1361 C 0.54885 0.37938 0.94506
 H1362 H 0.54290 0.39349 0.95095
 C1363 C 0.56496 0.34355 0.92914
 C1364 C 0.44403 0.61751 0.94584
 H1365 H 0.44874 0.60255 0.95050
 C1366 C 0.43138 0.65582 0.93333
 C1367 C 0.37851 0.55113 0.94613
 H1368 H 0.39236 0.54497 0.95225
 C1369 C 0.34347 0.56782 0.92954
 C1370 C 0.61467 0.44529 0.94526
 H1371 H 0.60038 0.45100 0.95094
 C1372 C 0.65104 0.42987 0.92995
 O1373 O 0.51579 0.42537 1.09909
 O1374 O 0.51584 0.40188 1.12267
 C1375 C 0.52274 0.41828 1.11548
 C1376 C 0.53942 0.42893 1.12592
 C1377 C 0.54717 0.42151 1.14421
 H1378 H 0.54054 0.40828 1.15121
 O1379 O 0.47634 0.57191 1.09944
 O1380 O 0.47641 0.59546 1.12315
 C1381 C 0.46950 0.57902 1.11598
 C1382 C 0.45306 0.56822 1.12669
 C1383 C 0.44640 0.57467 1.14588
 H1384 H 0.45363 0.58737 1.15331
 O1385 O 0.39626 0.51840 1.07172
 O1386 O 0.37249 0.51853 1.09519
 C1387 C 0.37981 0.52542 1.07880
 C1388 C 0.36944 0.54218 1.06823
 C1389 C 0.35124 0.55011 1.07591
 H1390 H 0.34428 0.54354 1.08921
 O1391 O 0.59660 0.47855 1.07109
 O1392 O 0.62020 0.47858 1.09456
 C1393 C 0.61302 0.47161 1.07815
 C1394 C 0.62351 0.45485 1.06750
 C1395 C 0.64181 0.44713 1.07493
 H1396 H 0.64880 0.45386 1.08814
 O1397 O 0.56894 0.39737 1.01775
 O1398 O 0.59250 0.37377 1.01765
 C1399 C 0.57608 0.38096 1.02465
 C1400 C 0.56556 0.37054 1.04146
 C1401 C 0.57328 0.35242 1.04932
 H1402 H 0.58660 0.34550 1.04265
 O1403 O 0.42376 0.59990 1.01848
 O1404 O 0.40017 0.62348 1.01859
 C1405 C 0.41661 0.61636 1.02544
 C1406 C 0.42732 0.62703 1.04196
 C1407 C 0.42096 0.64623 1.04860
 H1408 H 0.40841 0.65374 1.04127
 O1409 O 0.42352 0.47894 1.09965
 O1410 O 0.39985 0.47903 1.12322
 C1411 C 0.41633 0.47210 1.11610
 C1412 C 0.42705 0.45561 1.12673
 C1413 C 0.42058 0.44905 1.14589
 H1414 H 0.40796 0.45643 1.15338
 O1415 O 0.56894 0.51819 1.09892
 O1416 O 0.59248 0.51824 1.12244
 C1417 C 0.57607 0.52517 1.11534
 C1418 C 0.56550 0.54193 1.12591
 C1419 C 0.57303 0.54968 1.14421
 H1420 H 0.58626 0.54299 1.15111
 O1421 O 0.47638 0.39771 1.07148
 O1422 O 0.47626 0.37418 1.09501
 C1423 C 0.46941 0.38132 1.07858
 C1424 C 0.45278 0.37083 1.06791
 C1425 C 0.44498 0.35256 1.07535
 H1426 H 0.45153 0.34561 1.08863
 O1427 O 0.51587 0.59918 1.07149
 O1428 O 0.51602 0.62285 1.09509
 C1429 C 0.52291 0.61557 1.07861
 C1430 C 0.53967 0.62592 1.06795
 C1431 C 0.54755 0.64413 1.07556
 H1432 H 0.54095 0.65112 1.08890
 O1433 O 0.39636 0.42552 1.01782
 O1434 O 0.37264 0.40214 1.01778
 C1435 C 0.37989 0.41852 1.02476
 C1436 C 0.36940 0.42919 1.04155
 C1437 C 0.35106 0.42174 1.04926
 H1438 H 0.34408 0.40853 1.04250
 O1439 O 0.59702 0.57130 1.01763
 O1440 O 0.62073 0.59469 1.01779
 C1441 C 0.61344 0.57832 1.02463
 C1442 C 0.62379 0.56765 1.04132
 C1443 C 0.64211 0.57504 1.04908
 H1444 H 0.64918 0.58823 1.04244
 O1445 O 0.51576 0.57175 1.09929
 O1446 O 0.51589 0.59534 1.12297
 C1447 C 0.52274 0.57887 1.11571
 C1448 C 0.53941 0.56820 1.12610
 C1449 C 0.54719 0.57571 1.14439
 H1450 H 0.54057 0.58900 1.15143
 O1451 O 0.47639 0.42533 1.09937
 O1452 O 0.47638 0.40193 1.12304
 C1453 C 0.46952 0.41836 1.11590
 C1454 C 0.45309 0.42929 1.12662
 C1455 C 0.44641 0.42297 1.14578
 H1456 H 0.45364 0.41030 1.15319
 O1457 O 0.59657 0.51803 1.07104
 O1458 O 0.62017 0.51806 1.09451
 C1459 C 0.61301 0.52494 1.07810
 C1460 C 0.62357 0.54154 1.06746
 C1461 C 0.64189 0.54918 1.07495
 H1462 H 0.64880 0.54250 1.08818
 O1463 O 0.39623 0.47891 1.07165
 O1464 O 0.37244 0.47896 1.09510
 C1465 C 0.37975 0.47200 1.07867
 C1466 C 0.36934 0.45530 1.06794
 C1467 C 0.35101 0.44758 1.07538
 H1468 H 0.34398 0.45422 1.08868
 O1469 O 0.56931 0.59895 1.01777
 O1470 O 0.59293 0.62242 1.01795
 C1471 C 0.57646 0.61531 1.02484
 C1472 C 0.56586 0.62580 1.04167
 C1473 C 0.57347 0.64401 1.04955
 H1474 H 0.58677 0.65090 1.04292
 O1475 O 0.42374 0.39754 1.01778
 O1476 O 0.40009 0.37408 1.01780
 C1477 C 0.41649 0.38120 1.02475
 C1478 C 0.42691 0.37075 1.04154
 C1479 C 0.41935 0.35247 1.04923
 H1480 H 0.40621 0.34546 1.04245
 O1481 O 0.56893 0.47870 1.09890
 O1482 O 0.59247 0.47874 1.12243
 C1483 C 0.57606 0.47181 1.11531
 C1484 C 0.56549 0.45514 1.12584
 C1485 C 0.57300 0.44748 1.14413
 H1486 H 0.58621 0.45420 1.15108
 O1487 O 0.42355 0.51840 1.09969
 O1488 O 0.39989 0.51850 1.12327
 C1489 C 0.41636 0.52536 1.11616
 C1490 C 0.42707 0.54192 1.12680
 C1491 C 0.42063 0.54860 1.14599
 H1492 H 0.40805 0.54127 1.15350
 O1493 O 0.47645 0.59968 1.07189
 O1494 O 0.47655 0.62339 1.09545
 C1495 C 0.46966 0.61623 1.07900
 C1496 C 0.45330 0.62695 1.06820
 C1497 C 0.44673 0.64615 1.07462
 H1498 H 0.45398 0.65360 1.08729
 O1499 O 0.51580 0.39755 1.07143
 O1500 O 0.51578 0.37397 1.09492
 C1501 C 0.52273 0.38112 1.07849
 C1502 C 0.53946 0.37061 1.06781
 C1503 C 0.54744 0.35248 1.07543
 H1504 H 0.54092 0.34563 1.08880
 O1505 O 0.59662 0.42504 1.01774
 O1506 O 0.62025 0.40149 1.01765
 C1507 C 0.61305 0.41793 1.02462
 C1508 C 0.62352 0.42857 1.04132
 C1509 C 0.64183 0.42109 1.04900
 H1510 H 0.64883 0.40782 1.04229
 O1511 O 0.39645 0.57189 1.01841
 O1512 O 0.37275 0.59536 1.01854
 C1513 C 0.37999 0.57896 1.02541
 C1514 C 0.36953 0.56836 1.04214
 C1515 C 0.35133 0.57602 1.05009
 H1516 H 0.34444 0.58936 1.04357
 Cu1517 Cu 0.49607 0.41384 1.08299
 Cu1518 Cu 0.49605 0.38561 1.11127
 Cu1519 Cu 0.49606 0.58327 1.08317
 Cu1520 Cu 0.49621 0.61164 1.11154
 Cu1521 Cu 0.41248 0.41379 0.99803
 Cu1522 Cu 0.38408 0.38565 0.99800
 Cu1523 Cu 0.58043 0.41355 0.99801
 Cu1524 Cu 0.60875 0.38524 0.99788
 Cu1525 Cu 0.41255 0.58353 0.99870
 Cu1526 Cu 0.38413 0.61174 0.99881
 Cu1527 Cu 0.58093 0.58286 0.99791
 Cu1528 Cu 0.60934 0.61098 0.99810
 Cu1529 Cu 0.41227 0.49864 1.08334
 Cu1530 Cu 0.38375 0.49876 1.11152
 Cu1531 Cu 0.58040 0.49836 1.08264
 Cu1532 Cu 0.60870 0.49842 1.11084
 C1533 C 0.54856 0.44589 1.11697
 H1534 H 0.54289 0.45149 1.10270
 C1535 C 0.56389 0.43074 1.15325
 C1536 C 0.44340 0.55172 1.11738
 H1537 H 0.44829 0.54682 1.10249
 C1538 C 0.43031 0.56486 1.15551
 C1539 C 0.37836 0.55129 1.05120
 H1540 H 0.39258 0.54550 1.04540
 C1541 C 0.34228 0.56696 1.06690
 C1542 C 0.61459 0.44559 1.05055
 H1543 H 0.60031 0.45124 1.04495
 C1544 C 0.65092 0.43033 1.06572
 C1545 C 0.54850 0.37940 1.05068
 H1546 H 0.54266 0.39355 1.04492
 C1547 C 0.56428 0.34346 1.06624
 C1548 C 0.44362 0.61762 1.05174
 H1549 H 0.44844 0.60271 1.04687
 C1550 C 0.43067 0.65578 1.06481
 C1551 C 0.44343 0.44574 1.11733
 H1552 H 0.44833 0.45054 1.10245
 C1553 C 0.43027 0.43285 1.15540
 C1554 C 0.54854 0.55116 1.11709
 H1555 H 0.54286 0.54550 1.10280
 C1556 C 0.56392 0.56650 1.15338
 C1557 C 0.44377 0.37969 1.05087
 H1558 H 0.44948 0.39395 1.04524
 C1559 C 0.42834 0.34344 1.06605
 C1560 C 0.54881 0.61698 1.05085
 H1561 H 0.54306 0.60276 1.04509
 C1562 C 0.56437 0.65310 1.06642
 C1563 C 0.37832 0.44612 1.05087
 H1564 H 0.39262 0.45175 1.04524
 C1565 C 0.34194 0.43087 1.06609
 C1566 C 0.61475 0.55075 1.05050
 H1567 H 0.60046 0.54517 1.04484
 C1568 C 0.65109 0.56585 1.06582
 C1569 C 1.16538 1.16473 1.30548
 C1570 C 1.15563 1.15435 1.29409
 C1571 C 1.14421 1.14226 1.28008
 C1572 C 1.15416 1.12855 1.26731
 C1573 C 1.14328 1.11755 1.25292
 C1574 C 1.12226 1.12016 1.25110
 C1575 C 1.11234 1.13375 1.26424
 C1576 C 1.12326 1.14473 1.27863
 C1577 C 1.11091 1.10932 1.23505
 C1578 C 1.09592 1.11941 1.22389
 C1579 C 1.08601 1.10958 1.20803
 C1580 C 1.09088 1.08956 1.20313
 C1581 C 1.10551 1.07927 1.21435
 C1582 C 1.11546 1.08907 1.23022
 C1583 C 1.08155 1.07995 1.18600
 C1584 C 1.07403 1.07226 1.17129
 H1585 H 1.17039 1.12660 1.26823
 H1586 H 1.15140 1.10743 1.24285
 H1587 H 1.09615 1.13592 1.26337
 H1588 H 1.11541 1.15532 1.28845
 H1589 H 1.09228 1.13507 1.22704
 H1590 H 1.07480 1.11773 1.19935
 H1591 H 1.10941 1.06377 1.21066
 H1592 H 1.12675 1.08083 1.23869
 C1593 C 1.17036 0.66915 0.80032
 C1594 C 1.16033 0.65875 0.78922
 C1595 C 1.14842 0.64658 0.77573
 C1596 C 1.15793 0.63332 0.76216
 C1597 C 1.14644 0.62209 0.74845
 C1598 C 1.12526 0.62400 0.74814
 C1599 C 1.11583 0.63716 0.76204
 C1600 C 1.12735 0.64838 0.77574
 C1601 C 1.11319 0.61284 0.73289
 C1602 C 1.09716 0.62247 0.72283
 C1603 C 1.08653 0.61239 0.70762
 C1604 C 1.09174 0.59256 0.70229
 C1605 C 1.10739 0.58270 0.71246
 C1606 C 1.11805 0.59276 0.72768
 C1607 C 1.08180 0.58280 0.68562
 C1608 C 1.07386 0.57497 0.67121
 H1609 H 1.17424 0.63189 0.76197
 H1610 H 1.15417 0.61231 0.73775
 H1611 H 1.09955 0.63878 0.76232
 H1612 H 1.11985 0.65860 0.78621
 H1613 H 1.09324 0.63801 0.72629
 H1614 H 1.07454 0.62021 0.69972
 H1615 H 1.11157 0.56736 0.70841
 H1616 H 1.13015 0.58487 0.73532
 C1617 C 0.67010 1.16877 0.80375
 C1618 C 0.65997 1.15880 0.79235
 C1619 C 0.64805 1.14705 0.77848
 C1620 C 0.65744 1.13299 0.76567
 C1621 C 0.64602 1.12208 0.75165
 C1622 C 0.62502 1.12513 0.75025
 C1623 C 0.61568 1.13914 0.76337
 C1624 C 0.62714 1.15003 0.77740
 C1625 C 0.61308 1.11422 0.73470
 C1626 C 0.59805 1.12438 0.72368
 C1627 C 0.58757 1.11445 0.70826
 C1628 C 0.59194 1.09423 0.70369
 C1629 C 0.60659 1.08387 0.71480
 C1630 C 0.61709 1.09378 0.73023
 C1631 C 0.58213 1.08450 0.68691
 C1632 C 0.57428 1.07667 0.67245
 H1633 H 0.67363 1.13064 0.76634
 H1634 H 0.65369 1.11163 0.74156
 H1635 H 0.59952 1.14165 0.76281
 H1636 H 0.61973 1.16088 0.78727
 H1637 H 0.59480 1.14019 0.72657
 H1638 H 0.57635 1.12264 0.69965
 H1639 H 0.61010 1.06822 0.71134
 H1640 H 0.62839 1.08548 0.73861
 C1641 C 0.66566 0.66670 1.30502
 C1642 C 0.65576 0.65651 1.29360
 C1643 C 0.64415 0.64461 1.27959
 C1644 C 0.62324 0.64739 1.27819
 C1645 C 0.61211 0.63654 1.26387
 C1646 C 0.62180 0.62276 1.25074
 C1647 C 0.64279 0.61986 1.25250
 C1648 C 0.65387 0.63073 1.26682
 C1649 C 0.61024 0.61201 1.23478
 C1650 C 0.61448 0.59168 1.23003
 C1651 C 0.60434 0.58195 1.21425
 C1652 C 0.58981 0.59239 1.20304
 C1653 C 0.58523 0.61250 1.20786
 C1654 C 0.59535 0.62226 1.22364
 C1655 C 0.58030 0.58285 1.18597
 C1656 C 0.57265 0.57520 1.17130
 H1657 H 0.61556 0.65810 1.28802
 H1658 H 0.59595 0.63892 1.26304
 H1659 H 0.65073 0.60960 1.24243
 H1660 H 0.67007 0.62855 1.26771
 H1661 H 0.62569 0.58332 1.23849
 H1662 H 0.60801 0.56638 1.21061
 H1663 H 0.57411 0.62077 1.19919
 H1664 H 0.59194 0.63799 1.22672
 C1665 C 0.86875 0.86953 1.34583
 C1666 C 0.87340 0.87408 1.32877
 C1667 C 0.87921 0.87981 1.30857
 C1668 C 0.89279 0.86784 1.29750
 C1669 C 0.89896 0.87377 1.27815
 C1670 C 0.89163 0.89180 1.26961
 C1671 C 0.87784 0.90363 1.28081
 C1672 C 0.87170 0.89768 1.30016
 C1673 C 0.89853 0.89838 1.24925
 C1674 C 0.88489 0.90717 1.23556
 C1675 C 0.89148 0.91361 1.21651
 C1676 C 0.91177 0.91137 1.21089
 C1677 C 0.92545 0.90259 1.22436
 C1678 C 0.91889 0.89614 1.24341
 C1679 C 0.91858 0.91813 1.19133
 C1680 C 0.92430 0.92380 1.17496
 H1681 H 0.89869 0.85397 1.30386
 H1682 H 0.90937 0.86419 1.26982
 H1683 H 0.87212 0.91772 1.27480
 H1684 H 0.86126 0.90712 1.30863
 H1685 H 0.86908 0.90889 1.23949
 H1686 H 0.88074 0.92033 1.20618
 H1687 H 0.94120 0.90083 1.22019
 H1688 H 0.92983 0.88969 1.25369
 C1689 C 0.83117 0.32969 0.80783
 C1690 C 0.84082 0.33973 0.79608
 C1691 C 0.85201 0.35156 0.78169
 C1692 C 0.84204 0.36606 0.77002
 C1693 C 0.85263 0.37694 0.75535
 C1694 C 0.87338 0.37344 0.75212
 C1695 C 0.88333 0.35903 0.76414
 C1696 C 0.87270 0.34816 0.77882
 C1697 C 0.88437 0.38427 0.73582
 C1698 C 0.89833 0.37391 0.72344
 C1699 C 0.90794 0.38381 0.70745
 C1700 C 0.90378 0.40418 0.70362
 C1701 C 0.89016 0.41472 0.71602
 C1702 C 0.88051 0.40484 0.73203
 C1703 C 0.91288 0.41395 0.68647
 C1704 C 0.92029 0.42175 0.67176
 H1705 H 0.82600 0.36873 0.77205
 H1706 H 0.84447 0.38770 0.74616
 H1707 H 0.89934 0.35617 0.76218
 H1708 H 0.88057 0.33698 0.78778
 H1709 H 0.90141 0.35801 0.72577
 H1710 H 0.91837 0.37548 0.69786
 H1711 H 0.88682 0.43049 0.71318
 H1712 H 0.87003 0.41329 0.74144
 C1713 C 0.37228 0.87218 0.84842
 C1714 C 0.37680 0.87689 0.83138
 C1715 C 0.38237 0.88282 0.81118
 C1716 C 0.37422 0.90040 0.80277
 C1717 C 0.38005 0.90652 0.78339
 C1718 C 0.39417 0.89513 0.77214
 C1719 C 0.40217 0.87739 0.78068
 C1720 C 0.39631 0.87130 0.80007
 C1721 C 0.40072 0.90188 0.75172
 C1722 C 0.42111 0.90031 0.74577
 C1723 C 0.42731 0.90689 0.72666
 C1724 C 0.41326 0.91510 0.71322
 C1725 C 0.39294 0.91668 0.71896
 C1726 C 0.38669 0.91012 0.73807
 C1727 C 0.41971 0.92191 0.69357
 C1728 C 0.42520 0.92755 0.67712
 H1729 H 0.36349 0.90949 0.81127
 H1730 H 0.37382 0.92038 0.77736
 H1731 H 0.41286 0.86815 0.77232
 H1732 H 0.40271 0.85765 0.80642
 H1733 H 0.43232 0.89431 0.75602
 H1734 H 0.44309 0.90564 0.72240
 H1735 H 0.38192 0.92295 0.70865
 H1736 H 0.37086 0.91130 0.74209
 C1737 C 0.36970 0.37008 1.34583
 C1738 C 0.37437 0.37470 1.32880
 C1739 C 0.38018 0.38053 1.30862
 C1740 C 0.36659 0.39102 1.29633
 C1741 C 0.37246 0.39724 1.27698
 C1742 C 0.39203 0.39304 1.26966
 C1743 C 0.40552 0.38234 1.28209
 C1744 C 0.39962 0.37615 1.30143
 C1745 C 0.39845 0.39999 1.24926
 C1746 C 0.41047 0.38754 1.23675
 C1747 C 0.41675 0.39422 1.21770
 C1748 C 0.41112 0.41342 1.21087
 C1749 C 0.39911 0.42589 1.22315
 C1750 C 0.39280 0.41924 1.24221
 C1751 C 0.41779 0.42035 1.19132
 C1752 C 0.42344 0.42609 1.17496
 H1753 H 0.35150 0.39449 1.30173
 H1754 H 0.36164 0.40521 1.26769
 H1755 H 0.42076 0.37911 1.27703
 H1756 H 0.41030 0.36813 1.31086
 H1757 H 0.41485 0.37256 1.24162
 H1758 H 0.42599 0.38442 1.20829
 H1759 H 0.39471 0.44080 1.21804
 H1760 H 0.38380 0.42929 1.25157
 C1761 C 0.83113 1.16469 0.69157
 C1762 C 0.84082 1.15449 0.70311
 C1763 C 0.85212 1.14251 0.71724
 C1764 C 0.87302 1.14509 0.71903
 C1765 C 0.88382 1.13410 0.73343
 C1766 C 0.87382 1.12040 0.74625
 C1767 C 0.85285 1.11771 0.74410
 C1768 C 0.84209 1.12871 0.72970
 C1769 C 0.88504 1.10946 0.76225
 C1770 C 0.88057 1.08915 0.76667
 C1771 C 0.89042 1.07922 0.78245
 C1772 C 0.90489 1.08944 0.79399
 C1773 C 0.90968 1.10953 0.78951
 C1774 C 0.89985 1.11948 0.77374
 C1775 C 0.91414 1.07968 0.81102
 C1776 C 0.92161 1.07188 0.82564
 H1777 H 0.88093 1.15573 0.70944
 H1778 H 0.89998 1.13632 0.73455
 H1779 H 0.84467 1.10750 0.75392
 H1780 H 0.82589 1.12667 0.72850
 H1781 H 0.86941 1.08096 0.75794
 H1782 H 0.88659 1.06368 0.78581
 H1783 H 0.92076 1.11762 0.79844
 H1784 H 0.90343 1.13519 0.77091
 C1785 C 0.82859 0.66479 0.19147
 C1786 C 0.83851 0.65502 0.20318
 C1787 C 0.85025 0.64369 0.21748
 C1788 C 0.84666 0.62303 0.22020
 C1789 C 0.85751 0.61225 0.23473
 C1790 C 0.87209 0.62203 0.24673
 C1791 C 0.87576 0.64275 0.24365
 C1792 C 0.86490 0.65348 0.22913
 C1793 C 0.88293 0.61090 0.26286
 C1794 C 0.90356 0.61449 0.26651
 C1795 C 0.91344 0.60475 0.28239
 C1796 C 0.90286 0.59129 0.29479
 C1797 C 0.88243 0.58738 0.29108
 C1798 C 0.87252 0.59709 0.27521
 C1799 C 0.91263 0.58216 0.31187
 C1800 C 0.92040 0.57474 0.32653
 H1801 H 0.83536 0.61530 0.21124
 H1802 H 0.85451 0.59628 0.23657
 H1803 H 0.88666 0.65077 0.25284
 H1804 H 0.86772 0.66949 0.22720
 H1805 H 0.91203 0.62485 0.25711
 H1806 H 0.92926 0.60789 0.28515
 H1807 H 0.87407 0.57708 0.30067
 H1808 H 0.85658 0.59422 0.27298
 C1809 C 0.33056 1.16383 0.19007
 C1810 C 0.34028 1.15402 0.20191
 C1811 C 0.35162 1.14256 0.21644
 C1812 C 0.34173 1.12866 0.22891
 C1813 C 0.35249 1.11819 0.24371
 C1814 C 0.37333 1.12151 0.24624
 C1815 C 0.38320 1.13531 0.23343
 C1816 C 0.37239 1.14577 0.21863
 C1817 C 0.38453 1.11110 0.26262
 C1818 C 0.39886 1.12167 0.27424
 C1819 C 0.40868 1.11219 0.29031
 C1820 C 0.40437 1.09203 0.29495
 C1821 C 0.39039 1.08128 0.28330
 C1822 C 0.38054 1.09073 0.26722
 C1823 C 0.41366 1.08269 0.31221
 C1824 C 0.42114 1.07518 0.32698
 H1825 H 0.32563 1.12615 0.22741
 H1826 H 0.34440 1.10790 0.25351
 H1827 H 0.39926 1.13801 0.23485
 H1828 H 0.38020 1.15649 0.20905
 H1829 H 0.40206 1.13743 0.27128
 H1830 H 0.41939 1.12069 0.29932
 H1831 H 0.38694 1.06566 0.28677
 H1832 H 0.36977 1.08213 0.25841
 C1833 C 0.32873 0.66643 0.69147
 C1834 C 0.33842 0.65635 0.70311
 C1835 C 0.34980 0.64455 0.71731
 C1836 C 0.37080 0.64668 0.71847
 C1837 C 0.38173 0.63584 0.73288
 C1838 C 0.37178 0.62273 0.74633
 C1839 C 0.35069 0.62049 0.74484
 C1840 C 0.33979 0.63135 0.73043
 C1841 C 0.38319 0.61194 0.76230
 C1842 C 0.37836 0.59187 0.76737
 C1843 C 0.38843 0.58212 0.78313
 C1844 C 0.40344 0.59228 0.79400
 C1845 C 0.40858 0.61212 0.78886
 C1846 C 0.39855 0.62189 0.77310
 C1847 C 0.41290 0.58274 0.81103
 C1848 C 0.42052 0.57510 0.82566
 H1849 H 0.37869 0.65685 0.70836
 H1850 H 0.39797 0.63769 0.73349
 H1851 H 0.34255 0.61075 0.75516
 H1852 H 0.32353 0.62966 0.72972
 H1853 H 0.36678 0.58373 0.75917
 H1854 H 0.38432 0.56676 0.78701
 H1855 H 0.42008 0.62016 0.79727
 H1856 H 0.40241 0.63743 0.76977
 C1857 C 1.16965 0.82534 0.69349
 C1858 C 1.15943 0.83492 0.70524
 C1859 C 1.14733 0.84624 0.71940
 C1860 C 1.13536 0.83607 0.73357
 C1861 C 1.12401 0.84700 0.74773
 C1862 C 1.12449 0.86827 0.74791
 C1863 C 1.13641 0.87835 0.73346
 C1864 C 1.14775 0.86738 0.71930
 C1865 C 1.11309 0.87982 0.76351
 C1866 C 1.12192 0.89663 0.77311
 C1867 C 1.11164 0.90686 0.78856
 C1868 C 1.09240 0.90047 0.79458
 C1869 C 1.08333 0.88399 0.78489
 C1870 C 1.09359 0.87373 0.76943
 C1871 C 1.08247 0.91016 0.81139
 C1872 C 1.07457 0.91799 0.82588
 H1873 H 1.13499 0.81970 0.73381
 H1874 H 1.11522 0.83881 0.75884
 H1875 H 1.13690 0.89471 0.73308
 H1876 H 1.15693 0.87539 0.70835
 H1877 H 1.13702 0.90151 0.76909
 H1878 H 1.11885 0.91951 0.79608
 H1879 H 1.06845 0.87891 0.78947
 H1880 H 1.08631 0.86100 0.76215
 C1881 C 1.16423 0.32942 0.18998
 C1882 C 1.15413 0.33911 0.20176
 C1883 C 1.14233 0.35051 0.21614
 C1884 C 1.14418 0.37156 0.21718
 C1885 C 1.13339 0.38252 0.23177
 C1886 C 1.12060 0.37254 0.24554
 C1887 C 1.11863 0.35140 0.24417
 C1888 C 1.12945 0.34047 0.22957
 C1889 C 1.10988 0.38399 0.26170
 C1890 C 1.08996 0.37896 0.26721
 C1891 C 1.08030 0.38907 0.28316
 C1892 C 1.09040 0.40435 0.29376
 C1893 C 1.11008 0.40969 0.28818
 C1894 C 1.11977 0.39961 0.27224
 C1895 C 1.08097 0.41388 0.31097
 C1896 C 1.07342 0.42156 0.32573
 H1897 H 1.15411 0.37947 0.20684
 H1898 H 1.13503 0.39880 0.23230
 H1899 H 1.10915 0.34324 0.25472
 H1900 H 1.12798 0.32416 0.22896
 H1901 H 1.08187 0.36718 0.25923
 H1902 H 1.06506 0.38481 0.28738
 H1903 H 1.11808 0.42140 0.29638
 H1904 H 1.13520 0.40365 0.26856
 C1905 C 0.66630 0.82785 0.19338
 C1906 C 0.65624 0.83771 0.20505
 C1907 C 0.64441 0.84931 0.21923
 C1908 C 0.64661 0.87033 0.22028
 C1909 C 0.63569 0.88150 0.23462
 C1910 C 0.62244 0.87176 0.24811
 C1911 C 0.62015 0.85065 0.24674
 C1912 C 0.63108 0.83952 0.23240
 C1913 C 0.61153 0.88342 0.26399
 C1914 C 0.59140 0.87875 0.26901
 C1915 C 0.58153 0.88904 0.28471
 C1916 C 0.59163 0.90414 0.29555
 C1917 C 0.61153 0.90914 0.29045
 C1918 C 0.62143 0.89888 0.27476
 C1919 C 0.58197 0.91381 0.31255
 C1920 C 0.57421 0.92157 0.32716
 H1921 H 0.65688 0.87806 0.21013
 H1922 H 0.63759 0.89775 0.23516
 H1923 H 0.61030 0.84268 0.25710
 H1924 H 0.62934 0.82324 0.23176
 H1925 H 0.58330 0.86710 0.26084
 H1926 H 0.56612 0.88504 0.28857
 H1927 H 0.61954 0.92072 0.29884
 H1928 H 0.63701 0.90264 0.27145
 C1929 C 0.62298 0.37329 0.64868
 C1930 C 0.61833 0.37789 0.66576
 C1931 C 0.61257 0.38359 0.68603
 C1932 C 0.61905 0.40204 0.69415
 C1933 C 0.61304 0.40786 0.71363
 C1934 C 0.60043 0.39529 0.72526
 C1935 C 0.59410 0.37672 0.71699
 C1936 C 0.60013 0.37092 0.69751
 C1937 C 0.59372 0.40166 0.74581
 C1938 C 0.57374 0.39819 0.75228
 C1939 C 0.56737 0.40440 0.77152
 C1940 C 0.58085 0.41416 0.78456
 C1941 C 0.60076 0.41763 0.77831
 C1942 C 0.60717 0.41143 0.75907
 C1943 C 0.57422 0.42067 0.80432
 C1944 C 0.56867 0.42614 0.82086
 H1945 H 0.62860 0.41201 0.68536
 H1946 H 0.61796 0.42236 0.71944
 H1947 H 0.58460 0.36659 0.72565
 H1948 H 0.59504 0.35660 0.69138
 H1949 H 0.56295 0.39096 0.74234
 H1950 H 0.55190 0.40169 0.77618
 H1951 H 0.61134 0.42512 0.78830
 H1952 H 0.62271 0.41410 0.75464
 C1953 C 1.30604 1.16380 1.16514
 C1954 C 1.29434 1.15398 1.15520
 C1955 C 1.28001 1.14251 1.14356
 C1956 C 1.27789 1.12171 1.14673
 C1957 C 1.26329 1.11077 1.13610
 C1958 C 1.25059 1.12051 1.12215
 C1959 C 1.25305 1.14137 1.11887
 C1960 C 1.26765 1.15228 1.12952
 C1961 C 1.23440 1.10915 1.11156
 C1962 C 1.22999 1.11306 1.09113
 C1963 C 1.21408 1.10305 1.08150
 C1964 C 1.20241 1.08900 1.09214
 C1965 C 1.20687 1.08478 1.11235
 C1966 C 1.22276 1.09476 1.12201
 C1967 C 1.18530 1.07957 1.08263
 C1968 C 1.17064 1.07197 1.07498
 H1969 H 1.28739 1.11400 1.15757
 H1970 H 1.26193 1.09468 1.13878
 H1971 H 1.24332 1.14937 1.10847
 H1972 H 1.26909 1.16840 1.12703
 H1973 H 1.23882 1.12388 1.08262
 H1974 H 1.21074 1.10645 1.06585
 H1975 H 1.19784 1.07403 1.12076
 H1976 H 1.22558 1.09162 1.13781
 C1977 C 1.30432 0.66686 0.66653
 C1978 C 1.29269 0.65714 0.65642
 C1979 C 1.27848 0.64571 0.64460
 C1980 C 1.26558 0.65565 0.63118
 C1981 C 1.25113 0.64472 0.62035
 C1982 C 1.24938 0.62367 0.62283
 C1983 C 1.26262 0.61378 0.63615
 C1984 C 1.27707 0.62474 0.64697
 C1985 C 1.23335 0.61224 0.61208
 C1986 C 1.22233 0.59712 0.62216
 C1987 C 1.20654 0.58707 0.61240
 C1988 C 1.20158 0.59195 0.59245
 C1989 C 1.21266 0.60672 0.58217
 C1990 C 1.22846 0.61680 0.59190
 C1991 C 1.18454 0.58246 0.58291
 C1992 C 1.16992 0.57481 0.57524
 H1993 H 1.26648 0.67189 0.62932
 H1994 H 1.24098 0.65281 0.61044
 H1995 H 1.26180 0.59756 0.63820
 H1996 H 1.28700 0.61690 0.65731
 H1997 H 1.22553 0.59346 0.63777
 H1998 H 1.19797 0.57575 0.62054
 H1999 H 1.20893 0.61063 0.56673
 H2000 H 1.23682 0.62819 0.58367
 C2001 C 0.80642 1.16542 0.66692
 C2002 C 0.79456 1.15587 0.65692
 C2003 C 0.78008 1.14467 0.64520
 C2004 C 0.76724 1.15483 0.63189
 C2005 C 0.75254 1.14414 0.62114
 C2006 C 0.75048 1.12312 0.62361
 C2007 C 0.76366 1.11300 0.63684
 C2008 C 0.77835 1.12373 0.64756
 C2009 C 0.73421 1.11196 0.61295
 C2010 C 0.72302 1.09700 0.62308
 C2011 C 0.70702 1.08721 0.61342
 C2012 C 0.70201 1.09218 0.59350
 C2013 C 0.71325 1.10680 0.58317
 C2014 C 0.72926 1.11662 0.59281
 C2015 C 0.68480 1.08292 0.58405
 C2016 C 0.67004 1.07544 0.57648
 H2017 H 0.76839 1.17105 0.63003
 H2018 H 0.74245 1.15240 0.61131
 H2019 H 0.76260 1.09680 0.63888
 H2020 H 0.78823 1.11573 0.65783
 H2021 H 0.72626 1.09327 0.63867
 H2022 H 0.69833 1.07600 0.62159
 H2023 H 0.70948 1.11078 0.56775
 H2024 H 0.73775 1.12789 0.58454
 C2025 C 0.80402 0.66479 1.16662
 C2026 C 0.79238 0.65502 1.15657
 C2027 C 0.77813 0.64368 1.14472
 C2028 C 0.76600 0.65360 1.13059
 C2029 C 0.75149 0.64284 1.11968
 C2030 C 0.74890 0.62196 1.12278
 C2031 C 0.76137 0.61206 1.13683
 C2032 C 0.77589 0.62287 1.14772
 C2033 C 0.73278 0.61077 1.11193
 C2034 C 0.72092 0.59641 1.12216
 C2035 C 0.70504 0.58663 1.11227
 C2036 C 0.70083 0.59104 1.09204
 C2037 C 0.71273 0.60505 1.08161
 C2038 C 0.72862 0.61485 1.09148
 C2039 C 0.68372 0.58184 1.08232
 C2040 C 0.66903 0.57441 1.07457
 H2041 H 0.76755 0.66973 1.12822
 H2042 H 0.74194 0.65095 1.10920
 H2043 H 0.75990 0.59597 1.13938
 H2044 H 0.78522 0.61504 1.15862
 H2045 H 0.72354 0.59315 1.13797
 H2046 H 0.69583 0.57591 1.12051
 H2047 H 0.70958 0.60858 1.06595
 H2048 H 0.73763 0.62565 1.08313
 C2049 C 1.34740 0.87172 0.87316
 C2050 C 1.33023 0.87600 0.87769
 C2051 C 1.30987 0.88137 0.88329
 C2052 C 1.30133 0.89936 0.87621
 C2053 C 1.28176 0.90489 0.88207
 C2054 C 1.27044 0.89250 0.89513
 C2055 C 1.27912 0.87437 0.90206
 C2056 C 1.29870 0.86886 0.89618
 C2057 C 1.24980 0.89860 0.90169
 C2058 C 1.24346 0.89570 0.92182
 C2059 C 1.22416 0.90176 0.92807
 C2060 C 1.21092 0.91076 0.91431
 C2061 C 1.21703 0.91361 0.89424
 C2062 C 1.23633 0.90758 0.88796
 C2063 C 1.19114 0.91721 0.92082
 C2064 C 1.17459 0.92267 0.92627
 H2065 H 1.30987 0.90920 0.86632
 H2066 H 1.27563 0.91906 0.87669
 H2067 H 1.27072 0.86438 0.91192
 H2068 H 1.30515 0.85489 0.90173
 H2069 H 1.25355 0.88909 0.93283
 H2070 H 1.21961 0.89953 0.94367
 H2071 H 1.20689 0.92052 0.88344
 H2072 H 1.24065 0.90978 0.87230
 C2073 C 1.34478 0.37010 0.37059
 C2074 C 1.32771 0.37474 0.37516
 C2075 C 1.30750 0.38061 0.38086
 C2076 C 1.29602 0.36831 0.39366
 C2077 C 1.27665 0.37435 0.39972
 C2078 C 1.26849 0.39282 0.39306
 C2079 C 1.28011 0.40500 0.38006
 C2080 C 1.29947 0.39893 0.37402
 C2081 C 1.24810 0.39950 0.39985
 C2082 C 1.23482 0.40910 0.38634
 C2083 C 1.21576 0.41563 0.39285
 C2084 C 1.20969 0.41268 0.41292
 C2085 C 1.22275 0.40310 0.42646
 C2086 C 1.24181 0.39654 0.41999
 C2087 C 1.19012 0.41955 0.41966
 C2088 C 1.17374 0.42530 0.42535
 H2089 H 1.30207 0.35409 0.39903
 H2090 H 1.26800 0.36451 0.40952
 H2091 H 1.27440 0.41942 0.37488
 H2092 H 1.30827 0.40863 0.36420
 H2093 H 1.23910 0.41138 0.37069
 H2094 H 1.20575 0.42299 0.38222
 H2095 H 1.21823 0.40078 0.44205
 H2096 H 1.25177 0.38947 0.43083
 C2097 C 0.84395 0.86973 0.37074
 C2098 C 0.82694 0.87448 0.37542
 C2099 C 0.80680 0.88049 0.38125
 C2100 C 0.79902 0.89907 0.37486
 C2101 C 0.77973 0.90525 0.38104
 C2102 C 0.76795 0.89292 0.39375
 C2103 C 0.77586 0.87419 0.39997
 C2104 C 0.79515 0.86803 0.39376
 C2105 C 0.74764 0.89971 0.40070
 C2106 C 0.74130 0.89635 0.42076
 C2107 C 0.72231 0.90300 0.42738
 C2108 C 0.70939 0.91309 0.41408
 C2109 C 0.71551 0.91644 0.39408
 C2110 C 0.73450 0.90981 0.38743
 C2111 C 0.68989 0.92004 0.42096
 C2112 C 0.67357 0.92585 0.42675
 H2113 H 0.80794 0.90888 0.36527
 H2114 H 0.77421 0.91986 0.37621
 H2115 H 0.76708 0.86424 0.40953
 H2116 H 0.80102 0.85361 0.39880
 H2117 H 0.75115 0.88887 0.43143
 H2118 H 0.71776 0.90037 0.44291
 H2119 H 0.70561 0.92417 0.38363
 H2120 H 0.73881 0.91240 0.37184
 C2121 C 0.80634 0.32936 0.83258
 C2122 C 0.79440 0.33910 0.84244
 C2123 C 0.77981 0.35053 0.85393
 C2124 C 0.76691 0.34065 0.86748
 C2125 C 0.75208 0.35155 0.87798
 C2126 C 0.74994 0.37251 0.87504
 C2127 C 0.76317 0.38234 0.86159
 C2128 C 0.77800 0.37141 0.85111
 C2129 C 0.73354 0.38388 0.88546
 C2130 C 0.72236 0.39861 0.87501
 C2131 C 0.70627 0.40861 0.88449
 C2132 C 0.70116 0.40408 0.90452
 C2133 C 0.71238 0.38970 0.91515
 C2134 C 0.72848 0.37966 0.90570
 C2135 C 0.68388 0.41356 0.91382
 C2136 C 0.66908 0.42118 0.92133
 H2137 H 0.76812 0.32448 0.86970
 H2138 H 0.74196 0.34349 0.88799
 H2139 H 0.76205 0.39849 0.85919
 H2140 H 0.78791 0.37920 0.84066
 H2141 H 0.72569 0.40200 0.85934
 H2142 H 0.69760 0.41963 0.87608
 H2143 H 0.70854 0.38607 0.93066
 H2144 H 0.73695 0.36859 0.91422
 C2145 C 0.69119 0.82806 1.16879
 C2146 C 0.70283 0.83808 1.15900
 C2147 C 0.71697 0.84986 1.14746
 C2148 C 0.73013 0.86313 1.15734
 C2149 C 0.74442 0.87403 1.14626
 C2150 C 0.74575 0.87177 1.12512
 C2151 C 0.73226 0.85858 1.11530
 C2152 C 0.71797 0.84770 1.12642
 C2153 C 0.76158 0.88262 1.11351
 C2154 C 0.77230 0.87268 1.09795
 C2155 C 0.78794 0.88251 1.08772
 C2156 C 0.79304 0.90240 1.09286
 C2157 C 0.78225 0.91254 1.10806
 C2158 C 0.76660 0.90273 1.11832
 C2159 C 0.80998 0.91198 1.08320
 C2160 C 0.82455 0.91967 1.07544
 H2161 H 0.72952 0.86485 1.17364
 H2162 H 0.75477 0.88383 1.15430
 H2163 H 0.73276 0.85671 1.09903
 H2164 H 0.70782 0.83748 1.11863
 H2165 H 0.76899 0.85711 1.09409
 H2166 H 0.79630 0.87448 1.07607
 H2167 H 0.78611 0.92793 1.11216
 H2168 H 0.75846 0.91086 1.13005
 C2169 C 0.64779 0.37349 0.62385
 C2170 C 0.66477 0.37834 0.61929
 C2171 C 0.68490 0.38445 0.61368
 C2172 C 0.70043 0.37014 0.61214
 C2173 C 0.71989 0.37611 0.60641
 C2174 C 0.72407 0.39652 0.60214
 C2175 C 0.70836 0.41079 0.60380
 C2176 C 0.68892 0.40479 0.60952
 C2177 C 0.74468 0.40290 0.59584
 C2178 C 0.75298 0.42113 0.60307
 C2179 C 0.77224 0.42727 0.59691
 C2180 C 0.78349 0.41532 0.58345
 C2181 C 0.77542 0.39713 0.57624
 C2182 C 0.75616 0.39094 0.58239
 C2183 C 0.80325 0.42177 0.57697
 C2184 C 0.81978 0.42721 0.57153
 H2185 H 0.69749 0.35436 0.61536
 H2186 H 0.73171 0.36480 0.60552
 H2187 H 0.71100 0.42656 0.60035
 H2188 H 0.67700 0.41599 0.61059
 H2189 H 0.74465 0.43054 0.61364
 H2190 H 0.77836 0.44135 0.60264
 H2191 H 0.78397 0.38778 0.56577
 H2192 H 0.75011 0.37697 0.57635
 C2193 C 0.19442 0.82626 0.66888
 C2194 C 0.20585 0.83669 0.65928
 C2195 C 0.21971 0.84907 0.64803
 C2196 C 0.23319 0.86171 0.65828
 C2197 C 0.24715 0.87327 0.64745
 C2198 C 0.24781 0.87230 0.62619
 C2199 C 0.23401 0.85973 0.61601
 C2200 C 0.22005 0.84818 0.62688
 C2201 C 0.26329 0.88384 0.61479
 C2202 C 0.27353 0.87486 0.59835
 C2203 C 0.28891 0.88527 0.58832
 C2204 C 0.29424 0.90479 0.59453
 C2205 C 0.28391 0.91402 0.61061
 C2206 C 0.26851 0.90363 0.62068
 C2207 C 0.31101 0.91486 0.58507
 C2208 C 0.32547 0.92282 0.57740
 H2209 H 0.23309 0.86245 0.67466
 H2210 H 0.25776 0.88257 0.65574
 H2211 H 0.23400 0.85885 0.59965
 H2212 H 0.20964 0.83847 0.61881
 H2213 H 0.27006 0.85956 0.59364
 H2214 H 0.29692 0.87795 0.57598
 H2215 H 0.28795 0.92911 0.61555
 H2216 H 0.26074 0.91103 0.63311
 C2217 C 0.18917 0.32994 1.16539
 C2218 C 0.20083 0.34007 1.15573
 C2219 C 0.21507 0.35198 1.14443
 C2220 C 0.22770 0.36560 1.15452
 C2221 C 0.24217 0.37657 1.14373
 C2222 C 0.24421 0.37402 1.12268
 C2223 C 0.23124 0.36049 1.11263
 C2224 C 0.21676 0.34954 1.12346
 C2225 C 0.26027 0.38491 1.11141
 C2226 C 0.27160 0.37490 1.09634
 C2227 C 0.28744 0.38479 1.08647
 C2228 C 0.29216 0.40480 1.09149
 C2229 C 0.28078 0.41501 1.10621
 C2230 C 0.26492 0.40515 1.11611
 C2231 C 0.30927 0.41446 1.08221
 C2232 C 0.32397 0.42217 1.07471
 H2233 H 0.22658 0.36753 1.17077
 H2234 H 0.25212 0.38663 1.15195
 H2235 H 0.23228 0.35838 1.09641
 H2236 H 0.20704 0.33904 1.11550
 H2237 H 0.26859 0.35925 1.09258
 H2238 H 0.29625 0.37670 1.07519
 H2239 H 0.28433 0.43050 1.11022
 H2240 H 0.25633 0.41333 1.12747
 C2241 C 0.69485 1.16875 0.82829
 C2242 C 0.70631 1.15876 0.83828
 C2243 C 0.72023 1.14698 0.85003
 C2244 C 0.72889 1.12947 0.84179
 C2245 C 0.74304 1.11844 0.85288
 C2246 C 0.74873 1.12483 0.87238
 C2247 C 0.73972 1.14232 0.88063
 C2248 C 0.72557 1.15331 0.86952
 C2249 C 0.76448 1.11369 0.88375
 C2250 C 0.77935 1.12430 0.89460
 C2251 C 0.79469 1.11388 0.90463
 C2252 C 0.79538 1.09275 0.90398
 C2253 C 0.78052 1.08202 0.89344
 C2254 C 0.76515 1.09241 0.88339
 C2255 C 0.81179 1.08223 0.91351
 C2256 C 0.82595 1.07388 0.92127
 H2257 H 0.72492 1.12449 0.82669
 H2258 H 0.74990 1.10522 0.84600
 H2259 H 0.74360 1.14747 0.89569
 H2260 H 0.71893 1.16684 0.87604
 H2261 H 0.77943 1.14066 0.89492
 H2262 H 0.80620 1.12233 0.91264
 H2263 H 0.78093 1.06565 0.89284
 H2264 H 0.75378 1.08382 0.87536
 C2265 C 0.69078 0.66749 0.32929
 C2266 C 0.70279 0.65806 0.33918
 C2267 C 0.71741 0.64716 0.35093
 C2268 C 0.72149 0.62681 0.34670
 C2269 C 0.73627 0.61648 0.35765
 C2270 C 0.74719 0.62644 0.37296
 C2271 C 0.74276 0.64682 0.37728
 C2272 C 0.72798 0.65710 0.36632
 C2273 C 0.76351 0.61580 0.38400
 C2274 C 0.78177 0.62578 0.38831
 C2275 C 0.79734 0.61572 0.39833
 C2276 C 0.79491 0.59557 0.40420
 C2277 C 0.77678 0.58551 0.40010
 C2278 C 0.76116 0.59555 0.39005
 C2279 C 0.81126 0.58525 0.41403
 C2280 C 0.82539 0.57701 0.42200
 H2281 H 0.71343 0.61900 0.33476
 H2282 H 0.73950 0.60088 0.35382
 H2283 H 0.75071 0.65481 0.38915
 H2284 H 0.72491 0.67285 0.36975
 H2285 H 0.78416 0.64125 0.38358
 H2286 H 0.81135 0.62361 0.40134
 H2287 H 0.77475 0.56991 0.40459
 H2288 H 0.74721 0.58754 0.38713
 C2289 C 0.19052 1.16609 0.32974
 C2290 C 0.20273 1.15695 0.33967
 C2291 C 0.21762 1.14643 0.35142
 C2292 C 0.21910 1.12534 0.35039
 C2293 C 0.23410 1.11525 0.36129
 C2294 C 0.24783 1.12616 0.37331
 C2295 C 0.24602 1.14734 0.37443
 C2296 C 0.23102 1.15738 0.36355
 C2297 C 0.26430 1.11561 0.38422
 C2298 C 0.28385 1.12392 0.38472
 C2299 C 0.29947 1.11394 0.39474
 C2300 C 0.29580 1.09554 0.40442
 C2301 C 0.27640 1.08713 0.40408
 C2302 C 0.26073 1.09709 0.39403
 C2303 C 0.31210 1.08528 0.41442
 C2304 C 0.32619 1.07709 0.42249
 H2305 H 0.20884 1.11672 0.34099
 H2306 H 0.23525 1.09896 0.35994
 H2307 H 0.25618 1.15614 0.38377
 H2308 H 0.22998 1.17371 0.36448
 H2309 H 0.28716 1.13797 0.37705
 H2310 H 0.31445 1.12053 0.39483
 H2311 H 0.27340 1.07289 0.41154
 H2312 H 0.24580 1.09043 0.39408
 C2313 C 0.19562 0.67031 0.82430
 C2314 C 0.20766 0.66094 0.83420
 C2315 C 0.22221 0.65004 0.84602
 C2316 C 0.23611 0.66065 0.85789
 C2317 C 0.25057 0.65017 0.86907
 C2318 C 0.25132 0.62891 0.86852
 C2319 C 0.23713 0.61837 0.85671
 C2320 C 0.22268 0.62889 0.84551
 C2321 C 0.26712 0.61785 0.87987
 C2322 C 0.26250 0.59987 0.89021
 C2323 C 0.27753 0.58943 0.90072
 C2324 C 0.29733 0.59683 0.90100
 C2325 C 0.30205 0.61470 0.89080
 C2326 C 0.28707 0.62515 0.88031
 C2327 C 0.31298 0.58609 0.91148
 C2328 C 0.32660 0.57751 0.91993
 H2329 H 0.23582 0.67702 0.85844
 H2330 H 0.26111 0.65869 0.87824
 H2331 H 0.23748 0.60203 0.85580
 H2332 H 0.21200 0.62055 0.83633
 H2333 H 0.24724 0.59400 0.89032
 H2334 H 0.27373 0.57561 0.90860
 H2335 H 0.31735 0.62050 0.89085
 H2336 H 0.29117 0.63878 0.87225
 C2337 C 1.16482 1.30486 1.16496
 C2338 C 1.15521 1.29307 1.15491
 C2339 C 1.14393 1.27866 1.14317
 C2340 C 1.12299 1.27707 1.14568
 C2341 C 1.11218 1.26240 1.13496
 C2342 C 1.12222 1.24911 1.12159
 C2343 C 1.14324 1.25105 1.11897
 C2344 C 1.15400 1.26571 1.12970
 C2345 C 1.11098 1.23284 1.11097
 C2346 C 1.11561 1.22778 1.09077
 C2347 C 1.10571 1.21176 1.08115
 C2348 C 1.09106 1.20063 1.09157
 C2349 C 1.08611 1.20575 1.11154
 C2350 C 1.09598 1.22176 1.12118
 C2351 C 1.08175 1.18338 1.08214
 C2352 C 1.07425 1.16860 1.07456
 H2353 H 1.11504 1.28703 1.15606
 H2354 H 1.09599 1.26144 1.13711
 H2355 H 1.15144 1.24087 1.10902
 H2356 H 1.17023 1.26676 1.12773
 H2357 H 1.12690 1.23618 1.08243
 H2358 H 1.10966 1.20790 1.06569
 H2359 H 1.07489 1.19714 1.11979
 H2360 H 1.09228 1.22508 1.13682
 C2361 C 1.17004 0.80131 0.66814
 C2362 C 1.16011 0.78996 0.65791
 C2363 C 1.14825 0.77620 0.64600
 C2364 C 1.12718 0.77608 0.64793
 C2365 C 1.11569 0.76213 0.63698
 C2366 C 1.12515 0.74812 0.62395
 C2367 C 1.14632 0.74857 0.62191
 C2368 C 1.15778 0.76252 0.63288
 C2369 C 1.11311 0.73264 0.61306
 C2370 C 1.11791 0.72723 0.59300
 C2371 C 1.10726 0.71185 0.58318
 C2372 C 1.09167 0.70172 0.59325
 C2373 C 1.08653 0.70724 0.61307
 C2374 C 1.09715 0.72262 0.62292
 C2375 C 1.08170 0.68494 0.58369
 C2376 C 1.07378 0.67048 0.57596
 H2377 H 1.11966 0.78663 0.65804
 H2378 H 1.09941 0.76231 0.63869
 H2379 H 1.15406 0.73780 0.61223
 H2380 H 1.17408 0.76244 0.63135
 H2381 H 1.12995 0.73484 0.58495
 H2382 H 1.11138 0.70766 0.56785
 H2383 H 1.07458 0.69938 0.62105
 H2384 H 1.09327 0.72624 0.63845
 C2385 C 0.62336 1.34837 0.62394
 C2386 C 0.61897 1.33122 0.61946
 C2387 C 0.61342 1.31090 0.61392
 C2388 C 0.61905 1.30305 0.59503
 C2389 C 0.61311 1.28355 0.58936
 C2390 C 0.60141 1.27163 0.60253
 C2391 C 0.59597 1.27961 0.62156
 C2392 C 0.60193 1.29911 0.62720
 C2393 C 0.59469 1.25109 0.59632
 C2394 C 0.57504 1.24438 0.60091
 C2395 C 0.56861 1.22517 0.59481
 C2396 C 0.58172 1.21241 0.58406
 C2397 C 0.60132 1.21891 0.57948
 C2398 C 0.60778 1.23811 0.58556
 C2399 C 0.57502 1.19270 0.57763
 C2400 C 0.56942 1.17621 0.57221
 H2401 H 0.62785 1.31208 0.58459
 H2402 H 0.61733 1.27797 0.57451
 H2403 H 0.58720 1.27073 0.63214
 H2404 H 0.59749 1.30503 0.64187
 H2405 H 0.56451 1.25410 0.60892
 H2406 H 0.55338 1.22032 0.59838
 H2407 H 0.61161 1.20913 0.57121
 H2408 H 0.62307 1.24273 0.58201
 C2409 C 0.66659 0.80332 1.16840
 C2410 C 0.65678 0.79178 1.15827
 C2411 C 0.64523 0.77774 1.14634
 C2412 C 0.62421 0.77686 1.14850
 C2413 C 0.61309 0.76267 1.13746
 C2414 C 0.62288 0.74918 1.12413
 C2415 C 0.64400 0.75038 1.12189
 C2416 C 0.65508 0.76457 1.13294
 C2417 C 0.61126 0.73347 1.11309
 C2418 C 0.61608 0.72852 1.09291
 C2419 C 0.60582 0.71298 1.08291
 C2420 C 0.59061 0.70222 1.09293
 C2421 C 0.58548 0.70726 1.11287
 C2422 C 0.59571 0.72279 1.12290
 C2423 C 0.58098 0.68537 1.08315
 C2424 C 0.57322 0.67086 1.07531
 H2425 H 0.61644 0.78701 1.15882
 H2426 H 0.59683 0.76226 1.13933
 H2427 H 0.65201 0.74002 1.11198
 H2428 H 0.67136 0.76508 1.13123
 H2429 H 0.62781 0.73663 1.08489
 H2430 H 0.60992 0.70917 1.06748
 H2431 H 0.57382 0.69893 1.12081
 H2432 H 0.59184 0.72605 1.13851
 C2433 C 0.83136 1.30484 0.83247
 C2434 C 0.84120 1.29309 0.84228
 C2435 C 0.85263 1.27868 0.85381
 C2436 C 0.87319 1.27568 0.84975
 C2437 C 0.88402 1.26096 0.86031
 C2438 C 0.87440 1.24904 0.87506
 C2439 C 0.85379 1.25239 0.87922
 C2440 C 0.84300 1.26710 0.86864
 C2441 C 0.88557 1.23270 0.88558
 C2442 C 0.88229 1.22898 0.90628
 C2443 C 0.89207 1.21292 0.91588
 C2444 C 0.90526 1.20041 0.90494
 C2445 C 0.90887 1.20417 0.88443
 C2446 C 0.89912 1.22021 0.87481
 C2447 C 0.91444 1.18318 0.91446
 C2448 C 0.92185 1.16842 0.92209
 H2449 H 0.88079 1.28456 0.83830
 H2450 H 0.89992 1.25891 0.85694
 H2451 H 0.84588 1.24327 0.89026
 H2452 H 0.82706 1.26922 0.87182
 H2453 H 0.87215 1.23847 0.91504
 H2454 H 0.88916 1.21013 0.93177
 H2455 H 0.91895 1.19450 0.87579
 H2456 H 0.90175 1.22249 0.85880
 C2457 C 0.86875 0.84486 0.37069
 C2458 C 0.87344 0.82786 0.37535
 C2459 C 0.87935 0.80775 0.38118
 C2460 C 0.86692 0.79634 0.39393
 C2461 C 0.87300 0.77708 0.40014
 C2462 C 0.89162 0.76896 0.39368
 C2463 C 0.90392 0.78050 0.38071
 C2464 C 0.89782 0.79976 0.37453
 C2465 C 0.89834 0.74869 0.40064
 C2466 C 0.90825 0.73530 0.38728
 C2467 C 0.91481 0.71636 0.39394
 C2468 C 0.91158 0.71053 0.41402
 C2469 C 0.90167 0.72370 0.42741
 C2470 C 0.89509 0.74265 0.42078
 C2471 C 0.91848 0.69108 0.42091
 C2472 C 0.92426 0.67480 0.42669
 H2473 H 0.85259 0.80237 0.39917
 H2474 H 0.86307 0.76848 0.40990
 H2475 H 0.91845 0.77482 0.37569
 H2476 H 0.90761 0.80850 0.36475
 H2477 H 0.91076 0.73939 0.37163
 H2478 H 0.92241 0.70626 0.38343
 H2479 H 0.89914 0.71937 0.44300
 H2480 H 0.88776 0.75270 0.43151
 C2481 C 0.36971 1.34537 0.37067
 C2482 C 0.37443 1.32839 0.37536
 C2483 C 0.38036 1.30830 0.38124
 C2484 C 0.39981 1.30122 0.37672
 C2485 C 0.40584 1.28197 0.38297
 C2486 C 0.39250 1.26952 0.39389
 C2487 C 0.37292 1.27672 0.39823
 C2488 C 0.36691 1.29598 0.39194
 C2489 C 0.39908 1.24923 0.40093
 C2490 C 0.39360 1.24227 0.42028
 C2491 C 0.40006 1.22332 0.42701
 C2492 C 0.41207 1.21105 0.41452
 C2493 C 0.41753 1.21779 0.39522
 C2494 C 0.41109 1.23673 0.38846
 C2495 C 0.41886 1.19160 0.42153
 C2496 C 0.42459 1.17532 0.42736
 H2497 H 0.41038 1.31067 0.36854
 H2498 H 0.42109 1.27700 0.37963
 H2499 H 0.36221 1.26741 0.40636
 H2500 H 0.35182 1.30129 0.39552
 H2501 H 0.38461 1.25162 0.43035
 H2502 H 0.39579 1.21828 0.44201
 H2503 H 0.42676 1.20839 0.38539
 H2504 H 0.41536 1.24153 0.37340
 C2505 C 0.37263 0.84737 0.87311
 C2506 C 0.37748 0.83039 0.87766
 C2507 C 0.38349 0.81028 0.88338
 C2508 C 0.40333 0.80661 0.88964
 C2509 C 0.40917 0.78720 0.89556
 C2510 C 0.39521 0.77117 0.89533
 C2511 C 0.37531 0.77500 0.88895
 C2512 C 0.36950 0.79444 0.88301
 C2513 C 0.40139 0.75059 0.90186
 C2514 C 0.38835 0.73865 0.91369
 C2515 C 0.39431 0.71941 0.92005
 C2516 C 0.41335 0.71182 0.91468
 C2517 C 0.42639 0.72354 0.90285
 C2518 C 0.42047 0.74278 0.89648
 C2519 C 0.41957 0.69207 0.92132
 C2520 C 0.42489 0.67554 0.92684
 H2521 H 0.41426 0.81878 0.89007
 H2522 H 0.42451 0.78482 0.90066
 H2523 H 0.36428 0.76294 0.88835
 H2524 H 0.35411 0.79710 0.87817
 H2525 H 0.37368 0.74432 0.91831
 H2526 H 0.38411 0.71049 0.92925
 H2527 H 0.44114 0.71779 0.89854
 H2528 H 0.43075 0.75147 0.88717
 C2529 C 1.17023 0.69419 0.82472
 C2530 C 1.16016 0.70552 0.83494
 C2531 C 1.14831 0.71920 0.84708
 C2532 C 1.12727 0.71967 0.84512
 C2533 C 1.11582 0.73341 0.85651
 C2534 C 1.12531 0.74684 0.87003
 C2535 C 1.14646 0.74607 0.87204
 C2536 C 1.15786 0.73234 0.86063
 C2537 C 1.11333 0.76204 0.88150
 C2538 C 1.11807 0.76665 0.90174
 C2539 C 1.10749 0.78180 0.91214
 C2540 C 1.09205 0.79247 0.90247
 C2541 C 1.08697 0.78773 0.88248
 C2542 C 1.09751 0.77259 0.87206
 C2543 C 1.08219 0.80904 0.91261
 C2544 C 1.07428 0.82336 0.92071
 H2545 H 1.11973 0.70953 0.83469
 H2546 H 1.09956 0.73349 0.85480
 H2547 H 1.15423 0.75641 0.88208
 H2548 H 1.17415 0.73213 0.86220
 H2549 H 1.12999 0.75861 0.90948
 H2550 H 1.11156 0.78538 0.92760
 H2551 H 1.07514 0.79601 0.87482
 H2552 H 1.09369 0.76958 0.85642
 C2553 C 1.16508 0.19009 0.32974
 C2554 C 1.15514 0.20180 0.33966
 C2555 C 1.14357 0.21611 0.35137
 C2556 C 1.12295 0.21879 0.34760
 C2557 C 1.11195 0.23333 0.35842
 C2558 C 1.12146 0.24539 0.37316
 C2559 C 1.14214 0.24237 0.37702
 C2560 C 1.15310 0.22784 0.36618
 C2561 C 1.11009 0.26153 0.38398
 C2562 C 1.11341 0.26526 0.40468
 C2563 C 1.10349 0.28119 0.41455
 C2564 C 1.09011 0.29355 0.40388
 C2565 C 1.08644 0.28976 0.38338
 C2566 C 1.09633 0.27385 0.37349
 C2567 C 1.08086 0.31071 0.41365
 C2568 C 1.07342 0.32543 0.42149
 H2569 H 1.11543 0.20977 0.33617
 H2570 H 1.09600 0.23513 0.35528
 H2571 H 1.14996 0.25161 0.38804
 H2572 H 1.16909 0.22595 0.36915
 H2573 H 1.12372 0.25590 0.41322
 H2574 H 1.10645 0.28401 0.43042
 H2575 H 1.07620 0.29932 0.37496
 H2576 H 1.09366 0.27155 0.35749
 C2577 C 0.66569 0.69180 0.32951
 C2578 C 0.65587 0.70350 0.33958
 C2579 C 0.64445 0.71775 0.35150
 C2580 C 0.62355 0.71955 0.34886
 C2581 C 0.61262 0.73396 0.35992
 C2582 C 0.62248 0.74678 0.37377
 C2583 C 0.64345 0.74465 0.37649
 C2584 C 0.65434 0.73024 0.36542
 C2585 C 0.61111 0.76274 0.38485
 C2586 C 0.61548 0.76713 0.40522
 C2587 C 0.60549 0.78289 0.41528
 C2588 C 0.59101 0.79443 0.40514
 C2589 C 0.58632 0.78997 0.38499
 C2590 C 0.59627 0.77422 0.37490
 C2591 C 0.58164 0.81145 0.41503
 C2592 C 0.57405 0.82608 0.42292
 H2593 H 0.61575 0.70992 0.33814
 H2594 H 0.59646 0.73507 0.35767
 H2595 H 0.65152 0.75447 0.38680
 H2596 H 0.67053 0.72902 0.36751
 H2597 H 0.62664 0.75840 0.41335
 H2598 H 0.60925 0.78624 0.43088
 H2599 H 0.57523 0.79891 0.37696
 H2600 H 0.59277 0.77142 0.35915
 C2601 C 0.67054 0.19385 0.82816
 C2602 C 0.66079 0.20576 0.83804
 C2603 C 0.64930 0.22018 0.84967
 C2604 C 0.65870 0.23759 0.85716
 C2605 C 0.64752 0.25188 0.86811
 C2606 C 0.62676 0.24894 0.87170
 C2607 C 0.61747 0.23133 0.86419
 C2608 C 0.62869 0.21704 0.85325
 C2609 C 0.61484 0.26441 0.88288
 C2610 C 0.59538 0.26987 0.87632
 C2611 C 0.58457 0.28516 0.88628
 C2612 C 0.59305 0.29511 0.90292
 C2613 C 0.61223 0.28955 0.90977
 C2614 C 0.62306 0.27429 0.89984
 C2615 C 0.58255 0.31170 0.91239
 C2616 C 0.57424 0.32600 0.92013
 H2617 H 0.67463 0.24021 0.85439
 H2618 H 0.65504 0.26542 0.87341
 H2619 H 0.60157 0.22855 0.86690
 H2620 H 0.62129 0.20359 0.84753
 H2621 H 0.58875 0.26272 0.86317
 H2622 H 0.56978 0.28945 0.88078
 H2623 H 0.61893 0.29718 0.92263
 H2624 H 0.63789 0.27024 0.90540
 C2625 C 0.82869 0.68951 1.16687
 C2626 C 0.83865 0.70120 1.15708
 C2627 C 0.85037 0.71544 1.14561
 C2628 C 0.84760 0.71711 1.12471
 C2629 C 0.85842 0.73153 1.11371
 C2630 C 0.87214 0.74448 1.12351
 C2631 C 0.87500 0.74249 1.14449
 C2632 C 0.86417 0.72807 1.15545
 C2633 C 0.88295 0.76044 1.11206
 C2634 C 0.90329 0.76495 1.11629
 C2635 C 0.91311 0.78069 1.10621
 C2636 C 0.90276 0.79209 1.09178
 C2637 C 0.88264 0.78751 1.08723
 C2638 C 0.87280 0.77179 1.09728
 C2639 C 0.91241 0.80908 1.08233
 C2640 C 0.92015 0.82368 1.07471
 H2641 H 0.83696 0.70738 1.11694
 H2642 H 0.85606 0.73254 1.09754
 H2643 H 0.88523 0.75242 1.15252
 H2644 H 0.86636 0.72696 1.17164
 H2645 H 0.91158 0.75633 1.12742
 H2646 H 0.92868 0.78413 1.10986
 H2647 H 0.87446 0.79634 1.07617
 H2648 H 0.85707 0.76888 1.09388
 C2649 C 0.83145 0.18980 0.66726
 C2650 C 0.84140 0.20155 0.65753
 C2651 C 0.85299 0.21591 0.64608
 C2652 C 0.85027 0.21751 0.62516
 C2653 C 0.86082 0.23215 0.61419
 C2654 C 0.87422 0.24541 0.62403
 C2655 C 0.87706 0.24347 0.64502
 C2656 C 0.86650 0.22883 0.65595
 C2657 C 0.88467 0.26165 0.61263
 C2658 C 0.90486 0.26667 0.61692
 C2659 C 0.91431 0.28266 0.60687
 C2660 C 0.90372 0.29380 0.59241
 C2661 C 0.88375 0.28872 0.58780
 C2662 C 0.87427 0.27274 0.59781
 C2663 C 0.91300 0.31102 0.58296
 C2664 C 0.92048 0.32577 0.57538
 H2665 H 0.83985 0.20757 0.61737
 H2666 H 0.85849 0.23311 0.59802
 H2667 H 0.88704 0.25363 0.65308
 H2668 H 0.86863 0.22779 0.67216
 H2669 H 0.91333 0.25826 0.62806
 H2670 H 0.92978 0.28648 0.61057
 H2671 H 0.87537 0.29734 0.57672
 H2672 H 0.85863 0.26945 0.59437
 C2673 C 0.32917 0.69142 0.66710
 C2674 C 0.33925 0.70316 0.65749
 C2675 C 0.35108 0.71749 0.64624
 C2676 C 0.36470 0.73012 0.65633
 C2677 C 0.37559 0.74467 0.64559
 C2678 C 0.37297 0.74679 0.62459
 C2679 C 0.35943 0.73382 0.61454
 C2680 C 0.34856 0.71927 0.62532
 C2681 C 0.38380 0.76292 0.61339
 C2682 C 0.37374 0.77428 0.59855
 C2683 C 0.38358 0.79015 0.58873
 C2684 C 0.40360 0.79486 0.59356
 C2685 C 0.41385 0.78345 0.60805
 C2686 C 0.40404 0.76756 0.61791
 C2687 C 0.41324 0.81196 0.58429
 C2688 C 0.42096 0.82664 0.57680
 H2689 H 0.36669 0.72893 0.67254
 H2690 H 0.38566 0.75461 0.65381
 H2691 H 0.35727 0.73493 0.59836
 H2692 H 0.33806 0.70955 0.61736
 H2693 H 0.35808 0.77127 0.59494
 H2694 H 0.37546 0.79897 0.57762
 H2695 H 0.42935 0.78699 0.61192
 H2696 H 0.41225 0.75894 0.62908
 C2697 C 0.33072 0.18859 1.16538
 C2698 C 0.34058 0.20043 1.15565
 C2699 C 0.35208 0.21492 1.14427
 C2700 C 0.36627 0.22715 1.15407
 C2701 C 0.37677 0.24194 1.14327
 C2702 C 0.37319 0.24471 1.12249
 C2703 C 0.35911 0.23213 1.11271
 C2704 C 0.34862 0.21734 1.12355
 C2705 C 0.38361 0.26110 1.11127
 C2706 C 0.37296 0.27295 1.09724
 C2707 C 0.38246 0.28901 1.08740
 C2708 C 0.40272 0.29344 1.09140
 C2709 C 0.41355 0.28157 1.10509
 C2710 C 0.40407 0.26549 1.11496
 C2711 C 0.41210 0.31068 1.08210
 C2712 C 0.41967 0.32545 1.07461
 H2713 H 0.36898 0.22548 1.17013
 H2714 H 0.38729 0.25156 1.15130
 H2715 H 0.35620 0.23373 1.09669
 H2716 H 0.33767 0.20795 1.11582
 H2717 H 0.35712 0.27015 1.09429
 H2718 H 0.37391 0.29819 1.07693
 H2719 H 0.42925 0.28488 1.10831
 H2720 H 0.41274 0.25650 1.12549
 C2721 C 1.16481 1.16779 0.69333
 C2722 C 1.15499 1.15748 0.70469
 C2723 C 1.14346 1.14536 0.71855
 C2724 C 1.14752 1.12468 0.72041
 C2725 C 1.13692 1.11311 0.73455
 C2726 C 1.12213 1.12209 0.74703
 C2727 C 1.11797 1.14284 0.74483
 C2728 C 1.12858 1.15438 0.73069
 C2729 C 1.11158 1.11010 0.76279
 C2730 C 1.09088 1.11310 0.76672
 C2731 C 1.08126 1.10260 0.78233
 C2732 C 1.09219 1.08896 0.79417
 C2733 C 1.11269 1.08560 0.79014
 C2734 C 1.12234 1.09607 0.77454
 C2735 C 1.08268 1.07919 0.81110
 C2736 C 1.07501 1.07141 0.82567
 H2737 H 1.15900 1.11756 0.71106
 H2738 H 1.14030 1.09713 0.73573
 H2739 H 1.10689 1.15026 0.75440
 H2740 H 1.12540 1.17040 0.72944
 H2741 H 1.08215 1.12362 0.75778
 H2742 H 1.06539 1.10533 0.78535
 H2743 H 1.12132 1.07517 0.79931
 H2744 H 1.13834 1.09363 0.77208
 C2745 C 1.16802 0.66905 0.19560
 C2746 C 1.15804 0.65885 0.20692
 C2747 C 1.14634 0.64681 0.22071
 C2748 C 1.12537 0.64930 0.22192
 C2749 C 1.11413 0.63814 0.23590
 C2750 C 1.12375 0.62434 0.24885
 C2751 C 1.14481 0.62176 0.24731
 C2752 C 1.15601 0.63294 0.23334
 C2753 C 1.11203 0.61319 0.26440
 C2754 C 1.11647 0.59284 0.26870
 C2755 C 1.10616 0.58274 0.28413
 C2756 C 1.09129 0.59281 0.29541
 C2757 C 1.08651 0.61292 0.29101
 C2758 C 1.09679 0.62306 0.27559
 C2759 C 1.08166 0.58291 0.31219
 C2760 C 1.07392 0.57502 0.32666
 H2761 H 1.11774 0.65998 0.21219
 H2762 H 1.09791 0.64028 0.23657
 H2763 H 1.15269 0.61149 0.25726
 H2764 H 1.17225 0.63097 0.23258
 H2765 H 1.12795 0.58478 0.26018
 H2766 H 1.10999 0.56717 0.28744
 H2767 H 1.07512 0.62090 0.29976
 H2768 H 1.09322 0.63879 0.27285
 C2769 C 0.66441 1.16579 0.19102
 C2770 C 0.65470 1.15572 0.20271
 C2771 C 0.64337 1.14394 0.21704
 C2772 C 0.62256 1.14703 0.21935
 C2773 C 0.61176 1.13628 0.23399
 C2774 C 0.62167 1.12230 0.24654
 C2775 C 0.64254 1.11910 0.24388
 C2776 C 0.65330 1.12986 0.22924
 C2777 C 0.61047 1.11163 0.26282
 C2778 C 0.61457 1.09121 0.26712
 C2779 C 0.60472 1.08151 0.28312
 C2780 C 0.59066 1.09207 0.29499
 C2781 C 0.58625 1.11228 0.29063
 C2782 C 0.59606 1.12200 0.27465
 C2783 C 0.58138 1.08251 0.31218
 C2784 C 0.57387 1.07488 0.32693
 H2785 H 0.61473 1.15789 0.20998
 H2786 H 0.59567 1.13890 0.23551
 H2787 H 0.65065 1.10867 0.25349
 H2788 H 0.66942 1.12744 0.22766
 H2789 H 0.62540 1.08275 0.25814
 H2790 H 0.60826 1.06586 0.28638
 H2791 H 0.57548 1.12064 0.29981
 H2792 H 0.59278 1.13780 0.27192
 C2793 C 0.66741 0.67052 0.69516
 C2794 C 0.65726 0.66042 0.70642
 C2795 C 0.64532 0.64854 0.72014
 C2796 C 0.63109 0.65799 0.73272
 C2797 C 0.62002 0.64663 0.74666
 C2798 C 0.62308 0.62563 0.74821
 C2799 C 0.63723 0.61623 0.73530
 C2800 C 0.64828 0.62763 0.72136
 C2801 C 0.61203 0.61377 0.76372
 C2802 C 0.62211 0.59883 0.77495
 C2803 C 0.61205 0.58844 0.79033
 C2804 C 0.59180 0.59279 0.79468
 C2805 C 0.58152 0.60735 0.78336
 C2806 C 0.59155 0.61777 0.76796
 C2807 C 0.58194 0.58309 0.81144
 C2808 C 0.57403 0.57531 0.82588
 H2809 H 0.62874 0.67418 0.73196
 H2810 H 0.60946 0.65435 0.75658
 H2811 H 0.63975 0.60007 0.73598
 H2812 H 0.65925 0.62017 0.71167
 H2813 H 0.63794 0.59559 0.77224
 H2814 H 0.62018 0.57729 0.79911
 H2815 H 0.56584 0.61085 0.78662
 H2816 H 0.58333 0.62900 0.75941
 C2817 C 0.86966 0.87172 0.64982
 C2818 C 0.87419 0.87596 0.66699
 C2819 C 0.88000 0.88120 0.68732
 C2820 C 0.86849 0.89504 0.69856
 C2821 C 0.87455 0.90067 0.71803
 C2822 C 0.89224 0.89252 0.72653
 C2823 C 0.90359 0.87846 0.71516
 C2824 C 0.89751 0.87287 0.69569
 C2825 C 0.89900 0.89888 0.74701
 C2826 C 0.90721 0.88473 0.76054
 C2827 C 0.91381 0.89082 0.77970
 C2828 C 0.91232 0.91111 0.78559
 C2829 C 0.90413 0.92530 0.77227
 C2830 C 0.89751 0.91925 0.75312
 C2831 C 0.91919 0.91743 0.80527
 C2832 C 0.92489 0.92285 0.82174
 H2833 H 0.85490 0.90158 0.69223
 H2834 H 0.86534 0.91131 0.72649
 H2835 H 0.91741 0.87212 0.72115
 H2836 H 0.90659 0.86222 0.68709
 H2837 H 0.90833 0.86891 0.75640
 H2838 H 0.92006 0.87969 0.78992
 H2839 H 0.90294 0.94106 0.77665
 H2840 H 0.89154 0.93056 0.74297
 C2841 C 0.83104 0.33265 0.18834
 C2842 C 0.84071 0.34257 0.20021
 C2843 C 0.85197 0.35413 0.21479
 C2844 C 0.84213 0.36863 0.22677
 C2845 C 0.85278 0.37916 0.24168
 C2846 C 0.87344 0.37528 0.24486
 C2847 C 0.88326 0.36088 0.23253
 C2848 C 0.87258 0.35038 0.21761
 C2849 C 0.88446 0.38571 0.26141
 C2850 C 0.89816 0.37497 0.27357
 C2851 C 0.90782 0.38451 0.28977
 C2852 C 0.90397 0.40489 0.29403
 C2853 C 0.89061 0.41580 0.28186
 C2854 C 0.88092 0.40629 0.26564
 C2855 C 0.91313 0.41434 0.31136
 C2856 C 0.92055 0.42192 0.32619
 H2857 H 0.82615 0.37157 0.22479
 H2858 H 0.84471 0.38992 0.25110
 H2859 H 0.89920 0.35773 0.23444
 H2860 H 0.88035 0.33918 0.20842
 H2861 H 0.90100 0.35905 0.27090
 H2862 H 0.91805 0.37589 0.29916
 H2863 H 0.88751 0.43159 0.28503
 H2864 H 0.87064 0.41503 0.25642
 C2865 C 0.36933 0.87113 0.15281
 C2866 C 0.37393 0.87570 0.16988
 C2867 C 0.37978 0.88137 0.19009
 C2868 C 0.36792 0.89494 0.20131
 C2869 C 0.37397 0.90098 0.22067
 C2870 C 0.39201 0.89353 0.22907
 C2871 C 0.40373 0.87976 0.21772
 C2872 C 0.39765 0.87375 0.19837
 C2873 C 0.39874 0.90031 0.24944
 C2874 C 0.40757 0.88657 0.26300
 C2875 C 0.41416 0.89305 0.28204
 C2876 C 0.41204 0.91334 0.28778
 C2877 C 0.40321 0.92711 0.27443
 C2878 C 0.39660 0.92066 0.25540
 C2879 C 0.41895 0.92004 0.30733
 C2880 C 0.42471 0.92571 0.32369
 H2881 H 0.35405 0.90093 0.19506
 H2882 H 0.36448 0.91139 0.22910
 H2883 H 0.41782 0.87396 0.22363
 H2884 H 0.40701 0.86332 0.18979
 H2885 H 0.40920 0.87076 0.25898
 H2886 H 0.42091 0.88224 0.29227
 H2887 H 0.40153 0.94286 0.27869
 H2888 H 0.39013 0.93168 0.24522
 C2889 C 0.36992 0.37296 0.64972
 C2890 C 0.37453 0.37757 0.66678
 C2891 C 0.38036 0.38321 0.68700
 C2892 C 0.39817 0.37548 0.69532
 C2893 C 0.40415 0.38134 0.71474
 C2894 C 0.39240 0.39506 0.72611
 C2895 C 0.37445 0.40265 0.71765
 C2896 C 0.36849 0.39676 0.69823
 C2897 C 0.39899 0.40160 0.74660
 C2898 C 0.39690 0.42191 0.75275
 C2899 C 0.40336 0.42811 0.77191
 C2900 C 0.41197 0.41415 0.78519
 C2901 C 0.41404 0.39391 0.77926
 C2902 C 0.40761 0.38767 0.76010
 C2903 C 0.41873 0.42060 0.80487
 C2904 C 0.42439 0.42605 0.82134
 H2905 H 0.40752 0.36507 0.68672
 H2906 H 0.41818 0.37544 0.72070
 H2907 H 0.36494 0.41302 0.72611
 H2908 H 0.35466 0.40282 0.69194
 H2909 H 0.39059 0.43306 0.74262
 H2910 H 0.40173 0.44383 0.77632
 H2911 H 0.42063 0.38295 0.78945
 H2912 H 0.40919 0.37189 0.75593
 C2913 C 1.16476 0.83122 1.30778
 C2914 C 1.15472 0.84066 1.29592
 C2915 C 1.14290 0.85164 1.28141
 C2916 C 1.12955 0.84127 1.26872
 C2917 C 1.11870 0.85173 1.25398
 C2918 C 1.12109 0.87274 1.25172
 C2919 C 1.13435 0.88308 1.26475
 C2920 C 1.14519 0.87258 1.27949
 C2921 C 1.11033 0.88365 1.23539
 C2922 C 1.12035 0.89856 1.22402
 C2923 C 1.11058 0.90814 1.20799
 C2924 C 1.09068 0.90299 1.20311
 C2925 C 1.08046 0.88842 1.21451
 C2926 C 1.09021 0.87881 1.23056
 C2927 C 1.08111 0.91207 1.18589
 C2928 C 1.07350 0.91946 1.17112
 H2929 H 1.12774 0.82505 1.27002
 H2930 H 1.10885 0.84329 1.24401
 H2931 H 1.13633 0.89927 1.26354
 H2932 H 1.15548 0.88075 1.28925
 H2933 H 1.13592 0.90242 1.22717
 H2934 H 1.11866 0.91931 1.19918
 H2935 H 1.06506 0.88432 1.21084
 H2936 H 1.08202 0.86758 1.23917
 C2937 C 1.16246 0.33090 0.80796
 C2938 C 1.15248 0.34057 0.79622
 C2939 C 1.14088 0.35192 0.78182
 C2940 C 1.14363 0.37281 0.78006
 C2941 C 1.13311 0.38367 0.76536
 C2942 C 1.11968 0.37373 0.75219
 C2943 C 1.11680 0.35277 0.75429
 C2944 C 1.12735 0.34195 0.76900
 C2945 C 1.10926 0.38501 0.73588
 C2946 C 1.08906 0.38066 0.73091
 C2947 C 1.07962 0.39060 0.71487
 C2948 C 1.09023 0.40500 0.70361
 C2949 C 1.11021 0.40966 0.70863
 C2950 C 1.11967 0.39976 0.72466
 C2951 C 1.08095 0.41436 0.68637
 C2952 C 1.07347 0.42189 0.67160
 H2953 H 1.15408 0.38068 0.78991
 H2954 H 1.13547 0.39982 0.76427
 H2955 H 1.10681 0.34463 0.74421
 H2956 H 1.12519 0.32576 0.77015
 H2957 H 1.08057 0.36957 0.73941
 H2958 H 1.06415 0.38687 0.71110
 H2959 H 1.11860 0.42070 0.69993
 H2960 H 1.13531 0.40324 0.72791
 C2961 C 0.62465 0.87063 0.84685
 C2962 C 0.62016 0.87547 0.82986
 C2963 C 0.61453 0.88151 0.80974
 C2964 C 0.62024 0.90051 0.80245
 C2965 C 0.61425 0.90670 0.78318
 C2966 C 0.60241 0.89396 0.77092
 C2967 C 0.59689 0.87482 0.77833
 C2968 C 0.60291 0.86866 0.79761
 C2969 C 0.59564 0.90072 0.75061
 C2970 C 0.57594 0.89648 0.74387
 C2971 C 0.56948 0.90307 0.72488
 C2972 C 0.58258 0.91398 0.71237
 C2973 C 0.60222 0.91823 0.71890
 C2974 C 0.60872 0.91166 0.73789
 C2975 C 0.57585 0.92085 0.69287
 C2976 C 0.57016 0.92659 0.67656
 H2977 H 0.62915 0.91063 0.81175
 H2978 H 0.61853 0.92162 0.77804
 H2979 H 0.58802 0.86455 0.76917
 H2980 H 0.59841 0.85391 0.80309
 H2981 H 0.56541 0.88835 0.75340
 H2982 H 0.55422 0.89974 0.72001
 H2983 H 0.61252 0.92661 0.70932
 H2984 H 0.62404 0.91496 0.74252
 C2985 C 0.66314 0.33198 1.30703
 C2986 C 0.65310 0.34162 1.29532
 C2987 C 0.64136 0.35290 1.28097
 C2988 C 0.64430 0.37373 1.27887
 C2989 C 0.63360 0.38449 1.26423
 C2990 C 0.61981 0.37452 1.25148
 C2991 C 0.61674 0.35362 1.25393
 C2992 C 0.62747 0.34290 1.26857
 C2993 C 0.60918 0.38568 1.23522
 C2994 C 0.58883 0.38149 1.23073
 C2995 C 0.57918 0.39132 1.21476
 C2996 C 0.58971 0.40545 1.20309
 C2997 C 0.60984 0.40994 1.20763
 C2998 C 0.61952 0.40015 1.22359
 C2999 C 0.58019 0.41471 1.18593
 C3000 C 0.57256 0.42218 1.17121
 H3001 H 0.65502 0.38162 1.28841
 H3002 H 0.63610 0.40060 1.26287
 H3003 H 0.60646 0.34546 1.24417
 H3004 H 0.62516 0.32675 1.27001
 H3005 H 0.58040 0.37061 1.23956
 H3006 H 0.56359 0.38771 1.21136
 H3007 H 0.61817 0.42076 1.19860
 H3008 H 0.63526 0.40349 1.22646
 C3009 C 0.82953 1.16540 1.30656
 C3010 C 0.83927 1.15528 1.29485
 C3011 C 0.85070 1.14340 1.28056
 C3012 C 0.87157 1.14623 1.27863
 C3013 C 0.88251 1.13532 1.26409
 C3014 C 0.87269 1.12145 1.25129
 C3015 C 0.85175 1.11852 1.25356
 C3016 C 0.84084 1.12944 1.26809
 C3017 C 0.88405 1.11058 1.23517
 C3018 C 0.87984 1.09019 1.23072
 C3019 C 0.88985 1.08031 1.21484
 C3020 C 0.90419 1.09065 1.20324
 C3021 C 0.90872 1.11083 1.20775
 C3022 C 0.89875 1.12073 1.22362
 C3023 C 0.91358 1.08092 1.18612
 C3024 C 0.92114 1.07311 1.17143
 H3025 H 0.87935 1.15700 1.28822
 H3026 H 0.89865 1.13773 1.26287
 H3027 H 0.84370 1.10817 1.24375
 H3028 H 0.82468 1.12721 1.26940
 H3029 H 0.86879 1.08190 1.23949
 H3030 H 0.88621 1.06469 1.21145
 H3031 H 0.91970 1.11901 1.19877
 H3032 H 0.90212 1.13650 1.22647
 C3033 C 0.87035 0.62278 0.84871
 C3034 C 0.87522 0.61833 0.83165
 C3035 C 0.88130 0.61285 0.81142
 C3036 C 0.90148 0.61509 0.80542
 C3037 C 0.90755 0.60939 0.78593
 C3038 C 0.89351 0.60134 0.77215
 C3039 C 0.87323 0.59924 0.77830
 C3040 C 0.86719 0.60496 0.79780
 C3041 C 0.90004 0.59496 0.75154
 C3042 C 0.89245 0.57709 0.74279
 C3043 C 0.89881 0.57095 0.72352
 C3044 C 0.91280 0.58256 0.71272
 C3045 C 0.92038 0.60039 0.72125
 C3046 C 0.91406 0.60656 0.74053
 C3047 C 0.91942 0.57613 0.69294
 C3048 C 0.92494 0.57067 0.67638
 H3049 H 0.91255 0.62110 0.81586
 H3050 H 0.92331 0.61094 0.78176
 H3051 H 0.86201 0.59334 0.76797
 H3052 H 0.85153 0.60318 0.80228
 H3053 H 0.88186 0.56769 0.75097
 H3054 H 0.89288 0.55709 0.71708
 H3055 H 0.93117 0.60953 0.71301
 H3056 H 0.91998 0.62051 0.74673
 C3057 C 0.37102 1.12459 0.84963
 C3058 C 0.37591 1.12012 0.83258
 C3059 C 0.38196 1.11460 0.81234
 C3060 C 0.40202 1.11728 0.80614
 C3061 C 0.40806 1.11152 0.78666
 C3062 C 0.39410 1.10296 0.77309
 C3063 C 0.37394 1.10043 0.77945
 C3064 C 0.36793 1.10622 0.79894
 C3065 C 0.40060 1.09651 0.75250
 C3066 C 0.39339 1.07837 0.74401
 C3067 C 0.39972 1.07218 0.72475
 C3068 C 0.41331 1.08402 0.71369
 C3069 C 0.42052 1.10212 0.72196
 C3070 C 0.41423 1.10834 0.74123
 C3071 C 0.41991 1.07754 0.69391
 C3072 C 0.42543 1.07208 0.67736
 H3073 H 0.41303 1.12367 0.81642
 H3074 H 0.42374 1.11341 0.78233
 H3075 H 0.36278 1.09414 0.76929
 H3076 H 0.35236 1.10410 0.80357
 H3077 H 0.38312 1.06879 0.75240
 H3078 H 0.39408 1.05810 0.71851
 H3079 H 0.43100 1.11144 0.71352
 H3080 H 0.41985 1.12250 0.74723
 C3081 C 0.36905 0.62742 1.34640
 C3082 C 0.37386 0.62282 1.32935
 C3083 C 0.37986 0.61706 1.30916
 C3084 C 0.40008 0.61889 1.30316
 C3085 C 0.40610 0.61277 1.28377
 C3086 C 0.39196 0.60469 1.27010
 C3087 C 0.37164 0.60303 1.27625
 C3088 C 0.36565 0.60917 1.29565
 C3089 C 0.39845 0.59781 1.24964
 C3090 C 0.39059 0.57991 1.24119
 C3091 C 0.39694 0.57328 1.22207
 C3092 C 0.41120 0.58442 1.21113
 C3093 C 0.41904 0.60228 1.21936
 C3094 C 0.41273 0.60894 1.23847
 C3095 C 0.41788 0.57749 1.19153
 C3096 C 0.42352 0.57170 1.17512
 H3097 H 0.41123 0.62487 1.31353
 H3098 H 0.42189 0.61400 1.27963
 H3099 H 0.36034 0.59713 1.26600
 H3100 H 0.34996 0.60770 1.30012
 H3101 H 0.37979 0.57086 1.24950
 H3102 H 0.39081 0.55940 1.21588
 H3103 H 0.43005 0.61106 1.21100
 H3104 H 0.41887 0.62290 1.24443
 C3105 C 1.16298 1.30623 0.83276
 C3106 C 1.15343 1.29431 0.84268
 C3107 C 1.14229 1.27967 0.85426
 C3108 C 1.15229 1.26761 0.86839
 C3109 C 1.14175 1.25266 0.87893
 C3110 C 1.12102 1.24955 0.87542
 C3111 C 1.11103 1.26196 0.86139
 C3112 C 1.12161 1.27691 0.85088
 C3113 C 1.11009 1.23296 0.88584
 C3114 C 1.09619 1.22090 0.87519
 C3115 C 1.08662 1.20467 0.88469
 C3116 C 1.09075 1.20029 0.90495
 C3117 C 1.10431 1.21237 0.91577
 C3118 C 1.11392 1.22862 0.90630
 C3119 C 1.08168 1.18291 0.91432
 C3120 C 1.07433 1.16805 0.92184
 H3121 H 1.16832 1.26954 0.87104
 H3122 H 1.14994 1.24318 0.88940
 H3123 H 1.09504 1.26010 0.85854
 H3124 H 1.11372 1.28617 0.83996
 H3125 H 1.09314 1.22366 0.85937
 H3126 H 1.07623 1.19533 0.87614
 H3127 H 1.10763 1.20910 0.93146
 H3128 H 1.12435 1.23777 0.91496
 C3129 C 1.16513 0.80688 0.33281
 C3130 C 1.15541 0.79513 0.34278
 C3131 C 1.14399 0.78077 0.35442
 C3132 C 1.15381 0.76832 0.36834
 C3133 C 1.14294 0.75368 0.37897
 C3134 C 1.12206 0.75129 0.37578
 C3135 C 1.11227 0.76410 0.36196
 C3136 C 1.12319 0.77873 0.35135
 C3137 C 1.11073 0.73505 0.38631
 C3138 C 1.09629 0.72349 0.37583
 C3139 C 1.08633 0.70755 0.38543
 C3140 C 1.09062 0.70298 0.40560
 C3141 C 1.10472 0.71457 0.41626
 C3142 C 1.11471 0.73052 0.40669
 C3143 C 1.08121 0.68582 0.41503
 C3144 C 1.07364 0.67111 0.42260
 H3145 H 1.16994 0.76971 0.37075
 H3146 H 1.15096 0.74388 0.38928
 H3147 H 1.09618 0.76279 0.35936
 H3148 H 1.11544 0.78831 0.34061
 H3149 H 1.09310 0.72641 0.36006
 H3150 H 1.07553 0.69858 0.37700
 H3151 H 1.10816 0.71114 0.43189
 H3152 H 1.12557 0.73930 0.41522
 C3153 C 0.66366 1.30745 0.33192
 C3154 C 0.65408 1.29567 0.34198
 C3155 C 0.64290 1.28126 0.35379
 C3156 C 0.65301 1.26880 0.36750
 C3157 C 0.64237 1.25415 0.37834
 C3158 C 0.62144 1.25174 0.37559
 C3159 C 0.61135 1.26454 0.36197
 C3160 C 0.62204 1.27919 0.35114
 C3161 C 0.61035 1.23551 0.38637
 C3162 C 0.59570 1.22392 0.37622
 C3163 C 0.58596 1.20798 0.38603
 C3164 C 0.59070 1.20341 0.40611
 C3165 C 0.60501 1.21502 0.41646
 C3166 C 0.61478 1.23098 0.40667
 C3167 C 0.58146 1.18628 0.41575
 C3168 C 0.57397 1.17160 0.42346
 H3169 H 0.66918 1.27021 0.36959
 H3170 H 0.65062 1.24436 0.38848
 H3171 H 0.59522 1.26322 0.35970
 H3172 H 0.61406 1.28878 0.34058
 H3173 H 0.59216 1.22683 0.36052
 H3174 H 0.57499 1.19900 0.37785
 H3175 H 0.60880 1.21160 0.43200
 H3176 H 0.62581 1.23977 0.41495
 C3177 C 0.62427 0.84564 0.87137
 C3178 C 0.61945 0.82862 0.87582
 C3179 C 0.61345 0.80848 0.88142
 C3180 C 0.59335 0.80238 0.87901
 C3181 C 0.58732 0.78305 0.88499
 C3182 C 0.60132 0.76953 0.89351
 C3183 C 0.62153 0.77575 0.89573
 C3184 C 0.62753 0.79510 0.88973
 C3185 C 0.59481 0.74912 0.90026
 C3186 C 0.60218 0.74090 0.91840
 C3187 C 0.59581 0.72184 0.92489
 C3188 C 0.58200 0.71072 0.91336
 C3189 C 0.57463 0.71873 0.89526
 C3190 C 0.58098 0.73779 0.88874
 C3191 C 0.57530 0.69117 0.92014
 C3192 C 0.56963 0.67481 0.92580
 H3193 H 0.58230 0.81264 0.87269
 H3194 H 0.57161 0.77883 0.88333
 H3195 H 0.63272 0.76562 0.90198
 H3196 H 0.64313 0.79965 0.89165
 H3197 H 0.61261 0.74934 0.92775
 H3198 H 0.60157 0.71582 0.93896
 H3199 H 0.56398 0.71024 0.88618
 H3200 H 0.57521 0.74358 0.87459
 C3201 C 0.83125 1.30762 1.16366
 C3202 C 0.84108 1.29565 1.15392
 C3203 C 0.85250 1.28096 1.14252
 C3204 C 0.84293 1.26923 1.12774
 C3205 C 0.85371 1.25425 1.11732
 C3206 C 0.87424 1.25077 1.12158
 C3207 C 0.88381 1.26286 1.13626
 C3208 C 0.87299 1.27785 1.14666
 C3209 C 0.88539 1.23417 1.11122
 C3210 C 0.89874 1.22175 1.12211
 C3211 C 0.90848 1.20550 1.11263
 C3212 C 0.90507 1.20145 1.09213
 C3213 C 0.89207 1.21388 1.08107
 C3214 C 0.88230 1.23015 1.09053
 C3215 C 0.91427 1.18405 1.08272
 C3216 C 0.92169 1.16916 1.07514
 H3217 H 0.82705 1.27144 1.12450
 H3218 H 0.84584 1.24502 1.10633
 H3219 H 0.89965 1.26072 1.13971
 H3220 H 0.88055 1.28685 1.15808
 H3221 H 0.90122 1.22426 1.13811
 H3222 H 0.91841 1.19590 1.12136
 H3223 H 0.88932 1.21087 1.06519
 H3224 H 0.87232 1.23957 1.08168
 C3225 C 0.87008 0.84740 0.62446
 C3226 C 0.87496 0.83048 0.61956
 C3227 C 0.88118 0.81045 0.61355
 C3228 C 0.89737 0.80795 0.60010
 C3229 C 0.90363 0.78857 0.59433
 C3230 C 0.89374 0.77136 0.60195
 C3231 C 0.87742 0.77403 0.61543
 C3232 C 0.87120 0.79346 0.62119
 C3233 C 0.90045 0.75076 0.59584
 C3234 C 0.88623 0.73550 0.59172
 C3235 C 0.89258 0.71619 0.58575
 C3236 C 0.91321 0.71185 0.58386
 C3237 C 0.92747 0.72688 0.58801
 C3238 C 0.92116 0.74620 0.59396
 C3239 C 0.91973 0.69203 0.57749
 C3240 C 0.92518 0.67545 0.57206
 H3241 H 0.90517 0.82100 0.59405
 H3242 H 0.91604 0.78704 0.58372
 H3243 H 0.86966 0.76110 0.62174
 H3244 H 0.85868 0.79521 0.63166
 H3245 H 0.87019 0.73859 0.59277
 H3246 H 0.88140 0.70468 0.58250
 H3247 H 0.94348 0.72367 0.58665
 H3248 H 0.93249 0.75752 0.59730
 C3249 C 0.37004 1.34806 0.62498
 C3250 C 0.37474 1.33098 0.62048
 C3251 C 0.38065 1.31073 0.61495
 C3252 C 0.36854 1.29923 0.60197
 C3253 C 0.37458 1.27976 0.59618
 C3254 C 0.39283 1.27154 0.60330
 C3255 C 0.40482 1.28319 0.61647
 C3256 C 0.39876 1.30264 0.62223
 C3257 C 0.39948 1.25102 0.59685
 C3258 C 0.40865 1.23779 0.61070
 C3259 C 0.41513 1.21859 0.60453
 C3260 C 0.41256 1.21234 0.58445
 C3261 C 0.40341 1.22535 0.57057
 C3262 C 0.39690 1.24455 0.57671
 C3263 C 0.41933 1.19261 0.57806
 C3264 C 0.42498 1.17611 0.57263
 H3265 H 0.35449 1.30533 0.59626
 H3266 H 0.36489 1.27109 0.58624
 H3267 H 0.41907 1.27741 0.62200
 H3268 H 0.40829 1.31145 0.63221
 H3269 H 0.41062 1.24221 0.62636
 H3270 H 0.42214 1.20861 0.61542
 H3271 H 0.40139 1.22069 0.55498
 H3272 H 0.39016 1.25446 0.56562
 C3273 C 0.36972 0.84644 1.12777
 C3274 C 0.37461 0.82949 1.12299
 C3275 C 0.38072 0.80941 1.11705
 C3276 C 0.40127 0.80465 1.11540
 C3277 C 0.40731 0.78531 1.10923
 C3278 C 0.39284 0.77044 1.10458
 C3279 C 0.37220 0.77535 1.10636
 C3280 C 0.36620 0.79471 1.11256
 C3281 C 0.39928 0.74997 1.09773
 C3282 C 0.38894 0.73999 1.08203
 C3283 C 0.39521 0.72087 1.07539
 C3284 C 0.41186 0.71145 1.08434
 C3285 C 0.42219 0.72120 1.10002
 C3286 C 0.41596 0.74033 1.10667
 C3287 C 0.41841 0.69183 1.07740
 C3288 C 0.42397 0.67540 1.07162
 H3289 H 0.41264 0.81594 1.11875
 H3290 H 0.42329 0.78211 1.10774
 H3291 H 0.36071 0.76418 1.10315
 H3292 H 0.35025 0.79822 1.11379
 H3293 H 0.37622 0.74711 1.07465
 H3294 H 0.38713 0.71348 1.06320
 H3295 H 0.43506 0.71403 1.10710
 H3296 H 0.42407 0.74748 1.11896
 C3297 C 0.86991 0.64748 0.87366
 C3298 C 0.87442 0.66454 0.87833
 C3299 C 0.88010 0.68477 0.88407
 C3300 C 0.87779 0.69121 0.90414
 C3301 C 0.88382 0.71065 0.90988
 C3302 C 0.89229 0.72393 0.89561
 C3303 C 0.89443 0.71735 0.87543
 C3304 C 0.88838 0.69790 0.86972
 C3305 C 0.89906 0.74446 0.90180
 C3306 C 0.91717 0.75257 0.89413
 C3307 C 0.92369 0.77176 0.90019
 C3308 C 0.91220 0.78312 0.91397
 C3309 C 0.89413 0.77523 0.92162
 C3310 C 0.88759 0.75603 0.91559
 C3311 C 0.91900 0.80280 0.92035
 C3312 C 0.92465 0.81928 0.92578
 H3313 H 0.87150 0.68113 0.91540
 H3314 H 0.88222 0.71514 0.92558
 H3315 H 0.90065 0.72730 0.86403
 H3316 H 0.89023 0.69309 0.85413
 H3317 H 0.92648 0.74394 0.88371
 H3318 H 0.93773 0.77770 0.89421
 H3319 H 0.88509 0.78390 0.93225
 H3320 H 0.87346 0.75033 0.92157
 C3321 C 0.82983 0.19046 0.33107
 C3322 C 0.83984 0.20221 0.34078
 C3323 C 0.85155 0.21654 0.35218
 C3324 C 0.86520 0.22924 0.34223
 C3325 C 0.87596 0.24379 0.35313
 C3326 C 0.87319 0.24584 0.37415
 C3327 C 0.85964 0.23280 0.38406
 C3328 C 0.84889 0.21824 0.37313
 C3329 C 0.88387 0.26198 0.38553
 C3330 C 0.87364 0.27329 0.40047
 C3331 C 0.88333 0.28919 0.41045
 C3332 C 0.90337 0.29399 0.40568
 C3333 C 0.91379 0.28263 0.39109
 C3334 C 0.90413 0.26672 0.38108
 C3335 C 0.91285 0.31115 0.41509
 C3336 C 0.92045 0.32587 0.42267
 H3337 H 0.86729 0.22811 0.32600
 H3338 H 0.88606 0.25379 0.34502
 H3339 H 0.85736 0.23385 0.40026
 H3340 H 0.83837 0.20846 0.38098
 H3341 H 0.85796 0.27021 0.40404
 H3342 H 0.87508 0.29798 0.42163
 H3343 H 0.92931 0.28624 0.38727
 H3344 H 0.91247 0.25814 0.36983
 C3345 C 0.36866 0.65218 0.37138
 C3346 C 0.37318 0.66922 0.37615
 C3347 C 0.37891 0.68939 0.38210
 C3348 C 0.39152 0.70090 0.36962
 C3349 C 0.39769 0.72020 0.37573
 C3350 C 0.39133 0.72825 0.39445
 C3351 C 0.37850 0.71662 0.40680
 C3352 C 0.37236 0.69732 0.40066
 C3353 C 0.39828 0.74855 0.40120
 C3354 C 0.38498 0.76187 0.41127
 C3355 C 0.39163 0.78085 0.41785
 C3356 C 0.41165 0.78679 0.41447
 C3357 C 0.42498 0.77369 0.40442
 C3358 C 0.41836 0.75471 0.39782
 C3359 C 0.41854 0.80628 0.42136
 C3360 C 0.42434 0.82259 0.42714
 H3361 H 0.39668 0.69492 0.35521
 H3362 H 0.40734 0.72886 0.36575
 H3363 H 0.37356 0.72226 0.42141
 H3364 H 0.36269 0.68851 0.41051
 H3365 H 0.36938 0.75769 0.41389
 H3366 H 0.38117 0.79089 0.42556
 H3367 H 0.44052 0.77810 0.40177
 H3368 H 0.42905 0.74472 0.39037
 C3369 C 0.37022 0.14937 0.87450
 C3370 C 0.37453 0.16651 0.87909
 C3371 C 0.38004 0.18683 0.88469
 C3372 C 0.37759 0.19344 0.90470
 C3373 C 0.38355 0.21294 0.91032
 C3374 C 0.39210 0.22612 0.89598
 C3375 C 0.39436 0.21938 0.87587
 C3376 C 0.38837 0.19987 0.87029
 C3377 C 0.39887 0.24669 0.90206
 C3378 C 0.41703 0.25472 0.89441
 C3379 C 0.42355 0.27395 0.90036
 C3380 C 0.41202 0.28542 0.91401
 C3381 C 0.39389 0.27761 0.92163
 C3382 C 0.38735 0.25838 0.91571
 C3383 C 0.41884 0.30513 0.92030
 C3384 C 0.42451 0.32162 0.92567
 H3385 H 0.37125 0.18344 0.91600
 H3386 H 0.38185 0.21756 0.92596
 H3387 H 0.40064 0.22923 0.86443
 H3388 H 0.39034 0.19492 0.85476
 H3389 H 0.42638 0.24600 0.88410
 H3390 H 0.43763 0.27981 0.89441
 H3391 H 0.38482 0.28638 0.93216
 H3392 H 0.37319 0.25274 0.92167
 C3393 C 1.16820 0.69408 1.17131
 C3394 C 1.15843 0.70572 1.16131
 C3395 C 1.14706 0.71980 1.14936
 C3396 C 1.12619 0.71740 1.14701
 C3397 C 1.11517 0.73130 1.13559
 C3398 C 1.12492 0.74776 1.12635
 C3399 C 1.14593 0.74996 1.12873
 C3400 C 1.15690 0.73607 1.14016
 C3401 C 1.11326 0.76286 1.11463
 C3402 C 1.12119 0.77094 1.09662
 C3403 C 1.11070 0.78596 1.08617
 C3404 C 1.09216 0.79307 1.09356
 C3405 C 1.08395 0.78487 1.11125
 C3406 C 1.09441 0.76983 1.12171
 C3407 C 1.08215 0.80955 1.08361
 C3408 C 1.07417 0.82380 1.07561
 H3409 H 1.11844 0.70481 1.15404
 H3410 H 1.09906 0.72909 1.13385
 H3411 H 1.15381 0.76265 1.12208
 H3412 H 1.17304 0.73811 1.14195
 H3413 H 1.13553 0.76569 1.09065
 H3414 H 1.11721 0.79224 1.07251
 H3415 H 1.06967 0.79038 1.11717
 H3416 H 1.08803 0.76409 1.13566
 C3417 C 1.16459 0.19281 0.66900
 C3418 C 1.15459 0.20433 0.65909
 C3419 C 1.14287 0.21837 0.64742
 C3420 C 1.14571 0.21964 0.62647
 C3421 C 1.13497 0.23391 0.61526
 C3422 C 1.12124 0.24711 0.62488
 C3423 C 1.11828 0.24550 0.64590
 C3424 C 1.12905 0.23123 0.65708
 C3425 C 1.11055 0.26296 0.61320
 C3426 C 1.09023 0.26770 0.61740
 C3427 C 1.08054 0.28336 0.60710
 C3428 C 1.09102 0.29445 0.59247
 C3429 C 1.11113 0.28964 0.58794
 C3430 C 1.12084 0.27399 0.59821
 C3431 C 1.08152 0.31140 0.58281
 C3432 C 1.07387 0.32597 0.57506
 H3433 H 1.15637 0.20974 0.61884
 H3434 H 1.13738 0.23463 0.59907
 H3435 H 1.10805 0.25562 0.65379
 H3436 H 1.12681 0.23042 0.67330
 H3437 H 1.08184 0.25933 0.62869
 H3438 H 1.06497 0.28699 0.61074
 H3439 H 1.11943 0.29823 0.57674
 H3440 H 1.13657 0.27091 0.59483
 C3441 C 0.66785 0.69544 0.67078
 C3442 C 0.65811 0.70705 0.66071
 C3443 C 0.64668 0.72111 0.64879
 C3444 C 0.65673 0.73543 0.63694
 C3445 C 0.64571 0.74950 0.62576
 C3446 C 0.62446 0.74943 0.62629
 C3447 C 0.61448 0.73484 0.63810
 C3448 C 0.62555 0.72077 0.64927
 C3449 C 0.61281 0.76490 0.61503
 C3450 C 0.59587 0.77428 0.62396
 C3451 C 0.58557 0.78963 0.61382
 C3452 C 0.59202 0.79577 0.59462
 C3453 C 0.60861 0.78628 0.58544
 C3454 C 0.61894 0.77092 0.59556
 C3455 C 0.58229 0.81252 0.58485
 C3456 C 0.57447 0.82695 0.57702
 H3457 H 0.67310 0.73587 0.63653
 H3458 H 0.65383 0.76072 0.61707
 H3459 H 0.59814 0.73426 0.63864
 H3460 H 0.61762 0.70971 0.65837
 H3461 H 0.59095 0.77017 0.63903
 H3462 H 0.57283 0.79699 0.62111
 H3463 H 0.61374 0.79095 0.57060
 H3464 H 0.63176 0.76381 0.58819
 C3465 C 0.66419 0.19064 1.16640
 C3466 C 0.65431 0.20229 1.15652
 C3467 C 0.64284 0.21658 1.14488
 C3468 C 0.64945 0.22216 1.12557
 C3469 C 0.63891 0.23684 1.11467
 C3470 C 0.62162 0.24615 1.12298
 C3471 C 0.61490 0.24017 1.14227
 C3472 C 0.62547 0.22550 1.15315
 C3473 C 0.61104 0.26250 1.11188
 C3474 C 0.58980 0.26379 1.11205
 C3475 C 0.57996 0.27967 1.10221
 C3476 C 0.59120 0.29443 1.09208
 C3477 C 0.61230 0.29315 1.09164
 C3478 C 0.62217 0.27730 1.10145
 C3479 C 0.58124 0.31128 1.08269
 C3480 C 0.57328 0.32575 1.07505
 H3481 H 0.66287 0.21534 1.11902
 H3482 H 0.64431 0.24091 1.09975
 H3483 H 0.60181 0.24724 1.14919
 H3484 H 0.62028 0.22136 1.16813
 H3485 H 0.58082 0.25250 1.11976
 H3486 H 0.56362 0.28052 1.10265
 H3487 H 0.62115 0.30456 1.08395
 H3488 H 0.63852 0.27692 1.10130
 C3489 C 1.34592 1.12410 0.87416
 C3490 C 1.32891 1.11909 0.87848
 C3491 C 1.30878 1.11276 0.88381
 C3492 C 1.29501 1.12663 0.89206
 C3493 C 1.27563 1.12032 0.89769
 C3494 C 1.26975 1.10002 0.89516
 C3495 C 1.28368 1.08623 0.88673
 C3496 C 1.30304 1.09257 0.88112
 C3497 C 1.24930 1.09319 0.90150
 C3498 C 1.23845 1.07922 0.88966
 C3499 C 1.21933 1.07260 0.89580
 C3500 C 1.21079 1.07983 0.91384
 C3501 C 1.22143 1.09376 0.92569
 C3502 C 1.24055 1.10041 0.91958
 C3503 C 1.19117 1.07293 0.92024
 C3504 C 1.17474 1.06722 0.92572
 H3505 H 1.29927 1.14230 0.89419
 H3506 H 1.26518 1.13136 0.90389
 H3507 H 1.27974 1.07046 0.88483
 H3508 H 1.31361 1.08168 0.87483
 H3509 H 1.24466 1.07357 0.87555
 H3510 H 1.21120 1.06186 0.88647
 H3511 H 1.21500 1.09942 0.93971
 H3512 H 1.24861 1.11094 0.92917
 C3513 C 1.34408 0.62716 0.37113
 C3514 C 1.32708 0.62229 0.37566
 C3515 C 1.30698 0.61613 0.38130
 C3516 C 1.29362 0.62997 0.39024
 C3517 C 1.27430 0.62379 0.39625
 C3518 C 1.26809 0.60363 0.39339
 C3519 C 1.28160 0.58987 0.38425
 C3520 C 1.30089 0.59609 0.37827
 C3521 C 1.24773 0.59690 0.40014
 C3522 C 1.23639 0.58333 0.38829
 C3523 C 1.21738 0.57677 0.39481
 C3524 C 1.20943 0.58364 0.41325
 C3525 C 1.22055 0.59719 0.42511
 C3526 C 1.23956 0.60378 0.41862
 C3527 C 1.18993 0.57674 0.42004
 C3528 C 1.17361 0.57096 0.42576
 H3529 H 1.29816 0.64553 0.39265
 H3530 H 1.26418 0.63480 0.40299
 H3531 H 1.27740 0.57420 0.38209
 H3532 H 1.31114 0.58521 0.37146
 H3533 H 1.24213 0.57795 0.37388
 H3534 H 1.20889 0.56633 0.38548
 H3535 H 1.21457 0.60257 0.43944
 H3536 H 1.24801 0.61400 0.42822
 C3537 C 0.80495 1.16595 0.33153
 C3538 C 0.79325 1.15630 0.34162
 C3539 C 0.77896 1.14498 0.35346
 C3540 C 0.76626 1.15500 0.36719
 C3541 C 0.75176 1.14419 0.37809
 C3542 C 0.74976 1.12318 0.37536
 C3543 C 0.76279 1.11319 0.36172
 C3544 C 0.77730 1.12404 0.35084
 C3545 C 0.73368 1.11189 0.38620
 C3546 C 0.72240 1.09696 0.37609
 C3547 C 0.70656 1.08706 0.38594
 C3548 C 0.70180 1.09190 0.40603
 C3549 C 0.71313 1.10649 0.41634
 C3550 C 0.72898 1.11642 0.40651
 C3551 C 0.68471 1.08258 0.41568
 C3552 C 0.67003 1.07505 0.42341
 H3553 H 0.76737 1.17122 0.36925
 H3554 H 0.74177 1.15236 0.38825
 H3555 H 0.76177 1.09700 0.35948
 H3556 H 0.78707 1.11614 0.34026
 H3557 H 0.72544 1.09333 0.36038
 H3558 H 0.69779 1.07589 0.37778
 H3559 H 0.70955 1.11037 0.43189
 H3560 H 0.73755 1.12766 0.41477
 C3561 C 0.84522 0.62264 0.87324
 C3562 C 0.82812 0.61798 0.87761
 C3563 C 0.80787 0.61215 0.88305
 C3564 C 0.79432 0.62649 0.89085
 C3565 C 0.77482 0.62069 0.89661
 C3566 C 0.76861 0.60042 0.89466
 C3567 C 0.78232 0.58616 0.88669
 C3568 C 0.80180 0.59199 0.88094
 C3569 C 0.74803 0.59413 0.90113
 C3570 C 0.73698 0.58002 0.88965
 C3571 C 0.71774 0.57389 0.89591
 C3572 C 0.70927 0.58176 0.91371
 C3573 C 0.72008 0.59586 0.92519
 C3574 C 0.73932 0.60202 0.91896
 C3575 C 0.68954 0.57528 0.92025
 C3576 C 0.67303 0.56984 0.92576
 H3577 H 0.79885 0.64214 0.89253
 H3578 H 0.76455 0.63208 0.90245
 H3579 H 0.77811 0.57041 0.88526
 H3580 H 0.81219 0.58075 0.87502
 H3581 H 0.74313 0.57386 0.87573
 H3582 H 0.70947 0.56300 0.88687
 H3583 H 0.71370 0.60201 0.93903
 H3584 H 0.74753 0.61270 0.92827
 C3585 C 1.34460 0.87095 1.12797
 C3586 C 1.32755 0.87538 1.12330
 C3587 C 1.30737 0.88093 1.11740
 C3588 C 1.30049 0.90072 1.12046
 C3589 C 1.28114 0.90634 1.11415
 C3590 C 1.26839 0.89222 1.10464
 C3591 C 1.27540 0.87231 1.10175
 C3592 C 1.29476 0.86672 1.10809
 C3593 C 1.24799 0.89833 1.09754
 C3594 C 1.24057 0.89136 1.07884
 C3595 C 1.22152 0.89742 1.07201
 C3596 C 1.20963 0.91049 1.08376
 C3597 C 1.21682 0.91742 1.10242
 C3598 C 1.23585 0.91139 1.10928
 C3599 C 1.19012 0.91694 1.07664
 C3600 C 1.17379 0.92249 1.07078
 H3601 H 1.31015 0.91188 1.12754
 H3602 H 1.27632 0.92185 1.11635
 H3603 H 1.26587 0.86102 1.09472
 H3604 H 1.29992 0.85135 1.10564
 H3605 H 1.24963 0.88151 1.06932
 H3606 H 1.21614 0.89200 1.05751
 H3607 H 1.20771 0.92750 1.11167
 H3608 H 1.24100 0.91681 1.12385
 C3609 C 1.34513 0.37274 0.62501
 C3610 C 1.32806 0.37722 0.62046
 C3611 C 1.30783 0.38281 0.61476
 C3612 C 1.29679 0.37052 0.60155
 C3613 C 1.27739 0.37627 0.59551
 C3614 C 1.26876 0.39444 0.60263
 C3615 C 1.27993 0.40661 0.61604
 C3616 C 1.29934 0.40083 0.62204
 C3617 C 1.24832 0.40081 0.59590
 C3618 C 1.23466 0.40984 0.60959
 C3619 C 1.21555 0.41610 0.60315
 C3620 C 1.20983 0.41344 0.58295
 C3621 C 1.22326 0.40441 0.56923
 C3622 C 1.24237 0.39812 0.57564
 C3623 C 1.19023 0.42008 0.57628
 C3624 C 1.17382 0.42567 0.57068
 H3625 H 1.30322 0.35654 0.59582
 H3626 H 1.26909 0.36645 0.58539
 H3627 H 1.27384 0.42080 0.62158
 H3628 H 1.30779 0.41052 0.63219
 H3629 H 1.23867 0.41188 0.62533
 H3630 H 1.20525 0.42302 0.61392
 H3631 H 1.21902 0.40233 0.55354
 H3632 H 1.25263 0.39148 0.56466
 C3633 C 0.84515 0.87215 0.62476
 C3634 C 0.82820 0.87687 0.61999
 C3635 C 0.80817 0.88281 0.61393
 C3636 C 0.79217 0.88251 0.62783
 C3637 C 0.77283 0.88865 0.62194
 C3638 C 0.76925 0.89522 0.60204
 C3639 C 0.78544 0.89537 0.58816
 C3640 C 0.80474 0.88921 0.59408
 C3641 C 0.74879 0.90201 0.59577
 C3642 C 0.74647 0.91890 0.58310
 C3643 C 0.72725 0.92523 0.57710
 C3644 C 0.71007 0.91479 0.58365
 C3645 C 0.71219 0.89800 0.59629
 C3646 C 0.73141 0.89165 0.60234
 C3647 C 0.69030 0.92128 0.57732
 C3648 C 0.67378 0.92676 0.57195
 H3649 H 0.79467 0.87766 0.64326
 H3650 H 0.76076 0.88858 0.63304
 H3651 H 0.78313 0.90006 0.57267
 H3652 H 0.81699 0.88947 0.58318
 H3653 H 0.75951 0.92737 0.57802
 H3654 H 0.72579 0.93828 0.56736
 H3655 H 0.69900 0.88977 0.60142
 H3656 H 0.73270 0.87846 0.61189
 C3657 C 0.80639 0.33234 1.16350
 C3658 C 0.79452 0.34198 1.15362
 C3659 C 0.77995 0.35319 1.14207
 C3660 C 0.76795 0.34323 1.12779
 C3661 C 0.75308 0.35385 1.11727
 C3662 C 0.74998 0.37460 1.12092
 C3663 C 0.76233 0.38454 1.13510
 C3664 C 0.77721 0.37389 1.14561
 C3665 C 0.73348 0.38562 1.11048
 C3666 C 0.72140 0.39960 1.12114
 C3667 C 0.70526 0.40927 1.11161
 C3668 C 0.70099 0.40514 1.09129
 C3669 C 0.71309 0.39148 1.08045
 C3670 C 0.72924 0.38178 1.08997
 C3671 C 0.68372 0.41432 1.08187
 C3672 C 0.66894 0.42175 1.07431
 H3673 H 0.76988 0.32718 1.12502
 H3674 H 0.74364 0.34569 1.10668
 H3675 H 0.76047 0.40055 1.13807
 H3676 H 0.78642 0.38175 1.15663
 H3677 H 0.72407 0.40266 1.13701
 H3678 H 0.69591 0.41973 1.12017
 H3679 H 0.70991 0.38816 1.06472
 H3680 H 0.73841 0.37128 1.08129
 C3681 C 0.68941 1.16634 1.16642
 C3682 C 0.70149 1.15678 1.15656
 C3683 C 0.71623 1.14563 1.14496
 C3684 C 0.71444 1.12467 1.14265
 C3685 C 0.72913 1.11382 1.13186
 C3686 C 0.74579 1.12384 1.12324
 C3687 C 0.74734 1.14494 1.12552
 C3688 C 0.73266 1.15574 1.13632
 C3689 C 0.76177 1.11235 1.11230
 C3690 C 0.77064 1.12020 1.09463
 C3691 C 0.78636 1.10985 1.08490
 C3692 C 0.79340 1.09151 1.09267
 C3693 C 0.78447 1.08340 1.11005
 C3694 C 0.76873 1.09372 1.11980
 C3695 C 0.81038 1.08153 1.08333
 C3696 C 0.82495 1.07356 1.07573
 H3697 H 0.70177 1.11669 1.14928
 H3698 H 0.72741 1.09762 1.13017
 H3699 H 0.76014 1.15306 1.11934
 H3700 H 0.73424 1.17196 1.13810
 H3701 H 0.76544 1.13437 1.08834
 H3702 H 0.79318 1.11627 1.07146
 H3703 H 0.78990 1.06927 1.11626
 H3704 H 0.76240 1.08741 1.13351
 C3705 C 0.69266 0.67089 0.67093
 C3706 C 0.70452 0.66115 0.66099
 C3707 C 0.71886 0.64974 0.64918
 C3708 C 0.71722 0.62869 0.64775
 C3709 C 0.73145 0.61762 0.63659
 C3710 C 0.74749 0.62750 0.62671
 C3711 C 0.74890 0.64868 0.62814
 C3712 C 0.73467 0.65971 0.63930
 C3713 C 0.76299 0.61579 0.61535
 C3714 C 0.77074 0.62305 0.59691
 C3715 C 0.78608 0.61255 0.58676
 C3716 C 0.79385 0.59466 0.59486
 C3717 C 0.78600 0.58711 0.61300
 C3718 C 0.77064 0.59758 0.62318
 C3719 C 0.81057 0.58464 0.58512
 C3720 C 0.82497 0.57664 0.57725
 H3721 H 0.70500 0.62084 0.65531
 H3722 H 0.72985 0.60136 0.63559
 H3723 H 0.76124 0.65669 0.62097
 H3724 H 0.73612 0.67600 0.64038
 H3725 H 0.76497 0.63688 0.59038
 H3726 H 0.79208 0.61853 0.57274
 H3727 H 0.79201 0.57334 0.61947
 H3728 H 0.76517 0.59174 0.63746
 C3729 C 0.18995 1.16874 0.66897
 C3730 C 0.20203 1.15927 0.65905
 C3731 C 0.21670 1.14815 0.64735
 C3732 C 0.21481 1.12722 0.64489
 C3733 C 0.22940 1.11639 0.63395
 C3734 C 0.24606 1.12641 0.62532
 C3735 C 0.24771 1.14749 0.62776
 C3736 C 0.23313 1.15827 0.63871
 C3737 C 0.26193 1.11494 0.61424
 C3738 C 0.27072 1.12287 0.59656
 C3739 C 0.28639 1.11256 0.58672
 C3740 C 0.29346 1.09419 0.59438
 C3741 C 0.28458 1.08598 0.61174
 C3742 C 0.26889 1.09626 0.62160
 C3743 C 0.31046 1.08431 0.58499
 C3744 C 0.32508 1.07645 0.57739
 H3745 H 0.20213 1.11925 0.65151
 H3746 H 0.22760 1.10022 0.63215
 H3747 H 0.26051 1.15559 0.62158
 H3748 H 0.23478 1.17446 0.64061
 H3749 H 0.26550 1.13708 0.59037
 H3750 H 0.29317 1.11906 0.57329
 H3751 H 0.29004 1.07182 0.61787
 H3752 H 0.26262 1.08988 0.63531
 C3753 C 0.19299 0.66953 1.17110
 C3754 C 0.20469 0.65981 1.16097
 C3755 C 0.21883 0.64840 1.14892
 C3756 C 0.21816 0.62726 1.14881
 C3757 C 0.23226 0.61620 1.13747
 C3758 C 0.24719 0.62619 1.12608
 C3759 C 0.24760 0.64746 1.12616
 C3760 C 0.23351 0.65847 1.13751
 C3761 C 0.26265 0.61453 1.11461
 C3762 C 0.26906 0.62095 1.09536
 C3763 C 0.28439 0.61057 1.08506
 C3764 C 0.29347 0.59364 1.09383
 C3765 C 0.28695 0.58691 1.11280
 C3766 C 0.27162 0.59726 1.12313
 C3767 C 0.31018 0.58382 1.08389
 C3768 C 0.32459 0.57594 1.07592
 H3769 H 0.20683 0.61932 1.15756
 H3770 H 0.23142 0.59985 1.13753
 H3771 H 0.25909 0.65558 1.11780
 H3772 H 0.23420 0.67484 1.13756
 H3773 H 0.26227 0.63404 1.08831
 H3774 H 0.28936 0.61592 1.07039
 H3775 H 0.29399 0.57391 1.11978
 H3776 H 0.26720 0.59211 1.13802
 C3777 C 0.64931 0.87015 0.87171
 C3778 C 0.66635 0.87453 0.87645
 C3779 C 0.68654 0.88002 0.88238
 C3780 C 0.69996 0.88825 0.86824
 C3781 C 0.71937 0.89410 0.87417
 C3782 C 0.72561 0.89180 0.89437
 C3783 C 0.71204 0.88338 0.90843
 C3784 C 0.69264 0.87755 0.90247
 C3785 C 0.74608 0.89838 0.90082
 C3786 C 0.75733 0.88677 0.91459
 C3787 C 0.77645 0.89314 0.92087
 C3788 C 0.78462 0.91118 0.91350
 C3789 C 0.77360 0.92280 0.89975
 C3790 C 0.75448 0.91646 0.89343
 C3791 C 0.80423 0.91783 0.92013
 C3792 C 0.82065 0.92341 0.92571
 H3793 H 0.69540 0.89022 0.85265
 H3794 H 0.72954 0.90029 0.86293
 H3795 H 0.71627 0.88167 0.92414
 H3796 H 0.68234 0.87130 0.91357
 H3797 H 0.75141 0.87266 0.92035
 H3798 H 0.78487 0.88398 0.93148
 H3799 H 0.77975 0.93683 0.89399
 H3800 H 0.74611 0.92588 0.88304
 C3801 C 0.68809 0.33244 0.33150
 C3802 C 0.69981 0.34246 0.34121
 C3803 C 0.71415 0.35413 0.35263
 C3804 C 0.72684 0.36784 0.34274
 C3805 C 0.74145 0.37850 0.35363
 C3806 C 0.74358 0.37555 0.37459
 C3807 C 0.73055 0.36194 0.38444
 C3808 C 0.71594 0.35131 0.37351
 C3809 C 0.75979 0.38611 0.38594
 C3810 C 0.77109 0.37575 0.40062
 C3811 C 0.78702 0.38535 0.41059
 C3812 C 0.79184 0.40542 0.40609
 C3813 C 0.78049 0.41597 0.39175
 C3814 C 0.76456 0.40640 0.38175
 C3815 C 0.80900 0.41484 0.41550
 C3816 C 0.82371 0.42241 0.42307
 H3817 H 0.72565 0.37006 0.32656
 H3818 H 0.75143 0.38864 0.34556
 H3819 H 0.73166 0.35953 0.40059
 H3820 H 0.70618 0.34073 0.38131
 H3821 H 0.76799 0.36005 0.40398
 H3822 H 0.79580 0.37700 0.42157
 H3823 H 0.78412 0.43152 0.38814
 H3824 H 0.75598 0.41485 0.37071
 C3825 C 0.18947 0.83197 0.33251
 C3826 C 0.20108 0.84209 0.34226
 C3827 C 0.21530 0.85387 0.35371
 C3828 C 0.21721 0.85092 0.37457
 C3829 C 0.23175 0.86163 0.38551
 C3830 C 0.24461 0.87544 0.37570
 C3831 C 0.24234 0.87852 0.35478
 C3832 C 0.22779 0.86779 0.34388
 C3833 C 0.26079 0.88604 0.38705
 C3834 C 0.26539 0.90639 0.38298
 C3835 C 0.28134 0.91600 0.39295
 C3836 C 0.29286 0.90542 0.40712
 C3837 C 0.28819 0.88528 0.41152
 C3838 C 0.27226 0.87565 0.40158
 C3839 C 0.31004 0.91487 0.41646
 C3840 C 0.32478 0.92246 0.42396
 H3841 H 0.20760 0.84018 0.38233
 H3842 H 0.23296 0.85911 0.40164
 H3843 H 0.25218 0.88881 0.34674
 H3844 H 0.22651 0.87010 0.32772
 H3845 H 0.25669 0.91486 0.37206
 H3846 H 0.28484 0.93159 0.38942
 H3847 H 0.29710 0.87691 0.42237
 H3848 H 0.26930 0.85990 0.40485
 C3849 C 0.18739 0.33132 0.83246
 C3850 C 0.19917 0.34136 0.84209
 C3851 C 0.21361 0.35312 0.85329
 C3852 C 0.22591 0.36705 0.84322
 C3853 C 0.24065 0.37780 0.85384
 C3854 C 0.24331 0.37473 0.87472
 C3855 C 0.23067 0.36090 0.88477
 C3856 C 0.21592 0.35017 0.87411
 C3857 C 0.25968 0.38539 0.88576
 C3858 C 0.27144 0.37505 0.90009
 C3859 C 0.28751 0.38474 0.90975
 C3860 C 0.29203 0.40489 0.90525
 C3861 C 0.28025 0.41542 0.89126
 C3862 C 0.26416 0.40575 0.88157
 C3863 C 0.30929 0.41443 0.91438
 C3864 C 0.32407 0.42204 0.92178
 H3865 H 0.22431 0.36937 0.82709
 H3866 H 0.25032 0.38811 0.84561
 H3867 H 0.23218 0.35839 0.90087
 H3868 H 0.20647 0.33942 0.88205
 H3869 H 0.26857 0.35930 0.90343
 H3870 H 0.29662 0.37642 0.92046
 H3871 H 0.28363 0.43102 0.88766
 H3872 H 0.25524 0.41418 0.87080
   
