data_POSCAR
  _audit_creation_date              2014-09-24
  _audit_creation_method            'ToBaCCo'
  _symmetry_space_group_name_H-M    'P1'
  _symmetry_Int_Tables_number       1
  _symmetry_cell_setting            triclinic
  loop_
  _symmetry_equiv_pos_as_xyz
 x,y,z
_cell_length_a 37.7739
_cell_length_b 36.6043
_cell_length_c 52.8597
_cell_angle_alpha 87.724500
_cell_angle_beta 90.461200
_cell_angle_gamma 90.828900
loop_
  _atom_site_label
  _atom_site_type_symbol
  _atom_site_fract_x
  _atom_site_fract_y
  _atom_site_fract_z
C1 C 1.19846 0.24911 0.28126
 H2 H 1.19988 0.21964 0.28338
 C3 C 1.17450 0.26804 0.29562
 H4 H 1.15726 0.25317 0.30881
 C5 C 1.22058 0.30478 0.26255
 H6 H 1.23929 0.31906 0.25024
 C7 C 1.19702 0.32477 0.27657
 H8 H 1.19743 0.35437 0.27486
 N9 N 1.22095 0.26763 0.26521
 C10 C 1.25777 0.18763 0.21292
 H11 H 1.28604 0.19077 0.21566
 C12 C 1.24463 0.16454 0.19458
 H13 H 1.26276 0.14985 0.18304
 C14 C 1.19950 0.20439 0.22375
 H15 H 1.18209 0.22064 0.23470
 C16 C 1.18526 0.18161 0.20560
 H17 H 1.15686 0.18030 0.20263
 Zn18 Zn 1.25574 0.24027 0.24930
 N19 N 1.23519 0.20699 0.22700
 C20 C 1.28238 0.17797 0.27631
 N21 N 1.28113 0.21514 0.27515
 C22 C 1.29600 0.23546 0.29353
 C23 C 1.31324 0.21843 0.31412
 C24 C 1.29941 0.15979 0.29656
 C25 C 1.27104 0.28936 0.20951
 C26 C 1.29195 0.31082 0.19300
 C27 C 1.34333 0.29459 0.21839
 C28 C 1.32140 0.27343 0.23450
 N29 N 1.28597 0.27127 0.22978
 H30 H 1.26960 0.16231 0.26186
 H31 H 1.29396 0.26493 0.29230
 H32 H 1.32469 0.23491 0.32879
 H33 H 1.29997 0.13016 0.29745
 H34 H 1.24289 0.28653 0.20599
 H35 H 1.27994 0.32467 0.17666
 H36 H 1.37161 0.29569 0.22191
 H37 H 1.33282 0.25808 0.25034
 C38 C 1.20807 0.16179 0.19078
 C39 C 1.17405 0.30621 0.29341
 C40 C 1.32841 0.31323 0.19739
 C41 C 1.31482 0.18024 0.31568
 C42 C 0.66324 -0.21089 0.28869
 H43 H 0.66639 -0.24024 0.28892
 C44 C 0.64047 -0.19537 0.30583
 H45 H 0.62596 -0.21278 0.31931
 C46 C 0.67952 -0.15214 0.27168
 H47 H 0.69542 -0.13534 0.25878
 C48 C 0.65707 -0.13552 0.28852
 H49 H 0.65561 -0.10598 0.28844
 N50 N 0.68220 -0.18922 0.27207
 C51 C 0.71268 -0.25910 0.21123
 H52 H 0.74092 -0.25373 0.21129
 C53 C 0.69775 -0.28185 0.19335
 H54 H 0.71451 -0.29403 0.17954
 C55 C 0.65618 -0.24903 0.22875
 H56 H 0.64005 -0.23571 0.24232
 C57 C 0.64015 -0.27164 0.21114
 H58 H 0.61170 -0.27581 0.21122
 Zn59 Zn 0.71509 -0.21206 0.25120
 N60 N 0.69189 -0.24342 0.22856
 C61 C 0.74911 -0.27616 0.27060
 N62 N 0.74621 -0.23936 0.27273
 C63 C 0.76430 -0.22143 0.29096
 C64 C 0.78697 -0.24049 0.30763
 C65 C 0.77148 -0.29622 0.28689
 C66 C 0.72211 -0.15695 0.21325
 C67 C 0.73977 -0.13281 0.19635
 C68 C 0.79508 -0.14963 0.21661
 C69 C 0.77642 -0.17348 0.23311
 N70 N 0.74057 -0.17677 0.23112
 H71 H 0.73382 -0.29013 0.25651
 H72 H 0.76100 -0.19230 0.29254
 H73 H 0.80126 -0.22603 0.32211
 H74 H 0.77356 -0.32550 0.28511
 H75 H 0.69371 -0.16061 0.21178
 H76 H 0.72497 -0.11784 0.18179
 H77 H 0.82369 -0.14789 0.21789
 H78 H 0.79075 -0.19011 0.24695
 C79 C 0.66118 -0.28817 0.19330
 C80 C 0.63753 -0.15733 0.30583
 C81 C 0.77662 -0.12935 0.19794
 C82 C 0.79062 -0.27822 0.30552
 C83 C 0.71392 0.27004 -0.21011
 H84 H 0.71732 0.24082 -0.20761
 C85 C 0.69434 0.28869 -0.19263
 H86 H 0.68246 0.27378 -0.17666
 C87 C 0.72641 0.32536 -0.23347
 H88 H 0.73965 0.33955 -0.24910
 C89 C 0.70700 0.34515 -0.21633
 H90 H 0.70505 0.37456 -0.21889
 N91 N 0.72940 0.28845 -0.23006
 C92 C 0.74567 0.20226 -0.28337
 H93 H 0.77411 0.20377 -0.28556
 C94 C 0.72556 0.17797 -0.29756
 H95 H 0.73852 0.16065 -0.31070
 C96 C 0.69374 0.22421 -0.26453
 H97 H 0.68130 0.24295 -0.25220
 C98 C 0.67268 0.20035 -0.27836
 H99 H 0.64415 0.20065 -0.27648
 Zn100 Zn 0.75786 0.25994 -0.25070
 N101 N 0.72956 0.22479 -0.26727
 C102 C 0.79337 0.20035 -0.22544
 N103 N 0.79134 0.23735 -0.22862
 C104 C 0.81113 0.26004 -0.21420
 C105 C 0.83389 0.24574 -0.19552
 C106 C 0.81584 0.18490 -0.20692
 C107 C 0.76065 0.30658 -0.29400
 C108 C 0.77642 0.32585 -0.31441
 C109 C 0.83385 0.30886 -0.29756
 C110 C 0.81699 0.28990 -0.27750
 N111 N 0.78101 0.28906 -0.27611
 H112 H 0.77680 0.18282 -0.23664
 H113 H 0.80844 0.28934 -0.21682
 H114 H 0.84890 0.26403 -0.18375
 H115 H 0.81672 0.15546 -0.20403
 H116 H 0.73211 0.30489 -0.29267
 H117 H 0.75987 0.33917 -0.32876
 H118 H 0.86251 0.30877 -0.29867
 H119 H 0.83269 0.27507 -0.26348
 C120 C 0.68870 0.17719 -0.29514
 C121 C 0.69096 0.32657 -0.19568
 C122 C 0.81339 0.32677 -0.31631
 C123 C 0.83602 0.20784 -0.19170
 C124 C 1.15146 -0.26592 -0.21075
 H125 H 1.15437 -0.29530 -0.21016
 C126 C 1.12842 -0.24983 -0.19409
 H127 H 1.11354 -0.26681 -0.18057
 C128 C 1.16893 -0.20767 -0.22804
 H129 H 1.18547 -0.19133 -0.24081
 C130 C 1.14618 -0.19047 -0.21168
 H131 H 1.14520 -0.16089 -0.21192
 N132 N 1.17130 -0.24476 -0.22714
 C133 C 1.20343 -0.31823 -0.28540
 H134 H 1.23193 -0.31560 -0.28398
 C135 C 1.18816 -0.33908 -0.30428
 H136 H 1.20491 -0.35275 -0.31738
 C137 C 1.14666 -0.30213 -0.27095
 H138 H 1.13058 -0.28690 -0.25840
 C139 C 1.13030 -0.32266 -0.28959
 H140 H 1.10169 -0.32341 -0.29119
 Zn141 Zn 1.20521 -0.26906 -0.24622
 N142 N 1.18262 -0.30025 -0.26924
 C143 C 1.24008 -0.33194 -0.22416
 N144 N 1.23398 -0.29551 -0.22270
 C145 C 1.24867 -0.27568 -0.20398
 C146 C 1.27145 -0.29211 -0.18621
 C147 C 1.26281 -0.34949 -0.20669
 C148 C 1.21882 -0.21466 -0.28434
 C149 C 1.23981 -0.19216 -0.30032
 C150 C 1.29157 -0.21282 -0.27705
 C151 C 1.26969 -0.23494 -0.26158
 N152 N 1.23400 -0.23552 -0.26544
 H153 H 1.22766 -0.34730 -0.23892
 H154 H 1.24309 -0.24684 -0.20317
 H155 H 1.28345 -0.27595 -0.17161
 H156 H 1.26802 -0.37836 -0.20809
 H157 H 1.19048 -0.21620 -0.28735
 H158 H 1.22765 -0.17620 -0.31566
 H159 H 1.31999 -0.21313 -0.27415
 H160 H 1.28150 -0.25242 -0.24702
 C161 C 1.15127 -0.34106 -0.30650
 C162 C 1.12608 -0.21176 -0.19437
 C163 C 1.27656 -0.19150 -0.29672
 C164 C 1.27884 -0.32923 -0.18771
 C165 C 0.24601 0.21781 0.71374
 H166 H 0.21745 0.21940 0.71304
 C167 C 0.26370 0.19644 0.69668
 H168 H 0.24872 0.18129 0.68291
 C169 C 0.30064 0.23712 0.73159
 H170 H 0.31501 0.25386 0.74466
 C171 C 0.31935 0.21609 0.71487
 H172 H 0.34803 0.21638 0.71535
 N173 N 0.26461 0.23771 0.73066
 C174 C 0.18914 0.26608 0.78869
 H175 H 0.19278 0.29548 0.78778
 C176 C 0.16673 0.24969 0.80682
 H177 H 0.15301 0.26654 0.81988
 C178 C 0.20372 0.20817 0.77337
 H179 H 0.21877 0.19211 0.76067
 C180 C 0.18154 0.19062 0.79125
 H181 H 0.17944 0.16103 0.79213
 Zn182 Zn 0.23910 0.27038 0.75034
 N183 N 0.20704 0.24527 0.77243
 C184 C 0.17855 0.30303 0.72721
 N185 N 0.21455 0.30181 0.72731
 C186 C 0.23401 0.32037 0.70932
 C187 C 0.21724 0.34079 0.68998
 C188 C 0.16073 0.32314 0.70819
 C189 C 0.28793 0.27756 0.78937
 C190 C 0.30960 0.29534 0.80660
 C191 C 0.29464 0.35309 0.78571
 C192 C 0.27320 0.33419 0.76880
 N193 N 0.27030 0.29708 0.77095
 H194 H 0.16354 0.28737 0.74127
 H195 H 0.26255 0.31830 0.70959
 H196 H 0.23287 0.35460 0.67530
 H197 H 0.13205 0.32308 0.70775
 H198 H 0.28460 0.24814 0.79088
 H199 H 0.32313 0.27962 0.82144
 H200 H 0.29642 0.38266 0.78422
 H201 H 0.25831 0.34922 0.75441
 C202 C 0.16302 0.21159 0.80821
 C203 C 0.30071 0.19587 0.69710
 C204 C 0.31279 0.33344 0.80485
 C205 C 0.18026 0.34182 0.68926
 C206 C 0.79397 0.68775 0.70995
 H207 H 0.76570 0.69208 0.71003
 C208 C 0.80887 0.66706 0.69132
 H209 H 0.79205 0.65532 0.67697
 C210 C 0.85071 0.69945 0.72775
 H211 H 0.86694 0.71299 0.74156
 C212 C 0.86673 0.67896 0.70937
 H213 H 0.89528 0.67656 0.70911
 N214 N 0.81493 0.70348 0.72763
 C215 C 0.74169 0.72711 0.78756
 H216 H 0.74639 0.75623 0.78867
 C217 C 0.71795 0.70927 0.80409
 H218 H 0.70422 0.72474 0.81796
 C219 C 0.75458 0.67123 0.76853
 H220 H 0.76945 0.65644 0.75500
 C221 C 0.73108 0.65226 0.78477
 H222 H 0.72771 0.62292 0.78354
 Zn223 Zn 0.79222 0.73463 0.74970
 N224 N 0.75924 0.70803 0.77013
 C225 C 0.73278 0.77159 0.72865
 N226 N 0.76878 0.77013 0.72883
 C227 C 0.78842 0.79022 0.71170
 C228 C 0.77182 0.81226 0.69306
 C229 C 0.71517 0.79330 0.71039
 C230 C 0.84169 0.73220 0.78866
 C231 C 0.86415 0.74538 0.80739
 C232 C 0.85291 0.80690 0.79132
 C233 C 0.83060 0.79255 0.77282
 N234 N 0.82534 0.75576 0.77195
 H235 H 0.71754 0.75461 0.74183
 H236 H 0.81693 0.78784 0.71185
 H237 H 0.78758 0.82718 0.67896
 H238 H 0.68648 0.79329 0.70986
 H239 H 0.83647 0.70313 0.78779
 H240 H 0.87631 0.72644 0.82102
 H241 H 0.85629 0.83625 0.79238
 H242 H 0.81671 0.81079 0.75972
 C243 C 0.71265 0.67150 0.80272
 C244 C 0.84557 0.66290 0.69091
 C245 C 0.86958 0.78307 0.80887
 C246 C 0.73482 0.81331 0.69217
 C247 C 0.74400 0.15721 0.21582
 H248 H 0.71572 0.15994 0.21795
 C249 C 0.75719 0.13273 0.19873
 H250 H 0.73902 0.11649 0.18769
 C251 C 0.80222 0.17646 0.22664
 H252 H 0.81959 0.19425 0.23706
 C253 C 0.81653 0.15231 0.20972
 H254 H 0.84494 0.15141 0.20724
 N255 N 0.76650 0.17859 0.22924
 C256 C 0.70382 0.21487 0.29228
 H257 H 0.70532 0.24415 0.28867
 C258 C 0.68843 0.20068 0.31457
 H259 H 0.67755 0.21904 0.32799
 C260 C 0.71820 0.15525 0.28004
 H261 H 0.73095 0.13776 0.26698
 C262 C 0.70307 0.13992 0.30215
 H263 H 0.70368 0.11061 0.30585
 Zn264 Zn 0.74559 0.21436 0.24908
 N265 N 0.71857 0.19217 0.27566
 C266 C 0.68263 0.24980 0.23036
 N267 N 0.71775 0.24403 0.22681
 C268 C 0.73511 0.25928 0.20647
 C269 C 0.71736 0.28195 0.18893
 C270 C 0.66380 0.27237 0.21317
 C271 C 0.80099 0.22768 0.28316
 C272 C 0.82192 0.24898 0.29895
 C273 C 0.80007 0.30321 0.27679
 C274 C 0.77951 0.28094 0.26145
 N275 N 0.77994 0.24391 0.26511
 H276 H 0.66922 0.23696 0.24643
 H277 H 0.76294 0.25394 0.20402
 H278 H 0.73150 0.29405 0.17285
 H279 H 0.63588 0.27695 0.21604
 H280 H 0.80011 0.19826 0.28612
 H281 H 0.83749 0.23594 0.31396
 H282 H 0.79849 0.33268 0.27443
 H283 H 0.76180 0.29344 0.24763
 C284 C 0.68852 0.16292 0.31973
 C285 C 0.79377 0.13051 0.19545
 C286 C 0.82090 0.28710 0.29602
 C287 C 0.68144 0.28869 0.19233
 C288 C 0.29099 0.72791 0.20759
 H289 H 0.26301 0.73375 0.20649
 C290 C 0.30632 0.70642 0.18957
 H291 H 0.29015 0.69567 0.17448
 C292 C 0.34643 0.73548 0.22830
 H293 H 0.36199 0.74731 0.24322
 C294 C 0.36287 0.71404 0.21059
 H295 H 0.39106 0.70928 0.21194
 N296 N 0.31103 0.74172 0.22656
 C297 C 0.23455 0.75927 0.28576
 H298 H 0.23826 0.78826 0.28827
 C299 C 0.21094 0.73909 0.30118
 H300 H 0.19628 0.75255 0.31558
 C301 C 0.24999 0.70592 0.26454
 H302 H 0.26585 0.69290 0.25068
 C303 C 0.22667 0.68472 0.27958
 H304 H 0.22439 0.65554 0.27708
 Zn305 Zn 0.28704 0.77128 0.24923
 N306 N 0.25338 0.74253 0.26780
 C307 C 0.22827 0.80983 0.22828
 N308 N 0.26425 0.80823 0.22911
 C309 C 0.28459 0.82964 0.21319
 C310 C 0.26876 0.85314 0.19505
 C311 C 0.21141 0.83300 0.21048
 C312 C 0.33426 0.76676 0.28984
 C313 C 0.35453 0.77896 0.31012
 C314 C 0.34262 0.84125 0.29595
 C315 C 0.32253 0.82780 0.27588
 N316 N 0.31855 0.79110 0.27334
 H317 H 0.21250 0.79191 0.24054
 H318 H 0.31310 0.82721 0.21386
 H319 H 0.28513 0.86904 0.18183
 H320 H 0.18277 0.83307 0.20934
 H321 H 0.33002 0.73775 0.28768
 H322 H 0.36604 0.75917 0.32347
 H323 H 0.34476 0.87051 0.29820
 H324 H 0.30915 0.84665 0.26292
 C325 C 0.20709 0.70147 0.29811
 C326 C 0.34255 0.69939 0.19108
 C327 C 0.35843 0.81657 0.31343
 C328 C 0.23180 0.85440 0.19343
 O329 O 1.07540 0.02405 0.01472
 O330 O 0.92861 -0.04203 0.01502
 O331 O 0.96869 0.04263 0.03890
 O332 O 1.03356 -0.05307 0.04032
 O333 O 0.92646 0.02393 0.01428
 O334 O 1.07300 -0.04310 0.01259
 O335 O 0.97120 -0.05023 0.04113
 O336 O 1.03513 0.05419 0.03492
 C337 C 1.06630 0.04418 0.03223
 C338 C 0.93913 -0.04747 0.03728
 C339 C 0.93699 0.03436 0.03556
 C340 C 1.06516 -0.04965 0.03512
 O341 O 1.04614 -0.03720 -0.03392
 O342 O 0.95172 0.02590 -0.03423
 O343 O 1.02629 0.07267 -0.01326
 O344 O 0.96671 -0.08129 -0.00500
 O345 O 0.95691 -0.03852 -0.03248
 O346 O 1.05586 0.03115 -0.03293
 O347 O 1.03055 -0.08111 -0.00737
 O348 O 0.96147 0.06819 -0.00861
 Co349 Co 1.05658 -0.00644 -0.00878
 Co350 Co 0.94573 -0.00761 -0.00829
 Co351 Co 0.99791 0.05312 0.01218
 Co352 Co 1.00045 -0.06151 0.01602
 O353 O 1.00052 -0.00518 0.00278
 C354 C 1.03942 -0.07007 -0.02937
 C355 C 0.95415 0.05882 -0.03044
 C356 C 1.04538 0.06313 -0.03123
 C357 C 0.95983 -0.07145 -0.02736
 O358 O 1.05888 0.51473 0.51197
 O359 O 0.93517 0.48341 0.51207
 O360 O 0.98288 0.56282 0.51223
 O361 O 1.01230 0.43638 0.51239
 O362 O 0.93273 0.54578 0.49836
 O363 O 1.06160 0.45446 0.49748
 O364 O 0.95209 0.43277 0.49857
 O365 O 1.04230 0.56698 0.49846
 C366 C 1.05474 0.54720 0.51597
 C367 C 0.93822 0.45022 0.51556
 C368 C 0.95103 0.55809 0.51586
 C369 C 1.04439 0.44062 0.51547
 O370 O 1.05536 0.48138 0.44879
 O371 O 0.93683 0.52560 0.44929
 O372 O 1.01876 0.56451 0.44926
 O373 O 0.97409 0.44100 0.44967
 O374 O 0.92652 0.46329 0.46321
 O375 O 1.06650 0.54136 0.46327
 O376 O 1.03310 0.43105 0.46293
 O377 O 0.96014 0.57403 0.46344
 Co378 Co 1.05461 0.49834 0.48038
 Co379 Co 0.93896 0.50417 0.48068
 Co380 Co 1.00066 0.56088 0.48079
 Co381 Co 0.99334 0.44157 0.48091
 O382 O 0.99686 0.50125 0.48063
 C383 C 1.04814 0.44900 0.44549
 C384 C 0.94287 0.55869 0.44659
 C385 C 1.05031 0.55845 0.44607
 C386 C 0.94235 0.44672 0.44661
 O387 O 0.54711 0.00550 0.55142
 O388 O 0.42841 -0.04855 0.53874
 O389 O 0.46173 0.06618 0.53481
 O390 O 0.54032 -0.05918 0.54516
 O391 O 0.42611 0.01919 0.54475
 O392 O 0.58415 -0.03363 0.52449
 O393 O 0.47891 -0.06089 0.55549
 O394 O 0.52714 0.05937 0.54063
 C395 C 0.54242 0.03809 0.55651
 C396 C 0.44625 -0.05966 0.55735
 C397 C 0.43666 0.05156 0.54769
 C398 C 0.57305 -0.05937 0.54003
 O399 O 0.54612 -0.01777 0.48530
 O400 O 0.42283 0.03031 0.49642
 O401 O 0.53031 0.05144 0.48835
 O402 O 0.46182 -0.07905 0.50732
 O403 O 0.43247 -0.03515 0.48913
 O404 O 0.57257 0.03304 0.51066
 O405 O 0.52333 -0.07025 0.49530
 O406 O 0.47048 0.05891 0.48473
 Co407 Co 0.54473 -0.00729 0.51839
 Co408 Co 0.43343 -0.00849 0.51736
 Co409 Co 0.49737 0.05383 0.51288
 Co410 Co 0.50041 -0.06181 0.52497
 O411 O 0.49140 -0.00382 0.51775
 C412 C 0.53785 -0.04910 0.47923
 C413 C 0.43878 0.05185 0.48166
 C414 C 0.56243 0.05257 0.49255
 C415 C 0.44515 -0.06618 0.48844
 O416 O 0.56988 0.52502 0.02955
 O417 O 0.44926 0.48477 0.03033
 O418 O 0.49084 0.56733 0.02758
 O419 O 0.52793 0.44226 0.03113
 O420 O 0.44194 0.54602 0.01441
 O421 O 0.57698 0.46343 0.01730
 O422 O 0.46868 0.43466 0.01755
 O423 O 0.54997 0.57484 0.01362
 C424 C 0.56404 0.55775 0.03181
 C425 C 0.45476 0.45205 0.03455
 C426 C 0.45911 0.56168 0.03112
 C427 C 0.55982 0.44718 0.03448
 O428 O 0.57020 0.48680 -0.03227
 O429 O 0.44828 0.52234 -0.03361
 O430 O 0.52735 0.56731 -0.03523
 O431 O 0.49053 0.44197 -0.03175
 O432 O 0.44199 0.46117 -0.01785
 O433 O 0.57620 0.54811 -0.02011
 O434 O 0.55031 0.43598 -0.01742
 O435 O 0.46774 0.57359 -0.02165
 Co436 Co 0.56726 0.50571 -0.00140
 Co437 Co 0.45146 0.50369 -0.00168
 Co438 Co 0.50897 0.56451 -0.00373
 Co439 Co 0.50935 0.44497 -0.00032
 O440 O 0.50927 0.50471 -0.00178
 C441 C 0.56504 0.45397 -0.03496
 C442 C 0.45181 0.55543 -0.03777
 C443 C 0.55913 0.56197 -0.03823
 C444 C 0.45864 0.44694 -0.03504
 C445 C 1.13044 0.08257 0.08749
 C446 C 1.11919 0.11620 0.09682
 C447 C 1.13604 0.13060 0.11840
 C448 C 1.16405 0.11127 0.13053
 C449 C 1.17557 0.07786 0.12105
 C450 C 1.15894 0.06365 0.09924
 C451 C 1.17124 0.03059 0.08976
 C452 C 1.19887 0.01174 0.10176
 C453 C 1.21473 0.02529 0.12336
 C454 C 1.20339 0.05805 0.13293
 C455 C 1.12420 0.16421 0.12746
 C456 C 1.09654 0.18301 0.11551
 C457 C 1.08008 0.16894 0.09435
 C458 C 1.09113 0.13596 0.08503
 C459 C 1.18106 0.12658 0.15244
 C460 C 1.19396 0.14152 0.17024
 C461 C 1.11086 0.06686 0.06684
 C462 C 1.09189 0.05558 0.05043
 H463 H 1.15947 0.01890 0.07313
 H464 H 1.20780 -0.01369 0.09439
 H465 H 1.23597 0.01037 0.13271
 H466 H 1.21658 0.06764 0.14972
 H467 H 1.13610 0.17636 0.14387
 H468 H 1.08785 0.20863 0.12270
 H469 H 1.05863 0.18366 0.08508
 H470 H 1.07751 0.12629 0.06845
 C471 C 1.08504 0.58373 0.58497
 C472 C 1.11601 0.56928 0.59658
 C473 C 1.12744 0.58184 0.62043
 C474 C 1.10803 0.60899 0.63238
 C475 C 1.07592 0.62176 0.62150
 C476 C 1.06446 0.60921 0.59765
 C477 C 1.03249 0.62268 0.58699
 C478 C 1.01215 0.64746 0.59972
 C479 C 1.02322 0.65951 0.62314
 C480 C 1.05482 0.64705 0.63394
 C481 C 1.15830 0.56680 0.63179
 C482 C 1.17719 0.53993 0.62000
 C483 C 1.16607 0.52772 0.59663
 C484 C 1.13595 0.54225 0.58491
 C485 C 1.12238 0.62553 0.65484
 C486 C 1.13519 0.64024 0.67283
 C487 C 1.07428 0.57204 0.56012
 C488 C 1.06550 0.56151 0.53968
 H489 H 1.02266 0.61390 0.56889
 H490 H 0.98754 0.65714 0.59143
 H491 H 1.00722 0.67859 0.63301
 H492 H 1.06233 0.65713 0.65222
 H493 H 1.16789 0.57534 0.65001
 H494 H 1.20058 0.52851 0.62904
 H495 H 1.18082 0.50681 0.58756
 H496 H 1.12828 0.53174 0.56679
 C497 C 0.58694 0.08247 0.61914
 C498 C 0.58288 0.12043 0.62212
 C499 C 0.60264 0.13842 0.64106
 C500 C 0.62640 0.11834 0.65692
 C501 C 0.62915 0.08004 0.65476
 C502 C 0.60927 0.06203 0.63584
 C503 C 0.61242 0.02376 0.63400
 C504 C 0.63437 0.00376 0.65053
 C505 C 0.65402 0.02139 0.66889
 C506 C 0.65159 0.05911 0.67104
 C507 C 0.59830 0.17648 0.64350
 C508 C 0.57509 0.19616 0.62772
 C509 C 0.55579 0.17856 0.60919
 C510 C 0.55956 0.14115 0.60632
 C511 C 0.64874 0.13753 0.67473
 C512 C 0.66714 0.15487 0.68881
 C513 C 0.56997 0.06519 0.59787
 C514 C 0.55679 0.05214 0.57940
 H515 H 0.59774 0.00889 0.61996
 H516 H 0.63623 -0.02556 0.64903
 H517 H 0.67118 0.00573 0.68157
 H518 H 0.66725 0.07162 0.68568
 H519 H 0.61263 0.19142 0.65767
 H520 H 0.57205 0.22523 0.62989
 H521 H 0.53778 0.19394 0.59698
 H522 H 0.54385 0.12867 0.59170
 C523 C 0.59585 0.61260 0.09403
 C524 C 0.60297 0.65061 0.09114
 C525 C 0.61470 0.67044 0.11227
 C526 C 0.61927 0.65214 0.13617
 C527 C 0.61145 0.61427 0.13917
 C528 C 0.59967 0.59443 0.11802
 C529 C 0.59205 0.55658 0.12143
 C530 C 0.59587 0.53885 0.14509
 C531 C 0.60747 0.55823 0.16576
 C532 C 0.61524 0.59551 0.16293
 C533 C 0.62176 0.70842 0.10889
 C534 C 0.61733 0.72626 0.08533
 C535 C 0.60585 0.70686 0.06467
 C536 C 0.59873 0.66947 0.06742
 C537 C 0.63311 0.67226 0.15730
 C538 C 0.64542 0.68988 0.17412
 C539 C 0.58477 0.59236 0.07223
 C540 C 0.57550 0.57623 0.05384
 H541 H 0.58304 0.54034 0.10590
 H542 H 0.58987 0.50990 0.14739
 H543 H 0.61045 0.54429 0.18408
 H544 H 0.62412 0.60945 0.17956
 H545 H 0.63069 0.72475 0.12439
 H546 H 0.62281 0.75532 0.08310
 H547 H 0.60243 0.72085 0.04640
 H548 H 0.58984 0.65560 0.05077
 C549 C 0.87610 -0.05774 0.09961
 C550 C 0.83954 -0.04992 0.09931
 C551 C 0.81867 -0.05895 0.12099
 C552 C 0.83465 -0.07542 0.14281
 C553 C 0.87184 -0.07931 0.14403
 C554 C 0.89264 -0.07063 0.12230
 C555 C 0.92975 -0.07533 0.12381
 C556 C 0.94584 -0.08790 0.14625
 C557 C 0.92548 -0.09630 0.16752
 C558 C 0.88886 -0.09227 0.16651
 C559 C 0.78204 -0.05158 0.12017
 C560 C 0.76655 -0.03522 0.09862
 C561 C 0.78701 -0.02619 0.07747
 C562 C 0.82310 -0.03359 0.07765
 C563 C 0.81293 -0.09190 0.16284
 C564 C 0.79588 -0.10793 0.17909
 C565 C 0.89666 -0.05381 0.07658
 C566 C 0.91511 -0.05112 0.05810
 H567 H 0.94677 -0.06884 0.10784
 H568 H 0.97428 -0.09101 0.14713
 H569 H 0.93811 -0.10601 0.18492
 H570 H 0.87415 -0.09898 0.18359
 H571 H 0.76515 -0.05794 0.13625
 H572 H 0.73853 -0.02949 0.09835
 H573 H 0.77483 -0.01338 0.06083
 H574 H 0.83804 -0.02600 0.06081
 C575 C 0.89317 0.40249 0.57892
 C576 C 0.89441 0.42161 0.60170
 C577 C 0.87769 0.40639 0.62378
 C578 C 0.85979 0.37220 0.62295
 C579 C 0.85852 0.35315 0.60014
 C580 C 0.87529 0.36832 0.57808
 C581 C 0.87363 0.34878 0.55551
 C582 C 0.85582 0.31523 0.55474
 C583 C 0.83938 0.30042 0.57630
 C584 C 0.84065 0.31901 0.59879
 C585 C 0.87924 0.42599 0.64632
 C586 C 0.89674 0.45973 0.64701
 C587 C 0.91303 0.47464 0.62542
 C588 C 0.91200 0.45593 0.60297
 C589 C 0.84279 0.35645 0.64548
 C590 C 0.82864 0.34261 0.66395
 C591 C 0.90964 0.41837 0.55624
 C592 C 0.92294 0.43226 0.53751
 H593 H 0.88604 0.35918 0.53825
 H594 H 0.85478 0.30066 0.53732
 H595 H 0.82557 0.27436 0.57560
 H596 H 0.82745 0.30634 0.61505
 H597 H 0.86694 0.41550 0.66359
 H598 H 0.89766 0.47439 0.66440
 H599 H 0.92656 0.50083 0.62608
 H600 H 0.92511 0.46865 0.58669
 C601 C 0.38902 -0.10619 0.61572
 C602 C 0.37173 -0.13984 0.61088
 C603 C 0.34838 -0.15618 0.62913
 C604 C 0.34249 -0.13885 0.65218
 C605 C 0.35994 -0.10534 0.65711
 C606 C 0.38325 -0.08892 0.63880
 C607 C 0.40017 -0.05529 0.64406
 C608 C 0.39429 -0.03839 0.66679
 C609 C 0.37158 -0.05447 0.68470
 C610 C 0.35454 -0.08757 0.68002
 C611 C 0.33124 -0.18969 0.62376
 C612 C 0.33696 -0.20655 0.60100
 C613 C 0.35979 -0.19058 0.58316
 C614 C 0.37706 -0.15766 0.58793
 C615 C 0.31871 -0.15589 0.67077
 C616 C 0.29920 -0.17135 0.68578
 C617 C 0.41135 -0.08882 0.59634
 C618 C 0.42840 -0.07514 0.57917
 H619 H 0.41810 -0.04178 0.63071
 H620 H 0.40742 -0.01269 0.67054
 H621 H 0.36712 -0.04121 0.70231
 H622 H 0.33708 -0.09902 0.69450
 H623 H 0.31319 -0.20321 0.63700
 H624 H 0.32357 -0.23212 0.59719
 H625 H 0.36413 -0.20377 0.56550
 H626 H 0.39459 -0.14639 0.57344
 C627 C 0.41928 0.40080 0.09959
 C628 C 0.41440 0.36238 0.10054
 C629 C 0.39854 0.34476 0.12210
 C630 C 0.38773 0.36572 0.14254
 C631 C 0.39417 0.40393 0.14209
 C632 C 0.41003 0.42156 0.12052
 C633 C 0.41594 0.45986 0.12033
 C634 C 0.40644 0.48014 0.14092
 C635 C 0.39090 0.46288 0.16203
 C636 C 0.38474 0.42520 0.16271
 C637 C 0.39344 0.30634 0.12251
 C638 C 0.40382 0.28594 0.10220
 C639 C 0.41942 0.30319 0.08113
 C640 C 0.42471 0.34097 0.08020
 C641 C 0.36797 0.34815 0.16312
 C642 C 0.35045 0.33270 0.17930
 C643 C 0.43239 0.41905 0.07667
 C644 C 0.44271 0.43407 0.05742
 H645 H 0.42806 0.47447 0.10436
 H646 H 0.41116 0.50940 0.14048
 H647 H 0.38359 0.47875 0.17798
 H648 H 0.37269 0.41294 0.17956
 H649 H 0.38155 0.29163 0.13852
 H650 H 0.39975 0.25659 0.10284
 H651 H 0.42747 0.28723 0.06541
 H652 H 0.43704 0.35315 0.06342
 C653 C 0.92237 0.12861 -0.08806
 C654 C 0.89061 0.14805 -0.08531
 C655 C 0.87488 0.16626 -0.10672
 C656 C 0.89103 0.16489 -0.13074
 C657 C 0.92389 0.14730 -0.13317
 C658 C 0.93968 0.12915 -0.11173
 C659 C 0.97238 0.11145 -0.11463
 C660 C 0.98898 0.11166 -0.13809
 C661 C 0.97354 0.12937 -0.15905
 C662 C 0.94134 0.14700 -0.15674
 C663 C 0.84286 0.18514 -0.10356
 C664 C 0.82694 0.18611 -0.07991
 C665 C 0.84234 0.16830 -0.05897
 C666 C 0.87378 0.14939 -0.06154
 C667 C 0.87296 0.18025 -0.15297
 C668 C 0.85673 0.19275 -0.17096
 C669 C 0.93533 0.10550 -0.06716
 C670 C 0.94458 0.08494 -0.05009
 H671 H 0.98549 0.09750 -0.09881
 H672 H 1.01389 0.09795 -0.14008
 H673 H 0.98657 0.12942 -0.17722
 H674 H 0.93035 0.16045 -0.17356
 H675 H 0.82988 0.19947 -0.11927
 H676 H 0.80253 0.20078 -0.07783
 H677 H 0.82989 0.16917 -0.04064
 H678 H 0.88484 0.13609 -0.04468
 C679 C 0.89238 0.62076 0.39176
 C680 C 0.89236 0.61180 0.36596
 C681 C 0.87249 0.63303 0.34793
 C682 C 0.85283 0.66316 0.35581
 C683 C 0.85344 0.67257 0.38154
 C684 C 0.87328 0.65132 0.39956
 C685 C 0.87339 0.66122 0.42519
 C686 C 0.85442 0.69120 0.43279
 C687 C 0.83498 0.71192 0.41518
 C688 C 0.83440 0.70285 0.38983
 C689 C 0.87269 0.62338 0.32227
 C690 C 0.89213 0.59374 0.31462
 C691 C 0.91166 0.57308 0.33223
 C692 C 0.91181 0.58183 0.35765
 C693 C 0.83139 0.68406 0.33765
 C694 C 0.81306 0.70137 0.32288
 C695 C 0.91123 0.59817 0.41047
 C696 C 0.92612 0.57982 0.42660
 H697 H 0.88815 0.64600 0.43961
 H698 H 0.85480 0.69837 0.45246
 H699 H 0.82026 0.73517 0.42119
 H700 H 0.81892 0.71986 0.37684
 H701 H 0.85794 0.63867 0.30787
 H702 H 0.89206 0.58678 0.29490
 H703 H 0.92682 0.55020 0.32617
 H704 H 0.92741 0.56496 0.37066
 C705 C 0.38893 0.09801 0.41995
 C706 C 0.39509 0.08359 0.39594
 C707 C 0.37962 0.10039 0.37394
 C708 C 0.35806 0.13140 0.37614
 C709 C 0.35155 0.14551 0.40019
 C710 C 0.36703 0.12872 0.42219
 C711 C 0.36023 0.14327 0.44607
 C712 C 0.33869 0.17358 0.44812
 C713 C 0.32355 0.19005 0.42659
 C714 C 0.32981 0.17631 0.40285
 C715 C 0.38622 0.08566 0.35010
 C716 C 0.40750 0.05513 0.34809
 C717 C 0.42261 0.03864 0.36963
 C718 C 0.41659 0.05260 0.39334
 C719 C 0.34261 0.14889 0.35372
 C720 C 0.32947 0.16379 0.33533
 C721 C 0.40580 0.08173 0.44223
 C722 C 0.42047 0.06819 0.46048
 H723 H 0.37138 0.13137 0.46337
 H724 H 0.33374 0.18434 0.46653
 H725 H 0.30685 0.21360 0.42828
 H726 H 0.31743 0.19006 0.38666
 H727 H 0.37503 0.09753 0.33280
 H728 H 0.41228 0.04421 0.32971
 H729 H 0.43910 0.01492 0.36798
 H730 H 0.42889 0.03881 0.40954
 C731 C 0.39502 0.60052 -0.09690
 C732 C 0.38521 0.57826 -0.11721
 C733 C 0.36195 0.59199 -0.13650
 C734 C 0.34858 0.62780 -0.13532
 C735 C 0.35899 0.65031 -0.11529
 C736 C 0.38229 0.63662 -0.09603
 C737 C 0.39213 0.65953 -0.07612
 C738 C 0.37932 0.69496 -0.07525
 C739 C 0.35655 0.70836 -0.09408
 C740 C 0.34642 0.68644 -0.11391
 C741 C 0.35242 0.56927 -0.15658
 C742 C 0.36541 0.53393 -0.15754
 C743 C 0.38804 0.52044 -0.13865
 C744 C 0.39796 0.54222 -0.11868
 C745 C 0.32378 0.64153 -0.15441
 C746 C 0.30316 0.65408 -0.16984
 C747 C 0.41666 0.58566 -0.07626
 C748 C 0.43351 0.57258 -0.05878
 H749 H 0.40986 0.65038 -0.06107
 H750 H 0.38712 0.71211 -0.05988
 H751 H 0.34669 0.73591 -0.09332
 H752 H 0.32868 0.69816 -0.12811
 H753 H 0.33488 0.57856 -0.17172
 H754 H 0.35786 0.51691 -0.17304
 H755 H 0.39797 0.49296 -0.13951
 H756 H 0.41574 0.53055 -0.10448
 C757 C 1.05829 -0.12842 -0.09152
 C758 C 1.07998 -0.10887 -0.10929
 C759 C 1.08940 -0.12518 -0.13216
 C760 C 1.07710 -0.16088 -0.13713
 C761 C 1.05322 -0.17922 -0.12030
 C762 C 1.04402 -0.16306 -0.09729
 C763 C 1.02050 -0.18203 -0.08059
 C764 C 1.00577 -0.21569 -0.08673
 C765 C 1.01455 -0.23137 -0.10934
 C766 C 1.03823 -0.21359 -0.12593
 C767 C 1.11123 -0.10523 -0.14960
 C768 C 1.12327 -0.07006 -0.14464
 C769 C 1.11407 -0.05407 -0.12227
 C770 C 1.09274 -0.07312 -0.10473
 C771 C 1.09170 -0.17960 -0.15827
 C772 C 1.10626 -0.19450 -0.17516
 C773 C 1.05008 -0.11180 -0.06785
 C774 C 1.04455 -0.09475 -0.04930
 H775 H 1.01287 -0.17078 -0.06284
 H776 H 0.98737 -0.22959 -0.07392
 H777 H 1.00299 -0.25748 -0.11405
 H778 H 1.04429 -0.22673 -0.14332
 H779 H 1.11893 -0.11643 -0.16735
 H780 H 1.13980 -0.05514 -0.15825
 H781 H 1.12352 -0.02676 -0.11847
 H782 H 1.08632 -0.05940 -0.08764
 C783 C 1.08344 0.39802 0.38343
 C784 C 1.09813 0.41843 0.36267
 C785 C 1.11418 0.39999 0.34267
 C786 C 1.11524 0.36131 0.34357
 C787 C 1.09891 0.34090 0.36370
 C788 C 1.08295 0.35933 0.38370
 C789 C 1.06706 0.33840 0.40377
 C790 C 1.06690 0.30032 0.40402
 C791 C 1.08255 0.28228 0.38445
 C792 C 1.09845 0.30219 0.36448
 C793 C 1.12915 0.42090 0.32225
 C794 C 1.12795 0.45897 0.32148
 C795 C 1.11201 0.47700 0.34095
 C796 C 1.09741 0.45712 0.36144
 C797 C 1.13493 0.34249 0.32474
 C798 C 1.15225 0.32623 0.30995
 C799 C 1.07031 0.41665 0.40506
 C800 C 1.06001 0.43163 0.42341
 H801 H 1.05446 0.35120 0.41940
 H802 H 1.05457 0.28473 0.41947
 H803 H 1.08236 0.25269 0.38471
 H804 H 1.11018 0.28691 0.34965
 H805 H 1.14167 0.40805 0.30661
 H806 H 1.13936 0.47455 0.30566
 H807 H 1.11095 0.50655 0.34016
 H808 H 1.08537 0.47235 0.37617
 C809 C 0.55805 -0.08296 0.40809
 C810 C 0.57748 -0.05991 0.39097
 C811 C 0.58995 -0.07388 0.36803
 C812 C 0.58249 -0.11065 0.36228
 C813 C 0.55977 -0.13233 0.37808
 C814 C 0.54759 -0.11847 0.40113
 C815 C 0.52511 -0.14066 0.41676
 C816 C 0.51459 -0.17544 0.40963
 C817 C 0.52656 -0.18903 0.38709
 C818 C 0.54908 -0.16791 0.37148
 C819 C 0.60993 -0.05060 0.35141
 C820 C 0.61668 -0.01425 0.35702
 C821 C 0.60396 -0.00045 0.37927
 C822 C 0.58493 -0.02300 0.39628
 C823 C 0.60036 -0.12691 0.34136
 C824 C 0.61664 -0.14070 0.32477
 C825 C 0.55030 -0.07077 0.43320
 C826 C 0.54459 -0.06086 0.45422
 H827 H 0.51496 -0.13110 0.43437
 H828 H 0.49703 -0.19191 0.42165
 H829 H 0.51835 -0.21609 0.38165
 H830 H 0.55759 -0.17951 0.35406
 H831 H 0.62001 -0.06007 0.33375
 H832 H 0.63168 0.00335 0.34398
 H833 H 0.60887 0.02790 0.38338
 H834 H 0.57566 -0.01107 0.41339
 C835 C 0.60627 0.40685 -0.09686
 C836 C 0.60982 0.42769 -0.11988
 C837 C 0.62666 0.41241 -0.14089
 C838 C 0.63942 0.37623 -0.13886
 C839 C 0.63516 0.35513 -0.11599
 C840 C 0.61859 0.37052 -0.09493
 C841 C 0.61478 0.34898 -0.07225
 C842 C 0.62697 0.31323 -0.07041
 C843 C 0.64318 0.29815 -0.09099
 C844 C 0.64731 0.31872 -0.11355
 C845 C 0.63042 0.43395 -0.16356
 C846 C 0.61766 0.46951 -0.16548
 C847 C 0.60085 0.48431 -0.14504
 C848 C 0.59694 0.46378 -0.12243
 C849 C 0.65723 0.36052 -0.16003
 C850 C 0.67242 0.34595 -0.17682
 C851 C 0.59097 0.42307 -0.07492
 C852 C 0.57886 0.43677 -0.05658
 H853 H 0.60230 0.35946 -0.05572
 H854 H 0.62380 0.29713 -0.05293
 H855 H 0.65261 0.27036 -0.08948
 H856 H 0.66009 0.30573 -0.12901
 H857 H 0.64320 0.42355 -0.17999
 H858 H 0.62079 0.48565 -0.18295
 H859 H 0.59100 0.51195 -0.14662
 H860 H 0.58382 0.47653 -0.10701
 C861 C 1.07596 0.12684 -0.09234
 C862 C 1.08282 0.16491 -0.09234
 C863 C 1.09831 0.18304 -0.11390
 C864 C 1.10676 0.16295 -0.13535
 C865 C 1.09826 0.12520 -0.13582
 C866 C 1.08299 0.10704 -0.11420
 C867 C 1.07534 0.06909 -0.11496
 C868 C 1.08219 0.04979 -0.13654
 C869 C 1.09695 0.06763 -0.15772
 C870 C 1.10503 0.10487 -0.15744
 C871 C 1.10534 0.22108 -0.11334
 C872 C 1.09724 0.24063 -0.09210
 C873 C 1.08211 0.22287 -0.07102
 C874 C 1.07496 0.18542 -0.07102
 C875 C 1.12603 0.18057 -0.15626
 C876 C 1.14301 0.19507 -0.17318
 C877 C 1.06365 0.10733 -0.06957
 C878 C 1.05465 0.08874 -0.05136
 H879 H 1.06363 0.05402 -0.09904
 H880 H 1.07588 0.02087 -0.13687
 H881 H 1.10218 0.05254 -0.17446
 H882 H 1.11644 0.11755 -0.17439
 H883 H 1.11699 0.23608 -0.12932
 H884 H 1.10273 0.26973 -0.09200
 H885 H 1.07588 0.23818 -0.05457
 H886 H 1.06312 0.17276 -0.05421
 C887 C 1.10272 0.60557 0.38552
 C888 C 1.09281 0.64090 0.37642
 C889 C 1.11299 0.65938 0.35715
 C890 C 1.14289 0.64238 0.34705
 C891 C 1.15186 0.60641 0.35536
 C892 C 1.13173 0.58796 0.37469
 C893 C 1.14137 0.55216 0.38288
 C894 C 1.17004 0.53502 0.37221
 C895 C 1.18966 0.55301 0.35325
 C896 C 1.18085 0.58834 0.34489
 C897 C 1.10282 0.69484 0.34856
 C898 C 1.07347 0.71153 0.35866
 C899 C 1.05368 0.69342 0.37746
 C900 C 1.06313 0.65852 0.38633
 C901 C 1.16528 0.66257 0.32904
 C902 C 1.18417 0.68003 0.31465
 C903 C 1.08394 0.58808 0.40667
 C904 C 1.06857 0.57424 0.42456
 H905 H 1.12676 0.53698 0.39745
 H906 H 1.17691 0.50754 0.37858
 H907 H 1.21183 0.53952 0.34496
 H908 H 1.19687 0.60123 0.33008
 H909 H 1.11730 0.70998 0.33389
 H910 H 1.06605 0.73864 0.35183
 H911 H 1.03087 0.70648 0.38522
 H912 H 1.04685 0.64551 0.40094
 C913 C 0.62246 0.09711 0.43506
 C914 C 0.61481 0.13296 0.42577
 C915 C 0.62927 0.14627 0.40237
 C916 C 0.65135 0.12366 0.38838
 C917 C 0.66014 0.08834 0.39816
 C918 C 0.64567 0.07503 0.42159
 C919 C 0.65450 0.03949 0.43084
 C920 C 0.67711 0.01774 0.41740
 C921 C 0.69124 0.03073 0.39450
 C922 C 0.68291 0.06559 0.38488
 C923 C 0.62092 0.18209 0.39338
 C924 C 0.59894 0.20412 0.40711
 C925 C 0.58478 0.19108 0.42997
 C926 C 0.59250 0.15593 0.43927
 C927 C 0.66460 0.13672 0.36385
 C928 C 0.67538 0.14823 0.34359
 C929 C 0.60382 0.08188 0.45709
 C930 C 0.58621 0.06885 0.47420
 H931 H 0.64413 0.02821 0.44856
 H932 H 0.68358 -0.00939 0.42474
 H933 H 0.70869 0.01368 0.38409
 H934 H 0.69448 0.07448 0.36698
 H935 H 0.63130 0.19348 0.37570
 H936 H 0.59289 0.23146 0.39997
 H937 H 0.56774 0.20831 0.44058
 H938 H 0.58096 0.14706 0.45720
 C939 C 0.60911 0.59597 -0.10337
 C940 C 0.60030 0.62995 -0.11531
 C941 C 0.62010 0.64359 -0.13646
 C942 C 0.64847 0.62308 -0.14557
 C943 C 0.65600 0.58818 -0.13449
 C944 C 0.63636 0.57465 -0.11322
 C945 C 0.64478 0.54000 -0.10212
 C946 C 0.67165 0.51916 -0.11192
 C947 C 0.69069 0.53230 -0.13285
 C948 C 0.68315 0.56646 -0.14403
 C949 C 0.61117 0.67791 -0.14788
 C950 C 0.58337 0.69808 -0.13871
 C951 C 0.56393 0.68467 -0.11806
 C952 C 0.57219 0.65102 -0.10640
 C953 C 0.67129 0.63908 -0.16509
 C954 C 0.69060 0.65372 -0.18056
 C955 C 0.59107 0.58369 -0.08042
 C956 C 0.57639 0.57384 -0.06115
 H957 H 0.63051 0.52852 -0.08593
 H958 H 0.67754 0.49258 -0.10333
 H959 H 0.71143 0.51594 -0.14045
 H960 H 0.69864 0.57555 -0.16029
 H961 H 0.62542 0.68942 -0.16406
 H962 H 0.57686 0.72424 -0.14770
 H963 H 0.54232 0.70041 -0.11103
 H964 H 0.55626 0.64170 -0.09043
 C965 C 0.94177 -0.13907 -0.08584
 C966 C 0.95581 -0.12817 -0.10978
 C967 C 0.94555 -0.14723 -0.13163
 C968 C 0.92057 -0.17631 -0.12949
 C969 C 0.90860 -0.18888 -0.10532
 C970 C 0.91935 -0.17027 -0.08340
 C971 C 0.90684 -0.18309 -0.05947
 C972 C 0.88431 -0.21352 -0.05724
 C973 C 0.87369 -0.23167 -0.07869
 C974 C 0.88555 -0.21957 -0.10251
 C975 C 0.96028 -0.13628 -0.15529
 C976 C 0.98455 -0.10728 -0.15732
 C977 C 0.99416 -0.08824 -0.13603
 C978 C 0.97980 -0.09826 -0.11253
 C979 C 0.90460 -0.19101 -0.15206
 C980 C 0.88950 -0.20280 -0.17027
 C981 C 0.94878 -0.11697 -0.06411
 C982 C 0.95394 -0.09718 -0.04674
 H983 H 0.91446 -0.16986 -0.04226
 H984 H 0.87503 -0.22304 -0.03878
 H985 H 0.85618 -0.25528 -0.07687
 H986 H 0.87671 -0.23467 -0.11863
 H987 H 0.95347 -0.15025 -0.17237
 H988 H 0.99583 -0.09945 -0.17553
 H989 H 1.01294 -0.06566 -0.13770
 H990 H 0.98813 -0.08270 -0.09650
 C991 C 0.89329 0.39319 0.38947
 C992 C 0.87788 0.35844 0.39541
 C993 C 0.86403 0.33689 0.37575
 C994 C 0.86559 0.35027 0.35026
 C995 C 0.88061 0.38522 0.34436
 C996 C 0.89452 0.40674 0.36403
 C997 C 0.90953 0.44152 0.35768
 C998 C 0.91074 0.45468 0.33259
 C999 C 0.89710 0.43366 0.31336
 C1000 C 0.88217 0.39930 0.31907
 C1001 C 0.84890 0.30215 0.38217
 C1002 C 0.84748 0.28911 0.40728
 C1003 C 0.86101 0.31020 0.42649
 C1004 C 0.87606 0.34447 0.42074
 C1005 C 0.85107 0.32825 0.33031
 C1006 C 0.83805 0.30958 0.31430
 C1007 C 0.90938 0.41401 0.40946
 C1008 C 0.92373 0.42989 0.42634
 H1009 H 0.92039 0.45890 0.37199
 H1010 H 0.92235 0.48131 0.32805
 H1011 H 0.89809 0.44403 0.29391
 H1012 H 0.87193 0.38393 0.30347
 H1013 H 0.83804 0.28470 0.36791
 H1014 H 0.83582 0.26249 0.41184
 H1015 H 0.85983 0.29996 0.44597
 H1016 H 0.88614 0.35987 0.43637
 C1017 C 0.42396 -0.12062 0.42381
 C1018 C 0.39980 -0.15051 0.42354
 C1019 C 0.38875 -0.16487 0.40010
 C1020 C 0.40206 -0.14936 0.37703
 C1021 C 0.42771 -0.12078 0.37739
 C1022 C 0.43842 -0.10610 0.40082
 C1023 C 0.46321 -0.07672 0.40060
 C1024 C 0.47754 -0.06273 0.37795
 C1025 C 0.46749 -0.07747 0.35511
 C1026 C 0.44273 -0.10606 0.35471
 C1027 C 0.36410 -0.19440 0.40033
 C1028 C 0.35080 -0.20931 0.42304
 C1029 C 0.36163 -0.19529 0.44594
 C1030 C 0.38584 -0.16622 0.44630
 C1031 C 0.38770 -0.16146 0.35309
 C1032 C 0.37428 -0.17174 0.33376
 C1033 C 0.43223 -0.10332 0.44748
 C1034 C 0.43834 -0.08747 0.46666
 H1035 H 0.47204 -0.06451 0.41790
 H1036 H 0.49669 -0.04045 0.37815
 H1037 H 0.47887 -0.06661 0.33759
 H1038 H 0.43561 -0.11660 0.33649
 H1039 H 0.35496 -0.20635 0.38301
 H1040 H 0.33198 -0.23189 0.42287
 H1041 H 0.35120 -0.20698 0.46352
 H1042 H 0.39353 -0.15627 0.46458
 C1043 C 0.40538 0.40979 -0.09661
 C1044 C 0.37340 0.38984 -0.09261
 C1045 C 0.35449 0.37599 -0.11356
 C1046 C 0.36761 0.38230 -0.13841
 C1047 C 0.39921 0.40289 -0.14245
 C1048 C 0.41826 0.41656 -0.12145
 C1049 C 0.45000 0.43675 -0.12590
 C1050 C 0.46245 0.44342 -0.15042
 C1051 C 0.44371 0.43019 -0.17095
 C1052 C 0.41245 0.41010 -0.16712
 C1053 C 0.32270 0.35584 -0.10907
 C1054 C 0.30997 0.34966 -0.08458
 C1055 C 0.32845 0.36329 -0.06409
 C1056 C 0.35981 0.38316 -0.06794
 C1057 C 0.34901 0.36646 -0.15954
 C1058 C 0.33288 0.35207 -0.17627
 C1059 C 0.42498 0.42310 -0.07509
 C1060 C 0.44067 0.43392 -0.05689
 H1061 H 0.46540 0.44770 -0.11052
 H1062 H 0.48672 0.45899 -0.15350
 H1063 H 0.45346 0.43548 -0.18997
 H1064 H 0.39878 0.40035 -0.18367
 H1065 H 0.30731 0.34472 -0.12438
 H1066 H 0.28563 0.33422 -0.08150
 H1067 H 0.31844 0.35844 -0.04510
 H1068 H 0.37321 0.39320 -0.05137
 C1069 C 1.13773 -0.07252 0.09129
 C1070 C 1.13629 -0.05428 0.11438
 C1071 C 1.15824 -0.06572 0.13514
 C1072 C 1.18103 -0.09577 0.13283
 C1073 C 1.18370 -0.11283 0.10935
 C1074 C 1.16206 -0.10113 0.08851
 C1075 C 1.16500 -0.11886 0.06532
 C1076 C 1.18863 -0.14734 0.06277
 C1077 C 1.20975 -0.15881 0.08313
 C1078 C 1.20742 -0.14188 0.10619
 C1079 C 1.15668 -0.04677 0.15789
 C1080 C 1.13414 -0.01726 0.16009
 C1081 C 1.11246 -0.00628 0.13990
 C1082 C 1.11323 -0.02463 0.11732
 C1083 C 1.19981 -0.11099 0.15488
 C1084 C 1.21473 -0.12568 0.17276
 C1085 C 1.11300 -0.06328 0.07087
 C1086 C 1.09167 -0.05665 0.05425
 H1087 H 1.14918 -0.11085 0.04893
 H1088 H 1.19055 -0.16058 0.04488
 H1089 H 1.22805 -0.18095 0.08105
 H1090 H 1.22454 -0.15167 0.12143
 H1091 H 1.17312 -0.05432 0.17408
 H1092 H 1.13347 -0.00286 0.17757
 H1093 H 1.09504 0.01669 0.14170
 H1094 H 1.09612 -0.01489 0.10205
 C1095 C 1.09439 0.40688 0.58093
 C1096 C 1.11064 0.37226 0.58249
 C1097 C 1.12848 0.36060 0.60508
 C1098 C 1.13002 0.38366 0.62597
 C1099 C 1.11397 0.41840 0.62436
 C1100 C 1.09592 0.42998 0.60180
 C1101 C 1.07961 0.46459 0.60073
 C1102 C 1.08111 0.48711 0.62137
 C1103 C 1.09918 0.47600 0.64330
 C1104 C 1.11544 0.44204 0.64489
 C1105 C 1.14448 0.32580 0.60619
 C1106 C 1.14282 0.30320 0.58560
 C1107 C 1.12534 0.31461 0.56352
 C1108 C 1.10939 0.34871 0.56187
 C1109 C 1.14765 0.37102 0.64913
 C1110 C 1.16244 0.35870 0.66780
 C1111 C 1.07633 0.41870 0.55778
 C1112 C 1.06160 0.42844 0.53844
 H1113 H 1.06550 0.47457 0.58401
 H1114 H 1.06835 0.51342 0.62029
 H1115 H 1.10053 0.49378 0.65917
 H1116 H 1.12912 0.43450 0.66235
 H1117 H 1.15845 0.31565 0.62292
 H1118 H 1.15519 0.27669 0.58680
 H1119 H 1.12411 0.29695 0.54758
 H1120 H 1.09608 0.35634 0.54429
 C1121 C 0.64031 -0.10832 0.59155
 C1122 C 0.66515 -0.08609 0.60428
 C1123 C 0.68555 -0.10122 0.62476
 C1124 C 0.68110 -0.13853 0.63232
 C1125 C 0.65686 -0.16096 0.61918
 C1126 C 0.63644 -0.14581 0.59874
 C1127 C 0.61226 -0.16872 0.58599
 C1128 C 0.60837 -0.20557 0.59322
 C1129 C 0.62830 -0.22039 0.61321
 C1130 C 0.65229 -0.19849 0.62611
 C1131 C 0.70993 -0.07837 0.63735
 C1132 C 0.71421 -0.04165 0.62983
 C1133 C 0.69442 -0.02691 0.60973
 C1134 C 0.67005 -0.04871 0.59709
 C1135 C 0.70102 -0.15396 0.65374
 C1136 C 0.71685 -0.16803 0.67141
 C1137 C 0.61735 -0.09215 0.57209
 C1138 C 0.59751 -0.07793 0.55680
 H1139 H 0.59623 -0.15845 0.57029
 H1140 H 0.58978 -0.22271 0.58325
 H1141 H 0.62517 -0.24903 0.61876
 H1142 H 0.66718 -0.21132 0.64152
 H1143 H 0.72594 -0.08864 0.65307
 H1144 H 0.73293 -0.02453 0.63969
 H1145 H 0.69776 0.00165 0.60401
 H1146 H 0.65520 -0.03597 0.58162
 C1147 C 0.60282 0.39396 0.09646
 C1148 C 0.62493 0.41121 0.11426
 C1149 C 0.63935 0.39042 0.13509
 C1150 C 0.63147 0.35252 0.13798
 C1151 C 0.60826 0.33560 0.12067
 C1152 C 0.59386 0.35639 0.09988
 C1153 C 0.57067 0.33886 0.08284
 C1154 C 0.56197 0.30189 0.08626
 C1155 C 0.57614 0.28154 0.10655
 C1156 C 0.59905 0.29804 0.12360
 C1157 C 0.66153 0.40823 0.15258
 C1158 C 0.66912 0.44555 0.14966
 C1159 C 0.65498 0.46586 0.12932
 C1160 C 0.63312 0.44903 0.11176
 C1161 C 0.64832 0.33053 0.15803
 C1162 C 0.66293 0.31164 0.17403
 C1163 C 0.58916 0.41457 0.07456
 C1164 C 0.57670 0.43031 0.05620
 H1165 H 0.55891 0.35351 0.06677
 H1166 H 0.54414 0.28896 0.07308
 H1167 H 0.56931 0.25282 0.10912
 H1168 H 0.60927 0.28107 0.13914
 H1169 H 0.67305 0.39358 0.16874
 H1170 H 0.68605 0.45879 0.16326
 H1171 H 0.66093 0.49484 0.12715
 H1172 H 0.62262 0.46598 0.09629
 C1173 C 0.87119 0.04852 0.09532
 C1174 C 0.88477 0.04074 0.11995
 C1175 C 0.86631 0.05256 0.14141
 C1176 C 0.83455 0.07228 0.13806
 C1177 C 0.81919 0.07664 0.11361
 C1178 C 0.83759 0.06467 0.09216
 C1179 C 0.82202 0.06973 0.06788
 C1180 C 0.78905 0.08601 0.06486
 C1181 C 0.77106 0.09777 0.08583
 C1182 C 0.78590 0.09332 0.10997
 C1183 C 0.88050 0.04481 0.16584
 C1184 C 0.91197 0.02565 0.16900
 C1185 C 0.93012 0.01426 0.14801
 C1186 C 0.91688 0.02179 0.12370
 C1187 C 0.81955 0.09098 0.15916
 C1188 C 0.80771 0.10824 0.17608
 C1189 C 0.89304 0.04267 0.07340
 C1190 C 0.91241 0.03878 0.05572
 H1191 H 0.83500 0.06082 0.05106
 H1192 H 0.77741 0.08951 0.04616
 H1193 H 0.74545 0.11037 0.08337
 H1194 H 0.77085 0.10267 0.12575
 H1195 H 0.86722 0.05309 0.18270
 H1196 H 0.92234 0.01967 0.18783
 H1197 H 0.95455 -0.00058 0.15056
 H1198 H 0.93178 0.01215 0.10795
 C1199 C 0.90993 0.58896 0.58267
 C1200 C 0.87659 0.60595 0.58338
 C1201 C 0.86412 0.61920 0.60651
 C1202 C 0.88512 0.61540 0.62876
 C1203 C 0.91810 0.59760 0.62817
 C1204 C 0.93049 0.58416 0.60505
 C1205 C 0.96349 0.56634 0.60486
 C1206 C 0.98376 0.56208 0.62690
 C1207 C 0.97176 0.57547 0.64948
 C1208 C 0.93930 0.59306 0.65023
 C1209 C 0.83074 0.63635 0.60673
 C1210 C 0.81034 0.64025 0.58473
 C1211 C 0.82257 0.62724 0.56211
 C1212 C 0.85530 0.61028 0.56132
 C1213 C 0.87287 0.63080 0.65190
 C1214 C 0.86123 0.64481 0.67025
 C1215 C 0.92363 0.57766 0.55876
 C1216 C 0.93558 0.56872 0.53896
 H1217 H 0.97398 0.55554 0.58774
 H1218 H 1.00897 0.54846 0.62641
 H1219 H 0.98767 0.57219 0.66652
 H1220 H 0.93100 0.60298 0.66823
 H1221 H 0.82000 0.64689 0.62385
 H1222 H 0.78490 0.65342 0.58526
 H1223 H 0.80662 0.63031 0.54508
 H1224 H 0.86364 0.60055 0.54328
 C1225 C 0.38939 0.10733 0.60348
 C1226 C 0.36371 0.13402 0.59716
 C1227 C 0.34579 0.15180 0.61666
 C1228 C 0.35367 0.14277 0.64239
 C1229 C 0.37964 0.11635 0.64870
 C1230 C 0.39760 0.09864 0.62918
 C1231 C 0.42353 0.07240 0.63595
 C1232 C 0.43152 0.06395 0.66127
 C1233 C 0.41385 0.08113 0.68034
 C1234 C 0.38818 0.10707 0.67424
 C1235 C 0.32019 0.17836 0.60985
 C1236 C 0.31253 0.18712 0.58452
 C1237 C 0.33004 0.16973 0.56546
 C1238 C 0.35535 0.14345 0.57160
 C1239 C 0.33513 0.16086 0.66226
 C1240 C 0.31951 0.17641 0.67839
 C1241 C 0.40674 0.08825 0.58356
 C1242 C 0.42066 0.07188 0.56707
 H1243 H 0.43796 0.05826 0.62179
 H1244 H 0.45150 0.04389 0.66610
 H1245 H 0.42008 0.07437 0.69998
 H1246 H 0.37519 0.11977 0.68974
 H1247 H 0.30586 0.19265 0.62399
 H1248 H 0.29289 0.20752 0.57966
 H1249 H 0.32400 0.17664 0.54581
 H1250 H 0.36830 0.13072 0.55610
 C1251 C 0.41297 0.60570 0.09240
 C1252 C 0.38371 0.62912 0.08880
 C1253 C 0.36958 0.64710 0.10973
 C1254 C 0.38477 0.64157 0.13414
 C1255 C 0.41351 0.61748 0.13784
 C1256 C 0.42770 0.59954 0.11689
 C1257 C 0.45666 0.57587 0.12099
 C1258 C 0.47115 0.57001 0.14512
 C1259 C 0.45719 0.58745 0.16561
 C1260 C 0.42871 0.61097 0.16212
 C1261 C 0.34042 0.67055 0.10561
 C1262 C 0.32569 0.67606 0.08154
 C1263 C 0.33954 0.65848 0.06109
 C1264 C 0.36821 0.63525 0.06456
 C1265 C 0.37102 0.66122 0.15520
 C1266 C 0.35866 0.67832 0.17198
 C1267 C 0.42867 0.58914 0.07073
 C1268 C 0.44215 0.57622 0.05260
 H1269 H 0.46834 0.56161 0.10565
 H1270 H 0.49329 0.55181 0.14792
 H1271 H 0.46849 0.58277 0.18432
 H1272 H 0.41874 0.62393 0.17862
 H1273 H 0.32866 0.68482 0.12091
 H1274 H 0.30341 0.69408 0.07875
 H1275 H 0.32800 0.66285 0.04242
 H1276 H 0.37801 0.62215 0.04806
   
