data_POSCAR
  _audit_creation_date              2014-09-24
  _audit_creation_method            'ToBaCCo'
  _symmetry_space_group_name_H-M    'P1'
  _symmetry_Int_Tables_number       1
  _symmetry_cell_setting            triclinic
  loop_
  _symmetry_equiv_pos_as_xyz
 x,y,z
_cell_length_a 47.3612
_cell_length_b 51.0679
_cell_length_c 49.1493
_cell_angle_alpha 91.072700
_cell_angle_beta 89.951900
_cell_angle_gamma 89.809900
loop_
  _atom_site_label
  _atom_site_type_symbol
  _atom_site_fract_x
  _atom_site_fract_y
  _atom_site_fract_z
C1 C 0.71319 0.65655 0.95332
 H2 H 0.72629 0.64792 0.93753
 C3 C 0.68851 0.66965 0.94613
 H4 H 0.68307 0.67067 0.92479
 C5 C 0.70316 0.66339 1.00012
 H6 H 0.70842 0.65993 1.02116
 C7 C 0.67843 0.67703 0.99382
 H8 H 0.66542 0.68476 1.01023
 N9 N 0.71997 0.65347 0.97994
 C10 C 0.80605 0.63843 1.00670
 H11 H 0.80966 0.62073 0.99475
 C12 C 0.82814 0.64943 1.02174
 H13 H 0.84876 0.64020 1.02124
 C14 C 0.77448 0.67129 1.02293
 H15 H 0.75356 0.67969 1.02348
 C16 C 0.79586 0.68262 1.03876
 H17 H 0.79124 0.69971 1.05138
 Zn18 Zn 0.75061 0.63118 0.98879
 N19 N 0.77981 0.64937 1.00759
 C20 C 0.78308 0.63235 0.94184
 N21 N 0.76584 0.61655 0.95627
 C22 C 0.75934 0.59201 0.94711
 C23 C 0.76990 0.58274 0.92211
 C24 C 0.79451 0.62373 0.91714
 C25 C 0.74827 0.60111 1.03615
 C26 C 0.73504 0.58554 1.05535
 C27 C 0.69747 0.57751 1.02317
 C28 C 0.71152 0.59325 1.00463
 N29 N 0.73608 0.60515 1.01162
 H30 H 0.78788 0.65180 0.94958
 H31 H 0.74552 0.57979 0.95887
 H32 H 0.76373 0.56348 0.91479
 H33 H 0.80868 0.63657 0.90646
 H34 H 0.76763 0.61106 1.04149
 H35 H 0.74497 0.58493 1.07508
 H36 H 0.67834 0.56816 1.01612
 H37 H 0.70224 0.59681 0.98492
 C38 C 0.82300 0.67153 1.03835
 C39 C 0.67052 0.67997 0.96647
 C40 C 0.70839 0.57402 1.04975
 C41 C 0.78764 0.59876 0.90663
 C42 C 0.74476 0.34253 0.51378
 H43 H 0.76618 0.33525 0.51414
 C44 C 0.72359 0.32926 0.52775
 H45 H 0.72885 0.31169 0.53869
 C46 C 0.71174 0.37455 0.49982
 H47 H 0.70738 0.39268 0.48961
 C48 C 0.68994 0.36174 0.51314
 H49 H 0.66888 0.37006 0.51296
 N50 N 0.73851 0.36480 0.50023
 C51 C 0.80112 0.36442 0.44141
 H52 H 0.78661 0.37452 0.42839
 C53 C 0.82505 0.35304 0.42981
 H54 H 0.82833 0.35426 0.40805
 C55 C 0.81569 0.35182 0.48539
 H56 H 0.81252 0.35244 0.50718
 C57 C 0.84004 0.33991 0.47447
 H58 H 0.85536 0.33109 0.48787
 Zn59 Zn 0.76681 0.38499 0.48318
 N60 N 0.79695 0.36405 0.46881
 C61 C 0.80856 0.41797 0.50577
 N62 N 0.78184 0.40893 0.50911
 C63 C 0.76676 0.41478 0.53200
 C64 C 0.77879 0.42975 0.55301
 C65 C 0.82150 0.43285 0.52638
 C66 C 0.73324 0.38771 0.43724
 C67 C 0.72356 0.39739 0.41268
 C68 C 0.74762 0.43811 0.42274
 C69 C 0.75692 0.42758 0.44729
 N70 N 0.75003 0.40260 0.45372
 H71 H 0.82020 0.41283 0.48748
 H72 H 0.74557 0.40737 0.53427
 H73 H 0.76642 0.43408 0.57108
 H74 H 0.84319 0.43892 0.52375
 H75 H 0.72845 0.36778 0.44266
 H76 H 0.71064 0.38501 0.39965
 H77 H 0.75411 0.45763 0.41729
 H78 H 0.77062 0.43888 0.46057
 C79 C 0.84514 0.34113 0.44640
 C80 C 0.69580 0.33893 0.52753
 C81 C 0.73135 0.42262 0.40480
 C82 C 0.80674 0.43857 0.55063
 C83 C 0.21730 -0.14137 0.02294
 H84 H 0.21387 -0.13107 0.00426
 C85 C 0.19497 -0.15514 0.03441
 H86 H 0.17461 -0.15546 0.02440
 C87 C 0.24689 -0.15167 0.06017
 H88 H 0.26694 -0.14947 0.07048
 C89 C 0.22494 -0.16524 0.07260
 H90 H 0.22810 -0.17357 0.09247
 N91 N 0.24250 -0.13950 0.03614
 C92 C 0.32385 -0.11757 0.00193
 H93 H 0.32064 -0.09659 0.00158
 C94 C 0.34859 -0.12848 -0.00872
 H95 H 0.36422 -0.11572 -0.01748
 C96 C 0.30657 -0.15960 0.01281
 H97 H 0.28995 -0.17158 0.02104
 C98 C 0.33105 -0.17141 0.00223
 H99 H 0.33325 -0.19251 0.00265
 Zn100 Zn 0.27047 -0.11565 0.02470
 N101 N 0.30351 -0.13311 0.01247
 C102 C 0.30516 -0.09467 0.06649
 N103 N 0.27886 -0.09402 0.05545
 C104 C 0.25752 -0.08047 0.06787
 C105 C 0.26223 -0.06692 0.09245
 C106 C 0.31076 -0.08153 0.09102
 C107 C 0.25225 -0.10937 -0.02851
 C108 C 0.24158 -0.09673 -0.05122
 C109 C 0.24225 -0.05603 -0.02551
 C110 C 0.25271 -0.06963 -0.00318
 N111 N 0.25692 -0.09591 -0.00490
 H112 H 0.32164 -0.10622 0.05689
 H113 H 0.23662 -0.08075 0.05900
 H114 H 0.24495 -0.05631 0.10202
 H115 H 0.33161 -0.08318 0.09984
 H116 H 0.25673 -0.13015 -0.02962
 H117 H 0.23933 -0.10849 -0.06958
 H118 H 0.23789 -0.03543 -0.02231
 H119 H 0.25709 -0.05915 0.01564
 C120 C 0.35246 -0.15575 -0.00875
 C121 C 0.19854 -0.16657 0.05984
 C122 C 0.23573 -0.06948 -0.05025
 C123 C 0.28911 -0.06758 0.10453
 C124 C 0.21007 0.15398 0.49400
 H125 H 0.23137 0.16023 0.48994
 C126 C 0.18752 0.16637 0.48114
 H127 H 0.19167 0.18224 0.46739
 C128 C 0.17855 0.12567 0.51653
 H129 H 0.17513 0.10931 0.52973
 C130 C 0.15542 0.13772 0.50440
 H131 H 0.13435 0.13065 0.50856
 N132 N 0.20523 0.13418 0.51155
 C133 C 0.28095 0.15170 0.51942
 H134 H 0.27799 0.14558 0.49844
 C135 C 0.30251 0.16929 0.52617
 H136 H 0.31566 0.17702 0.51020
 C137 C 0.26799 0.14850 0.56579
 H138 H 0.25496 0.14004 0.58131
 C139 C 0.28916 0.16609 0.57341
 H140 H 0.29214 0.17084 0.59478
 Zn141 Zn 0.23578 0.11715 0.52904
 N142 N 0.26405 0.14183 0.53914
 C143 C 0.23774 0.08581 0.48121
 N144 N 0.25183 0.09237 0.50444
 C145 C 0.27824 0.08308 0.50930
 C146 C 0.29191 0.06721 0.48990
 C147 C 0.25051 0.06980 0.46138
 C148 C 0.20498 0.11568 0.57729
 C149 C 0.19113 0.10456 0.59922
 C150 C 0.21275 0.06295 0.58738
 C151 C 0.22587 0.07481 0.56525
 N152 N 0.22151 0.10069 0.56049
 H153 H 0.21673 0.09339 0.47780
 H154 H 0.28906 0.08881 0.52783
 H155 H 0.31340 0.06100 0.49370
 H156 H 0.23891 0.06489 0.44303
 H157 H 0.20176 0.13617 0.57298
 H158 H 0.17734 0.11658 0.61189
 H159 H 0.21571 0.04220 0.59065
 H160 H 0.23897 0.06324 0.55155
 C161 C 0.30676 0.17675 0.55350
 C162 C 0.15979 0.15838 0.48651
 C163 C 0.19466 0.07784 0.60422
 C164 C 0.27820 0.06066 0.46531
 C165 C 0.17820 0.45985 0.22207
 H166 H 0.17924 0.45071 0.24173
 C167 C 0.19608 0.45129 0.20112
 H168 H 0.21050 0.43525 0.20478
 C169 C 0.15739 0.49118 0.19328
 H170 H 0.14243 0.50686 0.19028
 C171 C 0.17496 0.48332 0.17181
 H172 H 0.17330 0.49313 0.15253
 N173 N 0.15895 0.47915 0.21771
 C174 C 0.13946 0.51489 0.29714
 H175 H 0.11672 0.51548 0.29662
 C176 C 0.15351 0.52664 0.31906
 H177 H 0.14127 0.53573 0.33531
 C178 C 0.18292 0.50466 0.27557
 H179 H 0.19442 0.49656 0.25842
 C180 C 0.19786 0.51624 0.29713
 H181 H 0.22071 0.51642 0.29649
 Zn182 Zn 0.13354 0.48933 0.24605
 N183 N 0.15418 0.50403 0.27596
 C184 C 0.09389 0.46294 0.27875
 N185 N 0.11252 0.45972 0.25786
 C186 C 0.11732 0.43555 0.24655
 C187 C 0.10525 0.41330 0.25785
 C188 C 0.08153 0.44125 0.29078
 C189 C 0.11386 0.54069 0.23867
 C190 C 0.09864 0.56037 0.22595
 C191 C 0.07298 0.52709 0.20073
 C192 C 0.08854 0.50796 0.21419
 N193 N 0.10884 0.51508 0.23241
 H194 H 0.08902 0.48226 0.28660
 H195 H 0.13112 0.43326 0.22920
 H196 H 0.11049 0.39414 0.24944
 H197 H 0.06756 0.44416 0.30804
 H198 H 0.13067 0.54599 0.25254
 H199 H 0.10382 0.58065 0.23037
 H200 H 0.05743 0.52119 0.18570
 H201 H 0.08530 0.48745 0.20930
 C202 C 0.18311 0.52747 0.31924
 C203 C 0.19438 0.46286 0.17545
 C204 C 0.07832 0.55370 0.20628
 C205 C 0.08790 0.41597 0.28088
 C206 C -0.17287 0.01341 0.19762
 H207 H -0.18649 0.01418 0.21529
 C208 C -0.18202 0.02394 0.17295
 H209 H -0.20257 0.03322 0.17248
 C210 C -0.12903 0.00158 0.17774
 H211 H -0.10835 -0.00723 0.17976
 C212 C -0.13711 0.01187 0.15297
 H213 H -0.12257 0.00971 0.13610
 N214 N -0.14648 0.00310 0.19961
 C215 C -0.16086 -0.03707 0.27136
 H216 H -0.15196 -0.05444 0.26188
 C217 C -0.17602 -0.03941 0.29550
 H218 H -0.17876 -0.05863 0.30405
 C219 C -0.16593 0.00910 0.27324
 H220 H -0.16114 0.02798 0.26478
 C221 C -0.18086 0.00767 0.29777
 H222 H -0.18793 0.02551 0.30792
 Zn223 Zn -0.12991 -0.00991 0.23162
 N224 N -0.15586 -0.01309 0.26082
 C225 C -0.08785 0.00922 0.26732
 N226 N -0.10138 0.01364 0.24343
 C227 C -0.09693 0.03598 0.22943
 C228 C -0.07873 0.05518 0.23961
 C229 C -0.06957 0.02807 0.27838
 C230 C -0.13352 -0.06044 0.21082
 C231 C -0.12422 -0.08434 0.20001
 C232 C -0.07637 -0.07201 0.21128
 C233 C -0.08669 -0.04837 0.22229
 N234 N -0.11483 -0.04303 0.22164
 H235 H -0.09214 -0.00849 0.27830
 H236 H -0.10818 0.03950 0.21077
 H237 H -0.07569 0.07286 0.22817
 H238 H -0.05990 0.02467 0.29795
 H239 H -0.15572 -0.05545 0.21012
 H240 H -0.13962 -0.09791 0.19170
 H241 H -0.05381 -0.07551 0.21100
 H242 H -0.07214 -0.03393 0.23036
 C243 C -0.18567 -0.01685 0.30937
 C244 C -0.16367 0.02408 0.15020
 C245 C -0.09523 -0.09021 0.19956
 C246 C -0.06526 0.05167 0.26471
 C247 C 0.36033 0.54051 0.72711
 H248 H 0.37500 0.55099 0.74010
 C249 C 0.34381 0.55430 0.70876
 H250 H 0.34642 0.57529 0.70748
 C251 C 0.33982 0.50039 0.71249
 H252 H 0.33849 0.47933 0.71415
 C253 C 0.32272 0.51343 0.69396
 H254 H 0.30804 0.50225 0.68155
 N255 N 0.35814 0.51404 0.72856
 C256 C 0.37095 0.46668 0.79990
 H257 H 0.39348 0.46328 0.79881
 C258 C 0.35555 0.45728 0.82178
 H259 H 0.36635 0.44644 0.83741
 C260 C 0.32984 0.48628 0.78163
 H261 H 0.32004 0.49809 0.76624
 C262 C 0.31366 0.47749 0.80340
 H263 H 0.29135 0.48212 0.80433
 Zn264 Zn 0.38102 0.49546 0.75302
 N265 N 0.35796 0.48079 0.78030
 C266 C 0.39968 0.52716 0.79635
 N267 N 0.40634 0.51939 0.77049
 C268 C 0.42825 0.53054 0.75702
 C269 C 0.44401 0.55059 0.76945
 C270 C 0.41488 0.54693 0.80950
 C271 C 0.39721 0.44294 0.73937
 C272 C 0.40927 0.42316 0.72309
 C273 C 0.42718 0.45630 0.69333
 C274 C 0.41479 0.47545 0.71019
 N275 N 0.40023 0.46857 0.73282
 H276 H 0.38166 0.51896 0.80652
 H277 H 0.43300 0.52460 0.73636
 H278 H 0.46106 0.55955 0.75830
 H279 H 0.40835 0.55338 0.82966
 H280 H 0.38465 0.43756 0.75668
 H281 H 0.40591 0.40290 0.72830
 H282 H 0.43857 0.46224 0.67538
 H283 H 0.41593 0.49576 0.70460
 C284 C 0.32658 0.46282 0.82380
 C285 C 0.32470 0.54077 0.69180
 C286 C 0.42427 0.42970 0.69955
 C287 C 0.43714 0.55921 0.79595
 C288 C 0.65419 0.99527 0.71998
 H289 H 0.66248 1.00073 0.73972
 C290 C 0.67264 0.98642 0.69960
 H291 H 0.69499 0.98493 0.70395
 C292 C 0.61522 0.99096 0.69004
 H293 H 0.59275 0.99275 0.68656
 C294 C 0.63295 0.98227 0.66900
 H295 H 0.62391 0.97698 0.64943
 N296 N 0.62597 0.99682 0.71506
 C297 C 0.61603 1.04241 0.78564
 H298 H 0.60283 1.05649 0.77554
 C299 C 0.62835 1.04924 0.81049
 H300 H 0.62365 1.06852 0.81876
 C301 C 0.63463 0.99952 0.78808
 H302 H 0.63654 0.97999 0.77932
 C303 C 0.64749 1.00549 0.81300
 H304 H 0.66014 0.99042 0.82222
 Zn305 Zn 0.60029 1.00805 0.74250
 N306 N 0.61959 1.01800 0.77478
 C307 C 0.56115 0.98453 0.77579
 N308 N 0.57617 0.98051 0.75249
 C309 C 0.57789 0.95638 0.74034
 C310 C 0.56549 0.93479 0.75262
 C311 C 0.54896 0.96344 0.78900
 C312 C 0.59610 1.05740 0.72098
 C313 C 0.58340 1.07992 0.71109
 C314 C 0.53781 1.05970 0.71708
 C315 C 0.55146 1.03757 0.72725
 N316 N 0.58010 1.03696 0.72909
 H317 H 0.56060 1.00383 0.78525
 H318 H 0.59047 0.95348 0.72220
 H319 H 0.56847 0.91541 0.74372
 H320 H 0.53881 0.96657 0.80855
 H321 H 0.61885 1.05630 0.72264
 H322 H 0.59667 1.09620 0.70558
 H323 H 0.51503 1.05973 0.71535
 H324 H 0.53922 1.02091 0.73355
 C325 C 0.64465 1.03080 0.82482
 C326 C 0.66202 0.97958 0.67379
 C327 C 0.55386 1.08129 0.70881
 C328 C 0.55190 0.93814 0.77780
 C329 C 0.00919 0.21489 -0.17975
 H330 H 0.01095 0.23260 -0.19134
 C331 C 0.01553 0.19059 -0.19199
 H332 H 0.02235 0.18993 -0.21301
 C333 C -0.00006 0.19449 -0.13778
 H334 H -0.00572 0.19624 -0.11649
 C335 C 0.00560 0.16989 -0.14926
 H336 H 0.00354 0.15281 -0.13670
 N337 N 0.00188 0.21637 -0.15301
 C338 C 0.00612 0.29696 -0.16141
 H339 H 0.02514 0.29791 -0.14936
 C340 C -0.00067 0.31773 -0.17842
 H341 H 0.01330 0.33443 -0.17927
 C342 C -0.03498 0.27407 -0.17525
 H343 H -0.04842 0.25711 -0.17381
 C344 C -0.04251 0.29431 -0.19255
 H345 H -0.06198 0.29278 -0.20400
 Zn346 Zn -0.00406 0.24886 -0.13445
 N347 N -0.01128 0.27588 -0.15974
 C348 C 0.03154 0.27862 -0.09814
 N349 N 0.02915 0.25648 -0.11388
 C350 C 0.05153 0.23997 -0.11754
 C351 C 0.07773 0.24597 -0.10629
 C352 C 0.05748 0.28526 -0.08623
 C353 C -0.05672 0.22917 -0.12328
 C354 C -0.08051 0.22245 -0.10847
 C355 C -0.06376 0.24962 -0.07121
 C356 C -0.03966 0.25519 -0.08666
 N357 N -0.03648 0.24470 -0.11212
 H358 H 0.01379 0.29186 -0.09604
 H359 H 0.04961 0.22265 -0.13027
 H360 H 0.09556 0.23314 -0.11040
 H361 H 0.05952 0.30352 -0.07486
 H362 H -0.05411 0.22139 -0.14373
 H363 H -0.09613 0.21055 -0.11887
 H364 H -0.06475 0.25753 -0.05068
 H365 H -0.02335 0.26745 -0.07798
 C366 C -0.02549 0.31673 -0.19403
 C367 C 0.01406 0.16764 -0.17661
 C368 C -0.08444 0.23209 -0.08156
 C369 C 0.08107 0.26912 -0.09098
 C370 C 0.47782 0.23439 0.21254
 H371 H 0.47343 0.25499 0.21542
 C372 C 0.46657 0.21649 0.23079
 H373 H 0.45410 0.22363 0.24786
 C374 C 0.49765 0.19983 0.18596
 H375 H 0.50831 0.19315 0.16769
 C376 C 0.48686 0.18133 0.20362
 H377 H 0.48975 0.16075 0.19868
 N378 N 0.49277 0.22583 0.19044
 C379 C 0.54627 0.28542 0.16440
 H380 H 0.55701 0.27111 0.15175
 C381 C 0.55884 0.30974 0.16856
 H382 H 0.57934 0.31335 0.15961
 C383 C 0.50650 0.29861 0.19050
 H384 H 0.48552 0.29467 0.19797
 C385 C 0.51827 0.32345 0.19497
 H386 H 0.50635 0.33820 0.20621
 Zn387 Zn 0.50178 0.24920 0.16211
 N388 N 0.52020 0.28040 0.17470
 C389 C 0.46070 0.28319 0.13961
 N390 N 0.46744 0.25789 0.14481
 C391 C 0.44991 0.23793 0.13742
 C392 C 0.42449 0.24308 0.12410
 C393 C 0.43542 0.28923 0.12662
 C394 C 0.54983 0.22044 0.14462
 C395 C 0.56888 0.20986 0.12570
 C396 C 0.53801 0.22388 0.08963
 C397 C 0.51946 0.23404 0.10924
 N398 N 0.52569 0.23229 0.13615
 H399 H 0.47505 0.29877 0.14516
 H400 H 0.45589 0.21796 0.14163
 H401 H 0.41116 0.22688 0.11784
 H402 H 0.43037 0.30957 0.12306
 H403 H 0.55449 0.21965 0.16614
 H404 H 0.58783 0.20032 0.13289
 H405 H 0.53299 0.22611 0.06831
 H406 H 0.50049 0.24403 0.10289
 C407 C 0.54442 0.32947 0.18315
 C408 C 0.47050 0.18950 0.22605
 C409 C 0.56320 0.21171 0.09776
 C410 C 0.41703 0.26904 0.11838
 C411 C 0.94996 0.73211 0.65688
 H412 H 0.94094 0.75150 0.65889
 C413 C 0.93755 0.71126 0.67059
 H414 H 0.91943 0.71495 0.68357
 C415 C 0.98306 0.70322 0.63612
 H416 H 0.99976 0.69955 0.62166
 C417 C 0.97157 0.68199 0.64959
 H418 H 0.97998 0.66257 0.64546
 N419 N 0.97226 0.72779 0.63987
 C420 C 1.02734 0.79249 0.63026
 H421 H 1.03901 0.78237 0.61445
 C422 C 1.03891 0.81507 0.64181
 H423 H 1.05980 0.82093 0.63545
 C424 C 0.98603 0.79764 0.65694
 H425 H 0.96508 0.79120 0.66222
 C426 C 0.99666 0.82086 0.66869
 H427 H 0.98371 0.83191 0.68300
 Zn428 Zn 0.98567 0.75524 0.61736
 N429 N 1.00127 0.78413 0.63774
 C430 C 0.94856 0.79343 0.59645
 N431 N 0.95459 0.76739 0.59677
 C432 C 0.93763 0.74960 0.58400
 C433 C 0.91309 0.75777 0.57074
 C434 C 0.92420 0.80242 0.58364
 C435 C 1.03793 0.73197 0.60627
 C436 C 1.05966 0.72079 0.59088
 C437 C 1.03273 0.72912 0.55020
 C438 C 1.01140 0.74024 0.56647
 N439 N 1.01427 0.74123 0.59402
 H440 H 0.96234 0.80731 0.60656
 H441 H 0.94289 0.72898 0.58459
 H442 H 0.89985 0.74328 0.56075
 H443 H 0.91938 0.82315 0.58458
 H444 H 1.03969 0.73299 0.62822
 H445 H 1.07787 0.71288 0.60124
 H446 H 1.03014 0.72838 0.52832
 H447 H 0.99252 0.74789 0.55711
 C448 C 1.02329 0.83013 0.66070
 C449 C 0.94824 0.68574 0.66676
 C450 C 1.05722 0.71913 0.56245
 C451 C 0.90585 0.78450 0.57077
 C452 C 0.50273 0.71471 0.33099
 H453 H 0.49587 0.73151 0.31967
 C454 C 0.50900 0.69111 0.31730
 H455 H 0.50685 0.68978 0.29539
 C456 C 0.51414 0.69578 0.37332
 H457 H 0.51608 0.69785 0.39518
 C458 C 0.52024 0.67189 0.36058
 H459 H 0.52731 0.65565 0.37272
 N460 N 0.50504 0.71640 0.35856
 C461 C 0.49865 0.79789 0.35974
 H462 H 0.51716 0.79976 0.37242
 C463 C 0.48878 0.81967 0.34588
 H464 H 0.50105 0.83745 0.34742
 C465 C 0.46116 0.77207 0.34240
 H466 H 0.45013 0.75356 0.34179
 C467 C 0.45054 0.79334 0.32810
 H468 H 0.43097 0.79056 0.31714
 Zn469 Zn 0.49590 0.74643 0.37971
 N470 N 0.48469 0.77474 0.35795
 C471 C 0.55222 0.75825 0.38301
 N472 N 0.52914 0.75515 0.39907
 C473 C 0.53091 0.75748 0.42664
 C474 C 0.55664 0.76412 0.43896
 C475 C 0.57821 0.76475 0.39440
 C476 C 0.45133 0.71534 0.39705
 C477 C 0.42755 0.70844 0.41179
 C478 C 0.43148 0.74892 0.43766
 C479 C 0.45538 0.75514 0.42223
 N480 N 0.46505 0.73815 0.40264
 H481 H 0.55023 0.75601 0.36117
 H482 H 0.51246 0.75432 0.43908
 H483 H 0.55775 0.76619 0.46089
 H484 H 0.59603 0.76795 0.38107
 H485 H 0.45821 0.70266 0.38053
 H486 H 0.41677 0.69040 0.40643
 H487 H 0.42418 0.76245 0.45338
 H488 H 0.46606 0.77360 0.42571
 C489 C 0.46395 0.81800 0.33005
 C490 C 0.51744 0.66928 0.33228
 C491 C 0.41739 0.72514 0.43258
 C492 C 0.58068 0.76797 0.42271
 Si493 Si 0.38754 0.00760 0.28431
 Si494 Si 0.11314 0.98433 0.77981
 Si495 Si 0.63172 0.51446 0.23933
 Si496 Si 0.89193 0.49878 0.74265
 Si497 Si 0.25891 0.36024 -0.00180
 Si498 Si 0.73874 0.12981 0.99340
 Si499 Si 0.24395 0.61632 0.50793
 Si500 Si 0.73757 0.89857 0.48976
 Si501 Si 0.00876 0.23303 0.34734
 Si502 Si 1.01366 0.73759 0.13056
 Si503 Si 0.50626 0.25680 0.60356
 Si504 Si 0.49596 0.75213 0.85446
 C505 C 0.45755 -0.13404 0.32807
 C506 C 0.44494 -0.11192 0.31665
 C507 C 0.42691 -0.11488 0.29397
 C508 C 0.42206 -0.13991 0.28290
 C509 C 0.43449 -0.16190 0.29447
 C510 C 0.45232 -0.15953 0.31745
 C511 C 0.41366 -0.09285 0.28299
 C512 C 0.41797 -0.06791 0.29469
 C513 C 0.43619 -0.06492 0.31731
 C514 C 0.44966 -0.08691 0.32805
 C515 C 0.44028 -0.04000 0.32910
 C516 C 0.42605 -0.01832 0.31888
 C517 C 0.40771 -0.02118 0.29667
 C518 C 0.40392 -0.04596 0.28446
 H519 H 0.47010 -0.13118 0.34626
 H520 H 0.40851 -0.14252 0.26531
 H521 H 0.43057 -0.18067 0.28468
 H522 H 0.39967 -0.09517 0.26565
 H523 H 0.46349 -0.08460 0.34551
 H524 H 0.45418 -0.03735 0.34642
 H525 H 0.42910 0.00070 0.32854
 H526 H 0.38961 -0.04835 0.26742
 C527 C 0.96845 0.36514 0.79906
 C528 C 0.95756 0.38625 0.78434
 C529 C 0.94398 0.38145 0.75913
 C530 C 0.94226 0.35576 0.74873
 C531 C 0.95293 0.33488 0.76359
 C532 C 0.96567 0.33924 0.78910
 C533 C 0.93158 0.40225 0.74513
 C534 C 0.93208 0.42775 0.75627
 C535 C 0.94629 0.43269 0.78113
 C536 C 0.95916 0.41196 0.79488
 C537 C 0.94650 0.45818 0.79231
 C538 C 0.93160 0.47827 0.77970
 C539 C 0.91653 0.47328 0.75563
 C540 C 0.91754 0.44818 0.74353
 H541 H 0.97797 0.36880 0.81881
 H542 H 0.93213 0.35175 0.72934
 H543 H 0.95096 0.31521 0.75520
 H544 H 0.92074 0.39845 0.72604
 H545 H 0.96963 0.41570 0.81418
 H546 H 0.95736 0.46237 0.81128
 H547 H 0.93092 0.49751 0.78933
 H548 H 0.90608 0.44416 0.72488
 C549 C 0.03635 1.12312 0.82756
 C550 C 0.04494 1.09888 0.81643
 C551 C 0.03979 1.09301 0.78867
 C552 C 0.02549 1.11127 0.77272
 C553 C 0.01680 1.13532 0.78403
 C554 C 0.02234 1.14166 0.81149
 C555 C 0.04948 1.06923 0.77723
 C556 C 0.06454 1.05142 0.79316
 C557 C 0.06896 1.05701 0.82110
 C558 C 0.05904 1.08063 0.83259
 C559 C 0.08366 1.03901 0.83699
 C560 C 0.09538 1.01647 0.82499
 C561 C 0.09287 1.01164 0.79689
 C562 C 0.07603 1.02847 0.78142
 H563 H 0.04132 1.12776 0.84861
 H564 H 0.02117 1.10703 0.75145
 H565 H 0.00562 1.14892 0.77124
 H566 H 0.04594 1.06491 0.75581
 H567 H 0.06278 1.08504 0.85396
 H568 H 0.08663 1.04264 0.85859
 H569 H 0.10665 1.00312 0.83785
 H570 H 0.07229 1.02419 0.76017
 C571 C 0.54256 0.64268 0.29646
 C572 C 0.55226 0.61838 0.28635
 C573 C 0.54276 0.59500 0.29833
 C574 C 0.52309 0.59628 0.31961
 C575 C 0.51403 0.62052 0.32989
 C576 C 0.52413 0.64387 0.31883
 C577 C 0.55392 0.57081 0.28965
 C578 C 0.57509 0.56974 0.26972
 C579 C 0.58410 0.59302 0.25727
 C580 C 0.57234 0.61716 0.26538
 C581 C 0.60564 0.59189 0.23773
 C582 C 0.61897 0.56812 0.23148
 C583 C 0.61064 0.54503 0.24426
 C584 C 0.58829 0.54587 0.26295
 H585 H 0.55060 0.66064 0.28799
 H586 H 0.51547 0.57858 0.32891
 H587 H 0.49952 0.62108 0.34695
 H588 H 0.54699 0.55295 0.29919
 H589 H 0.57965 0.63505 0.25618
 H590 H 0.61287 0.60952 0.22802
 H591 H 0.63651 0.56814 0.21739
 H592 H 0.58194 0.52828 0.27315
 C593 C 0.55481 0.37188 0.20818
 C594 C 0.56694 0.39699 0.20902
 C595 C 0.58015 0.40680 0.18549
 C596 C 0.58050 0.39172 0.16144
 C597 C 0.56851 0.36685 0.16080
 C598 C 0.55596 0.35646 0.18419
 C599 C 0.59323 0.43135 0.18640
 C600 C 0.59354 0.44623 0.21061
 C601 C 0.57992 0.43675 0.23406
 C602 C 0.56658 0.41223 0.23309
 C603 C 0.58061 0.45168 0.25827
 C604 C 0.59520 0.47541 0.25938
 C605 C 0.60901 0.48480 0.23625
 C606 C 0.60801 0.47013 0.21190
 H607 H 0.54522 0.36408 0.22634
 H608 H 0.59028 0.39905 0.14317
 H609 H 0.56901 0.35569 0.14185
 H610 H 0.60362 0.43866 0.16840
 H611 H 0.55643 0.40482 0.25117
 H612 H 0.57050 0.44469 0.27652
 H613 H 0.59661 0.48587 0.27867
 H614 H 0.61915 0.47669 0.19410
 C615 C 0.03044 0.86455 0.69785
 C616 C 0.04354 0.88765 0.70751
 C617 C 0.06121 0.90188 0.68992
 C618 C 0.06427 0.89376 0.66276
 C619 C 0.05098 0.87109 0.65328
 C620 C 0.03471 0.85569 0.67081
 C621 C 0.07605 0.92373 0.69980
 C622 C 0.07342 0.93174 0.72707
 C623 C 0.05466 0.91851 0.74443
 C624 C 0.03988 0.89645 0.73457
 C625 C 0.05168 0.92720 0.77156
 C626 C 0.06801 0.94805 0.78158
 C627 C 0.08778 0.96023 0.76478
 C628 C 0.09000 0.95231 0.73741
 H629 H 0.01786 0.85306 0.71162
 H630 H 0.07727 0.90475 0.64889
 H631 H 0.05376 0.86549 0.63209
 H632 H 0.09013 0.93416 0.68639
 H633 H 0.02606 0.88585 0.74807
 H634 H 0.03725 0.91750 0.78516
 H635 H 0.06608 0.95394 0.80278
 H636 H 0.10540 0.96124 0.72430
 C637 C 0.94972 0.64177 0.68888
 C638 C 0.93632 0.61872 0.69712
 C639 C 0.90665 0.61658 0.69490
 C640 C 0.89086 0.63773 0.68524
 C641 C 0.90435 0.66058 0.67714
 C642 C 0.93389 0.66270 0.67845
 C643 C 0.89324 0.59327 0.70210
 C644 C 0.90906 0.57220 0.71193
 C645 C 0.93864 0.57449 0.71481
 C646 C 0.95213 0.59768 0.70719
 C647 C 0.95417 0.55349 0.72531
 C648 C 0.94043 0.53067 0.73336
 C649 C 0.91107 0.52841 0.73075
 C650 C 0.89566 0.54895 0.71926
 H651 H 0.97250 0.64331 0.69024
 H652 H 0.86810 0.63644 0.68351
 H653 H 0.89173 0.67625 0.66885
 H654 H 0.87050 0.59157 0.70016
 H655 H 0.97487 0.59936 0.70910
 H656 H 0.97687 0.55484 0.72759
 H657 H 0.95281 0.51491 0.74171
 H658 H 0.87305 0.54697 0.71645
 C659 C 0.46760 0.14549 0.24788
 C660 C 0.45144 0.12507 0.25848
 C661 C 0.42246 0.12921 0.26410
 C662 C 0.41047 0.15396 0.26011
 C663 C 0.42658 0.17402 0.24911
 C664 C 0.45507 0.16980 0.24217
 C665 C 0.40566 0.10829 0.27247
 C666 C 0.41733 0.08316 0.27473
 C667 C 0.44651 0.07919 0.27007
 C668 C 0.46346 0.10024 0.26226
 C669 C 0.45799 0.05396 0.27219
 C670 C 0.44053 0.03272 0.27778
 C671 C 0.41141 0.03640 0.28161
 C672 C 0.40003 0.06173 0.28047
 H673 H 0.48966 0.14211 0.24300
 H674 H 0.38832 0.15748 0.26441
 H675 H 0.41627 0.19241 0.24470
 H676 H 0.38330 0.11136 0.27618
 H677 H 0.48571 0.09707 0.25806
 H678 H 0.48029 0.05052 0.26863
 H679 H 0.44969 0.01330 0.27800
 H680 H 0.37760 0.06480 0.28302
 C681 C 0.31409 0.42809 -0.14338
 C682 C 0.30083 0.41984 -0.11958
 C683 C 0.28342 0.43741 -0.10456
 C684 C 0.27895 0.46279 -0.11418
 C685 C 0.29229 0.47087 -0.13799
 C686 C 0.31034 0.45373 -0.15247
 C687 C 0.27124 0.42945 -0.08000
 C688 C 0.27640 0.40419 -0.07031
 C689 C 0.29330 0.38651 -0.08584
 C690 C 0.30530 0.39442 -0.11035
 C691 C 0.29842 0.36128 -0.07638
 C692 C 0.28738 0.35370 -0.05152
 C693 C 0.27097 0.37113 -0.03574
 C694 C 0.26537 0.39636 -0.04518
 H695 H 0.32768 0.41465 -0.15469
 H696 H 0.26559 0.47652 -0.10303
 H697 H 0.28923 0.49078 -0.14462
 H698 H 0.25817 0.44301 -0.06826
 H699 H 0.31856 0.38093 -0.12199
 H700 H 0.31127 0.34751 -0.08804
 H701 H 0.29196 0.33420 -0.04438
 H702 H 0.25285 0.40991 -0.03295
 C703 C 0.78211 0.96099 0.34211
 C704 C 0.77373 0.95580 0.36886
 C705 C 0.78493 0.97080 0.39077
 C706 C 0.80326 0.99159 0.38535
 C707 C 0.81160 0.99656 0.35863
 C708 C 0.80175 0.98084 0.33688
 C709 C 0.77842 0.96417 0.41768
 C710 C 0.76112 0.94254 0.42290
 C711 C 0.74901 0.92832 0.40090
 C712 C 0.75522 0.93513 0.37406
 C713 C 0.73146 0.90699 0.40606
 C714 C 0.72700 0.89897 0.43268
 C715 C 0.74014 0.91196 0.45464
 C716 C 0.75641 0.93434 0.44969
 H717 H 0.77416 0.94897 0.32541
 H718 H 0.81190 1.00344 0.40183
 H719 H 0.82688 1.01186 0.35511
 H720 H 0.78756 0.97527 0.43450
 H721 H 0.74639 0.92380 0.35725
 H722 H 0.72168 0.89611 0.38946
 H723 H 0.71372 0.88218 0.43572
 H724 H 0.76582 0.94506 0.46658
 C725 C 0.80069 0.04010 1.11743
 C726 C 0.79402 0.05338 1.09340
 C727 C 0.81593 0.06393 1.07750
 C728 C 0.84400 0.06054 1.08532
 C729 C 0.85051 0.04721 1.10894
 C730 C 0.82910 0.03683 1.12566
 C731 C 0.80954 0.07823 1.05427
 C732 C 0.78143 0.08229 1.04668
 C733 C 0.75937 0.07107 1.06191
 C734 C 0.76580 0.05657 1.08515
 C735 C 0.73125 0.07533 1.05406
 C736 C 0.72512 0.09156 1.03218
 C737 C 0.74698 0.10355 1.01780
 C738 C 0.77509 0.09833 1.02470
 H739 H 0.78366 0.03178 1.12913
 H740 H 0.86102 0.06865 1.07340
 H741 H 0.87254 0.04641 1.11462
 H742 H 0.82645 0.08673 1.04245
 H743 H 0.74888 0.04833 1.09712
 H744 H 0.71402 0.06685 1.06538
 H745 H 0.70329 0.09561 1.02719
 H746 H 0.79212 0.10771 1.01393
 C747 C 0.30331 0.54416 0.64528
 C748 C 0.28928 0.55847 0.62526
 C749 C 0.27947 0.58409 0.63140
 C750 C 0.28306 0.59462 0.65769
 C751 C 0.29706 0.58025 0.67749
 C752 C 0.30777 0.55509 0.67140
 C753 C 0.26691 0.59900 0.61100
 C754 C 0.26436 0.58874 0.58445
 C755 C 0.27341 0.56284 0.57852
 C756 C 0.28567 0.54782 0.59899
 C757 C 0.27085 0.55270 0.55196
 C758 C 0.26056 0.56842 0.53124
 C759 C 0.25244 0.59444 0.53675
 C760 C 0.25383 0.60431 0.56352
 H761 H 0.31172 0.52493 0.64015
 H762 H 0.27545 0.61413 0.66282
 H763 H 0.29966 0.58895 0.69759
 H764 H 0.25984 0.61883 0.61561
 H765 H 0.29307 0.52811 0.59430
 H766 H 0.27759 0.53287 0.54704
 H767 H 0.25986 0.56043 0.51070
 H768 H 0.24768 0.62427 0.56810
 C769 C 0.18887 0.53843 0.36888
 C770 C 0.20189 0.55251 0.39016
 C771 C 0.22485 0.56918 0.38449
 C772 C 0.23463 0.57116 0.35768
 C773 C 0.22143 0.55719 0.33658
 C774 C 0.19826 0.54092 0.34190
 C775 C 0.23740 0.58386 0.40561
 C776 C 0.22717 0.58217 0.43231
 C777 C 0.20443 0.56524 0.43804
 C778 C 0.19200 0.55046 0.41695
 C779 C 0.19430 0.56359 0.46476
 C780 C 0.20638 0.57877 0.48557
 C781 C 0.22868 0.59582 0.47997
 C782 C 0.23913 0.59738 0.45336
 H783 H 0.17129 0.52565 0.37330
 H784 H 0.25219 0.58385 0.35296
 H785 H 0.22888 0.55969 0.31596
 H786 H 0.25488 0.59679 0.40121
 H787 H 0.17442 0.53763 0.42132
 H788 H 0.17693 0.55069 0.46953
 H789 H 0.19818 0.57736 0.50607
 H790 H 0.25627 0.61061 0.44888
 C791 C 0.66344 0.06394 0.85709
 C792 C 0.67537 0.07094 0.88223
 C793 C 0.68201 0.05147 0.90119
 C794 C 0.67645 0.02521 0.89459
 C795 C 0.66435 0.01831 0.86950
 C796 C 0.65741 0.03755 0.85023
 C797 C 0.69422 0.05859 0.92632
 C798 C 0.69996 0.08500 0.93253
 C799 C 0.69315 0.10442 0.91338
 C800 C 0.68091 0.09728 0.88846
 C801 C 0.69903 0.13075 0.91925
 C802 C 0.71201 0.13783 0.94365
 C803 C 0.71897 0.11882 0.96273
 C804 C 0.71282 0.09239 0.95730
 H805 H 0.65998 0.07931 0.84260
 H806 H 0.68123 0.00995 0.90893
 H807 H 0.65951 -0.00214 0.86599
 H808 H 0.69943 0.04362 0.94088
 H809 H 0.67583 0.11224 0.87385
 H810 H 0.69397 0.14582 0.90480
 H811 H 0.71692 0.15826 0.94755
 H812 H 0.71858 0.07768 0.97190
 C813 C 0.67847 0.97614 0.62521
 C814 C 0.69454 0.96367 0.60467
 C815 C 0.71318 0.94312 0.61150
 C816 C 0.71630 0.93612 0.63876
 C817 C 0.70029 0.94862 0.65903
 C818 C 0.68084 0.96834 0.65243
 C819 C 0.72768 0.92928 0.59092
 C820 C 0.72346 0.93541 0.56355
 C821 C 0.70575 0.95663 0.55668
 C822 C 0.69157 0.97080 0.57734
 C823 C 0.70149 0.96247 0.52918
 C824 C 0.71322 0.94642 0.50870
 C825 C 0.72967 0.92464 0.51550
 C826 C 0.73540 0.91967 0.54289
 H827 H 0.66376 0.99156 0.62000
 H828 H 0.73059 0.92050 0.64433
 H829 H 0.70236 0.94219 0.67980
 H830 H 0.74141 0.91309 0.59615
 H831 H 0.67743 0.98667 0.57207
 H832 H 0.68805 0.97868 0.52351
 H833 H 0.70812 0.95016 0.48766
 H834 H 0.74765 0.90254 0.54820
 C835 C 0.20016 0.45020 0.12612
 C836 C 0.21559 0.43822 0.10488
 C837 C 0.24320 0.42886 0.10988
 C838 C 0.25528 0.43255 0.13567
 C839 C 0.23973 0.44435 0.15672
 C840 C 0.21183 0.45278 0.15237
 C841 C 0.25788 0.41513 0.08935
 C842 C 0.24507 0.41011 0.06409
 C843 C 0.21789 0.42028 0.05868
 C844 C 0.20342 0.43452 0.07905
 C845 C 0.20517 0.41501 0.03338
 C846 C 0.21854 0.39850 0.01431
 C847 C 0.24483 0.38729 0.02019
 C848 C 0.25843 0.39388 0.04470
 H849 H 0.17859 0.45637 0.12249
 H850 H 0.27652 0.42573 0.13976
 H851 H 0.24945 0.44661 0.17656
 H852 H 0.27881 0.40742 0.09341
 H853 H 0.18230 0.44183 0.07514
 H854 H 0.18442 0.42274 0.02881
 H855 H 0.20774 0.39348 -0.00448
 H856 H 0.27873 0.38535 0.04948
 C857 C -0.11860 0.30618 0.43626
 C858 C -0.09483 0.29743 0.42139
 C859 C -0.08005 0.31523 0.40487
 C860 C -0.08867 0.34143 0.40398
 C861 C -0.11247 0.34979 0.41836
 C862 C -0.12790 0.33223 0.43417
 C863 C -0.05733 0.30652 0.38887
 C864 C -0.04925 0.28014 0.38881
 C865 C -0.06346 0.26230 0.40564
 C866 C -0.08612 0.27109 0.42197
 C867 C -0.05508 0.23590 0.40531
 C868 C -0.03312 0.22730 0.38822
 C869 C -0.01918 0.24495 0.37134
 C870 C -0.02747 0.27131 0.37166
 H871 H -0.13056 0.29257 0.44836
 H872 H -0.07746 0.35531 0.39157
 H873 H -0.11923 0.36999 0.41676
 H874 H -0.04631 0.32018 0.37600
 H875 H -0.09732 0.25737 0.43460
 H876 H -0.06569 0.22187 0.41800
 H877 H -0.02721 0.20679 0.38793
 H878 H -0.01755 0.28503 0.35824
 C879 C 0.37647 0.81011 0.96176
 C880 C 0.40036 0.80076 0.94760
 C881 C 0.42653 0.81373 0.95082
 C882 C 0.42854 0.83530 0.96874
 C883 C 0.40465 0.84461 0.98254
 C884 C 0.37827 0.83248 0.97882
 C885 C 0.45004 0.80545 0.93550
 C886 C 0.44762 0.78465 0.91662
 C887 C 0.42165 0.77124 0.91389
 C888 C 0.39826 0.77924 0.92955
 C889 C 0.41923 0.75061 0.89481
 C890 C 0.44194 0.74400 0.87785
 C891 C 0.46749 0.75767 0.87996
 C892 C 0.47043 0.77766 0.89968
 H893 H 0.35623 0.80072 0.95851
 H894 H 0.44845 0.84536 0.97162
 H895 H 0.40672 0.86158 0.99592
 H896 H 0.46996 0.81571 0.93766
 H897 H 0.37824 0.76923 0.92709
 H898 H 0.39951 0.74013 0.89242
 H899 H 0.43906 0.72883 0.86246
 H900 H 0.49011 0.78837 0.90115
 C901 C 1.16123 0.79981 0.06795
 C902 C 1.13636 0.79202 0.08118
 C903 C 1.12373 0.80896 0.10086
 C904 C 1.13659 0.83287 0.10765
 C905 C 1.16147 0.84023 0.09474
 C906 C 1.17372 0.82396 0.07468
 C907 C 1.09834 0.80188 0.11331
 C908 C 1.08559 0.77786 0.10679
 C909 C 1.09860 0.76045 0.08790
 C910 C 1.12379 0.76774 0.07498
 C911 C 1.08608 0.73610 0.08225
 C912 C 1.06091 0.72914 0.09516
 C913 C 1.04750 0.74661 0.11342
 C914 C 1.05999 0.77100 0.11901
 H915 H 1.17075 0.78731 0.05238
 H916 H 1.12726 0.84599 0.12276
 H917 H 1.17088 0.85898 0.09992
 H918 H 1.08852 0.81507 0.12809
 H919 H 1.13358 0.75457 0.06017
 H920 H 1.09575 0.72241 0.06792
 H921 H 1.05172 0.71028 0.09038
 H922 H 1.05002 0.78483 0.13287
 C923 C 0.64647 0.32177 0.53159
 C924 C 0.62452 0.31108 0.54703
 C925 C 0.62929 0.30514 0.57465
 C926 C 0.65602 0.30932 0.58612
 C927 C 0.67781 0.31963 0.57052
 C928 C 0.67317 0.32622 0.54328
 C929 C 0.60730 0.29508 0.59037
 C930 C 0.58080 0.29027 0.57869
 C931 C 0.57612 0.29554 0.55091
 C932 C 0.59795 0.30624 0.53532
 C933 C 0.54975 0.28977 0.53922
 C934 C 0.52846 0.27836 0.55478
 C935 C 0.53318 0.27303 0.58225
 C936 C 0.55904 0.27970 0.59428
 H937 H 0.64285 0.32660 0.51049
 H938 H 0.66003 0.30476 0.60722
 H939 H 0.69814 0.32313 0.57996
 H940 H 0.61092 0.29071 0.61160
 H941 H 0.59434 0.31053 0.51407
 H942 H 0.54575 0.29372 0.51798
 H943 H 0.50842 0.27373 0.54533
 H944 H 0.56255 0.27573 0.61562
 C945 C 0.35695 0.19211 0.54989
 C946 C 0.37946 0.20771 0.55923
 C947 C 0.37477 0.22657 0.58020
 C948 C 0.34759 0.22995 0.59100
 C949 C 0.32541 0.21417 0.58181
 C950 C 0.32991 0.19485 0.56151
 C951 C 0.39745 0.24121 0.59062
 C952 C 0.42488 0.23684 0.58077
 C953 C 0.42954 0.21835 0.55943
 C954 C 0.40674 0.20411 0.54859
 C955 C 0.45711 0.21369 0.55002
 C956 C 0.47994 0.22640 0.56242
 C957 C 0.47550 0.24428 0.58397
 C958 C 0.44792 0.24984 0.59276
 H959 H 0.36075 0.17711 0.53441
 H960 H 0.34358 0.24443 0.60695
 H961 H 0.30469 0.21695 0.59076
 H962 H 0.39388 0.25538 0.60700
 H963 H 0.41038 0.18964 0.53251
 H964 H 0.46109 0.19959 0.53371
 H965 H 0.50117 0.22166 0.55571
 H966 H 0.44438 0.26320 0.60979
 C967 C 0.87224 0.68787 0.04586
 C968 C 0.89394 0.69647 0.06328
 C969 C 0.88891 0.69853 0.09163
 C970 C 0.86206 0.69284 0.10194
 C971 C 0.84046 0.68478 0.08441
 C972 C 0.84546 0.68190 0.05636
 C973 C 0.91077 0.70617 0.10923
 C974 C 0.93745 0.71237 0.09884
 C975 C 0.94226 0.71125 0.07045
 C976 C 0.92057 0.70301 0.05285
 C977 C 0.96870 0.71855 0.06017
 C978 C 0.99015 0.72683 0.07786
 C979 C 0.98568 0.72727 0.10606
 C980 C 0.95936 0.71990 0.11643
 H981 H 0.87607 0.68585 0.02417
 H982 H 0.85780 0.69447 0.12357
 H983 H 0.81999 0.68009 0.09284
 H984 H 0.90699 0.70741 0.13099
 H985 H 0.92435 0.70180 0.03109
 H986 H 0.97269 0.71810 0.03845
 H987 H 1.01009 0.73288 0.06938
 H988 H 0.95582 0.72046 0.13824
 C989 C 0.64039 0.70606 0.93463
 C990 C 0.61394 0.71489 0.92577
 C991 C 0.58972 0.71087 0.94195
 C992 C 0.59250 0.69817 0.96686
 C993 C 0.61881 0.68871 0.97516
 C994 C 0.64302 0.69221 0.95899
 C995 C 0.56309 0.71891 0.93261
 C996 C 0.56031 0.73011 0.90687
 C997 C 0.58465 0.73395 0.89068
 C998 C 0.61130 0.72680 0.90045
 C999 C 0.58187 0.74408 0.86454
 C1000 C 0.55521 0.74983 0.85423
 C1001 C 0.53101 0.74644 0.87019
 C1002 C 0.53356 0.73674 0.89658
 H1003 H 0.65884 0.70949 0.92216
 H1004 H 0.57417 0.69481 0.97952
 H1005 H 0.61992 0.67784 0.99382
 H1006 H 0.54447 0.71572 0.94498
 H1007 H 0.62987 0.72966 0.88792
 H1008 H 0.60025 0.74689 0.85178
 H1009 H 0.55348 0.75679 0.83361
 H1010 H 0.51479 0.73349 0.90865
 C1011 C 0.13579 0.17544 0.44508
 C1012 C 0.11226 0.18646 0.43223
 C1013 C 0.08827 0.19375 0.44780
 C1014 C 0.08821 0.18982 0.47595
 C1015 C 0.11154 0.17845 0.48852
 C1016 C 0.13547 0.17114 0.47322
 C1017 C 0.06461 0.20455 0.43497
 C1018 C 0.06444 0.20771 0.40669
 C1019 C 0.08839 0.20024 0.39110
 C1020 C 0.11221 0.18988 0.40399
 C1021 C 0.08800 0.20306 0.36279
 C1022 C 0.06402 0.21294 0.35002
 C1023 C 0.04020 0.22026 0.36532
 C1024 C 0.04057 0.21794 0.39368
 H1025 H 0.15406 0.16955 0.43312
 H1026 H 0.07002 0.19529 0.48821
 H1027 H 0.11099 0.17547 0.51027
 H1028 H 0.04622 0.21014 0.44693
 H1029 H 0.13056 0.18418 0.39202
 H1030 H 0.10612 0.19744 0.35052
 H1031 H 0.06402 0.21478 0.32810
 H1032 H 0.02235 0.22382 0.40563
 C1033 C 0.55354 0.11895 0.67683
 C1034 C 0.54195 0.14228 0.66722
 C1035 C 0.51616 0.15182 0.67801
 C1036 C 0.50247 0.13774 0.69838
 C1037 C 0.51446 0.11467 0.70822
 C1038 C 0.54023 0.10513 0.69770
 C1039 C 0.50465 0.17531 0.66837
 C1040 C 0.51887 0.18944 0.64831
 C1041 C 0.54481 0.17984 0.63778
 C1042 C 0.55605 0.15630 0.64715
 C1043 C 0.55907 0.19382 0.61781
 C1044 C 0.54780 0.21710 0.60823
 C1045 C 0.52224 0.22702 0.61862
 C1046 C 0.50761 0.21295 0.63843
 H1047 H 0.57305 0.11160 0.66799
 H1048 H 0.48271 0.14474 0.70697
 H1049 H 0.50384 0.10463 0.72449
 H1050 H 0.48480 0.18262 0.67655
 H1051 H 0.57589 0.14897 0.63894
 H1052 H 0.57880 0.18657 0.60935
 H1053 H 0.55889 0.22686 0.59212
 H1054 H 0.48745 0.22016 0.64591
 C1055 C 1.05573 0.59797 0.20277
 C1056 C 1.04664 0.61911 0.18715
 C1057 C 1.04653 0.61672 0.15843
 C1058 C 1.05445 0.59293 0.14591
 C1059 C 1.06354 0.57201 0.16161
 C1060 C 1.06486 0.57452 0.19010
 C1061 C 1.03922 0.63834 0.14269
 C1062 C 1.03214 0.66234 0.15531
 C1063 C 1.03123 0.66444 0.18402
 C1064 C 1.03846 0.64281 0.19977
 C1065 C 1.02333 0.68827 0.19648
 C1066 C 1.01729 0.71005 0.18068
 C1067 C 1.01970 0.70852 0.15224
 C1068 C 1.02634 0.68439 0.13967
 H1069 H 1.05640 0.59996 0.22476
 H1070 H 1.05437 0.59073 0.12394
 H1071 H 1.07072 0.55424 0.15139
 H1072 H 1.03963 0.63665 0.12066
 H1073 H 1.03826 0.64457 0.22180
 H1074 H 1.02195 0.69011 0.21844
 H1075 H 1.01081 0.72792 0.19092
 H1076 H 1.02697 0.68271 0.11769
 C1077 C 0.93837 0.87143 0.19582
 C1078 C 0.94801 0.84856 0.18237
 C1079 C 0.93400 0.83943 0.15863
 C1080 C 0.91094 0.85341 0.14855
 C1081 C 0.90173 0.87624 0.16180
 C1082 C 0.91511 0.88545 0.18568
 C1083 C 0.94334 0.81660 0.14518
 C1084 C 0.96679 0.80287 0.15489
 C1085 C 0.98111 0.81207 0.17839
 C1086 C 0.97150 0.83476 0.19213
 C1087 C 1.00510 0.79861 0.18743
 C1088 C 1.01473 0.77629 0.17331
 C1089 C 1.00020 0.76672 0.15033
 C1090 C 0.97637 0.78027 0.14112
 H1091 H 0.94880 0.87814 0.21427
 H1092 H 0.90015 0.84681 0.13024
 H1093 H 0.88427 0.88691 0.15305
 H1094 H 0.93249 0.80962 0.12702
 H1095 H 0.98245 0.84181 0.21019
 H1096 H 1.01664 0.80555 0.20516
 H1097 H 1.03385 0.76674 0.18008
 H1098 H 0.96554 0.77374 0.12286
 C1099 C 0.44760 0.38589 0.69088
 C1100 C 0.45685 0.36581 0.67301
 C1101 C 0.45372 0.36878 0.64462
 C1102 C 0.44166 0.39175 0.63459
 C1103 C 0.43251 0.41156 0.65247
 C1104 C 0.43525 0.40888 0.68076
 C1105 C 0.46251 0.34872 0.62667
 C1106 C 0.47446 0.32568 0.63668
 C1107 C 0.47789 0.32269 0.66503
 C1108 C 0.46904 0.34279 0.68304
 C1109 C 0.49017 0.29963 0.67482
 C1110 C 0.49881 0.27969 0.65669
 C1111 C 0.49501 0.28247 0.62862
 C1112 C 0.48304 0.30554 0.61873
 H1113 H 0.45008 0.38367 0.71264
 H1114 H 0.43904 0.39429 0.61289
 H1115 H 0.42266 0.42880 0.64411
 H1116 H 0.45997 0.35100 0.60490
 H1117 H 0.47155 0.34048 0.70480
 H1118 H 0.49317 0.29705 0.69645
 H1119 H 0.50854 0.26226 0.66465
 H1120 H 0.48037 0.30779 0.59698
 C1121 C 0.45689 0.60475 0.79405
 C1122 C 0.46632 0.62773 0.80727
 C1123 C 0.47057 0.62791 0.83577
 C1124 C 0.46655 0.60491 0.85033
 C1125 C 0.45704 0.58223 0.83706
 C1126 C 0.45137 0.58207 0.80898
 C1127 C 0.47799 0.65123 0.84939
 C1128 C 0.48110 0.67443 0.83493
 C1129 C 0.47798 0.67413 0.80633
 C1130 C 0.47062 0.65075 0.79265
 C1131 C 0.48198 0.69733 0.79198
 C1132 C 0.48809 0.72076 0.80594
 C1133 C 0.48953 0.72142 0.83444
 C1134 C 0.48683 0.69807 0.84874
 H1135 H 0.45242 0.60496 0.77243
 H1136 H 0.47004 0.60464 0.87211
 H1137 H 0.45347 0.56489 0.84892
 H1138 H 0.48070 0.65144 0.87131
 H1139 H 0.46767 0.65061 0.77076
 H1140 H 0.48032 0.69738 0.77000
 H1141 H 0.49182 0.73814 0.79433
 H1142 H 0.48871 0.69839 0.87073
 C1143 C -0.05736 0.09934 0.27516
 C1144 C -0.04204 0.11979 0.28748
 C1145 C -0.01719 0.11411 0.30218
 C1146 C -0.00796 0.08806 0.30399
 C1147 C -0.02338 0.06779 0.29163
 C1148 C -0.04827 0.07318 0.27718
 C1149 C -0.00221 0.13448 0.31509
 C1150 C -0.01189 0.16044 0.31362
 C1151 C -0.03659 0.16612 0.29866
 C1152 C -0.05145 0.14578 0.28562
 C1153 C -0.04633 0.19205 0.29742
 C1154 C -0.03207 0.21209 0.31134
 C1155 C -0.00777 0.20657 0.32643
 C1156 C 0.00238 0.18075 0.32738
 H1157 H -0.07679 0.10379 0.26454
 H1158 H 0.01109 0.08336 0.31508
 H1159 H -0.01573 0.04788 0.29326
 H1160 H 0.01673 0.13011 0.32655
 H1161 H -0.07052 0.15013 0.27434
 H1162 H -0.06524 0.19675 0.28609
 H1163 H -0.04030 0.23188 0.31072
 H1164 H 0.02086 0.17623 0.33937
 C1165 C 0.06764 0.37043 0.28168
 C1166 C 0.05937 0.34814 0.29602
 C1167 C 0.06210 0.34796 0.32468
 C1168 C 0.07258 0.37007 0.33853
 C1169 C 0.08045 0.39218 0.32419
 C1170 C 0.07818 0.39261 0.29569
 C1171 C 0.05425 0.32574 0.33913
 C1172 C 0.04316 0.30382 0.32540
 C1173 C 0.03994 0.30400 0.29680
 C1174 C 0.04832 0.32609 0.28224
 C1175 C 0.02814 0.28213 0.28337
 C1176 C 0.01905 0.26059 0.29820
 C1177 C 0.02188 0.26057 0.32659
 C1178 C 0.03469 0.28187 0.33996
 H1179 H 0.06565 0.37065 0.25971
 H1180 H 0.07479 0.37024 0.36048
 H1181 H 0.08891 0.40885 0.33539
 H1182 H 0.05646 0.32564 0.36110
 H1183 H 0.04599 0.32622 0.26029
 H1184 H 0.02559 0.28184 0.26146
 H1185 H 0.00973 0.24409 0.28747
 H1186 H 0.03717 0.28170 0.36190
 C1187 C 0.52700 0.89546 0.78488
 C1188 C 0.52292 0.87274 0.80014
 C1189 C 0.53806 0.86957 0.82470
 C1190 C 0.55591 0.88952 0.83423
 C1191 C 0.55934 0.91219 0.81927
 C1192 C 0.54535 0.91516 0.79437
 C1193 C 0.53545 0.84639 0.83923
 C1194 C 0.51749 0.82647 0.82988
 C1195 C 0.50118 0.83005 0.80616
 C1196 C 0.50423 0.85307 0.79123
 C1197 C 0.48203 0.81052 0.79795
 C1198 C 0.47977 0.78740 0.81265
 C1199 C 0.49754 0.78299 0.83492
 C1200 C 0.51564 0.80296 0.84397
 H1201 H 0.51614 0.89780 0.76566
 H1202 H 0.56748 0.88745 0.85308
 H1203 H 0.57374 0.92713 0.82671
 H1204 H 0.54755 0.84379 0.85773
 H1205 H 0.49216 0.85564 0.77271
 H1206 H 0.46870 0.81320 0.78031
 H1207 H 0.46417 0.77304 0.80656
 H1208 H 0.52829 0.80029 0.86207
 C1209 C 0.70625 0.55282 0.09384
 C1210 C 0.69023 0.54363 0.11571
 C1211 C 0.66059 0.54226 0.11349
 C1212 C 0.64759 0.54903 0.08912
 C1213 C 0.66352 0.55849 0.06755
 C1214 C 0.69324 0.56163 0.06960
 C1215 C 0.64434 0.53479 0.13588
 C1216 C 0.65741 0.52896 0.16062
 C1217 C 0.68717 0.52944 0.16266
 C1218 C 0.70342 0.53654 0.14010
 C1219 C 0.70011 0.52362 0.18752
 C1220 C 0.68366 0.51817 0.21035
 C1221 C 0.65413 0.51831 0.20856
 C1222 C 0.64112 0.52342 0.18360
 H1223 H 0.72894 0.55259 0.09606
 H1224 H 0.62484 0.54795 0.08705
 H1225 H 0.65159 0.56511 0.05028
 H1226 H 0.62150 0.53422 0.13427
 H1227 H 0.72624 0.53739 0.14183
 H1228 H 0.72289 0.52389 0.18946
 H1229 H 0.69408 0.51451 0.22949
 H1230 H 0.61827 0.52388 0.18232
 C1231 C 0.19067 1.05177 0.64688
 C1232 C 0.17418 1.04120 0.66780
 C1233 C 0.14442 1.04382 0.66693
 C1234 C 0.13169 1.05712 0.64548
 C1235 C 0.14823 1.06803 0.62518
 C1236 C 0.17773 1.06547 0.62568
 C1237 C 0.12780 1.03336 0.68762
 C1238 C 0.14048 1.02072 0.70952
 C1239 C 0.17017 1.01829 0.71072
 C1240 C 0.18687 1.02840 0.68974
 C1241 C 0.18256 1.00570 0.73289
 C1242 C 0.16567 0.99570 0.75364
 C1243 C 0.13615 0.99809 0.75256
 C1244 C 0.12378 1.01044 0.73026
 H1245 H 0.21347 1.04997 0.64739
 H1246 H 0.10895 1.05933 0.64456
 H1247 H 0.13797 1.07844 0.60890
 H1248 H 0.10500 1.03532 0.68681
 H1249 H 0.20967 1.02647 0.69058
 H1250 H 0.20528 1.00356 0.73418
 H1251 H 0.17584 0.98595 0.77033
 H1252 H 0.10110 1.01136 0.72842
 C1253 C 0.20894 0.92906 0.90743
 C1254 C 0.19608 0.94187 0.88563
 C1255 C 0.19842 0.96926 0.88346
 C1256 C 0.21360 0.98338 0.90318
 C1257 C 0.22602 0.97064 0.92510
 C1258 C 0.22405 0.94309 0.92794
 C1259 C 0.18508 0.98214 0.86193
 C1260 C 0.16868 0.96794 0.84302
 C1261 C 0.16625 0.94049 0.84532
 C1262 C 0.18023 0.92761 0.86636
 C1263 C 0.14941 0.92638 0.82682
 C1264 C 0.13417 0.93943 0.80689
 C1265 C 0.13569 0.96677 0.80494
 C1266 C 0.15391 0.98081 0.82236
 H1267 H 0.20519 0.90828 0.90895
 H1268 H 0.21583 1.00443 0.90173
 H1269 H 0.23822 0.98271 0.93898
 H1270 H 0.18682 1.00323 0.86034
 H1271 H 0.17824 0.90654 0.86809
 H1272 H 0.14755 0.90530 0.82812
 H1273 H 0.12113 0.92798 0.79315
 H1274 H 0.15570 1.00186 0.82048
 C1275 C 0.71283 0.45739 0.37387
 C1276 C 0.70323 0.46519 0.34820
 C1277 C 0.70460 0.44739 0.32581
 C1278 C 0.71619 0.42243 0.32925
 C1279 C 0.72542 0.41476 0.35482
 C1280 C 0.72336 0.43192 0.37746
 C1281 C 0.69369 0.45450 0.30051
 C1282 C 0.68087 0.47901 0.29738
 C1283 C 0.68002 0.49709 0.31953
 C1284 C 0.69145 0.49016 0.34474
 C1285 C 0.66692 0.52150 0.31628
 C1286 C 0.65366 0.52743 0.29176
 C1287 C 0.65356 0.50915 0.27011
 C1288 C 0.66786 0.48529 0.27273
 H1289 H 0.71110 0.47073 0.39121
 H1290 H 0.71763 0.40864 0.31227
 H1291 H 0.73405 0.39524 0.35696
 H1292 H 0.69437 0.44065 0.28350
 H1293 H 0.69041 0.50387 0.36184
 H1294 H 0.66619 0.53567 0.33295
 H1295 H 0.64291 0.54605 0.29008
 H1296 H 0.66772 0.47115 0.25600
 C1297 C 0.81578 0.44507 0.60072
 C1298 C 0.82993 0.45741 0.62251
 C1299 C 0.84954 0.47751 0.61729
 C1300 C 0.85424 0.48526 0.59045
 C1301 C 0.84000 0.47294 0.56890
 C1302 C 0.82081 0.45257 0.57371
 C1303 C 0.86435 0.48936 0.63892
 C1304 C 0.85976 0.48139 0.66573
 C1305 C 0.83979 0.46160 0.67103
 C1306 C 0.82502 0.44972 0.64938
 C1307 C 0.83520 0.45383 0.69790
 C1308 C 0.85045 0.46536 0.71929
 C1309 C 0.87051 0.48478 0.71415
 C1310 C 0.87510 0.49271 0.68732
 H1311 H 0.80141 0.42915 0.60479
 H1312 H 0.86905 0.50076 0.58611
 H1313 H 0.84397 0.47942 0.54840
 H1314 H 0.87958 0.50462 0.63487
 H1315 H 0.80990 0.43436 0.65342
 H1316 H 0.81999 0.43869 0.70236
 H1317 H 0.84684 0.45884 0.73982
 H1318 H 0.89095 0.50728 0.68304
 C1319 C 0.32069 -0.04323 0.13724
 C1320 C 0.32701 -0.03361 0.16344
 C1321 C 0.30663 -0.03506 0.18438
 C1322 C 0.28007 -0.04586 0.17853
 C1323 C 0.27410 -0.05582 0.15244
 C1324 C 0.29446 -0.05495 0.13160
 C1325 C 0.31336 -0.02625 0.21087
 C1326 C 0.34044 -0.01649 0.21673
 C1327 C 0.36068 -0.01499 0.19559
 C1328 C 0.35373 -0.02324 0.16911
 C1329 C 0.38788 -0.00587 0.20138
 C1330 C 0.39525 0.00123 0.22791
 C1331 C 0.37545 -0.00008 0.24905
 C1332 C 0.34796 -0.00883 0.24343
 H1333 H 0.33643 -0.04195 0.12130
 H1334 H 0.26416 -0.04719 0.19429
 H1335 H 0.25383 -0.06498 0.14885
 H1336 H 0.29780 -0.02752 0.22698
 H1337 H 0.36940 -0.02222 0.15305
 H1338 H 0.40367 -0.00476 0.18547
 H1339 H 0.41669 0.00746 0.23189
 H1340 H 0.33279 -0.01038 0.25983
 C1341 C 0.28949 0.05193 0.41587
 C1342 C 0.30543 0.03930 0.39536
 C1343 C 0.32548 0.02004 0.40244
 C1344 C 0.32850 0.01306 0.42973
 C1345 C 0.31255 0.02569 0.45000
 C1346 C 0.29327 0.04561 0.44343
 C1347 C 0.34275 0.00858 0.38228
 C1348 C 0.34049 0.01640 0.35515
 C1349 C 0.31978 0.03499 0.34786
 C1350 C 0.30225 0.04622 0.36799
 C1351 C 0.31760 0.04261 0.32065
 C1352 C 0.33679 0.03304 0.30120
 C1353 C 0.35837 0.01574 0.30864
 C1354 C 0.35944 0.00674 0.33542
 H1355 H 0.27501 0.06744 0.41042
 H1356 H 0.34357 -0.00186 0.43547
 H1357 H 0.31549 0.01998 0.47091
 H1358 H 0.35853 -0.00580 0.38783
 H1359 H 0.28674 0.06086 0.36249
 H1360 H 0.30163 0.05657 0.31459
 H1361 H 0.33530 0.03982 0.28051
 H1362 H 0.37572 -0.00687 0.34138
 C1363 C 0.80603 0.56338 0.87457
 C1364 C 0.81815 0.55550 0.84958
 C1365 C 0.82355 0.57439 0.82958
 C1366 C 0.81566 0.60050 0.83431
 C1367 C 0.80327 0.60808 0.85896
 C1368 C 0.79892 0.58984 0.87967
 C1369 C 0.83713 0.56701 0.80529
 C1370 C 0.84520 0.54091 0.80057
 C1371 C 0.83876 0.52173 0.81995
 C1372 C 0.82538 0.52915 0.84444
 C1373 C 0.84634 0.49555 0.81465
 C1374 C 0.86093 0.48865 0.79080
 C1375 C 0.86849 0.50781 0.77204
 C1376 C 0.86018 0.53386 0.77695
 H1377 H 0.80297 0.54902 0.89023
 H1378 H 0.81923 0.61512 0.81900
 H1379 H 0.79715 0.62839 0.86177
 H1380 H 0.84177 0.58166 0.79023
 H1381 H 0.82096 0.51454 0.85958
 H1382 H 0.84140 0.48049 0.82913
 H1383 H 0.86707 0.46841 0.78745
 H1384 H 0.86575 0.54895 0.76294
 C1385 C 0.10825 0.70909 0.55318
 C1386 C 0.12928 0.69384 0.54043
 C1387 C 0.12173 0.67543 0.51989
 C1388 C 0.09342 0.67324 0.51185
 C1389 C 0.07256 0.68824 0.52495
 C1390 C 0.07966 0.70584 0.54615
 C1391 C 0.14242 0.65891 0.50839
 C1392 C 0.17042 0.66018 0.51763
 C1393 C 0.17811 0.67908 0.53764
 C1394 C 0.15754 0.69600 0.54869
 C1395 C 0.20611 0.68022 0.54681
 C1396 C 0.22601 0.66204 0.53714
 C1397 C 0.21825 0.64249 0.51821
 C1398 C 0.19065 0.64222 0.50784
 H1399 H 0.11405 0.72296 0.56917
 H1400 H 0.08729 0.65929 0.49607
 H1401 H 0.05071 0.68523 0.51925
 H1402 H 0.13654 0.64447 0.49296
 H1403 H 0.16335 0.71021 0.56437
 H1404 H 0.21248 0.69478 0.56188
 H1405 H 0.24742 0.66311 0.54475
 H1406 H 0.18449 0.62764 0.49278
 C1407 C 0.61273 0.20322 1.08119
 C1408 C 0.63175 0.19236 1.06214
 C1409 C 0.62123 0.17945 1.03857
 C1410 C 0.59205 0.17773 1.03436
 C1411 C 0.57332 0.18828 1.05355
 C1412 C 0.58337 0.20102 1.07721
 C1413 C 0.63997 0.16788 1.01986
 C1414 C 0.66910 0.16840 1.02474
 C1415 C 0.67980 0.18141 1.04815
 C1416 C 0.66104 0.19367 1.06655
 C1417 C 0.70899 0.18095 1.05324
 C1418 C 0.72715 0.16678 1.03590
 C1419 C 0.71648 0.15361 1.01287
 C1420 C 0.68753 0.15492 1.00716
 H1421 H 0.62080 0.21334 1.09913
 H1422 H 0.58369 0.16779 1.01645
 H1423 H 0.55088 0.18598 1.05011
 H1424 H 0.63184 0.15776 1.00193
 H1425 H 0.66916 0.20346 1.08468
 H1426 H 0.71759 0.19063 1.07119
 H1427 H 0.74932 0.16530 1.04103
 H1428 H 0.67884 0.14411 0.98999
 C1429 C 0.87982 0.19988 0.92807
 C1430 C 0.85634 0.19163 0.94282
 C1431 C 0.84463 0.20794 0.96336
 C1432 C 0.85772 0.23189 0.96964
 C1433 C 0.88182 0.23975 0.95536
 C1434 C 0.89294 0.22427 0.93361
 C1435 C 0.82018 0.19992 0.97723
 C1436 C 0.80798 0.17539 0.97118
 C1437 C 0.82088 0.15868 0.95146
 C1438 C 0.84466 0.16700 0.93727
 C1439 C 0.80977 0.13381 0.94604
 C1440 C 0.78576 0.12560 0.95962
 C1441 C 0.77203 0.14222 0.97843
 C1442 C 0.78317 0.16715 0.98436
 H1443 H 0.88867 0.18624 0.91322
 H1444 H 0.84923 0.24465 0.98551
 H1445 H 0.89040 0.25881 0.96049
 H1446 H 0.81078 0.21263 0.99269
 H1447 H 0.85408 0.15426 0.92181
 H1448 H 0.81962 0.12072 0.93121
 H1449 H 0.77757 0.10623 0.95501
 H1450 H 0.77266 0.18001 0.99892
 C1451 C 0.38766 0.69125 0.45462
 C1452 C 0.36194 0.68286 0.46534
 C1453 C 0.34003 0.70115 0.47045
 C1454 C 0.34463 0.72774 0.46519
 C1455 C 0.37024 0.73588 0.45388
 C1456 C 0.39173 0.71760 0.44792
 C1457 C 0.31379 0.69244 0.48008
 C1458 C 0.30917 0.66561 0.48416
 C1459 C 0.33132 0.64747 0.47913
 C1460 C 0.35757 0.65624 0.47005
 C1461 C 0.32675 0.62071 0.48275
 C1462 C 0.30046 0.61187 0.49122
 C1463 C 0.27838 0.62959 0.49647
 C1464 C 0.28271 0.65649 0.49283
 H1465 H 0.40431 0.67705 0.45070
 H1466 H 0.32814 0.74209 0.46902
 H1467 H 0.37277 0.75627 0.44880
 H1468 H 0.29687 0.70640 0.48386
 H1469 H 0.37441 0.64223 0.46601
 H1470 H 0.34344 0.60657 0.47882
 H1471 H 0.29741 0.59105 0.49353
 H1472 H 0.26559 0.67022 0.49630
 C1473 C 0.60826 0.79691 0.45467
 C1474 C 0.63383 0.80861 0.46254
 C1475 C 0.65948 0.79983 0.45068
 C1476 C 0.65922 0.77865 0.43215
 C1477 C 0.63365 0.76738 0.42412
 C1478 C 0.60788 0.77690 0.43464
 C1479 C 0.68472 0.81313 0.45652
 C1480 C 0.68445 0.83560 0.47339
 C1481 C 0.65897 0.84370 0.48607
 C1482 C 0.63393 0.82992 0.48091
 C1483 C 0.65862 0.86630 0.50262
 C1484 C 0.68272 0.88177 0.50507
 C1485 C 0.70769 0.87476 0.49129
 C1486 C 0.70882 0.85099 0.47651
 H1487 H 0.58854 0.80456 0.46279
 H1488 H 0.67868 0.77145 0.42307
 H1489 H 0.63395 0.75163 0.40906
 H1490 H 0.70424 0.80681 0.44685
 H1491 H 0.61430 0.83660 0.49012
 H1492 H 0.63936 0.87267 0.51270
 H1493 H 0.68120 0.89977 0.51689
 H1494 H 0.72811 0.84541 0.46598
 C1495 C 0.11651 0.28471 -0.05619
 C1496 C 0.14385 0.29353 -0.04962
 C1497 C 0.16422 0.29587 -0.07053
 C1498 C 0.15740 0.28857 -0.09730
 C1499 C 0.13045 0.27950 -0.10354
 C1500 C 0.10973 0.27778 -0.08322
 C1501 C 0.19093 0.30606 -0.06457
 C1502 C 0.19764 0.31414 -0.03801
 C1503 C 0.17792 0.31082 -0.01676
 C1504 C 0.15110 0.30045 -0.02268
 C1505 C 0.18513 0.31888 0.00981
 C1506 C 0.21084 0.33156 0.01485
 C1507 C 0.22965 0.33629 -0.00656
 C1508 C 0.22332 0.32670 -0.03272
 H1509 H 0.10058 0.28322 -0.04045
 H1510 H 0.17281 0.29017 -0.11349
 H1511 H 0.12552 0.27434 -0.12448
 H1512 H 0.20622 0.30841 -0.08079
 H1513 H 0.13569 0.29842 -0.00653
 H1514 H 0.17043 0.31635 0.02646
 H1515 H 0.21531 0.33897 0.03518
 H1516 H 0.23753 0.33017 -0.04946
 C1517 C 0.39068 0.29540 0.08429
 C1518 C 0.36589 0.30235 0.07071
 C1519 C 0.34062 0.28852 0.07547
 C1520 C 0.34076 0.26786 0.09390
 C1521 C 0.36556 0.26132 0.10776
 C1522 C 0.39072 0.27518 0.10326
 C1523 C 0.31570 0.29581 0.06197
 C1524 C 0.31575 0.31711 0.04425
 C1525 C 0.34117 0.33096 0.03987
 C1526 C 0.36605 0.32329 0.05280
 C1527 C 0.34132 0.35267 0.02299
 C1528 C 0.31649 0.36086 0.01068
 C1529 C 0.29124 0.34714 0.01445
 C1530 C 0.29082 0.32520 0.03120
 H1531 H 0.41003 0.30585 0.08005
 H1532 H 0.32161 0.25703 0.09791
 H1533 H 0.36489 0.24576 0.12240
 H1534 H 0.29627 0.28524 0.06558
 H1535 H 0.38545 0.33398 0.04934
 H1536 H 0.36054 0.36361 0.01965
 H1537 H 0.31705 0.37816 -0.00171
 H1538 H 0.27118 0.31490 0.03448
 C1539 C 0.87751 0.81799 0.54551
 C1540 C 0.85172 0.82769 0.53582
 C1541 C 0.82688 0.81268 0.53856
 C1542 C 0.82838 0.78813 0.55078
 C1543 C 0.85408 0.77879 0.56077
 C1544 C 0.87890 0.79368 0.55848
 C1545 C 0.80093 0.82266 0.52949
 C1546 C 0.79945 0.84764 0.51809
 C1547 C 0.82436 0.86258 0.51535
 C1548 C 0.85033 0.85242 0.52397
 C1549 C 0.82282 0.88772 0.50453
 C1550 C 0.79684 0.89812 0.49675
 C1551 C 0.77203 0.88345 0.49914
 C1552 C 0.77342 0.85817 0.50986
 H1553 H 0.89648 0.82954 0.54314
 H1554 H 0.80957 0.77637 0.55313
 H1555 H 0.85432 0.76020 0.57099
 H1556 H 0.78186 0.81118 0.53170
 H1557 H 0.86936 0.86399 0.52196
 H1558 H 0.84166 0.89951 0.50247
 H1559 H 0.79625 0.91781 0.48915
 H1560 H 0.75430 0.84695 0.51247
   
