data_POSCAR
  _audit_creation_date              2014-09-24
  _audit_creation_method            'ToBaCCo'
  _symmetry_space_group_name_H-M    'P1'
  _symmetry_Int_Tables_number       1
  _symmetry_cell_setting            triclinic
  loop_
  _symmetry_equiv_pos_as_xyz
 x,y,z
_cell_length_a 43.6394
_cell_length_b 43.9081
_cell_length_c 44.3777
_cell_angle_alpha 89.937900
_cell_angle_beta 90.042300
_cell_angle_gamma 90.058400
loop_
  _atom_site_label
  _atom_site_type_symbol
  _atom_site_fract_x
  _atom_site_fract_y
  _atom_site_fract_z
O1 O 0.33372 0.37741 0.02576
 O2 O 0.37767 0.33474 -0.03100
 O3 O 0.33499 0.37631 -0.03285
 O4 O 0.37652 0.33589 0.02759
 O5 O 0.34047 0.30058 0.02815
 O6 O 0.30029 0.33974 -0.03351
 O7 O 0.34270 0.29838 -0.03028
 O8 O 0.29796 0.34180 0.02495
 Cu9 Cu 0.35929 0.35972 -0.00262
 Cu10 Cu 0.31681 0.31654 -0.00268
 C11 C 0.30822 0.36692 0.03489
 C12 C 0.36779 0.30914 -0.04012
 C13 C 0.31061 0.36481 -0.04367
 C14 C 0.36544 0.31138 0.03829
 O15 O 0.65726 0.61746 0.03107
 O16 O 0.61732 0.66123 -0.02766
 O17 O 0.65765 0.61748 -0.02794
 O18 O 0.61756 0.66180 0.03058
 O19 O 0.65540 0.69524 0.03058
 O20 O 0.69521 0.65117 -0.02779
 O21 O 0.65495 0.69489 -0.02779
 O22 O 0.69497 0.65102 0.03079
 Cu23 Cu 0.63375 0.63599 0.00152
 Cu24 Cu 0.67895 0.67640 0.00142
 C25 C 0.68288 0.62681 0.04102
 C26 C 0.62914 0.68573 -0.03748
 C27 C 0.68329 0.62685 -0.03795
 C28 C 0.62956 0.68628 0.04032
 O29 O 0.66447 0.38006 0.96988
 O30 O 0.62145 0.33722 1.02742
 O31 O 0.66418 0.37894 1.02820
 O32 O 0.62144 0.33893 0.96879
 O33 O 0.65622 0.30245 0.96872
 O34 O 0.69980 0.34332 1.02710
 O35 O 0.65723 0.30171 1.02725
 O36 O 0.69925 0.34356 0.96878
 Cu37 Cu 0.63929 0.36237 0.99867
 Cu38 Cu 0.68163 0.31910 0.99791
 C39 C 0.68932 0.36912 0.95965
 C40 C 0.63204 0.31211 1.03711
 C41 C 0.68956 0.36828 1.03748
 C42 C 0.63144 0.31378 0.95872
 O43 O 0.33921 0.61958 0.97373
 O44 O 0.38086 0.66364 1.03156
 O45 O 0.34136 0.61904 1.03236
 O46 O 0.37954 0.66363 0.97280
 O47 O 0.34199 0.69724 0.97423
 O48 O 0.30331 0.65211 1.03287
 O49 O 0.34269 0.69655 1.03305
 O50 O 0.30196 0.65357 0.97459
 Cu51 Cu 0.36407 0.63814 1.00248
 Cu52 Cu 0.31880 0.67829 1.00382
 C53 C 0.31341 0.62912 0.96436
 C54 C 0.36865 0.68752 1.04236
 C55 C 0.31567 0.62782 1.04265
 C56 C 0.36724 0.68803 0.96331
 O57 O -0.03183 0.37555 0.33392
 O58 O 0.02785 0.33485 0.37655
 O59 O 0.02789 0.37566 0.33353
 O60 O -0.03148 0.33470 0.37661
 O61 O -0.03120 0.29793 0.34274
 O62 O 0.02756 0.33904 0.29950
 O63 O 0.02789 0.29849 0.34220
 O64 O -0.03222 0.33860 0.30022
 Cu65 Cu -0.00185 0.35896 0.35852
 Cu66 Cu -0.00199 0.31495 0.31764
 C67 C -0.04237 0.36385 0.30989
 C68 C 0.03774 0.30952 0.36680
 C69 C 0.03787 0.36428 0.30913
 C70 C -0.04121 0.30908 0.36724
 O71 O -0.02751 0.62442 0.66634
 O72 O 0.03229 0.66480 0.62343
 O73 O 0.03209 0.62417 0.66621
 O74 O -0.02727 0.66545 0.62334
 O75 O -0.02643 0.70223 0.65716
 O76 O 0.03216 0.66073 0.70033
 O77 O 0.03297 0.70096 0.65797
 O78 O -0.02747 0.66132 0.70009
 Cu79 Cu 0.00223 0.64101 0.64141
 Cu80 Cu 0.00266 0.68495 0.68232
 C81 C -0.03748 0.63589 0.69069
 C82 C 0.04304 0.68965 0.63360
 C83 C 0.04240 0.63556 0.69051
 C84 C -0.03662 0.69120 0.63265
 O85 O 1.03129 0.61950 0.33694
 O86 O 0.97080 0.65889 0.37931
 O87 O 0.97184 0.61796 0.33689
 O88 O 1.03035 0.66088 0.37926
 O89 O 1.03010 0.69643 0.34408
 O90 O 0.97013 0.65482 0.30304
 O91 O 0.97065 0.69573 0.34540
 O92 O 1.02947 0.65516 0.30187
 Cu93 Cu 1.00122 0.63567 0.36159
 Cu94 Cu 1.00002 0.67919 0.32015
 C95 C 1.04029 0.63030 0.31190
 C96 C 0.96059 0.68417 0.36971
 C97 C 0.96101 0.62914 0.31270
 C98 C 1.04017 0.68608 0.36893
 O99 O 0.96867 0.34232 0.61741
 O100 O 1.02849 0.38494 0.65877
 O101 O 1.02841 0.34353 0.61640
 O102 O 0.96900 0.38558 0.65761
 O103 O 0.97003 0.35104 0.69379
 O104 O 1.02775 0.30750 0.65107
 O105 O 1.02935 0.34866 0.69326
 O106 O 0.96817 0.30794 0.65373
 Cu107 Cu 0.99868 0.36760 0.63394
 Cu108 Cu 0.99887 0.32522 0.67645
 C109 C 0.95798 0.31796 0.62885
 C110 C 1.03897 0.37397 0.68323
 C111 C 1.03808 0.31820 0.62643
 C112 C 0.95963 0.37575 0.68288
 O113 O 0.38015 0.03141 0.33753
 O114 O 0.33870 -0.02874 0.37904
 O115 O 0.38016 -0.02748 0.33677
 O116 O 0.33985 0.03071 0.38117
 O117 O 0.30238 0.03116 0.34773
 O118 O 0.34359 -0.02580 0.30239
 O119 O 0.30243 -0.02802 0.34434
 O120 O 0.34255 0.03311 0.30425
 Cu121 Cu 0.36336 0.00143 0.36215
 Cu122 Cu 0.31897 0.00282 0.32135
 C123 C 0.36848 0.04222 0.31355
 C124 C 0.31365 -0.03894 0.36841
 C125 C 0.36897 -0.03631 0.31184
 C126 C 0.31415 0.04073 0.37216
 O127 O 0.66547 -0.03316 0.62380
 O128 O 0.62306 0.02595 0.66530
 O129 O 0.66485 0.02598 0.62316
 O130 O 0.62315 -0.03332 0.66537
 O131 O 0.65947 -0.03318 0.70004
 O132 O 0.70063 0.02657 0.65835
 O133 O 0.65888 0.02593 0.70045
 O134 O 0.70135 -0.03258 0.65890
 Cu135 Cu 0.64049 -0.00364 0.64089
 Cu136 Cu 0.68369 -0.00317 0.68294
 C137 C 0.69067 -0.04297 0.63437
 C138 C 0.63362 0.03579 0.69014
 C139 C 0.68996 0.03625 0.63348
 C140 C 0.63432 -0.04349 0.68984
 O141 O 0.33650 1.02911 0.62083
 O142 O 0.37954 0.97060 0.66295
 O143 O 0.33751 0.97012 0.62093
 O144 O 0.37988 1.02974 0.66120
 O145 O 0.34508 1.02940 0.69730
 O146 O 0.30149 0.97094 0.65584
 O147 O 0.34336 0.97032 0.69772
 O148 O 0.30176 1.02987 0.65700
 Cu149 Cu 0.36195 0.99983 0.63792
 Cu150 Cu 0.31939 1.00014 0.68055
 C151 C 0.31167 1.03935 0.63182
 C152 C 0.36872 0.96060 0.68764
 C153 C 0.31204 0.96073 0.63115
 C154 C 0.36993 1.03958 0.68623
 O155 O 0.66199 1.03201 0.38025
 O156 O 0.62096 0.97170 0.33857
 O157 O 0.66331 0.97282 0.38038
 O158 O 0.61900 1.03107 0.33944
 O159 O 0.65386 1.03144 0.30341
 O160 O 0.69921 0.97482 0.34540
 O161 O 0.65719 0.97231 0.30390
 O162 O 0.69660 1.03391 0.34407
 Cu163 Cu 0.63772 1.00172 0.36320
 Cu164 Cu 0.68024 1.00322 0.32065
 C165 C 0.68622 1.04348 0.36906
 C166 C 0.63228 0.96158 0.31417
 C167 C 0.68901 0.96415 0.37007
 C168 C 0.62882 1.04112 0.31439
 C169 C 0.81504 0.81210 0.51423
 C170 C 0.81378 0.81254 0.48352
 C171 C 0.83259 0.79141 0.46509
 C172 C 0.79502 0.83532 0.46690
 C173 C 0.79514 0.83201 0.53275
 C174 C 0.83733 0.79275 0.53088
 C175 C 0.85184 0.80308 0.44261
 C176 C 0.87162 0.78385 0.42694
 C177 C 0.87306 0.75254 0.43375
 C178 C 0.85205 0.74062 0.45481
 C179 C 0.83204 0.75988 0.47028
 C180 C 0.79890 0.86663 0.47192
 C181 C 0.78177 0.88788 0.45562
 C182 C 0.76107 0.87840 0.43309
 C183 C 0.75667 0.84687 0.42885
 C184 C 0.77378 0.82564 0.44522
 C185 C 0.76313 0.83083 0.53017
 C186 C 0.74475 0.85013 0.54748
 C187 C 0.75805 0.87062 0.56816
 C188 C 0.79025 0.87205 0.56999
 C189 C 0.80852 0.85263 0.55289
 C190 C 0.82702 0.77276 0.55334
 C191 C 0.84780 0.75470 0.56935
 C192 C 0.87942 0.75592 0.56300
 C193 C 0.88969 0.77715 0.54137
 C194 C 0.86889 0.79518 0.52539
 H195 H 0.85221 0.82727 0.43778
 H196 H 0.88645 0.79362 0.40992
 H197 H 0.85072 0.71654 0.45950
 H198 H 0.81646 0.75025 0.48673
 H199 H 0.81530 0.87464 0.48844
 H200 H 0.78474 0.91174 0.46087
 H201 H 0.77023 0.80156 0.44122
 H202 H 0.75242 0.81514 0.51455
 H203 H 0.72026 0.84924 0.54404
 H204 H 0.80140 0.88842 0.58456
 H205 H 0.83322 0.85416 0.55485
 H206 H 0.80282 0.77116 0.55850
 H207 H 0.83901 0.74016 0.58703
 H208 H 0.91387 0.78034 0.53709
 H209 H 0.87744 0.81134 0.50896
 H210 H 0.73982 0.83845 0.41303
 C211 C 0.18602 0.18860 0.51747
 C212 C 0.18641 0.18820 0.48671
 C213 C 0.16451 0.20658 0.46870
 C214 C 0.20735 0.16789 0.46948
 C215 C 0.20441 0.16671 0.53542
 C216 C 0.16588 0.20973 0.53465
 C217 C 0.13284 0.20397 0.47333
 C218 C 0.11244 0.22107 0.45603
 C219 C 0.12313 0.24025 0.43282
 C220 C 0.15502 0.24326 0.42882
 C221 C 0.17544 0.22629 0.44630
 C222 C 0.19532 0.14860 0.44725
 C223 C 0.21431 0.12834 0.43188
 C224 C 0.24577 0.12639 0.43868
 C225 C 0.25804 0.14703 0.45983
 C226 C 0.23902 0.16754 0.47503
 C227 C 0.22485 0.17742 0.55734
 C228 C 0.24252 0.15703 0.57413
 C229 C 0.23953 0.12535 0.56987
 C230 C 0.21939 0.11488 0.54732
 C231 C 0.20158 0.13526 0.53074
 C232 C 0.16602 0.24118 0.52897
 C233 C 0.14539 0.26040 0.54375
 C234 C 0.12402 0.24855 0.56454
 C235 C 0.12564 0.21733 0.57169
 C236 C 0.14610 0.19814 0.55676
 H237 H 0.12392 0.18873 0.49041
 H238 H 0.08821 0.21921 0.46088
 H239 H 0.16445 0.25899 0.41252
 H240 H 0.19985 0.22880 0.44264
 H241 H 0.17104 0.14882 0.44215
 H242 H 0.20425 0.11379 0.41485
 H243 H 0.24899 0.18303 0.49129
 H244 H 0.22754 0.20167 0.56101
 H245 H 0.25887 0.16634 0.58992
 H246 H 0.21738 0.09082 0.54239
 H247 H 0.18579 0.12651 0.51402
 H248 H 0.18193 0.25081 0.51283
 H249 H 0.14661 0.28446 0.53888
 H250 H 0.11063 0.20760 0.58857
 H251 H 0.14599 0.17404 0.56200
 H252 H 0.28228 0.14788 0.46461
 C253 C 0.19009 0.80997 0.48230
 C254 C 0.19067 0.81081 0.51296
 C255 C 0.17075 0.79090 0.53150
 C256 C 0.20979 0.83317 0.52958
 C257 C 0.21028 0.82996 0.46407
 C258 C 0.16796 0.79067 0.46543
 C259 C 0.14985 0.80419 0.55144
 C260 C 0.13018 0.78602 0.56843
 C261 C 0.13153 0.75403 0.56664
 C262 C 0.15247 0.74079 0.54632
 C263 C 0.17203 0.75908 0.52908
 C264 C 0.20587 0.86454 0.52507
 C265 C 0.22351 0.88545 0.54122
 C266 C 0.24584 0.87548 0.56197
 C267 C 0.24849 0.84396 0.56743
 C268 C 0.23080 0.82307 0.55126
 C269 C 0.24226 0.82876 0.46699
 C270 C 0.26087 0.84890 0.45076
 C271 C 0.24780 0.87038 0.43092
 C272 C 0.21563 0.87153 0.42848
 C273 C 0.19715 0.85128 0.44448
 C274 C 0.17857 0.77064 0.44321
 C275 C 0.15798 0.75301 0.42653
 C276 C 0.12613 0.75559 0.43118
 C277 C 0.11576 0.77509 0.45421
 C278 C 0.13635 0.79285 0.47071
 H279 H 0.14826 0.82873 0.55332
 H280 H 0.11364 0.79707 0.58293
 H281 H 0.15351 0.71646 0.54302
 H282 H 0.18796 0.74847 0.51363
 H283 H 0.18881 0.87281 0.50934
 H284 H 0.21921 0.90945 0.53772
 H285 H 0.23345 0.79895 0.55569
 H286 H 0.25276 0.81254 0.48222
 H287 H 0.28527 0.84790 0.45456
 H288 H 0.20468 0.88841 0.41431
 H289 H 0.17248 0.85283 0.44226
 H290 H 0.20292 0.76844 0.43900
 H291 H 0.16729 0.73714 0.41038
 H292 H 0.09160 0.77681 0.45941
 H293 H 0.12758 0.80842 0.48752
 H294 H 0.26391 0.83532 0.58449
 C295 C 0.80988 0.18964 0.48594
 C296 C 0.80961 0.18919 0.51663
 C297 C 0.82931 0.21013 0.53437
 C298 C 0.79126 0.16666 0.53397
 C299 C 0.78947 0.16972 0.46784
 C300 C 0.83205 0.20877 0.46900
 C301 C 0.85138 0.19809 0.55392
 C302 C 0.87124 0.21736 0.56950
 C303 C 0.86898 0.24925 0.56663
 C304 C 0.84672 0.26122 0.54685
 C305 C 0.82698 0.24182 0.53107
 C306 C 0.79418 0.13532 0.52857
 C307 C 0.77741 0.11433 0.54553
 C308 C 0.75817 0.12404 0.56913
 C309 C 0.75479 0.15560 0.57389
 C310 C 0.77147 0.17659 0.55678
 C311 C 0.75756 0.17035 0.47157
 C312 C 0.73877 0.15076 0.45491
 C313 C 0.75155 0.13041 0.43380
 C314 C 0.78365 0.12977 0.43059
 C315 C 0.80231 0.14946 0.44705
 C316 C 0.82157 0.22989 0.44768
 C317 C 0.84237 0.24787 0.43160
 C318 C 0.87415 0.24536 0.43676
 C319 C 0.88447 0.22299 0.45717
 C320 C 0.86367 0.20509 0.47325
 H321 H 0.85378 0.17367 0.55647
 H322 H 0.88866 0.20728 0.58373
 H323 H 0.84475 0.28536 0.54279
 H324 H 0.81013 0.25150 0.51590
 H325 H 0.80956 0.12708 0.51127
 H326 H 0.77962 0.09039 0.54019
 H327 H 0.76868 0.20071 0.56111
 H328 H 0.74724 0.18580 0.48763
 H329 H 0.71445 0.15133 0.45928
 H330 H 0.79440 0.11376 0.41536
 H331 H 0.82693 0.14836 0.44410
 H332 H 0.79725 0.23243 0.44351
 H333 H 0.83342 0.26333 0.41478
 H334 H 0.90868 0.21887 0.46044
 H335 H 0.87224 0.18806 0.48877
 H336 H 0.73901 0.16436 0.59050
 C337 C 0.51410 0.81094 0.81413
 C338 C 0.48289 0.81167 0.81375
 C339 C 0.46584 0.83337 0.79434
 C340 C 0.46420 0.79212 0.83401
 C341 C 0.53136 0.79205 0.83603
 C342 C 0.53275 0.83055 0.79395
 C343 C 0.47129 0.86479 0.79615
 C344 C 0.45495 0.88499 0.77795
 C345 C 0.43184 0.87440 0.75839
 C346 C 0.42699 0.84273 0.75624
 C347 C 0.44356 0.82252 0.77429
 C348 C 0.44373 0.80574 0.85420
 C349 C 0.42682 0.78797 0.87430
 C350 C 0.42913 0.75597 0.87406
 C351 C 0.45011 0.74244 0.85396
 C352 C 0.46718 0.76030 0.83392
 C353 C 0.55345 0.77146 0.82567
 C354 C 0.57055 0.75415 0.84603
 C355 C 0.56650 0.75769 0.87733
 C356 C 0.54360 0.77782 0.88750
 C357 C 0.52665 0.79521 0.86712
 C358 C 0.53002 0.82882 0.76250
 C359 C 0.54729 0.84811 0.74398
 C360 C 0.56802 0.86924 0.75659
 C361 C 0.57008 0.87109 0.78821
 C362 C 0.55306 0.85167 0.80661
 H363 H 0.48820 0.87370 0.81169
 H364 H 0.46028 0.90902 0.77938
 H365 H 0.41080 0.83325 0.74040
 H366 H 0.43928 0.79829 0.77238
 H367 H 0.44148 0.83029 0.85497
 H368 H 0.41225 0.79946 0.89039
 H369 H 0.48304 0.74936 0.81862
 H370 H 0.55719 0.76854 0.80171
 H371 H 0.58652 0.73774 0.83701
 H372 H 0.53874 0.78017 0.91129
 H373 H 0.50987 0.81119 0.87561
 H374 H 0.51426 0.81274 0.75235
 H375 H 0.54368 0.84675 0.71995
 H376 H 0.58479 0.88782 0.79881
 H377 H 0.55517 0.85364 0.83086
 H378 H 0.45394 0.71812 0.85399
 C379 C 0.51543 0.19002 0.18722
 C380 C 0.48417 0.18975 0.18709
 C381 C 0.46631 0.16835 0.20616
 C382 C 0.46610 0.20961 0.16659
 C383 C 0.53309 0.20838 0.16510
 C384 C 0.53347 0.17034 0.20805
 C385 C 0.47133 0.13685 0.20464
 C386 C 0.45453 0.11701 0.22283
 C387 C 0.43143 0.12803 0.24212
 C388 C 0.42681 0.15976 0.24377
 C389 C 0.44385 0.17961 0.22572
 C390 C 0.44580 0.19631 0.14598
 C391 C 0.42910 0.21441 0.12604
 C392 C 0.43146 0.24640 0.12679
 C393 C 0.45223 0.25964 0.14735
 C394 C 0.46919 0.24141 0.16718
 C395 C 0.55530 0.22906 0.17517
 C396 C 0.57236 0.24613 0.15454
 C397 C 0.56814 0.24227 0.12328
 C398 C 0.54514 0.22205 0.11343
 C399 C 0.52827 0.20487 0.13405
 C400 C 0.52804 0.17034 0.23923
 C401 C 0.54317 0.14965 0.25805
 C402 C 0.56414 0.12845 0.24606
 C403 C 0.57117 0.13030 0.21514
 C404 C 0.55584 0.15076 0.19635
 H405 H 0.48840 0.12765 0.18948
 H406 H 0.45954 0.09290 0.22171
 H407 H 0.41057 0.16961 0.25927
 H408 H 0.43985 0.20390 0.22737
 H409 H 0.44339 0.17178 0.14490
 H410 H 0.41433 0.20329 0.10980
 H411 H 0.48490 0.25209 0.18286
 H412 H 0.55912 0.23227 0.19908
 H413 H 0.58846 0.26260 0.16331
 H414 H 0.54012 0.21943 0.08969
 H415 H 0.51140 0.18883 0.12577
 H416 H 0.51170 0.18607 0.24893
 H417 H 0.53840 0.15063 0.28189
 H418 H 0.58822 0.11542 0.20533
 H419 H 0.56089 0.15072 0.17246
 H420 H 0.45607 0.28392 0.14792
 C421 C 0.48614 0.18760 0.81140
 C422 C 0.51740 0.18730 0.81075
 C423 C 0.53441 0.16489 0.79219
 C424 C 0.53592 0.20800 0.83003
 C425 C 0.46909 0.20636 0.83354
 C426 C 0.46760 0.16788 0.79117
 C427 C 0.52967 0.13355 0.79613
 C428 C 0.54534 0.11257 0.77829
 C429 C 0.56579 0.12244 0.75573
 C430 C 0.57164 0.15391 0.75307
 C431 C 0.55597 0.17489 0.77101
 C432 C 0.55842 0.19590 0.84914
 C433 C 0.57409 0.21470 0.86928
 C434 C 0.56726 0.24598 0.87122
 C435 C 0.54626 0.25836 0.85039
 C436 C 0.53077 0.23954 0.83006
 C437 C 0.44693 0.22712 0.82360
 C438 C 0.43104 0.24512 0.84427
 C439 C 0.43729 0.24303 0.87537
 C440 C 0.45841 0.22090 0.88523
 C441 C 0.47426 0.20292 0.86455
 C442 C 0.47223 0.16805 0.75989
 C443 C 0.45636 0.14768 0.74141
 C444 C 0.43555 0.12655 0.75386
 C445 C 0.42932 0.12823 0.78495
 C446 C 0.44534 0.14845 0.80341
 H447 H 0.51393 0.12536 0.81318
 H448 H 0.54162 0.08857 0.78246
 H449 H 0.58860 0.16247 0.73746
 H450 H 0.56052 0.19899 0.76824
 H451 H 0.56325 0.17171 0.84909
 H452 H 0.59115 0.20460 0.88391
 H453 H 0.51434 0.24952 0.81464
 H454 H 0.44204 0.22947 0.79977
 H455 H 0.41359 0.26036 0.83579
 H456 H 0.46246 0.21707 0.90898
 H457 H 0.49046 0.18615 0.87272
 H458 H 0.48844 0.18375 0.74984
 H459 H 0.46046 0.14885 0.71745
 H460 H 0.41239 0.11342 0.79514
 H461 H 0.44090 0.14838 0.82742
 H462 H 0.54166 0.28249 0.84945
 C463 C 0.48521 0.81489 0.18769
 C464 C 0.51644 0.81448 0.18771
 C465 C 0.53454 0.83420 0.20826
 C466 C 0.53407 0.79546 0.16615
 C467 C 0.46708 0.79434 0.16801
 C468 C 0.46755 0.83695 0.20614
 C469 C 0.55533 0.85520 0.19614
 C470 C 0.57160 0.87483 0.21497
 C471 C 0.56826 0.87336 0.24651
 C472 C 0.54716 0.85228 0.25856
 C473 C 0.53067 0.83276 0.23961
 C474 C 0.52905 0.79779 0.13501
 C475 C 0.54564 0.77971 0.11497
 C476 C 0.56852 0.75969 0.12543
 C477 C 0.57311 0.75720 0.15680
 C478 C 0.55632 0.77516 0.17685
 C479 C 0.47032 0.76260 0.16969
 C480 C 0.45368 0.74365 0.15033
 C481 C 0.43302 0.75609 0.12919
 C482 C 0.43040 0.78802 0.12742
 C483 C 0.44682 0.80686 0.14689
 C484 C 0.44481 0.82642 0.22585
 C485 C 0.42759 0.84693 0.24289
 C486 C 0.43213 0.87859 0.23996
 C487 C 0.45561 0.88890 0.22068
 C488 C 0.47271 0.86837 0.20356
 H489 H 0.55835 0.85693 0.17197
 H490 H 0.58673 0.89146 0.20477
 H491 H 0.54262 0.85110 0.28244
 H492 H 0.51457 0.81675 0.24937
 H493 H 0.51220 0.81354 0.12620
 H494 H 0.54051 0.78143 0.09116
 H495 H 0.56032 0.77285 0.20083
 H496 H 0.48602 0.75255 0.18578
 H497 H 0.45772 0.71944 0.15169
 H498 H 0.41570 0.79851 0.11072
 H499 H 0.44432 0.83133 0.14498
 H500 H 0.44070 0.80221 0.22835
 H501 H 0.41112 0.83776 0.25865
 H502 H 0.46089 0.91291 0.21881
 H503 H 0.49000 0.87702 0.18829
 H504 H 0.58916 0.74104 0.16616
 C505 C 0.81184 0.51946 0.81332
 C506 C 0.81255 0.48837 0.81271
 C507 C 0.79443 0.46981 0.83428
 C508 C 0.83273 0.47133 0.79159
 C509 C 0.83388 0.53800 0.79553
 C510 C 0.79035 0.53637 0.83330
 C511 C 0.79728 0.47428 0.86544
 C512 C 0.78001 0.45686 0.88553
 C513 C 0.76038 0.43368 0.87503
 C514 C 0.75732 0.42967 0.84365
 C515 C 0.77447 0.44728 0.82356
 C516 C 0.85235 0.44871 0.80276
 C517 C 0.87244 0.43350 0.78352
 C518 C 0.87383 0.44084 0.75265
 C519 C 0.85281 0.46235 0.74125
 C520 C 0.83252 0.47741 0.76054
 C521 C 0.82314 0.56077 0.77607
 C522 C 0.84368 0.57816 0.75907
 C523 C 0.87556 0.57365 0.76174
 C524 C 0.88606 0.55036 0.78100
 C525 C 0.86554 0.53318 0.79812
 C526 C 0.75884 0.52986 0.83357
 C527 C 0.73941 0.54411 0.85427
 C528 C 0.75110 0.56536 0.87514
 C529 C 0.78231 0.57336 0.87315
 C530 C 0.80171 0.55888 0.85271
 H531 H 0.81272 0.49146 0.87420
 H532 H 0.78202 0.46162 0.90937
 H533 H 0.74131 0.41342 0.83435
 H534 H 0.77177 0.44372 0.79956
 H535 H 0.85255 0.44320 0.82656
 H536 H 0.88732 0.41619 0.79290
 H537 H 0.81673 0.49396 0.75124
 H538 H 0.79876 0.56465 0.77360
 H539 H 0.83430 0.59457 0.74345
 H540 H 0.91026 0.54528 0.78279
 H541 H 0.87436 0.51589 0.81322
 H542 H 0.74933 0.51339 0.81798
 H543 H 0.71536 0.53845 0.85350
 H544 H 0.79187 0.59053 0.88792
 H545 H 0.82583 0.56473 0.85259
 H546 H 0.85149 0.46754 0.71752
 C547 C 0.18792 0.51344 0.18698
 C548 C 0.18614 0.48250 0.18524
 C549 C 0.20392 0.46489 0.16275
 C550 C 0.16527 0.46468 0.20497
 C551 C 0.16661 0.53089 0.20641
 C552 C 0.20959 0.53133 0.16806
 C553 C 0.20138 0.47115 0.13185
 C554 C 0.21824 0.45435 0.11094
 C555 C 0.23723 0.43020 0.12036
 C556 C 0.24017 0.42460 0.15151
 C557 C 0.22333 0.44145 0.17238
 C558 C 0.14280 0.44606 0.19199
 C559 C 0.12285 0.42931 0.21015
 C560 C 0.12549 0.42994 0.24179
 C561 C 0.14778 0.44922 0.25471
 C562 C 0.16761 0.46618 0.23646
 C563 C 0.17809 0.55021 0.22884
 C564 C 0.15806 0.56642 0.24742
 C565 C 0.12607 0.56345 0.24403
 C566 C 0.11487 0.54519 0.22036
 C567 C 0.13489 0.52890 0.20195
 C568 C 0.24093 0.52422 0.16703
 C569 C 0.26050 0.53959 0.14720
 C570 C 0.24912 0.56258 0.12802
 C571 C 0.21809 0.57093 0.13077
 C572 C 0.19855 0.55539 0.15036
 H573 H 0.18645 0.48917 0.12396
 H574 H 0.21646 0.46043 0.08737
 H575 H 0.25582 0.40758 0.16003
 H576 H 0.22587 0.43657 0.19619
 H577 H 0.14035 0.44492 0.16772
 H578 H 0.10519 0.41584 0.19935
 H579 H 0.18475 0.48059 0.24690
 H580 H 0.20259 0.55260 0.23203
 H581 H 0.16788 0.58159 0.26396
 H582 H 0.09053 0.54357 0.21596
 H583 H 0.12565 0.51488 0.18404
 H584 H 0.25017 0.50644 0.18131
 H585 H 0.28436 0.53326 0.14730
 H586 H 0.20875 0.58917 0.11713
 H587 H 0.17456 0.56164 0.15108
 H588 H 0.14976 0.45181 0.27882
 C589 C 0.80948 0.48310 0.18806
 C590 C 0.80917 0.51410 0.18989
 C591 C 0.78809 0.53260 0.17099
 C592 C 0.83133 0.53102 0.20907
 C593 C 0.82949 0.46429 0.20762
 C594 C 0.79110 0.46649 0.16519
 C595 C 0.79997 0.55560 0.15247
 C596 C 0.78094 0.57104 0.13234
 C597 C 0.74966 0.56350 0.12984
 C598 C 0.73743 0.54196 0.15013
 C599 C 0.75647 0.52672 0.17049
 C600 C 0.86297 0.52617 0.20626
 C601 C 0.88365 0.54277 0.22377
 C602 C 0.87332 0.56554 0.24367
 C603 C 0.84146 0.56974 0.24689
 C604 C 0.82077 0.55293 0.22951
 C605 C 0.82793 0.46631 0.23911
 C606 C 0.84753 0.44888 0.25714
 C607 C 0.86869 0.42864 0.24397
 C608 C 0.87038 0.42728 0.21230
 C609 C 0.85069 0.44449 0.19439
 C610 C 0.77077 0.44352 0.17421
 C611 C 0.75328 0.42788 0.15286
 C612 C 0.75542 0.43516 0.12199
 C613 C 0.77719 0.45712 0.11303
 C614 C 0.79466 0.47272 0.13440
 H615 H 0.82421 0.56094 0.15287
 H616 H 0.79089 0.58843 0.11804
 H617 H 0.71329 0.53666 0.15059
 H618 H 0.74666 0.50982 0.18544
 H619 H 0.87170 0.50963 0.19037
 H620 H 0.90785 0.53790 0.22154
 H621 H 0.79642 0.55682 0.23217
 H622 H 0.81178 0.48164 0.24970
 H623 H 0.84638 0.45199 0.28125
 H624 H 0.88724 0.41306 0.20130
 H625 H 0.85252 0.44296 0.17009
 H626 H 0.76835 0.43780 0.19784
 H627 H 0.73824 0.40990 0.16058
 H628 H 0.78123 0.46203 0.08949
 H629 H 0.81118 0.48952 0.12691
 H630 H 0.83222 0.58565 0.26304
 C631 C 0.19042 0.48477 0.81013
 C632 C 0.19132 0.51576 0.81172
 C633 C 0.21041 0.53189 0.83436
 C634 C 0.17162 0.53514 0.79226
 C635 C 0.16838 0.46860 0.79024
 C636 C 0.21005 0.46540 0.82967
 C637 C 0.20707 0.52594 0.86524
 C638 C 0.22450 0.54194 0.88637
 C639 C 0.24482 0.56514 0.87721
 C640 C 0.24878 0.57020 0.84608
 C641 C 0.23143 0.55408 0.82496
 C642 C 0.15054 0.55497 0.80564
 C643 C 0.13060 0.57215 0.78789
 C644 C 0.13189 0.57074 0.75620
 C645 C 0.15305 0.55058 0.74287
 C646 C 0.17289 0.53319 0.76073
 C647 C 0.17906 0.44695 0.76960
 C648 C 0.15853 0.43102 0.75126
 C649 C 0.12669 0.43588 0.75367
 C650 C 0.11630 0.45844 0.77377
 C651 C 0.13681 0.47412 0.79227
 C652 C 0.24208 0.46816 0.82946
 C653 C 0.26004 0.45059 0.84900
 C654 C 0.24632 0.42944 0.86879
 C655 C 0.21411 0.42722 0.86903
 C656 C 0.19627 0.44459 0.84940
 H657 H 0.19084 0.50900 0.87302
 H658 H 0.22186 0.53618 0.90994
 H659 H 0.26539 0.58646 0.83781
 H660 H 0.23457 0.55873 0.80119
 H661 H 0.14888 0.55645 0.82995
 H662 H 0.11382 0.58633 0.79906
 H663 H 0.18890 0.51781 0.74999
 H664 H 0.20339 0.44260 0.76750
 H665 H 0.16790 0.41526 0.73504
 H666 H 0.09215 0.46377 0.77547
 H667 H 0.12800 0.49053 0.80827
 H668 H 0.25312 0.48427 0.81449
 H669 H 0.28450 0.45432 0.84893
 H670 H 0.20258 0.41224 0.88476
 H671 H 0.17155 0.44244 0.85022
 H672 H 0.15395 0.54745 0.71876
 C673 C 0.28963 0.38408 0.05773
 C674 C 0.25764 0.39268 0.04612
 C675 C 0.23998 0.40725 0.06684
 C676 C 0.25603 0.41246 0.09741
 C677 C 0.26592 0.38012 0.10707
 C678 C 0.28365 0.36551 0.08645
 C679 C 0.30364 0.41419 0.06884
 C680 C 0.28607 0.42894 0.08951
 H681 H 0.24927 0.38704 0.02375
 H682 H 0.21638 0.41340 0.06214
 H683 H 0.25823 0.36869 0.12738
 H684 H 0.29158 0.34231 0.08975
 H685 H 0.32543 0.42325 0.06119
 H686 H 0.29294 0.45050 0.09941
 C687 C 0.69958 0.60909 0.06489
 C688 C 0.68245 0.58122 0.07751
 C689 C 0.69847 0.56556 0.09884
 C690 C 0.73029 0.57933 0.10594
 C691 C 0.74612 0.58064 0.07490
 C692 C 0.73020 0.59634 0.05363
 C693 C 0.70773 0.62822 0.09269
 C694 C 0.72379 0.61273 0.11404
 H695 H 0.66021 0.57359 0.06953
 H696 H 0.68973 0.54437 0.10793
 H697 H 0.76767 0.56945 0.06982
 H698 H 0.73832 0.59875 0.03065
 H699 H 0.70118 0.65191 0.09547
 H700 H 0.73094 0.62322 0.13505
 C701 C 0.70777 0.38648 0.93681
 C702 C 0.74070 0.39255 0.94744
 C703 C 0.75830 0.40734 0.92681
 C704 C 0.74131 0.41540 0.89738
 C705 C 0.72901 0.38435 0.88629
 C706 C 0.71135 0.36945 0.90685
 C707 C 0.69517 0.41797 0.92810
 C708 C 0.71271 0.43300 0.90756
 H709 H 0.74966 0.38512 0.96906
 H710 H 0.78241 0.41193 0.93081
 H711 H 0.73506 0.37380 0.86504
 H712 H 0.70187 0.34698 0.90262
 H713 H 0.67431 0.42773 0.93723
 H714 H 0.70674 0.45549 0.89923
 C715 C 0.29568 0.61167 0.94100
 C716 C 0.30973 0.58125 0.93091
 C717 C 0.29274 0.56630 0.90982
 C718 C 0.26321 0.58294 0.90053
 C719 C 0.24612 0.58885 0.93038
 C720 C 0.26317 0.60355 0.95151
 C721 C 0.29099 0.62981 0.91179
 C722 C 0.27388 0.61502 0.89073
 H723 H 0.33111 0.57213 0.93955
 H724 H 0.29969 0.54452 0.90053
 H725 H 0.22222 0.58327 0.93425
 H726 H 0.25393 0.60984 0.97333
 H727 H 0.29940 0.65285 0.90841
 H728 H 0.26720 0.62612 0.86991
 C729 C 0.06083 0.29163 0.38456
 C730 C 0.07031 0.30542 0.41500
 C731 C 0.09098 0.28824 0.43045
 C732 C 0.10051 0.25881 0.41424
 C733 C 0.07013 0.24221 0.40736
 C734 C 0.04938 0.25946 0.39218
 C735 C 0.09101 0.28662 0.36756
 C736 C 0.11169 0.26932 0.38288
 H737 H 0.06161 0.32678 0.42377
 H738 H 0.09985 0.29501 0.45231
 H739 H 0.06562 0.21854 0.41287
 H740 H 0.02715 0.25067 0.38541
 H741 H 0.09528 0.29495 0.34490
 H742 H 0.13310 0.26240 0.37259
 C743 C 0.06742 0.70621 0.61618
 C744 C 0.09346 0.68572 0.60476
 C745 C 0.11521 0.70082 0.58850
 C746 C 0.10889 0.73528 0.58501
 C747 C 0.07639 0.73712 0.57174
 C748 C 0.05481 0.72196 0.58796
 C749 C 0.08385 0.73150 0.63393
 C750 C 0.10560 0.74647 0.61776
 H751 H 0.09539 0.66168 0.61020
 H752 H 0.13577 0.68935 0.58094
 H753 H 0.07086 0.74926 0.55111
 H754 H 0.03089 0.72126 0.58128
 H755 H 0.07969 0.73650 0.65752
 H756 H 0.11993 0.76397 0.62776
 C757 C 0.93694 0.70129 0.38749
 C758 C 0.90874 0.71042 0.36890
 C759 C 0.88775 0.72689 0.38459
 C760 C 0.89657 0.73277 0.41762
 C761 C 0.90291 0.70082 0.43088
 C762 C 0.92388 0.68439 0.41503
 C763 C 0.94953 0.73123 0.40028
 C764 C 0.92861 0.74754 0.41618
 H765 H 0.90544 0.70422 0.34544
 H766 H 0.86651 0.73476 0.37449
 H767 H 0.89363 0.69221 0.45185
 H768 H 0.93132 0.66197 0.42227
 H769 H 0.97317 0.73853 0.39787
 H770 H 0.93464 0.76863 0.42748
 C771 C 0.93350 0.30034 0.61251
 C772 C 0.91777 0.27566 0.63171
 C773 C 0.89593 0.25965 0.61668
 C774 C 0.89180 0.26925 0.58353
 C775 C 0.88509 0.30377 0.58551
 C776 C 0.90696 0.31992 0.60061
 C777 C 0.94576 0.28347 0.58482
 C778 C 0.92407 0.26725 0.56975
 H779 H 0.92248 0.27175 0.65542
 H780 H 0.88213 0.24236 0.62774
 H781 H 0.86427 0.31467 0.57775
 H782 H 0.90484 0.34417 0.60486
 H783 H 0.96952 0.28427 0.57762
 H784 H 0.92934 0.25429 0.54959
 C785 C 0.38543 0.06554 0.29520
 C786 C 0.38959 0.05553 0.26231
 C787 C 0.40392 0.07651 0.24474
 C788 C 0.41351 0.10566 0.26162
 C789 C 0.38320 0.11716 0.27558
 C790 C 0.36874 0.09621 0.29321
 C791 C 0.41791 0.07344 0.30616
 C792 C 0.43251 0.09433 0.28860
 H793 H 0.38125 0.03404 0.25339
 H794 H 0.40736 0.07293 0.22078
 H795 H 0.37262 0.13892 0.27070
 H796 H 0.34675 0.10065 0.30376
 H797 H 0.42860 0.06354 0.32596
 H798 H 0.45556 0.10222 0.29352
 C799 C 0.61568 0.05909 0.70755
 C800 C 0.62952 0.06797 0.73821
 C801 C 0.61276 0.08890 0.75355
 C802 C 0.58360 0.09931 0.73715
 C803 C 0.59474 0.11031 0.70594
 C804 C 0.61165 0.08934 0.69065
 C805 C 0.58292 0.04862 0.71478
 C806 C 0.56605 0.06965 0.72996
 H807 H 0.65067 0.05867 0.74721
 H808 H 0.61967 0.09736 0.77551
 H809 H 0.58861 0.13198 0.69586
 H810 H 0.62039 0.09351 0.66812
 H811 H 0.57341 0.02696 0.70758
 H812 H 0.54202 0.06592 0.73503
 C813 C 0.38585 0.93730 0.70583
 C814 C 0.36854 0.90702 0.70873
 C815 C 0.38305 0.88602 0.72624
 C816 C 0.41403 0.89707 0.73915
 C817 C 0.43244 0.90763 0.71150
 C818 C 0.41778 0.92859 0.69406
 C819 C 0.39125 0.94769 0.73843
 C820 C 0.40563 0.92665 0.75589
 H821 H 0.34614 0.90287 0.69886
 H822 H 0.37216 0.86454 0.73176
 H823 H 0.45516 0.89921 0.70607
 H824 H 0.42807 0.93802 0.67384
 H825 H 0.38360 0.96943 0.74730
 H826 H 0.40971 0.93045 0.77972
 C827 C 0.61559 0.93726 0.29678
 C828 C 0.58740 0.94956 0.28014
 C829 C 0.57192 0.92809 0.26414
 C830 C 0.58580 0.89597 0.26609
 C831 C 0.61951 0.89998 0.25652
 C832 C 0.63495 0.92162 0.27232
 C833 C 0.60348 0.91087 0.31618
 C834 C 0.58797 0.88922 0.30024
 H835 H 0.58018 0.97321 0.28091
 H836 H 0.55141 0.93344 0.25133
 H837 H 0.63067 0.88619 0.23946
 H838 H 0.65908 0.92620 0.26846
 H839 H 0.60795 0.90866 0.34015
 H840 H 0.58009 0.86848 0.31097
 C841 C 0.38623 0.29150 0.93727
 C842 C 0.41893 0.28460 0.94809
 C843 C 0.43622 0.26928 0.92759
 C844 C 0.41912 0.26168 0.89807
 C845 C 0.38999 0.24486 0.90811
 C846 C 0.37281 0.26033 0.92852
 C847 C 0.39048 0.30843 0.90729
 C848 C 0.40783 0.29303 0.88686
 H849 H 0.42808 0.29216 0.96958
 H850 H 0.46026 0.26449 0.93159
 H851 H 0.38342 0.22254 0.89980
 H852 H 0.35165 0.25107 0.93753
 H853 H 0.38156 0.33108 0.90290
 H854 H 0.41413 0.30313 0.86542
 C855 C 0.61243 0.70458 0.93954
 C856 C 0.58065 0.69255 0.93039
 C857 C 0.56606 0.71028 0.90976
 C858 C 0.58434 0.73850 0.89990
 C859 C 0.59235 0.75514 0.92948
 C860 C 0.60673 0.73733 0.95021
 C861 C 0.63001 0.70806 0.90980
 C862 C 0.61553 0.72592 0.88913
 H863 H 0.57036 0.67191 0.93929
 H864 H 0.54346 0.70470 0.90113
 H865 H 0.58815 0.77915 0.93347
 H866 H 0.61422 0.74606 0.97188
 H867 H 0.65252 0.69837 0.90582
 H868 H 0.62647 0.73192 0.86801
 C869 C 0.38536 0.70543 0.06615
 C870 C 0.39644 0.68606 0.09286
 C871 C 0.41200 0.70218 0.11421
 C872 C 0.41529 0.73645 0.10687
 C873 C 0.42979 0.73738 0.07531
 C874 C 0.41423 0.72120 0.05413
 C875 C 0.36643 0.73102 0.08075
 C876 C 0.38194 0.74699 0.10211
 H877 H 0.39122 0.66202 0.09546
 H878 H 0.41915 0.69156 0.13511
 H879 H 0.45074 0.74966 0.07013
 H880 H 0.42181 0.71976 0.03088
 H881 H 0.34254 0.73556 0.07566
 H882 H 0.37104 0.76482 0.11519
 C883 C 0.61479 0.29396 0.06029
 C884 C 0.63243 0.29039 0.09001
 C885 C 0.61768 0.27303 0.11091
 C886 C 0.58616 0.26099 0.10040
 C887 C 0.56847 0.28950 0.09031
 C888 C 0.58335 0.30674 0.06943
 C889 C 0.60826 0.26123 0.04997
 C890 C 0.59363 0.24392 0.07094
 H891 H 0.65516 0.29971 0.09385
 H892 H 0.62855 0.26708 0.13208
 H893 H 0.54604 0.29562 0.09896
 H894 H 0.57352 0.32750 0.06032
 H895 H 0.61545 0.25211 0.02838
 H896 H 0.58897 0.21994 0.06720
 C897 C 0.29307 0.06258 0.61503
 C898 C 0.26004 0.05187 0.60950
 C899 C 0.24217 0.07283 0.59538
 C900 C 0.25901 0.10265 0.58737
 C901 C 0.27185 0.11360 0.61795
 C902 C 0.28978 0.09271 0.63220
 C903 C 0.30514 0.07164 0.58375
 C904 C 0.28732 0.09252 0.56936
 H905 H 0.25121 0.02994 0.61680
 H906 H 0.21799 0.06881 0.59127
 H907 H 0.26599 0.13498 0.62868
 H908 H 0.29967 0.09680 0.65429
 H909 H 0.32583 0.06250 0.57368
 H910 H 0.29288 0.10116 0.54708
 C911 C 0.70238 0.06658 0.38520
 C912 C 0.72008 0.05380 0.41227
 C913 C 0.73564 0.07525 0.42820
 C914 C 0.73227 0.10782 0.41588
 C915 C 0.74182 0.10567 0.38253
 C916 C 0.72645 0.08410 0.36658
 C917 C 0.68178 0.09167 0.39834
 C918 C 0.69730 0.11325 0.41434
 H919 H 0.72039 0.02985 0.41843
 H920 H 0.74910 0.06958 0.44801
 H921 H 0.75852 0.12062 0.37202
 H922 H 0.73034 0.08082 0.34264
 H923 H 0.65729 0.09319 0.39422
 H924 H 0.68565 0.13318 0.42296
 C925 C 0.70829 0.93330 0.61726
 C926 C 0.68885 0.90591 0.60731
 C927 C 0.70477 0.88466 0.59133
 C928 C 0.73888 0.89281 0.58654
 C929 C 0.73849 0.92469 0.57220
 C930 C 0.72253 0.94577 0.58819
 C931 C 0.73519 0.91909 0.63474
 C932 C 0.75095 0.89782 0.61882
 H933 H 0.66501 0.90276 0.61356
 H934 H 0.69426 0.86328 0.58482
 H935 H 0.74980 0.93018 0.55110
 H936 H 0.72031 0.96926 0.58082
 H937 H 0.74067 0.92426 0.65804
 H938 H 0.76953 0.88486 0.62883
 C939 C 0.29674 0.93618 0.38476
 C940 C 0.27164 0.92052 0.36594
 C941 C 0.25631 0.89827 0.38099
 C942 C 0.26694 0.89371 0.41380
 C943 C 0.30170 0.88761 0.41074
 C944 C 0.31717 0.90988 0.39562
 C945 C 0.28036 0.94757 0.41311
 C946 C 0.26481 0.92547 0.42822
 H947 H 0.26705 0.92555 0.34241
 H948 H 0.23891 0.88442 0.37010
 H949 H 0.31313 0.86690 0.41776
 H950 H 0.34146 0.90820 0.39062
 H951 H 0.28097 0.97106 0.42071
 H952 H 0.25222 0.93012 0.44880
 C953 C 0.06269 0.39086 0.70126
 C954 C 0.07125 0.42281 0.68982
 C955 C 0.09258 0.43717 0.70717
 C956 C 0.10364 0.41846 0.73442
 C957 C 0.07412 0.40974 0.75145
 C958 C 0.05272 0.39567 0.73409
 C959 C 0.09322 0.37372 0.70349
 C960 C 0.11458 0.38792 0.72091
 H961 H 0.06145 0.43332 0.66988
 H962 H 0.10094 0.45987 0.70195
 H963 H 0.07062 0.41340 0.77538
 H964 H 0.03098 0.38787 0.74316
 H965 H 0.09728 0.35163 0.69325
 H966 H 0.13628 0.37708 0.72594
 C967 C 0.06356 0.61289 0.29388
 C968 C 0.07124 0.62648 0.26284
 C969 C 0.09208 0.61001 0.24699
 C970 C 0.10361 0.58137 0.26337
 C971 C 0.11551 0.59301 0.29409
 C972 C 0.09458 0.60961 0.30985
 C973 C 0.05338 0.58008 0.28730
 C974 C 0.07434 0.56353 0.27167
 H975 H 0.06124 0.64726 0.25395
 H976 H 0.09981 0.61682 0.22473
 H977 H 0.13758 0.58731 0.30377
 H978 H 0.09929 0.61853 0.33219
 H979 H 0.03182 0.57043 0.29496
 H980 H 0.07071 0.53963 0.26652
 C981 C 0.93324 0.38046 0.29256
 C982 C 0.91940 0.36257 0.26604
 C983 C 0.89749 0.37814 0.25064
 C984 C 0.89152 0.41053 0.26271
 C985 C 0.88356 0.40521 0.29623
 C986 C 0.90545 0.38959 0.31176
 C987 C 0.94487 0.41030 0.27871
 C988 C 0.92315 0.42594 0.26314
 H989 H 0.92534 0.33925 0.26047
 H990 H 0.88472 0.36782 0.23230
 H991 H 0.86189 0.41109 0.30661
 H992 H 0.90256 0.38302 0.33518
 H993 H 0.96823 0.41847 0.28098
 H994 H 0.92801 0.44753 0.25218
 C995 C 0.93899 0.61923 0.70918
 C996 C 0.92971 0.58764 0.69735
 C997 C 0.90862 0.57319 0.71484
 C998 C 0.89846 0.59142 0.74265
 C999 C 0.92848 0.59939 0.75923
 C1000 C 0.94967 0.61360 0.74168
 C1001 C 0.90873 0.63671 0.71238
 C1002 C 0.88759 0.62238 0.72998
 H1003 H 0.93886 0.57738 0.67702
 H1004 H 0.89984 0.55072 0.70935
 H1005 H 0.93247 0.59512 0.78301
 H1006 H 0.97176 0.62088 0.75039
 H1007 H 0.90474 0.65906 0.70264
 H1008 H 0.86611 0.63330 0.73568
 C1009 C 0.69945 0.61006 0.93956
 C1010 C 0.68282 0.58199 0.92658
 C1011 C 0.69937 0.56662 0.90544
 C1012 C 0.73114 0.58077 0.89886
 C1013 C 0.72433 0.61412 0.89073
 C1014 C 0.70777 0.62936 0.91183
 C1015 C 0.73009 0.59755 0.95121
 C1016 C 0.74648 0.58213 0.93013
 H1017 H 0.66053 0.57405 0.93409
 H1018 H 0.69100 0.54543 0.89605
 H1019 H 0.73160 0.62476 0.86983
 H1020 H 0.70094 0.65295 0.90886
 H1021 H 0.73790 0.59985 0.97432
 H1022 H 0.76807 0.57113 0.93552
 C1023 C 0.29440 0.38068 0.93316
 C1024 C 0.26839 0.36251 0.91797
 C1025 C 0.25324 0.37833 0.89621
 C1026 C 0.26492 0.41116 0.89162
 C1027 C 0.26372 0.42567 0.92310
 C1028 C 0.27906 0.40985 0.94471
 C1029 C 0.31474 0.39108 0.90679
 C1030 C 0.29942 0.40693 0.88505
 H1031 H 0.26306 0.33886 0.92285
 H1032 H 0.23539 0.36789 0.88265
 H1033 H 0.25178 0.44679 0.92796
 H1034 H 0.28007 0.41743 0.96798
 H1035 H 0.33881 0.38519 0.90462
 H1036 H 0.31067 0.41368 0.86433
 C1037 C 0.29990 0.61022 0.06484
 C1038 C 0.26975 0.59690 0.05280
 C1039 C 0.25375 0.58056 0.07353
 C1040 C 0.26895 0.57910 0.10486
 C1041 C 0.30121 0.56619 0.09829
 C1042 C 0.31735 0.58250 0.07750
 C1043 C 0.29081 0.62872 0.09281
 C1044 C 0.27465 0.61252 0.11357
 H1045 H 0.26201 0.59937 0.02967
 H1046 H 0.23248 0.56904 0.06789
 H1047 H 0.31042 0.54530 0.10754
 H1048 H 0.34002 0.57557 0.07016
 H1049 H 0.29688 0.65246 0.09620
 H1050 H 0.26696 0.62250 0.13463
 C1051 C 0.70666 0.38508 0.05928
 C1052 C 0.71524 0.41712 0.04813
 C1053 C 0.73071 0.43411 0.06876
 C1054 C 0.73687 0.41742 0.09879
 C1055 C 0.70462 0.40755 0.10927
 C1056 C 0.68902 0.39047 0.08874
 C1057 C 0.73727 0.37076 0.06920
 C1058 C 0.75291 0.38767 0.08977
 H1059 H 0.70866 0.42615 0.02626
 H1060 H 0.73632 0.45778 0.06445
 H1061 H 0.69434 0.41433 0.13047
 H1062 H 0.66588 0.38232 0.09282
 H1063 H 0.74604 0.34921 0.06094
 H1064 H 0.77485 0.38050 0.09886
 C1065 C 0.94166 0.70785 0.61500
 C1066 C 0.91094 0.69120 0.61099
 C1067 C 0.89044 0.70646 0.59338
 C1068 C 0.90225 0.73742 0.58154
 C1069 C 0.91250 0.75478 0.60984
 C1070 C 0.93297 0.73950 0.62730
 C1071 C 0.95286 0.71393 0.58270
 C1072 C 0.93228 0.72908 0.56517
 H1073 H 0.90604 0.66887 0.62037
 H1074 H 0.86849 0.69657 0.58739
 H1075 H 0.90425 0.77734 0.61566
 H1076 H 0.94202 0.74925 0.64794
 H1077 H 0.97462 0.70590 0.57393
 H1078 H 0.93653 0.73319 0.54143
 C1079 C 0.93686 0.29272 0.38482
 C1080 C 0.94823 0.28601 0.41694
 C1081 C 0.92743 0.27115 0.43444
 C1082 C 0.89706 0.26367 0.41819
 C1083 C 0.88589 0.29500 0.40680
 C1084 C 0.90660 0.30999 0.38922
 C1085 C 0.92731 0.26142 0.37221
 C1086 C 0.90662 0.24640 0.38964
 H1087 H 0.97040 0.29319 0.42553
 H1088 H 0.93185 0.26645 0.45806
 H1089 H 0.86429 0.30537 0.41313
 H1090 H 0.90219 0.33257 0.38017
 H1091 H 0.93593 0.25172 0.35138
 H1092 H 0.89776 0.22411 0.38361
 C1093 C 0.06026 0.30118 0.60982
 C1094 C 0.08900 0.29320 0.62821
 C1095 C 0.10983 0.27616 0.61287
 C1096 C 0.10041 0.26857 0.58034
 C1097 C 0.06854 0.25358 0.58318
 C1098 C 0.04774 0.27048 0.59869
 C1099 C 0.07265 0.31676 0.58114
 C1100 C 0.09342 0.29973 0.56569
 H1101 H 0.09279 0.30052 0.65128
 H1102 H 0.13134 0.26897 0.62289
 H1103 H 0.06248 0.23194 0.57297
 H1104 H 0.02421 0.26305 0.60188
 H1105 H 0.06485 0.33867 0.57277
 H1106 H 0.10207 0.30723 0.54404
 C1107 C 0.06246 0.70339 0.38514
 C1108 C 0.07157 0.69087 0.41633
 C1109 C 0.09272 0.70823 0.43095
 C1110 C 0.10312 0.73659 0.41336
 C1111 C 0.11402 0.72426 0.38258
 C1112 C 0.09286 0.70680 0.36804
 C1113 C 0.05198 0.73623 0.39121
 C1114 C 0.07324 0.75361 0.40561
 H1115 H 0.06228 0.67023 0.42624
 H1116 H 0.10135 0.70230 0.45314
 H1117 H 0.13558 0.73011 0.37193
 H1118 H 0.09698 0.69733 0.34581
 H1119 H 0.03007 0.74538 0.38399
 H1120 H 0.06940 0.77759 0.41013
 C1121 C 0.61716 0.93250 0.70721
 C1122 C 0.60635 0.90549 0.68794
 C1123 C 0.59030 0.88404 0.70364
 C1124 C 0.58633 0.89160 0.73742
 C1125 C 0.61948 0.89627 0.74857
 C1126 C 0.63545 0.91773 0.73301
 C1127 C 0.58802 0.94484 0.72209
 C1128 C 0.57200 0.92357 0.73784
 H1129 H 0.61206 0.90274 0.66429
 H1130 H 0.58321 0.86293 0.69310
 H1131 H 0.62994 0.88301 0.76649
 H1132 H 0.65929 0.92274 0.73796
 H1133 H 0.58061 0.96838 0.72039
 H1134 H 0.55082 0.92897 0.74950
 C1135 C 0.38585 0.94079 0.29294
 C1136 C 0.39287 0.95251 0.26107
 C1137 C 0.40740 0.93186 0.24328
 C1138 C 0.41421 0.90125 0.25903
 C1139 C 0.43173 0.90992 0.28782
 C1140 C 0.41701 0.93049 0.30553
 C1141 C 0.36777 0.91122 0.28799
 C1142 C 0.38239 0.89063 0.27014
 H1143 H 0.38612 0.97482 0.25288
 H1144 H 0.41244 0.93659 0.21979
 H1145 H 0.45395 0.90057 0.29378
 H1146 H 0.42680 0.93860 0.32653
 H1147 H 0.34488 0.90731 0.29676
 H1148 H 0.37124 0.86968 0.26324
 C1149 C 0.61069 0.06450 0.29709
 C1150 C 0.59881 0.05234 0.26686
 C1151 C 0.58281 0.07320 0.25052
 C1152 C 0.58033 0.10476 0.26558
 C1153 C 0.56599 0.09760 0.29663
 C1154 C 0.58194 0.07672 0.31308
 C1155 C 0.62936 0.09301 0.28908
 C1156 C 0.61358 0.11393 0.27262
 H1157 H 0.60188 0.02901 0.25937
 H1158 H 0.57203 0.06739 0.22923
 H1159 H 0.54421 0.10632 0.30451
 H1160 H 0.57396 0.06874 0.33486
 H1161 H 0.65297 0.09657 0.29599
 H1162 H 0.62375 0.13532 0.26548
 C1163 C 0.38802 0.06297 0.70345
 C1164 C 0.41672 0.07510 0.68722
 C1165 C 0.43294 0.09583 0.70352
 C1166 C 0.41888 0.10301 0.73465
 C1167 C 0.38563 0.11235 0.72789
 C1168 C 0.36955 0.09152 0.71157
 C1169 C 0.40006 0.05071 0.73359
 C1170 C 0.41634 0.07145 0.74977
 H1171 H 0.42453 0.06710 0.66541
 H1172 H 0.45478 0.10433 0.69550
 H1173 H 0.37565 0.13376 0.73514
 H1174 H 0.34590 0.09513 0.70488
 H1175 H 0.39693 0.02738 0.74111
 H1176 H 0.42729 0.06555 0.77096
 C1177 C 0.61316 0.70538 0.06332
 C1178 C 0.63065 0.70809 0.09321
 C1179 C 0.61664 0.72622 0.11392
 C1180 C 0.58593 0.73989 0.10303
 C1181 C 0.59462 0.75647 0.07359
 C1182 C 0.60853 0.73839 0.05284
 C1183 C 0.58098 0.69428 0.07219
 C1184 C 0.56683 0.71231 0.09285
 H1185 H 0.65283 0.69766 0.09729
 H1186 H 0.62770 0.73166 0.13511
 H1187 H 0.59105 0.78061 0.06967
 H1188 H 0.61630 0.74705 0.03123
 H1189 H 0.57012 0.67403 0.06307
 H1190 H 0.54402 0.70735 0.10130
 C1191 C 0.38255 0.29458 0.06265
 C1192 C 0.36403 0.26931 0.07835
 C1193 C 0.37995 0.25418 0.10005
 C1194 C 0.41327 0.26519 0.10404
 C1195 C 0.42738 0.26340 0.07236
 C1196 C 0.41142 0.27872 0.05084
 C1197 C 0.39380 0.31491 0.08857
 C1198 C 0.40979 0.29965 0.11026
 H1199 H 0.34010 0.26443 0.07373
 H1200 H 0.36936 0.23669 0.11387
 H1201 H 0.44837 0.25116 0.06733
 H1202 H 0.41870 0.27946 0.02746
 H1203 H 0.38842 0.33898 0.09042
 H1204 H 0.41717 0.31101 0.13068
 C1205 C 0.61361 0.29666 0.93519
 C1206 C 0.60133 0.26613 0.94691
 C1207 C 0.58542 0.24991 0.92601
 C1208 C 0.58343 0.26540 0.89485
 C1209 C 0.56928 0.29684 0.90191
 C1210 C 0.58515 0.31317 0.92283
 C1211 C 0.63255 0.28863 0.90718
 C1212 C 0.61684 0.27228 0.88621
 H1213 H 0.60407 0.25835 0.96999
 H1214 H 0.57439 0.22844 0.93151
 H1215 H 0.54764 0.30506 0.89313
 H1216 H 0.57727 0.33518 0.93074
 H1217 H 0.65626 0.29544 0.90402
 H1218 H 0.62718 0.26513 0.86513
 C1219 C 0.38303 0.70618 0.93902
 C1220 C 0.41385 0.71944 0.94922
 C1221 C 0.42870 0.73555 0.92748
 C1222 C 0.41159 0.73711 0.89724
 C1223 C 0.40524 0.70357 0.88883
 C1224 C 0.39045 0.68747 0.91072
 C1225 C 0.36479 0.73364 0.92709
 C1226 C 0.37955 0.74960 0.90515
 H1227 H 0.42322 0.71643 0.97170
 H1228 H 0.45079 0.74624 0.93142
 H1229 H 0.41006 0.69364 0.86698
 H1230 H 0.38341 0.66396 0.90760
 H1231 H 0.34171 0.73936 0.93420
 H1232 H 0.36862 0.76844 0.89352
 C1233 C 0.70795 0.94119 0.38707
 C1234 C 0.69398 0.92963 0.41677
 C1235 C 0.71180 0.90902 0.43153
 C1236 C 0.74209 0.90159 0.41551
 C1237 C 0.73257 0.89172 0.38345
 C1238 C 0.71459 0.91229 0.36878
 C1239 C 0.73968 0.95345 0.39585
 C1240 C 0.75762 0.93280 0.41044
 H1241 H 0.67199 0.93695 0.42556
 H1242 H 0.70496 0.89887 0.45281
 H1243 H 0.74043 0.87109 0.37247
 H1244 H 0.70671 0.90877 0.34584
 H1245 H 0.74777 0.97612 0.39013
 H1246 H 0.78118 0.93794 0.41634
 C1247 C 0.29422 0.93778 0.61313
 C1248 C 0.31165 0.90788 0.60808
 C1249 C 0.29624 0.88736 0.59075
 C1250 C 0.26436 0.89836 0.58027
 C1251 C 0.24772 0.90758 0.60938
 C1252 C 0.26323 0.92811 0.62655
 C1253 C 0.28659 0.94929 0.58132
 C1254 C 0.27129 0.92870 0.56404
 H1255 H 0.33460 0.90361 0.61654
 H1256 H 0.30662 0.86599 0.58401
 H1257 H 0.22550 0.89861 0.61594
 H1258 H 0.25416 0.93657 0.64771
 H1259 H 0.29360 0.97139 0.57272
 H1260 H 0.26609 0.93323 0.54056
 C1261 C 0.29692 0.06373 0.39068
 C1262 C 0.31395 0.07580 0.41862
 C1263 C 0.29753 0.09629 0.43505
 C1264 C 0.26545 0.10321 0.42196
 C1265 C 0.27150 0.11288 0.38918
 C1266 C 0.28794 0.09236 0.37291
 C1267 C 0.26668 0.05106 0.40310
 C1268 C 0.25038 0.07151 0.41958
 H1269 H 0.33643 0.06803 0.42570
 H1270 H 0.30619 0.10484 0.45631
 H1271 H 0.26374 0.13431 0.37967
 H1272 H 0.29420 0.09629 0.34955
 H1273 H 0.25917 0.02769 0.39998
 H1274 H 0.22909 0.06535 0.43067
 C1275 C 0.70775 0.05988 0.61620
 C1276 C 0.71184 0.08979 0.63361
 C1277 C 0.72880 0.11107 0.61872
 C1278 C 0.73995 0.10073 0.58731
 C1279 C 0.75739 0.07091 0.59395
 C1280 C 0.74048 0.04957 0.60875
 C1281 C 0.69390 0.06936 0.58572
 C1282 C 0.71073 0.09062 0.57072
 H1283 H 0.70321 0.09347 0.65625
 H1284 H 0.73512 0.13235 0.62941
 H1285 H 0.78131 0.06717 0.58845
 H1286 H 0.74984 0.02762 0.61527
 H1287 H 0.67273 0.06022 0.57661
 H1288 H 0.70384 0.09953 0.54891
 C1289 C 0.93738 0.61198 0.29480
 C1290 C 0.90671 0.62887 0.29243
 C1291 C 0.88536 0.61422 0.27535
 C1292 C 0.89645 0.58353 0.26231
 C1293 C 0.92584 0.59217 0.24498
 C1294 C 0.94724 0.60671 0.26202
 C1295 C 0.92907 0.58015 0.30677
 C1296 C 0.90776 0.56537 0.28978
 H1297 H 0.90255 0.65110 0.30232
 H1298 H 0.86354 0.62479 0.27023
 H1299 H 0.92926 0.58809 0.22111
 H1300 H 0.96893 0.61445 0.25277
 H1301 H 0.93902 0.56999 0.32681
 H1302 H 0.89959 0.54270 0.29542
 C1303 C 0.93651 0.39378 0.70059
 C1304 C 0.90811 0.37531 0.70968
 C1305 C 0.88756 0.39127 0.72645
 C1306 C 0.89697 0.42444 0.73267
 C1307 C 0.92916 0.42221 0.74690
 C1308 C 0.94964 0.40606 0.73027
 C1309 C 0.92369 0.42210 0.68447
 C1310 C 0.90320 0.43821 0.70120
 H1311 H 0.90438 0.35174 0.70330
 H1312 H 0.86626 0.38127 0.73435
 H1313 H 0.93559 0.43318 0.76789
 H1314 H 0.97331 0.40308 0.73720
 H1315 H 0.93100 0.42969 0.66233
 H1316 H 0.89423 0.45972 0.69314
 C1317 C 0.06683 0.61884 0.70785
 C1318 C 0.09462 0.60984 0.68861
 C1319 C 0.11662 0.59426 0.70406
 C1320 C 0.10879 0.58882 0.73759
 C1321 C 0.10269 0.62115 0.74973
 C1322 C 0.08068 0.63668 0.73441
 C1323 C 0.05534 0.58892 0.72168
 C1324 C 0.07718 0.57331 0.73718
 H1325 H 0.09745 0.61645 0.66519
 H1326 H 0.13827 0.58846 0.69361
 H1327 H 0.11544 0.63148 0.76808
 H1328 H 0.07465 0.65996 0.74007
 H1329 H 0.03196 0.58074 0.71953
 H1330 H 0.07241 0.55171 0.74816
 C1331 C 0.06185 0.38120 0.29136
 C1332 C 0.09030 0.38980 0.30990
 C1333 C 0.11185 0.40561 0.29405
 C1334 C 0.10294 0.41166 0.26086
 C1335 C 0.09628 0.37956 0.24836
 C1336 C 0.07473 0.36379 0.26409
 C1337 C 0.05008 0.41139 0.27840
 C1338 C 0.07145 0.42723 0.26251
 H1339 H 0.09387 0.38277 0.33310
 H1340 H 0.13385 0.41114 0.30396
 H1341 H 0.10830 0.36957 0.22939
 H1342 H 0.06837 0.34065 0.25818
 H1343 H 0.02687 0.41967 0.28152
 H1344 H 0.06645 0.44907 0.25212
   
