data_POSCAR
  _audit_creation_date              2014-09-24
  _audit_creation_method            'ToBaCCo'
  _symmetry_space_group_name_H-M    'P1'
  _symmetry_Int_Tables_number       1
  _symmetry_cell_setting            triclinic
  loop_
  _symmetry_equiv_pos_as_xyz
 x,y,z
_cell_length_a 52.0910
_cell_length_b 51.2670
_cell_length_c 52.3114
_cell_angle_alpha 87.986200
_cell_angle_beta 88.104200
_cell_angle_gamma 88.123700
loop_
  _atom_site_label
  _atom_site_type_symbol
  _atom_site_fract_x
  _atom_site_fract_y
  _atom_site_fract_z
C1 C 0.79458 0.64103 1.00525
 C2 C 0.79731 0.61973 0.98538
 C3 C 0.77623 0.60514 0.98351
 C4 C 0.75405 0.61314 1.00202
 C5 C 0.77029 0.65701 0.99712
 C6 C 0.74895 0.64230 0.99520
 C7 C 0.78661 0.62681 1.03019
 C8 C 0.76519 0.61258 1.02895
 H9 H 0.81233 0.61978 0.97053
 H10 H 0.73710 0.60084 1.00095
 H11 H 0.77076 0.67726 0.99064
 H12 H 0.79695 0.62870 1.04762
 C13 C 0.78085 0.36087 0.48571
 C14 C 0.78425 0.38258 0.50466
 C15 C 0.76257 0.39735 0.50931
 C16 C 0.73916 0.38916 0.49480
 C17 C 0.75841 0.34538 0.49763
 C18 C 0.73641 0.35996 0.50203
 C19 C 0.76990 0.37482 0.46199
 C20 C 0.74811 0.38948 0.46651
 H21 H 0.80136 0.38462 0.51551
 H22 H 0.72161 0.40145 0.49851
 H23 H 0.76015 0.32478 0.50278
 H24 H 0.77885 0.37311 0.44311
 C25 C 0.29383 -0.12838 -0.03581
 C26 C 0.29899 -0.10933 -0.01670
 C27 C 0.27664 -0.09525 -0.00746
 C28 C 0.25321 -0.10211 -0.02003
 C29 C 0.27360 -0.14457 -0.02448
 C30 C 0.25081 -0.13042 -0.01562
 C31 C 0.28162 -0.11253 -0.05597
 C32 C 0.25897 -0.09809 -0.04761
 H33 H 0.31799 -0.10490 -0.01076
 H34 H 0.23701 -0.08958 -0.01328
 H35 H 0.27534 -0.16562 -0.02473
 H36 H 0.28893 -0.11184 -0.07557
 C37 C 0.27923 0.13781 0.50081
 C38 C 0.28322 0.11768 0.47993
 C39 C 0.26192 0.10436 0.47504
 C40 C 0.23834 0.11217 0.49174
 C41 C 0.25638 0.15534 0.49140
 C42 C 0.23492 0.14181 0.48650
 C43 C 0.26815 0.12257 0.52407
 C44 C 0.24687 0.10927 0.51946
 H45 H 0.30016 0.11714 0.46734
 H46 H 0.22131 0.10045 0.48850
 H47 H 0.25762 0.17590 0.48656
 H48 H 0.27551 0.12386 0.54311
 C49 C 0.14816 0.50544 0.30069
 C50 C 0.12567 0.48696 0.30457
 C51 C 0.11236 0.48347 0.28310
 C52 C 0.12268 0.49885 0.25944
 C53 C 0.16442 0.49342 0.27869
 C54 C 0.15110 0.49005 0.25708
 C55 C 0.13615 0.53058 0.28905
 C56 C 0.12316 0.52753 0.26724
 H57 H 0.12298 0.47420 0.32126
 H58 H 0.11172 0.49551 0.24213
 H59 H 0.18449 0.48768 0.28035
 H60 H 0.13805 0.54925 0.29771
 C61 C -0.13498 -0.02751 0.28768
 C62 C -0.11333 -0.00941 0.29388
 C63 C -0.09804 -0.00224 0.27342
 C64 C -0.10562 -0.01424 0.24834
 C65 C -0.14946 -0.01241 0.26620
 C66 C -0.13405 -0.00572 0.24549
 C67 C -0.12244 -0.04939 0.27494
 C68 C -0.10615 -0.04242 0.25342
 H69 H -0.11200 -0.00085 0.31242
 H70 H -0.09335 -0.00806 0.23162
 H71 H -0.17002 -0.00910 0.26598
 H72 H -0.12482 -0.06941 0.28171
 C73 C 0.35994 0.46829 0.80032
 C74 C 0.38104 0.48736 0.80534
 C75 C 0.39596 0.49369 0.78443
 C76 C 0.38861 0.48028 0.76006
 C77 C 0.34509 0.48173 0.77815
 C78 C 0.35993 0.48778 0.75677
 C79 C 0.37402 0.44487 0.78821
 C80 C 0.38901 0.45103 0.76730
 H81 H 0.38280 0.49654 0.82352
 H82 H 0.40184 0.48473 0.74365
 H83 H 0.32510 0.48755 0.77975
 H84 H 0.37145 0.42492 0.79510
 C85 C 0.65095 0.99587 0.78940
 C86 C 0.62974 0.97585 0.79391
 C87 C 0.61601 0.97184 0.77285
 C88 C 0.62454 0.98819 0.74912
 C89 C 0.66714 0.98496 0.76681
 C90 C 0.65334 0.98105 0.74566
 C91 C 0.63790 1.01915 0.77905
 C92 C 0.62313 1.01547 0.75680
 H93 H 0.62835 0.96262 0.81039
 H94 H 0.61337 0.98326 0.73249
 H95 H 0.68747 0.98006 0.76782
 H96 H 0.64101 1.03793 0.78693
 C97 C -0.02130 0.30681 -0.13546
 C98 C 0.00273 0.31144 -0.12005
 C99 C 0.01133 0.29005 -0.10639
 C100 C -0.00475 0.26589 -0.10907
 C101 C -0.01346 0.28327 -0.15174
 C102 C -0.00479 0.26182 -0.13804
 C103 C -0.04086 0.29613 -0.11544
 C104 C -0.03246 0.27452 -0.10195
 H105 H 0.01273 0.32951 -0.11991
 H106 H 0.00225 0.24876 -0.09745
 H107 H -0.01381 0.28411 -0.17243
 H108 H -0.06050 0.30367 -0.11385
 C109 C 0.51599 0.28230 0.13989
 C110 C 0.49623 0.28739 0.11915
 C111 C 0.49038 0.26594 0.10618
 C112 C 0.50536 0.24106 0.11479
 C113 C 0.50464 0.25996 0.15685
 C114 C 0.49897 0.23849 0.14363
 C115 C 0.53923 0.26953 0.12602
 C116 C 0.53377 0.24827 0.11273
 H117 H 0.48549 0.30578 0.11717
 H118 H 0.50089 0.22373 0.10379
 H119 H 0.50085 0.26076 0.17721
 H120 H 0.55854 0.27662 0.12691
 C121 C 1.00320 0.79623 0.63637
 C122 C 0.98932 0.79967 0.61263
 C123 C 0.98674 0.77603 0.59918
 C124 C 0.99944 0.75342 0.61190
 C125 C 0.98929 0.77593 0.65090
 C126 C 0.98751 0.75192 0.63772
 C127 C 1.02781 0.78417 0.62891
 C128 C 1.02618 0.76049 0.61538
 H129 H 0.97574 0.81577 0.60940
 H130 H 0.99753 0.73563 0.60095
 H131 H 0.98155 0.77861 0.67012
 H132 H 1.04572 0.79383 0.63126
 C133 C 0.47398 0.79807 0.36056
 C134 C 0.49921 0.80246 0.37405
 C135 C 0.50767 0.78160 0.38847
 C136 C 0.49054 0.75792 0.38808
 C137 C 0.47983 0.77350 0.34521
 C138 C 0.48887 0.75233 0.35929
 C139 C 0.45517 0.78915 0.38190
 C140 C 0.46342 0.76811 0.39637
 H141 H 0.51070 0.81953 0.37141
 H142 H 0.49828 0.74163 0.40024
 H143 H 0.47702 0.77340 0.32484
 H144 H 0.43596 0.79770 0.38367
 C145 C 0.36905 -0.00606 0.26621
 H146 H 0.36752 0.01277 0.27495
 C147 C 0.38240 -0.02679 0.27830
 H148 H 0.39092 -0.02376 0.29651
 C149 C 0.35866 -0.03301 0.23241
 H150 H 0.34893 -0.03560 0.21484
 C151 C 0.37198 -0.05423 0.24375
 H152 H 0.37288 -0.07270 0.23429
 N153 N 0.35775 -0.00940 0.24355
 C154 C 0.35115 0.06914 0.20916
 H155 H 0.33075 0.07041 0.20584
 C156 C 0.36651 0.09018 0.20222
 H157 H 0.35789 0.10768 0.19351
 C158 C 0.38732 0.04452 0.22403
 H159 H 0.39539 0.02659 0.23226
 C160 C 0.40348 0.06492 0.21692
 H161 H 0.42390 0.06270 0.22001
 Zn162 Zn 0.33920 0.01961 0.22915
 N163 N 0.36160 0.04711 0.22036
 C164 C 0.31492 0.05476 0.26334
 N165 N 0.31456 0.03019 0.25440
 C166 C 0.29978 0.01163 0.26617
 C167 C 0.28565 0.01713 0.28866
 C168 C 0.30078 0.06121 0.28539
 C169 C 0.34175 0.00320 0.18002
 C170 C 0.33371 -0.00415 0.15635
 C171 C 0.28975 0.00476 0.17044
 C172 C 0.29870 0.01146 0.19427
 N173 N 0.32434 0.01036 0.19853
 H174 H 0.32734 0.06905 0.25440
 H175 H 0.30028 -0.00792 0.25898
 H176 H 0.27494 0.00187 0.29855
 H177 H 0.30244 0.08049 0.29289
 H178 H 0.36203 0.00276 0.18391
 H179 H 0.34811 -0.01092 0.14253
 H180 H 0.26933 0.00606 0.16720
 H181 H 0.28527 0.01770 0.20921
 C182 C 0.39301 0.08817 0.20613
 C183 C 0.38409 -0.05129 0.26702
 C184 C 0.30740 -0.00323 0.15104
 C185 C 0.28653 0.04208 0.29878
 C186 C 0.07135 1.04940 0.78632
 H187 H 0.07298 1.03123 0.79739
 C188 C 0.05904 1.07118 0.79706
 H189 H 0.05097 1.06970 0.81639
 C190 C 0.08118 1.07392 0.74816
 H191 H 0.09054 1.07512 0.72944
 C192 C 0.06857 1.09604 0.75798
 H193 H 0.06825 1.11418 0.74671
 N194 N 0.08258 1.05130 0.76252
 C195 C 0.09662 0.97314 0.73484
 H196 H 0.11739 0.97263 0.73500
 C197 C 0.08382 0.95170 0.72669
 H198 H 0.09476 0.93460 0.72048
 C199 C 0.05707 0.99643 0.74209
 H200 H 0.04689 1.01408 0.74791
 C201 C 0.04345 0.97554 0.73343
 H202 H 0.02270 0.97701 0.73264
 Zn203 Zn 0.10329 1.02258 0.75187
 N204 N 0.08318 0.99477 0.74259
 C205 C 0.11913 0.98797 0.79173
 N206 N 0.12376 1.01149 0.77988
 C207 C 0.14147 1.02755 0.78885
 C208 C 0.15651 1.01935 0.80947
 C209 C 0.13329 0.97929 0.81268
 C210 C 0.11031 1.03442 0.70010
 C211 C 0.12312 1.04069 0.67698
 C212 C 0.16263 1.04214 0.69966
 C213 C 0.14912 1.03524 0.72230
 N214 N 0.12332 1.03197 0.72220
 H215 H 0.10421 0.97594 0.78523
 H216 H 0.14397 1.04669 0.77995
 H217 H 0.17094 1.03201 0.81613
 H218 H 0.12962 0.96035 0.82163
 H219 H 0.08986 1.03128 0.70044
 H220 H 0.11231 1.04191 0.65965
 H221 H 0.18298 1.04554 0.70045
 H222 H 0.15935 1.03265 0.73983
 C223 C 0.05699 0.95287 0.72579
 C224 C 0.05792 1.09492 0.78294
 C225 C 0.14965 1.04496 0.67650
 C226 C 0.15244 0.99491 0.82153
 C227 C 0.57272 0.54120 0.28184
 H228 H 0.56950 0.52169 0.28954
 C229 C 0.55844 0.56242 0.29161
 H230 H 0.54376 0.55886 0.30633
 C231 C 0.59610 0.56944 0.25361
 H232 H 0.61124 0.57224 0.23926
 C233 C 0.58262 0.59116 0.26306
 H234 H 0.58782 0.61037 0.25583
 N235 N 0.59101 0.54505 0.26305
 C236 C 0.60797 0.47289 0.22385
 H237 H 0.62853 0.47516 0.22207
 C238 C 0.59688 0.45207 0.21253
 H239 H 0.60899 0.43829 0.20203
 C240 C 0.56730 0.48791 0.24014
 H241 H 0.55588 0.50204 0.25076
 C242 C 0.55541 0.46692 0.22946
 H243 H 0.53483 0.46495 0.23191
 Zn244 Zn 0.61213 0.51677 0.25162
 N245 N 0.59322 0.49028 0.23736
 C246 C 0.62715 0.47653 0.28631
 N247 N 0.63004 0.50222 0.27990
 C248 C 0.64470 0.51750 0.29394
 C249 C 0.65785 0.50672 0.31491
 C250 C 0.63992 0.46501 0.30698
 C251 C 0.62426 0.53465 0.20227
 C252 C 0.63953 0.54216 0.18107
 C253 C 0.67681 0.53781 0.20736
 C254 C 0.66084 0.52989 0.22804
 N255 N 0.63505 0.52865 0.22515
 H256 H 0.61484 0.46482 0.27549
 H257 H 0.64628 0.53801 0.28875
 H258 H 0.66988 0.51896 0.32560
 H259 H 0.63727 0.44453 0.31175
 H260 H 0.60373 0.53328 0.20049
 H261 H 0.63063 0.54690 0.16300
 H262 H 0.69731 0.53879 0.20983
 H263 H 0.66910 0.52463 0.24624
 C264 C 0.57034 0.44884 0.21538
 C265 C 0.56346 0.58792 0.28236
 C266 C 0.66612 0.54384 0.18350
 C267 C 0.65575 0.48004 0.32142
 C268 C 0.87685 0.50144 0.76578
 H269 H 0.87538 0.52023 0.77459
 C270 C 0.89117 0.48098 0.77720
 H271 H 0.90055 0.48421 0.79492
 C272 C 0.86498 0.47413 0.73280
 H273 H 0.85428 0.47135 0.71583
 C274 C 0.87917 0.45315 0.74353
 H275 H 0.87969 0.43456 0.73429
 N276 N 0.86409 0.49769 0.74403
 C277 C 0.85029 0.57610 0.71100
 H278 H 0.82957 0.57649 0.71002
 C279 C 0.86402 0.59789 0.70262
 H280 H 0.85379 0.61509 0.69515
 C281 C 0.88888 0.55299 0.72153
 H282 H 0.89851 0.53539 0.72872
 C283 C 0.90340 0.57418 0.71290
 H284 H 0.92415 0.57286 0.71381
 Zn285 Zn 0.84275 0.52567 0.73183
 N286 N 0.86279 0.55442 0.72070
 C287 C 0.82064 0.55934 0.76882
 N288 N 0.82050 0.53482 0.75972
 C289 C 0.80759 0.51548 0.77255
 C290 C 0.79497 0.52024 0.79605
 C291 C 0.80805 0.56500 0.79197
 C292 C 0.83949 0.51078 0.68204
 C293 C 0.82851 0.50249 0.65996
 C294 C 0.78692 0.50426 0.68182
 C295 C 0.79879 0.51255 0.70364
 N296 N 0.82470 0.51528 0.70338
 H297 H 0.83165 0.57426 0.75895
 H298 H 0.80823 0.49601 0.76518
 H299 H 0.78557 0.50445 0.80652
 H300 H 0.80944 0.58434 0.79940
 H301 H 0.86003 0.51322 0.68238
 H302 H 0.84091 0.49818 0.64352
 H303 H 0.76632 0.50202 0.68230
 H304 H 0.78738 0.51657 0.72077
 C305 C 0.89091 0.59705 0.70353
 C306 C 0.89231 0.45635 0.76618
 C307 C 0.80189 0.49900 0.65961
 C308 C 0.79553 0.54519 0.80621
 C309 C 0.26907 0.38531 0.00552
 H310 H 0.27792 0.38514 0.02386
 C311 C 0.27978 0.39999 -0.01486
 H312 H 0.29672 0.41101 -0.01181
 C313 C 0.23617 0.37162 -0.02061
 H314 H 0.21906 0.36075 -0.02286
 C315 C 0.24638 0.38586 -0.04159
 H316 H 0.23730 0.38506 -0.05985
 N317 N 0.24815 0.37075 0.00216
 C318 C 0.22023 0.35323 0.08013
 H319 H 0.22260 0.33218 0.08113
 C320 C 0.21249 0.36669 0.10195
 H321 H 0.20848 0.35577 0.11964
 C322 C 0.22245 0.39292 0.05565
 H323 H 0.22648 0.40305 0.03757
 C324 C 0.21485 0.40717 0.07702
 H325 H 0.21339 0.42826 0.07518
 Zn326 Zn 0.23733 0.34731 0.02923
 N327 N 0.22510 0.36647 0.05761
 C328 C 0.28323 0.33980 0.05362
 N329 N 0.26658 0.32701 0.03944
 C330 C 0.27228 0.30239 0.03149
 C331 C 0.29639 0.29058 0.03621
 C332 C 0.30745 0.32894 0.05847
 C333 C 0.18690 0.32861 0.02824
 C334 C 0.16615 0.31778 0.01663
 C335 C 0.19546 0.30146 -0.01626
 C336 C 0.21566 0.31241 -0.00393
 N337 N 0.21096 0.32645 0.01742
 H338 H 0.27802 0.35897 0.06045
 H339 H 0.25867 0.29224 0.02070
 H340 H 0.30124 0.27147 0.02892
 H341 H 0.32085 0.33989 0.06893
 H342 H 0.18343 0.34011 0.04498
 H343 H 0.14692 0.32112 0.02459
 H344 H 0.19933 0.29160 -0.03402
 H345 H 0.23480 0.31147 -0.01258
 C346 C 0.20985 0.39407 0.10062
 C347 C 0.26892 0.39970 -0.03905
 C348 C 0.17023 0.30489 -0.00644
 C349 C 0.31452 0.30442 0.04905
 C350 C 0.79869 0.08143 1.03680
 H351 H 0.81080 0.08380 1.01973
 C352 C 0.80867 0.06928 1.05883
 H353 H 0.82856 0.06249 1.05845
 C354 C 0.75866 0.08934 1.05840
 H355 H 0.73936 0.09767 1.05839
 C356 C 0.76769 0.07696 1.08067
 H357 H 0.75486 0.07538 1.09731
 N358 N 0.77423 0.09156 1.03711
 C359 C 0.74631 0.10469 0.95999
 H360 H 0.74506 0.12581 0.95967
 C361 C 0.73885 0.09131 0.93891
 H362 H 0.73173 0.10222 0.92236
 C363 C 0.75642 0.06485 0.98239
 H364 H 0.76312 0.05475 0.99953
 C365 C 0.74857 0.05060 0.96183
 H366 H 0.74934 0.02946 0.96311
 Zn367 Zn 0.76356 0.11219 1.00847
 N368 N 0.75515 0.09141 0.98103
 C369 C 0.80235 0.13100 0.97447
 N370 N 0.79111 0.13398 0.99808
 C371 C 0.80041 0.15093 1.01470
 C372 C 0.82116 0.16648 1.00735
 C373 C 0.82319 0.14590 0.96647
 C374 C 0.71121 0.11821 1.01901
 C375 C 0.68798 0.13047 1.02638
 C376 C 0.71032 0.17065 1.02994
 C377 C 0.73311 0.15767 1.02212
 N378 N 0.73325 0.13175 1.01741
 H379 H 0.79552 0.11677 0.96183
 H380 H 0.79184 0.15222 1.03375
 H381 H 0.82832 0.17994 1.02071
 H382 H 0.83160 0.14343 0.94747
 H383 H 0.71176 0.09768 1.01482
 H384 H 0.67072 0.11924 1.02739
 H385 H 0.71088 0.19102 1.03461
 H386 H 0.75065 0.16828 1.02033
 C387 C 0.73979 0.06395 0.93973
 C388 C 0.79323 0.06727 1.08135
 C389 C 0.68736 0.15695 1.03245
 C390 C 0.83281 0.16397 0.98294
 C391 C 0.25741 0.57933 0.56337
 H392 H 0.23848 0.57558 0.55673
 C393 C 0.26679 0.56525 0.58466
 H394 H 0.25524 0.55001 0.59339
 C395 C 0.29510 0.60391 0.55997
 H396 H 0.30601 0.61926 0.55062
 C397 C 0.30479 0.59101 0.58164
 H398 H 0.32285 0.59717 0.58863
 N399 N 0.27175 0.59803 0.55128
 C400 C 0.24604 0.61108 0.47303
 H401 H 0.24936 0.63177 0.47132
 C402 C 0.23864 0.59801 0.45171
 H403 H 0.23558 0.60895 0.43392
 C404 C 0.24634 0.57172 0.49814
 H405 H 0.24977 0.56138 0.51605
 C406 C 0.23856 0.55789 0.47729
 H407 H 0.23583 0.53707 0.47948
 Zn408 Zn 0.25876 0.61869 0.52340
 N409 N 0.24932 0.59800 0.49584
 C410 C 0.30216 0.63051 0.49344
 N411 N 0.28506 0.64069 0.51086
 C412 C 0.28787 0.66487 0.52006
 C413 C 0.30869 0.67986 0.51161
 C414 C 0.32283 0.64494 0.48413
 C415 C 0.22429 0.63970 0.56070
 C416 C 0.20233 0.65315 0.56988
 C417 C 0.19184 0.66501 0.52631
 C418 C 0.21415 0.65155 0.51796
 N419 N 0.22967 0.63887 0.53509
 H420 H 0.29977 0.61103 0.48680
 H421 H 0.27428 0.67227 0.53433
 H422 H 0.31094 0.69880 0.51962
 H423 H 0.33560 0.63659 0.46965
 H424 H 0.23696 0.62984 0.57410
 H425 H 0.19817 0.65324 0.59030
 H426 H 0.17965 0.67486 0.51238
 H427 H 0.21877 0.65101 0.49775
 C428 C 0.23446 0.57115 0.45377
 C429 C 0.29076 0.57117 0.59434
 C430 C 0.18562 0.66577 0.55257
 C431 C 0.32658 0.66991 0.49338
 C432 C 0.77421 0.88278 0.49049
 H433 H 0.78392 0.87969 0.50837
 C434 C 0.78547 0.89785 0.47069
 H435 H 0.80364 0.90673 0.47375
 C436 C 0.73901 0.87432 0.46480
 H437 H 0.72107 0.86481 0.46246
 C438 C 0.74967 0.88911 0.44442
 H439 H 0.73987 0.89048 0.42648
 N440 N 0.75169 0.87089 0.48704
 C441 C 0.72158 0.85061 0.56408
 H442 H 0.72015 0.82964 0.56344
 C443 C 0.71411 0.86337 0.58641
 H444 H 0.70710 0.85207 0.60292
 C445 C 0.73140 0.89090 0.54306
 H446 H 0.73797 0.90164 0.52610
 C447 C 0.72390 0.90446 0.56490
 H448 H 0.72510 0.92552 0.56461
 Zn449 Zn 0.74064 0.84647 0.51284
 N450 N 0.73036 0.86440 0.54304
 C451 C 0.77663 0.81618 0.54291
 N452 N 0.76941 0.82346 0.51884
 C453 C 0.78473 0.81777 0.49804
 C454 C 0.80892 0.80573 0.50108
 C455 C 0.80043 0.80354 0.54675
 C456 C 0.68875 0.83178 0.51155
 C457 C 0.66748 0.82096 0.50089
 C458 C 0.69578 0.80187 0.46863
 C459 C 0.71655 0.81294 0.48000
 N460 N 0.71266 0.82803 0.50076
 H461 H 0.76468 0.82124 0.55930
 H462 H 0.77892 0.82418 0.47913
 H463 H 0.82156 0.80281 0.48450
 H464 H 0.80649 0.79905 0.56606
 H465 H 0.68590 0.84417 0.52775
 H466 H 0.64850 0.82518 0.50909
 H467 H 0.69914 0.79052 0.45169
 H468 H 0.73566 0.81041 0.47158
 C469 C 0.71523 0.89067 0.58700
 C470 C 0.77357 0.90057 0.44697
 C471 C 0.67076 0.80632 0.47877
 C472 C 0.81713 0.79898 0.52572
 C473 C -0.02026 0.25579 0.40137
 H474 H -0.00088 0.25587 0.40818
 C475 C -0.04075 0.26476 0.41694
 H476 H -0.03702 0.27138 0.43585
 C477 C -0.04861 0.24766 0.36824
 H478 H -0.05137 0.24147 0.34899
 C479 C -0.06963 0.25641 0.38314
 H480 H -0.08854 0.25704 0.37511
 N481 N -0.02449 0.24788 0.37738
 C482 C 0.03296 0.20804 0.38927
 H483 H 0.01648 0.19584 0.38960
 C484 C 0.05449 0.19985 0.40286
 H485 H 0.05430 0.18134 0.41349
 C486 C 0.05319 0.24696 0.37535
 H487 H 0.05254 0.26545 0.36484
 C488 C 0.07519 0.23953 0.38882
 H489 H 0.09152 0.25210 0.38801
 Zn490 Zn 0.00359 0.23895 0.35520
 N491 N 0.03288 0.23087 0.37524
 C492 C 0.03224 0.26926 0.31809
 N493 N 0.01000 0.26807 0.33247
 C494 C -0.00674 0.28896 0.33345
 C495 C -0.00056 0.31269 0.32142
 C496 C 0.03950 0.29293 0.30619
 C497 C -0.01812 0.19066 0.35190
 C498 C -0.02415 0.16706 0.34164
 C499 C -0.00384 0.18109 0.30154
 C500 C 0.00206 0.20456 0.31274
 N501 N -0.00487 0.20871 0.33764
 H502 H 0.04529 0.25242 0.31754
 H503 H -0.02445 0.28779 0.34464
 H504 H -0.01392 0.32920 0.32321
 H505 H 0.05822 0.29403 0.29669
 H506 H -0.02394 0.19454 0.37146
 H507 H -0.03466 0.15299 0.35344
 H508 H 0.00207 0.17775 0.28185
 H509 H 0.01246 0.21922 0.30168
 C510 C 0.07619 0.21537 0.40227
 C511 C -0.06580 0.26552 0.40770
 C512 C -0.01671 0.16183 0.31629
 C513 C 0.02342 0.31534 0.30873
 C514 C 1.04884 0.77787 0.06585
 H515 H 1.02960 0.78300 0.06009
 C516 C 1.06975 0.78850 0.05213
 H517 H 1.06631 0.80143 0.03570
 C518 C 1.07689 0.75553 0.09449
 H519 H 1.07972 0.74336 0.11149
 C520 C 1.09827 0.76557 0.08128
 H521 H 1.11725 0.76086 0.08829
 N522 N 1.05270 0.76187 0.08680
 C523 C 0.99046 0.71216 0.09153
 H524 H 1.00054 0.69863 0.10413
 C525 C 0.96949 0.70349 0.07873
 H526 H 0.96414 0.68332 0.08146
 C527 C 0.98349 0.75507 0.07447
 H528 H 0.98839 0.77540 0.07367
 C529 C 0.96215 0.74723 0.06143
 H530 H 0.95131 0.76146 0.05002
 Zn531 Zn 1.02493 0.74959 0.10818
 N532 N 0.99744 0.73749 0.08890
 C533 C 0.99260 0.77154 0.14601
 N534 N 1.01093 0.77729 0.12780
 C535 C 1.01763 0.80237 0.12253
 C536 C 1.00536 0.82289 0.13551
 C537 C 0.98060 0.79130 0.16015
 C538 C 1.04740 0.69985 0.11847
 C539 C 1.05636 0.67845 0.13322
 C540 C 1.04831 0.70344 0.17110
 C541 C 1.03895 0.72420 0.15566
 N542 N 1.03813 0.72187 0.12985
 H543 H 0.98734 0.75147 0.14959
 H544 H 1.03195 0.80662 0.10770
 H545 H 1.01028 0.84267 0.12999
 H546 H 0.96687 0.78581 0.17516
 H547 H 1.04739 0.69878 0.09785
 H548 H 1.06321 0.66088 0.12392
 H549 H 1.04864 0.70543 0.19163
 H550 H 1.03255 0.74216 0.16435
 C551 C 0.95503 0.72106 0.06339
 C552 C 1.09487 0.78255 0.05997
 C553 C 1.05673 0.68010 0.15987
 C554 C 0.98643 0.81761 0.15468
 C555 C 0.52962 0.27788 0.58437
 H556 H 0.51058 0.28697 0.58446
 C557 C 0.55011 0.29046 0.57176
 H558 H 0.54670 0.30908 0.56183
 C559 C 0.55752 0.24310 0.59803
 H560 H 0.56073 0.22519 0.60902
 C561 C 0.57838 0.25474 0.58539
 H562 H 0.59729 0.24544 0.58660
 N563 N 0.53362 0.25456 0.59710
 C564 C 0.46346 0.21133 0.60630
 H565 H 0.46589 0.20514 0.62607
 C566 C 0.44335 0.20184 0.59283
 H567 H 0.43036 0.18825 0.60230
 C568 C 0.47725 0.23690 0.57006
 H569 H 0.49057 0.25053 0.56131
 C570 C 0.45695 0.22824 0.55596
 H571 H 0.45476 0.23513 0.53633
 Zn572 Zn 0.50575 0.23964 0.61614
 N573 N 0.47999 0.22839 0.59480
 C574 C 0.46689 0.27470 0.63383
 N575 N 0.49142 0.26575 0.63744
 C576 C 0.50641 0.27650 0.65482
 C577 C 0.49669 0.29695 0.66965
 C578 C 0.45657 0.29536 0.64793
 C579 C 0.52780 0.18939 0.62276
 C580 C 0.53761 0.16732 0.63594
 C581 C 0.52365 0.18673 0.67563
 C582 C 0.51464 0.20871 0.66168
 N583 N 0.51736 0.20989 0.63573
 H584 H 0.45541 0.26620 0.61965
 H585 H 0.52601 0.26932 0.65696
 H586 H 0.50885 0.30545 0.68332
 H587 H 0.43704 0.30233 0.64477
 H588 H 0.52916 0.19055 0.60206
 H589 H 0.54703 0.15196 0.62508
 H590 H 0.52100 0.18619 0.69624
 H591 H 0.50537 0.22473 0.67163
 C592 C 0.43990 0.21034 0.56740
 C593 C 0.57484 0.27877 0.57216
 C594 C 0.53586 0.16579 0.66283
 C595 C 0.47155 0.30676 0.66604
 C596 C 0.49262 0.76574 0.88752
 H597 H 0.51110 0.77482 0.88672
 C598 C 0.47147 0.77836 0.89935
 H599 H 0.47385 0.79705 0.90785
 C600 C 0.46662 0.73131 0.87575
 H601 H 0.46455 0.71341 0.86588
 C602 C 0.44495 0.74338 0.88711
 H603 H 0.42652 0.73428 0.88639
 N604 N 0.48988 0.74263 0.87605
 C605 C 0.56569 0.70494 0.86634
 H606 H 0.56397 0.69895 0.84685
 C607 C 0.58737 0.69725 0.87994
 H608 H 0.60238 0.68548 0.87072
 C609 C 0.54807 0.72744 0.90196
 H610 H 0.53255 0.73884 0.91063
 C611 C 0.56962 0.72035 0.91625
 H612 H 0.57047 0.72633 0.93585
 Zn613 Zn 0.51812 0.72848 0.85664
 N614 N 0.54663 0.71986 0.87737
 C615 C 0.55222 0.75982 0.82637
 N616 N 0.52717 0.75430 0.83152
 C617 C 0.50779 0.76976 0.82194
 C618 C 0.51325 0.79276 0.80803
 C619 C 0.55854 0.78234 0.81208
 C620 C 0.50299 0.67718 0.85795
 C621 C 0.49491 0.65375 0.84875
 C622 C 0.49911 0.67211 0.80569
 C623 C 0.50693 0.69540 0.81580
 N624 N 0.50840 0.69752 0.84154
 H625 H 0.56736 0.74758 0.83442
 H626 H 0.48803 0.76508 0.82652
 H627 H 0.49766 0.80570 0.80181
 H628 H 0.57854 0.78720 0.80931
 H629 H 0.50444 0.67944 0.87833
 H630 H 0.48974 0.63827 0.86236
 H631 H 0.49806 0.67072 0.78515
 H632 H 0.51164 0.71180 0.80313
 C633 C 0.58952 0.70492 0.90525
 C634 C 0.44718 0.76733 0.89887
 C635 C 0.49277 0.65092 0.82227
 C636 C 0.53891 0.79955 0.80357
 C637 C 0.43770 -0.13759 0.31767
 C638 C 0.42777 -0.16267 0.31736
 C639 C 0.44028 -0.18331 0.33071
 C640 C 0.46251 -0.17914 0.34459
 C641 C 0.47212 -0.15365 0.34454
 C642 C 0.45990 -0.13294 0.33104
 C643 C 0.42425 -0.11564 0.30426
 C644 C 0.43405 -0.09049 0.30485
 C645 C 0.42103 -0.06962 0.29237
 C646 C 0.39815 -0.07367 0.27962
 C647 C 0.38862 -0.09909 0.27922
 C648 C 0.40164 -0.12015 0.29146
 C649 C 0.46921 -0.10752 0.33105
 C650 C 0.45655 -0.08667 0.31811
 C651 C 0.40524 -0.16650 0.30409
 C652 C 0.39237 -0.14559 0.29140
 H653 H 0.48637 -0.10366 0.34127
 H654 H 0.46430 -0.06735 0.31871
 H655 H 0.39737 -0.18578 0.30371
 H656 H 0.37495 -0.14934 0.28158
 H657 H 0.43238 -0.20262 0.33087
 H658 H 0.48857 -0.14925 0.35538
 H659 H 0.42878 -0.05027 0.29249
 H660 H 0.37083 -0.10242 0.26986
 C661 C 0.94393 0.37061 0.81964
 C662 C 0.96670 0.37499 0.83218
 C663 C 0.97839 0.35450 0.84648
 C664 C 0.96742 0.32960 0.84846
 C665 C 0.94478 0.32561 0.83515
 C666 C 0.93289 0.34600 0.82093
 C667 C 0.93121 0.39231 0.80515
 C668 C 0.90817 0.38803 0.79301
 C669 C 0.89576 0.40892 0.77990
 C670 C 0.90627 0.43397 0.77886
 C671 C 0.92967 0.43773 0.79080
 C672 C 0.94214 0.41701 0.80408
 C673 C 0.90998 0.34237 0.80824
 C674 C 0.89780 0.36305 0.79456
 C675 C 0.97721 0.39992 0.83041
 C676 C 0.96516 0.42056 0.81658
 H677 H 0.90127 0.32344 0.80908
 H678 H 0.88003 0.35948 0.78525
 H679 H 0.99482 0.40358 0.83996
 H680 H 0.97381 0.43952 0.81586
 H681 H 0.99584 0.35846 0.85591
 H682 H 0.93624 0.30658 0.83624
 H683 H 0.87760 0.40585 0.77114
 H684 H 0.93812 0.45679 0.78983
 C685 C 0.02112 1.19009 0.82839
 C686 C 0.00203 1.20560 0.81638
 C687 C -0.00647 1.22902 0.82742
 C688 C 0.00427 1.23714 0.85011
 C689 C 0.02363 1.22142 0.86168
 C690 C 0.03195 1.19779 0.85104
 C691 C 0.03007 1.16540 0.81695
 C692 C 0.04896 1.14979 0.82916
 C693 C 0.05745 1.12638 0.81819
 C694 C 0.04760 1.11888 0.79493
 C695 C 0.02878 1.13478 0.78281
 C696 C 0.01972 1.15800 0.79392
 C697 C 0.05094 1.18172 0.86260
 C698 C 0.05921 1.15805 0.85191
 C699 C -0.00815 1.19736 0.79356
 C700 C 0.00065 1.17404 0.78245
 H701 H 0.05943 1.18745 0.88010
 H702 H 0.07387 1.14620 0.86144
 H703 H -0.02292 1.20913 0.78412
 H704 H -0.00756 1.16850 0.76474
 H705 H -0.02161 1.24071 0.81850
 H706 H 0.03255 1.22765 0.87875
 H707 H 0.07220 1.11429 0.82734
 H708 H 0.02119 1.12897 0.76490
 C709 C 0.51693 0.68071 0.32580
 C710 C 0.51374 0.70329 0.31018
 C711 C 0.50456 0.72649 0.32115
 C712 C 0.49794 0.72728 0.34757
 C713 C 0.50091 0.70410 0.36276
 C714 C 0.51064 0.68092 0.35206
 C715 C 0.52757 0.65653 0.31451
 C716 C 0.53170 0.63418 0.33030
 C717 C 0.54291 0.61159 0.31966
 C718 C 0.54974 0.61115 0.29333
 C719 C 0.54459 0.63359 0.27770
 C720 C 0.53390 0.65640 0.28824
 C721 C 0.51452 0.65800 0.36717
 C722 C 0.52501 0.63508 0.35651
 C723 C 0.52015 0.70235 0.28392
 C724 C 0.52991 0.67926 0.27310
 H725 H 0.50973 0.65786 0.38749
 H726 H 0.52804 0.61796 0.36892
 H727 H 0.51770 0.71964 0.27162
 H728 H 0.53473 0.67941 0.25279
 H729 H 0.50328 0.74393 0.30898
 H730 H 0.49586 0.70379 0.38291
 H731 H 0.54703 0.59471 0.33205
 H732 H 0.54916 0.63346 0.25735
 C733 C 0.53532 0.35551 0.17231
 C734 C 0.52211 0.33725 0.18795
 C735 C 0.51574 0.31335 0.17784
 C736 C 0.52259 0.30765 0.15221
 C737 C 0.53527 0.32670 0.13678
 C738 C 0.54193 0.35041 0.14673
 C739 C 0.54263 0.38035 0.18297
 C740 C 0.55652 0.39819 0.16744
 C741 C 0.56460 0.42112 0.17799
 C742 C 0.55883 0.42631 0.20380
 C743 C 0.54411 0.40873 0.21893
 C744 C 0.53617 0.38549 0.20863
 C745 C 0.55531 0.36900 0.13163
 C746 C 0.56259 0.39247 0.14186
 C747 C 0.51567 0.34323 0.21344
 C748 C 0.52257 0.36694 0.22360
 H749 H 0.56049 0.36524 0.11184
 H750 H 0.57325 0.40613 0.12970
 H751 H 0.50539 0.32938 0.22573
 H752 H 0.51747 0.37064 0.24342
 H753 H 0.50532 0.29968 0.19004
 H754 H 0.54013 0.32288 0.11691
 H755 H 0.57585 0.43474 0.16632
 H756 H 0.53990 0.41260 0.23890
 C757 C 0.01866 0.86413 0.67781
 C758 C 0.02288 0.83917 0.68902
 C759 C 0.01687 0.81718 0.67550
 C760 C 0.00676 0.81969 0.65065
 C761 C 0.00318 0.84525 0.63970
 C762 C 0.00869 0.86735 0.65331
 C763 C 0.02610 0.88728 0.69144
 C764 C 0.02261 0.91225 0.67986
 C765 C 0.03111 0.93406 0.69222
 C766 C 0.04375 0.93080 0.71549
 C767 C 0.04668 0.90578 0.72712
 C768 C 0.03775 0.88391 0.71522
 C769 C 0.00511 0.89267 0.64250
 C770 C 0.01181 0.91474 0.65562
 C771 C 0.03376 0.83665 0.71325
 C772 C 0.04117 0.85864 0.72608
 H773 H -0.00265 0.89543 0.62360
 H774 H 0.00908 0.93387 0.64645
 H775 H 0.03706 0.81747 0.72213
 H776 H 0.05005 0.85581 0.74446
 H777 H 0.02087 0.79793 0.68401
 H778 H -0.00288 0.84842 0.62025
 H779 H 0.02932 0.95333 0.68309
 H780 H 0.05665 0.90335 0.74496
 C781 C 0.94794 0.68603 0.66717
 C782 C 0.94117 0.71083 0.67622
 C783 C 0.95483 0.73252 0.66694
 C784 C 0.97477 0.72978 0.64810
 C785 C 0.98130 0.70447 0.63950
 C786 C 0.96807 0.68263 0.64902
 C787 C 0.93354 0.66317 0.67676
 C788 C 0.94059 0.63829 0.66796
 C789 C 0.92681 0.61663 0.67710
 C790 C 0.90584 0.61986 0.69450
 C791 C 0.89896 0.64496 0.70304
 C792 C 0.91290 0.66668 0.69438
 C793 C 0.97458 0.65742 0.64070
 C794 C 0.96113 0.63562 0.65007
 C795 C 0.92059 0.71351 0.69410
 C796 C 0.90663 0.69184 0.70295
 H797 H 0.99016 0.65452 0.62674
 H798 H 0.96675 0.61654 0.64311
 H799 H 0.91510 0.73257 0.70119
 H800 H 0.89079 0.69480 0.71659
 H801 H 0.94886 0.75162 0.67356
 H802 H 0.99729 0.70133 0.62611
 H803 H 0.93200 0.59737 0.67031
 H804 H 0.88296 0.64747 0.71661
 C805 C 0.45591 0.17396 0.17342
 C806 C 0.44922 0.19924 0.18137
 C807 C 0.46402 0.22024 0.17238
 C808 C 0.48499 0.21609 0.15514
 C809 C 0.49133 0.19063 0.14739
 C810 C 0.47703 0.16945 0.15662
 C811 C 0.44017 0.15187 0.18239
 C812 C 0.44691 0.12659 0.17443
 C813 C 0.43171 0.10569 0.18277
 C814 C 0.40964 0.11008 0.19845
 C815 C 0.40312 0.13553 0.20624
 C816 C 0.41845 0.15651 0.19839
 C817 C 0.48320 0.14390 0.14911
 C818 C 0.46847 0.12280 0.15798
 C819 C 0.42758 0.20305 0.19773
 C820 C 0.41240 0.18205 0.20602
 H821 H 0.49949 0.14019 0.13619
 H822 H 0.47383 0.10341 0.15167
 H823 H 0.42217 0.22246 0.20395
 H824 H 0.39573 0.18587 0.21843
 H825 H 0.45863 0.23988 0.17798
 H826 H 0.50727 0.18727 0.13406
 H827 H 0.43660 0.08615 0.17655
 H828 H 0.38620 0.13889 0.21846
 C829 C 0.32011 0.44239 -0.12970
 C830 C 0.34696 0.43996 -0.13214
 C831 C 0.35929 0.44886 -0.15480
 C832 C 0.34514 0.46008 -0.17520
 C833 C 0.31808 0.46229 -0.17232
 C834 C 0.30554 0.45357 -0.14958
 C835 C 0.30699 0.43252 -0.10607
 C836 C 0.28007 0.43456 -0.10372
 C837 C 0.26766 0.42452 -0.08146
 C838 C 0.28198 0.41222 -0.06177
 C839 C 0.30901 0.41062 -0.06444
 C840 C 0.32159 0.42074 -0.08650
 C841 C 0.27863 0.45550 -0.14643
 C842 C 0.26613 0.44621 -0.12388
 C843 C 0.36095 0.42836 -0.11200
 C844 C 0.34847 0.41887 -0.08957
 H845 H 0.26712 0.46413 -0.16160
 H846 H 0.24535 0.44793 -0.12232
 H847 H 0.38171 0.42640 -0.11369
 H848 H 0.35994 0.40983 -0.07458
 H849 H 0.38004 0.44677 -0.15681
 H850 H 0.30642 0.47027 -0.18752
 H851 H 0.24690 0.42612 -0.07953
 H852 H 0.32025 0.40075 -0.04973
 C853 C 0.82515 0.94506 0.35721
 C854 C 0.81084 0.95873 0.33850
 C855 C 0.82339 0.96803 0.31592
 C856 C 0.85015 0.96364 0.31198
 C857 C 0.86405 0.95015 0.33137
 C858 C 0.85173 0.94075 0.35382
 C859 C 0.81202 0.93468 0.38065
 C860 C 0.82633 0.92053 0.39903
 C861 C 0.81369 0.90996 0.42086
 C862 C 0.78688 0.91350 0.42455
 C863 C 0.77288 0.92818 0.40607
 C864 C 0.78535 0.93868 0.38400
 C865 C 0.86548 0.92684 0.37282
 C866 C 0.85298 0.91684 0.39503
 C867 C 0.78420 0.96259 0.34267
 C868 C 0.77169 0.95277 0.36503
 H869 H 0.88604 0.92345 0.37040
 H870 H 0.86425 0.90600 0.40910
 H871 H 0.77288 0.97316 0.32846
 H872 H 0.75110 0.95602 0.36737
 H873 H 0.81205 0.97838 0.30172
 H874 H 0.88460 0.94672 0.32870
 H875 H 0.82467 0.89826 0.43455
 H876 H 0.75231 0.93132 0.40877
 C877 C 0.83553 0.02590 1.17562
 C878 C 0.85425 0.00559 1.17486
 C879 C 0.86447 -0.00431 1.19782
 C880 C 0.85576 0.00568 1.22140
 C881 C 0.83695 0.02600 1.22186
 C882 C 0.82689 0.03633 1.19897
 C883 C 0.82466 0.03635 1.15152
 C884 C 0.80618 0.05686 1.15226
 C885 C 0.79606 0.06686 1.12930
 C886 C 0.80393 0.05625 1.10565
 C887 C 0.82239 0.03548 1.10538
 C888 C 0.83294 0.02560 1.12823
 C889 C 0.80831 0.05683 1.19893
 C890 C 0.79822 0.06700 1.17596
 C891 C 0.86217 -0.00458 1.15117
 C892 C 0.85163 0.00519 1.12826
 H893 H 0.80153 0.06509 1.21679
 H894 H 0.78397 0.08284 1.17678
 H895 H 0.87655 -0.02030 1.15034
 H896 H 0.85821 -0.00326 1.11041
 H897 H 0.87869 -0.02022 1.19740
 H898 H 0.83035 0.03384 1.23999
 H899 H 0.78234 0.08319 1.12988
 H900 H 0.82840 0.02685 1.08746
 C901 C 0.33011 0.52254 0.68706
 C902 C 0.35663 0.52202 0.69085
 C903 C 0.36610 0.51142 0.71385
 C904 C 0.34944 0.50026 0.73279
 C905 C 0.32278 0.50064 0.72826
 C906 C 0.31303 0.51219 0.70573
 C907 C 0.32003 0.53425 0.66311
 C908 C 0.29341 0.53575 0.65973
 C909 C 0.28390 0.54775 0.63729
 C910 C 0.30084 0.55750 0.61784
 C911 C 0.32759 0.55486 0.62137
 C912 C 0.33722 0.54386 0.64413
 C913 C 0.28650 0.51358 0.70147
 C914 C 0.27684 0.52541 0.67899
 C915 C 0.37324 0.53209 0.67149
 C916 C 0.36372 0.54255 0.64841
 H917 H 0.27307 0.50570 0.71575
 H918 H 0.25625 0.52636 0.67662
 H919 H 0.39380 0.53171 0.67412
 H920 H 0.37720 0.54998 0.63392
 H921 H 0.38647 0.51221 0.71667
 H922 H 0.30941 0.49179 0.74193
 H923 H 0.26331 0.54992 0.63537
 H924 H 0.34107 0.56142 0.60650
 C925 C 0.18935 0.52701 0.36702
 C926 C 0.19919 0.53311 0.34231
 C927 C 0.18616 0.52503 0.32107
 C928 C 0.16330 0.51104 0.32427
 C929 C 0.15380 0.50519 0.34939
 C930 C 0.16684 0.51291 0.37072
 C931 C 0.20219 0.53661 0.38941
 C932 C 0.19185 0.53118 0.41410
 C933 C 0.20334 0.54147 0.43524
 C934 C 0.22464 0.55756 0.43175
 C935 C 0.23512 0.56234 0.40691
 C936 C 0.22394 0.55192 0.38565
 C937 C 0.15732 0.50749 0.39574
 C938 C 0.16967 0.51638 0.41706
 C939 C 0.22142 0.54787 0.33934
 C940 C 0.23357 0.55715 0.36064
 H941 H 0.13997 0.49656 0.39886
 H942 H 0.16150 0.51207 0.43599
 H943 H 0.22924 0.55268 0.32037
 H944 H 0.25040 0.56886 0.35749
 H945 H 0.19332 0.53036 0.30197
 H946 H 0.13577 0.49566 0.35274
 H947 H 0.19499 0.53803 0.45427
 H948 H 0.25162 0.57460 0.40415
 C949 C 0.69408 0.01839 0.85425
 C950 C 0.67311 0.00217 0.85865
 C951 C 0.65943 -0.00579 0.83780
 C952 C 0.66680 0.00195 0.81244
 C953 C 0.68829 0.01790 0.80856
 C954 C 0.70182 0.02632 0.82931
 C955 C 0.70739 0.02826 0.87623
 C956 C 0.72736 0.04578 0.87184
 C957 C 0.73872 0.05655 0.89281
 C958 C 0.73030 0.04981 0.91797
 C959 C 0.71094 0.03148 0.92208
 C960 C 0.69915 0.02091 0.90123
 C961 C 0.72245 0.04319 0.82567
 C962 C 0.73495 0.05283 0.84659
 C963 C 0.66573 -0.00515 0.88392
 C964 C 0.67860 0.00396 0.90484
 H965 H 0.72865 0.04942 0.80651
 H966 H 0.75040 0.06624 0.84296
 H967 H 0.64963 -0.01776 0.88758
 H968 H 0.67205 -0.00186 0.92401
 H969 H 0.64257 -0.01709 0.84180
 H970 H 0.69387 0.02451 0.78932
 H971 H 0.75365 0.07066 0.88964
 H972 H 0.70419 0.02657 0.94142
 C973 C 0.68213 0.94420 0.67799
 C974 C 0.66577 0.96644 0.67584
 C975 C 0.65681 0.97869 0.69811
 C976 C 0.66431 0.96901 0.72232
 C977 C 0.68109 0.94697 0.72414
 C978 C 0.68991 0.93435 0.70200
 C979 C 0.69097 0.93075 0.65467
 C980 C 0.70678 0.90812 0.65685
 C981 C 0.71470 0.89510 0.63465
 C982 C 0.70706 0.90468 0.61040
 C983 C 0.69140 0.92758 0.60857
 C984 C 0.68318 0.94061 0.63067
 C985 C 0.70598 0.91182 0.70339
 C986 C 0.71424 0.89891 0.68121
 C987 C 0.65849 0.97579 0.65149
 C988 C 0.66711 0.96314 0.62928
 H989 H 0.71209 0.90400 0.72180
 H990 H 0.72648 0.88150 0.68314
 H991 H 0.64593 0.99298 0.64959
 H992 H 0.66097 0.97095 0.61088
 H993 H 0.64402 0.99575 0.69665
 H994 H 0.68655 0.93918 0.74278
 H995 H 0.72696 0.87766 0.63618
 H996 H 0.68520 0.93491 0.59002
 C997 C 0.17902 0.45120 0.19016
 C998 C 0.16188 0.47277 0.18770
 C999 C 0.15363 0.48597 0.20963
 C1000 C 0.16213 0.47756 0.23392
 C1001 C 0.17973 0.45620 0.23600
 C1002 C 0.18820 0.44289 0.21414
 C1003 C 0.18718 0.43677 0.16722
 C1004 C 0.20408 0.41501 0.16968
 C1005 C 0.21153 0.40118 0.14784
 C1006 C 0.20206 0.40888 0.12369
 C1007 C 0.18513 0.43082 0.12164
 C1008 C 0.17767 0.44486 0.14332
 C1009 C 0.20525 0.42112 0.21581
 C1010 C 0.21309 0.40745 0.19395
 C1011 C 0.15300 0.48044 0.16343
 C1012 C 0.16073 0.46670 0.14161
 H1013 H 0.21247 0.41451 0.23419
 H1014 H 0.22617 0.39070 0.19610
 H1015 H 0.13977 0.49708 0.16131
 H1016 H 0.15330 0.47315 0.12327
 H1017 H 0.14043 0.50267 0.20780
 H1018 H 0.18610 0.44936 0.25465
 H1019 H 0.22486 0.38459 0.14962
 H1020 H 0.17743 0.43673 0.10325
 C1021 C -0.15218 0.31644 0.45875
 C1022 C -0.14885 0.34045 0.47008
 C1023 C -0.17041 0.35440 0.47979
 C1024 C -0.19528 0.34440 0.47856
 C1025 C -0.19809 0.32025 0.46692
 C1026 C -0.17667 0.30615 0.45718
 C1027 C -0.12975 0.30243 0.44719
 C1028 C -0.13325 0.27895 0.43491
 C1029 C -0.11207 0.26637 0.42286
 C1030 C -0.08759 0.27730 0.42276
 C1031 C -0.08436 0.30060 0.43565
 C1032 C -0.10540 0.31331 0.44779
 C1033 C -0.17935 0.28233 0.44519
 C1034 C -0.15799 0.26892 0.43430
 C1035 C -0.12409 0.35047 0.47072
 C1036 C -0.10273 0.33710 0.45980
 H1037 H -0.19816 0.27415 0.44390
 H1038 H -0.16094 0.25079 0.42494
 H1039 H -0.12126 0.36898 0.47943
 H1040 H -0.08404 0.34569 0.46041
 H1041 H -0.16771 0.37350 0.48723
 H1042 H -0.21709 0.31283 0.46461
 H1043 H -0.11469 0.24833 0.41321
 H1044 H -0.06572 0.30942 0.43532
 C1045 C 0.35835 0.82481 0.93781
 C1046 C 0.35906 0.83603 0.96179
 C1047 C 0.33771 0.85077 0.97079
 C1048 C 0.31598 0.85573 0.95543
 C1049 C 0.31530 0.84271 0.93198
 C1050 C 0.33647 0.82770 0.92295
 C1051 C 0.38089 0.80951 0.92816
 C1052 C 0.38006 0.79803 0.90424
 C1053 C 0.40168 0.78389 0.89497
 C1054 C 0.42409 0.78139 0.90934
 C1055 C 0.42453 0.79286 0.93338
 C1056 C 0.40290 0.80683 0.94295
 C1057 C 0.33624 0.81567 0.89923
 C1058 C 0.35768 0.80111 0.89002
 C1059 C 0.38122 0.83243 0.97632
 C1060 C 0.40282 0.81822 0.96698
 H1061 H 0.31943 0.81769 0.88758
 H1062 H 0.35678 0.79232 0.87155
 H1063 H 0.38199 0.84095 0.99493
 H1064 H 0.41962 0.81618 0.97866
 H1065 H 0.33826 0.85798 0.98993
 H1066 H 0.29827 0.84428 0.92060
 H1067 H 0.40132 0.77534 0.87632
 H1068 H 0.44163 0.79076 0.94463
 C1069 C 1.18421 0.83235 0.01550
 C1070 C 1.20711 0.81770 0.01180
 C1071 C 1.22907 0.83013 0.00184
 C1072 C 1.22854 0.85726 -0.00474
 C1073 C 1.20506 0.87149 -0.00024
 C1074 C 1.18303 0.85919 0.00963
 C1075 C 1.16107 0.81937 0.02599
 C1076 C 1.13817 0.83414 0.02982
 C1077 C 1.11636 0.82183 0.04025
 C1078 C 1.11740 0.79498 0.04704
 C1079 C 1.14048 0.78042 0.04276
 C1080 C 1.16238 0.79253 0.03228
 C1081 C 1.15972 0.87332 0.01364
 C1082 C 1.13768 0.86101 0.02355
 C1083 C 1.20764 0.79081 0.01820
 C1084 C 1.18567 0.77845 0.02826
 H1085 H 1.15850 0.89410 0.00912
 H1086 H 1.12015 0.87265 0.02643
 H1087 H 1.22522 0.77921 0.01546
 H1088 H 1.18696 0.75772 0.03302
 H1089 H 1.24650 0.81831 -0.00009
 H1090 H 1.20304 0.89207 -0.00458
 H1091 H 1.09883 0.83330 0.04383
 H1092 H 1.14141 0.75971 0.04770
 C1093 C 0.66590 0.32642 0.52975
 C1094 C 0.67091 0.35229 0.53544
 C1095 C 0.69402 0.36319 0.52645
 C1096 C 0.71201 0.34842 0.51176
 C1097 C 0.70640 0.32259 0.50599
 C1098 C 0.68351 0.31145 0.51507
 C1099 C 0.64190 0.31468 0.53957
 C1100 C 0.63725 0.28859 0.53436
 C1101 C 0.61489 0.27720 0.54453
 C1102 C 0.59720 0.29172 0.55970
 C1103 C 0.60179 0.31806 0.56421
 C1104 C 0.62428 0.32959 0.55435
 C1105 C 0.67795 0.28557 0.50987
 C1106 C 0.65525 0.27430 0.51943
 C1107 C 0.65275 0.36666 0.55017
 C1108 C 0.62982 0.35552 0.55942
 H1109 H 0.69138 0.27384 0.49851
 H1110 H 0.65183 0.25419 0.51523
 H1111 H 0.65635 0.38666 0.55467
 H1112 H 0.61642 0.36723 0.57082
 H1113 H 0.69807 0.38296 0.53127
 H1114 H 0.71968 0.31115 0.49419
 H1115 H 0.61132 0.25697 0.54087
 H1116 H 0.58835 0.32922 0.57611
 C1117 C 0.35073 0.17015 0.52286
 C1118 C 0.33121 0.18744 0.51413
 C1119 C 0.30800 0.17739 0.50633
 C1120 C 0.30437 0.15017 0.50718
 C1121 C 0.32462 0.13328 0.51545
 C1122 C 0.34762 0.14308 0.52349
 C1123 C 0.37457 0.18057 0.53234
 C1124 C 0.39348 0.16319 0.54217
 C1125 C 0.41533 0.17317 0.55266
 C1126 C 0.41841 0.20029 0.55330
 C1127 C 0.39979 0.21751 0.54252
 C1128 C 0.37758 0.20770 0.53227
 C1129 C 0.36730 0.12629 0.53276
 C1130 C 0.38983 0.13619 0.54203
 C1131 C 0.33512 0.21447 0.51392
 C1132 C 0.35792 0.22442 0.52276
 H1133 H 0.36506 0.10534 0.53329
 H1134 H 0.40434 0.12261 0.54948
 H1135 H 0.32029 0.22807 0.50715
 H1136 H 0.35998 0.24538 0.52257
 H1137 H 0.29294 0.19093 0.50024
 H1138 H 0.32209 0.11235 0.51627
 H1139 H 0.42972 0.15993 0.56090
 H1140 H 0.40205 0.23841 0.54326
 C1141 C 0.86429 0.67968 0.02233
 C1142 C 0.84061 0.69335 0.02504
 C1143 C 0.81801 0.68141 0.01817
 C1144 C 0.81902 0.65596 0.00859
 C1145 C 0.84315 0.64268 0.00619
 C1146 C 0.86573 0.65447 0.01274
 C1147 C 0.88789 0.69137 0.03098
 C1148 C 0.91133 0.67710 0.02923
 C1149 C 0.93341 0.68757 0.03879
 C1150 C 0.93219 0.71193 0.05046
 C1151 C 0.90869 0.72640 0.05137
 C1152 C 0.88639 0.71608 0.04180
 C1153 C 0.88963 0.64107 0.01074
 C1154 C 0.91207 0.65224 0.01878
 C1155 C 0.83996 0.71831 0.03541
 C1156 C 0.86245 0.72948 0.04364
 H1157 H 0.89095 0.62160 0.00328
 H1158 H 0.93005 0.64108 0.01730
 H1159 H 0.82185 0.72913 0.03760
 H1160 H 0.86099 0.74856 0.05193
 H1161 H 0.79965 0.69149 0.02130
 H1162 H 0.84439 0.62265 0.00024
 H1163 H 0.95147 0.67648 0.03773
 H1164 H 0.90753 0.74505 0.06054
 C1165 C 0.67945 0.66952 0.95929
 C1166 C 0.68777 0.64337 0.95756
 C1167 C 0.71009 0.63478 0.96974
 C1168 C 0.72460 0.65206 0.98342
 C1169 C 0.71594 0.67836 0.98501
 C1170 C 0.69327 0.68717 0.97301
 C1171 C 0.65600 0.67862 0.94615
 C1172 C 0.64755 0.70481 0.94773
 C1173 C 0.62538 0.71338 0.93480
 C1174 C 0.61209 0.69595 0.92014
 C1175 C 0.62077 0.66972 0.91909
 C1176 C 0.64266 0.66095 0.93201
 C1177 C 0.68415 0.71324 0.97425
 C1178 C 0.66167 0.72189 0.96188
 C1179 C 0.67380 0.62624 0.94340
 C1180 C 0.65161 0.63489 0.93083
 H1181 H 0.69454 0.72711 0.98477
 H1182 H 0.65540 0.74216 0.96327
 H1183 H 0.68016 0.60600 0.94188
 H1184 H 0.64145 0.62110 0.91999
 H1185 H 0.71641 0.61468 0.96762
 H1186 H 0.72667 0.69187 0.99563
 H1187 H 0.61888 0.73365 0.93556
 H1188 H 0.61042 0.65611 0.90817
 C1189 C 0.16777 0.17458 0.45020
 C1190 C 0.17540 0.14848 0.44652
 C1191 C 0.19724 0.13817 0.45846
 C1192 C 0.21171 0.15358 0.47413
 C1193 C 0.20382 0.17988 0.47757
 C1194 C 0.18181 0.19047 0.46561
 C1195 C 0.14459 0.18538 0.43770
 C1196 C 0.13680 0.21152 0.44128
 C1197 C 0.11453 0.22157 0.42944
 C1198 C 0.10008 0.20546 0.41444
 C1199 C 0.10842 0.17941 0.41093
 C1200 C 0.13060 0.16928 0.42248
 C1201 C 0.17345 0.21657 0.46873
 C1202 C 0.15136 0.22692 0.45676
 C1203 C 0.16105 0.13307 0.43093
 C1204 C 0.13898 0.14329 0.41913
 H1205 H 0.18406 0.22911 0.48054
 H1206 H 0.14560 0.24711 0.45972
 H1207 H 0.16686 0.11289 0.42791
 H1208 H 0.12837 0.13072 0.40736
 H1209 H 0.20306 0.11817 0.45493
 H1210 H 0.21452 0.19196 0.48975
 H1211 H 0.10817 0.24163 0.43226
 H1212 H 0.09770 0.16704 0.39902
 C1213 C 0.58390 0.07842 0.71772
 C1214 C 0.58580 0.05393 0.70665
 C1215 C 0.59868 0.03311 0.71951
 C1216 C 0.60951 0.03633 0.74373
 C1217 C 0.60652 0.06130 0.75459
 C1218 C 0.59422 0.08229 0.74160
 C1219 C 0.57098 0.10054 0.70398
 C1220 C 0.56972 0.12521 0.71483
 C1221 C 0.55815 0.14635 0.70138
 C1222 C 0.54733 0.14294 0.67738
 C1223 C 0.54830 0.11779 0.66710
 C1224 C 0.56039 0.09664 0.68016
 C1225 C 0.59219 0.10719 0.75207
 C1226 C 0.58032 0.12832 0.73883
 C1227 C 0.57495 0.05077 0.68272
 C1228 C 0.56234 0.07171 0.66978
 H1229 H 0.60011 0.11045 0.77054
 H1230 H 0.57941 0.14725 0.74747
 H1231 H 0.57623 0.03194 0.67389
 H1232 H 0.55427 0.06841 0.65139
 H1233 H 0.60045 0.01487 0.70989
 H1234 H 0.61327 0.06493 0.77335
 H1235 H 0.55813 0.16553 0.70942
 H1236 H 0.53967 0.11459 0.64896
 C1237 C 1.09412 0.59274 0.22159
 C1238 C 1.08310 0.56826 0.21980
 C1239 C 1.09231 0.54706 0.23503
 C1240 C 1.11275 0.55010 0.25159
 C1241 C 1.12375 0.57486 0.25270
 C1242 C 1.11431 0.59623 0.23806
 C1243 C 1.08442 0.61514 0.20583
 C1244 C 1.09518 0.63972 0.20802
 C1245 C 1.08577 0.66100 0.19317
 C1246 C 1.06617 0.65767 0.17584
 C1247 C 1.05574 0.63287 0.17364
 C1248 C 1.06463 0.61155 0.18884
 C1249 C 1.12477 0.62104 0.23955
 C1250 C 1.11525 0.64246 0.22490
 C1251 C 1.06312 0.56551 0.20277
 C1252 C 1.05415 0.58674 0.18745
 H1253 H 1.14037 0.62397 0.25223
 H1254 H 1.12377 0.66128 0.22671
 H1255 H 1.05445 0.54674 0.20114
 H1256 H 1.03882 0.58372 0.17447
 H1257 H 1.08333 0.52840 0.23409
 H1258 H 1.13998 0.57760 0.26461
 H1259 H 1.09394 0.68004 0.19471
 H1260 H 1.04052 0.63035 0.16039
 C1261 C 0.93224 0.89990 0.20941
 C1262 C 0.94359 0.92414 0.21164
 C1263 C 0.93038 0.94377 0.22543
 C1264 C 0.90658 0.93874 0.23811
 C1265 C 0.89567 0.91411 0.23556
 C1266 C 0.90814 0.89491 0.22092
 C1267 C 0.94597 0.87919 0.19501
 C1268 C 0.93417 0.85531 0.19214
 C1269 C 0.94718 0.83571 0.17840
 C1270 C 0.97244 0.83919 0.16846
 C1271 C 0.98402 0.86338 0.17180
 C1272 C 0.97068 0.88356 0.18463
 C1273 C 0.89694 0.87074 0.21763
 C1274 C 0.90963 0.85137 0.20326
 C1275 C 0.96815 0.92802 0.20048
 C1276 C 0.98157 0.90800 0.18745
 H1277 H 0.87822 0.86676 0.22625
 H1278 H 0.90032 0.83301 0.20117
 H1279 H 0.97724 0.94657 0.20212
 H1280 H 1.00060 0.91171 0.17944
 H1281 H 0.93947 0.96224 0.22753
 H1282 H 0.87695 0.91006 0.24414
 H1283 H 0.93740 0.81782 0.17544
 H1284 H 1.00348 0.86653 0.16477
 C1285 C 0.42735 0.39142 0.72389
 C1286 C 0.42839 0.39018 0.75070
 C1287 C 0.41614 0.40999 0.76481
 C1288 C 0.40313 0.43101 0.75227
 C1289 C 0.40279 0.43231 0.72537
 C1290 C 0.41466 0.41238 0.71107
 C1291 C 0.43936 0.37010 0.70901
 C1292 C 0.43757 0.37089 0.68227
 C1293 C 0.44832 0.35016 0.66829
 C1294 C 0.46098 0.32893 0.68087
 C1295 C 0.46304 0.32868 0.70764
 C1296 C 0.45202 0.34913 0.72185
 C1297 C 0.41367 0.41270 0.68425
 C1298 C 0.42486 0.39226 0.67010
 C1299 C 0.44136 0.36897 0.76285
 C1300 C 0.45306 0.34884 0.74866
 H1301 H 0.40392 0.42874 0.67413
 H1302 H 0.42344 0.39312 0.64947
 H1303 H 0.44235 0.36786 0.78352
 H1304 H 0.46276 0.33277 0.75879
 H1305 H 0.41665 0.40909 0.78552
 H1306 H 0.39254 0.44833 0.71568
 H1307 H 0.44694 0.35053 0.64765
 H1308 H 0.47259 0.31227 0.71739
 C1309 C 0.44506 0.55732 0.79278
 C1310 C 0.44897 0.53427 0.80765
 C1311 C 0.43374 0.51282 0.80377
 C1312 C 0.41493 0.51431 0.78508
 C1313 C 0.41209 0.53700 0.76942
 C1314 C 0.42686 0.55882 0.77349
 C1315 C 0.45919 0.58077 0.79854
 C1316 C 0.45398 0.60436 0.78495
 C1317 C 0.46588 0.62711 0.79199
 C1318 C 0.48288 0.62635 0.81248
 C1319 C 0.48882 0.60217 0.82496
 C1320 C 0.47671 0.57946 0.81840
 C1321 C 0.42292 0.58249 0.75960
 C1322 C 0.43617 0.60491 0.76531
 C1323 C 0.46722 0.53351 0.82685
 C1324 C 0.48098 0.55570 0.83203
 H1325 H 0.40896 0.58391 0.74467
 H1326 H 0.43205 0.62294 0.75459
 H1327 H 0.47051 0.51579 0.83833
 H1328 H 0.49451 0.55444 0.84735
 H1329 H 0.43579 0.49531 0.81587
 H1330 H 0.39726 0.53826 0.75534
 H1331 H 0.46092 0.64555 0.78236
 H1332 H 0.50230 0.60114 0.84033
 C1333 C -0.05266 0.06385 0.28437
 C1334 C -0.05054 0.04202 0.30125
 C1335 C -0.06399 0.01959 0.29643
 C1336 C -0.07967 0.01897 0.27509
 C1337 C -0.08048 0.04043 0.25754
 C1338 C -0.06724 0.06314 0.26230
 C1339 C -0.04079 0.08842 0.29085
 C1340 C -0.04429 0.11082 0.27491
 C1341 C -0.03491 0.13473 0.28242
 C1342 C -0.02263 0.13623 0.30589
 C1343 C -0.01825 0.11330 0.32095
 C1344 C -0.02749 0.08942 0.31367
 C1345 C -0.06941 0.08564 0.24625
 C1346 C -0.05815 0.10906 0.25245
 C1347 C -0.03613 0.04350 0.32333
 C1348 C -0.02474 0.06681 0.32942
 H1349 H -0.08054 0.08535 0.22913
 H1350 H -0.06090 0.12612 0.23991
 H1351 H -0.03425 0.02674 0.33641
 H1352 H -0.01437 0.06734 0.34700
 H1353 H -0.06330 0.00305 0.30992
 H1354 H -0.09281 0.04016 0.24126
 H1355 H -0.03845 0.15234 0.27083
 H1356 H -0.00852 0.11430 0.33888
 C1357 C 0.06649 0.41619 0.28713
 C1358 C 0.06205 0.43579 0.30499
 C1359 C 0.07579 0.45878 0.30234
 C1360 C 0.09406 0.46214 0.28220
 C1361 C 0.09736 0.44297 0.26364
 C1362 C 0.08381 0.41970 0.26623
 C1363 C 0.05392 0.39094 0.29129
 C1364 C 0.05945 0.37070 0.27434
 C1365 C 0.04871 0.34614 0.27941
 C1366 C 0.03274 0.34181 0.30137
 C1367 C 0.02709 0.36264 0.31777
 C1368 C 0.03763 0.38713 0.31289
 C1369 C 0.08819 0.39932 0.24916
 C1370 C 0.07622 0.37524 0.25315
 C1371 C 0.04495 0.43150 0.32591
 C1372 C 0.03292 0.40757 0.32978
 H1373 H 0.10147 0.40176 0.23294
 H1374 H 0.08058 0.35987 0.23984
 H1375 H 0.04132 0.44653 0.33975
 H1376 H 0.02028 0.40483 0.34646
 H1377 H 0.07328 0.47354 0.31664
 H1378 H 0.11170 0.44534 0.24831
 H1379 H 0.05312 0.33035 0.26658
 H1380 H 0.01544 0.35954 0.33509
 C1381 C 0.57475 0.90163 0.77689
 C1382 C 0.56625 0.92254 0.79200
 C1383 C 0.57891 0.94624 0.78949
 C1384 C 0.59963 0.94908 0.77184
 C1385 C 0.60704 0.92850 0.75584
 C1386 C 0.59496 0.90447 0.75865
 C1387 C 0.56343 0.87582 0.78148
 C1388 C 0.57345 0.85435 0.76798
 C1389 C 0.56438 0.82938 0.77426
 C1390 C 0.54531 0.82598 0.79367
 C1391 C 0.53459 0.84787 0.80610
 C1392 C 0.54390 0.87280 0.80040
 C1393 C 0.60361 0.88282 0.74463
 C1394 C 0.59313 0.85814 0.74932
 C1395 C 0.54613 0.91893 0.81018
 C1396 C 0.53503 0.89450 0.81421
 H1397 H 0.61917 0.88478 0.73050
 H1398 H 0.60091 0.84178 0.73867
 H1399 H 0.53931 0.93497 0.82182
 H1400 H 0.51994 0.89239 0.82883
 H1401 H 0.57341 0.96213 0.80189
 H1402 H 0.62332 0.93061 0.74256
 H1403 H 0.57268 0.81249 0.76474
 H1404 H 0.52023 0.84522 0.82138
 C1405 C 0.72563 0.58050 0.09566
 C1406 C 0.72320 0.56882 0.07201
 C1407 C 0.73673 0.57884 0.05035
 C1408 C 0.75217 0.60075 0.05213
 C1409 C 0.75428 0.61213 0.07615
 C1410 C 0.74128 0.60198 0.09794
 C1411 C 0.71114 0.57039 0.11840
 C1412 C 0.71359 0.58214 0.14203
 C1413 C 0.69941 0.57280 0.16348
 C1414 C 0.68243 0.55228 0.16125
 C1415 C 0.68026 0.54061 0.13746
 C1416 C 0.69473 0.54950 0.11597
 C1417 C 0.74331 0.61318 0.12190
 C1418 C 0.72980 0.60335 0.14360
 C1419 C 0.70699 0.54758 0.07047
 C1420 C 0.69290 0.53817 0.09204
 H1421 H 0.75539 0.62975 0.12388
 H1422 H 0.73182 0.61262 0.16169
 H1423 H 0.70492 0.53836 0.05236
 H1424 H 0.68038 0.52197 0.08993
 H1425 H 0.73518 0.56954 0.03223
 H1426 H 0.76544 0.62939 0.07793
 H1427 H 0.70090 0.58198 0.18171
 H1428 H 0.66729 0.52470 0.13574
 C1429 C 0.20421 1.07706 0.58335
 C1430 C 0.23043 1.07027 0.58017
 C1431 C 0.24417 1.08014 0.55866
 C1432 C 0.23175 1.09636 0.54032
 C1433 C 0.20527 1.10216 0.54323
 C1434 C 0.19145 1.09287 0.56497
 C1435 C 0.19005 1.06812 0.60675
 C1436 C 0.16418 1.07594 0.61052
 C1437 C 0.15111 1.06831 0.63329
 C1438 C 0.16355 1.05255 0.65211
 C1439 C 0.18942 1.04443 0.64763
 C1440 C 0.20283 1.05244 0.62517
 C1441 C 0.16537 1.09977 0.56915
 C1442 C 0.15200 1.09156 0.59160
 C1443 C 0.24250 1.05432 0.59889
 C1444 C 0.22889 1.04541 0.62093
 H1445 H 0.15532 1.11198 0.55516
 H1446 H 0.13200 1.09763 0.59424
 H1447 H 0.26269 1.04886 0.59659
 H1448 H 0.23896 1.03328 0.63498
 H1449 H 0.26458 1.07563 0.55635
 H1450 H 0.19579 1.11494 0.52928
 H1451 H 0.13143 1.07519 0.63653
 H1452 H 0.19917 1.03189 0.66157
 C1453 C 0.21451 0.94712 0.89993
 C1454 C 0.20268 0.93690 0.92241
 C1455 C 0.21764 0.92279 0.94028
 C1456 C 0.24422 0.91802 0.93549
 C1457 C 0.25568 0.92896 0.91283
 C1458 C 0.24100 0.94355 0.89515
 C1459 C 0.19874 0.96114 0.88064
 C1460 C 0.21061 0.97120 0.85805
 C1461 C 0.19540 0.98353 0.83928
 C1462 C 0.16851 0.98508 0.84273
 C1463 C 0.15693 0.97529 0.86564
 C1464 C 0.17200 0.96341 0.88476
 C1465 C 0.25226 0.95431 0.87254
 C1466 C 0.23733 0.96799 0.85434
 C1467 C 0.17595 0.94029 0.92621
 C1468 C 0.16085 0.95319 0.90764
 H1469 H 0.27275 0.95184 0.86872
 H1470 H 0.24672 0.97567 0.83702
 H1471 H 0.16656 0.93248 0.94349
 H1472 H 0.14025 0.95494 0.91111
 H1473 H 0.20802 0.91421 0.95695
 H1474 H 0.27617 0.92675 0.90902
 H1475 H 0.20428 0.99080 0.82151
 H1476 H 0.13620 0.97656 0.86830
 C1477 C 0.70859 0.42866 0.40504
 C1478 C 0.70939 0.44076 0.42867
 C1479 C 0.72204 0.42776 0.44900
 C1480 C 0.73392 0.40299 0.44559
 C1481 C 0.73258 0.39109 0.42182
 C1482 C 0.72004 0.40384 0.40149
 C1483 C 0.69552 0.44222 0.38355
 C1484 C 0.69469 0.42998 0.36002
 C1485 C 0.68206 0.44275 0.33974
 C1486 C 0.67013 0.46754 0.34282
 C1487 C 0.67142 0.47975 0.36646
 C1488 C 0.68405 0.46708 0.38697
 C1489 C 0.71882 0.39225 0.37765
 C1490 C 0.70636 0.40512 0.35724
 C1491 C 0.69770 0.46566 0.43138
 C1492 C 0.68525 0.47859 0.41088
 H1493 H 0.72760 0.37309 0.37473
 H1494 H 0.70582 0.39550 0.33916
 H1495 H 0.69819 0.47524 0.44948
 H1496 H 0.67645 0.49774 0.41381
 H1497 H 0.72316 0.43711 0.46717
 H1498 H 0.74118 0.37179 0.41918
 H1499 H 0.68151 0.43340 0.32150
 H1500 H 0.66211 0.49873 0.36903
 C1501 C 0.76889 0.44882 0.57042
 C1502 C 0.75217 0.42788 0.57338
 C1503 C 0.74835 0.41223 0.55242
 C1504 C 0.76171 0.41709 0.52905
 C1505 C 0.77766 0.43862 0.52610
 C1506 C 0.78130 0.45463 0.54674
 C1507 C 0.77494 0.46377 0.59293
 C1508 C 0.79264 0.48381 0.59017
 C1509 C 0.79998 0.49651 0.61191
 C1510 C 0.79043 0.48875 0.63645
 C1511 C 0.77184 0.46935 0.63876
 C1512 C 0.76411 0.45670 0.61703
 C1513 C 0.79814 0.47549 0.54455
 C1514 C 0.80362 0.48992 0.56589
 C1515 C 0.74080 0.42215 0.59758
 C1516 C 0.74673 0.43626 0.61905
 H1517 H 0.80767 0.48026 0.52635
 H1518 H 0.81723 0.50542 0.56353
 H1519 H 0.72783 0.40610 0.60010
 H1520 H 0.73813 0.43069 0.63749
 H1521 H 0.73652 0.39525 0.55476
 H1522 H 0.78812 0.44208 0.50809
 H1523 H 0.81389 0.51177 0.60984
 H1524 H 0.76451 0.46305 0.65752
 C1525 C 0.28351 -0.04733 0.05542
 C1526 C 0.26128 -0.06182 0.05360
 C1527 C 0.25797 -0.07613 0.03157
 C1528 C 0.27764 -0.07744 0.01235
 C1529 C 0.29949 -0.06219 0.01439
 C1530 C 0.30231 -0.04683 0.03561
 C1531 C 0.28789 -0.03352 0.07907
 C1532 C 0.31019 -0.01915 0.08077
 C1533 C 0.31516 -0.00746 0.10375
 C1534 C 0.29898 -0.01139 0.12562
 C1535 C 0.27611 -0.02506 0.12330
 C1536 C 0.27040 -0.03601 0.09994
 C1537 C 0.32405 -0.03167 0.03776
 C1538 C 0.32777 -0.01779 0.05987
 C1539 C 0.24350 -0.06277 0.07442
 C1540 C 0.24813 -0.05033 0.09729
 H1541 H 0.33854 -0.03091 0.02243
 H1542 H 0.34503 -0.00670 0.06097
 H1543 H 0.22629 -0.07393 0.07334
 H1544 H 0.23435 -0.05229 0.11316
 H1545 H 0.24124 -0.08806 0.03061
 H1546 H 0.31430 -0.06205 -0.00066
 H1547 H 0.33229 0.00383 0.10484
 H1548 H 0.26343 -0.02834 0.13984
 C1549 C 0.26169 0.07268 0.40093
 C1550 C 0.27024 0.05676 0.42159
 C1551 C 0.26913 0.06669 0.44632
 C1552 C 0.25976 0.09230 0.45016
 C1553 C 0.25096 0.10782 0.42937
 C1554 C 0.25178 0.09810 0.40471
 C1555 C 0.26474 0.06324 0.37466
 C1556 C 0.25768 0.07984 0.35396
 C1557 C 0.26294 0.07184 0.32896
 C1558 C 0.27560 0.04765 0.32458
 C1559 C 0.28129 0.03062 0.34551
 C1560 C 0.27616 0.03846 0.37066
 C1561 C 0.24394 0.11371 0.38361
 C1562 C 0.24682 0.10472 0.35864
 C1563 C 0.28065 0.03169 0.41689
 C1564 C 0.28356 0.02269 0.39186
 H1565 H 0.23611 0.13330 0.38637
 H1566 H 0.24121 0.11765 0.34282
 H1567 H 0.28721 0.01916 0.43263
 H1568 H 0.29234 0.00351 0.38903
 H1569 H 0.27634 0.05499 0.46236
 H1570 H 0.24468 0.12788 0.43223
 H1571 H 0.25844 0.08494 0.31289
 H1572 H 0.29136 0.01213 0.34228
 C1573 C 0.77268 0.57365 0.90961
 C1574 C 0.76239 0.59880 0.91398
 C1575 C 0.76230 0.60826 0.93871
 C1576 C 0.77204 0.59274 0.95908
 C1577 C 0.78161 0.56729 0.95468
 C1578 C 0.78211 0.55765 0.92981
 C1579 C 0.77539 0.56472 0.88312
 C1580 C 0.78738 0.54035 0.87844
 C1581 C 0.79220 0.53308 0.85305
 C1582 C 0.78557 0.55028 0.83252
 C1583 C 0.77239 0.57404 0.83760
 C1584 C 0.76748 0.58149 0.86285
 C1585 C 0.79301 0.53292 0.92447
 C1586 C 0.79559 0.52441 0.89923
 C1587 C 0.75367 0.61454 0.89333
 C1588 C 0.75612 0.60600 0.86818
 H1589 H 0.80026 0.52032 0.93984
 H1590 H 0.80478 0.50552 0.89589
 H1591 H 0.74554 0.63392 0.89657
 H1592 H 0.74982 0.61903 0.85271
 H1593 H 0.75611 0.62830 0.94184
 H1594 H 0.78976 0.55564 0.97028
 H1595 H 0.80263 0.51490 0.84929
 H1596 H 0.76708 0.58726 0.82188
 C1597 C 0.09322 0.71911 0.58922
 C1598 C 0.09446 0.73563 0.60987
 C1599 C 0.07214 0.74898 0.61847
 C1600 C 0.04833 0.74609 0.60671
 C1601 C 0.04753 0.72890 0.58616
 C1602 C 0.06992 0.71558 0.57727
 C1603 C 0.11685 0.70540 0.57982
 C1604 C 0.11576 0.68920 0.55883
 C1605 C 0.13836 0.67640 0.54984
 C1606 C 0.16182 0.67956 0.56188
 C1607 C 0.16249 0.69580 0.58298
 C1608 C 0.14009 0.70885 0.59196
 C1609 C 0.06957 0.69905 0.55640
 C1610 C 0.09209 0.68613 0.54732
 C1611 C 0.11805 0.73854 0.62158
 C1612 C 0.14047 0.72534 0.61280
 H1613 H 0.05175 0.69615 0.54693
 H1614 H 0.09097 0.67365 0.53113
 H1615 H 0.11922 0.75119 0.63764
 H1616 H 0.15827 0.72817 0.62234
 H1617 H 0.07345 0.76099 0.63495
 H1618 H 0.03001 0.72665 0.57606
 H1619 H 0.13764 0.66369 0.53377
 H1620 H 0.18051 0.69855 0.59217
 C1621 C 0.59568 0.20806 1.07389
 C1622 C 0.57915 0.19396 1.09060
 C1623 C 0.55807 0.20700 1.10235
 C1624 C 0.55385 0.23394 1.09787
 C1625 C 0.57031 0.24771 1.08074
 C1626 C 0.59125 0.23484 1.06861
 C1627 C 0.61855 0.19475 1.06241
 C1628 C 0.63531 0.20895 1.04606
 C1629 C 0.65743 0.19638 1.03578
 C1630 C 0.66314 0.16990 1.04213
 C1631 C 0.64593 0.15597 1.05847
 C1632 C 0.62359 0.16826 1.06856
 C1633 C 0.60822 0.24832 1.05185
 C1634 C 0.62982 0.23556 1.04068
 C1635 C 0.58455 0.16732 1.09586
 C1636 C 0.60643 0.15470 1.08508
 H1637 H 0.60493 0.26896 1.04755
 H1638 H 0.64257 0.24673 1.02805
 H1639 H 0.57196 0.15623 1.10872
 H1640 H 0.61009 0.13422 1.08992
 H1641 H 0.54582 0.19651 1.11594
 H1642 H 0.56704 0.26852 1.07729
 H1643 H 0.67023 0.20725 1.02295
 H1644 H 0.65024 0.13577 1.06394
 C1645 C 0.91402 0.22713 0.94070
 C1646 C 0.93409 0.21523 0.92630
 C1647 C 0.95212 0.23090 0.91327
 C1648 C 0.95005 0.25829 0.91431
 C1649 C 0.93016 0.26991 0.92935
 C1650 C 0.91202 0.25439 0.94255
 C1651 C 0.89416 0.21079 0.95324
 C1652 C 0.87361 0.22271 0.96699
 C1653 C 0.85405 0.20716 0.97772
 C1654 C 0.85481 0.18001 0.97432
 C1655 C 0.87595 0.16835 0.96109
 C1656 C 0.89562 0.18365 0.95042
 C1657 C 0.89150 0.26557 0.95697
 C1658 C 0.87264 0.24999 0.96900
 C1659 C 0.93524 0.18795 0.92449
 C1660 C 0.91632 0.17241 0.93635
 H1661 H 0.88978 0.28656 0.95862
 H1662 H 0.85692 0.25943 0.97958
 H1663 H 0.95066 0.17855 0.91345
 H1664 H 0.91766 0.15147 0.93412
 H1665 H 0.96700 0.22175 0.90135
 H1666 H 0.92855 0.29098 0.93039
 H1667 H 0.83772 0.21626 0.98770
 H1668 H 0.87679 0.14742 0.95869
 C1669 C 0.40944 0.72792 0.44609
 C1670 C 0.43123 0.71426 0.43643
 C1671 C 0.44947 0.72771 0.42120
 C1672 C 0.44616 0.75469 0.41565
 C1673 C 0.42490 0.76831 0.42696
 C1674 C 0.40621 0.75493 0.44166
 C1675 C 0.38909 0.71347 0.46015
 C1676 C 0.36655 0.72687 0.46841
 C1677 C 0.34641 0.71271 0.47999
 C1678 C 0.34881 0.68534 0.48356
 C1679 C 0.37219 0.67251 0.47631
 C1680 C 0.39214 0.68637 0.46416
 C1681 C 0.38387 0.76787 0.45116
 C1682 C 0.36429 0.75405 0.46415
 C1683 C 0.43387 0.68720 0.44136
 C1684 C 0.41473 0.67352 0.45515
 H1685 H 0.38116 0.78876 0.44790
 H1686 H 0.34708 0.76468 0.47057
 H1687 H 0.45066 0.67644 0.43413
 H1688 H 0.41733 0.65260 0.45820
 H1689 H 0.46544 0.71676 0.41282
 H1690 H 0.42234 0.78919 0.42378
 H1691 H 0.32857 0.72291 0.48522
 H1692 H 0.37472 0.65162 0.47959
 C1693 C 0.57895 0.78483 0.42606
 C1694 C 0.57807 0.79061 0.39966
 C1695 C 0.55475 0.78888 0.38737
 C1696 C 0.53249 0.78129 0.40126
 C1697 C 0.53380 0.77460 0.42750
 C1698 C 0.55699 0.77671 0.44012
 C1699 C 0.60307 0.78828 0.43937
 C1700 C 0.60367 0.78377 0.46598
 C1701 C 0.62623 0.78863 0.47875
 C1702 C 0.64801 0.79803 0.46508
 C1703 C 0.64725 0.80163 0.43828
 C1704 C 0.62480 0.79698 0.42536
 C1705 C 0.55855 0.77166 0.46662
 C1706 C 0.58147 0.77520 0.47934
 C1707 C 0.60038 0.79864 0.38620
 C1708 C 0.62337 0.80172 0.39882
 H1709 H 0.54179 0.76539 0.47770
 H1710 H 0.58169 0.77157 0.49986
 H1711 H 0.59996 0.80294 0.36578
 H1712 H 0.64004 0.80834 0.38779
 H1713 H 0.55376 0.79374 0.36708
 H1714 H 0.51657 0.76885 0.43817
 H1715 H 0.62670 0.78561 0.49934
 H1716 H 0.66370 0.80928 0.42761
 C1717 C 0.08067 0.29087 -0.06506
 C1718 C 0.05884 0.27958 -0.05337
 C1719 C 0.03624 0.27871 -0.06721
 C1720 C 0.03536 0.28969 -0.09220
 C1721 C 0.05748 0.30063 -0.10371
 C1722 C 0.08023 0.30119 -0.09028
 C1723 C 0.10423 0.29259 -0.05043
 C1724 C 0.12589 0.30415 -0.06212
 C1725 C 0.14784 0.30681 -0.04785
 C1726 C 0.14811 0.29853 -0.02191
 C1727 C 0.12638 0.28658 -0.01054
 C1728 C 0.10437 0.28344 -0.02480
 C1729 C 0.10241 0.31224 -0.10142
 C1730 C 0.12490 0.31362 -0.08760
 C1731 C 0.05994 0.26996 -0.02791
 C1732 C 0.08227 0.27198 -0.01384
 H1733 H 0.10230 0.32014 -0.12091
 H1734 H 0.14151 0.32258 -0.09680
 H1735 H 0.04325 0.26120 -0.01866
 H1736 H 0.08215 0.26474 0.00587
 H1737 H 0.01917 0.27031 -0.05834
 H1738 H 0.05694 0.30869 -0.12314
 H1739 H 0.16430 0.31649 -0.05658
 H1740 H 0.12651 0.28017 0.00943
 C1741 C 0.41871 0.27415 0.07000
 C1742 C 0.42384 0.25167 0.08536
 C1743 C 0.44844 0.24759 0.09527
 C1744 C 0.46742 0.26622 0.09037
 C1745 C 0.46244 0.28772 0.07364
 C1746 C 0.43803 0.29196 0.06362
 C1747 C 0.39222 0.28022 0.06208
 C1748 C 0.38688 0.30369 0.04835
 C1749 C 0.36139 0.31067 0.04307
 C1750 C 0.34129 0.29454 0.05154
 C1751 C 0.34692 0.27046 0.06419
 C1752 C 0.37247 0.26334 0.06984
 C1753 C 0.43214 0.31455 0.04875
 C1754 C 0.40696 0.32034 0.04125
 C1755 C 0.40381 0.23468 0.09183
 C1756 C 0.37857 0.24039 0.08417
 H1757 H 0.44694 0.32833 0.04361
 H1758 H 0.40303 0.33840 0.03051
 H1759 H 0.40752 0.21722 0.10359
 H1760 H 0.36358 0.22714 0.09019
 H1761 H 0.45211 0.23117 0.10840
 H1762 H 0.47709 0.30202 0.06984
 H1763 H 0.35701 0.32915 0.03318
 H1764 H 0.33139 0.25811 0.07082
 C1765 C 0.92058 0.77791 0.55567
 C1766 C 0.92652 0.75538 0.57064
 C1767 C 0.95022 0.75327 0.58274
 C1768 C 0.96695 0.77448 0.58156
 C1769 C 0.96121 0.79619 0.56517
 C1770 C 0.93817 0.79795 0.55212
 C1771 C 0.89472 0.78153 0.54516
 C1772 C 0.88861 0.80450 0.53090
 C1773 C 0.86342 0.80895 0.52287
 C1774 C 0.84422 0.79122 0.52996
 C1775 C 0.85068 0.76794 0.54367
 C1776 C 0.87608 0.76287 0.55112
 C1777 C 0.93171 0.82016 0.53689
 C1778 C 0.90739 0.82327 0.52626
 C1779 C 0.90787 0.73635 0.57480
 C1780 C 0.88300 0.74014 0.56541
 H1781 H 0.94528 0.83562 0.53379
 H1782 H 0.90292 0.84101 0.51520
 H1783 H 0.91218 0.71887 0.58633
 H1784 H 0.86891 0.72546 0.56992
 H1785 H 0.95400 0.73646 0.59532
 H1786 H 0.97424 0.81229 0.56343
 H1787 H 0.85831 0.82705 0.51264
 H1788 H 0.83582 0.75435 0.54917
   
