data_POSCAR
  _audit_creation_date              2014-09-24
  _audit_creation_method            'ToBaCCo'
  _symmetry_space_group_name_H-M    'P1'
  _symmetry_Int_Tables_number       1
  _symmetry_cell_setting            triclinic
  loop_
  _symmetry_equiv_pos_as_xyz
 x,y,z
_cell_length_a 75.0518
_cell_length_b 75.2082
_cell_length_c 75.0979
_cell_angle_alpha 90.010300
_cell_angle_beta 89.844800
_cell_angle_gamma 89.941000
loop_
  _atom_site_label
  _atom_site_type_symbol
  _atom_site_fract_x
  _atom_site_fract_y
  _atom_site_fract_z
C1 C 0.13341 -0.02480 0.25156
 C2 C 0.12636 -0.00796 0.25561
 C3 C 0.11744 -0.00531 0.27186
 C4 C 0.11464 -0.01955 0.28358
 C5 C 0.12121 -0.03644 0.27910
 C6 C 0.13109 -0.03921 0.26335
 C7 C 0.12713 0.00664 0.24242
 C8 C 0.11976 0.00419 0.22541
 C9 C 0.11821 0.01856 0.21345
 C10 C 0.12470 0.03532 0.21874
 C11 C 0.13294 0.03769 0.23533
 C12 C 0.13396 0.02333 0.24719
 H13 H 0.14047 -0.02661 0.23908
 H14 H 0.11197 0.00767 0.27498
 H15 H 0.11447 -0.00875 0.22193
 H16 H 0.13985 0.02517 0.26023
 H17 H 0.11917 -0.04729 0.28837
 H18 H 0.12394 0.04652 0.20971
 C19 C 0.36780 -0.02125 0.74832
 C20 C 0.37615 -0.00496 0.74464
 C21 C 0.38451 -0.00232 0.72811
 C22 C 0.38452 -0.01585 0.71524
 C23 C 0.37619 -0.03209 0.71910
 C24 C 0.36783 -0.03492 0.73560
 C25 C 0.37610 0.00933 0.75810
 C26 C 0.38487 0.00685 0.77440
 C27 C 0.38476 0.02031 0.78747
 C28 C 0.37579 0.03634 0.78374
 C29 C 0.36718 0.03902 0.76740
 C30 C 0.36729 0.02541 0.75465
 H31 H 0.36137 -0.02327 0.76111
 H32 H 0.39090 0.01029 0.72528
 H33 H 0.39162 -0.00566 0.77683
 H34 H 0.36062 0.02732 0.74200
 H35 H 0.37618 -0.04259 0.70921
 H36 H 0.37552 0.04694 0.79352
 C37 C 0.86698 0.47816 0.24814
 C38 C 0.87510 0.49472 0.24523
 C39 C 0.88344 0.49822 0.22884
 C40 C 0.88362 0.48524 0.21539
 C41 C 0.87552 0.46872 0.21852
 C42 C 0.86718 0.46507 0.23484
 C43 C 0.87442 0.50839 0.25932
 C44 C 0.88173 0.50481 0.27613
 C45 C 0.87968 0.51695 0.29027
 C46 C 0.86980 0.53259 0.28727
 C47 C 0.86296 0.53659 0.27035
 C48 C 0.86552 0.52452 0.25634
 H49 H 0.86049 0.47551 0.26077
 H50 H 0.88961 0.51104 0.22654
 H51 H 0.88877 0.49238 0.27813
 H52 H 0.85990 0.52727 0.24334
 H53 H 0.87565 0.45867 0.20817
 H54 H 0.86794 0.54213 0.29793
 C55 C 0.63504 0.47313 0.75290
 C56 C 0.62749 0.48983 0.75675
 C57 C 0.61964 0.49284 0.77351
 C58 C 0.61894 0.47922 0.78624
 C59 C 0.62697 0.46283 0.78241
 C60 C 0.63525 0.45974 0.76593
 C61 C 0.62754 0.50422 0.74334
 C62 C 0.61955 0.50164 0.72665
 C63 C 0.61782 0.51590 0.71469
 C64 C 0.62462 0.53265 0.71940
 C65 C 0.63340 0.53518 0.73567
 C66 C 0.63469 0.52093 0.74766
 H67 H 0.64133 0.47086 0.74009
 H68 H 0.61350 0.50558 0.77636
 H69 H 0.61397 0.48878 0.72335
 H70 H 0.64105 0.52285 0.76045
 H71 H 0.62682 0.45239 0.79236
 H72 H 0.62356 0.54362 0.71011
 C73 C 0.24811 0.13096 1.02407
 C74 C 0.24465 0.12259 1.00775
 C75 C 0.22823 0.11407 1.00504
 C76 C 0.21507 0.11403 1.01848
 C77 C 0.21884 0.12255 1.03475
 C78 C 0.23528 0.13090 1.03767
 C79 C 0.25818 0.12293 0.99342
 C80 C 0.27530 0.11594 0.99641
 C81 C 0.28823 0.11605 0.98277
 C82 C 0.28394 0.12421 0.96647
 C83 C 0.26713 0.13176 0.96355
 C84 C 0.25408 0.13061 0.97688
 H85 H 0.26080 0.13749 1.02616
 H86 H 0.22575 0.10767 0.99236
 H87 H 0.27823 0.10995 1.00920
 H88 H 0.24103 0.13641 0.97473
 H89 H 0.20899 0.12271 1.04532
 H90 H 0.29377 0.12492 0.95590
 C91 C 0.75230 0.36612 1.02204
 C92 C 0.75632 0.37310 1.00514
 C93 C 0.77263 0.38178 1.00233
 C94 C 0.78446 0.38446 1.01649
 C95 C 0.78004 0.37796 1.03344
 C96 C 0.76421 0.36830 1.03636
 C97 C 0.74301 0.37252 0.99068
 C98 C 0.72623 0.38047 0.99316
 C99 C 0.71420 0.38211 0.97888
 C100 C 0.71915 0.37512 0.96217
 C101 C 0.73548 0.36631 0.95979
 C102 C 0.74745 0.36522 0.97406
 H103 H 0.73976 0.35925 1.02396
 H104 H 0.77571 0.38720 0.98930
 H105 H 0.72301 0.38610 1.00606
 H106 H 0.76031 0.35889 0.97221
 H107 H 0.78939 0.37992 1.04423
 H108 H 0.71003 0.37592 0.95104
 C109 C 0.24997 0.86758 0.52114
 C110 C 0.25487 0.87407 0.50430
 C111 C 0.27187 0.88152 0.50182
 C112 C 0.28366 0.88349 0.51626
 C113 C 0.27822 0.87736 0.53315
 C114 C 0.26167 0.86906 0.53559
 C115 C 0.24185 0.87427 0.48954
 C116 C 0.22528 0.88269 0.49191
 C117 C 0.21356 0.88475 0.47752
 C118 C 0.21838 0.87792 0.46080
 C119 C 0.23451 0.86876 0.45842
 C120 C 0.24629 0.86711 0.47283
 H121 H 0.23697 0.86159 0.52301
 H122 H 0.27548 0.88652 0.48877
 H123 H 0.22188 0.88831 0.50477
 H124 H 0.25897 0.86042 0.47103
 H125 H 0.28713 0.87843 0.54443
 H126 H 0.20924 0.87920 0.44973
 C127 C 0.74653 0.63022 0.52538
 C128 C 0.74327 0.62256 0.50864
 C129 C 0.72679 0.61442 0.50530
 C130 C 0.71359 0.61397 0.51859
 C131 C 0.71707 0.62161 0.53527
 C132 C 0.73348 0.62976 0.53878
 C133 C 0.75709 0.62351 0.49465
 C134 C 0.77399 0.61609 0.49767
 C135 C 0.78787 0.61831 0.48521
 C136 C 0.78454 0.62849 0.46983
 C137 C 0.76753 0.63548 0.46639
 C138 C 0.75377 0.63273 0.47876
 H139 H 0.75923 0.63658 0.52791
 H140 H 0.72422 0.60862 0.49235
 H141 H 0.77626 0.60880 0.50991
 H142 H 0.74072 0.63844 0.47644
 H143 H 0.70691 0.62128 0.54555
 H144 H 0.79500 0.63050 0.46007
 C145 C -0.02379 0.25140 0.12928
 C146 C -0.00703 0.25514 0.12177
 C147 C -0.00386 0.27189 0.11404
 C148 C -0.01751 0.28474 0.11320
 C149 C -0.03404 0.28080 0.12116
 C150 C -0.03715 0.26442 0.12948
 C151 C 0.00729 0.24163 0.12222
 C152 C 0.00431 0.22453 0.11525
 C153 C 0.01799 0.21168 0.11524
 C154 C 0.03434 0.21602 0.12327
 C155 C 0.03728 0.23281 0.13078
 C156 C 0.02390 0.24577 0.12976
 H157 H -0.02610 0.23869 0.13567
 H158 H 0.00906 0.27457 0.10816
 H159 H -0.00849 0.22156 0.10930
 H160 H 0.02608 0.25880 0.13552
 H161 H -0.04464 0.29060 0.12116
 H162 H 0.04495 0.20626 0.12387
 C163 C -0.02352 0.74702 0.36625
 C164 C -0.00685 0.74324 0.37388
 C165 C -0.00360 0.72630 0.38113
 C166 C -0.01707 0.71336 0.38120
 C167 C -0.03344 0.71718 0.37310
 C168 C -0.03671 0.73383 0.36540
 C169 C 0.00717 0.75701 0.37433
 C170 C 0.00376 0.77357 0.38236
 C171 C 0.01717 0.78653 0.38318
 C172 C 0.03367 0.78316 0.37506
 C173 C 0.03710 0.76692 0.36657
 C174 C 0.02396 0.75366 0.36666
 H175 H -0.02594 0.75997 0.36040
 H176 H 0.00912 0.72347 0.38730
 H177 H -0.00908 0.77606 0.38852
 H178 H 0.02649 0.74103 0.36017
 H179 H -0.04374 0.70709 0.37281
 H180 H 0.04392 0.79330 0.37532
 C181 C 0.47699 0.24797 0.86678
 C182 C 0.49365 0.24370 0.87415
 C183 C 0.49655 0.22664 0.88124
 C184 C 0.48282 0.21390 0.88151
 C185 C 0.46640 0.21832 0.87365
 C186 C 0.46350 0.23509 0.86602
 C187 C 0.50820 0.25695 0.87459
 C188 C 0.50568 0.27345 0.88301
 C189 C 0.52009 0.28527 0.88529
 C190 C 0.53692 0.28037 0.87848
 C191 C 0.53933 0.26438 0.86918
 C192 C 0.52495 0.25265 0.86743
 H193 H 0.47485 0.26099 0.86097
 H194 H 0.50938 0.22361 0.88710
 H195 H 0.49268 0.27663 0.88846
 H196 H 0.52680 0.24006 0.86064
 H197 H 0.45574 0.20863 0.87326
 H198 H 0.54814 0.28933 0.87976
 C199 C 0.47660 0.75406 0.63218
 C200 C 0.49348 0.75675 0.62450
 C201 C 0.49734 0.77299 0.61605
 C202 C 0.48420 0.78624 0.61481
 C203 C 0.46759 0.78353 0.62298
 C204 C 0.46375 0.76760 0.63187
 C205 C 0.50699 0.74250 0.62545
 C206 C 0.50317 0.72559 0.61850
 C207 C 0.51529 0.71152 0.62055
 C208 C 0.53113 0.71443 0.62997
 C209 C 0.53535 0.73137 0.63660
 C210 C 0.52331 0.74545 0.63406
 H211 H 0.47374 0.74166 0.63896
 H212 H 0.51025 0.77498 0.60987
 H213 H 0.49069 0.72340 0.61163
 H214 H 0.52626 0.75849 0.63945
 H215 H 0.45755 0.79388 0.62238
 H216 H 0.54054 0.70361 0.63161
 C217 C 0.86995 1.01957 0.75408
 C218 C 0.87843 1.00332 0.75749
 C219 C 0.88656 1.00038 0.77403
 C220 C 0.88633 1.01361 0.78731
 C221 C 0.87761 1.02982 0.78365
 C222 C 0.86945 1.03292 0.76712
 C223 C 0.87883 0.98936 0.74370
 C224 C 0.88730 0.99255 0.72735
 C225 C 0.88769 0.97941 0.71399
 C226 C 0.87928 0.96298 0.71740
 C227 C 0.87076 0.95962 0.73376
 C228 C 0.87066 0.97292 0.74688
 H229 H 0.86376 1.02176 0.74124
 H230 H 0.89310 0.98774 0.77638
 H231 H 0.89355 1.00536 0.72518
 H232 H 0.86417 0.97057 0.75957
 H233 H 0.87715 1.04016 0.79368
 H234 H 0.87929 0.95270 0.70730
 C235 C 0.36790 0.52332 0.25427
 C236 C 0.37595 0.50688 0.25786
 C237 C 0.38361 0.50378 0.27458
 C238 C 0.38337 0.51704 0.28775
 C239 C 0.37521 0.53344 0.28399
 C240 C 0.36740 0.53670 0.26731
 C241 C 0.37638 0.49288 0.24410
 C242 C 0.38471 0.49607 0.22767
 C243 C 0.38527 0.48278 0.21454
 C244 C 0.37725 0.46625 0.21803
 C245 C 0.36879 0.46290 0.23441
 C246 C 0.36848 0.47631 0.24742
 H247 H 0.36201 0.52562 0.24131
 H248 H 0.38981 0.49104 0.27726
 H249 H 0.39079 0.50890 0.22519
 H250 H 0.36205 0.47394 0.26014
 H251 H 0.37492 0.54372 0.29410
 H252 H 0.37757 0.45596 0.20795
 C253 C 0.63305 1.02539 0.24761
 C254 C 0.62520 1.00887 0.24396
 C255 C 0.61733 1.00586 0.22731
 C256 C 0.61720 1.01921 0.21427
 C257 C 0.62517 1.03567 0.21807
 C258 C 0.63311 1.03888 0.23468
 C259 C 0.62475 0.99478 0.25762
 C260 C 0.61671 0.99796 0.27418
 C261 C 0.61433 0.98404 0.28651
 C262 C 0.62091 0.96700 0.28216
 C263 C 0.63000 0.96395 0.26604
 C264 C 0.63154 0.97787 0.25371
 H265 H 0.63903 1.02768 0.26052
 H266 H 0.61119 0.99310 0.22461
 H267 H 0.61149 1.01112 0.27696
 H268 H 0.63802 0.97561 0.24099
 H269 H 0.62514 1.04603 0.20806
 H270 H 0.61956 0.95620 0.29161
 C271 C 0.13278 0.52597 0.74708
 C272 C 0.12521 0.50930 0.74355
 C273 C 0.11770 0.50591 0.72681
 C274 C 0.11764 0.51910 0.71358
 C275 C 0.12530 0.53572 0.71728
 C276 C 0.13291 0.53928 0.73398
 C277 C 0.12506 0.49540 0.75741
 C278 C 0.11714 0.49878 0.77401
 C279 C 0.11683 0.48560 0.78725
 C280 C 0.12465 0.46899 0.78369
 C281 C 0.13268 0.46543 0.76714
 C282 C 0.13277 0.47874 0.75403
 H283 H 0.13857 0.52852 0.76004
 H284 H 0.11184 0.49302 0.72417
 H285 H 0.11118 0.51167 0.77654
 H286 H 0.13887 0.47621 0.74118
 H287 H 0.12533 0.54595 0.70713
 H288 H 0.12449 0.45877 0.79386
 C289 C 0.74877 0.86662 -0.02276
 C290 C 0.74521 0.87445 -0.00618
 C291 C 0.72877 0.88279 -0.00315
 C292 C 0.71584 0.88342 -0.01661
 C293 C 0.71954 0.87545 -0.03314
 C294 C 0.73595 0.86700 -0.03634
 C295 C 0.75879 0.87410 0.00795
 C296 C 0.77529 0.88238 0.00521
 C297 C 0.78838 0.88234 0.01862
 C298 C 0.78456 0.87363 0.03482
 C299 C 0.76804 0.86530 0.03772
 C300 C 0.75520 0.86563 0.02418
 H301 H 0.76153 0.86023 -0.02501
 H302 H 0.72614 0.88885 0.00969
 H303 H 0.77776 0.88893 -0.00741
 H304 H 0.74237 0.85934 0.02621
 H305 H 0.70961 0.87585 -0.04357
 H306 H 0.79443 0.87334 0.04532
 C307 C 0.24726 0.36740 0.47611
 C308 C 0.24279 0.37393 0.49305
 C309 C 0.22604 0.38179 0.49583
 C310 C 0.21421 0.38403 0.48160
 C311 C 0.21895 0.37779 0.46464
 C312 C 0.23528 0.36905 0.46185
 C313 C 0.25601 0.37377 0.50758
 C314 C 0.27281 0.38150 0.50490
 C315 C 0.28467 0.38343 0.51915
 C316 C 0.27989 0.37702 0.53603
 C317 C 0.26349 0.36839 0.53870
 C318 C 0.25150 0.36704 0.52443
 H319 H 0.26012 0.36115 0.47406
 H320 H 0.22262 0.38701 0.50885
 H321 H 0.27628 0.38686 0.49195
 H322 H 0.23859 0.36089 0.52640
 H323 H 0.20963 0.37932 0.45375
 H324 H 0.28922 0.37833 0.54694
 C325 C 0.25354 0.63076 -0.02704
 C326 C 0.25683 0.62258 -0.01060
 C327 C 0.27324 0.61422 -0.00756
 C328 C 0.28640 0.61389 -0.02088
 C329 C 0.28296 0.62221 -0.03729
 C330 C 0.26659 0.63073 -0.04048
 C331 C 0.24305 0.62275 0.00344
 C332 C 0.22647 0.61475 0.00038
 C333 C 0.21316 0.61483 0.01364
 C334 C 0.21686 0.62321 0.03001
 C335 C 0.23344 0.63120 0.03325
 C336 C 0.24651 0.63090 0.01986
 H337 H 0.24081 0.63719 -0.02927
 H338 H 0.27566 0.60794 0.00519
 H339 H 0.22407 0.60846 -0.01238
 H340 H 0.25938 0.63700 0.02214
 H341 H 0.29308 0.62208 -0.04761
 H342 H 0.20681 0.62354 0.04039
 C343 C 0.75161 0.13116 0.47404
 C344 C 0.75471 0.12272 0.49038
 C345 C 0.77111 0.11433 0.49350
 C346 C 0.78457 0.11431 0.48040
 C347 C 0.78122 0.12298 0.46409
 C348 C 0.76483 0.13140 0.46080
 C349 C 0.74076 0.12270 0.50425
 C350 C 0.72400 0.11529 0.50071
 C351 C 0.71063 0.11524 0.51383
 C352 C 0.71422 0.12282 0.53055
 C353 C 0.73094 0.13035 0.53425
 C354 C 0.74418 0.13017 0.52101
 H355 H 0.73890 0.13759 0.47172
 H356 H 0.77323 0.10784 0.50620
 H357 H 0.72145 0.10956 0.48773
 H358 H 0.75716 0.13589 0.52364
 H359 H 0.79140 0.12324 0.45383
 H360 H 0.70396 0.12288 0.54071
 C361 C 1.02261 0.75220 0.86756
 C362 C 1.00631 0.75556 0.87609
 C363 C 1.00294 0.77245 0.88332
 C364 C 1.01554 0.78624 0.88171
 C365 C 1.03136 0.78288 0.87212
 C366 C 1.03505 0.76590 0.86529
 C367 C 0.99245 0.74165 0.87687
 C368 C 0.99633 0.72478 0.88387
 C369 C 0.98300 0.71163 0.88502
 C370 C 0.96605 0.71535 0.87788
 C371 C 0.96227 0.73194 0.87028
 C372 C 0.97533 0.74522 0.87031
 H373 H 1.02527 0.73917 0.86199
 H374 H 0.99043 0.77472 0.89020
 H375 H 1.00955 0.72228 0.88908
 H376 H 0.97246 0.75807 0.86443
 H377 H 1.04124 0.79325 0.87042
 H378 H 0.95570 0.70530 0.87801
 C379 C 0.52311 0.25355 0.36708
 C380 C 0.50648 0.25722 0.37483
 C381 C 0.50347 0.27379 0.38288
 C382 C 0.51692 0.28672 0.38329
 C383 C 0.53348 0.28291 0.37540
 C384 C 0.53671 0.26638 0.36726
 C385 C 0.49224 0.24370 0.37492
 C386 C 0.49518 0.22700 0.38270
 C387 C 0.48110 0.21490 0.38457
 C388 C 0.46418 0.21933 0.37803
 C389 C 0.46129 0.23561 0.36930
 C390 C 0.47536 0.24784 0.36805
 H391 H 0.52540 0.24070 0.36094
 H392 H 0.49063 0.27650 0.38894
 H393 H 0.50818 0.22380 0.38809
 H394 H 0.47323 0.26066 0.36181
 H395 H 0.54391 0.29285 0.37564
 H396 H 0.45342 0.20981 0.37926
 C397 C 1.02408 0.24733 0.63036
 C398 C 1.00793 0.24413 0.62163
 C399 C 1.00516 0.22787 0.61294
 C400 C 1.01847 0.21464 0.61287
 C401 C 1.03461 0.21809 0.62182
 C402 C 1.03751 0.23436 0.63057
 C403 C 0.99382 0.25777 0.62181
 C404 C 0.99695 0.27453 0.61426
 C405 C 0.98368 0.28779 0.61459
 C406 C 0.96721 0.28386 0.62277
 C407 C 0.96394 0.26709 0.63035
 C408 C 0.97734 0.25409 0.62976
 H409 H 1.02609 0.25995 0.63703
 H410 H 0.99257 0.22566 0.60628
 H411 H 1.00980 0.27711 0.60817
 H412 H 0.97505 0.24110 0.63557
 H413 H 1.04501 0.20810 0.62206
 H414 H 0.95683 0.29386 0.62331
 C415 C 0.52345 0.74727 0.13047
 C416 C 0.50731 0.74400 0.12171
 C417 C 0.50447 0.72756 0.11339
 C418 C 0.51770 0.71435 0.11369
 C419 C 0.53381 0.71779 0.12257
 C420 C 0.53678 0.73419 0.13104
 C421 C 0.49332 0.75775 0.12138
 C422 C 0.49670 0.77432 0.11353
 C423 C 0.48346 0.78752 0.11324
 C424 C 0.46680 0.78395 0.12104
 C425 C 0.46328 0.76742 0.12903
 C426 C 0.47663 0.75434 0.12907
 H427 H 0.52552 0.76001 0.13689
 H428 H 0.49194 0.72513 0.10669
 H429 H 0.50966 0.77687 0.10766
 H430 H 0.47414 0.74151 0.13514
 H431 H 0.54405 0.70764 0.12292
 H432 H 0.45654 0.79409 0.12094
 O433 O -0.01071 0.98953 0.95036
 O434 O 0.01827 1.00395 0.94966
 O435 O -0.00585 0.94775 0.98779
 O436 O 0.00373 0.94425 1.01590
 O437 O -0.04852 0.98551 0.99286
 O438 O -0.05013 1.01528 1.00424
 O439 O 0.04003 0.99453 1.03653
 O440 O 0.04292 0.96799 1.02166
 O441 O 0.03843 1.03497 0.99831
 O442 O 0.01985 1.03879 0.96977
 O443 O -0.00153 1.03423 1.03780
 O444 O -0.02760 1.01608 1.04363
 O445 O 0.01577 1.00720 1.04974
 O446 O -0.01519 0.99445 1.05279
 O447 O 0.01119 1.04737 1.01364
 O448 O 0.00003 1.05069 0.98385
 O449 O 0.05208 1.01013 1.00896
 O450 O 0.05259 0.98079 0.99403
 O451 O -0.03491 1.00190 0.96399
 O452 O -0.03993 1.02790 0.98162
 O453 O -0.03498 0.96111 1.00459
 O454 O -0.01702 0.95709 1.03128
 O455 O 0.00526 0.96151 0.96311
 O456 O 0.03285 0.97795 0.96102
 Zr457 Zr 0.00832 0.98813 0.97091
 O458 O 0.02531 1.00420 0.98632
 Zr459 Zr -0.00802 0.96820 1.00697
 O460 O 0.00848 0.98338 1.02375
 Zr461 Zr -0.02778 1.00433 0.99099
 O462 O -0.01231 1.02113 1.00717
 Zr463 Zr 0.03164 0.99106 1.01008
 O464 O 0.01611 0.97407 0.99393
 Zr465 Zr 0.01176 1.02729 0.99422
 O466 O -0.00473 1.01216 0.97715
 Zr467 Zr -0.00435 1.00742 1.03019
 O468 O -0.02178 0.99127 1.01501
 O469 O -0.01530 0.98086 0.98357
 O470 O 0.01932 1.01476 1.01771
 C471 C -0.02663 0.99589 0.95023
 C472 C -0.00018 0.94770 0.97159
 C473 C -0.04875 0.96956 0.99901
 C474 C 0.03191 1.00143 1.04995
 C475 C 0.05214 1.02646 1.00398
 C476 C 0.00517 1.04768 1.02965
 H477 H 0.03618 1.00690 0.97936
 H478 H -0.01932 1.03189 1.01004
 H479 H -0.02298 0.97330 0.97602
 H480 H 0.01152 0.97642 1.03448
 H481 H 0.04023 0.95800 1.01351
 H482 H 0.01387 0.94756 1.02360
 H483 H -0.01177 1.05211 0.98956
 H484 H -0.03121 1.03360 0.97353
 H485 H 0.06381 0.98150 1.00095
 H486 H 0.03092 0.97289 0.94899
 H487 H -0.03343 1.02508 1.03600
 H488 H -0.05101 1.00916 1.01588
 H489 H 0.01730 0.99720 0.93837
 H490 H 0.03127 1.03323 0.96622
 H491 H -0.02590 0.96547 1.03628
 H492 H -0.00726 0.98442 1.05590
 O493 O 0.48565 0.49198 0.45172
 O494 O 0.51469 0.50637 0.45106
 O495 O 0.49135 0.44924 0.48822
 O496 O 0.50019 0.44513 0.51639
 O497 O 0.44819 0.48754 0.49560
 O498 O 0.44698 0.51718 0.50623
 O499 O 0.53734 0.49474 0.53744
 O500 O 0.53992 0.46853 0.52188
 O501 O 0.53541 0.53614 0.50042
 O502 O 0.51654 0.54019 0.47162
 O503 O 0.49737 0.53427 0.54036
 O504 O 0.46990 0.51687 0.54543
 O505 O 0.51301 0.50645 0.55136
 O506 O 0.48199 0.49475 0.55421
 O507 O 0.50718 0.54865 0.51558
 O508 O 0.49743 0.55246 0.48632
 O509 O 0.54909 0.51096 0.51020
 O510 O 0.54934 0.48194 0.49449
 O511 O 0.46141 0.50359 0.46594
 O512 O 0.45711 0.52978 0.48385
 O513 O 0.46191 0.46201 0.50435
 O514 O 0.47947 0.45797 0.53177
 O515 O 0.50179 0.46357 0.46357
 O516 O 0.52930 0.48006 0.46155
 Zr517 Zr 0.50491 0.49003 0.47199
 O518 O 0.52211 0.50565 0.48763
 Zr519 Zr 0.48877 0.46931 0.50768
 O520 O 0.50554 0.48399 0.52467
 Zr521 Zr 0.46909 0.50596 0.49282
 O522 O 0.48481 0.52225 0.50924
 Zr523 Zr 0.52862 0.49192 0.51101
 O524 O 0.51282 0.47540 0.49461
 Zr525 Zr 0.50872 0.52862 0.49614
 O526 O 0.49200 0.51397 0.47890
 Zr527 Zr 0.49298 0.50794 0.53184
 O528 O 0.47527 0.49229 0.51645
 O529 O 0.48135 0.48259 0.48469
 O530 O 0.51652 0.51552 0.51927
 C531 C 0.46962 0.49805 0.45193
 C532 C 0.49676 0.44953 0.47194
 C533 C 0.44803 0.47109 0.50018
 C534 C 0.52922 0.50092 0.55122
 C535 C 0.54916 0.52742 0.50566
 C536 C 0.50262 0.54826 0.53206
 H537 H 0.53293 0.50849 0.48063
 H538 H 0.47791 0.53300 0.51242
 H539 H 0.47361 0.47518 0.47705
 H540 H 0.50863 0.47673 0.53519
 H541 H 0.53694 0.45873 0.51360
 H542 H 0.51057 0.44823 0.52384
 H543 H 0.48497 0.55292 0.49060
 H544 H 0.46537 0.53502 0.47499
 H545 H 0.56065 0.48251 0.50127
 H546 H 0.52723 0.47535 0.44940
 H547 H 0.46510 0.52718 0.53883
 H548 H 0.44683 0.51188 0.51829
 H549 H 0.51351 0.49995 0.43960
 H550 H 0.52845 0.53546 0.46848
 H551 H 0.47008 0.46597 0.53644
 H552 H 0.48909 0.48387 0.55635
 O553 O 0.46097 -0.03790 0.49452
 O554 O 0.47690 -0.03912 0.46680
 O555 O 0.50302 -0.03776 0.53361
 O556 O 0.52687 -0.02141 0.54025
 O557 O 0.46050 0.00146 0.53610
 O558 O 0.45499 0.02845 0.51984
 O559 O 0.54659 0.01383 0.48844
 O560 O 0.54968 -0.01455 0.50008
 O561 O 0.50740 0.00860 0.44782
 O562 O 0.47486 -0.00277 0.44904
 O563 O 0.50320 0.05050 0.48709
 O564 O 0.49386 0.05158 0.51795
 O565 O 0.53253 0.03777 0.50068
 O566 O 0.51561 0.04145 0.52906
 O567 O 0.49353 0.03717 0.46170
 O568 O 0.46708 0.02212 0.45630
 O569 O 0.53359 0.00090 0.46091
 O570 O 0.53601 -0.02897 0.47510
 O571 O 0.44742 -0.01406 0.50755
 O572 O 0.44430 0.01605 0.49705
 O573 O 0.48599 -0.00907 0.54863
 O574 O 0.51636 0.00338 0.54883
 O575 O 0.48975 -0.05048 0.50949
 O576 O 0.50385 -0.04985 0.48002
 Zr577 Zr 0.48759 -0.02949 0.49113
 O578 O 0.50296 -0.01320 0.47421
 Zr579 Zr 0.50438 -0.01042 0.52741
 O580 O 0.52052 0.00647 0.51190
 Zr581 Zr 0.46736 0.00549 0.50924
 O582 O 0.48182 0.02320 0.49306
 Zr583 Zr 0.52633 -0.00535 0.48725
 O584 O 0.51196 -0.02325 0.50365
 Zr585 Zr 0.48927 0.01056 0.46920
 O586 O 0.47292 -0.00650 0.48457
 Zr587 Zr 0.50611 0.02952 0.50538
 O588 O 0.49057 0.01349 0.52266
 O589 O 0.48073 -0.01785 0.51535
 O590 O 0.51314 0.01821 0.48102
 C591 C 0.44732 -0.02994 0.50119
 C592 C 0.49668 -0.05121 0.52511
 C593 C 0.46965 -0.00397 0.54946
 C594 C 0.54635 0.02990 0.49425
 C595 C 0.52416 0.00520 0.44733
 C596 C 0.49845 0.05084 0.47068
 H597 H 0.50567 -0.01989 0.46318
 H598 H 0.47451 0.03390 0.49080
 H599 H 0.47358 -0.02583 0.52302
 H600 H 0.53157 0.00918 0.51850
 H601 H 0.54659 -0.02607 0.50567
 H602 H 0.53741 -0.01783 0.53320
 H603 H 0.45971 0.02788 0.46558
 H604 H 0.44333 0.01027 0.48525
 H605 H 0.54787 -0.02635 0.46989
 H606 H 0.49765 -0.06143 0.48117
 H607 H 0.48191 0.05308 0.51264
 H608 H 0.46342 0.03355 0.52856
 H609 H 0.47251 -0.05142 0.46859
 H610 H 0.48244 -0.01260 0.44462
 H611 H 0.50917 0.01423 0.55089
 H612 H 0.52631 0.03481 0.53290
 O613 O 0.00253 0.46209 1.03698
 O614 O 0.03031 0.47810 1.03934
 O615 O -0.03738 0.50295 1.03751
 O616 O -0.04322 0.52815 1.02243
 O617 O -0.03775 0.46341 0.99554
 O618 O -0.02000 0.45919 0.96938
 O619 O 0.00816 0.55043 0.99053
 O620 O -0.00391 0.55151 1.01847
 O621 O 0.04969 0.51231 0.99250
 O622 O 0.04965 0.47976 1.00499
 O623 O 0.01307 0.50948 0.95118
 O624 O -0.01794 0.49922 0.94851
 O625 O -0.00110 0.53732 0.96480
 O626 O -0.02944 0.52089 0.95906
 O627 O 0.03728 0.49717 0.96453
 O628 O 0.04298 0.47114 0.98012
 O629 O 0.03615 0.53690 1.00388
 O630 O 0.02044 0.53734 1.03308
 O631 O -0.00935 0.44966 1.01199
 O632 O 0.00235 0.44829 0.98203
 O633 O -0.05070 0.48760 1.00836
 O634 O -0.05146 0.51803 0.99664
 O635 O -0.01297 0.49075 1.05080
 O636 O 0.01641 0.50379 1.05183
 Zr637 Zr 0.00591 0.48906 1.03010
 O638 O 0.02306 0.50553 1.01523
 Zr639 Zr -0.03001 0.50625 1.01061
 O640 O -0.01424 0.52345 0.99510
 Zr641 Zr -0.01066 0.47055 0.99335
 O642 O 0.00602 0.48612 0.97704
 Zr643 Zr 0.00969 0.52899 1.00832
 O644 O -0.00699 0.51342 1.02478
 Zr645 Zr 0.02921 0.49318 0.99098
 O646 O 0.01345 0.47578 1.00653
 Zr647 Zr -0.00635 0.51059 0.97150
 O648 O -0.02405 0.49402 0.98607
 O649 O -0.01775 0.48248 1.01724
 O650 O 0.01728 0.51728 0.98428
 C651 C -0.00349 0.44880 1.02805
 C652 C -0.02896 0.49689 1.05113
 C653 C -0.05128 0.47183 1.00186
 C654 C 0.00390 0.55086 0.97398
 C655 C 0.04982 0.52853 0.99790
 C656 C 0.02918 0.50365 0.95099
 H657 H 0.03386 0.50813 1.02229
 H658 H 0.00882 0.47938 0.96608
 H659 H -0.02554 0.47484 1.02465
 H660 H -0.02098 0.53449 0.99271
 H661 H -0.01029 0.54753 1.02932
 H662 H -0.03713 0.53903 1.01826
 H663 H 0.03429 0.46431 0.97300
 H664 H 0.01381 0.44696 0.98840
 H665 H 0.02567 0.54933 1.03143
 H666 H 0.01530 0.49666 1.06288
 H667 H -0.01159 0.48796 0.94599
 H668 H -0.02811 0.46805 0.96398
 H669 H 0.02837 0.47258 1.05118
 H670 H 0.05470 0.48814 1.01378
 H671 H -0.05250 0.51162 0.98518
 H672 H -0.03383 0.53096 0.96633
 O673 O 0.00941 0.45134 0.51431
 O674 O -0.00528 0.44968 0.48563
 O675 O 0.05127 0.48922 0.50541
 O676 O 0.05447 0.51752 0.49763
 O677 O 0.01445 0.49482 0.55051
 O678 O -0.01514 0.50636 0.55269
 O679 O 0.00320 0.53568 0.46081
 O680 O 0.02948 0.52051 0.45754
 O681 O -0.03765 0.49797 0.46525
 O682 O -0.04027 0.46945 0.48463
 O683 O -0.03533 0.53861 0.50179
 O684 O -0.01790 0.54510 0.52816
 O685 O -0.00813 0.54985 0.48515
 O686 O 0.00466 0.55324 0.51614
 O687 O -0.04953 0.51325 0.49349
 O688 O -0.05204 0.48390 0.50415
 O689 O -0.01315 0.50790 0.45037
 O690 O 0.01621 0.49274 0.44935
 O691 O -0.00220 0.46567 0.53845
 O692 O -0.02824 0.48360 0.54359
 O693 O 0.03876 0.50556 0.53589
 O694 O 0.04144 0.53267 0.51703
 O695 O 0.03723 0.46340 0.49800
 O696 O 0.02051 0.46091 0.47028
 Zr697 Zr 0.01053 0.47128 0.49468
 O698 O -0.00620 0.48602 0.47767
 Zr699 Zr 0.03065 0.50790 0.50916
 O700 O 0.01502 0.52397 0.49241
 Zr701 Zr -0.00490 0.49240 0.53047
 O702 O -0.02215 0.50807 0.51495
 Zr703 Zr 0.00668 0.50953 0.47003
 O704 O 0.02424 0.49408 0.48567
 Zr705 Zr -0.02900 0.49428 0.49165
 O706 O -0.01327 0.47780 0.50819
 Zr707 Zr -0.00870 0.53078 0.50568
 O708 O 0.00788 0.51625 0.52329
 O709 O 0.01834 0.48471 0.51760
 O710 O -0.01674 0.51749 0.48277
 C711 C 0.00350 0.45167 0.53039
 C712 C 0.05124 0.47257 0.50144
 C713 C 0.03059 0.50048 0.55006
 C714 C -0.00294 0.54950 0.46882
 C715 C -0.02956 0.50313 0.45107
 C716 C -0.04932 0.52988 0.49736
 H717 H -0.00923 0.47872 0.46715
 H718 H -0.03276 0.51116 0.52214
 H719 H 0.02619 0.47737 0.52522
 H720 H 0.02197 0.53454 0.48881
 H721 H 0.03955 0.51245 0.46026
 H722 H 0.05120 0.52264 0.48597
 H723 H -0.05263 0.48905 0.51625
 H724 H -0.03377 0.47460 0.53574
 H725 H 0.01507 0.49923 0.43792
 H726 H 0.02582 0.44904 0.47250
 H727 H -0.02667 0.53753 0.53442
 H728 H -0.00949 0.51825 0.55252
 H729 H 0.00167 0.43851 0.48670
 H730 H -0.03573 0.46616 0.47270
 H731 H 0.03407 0.53705 0.52707
 H732 H 0.01465 0.55614 0.50803
 O733 O 0.51098 0.95190 0.01203
 O734 O 0.49677 0.95129 -0.01698
 O735 O 0.55303 0.98932 0.00706
 O736 O 0.55656 1.01748 -0.00213
 O737 O 0.51499 0.99427 0.04985
 O738 O 0.48518 1.00563 0.05142
 O739 O 0.50650 1.03805 -0.03863
 O740 O 0.53296 1.02303 -0.04153
 O741 O 0.46574 1.00005 -0.03707
 O742 O 0.46186 0.97144 -0.01858
 O743 O 0.46640 1.03932 0.00274
 O744 O 0.48441 1.04511 0.02881
 O745 O 0.49363 1.05122 -0.01446
 O746 O 0.50627 1.05413 0.01657
 O747 O 0.45325 1.01522 -0.00990
 O748 O 0.44990 0.98543 0.00127
 O749 O 0.49065 1.01070 -0.05069
 O750 O 0.52001 0.99559 -0.05121
 O751 O 0.49869 0.96550 0.03626
 O752 O 0.47254 0.98310 0.04115
 O753 O 0.53961 1.00571 0.03633
 O754 O 0.54353 1.03266 0.01850
 O755 O 0.53924 0.96461 -0.00381
 O756 O 0.52289 0.96265 -0.03146
 Zr757 Zr 0.51258 0.97246 -0.00696
 O758 O 0.49653 0.98790 -0.02396
 Zr759 Zr 0.53251 1.00840 0.00942
 O760 O 0.51737 1.02521 -0.00711
 Zr761 Zr 0.49623 0.99246 0.02910
 O762 O 0.47947 1.00869 0.01361
 Zr763 Zr 0.50975 1.01161 -0.03026
 O764 O 0.52671 0.99545 -0.01470
 Zr765 Zr 0.47337 0.99581 -0.01044
 O766 O 0.48846 0.97870 0.00605
 Zr767 Zr 0.49325 1.03167 0.00566
 O768 O 0.50934 1.01644 0.02313
 O769 O 0.51978 0.98504 0.01665
 O770 O 0.48597 1.01926 -0.01800
 C771 C 0.50463 0.95175 0.02796
 C772 C 0.55309 0.97313 0.00148
 C773 C 0.53105 1.00019 0.05009
 C774 C 0.49957 1.05145 -0.03055
 C775 C 0.47428 1.00579 -0.05075
 C776 C 0.45294 1.03120 -0.00394
 H777 H 0.49384 0.98099 -0.03483
 H778 H 0.46866 1.01156 0.02059
 H779 H 0.52734 0.97745 0.02432
 H780 H 0.52439 1.03591 -0.01014
 H781 H 0.54294 1.01486 -0.03878
 H782 H 0.55329 1.02498 -0.01243
 H783 H 0.44842 0.99113 0.01304
 H784 H 0.46692 0.97497 0.03245
 H785 H 0.51931 1.00252 -0.06243
 H786 H 0.52797 0.95063 -0.02952
 H787 H 0.47546 1.03743 0.03468
 H788 H 0.49128 1.01726 0.05228
 H789 H 0.50354 0.94000 -0.01601
 H790 H 0.46742 0.96796 -0.03002
 H791 H 0.53521 1.03747 0.02755
 H792 H 0.51636 1.05724 0.00866
 O793 O 0.48900 0.50839 0.05026
 O794 O 0.51819 0.49469 0.05096
 O795 O 0.49335 0.54950 0.01153
 O796 O 0.50229 0.55222 -0.01689
 O797 O 0.45065 0.51124 0.00800
 O798 O 0.44932 0.48109 -0.00241
 O799 O 0.53845 0.50248 -0.03691
 O800 O 0.54171 0.52896 -0.02178
 O801 O 0.53837 0.46270 0.00387
 O802 O 0.51897 0.45924 0.03200
 O803 O 0.49803 0.46175 -0.03619
 O804 O 0.47117 0.47938 -0.04176
 O805 O 0.51429 0.48903 -0.04933
 O806 O 0.48324 0.50064 -0.05207
 O807 O 0.51122 0.44941 -0.01191
 O808 O 0.50025 0.44634 0.01767
 O809 O 0.55068 0.48621 -0.01069
 O810 O 0.55228 0.51553 0.00504
 O811 O 0.46468 0.49586 0.03718
 O812 O 0.45978 0.46932 0.02049
 O813 O 0.46395 0.53557 -0.00414
 O814 O 0.48144 0.53897 -0.03135
 O815 O 0.50447 0.53642 0.03653
 O816 O 0.53240 0.52030 0.03832
 Zr817 Zr 0.50779 0.50964 0.02933
 O818 O 0.52481 0.49331 0.01405
 Zr819 Zr 0.49089 0.52850 -0.00696
 O820 O 0.50725 0.51298 -0.02366
 Zr821 Zr 0.47162 0.49268 0.01022
 O822 O 0.48712 0.47554 -0.00569
 Zr823 Zr 0.53064 0.50577 -0.01025
 O824 O 0.51520 0.52308 0.00579
 Zr825 Zr 0.51139 0.46993 0.00707
 O826 O 0.49488 0.48537 0.02392
 Zr827 Zr 0.49461 0.48869 -0.02924
 O828 O 0.47723 0.50515 -0.01422
 O829 O 0.48397 0.51641 0.01687
 O830 O 0.51847 0.48181 -0.01697
 C831 C 0.47308 0.50205 0.05073
 C832 C 0.49907 0.55000 0.02768
 C833 C 0.45026 0.52711 0.00165
 C834 C 0.53024 0.49525 -0.05004
 C835 C 0.55142 0.47053 -0.00397
 C836 C 0.50509 0.44862 -0.02784
 H837 H 0.53581 0.49087 0.02086
 H838 H 0.48025 0.46462 -0.00817
 H839 H 0.47630 0.52413 0.02435
 H840 H 0.51003 0.51976 -0.03460
 H841 H 0.53916 0.53886 -0.01345
 H842 H 0.51265 0.54874 -0.02427
 H843 H 0.48810 0.44513 0.01277
 H844 H 0.46868 0.46387 0.02853
 H845 H 0.56325 0.51445 -0.00228
 H846 H 0.53063 0.52582 0.05018
 H847 H 0.46598 0.47006 -0.03405
 H848 H 0.44832 0.48681 -0.01424
 H849 H 0.51736 0.50189 0.06200
 H850 H 0.53011 0.46520 0.03568
 H851 H 0.47247 0.53047 -0.03591
 H852 H 0.49040 0.51127 -0.05507
 O853 O -0.01220 0.00986 0.54916
 O854 O 0.01700 -0.00386 0.54920
 O855 O -0.00862 0.05123 0.51060
 O856 O -0.00014 0.05412 0.48207
 O857 O -0.05128 0.01299 0.50780
 O858 O -0.05286 -0.01699 0.49699
 O859 O 0.03575 0.00424 0.46108
 O860 O 0.03912 0.03082 0.47606
 O861 O 0.03627 -0.03559 0.50143
 O862 O 0.01765 -0.03922 0.52995
 O863 O -0.00468 -0.03624 0.46221
 O864 O -0.03169 -0.01861 0.45730
 O865 O 0.01127 -0.00890 0.44898
 O866 O -0.01981 0.00276 0.44689
 O867 O 0.00868 -0.04877 0.48629
 O868 O -0.00161 -0.05184 0.51621
 O869 O 0.04851 -0.01178 0.48730
 O870 O 0.05015 0.01753 0.50282
 O871 O -0.03662 -0.00286 0.53647
 O872 O -0.04202 -0.02905 0.51951
 O873 O -0.03827 0.03731 0.49532
 O874 O -0.02126 0.04095 0.46788
 O875 O 0.00315 0.03803 0.53523
 O876 O 0.03097 0.02183 0.53654
 Zr877 Zr 0.00620 0.01126 0.52789
 O878 O 0.02293 -0.00497 0.51219
 Zr879 Zr -0.01137 0.03033 0.49202
 O880 O 0.00470 0.01491 0.47492
 Zr881 Zr -0.03029 -0.00561 0.50932
 O882 O -0.01509 -0.02265 0.49303
 Zr883 Zr 0.02834 0.00763 0.48786
 O884 O 0.01318 0.02483 0.50428
 Zr885 Zr 0.00940 -0.02832 0.50532
 O886 O -0.00678 -0.01298 0.52256
 Zr887 Zr -0.00803 -0.00936 0.46943
 O888 O -0.02513 0.00702 0.48487
 O889 O -0.01785 0.01810 0.51591
 O890 O 0.01606 -0.01631 0.48123
 C891 C -0.02801 0.00327 0.54991
 C892 C -0.00246 0.05165 0.52659
 C893 C -0.05182 0.02885 0.50144
 C894 C 0.02727 -0.00284 0.44804
 C895 C 0.04930 -0.02758 0.49372
 C896 C 0.00236 -0.04946 0.47044
 H897 H 0.03406 -0.00744 0.51878
 H898 H -0.02202 -0.03355 0.49062
 H899 H -0.02536 0.02575 0.52361
 H900 H 0.00730 0.02174 0.46397
 H901 H 0.03672 0.04073 0.48443
 H902 H 0.01000 0.05069 0.47437
 H903 H -0.01372 -0.05325 0.51124
 H904 H -0.03298 -0.03466 0.52727
 H905 H 0.06101 0.01658 0.49533
 H906 H 0.02942 0.02724 0.54849
 H907 H -0.03674 -0.02797 0.46506
 H908 H -0.05405 -0.01115 0.48524
 H909 H 0.01635 0.00323 0.56032
 H910 H 0.02881 -0.03319 0.53345
 H911 H -0.03027 0.03246 0.46340
 H912 H -0.01269 0.01338 0.44381
 O913 O 0.74659 0.29018 0.21369
 O914 O 0.71870 0.29144 0.23031
 O915 O 0.78727 0.28778 0.25220
 O916 O 0.79393 0.27168 0.27647
 O917 O 0.78534 0.24796 0.21073
 O918 O 0.76744 0.22236 0.20601
 O919 O 0.74184 0.23864 0.29943
 O920 O 0.75529 0.26616 0.30177
 O921 O 0.69998 0.24351 0.26320
 O922 O 0.69844 0.25668 0.23165
 O923 O 0.73640 0.20204 0.25761
 O924 O 0.76657 0.19926 0.24542
 O925 O 0.75281 0.21429 0.28504
 O926 O 0.77977 0.20913 0.26624
 O927 O 0.71180 0.21598 0.24681
 O928 O 0.70555 0.23312 0.22094
 O929 O 0.71437 0.25370 0.28779
 O930 O 0.73078 0.28234 0.28918
 O931 O 0.75554 0.26513 0.19905
 O932 O 0.74467 0.23518 0.19699
 O933 O 0.79948 0.25910 0.23506
 O934 O 0.80129 0.24621 0.26515
 O935 O 0.76235 0.30197 0.24229
 O936 O 0.73336 0.30259 0.25634
 Zr937 Zr 0.74331 0.28158 0.24019
 O938 O 0.72663 0.26606 0.25656
 Zr939 Zr 0.77963 0.26095 0.25476
 O940 O 0.76442 0.24486 0.27198
 Zr941 Zr 0.75859 0.24567 0.21906
 O942 O 0.74261 0.22873 0.23464
 Zr943 Zr 0.74071 0.25785 0.27916
 O944 O 0.75702 0.27490 0.26374
 Zr945 Zr 0.71981 0.24249 0.24332
 O946 O 0.73490 0.25886 0.22607
 Zr947 Zr 0.75602 0.22203 0.25826
 O948 O 0.77298 0.23719 0.24153
 O949 O 0.76650 0.26880 0.23184
 O950 O 0.73265 0.23451 0.26655
 C951 C 0.75085 0.28159 0.19948
 C952 C 0.77869 0.30179 0.24736
 C953 C 0.79932 0.25340 0.21894
 C954 C 0.74718 0.22240 0.29905
 C955 C 0.70038 0.24827 0.27963
 C956 C 0.72007 0.20219 0.25254
 H957 H 0.71601 0.27312 0.25993
 H958 H 0.73949 0.21809 0.22758
 H959 H 0.77405 0.27642 0.22418
 H960 H 0.77155 0.24190 0.28262
 H961 H 0.76159 0.27720 0.29831
 H962 H 0.78804 0.26742 0.28745
 H963 H 0.71337 0.22469 0.21450
 H964 H 0.73290 0.24114 0.19681
 H965 H 0.72606 0.28021 0.30134
 H966 H 0.73422 0.31393 0.24966
 H967 H 0.75981 0.19746 0.23427
 H968 H 0.77552 0.21624 0.21441
 H969 H 0.72057 0.30348 0.22528
 H970 H 0.69492 0.26628 0.23996
 H971 H 0.80242 0.23534 0.25779
 H972 H 0.78470 0.21575 0.27648
 O973 O 0.75204 0.70919 0.71661
 O974 O 0.78031 0.70769 0.73218
 O975 O 0.71271 0.71248 0.75686
 O976 O 0.70730 0.72910 0.78126
 O977 O 0.71334 0.75135 0.71465
 O978 O 0.73112 0.77701 0.70888
 O979 O 0.75981 0.76218 0.80127
 O980 O 0.74675 0.73450 0.80448
 O981 O 0.80088 0.75522 0.76299
 O982 O 0.80036 0.74237 0.73112
 O983 O 0.76449 0.79795 0.75843
 O984 O 0.73372 0.80061 0.74730
 O985 O 0.74883 0.78644 0.78682
 O986 O 0.72153 0.79167 0.76919
 O987 O 0.78864 0.78351 0.74712
 O988 O 0.79394 0.76649 0.72152
 O989 O 0.78698 0.74775 0.78888
 O990 O 0.77120 0.71861 0.79138
 O991 O 0.74255 0.73405 0.70203
 O992 O 0.75338 0.76383 0.69891
 O993 O 0.70005 0.74081 0.73978
 O994 O 0.69943 0.75436 0.76961
 O995 O 0.73711 0.69798 0.74601
 O996 O 0.76655 0.69747 0.75915
 Zr997 Zr 0.75624 0.71816 0.74287
 O998 O 0.77365 0.73385 0.75823
 Zr999 Zr 0.72064 0.73931 0.75865
 O1000 O 0.73661 0.75568 0.77482
 Zr1001 Zr 0.74037 0.75382 0.72181
 O1002 O 0.75715 0.77088 0.73631
 Zr1003 Zr 0.76051 0.74271 0.78125
 O1004 O 0.74352 0.72542 0.76688
 Zr1005 Zr 0.78014 0.75706 0.74423
 O1006 O 0.76423 0.74056 0.72796
 Zr1007 Zr 0.74469 0.77819 0.76034
 O1008 O 0.72693 0.76281 0.74473
 O1009 O 0.73285 0.73097 0.73532
 O1010 O 0.76828 0.76569 0.76783
 C1011 C 0.74726 0.71759 0.70248
 C1012 C 0.72097 0.69835 0.75179
 C1013 C 0.69966 0.74607 0.72352
 C1014 C 0.75466 0.77847 0.80080
 C1015 C 0.80088 0.75182 0.77975
 C1016 C 0.78067 0.79753 0.75280
 H1017 H 0.78432 0.72674 0.76127
 H1018 H 0.76010 0.78134 0.72891
 H1019 H 0.72499 0.72324 0.72812
 H1020 H 0.72988 0.75890 0.78569
 H1021 H 0.74047 0.72336 0.80138
 H1022 H 0.71360 0.73367 0.79186
 H1023 H 0.78561 0.77412 0.71477
 H1024 H 0.76515 0.75790 0.69835
 H1025 H 0.77637 0.72113 0.80325
 H1026 H 0.76528 0.68596 0.75284
 H1027 H 0.74034 0.80234 0.73602
 H1028 H 0.72320 0.78315 0.71747
 H1029 H 0.77808 0.69553 0.72761
 H1030 H 0.80419 0.73274 0.73924
 H1031 H 0.69814 0.76512 0.76213
 H1032 H 0.71657 0.78493 0.77936
 O1033 O 0.24506 0.21397 0.78788
 O1034 O 0.21745 0.21219 0.77144
 O1035 O 0.28556 0.21517 0.74783
 O1036 O 0.29164 0.23091 0.72309
 O1037 O 0.28510 0.25585 0.78868
 O1038 O 0.26701 0.28152 0.79370
 O1039 O 0.23948 0.26421 0.70140
 O1040 O 0.25294 0.23657 0.69904
 O1041 O 0.19832 0.25973 0.73866
 O1042 O 0.19802 0.24668 0.77090
 O1043 O 0.23502 0.30128 0.74310
 O1044 O 0.26576 0.30372 0.75457
 O1045 O 0.25065 0.28870 0.71529
 O1046 O 0.27789 0.29414 0.73288
 O1047 O 0.21060 0.28758 0.75466
 O1048 O 0.20446 0.27127 0.78020
 O1049 O 0.21235 0.24932 0.71387
 O1050 O 0.22857 0.22067 0.71234
 O1051 O 0.25644 0.23859 0.80145
 O1052 O 0.24468 0.26831 0.80379
 O1053 O 0.29847 0.24390 0.76422
 O1054 O 0.29973 0.25642 0.73413
 O1055 O 0.26094 0.20137 0.75906
 O1056 O 0.23179 0.20077 0.74537
 Zr1057 Zr 0.24198 0.22191 0.76112
 O1058 O 0.22507 0.23732 0.74492
 Zr1059 Zr 0.27812 0.24206 0.74518
 O1060 O 0.26264 0.25815 0.72828
 Zr1061 Zr 0.25809 0.25795 0.78126
 O1062 O 0.24166 0.27475 0.76601
 Zr1063 Zr 0.23877 0.24520 0.72188
 O1064 O 0.25522 0.22818 0.73710
 Zr1065 Zr 0.21861 0.26106 0.75805
 O1066 O 0.23410 0.24492 0.77515
 Zr1067 Zr 0.25457 0.28116 0.74199
 O1068 O 0.27194 0.26605 0.75828
 O1069 O 0.26548 0.23459 0.76856
 O1070 O 0.23100 0.26871 0.73443
 C1071 C 0.25076 0.22245 0.80162
 C1072 C 0.27709 0.20133 0.75331
 C1073 C 0.29880 0.24998 0.78019
 C1074 C 0.24473 0.28048 0.70152
 C1075 C 0.19847 0.25475 0.72227
 C1076 C 0.21881 0.30129 0.74865
 H1077 H 0.21437 0.23028 0.74192
 H1078 H 0.23872 0.28545 0.77308
 H1079 H 0.27318 0.22700 0.77608
 H1080 H 0.26953 0.26099 0.71741
 H1081 H 0.25922 0.22551 0.70247
 H1082 H 0.28591 0.23562 0.71224
 H1083 H 0.21306 0.27806 0.78746
 H1084 H 0.23315 0.26197 0.80461
 H1085 H 0.22371 0.22269 0.70023
 H1086 H 0.23281 0.18947 0.75210
 H1087 H 0.25881 0.30609 0.76552
 H1088 H 0.27512 0.28740 0.78512
 H1089 H 0.21935 0.20016 0.77651
 H1090 H 0.19346 0.23775 0.76239
 H1091 H 0.30086 0.26753 0.74111
 H1092 H 0.28290 0.28702 0.72299
 O1093 O 0.26290 0.69905 0.23882
 O1094 O 0.23403 0.69706 0.25170
 O1095 O 0.25653 0.73593 0.19604
 O1096 O 0.24670 0.76377 0.19237
 O1097 O 0.29987 0.74198 0.23298
 O1098 O 0.30202 0.75371 0.26224
 O1099 O 0.21069 0.78431 0.24371
 O1100 O 0.20745 0.76862 0.21724
 O1101 O 0.21416 0.74652 0.28474
 O1102 O 0.23004 0.72091 0.28951
 O1103 O 0.25149 0.78769 0.28142
 O1104 O 0.27824 0.79317 0.26394
 O1105 O 0.23561 0.79889 0.25291
 O1106 O 0.26683 0.80103 0.24131
 O1107 O 0.24242 0.76284 0.29613
 O1108 O 0.25491 0.73172 0.29767
 O1109 O 0.20017 0.75805 0.26050
 O1110 O 0.19825 0.74169 0.23188
 O1111 O 0.28719 0.71329 0.25002
 O1112 O 0.29220 0.73168 0.27587
 O1113 O 0.28569 0.75279 0.20852
 O1114 O 0.26702 0.77950 0.20457
 O1115 O 0.24659 0.71115 0.21039
 O1116 O 0.21839 0.71014 0.22780
 Zr1117 Zr 0.24353 0.71928 0.23704
 O1118 O 0.22689 0.73464 0.25365
 Zr1119 Zr 0.25883 0.75522 0.21625
 O1120 O 0.24224 0.77194 0.23151
 Zr1121 Zr 0.27952 0.74014 0.25223
 O1122 O 0.26423 0.75659 0.26904
 Zr1123 Zr 0.21964 0.75807 0.24034
 O1124 O 0.23503 0.74199 0.22294
 Zr1125 Zr 0.24072 0.74325 0.27622
 O1126 O 0.25688 0.72601 0.26080
 Zr1127 Zr 0.25550 0.77917 0.25500
 O1128 O 0.27292 0.76384 0.23885
 O1129 O 0.26676 0.73215 0.22910
 O1130 O 0.23239 0.76643 0.26349
 C1131 C 0.27898 0.69928 0.24469
 C1132 C 0.25144 0.71961 0.19632
 C1133 C 0.29970 0.74760 0.21682
 C1134 C 0.21907 0.79840 0.24848
 C1135 C 0.20038 0.75273 0.27674
 C1136 C 0.24676 0.77935 0.29559
 H1137 H 0.21631 0.72754 0.25705
 H1138 H 0.27143 0.75983 0.27955
 H1139 H 0.27444 0.72457 0.22151
 H1140 H 0.23883 0.78238 0.22427
 H1141 H 0.20974 0.76001 0.20751
 H1142 H 0.23572 0.77019 0.19579
 H1143 H 0.26496 0.73968 0.30065
 H1144 H 0.28430 0.72270 0.28141
 H1145 H 0.18710 0.74872 0.23279
 H1146 H 0.22000 0.69883 0.22120
 H1147 H 0.28411 0.78582 0.27313
 H1148 H 0.30194 0.76565 0.25668
 H1149 H 0.23470 0.68630 0.24408
 H1150 H 0.23313 0.71047 0.28211
 H1151 H 0.27690 0.78415 0.21193
 H1152 H 0.25938 0.80344 0.23074
 O1153 O 0.28573 0.75046 0.71143
 O1154 O 0.26928 0.72296 0.70873
 O1155 O 0.24583 0.79094 0.71394
 O1156 O 0.22118 0.79677 0.72990
 O1157 O 0.28684 0.78860 0.75386
 O1158 O 0.29101 0.77051 0.77973
 O1159 O 0.19854 0.74446 0.76044
 O1160 O 0.19690 0.75747 0.73305
 O1161 O 0.23592 0.70258 0.75599
 O1162 O 0.26801 0.70224 0.74264
 O1163 O 0.24045 0.73766 0.79845
 O1164 O 0.25108 0.76794 0.80220
 O1165 O 0.21232 0.75294 0.78607
 O1166 O 0.22994 0.78077 0.79219
 O1167 O 0.25211 0.71378 0.78393
 O1168 O 0.27774 0.70824 0.76714
 O1169 O 0.21120 0.71683 0.74584
 O1170 O 0.21039 0.73348 0.71715
 O1171 O 0.29925 0.76061 0.73661
 O1172 O 0.30103 0.74800 0.76623
 O1173 O 0.26204 0.80289 0.74397
 O1174 O 0.23156 0.80353 0.75567
 O1175 O 0.25683 0.76670 0.69931
 O1176 O 0.24336 0.73761 0.69761
 Zr1177 Zr 0.25893 0.74713 0.71921
 O1178 O 0.24258 0.72976 0.73396
 Zr1179 Zr 0.24301 0.78261 0.74062
 O1180 O 0.22582 0.76659 0.75594
 Zr1181 Zr 0.27884 0.76189 0.75590
 O1182 O 0.26330 0.74513 0.77213
 Zr1183 Zr 0.21951 0.74324 0.74204
 O1184 O 0.23496 0.76026 0.72582
 Zr1185 Zr 0.25547 0.72260 0.75762
 O1186 O 0.27275 0.73845 0.74200
 Zr1187 Zr 0.23914 0.75770 0.77886
 O1188 O 0.25583 0.77547 0.76448
 O1189 O 0.26635 0.77014 0.73273
 O1190 O 0.23171 0.73467 0.76546
 C1191 C 0.29947 0.75565 0.72022
 C1192 C 0.25110 0.78281 0.69977
 C1193 C 0.27830 0.80267 0.74927
 C1194 C 0.19847 0.74837 0.77709
 C1195 C 0.21952 0.70289 0.75114
 C1196 C 0.24611 0.72153 0.79794
 H1197 H 0.23958 0.71928 0.72660
 H1198 H 0.27030 0.74188 0.78278
 H1199 H 0.27393 0.77805 0.72539
 H1200 H 0.21495 0.77343 0.75887
 H1201 H 0.20067 0.76406 0.72227
 H1202 H 0.21027 0.79033 0.73347
 H1203 H 0.28464 0.71641 0.77479
 H1204 H 0.30205 0.73683 0.75934
 H1205 H 0.19834 0.72837 0.71895
 H1206 H 0.25019 0.73899 0.68637
 H1207 H 0.26283 0.76212 0.80351
 H1208 H 0.28250 0.77877 0.78550
 H1209 H 0.27448 0.72522 0.69678
 H1210 H 0.25942 0.69797 0.73364
 H1211 H 0.23818 0.80412 0.76704
 H1212 H 0.21928 0.78516 0.78583
 O1213 O 0.25242 0.21209 0.21451
 O1214 O 0.28033 0.21069 0.23092
 O1215 O 0.21194 0.21512 0.25366
 O1216 O 0.20546 0.23166 0.27771
 O1217 O 0.21395 0.25446 0.21161
 O1218 O 0.23205 0.28004 0.20663
 O1219 O 0.25805 0.26435 0.29972
 O1220 O 0.24416 0.23701 0.30247
 O1221 O 0.29963 0.25870 0.26333
 O1222 O 0.30076 0.24504 0.23170
 O1223 O 0.26360 0.30051 0.25742
 O1224 O 0.23327 0.30331 0.24552
 O1225 O 0.24738 0.28872 0.28522
 O1226 O 0.22033 0.29402 0.26686
 O1227 O 0.28804 0.28622 0.24657
 O1228 O 0.29417 0.26884 0.22107
 O1229 O 0.28514 0.24884 0.28807
 O1230 O 0.26848 0.22041 0.28983
 O1231 O 0.24346 0.23707 0.19981
 O1232 O 0.25459 0.26682 0.19732
 O1233 O 0.19986 0.24365 0.23619
 O1234 O 0.19827 0.25702 0.26608
 O1235 O 0.23664 0.20064 0.24346
 O1236 O 0.26569 0.19989 0.25715
 Zr1237 Zr 0.25585 0.22085 0.24094
 O1238 O 0.27274 0.23636 0.25703
 Zr1239 Zr 0.21977 0.24195 0.25572
 O1240 O 0.23520 0.25810 0.27260
 Zr1241 Zr 0.24075 0.25670 0.21968
 O1242 O 0.25704 0.27361 0.23492
 Zr1243 Zr 0.25879 0.24492 0.27967
 O1244 O 0.24229 0.22787 0.26456
 Zr1245 Zr 0.27975 0.25973 0.24353
 O1246 O 0.26438 0.24339 0.22656
 Zr1247 Zr 0.24380 0.28070 0.25859
 O1248 O 0.22657 0.26553 0.24221
 O1249 O 0.23272 0.23375 0.23274
 O1250 O 0.26706 0.26805 0.26678
 C1251 C 0.24809 0.22059 0.20030
 C1252 C 0.22037 0.20099 0.24885
 C1253 C 0.19999 0.24912 0.22000
 C1254 C 0.25302 0.28068 0.29922
 C1255 C 0.29917 0.25408 0.27980
 C1256 C 0.27991 0.30017 0.25218
 H1257 H 0.28329 0.22923 0.26038
 H1258 H 0.26023 0.28413 0.22770
 H1259 H 0.22508 0.22609 0.22525
 H1260 H 0.22817 0.26125 0.28330
 H1261 H 0.23776 0.22599 0.29918
 H1262 H 0.21138 0.23608 0.28859
 H1263 H 0.28623 0.27688 0.21433
 H1264 H 0.26631 0.26078 0.19706
 H1265 H 0.27321 0.22260 0.30195
 H1266 H 0.26471 0.18850 0.25056
 H1267 H 0.24008 0.30503 0.23436
 H1268 H 0.22385 0.28614 0.21498
 H1269 H 0.27833 0.19863 0.22599
 H1270 H 0.30455 0.23581 0.24028
 H1271 H 0.19728 0.26785 0.25865
 H1272 H 0.21530 0.28741 0.27708
 O1273 O 0.78460 0.71417 0.24883
 O1274 O 0.78658 0.73020 0.22101
 O1275 O 0.78513 0.75635 0.28793
 O1276 O 0.76895 0.78054 0.29448
 O1277 O 0.74365 0.71526 0.28992
 O1278 O 0.71729 0.71035 0.27253
 O1279 O 0.73540 0.80128 0.24219
 O1280 O 0.76341 0.80353 0.25491
 O1281 O 0.73918 0.76286 0.20178
 O1282 O 0.75192 0.73037 0.20246
 O1283 O 0.69775 0.75981 0.23922
 O1284 O 0.69592 0.74898 0.27062
 O1285 O 0.71089 0.78788 0.25405
 O1286 O 0.70530 0.77138 0.28140
 O1287 O 0.71123 0.74764 0.21495
 O1288 O 0.72693 0.72194 0.20917
 O1289 O 0.74979 0.78792 0.21497
 O1290 O 0.77872 0.78955 0.23053
 O1291 O 0.76005 0.70143 0.26138
 O1292 O 0.73012 0.69916 0.25049
 O1293 O 0.75649 0.73969 0.30229
 O1294 O 0.74378 0.76989 0.30298
 O1295 O 0.79782 0.74237 0.26412
 O1296 O 0.79848 0.75631 0.23484
 Zr1297 Zr 0.77713 0.74102 0.24541
 O1298 O 0.76174 0.75707 0.22836
 Zr1299 Zr 0.75782 0.75828 0.28141
 O1300 O 0.74155 0.77486 0.26575
 Zr1301 Zr 0.74103 0.72196 0.26279
 O1302 O 0.72422 0.73690 0.24612
 Zr1303 Zr 0.75424 0.78053 0.24151
 O1304 O 0.77141 0.76550 0.25801
 Zr1305 Zr 0.73777 0.74409 0.22267
 O1306 O 0.75382 0.72715 0.23839
 Zr1307 Zr 0.71821 0.76126 0.25844
 O1308 O 0.73347 0.74539 0.27609
 O1309 O 0.76473 0.73446 0.26936
 O1310 O 0.73046 0.76808 0.23448
 C1311 C 0.77604 0.70079 0.25523
 C1312 C 0.79851 0.74941 0.27969
 C1313 C 0.75013 0.72387 0.30319
 C1314 C 0.71918 0.80145 0.24777
 C1315 C 0.74425 0.77919 0.20140
 C1316 C 0.69760 0.75390 0.22315
 H1317 H 0.76871 0.75969 0.21748
 H1318 H 0.71340 0.72989 0.24353
 H1319 H 0.77238 0.72703 0.27708
 H1320 H 0.73892 0.78591 0.27240
 H1321 H 0.77458 0.80010 0.26101
 H1322 H 0.76474 0.79125 0.28812
 H1323 H 0.72055 0.71473 0.21815
 H1324 H 0.73612 0.69797 0.23878
 H1325 H 0.77673 0.80156 0.22544
 H1326 H 0.80972 0.74946 0.23593
 H1327 H 0.69298 0.73822 0.26366
 H1328 H 0.71192 0.71908 0.28083
 H1329 H 0.79861 0.72506 0.22288
 H1330 H 0.76069 0.73871 0.19726
 H1331 H 0.73277 0.76284 0.30466
 H1332 H 0.71317 0.78051 0.28667
 O1333 O 0.76406 0.19523 0.74058
 O1334 O 0.73542 0.19463 0.75576
 O1335 O 0.75758 0.23207 0.69825
 O1336 O 0.74802 0.26005 0.69457
 O1337 O 0.80139 0.23801 0.73477
 O1338 O 0.80364 0.24966 0.76427
 O1339 O 0.71267 0.28116 0.74534
 O1340 O 0.70907 0.26554 0.71941
 O1341 O 0.71583 0.24379 0.78685
 O1342 O 0.73480 0.21501 0.79005
 O1343 O 0.75379 0.28359 0.78380
 O1344 O 0.78049 0.28884 0.76579
 O1345 O 0.73734 0.29482 0.75644
 O1346 O 0.76821 0.29739 0.74371
 O1347 O 0.74439 0.25884 0.79843
 O1348 O 0.75438 0.22944 0.80164
 O1349 O 0.70142 0.25404 0.76227
 O1350 O 0.70008 0.23831 0.73326
 O1351 O 0.78855 0.20924 0.75169
 O1352 O 0.79396 0.22723 0.77755
 O1353 O 0.78706 0.24885 0.71041
 O1354 O 0.76880 0.27559 0.70665
 O1355 O 0.74725 0.20744 0.71265
 O1356 O 0.72011 0.20552 0.73002
 Zr1357 Zr 0.74482 0.21564 0.73933
 O1358 O 0.72815 0.23121 0.75573
 Zr1359 Zr 0.76030 0.25143 0.71836
 O1360 O 0.74400 0.26831 0.73373
 Zr1361 Zr 0.78115 0.23615 0.75416
 O1362 O 0.76598 0.25251 0.77115
 Zr1363 Zr 0.72120 0.25468 0.74240
 O1364 O 0.73645 0.23839 0.72516
 Zr1365 Zr 0.74227 0.23951 0.77831
 O1366 O 0.75847 0.22232 0.76290
 Zr1367 Zr 0.75736 0.27521 0.75728
 O1368 O 0.77457 0.25990 0.74090
 O1369 O 0.76812 0.22830 0.73116
 O1370 O 0.73405 0.26274 0.76564
 C1371 C 0.78020 0.19532 0.74630
 C1372 C 0.75213 0.21585 0.69855
 C1373 C 0.80112 0.24365 0.71863
 C1374 C 0.72103 0.29485 0.75124
 C1375 C 0.70184 0.24930 0.77870
 C1376 C 0.74893 0.27528 0.79794
 H1377 H 0.71742 0.22427 0.75892
 H1378 H 0.77321 0.25559 0.78168
 H1379 H 0.77565 0.22068 0.72345
 H1380 H 0.74072 0.27886 0.72661
 H1381 H 0.71163 0.25721 0.70950
 H1382 H 0.73761 0.26732 0.69805
 H1383 H 0.76673 0.23399 0.80189
 H1384 H 0.78583 0.21854 0.78322
 H1385 H 0.68881 0.24515 0.73430
 H1386 H 0.72201 0.19344 0.72505
 H1387 H 0.78611 0.28163 0.77525
 H1388 H 0.80380 0.26148 0.75847
 H1389 H 0.73633 0.18325 0.74915
 H1390 H 0.72283 0.21185 0.78557
 H1391 H 0.77828 0.28046 0.71439
 H1392 H 0.76044 0.30004 0.73342
 C1393 C 0.09417 1.01252 1.16440
 N1394 N 0.09802 0.99808 1.17453
 N1395 N 0.10573 0.99999 1.19040
 C1396 C 0.11012 1.01639 1.19667
 N1397 N 0.10636 1.03077 1.18635
 N1398 N 0.09844 1.02889 1.17062
 C1399 C 0.08523 1.01064 1.14714
 N1400 N 0.07609 1.02455 1.14013
 N1401 N 0.06777 1.02296 1.12457
 C1402 C 0.06851 1.00748 1.11530
 N1403 N 0.07777 0.99359 1.12223
 N1404 N 0.08589 0.99511 1.13793
 C1405 C 0.05916 1.00583 1.09823
 N1406 N 0.06412 0.99341 1.08605
 N1407 N 0.05559 0.99210 1.07055
 C1408 C 0.04165 1.00300 1.06680
 N1409 N 0.03666 1.01533 1.07903
 N1410 N 0.04533 1.01681 1.09440
 C1411 C 0.59193 0.50992 0.66564
 N1412 N 0.60057 0.49594 0.67315
 N1413 N 0.60869 0.49773 0.68883
 C1414 C 0.60862 0.51362 0.69746
 N1415 N 0.60001 0.52757 0.68987
 N1416 N 0.59175 0.52573 0.67432
 C1417 C 0.58280 0.50814 0.64846
 N1418 N 0.57069 0.52054 0.64338
 N1419 N 0.56234 0.51914 0.62782
 C1420 C 0.56594 0.50540 0.61666
 N1421 N 0.57812 0.49302 0.62167
 N1422 N 0.58635 0.49432 0.63734
 C1423 C 0.55656 0.50404 0.59957
 N1424 N 0.56273 0.49339 0.58629
 N1425 N 0.55415 0.49244 0.57078
 C1426 C 0.53900 0.50197 0.56809
 N1427 N 0.53283 0.51253 0.58141
 N1428 N 0.54149 0.51362 0.59681
 C1429 C 0.40940 -0.00944 0.66565
 N1430 N 0.41610 -0.00136 0.68035
 N1431 N 0.40804 -0.00312 0.69610
 C1432 C 0.39311 -0.01320 0.69775
 N1433 N 0.38646 -0.02127 0.68302
 N1434 N 0.39438 -0.01934 0.66726
 C1435 C 0.41836 -0.00790 0.64833
 N1436 N 0.40952 -0.01196 0.63312
 N1437 N 0.41770 -0.01099 0.61739
 C1438 C 0.43508 -0.00614 0.61631
 N1439 N 0.44395 -0.00211 0.63153
 N1440 N 0.43571 -0.00289 0.64725
 C1441 C 0.44412 -0.00546 0.59897
 N1442 N 0.46218 -0.00560 0.59791
 N1443 N 0.47033 -0.00527 0.58213
 C1444 C 0.46072 -0.00459 0.56685
 N1445 N 0.44266 -0.00434 0.56793
 N1446 N 0.43451 -0.00488 0.58370
 C1447 C -0.09148 0.49348 1.16612
 N1448 N -0.08456 0.50069 1.18117
 N1449 N -0.09267 0.49844 1.19683
 C1450 C -0.10787 0.48871 1.19802
 N1451 N -0.11477 0.48156 1.18294
 N1452 N -0.10680 0.48398 1.16728
 C1453 C -0.08231 0.49525 1.14894
 N1454 N -0.09113 0.49198 1.13353
 N1455 N -0.08269 0.49285 1.11793
 C1456 C -0.06506 0.49678 1.11720
 N1457 N -0.05622 0.50004 1.13261
 N1458 N -0.06472 0.49938 1.14820
 C1459 C -0.05566 0.49705 1.10005
 N1460 N -0.03763 0.49574 1.09937
 N1461 N -0.02914 0.49557 1.08377
 C1462 C -0.03835 0.49686 1.06829
 N1463 N -0.05638 0.49829 1.06897
 N1464 N -0.06489 0.49826 1.08456
 C1465 C -0.09610 0.50876 0.33886
 N1466 N -0.10831 0.52189 0.33678
 N1467 N -0.11621 0.52441 0.32114
 C1468 C -0.11243 0.51378 0.30696
 N1469 N -0.10039 0.50043 0.30921
 N1470 N -0.09228 0.49806 0.32480
 C1471 C -0.08669 0.50673 0.35582
 N1472 N -0.07037 0.49895 0.35638
 N1473 N -0.06141 0.49800 0.37164
 C1474 C -0.06853 0.50459 0.38692
 N1475 N -0.08494 0.51217 0.38640
 N1476 N -0.09380 0.51334 0.37109
 C1477 C -0.05847 0.50398 0.40362
 N1478 N -0.06697 0.50513 0.41955
 N1479 N -0.05778 0.50475 0.43471
 C1480 C -0.03973 0.50349 0.43444
 N1481 N -0.03123 0.50246 0.41849
 N1482 N -0.04044 0.50259 0.40336
 C1483 C 0.41036 1.01377 -0.16439
 N1484 N 0.39921 1.02770 -0.16706
 N1485 N 0.39102 1.02980 -0.18262
 C1486 C 0.39342 1.01793 -0.19609
 N1487 N 0.40448 1.00386 -0.19326
 N1488 N 0.41290 1.00190 -0.17778
 C1489 C 0.41965 1.01183 -0.14735
 N1490 N 0.43548 1.00314 -0.14640
 N1491 N 0.44417 1.00199 -0.13099
 C1492 C 0.43722 1.00927 -0.11595
 N1493 N 0.42130 1.01779 -0.11687
 N1494 N 0.41274 1.01917 -0.13232
 C1495 C 0.44684 1.00820 -0.09902
 N1496 N 0.43792 1.00938 -0.08331
 N1497 N 0.44665 1.00850 -0.06791
 C1498 C 0.46465 1.00671 -0.06768
 N1499 N 0.47358 1.00566 -0.08339
 N1500 N 0.46482 1.00627 -0.09879
 C1501 C 0.59223 0.48570 -0.16510
 N1502 N 0.59311 0.46957 -0.17312
 N1503 N 0.60167 0.46759 -0.18853
 C1504 C 0.60951 0.48169 -0.19665
 N1505 N 0.60850 0.49790 -0.18870
 N1506 N 0.60010 0.49985 -0.17315
 C1507 C 0.58287 0.48761 -0.14802
 N1508 N 0.58567 0.50195 -0.13739
 N1509 N 0.57739 0.50331 -0.12171
 C1510 C 0.56590 0.49048 -0.11620
 N1511 N 0.56303 0.47624 -0.12690
 N1512 N 0.57144 0.47478 -0.14246
 C1513 C 0.55669 0.49186 -0.09899
 N1514 N 0.54220 0.48161 -0.09556
 N1515 N 0.53378 0.48275 -0.07998
 C1516 C 0.53965 0.49402 -0.06716
 N1517 N 0.55420 0.50421 -0.07054
 N1518 N 0.56253 0.50321 -0.08622
 C1519 C 0.08746 -0.01286 0.33200
 N1520 N 0.08695 -0.02862 0.32321
 N1521 N 0.09553 -0.03066 0.30781
 C1522 C 0.10479 -0.01699 0.30047
 N1523 N 0.10515 -0.00115 0.30918
 N1524 N 0.09671 0.00085 0.32470
 C1525 C 0.07831 -0.01090 0.34920
 N1526 N 0.08215 0.00286 0.36026
 N1527 N 0.07411 0.00428 0.37605
 C1528 C 0.06184 -0.00792 0.38128
 N1529 N 0.05793 -0.02160 0.37016
 N1530 N 0.06608 -0.02311 0.35447
 C1531 C 0.05291 -0.00648 0.39865
 N1532 N 0.03807 -0.01619 0.40213
 N1533 N 0.02991 -0.01497 0.41785
 C1534 C 0.03639 -0.00415 0.43076
 N1535 N 0.05130 0.00550 0.42733
 N1536 N 0.05938 0.00441 0.41153
 C1537 C 0.16649 1.08936 1.01135
 N1538 N 0.17990 1.08685 0.99944
 N1539 N 0.19553 1.09497 1.00158
 C1540 C 0.19848 1.10568 1.01588
 N1541 N 0.18499 1.10806 1.02777
 N1542 N 0.16929 1.10019 1.02549
 C1543 C 0.14930 1.08035 1.00927
 N1544 N 0.13435 1.08734 1.01671
 N1545 N 0.11878 1.07897 1.01533
 C1546 C 0.11767 1.06315 1.00671
 N1547 N 0.13263 1.05611 0.99932
 N1548 N 0.14815 1.06463 1.00046
 C1549 C 0.10063 1.05366 1.00577
 N1550 N 0.10027 1.03571 1.00387
 N1551 N 0.08480 1.02704 1.00346
 C1552 C 0.06914 1.03603 1.00468
 N1553 N 0.06950 1.05399 1.00642
 N1554 N 0.08498 1.06263 1.00711
 C1555 C 0.66409 0.58959 0.51068
 N1556 N 0.66550 0.60439 0.52090
 N1557 N 0.68123 0.61220 0.52324
 C1558 C 0.69612 0.60565 0.51527
 N1559 N 0.69467 0.59097 0.50482
 N1560 N 0.67895 0.58302 0.50266
 C1561 C 0.64686 0.58056 0.50894
 N1562 N 0.64603 0.56330 0.50372
 N1563 N 0.63043 0.55490 0.50299
 C1564 C 0.61509 0.56350 0.50729
 N1565 N 0.61591 0.58081 0.51233
 N1566 N 0.63153 0.58915 0.51325
 C1567 C 0.59794 0.55416 0.50682
 N1568 N 0.58239 0.56339 0.50665
 N1569 N 0.56682 0.55489 0.50627
 C1570 C 0.56626 0.53685 0.50631
 N1571 N 0.58181 0.52762 0.50659
 N1572 N 0.59737 0.53612 0.50676
 C1573 C 0.66579 0.40761 -0.01499
 N1574 N 0.67598 0.40380 -0.00058
 N1575 N 0.69165 0.39564 -0.00253
 C1576 C 0.69765 0.39074 -0.01893
 N1577 N 0.68728 0.39449 -0.03328
 N1578 N 0.67175 0.40285 -0.03137
 C1579 C 0.64869 0.41692 -0.01306
 N1580 N 0.64157 0.42575 -0.02711
 N1581 N 0.62609 0.43427 -0.02550
 C1582 C 0.61702 0.43408 -0.00984
 N1583 N 0.62407 0.42515 0.00420
 N1584 N 0.63969 0.41681 0.00265
 C1585 C 0.59995 0.44349 -0.00820
 N1586 N 0.58803 0.43903 0.00468
 N1587 N 0.57248 0.44753 0.00596
 C1588 C 0.56840 0.46094 -0.00544
 N1589 N 0.58038 0.46545 -0.01823
 N1590 N 0.59581 0.45681 -0.01967
 C1591 C 0.16462 -0.08890 0.48340
 N1592 N 0.17216 -0.09736 0.49747
 N1593 N 0.18781 -0.10560 0.49569
 C1594 C 0.19640 -0.10583 0.47974
 N1595 N 0.18879 -0.09738 0.46569
 N1596 N 0.17326 -0.08901 0.46751
 C1597 C 0.14738 -0.07981 0.48519
 N1598 N 0.14193 -0.06816 0.47252
 N1599 N 0.12628 -0.05993 0.47398
 C1600 C 0.11540 -0.06318 0.48807
 N1601 N 0.12080 -0.07489 0.50073
 N1602 N 0.13656 -0.08300 0.49935
 C1603 C 0.09815 -0.05407 0.48956
 N1604 N 0.08545 -0.05994 0.50105
 N1605 N 0.06980 -0.05162 0.50228
 C1606 C 0.06635 -0.03705 0.49217
 N1607 N 0.07908 -0.03116 0.48074
 N1608 N 0.09465 -0.03957 0.47938
 C1609 C 0.33276 -0.09245 0.51024
 N1610 N 0.32633 -0.09646 0.52663
 N1611 N 0.31059 -0.10437 0.52850
 C1612 C 0.30045 -0.10840 0.51408
 N1613 N 0.30692 -0.10429 0.49763
 N1614 N 0.32281 -0.09657 0.49574
 C1615 C 0.35000 -0.08344 0.50845
 N1616 N 0.35946 -0.08414 0.49301
 N1617 N 0.37517 -0.07597 0.49165
 C1618 C 0.38185 -0.06664 0.50561
 N1619 N 0.37234 -0.06589 0.52098
 N1620 N 0.35677 -0.07424 0.52241
 C1621 C 0.39891 -0.05722 0.50422
 N1622 N 0.40248 -0.04351 0.51538
 N1623 N 0.41788 -0.03482 0.51429
 C1624 C 0.43041 -0.03967 0.50217
 N1625 N 0.42692 -0.05348 0.49105
 N1626 N 0.41138 -0.06204 0.49198
 C1627 C -0.16714 0.41143 1.00960
 N1628 N -0.17603 0.41215 1.02533
 N1629 N -0.19142 0.40362 1.02744
 C1630 C -0.19864 0.39419 1.01384
 N1631 N -0.18983 0.39362 0.99801
 N1632 N -0.17431 0.40201 0.99595
 C1633 C -0.14999 0.42062 1.00762
 N1634 N -0.13865 0.41660 0.99407
 N1635 N -0.12290 0.42470 0.99274
 C1636 C -0.11802 0.43722 1.00482
 N1637 N -0.12942 0.44130 1.01827
 N1638 N -0.14506 0.43309 1.01969
 C1639 C -0.10070 0.44623 1.00361
 N1640 N -0.09770 0.46117 1.01326
 N1641 N -0.08199 0.46933 1.01253
 C1642 C -0.06861 0.46278 1.00225
 N1643 N -0.07156 0.44779 0.99261
 N1644 N -0.08737 0.43969 0.99321
 C1645 C -0.16325 0.59403 0.49195
 N1646 N -0.17707 0.59010 0.50294
 N1647 N -0.19276 0.59819 0.50101
 C1648 C -0.19534 0.61035 0.48784
 N1649 N -0.18140 0.61423 0.47691
 N1650 N -0.16566 0.60634 0.47899
 C1651 C -0.14611 0.58479 0.49363
 N1652 N -0.13106 0.59202 0.48665
 N1653 N -0.11557 0.58342 0.48768
 C1654 C -0.11462 0.56717 0.49547
 N1655 N -0.12968 0.55992 0.50241
 N1656 N -0.14513 0.56862 0.50160
 C1657 C -0.09765 0.55749 0.49611
 N1658 N -0.09739 0.53956 0.49813
 N1659 N -0.08199 0.53074 0.49838
 C1660 C -0.06629 0.53956 0.49683
 N1661 N -0.06654 0.55751 0.49493
 N1662 N -0.08196 0.56630 0.49444
 C1663 C 0.33740 1.09215 -0.01117
 N1664 N 0.32648 1.09433 0.00311
 N1665 N 0.31056 1.10204 0.00124
 C1666 C 0.30507 1.10808 -0.01493
 N1667 N 0.31620 1.10599 -0.02909
 N1668 N 0.33195 1.09808 -0.02729
 C1669 C 0.35466 1.08314 -0.00958
 N1670 N 0.36202 1.07518 -0.02405
 N1671 N 0.37769 1.06699 -0.02290
 C1672 C 0.38675 1.06671 -0.00731
 N1673 N 0.37947 1.07478 0.00719
 N1674 N 0.36363 1.08276 0.00610
 C1675 C 0.40400 1.05760 -0.00626
 N1676 N 0.41624 1.06219 0.00620
 N1677 N 0.43198 1.05396 0.00683
 C1678 C 0.43590 1.04071 -0.00484
 N1679 N 0.42361 1.03607 -0.01720
 N1680 N 0.40801 1.04446 -0.01800
 C1681 C 0.01203 1.16274 1.09108
 N1682 N 0.02815 1.16822 1.09696
 N1683 N 0.02992 1.18389 1.10496
 C1684 C 0.01572 1.19490 1.10721
 N1685 N -0.00047 1.18937 1.10123
 N1686 N -0.00231 1.17354 1.09343
 C1687 C 0.01047 1.14557 1.08195
 N1688 N -0.00518 1.13653 1.08160
 N1689 N -0.00622 1.12077 1.07351
 C1690 C 0.00828 1.11366 1.06530
 N1691 N 0.02385 1.12278 1.06555
 N1692 N 0.02496 1.13838 1.07384
 C1693 C 0.00729 1.09648 1.05612
 N1694 N 0.01903 1.09258 1.04291
 N1695 N 0.01830 1.07703 1.03448
 C1696 C 0.00598 1.06468 1.03916
 N1697 N -0.00569 1.06849 1.05248
 N1698 N -0.00512 1.08418 1.06075
 C1699 C 0.50718 0.66196 0.59638
 N1700 N 0.50000 0.67693 0.58927
 N1701 N 0.50217 0.69262 0.59721
 C1702 C 0.51177 0.69397 0.61246
 N1703 N 0.51888 0.67896 0.61959
 N1704 N 0.51654 0.66324 0.61176
 C1705 C 0.50557 0.64482 0.58717
 N1706 N 0.50939 0.62937 0.59572
 N1707 N 0.50854 0.61388 0.58714
 C1708 C 0.50404 0.61331 0.56965
 N1709 N 0.50023 0.62875 0.56111
 N1710 N 0.50090 0.64422 0.56973
 C1711 C 0.50366 0.59634 0.55999
 N1712 N 0.50389 0.59614 0.54192
 N1713 N 0.50373 0.58080 0.53306
 C1714 C 0.50317 0.56509 0.54194
 N1715 N 0.50285 0.56528 0.56003
 N1716 N 0.50321 0.58063 0.56889
 C1717 C -0.01090 0.66413 0.40660
 N1718 N 0.00336 0.67221 0.39890
 N1719 N 0.00155 0.68797 0.39093
 C1720 C -0.01463 0.69608 0.39020
 N1721 N -0.02883 0.68793 0.39789
 N1722 N -0.02698 0.67233 0.40601
 C1723 C -0.00923 0.64690 0.41562
 N1724 N -0.02212 0.64153 0.42710
 N1725 N -0.02095 0.62589 0.43529
 C1726 C -0.00695 0.61490 0.43212
 N1727 N 0.00595 0.62020 0.42055
 N1728 N 0.00487 0.63598 0.41249
 C1729 C -0.00584 0.59775 0.44138
 N1730 N 0.00500 0.58455 0.43540
 N1731 N 0.00578 0.56902 0.44395
 C1732 C -0.00414 0.56623 0.45885
 N1733 N -0.01491 0.57946 0.46482
 N1734 N -0.01584 0.59488 0.45618
 C1735 C 0.48927 1.16517 -0.09402
 N1736 N 0.50351 1.17597 -0.09671
 N1737 N 0.50149 1.19172 -0.10462
 C1738 C 0.48520 1.19718 -0.11038
 N1739 N 0.47106 1.18617 -0.10781
 N1740 N 0.47302 1.17057 -0.09969
 C1741 C 0.49115 1.14811 -0.08475
 N1742 N 0.47691 1.14081 -0.07634
 N1743 N 0.47844 1.12540 -0.06776
 C1744 C 0.49421 1.11657 -0.06751
 N1745 N 0.50846 1.12379 -0.07604
 N1746 N 0.50699 1.13936 -0.08441
 C1747 C 0.49575 1.09963 -0.05798
 N1748 N 0.50845 1.08755 -0.06249
 N1749 N 0.50959 1.07209 -0.05388
 C1750 C 0.49822 1.06828 -0.04031
 N1751 N 0.48561 1.08041 -0.03574
 N1752 N 0.48431 1.09574 -0.04451
 C1753 C 0.51410 0.33326 -0.08863
 N1754 N 0.49959 0.32339 -0.09293
 N1755 N 0.50148 0.30781 -0.10122
 C1756 C 0.51792 0.30161 -0.10578
 N1757 N 0.53235 0.31165 -0.10150
 N1758 N 0.53049 0.32706 -0.09301
 C1759 C 0.51228 0.35034 -0.07936
 N1760 N 0.52624 0.35708 -0.07012
 N1761 N 0.52486 0.37267 -0.06183
 C1762 C 0.50954 0.38223 -0.06269
 N1763 N 0.49558 0.37555 -0.07201
 N1764 N 0.49689 0.35982 -0.08012
 C1765 C 0.50823 0.39948 -0.05366
 N1766 N 0.49602 0.41177 -0.05882
 N1767 N 0.49511 0.42753 -0.05072
 C1768 C 0.50623 0.43145 -0.03704
 N1769 N 0.51835 0.41911 -0.03182
 N1770 N 0.51942 0.40347 -0.04007
 C1771 C 0.01023 -0.16515 0.41011
 N1772 N -0.00382 -0.17303 0.40191
 N1773 N -0.00177 -0.18854 0.39350
 C1774 C 0.01445 -0.19658 0.39283
 N1775 N 0.02843 -0.18864 0.40103
 N1776 N 0.02635 -0.17329 0.40958
 C1777 C 0.00833 -0.14804 0.41932
 N1778 N 0.02107 -0.14264 0.43090
 N1779 N 0.01978 -0.12699 0.43906
 C1780 C 0.00580 -0.11603 0.43579
 N1781 N -0.00696 -0.12138 0.42417
 N1782 N -0.00576 -0.13715 0.41613
 C1783 C 0.00470 -0.09870 0.44472
 N1784 N -0.00633 -0.08574 0.43864
 N1785 N -0.00699 -0.06996 0.44671
 C1786 C 0.00324 -0.06664 0.46123
 N1787 N 0.01419 -0.07964 0.46733
 N1788 N 0.01499 -0.09533 0.45916
 C1789 C 0.49177 -0.16661 0.58609
 N1790 N 0.47571 -0.17483 0.58642
 N1791 N 0.47344 -0.18982 0.59553
 C1792 C 0.48719 -0.19732 0.60451
 N1793 N 0.50338 -0.18924 0.60403
 N1794 N 0.50560 -0.17407 0.59506
 C1795 C 0.49378 -0.14981 0.57635
 N1796 N 0.50743 -0.13850 0.57984
 N1797 N 0.50852 -0.12287 0.57148
 C1798 C 0.49609 -0.11812 0.55924
 N1799 N 0.48258 -0.12953 0.55566
 N1800 N 0.48139 -0.14503 0.56413
 C1801 C 0.49682 -0.10083 0.55020
 N1802 N 0.48667 -0.09788 0.53558
 N1803 N 0.48680 -0.08211 0.52754
 C1804 C 0.49693 -0.06862 0.53393
 N1805 N 0.50709 -0.07155 0.54859
 N1806 N 0.50709 -0.08740 0.55655
 C1807 C -0.01079 0.33281 1.08755
 N1808 N 0.00347 0.32214 1.09067
 N1809 N 0.00138 0.30654 1.09889
 C1810 C -0.01500 0.30117 1.10456
 N1811 N -0.02915 0.31204 1.10149
 N1812 N -0.02712 0.32745 1.09306
 C1813 C -0.00892 0.34982 1.07820
 N1814 N -0.02305 0.35676 1.06935
 N1815 N -0.02174 0.37236 1.06111
 C1816 C -0.00634 0.38176 1.06165
 N1817 N 0.00781 0.37488 1.07057
 N1818 N 0.00658 0.35911 1.07861
 C1819 C -0.00524 0.39910 1.05281
 N1820 N 0.00661 0.41158 1.05827
 N1821 N 0.00710 0.42751 1.05049
 C1822 C -0.00408 0.43142 1.03684
 N1823 N -0.01581 0.41887 1.03131
 N1824 N -0.01648 0.40306 1.03925
 C1825 C 0.75511 0.34526 0.08544
 N1826 N 0.74462 0.34114 0.07133
 N1827 N 0.74726 0.34887 0.05556
 C1828 C 0.76068 0.36081 0.05320
 N1829 N 0.77108 0.36489 0.06743
 N1830 N 0.76828 0.35737 0.08323
 C1831 C 0.75286 0.33630 0.10265
 N1832 N 0.75938 0.34378 0.11774
 N1833 N 0.75821 0.33532 0.13327
 C1834 C 0.75072 0.31893 0.13424
 N1835 N 0.74420 0.31142 0.11916
 N1836 N 0.74515 0.32000 0.10365
 C1837 C 0.75028 0.30927 0.15122
 N1838 N 0.74889 0.29128 0.15149
 N1839 N 0.74914 0.28246 0.16687
 C1840 C 0.75059 0.29133 0.18255
 N1841 N 0.75182 0.30933 0.18229
 N1842 N 0.75180 0.31813 0.16689
 C1843 C 0.25141 0.84609 0.58537
 N1844 N 0.24494 0.83855 0.57028
 N1845 N 0.24764 0.84618 0.55448
 C1846 C 0.25707 0.86154 0.55317
 N1847 N 0.26339 0.86913 0.56830
 N1848 N 0.26053 0.86161 0.58411
 C1849 C 0.24967 0.83708 0.60263
 N1850 N 0.25304 0.84593 0.61802
 N1851 N 0.25253 0.83749 0.63361
 C1852 C 0.24885 0.81984 0.63436
 N1853 N 0.24544 0.81100 0.61897
 N1854 N 0.24577 0.81947 0.60340
 C1855 C 0.24920 0.81030 0.65141
 N1856 N 0.25051 0.79231 0.65173
 N1857 N 0.25126 0.78361 0.66716
 C1858 C 0.25057 0.79256 0.68284
 N1859 N 0.24915 0.81056 0.68254
 N1860 N 0.24859 0.81928 0.66710
 C1861 C 0.74153 0.65399 0.58837
 N1862 N 0.74962 0.66047 0.57353
 N1863 N 0.74735 0.65257 0.55782
 C1864 C 0.73674 0.63803 0.55631
 N1865 N 0.72869 0.63156 0.57118
 N1866 N 0.73111 0.63933 0.58692
 C1867 C 0.74346 0.66305 0.60557
 N1868 N 0.73897 0.65470 0.62097
 N1869 N 0.74016 0.66314 0.63652
 C1870 C 0.74568 0.68031 0.63721
 N1871 N 0.75016 0.68866 0.62181
 N1872 N 0.74916 0.68016 0.60628
 C1873 C 0.74633 0.68988 0.65423
 N1874 N 0.74674 0.70792 0.65449
 N1875 N 0.74696 0.71670 0.66988
 C1876 C 0.74695 0.70778 0.68559
 N1877 N 0.74667 0.68972 0.68535
 N1878 N 0.74625 0.68093 0.66994
 C1879 C 0.24386 0.15615 0.08664
 N1880 N 0.25136 0.16267 0.07151
 N1881 N 0.24896 0.15446 0.05596
 C1882 C 0.23879 0.13956 0.05495
 N1883 N 0.23135 0.13305 0.07011
 N1884 N 0.23391 0.14113 0.08566
 C1885 C 0.24583 0.16547 0.10369
 N1886 N 0.24177 0.15714 0.11921
 N1887 N 0.24284 0.16576 0.13466
 C1888 C 0.24780 0.18310 0.13513
 N1889 N 0.25188 0.19144 0.11961
 N1890 N 0.25099 0.18275 0.10417
 C1891 C 0.24824 0.19280 0.15209
 N1892 N 0.24834 0.21084 0.15229
 N1893 N 0.24824 0.21968 0.16766
 C1894 C 0.24819 0.21079 0.18340
 N1895 N 0.24822 0.19274 0.18321
 N1896 N 0.24813 0.18390 0.16782
 C1897 C 0.25885 0.15964 0.91598
 N1898 N 0.24525 0.15037 0.92355
 N1899 N 0.24771 0.14161 0.93881
 C1900 C 0.26390 0.14164 0.94688
 N1901 N 0.27742 0.15090 0.93925
 N1902 N 0.27492 0.15980 0.92417
 C1903 C 0.25655 0.16933 0.89919
 N1904 N 0.26853 0.18198 0.89446
 N1905 N 0.26702 0.19055 0.87904
 C1906 C 0.25360 0.18665 0.86765
 N1907 N 0.24158 0.17396 0.87233
 N1908 N 0.24299 0.16550 0.88788
 C1909 C 0.25241 0.19598 0.85053
 N1910 N 0.24240 0.18945 0.83698
 N1911 N 0.24189 0.19781 0.82132
 C1912 C 0.25126 0.21305 0.81873
 N1913 N 0.26115 0.21959 0.83233
 N1914 N 0.26180 0.21116 0.84789
 C1915 C 0.75948 0.66365 0.41893
 N1916 N 0.74599 0.65411 0.42629
 N1917 N 0.74839 0.64538 0.44156
 C1918 C 0.76444 0.64573 0.44991
 N1919 N 0.77788 0.65530 0.44251
 N1920 N 0.77542 0.66416 0.42738
 C1921 C 0.75717 0.67304 0.40195
 N1922 N 0.76915 0.68556 0.39685
 N1923 N 0.76750 0.69382 0.38126
 C1924 C 0.75392 0.68975 0.37010
 N1925 N 0.74192 0.67720 0.37517
 N1926 N 0.74348 0.66905 0.39086
 C1927 C 0.75251 0.69868 0.35278
 N1928 N 0.74199 0.69204 0.33967
 N1929 N 0.74121 0.70001 0.32383
 C1930 C 0.75080 0.71499 0.32059
 N1931 N 0.76120 0.72166 0.33374
 N1932 N 0.76212 0.71361 0.34950
 C1933 C 0.24376 0.84427 0.40913
 N1934 N 0.23462 0.85981 0.41013
 N1935 N 0.23201 0.86777 0.42577
 C1936 C 0.23862 0.86060 0.44099
 N1937 N 0.24804 0.84520 0.43994
 N1938 N 0.25048 0.83714 0.42431
 C1939 C 0.24545 0.83491 0.39205
 N1940 N 0.24982 0.81740 0.39157
 N1941 N 0.25034 0.80866 0.37613
 C1942 C 0.24665 0.81715 0.36062
 N1943 N 0.24248 0.83471 0.36108
 N1944 N 0.24179 0.84340 0.37653
 C1945 C 0.24676 0.80739 0.34368
 N1946 N 0.24695 0.81621 0.32791
 N1947 N 0.24695 0.80730 0.31256
 C1948 C 0.24653 0.78925 0.31244
 N1949 N 0.24623 0.78045 0.32822
 N1950 N 0.24641 0.78934 0.34355
 C1951 C 0.74498 0.34118 0.91087
 N1952 N 0.75178 0.33435 0.92616
 N1953 N 0.74924 0.34263 0.94166
 C1954 C 0.73964 0.35793 0.94247
 N1955 N 0.73294 0.36478 0.92715
 N1956 N 0.73565 0.35662 0.91164
 C1957 C 0.74683 0.33161 0.89392
 N1958 N 0.74323 0.33990 0.87828
 N1959 N 0.74411 0.33103 0.86294
 C1960 C 0.74841 0.31350 0.86271
 N1961 N 0.75202 0.30521 0.87835
 N1962 N 0.75132 0.31412 0.89368
 C1963 C 0.74872 0.30358 0.84587
 N1964 N 0.74840 0.28553 0.84587
 N1965 N 0.74833 0.27653 0.83059
 C1966 C 0.74874 0.28524 0.81476
 N1967 N 0.74916 0.30329 0.81476
 N1968 N 0.74904 0.31230 0.83004
 C1969 C 0.84209 0.41586 0.24221
 N1970 N 0.85693 0.41720 0.23194
 N1971 N 0.86494 0.43283 0.22969
 C1972 C 0.85855 0.44768 0.23779
 N1973 N 0.84381 0.44629 0.24824
 N1974 N 0.83567 0.43068 0.25032
 C1975 C 0.83289 0.39875 0.24405
 N1976 N 0.81565 0.39810 0.24952
 N1977 N 0.80710 0.38261 0.25051
 C1978 C 0.81553 0.36721 0.24624
 N1979 N 0.83282 0.36784 0.24093
 N1980 N 0.84132 0.38334 0.23976
 C1981 C 0.80599 0.35020 0.24691
 N1982 N 0.81508 0.33457 0.24703
 N1983 N 0.80639 0.31914 0.24736
 C1984 C 0.78830 0.31877 0.24736
 N1985 N 0.77922 0.33439 0.24717
 N1986 N 0.78791 0.34983 0.24704
 C1987 C 0.34239 0.91634 0.74467
 N1988 N 0.35746 0.91719 0.73469
 N1989 N 0.36560 0.93268 0.73196
 C1990 C 0.35911 0.94788 0.73928
 N1991 N 0.34415 0.94700 0.74947
 N1992 N 0.33587 0.93152 0.75203
 C1993 C 0.33303 0.89935 0.74685
 N1994 N 0.31563 0.89894 0.75185
 N1995 N 0.30694 0.88353 0.75292
 C1996 C 0.31539 0.86797 0.74922
 N1997 N 0.33283 0.86838 0.74442
 N1998 N 0.34146 0.88380 0.74316
 C1999 C 0.30572 0.85103 0.74981
 N2000 N 0.31473 0.83537 0.75013
 N2001 N 0.30599 0.81996 0.75019
 C2002 C 0.28791 0.81965 0.74971
 N2003 N 0.27889 0.83531 0.74936
 N2004 N 0.28764 0.85072 0.74950
 C2005 C 0.15445 0.91190 0.25416
 N2006 N 0.15863 0.92608 0.24377
 N2007 N 0.15079 0.94178 0.24644
 C2008 C 0.13869 0.94401 0.25978
 N2009 N 0.13455 0.92971 0.27007
 N2010 N 0.14217 0.91397 0.26726
 C2011 C 0.16355 0.89476 0.25188
 N2012 N 0.15612 0.87961 0.25833
 N2013 N 0.16471 0.86414 0.25708
 C2014 C 0.18116 0.86331 0.24958
 N2015 N 0.18860 0.87846 0.24313
 N2016 N 0.17991 0.89390 0.24417
 C2017 C 0.19095 0.84642 0.24897
 N2018 N 0.20898 0.84628 0.24750
 N2019 N 0.21793 0.83098 0.24746
 C2020 C 0.20916 0.81524 0.24870
 N2021 N 0.19112 0.81536 0.25004
 N2022 N 0.18218 0.83068 0.25031
 C2023 C 0.66120 0.41091 0.75867
 N2024 N 0.66115 0.41916 0.77472
 N2025 N 0.65294 0.43468 0.77688
 C2026 C 0.64462 0.44272 0.76302
 N2027 N 0.64482 0.43459 0.74684
 N2028 N 0.65289 0.41890 0.74473
 C2029 C 0.67011 0.39363 0.75677
 N2030 N 0.66632 0.38250 0.74304
 N2031 N 0.67412 0.36658 0.74193
 C2032 C 0.68608 0.36133 0.75444
 N2033 N 0.68992 0.37253 0.76805
 N2034 N 0.68200 0.38831 0.76926
 C2035 C 0.69493 0.34394 0.75343
 N2036 N 0.70982 0.34089 0.76316
 N2037 N 0.71803 0.32522 0.76244
 C2038 C 0.71153 0.31190 0.75215
 N2039 N 0.69654 0.31487 0.74249
 N2040 N 0.68842 0.33066 0.74306
 C2041 C 0.65732 0.58446 0.74601
 N2042 N 0.64225 0.58346 0.73612
 N2043 N 0.63452 0.56782 0.73303
 C2044 C 0.64146 0.55261 0.73988
 N2045 N 0.65640 0.55365 0.74999
 N2046 N 0.66425 0.56927 0.75291
 C2047 C 0.66641 0.60157 0.74847
 N2048 N 0.68377 0.60209 0.75346
 N2049 N 0.69230 0.61757 0.75477
 C2050 C 0.68374 0.63309 0.75132
 N2051 N 0.66631 0.63259 0.74654
 N2052 N 0.65783 0.61710 0.74503
 C2053 C 0.69336 0.65008 0.75208
 N2054 N 0.68437 0.66575 0.75269
 N2055 N 0.69315 0.68115 0.75288
 C2056 C 0.71124 0.68142 0.75225
 N2057 N 0.72021 0.66575 0.75160
 N2058 N 0.71143 0.65036 0.75162
 C2059 C 0.15664 0.08700 0.24583
 N2060 N 0.14134 0.08600 0.23630
 N2061 N 0.13363 0.07035 0.23329
 C2062 C 0.14078 0.05512 0.23987
 N2063 N 0.15593 0.05616 0.24967
 N2064 N 0.16377 0.07180 0.25252
 C2065 C 0.16580 0.10412 0.24795
 N2066 N 0.18330 0.10469 0.25242
 N2067 N 0.19189 0.12018 0.25323
 C2068 C 0.18324 0.13566 0.24975
 N2069 N 0.16569 0.13510 0.24549
 N2070 N 0.15715 0.11960 0.24450
 C2071 C 0.19287 0.15265 0.24996
 N2072 N 0.18385 0.16832 0.25038
 N2073 N 0.19261 0.18373 0.25018
 C2074 C 0.21068 0.18403 0.24934
 N2075 N 0.21968 0.16837 0.24887
 N2076 N 0.21094 0.15296 0.24925
 C2077 C 0.34118 0.08755 0.75865
 N2078 N 0.33453 0.07226 0.75170
 N2079 N 0.34295 0.05683 0.75416
 C2080 C 0.35820 0.05612 0.76385
 N2081 N 0.36482 0.07143 0.77076
 N2082 N 0.35653 0.08686 0.76812
 C2083 C 0.33174 0.10450 0.75652
 N2084 N 0.34027 0.12010 0.75963
 N2085 N 0.33161 0.13551 0.75839
 C2086 C 0.31404 0.13588 0.75420
 N2087 N 0.30548 0.12029 0.75109
 N2088 N 0.31420 0.10487 0.75214
 C2089 C 0.30440 0.15286 0.75353
 N2090 N 0.28633 0.15326 0.75444
 N2091 N 0.27763 0.16871 0.75439
 C2092 C 0.28667 0.18431 0.75328
 N2093 N 0.30472 0.18389 0.75223
 N2094 N 0.31343 0.16845 0.75247
 C2095 C 0.83579 0.58477 0.26335
 N2096 N 0.84520 0.57752 0.24968
 N2097 N 0.85361 0.56202 0.25175
 C2098 C 0.85306 0.55334 0.26762
 N2099 N 0.84362 0.56064 0.28123
 N2100 N 0.83508 0.57600 0.27911
 C2101 C 0.82669 0.60194 0.26140
 N2102 N 0.81427 0.60703 0.27354
 N2103 N 0.80621 0.62273 0.27218
 C2104 C 0.81040 0.63404 0.25874
 N2105 N 0.82287 0.62901 0.24659
 N2106 N 0.83083 0.61319 0.24786
 C2107 C 0.80155 0.65141 0.25756
 N2108 N 0.80821 0.66457 0.24710
 N2109 N 0.80019 0.68040 0.24640
 C2110 C 0.78516 0.68354 0.25602
 N2111 N 0.77849 0.67034 0.26638
 N2112 N 0.78658 0.65461 0.26721
 C2113 C 0.91450 0.25775 0.15666
 N2114 N 0.92207 0.24376 0.14800
 N2115 N 0.93760 0.24568 0.13949
 C2116 C 0.94594 0.26172 0.13917
 N2117 N 0.93831 0.27562 0.14783
 N2118 N 0.92297 0.27366 0.15648
 C2119 C 0.89745 0.25607 0.16610
 N2120 N 0.89274 0.26851 0.17832
 N2121 N 0.87713 0.26758 0.18669
 C2122 C 0.86551 0.25429 0.18300
 N2123 N 0.87016 0.24182 0.17073
 N2124 N 0.88591 0.24265 0.16248
 C2125 C 0.84826 0.25369 0.19224
 N2126 N 0.83452 0.24381 0.18590
 N2127 N 0.81881 0.24378 0.19428
 C2128 C 0.81637 0.25351 0.20934
 N2129 N 0.83015 0.26328 0.21567
 N2130 N 0.84575 0.26346 0.20722
 C2131 C 0.41481 0.76230 0.65831
 N2132 N 0.42306 0.77830 0.65724
 N2133 N 0.43855 0.77991 0.64874
 C2134 C 0.44653 0.76556 0.64118
 N2135 N 0.43834 0.74949 0.64237
 N2136 N 0.42270 0.74791 0.65069
 C2137 C 0.39766 0.76077 0.66764
 N2138 N 0.38656 0.74687 0.66455
 N2139 N 0.37084 0.74586 0.67281
 C2140 C 0.36578 0.75862 0.68460
 N2141 N 0.37695 0.77243 0.68776
 N2142 N 0.39254 0.77354 0.67935
 C2143 C 0.34854 0.75763 0.69382
 N2144 N 0.34571 0.76723 0.70888
 N2145 N 0.33009 0.76650 0.71730
 C2146 C 0.31664 0.75634 0.71085
 N2147 N 0.31942 0.74681 0.69573
 N2148 N 0.33513 0.74737 0.68741
 C2149 C 0.41511 0.24339 0.83959
 N2150 N 0.42348 0.22743 0.83897
 N2151 N 0.43886 0.22496 0.84735
 C2152 C 0.44663 0.23840 0.85653
 N2153 N 0.43839 0.25451 0.85700
 N2154 N 0.42283 0.25693 0.84875
 C2155 C 0.39796 0.24558 0.83049
 N2156 N 0.38656 0.25898 0.83478
 N2157 N 0.37069 0.26020 0.82688
 C2158 C 0.36577 0.24816 0.81432
 N2159 N 0.37725 0.23491 0.80997
 N2160 N 0.39298 0.23358 0.81798
 C2161 C 0.34835 0.24912 0.80552
 N2162 N 0.34544 0.23953 0.79051
 N2163 N 0.32967 0.23993 0.78249
 C2164 C 0.31610 0.24976 0.78928
 N2165 N 0.31894 0.25934 0.80436
 N2166 N 0.33482 0.25907 0.81231
 C2167 C 0.91469 0.74170 0.33920
 N2168 N 0.92280 0.75551 0.34756
 N2169 N 0.93839 0.75318 0.35576
 C2170 C 0.94628 0.73690 0.35605
 N2171 N 0.93811 0.72316 0.34769
 N2172 N 0.92268 0.72553 0.33935
 C2173 C 0.89754 0.74388 0.33010
 N2174 N 0.89206 0.73135 0.31834
 N2175 N 0.87638 0.73282 0.31027
 C2176 C 0.86545 0.74676 0.31380
 N2177 N 0.87087 0.75932 0.32561
 N2178 N 0.88669 0.75794 0.33357
 C2179 C 0.84808 0.74793 0.30494
 N2180 N 0.83501 0.75884 0.31114
 N2181 N 0.81914 0.75934 0.30319
 C2182 C 0.81586 0.74905 0.28868
 N2183 N 0.82897 0.73827 0.28247
 N2184 N 0.84473 0.73764 0.29050
 C2185 C 0.08583 0.76057 0.33993
 N2186 N 0.07772 0.77666 0.34080
 N2187 N 0.06227 0.77856 0.34931
 C2188 C 0.05419 0.76442 0.35711
 N2189 N 0.06221 0.74823 0.35610
 N2190 N 0.07782 0.74636 0.34774
 C2191 C 0.10294 0.75883 0.33059
 N2192 N 0.11392 0.74477 0.33355
 N2193 N 0.12963 0.74368 0.32527
 C2194 C 0.13482 0.75651 0.31363
 N2195 N 0.12377 0.77047 0.31061
 N2196 N 0.10819 0.77167 0.31902
 C2197 C 0.15196 0.75542 0.30425
 N2198 N 0.15480 0.76540 0.28946
 N2199 N 0.17026 0.76452 0.28077
 C2200 C 0.18355 0.75382 0.28668
 N2201 N 0.18079 0.74392 0.30156
 N2202 N 0.16523 0.74465 0.31015
 C2203 C 0.58854 0.25505 0.84437
 N2204 N 0.57329 0.24842 0.83731
 N2205 N 0.55770 0.25094 0.84547
 C2206 C 0.55675 0.26033 0.86089
 N2207 N 0.57204 0.26686 0.86798
 N2208 N 0.58765 0.26418 0.85993
 C2209 C 0.60559 0.25316 0.83491
 N2210 N 0.62122 0.25649 0.84334
 N2211 N 0.63664 0.25547 0.83456
 C2212 C 0.63696 0.25131 0.81697
 N2213 N 0.62134 0.24797 0.80855
 N2214 N 0.60593 0.24881 0.81737
 C2215 C 0.65387 0.25077 0.80711
 N2216 N 0.65394 0.25128 0.78904
 N2217 N 0.66925 0.25099 0.78003
 C2218 C 0.68505 0.25004 0.78874
 N2219 N 0.68499 0.24945 0.80682
 N2220 N 0.66967 0.24993 0.81584
 C2221 C 0.58372 0.73827 0.66348
 N2222 N 0.57481 0.72262 0.66436
 N2223 N 0.55942 0.72051 0.65586
 C2224 C 0.55222 0.73405 0.64631
 N2225 N 0.56105 0.74980 0.64557
 N2226 N 0.57658 0.75184 0.65393
 C2227 C 0.60088 0.74022 0.67262
 N2228 N 0.61239 0.75345 0.66820
 N2229 N 0.62817 0.75473 0.67623
 C2230 C 0.63290 0.74293 0.68908
 N2231 N 0.62133 0.72982 0.69356
 N2232 N 0.60566 0.72843 0.68542
 C2233 C 0.65024 0.74411 0.69801
 N2234 N 0.65306 0.73511 0.71340
 N2235 N 0.66878 0.73588 0.72152
 C2236 C 0.68235 0.74551 0.71447
 N2237 N 0.67958 0.75448 0.69902
 N2238 N 0.66376 0.75386 0.69097
 C2239 C 0.08529 0.24124 0.15781
 N2240 N 0.07700 0.22525 0.15832
 N2241 N 0.06176 0.22271 0.14971
 C2242 C 0.05407 0.23612 0.14040
 N2243 N 0.06224 0.25225 0.14003
 N2244 N 0.07765 0.25473 0.14850
 C2245 C 0.10223 0.24356 0.16724
 N2246 N 0.11364 0.25695 0.16308
 N2247 N 0.12929 0.25835 0.17136
 C2248 C 0.13397 0.24649 0.18418
 N2249 N 0.12247 0.23324 0.18840
 N2250 N 0.10696 0.23173 0.18002
 C2251 C 0.15113 0.24768 0.19343
 N2252 N 0.15362 0.23851 0.20878
 N2253 N 0.16918 0.23911 0.21720
 C2254 C 0.18292 0.24874 0.21050
 N2255 N 0.18049 0.25789 0.19509
 N2256 N 0.16483 0.25743 0.18674
 C2257 C -0.08887 1.00589 0.83573
 N2258 N -0.08730 0.99359 0.82259
 N2259 N -0.09542 0.99598 0.80700
 C2260 C -0.10531 1.01084 0.80386
 N2261 N -0.10679 1.02309 0.81710
 N2262 N -0.09881 1.02064 0.83272
 C2263 C -0.07990 1.00349 0.85291
 N2264 N -0.08419 1.01409 0.86691
 N2265 N -0.07593 1.01225 0.88246
 C2266 C -0.06296 0.99985 0.88457
 N2267 N -0.05863 0.98924 0.87057
 N2268 N -0.06701 0.99098 0.85503
 C2269 C -0.05367 0.99827 0.90168
 N2270 N -0.03840 0.98868 0.90313
 N2271 N -0.02977 0.98781 0.91861
 C2272 C -0.03619 0.99639 0.93320
 N2273 N -0.05153 1.00585 0.93175
 N2274 N -0.06006 1.00682 0.91626
 C2275 C 0.40752 0.50866 0.33740
 N2276 N 0.39526 0.52175 0.33523
 N2277 N 0.38756 0.52435 0.31949
 C2278 C 0.39173 0.51390 0.30532
 N2279 N 0.40391 0.50071 0.30756
 N2280 N 0.41171 0.49818 0.32328
 C2281 C 0.41631 0.50617 0.35467
 N2282 N 0.43053 0.49512 0.35627
 N2283 N 0.43879 0.49328 0.37186
 C2284 C 0.43304 0.50235 0.38642
 N2285 N 0.41875 0.51331 0.38483
 N2286 N 0.41057 0.51522 0.36923
 C2287 C 0.44233 0.50072 0.40353
 N2288 N 0.43540 0.50824 0.41844
 N2289 N 0.44401 0.50719 0.43390
 C2290 C 0.45992 0.49866 0.43498
 N2291 N 0.46685 0.49110 0.42007
 N2292 N 0.45819 0.49207 0.40462
 C2293 C 0.58746 -0.00726 0.33374
 N2294 N 0.59089 -0.02404 0.32806
 N2295 N 0.59980 -0.02683 0.31296
 C2296 C 0.60534 -0.01297 0.30272
 N2297 N 0.60175 0.00383 0.30844
 N2298 N 0.59314 0.00664 0.32373
 C2299 C 0.57761 -0.00427 0.35034
 N2300 N 0.58162 0.00966 0.36109
 N2301 N 0.57287 0.01209 0.37638
 C2302 C 0.55955 0.00087 0.38122
 N2303 N 0.55541 -0.01293 0.37036
 N2304 N 0.56438 -0.01555 0.35526
 C2305 C 0.55009 0.00320 0.39815
 N2306 N 0.53266 -0.00135 0.39962
 N2307 N 0.52425 -0.00010 0.41521
 C2308 C 0.53305 0.00547 0.42995
 N2309 N 0.55050 0.01000 0.42850
 N2310 N 0.55883 0.00906 0.41283
 C2311 C 0.09219 0.49478 0.83662
 N2312 N 0.08812 0.50504 0.82233
 N2313 N 0.09607 0.50227 0.80668
 C2314 C 0.10829 0.48905 0.80470
 N2315 N 0.11233 0.47883 0.81904
 N2316 N 0.10448 0.48168 0.83470
 C2317 C 0.08327 0.49747 0.85383
 N2318 N 0.08907 0.48867 0.86849
 N2319 N 0.08077 0.49061 0.88405
 C2320 C 0.06629 0.50134 0.88553
 N2321 N 0.06049 0.51019 0.87089
 N2322 N 0.06887 0.50833 0.85532
 C2323 C 0.05687 0.50280 0.90263
 N2324 N 0.04082 0.51109 0.90383
 N2325 N 0.03202 0.51160 0.91928
 C2326 C 0.03902 0.50393 0.93407
 N2327 N 0.05514 0.49581 0.93286
 N2328 N 0.06387 0.49522 0.91743
 C2329 C 0.09380 0.51021 0.66392
 N2330 N 0.08957 0.49984 0.67811
 N2331 N 0.09731 0.50249 0.69384
 C2332 C 0.10946 0.51570 0.69600
 N2333 N 0.11369 0.52601 0.68176
 N2334 N 0.10605 0.52329 0.66602
 C2335 C 0.08496 0.50771 0.64671
 N2336 N 0.09073 0.51665 0.63210
 N2337 N 0.08241 0.51485 0.61656
 C2338 C 0.06796 0.50413 0.61509
 N2339 N 0.06220 0.49515 0.62969
 N2340 N 0.07058 0.49687 0.64522
 C2341 C 0.05846 0.50269 0.59811
 N2342 N 0.04243 0.49441 0.59721
 N2343 N 0.03357 0.49362 0.58188
 C2344 C 0.04047 0.50101 0.56688
 N2345 N 0.05656 0.50918 0.56776
 N2346 N 0.06537 0.51006 0.58310
 C2347 C 0.59247 1.01093 0.16492
 N2348 N 0.58843 1.00045 0.17908
 N2349 N 0.59640 1.00296 0.19471
 C2350 C 0.60862 1.01612 0.19682
 N2351 N 0.61262 1.02657 0.18262
 N2352 N 0.60474 1.02399 0.16697
 C2353 C 0.58357 1.00842 0.14772
 N2354 N 0.58936 1.01734 0.13311
 N2355 N 0.58117 1.01538 0.11753
 C2356 C 0.56682 1.00452 0.11600
 N2357 N 0.56102 0.99558 0.13061
 N2358 N 0.56929 0.99746 0.14619
 C2359 C 0.55764 1.00283 0.09885
 N2360 N 0.54172 0.99434 0.09762
 N2361 N 0.53324 0.99336 0.08207
 C2362 C 0.54044 1.00073 0.06720
 N2363 N 0.55641 1.00909 0.06844
 N2364 N 0.56482 1.01016 0.08398
 C2365 C 0.41085 0.49146 0.16553
 N2366 N 0.41458 0.50191 0.17978
 N2367 N 0.40636 0.49928 0.19532
 C2368 C 0.39419 0.48603 0.19723
 N2369 N 0.39050 0.47561 0.18293
 N2370 N 0.39862 0.47831 0.16739
 C2371 C 0.41994 0.49408 0.14839
 N2372 N 0.41437 0.48511 0.13375
 N2373 N 0.42270 0.48711 0.11821
 C2374 C 0.43697 0.49807 0.11673
 N2375 N 0.44257 0.50707 0.13136
 N2376 N 0.43416 0.50515 0.14691
 C2377 C 0.44626 0.49977 0.09957
 N2378 N 0.46209 0.50844 0.09824
 N2379 N 0.47065 0.50935 0.08267
 C2380 C 0.46362 0.50170 0.06788
 N2381 N 0.44775 0.49317 0.06923
 N2382 N 0.43926 0.49218 0.08478
 C2383 C -0.08723 -0.01151 0.66582
 N2384 N -0.08614 0.00062 0.67915
 N2385 N -0.09429 -0.00226 0.69468
 C2386 C -0.10375 -0.01744 0.69757
 N2387 N -0.10470 -0.02955 0.68416
 N2388 N -0.09669 -0.02661 0.66860
 C2389 C -0.07846 -0.00844 0.64859
 N2390 N -0.08262 -0.01877 0.63438
 N2391 N -0.07472 -0.01620 0.61871
 C2392 C -0.06224 -0.00331 0.61667
 N2393 N -0.05800 0.00701 0.63088
 N2394 N -0.06604 0.00454 0.64656
 C2395 C -0.05348 -0.00087 0.59933
 N2396 N -0.03847 0.00908 0.59763
 N2397 N -0.03034 0.01061 0.58187
 C2398 C -0.03705 0.00236 0.56726
 N2399 N -0.05213 -0.00743 0.56898
 N2400 N -0.06015 -0.00907 0.58471
 C2401 C -0.16341 0.90772 1.01108
 N2402 N -0.16643 0.89786 1.02590
 N2403 N -0.18198 0.88970 1.02833
 C2404 C -0.19514 0.89092 1.01597
 N2405 N -0.19199 0.90074 1.00107
 N2406 N -0.17648 0.90904 0.99871
 C2407 C -0.14629 0.91681 1.00860
 N2408 N -0.14428 0.92957 0.99595
 N2409 N -0.12875 0.93796 0.99397
 C2410 C -0.11466 0.93377 1.00448
 N2411 N -0.11667 0.92095 1.01704
 N2412 N -0.13221 0.91268 1.01911
 C2413 C -0.09752 0.94297 1.00252
 N2414 N -0.08281 0.93650 1.01075
 N2415 N -0.06727 0.94490 1.00938
 C2416 C -0.06587 0.96017 0.99986
 N2417 N -0.08059 0.96668 0.99162
 N2418 N -0.09613 0.95818 0.99287
 C2419 C 0.33324 0.40970 0.51172
 N2420 N 0.32320 0.41280 0.52646
 N2421 N 0.30783 0.40429 0.52889
 C2422 C 0.30182 0.39257 0.51654
 N2423 N 0.31180 0.38956 0.50173
 N2424 N 0.32732 0.39787 0.49944
 C2425 C 0.35021 0.41901 0.50918
 N2426 N 0.36339 0.41172 0.49913
 N2427 N 0.37894 0.42006 0.49718
 C2428 C 0.38173 0.43610 0.50497
 N2429 N 0.36849 0.44345 0.51488
 N2430 N 0.35305 0.43500 0.51705
 C2431 C 0.39889 0.44522 0.50308
 N2432 N 0.39994 0.46313 0.50501
 N2433 N 0.41557 0.47140 0.50373
 C2434 C 0.43075 0.46203 0.50073
 N2435 N 0.42971 0.44410 0.49886
 N2436 N 0.41403 0.43586 0.49987
 C2437 C 0.33531 0.58824 -0.01210
 N2438 N 0.32097 0.58454 -0.00169
 N2439 N 0.30547 0.59275 -0.00441
 C2440 C 0.30367 0.60488 -0.01771
 N2441 N 0.31804 0.60852 -0.02811
 N2442 N 0.33356 0.60040 -0.02533
 C2443 C 0.35244 0.57924 -0.00924
 N2444 N 0.36723 0.58477 -0.01806
 N2445 N 0.38278 0.57659 -0.01568
 C2446 C 0.38411 0.56249 -0.00447
 N2447 N 0.36932 0.55692 0.00435
 N2448 N 0.35376 0.56518 0.00205
 C2449 C 0.40129 0.55340 -0.00226
 N2450 N 0.40248 0.53770 0.00664
 N2451 N 0.41809 0.52932 0.00807
 C2452 C 0.43306 0.53641 0.00076
 N2453 N 0.43185 0.55214 -0.00800
 N2454 N 0.41626 0.56045 -0.00951
 C2455 C -0.16719 0.08932 0.48903
 N2456 N -0.18057 0.08791 0.50115
 N2457 N -0.19611 0.09606 0.49843
 C2458 C -0.19897 0.10581 0.48344
 N2459 N -0.18551 0.10710 0.47135
 N2460 N -0.16994 0.09910 0.47412
 C2461 C -0.14998 0.08049 0.49185
 N2462 N -0.13578 0.08482 0.48153
 N2463 N -0.12015 0.07678 0.48379
 C2464 C -0.11815 0.06398 0.49636
 N2465 N -0.13236 0.05959 0.50670
 N2466 N -0.14799 0.06776 0.50453
 C2467 C -0.10090 0.05501 0.49840
 N2468 N -0.09932 0.03980 0.50805
 N2469 N -0.08367 0.03146 0.50920
 C2470 C -0.06904 0.03812 0.50088
 N2471 N -0.07063 0.05339 0.49139
 N2472 N -0.08626 0.06164 0.49013
 C2473 C 0.66076 0.09209 0.50403
 N2474 N 0.66286 0.10403 0.51740
 N2475 N 0.67867 0.11142 0.52045
 C2476 C 0.69300 0.10724 0.51018
 N2477 N 0.69085 0.09538 0.49670
 N2478 N 0.67505 0.08789 0.49372
 C2479 C 0.64343 0.08357 0.50113
 N2480 N 0.64184 0.06948 0.48994
 N2481 N 0.62619 0.06136 0.48790
 C2482 C 0.61156 0.06713 0.49689
 N2483 N 0.61314 0.08132 0.50795
 N2484 N 0.62879 0.08935 0.51007
 C2485 C 0.59445 0.05784 0.49529
 N2486 N 0.57959 0.06466 0.50304
 N2487 N 0.56420 0.05590 0.50236
 C2488 C 0.56311 0.03995 0.49399
 N2489 N 0.57796 0.03315 0.48615
 N2490 N 0.59334 0.04196 0.48675
 C2491 C 0.16449 0.59063 1.00561
 N2492 N 0.16754 0.60042 1.02045
 N2493 N 0.18324 0.60820 1.02299
 C2494 C 0.19653 0.60667 1.01075
 N2495 N 0.19335 0.59694 0.99580
 N2496 N 0.17768 0.58900 0.99332
 C2497 C 0.14722 0.58185 1.00319
 N2498 N 0.14508 0.56873 0.99094
 N2499 N 0.12947 0.56044 0.98931
 C2500 C 0.11542 0.56510 0.99976
 N2501 N 0.11755 0.57831 1.01187
 N2502 N 0.13317 0.58647 1.01361
 C2503 C 0.09829 0.55583 0.99847
 N2504 N 0.08371 0.56255 1.00681
 N2505 N 0.06824 0.55395 1.00632
 C2506 C 0.06678 0.53822 0.99760
 N2507 N 0.08135 0.53148 0.98920
 N2508 N 0.09682 0.54017 0.98957
 C2509 C 0.16578 0.41059 0.48927
 N2510 N 0.17175 0.39879 0.50157
 N2511 N 0.18722 0.39039 0.49920
 C2512 C 0.19712 0.39328 0.48431
 N2513 N 0.19106 0.40499 0.47197
 N2514 N 0.17573 0.41358 0.47447
 C2515 C 0.14885 0.41999 0.49187
 N2516 N 0.14593 0.43586 0.48380
 N2517 N 0.13053 0.44440 0.48602
 C2518 C 0.11739 0.43724 0.49618
 N2519 N 0.12026 0.42131 0.50419
 N2520 N 0.13578 0.41290 0.50218
 C2521 C 0.10027 0.44645 0.49815
 N2522 N 0.08518 0.43722 0.50188
 N2523 N 0.06953 0.44555 0.50300
 C2524 C 0.06848 0.46343 0.50070
 N2525 N 0.08361 0.47267 0.49717
 N2526 N 0.09921 0.46431 0.49579
 C2527 C 0.66702 0.90944 -0.00847
 N2528 N 0.68123 0.91318 0.00201
 N2529 N 0.69671 0.90480 -0.00044
 C2530 C 0.69858 0.89246 -0.01354
 N2531 N 0.68432 0.88875 -0.02400
 N2532 N 0.66883 0.89703 -0.02147
 C2533 C 0.64998 0.91874 -0.00605
 N2534 N 0.63528 0.91316 -0.01490
 N2535 N 0.61984 0.92170 -0.01305
 C2536 C 0.61855 0.93621 -0.00238
 N2537 N 0.63326 0.94183 0.00648
 N2538 N 0.64870 0.93320 0.00472
 C2539 C 0.60154 0.94574 -0.00081
 N2540 N 0.60054 0.96182 0.00738
 N2541 N 0.58509 0.97058 0.00824
 C2542 C 0.57011 0.96350 0.00103
 N2543 N 0.57113 0.94738 -0.00703
 N2544 N 0.58656 0.93869 -0.00798
 C2545 C 0.00779 0.83462 0.90654
 N2546 N -0.00397 0.82115 0.90898
 N2547 N -0.00164 0.80563 0.90072
 C2548 C 0.01260 0.80289 0.88980
 N2549 N 0.02428 0.81649 0.88737
 N2550 N 0.02189 0.83204 0.89550
 C2551 C 0.00564 0.85160 0.91594
 N2552 N 0.01569 0.86584 0.91125
 N2553 N 0.01417 0.88116 0.92001
 C2554 C 0.00266 0.88277 0.93388
 N2555 N -0.00741 0.86853 0.93861
 N2556 N -0.00599 0.85322 0.92975
 C2557 C 0.00143 0.89963 0.94366
 N2558 N -0.00730 0.90070 0.95950
 N2559 N -0.00789 0.91600 0.96847
 C2560 C 0.00013 0.93078 0.96184
 N2561 N 0.00874 0.92970 0.94597
 N2562 N 0.00944 0.91440 0.93708
 C2563 C 0.50840 0.33579 0.40857
 N2564 N 0.49792 0.32160 0.41242
 N2565 N 0.50052 0.30606 0.40428
 C2566 C 0.51378 0.30408 0.39208
 N2567 N 0.52425 0.31830 0.38826
 N2568 N 0.52158 0.33387 0.39630
 C2569 C 0.50576 0.35288 0.41766
 N2570 N 0.51454 0.36761 0.41202
 N2571 N 0.51243 0.38308 0.42041
 C2572 C 0.50155 0.38436 0.43482
 N2573 N 0.49275 0.36963 0.44048
 N2574 N 0.49478 0.35418 0.43201
 C2575 C 0.49970 0.40135 0.44428
 N2576 N 0.49139 0.40221 0.46036
 N2577 N 0.49029 0.41758 0.46915
 C2578 C 0.49735 0.43266 0.46212
 N2579 N 0.50552 0.43180 0.44599
 N2580 N 0.50671 0.41643 0.43726
 C2581 C -0.00767 0.33699 0.59177
 N2582 N -0.02274 0.33373 0.60121
 N2583 N -0.02551 0.31786 0.60855
 C2584 C -0.01327 0.30461 0.60691
 N2585 N 0.00190 0.30800 0.59753
 N2586 N 0.00460 0.32384 0.59004
 C2587 C -0.00493 0.35437 0.58333
 N2588 N 0.00784 0.35663 0.57069
 N2589 N 0.00988 0.37231 0.56266
 C2590 C -0.00068 0.38631 0.56710
 N2591 N -0.01332 0.38408 0.57986
 N2592 N -0.01546 0.36838 0.58777
 C2593 C 0.00112 0.40344 0.55793
 N2594 N -0.00733 0.41809 0.56432
 N2595 N -0.00628 0.43353 0.55570
 C2596 C 0.00314 0.43485 0.54030
 N2597 N 0.01162 0.42021 0.53392
 N2598 N 0.01069 0.40479 0.54263
 C2599 C 0.49279 0.83696 0.08910
 N2600 N 0.50321 0.82274 0.08509
 N2601 N 0.50037 0.80706 0.09287
 C2602 C 0.48693 0.80498 0.10485
 N2603 N 0.47654 0.81925 0.10883
 N2604 N 0.47944 0.83493 0.10115
 C2605 C 0.49561 0.85420 0.08040
 N2606 N 0.48663 0.86879 0.08612
 N2607 N 0.48880 0.88440 0.07805
 C2608 C 0.49995 0.88597 0.06388
 N2609 N 0.50897 0.87138 0.05815
 N2610 N 0.50688 0.85577 0.06630
 C2611 C 0.50180 0.90312 0.05474
 N2612 N 0.51063 0.90437 0.03898
 N2613 N 0.51169 0.91989 0.03046
 C2614 C 0.50405 0.93471 0.03747
 N2615 N 0.49536 0.93346 0.05329
 N2616 N 0.49421 0.91795 0.06174
 C2617 C 0.50979 0.66526 0.08833
 N2618 N 0.49960 0.67954 0.08401
 N2619 N 0.50202 0.69511 0.09214
 C2620 C 0.51478 0.69702 0.10480
 N2621 N 0.52496 0.68270 0.10907
 N2622 N 0.52247 0.66712 0.10104
 C2623 C 0.50733 0.64808 0.07940
 N2624 N 0.51592 0.63341 0.08547
 N2625 N 0.51396 0.61781 0.07733
 C2626 C 0.50344 0.61631 0.06274
 N2627 N 0.49484 0.63098 0.05663
 N2628 N 0.49671 0.64658 0.06485
 C2629 C 0.50172 0.59909 0.05369
 N2630 N 0.49352 0.59773 0.03763
 N2631 N 0.49252 0.58209 0.02932
 C2632 C 0.49959 0.56725 0.03684
 N2633 N 0.50766 0.56863 0.05293
 N2634 N 0.50874 0.58425 0.06117
 C2635 C 0.01060 0.16672 0.58720
 N2636 N -0.00162 0.17995 0.58584
 N2637 N 0.00086 0.19539 0.59419
 C2638 C 0.01574 0.19830 0.60410
 N2639 N 0.02796 0.18499 0.60532
 N2640 N 0.02541 0.16951 0.59712
 C2641 C 0.00795 0.14959 0.57819
 N2642 N 0.01829 0.13543 0.58247
 N2643 N 0.01605 0.11986 0.57436
 C2644 C 0.00348 0.11789 0.56154
 N2645 N -0.00685 0.13207 0.55720
 N2646 N -0.00470 0.14764 0.56544
 C2647 C 0.00135 0.10069 0.55256
 N2648 N -0.00830 0.09919 0.53735
 N2649 N -0.00966 0.08356 0.52905
 C2650 C -0.00156 0.06887 0.53577
 N2651 N 0.00794 0.07039 0.55104
 N2652 N 0.00942 0.08600 0.55924
 C2653 C 0.48873 0.16629 0.41056
 N2654 N 0.50091 0.17225 0.39856
 N2655 N 0.49860 0.18781 0.39039
 C2656 C 0.48388 0.19781 0.39372
 N2657 N 0.47166 0.19178 0.40562
 N2658 N 0.47411 0.17636 0.41399
 C2659 C 0.49120 0.14922 0.41965
 N2660 N 0.48359 0.14634 0.43581
 N2661 N 0.48557 0.13078 0.44404
 C2662 C 0.49500 0.11744 0.43629
 N2663 N 0.50254 0.12028 0.42008
 N2664 N 0.50079 0.13595 0.41197
 C2665 C 0.49663 0.10017 0.44519
 N2666 N 0.49911 0.08505 0.43561
 N2667 N 0.49979 0.06930 0.44372
 C2668 C 0.49828 0.06815 0.46171
 N2669 N 0.49602 0.08329 0.47128
 N2670 N 0.49507 0.09900 0.46316
 C2671 C -0.00759 0.66413 0.91079
 N2672 N 0.00619 0.67483 0.90613
 N2673 N 0.00319 0.69017 0.89777
 C2674 C -0.01366 0.69524 0.89343
 N2675 N -0.02736 0.68429 0.89791
 N2676 N -0.02441 0.66914 0.90657
 C2677 C -0.00456 0.64763 0.92066
 N2678 N -0.01602 0.64272 0.93376
 N2679 N -0.01352 0.62764 0.94269
 C2680 C 0.00035 0.61678 0.93863
 N2681 N 0.01177 0.62162 0.92543
 N2682 N 0.00946 0.63689 0.91672
 C2683 C 0.00250 0.59987 0.94803
 N2684 N 0.00784 0.58505 0.93918
 N2685 N 0.00852 0.56941 0.94750
 C2686 C 0.00421 0.56814 0.96502
 N2687 N -0.00086 0.58302 0.97392
 N2688 N -0.00186 0.59858 0.96553
 C2689 C 0.25740 0.65639 0.91074
 N2690 N 0.27043 0.64397 0.91226
 N2691 N 0.27331 0.63580 0.92773
 C2692 C 0.26321 0.63966 0.94226
 N2693 N 0.25008 0.65202 0.94067
 N2694 N 0.24727 0.66028 0.92523
 C2695 C 0.25456 0.66563 0.89375
 N2696 N 0.26317 0.66014 0.87881
 N2697 N 0.26095 0.66870 0.86345
 C2698 C 0.25012 0.68313 0.86246
 N2699 N 0.24148 0.68863 0.87740
 N2700 N 0.24362 0.68000 0.89275
 C2701 C 0.24827 0.69285 0.84560
 N2702 N 0.23988 0.70885 0.84498
 N2703 N 0.23894 0.71793 0.82976
 C2704 C 0.24626 0.71128 0.81460
 N2705 N 0.25448 0.69521 0.81521
 N2706 N 0.25550 0.68618 0.83042
 C2707 C 0.75634 0.15738 0.41209
 N2708 N 0.76912 0.14471 0.41365
 N2709 N 0.77175 0.13645 0.42910
 C2710 C 0.76165 0.14045 0.44359
 N2711 N 0.74876 0.15306 0.44197
 N2712 N 0.74620 0.16142 0.42654
 C2713 C 0.75384 0.16671 0.39511
 N2714 N 0.74328 0.18135 0.39404
 N2715 N 0.74151 0.19004 0.37867
 C2716 C 0.75014 0.18433 0.36381
 N2717 N 0.76058 0.16963 0.36488
 N2718 N 0.76244 0.16101 0.38025
 C2719 C 0.74867 0.19405 0.34692
 N2720 N 0.75583 0.18714 0.33181
 N2721 N 0.75508 0.19610 0.31655
 C2722 C 0.74724 0.21235 0.31582
 N2723 N 0.74003 0.21927 0.33092
 N2724 N 0.74069 0.21025 0.34619
 C2725 C 0.24601 0.34590 0.41216
 N2726 N 0.23367 0.35900 0.41376
 N2727 N 0.23047 0.36653 0.42949
 C2728 C 0.23956 0.36134 0.44422
 N2729 N 0.25207 0.34837 0.44254
 N2730 N 0.25520 0.34075 0.42682
 C2731 C 0.24871 0.33694 0.39500
 N2732 N 0.25862 0.32186 0.39388
 N2733 N 0.26023 0.31324 0.37845
 C2734 C 0.25207 0.31945 0.36359
 N2735 N 0.24233 0.33463 0.36468
 N2736 N 0.24064 0.34318 0.38011
 C2737 C 0.25309 0.30961 0.34674
 N2738 N 0.24603 0.31663 0.33168
 N2739 N 0.24626 0.30747 0.31651
 C2740 C 0.25346 0.29092 0.31585
 N2741 N 0.26060 0.28392 0.33089
 N2742 N 0.26044 0.29312 0.34607
 C2743 C 0.74560 0.84262 0.91428
 N2744 N 0.75542 0.83814 0.92876
 N2745 N 0.75250 0.84602 0.94441
 C2746 C 0.73957 0.85856 0.94620
 N2747 N 0.72980 0.86302 0.93167
 N2748 N 0.73278 0.85525 0.91602
 C2749 C 0.74839 0.83370 0.89711
 N2750 N 0.74000 0.83969 0.88229
 N2751 N 0.74200 0.83132 0.86679
 C2752 C 0.75240 0.81660 0.86554
 N2753 N 0.76085 0.81062 0.88035
 N2754 N 0.75893 0.81906 0.89585
 C2755 C 0.75387 0.80700 0.84857
 N2756 N 0.76174 0.79075 0.84775
 N2757 N 0.76224 0.78172 0.83248
 C2758 C 0.75498 0.78868 0.81746
 N2759 N 0.74728 0.80500 0.81827
 N2760 N 0.74670 0.81397 0.83354
 C2761 C 0.75753 0.84011 0.08650
 N2762 N 0.74806 0.83578 0.07175
 N2763 N 0.75131 0.84383 0.05627
 C2764 C 0.76424 0.85642 0.05491
 N2765 N 0.77369 0.86069 0.06970
 N2766 N 0.77037 0.85273 0.08519
 C2767 C 0.75418 0.83128 0.10362
 N2768 N 0.76186 0.83759 0.11868
 N2769 N 0.75922 0.82952 0.13423
 C2770 C 0.74889 0.81476 0.13532
 N2771 N 0.74117 0.80841 0.12026
 N2772 N 0.74372 0.81657 0.10469
 C2773 C 0.74666 0.80569 0.15250
 N2774 N 0.73905 0.78933 0.15359
 N2775 N 0.73795 0.78091 0.16920
 C2776 C 0.74433 0.78861 0.18426
 N2777 N 0.75174 0.80502 0.18314
 N2778 N 0.75292 0.81338 0.16757
 C2779 C 0.25254 0.34489 0.58817
 N2780 N 0.24344 0.33983 0.57342
 N2781 N 0.24665 0.34755 0.55776
 C2782 C 0.25915 0.36053 0.55624
 N2783 N 0.26815 0.36561 0.57106
 N2784 N 0.26487 0.35799 0.58672
 C2785 C 0.24971 0.33591 0.60529
 N2786 N 0.25762 0.34220 0.62024
 N2787 N 0.25579 0.33369 0.63568
 C2788 C 0.24607 0.31852 0.63673
 N2789 N 0.23808 0.31225 0.62179
 N2790 N 0.23983 0.32082 0.60635
 C2791 C 0.24489 0.30881 0.65364
 N2792 N 0.23751 0.29235 0.65445
 N2793 N 0.23726 0.28332 0.66973
 C2794 C 0.24432 0.29048 0.68474
 N2795 N 0.25154 0.30699 0.68393
 N2796 N 0.25186 0.31597 0.66866
 C2797 C 0.74023 0.15409 0.58394
 N2798 N 0.75058 0.15822 0.56968
 N2799 N 0.74777 0.15054 0.55394
 C2800 C 0.73442 0.13853 0.55183
 N2801 N 0.72410 0.13442 0.56613
 N2802 N 0.72698 0.14200 0.58189
 C2803 C 0.74300 0.16279 0.60121
 N2804 N 0.73424 0.15695 0.61592
 N2805 N 0.73638 0.16507 0.63153
 C2806 C 0.74726 0.17940 0.63298
 N2807 N 0.75604 0.18523 0.61827
 N2808 N 0.75400 0.17704 0.60268
 C2809 C 0.74909 0.18865 0.65009
 N2810 N 0.75741 0.20465 0.65107
 N2811 N 0.75850 0.21328 0.66652
 C2812 C 0.75142 0.20617 0.68158
 N2813 N 0.74323 0.19011 0.68062
 N2814 N 0.74204 0.18154 0.66515
 C2815 C 0.24252 0.65610 0.08240
 N2816 N 0.22985 0.64336 0.08074
 N2817 N 0.22708 0.63542 0.06516
 C2818 C 0.23693 0.63982 0.05062
 N2819 N 0.24974 0.65247 0.05232
 N2820 N 0.25243 0.66052 0.06791
 C2821 C 0.24503 0.66516 0.09952
 N2822 N 0.25528 0.67998 0.10075
 N2823 N 0.25695 0.68848 0.11624
 C2824 C 0.24852 0.68239 0.13106
 N2825 N 0.23840 0.66750 0.12983
 N2826 N 0.23664 0.65908 0.11434
 C2827 C 0.24986 0.69191 0.14807
 N2828 N 0.24299 0.68467 0.16314
 N2829 N 0.24369 0.69343 0.17853
 C2830 C 0.25119 0.70982 0.17940
 N2831 N 0.25810 0.71708 0.16433
 N2832 N 0.25749 0.70826 0.14894
 C2833 C 0.15654 0.58891 0.74332
 N2834 N 0.14409 0.58692 0.73042
 N2835 N 0.13653 0.57118 0.72755
 C2836 C 0.14103 0.55683 0.73755
 N2837 N 0.15338 0.55887 0.75059
 N2838 N 0.16105 0.57460 0.75338
 C2839 C 0.16528 0.60615 0.74591
 N2840 N 0.17996 0.60762 0.75634
 N2841 N 0.18828 0.62318 0.75802
 C2842 C 0.18214 0.63783 0.74941
 N2843 N 0.16738 0.63637 0.73912
 N2844 N 0.15914 0.62080 0.73736
 C2845 C 0.19160 0.65485 0.75062
 N2846 N 0.18436 0.66977 0.74350
 N2847 N 0.19317 0.68512 0.74393
 C2848 C 0.20959 0.68610 0.75140
 N2849 N 0.21681 0.67118 0.75859
 N2850 N 0.20795 0.65583 0.75825
 C2851 C 0.65710 0.08826 0.24446
 N2852 N 0.66167 0.07379 0.25425
 N2853 N 0.65391 0.05813 0.25132
 C2854 C 0.64140 0.05632 0.23840
 N2855 N 0.63685 0.07083 0.22866
 N2856 N 0.64450 0.08650 0.23166
 C2857 C 0.66589 0.10545 0.24720
 N2858 N 0.65967 0.12020 0.23886
 N2859 N 0.66792 0.13574 0.24073
 C2860 C 0.68276 0.13709 0.25092
 N2861 N 0.68897 0.12236 0.25932
 N2862 N 0.68064 0.10681 0.25753
 C2863 C 0.69221 0.15412 0.25220
 N2864 N 0.70857 0.15512 0.25981
 N2865 N 0.71741 0.17049 0.26013
 C2866 C 0.71016 0.18539 0.25293
 N2867 N 0.69374 0.18438 0.24548
 N2868 N 0.68495 0.16903 0.24508
 C2869 C 0.84374 0.08161 0.75774
 N2870 N 0.83975 0.06711 0.74775
 N2871 N 0.84802 0.05167 0.75059
 C2872 C 0.86048 0.05012 0.76361
 N2873 N 0.86442 0.06466 0.77355
 N2874 N 0.85626 0.08011 0.77064
 C2875 C 0.83456 0.09863 0.75493
 N2876 N 0.84031 0.11349 0.76339
 N2877 N 0.83186 0.12892 0.76127
 C2878 C 0.81727 0.13005 0.75070
 N2879 N 0.81150 0.11519 0.74220
 N2880 N 0.82003 0.09976 0.74424
 C2881 C 0.80777 0.14704 0.74890
 N2882 N 0.79167 0.14794 0.74072
 N2883 N 0.78289 0.16333 0.73973
 C2884 C 0.78996 0.17838 0.74680
 N2885 N 0.80610 0.17747 0.75484
 N2886 N 0.81482 0.16209 0.75592
 C2887 C 0.34233 0.58563 0.25751
 N2888 N 0.35452 0.58399 0.27072
 N2889 N 0.36250 0.56848 0.27377
 C2890 C 0.35871 0.55400 0.26365
 N2891 N 0.34659 0.55569 0.25034
 N2892 N 0.33851 0.57120 0.24736
 C2893 C 0.33327 0.60269 0.25455
 N2894 N 0.31900 0.60385 0.24353
 N2895 N 0.31053 0.61928 0.24132
 C2896 C 0.31611 0.63412 0.24996
 N2897 N 0.33045 0.63296 0.26088
 N2898 N 0.33884 0.61753 0.26317
 C2899 C 0.30664 0.65110 0.24796
 N2900 N 0.31352 0.66619 0.25506
 N2901 N 0.30479 0.68155 0.25377
 C2902 C 0.28879 0.68239 0.24542
 N2903 N 0.28190 0.66730 0.23828
 N2904 N 0.29070 0.65193 0.23949
 C2905 C 0.34395 0.41368 0.24325
 N2906 N 0.35663 0.41547 0.23047
 N2907 N 0.36456 0.43107 0.22775
 C2908 C 0.36020 0.44549 0.23776
 N2909 N 0.34759 0.44364 0.25065
 N2910 N 0.33956 0.42805 0.25331
 C2911 C 0.33489 0.39656 0.24579
 N2912 N 0.32021 0.39528 0.25633
 N2913 N 0.31171 0.37982 0.25810
 C2914 C 0.31766 0.36507 0.24948
 N2915 N 0.33241 0.36635 0.23907
 N2916 N 0.34084 0.38181 0.23722
 C2917 C 0.30807 0.34811 0.25091
 N2918 N 0.31513 0.33310 0.24373
 N2919 N 0.30625 0.31780 0.24442
 C2920 C 0.28993 0.31694 0.25221
 N2921 N 0.28288 0.33194 0.25945
 N2922 N 0.29182 0.34724 0.25885
 C2923 C 0.84525 0.91070 0.74243
 N2924 N 0.85784 0.91240 0.72954
 N2925 N 0.86595 0.92791 0.72685
 C2926 C 0.86189 0.94232 0.73700
 N2927 N 0.84937 0.94055 0.74999
 N2928 N 0.84116 0.92505 0.75262
 C2929 C 0.83604 0.89366 0.74503
 N2930 N 0.82154 0.89246 0.75582
 N2931 N 0.81295 0.87707 0.75772
 C2932 C 0.81863 0.86229 0.74898
 N2933 N 0.83319 0.86347 0.73830
 N2934 N 0.84171 0.87887 0.73632
 C2935 C 0.80898 0.84537 0.75063
 N2936 N 0.81580 0.83031 0.74336
 N2937 N 0.80688 0.81504 0.74431
 C2938 C 0.79075 0.81427 0.75249
 N2939 N 0.78392 0.82933 0.75982
 N2940 N 0.79290 0.84460 0.75895
 C2941 C 0.65455 0.91471 0.25640
 N2942 N 0.65931 0.92931 0.24691
 N2943 N 0.65128 0.94486 0.24977
 C2944 C 0.63826 0.94645 0.26229
 N2945 N 0.63350 0.93180 0.27173
 N2946 N 0.64144 0.91622 0.26880
 C2947 C 0.66376 0.89768 0.25375
 N2948 N 0.65772 0.88276 0.26192
 N2949 N 0.66633 0.86739 0.26002
 C2950 C 0.68135 0.86637 0.24997
 N2951 N 0.68740 0.88128 0.24175
 N2952 N 0.67872 0.89665 0.24357
 C2953 C 0.69106 0.84946 0.24856
 N2954 N 0.70743 0.84860 0.24082
 N2955 N 0.71640 0.83328 0.24031
 C2956 C 0.70927 0.81829 0.24748
 N2957 N 0.69286 0.81918 0.25506
 N2958 N 0.68395 0.83447 0.25563
 C2959 C 0.15663 0.41583 0.75792
 N2960 N 0.14425 0.41785 0.77096
 N2961 N 0.13661 0.43359 0.77381
 C2962 C 0.14097 0.44790 0.76368
 N2963 N 0.15328 0.44581 0.75053
 N2964 N 0.16101 0.43009 0.74774
 C2965 C 0.16535 0.39855 0.75522
 N2966 N 0.17981 0.39698 0.74442
 N2967 N 0.18804 0.38137 0.74254
 C2968 C 0.18202 0.36676 0.75131
 N2969 N 0.16748 0.36832 0.76198
 N2970 N 0.15933 0.38394 0.76394
 C2971 C 0.19132 0.34964 0.74981
 N2972 N 0.18417 0.33482 0.75723
 N2973 N 0.19282 0.31937 0.75655
 C2974 C 0.20900 0.31819 0.74852
 N2975 N 0.21615 0.33300 0.74103
 N2976 N 0.20743 0.34845 0.74162
 C2977 C 0.08313 0.75731 0.83829
 N2978 N 0.07307 0.77190 0.83482
 N2979 N 0.05777 0.77460 0.84343
 C2980 C 0.05183 0.76267 0.85563
 N2981 N 0.06180 0.74797 0.85898
 N2982 N 0.07725 0.74540 0.85056
 C2983 C 0.10015 0.75468 0.82902
 N2984 N 0.11352 0.74521 0.83666
 N2985 N 0.12920 0.74345 0.82843
 C2986 C 0.13193 0.75088 0.81217
 N2987 N 0.11849 0.76016 0.80448
 N2988 N 0.10293 0.76215 0.81281
 C2989 C 0.14921 0.74932 0.80312
 N2990 N 0.15025 0.75106 0.78517
 N2991 N 0.16594 0.75034 0.77689
 C2992 C 0.18121 0.74812 0.78629
 N2993 N 0.18019 0.74640 0.80427
 N2994 N 0.16444 0.74686 0.81253
 C2995 C 0.58632 0.25657 0.34330
 N2996 N 0.57183 0.24683 0.33867
 N2997 N 0.55610 0.24977 0.34642
 C2998 C 0.55424 0.26265 0.35899
 N2999 N 0.56878 0.27233 0.36361
 N3000 N 0.58452 0.26932 0.35595
 C3001 C 0.60358 0.25380 0.33448
 N3002 N 0.61839 0.26206 0.34068
 N3003 N 0.63397 0.26015 0.33239
 C3004 C 0.63532 0.24998 0.31751
 N3005 N 0.62053 0.24166 0.31132
 N3006 N 0.60494 0.24349 0.31969
 C3007 C 0.65236 0.24866 0.30797
 N3008 N 0.65327 0.24114 0.29155
 N3009 N 0.66862 0.24078 0.28258
 C3010 C 0.68363 0.24784 0.28976
 N3011 N 0.68274 0.25518 0.30625
 N3012 N 0.66738 0.25563 0.31516
 C3013 C 0.58477 0.74318 0.15812
 N3014 N 0.58358 0.73028 0.14554
 N3015 N 0.56836 0.72748 0.13694
 C3016 C 0.55373 0.73753 0.14049
 N3017 N 0.55497 0.75051 0.15302
 N3018 N 0.57018 0.75325 0.16172
 C3019 C 0.60157 0.74593 0.16769
 N3020 N 0.60238 0.75667 0.18222
 N3021 N 0.61764 0.75871 0.19104
 C3022 C 0.63264 0.75017 0.18556
 N3023 N 0.63181 0.73954 0.17098
 N3024 N 0.61656 0.73742 0.16225
 C3025 C 0.64950 0.75194 0.19526
 N3026 N 0.66459 0.74477 0.18836
 N3027 N 0.67989 0.74570 0.19721
 C3028 C 0.68070 0.75377 0.21334
 N3029 N 0.66561 0.76104 0.22027
 N3030 N 0.65027 0.76017 0.21136
 C3031 C 0.08562 0.24352 0.65739
 N3032 N 0.07087 0.25317 0.66144
 N3033 N 0.05562 0.25036 0.65285
 C3034 C 0.05449 0.23770 0.63997
 N3035 N 0.06928 0.22806 0.63598
 N3036 N 0.08455 0.23095 0.64447
 C3037 C 0.10246 0.24640 0.66686
 N3038 N 0.11763 0.23850 0.66098
 N3039 N 0.13292 0.24076 0.66964
 C3040 C 0.13360 0.25092 0.68456
 N3041 N 0.11843 0.25884 0.69046
 N3042 N 0.10313 0.25667 0.68173
 C3043 C 0.15047 0.25281 0.69423
 N3044 N 0.15104 0.26034 0.71067
 N3045 N 0.16636 0.26124 0.71961
 C3046 C 0.18163 0.25473 0.71235
 N3047 N 0.18103 0.24738 0.69586
 N3048 N 0.16575 0.24640 0.68699
 C3049 C 0.91490 0.25685 0.65522
 N3050 N 0.92944 0.24685 0.65913
 N3051 N 0.94499 0.24998 0.65111
 C3052 C 0.94661 0.26329 0.63898
 N3053 N 0.93202 0.27325 0.63510
 N3054 N 0.91646 0.27006 0.64302
 C3055 C 0.89781 0.25373 0.66423
 N3056 N 0.88287 0.26216 0.65857
 N3057 N 0.86740 0.25975 0.66693
 C3058 C 0.86632 0.24891 0.68134
 N3059 N 0.88125 0.24045 0.68701
 N3060 N 0.89672 0.24278 0.67856
 C3061 C 0.84933 0.24685 0.69083
 N3062 N 0.84856 0.23854 0.70687
 N3063 N 0.83317 0.23734 0.71571
 C3064 C 0.81801 0.24431 0.70876
 N3065 N 0.81878 0.25248 0.69266
 N3066 N 0.83416 0.25376 0.68388
 C3067 C 0.41385 0.75835 0.15359
 N3068 N 0.41573 0.77132 0.14118
 N3069 N 0.43140 0.77412 0.13333
 C3070 C 0.44579 0.76399 0.13749
 N3071 N 0.44385 0.75090 0.14982
 N3072 N 0.42819 0.74817 0.15777
 C3073 C 0.39668 0.75570 0.16258
 N3074 N 0.39534 0.74494 0.17704
 N3075 N 0.37982 0.74304 0.18549
 C3076 C 0.36507 0.75174 0.17970
 N3077 N 0.36640 0.76239 0.16516
 N3078 N 0.38193 0.76437 0.15679
 C3079 C 0.34803 0.75009 0.18917
 N3080 N 0.33299 0.75722 0.18216
 N3081 N 0.31758 0.75621 0.19091
 C3082 C 0.31664 0.74813 0.20704
 N3083 N 0.33168 0.74096 0.21406
 N3084 N 0.34710 0.74188 0.20526
 C3085 C 0.41198 0.24578 0.34514
 N3086 N 0.41341 0.23342 0.35822
 N3087 N 0.42902 0.23035 0.36605
 C3088 C 0.44378 0.23960 0.36119
 N3089 N 0.44228 0.25210 0.34821
 N3090 N 0.42669 0.25510 0.34029
 C3091 C 0.39494 0.24851 0.33598
 N3092 N 0.39405 0.25839 0.32087
 N3093 N 0.37869 0.26016 0.31217
 C3094 C 0.36366 0.25221 0.31834
 N3095 N 0.36454 0.24247 0.33353
 N3096 N 0.37990 0.24061 0.34216
 C3097 C 0.34682 0.25352 0.30852
 N3098 N 0.33159 0.24693 0.31570
 N3099 N 0.31640 0.24740 0.30661
 C3100 C 0.31586 0.25440 0.28996
 N3101 N 0.33108 0.26107 0.28278
 N3102 N 0.34628 0.26068 0.29192
 C3103 C 0.91407 0.74062 0.84376
 N3104 N 0.92079 0.75326 0.85476
 N3105 N 0.93613 0.75055 0.86328
 C3106 C 0.94509 0.73495 0.86134
 N3107 N 0.93824 0.72227 0.85048
 N3108 N 0.92309 0.72510 0.84176
 C3109 C 0.89745 0.74362 0.83397
 N3110 N 0.89457 0.73515 0.81829
 N3111 N 0.87944 0.73760 0.80940
 C3112 C 0.86652 0.74840 0.81600
 N3113 N 0.86936 0.75683 0.83174
 N3114 N 0.88463 0.75460 0.84050
 C3115 C 0.84960 0.75039 0.80648
 N3116 N 0.83432 0.75416 0.81545
 N3117 N 0.81879 0.75485 0.80690
 C3118 C 0.81804 0.75208 0.78905
 N3119 N 0.83335 0.74858 0.78006
 N3120 N 0.84883 0.74761 0.78864
   
