data_POSCAR
  _audit_creation_date              2014-09-24
  _audit_creation_method            'ToBaCCo'
  _symmetry_space_group_name_H-M    'P1'
  _symmetry_Int_Tables_number       1
  _symmetry_cell_setting            triclinic
  loop_
  _symmetry_equiv_pos_as_xyz
 x,y,z
_cell_length_a 57.5040
_cell_length_b 56.9693
_cell_length_c 56.1738
_cell_angle_alpha 89.986100
_cell_angle_beta 90.318000
_cell_angle_gamma 89.979100
loop_
  _atom_site_label
  _atom_site_type_symbol
  _atom_site_fract_x
  _atom_site_fract_y
  _atom_site_fract_z
C1 C 0.34643 0.45166 0.93456
 C2 C 0.33887 0.46962 0.91902
 C3 C 0.31816 0.46705 0.90552
 C4 C 0.30538 0.44620 0.90743
 C5 C 0.31265 0.42820 0.92263
 C6 C 0.33295 0.43100 0.93652
 C7 C 0.36697 0.45397 0.94840
 C8 C 0.37317 0.43653 0.96520
 C9 C 0.35935 0.41612 0.96670
 C10 C 0.33969 0.41307 0.95236
 C11 C 0.32670 0.39221 0.95361
 C12 C 0.30697 0.38905 0.93914
 C13 C 0.29983 0.40737 0.92405
 H14 H 0.34917 0.48544 0.91737
 H15 H 0.28949 0.44398 0.89721
 H16 H 0.37730 0.46981 0.94699
 H17 H 0.36429 0.40191 0.97850
 H18 H 0.33225 0.37826 0.96546
 H19 H 0.28419 0.40556 0.91339
 C20 C 0.43549 0.82570 0.41220
 C21 C 0.44345 0.84305 0.42796
 C22 C 0.43529 0.84412 0.45159
 C23 C 0.41973 0.82660 0.45935
 C24 C 0.41179 0.80910 0.44379
 C25 C 0.41956 0.80871 0.42009
 C26 C 0.44284 0.82549 0.38848
 C27 C 0.43418 0.80873 0.37231
 C28 C 0.41836 0.79174 0.38039
 C29 C 0.41106 0.79158 0.40415
 C30 C 0.39486 0.77498 0.41204
 C31 C 0.38682 0.77550 0.43559
 C32 C 0.39559 0.79242 0.45143
 H33 H 0.45536 0.85612 0.42126
 H34 H 0.41351 0.82631 0.47746
 H35 H 0.45538 0.83845 0.38282
 H36 H 0.41139 0.77878 0.36819
 H37 H 0.38782 0.76234 0.39953
 H38 H 0.38944 0.79290 0.46963
 C39 C 0.96761 0.92725 0.81034
 C40 C 0.98457 0.91279 0.80019
 C41 C 0.97847 0.89565 0.78322
 C42 C 0.95528 0.89466 0.77512
 C43 C 0.93837 0.90969 0.78456
 C44 C 0.94435 0.92551 0.80286
 C45 C 0.97364 0.94291 0.82842
 C46 C 0.95662 0.95628 0.84022
 C47 C 0.93320 0.95422 0.83291
 C48 C 0.92712 0.93953 0.81365
 C49 C 0.90430 0.93887 0.80461
 C50 C 0.89863 0.92427 0.78514
 C51 C 0.91561 0.90921 0.77582
 H52 H 1.00215 0.91403 0.80698
 H53 H 0.95026 0.88231 0.76137
 H54 H 0.99161 0.94340 0.83422
 H55 H 0.91991 0.96469 0.84146
 H56 H 0.89114 0.95007 0.81236
 H57 H 0.91154 0.89778 0.76099
 C58 C 0.44297 -0.08200 0.30286
 C59 C 0.44796 -0.09962 0.28615
 C60 C 0.43395 -0.10275 0.26578
 C61 C 0.41453 -0.08782 0.26248
 C62 C 0.40926 -0.07008 0.27913
 C63 C 0.42366 -0.06717 0.29934
 C64 C 0.45710 -0.07906 0.32309
 C65 C 0.45250 -0.06127 0.33989
 C66 C 0.43311 -0.04663 0.33623
 C67 C 0.41869 -0.04949 0.31615
 C68 C 0.39935 -0.03488 0.31273
 C69 C 0.38477 -0.03744 0.29270
 C70 C 0.38984 -0.05522 0.27598
 H71 H 0.46300 -0.11074 0.28898
 H72 H 0.40325 -0.09009 0.24718
 H73 H 0.47153 -0.09096 0.32562
 H74 H 0.42925 -0.03286 0.34888
 H75 H 0.39553 -0.02176 0.32607
 H76 H 0.37883 -0.05738 0.26042
 C77 C 0.81625 0.31131 0.32046
 C78 C 0.81095 0.29635 0.33939
 C79 C 0.79444 0.30284 0.35645
 C80 C 0.78327 0.32467 0.35438
 C81 C 0.78852 0.33984 0.33550
 C82 C 0.80507 0.33319 0.31841
 C83 C 0.83270 0.30459 0.30364
 C84 C 0.83842 0.31943 0.28465
 C85 C 0.82715 0.34136 0.28251
 C86 C 0.81048 0.34838 0.29936
 C87 C 0.79913 0.37025 0.29763
 C88 C 0.78240 0.37686 0.31462
 C89 C 0.77743 0.36156 0.33354
 H90 H 0.82006 0.27979 0.34084
 H91 H 0.77025 0.32980 0.36722
 H92 H 0.84091 0.28756 0.30535
 H93 H 0.83153 0.35310 0.26806
 H94 H 0.80308 0.38191 0.28296
 H95 H 0.76512 0.36659 0.34712
 C96 C -0.19850 0.82247 0.81282
 C97 C -0.20988 0.83878 0.79774
 C98 C -0.19939 0.84614 0.77637
 C99 C -0.17678 0.83815 0.77124
 C100 C -0.16460 0.82363 0.78713
 C101 C -0.17554 0.81529 0.80777
 C102 C -0.20990 0.81266 0.83243
 C103 C -0.19882 0.79584 0.84702
 C104 C -0.17535 0.79012 0.84288
 C105 C -0.16354 0.79973 0.82325
 C106 C -0.14002 0.79409 0.81866
 C107 C -0.12868 0.80374 0.79877
 C108 C -0.14145 0.81769 0.78273
 H109 H -0.22739 0.84451 0.80185
 H110 H -0.16796 0.84429 0.75541
 H111 H -0.22770 0.81775 0.83603
 H112 H -0.16664 0.77753 0.85432
 H113 H -0.13040 0.78297 0.83089
 H114 H -0.13313 0.82444 0.76686
 C115 C 0.91587 0.32506 0.46194
 C116 C 0.92998 0.34057 0.47521
 C117 C 0.94894 0.35183 0.46430
 C118 C 0.95288 0.34870 0.43986
 C119 C 0.93801 0.33487 0.42608
 C120 C 0.91968 0.32264 0.43717
 C121 C 0.89892 0.31094 0.47305
 C122 C 0.88636 0.29426 0.45967
 C123 C 0.88922 0.29327 0.43489
 C124 C 0.90560 0.30747 0.42353
 C125 C 0.90864 0.30618 0.39880
 C126 C 0.92643 0.31893 0.38768
 C127 C 0.94149 0.33271 0.40145
 H128 H 0.92739 0.34244 0.49422
 H129 H 0.96751 0.35737 0.43147
 H130 H 0.89649 0.31191 0.49214
 H131 H 0.87901 0.28093 0.42450
 H132 H 0.89744 0.29493 0.38821
 H133 H 0.95544 0.34226 0.39288
 C134 C 0.44785 0.43383 0.83984
 C135 C 0.45926 0.43290 0.86196
 C136 C 0.47646 0.41590 0.86643
 C137 C 0.48239 0.40004 0.84828
 C138 C 0.47098 0.40064 0.82620
 C139 C 0.45355 0.41750 0.82193
 C140 C 0.43061 0.45067 0.83550
 C141 C 0.41877 0.45140 0.81358
 C142 C 0.42426 0.43483 0.79587
 C143 C 0.44170 0.41792 0.79987
 C144 C 0.44736 0.40128 0.78232
 C145 C 0.46482 0.38432 0.78649
 C146 C 0.47663 0.38438 0.80846
 H147 H 0.45436 0.44514 0.87579
 H148 H 0.49589 0.38710 0.85119
 H149 H 0.42617 0.46295 0.84947
 H150 H 0.41521 0.43527 0.77891
 H151 H 0.43779 0.40138 0.76569
 H152 H 0.49024 0.37169 0.81196
 C153 C 0.81728 0.93332 0.95368
 C154 C 0.81134 0.91459 0.96861
 C155 C 0.80146 0.89396 0.95917
 C156 C 0.79665 0.89296 0.93461
 C157 C 0.80250 0.91156 0.91966
 C158 C 0.81338 0.93161 0.92903
 C159 C 0.82745 0.95356 0.96304
 C160 C 0.83570 0.97131 0.94788
 C161 C 0.83244 0.96921 0.92314
 C162 C 0.82030 0.94992 0.91375
 C163 C 0.81434 0.94884 0.88952
 C164 C 0.80172 0.92954 0.88054
 C165 C 0.79719 0.91043 0.89548
 H166 H 0.81449 0.91637 0.98752
 H167 H 0.78890 0.87755 0.92665
 H168 H 0.83056 0.95453 0.98207
 H169 H 0.83848 0.98300 0.91139
 H170 H 0.81855 0.96354 0.87813
 H171 H 0.78880 0.89483 0.88860
 C172 C 0.30798 0.83264 0.28448
 C173 C 0.30366 0.85658 0.28611
 C174 C 0.28811 0.86535 0.30300
 C175 C 0.27626 0.84982 0.31809
 C176 C 0.28182 0.82573 0.31779
 C177 C 0.29775 0.81712 0.30085
 C178 C 0.32325 0.82427 0.26730
 C179 C 0.32939 0.80057 0.26675
 C180 C 0.32012 0.78505 0.28371
 C181 C 0.30414 0.79321 0.30075
 C182 C 0.29524 0.77821 0.31828
 C183 C 0.27996 0.78674 0.33585
 C184 C 0.27280 0.81040 0.33492
 H185 H 0.31232 0.86852 0.27397
 H186 H 0.26430 0.85668 0.33122
 H187 H 0.33120 0.83647 0.25495
 H188 H 0.32543 0.76679 0.28368
 H189 H 0.30106 0.76016 0.31863
 H190 H 0.26082 0.81720 0.34802
 C191 C 0.84684 0.41953 0.45110
 C192 C 0.83902 0.39901 0.46201
 C193 C 0.81519 0.39463 0.46434
 C194 C 0.79903 0.41020 0.45415
 C195 C 0.80671 0.43103 0.44325
 C196 C 0.83072 0.43609 0.44247
 C197 C 0.87060 0.42395 0.44936
 C198 C 0.87872 0.44573 0.44116
 C199 C 0.86259 0.46285 0.43364
 C200 C 0.83863 0.45766 0.43316
 C201 C 0.82248 0.47342 0.42326
 C202 C 0.79861 0.46788 0.42262
 C203 C 0.79085 0.44690 0.43321
 H204 H 0.85153 0.38662 0.46923
 H205 H 0.78058 0.40660 0.45562
 H206 H 0.88275 0.41092 0.45605
 H207 H 0.86874 0.47960 0.42702
 H208 H 0.82856 0.48974 0.41560
 H209 H 0.77258 0.44238 0.43295
 C210 C 0.94589 0.84223 -0.06652
 C211 C 0.94599 0.86434 -0.05554
 C212 C 0.92992 0.86991 -0.03763
 C213 C 0.91373 0.85263 -0.03066
 C214 C 0.91331 0.83044 -0.04163
 C215 C 0.92941 0.82527 -0.05974
 C216 C 0.96201 0.83704 -0.08436
 C217 C 0.96201 0.81510 -0.09603
 C218 C 0.94507 0.79838 -0.08935
 C219 C 0.92896 0.80325 -0.07117
 C220 C 0.91237 0.78646 -0.06428
 C221 C 0.89623 0.79127 -0.04606
 C222 C 0.89694 0.81339 -0.03485
 H223 H 0.95859 0.87723 -0.06124
 H224 H 0.90133 0.85624 -0.01673
 H225 H 0.97410 0.85066 -0.08936
 H226 H 0.94457 0.78132 -0.09782
 H227 H 0.91197 0.76980 -0.07349
 H228 H 0.88479 0.81745 -0.02079
 C229 C 0.32446 0.33001 0.79871
 C230 C 0.31626 0.35309 0.79752
 C231 C 0.29788 0.36059 0.81199
 C232 C 0.28755 0.34429 0.82767
 C233 C 0.29574 0.32106 0.82917
 C234 C 0.31436 0.31394 0.81469
 C235 C 0.34286 0.32289 0.78427
 C236 C 0.35162 0.29997 0.78570
 C237 C 0.34179 0.28402 0.80186
 C238 C 0.32306 0.29083 0.81627
 C239 C 0.31307 0.27497 0.83237
 C240 C 0.29438 0.28177 0.84695
 C241 C 0.28578 0.30491 0.84508
 H242 H 0.32453 0.36522 0.78541
 H243 H 0.27316 0.34945 0.83881
 H244 H 0.35071 0.33544 0.77224
 H245 H 0.34850 0.26627 0.80299
 H246 H 0.32030 0.25750 0.83369
 H247 H 0.27139 0.31052 0.85605
 C248 C 0.19714 0.54271 0.58592
 C249 C 0.17943 0.52642 0.58131
 C250 C 0.16055 0.53251 0.56671
 C251 C 0.15954 0.55504 0.55670
 C252 C 0.17716 0.57136 0.56108
 C253 C 0.19610 0.56533 0.57574
 C254 C 0.21565 0.53674 0.60087
 C255 C 0.23327 0.55297 0.60595
 C256 C 0.23248 0.57550 0.59540
 C257 C 0.21379 0.58191 0.58037
 C258 C 0.21213 0.60458 0.57018
 C259 C 0.19296 0.61069 0.55549
 C260 C 0.17578 0.59370 0.55108
 H261 H 0.18041 0.50905 0.58909
 H262 H 0.14473 0.56021 0.54593
 H263 H 0.21629 0.51933 0.60864
 H264 H 0.24595 0.58821 0.59939
 H265 H 0.22559 0.61738 0.57386
 H266 H 0.16112 0.59745 0.53961
 C267 C 0.56918 0.68674 0.06556
 C268 C 0.58493 0.70363 0.05729
 C269 C 0.60175 0.69794 0.04005
 C270 C 0.60258 0.67475 0.03126
 C271 C 0.58700 0.65756 0.03951
 C272 C 0.57023 0.66364 0.05666
 C273 C 0.55237 0.69262 0.08265
 C274 C 0.53642 0.67573 0.09070
 C275 C 0.53772 0.65273 0.08184
 C276 C 0.55450 0.64658 0.06497
 C277 C 0.55573 0.62356 0.05637
 C278 C 0.57233 0.61714 0.03928
 C279 C 0.58791 0.63439 0.03090
 H280 H 0.58407 0.72111 0.06468
 H281 H 0.61530 0.66997 0.01797
 H282 H 0.55146 0.71043 0.08935
 H283 H 0.52588 0.63942 0.08830
 H284 H 0.54368 0.61068 0.06323
 H285 H 0.60072 0.63003 0.01760
 C286 C 0.70554 0.17487 0.67999
 C287 C 0.70893 0.19019 0.66064
 C288 C 0.69115 0.20563 0.65342
 C289 C 0.67001 0.20567 0.66565
 C290 C 0.66632 0.19031 0.68466
 C291 C 0.68401 0.17472 0.69184
 C292 C 0.72323 0.15956 0.68744
 C293 C 0.71964 0.14345 0.70622
 C294 C 0.69778 0.14330 0.71762
 C295 C 0.68006 0.15894 0.71072
 C296 C 0.65841 0.15903 0.72233
 C297 C 0.64073 0.17484 0.71535
 C298 C 0.64502 0.19032 0.69642
 H299 H 0.72538 0.19021 0.65133
 H300 H 0.65608 0.21724 0.65998
 H301 H 0.73941 0.15982 0.67776
 H302 H 0.69449 0.13136 0.73221
 H303 H 0.65549 0.14675 0.73669
 H304 H 0.63189 0.20270 0.69068
 C305 C 1.05537 0.06150 0.16615
 C306 C 1.07469 0.04713 0.17082
 C307 C 1.08672 0.04853 0.19271
 C308 C 1.07918 0.06465 0.21004
 C309 C 1.05968 0.07899 0.20580
 C310 C 1.04780 0.07733 0.18379
 C311 C 1.04371 0.06059 0.14399
 C312 C 1.02474 0.07566 0.13911
 C313 C 1.01702 0.09067 0.15734
 C314 C 1.02837 0.09164 0.17935
 C315 C 1.02059 0.10719 0.19680
 C316 C 1.03244 0.10957 0.21857
 C317 C 1.05198 0.09518 0.22304
 H318 H 1.08061 0.03518 0.15714
 H319 H 1.08826 0.06579 0.22695
 H320 H 1.05002 0.04873 0.13043
 H321 H 1.00186 0.10163 0.15484
 H322 H 1.00534 0.11770 0.19304
 H323 H 1.06150 0.09671 0.23963
 C324 C 0.03029 0.18516 1.06083
 C325 C 0.01971 0.17167 1.04305
 C326 C 0.03035 0.16894 1.02078
 C327 C 0.05156 0.18014 1.01613
 C328 C 0.06139 0.19525 1.03320
 C329 C 0.05081 0.19758 1.05572
 C330 C 0.02077 0.18631 1.08368
 C331 C 0.03145 0.19991 1.10150
 C332 C 0.05103 0.21343 1.09594
 C333 C 0.06072 0.21238 1.07315
 C334 C 0.08028 0.22575 1.06759
 C335 C 0.09042 0.22413 1.04502
 C336 C 0.08131 0.20843 1.02808
 H337 H 0.00353 0.16261 1.04677
 H338 H 0.05966 0.17813 0.99885
 H339 H 0.00510 0.17651 1.08756
 H340 H 0.05916 0.22423 1.10952
 H341 H 0.08781 0.23718 1.08099
 H342 H 0.08930 0.20702 1.01070
 C343 C 0.20532 0.68110 0.71106
 C344 C 0.18689 0.68364 0.72705
 C345 C 0.16995 0.70109 0.72362
 C346 C 0.17201 0.71648 0.70407
 C347 C 0.19051 0.71421 0.68795
 C348 C 0.20715 0.69632 0.69143
 C349 C 0.22155 0.66303 0.71407
 C350 C 0.23940 0.65951 0.69742
 C351 C 0.24137 0.67496 0.67809
 C352 C 0.22537 0.69330 0.67501
 C353 C 0.22694 0.70821 0.65533
 C354 C 0.21042 0.72599 0.65152
 C355 C 0.19234 0.72907 0.66805
 H356 H 0.18540 0.67137 0.74167
 H357 H 0.15918 0.73015 0.70127
 H358 H 0.21997 0.65156 0.72933
 H359 H 0.25483 0.67234 0.66495
 H360 H 0.24107 0.70582 0.64288
 H361 H 0.17928 0.74248 0.66511
 C362 C 1.18920 0.18897 0.17493
 C363 C 1.20042 0.16787 0.18193
 C364 C 1.19478 0.15718 0.20385
 C365 C 1.17688 0.16675 0.21765
 C366 C 1.16461 0.18645 0.21017
 C367 C 1.17087 0.19793 0.18900
 C368 C 1.19643 0.20181 0.15479
 C369 C 1.18555 0.22328 0.14861
 C370 C 1.16626 0.23087 0.16201
 C371 C 1.15891 0.21849 0.18217
 C372 C 1.14006 0.22658 0.19595
 C373 C 1.13373 0.21477 0.21696
 C374 C 1.14628 0.19488 0.22394
 H375 H 1.21449 0.16083 0.17133
 H376 H 1.17188 0.15832 0.23418
 H377 H 1.21100 0.19548 0.14449
 H378 H 1.15690 0.24661 0.15706
 H379 H 1.13063 0.24223 0.19062
 H380 H 1.14143 0.18545 0.23992
 C381 C 0.66727 1.06732 0.53647
 C382 C 0.65151 1.04970 0.52927
 C383 C 0.65327 1.02665 0.53846
 C384 C 0.67134 1.02143 0.55455
 C385 C 0.68677 1.03881 0.56221
 C386 C 0.68487 1.06176 0.55307
 C387 C 0.66550 1.09047 0.52773
 C388 C 0.68123 1.10814 0.53535
 C389 C 0.69850 1.10204 0.55213
 C390 C 0.70038 1.07924 0.56093
 C391 C 0.71730 1.07391 0.57807
 C392 C 0.71870 1.05134 0.58777
 C393 C 0.70366 1.03373 0.57953
 H394 H 0.63770 1.05418 0.51692
 H395 H 0.67345 1.00389 0.56156
 H396 H 0.65190 1.09436 0.51497
 H397 H 0.71062 1.11493 0.55885
 H398 H 0.72867 1.08765 0.58463
 H399 H 0.70482 1.01619 0.58694
 C400 C 0.54578 0.56897 0.18405
 C401 C 0.54485 0.55293 0.16503
 C402 C 0.56470 0.53994 0.15877
 C403 C 0.58567 0.54369 0.17108
 C404 C 0.58688 0.55961 0.18995
 C405 C 0.56688 0.57218 0.19662
 C406 C 0.52604 0.58185 0.19076
 C407 C 0.52715 0.59783 0.20988
 C408 C 0.54813 0.60040 0.22256
 C409 C 0.56799 0.58790 0.21595
 C410 C 0.58898 0.59096 0.22838
 C411 C 0.60899 0.57852 0.22170
 C412 C 0.60778 0.56289 0.20242
 H413 H 0.52860 0.55006 0.15560
 H414 H 0.60118 0.53416 0.16599
 H415 H 0.51009 0.57978 0.18065
 H416 H 0.54917 0.61233 0.23753
 H417 H 0.58950 0.60273 0.24351
 H418 H 0.62310 0.55324 0.19702
 C419 C 0.65462 0.69267 0.17175
 C420 C 0.63150 0.69463 0.17949
 C421 C 0.62541 0.68780 0.20262
 C422 C 0.64273 0.67915 0.21807
 C423 C 0.66589 0.67740 0.21063
 C424 C 0.67190 0.68392 0.18728
 C425 C 0.66091 0.70030 0.14907
 C426 C 0.68426 0.69990 0.14183
 C427 C 0.70129 0.69009 0.15679
 C428 C 0.69529 0.68228 0.17968
 C429 C 0.71238 0.67395 0.19554
 C430 C 0.70642 0.66809 0.21898
 C431 C 0.68322 0.66972 0.22637
 H432 H 0.61828 0.70145 0.16753
 H433 H 0.63834 0.67432 0.23616
 H434 H 0.64770 0.70751 0.13732
 H435 H 0.71932 0.68999 0.15126
 H436 H 0.73036 0.67268 0.18996
 H437 H 0.67864 0.66476 0.24439
 C438 C 0.16383 0.04248 1.06025
 C439 C 0.14618 0.03332 1.04582
 C440 C 0.13152 0.04815 1.03238
 C441 C 0.13591 0.07255 1.03249
 C442 C 0.15439 0.08188 1.04602
 C443 C 0.16790 0.06677 1.06050
 C444 C 0.17668 0.02766 1.07532
 C445 C 0.19307 0.03688 1.09156
 C446 C 0.19760 0.06115 1.09100
 C447 C 0.18526 0.07599 1.07556
 C448 C 0.18981 0.10002 1.07532
 C449 C 0.17723 0.11512 1.06032
 C450 C 0.15944 0.10606 1.04572
 H451 H 0.14297 0.01464 1.04672
 H452 H 0.12519 0.08426 1.02192
 H453 H 0.17255 0.00915 1.07523
 H454 H 0.21069 0.06872 1.10260
 H455 H 0.20362 0.10688 1.08653
 H456 H 0.14947 0.11781 1.03441
 C457 C 0.58052 0.17023 0.53553
 C458 C 0.59433 0.18922 0.52830
 C459 C 0.59553 0.20990 0.54201
 C460 C 0.58237 0.21147 0.56302
 C461 C 0.56843 0.19268 0.57046
 C462 C 0.56756 0.17199 0.55671
 C463 C 0.57951 0.14946 0.52201
 C464 C 0.56571 0.13045 0.52946
 C465 C 0.55306 0.13241 0.55069
 C466 C 0.55381 0.15297 0.56423
 C467 C 0.54094 0.15471 0.58521
 C468 C 0.54142 0.17531 0.59887
 C469 C 0.55541 0.19420 0.59151
 H470 H 0.60421 0.18779 0.51200
 H471 H 0.58332 0.22702 0.57403
 H472 H 0.58926 0.14829 0.50562
 H473 H 0.54268 0.11784 0.55697
 H474 H 0.53069 0.13983 0.59097
 H475 H 0.55588 0.21021 0.60190
 C476 C 0.09366 0.55207 0.67667
 C477 C 0.11737 0.54604 0.67798
 C478 C 0.13164 0.55394 0.69698
 C479 C 0.12152 0.56750 0.71510
 C480 C 0.09784 0.57362 0.71413
 C481 C 0.08393 0.56605 0.69480
 C482 C 0.07962 0.54479 0.65731
 C483 C 0.05603 0.55153 0.65577
 C484 C 0.04661 0.56526 0.67422
 C485 C 0.06033 0.57272 0.69348
 C486 C 0.05086 0.58716 0.71123
 C487 C 0.06456 0.59472 0.73050
 C488 C 0.08798 0.58769 0.73195
 H489 H 0.12454 0.53511 0.66410
 H490 H 0.13213 0.57374 0.72977
 H491 H 0.08723 0.53442 0.64320
 H492 H 0.02847 0.57028 0.67376
 H493 H 0.03280 0.59255 0.71007
 H494 H 0.09879 0.59382 0.74653
 C495 C 0.67761 0.56384 0.05893
 C496 C 0.66440 0.54404 0.05269
 C497 C 0.66330 0.52443 0.06787
 C498 C 0.67576 0.52489 0.08960
 C499 C 0.68914 0.54457 0.09610
 C500 C 0.69003 0.56409 0.08066
 C501 C 0.67862 0.58336 0.04368
 C502 C 0.69189 0.60323 0.04984
 C503 C 0.70415 0.60330 0.07158
 C504 C 0.70338 0.58391 0.08693
 C505 C 0.71587 0.58408 0.10842
 C506 C 0.71534 0.56471 0.12390
 C507 C 0.70169 0.54506 0.11773
 H508 H 0.65510 0.54393 0.03588
 H509 H 0.67487 0.51017 0.10172
 H510 H 0.66930 0.58284 0.02690
 H511 H 0.71425 0.61851 0.07678
 H512 H 0.72583 0.59954 0.11316
 H513 H 0.70118 0.53001 0.12950
 C514 C 0.06433 0.66289 0.58175
 C515 C 0.05640 0.66382 0.60520
 C516 C 0.05970 0.68399 0.61925
 C517 C 0.07248 0.70295 0.60985
 C518 C 0.08093 0.70216 0.58638
 C519 C 0.07641 0.68218 0.57216
 C520 C 0.06018 0.64294 0.56773
 C521 C 0.06772 0.64199 0.54402
 C522 C 0.07945 0.66148 0.53440
 C523 C 0.08392 0.68145 0.54832
 C524 C 0.09588 0.70068 0.53879
 C525 C 0.10091 0.72035 0.55291
 C526 C 0.09352 0.72106 0.57670
 H527 H 0.04750 0.64866 0.61232
 H528 H 0.07538 0.71853 0.62047
 H529 H 0.05132 0.62804 0.57548
 H530 H 0.08511 0.66126 0.51606
 H531 H 0.10171 0.70023 0.52047
 H532 H 0.09735 0.73637 0.58748
 C533 C 0.54813 1.06690 0.67138
 C534 C 0.54313 1.05646 0.64903
 C535 C 0.56035 1.04318 0.63718
 C536 C 0.58306 1.04273 0.64670
 C537 C 0.58830 1.05297 0.66853
 C538 C 0.57078 1.06468 0.68121
 C539 C 0.53085 1.07864 0.68465
 C540 C 0.53595 1.08719 0.70767
 C541 C 0.55847 1.08479 0.71701
 C542 C 0.57593 1.07383 0.70393
 C543 C 0.59840 1.07153 0.71350
 C544 C 0.61597 1.06001 0.70071
 C545 C 0.61076 1.05084 0.67818
 H546 H 0.52561 1.05725 0.64188
 H547 H 0.59702 1.03417 0.63717
 H548 H 0.51343 1.08057 0.67747
 H549 H 0.56251 1.09181 0.73450
 H550 H 0.60197 1.07827 0.73117
 H551 H 0.62416 1.04191 0.66815
 C552 C 0.42441 0.29696 0.96296
 C553 C 0.43478 0.31105 0.98047
 C554 C 0.45476 0.32459 0.97554
 C555 C 0.46431 0.32327 0.95240
 C556 C 0.45414 0.30906 0.93470
 C557 C 0.43417 0.29582 0.94004
 C558 C 0.40416 0.28419 0.96799
 C559 C 0.39387 0.26995 0.95051
 C560 C 0.40384 0.26859 0.92782
 C561 C 0.42379 0.28158 0.92240
 C562 C 0.43330 0.28075 0.89950
 C563 C 0.45313 0.29397 0.89385
 C564 C 0.46351 0.30802 0.91166
 H565 H 0.42662 0.31162 0.99772
 H566 H 0.47969 0.33321 0.94790
 H567 H 0.39649 0.28515 0.98555
 H568 H 0.39572 0.25790 0.91414
 H569 H 0.42496 0.27007 0.88599
 H570 H 0.47900 0.31807 0.90780
 C571 C 0.93223 0.45290 0.34202
 C572 C 0.94919 0.45419 0.36007
 C573 C 0.96961 0.44039 0.35918
 C574 C 0.97292 0.42583 0.33916
 C575 C 0.95617 0.42464 0.32088
 C576 C 0.93566 0.43799 0.32241
 C577 C 0.91170 0.46609 0.34353
 C578 C 0.89429 0.46446 0.32583
 C579 C 0.89790 0.44940 0.30633
 C580 C 0.91846 0.43624 0.30446
 C581 C 0.92184 0.42096 0.28517
 C582 C 0.94223 0.40742 0.28354
 C583 C 0.95948 0.40983 0.30130
 H584 H 0.94585 0.46548 0.37513
 H585 H 0.98855 0.41544 0.33743
 H586 H 0.90957 0.47762 0.35862
 H587 H 0.88470 0.44767 0.29264
 H588 H 0.90825 0.41923 0.27190
 H589 H 0.97547 0.39988 0.30025
 C590 C 0.31625 0.96502 0.42232
 C591 C 0.30033 0.97750 0.40839
 C592 C 0.28151 0.96620 0.39744
 C593 C 0.27810 0.94199 0.40137
 C594 C 0.29366 0.92925 0.41605
 C595 C 0.31314 0.94086 0.42611
 C596 C 0.33567 0.97649 0.43174
 C597 C 0.35300 0.96424 0.44453
 C598 C 0.34955 0.94000 0.44869
 C599 C 0.32971 0.92835 0.43966
 C600 C 0.32637 0.90431 0.44365
 C601 C 0.30678 0.89253 0.43433
 C602 C 0.29046 0.90512 0.42053
 H603 H 0.30337 0.99599 0.40508
 H604 H 0.26351 0.93316 0.39299
 H605 H 0.33717 0.99501 0.42816
 H606 H 0.36226 0.92998 0.45869
 H607 H 0.33895 0.89483 0.45441
 H608 H 0.27558 0.89606 0.41298
 O609 O 0.33699 0.51382 0.79512
 O610 O 0.33378 0.55394 0.78275
 O611 O 0.27194 0.49638 0.82317
 O612 O 0.23350 0.50435 0.81033
 O613 O 0.29994 0.45053 0.77342
 O614 O 0.30553 0.45184 0.73040
 O615 O 0.22262 0.54870 0.73842
 O616 O 0.22379 0.55230 0.77959
 O617 O 0.29036 0.56947 0.71518
 O618 O 0.33091 0.55672 0.72746
 O619 O 0.25908 0.51118 0.68967
 O620 O 0.25809 0.46762 0.70540
 O621 O 0.22494 0.51606 0.71513
 O622 O 0.22808 0.47464 0.72384
 O623 O 0.29165 0.53374 0.68976
 O624 O 0.33074 0.52868 0.70510
 O625 O 0.25725 0.57595 0.73622
 O626 O 0.25737 0.57729 0.78039
 O627 O 0.33722 0.48026 0.77289
 O628 O 0.33478 0.47341 0.73137
 O629 O 0.26882 0.45974 0.79648
 O630 O 0.23103 0.47183 0.78650
 O631 O 0.30181 0.52258 0.82202
 O632 O 0.30153 0.56205 0.80531
 Zr633 Zr 0.30544 0.53036 0.78584
 O634 O 0.29044 0.55007 0.75811
 Zr635 Zr 0.26049 0.49410 0.78709
 O636 O 0.24391 0.51158 0.75851
 Zr637 Zr 0.30596 0.48144 0.75306
 O638 O 0.29213 0.49966 0.72341
 Zr639 Zr 0.25390 0.54692 0.75876
 O640 O 0.26883 0.52988 0.78881
 Zr641 Zr 0.30074 0.53548 0.72565
 O642 O 0.31725 0.51669 0.75330
 Zr643 Zr 0.25575 0.49907 0.72537
 O644 O 0.26952 0.47894 0.75401
 O645 O 0.29645 0.49498 0.78574
 O646 O 0.26451 0.53433 0.72582
 C647 C 0.34638 0.49453 0.78805
 C648 C 0.28844 0.50837 0.83309
 C649 C 0.28452 0.44556 0.78928
 C650 C 0.21484 0.53499 0.72188
 C651 C 0.27268 0.58195 0.72097
 C652 C 0.27395 0.52475 0.67939
 H653 H 0.29527 0.56666 0.75970
 H654 H 0.29771 0.49255 0.70845
 H655 H 0.30390 0.48587 0.79869
 H656 H 0.22687 0.50998 0.76005
 H657 H 0.22861 0.55032 0.79643
 H658 H 0.22081 0.51098 0.80045
 H659 H 0.32916 0.51276 0.69826
 H660 H 0.34330 0.48834 0.72912
 H661 H 0.24548 0.58883 0.77517
 H662 H 0.31302 0.56227 0.81857
 H663 H 0.26985 0.46991 0.69281
 H664 H 0.28929 0.44611 0.73006
 H665 H 0.34398 0.54790 0.76999
 H666 H 0.32722 0.57072 0.73717
 H667 H 0.23234 0.46210 0.77197
 H668 H 0.21738 0.47844 0.73702
 O669 O 0.17175 0.03033 0.23451
 O670 O 0.17445 0.03079 0.27537
 O671 O 0.23386 0.06489 0.21001
 O672 O 0.27115 0.05832 0.20807
 O673 O 0.21238 -0.00688 0.18115
 O674 O 0.21305 -0.04424 0.19601
 O675 O 0.29364 0.01306 0.28115
 O676 O 0.28434 0.05151 0.27189
 O677 O 0.23475 -0.01774 0.31168
 O678 O 0.19398 -0.02088 0.30029
 O679 O 0.27255 -0.04932 0.26131
 O680 O 0.26987 -0.05025 0.21525
 O681 O 0.29891 -0.01712 0.25512
 O682 O 0.29276 -0.02266 0.21223
 O683 O 0.24128 -0.05117 0.28584
 O684 O 0.19758 -0.04812 0.27601
 O685 O 0.25960 0.01336 0.31023
 O686 O 0.25010 0.05398 0.29525
 O687 O 0.17606 -0.00221 0.21134
 O688 O 0.18758 -0.04279 0.22159
 O689 O 0.23421 0.02635 0.17891
 O690 O 0.27655 0.02650 0.19144
 O691 O 0.20417 0.06537 0.23661
 O692 O 0.20195 0.05854 0.27944
 Zr693 Zr 0.20387 0.03208 0.25284
 O694 O 0.22412 0.01598 0.27968
 Zr695 Zr 0.24740 0.03066 0.21391
 O696 O 0.26972 0.01563 0.23960
 Zr697 Zr 0.21040 -0.01398 0.21753
 O698 O 0.23169 -0.03182 0.24236
 Zr699 Zr 0.25928 0.02441 0.27431
 O700 O 0.23891 0.04211 0.24854
 Zr701 Zr 0.22249 -0.02073 0.27663
 O702 O 0.19975 -0.00464 0.25183
 Zr703 Zr 0.26638 -0.02103 0.23829
 O704 O 0.24558 -0.00609 0.21108
 O705 O 0.21251 0.02261 0.21821
 O706 O 0.25736 -0.01184 0.27278
 C707 C 0.16414 0.01524 0.21927
 C708 C 0.21779 0.07538 0.22168
 C709 C 0.22182 0.00992 0.16955
 C710 C 0.30601 -0.00334 0.27173
 C711 C 0.24913 -0.00335 0.32126
 C712 C 0.26132 -0.05811 0.27884
 H713 H 0.21882 0.02142 0.29546
 H714 H 0.23004 -0.04898 0.24049
 H715 H 0.20296 0.03091 0.20614
 H716 H 0.28586 0.02083 0.23662
 H717 H 0.27681 0.06450 0.26303
 H718 H 0.27987 0.06037 0.22314
 H719 H 0.20409 -0.06136 0.26682
 H720 H 0.17743 -0.03916 0.23528
 H721 H 0.26171 0.05546 0.30829
 H722 H 0.18935 0.06976 0.27525
 H723 H 0.26116 -0.06357 0.22214
 H724 H 0.22989 -0.04691 0.19372
 H725 H 0.16985 0.01411 0.27673
 H726 H 0.19249 -0.00487 0.30691
 H727 H 0.27459 0.01136 0.18301
 H728 H 0.30077 -0.00730 0.21212
 O729 O 0.53038 0.70816 0.23751
 O730 O 0.52132 0.72341 0.27606
 O731 O 0.46721 0.67890 0.21206
 O732 O 0.43079 0.69029 0.20475
 O733 O 0.50691 0.72610 0.16746
 O734 O 0.51153 0.76715 0.16592
 O735 O 0.41260 0.76153 0.25074
 O736 O 0.41426 0.72220 0.25768
 O737 O 0.47514 0.79076 0.27860
 O738 O 0.51432 0.78254 0.27482
 O739 O 0.45020 0.80903 0.21171
 O740 O 0.45352 0.79489 0.17359
 O741 O 0.41657 0.78017 0.21508
 O742 O 0.43042 0.76684 0.17299
 O743 O 0.47583 0.81292 0.24237
 O744 O 0.51967 0.79928 0.24003
 O745 O 0.44292 0.76802 0.28327
 O746 O 0.44440 0.72440 0.28705
 O747 O 0.53706 0.72872 0.20341
 O748 O 0.53386 0.77181 0.19560
 O749 O 0.47514 0.70266 0.17163
 O750 O 0.43294 0.71406 0.17676
 O751 O 0.49530 0.68195 0.24065
 O752 O 0.48635 0.70153 0.27978
 Zr753 Zr 0.49707 0.71826 0.24788
 O754 O 0.47952 0.74698 0.26285
 Zr755 Zr 0.45913 0.71380 0.20338
 O756 O 0.43892 0.74097 0.21769
 Zr757 Zr 0.50571 0.74802 0.19758
 O758 O 0.48672 0.77746 0.20988
 Zr759 Zr 0.44411 0.74374 0.25474
 O760 O 0.46138 0.71394 0.24089
 Zr761 Zr 0.48974 0.77875 0.24701
 O762 O 0.51023 0.75033 0.23465
 Zr763 Zr 0.45085 0.77295 0.20380
 O764 O 0.47022 0.74549 0.18780
 O765 O 0.49426 0.71622 0.21104
 O766 O 0.45425 0.77578 0.24049
 C767 C 0.54310 0.71395 0.21980
 C768 C 0.48249 0.67006 0.22617
 C769 C 0.49338 0.70951 0.16047
 C770 C 0.40493 0.77441 0.23371
 C771 C 0.45665 0.78478 0.28962
 C772 C 0.46024 0.82113 0.22808
 H773 H 0.48236 0.74717 0.28024
 H774 H 0.49239 0.79206 0.20239
 H775 H 0.50304 0.70287 0.20432
 H776 H 0.42244 0.73780 0.21371
 H777 H 0.41975 0.70575 0.25683
 H778 H 0.42083 0.69571 0.21792
 H779 H 0.51545 0.81141 0.22816
 H780 H 0.54169 0.77156 0.21134
 H781 H 0.43117 0.72987 0.29685
 H782 H 0.49592 0.68726 0.28232
 H783 H 0.47001 0.79466 0.16876
 H784 H 0.49662 0.76717 0.15703
 H785 H 0.52928 0.70832 0.27949
 H786 H 0.52404 0.76822 0.27450
 H787 H 0.43901 0.72335 0.16326
 H788 H 0.41643 0.75805 0.17799
 O789 O 0.01729 0.67529 0.75325
 O790 O -0.02263 0.68691 0.75700
 O791 O 0.04852 0.72429 0.70810
 O792 O 0.05259 0.76319 0.70574
 O793 O 0.08013 0.70919 0.77718
 O794 O 0.07039 0.72033 0.81753
 O795 O -0.00187 0.80622 0.75484
 O796 O -0.00010 0.78885 0.71724
 O797 O -0.04012 0.75847 0.79763
 O798 O -0.03574 0.71571 0.80564
 O799 O 0.02144 0.78744 0.82207
 O800 O 0.06421 0.77734 0.81613
 O801 O 0.02711 0.80941 0.78249
 O802 O 0.06662 0.79666 0.78673
 O803 O -0.00887 0.76280 0.82905
 O804 O -0.01065 0.71908 0.83109
 O805 O -0.03513 0.78115 0.76475
 O806 O -0.03115 0.76191 0.72470
 O807 O 0.04432 0.67936 0.78284
 O808 O 0.04326 0.69637 0.82155
 O809 O 0.08186 0.72851 0.74176
 O810 O 0.07681 0.77046 0.73450
 O811 O 0.01800 0.69986 0.71503
 O812 O -0.02274 0.70983 0.72318
 Zr813 Zr 0.00496 0.70995 0.74831
 O814 O -0.01500 0.73735 0.76321
 Zr815 Zr 0.04973 0.74565 0.73878
 O816 O 0.03192 0.77424 0.75353
 Zr817 Zr 0.04607 0.71569 0.78957
 O818 O 0.02770 0.74301 0.80651
 Zr819 Zr -0.00405 0.76970 0.74927
 O820 O 0.01388 0.74212 0.73202
 Zr821 Zr -0.00825 0.73971 0.79984
 O822 O 0.01000 0.71064 0.78544
 Zr823 Zr 0.03703 0.77495 0.79063
 O824 O 0.05733 0.74792 0.77549
 O825 O 0.04070 0.71348 0.75306
 O826 O 0.00126 0.77217 0.78586
 C827 C 0.03283 0.66704 0.76761
 C828 C 0.03474 0.70748 0.70215
 C829 C 0.09082 0.71576 0.75823
 C830 C 0.01178 0.81819 0.76841
 C831 C -0.04659 0.77479 0.78318
 C832 C 0.00385 0.78059 0.83429
 H833 H -0.03171 0.73475 0.75987
 H834 H 0.03124 0.74293 0.82374
 H835 H 0.04983 0.70082 0.74548
 H836 H 0.03738 0.78874 0.74567
 H837 H 0.00340 0.77722 0.70465
 H838 H 0.04302 0.77757 0.70677
 H839 H 0.00341 0.72207 0.84084
 H840 H 0.02683 0.69134 0.82267
 H841 H -0.04051 0.77638 0.72240
 H842 H -0.02280 0.69449 0.71480
 H843 H 0.05920 0.76905 0.83070
 H844 H 0.07949 0.73454 0.81357
 H845 H -0.02084 0.68284 0.77404
 H846 H -0.04503 0.71476 0.79081
 H847 H 0.08576 0.77072 0.74961
 H848 H 0.06747 0.80123 0.76977
 O849 O -0.01683 0.09141 0.00254
 O850 O -0.05661 0.08691 0.00243
 O851 O 0.00582 0.03695 0.05200
 O852 O 0.00094 -0.00169 0.05500
 O853 O 0.04278 0.04595 -0.01344
 O854 O 0.03475 0.03744 -0.05362
 O855 O -0.06143 -0.03148 -0.00104
 O856 O -0.05602 -0.01836 0.03694
 O857 O -0.08263 0.02229 -0.04468
 O858 O -0.07153 0.06104 -0.05028
 O859 O -0.02351 -0.01707 -0.06622
 O860 O 0.01523 -0.02208 -0.05304
 O861 O -0.03325 -0.04140 -0.02748
 O862 O 0.01089 -0.03845 -0.02252
 O863 O -0.04851 0.01270 -0.07499
 O864 O -0.04313 0.05555 -0.07389
 O865 O -0.08699 0.00396 -0.00896
 O866 O -0.07852 0.01686 0.03133
 O867 O 0.01335 0.08248 -0.02189
 O868 O 0.01158 0.06450 -0.06086
 O869 O 0.03880 0.02305 0.01948
 O870 O 0.02294 -0.01557 0.02793
 O871 O -0.01809 0.06766 0.04319
 O872 O -0.06085 0.06144 0.03430
 Zr873 Zr -0.03274 0.05933 0.00993
 O874 O -0.05635 0.03743 -0.00791
 Zr875 Zr 0.00322 0.01524 0.02161
 O876 O -0.01973 -0.00887 0.00534
 Zr877 Zr 0.00906 0.04607 -0.02829
 O878 O -0.01280 0.02271 -0.04688
 Zr879 Zr -0.05393 0.00366 0.00663
 O880 O -0.03147 0.02604 0.02607
 Zr881 Zr -0.04766 0.03353 -0.04389
 O882 O -0.02550 0.05816 -0.02683
 Zr883 Zr -0.01242 -0.01088 -0.03114
 O884 O 0.01212 0.01171 -0.01451
 O885 O 0.00198 0.04901 0.00768
 O886 O -0.04703 -0.00028 -0.02969
 C887 C 0.00064 0.09705 -0.01026
 C888 C -0.00398 0.05664 0.05704
 C889 C 0.05100 0.03462 0.00446
 C890 C -0.05138 -0.04611 -0.01497
 C891 C -0.09489 0.01201 -0.02870
 C892 C -0.03665 -0.00556 -0.08058
 H893 H -0.07209 0.04420 -0.00610
 H894 H -0.00734 0.02246 -0.06353
 H895 H 0.01305 0.05991 0.01549
 H896 H -0.01856 -0.02436 0.01321
 H897 H -0.05071 -0.00890 0.05071
 H898 H -0.01209 -0.01294 0.05383
 H899 H -0.02891 0.05035 -0.08222
 H900 H -0.00229 0.07474 -0.06200
 H901 H -0.09095 0.00496 0.03335
 H902 H -0.05798 0.07431 0.04582
 H903 H 0.01892 -0.00891 -0.06385
 H904 H 0.04039 0.02151 -0.04953
 H905 H -0.05496 0.09935 0.01470
 H906 H -0.06676 0.07410 -0.03971
 H907 H 0.03133 -0.01910 0.01302
 H908 H 0.00478 -0.04684 -0.00845
 O909 O 0.08229 0.50950 0.51909
 O910 O 0.08360 0.49994 0.47794
 O911 O 0.02464 0.55653 0.52456
 O912 O -0.01404 0.55552 0.51611
 O913 O 0.03486 0.50012 0.57351
 O914 O 0.02321 0.45895 0.57147
 O915 O -0.03281 0.49116 0.45837
 O916 O -0.02118 0.53106 0.46087
 O917 O 0.02224 0.44864 0.45028
 O918 O 0.06100 0.44826 0.46496
 O919 O -0.02123 0.43357 0.50617
 O920 O -0.02919 0.45079 0.54475
 O921 O -0.04306 0.46669 0.48865
 O922 O -0.04720 0.48025 0.53313
 O923 O 0.01219 0.42470 0.48662
 O924 O 0.05408 0.42827 0.49730
 O925 O 0.00147 0.48078 0.43879
 O926 O 0.01568 0.52225 0.44161
 O927 O 0.07098 0.48574 0.54955
 O928 O 0.05350 0.44809 0.55349
 O929 O 0.01185 0.53066 0.56208
 O930 O -0.02703 0.53153 0.54295
 O931 O 0.05773 0.54634 0.50490
 O932 O 0.05913 0.52998 0.46421
 Zr933 Zr 0.05317 0.51087 0.49614
 O934 O 0.03465 0.48952 0.47213
 Zr935 Zr 0.00493 0.52508 0.52560
 O936 O -0.01576 0.50438 0.50241
 Zr937 Zr 0.03591 0.47889 0.54257
 O938 O 0.01686 0.45616 0.52034
 Zr939 Zr 0.00043 0.50206 0.46914
 O940 O 0.01955 0.52504 0.49133
 Zr941 Zr 0.03161 0.45567 0.48609
 O942 O 0.05239 0.47619 0.50917
 Zr943 Zr -0.01682 0.46956 0.51492
 O944 O 0.00149 0.49097 0.53975
 O945 O 0.03868 0.51298 0.52989
 O946 O -0.00207 0.46769 0.48143
 C947 C 0.08601 0.49828 0.53864
 C948 C 0.04467 0.56127 0.51549
 C949 C 0.02427 0.51961 0.57757
 C950 C -0.04601 0.47566 0.46782
 C951 C 0.01012 0.46038 0.43501
 C952 C -0.00776 0.41927 0.49504
 H953 H 0.04253 0.48923 0.45650
 H954 H 0.01660 0.44044 0.52779
 H955 H 0.04816 0.52317 0.54039
 H956 H -0.03154 0.51107 0.50073
 H957 H -0.01215 0.54531 0.46496
 H958 H -0.02464 0.55109 0.50296
 H959 H 0.04696 0.42064 0.51130
 H960 H 0.06435 0.44399 0.54051
 H961 H 0.00497 0.52180 0.42772
 H962 H 0.07231 0.54097 0.46656
 H963 H -0.01609 0.44118 0.55077
 H964 H 0.00781 0.46555 0.57558
 H965 H 0.09579 0.51215 0.47976
 H966 H 0.07377 0.45815 0.47124
 H967 H -0.02980 0.51805 0.55369
 H968 H -0.05671 0.48990 0.52213
 O969 O 0.52435 0.04722 0.51229
 O970 O 0.48314 0.04947 0.50919
 O971 O 0.53396 -0.01514 0.55481
 O972 O 0.52719 -0.05369 0.55261
 O973 O 0.57440 -0.00200 0.49212
 O974 O 0.56702 -0.00952 0.45078
 O975 O 0.46162 -0.06716 0.49815
 O976 O 0.46651 -0.05497 0.53658
 O977 O 0.44838 -0.00521 0.45801
 O978 O 0.46583 0.03057 0.45338
 O979 O 0.49982 -0.05381 0.43331
 O980 O 0.53659 -0.06463 0.44351
 O981 O 0.48771 -0.07860 0.47007
 O982 O 0.53290 -0.08111 0.47545
 O983 O 0.47884 -0.02045 0.42739
 O984 O 0.49362 0.02192 0.43089
 O985 O 0.44026 -0.03014 0.48849
 O986 O 0.44832 -0.01748 0.53021
 O987 O 0.55108 0.03619 0.48464
 O988 O 0.54696 0.02117 0.44410
 O989 O 0.56697 -0.02614 0.52345
 O990 O 0.54647 -0.06579 0.52422
 O991 O 0.51776 0.02102 0.54995
 O992 O 0.47468 0.02271 0.54021
 Zr993 Zr 0.50212 0.01807 0.51549
 O994 O 0.47567 0.00163 0.49533
 Zr995 Zr 0.53075 -0.03224 0.52219
 O996 O 0.50445 -0.05088 0.50438
 Zr997 Zr 0.54174 0.00153 0.47557
 O998 O 0.51710 -0.01680 0.45497
 Zr999 Zr 0.47244 -0.03325 0.50662
 O1000 O 0.49804 -0.01655 0.52800
 Zr1001 Zr 0.48451 -0.00086 0.45914
 O1002 O 0.50955 0.01880 0.47857
 Zr1003 Zr 0.51238 -0.05107 0.46809
 O1004 O 0.54004 -0.03395 0.48618
 O1005 O 0.53442 0.00239 0.51164
 O1006 O 0.47978 -0.03534 0.47034
 C1007 C 0.54230 0.05105 0.49928
 C1008 C 0.52942 0.00569 0.56203
 C1009 C 0.58063 -0.01342 0.51078
 C1010 C 0.46963 -0.08194 0.48309
 C1011 C 0.43432 -0.01754 0.47048
 C1012 C 0.48701 -0.04039 0.42050
 H1013 H 0.46095 0.01039 0.49744
 H1014 H 0.52226 -0.01688 0.43821
 H1015 H 0.54636 0.01103 0.52083
 H1016 H 0.50343 -0.06687 0.51117
 H1017 H 0.47285 -0.04652 0.55058
 H1018 H 0.51063 -0.05826 0.55320
 H1019 H 0.50430 0.01334 0.42023
 H1020 H 0.53497 0.03364 0.44388
 H1021 H 0.43433 -0.02765 0.53084
 H1022 H 0.47920 0.03497 0.55186
 H1023 H 0.54497 -0.05098 0.43688
 H1024 H 0.57120 -0.02585 0.45507
 H1025 H 0.48672 0.06080 0.52212
 H1026 H 0.47050 0.04130 0.46640
 H1027 H 0.55798 -0.06666 0.51120
 H1028 H 0.52480 -0.09053 0.48766
 O1029 O 0.48615 0.40620 0.02854
 O1030 O 0.49384 0.42190 0.06819
 O1031 O 0.46377 0.46352 -0.01331
 O1032 O 0.47665 0.50053 -0.02067
 O1033 O 0.52063 0.42017 -0.03750
 O1034 O 0.56073 0.41694 -0.02702
 O1035 O 0.53746 0.52750 0.03547
 O1036 O 0.49717 0.52672 0.03142
 O1037 O 0.55534 0.47096 0.07992
 O1038 O 0.54411 0.42643 0.07803
 O1039 O 0.58965 0.48427 0.01901
 O1040 O 0.58272 0.47076 -0.02459
 O1041 O 0.56425 0.51701 0.00770
 O1042 O 0.56242 0.49942 -0.03198
 O1043 O 0.58613 0.45964 0.05064
 O1044 O 0.57331 0.42143 0.05766
 O1045 O 0.53364 0.50371 0.07301
 O1046 O 0.49063 0.50183 0.06515
 O1047 O 0.51310 0.39581 0.00080
 O1048 O 0.55554 0.39724 0.00478
 O1049 O 0.49696 0.45144 -0.04483
 O1050 O 0.50624 0.49375 -0.04394
 O1051 O 0.46027 0.44243 0.02096
 O1052 O 0.46954 0.45541 0.06102
 Zr1053 Zr 0.49363 0.44163 0.03609
 O1054 O 0.51732 0.46301 0.05475
 Zr1055 Zr 0.49974 0.47242 -0.01384
 O1056 O 0.52368 0.49523 0.00302
 Zr1057 Zr 0.53381 0.42616 -0.00331
 O1058 O 0.55929 0.44690 0.01360
 Zr1059 Zr 0.51744 0.49679 0.03984
 O1060 O 0.49172 0.47614 0.02254
 Zr1061 Zr 0.55099 0.44992 0.04972
 O1062 O 0.52710 0.42693 0.03331
 Zr1063 Zr 0.55755 0.48144 0.00058
 O1064 O 0.53394 0.45990 -0.01872
 O1065 O 0.50011 0.43876 -0.00018
 O1066 O 0.55118 0.48416 0.03679
 C1067 C 0.49534 0.39150 0.01396
 C1068 C 0.45182 0.45162 0.00189
 C1069 C 0.50654 0.43186 -0.05071
 C1070 C 0.55500 0.53186 0.02201
 C1071 C 0.54770 0.49130 0.08572
 C1072 C 0.59750 0.47446 0.03808
 H1073 H 0.51297 0.46347 0.07176
 H1074 H 0.57487 0.43995 0.01139
 H1075 H 0.48866 0.42880 -0.00863
 H1076 H 0.52251 0.51100 -0.00425
 H1077 H 0.48142 0.52091 0.02732
 H1078 H 0.48302 0.51440 -0.01233
 H1079 H 0.57887 0.41509 0.04233
 H1080 H 0.55165 0.39221 0.02116
 H1081 H 0.49374 0.51679 0.07361
 H1082 H 0.45647 0.44421 0.06281
 H1083 H 0.59354 0.45971 -0.01664
 H1084 H 0.56375 0.43104 -0.03681
 H1085 H 0.47910 0.41295 0.06936
 H1086 H 0.53431 0.43478 0.08972
 H1087 H 0.52029 0.48735 -0.05171
 H1088 H 0.54959 0.51088 -0.03365
 O1089 O 0.80397 0.24213 0.48041
 O1090 O 0.78620 0.20377 0.48270
 O1091 O 0.75638 0.28475 0.44376
 O1092 O 0.71944 0.29639 0.44666
 O1093 O 0.78452 0.30734 0.51228
 O1094 O 0.77738 0.29597 0.55269
 O1095 O 0.67475 0.23991 0.49904
 O1096 O 0.68587 0.24730 0.45891
 O1097 O 0.71883 0.19503 0.52998
 O1098 O 0.75917 0.18991 0.53234
 O1099 O 0.70592 0.25958 0.56376
 O1100 O 0.71817 0.30030 0.55716
 O1101 O 0.67867 0.26676 0.52884
 O1102 O 0.69730 0.30696 0.52929
 O1103 O 0.72489 0.22454 0.56500
 O1104 O 0.76641 0.21481 0.56037
 O1105 O 0.69575 0.20392 0.49819
 O1106 O 0.70969 0.21194 0.45759
 O1107 O 0.80817 0.26902 0.51016
 O1108 O 0.79570 0.26375 0.55149
 O1109 O 0.76224 0.31601 0.47983
 O1110 O 0.71929 0.31816 0.47831
 O1111 O 0.77575 0.24982 0.44510
 O1112 O 0.75891 0.21089 0.45177
 Zr1113 Zr 0.76779 0.23584 0.47847
 O1114 O 0.73991 0.21915 0.49560
 Zr1115 Zr 0.73942 0.28708 0.47692
 O1116 O 0.71016 0.27216 0.49356
 Zr1117 Zr 0.77396 0.27375 0.52274
 O1118 O 0.74616 0.25882 0.54161
 Zr1119 Zr 0.70872 0.23609 0.48633
 O1120 O 0.73628 0.25151 0.46722
 Zr1121 Zr 0.74283 0.22314 0.53250
 O1122 O 0.77255 0.23749 0.51560
 Zr1123 Zr 0.71460 0.27415 0.53063
 O1124 O 0.74284 0.29137 0.51402
 O1125 O 0.77067 0.27146 0.48604
 O1126 O 0.71133 0.23853 0.52327
 C1127 C 0.81627 0.25615 0.49333
 C1128 C 0.76944 0.26878 0.43461
 C1129 C 0.77833 0.32079 0.49507
 C1130 C 0.66665 0.25233 0.51617
 C1131 C 0.70198 0.19058 0.51541
 C1132 C 0.71163 0.24029 0.57405
 H1133 H 0.73970 0.20235 0.49110
 H1134 H 0.74905 0.26109 0.55881
 H1135 H 0.78343 0.27921 0.47732
 H1136 H 0.69572 0.28002 0.48820
 H1137 H 0.69564 0.25044 0.44481
 H1138 H 0.70394 0.28917 0.44863
 H1139 H 0.76849 0.22907 0.57018
 H1140 H 0.80052 0.24733 0.54850
 H1141 H 0.69383 0.20542 0.45541
 H1142 H 0.77213 0.20898 0.44068
 H1143 H 0.73027 0.29494 0.56851
 H1144 H 0.76481 0.30778 0.55139
 H1145 H 0.79801 0.20245 0.46997
 H1146 H 0.77354 0.19170 0.52292
 H1147 H 0.72198 0.32518 0.49421
 H1148 H 0.68729 0.30720 0.51491
 O1149 O 0.80999 0.73749 -0.03180
 O1150 O 0.79575 0.69934 -0.03073
 O1151 O 0.75619 0.77709 -0.06597
 O1152 O 0.72047 0.78803 -0.06051
 O1153 O 0.78633 0.80216 0.00337
 O1154 O 0.78542 0.78962 0.04184
 O1155 O 0.68232 0.72546 -0.00616
 O1156 O 0.69065 0.73232 -0.04689
 O1157 O 0.73196 0.68539 0.02390
 O1158 O 0.77234 0.68449 0.02748
 O1159 O 0.71306 0.75000 0.05505
 O1160 O 0.72223 0.79065 0.04859
 O1161 O 0.68521 0.75434 0.02173
 O1162 O 0.70197 0.79625 0.01984
 O1163 O 0.73343 0.71587 0.05689
 O1164 O 0.77900 0.71208 0.05075
 O1165 O 0.70660 0.69128 -0.00676
 O1166 O 0.71795 0.69981 -0.04896
 O1167 O 0.81352 0.76516 -0.00271
 O1168 O 0.80265 0.75745 0.04013
 O1169 O 0.76278 0.80867 -0.02866
 O1170 O 0.71844 0.80643 -0.02925
 O1171 O 0.77950 0.74477 -0.06614
 O1172 O 0.76648 0.70337 -0.05783
 Zr1173 Zr 0.77421 0.72948 -0.03203
 O1174 O 0.74894 0.71061 -0.01251
 Zr1175 Zr 0.74209 0.77806 -0.03174
 O1176 O 0.71473 0.76068 -0.01441
 Zr1177 Zr 0.77981 0.76740 0.01224
 O1178 O 0.75349 0.75161 0.03270
 Zr1179 Zr 0.71596 0.72431 -0.02060
 O1180 O 0.74096 0.74225 -0.04141
 Zr1181 Zr 0.75270 0.71572 0.02448
 O1182 O 0.78033 0.73133 0.00506
 Zr1183 Zr 0.72058 0.76424 0.02214
 O1184 O 0.74717 0.78292 0.00492
 O1185 O 0.77504 0.76519 -0.02444
 O1186 O 0.71986 0.72829 0.01597
 C1187 C 0.82187 0.75243 -0.01961
 C1188 C 0.77021 0.76285 -0.07619
 C1189 C 0.77814 0.81513 -0.01320
 C1190 C 0.67385 0.73835 0.01046
 C1191 C 0.71471 0.67919 0.01072
 C1192 C 0.71879 0.73088 0.06532
 H1193 H 0.74987 0.69378 -0.01675
 H1194 H 0.75657 0.75439 0.04981
 H1195 H 0.78668 0.77400 -0.03378
 H1196 H 0.69954 0.76721 -0.01945
 H1197 H 0.69930 0.73668 -0.06142
 H1198 H 0.70933 0.77500 -0.06278
 H1199 H 0.77501 0.72246 0.06423
 H1200 H 0.81033 0.74269 0.03518
 H1201 H 0.70295 0.69126 -0.04973
 H1202 H 0.77900 0.70330 -0.06991
 H1203 H 0.73535 0.78678 0.05935
 H1204 H 0.77063 0.79811 0.04441
 H1205 H 0.80139 0.69787 -0.01411
 H1206 H 0.77533 0.67901 0.01108
 H1207 H 0.72305 0.81574 -0.01511
 H1208 H 0.68971 0.79447 0.00755
 O1209 O 1.04210 0.23141 0.26224
 O1210 O 1.02746 0.24674 0.29996
 O1211 O 0.98583 0.19071 0.23545
 O1212 O 0.94600 0.19689 0.23186
 O1213 O 1.01636 0.24031 0.18965
 O1214 O 1.01522 0.28337 0.18754
 O1215 O 0.91705 0.27009 0.26672
 O1216 O 0.92202 0.22861 0.27334
 O1217 O 0.97206 0.30393 0.29831
 O1218 O 1.01755 0.29634 0.29501
 O1219 O 0.95286 0.31864 0.22879
 O1220 O 0.96241 0.29868 0.18891
 O1221 O 0.92202 0.28910 0.23142
 O1222 O 0.93496 0.27594 0.19226
 O1223 O 0.97769 0.32565 0.25966
 O1224 O 1.01717 0.31966 0.26684
 O1225 O 0.94194 0.27806 0.29951
 O1226 O 0.94878 0.23550 0.30612
 O1227 O 1.04586 0.24940 0.22615
 O1228 O 1.03930 0.28858 0.21502
 O1229 O 0.98844 0.21257 0.19530
 O1230 O 0.94755 0.21726 0.19725
 O1231 O 1.01064 0.19884 0.26617
 O1232 O 0.99801 0.21736 0.30296
 Zr1233 Zr 1.00656 0.23519 0.27095
 O1234 O 0.98354 0.26086 0.28413
 Zr1235 Zr 0.97104 0.22339 0.22574
 O1236 O 0.94703 0.24932 0.23614
 Zr1237 Zr 1.01270 0.26333 0.21912
 O1238 O 0.99113 0.29084 0.23083
 Zr1239 Zr 0.94932 0.25353 0.27306
 O1240 O 0.97180 0.22589 0.26290
 Zr1241 Zr 0.99165 0.29299 0.26830
 O1242 O 1.01587 0.26786 0.25628
 Zr1243 Zr 0.95660 0.28227 0.22218
 O1244 O 0.97846 0.25557 0.20869
 O1245 O 1.00533 0.23106 0.23416
 O1246 O 0.95738 0.28615 0.25893
 C1247 C 1.05406 0.23806 0.24409
 C1248 C 1.00120 0.18472 0.25114
 C1249 C 1.00524 0.22156 0.18361
 C1250 C 0.91005 0.28371 0.24980
 C1251 C 0.95272 0.29633 0.30685
 C1252 C 0.96225 0.33213 0.24450
 H1253 H 0.98467 0.26156 0.30170
 H1254 H 0.99603 0.30577 0.22345
 H1255 H 1.01633 0.21905 0.22831
 H1256 H 0.93110 0.24481 0.23127
 H1257 H 0.92945 0.21298 0.27475
 H1258 H 0.93094 0.20472 0.23484
 H1259 H 1.02166 0.32136 0.24997
 H1260 H 1.04414 0.29322 0.23129
 H1261 H 0.93375 0.23902 0.31393
 H1262 H 1.01091 0.20662 0.30738
 H1263 H 0.97373 0.31153 0.19137
 H1264 H 1.00144 0.27944 0.17769
 H1265 H 1.03876 0.23421 0.30409
 H1266 H 1.01086 0.29065 0.31014
 H1267 H 0.94953 0.23040 0.18590
 H1268 H 0.92497 0.26233 0.19604
 O1269 O 0.70817 1.03625 0.74222
 O1270 O 0.71525 1.02304 0.78194
 O1271 O 0.77376 1.05876 0.71743
 O1272 O 0.81024 1.04423 0.71646
 O1273 O 0.73449 1.01230 0.67368
 O1274 O 0.72420 0.97255 0.67457
 O1275 O 0.81925 0.97167 0.76451
 O1276 O 0.82229 1.01241 0.76791
 O1277 O 0.75470 0.95133 0.78960
 O1278 O 0.71630 0.96404 0.78418
 O1279 O 0.77650 0.92750 0.72308
 O1280 O 0.77862 0.94457 0.68308
 O1281 O 0.81250 0.94912 0.73168
 O1282 O 0.80768 0.96385 0.68846
 O1283 O 0.75221 0.92762 0.75483
 O1284 O 0.71001 0.94548 0.75015
 O1285 O 0.78887 0.97102 0.79438
 O1286 O 0.79121 1.01461 0.79663
 O1287 O 0.70140 1.01517 0.70841
 O1288 O 0.70037 0.97244 0.70221
 O1289 O 0.76836 1.03253 0.67850
 O1290 O 0.80788 1.01910 0.68752
 O1291 O 0.74463 1.05984 0.74477
 O1292 O 0.75222 1.04191 0.78548
 Zr1293 Zr 0.74038 1.02425 0.75441
 O1294 O 0.75458 0.99474 0.77175
 Zr1295 Zr 0.78051 1.02278 0.71230
 O1296 O 0.79730 0.99410 0.72852
 Zr1297 Zr 0.73094 0.99285 0.70531
 O1298 O 0.74600 0.96232 0.72012
 Zr1299 Zr 0.79041 0.99400 0.76517
 O1300 O 0.77660 1.02476 0.74944
 Zr1301 Zr 0.74166 0.96333 0.75713
 O1302 O 0.72469 0.99293 0.74212
 Zr1303 Zr 0.78226 0.96301 0.71558
 O1304 O 0.76681 0.99165 0.69762
 O1305 O 0.74488 1.02401 0.71769
 O1306 O 0.77728 0.96258 0.75202
 C1307 C 0.69578 1.03077 0.72404
 C1308 C 0.75854 1.06972 0.72995
 C1309 C 0.75042 1.02636 0.66639
 C1310 C 0.82414 0.95461 0.75049
 C1311 C 0.77368 0.95577 0.80073
 C1312 C 0.76597 0.91719 0.74021
 H1313 H 0.75130 0.99572 0.78900
 H1314 H 0.73890 0.94814 0.71300
 H1315 H 0.73751 1.03741 0.70938
 H1316 H 0.81422 0.99475 0.72558
 H1317 H 0.81847 1.02932 0.76671
 H1318 H 0.82122 1.03553 0.72680
 H1319 H 0.71320 0.93276 0.73864
 H1320 H 0.69269 0.97292 0.71793
 H1321 H 0.80398 1.00861 0.80690
 H1322 H 0.74402 1.05716 0.78674
 H1323 H 0.76262 0.93823 0.68246
 H1324 H 0.73956 0.96877 0.66769
 H1325 H 0.70886 1.03905 0.78430
 H1326 H 0.70746 0.97878 0.78188
 H1327 H 0.80298 1.00692 0.67598
 H1328 H 0.82204 0.97076 0.69523
 O1329 O 0.76277 0.59668 0.25196
 O1330 O 0.80108 0.58413 0.26028
 O1331 O 0.72962 0.54017 0.21719
 O1332 O 0.72173 0.50255 0.22382
 O1333 O 0.69759 0.57527 0.27675
 O1334 O 0.70124 0.57157 0.31850
 O1335 O 0.77426 0.46943 0.28616
 O1336 O 0.77504 0.47694 0.24587
 O1337 O 0.80985 0.52445 0.32007
 O1338 O 0.80842 0.56655 0.31907
 O1339 O 0.74417 0.50475 0.34476
 O1340 O 0.70548 0.51072 0.33353
 O1341 O 0.74353 0.47376 0.31121
 O1342 O 0.70226 0.49006 0.30464
 O1343 O 0.77702 0.52676 0.34781
 O1344 O 0.77981 0.57141 0.34006
 O1345 O 0.80871 0.49591 0.29179
 O1346 O 0.80622 0.50493 0.24794
 O1347 O 0.73520 0.60139 0.28062
 O1348 O 0.73135 0.59180 0.32266
 O1349 O 0.69478 0.54684 0.24842
 O1350 O 0.69794 0.50254 0.25217
 O1351 O 0.76149 0.56369 0.22003
 O1352 O 0.80133 0.55345 0.23400
 Zr1353 Zr 0.77239 0.56118 0.25594
 O1354 O 0.78945 0.53769 0.27928
 Zr1355 Zr 0.72571 0.52692 0.25187
 O1356 O 0.74151 0.50145 0.27379
 Zr1357 Zr 0.72891 0.56762 0.29419
 O1358 O 0.74333 0.54359 0.31851
 Zr1359 Zr 0.77803 0.50344 0.27213
 O1360 O 0.76218 0.52666 0.24728
 Zr1361 Zr 0.77954 0.54393 0.31467
 O1362 O 0.76522 0.56967 0.29176
 Zr1363 Zr 0.73347 0.50925 0.30931
 O1364 O 0.71594 0.53370 0.28725
 O1365 O 0.73640 0.56096 0.25869
 O1366 O 0.76959 0.50952 0.30760
 C1367 C 0.74808 0.60910 0.26371
 C1368 C 0.74465 0.55426 0.20826
 C1369 C 0.68703 0.56496 0.25956
 C1370 C 0.75945 0.46145 0.30118
 C1371 C 0.81805 0.50616 0.30990
 C1372 C 0.76201 0.51229 0.35618
 H1373 H 0.80648 0.53902 0.27721
 H1374 H 0.73849 0.54769 0.33485
 H1375 H 0.72898 0.57223 0.24760
 H1376 H 0.73599 0.48571 0.26895
 H1377 H 0.77246 0.48507 0.23049
 H1378 H 0.73365 0.49031 0.22646
 H1379 H 0.76718 0.56844 0.35156
 H1380 H 0.74755 0.59764 0.32288
 H1381 H 0.81541 0.49031 0.24983
 H1382 H 0.80269 0.56592 0.22174
 H1383 H 0.70530 0.52673 0.34030
 H1384 H 0.69136 0.55744 0.31680
 H1385 H 0.79947 0.59157 0.27611
 H1386 H 0.81738 0.56611 0.30411
 H1387 H 0.68693 0.50777 0.26458
 H1388 H 0.70513 0.47774 0.29259
 O1389 O 0.54649 0.19030 0.75727
 O1390 O 0.53760 0.20250 0.79523
 O1391 O 0.48351 0.16547 0.72669
 O1392 O 0.44635 0.17853 0.72557
 O1393 O 0.52346 0.21202 0.68661
 O1394 O 0.53129 0.25226 0.68691
 O1395 O 0.43222 0.25190 0.77112
 O1396 O 0.43016 0.21204 0.77607
 O1397 O 0.49568 0.27459 0.80005
 O1398 O 0.53598 0.26424 0.79509
 O1399 O 0.47447 0.29661 0.73195
 O1400 O 0.47582 0.28031 0.69273
 O1401 O 0.43848 0.27163 0.73644
 O1402 O 0.44888 0.25780 0.69452
 O1403 O 0.49929 0.29761 0.76356
 O1404 O 0.54162 0.28085 0.76323
 O1405 O 0.46233 0.25356 0.80428
 O1406 O 0.46041 0.20967 0.80553
 O1407 O 0.55392 0.21159 0.72376
 O1408 O 0.55375 0.25413 0.71601
 O1409 O 0.48976 0.19126 0.68938
 O1410 O 0.44884 0.20356 0.69599
 O1411 O 0.50836 0.16564 0.75841
 O1412 O 0.50233 0.18461 0.79858
 Zr1413 Zr 0.51317 0.20156 0.76690
 O1414 O 0.49744 0.23094 0.78292
 Zr1415 Zr 0.47533 0.20108 0.72222
 O1416 O 0.45698 0.22936 0.73723
 Zr1417 Zr 0.52395 0.23248 0.71779
 O1418 O 0.50727 0.26267 0.73109
 Zr1419 Zr 0.46193 0.23073 0.77440
 O1420 O 0.47727 0.20004 0.75976
 Zr1421 Zr 0.51004 0.26243 0.76829
 O1422 O 0.52843 0.23315 0.75490
 Zr1423 Zr 0.47132 0.26072 0.72438
 O1424 O 0.48855 0.23240 0.70775
 O1425 O 0.51063 0.20099 0.72998
 O1426 O 0.47453 0.26239 0.76126
 C1427 C 0.55957 0.19651 0.73995
 C1428 C 0.49689 0.15516 0.74176
 C1429 C 0.50840 0.19736 0.67851
 C1430 C 0.42625 0.26657 0.75482
 C1431 C 0.47702 0.26928 0.81116
 C1432 C 0.48525 0.30743 0.74868
 H1433 H 0.49995 0.23018 0.80035
 H1434 H 0.51419 0.27696 0.72411
 H1435 H 0.51895 0.18766 0.72263
 H1436 H 0.44029 0.22786 0.73320
 H1437 H 0.43412 0.19520 0.77442
 H1438 H 0.43459 0.18715 0.73491
 H1439 H 0.53927 0.29236 0.75025
 H1440 H 0.56081 0.25416 0.73212
 H1441 H 0.44766 0.21573 0.81563
 H1442 H 0.51131 0.16983 0.80041
 H1443 H 0.49227 0.28530 0.69214
 H1444 H 0.51616 0.25497 0.67886
 H1445 H 0.54712 0.21678 0.79285
 H1446 H 0.53236 0.25204 0.80704
 H1447 H 0.45455 0.21435 0.68351
 H1448 H 0.43475 0.24931 0.69960
 O1449 O 0.21657 0.77082 0.55582
 O1450 O 0.22856 0.80690 0.54118
 O1451 O 0.17312 0.74258 0.50115
 O1452 O 0.17737 0.73595 0.45936
 O1453 O 0.22624 0.69831 0.53093
 O1454 O 0.26645 0.69631 0.52839
 O1455 O 0.24551 0.77563 0.42584
 O1456 O 0.20708 0.78288 0.43331
 O1457 O 0.28606 0.80277 0.47872
 O1458 O 0.28565 0.80245 0.52241
 O1459 O 0.29594 0.73429 0.45843
 O1460 O 0.27720 0.69708 0.46644
 O1461 O 0.26287 0.73976 0.42860
 O1462 O 0.24966 0.70057 0.44448
 O1463 O 0.30633 0.76459 0.48260
 O1464 O 0.30068 0.77055 0.52716
 O1465 O 0.25632 0.80903 0.45262
 O1466 O 0.21388 0.81330 0.46241
 O1467 O 0.23530 0.73565 0.55914
 O1468 O 0.27566 0.72560 0.54851
 O1469 O 0.19678 0.70253 0.50403
 O1470 O 0.19686 0.70601 0.46040
 O1471 O 0.18268 0.77282 0.52585
 O1472 O 0.20124 0.81025 0.51125
 Zr1473 Zr 0.21853 0.77831 0.51936
 O1474 O 0.24316 0.79108 0.49482
 Zr1475 Zr 0.20456 0.73330 0.48471
 O1476 O 0.22753 0.74490 0.45820
 Zr1477 Zr 0.24728 0.72774 0.52451
 O1478 O 0.27229 0.73778 0.49929
 Zr1479 Zr 0.23281 0.78139 0.46036
 O1480 O 0.20680 0.77029 0.48471
 Zr1481 Zr 0.27543 0.77446 0.49988
 O1482 O 0.25180 0.76425 0.52666
 Zr1483 Zr 0.26032 0.73007 0.46470
 O1484 O 0.23687 0.71680 0.49018
 O1485 O 0.21453 0.74200 0.51908
 O1486 O 0.26545 0.76624 0.46526
 C1487 C 0.22393 0.75314 0.56787
 C1488 C 0.16814 0.75804 0.51694
 C1489 C 0.20736 0.69144 0.52087
 C1490 C 0.25658 0.75813 0.41693
 C1491 C 0.27649 0.81386 0.46138
 C1492 C 0.31079 0.74889 0.46685
 H1493 H 0.24433 0.80834 0.49622
 H1494 H 0.28718 0.72986 0.50293
 H1495 H 0.20346 0.73610 0.53110
 H1496 H 0.22120 0.74055 0.44240
 H1497 H 0.19187 0.78234 0.44141
 H1498 H 0.17274 0.75266 0.45877
 H1499 H 0.30777 0.75481 0.52549
 H1500 H 0.27809 0.74158 0.55496
 H1501 H 0.21673 0.82223 0.44755
 H1502 H 0.19031 0.81388 0.52434
 H1503 H 0.28764 0.69726 0.48049
 H1504 H 0.26468 0.68772 0.51318
 H1505 H 0.24478 0.80382 0.54626
 H1506 H 0.27479 0.81566 0.51967
 H1507 H 0.20875 0.69367 0.46291
 H1508 H 0.23722 0.70572 0.43341
 O1509 O 0.29957 0.23192 0.96743
 O1510 O 0.28366 0.19543 0.98025
 O1511 O 0.24552 0.26481 0.92817
 O1512 O 0.20668 0.27066 0.93407
 O1513 O 0.28016 0.30472 0.98022
 O1514 O 0.28000 0.30594 1.02263
 O1515 O 0.17528 0.23347 1.00592
 O1516 O 0.18030 0.22677 0.96519
 O1517 O 0.22836 0.20076 1.04254
 O1518 O 0.26925 0.19755 1.03691
 O1519 O 0.21270 0.26856 1.05735
 O1520 O 0.22294 0.30731 1.03916
 O1521 O 0.18177 0.26771 1.02588
 O1522 O 0.19815 0.30649 1.01360
 O1523 O 0.23442 0.23597 1.06475
 O1524 O 0.27785 0.23051 1.05586
 O1525 O 0.19949 0.19861 1.01473
 O1526 O 0.20596 0.19374 0.97151
 O1527 O 0.30659 0.26590 0.98772
 O1528 O 0.30002 0.27579 1.02913
 O1529 O 0.25124 0.30259 0.95245
 O1530 O 0.20900 0.30213 0.95750
 O1531 O 0.26780 0.23236 0.93497
 O1532 O 0.25165 0.19558 0.95366
 Zr1533 Zr 0.26393 0.22588 0.97184
 O1534 O 0.24119 0.21370 0.99839
 Zr1535 Zr 0.23167 0.27311 0.96173
 O1536 O 0.20711 0.26254 0.98713
 Zr1537 Zr 0.27404 0.27527 1.00237
 O1538 O 0.25113 0.26526 1.02982
 Zr1539 Zr 0.20755 0.22581 0.99068
 O1540 O 0.22990 0.23625 0.96274
 Zr1541 Zr 0.24963 0.22848 1.03151
 O1542 O 0.27441 0.23842 1.00566
 Zr1543 Zr 0.21711 0.27539 1.02075
 O1544 O 0.24046 0.28817 0.99483
 O1545 O 0.26532 0.26226 0.96913
 O1546 O 0.21585 0.23915 1.02412
 C1547 C 0.31303 0.24839 0.97478
 C1548 C 0.25962 0.24865 0.92139
 C1549 C 0.26926 0.31231 0.96165
 C1550 C 0.16877 0.25060 1.01917
 C1551 C 0.20953 0.19194 1.03406
 C1552 C 0.22003 0.25203 1.07109
 H1553 H 0.24174 0.19635 0.99908
 H1554 H 0.25618 0.27215 1.04513
 H1555 H 0.27662 0.26780 0.95718
 H1556 H 0.19151 0.26816 0.98230
 H1557 H 0.18774 0.22603 0.94935
 H1558 H 0.19203 0.26519 0.94133
 H1559 H 0.27626 0.24521 1.06508
 H1560 H 0.30426 0.25922 1.03221
 H1561 H 0.19067 0.18636 0.97471
 H1562 H 0.26248 0.19176 0.94056
 H1563 H 0.23590 0.30481 1.05053
 H1564 H 0.26551 0.31528 1.02161
 H1565 H 0.29308 0.19101 0.96620
 H1566 H 0.28200 0.19797 1.02516
 H1567 H 0.21344 0.31381 0.96975
 H1568 H 0.18672 0.30294 1.00087
 N1569 N 0.27117 0.41731 0.81985
 N1570 N 0.27441 0.39515 0.82588
 C1571 C 0.28983 0.38543 0.81079
 C1572 C 0.29677 0.40252 0.79445
 C1573 C 0.28446 0.42237 0.80086
 H1574 H 0.30869 0.40091 0.77973
 H1575 H 0.26001 0.42874 0.82877
 H1576 H 0.26616 0.38723 0.84029
 N1577 N 0.29682 -0.07429 0.29628
 N1578 N 0.30452 -0.09615 0.30379
 C1579 C 0.28590 -0.11045 0.30498
 C1580 C 0.26590 -0.09803 0.29878
 C1581 C 0.27376 -0.07578 0.29269
 H1582 H 0.24889 -0.10528 0.29494
 H1583 H 0.30767 -0.06039 0.29151
 H1584 H 0.32200 -0.10102 0.30504
 N1585 N 0.78245 0.87988 0.72604
 N1586 N 0.79349 0.86068 0.73638
 C1587 C 0.78916 0.86101 0.75994
 C1588 C 0.77479 0.88023 0.76502
 C1589 C 0.77175 0.89207 0.74336
 H1590 H 0.77035 0.88674 0.78251
 H1591 H 0.78489 0.88523 0.70845
 H1592 H 0.80384 0.84879 0.72706
 N1593 N 0.43771 0.85680 0.21623
 N1594 N 0.43033 0.87645 0.22622
 C1595 C 0.43956 0.87824 0.24830
 C1596 C 0.45383 0.85876 0.25219
 C1597 C 0.45202 0.84554 0.23149
 H1598 H 0.46292 0.85392 0.26834
 H1599 H 0.43235 0.85088 0.19948
 H1600 H 0.41884 0.88810 0.21795
 N1601 N 0.02731 0.85782 0.77600
 N1602 N 0.01786 0.87982 0.78063
 C1603 C -0.00520 0.87868 0.77604
 C1604 C -0.01057 0.85637 0.76739
 C1605 C 0.00997 0.84378 0.76852
 H1606 H -0.02763 0.84909 0.76414
 H1607 H 0.04433 0.85283 0.78019
 H1608 H 0.02744 0.89385 0.78746
 N1609 N -0.08128 -0.07631 -0.00546
 N1610 N -0.08628 -0.09821 -0.01131
 C1611 C -0.07002 -0.10624 -0.02656
 C1612 C -0.05394 -0.08832 -0.03045
 C1613 C -0.06176 -0.06973 -0.01678
 H1614 H -0.03874 -0.08846 -0.04169
 H1615 H -0.09132 -0.06602 0.00594
 H1616 H -0.10089 -0.10707 -0.00507
 N1617 N 0.00074 0.37836 0.48427
 N1618 N -0.01153 0.35926 0.47541
 C1619 C -0.03437 0.36387 0.47760
 C1620 C -0.03725 0.38605 0.48778
 C1621 C -0.01477 0.39471 0.49109
 H1622 H -0.05329 0.39593 0.48895
 H1623 H 0.01874 0.38037 0.48295
 H1624 H -0.00402 0.34513 0.46642
 N1625 N 0.44141 -0.11180 0.49677
 N1626 N 0.43196 -0.13264 0.48812
 C1627 C 0.44183 -0.13722 0.46680
 C1628 C 0.45801 -0.11960 0.46187
 C1629 C 0.45701 -0.10416 0.48083
 H1630 H 0.46878 -0.11753 0.44630
 H1631 H 0.43656 -0.10359 0.51260
 H1632 H 0.41851 -0.14157 0.49658
 N1633 N 0.46847 0.35996 0.02674
 N1634 N 0.45672 0.34146 0.01579
 C1635 C 0.46441 0.33967 -0.00689
 C1636 C 0.48171 0.35655 -0.01034
 C1637 C 0.48342 0.36892 0.01087
 H1638 H 0.49042 0.36107 -0.02672
 H1639 H 0.46474 0.36658 0.04363
 H1640 H 0.44383 0.33176 0.02427
 N1641 N 0.80933 0.34852 0.50701
 N1642 N 0.81917 0.36774 0.49881
 C1643 C 0.80778 0.37459 0.47897
 C1644 C 0.78970 0.35910 0.47436
 C1645 C 0.79151 0.34267 0.49252
 H1646 H 0.77785 0.35907 0.45932
 H1647 H 0.81521 0.33929 0.52194
 H1648 H 0.83361 0.37582 0.50663
 N1649 N 0.79936 0.84914 0.00357
 N1650 N 0.80550 0.87156 -0.00397
 C1651 C 0.79707 0.87442 -0.02629
 C1652 C 0.78507 0.85421 -0.03303
 C1653 C 0.78712 0.83902 -0.01412
 H1654 H 0.77621 0.85045 -0.04961
 H1655 H 0.80398 0.84175 0.01994
 H1656 H 0.81624 0.88279 0.00580
 N1657 N 0.78816 0.25504 0.39761
 N1658 N 0.79471 0.26385 0.37701
 C1659 C 0.78911 0.28685 0.37643
 C1660 C 0.77834 0.29284 0.39764
 C1661 C 0.77820 0.27218 0.41049
 H1662 H 0.77215 0.30986 0.40334
 H1663 H 0.79045 0.23753 0.40263
 H1664 H 0.80266 0.25396 0.36372
 N1665 N 0.75665 0.76966 -0.11717
 N1666 N 0.76446 0.77901 -0.13704
 C1667 C 0.78738 0.78338 -0.13461
 C1668 C 0.79457 0.77595 -0.11205
 C1669 C 0.77434 0.76747 -0.10157
 H1670 H 0.81145 0.77833 -0.10379
 H1671 H 0.73918 0.76580 -0.11399
 H1672 H 0.75399 0.78279 -0.15181
 N1673 N 0.30714 0.51951 0.87140
 N1674 N 0.31610 0.50843 0.89000
 C1675 C 0.30971 0.48570 0.88905
 C1676 C 0.29560 0.48241 0.86906
 C1677 C 0.29459 0.50423 0.85824
 H1678 H 0.28925 0.46600 0.86185
 H1679 H 0.31077 0.53696 0.86708
 H1680 H 0.32702 0.51631 0.90256
 N1681 N 0.25616 0.01170 0.36202
 N1682 N 0.26380 0.00343 0.38257
 C1683 C 0.26698 -0.02000 0.38066
 C1684 C 0.26042 -0.02699 0.35793
 C1685 C 0.25404 -0.00626 0.34668
 H1686 H 0.26270 -0.04407 0.34984
 H1687 H 0.25334 0.02946 0.35836
 H1688 H 0.26790 0.01398 0.39720
 N1689 N -0.01305 -0.01016 -0.11606
 N1690 N -0.01454 -0.02112 -0.13805
 C1691 C -0.03650 -0.02907 -0.14085
 C1692 C -0.04963 -0.02272 -0.12092
 C1693 C -0.03400 -0.01145 -0.10574
 H1694 H -0.06729 -0.02783 -0.11687
 H1695 H 0.00227 -0.00363 -0.10848
 H1696 H -0.00064 -0.02245 -0.14986
 N1697 N 0.01509 0.43076 0.40250
 N1698 N 0.00371 0.42537 0.38114
 C1699 C -0.01391 0.44090 0.37806
 C1700 C -0.01364 0.45654 0.39712
 C1701 C 0.00455 0.44966 0.41184
 H1702 H -0.02533 0.47102 0.40045
 H1703 H 0.02893 0.42130 0.40984
 H1704 H 0.00779 0.41083 0.37069
 N1705 N 0.49718 -0.06376 0.38508
 N1706 N 0.48845 -0.06930 0.36409
 C1707 C 0.46790 -0.05818 0.36112
 C1708 C 0.46371 -0.04449 0.38134
 C1709 C 0.48269 -0.04879 0.39609
 H1710 H 0.44870 -0.03376 0.38529
 H1711 H 0.51292 -0.07025 0.39173
 H1712 H 0.49680 -0.08052 0.35223
 N1713 N 0.50719 0.39951 -0.08017
 N1714 N 0.49946 0.39524 -0.10187
 C1715 C 0.48795 0.41434 -0.10993
 C1716 C 0.48839 0.43153 -0.09233
 C1717 C 0.50083 0.42137 -0.07386
 H1718 H 0.48101 0.44899 -0.09286
 H1719 H 0.51640 0.38742 -0.06978
 H1720 H 0.50176 0.37924 -0.11058
 N1721 N 0.45974 0.82000 0.31516
 N1722 N 0.45388 0.82647 0.33685
 C1723 C 0.44185 0.80885 0.34714
 C1724 C 0.43955 0.79058 0.33087
 C1725 C 0.45132 0.79835 0.31101
 H1726 H 0.43185 0.77346 0.33348
 H1727 H 0.46979 0.83014 0.30365
 H1728 H 0.45841 0.84264 0.34422
 N1729 N 0.00906 0.81411 0.86202
 N1730 N -0.00278 0.82394 0.88116
 C1731 C -0.02143 0.81028 0.88597
 C1732 C -0.02155 0.79141 0.87002
 C1733 C -0.00240 0.79463 0.85534
 H1734 H -0.03436 0.77760 0.86841
 H1735 H 0.02381 0.82132 0.85411
 H1736 H 0.00292 0.83897 0.89002
 N1737 N 0.37015 0.79628 0.21926
 N1738 N 0.34971 0.80254 0.22777
 C1739 C 0.34719 0.79312 0.24964
 C1740 C 0.36676 0.78018 0.25525
 C1741 C 0.38101 0.78294 0.23567
 H1742 H 0.37092 0.77175 0.27202
 H1743 H 0.37677 0.80181 0.20292
 H1744 H 0.33818 0.81388 0.21908
 N1745 N -0.06952 0.81115 0.78071
 N1746 N -0.09067 0.81883 0.78496
 C1747 C -0.10323 0.80146 0.79487
 C1748 C -0.08896 0.78173 0.79764
 C1749 C -0.06773 0.78871 0.78796
 H1750 H -0.09377 0.76449 0.80399
 H1751 H -0.05665 0.82108 0.77243
 H1752 H -0.09642 0.83570 0.78061
 N1753 N 0.85262 0.24346 0.47367
 N1754 N 0.87104 0.25377 0.46445
 C1755 C 0.87132 0.27651 0.47110
 C1756 C 0.85234 0.28075 0.48565
 C1757 C 0.84072 0.25932 0.48652
 H1758 H 0.84609 0.29762 0.49177
 H1759 H 0.84744 0.22631 0.46974
 H1760 H 0.88241 0.24567 0.45256
 N1761 N 0.85898 0.74061 -0.03895
 N1762 N 0.87836 0.75079 -0.04616
 C1763 C 0.87834 0.77349 -0.03915
 C1764 C 0.85801 0.77758 -0.02637
 C1765 C 0.84620 0.75633 -0.02684
 H1766 H 0.85168 0.79407 -0.01940
 H1767 H 0.85434 0.72331 -0.04289
 H1768 H 0.89102 0.74218 -0.05612
 N1769 N -0.13465 0.01018 -0.01368
 N1770 N -0.15450 -0.00225 -0.02002
 C1771 C -0.15155 -0.01016 -0.04240
 C1772 C -0.13030 -0.00230 -0.05112
 C1773 C -0.11992 0.00938 -0.03220
 H1774 H -0.12166 -0.00840 -0.06704
 H1775 H -0.13073 0.01563 0.00363
 H1776 H -0.16801 -0.00628 -0.00836
 N1777 N -0.05989 0.44197 0.44530
 N1778 N -0.08133 0.43294 0.43849
 C1779 C -0.09733 0.44998 0.44143
 C1780 C -0.08648 0.47027 0.44984
 C1781 C -0.06322 0.46417 0.45263
 H1782 H -0.09487 0.48593 0.45652
 H1783 H -0.04471 0.43205 0.44727
 H1784 H -0.08416 0.41553 0.43341
 N1785 N 0.40043 0.00393 0.45505
 N1786 N 0.37779 -0.00092 0.44789
 C1787 C 0.37355 -0.02397 0.45194
 C1788 C 0.39340 -0.03390 0.46251
 C1789 C 0.40972 -0.01591 0.46372
 H1790 H 0.39639 -0.05205 0.46727
 H1791 H 0.40867 0.02015 0.45314
 H1792 H 0.36710 0.01174 0.44015
 N1793 N 0.41488 0.43255 0.01242
 N1794 N 0.39345 0.42772 0.00208
 C1795 C 0.39229 0.43896 -0.01904
 C1796 C 0.41304 0.45154 -0.02239
 C1797 C 0.42691 0.44644 -0.00246
 H1798 H 0.41806 0.46148 -0.03795
 H1799 H 0.42071 0.42527 0.02845
 H1800 H 0.38062 0.41764 0.01027
 N1801 N 0.38063 0.50148 0.81437
 N1802 N 0.39966 0.49022 0.82103
 C1803 C 0.40055 0.46941 0.80958
 C1804 C 0.38119 0.46746 0.79484
 C1805 C 0.36898 0.48813 0.79855
 H1806 H 0.37621 0.45278 0.78370
 H1807 H 0.37569 0.51793 0.82081
 H1808 H 0.41176 0.49688 0.83319
 N1809 N 0.34084 0.00785 0.29583
 N1810 N 0.36148 -0.00096 0.30118
 C1811 C 0.36424 -0.02163 0.28972
 C1812 C 0.34437 -0.02586 0.27615
 C1813 C 0.32993 -0.00682 0.28072
 H1814 H 0.34050 -0.04103 0.26525
 H1815 H 0.33438 0.02363 0.30257
 H1816 H 0.37335 0.00734 0.31250
 N1817 N 0.19048 0.53525 0.68548
 N1818 N 0.16892 0.53984 0.67883
 C1819 C 0.15706 0.54827 0.69763
 C1820 C 0.17234 0.54955 0.71714
 C1821 C 0.19333 0.54091 0.70857
 H1822 H 0.16846 0.55457 0.73526
 H1823 H 0.20296 0.52785 0.67435
 H1824 H 0.16271 0.53702 0.66159
 N1825 N 0.13073 0.00352 0.19357
 N1826 N 0.11059 0.01225 0.18643
 C1827 C 0.10710 0.03308 0.19728
 C1828 C 0.12597 0.03764 0.21222
 C1829 C 0.14062 0.01849 0.20917
 H1830 H 0.12913 0.05311 0.22293
 H1831 H 0.13767 -0.01232 0.18749
 H1832 H 0.09952 0.00391 0.17432
 N1833 N 0.57067 0.68292 0.23245
 N1834 N 0.59200 0.67586 0.22796
 C1835 C 0.60111 0.68975 0.21100
 C1836 C 0.58452 0.70634 0.20415
 C1837 C 0.56553 0.70148 0.21848
 H1838 H 0.58632 0.72040 0.19137
 H1839 H 0.55983 0.67507 0.24503
 H1840 H 0.60001 0.66163 0.23640
 N1841 N 0.12780 0.69620 0.77077
 N1842 N 0.14873 0.69269 0.76182
 C1843 C 0.14970 0.70243 0.73990
 C1844 C 0.12836 0.71266 0.73485
 C1845 C 0.11501 0.70823 0.75480
 H1846 H 0.12300 0.72163 0.71875
 H1847 H 0.12251 0.69049 0.78756
 H1848 H 0.16204 0.68392 0.77087
 N1849 N 0.63003 0.26247 0.53730
 N1850 N 0.61127 0.25112 0.54442
 C1851 C 0.61147 0.22926 0.53509
 C1852 C 0.63103 0.22697 0.52092
 C1853 C 0.64242 0.24826 0.52305
 H1854 H 0.63758 0.21123 0.51251
 H1855 H 0.63477 0.27923 0.54311
 H1856 H 0.59913 0.25816 0.55617
 N1857 N 0.63652 0.74970 0.02936
 N1858 N 0.61768 0.73912 0.03736
 C1859 C 0.61867 0.71605 0.03176
 C1860 C 0.63906 0.71210 0.01908
 C1861 C 0.64986 0.73384 0.01814
 H1862 H 0.64613 0.69553 0.01311
 H1863 H 0.64044 0.76738 0.03222
 H1864 H 0.60479 0.74779 0.04695
 N1865 N 0.08694 0.01186 0.00765
 N1866 N 0.10955 0.01542 0.01570
 C1867 C 0.11214 0.03855 0.02038
 C1868 C 0.09147 0.05022 0.01457
 C1869 C 0.07618 0.03277 0.00725
 H1870 H 0.08716 0.06842 0.01790
 H1871 H 0.07945 -0.00452 0.00433
 H1872 H 0.12170 0.00195 0.01769
 N1873 N 0.11530 0.48947 0.57007
 N1874 N 0.13515 0.49855 0.57757
 C1875 C 0.14138 0.51584 0.56249
 C1876 C 0.12502 0.51745 0.54440
 C1877 C 0.10872 0.50075 0.55006
 H1878 H 0.12412 0.53003 0.52999
 H1879 H 0.10598 0.47657 0.57915
 H1880 H 0.14335 0.49382 0.59350
 N1881 N 0.61414 -0.02284 0.53705
 N1882 N 0.63307 -0.01206 0.54469
 C1883 C 0.63576 0.00823 0.53247
 C1884 C 0.61773 0.01002 0.51599
 C1885 C 0.60438 -0.00990 0.51967
 H1886 H 0.61356 0.02464 0.50445
 H1887 H 0.60738 -0.03810 0.54464
 H1888 H 0.64291 -0.01811 0.55908
 N1889 N 0.63273 0.46928 0.06345
 N1890 N 0.64980 0.48254 0.07174
 C1891 C 0.64865 0.50384 0.06123
 C1892 C 0.63016 0.50377 0.04511
 C1893 C 0.62045 0.48162 0.04725
 H1894 H 0.62327 0.51838 0.03496
 H1895 H 0.62904 0.45238 0.06955
 H1896 H 0.66155 0.47705 0.08483
 N1897 N -0.00883 0.08822 0.08666
 N1898 N -0.00111 0.09344 0.10953
 C1899 C 0.01361 0.07622 0.11660
 C1900 C 0.01562 0.05986 0.09815
 C1901 C 0.00114 0.06795 0.07999
 H1902 H 0.02567 0.04381 0.09803
 H1903 H -0.02053 0.09845 0.07685
 H1904 H -0.00551 0.10890 0.11837
 N1905 N 0.01344 0.54879 0.60836
 N1906 N 0.02179 0.55735 0.62848
 C1907 C 0.04122 0.54543 0.63467
 C1908 C 0.04522 0.52825 0.61739
 C1909 C 0.02712 0.53109 0.60102
 H1910 H 0.05966 0.51613 0.61630
 H1911 H -0.00110 0.55553 0.59946
 H1912 H 0.01460 0.57184 0.63709
 N1913 N 0.55921 -0.00110 0.59238
 N1914 N 0.56838 0.00953 0.61247
 C1915 C 0.55551 0.02874 0.61734
 C1916 C 0.53768 0.03069 0.60022
 C1917 C 0.54099 0.01171 0.58474
 H1918 H 0.52474 0.04440 0.59868
 H1919 H 0.56631 -0.01600 0.58436
 H1920 H 0.58198 0.00230 0.62243
 N1921 N 0.57266 0.48953 0.12160
 N1922 N 0.57721 0.50221 0.14067
 C1923 C 0.56377 0.52160 0.14022
 C1924 C 0.54990 0.52118 0.11987
 C1925 C 0.55627 0.50054 0.10852
 H1926 H 0.53735 0.53414 0.11399
 H1927 H 0.58082 0.47362 0.11767
 H1928 H 0.58917 0.49734 0.15382
 N1929 N 0.28414 0.54726 0.64294
 N1930 N 0.27319 0.55560 0.62400
 C1931 C 0.25169 0.54629 0.62319
 C1932 C 0.24905 0.53106 0.64234
 C1933 C 0.26988 0.53244 0.65465
 H1934 H 0.23348 0.52193 0.64775
 H1935 H 0.30068 0.55270 0.64841
 H1936 H 0.28022 0.56791 0.61230
 N1937 N 0.21038 -0.00876 0.13159
 N1938 N 0.20187 -0.00120 0.10965
 C1939 C 0.20343 0.02247 0.10908
 C1940 C 0.21372 0.03022 0.13025
 C1941 C 0.21715 0.01030 0.14391
 H1942 H 0.21568 0.04810 0.13643
 H1943 H 0.20955 -0.02602 0.13782
 H1944 H 0.19494 -0.01249 0.09684
 N1945 N 0.68819 0.25120 0.60937
 N1946 N 0.68306 0.24228 0.63038
 C1947 C 0.69411 0.22153 0.63288
 C1948 C 0.70691 0.21708 0.61253
 C1949 C 0.70251 0.23627 0.59804
 H1950 H 0.71734 0.20178 0.60853
 H1951 H 0.68182 0.26718 0.60295
 H1952 H 0.67220 0.25045 0.64270
 N1953 N 0.68948 0.74165 0.09498
 N1954 N 0.68010 0.73347 0.11456
 C1955 C 0.69069 0.71321 0.12040
 C1956 C 0.70793 0.70827 0.10375
 C1957 C 0.70633 0.72685 0.08775
 H1958 H 0.71947 0.69328 0.10317
 H1959 H 0.68407 0.75712 0.08663
 H1960 H 0.66688 0.74198 0.12387
 N1961 N 0.48673 0.67934 0.12916
 N1962 N 0.49805 0.67036 0.11091
 C1963 C 0.51842 0.68184 0.10843
 C1964 C 0.51998 0.69906 0.12585
 C1965 C 0.49959 0.69673 0.13869
 H1966 H 0.53435 0.71083 0.12942
 H1967 H 0.47062 0.67332 0.13513
 H1968 H 0.49177 0.65657 0.10046
 N1969 N 0.02533 0.67701 0.67222
 N1970 N 0.03174 0.67081 0.65062
 C1971 C 0.04890 0.68523 0.64325
 C1972 C 0.05347 0.70149 0.66121
 C1973 C 0.03809 0.69558 0.67920
 H1974 H 0.06587 0.71576 0.66118
 H1975 H 0.01213 0.66876 0.68180
 H1976 H 0.02373 0.65730 0.64110
 N1977 N 0.47322 0.62963 0.21226
 N1978 N 0.48523 0.61042 0.20750
 C1979 C 0.50717 0.61321 0.21569
 C1980 C 0.50885 0.63494 0.22668
 C1981 C 0.48716 0.64489 0.22382
 H1982 H 0.52441 0.64372 0.23297
 H1983 H 0.45624 0.63273 0.20634
 H1984 H 0.47862 0.59625 0.19783
 N1985 N 0.05338 0.63111 0.78125
 N1986 N 0.06233 0.61218 0.77128
 C1987 C 0.05484 0.61090 0.74854
 C1988 C 0.04006 0.62971 0.74404
 C1989 C 0.03992 0.64233 0.76517
 H1990 H 0.03300 0.63511 0.72699
 H1991 H 0.05776 0.63704 0.79830
 H1992 H 0.07426 0.60106 0.77967
 N1993 N -0.01181 0.13803 -0.01172
 N1994 N -0.00338 0.15886 -0.00213
 C1995 C 0.01919 0.15561 0.00341
 C1996 C 0.02565 0.13278 -0.00250
 C1997 C 0.00558 0.12222 -0.01128
 H1998 H 0.04125 0.12378 0.00339
 H1999 H -0.02943 0.13445 -0.01453
 H2000 H -0.01380 0.17300 0.00297
 N2001 N 0.07096 0.59350 0.50317
 N2002 N 0.07701 0.61466 0.51047
 C2003 C 0.06413 0.62040 0.52961
 C2004 C 0.04891 0.60197 0.53442
 C2005 C 0.05398 0.58526 0.51731
 H2006 H 0.03662 0.60039 0.54884
 H2007 H 0.07876 0.58470 0.48899
 H2008 H 0.09044 0.62439 0.50287
 N2009 N 0.57386 0.08022 0.49132
 N2010 N 0.58009 0.10116 0.49931
 C2011 C 0.56427 0.10846 0.51536
 C2012 C 0.54721 0.09140 0.51744
 C2013 C 0.55397 0.07383 0.50207
 H2014 H 0.53210 0.09139 0.52882
 H2015 H 0.58343 0.07032 0.47916
 H2016 H 0.59532 0.10977 0.49431
 N2017 N 0.58531 0.56139 0.01169
 N2018 N 0.58997 0.58367 0.01617
 C2019 C 0.57319 0.59251 0.03032
 C2020 C 0.55719 0.57474 0.03503
 C2021 C 0.56551 0.55542 0.02287
 H2022 H 0.54153 0.57552 0.04557
 H2023 H 0.59571 0.55047 0.00126
 H2024 H 0.60462 0.59232 0.00971
 N2025 N 0.66993 0.16277 0.50540
 N2026 N 0.66425 0.13955 0.51073
 C2027 C 0.68018 0.13140 0.52649
 C2028 C 0.69592 0.14947 0.53160
 C2029 C 0.68908 0.16845 0.51802
 H2030 H 0.71128 0.14903 0.54274
 H2031 H 0.66113 0.17328 0.49306
 H2032 H 0.65026 0.13064 0.50306
 N2033 N 0.68407 0.64849 0.00551
 N2034 N 0.67795 0.62860 0.01588
 C2035 C 0.69316 0.62383 0.03365
 C2036 C 0.70967 0.64159 0.03447
 C2037 C 0.70328 0.65680 0.01639
 H2038 H 0.72428 0.64344 0.04654
 H2039 H 0.67493 0.65636 -0.00850
 H2040 H 0.66323 0.61894 0.01108
 N2041 N 0.28422 0.61527 0.69445
 N2042 N 0.27550 0.63596 0.68842
 C2043 C 0.25505 0.63897 0.69976
 C2044 C 0.25067 0.61934 0.71345
 C2045 C 0.26945 0.60486 0.70966
 H2046 H 0.23572 0.61567 0.72445
 H2047 H 0.29999 0.60858 0.68831
 H2048 H 0.28370 0.64772 0.67695
 N2049 N 0.21721 0.11313 0.24192
 N2050 N 0.21107 0.13616 0.23705
 C2051 C 0.20703 0.13805 0.21346
 C2052 C 0.21112 0.11630 0.20261
 C2053 C 0.21675 0.10112 0.22136
 H2054 H 0.20723 0.11144 0.18439
 H2055 H 0.21964 0.10624 0.25899
 H2056 H 0.20863 0.14903 0.25005
 N2057 N 0.77076 1.10774 0.71259
 N2058 N 0.75952 1.12813 0.70507
 C2059 C 0.73729 1.12731 0.71280
 C2060 C 0.73435 1.10675 0.72602
 C2061 C 0.75542 1.09486 0.72496
 H2062 H 0.71828 1.09971 0.73295
 H2063 H 0.78740 1.10265 0.70730
 H2064 H 0.76749 1.14104 0.69478
 N2065 N 0.73640 0.65005 0.27119
 N2066 N 0.72458 0.66593 0.25903
 C2067 C 0.72405 0.65956 0.23595
 C2068 C 0.73654 0.63898 0.23323
 C2069 C 0.74366 0.63323 0.25611
 H2070 H 0.73642 0.62755 0.21783
 H2071 H 0.73729 0.64949 0.28976
 H2072 H 0.71518 0.67960 0.26680
 N2073 N 0.50714 0.11514 0.75571
 N2074 N 0.51732 0.09658 0.74628
 C2075 C 0.51850 0.09935 0.72245
 C2076 C 0.50797 0.12044 0.71645
 C2077 C 0.50138 0.13008 0.73811
 H2078 H 0.50886 0.12939 0.69948
 H2079 H 0.50606 0.11837 0.77398
 H2080 H 0.52532 0.08335 0.75626
 N2081 N 1.02498 0.15116 0.26646
 N2082 N 1.03362 0.13144 0.25772
 C2083 C 1.02479 0.12800 0.23567
 C2084 C 1.00952 0.14629 0.23055
 C2085 C 1.01027 0.16059 0.25034
 H2086 H 1.00081 0.15022 0.21391
 H2087 H 1.02999 0.15853 0.28272
 H2088 H 1.04598 0.12118 0.26656
 N2089 N 0.17534 0.66253 0.52293
 N2090 N 0.17140 0.64162 0.53210
 C2091 C 0.19050 0.63438 0.54427
 C2092 C 0.20720 0.65203 0.54300
 C2093 C 0.19685 0.66941 0.52914
 H2094 H 0.22467 0.65198 0.55024
 H2095 H 0.16344 0.67175 0.51237
 H2096 H 0.15569 0.63280 0.52967
 N2097 N 0.20190 0.17131 1.07182
 N2098 N 0.19267 0.15140 1.07898
 C2099 C 0.18361 0.14016 1.05997
 C2100 C 0.18668 0.15393 1.03981
 C2101 C 0.19874 0.17334 1.04818
 H2102 H 0.18307 0.14930 1.02147
 H2103 H 0.21114 0.18275 1.08284
 H2104 H 0.19364 0.14522 1.09647
 N2105 N 0.20575 0.76900 0.60475
 N2106 N 0.20192 0.76180 0.62677
 C2107 C 0.21170 0.74046 0.62967
 C2108 C 0.22225 0.73390 0.60854
 C2109 C 0.21801 0.75240 0.59325
 H2110 H 0.23090 0.71754 0.60441
 H2111 H 0.19967 0.78484 0.59770
 H2112 H 0.19272 0.77145 0.63940
 N2113 N 0.19716 0.26823 1.10475
 N2114 N 0.18780 0.26067 1.12475
 C2115 C 0.19422 0.23813 1.12853
 C2116 C 0.20897 0.23143 1.11013
 C2117 C 0.21009 0.25096 1.09527
 H2118 H 0.21678 0.21446 1.10723
 H2119 H 0.19415 0.28483 1.09745
 H2120 H 0.17707 0.27103 1.13535
 N2121 N 0.75624 0.57567 0.17151
 N2122 N 0.74856 0.57847 0.14948
 C2123 C 0.72931 0.56525 0.14627
 C2124 C 0.72468 0.55338 0.16735
 C2125 C 0.74212 0.56062 0.18292
 H2126 H 0.71028 0.54176 0.17111
 H2127 H 0.77081 0.58419 0.17858
 H2128 H 0.75660 0.58925 0.13694
 N2129 N 0.76275 1.05201 0.63300
 N2130 N 0.75457 1.05841 0.61197
 C2131 C 0.73453 1.04680 0.60786
 C2132 C 0.72974 1.03239 0.62702
 C2133 C 0.74793 1.03640 0.64259
 H2134 H 0.71454 1.02156 0.62984
 H2135 H 0.77793 1.05867 0.64075
 H2136 H 0.76249 1.07077 0.60094
 N2137 N 0.49903 0.17001 0.64538
 N2138 N 0.50765 0.16423 0.62446
 C2139 C 0.52706 0.17696 0.62059
 C2140 C 0.53090 0.19153 0.64001
 C2141 C 0.51275 0.18650 0.65529
 H2142 H 0.54491 0.20392 0.64276
 H2143 H 0.48393 0.16280 0.65259
 H2144 H 0.49992 0.15209 0.61296
 N2145 N 1.00396 0.18705 0.15700
 N2146 N 1.01044 0.18138 0.13529
 C2147 C 1.02234 0.19952 0.12596
 C2148 C 1.02382 0.21744 0.14268
 C2149 C 1.01169 0.20884 0.16199
 H2150 H 1.03142 0.23469 0.14063
 H2151 H 0.99403 0.17623 0.16800
 H2152 H 1.00666 0.16533 0.12718
 N2153 N 0.59105 0.16957 0.75408
 N2154 N 0.61238 0.16376 0.74764
 C2155 C 0.61788 0.17568 0.72765
 C2156 C 0.59897 0.18957 0.72121
 C2157 C 0.58252 0.18529 0.73839
 H2158 H 0.59715 0.20147 0.70633
 H2159 H 0.58268 0.16303 0.76914
 H2160 H 0.62288 0.15212 0.75719
 N2161 N 1.09089 0.22368 0.26234
 N2162 N 1.11202 0.21805 0.25528
 C2163 C 1.11385 0.22240 0.23173
 C2164 C 1.09295 0.23158 0.22354
 C2165 C 1.07881 0.23179 0.24350
 H2166 H 1.08815 0.23582 0.20539
 H2167 H 1.08480 0.22153 0.27969
 H2168 H 1.12474 0.21093 0.26647
 N2169 N 0.12546 0.76223 0.51338
 N2170 N 0.10728 0.75179 0.52302
 C2171 C 0.11432 0.73979 0.54243
 C2172 C 0.13808 0.74282 0.54524
 C2173 C 0.14450 0.75721 0.52647
 H2174 H 0.14955 0.73287 0.55679
 H2175 H 0.12516 0.77072 0.49689
 H2176 H 0.09077 0.75117 0.51520
 N2177 N 0.13588 0.26690 1.04229
 N2178 N 0.11518 0.25982 1.04931
 C2179 C 0.11077 0.23868 1.03949
 C2180 C 0.12930 0.23211 1.02542
 C2181 C 0.14492 0.25038 1.02793
 H2182 H 0.13178 0.21569 1.01608
 H2183 H 0.14387 0.28241 1.04792
 H2184 H 0.10455 0.26922 1.06092
 N2185 N 0.65668 0.59605 0.25934
 N2186 N 0.63623 0.59982 0.24925
 C2187 C 0.63097 0.58132 0.23522
 C2188 C 0.64904 0.56521 0.23631
 C2189 C 0.66485 0.57517 0.25187
 H2190 H 0.65032 0.54831 0.22764
 H2191 H 0.66485 0.60768 0.27108
 H2192 H 0.62634 0.61497 0.25188
 N2193 N 0.66905 1.06324 0.73450
 N2194 N 0.64827 1.07108 0.72844
 C2195 C 0.63952 1.05722 0.71114
 C2196 C 0.65574 1.03984 0.70579
 C2197 C 0.67411 1.04425 0.72120
 H2198 H 0.65412 1.02557 0.69318
 H2199 H 0.67953 1.07087 0.74764
 H2200 H 0.64048 1.08581 0.73605
 N2201 N 0.84688 0.50240 0.34250
 N2202 N 0.86667 0.49152 0.34692
 C2203 C 0.87249 0.47849 0.32776
 C2204 C 0.85515 0.48111 0.31047
 C2205 C 0.83940 0.49652 0.32057
 H2206 H 0.85430 0.47359 0.29281
 H2207 H 0.83866 0.51368 0.35446
 H2208 H 0.87570 0.49324 0.36297
 N2209 N 0.84768 0.91812 0.74833
 N2210 N 0.86682 0.90966 0.75819
 C2211 C 0.87569 0.92592 0.77322
 C2212 C 0.86132 0.94544 0.77306
 C2213 C 0.84401 0.93984 0.75689
 H2214 H 0.86362 0.96184 0.78250
 H2215 H 0.83731 0.90903 0.73610
 H2216 H 0.87351 0.89303 0.75449
 N2217 N 0.39555 0.29408 0.74105
 N2218 N 0.37585 0.30281 0.74909
 C2219 C 0.37129 0.29312 0.77046
 C2220 C 0.38882 0.27737 0.77622
 C2221 C 0.40392 0.27870 0.75716
 H2222 H 0.39087 0.26723 0.79239
 H2223 H 0.40320 0.29888 0.72495
 H2224 H 0.36585 0.31525 0.73998
 N2225 N 0.87860 0.31093 0.23648
 N2226 N 0.86005 0.32096 0.24587
 C2227 C 0.85663 0.31187 0.26774
 C2228 C 0.87373 0.29520 0.27228
 C2229 C 0.88731 0.29522 0.25213
 H2230 H 0.87695 0.28553 0.28855
 H2231 H 0.88563 0.31550 0.22000
 H2232 H 0.85028 0.33402 0.23745
 N2233 N 0.34169 0.73244 0.44085
 N2234 N 0.36194 0.73948 0.43246
 C2235 C 0.36771 0.75993 0.44306
 C2236 C 0.35056 0.76590 0.45915
 C2237 C 0.33428 0.74824 0.45696
 H2238 H 0.34894 0.78201 0.46921
 H2239 H 0.33268 0.71768 0.43476
 H2240 H 0.37111 0.73075 0.41912
 N2241 N 0.34548 0.23045 0.95222
 N2242 N 0.36669 0.23617 0.94557
 C2243 C 0.37238 0.25685 0.95566
 C2244 C 0.35400 0.26457 0.96951
 C2245 C 0.33720 0.24740 0.96660
 H2246 H 0.35247 0.28104 0.97897
 H2247 H 0.33660 0.21554 0.94627
 H2248 H 0.37685 0.22620 0.93399
 N2249 N 0.74900 0.49394 0.39393
 N2250 N 0.75867 0.48220 0.41168
 C2251 C 0.78201 0.48299 0.40933
 C2252 C 0.78733 0.49644 0.38948
 C2253 C 0.76593 0.50274 0.38010
 H2254 H 0.80416 0.49882 0.38128
 H2255 H 0.73111 0.49486 0.39074
 H2256 H 0.74922 0.47305 0.42450
 N2257 N 0.76554 0.92352 0.82877
 N2258 N 0.77327 0.91619 0.84960
 C2259 C 0.79115 0.93005 0.85652
 C2260 C 0.79503 0.94678 0.83910
 C2261 C 0.77827 0.94212 0.82210
 H2262 H 0.80736 0.96111 0.83915
 H2263 H 0.75135 0.91624 0.81972
 H2264 H 0.76536 0.90270 0.85914
 N2265 N 0.27049 0.74076 0.37888
 N2266 N 0.27639 0.74814 0.35745
 C2267 C 0.27279 0.77154 0.35609
 C2268 C 0.26385 0.77918 0.37770
 C2269 C 0.26286 0.75919 0.39162
 H2270 H 0.26000 0.79694 0.38325
 H2271 H 0.27211 0.72343 0.38474
 H2272 H 0.28309 0.73714 0.34431
 N2273 N 0.28039 0.23320 0.88578
 N2274 N 0.28976 0.24197 0.86625
 C2275 C 0.28452 0.26508 0.86475
 C2276 C 0.27071 0.27094 0.88409
 C2277 C 0.26869 0.25033 0.89701
 H2278 H 0.26470 0.28816 0.88935
 H2279 H 0.28276 0.21597 0.89168
 H2280 H 0.30003 0.23217 0.85468
 N2281 N 0.48394 0.30248 0.83888
 N2282 N 0.47793 0.30898 0.86054
 C2283 C 0.46290 0.29310 0.86941
 C2284 C 0.45898 0.27583 0.85225
 C2285 C 0.47280 0.28242 0.83328
 H2286 H 0.44853 0.26011 0.85369
 H2287 H 0.49571 0.31163 0.82824
 H2288 H 0.48416 0.32412 0.86884
 N2289 N 0.91784 0.31347 0.32496
 N2290 N 0.91055 0.31865 0.34655
 C2291 C 0.92881 0.31795 0.36159
 C2292 C 0.94879 0.31236 0.34894
 C2293 C 0.94091 0.30940 0.32573
 H2294 H 0.96580 0.30807 0.35608
 H2295 H 0.90687 0.31118 0.31027
 H2296 H 0.89315 0.32142 0.35101
 N2297 N 0.46833 0.34568 0.73575
 N2298 N 0.46262 0.36587 0.74575
 C2299 C 0.47019 0.36589 0.76854
 C2300 C 0.48165 0.34479 0.77293
 C2301 C 0.47992 0.33249 0.75178
 H2302 H 0.48846 0.33827 0.78965
 H2303 H 0.46350 0.34074 0.71852
 H2304 H 0.45320 0.37900 0.73705
 N2305 N 0.93625 0.36626 0.23499
 N2306 N 0.93076 0.38626 0.24560
 C2307 C 0.94499 0.38942 0.26459
 C2308 C 0.96034 0.37078 0.26564
 C2309 C 0.95413 0.35642 0.24690
 H2310 H 0.97273 0.36665 0.27958
 H2311 H 0.92703 0.35895 0.22074
 H2312 H 0.91687 0.39687 0.24030
 N2313 N 0.31391 0.83190 0.45017
 N2314 N 0.32196 0.85238 0.44302
 C2315 C 0.30393 0.86703 0.43909
 C2316 C 0.28328 0.85494 0.44344
 C2317 C 0.29054 0.83278 0.45081
 H2318 H 0.26577 0.86186 0.44336
 H2319 H 0.32439 0.81775 0.45519
 H2320 H 0.33963 0.85625 0.44145
 N2321 N 0.27051 0.33925 0.92716
 N2322 N 0.28024 0.35930 0.92117
 C2323 C 0.29390 0.36665 0.93929
 C2324 C 0.29301 0.35018 0.95758
 C2325 C 0.27779 0.33321 0.94915
 H2326 H 0.30145 0.35083 0.97484
 H2327 H 0.25899 0.32990 0.91626
 H2328 H 0.27757 0.36753 0.90477
 N2329 N 0.74350 0.42590 0.32042
 N2330 N 0.74925 0.40373 0.32370
 C2331 C 0.76985 0.39958 0.31309
 C2332 C 0.77737 0.42016 0.30223
 C2333 C 0.76016 0.43643 0.30752
 H2334 H 0.79338 0.42312 0.29266
 H2335 H 0.72838 0.43361 0.32703
 H2336 H 0.73895 0.39181 0.33301
   
