data_POSCAR
  _audit_creation_date              2014-09-24
  _audit_creation_method            'ToBaCCo'
  _symmetry_space_group_name_H-M    'P1'
  _symmetry_Int_Tables_number       1
  _symmetry_cell_setting            triclinic
  loop_
  _symmetry_equiv_pos_as_xyz
 x,y,z
_cell_length_a 69.0284
_cell_length_b 69.6088
_cell_length_c 69.2163
_cell_angle_alpha 89.661100
_cell_angle_beta 89.277700
_cell_angle_gamma 89.962400
loop_
  _atom_site_label
  _atom_site_type_symbol
  _atom_site_fract_x
  _atom_site_fract_y
  _atom_site_fract_z
C1 C 0.13001 -0.02220 0.25591
 C2 C 0.12237 -0.00382 0.25946
 C3 C 0.11341 0.00008 0.27727
 C4 C 0.11170 -0.01431 0.29146
 C5 C 0.11935 -0.03265 0.28771
 C6 C 0.12868 -0.03697 0.26997
 C7 C 0.12278 0.01106 0.24409
 C8 C 0.11429 0.00727 0.22620
 C9 C 0.11408 0.02124 0.21132
 C10 C 0.12315 0.03905 0.21487
 C11 C 0.13189 0.04301 0.23266
 C12 C 0.13139 0.02897 0.24731
 H13 H 0.13627 -0.02496 0.24179
 H14 H 0.10748 0.01425 0.27994
 H15 H 0.10821 -0.00685 0.22399
 H16 H 0.13815 0.03172 0.26106
 H17 H 0.11828 -0.04338 0.29902
 H18 H 0.12253 0.05050 0.20426
 C19 C 0.36297 -0.02631 0.74817
 C20 C 0.37132 -0.00838 0.74398
 C21 C 0.37908 -0.00475 0.72549
 C22 C 0.37878 -0.01900 0.71121
 C23 C 0.37009 -0.03679 0.71553
 C24 C 0.36204 -0.04057 0.73392
 C25 C 0.37182 0.00671 0.75886
 C26 C 0.38179 0.00363 0.77616
 C27 C 0.38305 0.01824 0.79020
 C28 C 0.37314 0.03566 0.78666
 C29 C 0.36274 0.03869 0.76961
 C30 C 0.36248 0.02427 0.75560
 H31 H 0.35703 -0.02904 0.76250
 H32 H 0.38581 0.00901 0.72244
 H33 H 0.38948 -0.00981 0.77790
 H34 H 0.35450 0.02643 0.74237
 H35 H 0.36910 -0.04754 0.70433
 H36 H 0.37292 0.04689 0.79740
 C37 C 0.86449 0.47471 0.24701
 C38 C 0.87247 0.49280 0.24280
 C39 C 0.87989 0.49667 0.22421
 C40 C 0.87957 0.48250 0.20984
 C41 C 0.87119 0.46457 0.21418
 C42 C 0.86356 0.46054 0.23268
 C43 C 0.87266 0.50784 0.25774
 C44 C 0.88229 0.50474 0.27527
 C45 C 0.88293 0.51924 0.28947
 C46 C 0.87270 0.53644 0.28593
 C47 C 0.86259 0.53943 0.26874
 C48 C 0.86303 0.52526 0.25448
 H49 H 0.85878 0.47179 0.26138
 H50 H 0.88633 0.51056 0.22113
 H51 H 0.89014 0.49141 0.27712
 H52 H 0.85524 0.52744 0.24114
 H53 H 0.87008 0.45390 0.20293
 H54 H 0.87190 0.54749 0.29684
 C55 C 0.63081 0.47466 0.75074
 C56 C 0.62395 0.49308 0.75541
 C57 C 0.61751 0.49686 0.77434
 C58 C 0.61777 0.48235 0.78853
 C59 C 0.62481 0.46406 0.78364
 C60 C 0.63138 0.46007 0.76481
 C61 C 0.62351 0.50831 0.74044
 C62 C 0.61424 0.50501 0.72283
 C63 C 0.61409 0.51919 0.70831
 C64 C 0.62364 0.53667 0.71152
 C65 C 0.63321 0.54013 0.72896
 C66 C 0.63280 0.52595 0.74350
 H67 H 0.63572 0.47173 0.73612
 H68 H 0.61219 0.51106 0.77795
 H69 H 0.60721 0.49133 0.72045
 H70 H 0.64036 0.52829 0.75691
 H71 H 0.62511 0.45284 0.79455
 H72 H 0.62334 0.54781 0.70053
 C73 C 0.24952 0.13397 1.02269
 C74 C 0.24514 0.12777 1.00405
 C75 C 0.22606 0.12254 0.99968
 C76 C 0.21113 0.12336 1.01383
 C77 C 0.21597 0.12996 1.03244
 C78 C 0.23500 0.13526 1.03694
 C79 C 0.26059 0.12710 0.98906
 C80 C 0.27809 0.11754 0.99277
 C81 C 0.29319 0.11702 0.97882
 C82 C 0.29031 0.12687 0.96118
 C83 C 0.27301 0.13673 0.95744
 C84 C 0.25806 0.13649 0.97131
 H85 H 0.26427 0.13796 1.02604
 H86 H 0.22300 0.11832 0.98502
 H87 H 0.27933 0.10980 1.00630
 H88 H 0.24477 0.14432 0.96866
 H89 H 0.20513 0.13052 1.04383
 H90 H 0.30178 0.12765 0.95042
 C91 C 0.75352 0.36351 1.02262
 C92 C 0.75600 0.37121 1.00394
 C93 C 0.77415 0.37833 0.99808
 C94 C 0.78982 0.37780 1.01070
 C95 C 0.78726 0.36983 1.02920
 C96 C 0.76926 0.36226 1.03544
 C97 C 0.73989 0.37085 0.99009
 C98 C 0.72213 0.37968 0.99459
 C99 C 0.70658 0.37932 0.98148
 C100 C 0.70940 0.36943 0.96388
 C101 C 0.72704 0.36037 0.95934
 C102 C 0.74229 0.36134 0.97245
 H103 H 0.73960 0.35735 1.02644
 H104 H 0.77606 0.38418 0.98363
 H105 H 0.72052 0.38640 1.00857
 H106 H 0.75589 0.35420 0.96922
 H107 H 0.79931 0.37045 1.03903
 H108 H 0.69833 0.36957 0.95296
 C109 C 0.25035 0.86479 0.52767
 C110 C 0.25472 0.87336 0.50979
 C111 C 0.27364 0.87972 0.50579
 C112 C 0.28848 0.87764 0.51953
 C113 C 0.28370 0.86868 0.53733
 C114 C 0.26481 0.86225 0.54149
 C115 C 0.23961 0.87500 0.49496
 C116 C 0.22236 0.88502 0.49886
 C117 C 0.20778 0.88622 0.48491
 C118 C 0.21058 0.87697 0.46711
 C119 C 0.22762 0.86662 0.46313
 C120 C 0.24222 0.86596 0.47705
 H121 H 0.23572 0.85988 0.53069
 H122 H 0.27670 0.88572 0.49161
 H123 H 0.22031 0.89180 0.51280
 H124 H 0.25533 0.85780 0.47430
 H125 H 0.29449 0.86704 0.54840
 H126 H 0.19958 0.87808 0.45613
 C127 C 0.74959 0.63508 0.53280
 C128 C 0.74586 0.62942 0.51378
 C129 C 0.72720 0.62322 0.50895
 C130 C 0.71232 0.62248 0.52297
 C131 C 0.71626 0.62839 0.54191
 C132 C 0.73481 0.63481 0.54695
 C133 C 0.76145 0.63014 0.49892
 C134 C 0.77939 0.62126 0.50232
 C135 C 0.79433 0.62149 0.48816
 C136 C 0.79091 0.63165 0.47080
 C137 C 0.77318 0.64082 0.46736
 C138 C 0.75837 0.63971 0.48134
 H139 H 0.76400 0.63985 0.53652
 H140 H 0.72432 0.61891 0.49424
 H141 H 0.78105 0.61327 0.51565
 H142 H 0.74467 0.64687 0.47885
 H143 H 0.70482 0.62801 0.55276
 H144 H 0.80222 0.63306 0.45994
 C145 C -0.02432 0.25622 0.13269
 C146 C -0.00619 0.26135 0.12502
 C147 C -0.00324 0.27993 0.11764
 C148 C -0.01828 0.29371 0.11782
 C149 C -0.03632 0.28826 0.12602
 C150 C -0.03945 0.26966 0.13344
 C151 C 0.00990 0.24734 0.12500
 C152 C 0.00790 0.22962 0.11567
 C153 C 0.02344 0.21642 0.11478
 C154 C 0.04073 0.22127 0.12427
 C155 C 0.04278 0.23882 0.13392
 C156 C 0.02734 0.25188 0.13403
 H157 H -0.02654 0.24181 0.13829
 H158 H 0.01110 0.28361 0.11231
 H159 H -0.00546 0.22687 0.10815
 H160 H 0.02882 0.26559 0.14121
 H161 H -0.04831 0.29825 0.12629
 H162 H 0.05244 0.21097 0.12517
 C163 C -0.02743 0.74554 0.37323
 C164 C -0.00893 0.74197 0.38059
 C165 C -0.00437 0.72362 0.38770
 C166 C -0.01830 0.70888 0.38780
 C167 C -0.03672 0.71265 0.38019
 C168 C -0.04138 0.73087 0.37273
 C169 C 0.00562 0.75751 0.38077
 C170 C 0.00155 0.77473 0.39049
 C171 C 0.01504 0.78983 0.39034
 C172 C 0.03253 0.78759 0.38002
 C173 C 0.03666 0.77061 0.36994
 C174 C 0.02326 0.75544 0.37069
 H175 H -0.03073 0.75962 0.36738
 H176 H 0.00997 0.72093 0.39330
 H177 H -0.01218 0.77634 0.39808
 H178 H 0.02616 0.74232 0.36280
 H179 H -0.04768 0.70152 0.38058
 H180 H 0.04317 0.79903 0.38007
 C181 C 0.47698 0.23906 0.87147
 C182 C 0.49499 0.23525 0.87975
 C183 C 0.49886 0.21691 0.88726
 C184 C 0.48476 0.20218 0.88691
 C185 C 0.46681 0.20639 0.87819
 C186 C 0.46284 0.22467 0.87045
 C187 C 0.50979 0.25056 0.88060
 C188 C 0.50532 0.26811 0.88947
 C189 C 0.51906 0.28311 0.89023
 C190 C 0.53738 0.27998 0.88147
 C191 C 0.54198 0.26253 0.87235
 C192 C 0.52814 0.24779 0.87222
 H193 H 0.47420 0.25316 0.86539
 H194 H 0.51310 0.21426 0.89305
 H195 H 0.49081 0.27003 0.89525
 H196 H 0.53137 0.23436 0.86501
 H197 H 0.45525 0.19592 0.87837
 H198 H 0.54867 0.29067 0.88249
 C199 C 0.47884 0.75124 0.63683
 C200 C 0.49669 0.75447 0.62750
 C201 C 0.49996 0.77173 0.61749
 C202 C 0.48542 0.78581 0.61661
 C203 C 0.46766 0.78252 0.62620
 C204 C 0.46424 0.76531 0.63642
 C205 C 0.51200 0.73978 0.62821
 C206 C 0.51020 0.72284 0.61756
 C207 C 0.52498 0.70897 0.61777
 C208 C 0.54129 0.71201 0.62928
 C209 C 0.54312 0.72881 0.64024
 C210 C 0.52850 0.74281 0.63940
 H211 H 0.47640 0.73777 0.64440
 H212 H 0.51384 0.77415 0.61041
 H213 H 0.49757 0.72076 0.60867
 H214 H 0.52967 0.75584 0.64779
 H215 H 0.45646 0.79341 0.62572
 H216 H 0.55265 0.70127 0.62967
 C217 C 0.86266 1.02762 0.75662
 C218 C 0.86995 1.00930 0.76068
 C219 C 0.87961 1.00593 0.77806
 C220 C 0.88244 1.02079 0.79156
 C221 C 0.87466 1.03910 0.78720
 C222 C 0.86479 1.04260 0.76987
 C223 C 0.86796 0.99362 0.74652
 C224 C 0.87509 0.99603 0.72761
 C225 C 0.87433 0.98096 0.71405
 C226 C 0.86561 0.96348 0.72001
 C227 C 0.85832 0.96097 0.73892
 C228 C 0.85963 0.97610 0.75209
 H229 H 0.85536 1.03019 0.74307
 H230 H 0.88455 0.99147 0.78098
 H231 H 0.88098 1.00992 0.72361
 H232 H 0.85433 0.97420 0.76679
 H233 H 0.87668 1.05102 0.79690
 H234 H 0.86506 0.95138 0.71031
 C235 C 0.36519 0.53212 0.25227
 C236 C 0.37282 0.51384 0.25627
 C237 C 0.38340 0.51086 0.27319
 C238 C 0.38682 0.52610 0.28590
 C239 C 0.37897 0.54427 0.28181
 C240 C 0.36801 0.54742 0.26509
 C241 C 0.37065 0.49805 0.24227
 C242 C 0.37750 0.50041 0.22324
 C243 C 0.37663 0.48521 0.21002
 C244 C 0.36839 0.46767 0.21599
 C245 C 0.36128 0.46514 0.23495
 C246 C 0.36255 0.48041 0.24807
 H247 H 0.35717 0.53440 0.23909
 H248 H 0.38967 0.49686 0.27602
 H249 H 0.38381 0.51402 0.21884
 H250 H 0.35743 0.47854 0.26282
 H251 H 0.38106 0.55588 0.29192
 H252 H 0.36769 0.45585 0.20591
 C253 C 0.62985 1.02602 0.24426
 C254 C 0.62138 1.00832 0.23990
 C255 C 0.61314 1.00556 0.22172
 C256 C 0.61311 1.02045 0.20792
 C257 C 0.62181 1.03811 0.21245
 C258 C 0.63037 1.04094 0.23054
 C259 C 0.62165 0.99255 0.25424
 C260 C 0.61371 0.99522 0.27278
 C261 C 0.61423 0.98044 0.28689
 C262 C 0.62335 0.96296 0.28171
 C263 C 0.63164 0.96030 0.26326
 C264 C 0.63050 0.97510 0.24954
 H265 H 0.63624 1.02807 0.25832
 H266 H 0.60680 0.99176 0.21834
 H267 H 0.60776 1.00920 0.27614
 H268 H 0.63675 0.97316 0.23524
 H269 H 0.62204 1.04962 0.20186
 H270 H 0.62384 0.95104 0.29177
 C271 C 0.13324 0.52477 0.74253
 C272 C 0.12535 0.50642 0.73998
 C273 C 0.11635 0.50191 0.72256
 C274 C 0.11501 0.51565 0.70770
 C275 C 0.12322 0.53393 0.71033
 C276 C 0.13244 0.53859 0.72769
 C277 C 0.12625 0.49203 0.75568
 C278 C 0.11826 0.49620 0.77390
 C279 C 0.11869 0.48251 0.78886
 C280 C 0.12759 0.46466 0.78548
 C281 C 0.13581 0.46033 0.76734
 C282 C 0.13493 0.47409 0.75244
 H283 H 0.14003 0.52823 0.75610
 H284 H 0.11028 0.48770 0.72065
 H285 H 0.11160 0.51009 0.77635
 H286 H 0.14098 0.47088 0.73830
 H287 H 0.12239 0.54453 0.69886
 H288 H 0.12807 0.45408 0.79700
 C289 C 0.75083 0.86843 -0.01979
 C290 C 0.74757 0.87681 -0.00164
 C291 C 0.72953 0.88517 0.00258
 C292 C 0.71474 0.88524 -0.01114
 C293 C 0.71813 0.87664 -0.02918
 C294 C 0.73612 0.86817 -0.03364
 C295 C 0.76292 0.87669 0.01307
 C296 C 0.78145 0.88383 0.00861
 C297 C 0.79617 0.88425 0.02263
 C298 C 0.79171 0.87675 0.04122
 C299 C 0.77326 0.86933 0.04575
 C300 C 0.75892 0.86952 0.03162
 H301 H 0.76479 0.86202 -0.02305
 H302 H 0.72700 0.89159 0.01662
 H303 H 0.78423 0.88867 -0.00604
 H304 H 0.74458 0.86405 0.03503
 H305 H 0.70670 0.87650 -0.03975
 H306 H 0.80229 0.87706 0.05258
 C307 C 0.25124 0.36995 0.46796
 C308 C 0.24793 0.37796 0.48624
 C309 C 0.23017 0.38690 0.49037
 C310 C 0.21568 0.38793 0.47638
 C311 C 0.21905 0.37962 0.45819
 C312 C 0.23677 0.37052 0.45387
 C313 C 0.26282 0.37660 0.50127
 C314 C 0.28134 0.38428 0.49802
 C315 C 0.29536 0.38351 0.51255
 C316 C 0.29071 0.37454 0.53027
 C317 C 0.27226 0.36658 0.53359
 C318 C 0.25834 0.36782 0.51904
 H319 H 0.26501 0.36309 0.46483
 H320 H 0.22763 0.39294 0.50457
 H321 H 0.28474 0.39102 0.48424
 H322 H 0.24396 0.36200 0.52152
 H323 H 0.20780 0.38013 0.44743
 H324 H 0.30143 0.37385 0.54155
 C325 C 0.24959 0.63246 -0.01905
 C326 C 0.25248 0.62341 -0.00119
 C327 C 0.27007 0.61411 0.00242
 C328 C 0.28475 0.61357 -0.01180
 C329 C 0.28175 0.62287 -0.02962
 C330 C 0.26423 0.63245 -0.03332
 C331 C 0.23698 0.62363 0.01366
 C332 C 0.21864 0.61622 0.00948
 C333 C 0.20344 0.61654 0.02332
 C334 C 0.20721 0.62494 0.04144
 C335 C 0.22553 0.63251 0.04572
 C336 C 0.24039 0.63161 0.03178
 H337 H 0.23590 0.63952 -0.02180
 H338 H 0.27226 0.60721 0.01630
 H339 H 0.21631 0.61077 -0.00492
 H340 H 0.25461 0.63730 0.03494
 H341 H 0.29304 0.62264 -0.04062
 H342 H 0.19613 0.62528 0.05261
 C343 C 0.74817 0.13326 0.47385
 C344 C 0.75229 0.12477 0.49168
 C345 C 0.77094 0.11762 0.49512
 C346 C 0.78569 0.11849 0.48075
 C347 C 0.78106 0.12726 0.46287
 C348 C 0.76251 0.13480 0.45945
 C349 C 0.73715 0.12386 0.50694
 C350 C 0.71898 0.11583 0.50306
 C351 C 0.70439 0.11523 0.51739
 C352 C 0.70815 0.12302 0.53566
 C353 C 0.72623 0.13127 0.53968
 C354 C 0.74071 0.13144 0.52526
 H355 H 0.73377 0.13888 0.47128
 H356 H 0.77382 0.11190 0.50935
 H357 H 0.71620 0.11014 0.48882
 H358 H 0.75474 0.13768 0.52820
 H359 H 0.79161 0.12800 0.45123
 H360 H 0.69695 0.12276 0.54675
 C361 C 1.02941 0.76038 0.87411
 C362 C 1.01082 0.76353 0.88166
 C363 C 1.00621 0.78124 0.89001
 C364 C 1.02014 0.79603 0.89132
 C365 C 1.03877 0.79259 0.88325
 C366 C 1.04343 0.77492 0.87458
 C367 C 0.99611 0.74820 0.88096
 C368 C 0.99949 0.73051 0.89006
 C369 C 0.98540 0.71579 0.89007
 C370 C 0.96793 0.71934 0.88017
 C371 C 0.96448 0.73701 0.87090
 C372 C 0.97862 0.75141 0.87149
 H373 H 1.03289 0.74658 0.86778
 H374 H 0.99148 0.78336 0.89506
 H375 H 1.01340 0.72832 0.89676
 H376 H 0.97602 0.76520 0.86464
 H377 H 1.05002 0.80333 0.88406
 H378 H 0.95654 0.70869 0.88010
 C379 C 0.52240 0.25443 0.37000
 C380 C 0.50470 0.25788 0.37947
 C381 C 0.50100 0.27598 0.38743
 C382 C 0.51498 0.29060 0.38626
 C383 C 0.53264 0.28700 0.37659
 C384 C 0.53639 0.26898 0.36828
 C385 C 0.48997 0.24258 0.38080
 C386 C 0.49479 0.22450 0.38835
 C387 C 0.48101 0.20968 0.38919
 C388 C 0.46239 0.21303 0.38187
 C389 C 0.45741 0.23111 0.37428
 C390 C 0.47121 0.24589 0.37405
 H391 H 0.52521 0.24040 0.36386
 H392 H 0.48720 0.27862 0.39458
 H393 H 0.50932 0.22199 0.39354
 H394 H 0.46759 0.25977 0.36790
 H395 H 0.54346 0.29823 0.37549
 H396 H 0.45161 0.20173 0.38247
 C397 C 1.03373 0.24369 0.63430
 C398 C 1.01531 0.23937 0.62735
 C399 C 1.01148 0.22097 0.62027
 C400 C 1.02595 0.20661 0.61981
 C401 C 1.04435 0.21126 0.62726
 C402 C 1.04832 0.22968 0.63447
 C403 C 0.99998 0.25417 0.62722
 C404 C 1.00301 0.27161 0.61745
 C405 C 0.98824 0.28565 0.61630
 C406 C 0.97043 0.28173 0.62593
 C407 C 0.96738 0.26438 0.63604
 C408 C 0.98220 0.25063 0.63644
 H409 H 1.03667 0.25801 0.63959
 H410 H 0.99693 0.21795 0.61553
 H411 H 1.01717 0.27411 0.61107
 H412 H 0.97988 0.23705 0.64386
 H413 H 1.05597 0.20085 0.62697
 H414 H 0.95851 0.29177 0.62520
 C415 C 0.52853 0.73722 0.13521
 C416 C 0.51056 0.73302 0.12707
 C417 C 0.50728 0.71482 0.11921
 C418 C 0.52195 0.70084 0.11920
 C419 C 0.53985 0.70516 0.12760
 C420 C 0.54324 0.72330 0.13571
 C421 C 0.49525 0.74777 0.12655
 C422 C 0.49873 0.76540 0.11729
 C423 C 0.48420 0.77948 0.11650
 C424 C 0.46619 0.77586 0.12551
 C425 C 0.46259 0.75829 0.13504
 C426 C 0.47717 0.74422 0.13527
 H427 H 0.53104 0.75136 0.14114
 H428 H 0.49334 0.71165 0.11295
 H429 H 0.51278 0.76808 0.11066
 H430 H 0.47454 0.73051 0.14232
 H431 H 0.55120 0.69441 0.12775
 H432 H 0.45496 0.78674 0.12513
 O433 O -0.00076 1.04533 1.04222
 O434 O -0.03043 1.02716 1.04545
 O435 O 0.04351 1.00288 1.03711
 O436 O 0.04938 0.97671 1.01893
 O437 O 0.04079 1.04860 0.99525
 O438 O 0.02062 1.05461 0.96802
 O439 O -0.00765 0.95410 0.98510
 O440 O 0.00691 0.95074 1.01462
 O441 O -0.05323 0.99416 0.99362
 O442 O -0.05325 1.02819 1.00867
 O443 O -0.01522 1.00113 0.94642
 O444 O 0.01795 1.01330 0.94233
 O445 O 0.00236 0.97034 0.95817
 O446 O 0.03175 0.98984 0.95143
 O447 O -0.04134 1.01207 0.96332
 O448 O -0.04704 1.03946 0.98223
 O449 O -0.03751 0.96675 1.00205
 O450 O -0.01943 0.96414 1.03285
 O451 O 0.00979 1.06126 1.01526
 O452 O -0.00347 1.06478 0.98355
 O453 O 0.05614 1.02148 1.00518
 O454 O 0.05696 0.98933 0.99123
 O455 O 0.01746 1.01458 1.05376
 O456 O -0.01393 0.99863 1.05572
 Zr457 Zr -0.00424 1.01683 1.03281
 O458 O -0.02329 0.99995 1.01649
 Zr459 Zr 0.03413 1.00083 1.00830
 O460 O 0.01665 0.98321 0.99113
 Zr461 Zr 0.01152 1.04025 0.99355
 O462 O -0.00693 1.02441 0.97568
 Zr463 Zr -0.00874 0.97555 1.00627
 O464 O 0.00990 0.99130 1.02437
 Zr465 Zr -0.03131 1.01511 0.99161
 O466 O -0.01389 1.03291 1.00889
 Zr467 Zr 0.00685 0.99887 0.96710
 O468 O 0.02631 1.01593 0.98311
 O469 O 0.02066 1.02563 1.01796
 O470 O -0.01818 0.99002 0.98167
 C471 C 0.00452 1.06070 1.03317
 C472 C 0.03507 1.00857 1.05277
 C473 C 0.05613 1.03915 0.99974
 C474 C -0.00285 0.95489 0.96710
 C475 C -0.05290 0.97610 0.99759
 C476 C -0.03300 1.00658 0.94762
 H477 H -0.03463 0.99632 1.02459
 H478 H -0.01062 1.03245 0.96449
 H479 H 0.02930 1.03359 1.02595
 H480 H 0.02413 0.97169 0.98732
 H481 H 0.01398 0.95415 1.02648
 H482 H 0.04261 0.96516 1.01428
 H483 H -0.03837 1.04702 0.97363
 H484 H -0.01599 1.06510 0.99068
 H485 H -0.02485 0.95121 1.03031
 H486 H -0.01223 1.00533 1.06819
 H487 H 0.01082 1.02555 0.94100
 H488 H 0.02947 1.04570 0.96113
 H489 H -0.02776 1.03197 1.05860
 H490 H -0.05741 1.01882 1.01868
 H491 H 0.05763 0.99709 0.97921
 H492 H 0.03730 0.97866 0.95830
 O493 O 0.49544 0.45081 0.47840
 O494 O 0.51034 0.44815 0.50969
 O495 O 0.44948 0.49124 0.48730
 O496 O 0.44598 0.52135 0.49830
 O497 O 0.49014 0.49910 0.43979
 O498 O 0.52259 0.51118 0.43800
 O499 O 0.50109 0.54046 0.53788
 O500 O 0.47212 0.52405 0.54090
 O501 O 0.54502 0.49903 0.53304
 O502 O 0.54830 0.46916 0.51084
 O503 O 0.54378 0.54441 0.49375
 O504 O 0.52499 0.55201 0.46496
 O505 O 0.51333 0.55660 0.51179
 O506 O 0.50082 0.56115 0.47833
 O507 O 0.55845 0.51691 0.50363
 O508 O 0.56179 0.48583 0.49061
 O509 O 0.51864 0.51111 0.54871
 O510 O 0.48685 0.49413 0.54980
 O511 O 0.50779 0.46698 0.45235
 O512 O 0.53637 0.48610 0.44744
 O513 O 0.46331 0.50962 0.45589
 O514 O 0.46001 0.53846 0.47630
 O515 O 0.46446 0.46353 0.49631
 O516 O 0.48216 0.46005 0.52628
 Zr517 Zr 0.49347 0.47181 0.50008
 O518 O 0.51129 0.48723 0.51899
 Zr519 Zr 0.47186 0.51172 0.48485
 O520 O 0.48863 0.52871 0.50332
 Zr521 Zr 0.51085 0.49557 0.46167
 O522 O 0.52942 0.51190 0.47901
 Zr523 Zr 0.49723 0.51255 0.52742
 O524 O 0.47839 0.49623 0.51012
 Zr525 Zr 0.53628 0.49635 0.50412
 O526 O 0.51951 0.47917 0.48564
 Zr527 Zr 0.51472 0.53633 0.48929
 O528 O 0.49685 0.52116 0.46986
 O529 O 0.48544 0.48689 0.47538
 O530 O 0.52293 0.52134 0.51396
 C531 C 0.50185 0.45154 0.46087
 C532 C 0.44932 0.47326 0.49177
 C533 C 0.47238 0.50471 0.44036
 C534 C 0.50759 0.55575 0.52955
 C535 C 0.53631 0.50530 0.54829
 C536 C 0.55871 0.53487 0.49929
 H537 H 0.51436 0.47913 0.53034
 H538 H 0.54115 0.51535 0.47144
 H539 H 0.47712 0.47914 0.46687
 H540 H 0.48104 0.54008 0.50734
 H541 H 0.46131 0.51530 0.53781
 H542 H 0.44975 0.52831 0.51007
 H543 H 0.56264 0.49175 0.47760
 H544 H 0.54232 0.47637 0.45601
 H545 H 0.48796 0.50105 0.56222
 H546 H 0.47639 0.44730 0.52366
 H547 H 0.53513 0.54420 0.45853
 H548 H 0.51644 0.52403 0.43831
 H549 H 0.50278 0.43615 0.50820
 H550 H 0.54306 0.46509 0.52358
 H551 H 0.46849 0.54359 0.46584
 H552 H 0.48908 0.56345 0.48633
 O553 O 0.45805 -0.04479 0.49881
 O554 O 0.47480 -0.04784 0.46817
 O555 O 0.50387 -0.04188 0.53992
 O556 O 0.53049 -0.02416 0.54476
 O557 O 0.45823 0.00026 0.54060
 O558 O 0.45239 0.02855 0.52156
 O559 O 0.55134 0.00980 0.48581
 O560 O 0.55464 -0.01989 0.50033
 O561 O 0.50836 0.00352 0.44349
 O562 O 0.47368 -0.01050 0.44561
 O563 O 0.50492 0.04961 0.48210
 O564 O 0.49495 0.05354 0.51541
 O565 O 0.53651 0.03663 0.49739
 O566 O 0.51833 0.04278 0.52835
 O567 O 0.49180 0.03384 0.45681
 O568 O 0.46336 0.01570 0.45283
 O569 O 0.53647 -0.00618 0.45718
 O570 O 0.53912 -0.03721 0.47505
 O571 O 0.44337 -0.01771 0.51006
 O572 O 0.44036 0.01447 0.49789
 O573 O 0.48601 -0.01070 0.55404
 O574 O 0.51887 0.00336 0.55276
 O575 O 0.48967 -0.05750 0.51502
 O576 O 0.50404 -0.05912 0.48269
 Zr577 Zr 0.48692 -0.03612 0.49359
 O578 O 0.50339 -0.01985 0.47357
 Zr579 Zr 0.50579 -0.01303 0.53081
 O580 O 0.52324 0.00391 0.51229
 Zr581 Zr 0.46541 0.00312 0.51103
 O582 O 0.48098 0.02093 0.49173
 Zr583 Zr 0.52907 -0.01070 0.48643
 O584 O 0.51362 -0.02869 0.50600
 Zr585 Zr 0.48851 0.00549 0.46674
 O586 O 0.47098 -0.01168 0.48518
 Zr587 Zr 0.50772 0.02843 0.50375
 O588 O 0.49096 0.01256 0.52420
 O589 O 0.47983 -0.02175 0.51899
 O590 O 0.51479 0.01437 0.47816
 C591 C 0.44307 -0.03539 0.50474
 C592 C 0.49701 -0.05709 0.53201
 C593 C 0.46823 -0.00527 0.55518
 C594 C 0.55143 0.02757 0.49081
 C595 C 0.52639 -0.00104 0.44255
 C596 C 0.49827 0.04908 0.46484
 H597 H 0.50618 -0.02771 0.46201
 H598 H 0.47305 0.03235 0.48868
 H599 H 0.47202 -0.02984 0.52794
 H600 H 0.53537 0.00721 0.51894
 H601 H 0.55123 -0.03172 0.50762
 H602 H 0.54189 -0.02024 0.53691
 H603 H 0.45671 0.02457 0.46184
 H604 H 0.43913 0.00788 0.48533
 H605 H 0.55192 -0.03491 0.46878
 H606 H 0.49702 -0.07139 0.48484
 H607 H 0.48168 0.05452 0.51028
 H608 H 0.46196 0.03463 0.53013
 H609 H 0.46970 -0.06087 0.47111
 H610 H 0.48250 -0.02072 0.44095
 H611 H 0.51090 0.01508 0.55444
 H612 H 0.53003 0.03586 0.53270
 O613 O -0.04279 0.45985 0.99329
 O614 O -0.02535 0.45854 0.96293
 O615 O 0.00181 0.46020 1.03574
 O616 O 0.02849 0.47742 1.04202
 O617 O -0.04354 0.50272 1.03777
 O618 O -0.04898 0.53185 1.01988
 O619 O 0.05067 0.51481 0.98565
 O620 O 0.05367 0.48441 0.99890
 O621 O 0.00904 0.51088 0.94207
 O622 O -0.02586 0.49672 0.94266
 O623 O 0.00469 0.55476 0.98299
 O624 O -0.00670 0.55663 1.01659
 O625 O 0.03559 0.54096 0.99844
 O626 O 0.01687 0.54569 1.02903
 O627 O -0.00777 0.54041 0.95654
 O628 O -0.03608 0.52284 0.95076
 O629 O 0.03666 0.50027 0.95607
 O630 O 0.03887 0.46840 0.97229
 O631 O -0.05774 0.48618 1.00592
 O632 O -0.06054 0.51886 0.99538
 O633 O -0.01612 0.49082 1.05114
 O634 O 0.01664 0.50449 1.05155
 O635 O -0.01148 0.44608 1.00945
 O636 O 0.00346 0.44628 0.97745
 Zr637 Zr -0.01384 0.46868 0.98931
 O638 O 0.00319 0.48595 0.97068
 Zr639 Zr 0.00412 0.48952 1.02829
 O640 O 0.02199 0.50749 1.01124
 Zr641 Zr -0.03575 0.50691 1.00846
 O642 O -0.01970 0.52570 0.99048
 Zr643 Zr 0.02848 0.49428 0.98479
 O644 O 0.01253 0.47526 1.00284
 Zr645 Zr -0.01149 0.51164 0.96487
 O646 O -0.02952 0.49359 0.98192
 Zr647 Zr 0.00668 0.53247 1.00363
 O648 O -0.01051 0.51549 1.02275
 O649 O -0.02156 0.48158 1.01535
 O650 O 0.01444 0.51978 0.97751
 C651 C -0.05790 0.46887 0.99948
 C652 C -0.00462 0.44547 1.02663
 C653 C -0.03382 0.49646 1.05225
 C654 C 0.05062 0.53227 0.99160
 C655 C 0.02708 0.50626 0.94144
 C656 C -0.00133 0.55514 0.96549
 H657 H 0.00629 0.47872 0.95877
 H658 H -0.02753 0.53729 0.98783
 H659 H -0.02958 0.47305 1.02368
 H660 H 0.03394 0.51042 1.01836
 H661 H 0.05013 0.47217 1.00539
 H662 H 0.04010 0.48219 1.03501
 H663 H -0.04320 0.53088 0.96021
 H664 H -0.06136 0.51307 0.98238
 H665 H 0.05186 0.47098 0.96656
 H666 H -0.00366 0.43395 0.97863
 H667 H -0.01933 0.55861 1.01029
 H668 H -0.03955 0.53755 1.02885
 H669 H -0.03058 0.44540 0.96496
 H670 H -0.01675 0.48707 0.93734
 H671 H 0.00892 0.51635 1.05343
 H672 H 0.02815 0.53823 1.03358
 O673 O 0.00767 0.44159 0.51393
 O674 O -0.00866 0.43942 0.48332
 O675 O 0.05422 0.48096 0.50245
 O676 O 0.05803 0.51093 0.49134
 O677 O 0.01535 0.49012 0.55165
 O678 O -0.01700 0.50252 0.55430
 O679 O 0.00159 0.53173 0.45365
 O680 O 0.03036 0.51486 0.44992
 O681 O -0.04254 0.49054 0.46013
 O682 O -0.04584 0.46115 0.48342
 O683 O -0.03915 0.53628 0.49946
 O684 O -0.01879 0.54310 0.52760
 O685 O -0.00926 0.54789 0.48013
 O686 O 0.00447 0.55226 0.51275
 O687 O -0.05468 0.50937 0.48959
 O688 O -0.05867 0.47876 0.50321
 O689 O -0.01647 0.50241 0.44367
 O690 O 0.01494 0.48515 0.44173
 O691 O -0.00302 0.45816 0.54025
 O692 O -0.03118 0.47747 0.54583
 O693 O 0.04176 0.50015 0.53450
 O694 O 0.04531 0.52838 0.51347
 O695 O 0.03816 0.45370 0.49431
 O696 O 0.01909 0.45048 0.46543
 Zr697 Zr 0.00923 0.46262 0.49189
 O698 O -0.00877 0.47858 0.47340
 Zr699 Zr 0.03240 0.50196 0.50579
 O700 O 0.01532 0.51948 0.48787
 Zr701 Zr -0.00613 0.48669 0.53055
 O702 O -0.02500 0.50343 0.51369
 Zr703 Zr 0.00552 0.50366 0.46425
 O704 O 0.02449 0.48671 0.48101
 Zr705 Zr -0.03309 0.48819 0.48894
 O706 O -0.01611 0.47058 0.50710
 Zr707 Zr -0.01011 0.52755 0.50276
 O708 O 0.00817 0.51193 0.52159
 O709 O 0.01864 0.47744 0.51608
 O710 O -0.01953 0.51293 0.47848
 C711 C 0.00215 0.44255 0.53174
 C712 C 0.05375 0.46305 0.49785
 C713 C 0.03306 0.49578 0.55044
 C714 C -0.00433 0.54708 0.46216
 C715 C -0.03410 0.49657 0.44456
 C716 C -0.05439 0.52724 0.49408
 H717 H -0.01236 0.47052 0.46227
 H718 H -0.03640 0.50712 0.52162
 H719 H 0.02718 0.46957 0.52437
 H720 H 0.02298 0.53072 0.48349
 H721 H 0.04111 0.50584 0.45259
 H722 H 0.05403 0.51816 0.47972
 H723 H -0.05841 0.48389 0.51650
 H724 H -0.03767 0.46798 0.53751
 H725 H 0.01367 0.49217 0.42930
 H726 H 0.02456 0.43754 0.46797
 H727 H -0.02946 0.53591 0.53400
 H728 H -0.01054 0.51521 0.55376
 H729 H -0.00140 0.42720 0.48470
 H730 H -0.04109 0.45678 0.47064
 H731 H 0.03709 0.53401 0.52381
 H732 H 0.01613 0.55416 0.50452
 O733 O 0.50462 0.93672 0.01624
 O734 O 0.49017 0.93450 -0.01533
 O735 O 0.55145 0.97628 0.00787
 O736 O 0.55585 1.00636 -0.00273
 O737 O 0.50944 0.98481 0.05447
 O738 O 0.47721 0.99735 0.05529
 O739 O 0.50159 1.02683 -0.04423
 O740 O 0.53064 1.01008 -0.04627
 O741 O 0.45732 0.98580 -0.04023
 O742 O 0.45250 0.95643 -0.01778
 O743 O 0.45841 1.03135 -0.00098
 O744 O 0.47681 1.03827 0.02836
 O745 O 0.48936 1.04303 -0.01836
 O746 O 0.50115 1.04725 0.01519
 O747 O 0.44355 1.00439 -0.01168
 O748 O 0.43913 0.97328 0.00210
 O749 O 0.48421 0.99771 -0.05526
 O750 O 0.51580 0.98031 -0.05534
 O751 O 0.49177 0.95309 0.04173
 O752 O 0.46337 0.97254 0.04563
 O753 O 0.53685 0.99524 0.03925
 O754 O 0.54154 1.02370 0.01830
 O755 O 0.53610 0.94901 -0.00144
 O756 O 0.51887 0.94582 -0.03152
 Zr757 Zr 0.50734 0.95779 -0.00564
 O758 O 0.49035 0.97368 -0.02513
 Zr759 Zr 0.52937 0.99718 0.00989
 O760 O 0.51341 1.01461 -0.00917
 Zr761 Zr 0.48941 0.98169 0.03206
 O762 O 0.47164 0.99852 0.01417
 Zr763 Zr 0.50506 0.99881 -0.03339
 O764 O 0.52309 0.98199 -0.01547
 Zr765 Zr 0.46515 0.98322 -0.01101
 O766 O 0.48106 0.96557 0.00801
 Zr767 Zr 0.48715 1.02266 0.00418
 O768 O 0.50416 1.00701 0.02414
 O769 O 0.51508 0.97257 0.01917
 O770 O 0.47923 1.00800 -0.02061
 C771 C 0.49774 0.93756 0.03359
 C772 C 0.55137 0.95840 0.00317
 C773 C 0.52715 0.99052 0.05453
 C774 C 0.49520 1.04217 -0.03607
 C775 C 0.46651 0.99200 -0.05528
 C776 C 0.44356 1.02228 -0.00727
 H777 H 0.48746 0.96567 -0.03649
 H778 H 0.45980 1.00220 0.02141
 H779 H 0.52309 0.96468 0.02795
 H780 H 0.52130 1.02586 -0.01309
 H781 H 0.54124 1.00109 -0.04297
 H782 H 0.55262 1.01299 -0.01494
 H783 H 0.43786 0.97958 0.01482
 H784 H 0.45742 0.96311 0.03685
 H785 H 0.51514 0.98732 -0.06784
 H786 H 0.52426 0.93291 -0.02869
 H787 H 0.46597 1.03092 0.03425
 H788 H 0.48354 1.01010 0.05508
 H789 H 0.49743 0.92233 -0.01354
 H790 H 0.45860 0.95181 -0.02991
 H791 H 0.53285 1.02911 0.02838
 H792 H 0.51315 1.04933 0.00750
 O793 O 0.48988 0.55019 0.01134
 O794 O 0.50582 0.55009 -0.02003
 O795 O 0.44198 0.51235 0.00541
 O796 O 0.43651 0.48195 -0.00315
 O797 O 0.48218 0.50483 0.05269
 O798 O 0.51381 0.49096 0.05466
 O799 O 0.49169 0.45706 -0.04303
 O800 O 0.46309 0.47427 -0.04620
 O801 O 0.53701 0.49627 -0.04139
 O802 O 0.54262 0.52641 -0.02066
 O803 O 0.53262 0.45290 0.00118
 O804 O 0.51297 0.44835 0.03050
 O805 O 0.50215 0.44171 -0.01601
 O806 O 0.48854 0.43991 0.01771
 O807 O 0.54924 0.47848 -0.01100
 O808 O 0.55471 0.50990 0.00012
 O809 O 0.50987 0.48529 -0.05588
 O810 O 0.47883 0.50332 -0.05694
 O811 O 0.50131 0.53490 0.03802
 O812 O 0.52903 0.51460 0.04329
 O813 O 0.45476 0.49466 0.03810
 O814 O 0.44955 0.46514 0.01910
 O815 O 0.45883 0.53828 -0.00583
 O816 O 0.47725 0.53907 -0.03589
 Zr817 Zr 0.48731 0.52809 -0.00910
 O818 O 0.50419 0.51043 -0.02727
 Zr819 Zr 0.46303 0.49065 0.00896
 O820 O 0.47874 0.47152 -0.00881
 Zr821 Zr 0.50301 0.50572 0.03028
 O822 O 0.52048 0.48709 0.01375
 Zr823 Zr 0.48856 0.48561 -0.03394
 O824 O 0.47073 0.50410 -0.01734
 Zr825 Zr 0.52854 0.50058 -0.01236
 O826 O 0.51283 0.52003 0.00524
 Zr827 Zr 0.50419 0.46313 0.00527
 O828 O 0.48736 0.48063 0.02404
 O829 O 0.47815 0.51508 0.01658
 O830 O 0.51359 0.47600 -0.02040
 C831 C 0.49596 0.55010 0.02884
 C832 C 0.44303 0.52990 -0.00054
 C833 C 0.46422 0.49998 0.05304
 C834 C 0.49729 0.44195 -0.03390
 C835 C 0.52779 0.49026 -0.05621
 C836 C 0.54820 0.46091 -0.00527
 H837 H 0.50775 0.51773 -0.03909
 H838 H 0.53189 0.48331 0.02137
 H839 H 0.47018 0.52376 0.02471
 H840 H 0.47053 0.46040 -0.01209
 H841 H 0.45262 0.48365 -0.04352
 H842 H 0.43977 0.47438 -0.01478
 H843 H 0.55484 0.50505 0.01357
 H844 H 0.53540 0.52362 0.03410
 H845 H 0.47950 0.49572 -0.06901
 H846 H 0.47232 0.55231 -0.03398
 H847 H 0.52368 0.45574 0.03623
 H848 H 0.50684 0.47855 0.05537
 H849 H 0.49902 0.56262 -0.01917
 H850 H 0.53700 0.53074 -0.03302
 H851 H 0.45768 0.46003 0.02964
 H852 H 0.47703 0.43759 0.00968
 O853 O -0.01379 0.05451 0.51884
 O854 O 0.00027 0.05711 0.48754
 O855 O -0.06002 0.01406 0.51100
 O856 O -0.06371 -0.01633 0.50193
 O857 O -0.02035 0.00799 0.55881
 O858 O 0.01149 -0.00449 0.56137
 O859 O -0.00734 -0.03687 0.46209
 O860 O -0.03601 -0.02018 0.45845
 O861 O 0.03720 0.00357 0.46631
 O862 O 0.04163 0.03171 0.48335
 O863 O 0.03335 -0.04065 0.50693
 O864 O 0.01397 -0.04742 0.53512
 O865 O 0.00354 -0.05260 0.48873
 O866 O -0.01084 -0.05547 0.52262
 O867 O 0.04914 -0.01398 0.49616
 O868 O 0.05069 0.01941 0.51035
 O869 O 0.01097 -0.00788 0.45060
 O870 O -0.02046 0.00925 0.44877
 O871 O -0.00190 0.03910 0.54524
 O872 O 0.02641 0.01939 0.55054
 O873 O -0.04681 -0.00351 0.54350
 O874 O -0.05003 -0.03292 0.52329
 O875 O -0.04463 0.04141 0.50131
 O876 O -0.02539 0.04286 0.47062
 Zr877 Zr -0.01549 0.03284 0.49785
 O878 O 0.00303 0.01662 0.47983
 Zr879 Zr -0.03784 -0.00634 0.51441
 O880 O -0.02094 -0.02402 0.49625
 Zr881 Zr 0.00085 0.01017 0.53686
 O882 O 0.01945 -0.00741 0.52034
 Zr883 Zr -0.01119 -0.00865 0.47181
 O884 O -0.03049 0.00826 0.48860
 Zr885 Zr 0.02745 0.00725 0.49490
 O886 O 0.01029 0.02566 0.51234
 Zr887 Zr 0.00446 -0.03176 0.51072
 O888 O -0.01337 -0.01553 0.52972
 O889 O -0.02426 0.01868 0.52302
 O890 O 0.01384 -0.01769 0.48571
 C891 C -0.00765 0.05430 0.53631
 C892 C -0.05999 0.03186 0.50589
 C893 C -0.03799 0.00211 0.55871
 C894 C -0.00142 -0.05207 0.47086
 C895 C 0.02879 -0.00255 0.45108
 C896 C 0.04870 -0.03180 0.50116
 H897 H 0.00685 0.02443 0.46841
 H898 H 0.03081 -0.01095 0.52815
 H899 H -0.03272 0.02679 0.53126
 H900 H -0.02864 -0.03533 0.49246
 H901 H -0.04677 -0.01111 0.46107
 H902 H -0.06004 -0.02178 0.48925
 H903 H 0.05398 0.01053 0.52102
 H904 H 0.03243 0.02917 0.54194
 H905 H -0.01921 0.00187 0.43660
 H906 H -0.03280 0.05494 0.47242
 H907 H 0.02294 -0.03906 0.54226
 H908 H 0.00538 -0.01735 0.56143
 H909 H -0.00816 0.06864 0.48829
 H910 H 0.03374 0.04291 0.48732
 H911 H -0.04239 -0.03754 0.53441
 H912 H -0.02144 -0.05871 0.51373
 O913 O 0.74116 0.23405 0.30192
 O914 O 0.75878 0.26410 0.30302
 O915 O 0.69322 0.24631 0.26537
 O916 O 0.68819 0.25751 0.23552
 O917 O 0.72998 0.19676 0.25378
 O918 O 0.76145 0.19337 0.23941
 O919 O 0.74443 0.29381 0.21093
 O920 O 0.71706 0.29830 0.22991
 O921 O 0.79085 0.28624 0.24926
 O922 O 0.79491 0.26343 0.27874
 O923 O 0.78356 0.24777 0.20383
 O924 O 0.76217 0.22002 0.19834
 O925 O 0.75360 0.26725 0.19416
 O926 O 0.73874 0.23501 0.19078
 O927 O 0.80090 0.25664 0.22996
 O928 O 0.80582 0.24308 0.26073
 O929 O 0.76482 0.30334 0.23912
 O930 O 0.73445 0.30599 0.25862
 O931 O 0.75046 0.20778 0.28472
 O932 O 0.77727 0.20157 0.26347
 O933 O 0.70362 0.21426 0.24528
 O934 O 0.69925 0.23538 0.21720
 O935 O 0.71089 0.25423 0.29167
 O936 O 0.73109 0.28251 0.29365
 Zr937 Zr 0.73940 0.25600 0.28089
 O938 O 0.75722 0.27396 0.26370
 Zr939 Zr 0.71379 0.24264 0.24290
 O940 O 0.73053 0.26012 0.22425
 Zr941 Zr 0.75225 0.21727 0.25584
 O942 O 0.77076 0.23357 0.23777
 Zr943 Zr 0.74197 0.28341 0.23943
 O944 O 0.72330 0.26714 0.25764
 Zr945 Zr 0.78045 0.25795 0.25254
 O946 O 0.76379 0.24034 0.27137
 Zr947 Zr 0.75498 0.24478 0.21453
 O948 O 0.73694 0.22644 0.23140
 O949 O 0.72846 0.23213 0.26666
 O950 O 0.76599 0.26869 0.22856
 C951 C 0.74623 0.21629 0.30067
 C952 C 0.69474 0.25091 0.28329
 C953 C 0.71207 0.19826 0.24914
 C954 C 0.74917 0.28517 0.19519
 C955 C 0.78274 0.30193 0.24372
 C956 C 0.79949 0.25250 0.21198
 H957 H 0.76164 0.28494 0.27151
 H958 H 0.78167 0.22545 0.23335
 H959 H 0.72007 0.22406 0.27510
 H960 H 0.72240 0.26462 0.21347
 H961 H 0.70673 0.29583 0.23967
 H962 H 0.69221 0.26913 0.22824
 H963 H 0.80515 0.23007 0.25510
 H964 H 0.78455 0.20971 0.27255
 H965 H 0.73586 0.31833 0.25149
 H966 H 0.72626 0.28009 0.30699
 H967 H 0.77304 0.21349 0.20486
 H968 H 0.75460 0.19419 0.22696
 H969 H 0.75213 0.26283 0.31575
 H970 H 0.79070 0.27619 0.28340
 H971 H 0.70674 0.22487 0.21107
 H972 H 0.72730 0.24347 0.18953
 O973 O 0.75336 0.70827 0.71828
 O974 O 0.78304 0.70434 0.73627
 O975 O 0.70886 0.71020 0.76153
 O976 O 0.70204 0.72693 0.78836
 O977 O 0.71259 0.75478 0.71786
 O978 O 0.73290 0.78246 0.71390
 O979 O 0.75999 0.75905 0.81366
 O980 O 0.74421 0.72976 0.81514
 O981 O 0.80545 0.75361 0.77355
 O982 O 0.80621 0.74081 0.73841
 O983 O 0.76757 0.80064 0.76883
 O984 O 0.73456 0.80504 0.75718
 O985 O 0.75016 0.78673 0.79916
 O986 O 0.72067 0.79436 0.78028
 O987 O 0.79388 0.78485 0.75692
 O988 O 0.80028 0.76763 0.72862
 O989 O 0.78918 0.74247 0.80004
 O990 O 0.77038 0.71209 0.80053
 O991 O 0.74360 0.73615 0.70408
 O992 O 0.75710 0.76792 0.70279
 O993 O 0.69658 0.74277 0.74413
 O994 O 0.69523 0.75513 0.77733
 O995 O 0.73495 0.69472 0.74853
 O996 O 0.76618 0.69189 0.76413
 Zr997 Zr 0.75672 0.71582 0.74752
 O998 O 0.77550 0.73097 0.76575
 Zr999 Zr 0.71812 0.73885 0.76502
 O1000 O 0.73537 0.75475 0.78405
 Zr1001 Zr 0.74163 0.75621 0.72664
 O1002 O 0.75982 0.77296 0.74388
 Zr1003 Zr 0.76051 0.73934 0.79082
 O1004 O 0.74211 0.72239 0.77363
 Zr1005 Zr 0.78399 0.75674 0.75234
 O1006 O 0.76685 0.74069 0.73312
 Zr1007 Zr 0.74558 0.77967 0.77000
 O1008 O 0.72638 0.76487 0.75161
 O1009 O 0.73205 0.73097 0.73959
 O1010 O 0.77039 0.76478 0.77807
 C1011 C 0.74848 0.71831 0.70343
 C1012 C 0.71735 0.69509 0.75486
 C1013 C 0.69705 0.74930 0.72672
 C1014 C 0.75557 0.77700 0.81402
 C1015 C 0.80475 0.74790 0.79126
 C1016 C 0.78535 0.80007 0.76311
 H1017 H 0.78671 0.72273 0.76893
 H1018 H 0.76365 0.78460 0.73653
 H1019 H 0.72353 0.72344 0.73108
 H1020 H 0.72781 0.75775 0.79588
 H1021 H 0.73703 0.71822 0.81099
 H1022 H 0.70871 0.73062 0.80033
 H1023 H 0.79171 0.77638 0.72134
 H1024 H 0.76952 0.76083 0.70194
 H1025 H 0.77550 0.71364 0.81376
 H1026 H 0.76460 0.68001 0.75647
 H1027 H 0.74165 0.80710 0.74484
 H1028 H 0.72363 0.78846 0.72307
 H1029 H 0.78043 0.69165 0.73042
 H1030 H 0.81014 0.73033 0.74724
 H1031 H 0.69475 0.76744 0.77011
 H1032 H 0.71507 0.78681 0.79114
 O1033 O 0.25153 0.21124 0.78442
 O1034 O 0.22162 0.21133 0.76668
 O1035 O 0.29568 0.21235 0.74061
 O1036 O 0.30386 0.23050 0.71491
 O1037 O 0.29677 0.25307 0.78736
 O1038 O 0.27954 0.28248 0.79327
 O1039 O 0.24901 0.26979 0.69282
 O1040 O 0.26161 0.23936 0.68907
 O1041 O 0.20342 0.26499 0.73361
 O1042 O 0.20213 0.25032 0.76796
 O1043 O 0.24562 0.30811 0.73964
 O1044 O 0.27863 0.30896 0.75162
 O1045 O 0.26209 0.29499 0.70885
 O1046 O 0.29213 0.29820 0.72835
 O1047 O 0.21806 0.29398 0.75095
 O1048 O 0.21076 0.27572 0.77895
 O1049 O 0.21819 0.25491 0.70597
 O1050 O 0.23415 0.22312 0.70300
 O1051 O 0.26391 0.23689 0.80035
 O1052 O 0.25398 0.26972 0.80388
 O1053 O 0.31115 0.24183 0.75998
 O1054 O 0.31334 0.25692 0.72765
 O1055 O 0.26847 0.19839 0.75318
 O1056 O 0.23698 0.19983 0.73771
 Zr1057 Zr 0.24876 0.22131 0.75582
 O1058 O 0.23129 0.23960 0.73908
 Zr1059 Zr 0.28915 0.24191 0.73924
 O1060 O 0.27328 0.26082 0.72164
 Zr1061 Zr 0.26793 0.25833 0.77911
 O1062 O 0.25120 0.27810 0.76335
 Zr1063 Zr 0.24667 0.24847 0.71431
 O1064 O 0.26362 0.22853 0.72996
 Zr1065 Zr 0.22551 0.26492 0.75432
 O1066 O 0.24127 0.24581 0.77205
 Zr1067 Zr 0.26572 0.28541 0.73749
 O1068 O 0.28364 0.26745 0.75451
 O1069 O 0.27483 0.23339 0.76433
 O1070 O 0.23949 0.27364 0.72891
 C1071 C 0.25731 0.21961 0.79984
 C1072 C 0.28595 0.19763 0.74656
 C1073 C 0.31154 0.24672 0.77785
 C1074 C 0.25560 0.28705 0.69350
 C1075 C 0.20327 0.26069 0.71557
 C1076 C 0.22776 0.30870 0.74512
 H1077 H 0.21931 0.23268 0.73563
 H1078 H 0.24853 0.28950 0.77140
 H1079 H 0.28260 0.22438 0.77219
 H1080 H 0.28102 0.26398 0.70993
 H1081 H 0.26780 0.22693 0.69232
 H1082 H 0.29727 0.23554 0.70333
 H1083 H 0.22008 0.28357 0.78622
 H1084 H 0.24078 0.26417 0.80427
 H1085 H 0.22898 0.22620 0.69003
 H1086 H 0.23760 0.18722 0.74443
 H1087 H 0.27211 0.31039 0.76433
 H1088 H 0.28914 0.28827 0.78422
 H1089 H 0.22312 0.19796 0.77148
 H1090 H 0.19744 0.24046 0.75891
 H1091 H 0.31541 0.26823 0.73598
 H1092 H 0.29683 0.29121 0.71681
 O1093 O 0.21051 0.75201 0.29329
 O1094 O 0.22820 0.72215 0.29460
 O1095 O 0.25448 0.79508 0.28990
 O1096 O 0.28050 0.80181 0.27142
 O1097 O 0.20805 0.79537 0.24871
 O1098 O 0.20175 0.77691 0.22049
 O1099 O 0.30246 0.74553 0.23428
 O1100 O 0.30620 0.75902 0.26438
 O1101 O 0.26126 0.70134 0.24103
 O1102 O 0.22697 0.70112 0.25627
 O1103 O 0.25563 0.74151 0.19616
 O1104 O 0.24377 0.77450 0.19382
 O1105 O 0.28652 0.75770 0.20839
 O1106 O 0.26725 0.78775 0.20385
 O1107 O 0.24382 0.71505 0.21158
 O1108 O 0.21565 0.70915 0.23064
 O1109 O 0.28907 0.71582 0.25033
 O1110 O 0.29199 0.73259 0.28180
 O1111 O 0.19464 0.76377 0.26713
 O1112 O 0.19109 0.75243 0.23468
 O1113 O 0.23558 0.80962 0.25911
 O1114 O 0.26820 0.81035 0.24438
 O1115 O 0.24183 0.76888 0.30527
 O1116 O 0.25728 0.73738 0.30527
 Zr1117 Zr 0.23919 0.74844 0.28321
 O1118 O 0.25588 0.73002 0.26559
 Zr1119 Zr 0.25609 0.78730 0.26055
 O1120 O 0.27371 0.77045 0.24227
 Zr1121 Zr 0.21599 0.76634 0.24524
 O1122 O 0.23176 0.74871 0.22608
 Zr1123 Zr 0.28084 0.74440 0.25586
 O1124 O 0.26522 0.76235 0.27514
 Zr1125 Zr 0.24059 0.72360 0.24047
 O1126 O 0.22291 0.74032 0.25903
 Zr1127 Zr 0.25782 0.76230 0.21797
 O1128 O 0.24080 0.78106 0.23523
 O1129 O 0.23080 0.77397 0.26989
 O1130 O 0.26617 0.73661 0.23098
 C1131 C 0.19508 0.75775 0.28474
 C1132 C 0.24847 0.78614 0.30518
 C1133 C 0.21777 0.81018 0.25394
 C1134 C 0.30186 0.75130 0.21661
 C1135 C 0.27939 0.70103 0.24504
 C1136 C 0.24988 0.72395 0.19636
 H1137 H 0.25927 0.71835 0.27303
 H1138 H 0.22370 0.74578 0.21477
 H1139 H 0.22292 0.78227 0.27850
 H1140 H 0.28551 0.77776 0.23870
 H1141 H 0.30296 0.76560 0.27665
 H1142 H 0.29207 0.79471 0.26686
 H1143 H 0.20860 0.71812 0.22212
 H1144 H 0.19060 0.73963 0.24099
 H1145 H 0.30493 0.72706 0.27884
 H1146 H 0.25054 0.73864 0.31793
 H1147 H 0.23116 0.76794 0.19246
 H1148 H 0.21098 0.78570 0.21387
 H1149 H 0.22341 0.72426 0.30798
 H1150 H 0.23604 0.69673 0.26632
 H1151 H 0.26011 0.81202 0.23278
 H1152 H 0.27894 0.79237 0.21051
 O1153 O 0.23749 0.69153 0.75997
 O1154 O 0.26851 0.69012 0.74490
 O1155 O 0.24578 0.72977 0.80738
 O1156 O 0.25524 0.75996 0.81205
 O1157 O 0.19698 0.73766 0.76913
 O1158 O 0.19367 0.75073 0.73775
 O1159 O 0.29325 0.78406 0.75558
 O1160 O 0.29762 0.76633 0.78363
 O1161 O 0.28849 0.74551 0.70998
 O1162 O 0.27164 0.71727 0.70486
 O1163 O 0.24725 0.78880 0.71638
 O1164 O 0.21899 0.79390 0.73707
 O1165 O 0.26610 0.79975 0.74593
 O1166 O 0.23273 0.80179 0.76110
 O1167 O 0.25794 0.76296 0.69943
 O1168 O 0.24421 0.72950 0.69684
 O1169 O 0.30460 0.75612 0.73625
 O1170 O 0.30738 0.73770 0.76683
 O1171 O 0.21044 0.70698 0.74966
 O1172 O 0.20442 0.72753 0.72208
 O1173 O 0.21293 0.74803 0.79561
 O1174 O 0.23310 0.77706 0.79981
 O1175 O 0.25579 0.70352 0.79057
 O1176 O 0.28599 0.70339 0.77067
 Zr1177 Zr 0.25834 0.71345 0.76190
 O1178 O 0.27583 0.73079 0.74377
 Zr1179 Zr 0.24190 0.75127 0.78622
 O1180 O 0.25941 0.77005 0.76963
 Zr1181 Zr 0.21859 0.73613 0.74752
 O1182 O 0.23454 0.75475 0.72928
 Zr1183 Zr 0.28386 0.75556 0.75877
 O1184 O 0.26773 0.73745 0.77766
 Zr1185 Zr 0.26004 0.74089 0.72016
 O1186 O 0.24311 0.72147 0.73688
 Zr1187 Zr 0.24424 0.77862 0.74492
 O1188 O 0.22588 0.76128 0.76254
 O1189 O 0.23315 0.72677 0.77188
 O1190 O 0.26924 0.76539 0.73448
 C1191 C 0.21974 0.69170 0.75453
 C1192 C 0.25130 0.71213 0.80639
 C1193 C 0.19742 0.74299 0.78687
 C1194 C 0.28417 0.79931 0.75031
 C1195 C 0.30384 0.75155 0.71832
 C1196 C 0.25274 0.78065 0.70062
 H1197 H 0.28729 0.72335 0.73942
 H1198 H 0.22639 0.75863 0.71828
 H1199 H 0.22510 0.71825 0.78020
 H1200 H 0.26328 0.78110 0.77761
 H1201 H 0.29543 0.75673 0.79405
 H1202 H 0.26740 0.76654 0.80824
 H1203 H 0.23315 0.73816 0.69434
 H1204 H 0.21305 0.71814 0.71559
 H1205 H 0.31946 0.74536 0.76564
 H1206 H 0.28451 0.69090 0.77749
 H1207 H 0.21243 0.78644 0.72694
 H1208 H 0.19378 0.76351 0.74395
 H1209 H 0.26807 0.67818 0.75280
 H1210 H 0.26773 0.70565 0.71221
 H1211 H 0.22216 0.78227 0.79228
 H1212 H 0.24166 0.80440 0.77183
 O1213 O 0.25955 0.21094 0.20588
 O1214 O 0.28915 0.20790 0.22415
 O1215 O 0.21450 0.21106 0.24837
 O1216 O 0.20686 0.22744 0.27532
 O1217 O 0.21736 0.25623 0.20510
 O1218 O 0.23683 0.28444 0.20144
 O1219 O 0.26330 0.26165 0.30145
 O1220 O 0.24847 0.23187 0.30269
 O1221 O 0.30946 0.25722 0.26169
 O1222 O 0.31091 0.24526 0.22637
 O1223 O 0.27007 0.30353 0.25704
 O1224 O 0.23684 0.30666 0.24455
 O1225 O 0.25263 0.28899 0.28690
 O1226 O 0.22338 0.29585 0.26786
 O1227 O 0.29706 0.28857 0.24559
 O1228 O 0.30438 0.27208 0.21714
 O1229 O 0.29320 0.24604 0.28818
 O1230 O 0.27539 0.21506 0.28837
 O1231 O 0.24905 0.23852 0.19162
 O1232 O 0.26159 0.27067 0.19060
 O1233 O 0.20133 0.24346 0.23101
 O1234 O 0.19908 0.25545 0.26426
 O1235 O 0.24138 0.19668 0.23571
 O1236 O 0.27242 0.19488 0.25184
 Zr1237 Zr 0.26236 0.21851 0.23516
 O1238 O 0.28034 0.23420 0.25366
 Zr1239 Zr 0.22272 0.24005 0.25220
 O1240 O 0.23917 0.25653 0.27149
 Zr1241 Zr 0.24619 0.25844 0.21422
 O1242 O 0.26357 0.27575 0.23174
 Zr1243 Zr 0.26475 0.24199 0.27859
 O1244 O 0.24718 0.22445 0.26110
 Zr1245 Zr 0.28811 0.26027 0.24043
 O1246 O 0.27181 0.24372 0.22093
 Zr1247 Zr 0.24873 0.28185 0.25769
 O1248 O 0.23029 0.26642 0.23903
 O1249 O 0.23728 0.23283 0.22693
 O1250 O 0.27393 0.26777 0.26601
 C1251 C 0.25447 0.22084 0.19101
 C1252 C 0.22368 0.19632 0.24171
 C1253 C 0.20187 0.25022 0.21368
 C1254 C 0.25825 0.27943 0.30179
 C1255 C 0.30874 0.25157 0.27940
 C1256 C 0.28801 0.30349 0.25176
 H1257 H 0.29176 0.22628 0.25693
 H1258 H 0.26711 0.28754 0.22451
 H1259 H 0.22912 0.22508 0.21828
 H1260 H 0.23136 0.25925 0.28323
 H1261 H 0.24173 0.22011 0.29844
 H1262 H 0.21314 0.23148 0.28739
 H1263 H 0.29555 0.28041 0.20969
 H1264 H 0.27426 0.26401 0.18992
 H1265 H 0.28028 0.21675 0.30167
 H1266 H 0.27134 0.18296 0.24415
 H1267 H 0.24455 0.30945 0.23272
 H1268 H 0.22735 0.29019 0.21056
 H1269 H 0.28701 0.19514 0.21826
 H1270 H 0.31487 0.23457 0.23493
 H1271 H 0.19838 0.26785 0.25721
 H1272 H 0.21760 0.28781 0.27826
 O1273 O 0.79128 0.71247 0.24734
 O1274 O 0.79246 0.73138 0.21795
 O1275 O 0.79036 0.75376 0.29251
 O1276 O 0.77320 0.78031 0.30006
 O1277 O 0.74745 0.70917 0.29232
 O1278 O 0.71858 0.70415 0.27428
 O1279 O 0.73451 0.80482 0.24579
 O1280 O 0.76505 0.80756 0.25892
 O1281 O 0.73936 0.76583 0.19997
 O1282 O 0.75377 0.73151 0.19819
 O1283 O 0.69500 0.75890 0.24148
 O1284 O 0.69358 0.74577 0.27468
 O1285 O 0.70848 0.78877 0.25821
 O1286 O 0.70385 0.76905 0.28774
 O1287 O 0.70962 0.74832 0.21397
 O1288 O 0.72766 0.72066 0.20626
 O1289 O 0.75004 0.79256 0.21516
 O1290 O 0.78178 0.79438 0.23140
 O1291 O 0.76484 0.69682 0.25952
 O1292 O 0.73206 0.69419 0.24912
 O1293 O 0.75901 0.73570 0.30725
 O1294 O 0.74575 0.76811 0.30968
 O1295 O 0.80466 0.74232 0.26510
 O1296 O 0.80445 0.75925 0.23413
 Zr1297 Zr 0.78200 0.74124 0.24514
 O1298 O 0.76441 0.75890 0.22783
 Zr1299 Zr 0.76083 0.75680 0.28547
 O1300 O 0.74248 0.77518 0.26977
 Zr1301 Zr 0.74364 0.71822 0.26350
 O1302 O 0.72453 0.73481 0.24686
 Zr1303 Zr 0.75568 0.78317 0.24347
 O1304 O 0.77508 0.76662 0.26026
 Zr1305 Zr 0.73868 0.74441 0.22156
 O1306 O 0.75708 0.72586 0.23717
 Zr1307 Zr 0.71749 0.76014 0.26173
 O1308 O 0.73480 0.74236 0.27948
 O1309 O 0.76899 0.73211 0.27090
 O1310 O 0.73016 0.76933 0.23584
 C1311 C 0.78234 0.69715 0.25290
 C1312 C 0.80522 0.74781 0.28279
 C1313 C 0.75323 0.71816 0.30737
 C1314 C 0.71687 0.80413 0.25201
 C1315 C 0.74412 0.78367 0.20013
 C1316 C 0.69468 0.75392 0.22363
 H1317 H 0.77173 0.76262 0.21602
 H1318 H 0.71293 0.72709 0.24397
 H1319 H 0.77750 0.72373 0.27870
 H1320 H 0.73936 0.78662 0.27762
 H1321 H 0.77743 0.80395 0.26504
 H1322 H 0.76787 0.79213 0.29417
 H1323 H 0.71953 0.71311 0.21539
 H1324 H 0.73796 0.69415 0.23601
 H1325 H 0.77910 0.80753 0.22650
 H1326 H 0.81695 0.75226 0.23473
 H1327 H 0.69115 0.73399 0.26717
 H1328 H 0.71253 0.71295 0.28379
 H1329 H 0.80576 0.72624 0.21949
 H1330 H 0.76373 0.74070 0.19353
 H1331 H 0.73358 0.76067 0.31109
 H1332 H 0.71132 0.77997 0.29287
 O1333 O 0.71076 0.24936 0.78683
 O1334 O 0.72785 0.21890 0.78845
 O1335 O 0.75533 0.29153 0.78487
 O1336 O 0.78207 0.29790 0.76726
 O1337 O 0.71043 0.29225 0.74186
 O1338 O 0.70493 0.27362 0.71348
 O1339 O 0.80481 0.24186 0.73096
 O1340 O 0.80746 0.25508 0.76122
 O1341 O 0.76292 0.19770 0.73649
 O1342 O 0.72795 0.19806 0.75066
 O1343 O 0.75903 0.23775 0.69121
 O1344 O 0.74753 0.27098 0.68852
 O1345 O 0.78973 0.25386 0.70447
 O1346 O 0.77097 0.28378 0.69898
 O1347 O 0.74642 0.21147 0.70631
 O1348 O 0.71804 0.20562 0.72419
 O1349 O 0.79053 0.21199 0.74660
 O1350 O 0.79249 0.22878 0.77808
 O1351 O 0.69608 0.26130 0.76005
 O1352 O 0.69340 0.24943 0.72765
 O1353 O 0.73761 0.30620 0.75349
 O1354 O 0.77060 0.30672 0.73981
 O1355 O 0.74203 0.26540 0.79983
 O1356 O 0.75667 0.23364 0.80043
 Zr1357 Zr 0.73971 0.24506 0.77765
 O1358 O 0.75694 0.22651 0.76068
 Zr1359 Zr 0.75786 0.28371 0.75556
 O1360 O 0.77588 0.26670 0.73786
 Zr1361 Zr 0.71814 0.26313 0.73884
 O1362 O 0.73435 0.24525 0.72032
 Zr1363 Zr 0.78235 0.24065 0.75175
 O1364 O 0.76617 0.25869 0.77048
 Zr1365 Zr 0.74248 0.22012 0.73508
 O1366 O 0.72423 0.23705 0.75292
 Zr1367 Zr 0.76077 0.25859 0.71304
 O1368 O 0.74341 0.27759 0.72970
 O1369 O 0.73214 0.27066 0.76400
 O1370 O 0.76849 0.23286 0.72638
 C1371 C 0.69580 0.25556 0.77777
 C1372 C 0.74882 0.28259 0.79996
 C1373 C 0.72004 0.30693 0.74760
 C1374 C 0.80482 0.24764 0.71326
 C1375 C 0.78089 0.19724 0.74116
 C1376 C 0.75298 0.22028 0.69125
 H1377 H 0.75995 0.21482 0.76827
 H1378 H 0.72663 0.24234 0.70877
 H1379 H 0.72414 0.27910 0.77234
 H1380 H 0.78783 0.27394 0.73467
 H1381 H 0.80378 0.26174 0.77333
 H1382 H 0.79373 0.29091 0.76276
 H1383 H 0.71071 0.21497 0.71635
 H1384 H 0.69239 0.23681 0.73426
 H1385 H 0.80549 0.22316 0.77560
 H1386 H 0.74937 0.23488 0.81279
 H1387 H 0.73508 0.26429 0.68655
 H1388 H 0.71440 0.28243 0.70724
 H1389 H 0.72241 0.22107 0.80159
 H1390 H 0.73684 0.19322 0.76068
 H1391 H 0.76298 0.30835 0.72788
 H1392 H 0.78214 0.28863 0.70632
 C1393 C 0.08899 1.00469 1.19244
 C1394 C 0.07921 1.00186 1.17514
 C1395 C 0.08490 1.01159 1.15823
 C1396 C 0.10062 1.02435 1.15898
 C1397 C 0.11036 1.02733 1.17630
 C1398 C 0.10468 1.01767 1.19350
 C1399 C 0.07335 1.00899 1.14051
 C1400 C 0.08035 1.01211 1.12259
 C1401 C 0.06834 1.01042 1.10506
 C1402 C 0.07739 1.00640 1.08728
 C1403 C 0.06660 1.00544 1.07034
 C1404 C 0.04650 1.00877 1.07079
 C1405 C 0.03746 1.01289 1.08862
 C1406 C 0.04823 1.01373 1.10554
 H1407 H 0.08338 0.99736 1.20514
 H1408 H 0.06694 0.99216 1.17502
 H1409 H 0.10523 1.03243 1.14635
 H1410 H 0.12267 1.03692 1.17589
 H1411 H 0.05867 1.00379 1.14240
 H1412 H 0.09555 1.01544 1.12050
 H1413 H 0.09289 1.00400 1.08648
 H1414 H 0.07406 1.00238 1.05685
 H1415 H 0.02203 1.01566 1.08951
 H1416 H 0.04081 1.01749 1.11885
 C1417 C 0.58562 0.50700 0.68978
 C1418 C 0.57569 0.50460 0.67248
 C1419 C 0.58384 0.51083 0.65484
 C1420 C 0.60219 0.51964 0.65490
 C1421 C 0.61211 0.52206 0.67220
 C1422 C 0.60389 0.51587 0.68985
 C1423 C 0.57233 0.50883 0.63700
 C1424 C 0.58008 0.50904 0.61911
 C1425 C 0.56837 0.50774 0.60132
 C1426 C 0.57730 0.50135 0.58420
 C1427 C 0.56690 0.50039 0.56702
 C1428 C 0.54733 0.50600 0.56654
 C1429 C 0.53845 0.51260 0.58366
 C1430 C 0.54884 0.51352 0.60083
 H1431 H 0.57877 0.50234 0.70316
 H1432 H 0.56150 0.49795 0.67290
 H1433 H 0.60879 0.52515 0.64175
 H1434 H 0.62622 0.52884 0.67177
 H1435 H 0.55691 0.50652 0.63885
 H1436 H 0.59566 0.50949 0.61725
 H1437 H 0.59238 0.49702 0.58412
 H1438 H 0.57426 0.49536 0.55410
 H1439 H 0.52347 0.51723 0.58381
 H1440 H 0.54160 0.51919 0.61352
 C1441 C 0.38532 0.00226 0.68234
 C1442 C 0.39391 0.00553 0.66419
 C1443 C 0.40529 -0.00872 0.65533
 C1444 C 0.40744 -0.02655 0.66476
 C1445 C 0.39881 -0.02983 0.68284
 C1446 C 0.38772 -0.01545 0.69188
 C1447 C 0.41425 -0.00477 0.63612
 C1448 C 0.43062 -0.01339 0.63008
 C1449 C 0.43993 -0.00999 0.61093
 C1450 C 0.45950 -0.01495 0.60854
 C1451 C 0.46874 -0.01302 0.59058
 C1452 C 0.45857 -0.00620 0.57444
 C1453 C 0.43897 -0.00108 0.57684
 C1454 C 0.42972 -0.00298 0.59488
 H1455 H 0.37661 0.01352 0.68881
 H1456 H 0.39181 0.01929 0.65713
 H1457 H 0.41555 -0.03813 0.65814
 H1458 H 0.40099 -0.04360 0.68985
 H1459 H 0.40764 0.00620 0.62724
 H1460 H 0.43810 -0.02295 0.63988
 H1461 H 0.46769 -0.02050 0.62061
 H1462 H 0.48382 -0.01717 0.58932
 H1463 H 0.43065 0.00408 0.56470
 H1464 H 0.41448 0.00052 0.59597
 C1465 C -0.11451 0.50395 1.18092
 C1466 C -0.10648 0.50719 1.16251
 C1467 C -0.09550 0.49288 1.15326
 C1468 C -0.09315 0.47503 1.16259
 C1469 C -0.10115 0.47179 1.18093
 C1470 C -0.11190 0.48620 1.19035
 C1471 C -0.08705 0.49678 1.13380
 C1472 C -0.07094 0.48797 1.12736
 C1473 C -0.06191 0.49127 1.10808
 C1474 C -0.04254 0.48573 1.10536
 C1475 C -0.03346 0.48766 1.08736
 C1476 C -0.04357 0.49508 1.07145
 C1477 C -0.06300 0.50070 1.07411
 C1478 C -0.07211 0.49879 1.09223
 H1479 H -0.12297 0.51522 1.18767
 H1480 H -0.10871 0.52098 1.15554
 H1481 H -0.08537 0.46339 1.15570
 H1482 H -0.09879 0.45800 1.18783
 H1483 H -0.09376 0.50783 1.12510
 H1484 H -0.06336 0.47831 1.13698
 H1485 H -0.03437 0.47978 1.11725
 H1486 H -0.01850 0.48313 1.08591
 H1487 H -0.07125 0.50635 1.06215
 H1488 H -0.08721 0.50277 1.09359
 C1489 C -0.09855 0.53292 0.31625
 C1490 C -0.08829 0.53082 0.33334
 C1491 C -0.08578 0.51271 0.34178
 C1492 C -0.09330 0.49651 0.33247
 C1493 C -0.10337 0.49852 0.31512
 C1494 C -0.10645 0.51684 0.30678
 C1495 C -0.07451 0.51137 0.35977
 C1496 C -0.07709 0.49761 0.37320
 C1497 C -0.06590 0.49726 0.39134
 C1498 C -0.07433 0.48953 0.40823
 C1499 C -0.06414 0.48940 0.42561
 C1500 C -0.04520 0.49678 0.42635
 C1501 C -0.03668 0.50416 0.40929
 C1502 C -0.04685 0.50434 0.39202
 H1503 H -0.09948 0.54723 0.31015
 H1504 H -0.08228 0.54349 0.34003
 H1505 H -0.09122 0.48224 0.33839
 H1506 H -0.10934 0.48569 0.30877
 H1507 H -0.06453 0.52299 0.36256
 H1508 H -0.08844 0.48706 0.37149
 H1509 H -0.08892 0.48383 0.40803
 H1510 H -0.07110 0.48348 0.43843
 H1511 H -0.02206 0.50980 0.40922
 H1512 H -0.03962 0.50981 0.37915
 C1513 C 0.40237 1.03161 -0.18332
 C1514 C 0.41312 1.02925 -0.16654
 C1515 C 0.41573 1.01102 -0.15834
 C1516 C 0.40778 0.99500 -0.16761
 C1517 C 0.39716 0.99728 -0.18458
 C1518 C 0.39404 1.01569 -0.19271
 C1519 C 0.42731 1.00935 -0.14053
 C1520 C 0.42488 0.99528 -0.12741
 C1521 C 0.43592 0.99445 -0.10918
 C1522 C 0.42748 0.98560 -0.09288
 C1523 C 0.43734 0.98483 -0.07537
 C1524 C 0.45604 0.99267 -0.07386
 C1525 C 0.46465 1.00119 -0.09033
 C1526 C 0.45473 1.00204 -0.10779
 H1527 H 0.40140 1.04598 -0.18925
 H1528 H 0.41942 1.04180 -0.15989
 H1529 H 0.40989 0.98065 -0.16193
 H1530 H 0.39084 0.98455 -0.19077
 H1531 H 0.43727 1.02095 -0.13757
 H1532 H 0.41357 0.98473 -0.12937
 H1533 H 0.41307 0.97949 -0.09363
 H1534 H 0.43031 0.97806 -0.06303
 H1535 H 0.47907 1.00726 -0.08975
 H1536 H 0.46197 1.00843 -0.12020
 C1537 C 0.62010 0.47890 -0.17547
 C1538 C 0.61216 0.48084 -0.15692
 C1539 C 0.59402 0.48957 -0.15417
 C1540 C 0.58443 0.49730 -0.17028
 C1541 C 0.59245 0.49547 -0.18884
 C1542 C 0.61018 0.48592 -0.19166
 C1543 C 0.58552 0.49027 -0.13441
 C1544 C 0.56634 0.48999 -0.13106
 C1545 C 0.55733 0.48953 -0.11149
 C1546 C 0.53819 0.48296 -0.10958
 C1547 C 0.52879 0.48281 -0.09161
 C1548 C 0.53827 0.48939 -0.07504
 C1549 C 0.55751 0.49586 -0.07689
 C1550 C 0.56694 0.49600 -0.09492
 H1551 H 0.63395 0.47176 -0.17720
 H1552 H 0.61996 0.47503 -0.14472
 H1553 H 0.57074 0.50471 -0.16864
 H1554 H 0.58449 0.50102 -0.20105
 H1555 H 0.59540 0.48944 -0.12242
 H1556 H 0.55665 0.48894 -0.14319
 H1557 H 0.53042 0.47797 -0.12209
 H1558 H 0.51398 0.47773 -0.09078
 H1559 H 0.56520 0.50118 -0.06447
 H1560 H 0.58151 0.50164 -0.09582
 C1561 C 0.08358 -0.00070 0.31022
 C1562 C 0.07310 0.00153 0.32749
 C1563 C 0.08020 -0.00589 0.34493
 C1564 C 0.09814 -0.01553 0.34475
 C1565 C 0.10861 -0.01774 0.32749
 C1566 C 0.10135 -0.01056 0.31000
 C1567 C 0.06800 -0.00425 0.36267
 C1568 C 0.07496 -0.00582 0.38064
 C1569 C 0.06263 -0.00481 0.39831
 C1570 C 0.07124 0.00030 0.41580
 C1571 C 0.06027 0.00106 0.43288
 C1572 C 0.04042 -0.00347 0.43293
 C1573 C 0.03184 -0.00887 0.41545
 C1574 C 0.04281 -0.00958 0.39835
 H1575 H 0.07748 0.00476 0.29694
 H1576 H 0.05926 0.00886 0.32716
 H1577 H 0.10394 -0.02193 0.35772
 H1578 H 0.12232 -0.02529 0.32780
 H1579 H 0.05279 -0.00109 0.36073
 H1580 H 0.09041 -0.00714 0.38269
 H1581 H 0.08651 0.00381 0.41623
 H1582 H 0.06742 0.00516 0.44607
 H1583 H 0.01663 -0.01262 0.41497
 H1584 H 0.03577 -0.01423 0.38531
 C1585 C 0.17580 1.12474 1.02008
 C1586 C 0.15711 1.11785 1.01695
 C1587 C 0.15387 1.10326 1.00356
 C1588 C 0.16957 1.09645 0.99245
 C1589 C 0.18829 1.10340 0.99544
 C1590 C 0.19191 1.11736 1.00969
 C1591 C 0.13407 1.09527 1.00183
 C1592 C 0.13085 1.07691 0.99706
 C1593 C 0.11142 1.06787 0.99747
 C1594 C 0.11027 1.04793 1.00018
 C1595 C 0.09234 1.03870 1.00098
 C1596 C 0.07507 1.04918 0.99885
 C1597 C 0.07620 1.06914 0.99577
 C1598 C 0.09419 1.07842 0.99509
 H1599 H 0.17736 1.13621 1.03041
 H1600 H 0.14517 1.12366 1.02538
 H1601 H 0.16751 1.08560 0.98153
 H1602 H 0.19992 1.09686 0.98719
 H1603 H 0.12208 1.10422 1.00645
 H1604 H 0.14309 1.06754 0.99433
 H1605 H 0.12331 1.03945 1.00191
 H1606 H 0.09207 1.02329 1.00321
 H1607 H 0.06318 1.07762 0.99394
 H1608 H 0.09453 1.09374 0.99245
 C1609 C 0.67598 0.62409 0.52538
 C1610 C 0.65765 0.61654 0.52159
 C1611 C 0.65572 0.59983 0.51055
 C1612 C 0.67249 0.59130 0.50259
 C1613 C 0.69080 0.59886 0.50636
 C1614 C 0.69278 0.61517 0.51803
 C1615 C 0.63612 0.59164 0.50776
 C1616 C 0.63313 0.57282 0.50497
 C1617 C 0.61371 0.56385 0.50354
 C1618 C 0.61211 0.54408 0.50720
 C1619 C 0.59429 0.53479 0.50593
 C1620 C 0.57753 0.54502 0.50075
 C1621 C 0.57911 0.56483 0.49691
 C1622 C 0.59702 0.57417 0.49825
 H1623 H 0.67700 0.63690 0.53411
 H1624 H 0.64497 0.62355 0.52765
 H1625 H 0.67158 0.57880 0.49344
 H1626 H 0.70346 0.59165 0.50050
 H1627 H 0.62386 0.60118 0.50959
 H1628 H 0.64542 0.56315 0.50500
 H1629 H 0.62473 0.53576 0.51119
 H1630 H 0.59370 0.51952 0.50894
 H1631 H 0.56653 0.57313 0.49278
 H1632 H 0.59772 0.58932 0.49481
 C1633 C 0.68802 0.40513 -0.00227
 C1634 C 0.67074 0.41527 0.00061
 C1635 C 0.65361 0.40943 -0.00827
 C1636 C 0.65407 0.39309 -0.02006
 C1637 C 0.67131 0.38297 -0.02304
 C1638 C 0.68878 0.38892 -0.01447
 C1639 C 0.63593 0.42136 -0.00592
 C1640 C 0.61793 0.41466 -0.00853
 C1641 C 0.60040 0.42692 -0.00731
 C1642 C 0.58249 0.41834 -0.00290
 C1643 C 0.56555 0.42935 -0.00215
 C1644 C 0.56613 0.44919 -0.00606
 C1645 C 0.58405 0.45773 -0.01075
 C1646 C 0.60099 0.44674 -0.01139
 H1647 H 0.70092 0.41085 0.00428
 H1648 H 0.67084 0.42796 0.00959
 H1649 H 0.64128 0.38826 -0.02748
 H1650 H 0.67062 0.37020 -0.03183
 H1651 H 0.63793 0.43611 -0.00148
 H1652 H 0.61573 0.39950 -0.01106
 H1653 H 0.58161 0.40307 0.00006
 H1654 H 0.55199 0.42226 0.00138
 H1655 H 0.58503 0.47295 -0.01397
 H1656 H 0.61441 0.45377 -0.01551
 C1657 C 0.19011 -0.08493 0.49789
 C1658 C 0.17309 -0.07428 0.50053
 C1659 C 0.15522 -0.08141 0.49428
 C1660 C 0.15475 -0.09946 0.48523
 C1661 C 0.17173 -0.11009 0.48261
 C1662 C 0.18963 -0.10289 0.48875
 C1663 C 0.13765 -0.06927 0.49654
 C1664 C 0.11957 -0.07635 0.49661
 C1665 C 0.10188 -0.06431 0.49816
 C1666 C 0.08451 -0.07304 0.50422
 C1667 C 0.06732 -0.06248 0.50531
 C1668 C 0.06705 -0.04290 0.50019
 C1669 C 0.08442 -0.03416 0.49398
 C1670 C 0.10164 -0.04474 0.49291
 H1671 H 0.20371 -0.07887 0.50254
 H1672 H 0.17391 -0.06035 0.50737
 H1673 H 0.14143 -0.10528 0.47966
 H1674 H 0.17087 -0.12394 0.47564
 H1675 H 0.13987 -0.05406 0.49881
 H1676 H 0.11744 -0.09174 0.49620
 H1677 H 0.08422 -0.08813 0.50816
 H1678 H 0.05422 -0.06974 0.51008
 H1679 H 0.08472 -0.01916 0.48975
 H1680 H 0.11455 -0.03760 0.48756
 C1681 C 0.32379 -0.12376 0.52489
 C1682 C 0.34237 -0.11623 0.52210
 C1683 C 0.34536 -0.10005 0.51036
 C1684 C 0.32953 -0.09212 0.50056
 C1685 C 0.31093 -0.09972 0.50317
 C1686 C 0.30756 -0.11545 0.51577
 C1687 C 0.36510 -0.09178 0.50877
 C1688 C 0.36822 -0.07296 0.50597
 C1689 C 0.38771 -0.06404 0.50591
 C1690 C 0.38916 -0.04447 0.51034
 C1691 C 0.40713 -0.03531 0.51026
 C1692 C 0.42414 -0.04546 0.50550
 C1693 C 0.42270 -0.06507 0.50095
 C1694 C 0.40468 -0.07428 0.50112
 H1695 H 0.32243 -0.13647 0.53386
 H1696 H 0.35442 -0.12288 0.52947
 H1697 H 0.33142 -0.07996 0.49090
 H1698 H 0.29917 -0.09244 0.49600
 H1699 H 0.37719 -0.10123 0.51166
 H1700 H 0.35592 -0.06335 0.50502
 H1701 H 0.37631 -0.03623 0.51396
 H1702 H 0.40762 -0.02017 0.51373
 H1703 H 0.43548 -0.07330 0.49707
 H1704 H 0.40410 -0.08926 0.49711
 C1705 C -0.17399 0.37589 1.00940
 C1706 C -0.15591 0.38425 1.00585
 C1707 C -0.15455 0.40284 0.99803
 C1708 C -0.17163 0.41246 0.99268
 C1709 C -0.18973 0.40403 0.99613
 C1710 C -0.19108 0.38586 1.00497
 C1711 C -0.13517 0.41181 0.99615
 C1712 C -0.13243 0.43083 0.99746
 C1713 C -0.11306 0.43999 0.99781
 C1714 C -0.11147 0.45836 1.00586
 C1715 C -0.09357 0.46761 1.00662
 C1716 C -0.07677 0.45873 0.99921
 C1717 C -0.07835 0.44037 0.99100
 C1718 C -0.09630 0.43112 0.99022
 H1719 H -0.17463 0.36171 1.01592
 H1720 H -0.14297 0.37643 1.00983
 H1721 H -0.17108 0.42654 0.98599
 H1722 H -0.20269 0.41199 0.99252
 H1723 H -0.12280 0.40227 0.99558
 H1724 H -0.14483 0.44008 0.99989
 H1725 H -0.12415 0.46556 1.01172
 H1726 H -0.09294 0.48177 1.01298
 H1727 H -0.06576 0.43322 0.98493
 H1728 H -0.09696 0.41723 0.98336
 C1729 C -0.18049 0.60842 0.50979
 C1730 C -0.16282 0.59894 0.51242
 C1731 C -0.15211 0.59215 0.49654
 C1732 C -0.15916 0.59546 0.47789
 C1733 C -0.17669 0.60500 0.47519
 C1734 C -0.18781 0.61173 0.49106
 C1735 C -0.13349 0.58207 0.49971
 C1736 C -0.12682 0.56852 0.48764
 C1737 C -0.10827 0.55820 0.49019
 C1738 C -0.10615 0.54000 0.48184
 C1739 C -0.08873 0.52995 0.48326
 C1740 C -0.07287 0.53799 0.49285
 C1741 C -0.07489 0.55633 0.50106
 C1742 C -0.09243 0.56634 0.49978
 H1743 H -0.18789 0.61377 0.52252
 H1744 H -0.15753 0.59682 0.52695
 H1745 H -0.15108 0.59085 0.46524
 H1746 H -0.18171 0.60633 0.46051
 H1747 H -0.12565 0.58526 0.51276
 H1748 H -0.13575 0.56404 0.47572
 H1749 H -0.11805 0.53351 0.47420
 H1750 H -0.08765 0.51593 0.47663
 H1751 H -0.06291 0.56296 0.50847
 H1752 H -0.09337 0.58057 0.50592
 C1753 C 0.31771 1.10428 0.00132
 C1754 C 0.33521 1.09474 0.00463
 C1755 C 0.34617 1.08737 -0.01079
 C1756 C 0.33954 1.09011 -0.02970
 C1757 C 0.32215 1.09971 -0.03307
 C1758 C 0.31081 1.10706 -0.01765
 C1759 C 0.36466 1.07737 -0.00682
 C1760 C 0.37179 1.06360 -0.01837
 C1761 C 0.39017 1.05332 -0.01477
 C1762 C 0.39262 1.03492 -0.02255
 C1763 C 0.40987 1.02483 -0.01997
 C1764 C 0.42524 1.03305 -0.00974
 C1765 C 0.42290 1.05160 -0.00212
 C1766 C 0.40553 1.06165 -0.00459
 H1767 H 0.31015 1.11016 0.01373
 H1768 H 0.34018 1.09308 0.01933
 H1769 H 0.34784 1.08504 -0.04202
 H1770 H 0.31744 1.10066 -0.04788
 H1771 H 0.37199 1.08080 0.00646
 H1772 H 0.36337 1.05887 -0.03055
 H1773 H 0.38109 1.02828 -0.03063
 H1774 H 0.41122 1.01065 -0.02619
 H1775 H 0.43449 1.05838 0.00573
 H1776 H 0.40436 1.07604 0.00113
 C1777 C 0.03856 1.19005 1.09636
 C1778 C 0.03721 1.17289 1.08618
 C1779 C 0.01934 1.16375 1.08402
 C1780 C 0.00263 1.17237 1.09188
 C1781 C 0.00389 1.18971 1.10192
 C1782 C 0.02193 1.19886 1.10452
 C1783 C 0.01868 1.14573 1.07283
 C1784 C 0.00523 1.13208 1.07564
 C1785 C 0.00522 1.11395 1.06455
 C1786 C -0.00255 1.09730 1.07310
 C1787 C -0.00265 1.07994 1.06303
 C1788 C 0.00480 1.07897 1.04405
 C1789 C 0.01228 1.09577 1.03539
 C1790 C 0.01245 1.11306 1.04549
 H1791 H 0.05268 1.19673 1.09699
 H1792 H 0.05025 1.16672 1.07994
 H1793 H -0.01149 1.16592 1.09010
 H1794 H -0.00932 1.19543 1.10818
 H1795 H 0.03047 1.14319 1.06268
 H1796 H -0.00542 1.13365 1.08714
 H1797 H -0.00838 1.09767 1.08770
 H1798 H -0.00866 1.06732 1.07009
 H1799 H 0.01798 1.09561 1.02074
 H1800 H 0.01797 1.12575 1.03819
 C1801 C 0.53992 0.68504 0.59520
 C1802 C 0.53888 0.66846 0.58403
 C1803 C 0.52168 0.65779 0.58333
 C1804 C 0.50529 0.66436 0.59366
 C1805 C 0.50630 0.68104 0.60476
 C1806 C 0.52368 0.69146 0.60576
 C1807 C 0.52131 0.64028 0.57129
 C1808 C 0.50921 0.62554 0.57464
 C1809 C 0.50927 0.60784 0.56284
 C1810 C 0.50224 0.59073 0.57112
 C1811 C 0.50187 0.57378 0.56042
 C1812 C 0.50837 0.57361 0.54107
 C1813 C 0.51525 0.59081 0.53273
 C1814 C 0.51564 0.60774 0.54345
 H1815 H 0.55340 0.69299 0.59542
 H1816 H 0.55162 0.66385 0.57602
 H1817 H 0.49160 0.65685 0.59300
 H1818 H 0.49356 0.68568 0.61276
 H1819 H 0.53223 0.63913 0.56000
 H1820 H 0.49958 0.62587 0.58710
 H1821 H 0.49711 0.59046 0.58597
 H1822 H 0.49640 0.56083 0.56730
 H1823 H 0.52020 0.59126 0.51783
 H1824 H 0.52057 0.62075 0.53633
 C1825 C -0.00384 0.68844 0.41391
 C1826 C -0.00100 0.67062 0.42284
 C1827 C -0.00809 0.65370 0.41454
 C1828 C -0.01796 0.65499 0.39690
 C1829 C -0.02079 0.67283 0.38797
 C1830 C -0.01398 0.68979 0.39648
 C1831 C -0.00604 0.63538 0.42544
 C1832 C -0.00813 0.61786 0.41771
 C1833 C -0.00710 0.59991 0.42934
 C1834 C -0.00175 0.58267 0.42029
 C1835 C -0.00083 0.56548 0.43085
 C1836 C -0.00547 0.56514 0.45070
 C1837 C -0.01122 0.58237 0.45964
 C1838 C -0.01209 0.59950 0.44910
 H1839 H 0.00134 0.70123 0.42100
 H1840 H 0.00650 0.67009 0.43649
 H1841 H -0.02406 0.64243 0.39019
 H1842 H -0.02853 0.67338 0.37446
 H1843 H -0.00231 0.63651 0.44053
 H1844 H -0.01003 0.61640 0.40230
 H1845 H 0.00190 0.58253 0.40502
 H1846 H 0.00351 0.55247 0.42346
 H1847 H -0.01512 0.58266 0.47484
 H1848 H -0.01702 0.61230 0.45646
 C1849 C 0.50127 1.18184 -0.08896
 C1850 C 0.50380 1.16414 -0.07971
 C1851 C 0.49371 1.14782 -0.08573
 C1852 C 0.48102 1.14955 -0.10135
 C1853 C 0.47836 1.16726 -0.11057
 C1854 C 0.48825 1.18390 -0.10445
 C1855 C 0.49579 1.12973 -0.07452
 C1856 C 0.49185 1.11225 -0.08153
 C1857 C 0.49304 1.09452 -0.06962
 C1858 C 0.49685 1.07689 -0.07864
 C1859 C 0.49772 1.05987 -0.06780
 C1860 C 0.49449 1.06013 -0.04769
 C1861 C 0.49037 1.07777 -0.03873
 C1862 C 0.48963 1.09474 -0.04954
 H1863 H 0.50881 1.19403 -0.08305
 H1864 H 0.51347 1.16327 -0.06754
 H1865 H 0.47270 1.13739 -0.10625
 H1866 H 0.46878 1.16762 -0.12281
 H1867 H 0.50125 1.13095 -0.05998
 H1868 H 0.48826 1.11065 -0.09661
 H1869 H 0.49928 1.07629 -0.09412
 H1870 H 0.50075 1.04652 -0.07519
 H1871 H 0.48766 1.07851 -0.02331
 H1872 H 0.48597 1.10794 -0.04216
 C1873 C 0.50093 0.30158 -0.08505
 C1874 C 0.49712 0.31879 -0.07542
 C1875 C 0.50661 0.33579 -0.08089
 C1876 C 0.52020 0.33521 -0.09614
 C1877 C 0.52415 0.31801 -0.10572
 C1878 C 0.51467 0.30075 -0.10035
 C1879 C 0.50280 0.35352 -0.06970
 C1880 C 0.50539 0.37126 -0.07696
 C1881 C 0.50244 0.38896 -0.06548
 C1882 C 0.49829 0.40623 -0.07512
 C1883 C 0.49624 0.42337 -0.06487
 C1884 C 0.49855 0.42365 -0.04471
 C1885 C 0.50276 0.40634 -0.03506
 C1886 C 0.50471 0.38919 -0.04530
 H1887 H 0.49368 0.28882 -0.07969
 H1888 H 0.48681 0.31878 -0.06349
 H1889 H 0.52815 0.34793 -0.10053
 H1890 H 0.53430 0.31859 -0.11774
 H1891 H 0.49707 0.35178 -0.05516
 H1892 H 0.50924 0.37305 -0.09208
 H1893 H 0.49669 0.40647 -0.09067
 H1894 H 0.49316 0.43646 -0.07280
 H1895 H 0.50478 0.40603 -0.01957
 H1896 H 0.50853 0.37631 -0.03741
 C1897 C 0.00264 -0.19249 0.41953
 C1898 C -0.00006 -0.17548 0.42990
 C1899 C 0.00544 -0.15769 0.42189
 C1900 C 0.01373 -0.15728 0.40320
 C1901 C 0.01638 -0.17426 0.39284
 C1902 C 0.01105 -0.19207 0.40095
 C1903 C 0.00329 -0.14014 0.43382
 C1904 C 0.00303 -0.12227 0.42642
 C1905 C 0.00167 -0.10468 0.43836
 C1906 C -0.00471 -0.08759 0.42966
 C1907 C -0.00576 -0.07055 0.44018
 C1908 C -0.00029 -0.07016 0.45968
 C1909 C 0.00632 -0.08724 0.46835
 C1910 C 0.00736 -0.10429 0.45781
 H1911 H -0.00137 -0.20601 0.42628
 H1912 H -0.00629 -0.17626 0.44432
 H1913 H 0.01871 -0.14402 0.39663
 H1914 H 0.02276 -0.17344 0.37848
 H1915 H 0.00134 -0.14221 0.44922
 H1916 H 0.00314 -0.12026 0.41091
 H1917 H -0.00897 -0.08743 0.41465
 H1918 H -0.01083 -0.05767 0.43299
 H1919 H 0.01084 -0.08743 0.48328
 H1920 H 0.01301 -0.11695 0.46489
 C1921 C 0.49752 -0.19664 0.58710
 C1922 C 0.49974 -0.17979 0.57621
 C1923 C 0.49331 -0.16210 0.58350
 C1924 C 0.48447 -0.16161 0.60193
 C1925 C 0.48222 -0.17846 0.61279
 C1926 C 0.48862 -0.19617 0.60545
 C1927 C 0.49511 -0.14474 0.57109
 C1928 C 0.49533 -0.12680 0.57807
 C1929 C 0.49634 -0.10941 0.56564
 C1930 C 0.50320 -0.09225 0.57357
 C1931 C 0.50369 -0.07535 0.56259
 C1932 C 0.49713 -0.07518 0.54344
 C1933 C 0.49020 -0.09237 0.53550
 C1934 C 0.48975 -0.10928 0.54647
 H1935 H 0.50233 -0.21012 0.58094
 H1936 H 0.50639 -0.18060 0.56198
 H1937 H 0.47879 -0.14838 0.60786
 H1938 H 0.47539 -0.17764 0.62693
 H1939 H 0.49694 -0.14699 0.55572
 H1940 H 0.49543 -0.12462 0.59353
 H1941 H 0.50817 -0.09191 0.58835
 H1942 H 0.50901 -0.06236 0.56923
 H1943 H 0.48487 -0.09274 0.52086
 H1944 H 0.48376 -0.12204 0.54002
 C1945 C -0.02627 0.32832 1.11656
 C1946 C -0.02392 0.34651 1.10824
 C1947 C -0.01094 0.34939 1.09280
 C1948 C 0.00034 0.33385 1.08634
 C1949 C -0.00183 0.31566 1.09474
 C1950 C -0.01543 0.31240 1.10986
 C1951 C -0.00943 0.36873 1.08390
 C1952 C -0.00485 0.37146 1.06520
 C1953 C -0.00460 0.39063 1.05579
 C1954 C -0.00814 0.39186 1.03592
 C1955 C -0.00821 0.40965 1.02649
 C1956 C -0.00443 0.42662 1.03669
 C1957 C -0.00050 0.42535 1.05655
 C1958 C -0.00059 0.40755 1.06602
 H1959 H -0.03621 0.32707 1.12870
 H1960 H -0.03249 0.35837 1.11375
 H1961 H 0.01089 0.33566 1.07478
 H1962 H 0.00661 0.30407 1.08858
 H1963 H -0.01369 0.38089 1.09267
 H1964 H -0.00255 0.35912 1.05600
 H1965 H -0.01110 0.37902 1.02770
 H1966 H -0.01115 0.41006 1.01116
 H1967 H 0.00257 0.43813 1.06482
 H1968 H 0.00276 0.40708 1.08124
 C1969 C 0.78352 0.34441 0.06259
 C1970 C 0.78185 0.33535 0.08053
 C1971 C 0.76414 0.33501 0.09056
 C1972 C 0.74790 0.34370 0.08213
 C1973 C 0.74947 0.35262 0.06398
 C1974 C 0.76738 0.35328 0.05387
 C1975 C 0.76313 0.32447 0.10916
 C1976 C 0.75016 0.32810 0.12325
 C1977 C 0.74987 0.31701 0.14160
 C1978 C 0.74363 0.32586 0.15875
 C1979 C 0.74353 0.31566 0.17626
 C1980 C 0.74944 0.29632 0.17686
 C1981 C 0.75533 0.28743 0.15956
 C1982 C 0.75547 0.29760 0.14216
 H1983 H 0.79742 0.34351 0.05526
 H1984 H 0.79450 0.32843 0.08655
 H1985 H 0.73389 0.34333 0.08931
 H1986 H 0.73667 0.35949 0.05830
 H1987 H 0.77427 0.31380 0.11164
 H1988 H 0.74020 0.34003 0.12182
 H1989 H 0.73905 0.34074 0.15863
 H1990 H 0.73876 0.32290 0.18929
 H1991 H 0.75979 0.27251 0.15939
 H1992 H 0.75971 0.29010 0.12913
 C1993 C 0.24950 0.83544 0.56060
 C1994 C 0.24670 0.82537 0.57794
 C1995 C 0.25460 0.83214 0.59520
 C1996 C 0.26529 0.84936 0.59479
 C1997 C 0.26809 0.85941 0.57745
 C1998 C 0.26045 0.85244 0.56013
 C1999 C 0.25253 0.82020 0.61294
 C2000 C 0.25472 0.82702 0.63087
 C2001 C 0.25381 0.81471 0.64840
 C2002 C 0.24913 0.82313 0.66622
 C2003 C 0.24866 0.81210 0.68316
 C2004 C 0.25309 0.79238 0.68267
 C2005 C 0.25801 0.78399 0.66483
 C2006 C 0.25842 0.79502 0.64790
 H2007 H 0.24365 0.82958 0.54744
 H2008 H 0.23856 0.81207 0.57781
 H2009 H 0.27208 0.85486 0.60761
 H2010 H 0.27647 0.87256 0.57755
 H2011 H 0.24869 0.80527 0.61101
 H2012 H 0.25668 0.84228 0.63302
 H2013 H 0.24576 0.83831 0.66703
 H2014 H 0.24493 0.81907 0.69665
 H2015 H 0.26168 0.76889 0.66392
 H2016 H 0.26279 0.78812 0.63458
 C2017 C 0.73063 0.63206 0.58299
 C2018 C 0.73325 0.63923 0.60161
 C2019 C 0.74361 0.65629 0.60447
 C2020 C 0.75211 0.66558 0.58836
 C2021 C 0.74952 0.65841 0.56976
 C2022 C 0.73852 0.64172 0.56683
 C2023 C 0.74518 0.66398 0.62434
 C2024 C 0.74729 0.68278 0.62792
 C2025 C 0.74758 0.69116 0.64758
 C2026 C 0.74331 0.71075 0.64956
 C2027 C 0.74350 0.71946 0.66765
 C2028 C 0.74816 0.70882 0.68429
 C2029 C 0.75264 0.68920 0.68234
 C2030 C 0.75239 0.68045 0.66417
 H2031 H 0.72240 0.61896 0.58124
 H2032 H 0.72679 0.63163 0.61379
 H2033 H 0.76078 0.67839 0.59002
 H2034 H 0.75576 0.66620 0.55761
 H2035 H 0.74304 0.65401 0.63622
 H2036 H 0.74757 0.69283 0.61593
 H2037 H 0.73968 0.71937 0.63703
 H2038 H 0.74005 0.73461 0.66854
 H2039 H 0.75643 0.68060 0.69482
 H2040 H 0.75631 0.66544 0.66321
 C2041 C 0.23172 0.13361 0.07310
 C2042 C 0.23531 0.14106 0.09142
 C2043 C 0.24669 0.15759 0.09351
 C2044 C 0.25519 0.16604 0.07694
 C2045 C 0.25161 0.15860 0.05863
 C2046 C 0.23961 0.14248 0.05649
 C2047 C 0.24923 0.16567 0.11308
 C2048 C 0.25250 0.18440 0.11610
 C2049 C 0.25340 0.19315 0.13552
 C2050 C 0.24961 0.21286 0.13721
 C2051 C 0.25000 0.22180 0.15518
 C2052 C 0.25440 0.21126 0.17195
 C2053 C 0.25859 0.19155 0.17024
 C2054 C 0.25814 0.18258 0.15222
 H2055 H 0.22275 0.12093 0.07192
 H2056 H 0.22883 0.13412 0.10397
 H2057 H 0.26461 0.17839 0.07800
 H2058 H 0.25790 0.16573 0.04611
 H2059 H 0.24673 0.15615 0.12527
 H2060 H 0.25311 0.19414 0.10386
 H2061 H 0.24608 0.22137 0.12457
 H2062 H 0.24681 0.23702 0.15589
 H2063 H 0.26218 0.18303 0.18284
 H2064 H 0.26173 0.16748 0.15144
 C2065 C 0.28630 0.15988 0.93293
 C2066 C 0.28475 0.17037 0.91579
 C2067 C 0.26803 0.16913 0.90457
 C2068 C 0.25258 0.15749 0.91112
 C2069 C 0.25410 0.14704 0.92837
 C2070 C 0.27105 0.14801 0.93934
 C2071 C 0.26720 0.18065 0.88655
 C2072 C 0.25581 0.17641 0.87160
 C2073 C 0.25595 0.18781 0.85345
 C2074 C 0.25074 0.17892 0.83613
 C2075 C 0.25114 0.18918 0.81869
 C2076 C 0.25663 0.20863 0.81825
 C2077 C 0.26139 0.21763 0.83570
 C2078 C 0.26096 0.20740 0.85309
 H2079 H 0.29938 0.16120 0.94129
 H2080 H 0.29675 0.17941 0.91122
 H2081 H 0.23923 0.15662 0.90316
 H2082 H 0.24212 0.13804 0.93305
 H2083 H 0.27735 0.19244 0.88519
 H2084 H 0.24703 0.16354 0.87208
 H2085 H 0.24663 0.16390 0.83605
 H2086 H 0.24727 0.18182 0.80555
 H2087 H 0.26539 0.23267 0.83598
 H2088 H 0.26433 0.21499 0.86621
 C2089 C 0.78505 0.66448 0.44262
 C2090 C 0.78301 0.67445 0.42523
 C2091 C 0.76648 0.67197 0.41394
 C2092 C 0.75164 0.65971 0.42075
 C2093 C 0.75364 0.64979 0.43827
 C2094 C 0.77048 0.65191 0.44924
 C2095 C 0.76519 0.68282 0.39552
 C2096 C 0.75429 0.67739 0.38060
 C2097 C 0.75395 0.68813 0.36202
 C2098 C 0.74909 0.67840 0.34505
 C2099 C 0.74889 0.68805 0.32726
 C2100 C 0.75344 0.70772 0.32610
 C2101 C 0.75794 0.71751 0.34318
 C2102 C 0.75809 0.70790 0.36092
 H2103 H 0.79803 0.66665 0.45096
 H2104 H 0.79453 0.68400 0.42046
 H2105 H 0.73841 0.65788 0.41275
 H2106 H 0.74218 0.64022 0.44310
 H2107 H 0.77467 0.69512 0.39387
 H2108 H 0.74625 0.66407 0.38147
 H2109 H 0.74565 0.66322 0.34553
 H2110 H 0.74524 0.68008 0.31442
 H2111 H 0.76122 0.73273 0.34291
 H2112 H 0.76116 0.71612 0.37373
 C2113 C 0.21414 0.84548 0.43746
 C2114 C 0.21606 0.83527 0.42026
 C2115 C 0.23358 0.83545 0.40977
 C2116 C 0.24936 0.84584 0.41708
 C2117 C 0.24745 0.85601 0.43438
 C2118 C 0.22979 0.85600 0.44470
 C2119 C 0.23488 0.82414 0.39174
 C2120 C 0.24768 0.82773 0.37742
 C2121 C 0.24815 0.81663 0.35921
 C2122 C 0.25526 0.82546 0.34228
 C2123 C 0.25549 0.81557 0.32475
 C2124 C 0.24877 0.79653 0.32382
 C2125 C 0.24214 0.78753 0.34090
 C2126 C 0.24189 0.79743 0.35840
 H2127 H 0.20046 0.84489 0.44528
 H2128 H 0.20376 0.82721 0.41508
 H2129 H 0.26327 0.84589 0.40972
 H2130 H 0.25975 0.86399 0.43963
 H2131 H 0.22404 0.81311 0.38980
 H2132 H 0.25732 0.83993 0.37842
 H2133 H 0.26036 0.84017 0.34256
 H2134 H 0.26081 0.82292 0.31191
 H2135 H 0.23706 0.77282 0.34079
 H2136 H 0.23698 0.78988 0.37126
 C2137 C 0.71437 0.33803 0.93423
 C2138 C 0.71639 0.32813 0.91684
 C2139 C 0.73336 0.32986 0.90560
 C2140 C 0.74853 0.34144 0.91235
 C2141 C 0.74652 0.35133 0.92981
 C2142 C 0.72937 0.34980 0.94087
 C2143 C 0.73477 0.31888 0.88734
 C2144 C 0.74681 0.32346 0.87265
 C2145 C 0.74751 0.31258 0.85429
 C2146 C 0.75401 0.32189 0.83737
 C2147 C 0.75455 0.31219 0.81974
 C2148 C 0.74873 0.29287 0.81867
 C2149 C 0.74267 0.28343 0.83572
 C2150 C 0.74215 0.29312 0.85332
 H2151 H 0.70112 0.33630 0.94260
 H2152 H 0.70458 0.31913 0.91211
 H2153 H 0.76206 0.34272 0.90442
 H2154 H 0.75831 0.36032 0.93456
 H2155 H 0.72462 0.30719 0.88564
 H2156 H 0.75567 0.33623 0.87350
 H2157 H 0.75842 0.33682 0.83776
 H2158 H 0.75939 0.31989 0.80692
 H2159 H 0.73833 0.26848 0.83551
 H2160 H 0.73777 0.28519 0.86613
 C2161 C 0.83641 0.44103 0.24712
 C2162 C 0.82659 0.42362 0.24954
 C2163 C 0.83411 0.40658 0.24169
 C2164 C 0.85186 0.40730 0.23147
 C2165 C 0.86169 0.42472 0.22906
 C2166 C 0.85396 0.44181 0.23664
 C2167 C 0.82237 0.38878 0.24336
 C2168 C 0.82949 0.37102 0.24077
 C2169 C 0.81721 0.35355 0.24154
 C2170 C 0.82571 0.33584 0.24626
 C2171 C 0.81459 0.31906 0.24694
 C2172 C 0.79472 0.31960 0.24270
 C2173 C 0.78631 0.33730 0.23758
 C2174 C 0.79742 0.35405 0.23694
 H2175 H 0.82993 0.45399 0.25288
 H2176 H 0.81287 0.42352 0.25732
 H2177 H 0.85798 0.39466 0.22476
 H2178 H 0.87525 0.42485 0.22102
 H2179 H 0.80724 0.39050 0.24730
 H2180 H 0.84490 0.36895 0.23868
 H2181 H 0.84098 0.33502 0.24960
 H2182 H 0.82157 0.30567 0.25081
 H2183 H 0.77111 0.33825 0.23402
 H2184 H 0.79049 0.36727 0.23251
 C2185 C 0.33457 0.94029 0.74834
 C2186 C 0.32471 0.92294 0.75116
 C2187 C 0.33227 0.90570 0.74380
 C2188 C 0.35000 0.90620 0.73352
 C2189 C 0.35985 0.92355 0.73070
 C2190 C 0.35218 0.94082 0.73794
 C2191 C 0.32072 0.88784 0.74622
 C2192 C 0.32821 0.87009 0.74476
 C2193 C 0.31643 0.85232 0.74655
 C2194 C 0.32566 0.83507 0.75160
 C2195 C 0.31520 0.81791 0.75296
 C2196 C 0.29524 0.81757 0.74913
 C2197 C 0.28603 0.83482 0.74387
 C2198 C 0.29649 0.85198 0.74253
 H2199 H 0.32812 0.95338 0.75383
 H2200 H 0.31101 0.92303 0.75895
 H2201 H 0.35611 0.89338 0.72714
 H2202 H 0.37344 0.92348 0.72272
 H2203 H 0.30554 0.88952 0.74993
 H2204 H 0.34369 0.86831 0.74288
 H2205 H 0.34103 0.83488 0.75455
 H2206 H 0.32282 0.80490 0.75693
 H2207 H 0.27073 0.83508 0.74061
 H2208 H 0.28895 0.86481 0.73793
 C2209 C 0.12871 0.92796 0.27591
 C2210 C 0.13679 0.90978 0.27310
 C2211 C 0.15299 0.90732 0.26101
 C2212 C 0.16048 0.92337 0.25104
 C2213 C 0.15232 0.94160 0.25368
 C2214 C 0.13645 0.94438 0.26648
 C2215 C 0.16151 0.88783 0.25909
 C2216 C 0.18033 0.88479 0.25512
 C2217 C 0.18933 0.86542 0.25474
 C2218 C 0.20925 0.86386 0.25819
 C2219 C 0.21840 0.84595 0.25806
 C2220 C 0.20787 0.82913 0.25424
 C2221 C 0.18795 0.83070 0.25050
 C2222 C 0.17876 0.84865 0.25073
 H2223 H 0.11593 0.92883 0.28507
 H2224 H 0.13045 0.89757 0.28063
 H2225 H 0.17266 0.92195 0.24115
 H2226 H 0.15920 0.95355 0.24627
 H2227 H 0.15224 0.87575 0.26264
 H2228 H 0.18993 0.89700 0.25344
 H2229 H 0.21777 0.87654 0.26117
 H2230 H 0.23378 0.84535 0.26087
 H2231 H 0.17942 0.81807 0.24736
 H2232 H 0.16350 0.84931 0.24744
 C2233 C 0.62982 0.42412 0.76714
 C2234 C 0.63775 0.40596 0.76371
 C2235 C 0.65523 0.40403 0.75334
 C2236 C 0.66416 0.42061 0.74562
 C2237 C 0.65619 0.43877 0.74900
 C2238 C 0.63911 0.44074 0.76007
 C2239 C 0.66371 0.38459 0.75101
 C2240 C 0.68282 0.38156 0.74895
 C2241 C 0.69179 0.36221 0.74833
 C2242 C 0.71132 0.36039 0.75336
 C2243 C 0.72043 0.34248 0.75317
 C2244 C 0.71024 0.32591 0.74775
 C2245 C 0.69073 0.32775 0.74241
 C2246 C 0.68159 0.34570 0.74265
 H2247 H 0.61645 0.42517 0.77541
 H2248 H 0.63044 0.39341 0.76957
 H2249 H 0.67729 0.41965 0.73699
 H2250 H 0.66365 0.45132 0.74336
 H2251 H 0.65403 0.37246 0.75270
 H2252 H 0.69259 0.39372 0.74915
 H2253 H 0.71955 0.37287 0.75765
 H2254 H 0.73549 0.34166 0.75727
 H2255 H 0.68250 0.31532 0.73800
 H2256 H 0.66669 0.34657 0.73811
 C2257 C 0.65561 0.56573 0.71643
 C2258 C 0.66600 0.58273 0.71875
 C2259 C 0.66504 0.59284 0.73621
 C2260 C 0.65367 0.58535 0.75152
 C2261 C 0.64331 0.56824 0.74921
 C2262 C 0.64410 0.55830 0.73160
 C2263 C 0.67670 0.61063 0.73797
 C2264 C 0.67289 0.62460 0.75075
 C2265 C 0.68460 0.64243 0.75184
 C2266 C 0.67600 0.65921 0.75912
 C2267 C 0.68656 0.67632 0.76015
 C2268 C 0.70607 0.67696 0.75406
 C2269 C 0.71478 0.66003 0.74714
 C2270 C 0.70423 0.64296 0.74612
 H2271 H 0.65681 0.55822 0.70281
 H2272 H 0.67482 0.58804 0.70681
 H2273 H 0.65297 0.59241 0.76539
 H2274 H 0.63456 0.56285 0.76115
 H2275 H 0.68833 0.61263 0.72751
 H2276 H 0.66018 0.62357 0.76001
 H2277 H 0.66096 0.65914 0.76382
 H2278 H 0.67940 0.68905 0.76564
 H2279 H 0.72984 0.65989 0.74254
 H2280 H 0.71162 0.63019 0.74110
 C2281 C 0.13941 0.07167 0.25338
 C2282 C 0.14819 0.08960 0.25598
 C2283 C 0.15940 0.09804 0.24113
 C2284 C 0.16130 0.08830 0.22344
 C2285 C 0.15256 0.07042 0.22085
 C2286 C 0.14148 0.06188 0.23576
 C2287 C 0.16843 0.11713 0.24434
 C2288 C 0.18432 0.12307 0.23465
 C2289 C 0.19389 0.14196 0.23739
 C2290 C 0.21307 0.14407 0.23081
 C2291 C 0.22266 0.16161 0.23237
 C2292 C 0.21328 0.17767 0.24045
 C2293 C 0.19401 0.17565 0.24702
 C2294 C 0.18438 0.15798 0.24549
 H2295 H 0.13072 0.06563 0.26504
 H2296 H 0.14628 0.09686 0.26967
 H2297 H 0.16925 0.09453 0.21138
 H2298 H 0.15453 0.06323 0.20714
 H2299 H 0.16228 0.12602 0.25562
 H2300 H 0.19138 0.11331 0.22468
 H2301 H 0.22072 0.13205 0.22439
 H2302 H 0.23746 0.16257 0.22708
 H2303 H 0.18630 0.18773 0.25321
 H2304 H 0.16944 0.15712 0.25028
 C2305 C 0.34045 0.06434 0.78194
 C2306 C 0.33028 0.08150 0.77951
 C2307 C 0.33133 0.09164 0.76195
 C2308 C 0.34238 0.08394 0.74660
 C2309 C 0.35250 0.06668 0.74902
 C2310 C 0.35177 0.05681 0.76678
 C2311 C 0.32033 0.10985 0.76021
 C2312 C 0.32498 0.12393 0.74766
 C2313 C 0.31447 0.14251 0.74699
 C2314 C 0.32426 0.15892 0.74022
 C2315 C 0.31501 0.17680 0.73992
 C2316 C 0.29565 0.17861 0.74624
 C2317 C 0.28568 0.16204 0.75250
 C2318 C 0.29494 0.14419 0.75281
 H2319 H 0.33931 0.05685 0.79567
 H2320 H 0.32169 0.08697 0.79147
 H2321 H 0.34308 0.09103 0.73266
 H2322 H 0.36109 0.06116 0.73708
 H2323 H 0.30876 0.11217 0.77064
 H2324 H 0.33770 0.12246 0.73849
 H2325 H 0.33924 0.15797 0.73546
 H2326 H 0.32311 0.18921 0.73490
 H2327 H 0.27070 0.16283 0.75725
 H2328 H 0.28667 0.13177 0.75745
 C2329 C 0.83876 0.56346 0.28121
 C2330 C 0.82825 0.58046 0.27931
 C2331 C 0.82991 0.59167 0.26248
 C2332 C 0.84185 0.58518 0.24721
 C2333 C 0.85229 0.56802 0.24907
 C2334 C 0.85102 0.55716 0.26620
 C2335 C 0.81862 0.60971 0.26140
 C2336 C 0.82369 0.62480 0.25031
 C2337 C 0.81274 0.64312 0.25056
 C2338 C 0.82242 0.66031 0.24602
 C2339 C 0.81262 0.67790 0.24673
 C2340 C 0.79286 0.67861 0.25188
 C2341 C 0.78308 0.66131 0.25593
 C2342 C 0.79285 0.64378 0.25517
 H2343 H 0.83725 0.55516 0.29443
 H2344 H 0.81896 0.58500 0.29117
 H2345 H 0.84303 0.59316 0.23379
 H2346 H 0.86159 0.56340 0.23726
 H2347 H 0.80642 0.61101 0.27128
 H2348 H 0.83697 0.62430 0.24185
 H2349 H 0.83770 0.66017 0.24222
 H2350 H 0.82057 0.69094 0.24339
 H2351 H 0.76778 0.66125 0.25962
 H2352 H 0.78468 0.63079 0.25802
 C2353 C 0.94091 0.25418 0.15996
 C2354 C 0.92320 0.25053 0.16924
 C2355 C 0.90577 0.25703 0.16126
 C2356 C 0.90642 0.26708 0.14355
 C2357 C 0.92415 0.27070 0.13425
 C2358 C 0.94161 0.26453 0.14248
 C2359 C 0.88759 0.25427 0.17260
 C2360 C 0.86973 0.25625 0.16539
 C2361 C 0.85196 0.25496 0.17760
 C2362 C 0.83435 0.24982 0.16913
 C2363 C 0.81727 0.24891 0.18023
 C2364 C 0.81745 0.25331 0.20003
 C2365 C 0.83506 0.25874 0.20841
 C2366 C 0.85207 0.25964 0.19734
 H2367 H 0.95412 0.24945 0.16680
 H2368 H 0.92316 0.24290 0.18293
 H2369 H 0.89344 0.27274 0.13705
 H2370 H 0.92422 0.27855 0.12069
 H2371 H 0.88914 0.25027 0.18764
 H2372 H 0.86784 0.25844 0.15005
 H2373 H 0.83382 0.24641 0.15389
 H2374 H 0.80395 0.24480 0.17327
 H2375 H 0.83574 0.26249 0.22355
 H2376 H 0.86515 0.26443 0.20427
 C2377 C 0.44526 0.75403 0.66549
 C2378 C 0.42782 0.75204 0.67577
 C2379 C 0.41027 0.75810 0.66770
 C2380 C 0.41056 0.76627 0.64904
 C2381 C 0.42801 0.76824 0.63876
 C2382 C 0.44558 0.76227 0.64691
 C2383 C 0.39228 0.75653 0.67958
 C2384 C 0.37436 0.75704 0.67229
 C2385 C 0.35654 0.75579 0.68443
 C2386 C 0.33934 0.74936 0.67603
 C2387 C 0.32222 0.74803 0.68696
 C2388 C 0.32188 0.75327 0.70656
 C2389 C 0.33903 0.76010 0.71486
 C2390 C 0.35613 0.76142 0.70393
 H2391 H 0.45858 0.74957 0.67230
 H2392 H 0.42806 0.74587 0.69017
 H2393 H 0.39750 0.77162 0.64243
 H2394 H 0.42775 0.77452 0.62441
 H2395 H 0.39405 0.75422 0.69494
 H2396 H 0.37248 0.75752 0.65680
 H2397 H 0.33919 0.74516 0.66099
 H2398 H 0.30927 0.74282 0.68005
 H2399 H 0.33927 0.76451 0.72984
 H2400 H 0.36887 0.76716 0.71076
 C2401 C 0.43418 0.24618 0.86463
 C2402 C 0.41642 0.24997 0.85586
 C2403 C 0.40806 0.23650 0.84347
 C2404 C 0.41759 0.21886 0.84047
 C2405 C 0.43531 0.21506 0.84925
 C2406 C 0.44387 0.22870 0.86134
 C2407 C 0.38929 0.24111 0.83430
 C2408 C 0.38385 0.23344 0.81747
 C2409 C 0.36531 0.23788 0.80778
 C2410 C 0.36382 0.23387 0.78802
 C2411 C 0.34651 0.23704 0.77831
 C2412 C 0.33011 0.24421 0.78815
 C2413 C 0.33157 0.24829 0.80796
 C2414 C 0.34895 0.24512 0.81770
 H2415 H 0.44024 0.25684 0.87414
 H2416 H 0.40927 0.26356 0.85863
 H2417 H 0.41133 0.20783 0.83155
 H2418 H 0.44244 0.20148 0.84640
 H2419 H 0.38031 0.25192 0.84114
 H2420 H 0.39378 0.22404 0.80984
 H2421 H 0.37613 0.22817 0.78004
 H2422 H 0.34597 0.23366 0.76307
 H2423 H 0.31919 0.25366 0.81604
 H2424 H 0.34930 0.24791 0.83305
 C2425 C 0.92936 0.75176 0.36756
 C2426 C 0.91135 0.75517 0.35913
 C2427 C 0.90305 0.74150 0.34693
 C2428 C 0.91284 0.72402 0.34383
 C2429 C 0.93079 0.72060 0.35229
 C2430 C 0.93932 0.73446 0.36415
 C2431 C 0.88406 0.74570 0.33801
 C2432 C 0.87870 0.73802 0.32116
 C2433 C 0.85988 0.74180 0.31174
 C2434 C 0.85826 0.73767 0.29202
 C2435 C 0.84066 0.74001 0.28259
 C2436 C 0.82411 0.74645 0.29270
 C2437 C 0.82573 0.75076 0.31245
 C2438 C 0.84340 0.74841 0.32190
 H2439 H 0.93541 0.76259 0.37689
 H2440 H 0.90399 0.76863 0.36196
 H2441 H 0.90662 0.71284 0.33507
 H2442 H 0.93812 0.70716 0.34932
 H2443 H 0.87483 0.75615 0.34507
 H2444 H 0.88888 0.72902 0.31335
 H2445 H 0.87067 0.73245 0.28386
 H2446 H 0.84001 0.73651 0.26739
 H2447 H 0.81325 0.75559 0.32073
 H2448 H 0.84388 0.75128 0.33722
 C2449 C 0.06066 0.78475 0.34654
 C2450 C 0.07778 0.78377 0.33567
 C2451 C 0.08948 0.76731 0.33629
 C2452 C 0.08339 0.75153 0.34766
 C2453 C 0.06614 0.75247 0.35848
 C2454 C 0.05472 0.76917 0.35817
 C2455 C 0.10755 0.76711 0.32449
 C2456 C 0.12293 0.75607 0.32850
 C2457 C 0.14120 0.75671 0.31699
 C2458 C 0.15856 0.75113 0.32575
 C2459 C 0.17608 0.75160 0.31538
 C2460 C 0.17660 0.75753 0.29592
 C2461 C 0.15915 0.76287 0.28708
 C2462 C 0.14166 0.76239 0.29744
 H2463 H 0.05196 0.79767 0.34573
 H2464 H 0.08199 0.79602 0.32685
 H2465 H 0.09173 0.73837 0.34806
 H2466 H 0.06187 0.74024 0.36729
 H2467 H 0.10854 0.77745 0.31278
 H2468 H 0.12269 0.74707 0.34131
 H2469 H 0.15859 0.74654 0.34073
 H2470 H 0.18920 0.74728 0.32264
 H2471 H 0.15894 0.76728 0.27205
 H2472 H 0.12853 0.76615 0.28993
 C2473 C 0.57137 0.24253 0.86429
 C2474 C 0.58943 0.24027 0.85516
 C2475 C 0.59758 0.25526 0.84410
 C2476 C 0.58750 0.27279 0.84279
 C2477 C 0.56949 0.27505 0.85191
 C2478 C 0.56118 0.25995 0.86273
 C2479 C 0.61673 0.25235 0.83454
 C2480 C 0.62226 0.26205 0.81859
 C2481 C 0.64120 0.25950 0.80856
 C2482 C 0.64293 0.26564 0.78929
 C2483 C 0.66056 0.26418 0.77931
 C2484 C 0.67703 0.25666 0.78843
 C2485 C 0.67536 0.25055 0.80779
 C2486 C 0.65765 0.25198 0.81778
 H2487 H 0.56549 0.23073 0.87277
 H2488 H 0.59700 0.22670 0.85660
 H2489 H 0.59354 0.28493 0.83497
 H2490 H 0.56197 0.28862 0.85034
 H2491 H 0.62599 0.24122 0.84031
 H2492 H 0.61212 0.27183 0.81189
 H2493 H 0.63056 0.27162 0.78187
 H2494 H 0.66126 0.26911 0.76445
 H2495 H 0.68778 0.24482 0.81530
 H2496 H 0.65708 0.24758 0.83279
 C2497 C 0.56703 0.71620 0.66405
 C2498 C 0.58341 0.71844 0.67543
 C2499 C 0.59350 0.73592 0.67554
 C2500 C 0.58649 0.75140 0.66445
 C2501 C 0.57000 0.74919 0.65313
 C2502 C 0.56024 0.73149 0.65266
 C2503 C 0.61098 0.73743 0.68762
 C2504 C 0.62550 0.74977 0.68395
 C2505 C 0.64349 0.75011 0.69541
 C2506 C 0.66072 0.75655 0.68660
 C2507 C 0.67810 0.75645 0.69676
 C2508 C 0.67856 0.75005 0.71607
 C2509 C 0.66116 0.74413 0.72505
 C2510 C 0.64382 0.74422 0.71489
 H2511 H 0.55959 0.70251 0.66424
 H2512 H 0.58836 0.70638 0.68401
 H2513 H 0.59354 0.76527 0.66461
 H2514 H 0.56505 0.76121 0.64450
 H2515 H 0.61247 0.72695 0.69913
 H2516 H 0.62494 0.75897 0.67130
 H2517 H 0.66081 0.76135 0.67168
 H2518 H 0.69119 0.76122 0.68941
 H2519 H 0.66091 0.73934 0.73997
 H2520 H 0.63071 0.73983 0.72241
 C2521 C 0.06040 0.25117 0.16282
 C2522 C 0.07748 0.25383 0.17311
 C2523 C 0.09549 0.24864 0.16504
 C2524 C 0.09606 0.24082 0.14633
 C2525 C 0.07900 0.23819 0.13606
 C2526 C 0.06097 0.24310 0.14427
 C2527 C 0.11307 0.25039 0.17700
 C2528 C 0.13112 0.25090 0.16960
 C2529 C 0.14878 0.25129 0.18156
 C2530 C 0.16614 0.25791 0.17316
 C2531 C 0.18332 0.25773 0.18362
 C2532 C 0.18356 0.25076 0.20272
 C2533 C 0.16617 0.24406 0.21113
 C2534 C 0.14898 0.24425 0.20067
 H2535 H 0.04670 0.25485 0.16964
 H2536 H 0.07660 0.25970 0.18756
 H2537 H 0.10951 0.23610 0.13974
 H2538 H 0.07990 0.23205 0.12173
 H2539 H 0.11090 0.25162 0.19246
 H2540 H 0.13325 0.25155 0.15409
 H2541 H 0.16644 0.26321 0.15842
 H2542 H 0.19644 0.26295 0.17664
 H2543 H 0.16584 0.23844 0.22575
 H2544 H 0.13607 0.23840 0.20747
 C2545 C -0.11003 1.02879 0.82546
 C2546 C -0.09939 1.02566 0.84224
 C2547 C -0.08545 1.01095 0.84306
 C2548 C -0.08223 0.99970 0.82664
 C2549 C -0.09283 1.00278 0.80984
 C2550 C -0.10700 1.01744 0.80882
 C2551 C -0.07343 1.00743 0.86037
 C2552 C -0.07872 1.01283 0.87826
 C2553 C -0.06666 1.00994 0.89565
 C2554 C -0.07551 1.01194 0.91389
 C2555 C -0.06467 1.01045 0.93072
 C2556 C -0.04461 1.00696 0.92975
 C2557 C -0.03574 1.00467 0.91152
 C2558 C -0.04659 1.00626 0.89464
 H2559 H -0.12104 1.03983 0.82600
 H2560 H -0.10201 1.03504 0.85439
 H2561 H -0.07132 0.98850 0.82673
 H2562 H -0.08907 0.99411 0.79745
 H2563 H -0.06013 0.99948 0.85820
 H2564 H -0.09284 1.01925 0.88055
 H2565 H -0.09089 1.01486 0.91514
 H2566 H -0.07201 1.01224 0.94451
 H2567 H -0.02029 1.00215 0.91024
 H2568 H -0.03901 1.00513 0.88094
 C2569 C 0.41340 0.53664 0.30774
 C2570 C 0.42497 0.53398 0.32395
 C2571 C 0.42217 0.51803 0.33616
 C2572 C 0.40791 0.50444 0.33150
 C2573 C 0.39647 0.50700 0.31514
 C2574 C 0.39899 0.52321 0.30319
 C2575 C 0.43453 0.51593 0.35339
 C2576 C 0.42839 0.50735 0.36974
 C2577 C 0.44012 0.50652 0.38750
 C2578 C 0.43054 0.50623 0.40547
 C2579 C 0.44103 0.50574 0.42259
 C2580 C 0.46140 0.50516 0.42211
 C2581 C 0.47102 0.50497 0.40408
 C2582 C 0.46050 0.50571 0.38693
 H2583 H 0.41587 0.54910 0.29859
 H2584 H 0.43599 0.54454 0.32712
 H2585 H 0.40572 0.49171 0.34031
 H2586 H 0.38549 0.49642 0.31194
 H2587 H 0.44852 0.52298 0.35305
 H2588 H 0.41366 0.50205 0.37073
 H2589 H 0.41486 0.50666 0.40629
 H2590 H 0.43315 0.50568 0.43622
 H2591 H 0.48669 0.50441 0.40323
 H2592 H 0.46832 0.50539 0.37329
 C2593 C 0.61235 -0.02768 0.32175
 C2594 C 0.60398 -0.02528 0.34005
 C2595 C 0.58888 -0.01213 0.34306
 C2596 C 0.58262 -0.00102 0.32731
 C2597 C 0.59091 -0.00343 0.30894
 C2598 C 0.60592 -0.01691 0.30566
 C2599 C 0.58043 -0.01039 0.36284
 C2600 C 0.56324 -0.00214 0.36681
 C2601 C 0.55444 -0.00137 0.38650
 C2602 C 0.53441 0.00181 0.38827
 C2603 C 0.52535 0.00219 0.40643
 C2604 C 0.53613 -0.00057 0.42332
 C2605 C 0.55628 -0.00324 0.42160
 C2606 C 0.56536 -0.00352 0.40343
 H2607 H 0.62440 -0.03755 0.32063
 H2608 H 0.60939 -0.03380 0.35198
 H2609 H 0.57136 0.00967 0.32895
 H2610 H 0.58481 0.00492 0.29729
 H2611 H 0.58836 -0.01721 0.37438
 H2612 H 0.55453 0.00330 0.35512
 H2613 H 0.52566 0.00373 0.37552
 H2614 H 0.50982 0.00436 0.40720
 H2615 H 0.56508 -0.00512 0.43432
 H2616 H 0.58091 -0.00526 0.40284
 C2617 C 0.11860 0.48121 0.82510
 C2618 C 0.10957 0.48443 0.84296
 C2619 C 0.09128 0.49323 0.84408
 C2620 C 0.08220 0.49882 0.82681
 C2621 C 0.09128 0.49563 0.80895
 C2622 C 0.10950 0.48667 0.80789
 C2623 C 0.08198 0.49533 0.86341
 C2624 C 0.06664 0.50665 0.86720
 C2625 C 0.05711 0.50748 0.88649
 C2626 C 0.03737 0.51226 0.88773
 C2627 C 0.02764 0.51223 0.90558
 C2628 C 0.03752 0.50756 0.92262
 C2629 C 0.05747 0.50355 0.92144
 C2630 C 0.06717 0.50359 0.90362
 H2631 H 0.13274 0.47446 0.82475
 H2632 H 0.11689 0.47992 0.85598
 H2633 H 0.06791 0.50514 0.82684
 H2634 H 0.08376 0.49967 0.79590
 H2635 H 0.08802 0.48677 0.87496
 H2636 H 0.06020 0.51506 0.85578
 H2637 H 0.02935 0.51557 0.87478
 H2638 H 0.01231 0.51553 0.90596
 H2639 H 0.06563 0.50021 0.93430
 H2640 H 0.08256 0.50064 0.90340
 C2641 C 0.08708 0.50110 0.69016
 C2642 C 0.07732 0.49696 0.67312
 C2643 C 0.08500 0.50265 0.65510
 C2644 C 0.10301 0.51220 0.65450
 C2645 C 0.11271 0.51641 0.67156
 C2646 C 0.10482 0.51098 0.68957
 C2647 C 0.07389 0.49811 0.63745
 C2648 C 0.07662 0.50709 0.62042
 C2649 C 0.06535 0.50291 0.60284
 C2650 C 0.07351 0.50781 0.58483
 C2651 C 0.06319 0.50508 0.56786
 C2652 C 0.04429 0.49754 0.56848
 C2653 C 0.03611 0.49250 0.58652
 C2654 C 0.04651 0.49517 0.60354
 H2655 H 0.08058 0.49685 0.70385
 H2656 H 0.06358 0.48949 0.67404
 H2657 H 0.10990 0.51622 0.64097
 H2658 H 0.12657 0.52367 0.67066
 H2659 H 0.06283 0.48716 0.63878
 H2660 H 0.08766 0.51803 0.61898
 H2661 H 0.08794 0.51390 0.58388
 H2662 H 0.06997 0.50920 0.55427
 H2663 H 0.02154 0.48679 0.58754
 H2664 H 0.03947 0.49170 0.61716
 C2665 C 0.61305 1.02439 0.17181
 C2666 C 0.60445 1.02163 0.15386
 C2667 C 0.58673 1.01187 0.15243
 C2668 C 0.57761 1.00515 0.16949
 C2669 C 0.58624 1.00789 0.18744
 C2670 C 0.60405 1.01751 0.18880
 C2671 C 0.57806 1.00967 0.13302
 C2672 C 0.56430 0.99674 0.12889
 C2673 C 0.55537 0.99506 0.10958
 C2674 C 0.53673 0.98717 0.10834
 C2675 C 0.52761 0.98558 0.09051
 C2676 C 0.53704 0.99165 0.07341
 C2677 C 0.55593 0.99909 0.07459
 C2678 C 0.56502 1.00075 0.09245
 H2679 H 0.62686 1.03171 0.17237
 H2680 H 0.61175 1.02706 0.14100
 H2681 H 0.56364 0.99818 0.16924
 H2682 H 0.57876 1.00279 0.20032
 H2683 H 0.58337 1.01920 0.12176
 H2684 H 0.55882 0.98723 0.14008
 H2685 H 0.52905 0.98248 0.12128
 H2686 H 0.51311 0.97966 0.09016
 H2687 H 0.56372 1.00375 0.06172
 H2688 H 0.57966 1.00625 0.09267
 C2689 C 0.37544 0.47982 0.17418
 C2690 C 0.38378 0.48120 0.15570
 C2691 C 0.40179 0.49021 0.15282
 C2692 C 0.41135 0.49778 0.16895
 C2693 C 0.40299 0.49645 0.18740
 C2694 C 0.38499 0.48738 0.19024
 C2695 C 0.41045 0.49048 0.13305
 C2696 C 0.42477 0.50239 0.12743
 C2697 C 0.43422 0.50179 0.10807
 C2698 C 0.45313 0.50895 0.10605
 C2699 C 0.46283 0.50840 0.08823
 C2700 C 0.45373 0.50085 0.07187
 C2701 C 0.43460 0.49407 0.07376
 C2702 C 0.42493 0.49455 0.09165
 H2703 H 0.36149 0.47287 0.17589
 H2704 H 0.37614 0.47514 0.14360
 H2705 H 0.42554 0.50423 0.16762
 H2706 H 0.41090 0.50202 0.19956
 H2707 H 0.40483 0.48019 0.12290
 H2708 H 0.43046 0.51269 0.13752
 H2709 H 0.46057 0.51476 0.11841
 H2710 H 0.47749 0.51389 0.08731
 H2711 H 0.42709 0.48832 0.06144
 H2712 H 0.41013 0.48948 0.09242
 C2713 C -0.12416 -0.02767 0.67942
 C2714 C -0.11564 -0.02580 0.66108
 C2715 C -0.10018 -0.01310 0.65778
 C2716 C -0.09335 -0.00229 0.67338
 C2717 C -0.10191 -0.00403 0.69170
 C2718 C -0.11745 -0.01684 0.69520
 C2719 C -0.09114 -0.01228 0.63818
 C2720 C -0.07911 0.00173 0.63215
 C2721 C -0.06916 0.00169 0.61305
 C2722 C -0.05134 0.01122 0.61115
 C2723 C -0.04124 0.01134 0.59354
 C2724 C -0.04890 0.00214 0.57730
 C2725 C -0.06699 -0.00702 0.57906
 C2726 C -0.07703 -0.00727 0.59675
 H2727 H -0.13644 -0.03722 0.68088
 H2728 H -0.12123 -0.03432 0.64934
 H2729 H -0.08099 0.00713 0.67187
 H2730 H -0.09542 0.00400 0.70326
 H2731 H -0.09437 -0.02398 0.62851
 H2732 H -0.07560 0.01344 0.64166
 H2733 H -0.04505 0.01838 0.62343
 H2734 H -0.02743 0.01869 0.59268
 H2735 H -0.07337 -0.01412 0.56680
 H2736 H -0.09102 -0.01424 0.59750
 C2737 C -0.16866 0.88663 1.02878
 C2738 C -0.15063 0.89509 1.02512
 C2739 C -0.14843 0.90945 1.01101
 C2740 C -0.16461 0.91466 1.00002
 C2741 C -0.18269 0.90627 1.00366
 C2742 C -0.18523 0.89222 1.01833
 C2743 C -0.12907 0.91845 1.00827
 C2744 C -0.12626 0.93566 0.99981
 C2745 C -0.10713 0.94537 0.99853
 C2746 C -0.10668 0.96532 0.99548
 C2747 C -0.08910 0.97525 0.99488
 C2748 C -0.07148 0.96543 0.99725
 C2749 C -0.07186 0.94537 0.99971
 C2750 C -0.08946 0.93542 1.00023
 H2751 H -0.16922 0.87527 1.03947
 H2752 H -0.13833 0.89047 1.03354
 H2753 H -0.16350 0.92525 0.98856
 H2754 H -0.19474 0.91164 0.99539
 H2755 H -0.11696 0.91110 1.01476
 H2756 H -0.13860 0.94376 0.99479
 H2757 H -0.12004 0.97334 0.99391
 H2758 H -0.08937 0.99069 0.99285
 H2759 H -0.05855 0.93730 1.00129
 H2760 H -0.08903 0.91997 1.00185
 C2761 C 0.33153 0.38325 0.51582
 C2762 C 0.34960 0.39209 0.51359
 C2763 C 0.35125 0.41030 0.50490
 C2764 C 0.33432 0.41954 0.49849
 C2765 C 0.31626 0.41066 0.50068
 C2766 C 0.31466 0.39248 0.50947
 C2767 C 0.37070 0.41938 0.50372
 C2768 C 0.37515 0.43432 0.49214
 C2769 C 0.39442 0.44374 0.49186
 C2770 C 0.39572 0.46301 0.48592
 C2771 C 0.41351 0.47259 0.48582
 C2772 C 0.43048 0.46302 0.49149
 C2773 C 0.42926 0.44356 0.49696
 C2774 C 0.41146 0.43400 0.49709
 H2775 H 0.33077 0.36915 0.52249
 H2776 H 0.36235 0.38467 0.51874
 H2777 H 0.33472 0.43381 0.49229
 H2778 H 0.30345 0.41829 0.49600
 H2779 H 0.38168 0.41347 0.51305
 H2780 H 0.36426 0.44047 0.48288
 H2781 H 0.38286 0.47078 0.48162
 H2782 H 0.41391 0.48752 0.48137
 H2783 H 0.44206 0.43566 0.50118
 H2784 H 0.41122 0.41896 0.50107
 C2785 C 0.30282 0.58502 0.00095
 C2786 C 0.32006 0.57503 0.00415
 C2787 C 0.33795 0.58284 -0.00171
 C2788 C 0.33825 0.60118 -0.01044
 C2789 C 0.32099 0.61114 -0.01370
 C2790 C 0.30310 0.60313 -0.00813
 C2791 C 0.35581 0.57151 0.00179
 C2792 C 0.37251 0.57433 -0.00794
 C2793 C 0.39029 0.56279 -0.00487
 C2794 C 0.40815 0.57074 -0.01053
 C2795 C 0.42525 0.56021 -0.00876
 C2796 C 0.42490 0.54131 -0.00145
 C2797 C 0.40701 0.53333 0.00430
 C2798 C 0.38987 0.54392 0.00258
 H2799 H 0.28923 0.57842 0.00528
 H2800 H 0.31940 0.56101 0.01102
 H2801 H 0.35170 0.60812 -0.01451
 H2802 H 0.32166 0.62525 -0.02033
 H2803 H 0.35488 0.56019 0.01254
 H2804 H 0.37349 0.58562 -0.01870
 H2805 H 0.40888 0.58518 -0.01643
 H2806 H 0.43872 0.56684 -0.01340
 H2807 H 0.40618 0.51877 0.00986
 H2808 H 0.37636 0.53704 0.00659
 C2809 C -0.17903 0.11738 0.47370
 C2810 C -0.16069 0.10949 0.47680
 C2811 C -0.15806 0.09471 0.49035
 C2812 C -0.17419 0.08836 0.50121
 C2813 C -0.19256 0.09614 0.49808
 C2814 C -0.19549 0.11078 0.48415
 C2815 C -0.13830 0.08656 0.49275
 C2816 C -0.13482 0.06940 0.50101
 C2817 C -0.11529 0.06056 0.50257
 C2818 C -0.11416 0.04086 0.50682
 C2819 C -0.09626 0.03164 0.50813
 C2820 C -0.07893 0.04192 0.50524
 C2821 C -0.07998 0.06175 0.50137
 C2822 C -0.09794 0.07101 0.50015
 H2823 H -0.17989 0.12917 0.46352
 H2824 H -0.14848 0.11496 0.46847
 H2825 H -0.17285 0.07741 0.51223
 H2826 H -0.20446 0.08990 0.50622
 H2827 H -0.12643 0.09463 0.48642
 H2828 H -0.14688 0.06071 0.50596
 H2829 H -0.12723 0.03245 0.50893
 H2830 H -0.09605 0.01637 0.51118
 H2831 H -0.06692 0.07016 0.49928
 H2832 H -0.09802 0.08632 0.49747
 C2833 C 0.66809 0.11523 0.51996
 C2834 C 0.65012 0.10676 0.51655
 C2835 C 0.64882 0.08947 0.50631
 C2836 C 0.66602 0.08075 0.49957
 C2837 C 0.68401 0.08925 0.50297
 C2838 C 0.68525 0.10652 0.51329
 C2839 C 0.62939 0.08069 0.50395
 C2840 C 0.62534 0.06684 0.49119
 C2841 C 0.60604 0.05758 0.49007
 C2842 C 0.60486 0.03866 0.48330
 C2843 C 0.58709 0.02902 0.48308
 C2844 C 0.57004 0.03820 0.48947
 C2845 C 0.57111 0.05746 0.49542
 C2846 C 0.58887 0.06706 0.49566
 H2847 H 0.66854 0.12866 0.52776
 H2848 H 0.63714 0.11377 0.52198
 H2849 H 0.66585 0.06715 0.49214
 H2850 H 0.69701 0.08203 0.49795
 H2851 H 0.61801 0.08583 0.51350
 H2852 H 0.63660 0.06137 0.48173
 H2853 H 0.61782 0.03111 0.47866
 H2854 H 0.58680 0.01426 0.47825
 H2855 H 0.55825 0.06509 0.50018
 H2856 H 0.58903 0.08189 0.50021
 C2857 C 0.16797 0.61518 1.02854
 C2858 C 0.14995 0.60705 1.02468
 C2859 C 0.14821 0.59212 1.01133
 C2860 C 0.16502 0.58543 1.00186
 C2861 C 0.18306 0.59359 1.00563
 C2862 C 0.18499 0.60859 1.01915
 C2863 C 0.12877 0.58352 1.00851
 C2864 C 0.12428 0.57163 0.99403
 C2865 C 0.10504 0.56240 0.99252
 C2866 C 0.10375 0.54430 0.98382
 C2867 C 0.08603 0.53464 0.98315
 C2868 C 0.06915 0.54301 0.99099
 C2869 C 0.07032 0.56153 0.99892
 C2870 C 0.08804 0.57113 0.99965
 H2871 H 0.16823 0.62712 1.03845
 H2872 H 0.13725 0.61256 1.03216
 H2873 H 0.16459 0.57352 0.99195
 H2874 H 0.19555 0.58726 0.99855
 H2875 H 0.11778 0.58696 1.01923
 H2876 H 0.13509 0.56766 0.98336
 H2877 H 0.11660 0.53739 0.97800
 H2878 H 0.08564 0.52048 0.97676
 H2879 H 0.05758 0.56853 1.00486
 H2880 H 0.08833 0.58540 1.00576
 C2881 C 0.19658 0.41517 0.49055
 C2882 C 0.17895 0.42419 0.49479
 C2883 C 0.16134 0.41580 0.48945
 C2884 C 0.16176 0.39789 0.48004
 C2885 C 0.17940 0.38894 0.47571
 C2886 C 0.19698 0.39750 0.48087
 C2887 C 0.14304 0.42610 0.49423
 C2888 C 0.12593 0.42215 0.48617
 C2889 C 0.10779 0.43273 0.49061
 C2890 C 0.09009 0.42359 0.48715
 C2891 C 0.07259 0.43326 0.49002
 C2892 C 0.07235 0.45246 0.49624
 C2893 C 0.09008 0.46159 0.49993
 C2894 C 0.10763 0.45186 0.49712
 H2895 H 0.20993 0.42215 0.49462
 H2896 H 0.17910 0.43789 0.50213
 H2897 H 0.14864 0.39046 0.47624
 H2898 H 0.17929 0.37511 0.46861
 H2899 H 0.14392 0.43759 0.50465
 H2900 H 0.12482 0.41063 0.47586
 H2901 H 0.08980 0.40891 0.48204
 H2902 H 0.05925 0.42575 0.48698
 H2903 H 0.09045 0.47641 0.50460
 H2904 H 0.12096 0.45961 0.49943
 C2905 C 0.69484 0.91226 0.00244
 C2906 C 0.67695 0.92097 0.00626
 C2907 C 0.65960 0.91196 0.00106
 C2908 C 0.66054 0.89370 -0.00759
 C2909 C 0.67843 0.88505 -0.01150
 C2910 C 0.69576 0.89429 -0.00665
 C2911 C 0.64101 0.92206 0.00504
 C2912 C 0.62433 0.91780 -0.00373
 C2913 C 0.60589 0.92829 -0.00042
 C2914 C 0.58850 0.91904 -0.00495
 C2915 C 0.57081 0.92864 -0.00327
 C2916 C 0.57007 0.94788 0.00281
 C2917 C 0.58747 0.95711 0.00759
 C2918 C 0.60521 0.94745 0.00597
 H2919 H 0.70798 0.91975 0.00626
 H2920 H 0.67670 0.93495 0.01306
 H2921 H 0.64761 0.88581 -0.01117
 H2922 H 0.67871 0.87099 -0.01812
 H2923 H 0.64134 0.93373 0.01528
 H2924 H 0.62388 0.90614 -0.01394
 H2925 H 0.58862 0.90434 -0.01000
 H2926 H 0.55775 0.92105 -0.00712
 H2927 H 0.58746 0.97195 0.01220
 H2928 H 0.61830 0.95530 0.00909
 C2929 C 0.00083 0.81458 0.91505
 C2930 C -0.00364 0.83179 0.92435
 C2931 C 0.00623 0.84876 0.91957
 C2932 C 0.02097 0.84809 0.90538
 C2933 C 0.02548 0.83088 0.89603
 C2934 C 0.01550 0.81368 0.90063
 C2935 C 0.00136 0.86648 0.93043
 C2936 C 0.00560 0.88426 0.92410
 C2937 C 0.00169 0.90198 0.93536
 C2938 C 0.00275 0.91977 0.92576
 C2939 C 0.00065 0.93694 0.93594
 C2940 C -0.00255 0.93672 0.95604
 C2941 C -0.00411 0.91892 0.96561
 C2942 C -0.00189 0.90175 0.95545
 H2943 H -0.00678 0.80188 0.92002
 H2944 H -0.01479 0.83178 0.93550
 H2945 H 0.02932 0.86072 0.90158
 H2946 H 0.03646 0.83143 0.88477
 H2947 H -0.00653 0.86459 0.94390
 H2948 H 0.01195 0.88615 0.90985
 H2949 H 0.00556 0.92042 0.91033
 H2950 H 0.00191 0.95038 0.92807
 H2951 H -0.00638 0.91823 0.98111
 H2952 H -0.00231 0.88849 0.96362
 C2953 C 0.50212 0.31057 0.41357
 C2954 C 0.49845 0.32833 0.42212
 C2955 C 0.50381 0.34547 0.41271
 C2956 C 0.51258 0.34446 0.39426
 C2957 C 0.51626 0.32666 0.38570
 C2958 C 0.51112 0.30953 0.39529
 C2959 C 0.49977 0.36390 0.42262
 C2960 C 0.50920 0.38033 0.41861
 C2961 C 0.50599 0.39842 0.42941
 C2962 C 0.51153 0.41584 0.42069
 C2963 C 0.50978 0.43314 0.43070
 C2964 C 0.50256 0.43338 0.44979
 C2965 C 0.49686 0.41594 0.45849
 C2966 C 0.49862 0.39865 0.44847
 H2967 H 0.49816 0.29762 0.42140
 H2968 H 0.49162 0.32868 0.43629
 H2969 H 0.51634 0.35729 0.38618
 H2970 H 0.52284 0.32630 0.37142
 H2971 H 0.48897 0.36358 0.43407
 H2972 H 0.51993 0.38073 0.40710
 H2973 H 0.51739 0.41606 0.40609
 H2974 H 0.51437 0.44627 0.42355
 H2975 H 0.49140 0.41556 0.47322
 H2976 H 0.49477 0.38554 0.45602
 C2977 C 0.00476 0.30389 0.59011
 C2978 C 0.00755 0.32079 0.57947
 C2979 C -0.00297 0.33744 0.58385
 C2980 C -0.01668 0.33672 0.59904
 C2981 C -0.01951 0.31983 0.60974
 C2982 C -0.00883 0.30298 0.60557
 C2983 C 0.00029 0.35488 0.57177
 C2984 C -0.00452 0.37270 0.57738
 C2985 C -0.00165 0.39021 0.56527
 C2986 C -0.00320 0.40821 0.57420
 C2987 C -0.00159 0.42515 0.56340
 C2988 C 0.00161 0.42455 0.54331
 C2989 C 0.00342 0.40656 0.53435
 C2990 C 0.00169 0.38958 0.54515
 H2991 H 0.01278 0.29139 0.58542
 H2992 H 0.01795 0.32080 0.56761
 H2993 H -0.02552 0.34905 0.60264
 H2994 H -0.02971 0.32042 0.62170
 H2995 H 0.00762 0.35281 0.55804
 H2996 H -0.01036 0.37486 0.59178
 H2997 H -0.00585 0.40919 0.58963
 H2998 H -0.00304 0.43875 0.57081
 H2999 H 0.00569 0.40556 0.51887
 H3000 H 0.00246 0.37612 0.53749
 C3001 C 0.49755 0.79804 0.08818
 C3002 C 0.50097 0.81532 0.07838
 C3003 C 0.49471 0.83284 0.08622
 C3004 C 0.48526 0.83271 0.10439
 C3005 C 0.48178 0.81540 0.11417
 C3006 C 0.48784 0.79788 0.10615
 C3007 C 0.49863 0.85076 0.07513
 C3008 C 0.48882 0.86719 0.07785
 C3009 C 0.49232 0.88498 0.06643
 C3010 C 0.48638 0.90256 0.07433
 C3011 C 0.48853 0.91963 0.06384
 C3012 C 0.49652 0.91952 0.04505
 C3013 C 0.50258 0.90192 0.03714
 C3014 C 0.50047 0.88482 0.04767
 H3015 H 0.50226 0.78474 0.08157
 H3016 H 0.50837 0.81498 0.06449
 H3017 H 0.48081 0.84587 0.11136
 H3018 H 0.47464 0.81573 0.12819
 H3019 H 0.50980 0.85011 0.06405
 H3020 H 0.47766 0.86793 0.08892
 H3021 H 0.47996 0.90308 0.08868
 H3022 H 0.48364 0.93288 0.07041
 H3023 H 0.50865 0.90127 0.02265
 H3024 H 0.50470 0.87153 0.04079
 C3025 C 0.52531 0.66495 0.11881
 C3026 C 0.52278 0.64723 0.10980
 C3027 C 0.51359 0.64608 0.09186
 C3028 C 0.50709 0.66313 0.08301
 C3029 C 0.50958 0.68083 0.09205
 C3030 C 0.51876 0.68194 0.11001
 C3031 C 0.51192 0.62699 0.08260
 C3032 C 0.49948 0.62304 0.06841
 C3033 C 0.49851 0.60411 0.05880
 C3034 C 0.49144 0.60324 0.03991
 C3035 C 0.49057 0.58574 0.03017
 C3036 C 0.49659 0.56865 0.03922
 C3037 C 0.50325 0.56946 0.05832
 C3038 C 0.50415 0.58697 0.06803
 H3039 H 0.53230 0.66534 0.13272
 H3040 H 0.52803 0.63436 0.11689
 H3041 H 0.50056 0.66308 0.06891
 H3042 H 0.50477 0.69375 0.08474
 H3043 H 0.52151 0.61584 0.08776
 H3044 H 0.48992 0.63412 0.06307
 H3045 H 0.48682 0.61620 0.03255
 H3046 H 0.48524 0.58565 0.01553
 H3047 H 0.50778 0.55656 0.06583
 H3048 H 0.50899 0.58689 0.08283
 C3049 C 0.03252 0.17173 0.61774
 C3050 C 0.02890 0.15377 0.60959
 C3051 C 0.01489 0.15159 0.59529
 C3052 C 0.00454 0.16791 0.58924
 C3053 C 0.00803 0.18584 0.59743
 C3054 C 0.02215 0.18821 0.61184
 C3055 C 0.01219 0.13226 0.58669
 C3056 C -0.00260 0.12746 0.57526
 C3057 C -0.00425 0.10840 0.56600
 C3058 C -0.01388 0.10706 0.54833
 C3059 C -0.01519 0.08949 0.53878
 C3060 C -0.00711 0.07277 0.54685
 C3061 C 0.00196 0.07399 0.56489
 C3062 C 0.00337 0.09160 0.57438
 H3063 H 0.04302 0.17232 0.62918
 H3064 H 0.03710 0.14147 0.61460
 H3065 H -0.00593 0.16722 0.57780
 H3066 H 0.00022 0.19796 0.59155
 H3067 H 0.02322 0.12164 0.58974
 H3068 H -0.01360 0.13789 0.57170
 H3069 H -0.02007 0.11975 0.54169
 H3070 H -0.02242 0.08905 0.52500
 H3071 H 0.00820 0.06138 0.57162
 H3072 H 0.01030 0.09193 0.58830
 C3073 C 0.49659 0.18996 0.41511
 C3074 C 0.50100 0.17226 0.42358
 C3075 C 0.49487 0.15505 0.41517
 C3076 C 0.48465 0.15592 0.39768
 C3077 C 0.48019 0.17364 0.38924
 C3078 C 0.48601 0.19084 0.39792
 C3079 C 0.49949 0.13669 0.42510
 C3080 C 0.48983 0.12026 0.42219
 C3081 C 0.49358 0.10220 0.43297
 C3082 C 0.48759 0.08481 0.42485
 C3083 C 0.48962 0.06754 0.43497
 C3084 C 0.49753 0.06725 0.45359
 C3085 C 0.50379 0.08464 0.46165
 C3086 C 0.50179 0.10194 0.45150
 H3087 H 0.50115 0.20299 0.42221
 H3088 H 0.50898 0.17204 0.43697
 H3089 H 0.48026 0.14305 0.39027
 H3090 H 0.47238 0.17390 0.37577
 H3091 H 0.51091 0.13704 0.43564
 H3092 H 0.47844 0.11980 0.41163
 H3093 H 0.48112 0.08462 0.41067
 H3094 H 0.48461 0.05445 0.42829
 H3095 H 0.50982 0.08497 0.47601
 H3096 H 0.50607 0.11506 0.45854
 C3097 C 0.00091 0.69712 0.91612
 C3098 C 0.00368 0.67986 0.92612
 C3099 C -0.00541 0.66297 0.92018
 C3100 C -0.01770 0.66374 0.90416
 C3101 C -0.02062 0.68099 0.89421
 C3102 C -0.01139 0.69811 0.89996
 C3103 C -0.00254 0.64510 0.93153
 C3104 C -0.00387 0.62753 0.92379
 C3105 C -0.00227 0.60928 0.93488
 C3106 C -0.00844 0.59232 0.92601
 C3107 C -0.00792 0.57479 0.93585
 C3108 C -0.00112 0.57372 0.95489
 C3109 C 0.00553 0.59059 0.96368
 C3110 C 0.00502 0.60818 0.95379
 H3111 H 0.00779 0.70979 0.92183
 H3112 H 0.01295 0.67972 0.93864
 H3113 H -0.02540 0.65112 0.89942
 H3114 H -0.02972 0.68055 0.88162
 H3115 H 0.00082 0.64677 0.94663
 H3116 H -0.00676 0.62630 0.90851
 H3117 H -0.01398 0.59266 0.91143
 H3118 H -0.01306 0.56209 0.92855
 H3119 H 0.01104 0.59026 0.97826
 H3120 H 0.01045 0.62071 0.96108
 C3121 C 0.26686 0.63402 0.93050
 C3122 C 0.26374 0.64347 0.91292
 C3123 C 0.25501 0.66177 0.91253
 C3124 C 0.24920 0.67014 0.93007
 C3125 C 0.25228 0.66068 0.94761
 C3126 C 0.26117 0.64252 0.94802
 C3127 C 0.25131 0.67251 0.89434
 C3128 C 0.26037 0.66892 0.87748
 C3129 C 0.25698 0.68012 0.85954
 C3130 C 0.26147 0.67162 0.84172
 C3131 C 0.25927 0.68185 0.82447
 C3132 C 0.25268 0.70098 0.82465
 C3133 C 0.24812 0.70951 0.84250
 C3134 C 0.25030 0.69924 0.85976
 H3135 H 0.27339 0.61987 0.93036
 H3136 H 0.26787 0.63613 0.89978
 H3137 H 0.24239 0.68417 0.93023
 H3138 H 0.24789 0.66768 0.96089
 H3139 H 0.24085 0.68407 0.89515
 H3140 H 0.27071 0.65730 0.87648
 H3141 H 0.26678 0.65698 0.84114
 H3142 H 0.26299 0.67482 0.81101
 H3143 H 0.24317 0.72426 0.84320
 H3144 H 0.24726 0.70658 0.87319
 C3145 C 0.74802 0.16211 0.44086
 C3146 C 0.74416 0.17159 0.42349
 C3147 C 0.75039 0.16385 0.40579
 C3148 C 0.76019 0.14608 0.40584
 C3149 C 0.76411 0.13664 0.42324
 C3150 C 0.75815 0.14461 0.44093
 C3151 C 0.74619 0.17475 0.38781
 C3152 C 0.75548 0.17190 0.37093
 C3153 C 0.75178 0.18333 0.35322
 C3154 C 0.75655 0.17525 0.33527
 C3155 C 0.75430 0.18579 0.31823
 C3156 C 0.74742 0.20481 0.31873
 C3157 C 0.74251 0.21289 0.33671
 C3158 C 0.74470 0.20230 0.35379
 H3159 H 0.74336 0.16865 0.45430
 H3160 H 0.73650 0.18517 0.42391
 H3161 H 0.76466 0.13917 0.39257
 H3162 H 0.77158 0.12296 0.42287
 H3163 H 0.73526 0.18586 0.38879
 H3164 H 0.76632 0.16075 0.36973
 H3165 H 0.76217 0.16074 0.33444
 H3166 H 0.75831 0.17909 0.30467
 H3167 H 0.73730 0.22754 0.33766
 H3168 H 0.74140 0.20926 0.36736
 C3169 C 0.23370 0.37009 0.41778
 C3170 C 0.23607 0.36096 0.39999
 C3171 C 0.24478 0.34276 0.39881
 C3172 C 0.25106 0.33383 0.41595
 C3173 C 0.24871 0.34300 0.43374
 C3174 C 0.23993 0.36118 0.43487
 C3175 C 0.24616 0.33342 0.37961
 C3176 C 0.25771 0.31840 0.37553
 C3177 C 0.25824 0.30895 0.35638
 C3178 C 0.26395 0.28963 0.35525
 C3179 C 0.26413 0.28004 0.33755
 C3180 C 0.25874 0.28965 0.32052
 C3181 C 0.25358 0.30917 0.32158
 C3182 C 0.25340 0.31873 0.33926
 H3183 H 0.22704 0.38418 0.41817
 H3184 H 0.23103 0.36815 0.38707
 H3185 H 0.25729 0.31959 0.41590
 H3186 H 0.25330 0.33561 0.44671
 H3187 H 0.23700 0.33924 0.36844
 H3188 H 0.26676 0.31227 0.38661
 H3189 H 0.26798 0.28182 0.36818
 H3190 H 0.26833 0.26505 0.33727
 H3191 H 0.24962 0.31713 0.30873
 H3192 H 0.24967 0.33382 0.33935
 C3193 C 0.73253 0.86743 0.93035
 C3194 C 0.73487 0.85828 0.91257
 C3195 C 0.74415 0.84036 0.91129
 C3196 C 0.75114 0.83179 0.92833
 C3197 C 0.74882 0.84099 0.94613
 C3198 C 0.73937 0.85883 0.94736
 C3199 C 0.74537 0.83099 0.89206
 C3200 C 0.75661 0.81577 0.88789
 C3201 C 0.75682 0.80638 0.86869
 C3202 C 0.76198 0.78691 0.86747
 C3203 C 0.76178 0.77738 0.84974
 C3204 C 0.75656 0.78719 0.83276
 C3205 C 0.75198 0.80685 0.83390
 C3206 C 0.75218 0.81635 0.85162
 H3207 H 0.72538 0.88127 0.93080
 H3208 H 0.72931 0.86523 0.89973
 H3209 H 0.75794 0.81782 0.92824
 H3210 H 0.75396 0.83387 0.95905
 H3211 H 0.73623 0.83693 0.88093
 H3212 H 0.76555 0.80938 0.89890
 H3213 H 0.76585 0.77895 0.88036
 H3214 H 0.76553 0.76228 0.84940
 H3215 H 0.74817 0.81495 0.82110
 H3216 H 0.74888 0.83154 0.85177
 C3217 C 0.77539 0.87056 0.08193
 C3218 C 0.77177 0.86260 0.10021
 C3219 C 0.76156 0.84525 0.10225
 C3220 C 0.75513 0.83593 0.08551
 C3221 C 0.75874 0.84389 0.06724
 C3222 C 0.76898 0.86124 0.06524
 C3223 C 0.75896 0.83693 0.12191
 C3224 C 0.74567 0.82353 0.12651
 C3225 C 0.74435 0.81422 0.14581
 C3226 C 0.73669 0.79559 0.14719
 C3227 C 0.73621 0.78581 0.16488
 C3228 C 0.74321 0.79456 0.18167
 C3229 C 0.75009 0.81355 0.18044
 C3230 C 0.75063 0.82330 0.16273
 H3231 H 0.78314 0.88405 0.08086
 H3232 H 0.77699 0.87003 0.11283
 H3233 H 0.74782 0.82221 0.08628
 H3234 H 0.75395 0.83621 0.05461
 H3235 H 0.76876 0.84193 0.13288
 H3236 H 0.73589 0.81838 0.11562
 H3237 H 0.73153 0.78837 0.13442
 H3238 H 0.73065 0.77128 0.16530
 H3239 H 0.75538 0.82082 0.19312
 H3240 H 0.75594 0.83791 0.16241
 C3241 C 0.25735 0.33952 0.55263
 C3242 C 0.25309 0.33036 0.57018
 C3243 C 0.25891 0.33841 0.58772
 C3244 C 0.26866 0.35619 0.58734
 C3245 C 0.27299 0.36530 0.56977
 C3246 C 0.26749 0.35701 0.55224
 C3247 C 0.25441 0.32786 0.60593
 C3248 C 0.26389 0.33068 0.62248
 C3249 C 0.26016 0.31959 0.64049
 C3250 C 0.26602 0.32752 0.65804
 C3251 C 0.26402 0.31718 0.67528
 C3252 C 0.25627 0.29850 0.67537
 C3253 C 0.25012 0.29062 0.65782
 C3254 C 0.25209 0.30101 0.64054
 H3255 H 0.25301 0.33275 0.53932
 H3256 H 0.24546 0.31676 0.57004
 H3257 H 0.27275 0.36335 0.60048
 H3258 H 0.28042 0.37900 0.56990
 H3259 H 0.24321 0.31703 0.60537
 H3260 H 0.27509 0.34150 0.62310
 H3261 H 0.27236 0.34175 0.65840
 H3262 H 0.26894 0.32373 0.68850
 H3263 H 0.24420 0.27623 0.65733
 H3264 H 0.24789 0.29413 0.62728
 C3265 C 0.72333 0.13124 0.57588
 C3266 C 0.72631 0.13993 0.59375
 C3267 C 0.73592 0.15765 0.59492
 C3268 C 0.74238 0.16661 0.57772
 C3269 C 0.73941 0.15790 0.55986
 C3270 C 0.72982 0.14016 0.55874
 C3271 C 0.73800 0.16662 0.61418
 C3272 C 0.75079 0.18056 0.61806
 C3273 C 0.75191 0.19005 0.63713
 C3274 C 0.75918 0.20885 0.63799
 C3275 C 0.75980 0.21861 0.65556
 C3276 C 0.75329 0.20969 0.67273
 C3277 C 0.74664 0.19061 0.67195
 C3278 C 0.74601 0.18088 0.65438
 H3279 H 0.71603 0.11749 0.57548
 H3280 H 0.72108 0.13276 0.60673
 H3281 H 0.74922 0.18057 0.57780
 H3282 H 0.74420 0.16532 0.54686
 H3283 H 0.72833 0.16151 0.62550
 H3284 H 0.76042 0.18585 0.60680
 H3285 H 0.76404 0.21616 0.62494
 H3286 H 0.76514 0.23323 0.65563
 H3287 H 0.74177 0.18318 0.68492
 H3288 H 0.74104 0.16615 0.65447
 C3289 C 0.22197 0.63327 0.08183
 C3290 C 0.22465 0.64233 0.09955
 C3291 C 0.23447 0.65995 0.10054
 C3292 C 0.24156 0.66837 0.08330
 C3293 C 0.23891 0.65927 0.06558
 C3294 C 0.22900 0.64169 0.06465
 C3295 C 0.23610 0.66934 0.11965
 C3296 C 0.24857 0.68356 0.12349
 C3297 C 0.24924 0.69332 0.14245
 C3298 C 0.25611 0.71227 0.14316
 C3299 C 0.25646 0.72220 0.16065
 C3300 C 0.25010 0.71330 0.17788
 C3301 C 0.24376 0.69412 0.17724
 C3302 C 0.24339 0.68421 0.15976
 H3303 H 0.21444 0.61963 0.08157
 H3304 H 0.21897 0.63555 0.11256
 H3305 H 0.24865 0.68219 0.08320
 H3306 H 0.24416 0.66626 0.05251
 H3307 H 0.22631 0.66431 0.13091
 H3308 H 0.25829 0.68887 0.11232
 H3309 H 0.26091 0.71954 0.13007
 H3310 H 0.26158 0.73690 0.16061
 H3311 H 0.23901 0.68671 0.19026
 H3312 H 0.23871 0.66939 0.15996
 C3313 C 0.13195 0.57454 0.72392
 C3314 C 0.14046 0.59257 0.72638
 C3315 C 0.15849 0.59433 0.73537
 C3316 C 0.16802 0.57753 0.74157
 C3317 C 0.15950 0.55952 0.73914
 C3318 C 0.14136 0.55781 0.73032
 C3319 C 0.16714 0.61376 0.73726
 C3320 C 0.18094 0.61806 0.75003
 C3321 C 0.19020 0.63724 0.75133
 C3322 C 0.20877 0.63846 0.75925
 C3323 C 0.21828 0.65611 0.76043
 C3324 C 0.20934 0.67306 0.75389
 C3325 C 0.19051 0.67193 0.74644
 C3326 C 0.18102 0.65424 0.74519
 H3327 H 0.11789 0.57371 0.71721
 H3328 H 0.13287 0.60523 0.72133
 H3329 H 0.18225 0.57808 0.74788
 H3330 H 0.16730 0.54686 0.74381
 H3331 H 0.16182 0.62481 0.72763
 H3332 H 0.18626 0.60704 0.75968
 H3333 H 0.21609 0.62563 0.76427
 H3334 H 0.23271 0.65643 0.76638
 H3335 H 0.18311 0.68471 0.74143
 H3336 H 0.16646 0.65404 0.73962
 C3337 C 0.65818 0.05916 0.24437
 C3338 C 0.66762 0.07636 0.24849
 C3339 C 0.65945 0.09408 0.24329
 C3340 C 0.64129 0.09422 0.23418
 C3341 C 0.63188 0.07698 0.23000
 C3342 C 0.64025 0.05928 0.23501
 C3343 C 0.67032 0.11187 0.24781
 C3344 C 0.66701 0.12897 0.23942
 C3345 C 0.67859 0.14642 0.24332
 C3346 C 0.69790 0.14557 0.24960
 C3347 C 0.70863 0.16242 0.25194
 C3348 C 0.70036 0.18046 0.24797
 C3349 C 0.68100 0.18126 0.24191
 C3350 C 0.67031 0.16443 0.23953
 H3351 H 0.66508 0.04572 0.24825
 H3352 H 0.68152 0.07579 0.25558
 H3353 H 0.63408 0.10749 0.23047
 H3354 H 0.61789 0.07749 0.22311
 H3355 H 0.68184 0.11055 0.25819
 H3356 H 0.65542 0.13052 0.22918
 H3357 H 0.70504 0.13198 0.25210
 H3358 H 0.72354 0.16125 0.25647
 H3359 H 0.67415 0.19488 0.23865
 H3360 H 0.65552 0.16549 0.23455
 C3361 C 0.86731 0.07863 0.76972
 C3362 C 0.85945 0.09681 0.76620
 C3363 C 0.84090 0.09878 0.75834
 C3364 C 0.83028 0.08207 0.75416
 C3365 C 0.83815 0.06389 0.75770
 C3366 C 0.85671 0.06195 0.76560
 C3367 C 0.83285 0.11841 0.75577
 C3368 C 0.81820 0.12268 0.74390
 C3369 C 0.80946 0.14213 0.74240
 C3370 C 0.79030 0.14377 0.73603
 C3371 C 0.78114 0.16166 0.73525
 C3372 C 0.79100 0.17842 0.74068
 C3373 C 0.81044 0.17687 0.74635
 C3374 C 0.81960 0.15896 0.74715
 H3375 H 0.88175 0.07763 0.77559
 H3376 H 0.86791 0.10941 0.76965
 H3377 H 0.81569 0.08286 0.74873
 H3378 H 0.82949 0.05130 0.75471
 H3379 H 0.83930 0.12965 0.76427
 H3380 H 0.81170 0.11146 0.73541
 H3381 H 0.78223 0.13108 0.73206
 H3382 H 0.76620 0.16230 0.73067
 H3383 H 0.81858 0.18948 0.75040
 H3384 H 0.83460 0.15846 0.75140
 C3385 C 0.36987 0.58347 0.26507
 C3386 C 0.36143 0.60153 0.26238
 C3387 C 0.34241 0.60326 0.25566
 C3388 C 0.33197 0.58639 0.25160
 C3389 C 0.34043 0.56831 0.25429
 C3390 C 0.35941 0.56664 0.26122
 C3391 C 0.33377 0.62277 0.25421
 C3392 C 0.31809 0.62704 0.24372
 C3393 C 0.30889 0.64635 0.24342
 C3394 C 0.28930 0.64778 0.23841
 C3395 C 0.27980 0.66552 0.23865
 C3396 C 0.28972 0.68234 0.24379
 C3397 C 0.30952 0.68101 0.24818
 C3398 C 0.31903 0.66326 0.24794
 H3399 H 0.38461 0.58268 0.27019
 H3400 H 0.36980 0.61423 0.26568
 H3401 H 0.31708 0.58695 0.24698
 H3402 H 0.33187 0.55561 0.25154
 H3403 H 0.34067 0.63393 0.26246
 H3404 H 0.31111 0.61590 0.23551
 H3405 H 0.28119 0.63505 0.23466
 H3406 H 0.26458 0.66599 0.23505
 H3407 H 0.31771 0.69369 0.25195
 H3408 H 0.33431 0.66296 0.25116
 C3409 C 0.33514 0.44571 0.25137
 C3410 C 0.32661 0.42801 0.25603
 C3411 C 0.33546 0.41069 0.25046
 C3412 C 0.35352 0.41150 0.24074
 C3413 C 0.36194 0.42917 0.23594
 C3414 C 0.35273 0.44645 0.24098
 C3415 C 0.32535 0.39227 0.25495
 C3416 C 0.32952 0.37561 0.24612
 C3417 C 0.31892 0.35733 0.24957
 C3418 C 0.32805 0.34012 0.24424
 C3419 C 0.31823 0.32263 0.24559
 C3420 C 0.29888 0.32189 0.25216
 C3421 C 0.28982 0.33908 0.25794
 C3422 C 0.29971 0.35663 0.25664
 H3423 H 0.32772 0.45882 0.25542
 H3424 H 0.31282 0.42787 0.26369
 H3425 H 0.36139 0.39865 0.23685
 H3426 H 0.37575 0.42934 0.22834
 H3427 H 0.31369 0.39274 0.26552
 H3428 H 0.34115 0.37505 0.23554
 H3429 H 0.34279 0.34022 0.23868
 H3430 H 0.32572 0.30973 0.24101
 H3431 H 0.27491 0.33907 0.26299
 H3432 H 0.29196 0.36959 0.26047
 C3433 C 0.83226 0.94178 0.75564
 C3434 C 0.82400 0.92419 0.76108
 C3435 C 0.83297 0.90677 0.75605
 C3436 C 0.85078 0.90739 0.74586
 C3437 C 0.85895 0.92498 0.74032
 C3438 C 0.84972 0.94234 0.74502
 C3439 C 0.82322 0.88849 0.76169
 C3440 C 0.82751 0.87138 0.75386
 C3441 C 0.81689 0.85334 0.75838
 C3442 C 0.82588 0.83580 0.75392
 C3443 C 0.81591 0.81847 0.75620
 C3444 C 0.79658 0.81825 0.76285
 C3445 C 0.78772 0.83576 0.76785
 C3446 C 0.79772 0.85313 0.76559
 H3447 H 0.82481 0.95495 0.75943
 H3448 H 0.81037 0.92421 0.76902
 H3449 H 0.85868 0.89448 0.74225
 H3450 H 0.87267 0.92502 0.73255
 H3451 H 0.81166 0.88945 0.77234
 H3452 H 0.83911 0.87027 0.74331
 H3453 H 0.84059 0.83553 0.74829
 H3454 H 0.82323 0.80528 0.75221
 H3455 H 0.77281 0.83615 0.77291
 H3456 H 0.79004 0.86630 0.76875
 C3457 C 0.66008 0.94268 0.24906
 C3458 C 0.67021 0.92568 0.24536
 C3459 C 0.66251 0.90786 0.25109
 C3460 C 0.64401 0.90735 0.25994
 C3461 C 0.63392 0.92435 0.26370
 C3462 C 0.64194 0.94220 0.25850
 C3463 C 0.67413 0.89025 0.24754
 C3464 C 0.67178 0.87403 0.25786
 C3465 C 0.68349 0.85640 0.25502
 C3466 C 0.67578 0.83894 0.26173
 C3467 C 0.68649 0.82201 0.26037
 C3468 C 0.70535 0.82211 0.25243
 C3469 C 0.71309 0.83958 0.24557
 C3470 C 0.70229 0.85658 0.24686
 H3471 H 0.66664 0.95626 0.24497
 H3472 H 0.68432 0.92649 0.23837
 H3473 H 0.63712 0.89390 0.26382
 H3474 H 0.61976 0.92354 0.27057
 H3475 H 0.68529 0.89101 0.23645
 H3476 H 0.66072 0.87338 0.26905
 H3477 H 0.66140 0.83840 0.26816
 H3478 H 0.68001 0.80886 0.26585
 H3479 H 0.72760 0.84019 0.23946
 H3480 H 0.70897 0.86982 0.24198
 C3481 C 0.13711 0.42453 0.77145
 C3482 C 0.14648 0.40690 0.76902
 C3483 C 0.16431 0.40575 0.75910
 C3484 C 0.17257 0.42277 0.75157
 C3485 C 0.16316 0.44042 0.75398
 C3486 C 0.14540 0.44150 0.76406
 C3487 C 0.17388 0.38666 0.75770
 C3488 C 0.18907 0.38264 0.74609
 C3489 C 0.19850 0.36348 0.74555
 C3490 C 0.21803 0.36219 0.73981
 C3491 C 0.22755 0.34444 0.73953
 C3492 C 0.21765 0.32752 0.74485
 C3493 C 0.19793 0.32877 0.75007
 C3494 C 0.18844 0.34649 0.75034
 H3495 H 0.12333 0.42486 0.77908
 H3496 H 0.13975 0.39408 0.77498
 H3497 H 0.18647 0.42278 0.74422
 H3498 H 0.17004 0.45332 0.74840
 H3499 H 0.16807 0.37545 0.76698
 H3500 H 0.19539 0.39372 0.73702
 H3501 H 0.22605 0.37501 0.73582
 H3502 H 0.24270 0.34401 0.73530
 H3503 H 0.18975 0.31602 0.75396
 H3504 H 0.17319 0.34672 0.75408
 C3505 C 0.07977 0.77756 0.87525
 C3506 C 0.09803 0.77429 0.86691
 C3507 C 0.09986 0.76487 0.84909
 C3508 C 0.08294 0.75911 0.83957
 C3509 C 0.06471 0.76237 0.84790
 C3510 C 0.06291 0.77158 0.86585
 C3511 C 0.11950 0.76211 0.84056
 C3512 C 0.12368 0.74871 0.82726
 C3513 C 0.14295 0.74673 0.81776
 C3514 C 0.14399 0.73825 0.79943
 C3515 C 0.16169 0.73674 0.78954
 C3516 C 0.17885 0.74350 0.79787
 C3517 C 0.17792 0.75137 0.81653
 C3518 C 0.16018 0.75296 0.82639
 H3519 H 0.07885 0.78455 0.88916
 H3520 H 0.11080 0.77903 0.87447
 H3521 H 0.08358 0.75253 0.82547
 H3522 H 0.05195 0.75800 0.84011
 H3523 H 0.13077 0.77165 0.84544
 H3524 H 0.11242 0.73913 0.82243
 H3525 H 0.13098 0.73314 0.79254
 H3526 H 0.16186 0.73047 0.77526
 H3527 H 0.19086 0.75657 0.82346
 H3528 H 0.16011 0.75895 0.84077
 C3529 C 0.55469 0.25544 0.34001
 C3530 C 0.57198 0.25183 0.33000
 C3531 C 0.58978 0.25803 0.33731
 C3532 C 0.58989 0.26776 0.35513
 C3533 C 0.57255 0.27144 0.36510
 C3534 C 0.55479 0.26531 0.35765
 C3535 C 0.60767 0.25374 0.32598
 C3536 C 0.62484 0.26220 0.32889
 C3537 C 0.64242 0.25812 0.31710
 C3538 C 0.66060 0.26167 0.32516
 C3539 C 0.67756 0.25889 0.31434
 C3540 C 0.67674 0.25268 0.29506
 C3541 C 0.65853 0.24903 0.28699
 C3542 C 0.64154 0.25176 0.29786
 H3543 H 0.54119 0.25070 0.33383
 H3544 H 0.57143 0.24427 0.31638
 H3545 H 0.60321 0.27231 0.36170
 H3546 H 0.57306 0.27876 0.37884
 H3547 H 0.60642 0.24327 0.31457
 H3548 H 0.62643 0.27249 0.34038
 H3549 H 0.66168 0.26671 0.33989
 H3550 H 0.69131 0.26192 0.32104
 H3551 H 0.65734 0.24439 0.27215
 H3552 H 0.62781 0.24943 0.29090
 C3553 C 0.57953 0.72178 0.13596
 C3554 C 0.59723 0.72554 0.14470
 C3555 C 0.59795 0.73533 0.16235
 C3556 C 0.58045 0.74124 0.17116
 C3557 C 0.56274 0.73750 0.16238
 C3558 C 0.56209 0.72767 0.14474
 C3559 C 0.61715 0.73823 0.17130
 C3560 C 0.62058 0.75055 0.18571
 C3561 C 0.63981 0.75233 0.19480
 C3562 C 0.64079 0.75798 0.21419
 C3563 C 0.65862 0.75886 0.22352
 C3564 C 0.67587 0.75426 0.21355
 C3565 C 0.67492 0.74940 0.19389
 C3566 C 0.65712 0.74851 0.18460
 H3567 H 0.57949 0.71435 0.12225
 H3568 H 0.61045 0.72076 0.13762
 H3569 H 0.58018 0.74829 0.18502
 H3570 H 0.54949 0.74190 0.16964
 H3571 H 0.62893 0.72952 0.16574
 H3572 H 0.60895 0.75914 0.19171
 H3573 H 0.62767 0.76125 0.22228
 H3574 H 0.65882 0.76281 0.23862
 H3575 H 0.68793 0.74608 0.18566
 H3576 H 0.65704 0.74490 0.16942
 C3577 C 0.08464 0.22814 0.63251
 C3578 C 0.10289 0.23218 0.64000
 C3579 C 0.10471 0.24256 0.65721
 C3580 C 0.08776 0.24877 0.66687
 C3581 C 0.06952 0.24474 0.65936
 C3582 C 0.06775 0.23431 0.64215
 C3583 C 0.12441 0.24562 0.66500
 C3584 C 0.12871 0.25878 0.67839
 C3585 C 0.14820 0.26046 0.68699
 C3586 C 0.14972 0.26750 0.70587
 C3587 C 0.16766 0.26809 0.71500
 C3588 C 0.18454 0.26184 0.70534
 C3589 C 0.18314 0.25570 0.68608
 C3590 C 0.16520 0.25505 0.67699
 H3591 H 0.08376 0.22027 0.61910
 H3592 H 0.11566 0.22713 0.63231
 H3593 H 0.08837 0.25624 0.68048
 H3594 H 0.05673 0.24938 0.66728
 H3595 H 0.13573 0.23627 0.65956
 H3596 H 0.11751 0.26809 0.68409
 H3597 H 0.13689 0.27200 0.71380
 H3598 H 0.16820 0.27307 0.72977
 H3599 H 0.19587 0.25101 0.67810
 H3600 H 0.16474 0.25028 0.66216
 C3601 C 0.94822 0.25233 0.66465
 C3602 C 0.93059 0.24837 0.67399
 C3603 C 0.91294 0.25242 0.66496
 C3604 C 0.91336 0.26025 0.64612
 C3605 C 0.93101 0.26429 0.63683
 C3606 C 0.94862 0.26040 0.64600
 C3607 C 0.89462 0.24797 0.67560
 C3608 C 0.87736 0.25555 0.67107
 C3609 C 0.85910 0.25174 0.68198
 C3610 C 0.84151 0.25568 0.67285
 C3611 C 0.82391 0.25370 0.68281
 C3612 C 0.82344 0.24786 0.70230
 C3613 C 0.84103 0.24349 0.71139
 C3614 C 0.85868 0.24546 0.70138
 H3615 H 0.96158 0.24926 0.67211
 H3616 H 0.93075 0.24226 0.68841
 H3617 H 0.90022 0.26298 0.63824
 H3618 H 0.93090 0.27010 0.62228
 H3619 H 0.89564 0.23833 0.68786
 H3620 H 0.87628 0.26519 0.65883
 H3621 H 0.84137 0.26058 0.65796
 H3622 H 0.81069 0.25718 0.67529
 H3623 H 0.84122 0.23908 0.72642
 H3624 H 0.87189 0.24272 0.70915
 C3625 C 0.44309 0.74592 0.16327
 C3626 C 0.42539 0.74284 0.17278
 C3627 C 0.40794 0.74855 0.16428
 C3628 C 0.40855 0.75697 0.14571
 C3629 C 0.42628 0.76010 0.13623
 C3630 C 0.44374 0.75471 0.14494
 C3631 C 0.38958 0.74532 0.17522
 C3632 C 0.37319 0.75510 0.17185
 C3633 C 0.35508 0.75268 0.18336
 C3634 C 0.33759 0.75870 0.17520
 C3635 C 0.32028 0.75780 0.18582
 C3636 C 0.32006 0.75101 0.20500
 C3637 C 0.33755 0.74475 0.21314
 C3638 C 0.35488 0.74563 0.20248
 H3639 H 0.45632 0.74175 0.17041
 H3640 H 0.42536 0.73622 0.18699
 H3641 H 0.39546 0.76093 0.13827
 H3642 H 0.42632 0.76651 0.12193
 H3643 H 0.38992 0.73485 0.18681
 H3644 H 0.37281 0.76556 0.16026
 H3645 H 0.33733 0.76428 0.16056
 H3646 H 0.30711 0.76276 0.17905
 H3647 H 0.33794 0.73955 0.22790
 H3648 H 0.36809 0.74136 0.20956
 C3649 C 0.42739 0.25097 0.37069
 C3650 C 0.40953 0.25453 0.36206
 C3651 C 0.40229 0.24187 0.34822
 C3652 C 0.41279 0.22511 0.34378
 C3653 C 0.43048 0.22141 0.35262
 C3654 C 0.43806 0.23443 0.36595
 C3655 C 0.38369 0.24628 0.33881
 C3656 C 0.38051 0.24200 0.32028
 C3657 C 0.36204 0.24604 0.31045
 C3658 C 0.36225 0.24866 0.29034
 C3659 C 0.34498 0.25119 0.28034
 C3660 C 0.32708 0.25078 0.29023
 C3661 C 0.32688 0.24841 0.31042
 C3662 C 0.34418 0.24609 0.32045
 H3663 H 0.43288 0.26113 0.38107
 H3664 H 0.40156 0.26741 0.36586
 H3665 H 0.40729 0.21482 0.33354
 H3666 H 0.43847 0.20858 0.34872
 H3667 H 0.37291 0.25419 0.34702
 H3668 H 0.39217 0.23591 0.31165
 H3669 H 0.37583 0.24855 0.28232
 H3670 H 0.34564 0.25286 0.26478
 H3671 H 0.31332 0.24798 0.31846
 H3672 H 0.34345 0.24365 0.33589
 C3673 C 0.94592 0.74938 0.84250
 C3674 C 0.92850 0.75254 0.83290
 C3675 C 0.91077 0.74688 0.84130
 C3676 C 0.91083 0.73839 0.85984
 C3677 C 0.92826 0.73517 0.86939
 C3678 C 0.94598 0.74053 0.86079
 C3679 C 0.89269 0.75036 0.83040
 C3680 C 0.87607 0.74091 0.83392
 C3681 C 0.85806 0.74395 0.82284
 C3682 C 0.84038 0.73850 0.83144
 C3683 C 0.82309 0.74018 0.82135
 C3684 C 0.82305 0.74719 0.80224
 C3685 C 0.84074 0.75278 0.79363
 C3686 C 0.85808 0.75115 0.80378
 H3687 H 0.95938 0.75360 0.83549
 H3688 H 0.92890 0.75923 0.81872
 H3689 H 0.89752 0.73449 0.86726
 H3690 H 0.92785 0.72875 0.88369
 H3691 H 0.89339 0.76086 0.81883
 H3692 H 0.87533 0.73039 0.84545
 H3693 H 0.83996 0.73282 0.84605
 H3694 H 0.80977 0.73569 0.82847
 H3695 H 0.84127 0.75812 0.77890
 H3696 H 0.87142 0.75500 0.79640
   
