data_POSCAR
  _audit_creation_date              2014-09-24
  _audit_creation_method            'ToBaCCo'
  _symmetry_space_group_name_H-M    'P1'
  _symmetry_Int_Tables_number       1
  _symmetry_cell_setting            triclinic
  loop_
  _symmetry_equiv_pos_as_xyz
 x,y,z
_cell_length_a 59.4887
_cell_length_b 58.0662
_cell_length_c 59.3295
_cell_angle_alpha 87.138700
_cell_angle_beta 87.396200
_cell_angle_gamma 88.945500
loop_
  _atom_site_label
  _atom_site_type_symbol
  _atom_site_fract_x
  _atom_site_fract_y
  _atom_site_fract_z
C1 C 0.78794 0.63169 0.99955
 C2 C 0.79142 0.61498 0.98057
 C3 C 0.77355 0.60145 0.97746
 C4 C 0.75325 0.60608 0.99378
 C5 C 0.76654 0.64551 0.99328
 C6 C 0.74817 0.63222 0.99039
 C7 C 0.78060 0.61663 1.02037
 C8 C 0.76255 0.60328 1.01753
 H9 H 0.80645 0.61498 0.96953
 H10 H 0.73901 0.59448 0.99176
 H11 H 0.76629 0.66390 0.98979
 H12 H 0.78821 0.61773 1.03654
 C13 C 0.80067 0.35358 0.47704
 C14 C 0.80546 0.36843 0.49684
 C15 C 0.78778 0.38182 0.50401
 C16 C 0.76663 0.37932 0.49041
 C17 C 0.77975 0.33983 0.48538
 C18 C 0.76198 0.35325 0.49249
 C19 C 0.79203 0.37056 0.45877
 C20 C 0.77450 0.38432 0.46554
 H21 H 0.82154 0.36795 0.50472
 H22 H 0.75228 0.39022 0.49636
 H23 H 0.77896 0.32126 0.48641
 H24 H 0.79890 0.37084 0.44155
 C25 C 0.28966 -0.13473 -0.02345
 C26 C 0.29393 -0.12159 -0.00396
 C27 C 0.27506 -0.10830 0.00423
 C28 C 0.25511 -0.11077 -0.00909
 C29 C 0.27010 -0.14871 -0.01666
 C30 C 0.25092 -0.13572 -0.00837
 C31 C 0.28116 -0.11804 -0.04032
 C32 C 0.26215 -0.10441 -0.03267
 H33 H 0.31044 -0.12105 0.00298
 H34 H 0.24080 -0.10071 -0.00226
 H35 H 0.26863 -0.16647 -0.02100
 H36 H 0.28658 -0.11858 -0.05795
 C37 C 0.29951 0.14381 0.50085
 C38 C 0.30204 0.12524 0.48332
 C39 C 0.28306 0.11307 0.48088
 C40 C 0.26310 0.12046 0.49634
 C41 C 0.27941 0.15865 0.49283
 C42 C 0.26032 0.14646 0.49045
 C43 C 0.29077 0.13109 0.52254
 C44 C 0.27185 0.11868 0.52044
 H45 H 0.31658 0.12392 0.47177
 H46 H 0.24788 0.11024 0.49410
 H47 H 0.28063 0.17676 0.48778
 H48 H 0.29867 0.13272 0.53845
 C49 C 0.12782 0.51432 0.29549
 C50 C 0.11087 0.49487 0.29990
 C51 C 0.09908 0.49008 0.28172
 C52 C 0.10505 0.50532 0.26054
 C53 C 0.14259 0.50656 0.27504
 C54 C 0.13063 0.50174 0.25674
 C55 C 0.11415 0.53483 0.28592
 C56 C 0.10213 0.53033 0.26775
 H57 H 0.11063 0.48371 0.31510
 H58 H 0.09490 0.50147 0.24601
 H59 H 0.16049 0.50337 0.27531
 H60 H 0.11524 0.55193 0.29227
 C61 C -0.13889 -0.01827 0.27768
 C62 C -0.12093 -0.00056 0.28174
 C63 C -0.10692 0.00437 0.26350
 C64 C -0.11223 -0.00871 0.24250
 C65 C -0.15105 -0.00777 0.25705
 C66 C -0.13718 -0.00296 0.23848
 C67 C -0.12645 -0.03805 0.26931
 C68 C -0.11171 -0.03312 0.24996
 H69 H -0.11937 0.00732 0.29776
 H70 H -0.10048 -0.00408 0.22806
 H71 H -0.16872 -0.00330 0.25716
 H72 H -0.12979 -0.05540 0.27601
 C73 C 0.34835 0.47179 0.79502
 C74 C 0.36499 0.49088 0.79872
 C75 C 0.37727 0.49804 0.77990
 C76 C 0.37181 0.48544 0.75871
 C77 C 0.33403 0.48166 0.77566
 C78 C 0.34621 0.48862 0.75653
 C79 C 0.36267 0.45268 0.78424
 C80 C 0.37504 0.45965 0.76531
 H81 H 0.36648 0.49851 0.81487
 H82 H 0.38199 0.49118 0.74346
 H83 H 0.31596 0.48325 0.77674
 H84 H 0.36311 0.43516 0.79139
 C85 C 0.63216 1.00102 0.78592
 C86 C 0.61531 0.98143 0.79041
 C87 C 0.60309 0.97717 0.77235
 C88 C 0.60877 0.99294 0.75129
 C89 C 0.64647 0.99336 0.76517
 C90 C 0.63431 0.98928 0.74676
 C91 C 0.61894 1.02064 0.77773
 C92 C 0.60624 1.01667 0.75840
 H93 H 0.61542 0.96952 0.80503
 H94 H 0.59800 0.98892 0.73740
 H95 H 0.66444 0.99035 0.76565
 H96 H 0.62106 1.03758 0.78408
 C97 C -0.01934 0.28769 -0.13840
 C98 C -0.00426 0.29407 -0.11951
 C99 C 0.00077 0.27631 -0.10469
 C100 C -0.00981 0.25338 -0.11007
 C101 C -0.00678 0.26737 -0.14941
 C102 C -0.00191 0.24944 -0.13460
 C103 C -0.03997 0.27661 -0.12615
 C104 C -0.03515 0.25872 -0.11135
 H105 H 0.00289 0.31103 -0.11880
 H106 H -0.00565 0.23886 -0.09802
 H107 H -0.00316 0.26623 -0.16730
 H108 H -0.05699 0.28260 -0.12907
 C109 C 0.50403 0.29221 0.13788
 C110 C 0.48558 0.30029 0.12178
 C111 C 0.47861 0.28378 0.10834
 C112 C 0.49183 0.26096 0.11102
 C113 C 0.49478 0.27021 0.15020
 C114 C 0.48819 0.25394 0.13617
 C115 C 0.52305 0.28369 0.12189
 C116 C 0.51692 0.26711 0.10803
 H117 H 0.47765 0.31719 0.12168
 H118 H 0.48663 0.24782 0.09945
 H119 H 0.49216 0.26849 0.16839
 H120 H 0.54023 0.28934 0.12249
 C121 C 1.00895 0.80021 0.62735
 C122 C 0.99129 0.80774 0.61237
 C123 C 0.98355 0.79032 0.59841
 C124 C 0.99599 0.76845 0.60181
 C125 C 1.00007 0.77972 0.64008
 C126 C 0.99243 0.76215 0.62597
 C127 C 1.02686 0.79103 0.61273
 C128 C 1.02009 0.77342 0.59856
 H129 H 0.98475 0.82527 0.61189
 H130 H 0.99103 0.75516 0.59063
 H131 H 0.99886 0.77776 0.65824
 H132 H 1.04438 0.79434 0.61541
 C133 C 0.47520 0.78076 0.36012
 C134 C 0.49528 0.78723 0.37357
 C135 C 0.50364 0.76982 0.38707
 C136 C 0.49109 0.74708 0.38577
 C137 C 0.48366 0.75975 0.34706
 C138 C 0.49228 0.74206 0.36038
 C139 C 0.45806 0.77060 0.37774
 C140 C 0.46621 0.75312 0.39122
 H141 H 0.50290 0.80404 0.37150
 H142 H 0.49767 0.73334 0.39737
 H143 H 0.48182 0.75836 0.32919
 H144 H 0.44051 0.77597 0.37849
 C145 C 0.38493 -0.01012 0.26068
 H146 H 0.38372 0.00547 0.26995
 C147 C 0.39774 -0.02887 0.26874
 H148 H 0.40666 -0.02742 0.28410
 C149 C 0.37443 -0.03092 0.22954
 H150 H 0.36513 -0.03172 0.21439
 C151 C 0.38697 -0.05014 0.23706
 H152 H 0.38689 -0.06569 0.22773
 N153 N 0.37332 -0.01159 0.24160
 C154 C 0.35958 0.05853 0.21510
 H155 H 0.34144 0.05857 0.21434
 C156 C 0.37152 0.07825 0.20797
 H157 H 0.36238 0.09352 0.20206
 C158 C 0.39342 0.03862 0.22391
 H159 H 0.40195 0.02310 0.22992
 C160 C 0.40601 0.05798 0.21702
 H161 H 0.42416 0.05707 0.21771
 Zn162 Zn 0.35363 0.01313 0.23353
 N163 N 0.37058 0.03931 0.22315
 C164 C 0.33245 0.04175 0.26630
 N165 N 0.33592 0.01970 0.25999
 C166 C 0.32919 0.00146 0.27381
 C167 C 0.31921 0.00500 0.29514
 C168 C 0.32227 0.04607 0.28737
 C169 C 0.33900 0.01220 0.18884
 C170 C 0.32793 0.00296 0.17120
 C171 C 0.30895 -0.02321 0.19836
 C172 C 0.32023 -0.01334 0.21550
 N173 N 0.33530 0.00370 0.21046
 H174 H 0.33829 0.05606 0.25546
 H175 H 0.33262 -0.01593 0.26876
 H176 H 0.31463 -0.00972 0.30621
 H177 H 0.32044 0.06369 0.29242
 H178 H 0.35142 0.02533 0.18505
 H179 H 0.33190 0.00919 0.15399
 H180 H 0.29759 -0.03730 0.20259
 H181 H 0.31771 -0.02003 0.23272
 C182 C 0.39505 0.07819 0.20905
 C183 C 0.39849 -0.04943 0.25716
 C184 C 0.31315 -0.01541 0.17582
 C185 C 0.31600 0.02754 0.30228
 C186 C 0.09648 1.04053 0.78294
 H187 H 0.09556 1.02378 0.79177
 C188 C 0.08622 1.05975 0.79263
 H189 H 0.07746 1.05760 0.80897
 C190 C 0.11045 1.06382 0.75169
 H191 H 0.12049 1.06559 0.73612
 C192 C 0.10028 1.08338 0.76060
 H193 H 0.10208 1.09979 0.75127
 N194 N 0.10845 1.04291 0.76291
 C195 C 0.11715 0.97515 0.73535
 H196 H 0.13530 0.97537 0.73307
 C197 C 0.10524 0.95697 0.72760
 H198 H 0.11434 0.94308 0.71950
 C199 C 0.08331 0.99333 0.74835
 H200 H 0.07490 1.00781 0.75605
 C201 C 0.07066 0.97525 0.74098
 H202 H 0.05248 0.97590 0.74301
 Zn203 Zn 0.12498 1.01708 0.75243
 N204 N 0.10613 0.99294 0.74528
 C205 C 0.14037 0.98579 0.78646
 N206 N 0.14388 1.00677 0.77577
 C207 C 0.15966 1.02124 0.78266
 C208 C 0.17298 1.01456 0.80074
 C209 C 0.15308 0.97858 0.80477
 C210 C 0.12998 1.03256 0.70733
 C211 C 0.14102 1.03877 0.68675
 C212 C 0.17640 1.02853 0.70331
 C213 C 0.16466 1.02281 0.72372
 N214 N 0.14188 1.02525 0.72544
 H215 H 0.12739 0.97478 0.78111
 H216 H 0.16174 1.03805 0.77419
 H217 H 0.18541 1.02627 0.80612
 H218 H 0.15007 0.96181 0.81308
 H219 H 0.11182 1.03387 0.70903
 H220 H 0.13115 1.04535 0.67289
 H221 H 0.19450 1.02617 0.70226
 H222 H 0.17377 1.01617 0.73805
 C223 C 0.08169 0.95701 0.73009
 C224 C 0.08831 1.08164 0.78156
 C225 C 0.16459 1.03684 0.68448
 C226 C 0.16959 0.99305 0.81212
 C227 C 0.60859 0.54176 0.28849
 H228 H 0.62087 0.53443 0.29974
 C229 C 0.59547 0.56060 0.29511
 H230 H 0.59789 0.56750 0.31143
 C231 C 0.59145 0.54258 0.25318
 H232 H 0.59031 0.53571 0.23666
 C233 C 0.57804 0.56155 0.25910
 H234 H 0.56628 0.56890 0.24721
 N235 N 0.60651 0.53320 0.26777
 C236 C 0.62270 0.46315 0.24781
 H237 H 0.64061 0.46288 0.24998
 C238 C 0.61232 0.44320 0.24172
 H239 H 0.62269 0.42817 0.23825
 C240 C 0.58763 0.48297 0.25020
 H241 H 0.57796 0.49832 0.25393
 C242 C 0.57649 0.46327 0.24434
 H243 H 0.55834 0.46385 0.24360
 Zn244 Zn 0.62656 0.50912 0.25866
 N245 N 0.61043 0.48275 0.25128
 C246 C 0.63379 0.48768 0.30041
 N247 N 0.64445 0.49993 0.28311
 C248 C 0.66652 0.50540 0.28382
 C249 C 0.67870 0.49864 0.30275
 C250 C 0.64531 0.48047 0.31950
 C251 C 0.64204 0.54222 0.22504
 C252 C 0.65252 0.54984 0.20456
 C253 C 0.66969 0.51211 0.20139
 C254 C 0.65878 0.50517 0.22191
 N255 N 0.64463 0.51996 0.23295
 H256 H 0.61623 0.48354 0.29934
 H257 H 0.67457 0.51525 0.26985
 H258 H 0.69614 0.50351 0.30324
 H259 H 0.63651 0.47038 0.33284
 H260 H 0.63149 0.55410 0.23432
 H261 H 0.64984 0.56749 0.19836
 H262 H 0.68012 0.49978 0.19243
 H263 H 0.66125 0.48778 0.22862
 C264 C 0.58890 0.44309 0.23967
 C265 C 0.58011 0.57091 0.28026
 C266 C 0.66610 0.53453 0.19216
 C267 C 0.66806 0.48604 0.32098
 C268 C 0.89399 0.50154 0.76045
 H269 H 0.89269 0.51867 0.76684
 C270 C 0.90590 0.48420 0.77217
 H271 H 0.91410 0.48824 0.78738
 C272 C 0.88429 0.47540 0.73319
 H273 H 0.87522 0.47178 0.71845
 C274 C 0.89599 0.45755 0.74439
 H275 H 0.89581 0.44041 0.73801
 N276 N 0.88346 0.49689 0.74136
 C277 C 0.87138 0.56410 0.70753
 H278 H 0.85351 0.56298 0.70518
 C279 C 0.88286 0.58403 0.70021
 H280 H 0.87365 0.59829 0.69234
 C281 C 0.90491 0.54695 0.72116
 H282 H 0.91349 0.53237 0.72911
 C283 C 0.91705 0.56661 0.71416
 H284 H 0.93494 0.56692 0.71673
 Zn285 Zn 0.86504 0.52044 0.72835
 N286 N 0.88241 0.54622 0.71808
 C287 C 0.84635 0.55000 0.76046
 N288 N 0.84436 0.52891 0.75180
 C289 C 0.83126 0.51239 0.76254
 C290 C 0.82046 0.51643 0.78346
 C291 C 0.83611 0.55462 0.78136
 C292 C 0.86548 0.50398 0.68569
 C293 C 0.85780 0.49302 0.66725
 C294 C 0.82010 0.49456 0.68417
 C295 C 0.82860 0.50535 0.70254
 N296 N 0.85107 0.50919 0.70319
 H297 H 0.85732 0.56267 0.75211
 H298 H 0.83052 0.49553 0.75567
 H299 H 0.81118 0.50273 0.79253
 H300 H 0.83898 0.57097 0.78870
 H301 H 0.88321 0.50748 0.68658
 H302 H 0.86969 0.48823 0.65385
 H303 H 0.80236 0.49069 0.68416
 H304 H 0.81740 0.50993 0.71652
 C305 C 0.90598 0.58554 0.70365
 C306 C 0.90676 0.46176 0.76432
 C307 C 0.83497 0.48767 0.66661
 C308 C 0.82365 0.53745 0.79341
 C309 C 0.24870 0.38827 0.00772
 H310 H 0.25723 0.38816 0.02345
 C311 C 0.25715 0.40136 -0.01104
 H312 H 0.27197 0.41162 -0.00947
 C313 C 0.21943 0.37450 -0.01354
 H314 H 0.20489 0.36380 -0.01457
 C315 C 0.22731 0.38735 -0.03271
 H316 H 0.21885 0.38612 -0.04838
 N317 N 0.23050 0.37470 0.00602
 C318 C 0.20405 0.35949 0.07513
 H319 H 0.20197 0.34108 0.07504
 C320 C 0.19635 0.37119 0.09402
 H321 H 0.18915 0.36148 0.10857
 C322 C 0.21463 0.39462 0.05593
 H323 H 0.22119 0.40385 0.04091
 C324 C 0.20726 0.40701 0.07457
 H325 H 0.20832 0.42564 0.07363
 Zn326 Zn 0.22193 0.35413 0.03080
 N327 N 0.21302 0.37122 0.05652
 C328 C 0.24681 0.32044 0.05664
 N329 N 0.24708 0.33441 0.03752
 C330 C 0.26586 0.33577 0.02355
 C331 C 0.28587 0.32478 0.02970
 C332 C 0.26646 0.30903 0.06341
 C333 C 0.17628 0.34207 0.03061
 C334 C 0.15759 0.33130 0.02283
 C335 C 0.18248 0.30892 -0.00119
 C336 C 0.20079 0.31997 0.00729
 N337 N 0.19735 0.33649 0.02260
 H338 H 0.23162 0.31866 0.06713
 H339 H 0.26567 0.34599 0.00787
 H340 H 0.30089 0.32745 0.01895
 H341 H 0.26606 0.29865 0.07910
 H342 H 0.17379 0.35556 0.04240
 H343 H 0.14099 0.33621 0.02934
 H344 H 0.18551 0.29663 -0.01416
 H345 H 0.21770 0.31608 0.00097
 C346 C 0.19780 0.39528 0.09385
 C347 C 0.24674 0.40057 -0.03175
 C348 C 0.16045 0.31492 0.00624
 C349 C 0.28658 0.31186 0.05029
 C350 C 0.77055 0.08564 1.03093
 H351 H 0.77784 0.08409 1.01402
 C352 C 0.78023 0.07366 1.04918
 H353 H 0.79483 0.06264 1.04620
 C354 C 0.74293 0.10231 1.05543
 H355 H 0.72883 0.11399 1.05797
 C356 C 0.75189 0.09045 1.07409
 H357 H 0.74444 0.09303 1.09079
 N358 N 0.75223 0.09962 1.03433
 C359 C 0.72035 0.10901 0.96975
 H360 H 0.71959 0.12767 0.96877
 C361 C 0.71218 0.09673 0.95239
 H362 H 0.70490 0.10604 0.93815
 C363 C 0.73067 0.07431 0.98971
 H364 H 0.73793 0.06572 1.00430
 C365 C 0.72244 0.06127 0.97274
 H366 H 0.72358 0.04263 0.97428
 Zn367 Zn 0.74134 0.11698 1.00907
 N368 N 0.72980 0.09776 0.98769
 C369 C 0.77292 0.12976 0.97382
 N370 N 0.76588 0.13378 0.99542
 C371 C 0.77676 0.14891 1.00774
 C372 C 0.79510 0.16121 0.99810
 C373 C 0.79104 0.14171 0.96354
 C374 C 0.69840 0.12721 1.02737
 C375 C 0.67987 0.14086 1.03377
 C376 C 0.70031 0.17457 1.01980
 C377 C 0.71858 0.16026 1.01390
 N378 N 0.71740 0.13705 1.01798
 H379 H 0.76470 0.11708 0.96452
 H380 H 0.77109 0.15148 1.02503
 H381 H 0.80332 0.17349 1.00798
 H382 H 0.79640 0.13815 0.94635
 H383 H 0.69774 0.10865 1.03002
 H384 H 0.66524 0.13260 1.04183
 H385 H 0.70151 0.19295 1.01605
 H386 H 0.73353 0.16772 1.00575
 C387 C 0.71339 0.07256 0.95362
 C388 C 0.77086 0.07602 1.07110
 C389 C 0.68060 0.16493 1.03000
 C390 C 0.80230 0.15780 0.97562
 C391 C 0.27555 0.58564 0.54123
 H392 H 0.28365 0.58519 0.52455
 C393 C 0.28485 0.57318 0.55937
 H394 H 0.29994 0.56283 0.55648
 C395 C 0.24648 0.60036 0.56537
 H396 H 0.23200 0.61157 0.56783
 C397 C 0.25512 0.58805 0.58395
 H398 H 0.24707 0.58986 0.60052
 N399 N 0.25678 0.59897 0.54452
 C400 C 0.22706 0.61267 0.47953
 H401 H 0.22539 0.63120 0.48028
 C402 C 0.21853 0.60165 0.46153
 H403 H 0.21037 0.61181 0.44835
 C404 C 0.23979 0.57695 0.49589
 H405 H 0.24785 0.56743 0.50949
 C406 C 0.23176 0.56521 0.47792
 H407 H 0.23366 0.54663 0.47777
 Zn408 Zn 0.24732 0.61786 0.51971
 N409 N 0.23740 0.60029 0.49625
 C410 C 0.28109 0.63305 0.48765
 N411 N 0.27238 0.63542 0.50901
 C412 C 0.28212 0.64930 0.52345
 C413 C 0.30122 0.66184 0.51641
 C414 C 0.30025 0.64509 0.48000
 C415 C 0.20332 0.62741 0.53593
 C416 C 0.18441 0.64099 0.54130
 C417 C 0.20587 0.67490 0.53007
 C418 C 0.22442 0.66067 0.52512
 N419 N 0.22290 0.63739 0.52828
 H420 H 0.27337 0.62161 0.47657
 H421 H 0.27507 0.65054 0.54049
 H422 H 0.30886 0.67274 0.52812
 H423 H 0.30686 0.64312 0.46288
 H424 H 0.20242 0.60881 0.53779
 H425 H 0.16917 0.63267 0.54783
 H426 H 0.20737 0.69335 0.52697
 H427 H 0.23985 0.66826 0.51824
 C428 C 0.22081 0.57764 0.46059
 C429 C 0.27473 0.57450 0.58112
 C430 C 0.18550 0.66512 0.53836
 C431 C 0.31056 0.65969 0.49445
 C432 C 0.76427 0.89341 0.49282
 H433 H 0.77102 0.89135 0.50944
 C434 C 0.77595 0.90625 0.47569
 H435 H 0.79144 0.91447 0.47945
 C436 C 0.73622 0.88456 0.46765
 H437 H 0.72103 0.87561 0.46439
 C438 C 0.74739 0.89712 0.45002
 H439 H 0.74063 0.89753 0.43337
 N440 N 0.74488 0.88274 0.48849
 C441 C 0.70631 0.86745 0.55138
 H442 H 0.70225 0.84970 0.54890
 C443 C 0.69704 0.87843 0.57008
 H444 H 0.68610 0.86888 0.58212
 C445 C 0.72545 0.90140 0.53858
 H446 H 0.73623 0.91042 0.52610
 C447 C 0.71663 0.91304 0.55715
 H448 H 0.72072 0.93096 0.55876
 Zn449 Zn 0.73153 0.86248 0.51106
 N450 N 0.72037 0.87893 0.53618
 C451 C 0.75573 0.83483 0.54253
 N452 N 0.75413 0.84105 0.52026
 C453 C 0.77094 0.83591 0.50490
 C454 C 0.79111 0.82589 0.51204
 C455 C 0.77545 0.82454 0.55034
 C456 C 0.68785 0.86115 0.49780
 C457 C 0.66905 0.85295 0.48787
 C458 C 0.68968 0.81767 0.48052
 C459 C 0.70817 0.82652 0.49088
 N460 N 0.70694 0.84804 0.49898
 H461 H 0.74233 0.83907 0.55453
 H462 H 0.76937 0.84123 0.48730
 H463 H 0.80492 0.82364 0.49978
 H464 H 0.77672 0.82061 0.56828
 H465 H 0.68739 0.87823 0.50432
 H466 H 0.65402 0.86373 0.48730
 H467 H 0.69110 0.80084 0.47347
 H468 H 0.72364 0.81652 0.49190
 C469 C 0.70217 0.90153 0.57316
 C470 C 0.76773 0.90791 0.45382
 C471 C 0.66990 0.83115 0.47860
 C472 C 0.79390 0.82106 0.53519
 C473 C 0.00356 0.25012 0.38595
 H474 H 0.01986 0.25795 0.38667
 C475 C -0.01482 0.25868 0.39860
 H476 H -0.01240 0.27289 0.40934
 C477 C -0.01933 0.22229 0.37077
 H478 H -0.02119 0.20854 0.35944
 C479 C -0.03818 0.23037 0.38307
 H480 H -0.05434 0.22266 0.38102
 N481 N 0.00103 0.23222 0.37241
 C482 C 0.06915 0.20441 0.36123
 H483 H 0.07011 0.20440 0.34297
 C484 C 0.08772 0.19719 0.37348
 H485 H 0.10289 0.19142 0.36453
 C486 C 0.04808 0.21182 0.39501
 H487 H 0.03258 0.21743 0.40337
 C488 C 0.06619 0.20459 0.40794
 H489 H 0.06453 0.20510 0.42616
 Zn490 Zn 0.02624 0.22324 0.35406
 N491 N 0.05003 0.21208 0.37206
 C492 C 0.05630 0.25834 0.33795
 N493 N 0.03527 0.24990 0.33650
 C494 C 0.01952 0.26152 0.32424
 C495 C 0.02462 0.28264 0.31300
 C496 C 0.06216 0.27926 0.32686
 C497 C 0.01273 0.17891 0.34643
 C498 C 0.00537 0.16071 0.33436
 C499 C 0.01027 0.18450 0.29996
 C500 C 0.01756 0.20231 0.31275
 N501 N 0.01821 0.19934 0.33560
 H502 H 0.06840 0.24933 0.34831
 H503 H 0.00279 0.25464 0.32371
 H504 H 0.01182 0.29180 0.30354
 H505 H 0.07878 0.28599 0.32879
 H506 H 0.01353 0.17700 0.36461
 H507 H 0.00026 0.14493 0.34350
 H508 H 0.00963 0.18720 0.28181
 H509 H 0.02240 0.21855 0.30442
 C510 C 0.08646 0.19749 0.39715
 C511 C -0.03611 0.24895 0.39708
 C512 C 0.00381 0.16343 0.31081
 C513 C 0.04615 0.29184 0.31441
 C514 C 1.03270 0.78774 0.07735
 H515 H 1.01688 0.79715 0.07878
 C516 C 1.05140 0.79830 0.06640
 H517 H 1.04967 0.81585 0.05959
 C518 C 1.05440 0.75419 0.08610
 H519 H 1.05588 0.73727 0.09422
 C520 C 1.07336 0.76388 0.07494
 H521 H 1.08880 0.75376 0.07413
 N522 N 1.03449 0.76608 0.08700
 C523 C 0.97614 0.72437 0.09011
 H524 H 0.98025 0.71463 0.10539
 C525 C 0.95899 0.71676 0.07729
 H526 H 0.95029 0.70111 0.08280
 C527 C 0.98132 0.75729 0.06529
 H528 H 0.98991 0.77323 0.06089
 C529 C 0.96395 0.75041 0.05207
 H530 H 0.95942 0.76099 0.03737
 Zn531 Zn 1.00891 0.75395 0.10362
 N532 N 0.98704 0.74423 0.08393
 C533 C 0.97470 0.78502 0.11761
 N534 N 0.99625 0.77786 0.12094
 C535 C 1.00934 0.78864 0.13526
 C536 C 1.00085 0.80760 0.14678
 C537 C 0.96569 0.80406 0.12848
 C538 C 1.02551 0.70905 0.11210
 C539 C 1.03135 0.68913 0.12472
 C540 C 1.01929 0.70805 0.15863
 C541 C 1.01397 0.72780 0.14532
 N542 N 1.01730 0.72801 0.12248
 H543 H 0.96455 0.77624 0.10619
 H544 H 1.02650 0.78275 0.13741
 H545 H 1.01153 0.81625 0.15788
 H546 H 0.94858 0.80968 0.12547
 H547 H 1.02738 0.70937 0.09386
 H548 H 1.03843 0.67459 0.11597
 H549 H 1.01607 0.70813 0.17673
 H550 H 1.00682 0.74278 0.15324
 C551 C 0.95264 0.72984 0.05806
 C552 C 1.07219 0.78639 0.06515
 C553 C 1.02818 0.68832 0.14836
 C554 C 0.97887 0.81569 0.14313
 C555 C 0.54451 0.27440 0.57955
 H556 H 0.53005 0.27031 0.57024
 C557 C 0.56370 0.28319 0.56795
 H558 H 0.56380 0.28576 0.54974
 C559 C 0.56231 0.27529 0.61442
 H560 H 0.56161 0.27203 0.63255
 C561 C 0.58188 0.28396 0.60349
 H562 H 0.59613 0.28764 0.61338
 N563 N 0.54408 0.27083 0.60240
 C564 C 0.49093 0.22678 0.59815
 H565 H 0.49939 0.21390 0.60859
 C566 C 0.47345 0.22020 0.58510
 H567 H 0.46873 0.20225 0.58572
 C568 C 0.48573 0.26590 0.58592
 H569 H 0.49039 0.28376 0.58671
 C570 C 0.46806 0.26007 0.57263
 H571 H 0.45944 0.27351 0.56291
 Zn572 Zn 0.51846 0.25837 0.61843
 N573 N 0.49671 0.24931 0.59837
 C574 C 0.48353 0.27540 0.64600
 N575 N 0.50434 0.28054 0.63694
 C576 C 0.51402 0.30103 0.64038
 C577 C 0.50281 0.31716 0.65377
 C578 C 0.47166 0.29107 0.65928
 C579 C 0.54079 0.21590 0.62624
 C580 C 0.54772 0.19613 0.63860
 C581 C 0.52867 0.21089 0.67182
 C582 C 0.52215 0.23040 0.65884
 N583 N 0.52801 0.23240 0.63641
 H584 H 0.47608 0.25912 0.64270
 H585 H 0.53044 0.30495 0.63280
 H586 H 0.51101 0.33317 0.65666
 H587 H 0.45493 0.28673 0.66588
 H588 H 0.54543 0.21805 0.60843
 H589 H 0.55797 0.18326 0.63019
 H590 H 0.52332 0.20940 0.68951
 H591 H 0.51219 0.24378 0.66669
 C592 C 0.46160 0.23695 0.57226
 C593 C 0.58273 0.28807 0.57994
 C594 C 0.54153 0.19334 0.66171
 C595 C 0.48129 0.31228 0.66343
 C596 C 0.49173 0.75408 0.89583
 H597 H 0.50789 0.76233 0.89367
 C598 C 0.47436 0.76425 0.90868
 H599 H 0.47742 0.78017 0.91672
 C600 C 0.46793 0.72372 0.88727
 H601 H 0.46522 0.70835 0.87831
 C602 C 0.45011 0.73328 0.89998
 H603 H 0.43388 0.72507 0.90065
 N604 N 0.48821 0.73425 0.88534
 C605 C 0.55375 0.70301 0.86938
 H606 H 0.55202 0.70059 0.85159
 C607 C 0.57286 0.69456 0.88002
 H608 H 0.58594 0.68584 0.87024
 C609 C 0.53864 0.71718 0.90376
 H610 H 0.52507 0.72560 0.91304
 C611 C 0.55760 0.70918 0.91504
 H612 H 0.55846 0.71154 0.93297
 Zn613 Zn 0.51140 0.72356 0.86541
 N614 N 0.53714 0.71408 0.88129
 C615 C 0.53972 0.75656 0.84230
 N616 N 0.51838 0.74851 0.84473
 C617 C 0.50094 0.76001 0.83492
 C618 C 0.50448 0.78104 0.82290
 C619 C 0.54405 0.77735 0.83019
 C620 C 0.49810 0.67828 0.86405
 C621 C 0.49088 0.65823 0.85488
 C622 C 0.49142 0.67822 0.81815
 C623 C 0.49862 0.69801 0.82808
 N624 N 0.50159 0.69769 0.85070
 H625 H 0.55327 0.74747 0.85060
 H626 H 0.48408 0.75340 0.83743
 H627 H 0.49031 0.79039 0.81586
 H628 H 0.56098 0.78398 0.82926
 H629 H 0.50074 0.67852 0.88196
 H630 H 0.48764 0.64319 0.86601
 H631 H 0.48920 0.67869 0.80012
 H632 H 0.50183 0.71357 0.81775
 C633 C 0.57492 0.69755 0.90316
 C634 C 0.45311 0.75401 0.91060
 C635 C 0.48742 0.65797 0.83163
 C636 C 0.52621 0.79017 0.82084
 C637 C 0.45632 -0.18015 0.35974
 C638 C 0.44767 -0.16025 0.34905
 C639 C 0.44842 -0.15761 0.32554
 C640 C 0.45803 -0.17523 0.31266
 C641 C 0.46667 -0.19535 0.32337
 C642 C 0.46573 -0.19818 0.34716
 N643 N 0.43918 -0.13686 0.31545
 N644 N 0.43988 -0.13211 0.29426
 C645 C 0.43003 -0.11111 0.28520
 C646 C 0.43171 -0.10595 0.26189
 C647 C 0.42181 -0.08575 0.25270
 C648 C 0.41000 -0.07038 0.26675
 C649 C 0.40850 -0.07560 0.29015
 C650 C 0.41842 -0.09570 0.29929
 H651 H 0.45569 -0.18151 0.37804
 H652 H 0.44040 -0.14673 0.35915
 H653 H 0.45888 -0.17344 0.29440
 H654 H 0.47422 -0.20828 0.31286
 H655 H 0.44064 -0.11765 0.25084
 H656 H 0.42345 -0.08212 0.23463
 H657 H 0.39916 -0.06443 0.30141
 H658 H 0.41674 -0.09930 0.31736
 C659 C 0.97934 0.31078 0.82321
 C660 C 0.97265 0.33045 0.81047
 C661 C 0.96093 0.34847 0.82079
 C662 C 0.95602 0.34671 0.84416
 C663 C 0.96262 0.32711 0.85690
 C664 C 0.97426 0.30873 0.84668
 N665 N 0.95380 0.36811 0.80721
 N666 N 0.94339 0.38508 0.81589
 C667 C 0.93555 0.40463 0.80265
 C668 C 0.92382 0.42223 0.81361
 C669 C 0.91488 0.44103 0.80121
 C670 C 0.91758 0.44255 0.77751
 C671 C 0.92980 0.42504 0.76656
 C672 C 0.93871 0.40622 0.77901
 H673 H 0.98836 0.29748 0.81435
 H674 H 0.97654 0.33162 0.79244
 H675 H 0.94695 0.36039 0.85259
 H676 H 0.95851 0.32620 0.87489
 H677 H 0.92122 0.42114 0.83182
 H678 H 0.90527 0.45401 0.81014
 H679 H 0.93237 0.42586 0.74835
 H680 H 0.94780 0.39282 0.77017
 C681 C 0.00077 1.20633 0.86728
 C682 C 0.00991 1.18567 0.85946
 C683 C 0.02717 1.18598 0.84261
 C684 C 0.03535 1.20727 0.83371
 C685 C 0.02606 1.22789 0.84133
 C686 C 0.00861 1.22762 0.85808
 N687 N 0.03576 1.16459 0.83439
 N688 N 0.05290 1.16389 0.82080
 C689 C 0.06149 1.14293 0.81173
 C690 C 0.08196 1.14344 0.79923
 C691 C 0.09071 1.12354 0.78964
 C692 C 0.07894 1.10269 0.79211
 C693 C 0.05835 1.10221 0.80478
 C694 C 0.04971 1.12215 0.81458
 H695 H -0.01284 1.20565 0.88003
 H696 H 0.00342 1.16939 0.86640
 H697 H 0.04867 1.20799 0.82067
 H698 H 0.03255 1.24408 0.83413
 H699 H 0.09121 1.15934 0.79698
 H700 H 0.10684 1.12448 0.78046
 H701 H 0.04872 1.08655 0.80681
 H702 H 0.03374 1.12141 0.82406
 C703 C 0.50391 0.70016 0.36554
 C704 C 0.51270 0.67969 0.35720
 C705 C 0.51971 0.67858 0.33453
 C706 C 0.51794 0.69836 0.32009
 C707 C 0.50911 0.71896 0.32841
 C708 C 0.50175 0.72016 0.35130
 N709 N 0.52899 0.65726 0.32694
 N710 N 0.53577 0.65447 0.30660
 C711 C 0.54544 0.63294 0.29989
 C712 C 0.55367 0.63094 0.27758
 C713 C 0.56440 0.61056 0.27097
 C714 C 0.56708 0.59182 0.28664
 C715 C 0.55822 0.59368 0.30886
 C716 C 0.54751 0.61402 0.31543
 H717 H 0.49883 0.69990 0.38317
 H718 H 0.51415 0.66457 0.36853
 H719 H 0.52353 0.69797 0.30250
 H720 H 0.50852 0.73396 0.31689
 H721 H 0.55219 0.64539 0.26545
 H722 H 0.57126 0.60974 0.25380
 H723 H 0.55972 0.57943 0.32121
 H724 H 0.54116 0.61504 0.33275
 C725 C 0.49616 0.32792 0.16091
 C726 C 0.50331 0.34510 0.17446
 C727 C 0.52502 0.34435 0.18245
 C728 C 0.53932 0.32556 0.17760
 C729 C 0.53227 0.30845 0.16384
 C730 C 0.51100 0.31002 0.15425
 N731 N 0.53250 0.36350 0.19425
 N732 N 0.55080 0.36297 0.20457
 C733 C 0.55881 0.38294 0.21474
 C734 C 0.57668 0.38054 0.22923
 C735 C 0.58594 0.39996 0.23801
 C736 C 0.57773 0.42226 0.23207
 C737 C 0.55944 0.42451 0.21785
 C738 C 0.54999 0.40505 0.20937
 H739 H 0.47899 0.32894 0.15573
 H740 H 0.49192 0.35920 0.17858
 H741 H 0.55611 0.32442 0.18393
 H742 H 0.54368 0.29418 0.16043
 H743 H 0.58360 0.36359 0.23354
 H744 H 0.59966 0.39750 0.24931
 H745 H 0.55291 0.44135 0.21258
 H746 H 0.53632 0.40736 0.19800
 C747 C 0.02848 0.83734 0.62780
 C748 C 0.03614 0.85619 0.63862
 C749 C 0.03167 0.85829 0.66167
 C750 C 0.01906 0.84133 0.67394
 C751 C 0.01142 0.82215 0.66317
 C752 C 0.01651 0.81943 0.63986
 N753 N 0.04074 0.87762 0.67195
 N754 N 0.03655 0.88253 0.69240
 C755 C 0.04708 0.90187 0.70147
 C756 C 0.04097 0.90841 0.72336
 C757 C 0.05174 0.92678 0.73265
 C758 C 0.06899 0.93860 0.72019
 C759 C 0.07477 0.93223 0.69814
 C760 C 0.06393 0.91413 0.68884
 H761 H 0.03206 0.83666 0.60977
 H762 H 0.04567 0.86931 0.62894
 H763 H 0.01517 0.84285 0.69181
 H764 H 0.00132 0.81000 0.67331
 H765 H 0.02803 0.89913 0.73329
 H766 H 0.04705 0.93135 0.74972
 H767 H 0.08780 0.94125 0.68807
 H768 H 0.06901 0.90952 0.67188
 C769 C 0.96709 0.72999 0.62081
 C770 C 0.95670 0.70968 0.62879
 C771 C 0.96045 0.70037 0.65042
 C772 C 0.97458 0.71184 0.66434
 C773 C 0.98494 0.73237 0.65646
 C774 C 0.98166 0.74167 0.63436
 N775 N 0.94948 0.67937 0.65763
 N776 N 0.95257 0.66879 0.67656
 C777 C 0.94105 0.64783 0.68297
 C778 C 0.94548 0.63623 0.70357
 C779 C 0.93430 0.61584 0.71024
 C780 C 0.91837 0.60680 0.69639
 C781 C 0.91406 0.61844 0.67567
 C782 C 0.92529 0.63873 0.66899
 H783 H 0.96266 0.73676 0.60429
 H784 H 0.94553 0.70118 0.61805
 H785 H 0.97767 0.70492 0.68122
 H786 H 0.99615 0.74030 0.66752
 H787 H 0.95755 0.64306 0.71451
 H788 H 0.93779 0.60738 0.72641
 H789 H 0.90211 0.61176 0.66451
 H790 H 0.92157 0.64731 0.65294
 C791 C 0.45834 0.22507 0.13181
 C792 C 0.44682 0.20513 0.13899
 C793 C 0.45277 0.19256 0.15858
 C794 C 0.47041 0.20026 0.17113
 C795 C 0.48195 0.22031 0.16398
 C796 C 0.47609 0.23282 0.14415
 N797 N 0.44054 0.17216 0.16522
 N798 N 0.44504 0.15943 0.18257
 C799 C 0.43246 0.13911 0.18881
 C800 C 0.43825 0.12560 0.20792
 C801 C 0.42621 0.10574 0.21446
 C802 C 0.40807 0.09909 0.20197
 C803 C 0.40234 0.11267 0.18273
 C804 C 0.41441 0.13249 0.17620
 H805 H 0.45304 0.23460 0.11677
 H806 H 0.43315 0.19946 0.12929
 H807 H 0.47528 0.19080 0.18638
 H808 H 0.49563 0.22586 0.17375
 H809 H 0.45209 0.13054 0.21780
 H810 H 0.43086 0.09578 0.22951
 H811 H 0.38867 0.10783 0.17259
 H812 H 0.40963 0.14260 0.16130
 C813 C 0.34950 0.45384 -0.16544
 C814 C 0.33956 0.44602 -0.14477
 C815 C 0.31628 0.44765 -0.14088
 C816 C 0.30293 0.45725 -0.15797
 C817 C 0.31283 0.46507 -0.17873
 C818 C 0.33635 0.46341 -0.18285
 N819 N 0.30668 0.43918 -0.11956
 N820 N 0.28566 0.44034 -0.11460
 C821 C 0.27633 0.43137 -0.09333
 C822 C 0.25303 0.43262 -0.08903
 C823 C 0.24335 0.42307 -0.06883
 C824 C 0.25692 0.41215 -0.05255
 C825 C 0.28037 0.41131 -0.05677
 C826 C 0.28999 0.42081 -0.07695
 H827 H 0.36762 0.45240 -0.16791
 H828 H 0.35005 0.43864 -0.13173
 H829 H 0.28485 0.45869 -0.15532
 H830 H 0.30177 0.47237 -0.19116
 H831 H 0.24232 0.44075 -0.10150
 H832 H 0.22527 0.42417 -0.06598
 H833 H 0.29125 0.40268 -0.04475
 H834 H 0.30806 0.41957 -0.07988
 C835 C 0.82319 0.97633 0.30031
 C836 C 0.81113 0.96985 0.32034
 C837 C 0.82235 0.96209 0.33953
 C838 C 0.84596 0.96101 0.33861
 C839 C 0.85806 0.96755 0.31867
 C840 C 0.84694 0.97540 0.29917
 N841 N 0.80941 0.95476 0.35946
 N842 N 0.81859 0.94615 0.37699
 C843 C 0.80566 0.93824 0.39672
 C844 C 0.81671 0.92658 0.41431
 C845 C 0.80447 0.91722 0.43313
 C846 C 0.78087 0.91953 0.43474
 C847 C 0.76990 0.93192 0.41734
 C848 C 0.78216 0.94114 0.39846
 H849 H 0.81357 0.98159 0.28594
 H850 H 0.79291 0.97055 0.32081
 H851 H 0.85506 0.95495 0.35320
 H852 H 0.87626 0.96633 0.31838
 H853 H 0.83482 0.92420 0.41313
 H854 H 0.81345 0.90749 0.44602
 H855 H 0.75179 0.93434 0.41822
 H856 H 0.77325 0.95025 0.38513
 C857 C 0.86785 0.02052 1.20176
 C858 C 0.85958 0.02953 1.18137
 C859 C 0.83770 0.02471 1.17547
 C860 C 0.82426 0.01037 1.19005
 C861 C 0.83253 0.00125 1.21032
 C862 C 0.85434 0.00642 1.21660
 N863 N 0.82935 0.03482 1.15487
 N864 N 0.80888 0.03288 1.14996
 C865 C 0.80000 0.04301 1.12965
 C866 C 0.77676 0.04251 1.12704
 C867 C 0.76731 0.05301 1.10792
 C868 C 0.78104 0.06399 1.09089
 C869 C 0.80446 0.06401 1.09327
 C870 C 0.81388 0.05371 1.11256
 H871 H 0.88463 0.02504 1.20601
 H872 H 0.87013 0.04058 1.17029
 H873 H 0.80736 0.00617 1.18580
 H874 H 0.82182 -0.01005 1.22095
 H875 H 0.76591 0.03423 1.14006
 H876 H 0.74925 0.05253 1.10640
 H877 H 0.81540 0.07251 1.08048
 H878 H 0.83191 0.05424 1.11418
 C879 C 0.31379 0.49084 0.73044
 C880 C 0.30394 0.49916 0.71063
 C881 C 0.31575 0.51391 0.69518
 C882 C 0.33764 0.52036 0.69981
 C883 C 0.34744 0.51224 0.71970
 C884 C 0.33565 0.49743 0.73538
 N885 N 0.30511 0.52235 0.67515
 N886 N 0.31576 0.53398 0.65949
 C887 C 0.30518 0.54303 0.63966
 C888 C 0.31844 0.55412 0.62248
 C889 C 0.30861 0.56390 0.60323
 C890 C 0.28524 0.56289 0.60094
 C891 C 0.27196 0.55155 0.61814
 C892 C 0.28185 0.54161 0.63732
 H893 H 0.30430 0.47898 0.74164
 H894 H 0.28709 0.49396 0.70720
 H895 H 0.34710 0.53186 0.68817
 H896 H 0.36415 0.51791 0.72272
 H897 H 0.33642 0.55540 0.62414
 H898 H 0.31922 0.57280 0.59042
 H899 H 0.25393 0.55038 0.61673
 H900 H 0.27124 0.53314 0.65040
 C901 C 0.12514 0.52787 0.33512
 C902 C 0.13427 0.53411 0.35511
 C903 C 0.15743 0.53246 0.35777
 C904 C 0.17151 0.52432 0.34016
 C905 C 0.16241 0.51825 0.31994
 C906 C 0.13901 0.52012 0.31707
 N907 N 0.16609 0.54016 0.37815
 N908 N 0.18648 0.53718 0.38338
 C909 C 0.19444 0.54625 0.40354
 C910 C 0.21616 0.54044 0.41031
 C911 C 0.22460 0.55003 0.42935
 C912 C 0.21149 0.56588 0.44162
 C913 C 0.18960 0.57138 0.43500
 C914 C 0.18110 0.56160 0.41622
 H915 H 0.10709 0.52939 0.33359
 H916 H 0.12325 0.54042 0.36855
 H917 H 0.18954 0.52304 0.34187
 H918 H 0.17389 0.51233 0.30681
 H919 H 0.22664 0.52868 0.40067
 H920 H 0.24159 0.54565 0.43407
 H921 H 0.17911 0.58341 0.44431
 H922 H 0.16427 0.56643 0.41136
 C923 C 0.66502 0.02099 0.80200
 C924 C 0.67683 0.02848 0.82001
 C925 C 0.66982 0.02245 0.84229
 C926 C 0.65083 0.00862 0.84641
 C927 C 0.63888 0.00121 0.82843
 C928 C 0.64593 0.00707 0.80586
 N929 N 0.68133 0.03184 0.86034
 N930 N 0.67661 0.02629 0.88102
 C931 C 0.68736 0.03684 0.89892
 C932 C 0.68237 0.02918 0.92132
 C933 C 0.69135 0.04030 0.93920
 C934 C 0.70527 0.05946 0.93487
 C935 C 0.71067 0.06674 0.91235
 C936 C 0.70187 0.05552 0.89453
 H937 H 0.67048 0.02657 0.78497
 H938 H 0.69124 0.03946 0.81662
 H939 H 0.64479 0.00414 0.86353
 H940 H 0.62371 -0.00835 0.83248
 H941 H 0.67116 0.01485 0.92492
 H942 H 0.68682 0.03444 0.95639
 H943 H 0.72160 0.08127 0.90855
 H944 H 0.70600 0.06177 0.87738
 C945 C 0.66745 0.98544 0.71885
 C946 C 0.67713 0.97740 0.69871
 C947 C 0.66424 0.96537 0.68421
 C948 C 0.64135 0.96189 0.68985
 C949 C 0.63165 0.96992 0.70987
 C950 C 0.64459 0.98150 0.72493
 N951 N 0.67472 0.95639 0.66418
 N952 N 0.66375 0.94442 0.65117
 C953 C 0.67366 0.93470 0.63130
 C954 C 0.66043 0.92082 0.61881
 C955 C 0.66962 0.91025 0.59980
 C956 C 0.69231 0.91347 0.59289
 C957 C 0.70550 0.92779 0.60522
 C958 C 0.69628 0.93828 0.62434
 H959 H 0.67793 0.99485 0.72949
 H960 H 0.69477 0.98038 0.69448
 H961 H 0.63095 0.95271 0.67890
 H962 H 0.61408 0.96644 0.71348
 H963 H 0.64296 0.91800 0.62398
 H964 H 0.65896 0.89960 0.59045
 H965 H 0.72307 0.93043 0.60037
 H966 H 0.70683 0.94895 0.63377
 C967 C 0.16292 0.49695 0.22822
 C968 C 0.17261 0.48655 0.20922
 C969 C 0.16058 0.47046 0.19797
 C970 C 0.13853 0.46516 0.20574
 C971 C 0.12881 0.47562 0.22455
 C972 C 0.14092 0.49149 0.23618
 N973 N 0.17102 0.45947 0.17897
 N974 N 0.16111 0.44359 0.16941
 C975 C 0.17078 0.43201 0.15046
 C976 C 0.15893 0.41392 0.14214
 C977 C 0.16775 0.40199 0.12381
 C978 C 0.18862 0.40806 0.11335
 C979 C 0.20045 0.42640 0.12160
 C980 C 0.19165 0.43825 0.14010
 H981 H 0.17260 0.50935 0.23658
 H982 H 0.18959 0.49088 0.20338
 H983 H 0.12882 0.45279 0.19738
 H984 H 0.11198 0.47070 0.23023
 H985 H 0.14280 0.40903 0.14994
 H986 H 0.15809 0.38818 0.11763
 H987 H 0.21663 0.43133 0.11394
 H988 H 0.20111 0.45220 0.14627
 C989 C -0.15931 0.35358 0.46137
 C990 C -0.13973 0.34290 0.45294
 C991 C -0.13853 0.31900 0.45157
 C992 C -0.15720 0.30571 0.45895
 C993 C -0.17692 0.31638 0.46740
 C994 C -0.17830 0.34058 0.46866
 N995 N -0.11834 0.30890 0.44211
 N996 N -0.11548 0.28726 0.44046
 C997 C -0.09520 0.27790 0.43035
 C998 C -0.09262 0.25398 0.42921
 C999 C -0.07331 0.24447 0.41871
 C1000 C -0.05622 0.25881 0.40913
 C1001 C -0.05880 0.28283 0.41052
 C1002 C -0.07806 0.29228 0.42104
 H1003 H -0.15976 0.37219 0.46203
 H1004 H -0.12547 0.35334 0.44728
 H1005 H -0.15662 0.28714 0.45798
 H1006 H -0.19086 0.30547 0.47262
 H1007 H -0.10568 0.24271 0.43634
 H1008 H -0.07173 0.22590 0.41814
 H1009 H -0.04619 0.29438 0.40298
 H1010 H -0.07966 0.31085 0.42159
 C1011 C 0.32729 0.86505 0.95665
 C1012 C 0.34712 0.85386 0.94954
 C1013 C 0.35050 0.83043 0.95487
 C1014 C 0.33399 0.81827 0.96795
 C1015 C 0.31408 0.82941 0.97516
 C1016 C 0.30989 0.85291 0.96890
 N1017 N 0.37081 0.81951 0.94667
 N1018 N 0.37509 0.79814 0.95039
 C1019 C 0.39534 0.78759 0.94149
 C1020 C 0.39870 0.76379 0.94504
 C1021 C 0.41772 0.75286 0.93546
 C1022 C 0.43376 0.76565 0.92222
 C1023 C 0.43057 0.78963 0.91914
 C1024 C 0.41155 0.80051 0.92865
 H1025 H 0.32559 0.88337 0.95254
 H1026 H 0.35994 0.86353 0.93981
 H1027 H 0.33652 0.80020 0.97274
 H1028 H 0.30233 0.81949 0.98596
 H1029 H 0.38636 0.75365 0.95493
 H1030 H 0.41984 0.73440 0.93832
 H1031 H 0.44242 0.79992 0.90875
 H1032 H 0.40935 0.81893 0.92562
 C1033 C 1.23056 0.83018 0.00727
 C1034 C 1.21085 0.81972 0.01601
 C1035 C 1.19057 0.83216 0.01702
 C1036 C 1.19018 0.85539 0.00938
 C1037 C 1.20996 0.86607 0.00109
 C1038 C 1.23060 0.85368 -0.00023
 N1039 N 1.17080 0.82103 0.02652
 N1040 N 1.15110 0.82929 0.02372
 C1041 C 1.13160 0.81835 0.03409
 C1042 C 1.11037 0.82401 0.02601
 C1043 C 1.09108 0.81351 0.03585
 C1044 C 1.09266 0.79747 0.05435
 C1045 C 1.11408 0.79221 0.06262
 C1046 C 1.13334 0.80236 0.05248
 H1047 H 1.24589 0.81988 0.00740
 H1048 H 1.21140 0.80182 0.02208
 H1049 H 1.17464 0.86537 0.01007
 H1050 H 1.20853 0.88383 -0.00483
 H1051 H 1.10881 0.83636 0.01185
 H1052 H 1.07500 0.81779 0.02876
 H1053 H 1.11603 0.78050 0.07719
 H1054 H 1.14955 0.79800 0.05926
 C1055 C 0.74206 0.32366 0.51801
 C1056 C 0.72247 0.31482 0.52881
 C1057 C 0.70158 0.32548 0.52519
 C1058 C 0.70048 0.34523 0.51056
 C1059 C 0.72011 0.35418 0.49987
 C1060 C 0.74110 0.34347 0.50341
 N1061 N 0.68189 0.31606 0.53675
 N1062 N 0.66220 0.32403 0.53331
 C1063 C 0.64259 0.31471 0.54512
 C1064 C 0.62134 0.32314 0.53929
 C1065 C 0.60187 0.31446 0.55051
 C1066 C 0.60338 0.29724 0.56794
 C1067 C 0.62476 0.28886 0.57382
 C1068 C 0.64420 0.29746 0.56248
 H1069 H 0.75802 0.31524 0.52146
 H1070 H 0.72357 0.29966 0.54013
 H1071 H 0.68453 0.35381 0.50749
 H1072 H 0.71878 0.36931 0.48865
 H1073 H 0.61987 0.33649 0.52601
 H1074 H 0.58566 0.32144 0.54579
 H1075 H 0.62644 0.27543 0.58700
 H1076 H 0.66045 0.29066 0.56733
 C1077 C 0.34185 0.14415 0.50432
 C1078 C 0.36162 0.15468 0.50982
 C1079 C 0.36122 0.17744 0.51636
 C1080 C 0.34072 0.18984 0.51703
 C1081 C 0.32086 0.17936 0.51136
 C1082 C 0.32117 0.15640 0.50463
 N1083 N 0.38161 0.18686 0.52358
 N1084 N 0.38259 0.20684 0.53134
 C1085 C 0.40310 0.21520 0.53947
 C1086 C 0.40288 0.23636 0.54978
 C1087 C 0.42211 0.24388 0.55979
 C1088 C 0.44194 0.23028 0.55961
 C1089 C 0.44235 0.20948 0.54842
 C1090 C 0.42313 0.20198 0.53849
 H1091 H 0.34273 0.12614 0.50042
 H1092 H 0.37725 0.14481 0.50967
 H1093 H 0.33995 0.20738 0.52244
 H1094 H 0.30524 0.18907 0.51301
 H1095 H 0.38755 0.24669 0.55069
 H1096 H 0.42117 0.25987 0.56845
 H1097 H 0.45747 0.19883 0.54765
 H1098 H 0.42382 0.18562 0.53047
 C1099 C 0.82908 0.63141 0.00751
 C1100 C 0.84917 0.64196 0.01177
 C1101 C 0.85017 0.66589 0.01237
 C1102 C 0.83075 0.67936 0.00844
 C1103 C 0.81050 0.66880 0.00406
 C1104 C 0.80940 0.64457 0.00351
 N1105 N 0.87090 0.67571 0.01808
 N1106 N 0.87370 0.69725 0.01956
 C1107 C 0.89465 0.70576 0.02649
 C1108 C 0.89675 0.72931 0.02988
 C1109 C 0.91616 0.73751 0.03909
 C1110 C 0.93367 0.72215 0.04513
 C1111 C 0.93198 0.69876 0.04061
 C1112 C 0.91270 0.69062 0.03138
 H1113 H 0.82882 0.61276 0.00750
 H1114 H 0.86399 0.63140 0.01497
 H1115 H 0.83115 0.69795 0.00907
 H1116 H 0.79592 0.67977 0.00157
 H1117 H 0.88299 0.74116 0.02617
 H1118 H 0.91701 0.75561 0.04253
 H1119 H 0.94538 0.68662 0.04480
 H1120 H 0.91164 0.67236 0.02876
 C1121 C 0.72004 0.66536 0.98668
 C1122 C 0.69984 0.67478 0.97884
 C1123 C 0.68510 0.66118 0.96775
 C1124 C 0.69035 0.63775 0.96541
 C1125 C 0.71039 0.62829 0.97335
 C1126 C 0.72593 0.64204 0.98353
 N1127 N 0.66525 0.67150 0.95848
 N1128 N 0.65288 0.66029 0.94609
 C1129 C 0.63314 0.66994 0.93614
 C1130 C 0.62192 0.65681 0.92117
 C1131 C 0.60298 0.66576 0.91055
 C1132 C 0.59481 0.68805 0.91485
 C1133 C 0.60587 0.70111 0.93020
 C1134 C 0.62498 0.69217 0.94070
 H1135 H 0.73091 0.67646 0.99522
 H1136 H 0.69584 0.69282 0.98107
 H1137 H 0.67908 0.62673 0.95722
 H1138 H 0.71356 0.61027 0.97095
 H1139 H 0.62802 0.63963 0.91759
 H1140 H 0.59460 0.65519 0.89906
 H1141 H 0.59999 0.71838 0.93372
 H1142 H 0.63340 0.70262 0.95224
 C1143 C 0.24198 0.17270 0.46151
 C1144 C 0.22294 0.18033 0.45012
 C1145 C 0.20167 0.17183 0.45675
 C1146 C 0.19955 0.15590 0.47531
 C1147 C 0.21857 0.14823 0.48667
 C1148 C 0.24002 0.15635 0.47976
 N1149 N 0.18271 0.17905 0.44395
 N1150 N 0.16291 0.17198 0.44909
 C1151 C 0.14404 0.17873 0.43596
 C1152 C 0.12257 0.17126 0.44327
 C1153 C 0.10383 0.17731 0.43071
 C1154 C 0.10632 0.19086 0.41047
 C1155 C 0.12792 0.19830 0.40314
 C1156 C 0.14661 0.19234 0.41577
 H1157 H 0.25829 0.17900 0.45548
 H1158 H 0.22483 0.19255 0.43579
 H1159 H 0.18328 0.14912 0.48083
 H1160 H 0.21648 0.13586 0.50077
 H1161 H 0.12038 0.16067 0.45874
 H1162 H 0.08745 0.17114 0.43667
 H1163 H 0.13031 0.20901 0.38777
 H1164 H 0.16304 0.19832 0.40974
 C1165 C 0.59089 0.03318 0.72289
 C1166 C 0.58208 0.05202 0.71033
 C1167 C 0.57757 0.07299 0.72032
 C1168 C 0.58113 0.07470 0.74337
 C1169 C 0.58979 0.05592 0.75601
 C1170 C 0.59540 0.03489 0.74595
 N1171 N 0.57013 0.09247 0.70663
 N1172 N 0.56824 0.11254 0.71432
 C1173 C 0.56125 0.13234 0.70087
 C1174 C 0.56100 0.15395 0.71031
 C1175 C 0.55469 0.17375 0.69762
 C1176 C 0.54838 0.17227 0.67517
 C1177 C 0.54857 0.15048 0.66576
 C1178 C 0.55497 0.13069 0.67847
 H1179 H 0.59525 0.01792 0.71386
 H1180 H 0.57943 0.05048 0.69253
 H1181 H 0.57739 0.09062 0.75162
 H1182 H 0.59179 0.05808 0.77380
 H1183 H 0.56591 0.15545 0.72752
 H1184 H 0.55507 0.19026 0.70529
 H1185 H 0.54348 0.14868 0.64866
 H1186 H 0.55496 0.11415 0.67083
 C1187 C 1.07957 0.56730 0.26675
 C1188 C 1.06943 0.58574 0.25484
 C1189 C 1.06832 0.58576 0.23138
 C1190 C 1.07709 0.56676 0.21987
 C1191 C 1.08752 0.54837 0.23174
 C1192 C 1.08921 0.54862 0.25529
 N1193 N 1.05943 0.60580 0.21964
 N1194 N 1.05501 0.60612 0.19884
 C1195 C 1.04731 0.62672 0.18707
 C1196 C 1.03856 0.62518 0.16575
 C1197 C 1.03183 0.64507 0.15344
 C1198 C 1.03418 0.66704 0.16205
 C1199 C 1.04283 0.66846 0.18363
 C1200 C 1.04920 0.64850 0.19607
 H1201 H 1.08010 0.56786 0.28492
 H1202 H 1.06267 0.60024 0.26391
 H1203 H 1.07656 0.56649 0.20167
 H1204 H 1.09502 0.53447 0.22233
 H1205 H 1.03695 0.60850 0.15865
 H1206 H 1.02476 0.64318 0.13716
 H1207 H 1.04526 0.68501 0.19070
 H1208 H 1.05613 0.65014 0.21247
 C1209 C 0.90692 0.92877 0.25113
 C1210 C 0.91904 0.91126 0.24050
 C1211 C 0.92542 0.91373 0.21760
 C1212 C 0.92013 0.93434 0.20546
 C1213 C 0.90833 0.95213 0.21615
 C1214 C 0.90118 0.94953 0.23915
 N1215 N 0.93672 0.89482 0.20707
 N1216 N 0.93960 0.89412 0.18573
 C1217 C 0.95052 0.87491 0.17534
 C1218 C 0.94921 0.87300 0.15204
 C1219 C 0.95856 0.85381 0.14155
 C1220 C 0.96971 0.83637 0.15421
 C1221 C 0.97159 0.83860 0.17751
 C1222 C 0.96192 0.85765 0.18806
 H1223 H 0.90266 0.92608 0.26898
 H1224 H 0.92318 0.89551 0.25008
 H1225 H 0.92489 0.93661 0.18767
 H1226 H 0.90392 0.96729 0.20586
 H1227 H 0.94053 0.88620 0.14206
 H1228 H 0.95710 0.85259 0.12352
 H1229 H 0.98004 0.82534 0.18763
 H1230 H 0.96323 0.85880 0.20610
 C1231 C 0.40926 0.45174 0.74022
 C1232 C 0.42303 0.43668 0.72784
 C1233 C 0.41781 0.41330 0.72749
 C1234 C 0.39842 0.40516 0.73950
 C1235 C 0.38451 0.42021 0.75162
 C1236 C 0.38980 0.44370 0.75225
 N1237 N 0.43218 0.39822 0.71469
 N1238 N 0.43015 0.37642 0.71662
 C1239 C 0.44380 0.36094 0.70360
 C1240 C 0.44248 0.33727 0.70894
 C1241 C 0.45495 0.32154 0.69621
 C1242 C 0.46881 0.32919 0.67757
 C1243 C 0.47022 0.35307 0.67235
 C1244 C 0.45790 0.36882 0.68530
 H1245 H 0.41413 0.46957 0.74063
 H1246 H 0.43794 0.44317 0.71868
 H1247 H 0.39386 0.38721 0.73929
 H1248 H 0.36943 0.41345 0.76022
 H1249 H 0.43171 0.33101 0.72305
 H1250 H 0.45377 0.30336 0.70103
 H1251 H 0.48043 0.35958 0.65794
 H1252 H 0.45906 0.38706 0.68076
 C1253 C 0.39346 0.53530 0.76432
 C1254 C 0.40737 0.55419 0.76636
 C1255 C 0.42202 0.55455 0.78416
 C1256 C 0.42306 0.53542 0.79960
 C1257 C 0.40898 0.51670 0.79772
 C1258 C 0.39382 0.51665 0.78027
 N1259 N 0.43430 0.57506 0.78731
 N1260 N 0.44899 0.57562 0.80220
 C1261 C 0.46017 0.59630 0.80709
 C1262 C 0.47706 0.59489 0.82274
 C1263 C 0.48657 0.61488 0.83000
 C1264 C 0.47914 0.63677 0.82188
 C1265 C 0.46278 0.63811 0.80544
 C1266 C 0.45337 0.61803 0.79808
 H1267 H 0.38166 0.53582 0.75098
 H1268 H 0.40628 0.56888 0.75444
 H1269 H 0.43416 0.53527 0.81356
 H1270 H 0.40961 0.50243 0.81016
 H1271 H 0.48246 0.57824 0.82978
 H1272 H 0.49946 0.61320 0.84231
 H1273 H 0.45655 0.65468 0.79899
 H1274 H 0.44023 0.61954 0.78603
 C1275 C -0.07250 0.01626 0.28171
 C1276 C -0.05624 0.03259 0.28509
 C1277 C -0.05546 0.05322 0.27189
 C1278 C -0.07036 0.05679 0.25424
 C1279 C -0.08643 0.04019 0.25057
 C1280 C -0.08797 0.02015 0.26473
 N1281 N -0.04077 0.07082 0.27819
 N1282 N -0.04146 0.09140 0.26975
 C1283 C -0.02770 0.10896 0.27785
 C1284 C -0.03162 0.13200 0.27084
 C1285 C -0.02069 0.14975 0.28086
 C1286 C -0.00555 0.14468 0.29805
 C1287 C -0.00073 0.12145 0.30411
 C1288 C -0.01174 0.10377 0.29419
 H1289 H -0.07345 0.00085 0.29277
 H1290 H -0.04489 0.02967 0.29875
 H1291 H -0.07004 0.07264 0.24383
 H1292 H -0.09838 0.04355 0.23754
 H1293 H -0.04392 0.13625 0.25833
 H1294 H -0.02493 0.16745 0.27592
 H1295 H 0.01119 0.11695 0.31694
 H1296 H -0.00825 0.08609 0.29979
 C1297 C 0.06561 0.46487 0.28822
 C1298 C 0.05627 0.44284 0.28971
 C1299 C 0.06937 0.42352 0.28390
 C1300 C 0.09177 0.42658 0.27583
 C1301 C 0.10106 0.44851 0.27438
 C1302 C 0.08812 0.46771 0.28077
 N1303 N 0.06029 0.40091 0.28796
 N1304 N 0.07208 0.38289 0.28412
 C1305 C 0.06415 0.36005 0.28944
 C1306 C 0.07901 0.34144 0.28621
 C1307 C 0.07287 0.31911 0.29357
 C1308 C 0.05164 0.31502 0.30424
 C1309 C 0.03635 0.33362 0.30657
 C1310 C 0.04257 0.35599 0.29930
 H1311 H 0.05553 0.47955 0.29346
 H1312 H 0.03905 0.44071 0.29608
 H1313 H 0.10232 0.41197 0.27135
 H1314 H 0.11861 0.45040 0.26903
 H1315 H 0.09568 0.34436 0.27863
 H1316 H 0.08489 0.30509 0.29131
 H1317 H 0.01996 0.33102 0.31491
 H1318 H 0.03082 0.37014 0.30201
 C1319 C 0.59740 0.93860 0.75720
 C1320 C 0.58755 0.91690 0.75893
 C1321 C 0.57040 0.91200 0.77529
 C1322 C 0.56265 0.92940 0.78953
 C1323 C 0.57265 0.95109 0.78791
 C1324 C 0.59023 0.95574 0.77185
 N1325 N 0.56278 0.88877 0.77851
 N1326 N 0.54639 0.88320 0.79210
 C1327 C 0.54019 0.85965 0.79673
 C1328 C 0.52085 0.85485 0.81032
 C1329 C 0.51571 0.83211 0.81727
 C1330 C 0.53005 0.81380 0.81093
 C1331 C 0.54906 0.81859 0.79666
 C1332 C 0.55405 0.84132 0.78952
 H1333 H 0.61154 0.94147 0.74539
 H1334 H 0.59391 0.90355 0.74811
 H1335 H 0.54958 0.92596 0.80248
 H1336 H 0.56716 0.96401 0.79961
 H1337 H 0.51011 0.86881 0.81610
 H1338 H 0.50110 0.82896 0.82848
 H1339 H 0.56032 0.80479 0.79142
 H1340 H 0.56916 0.84459 0.77908
 C1341 C 0.76509 0.57731 0.05224
 C1342 C 0.75522 0.56679 0.07184
 C1343 C 0.73199 0.56859 0.07631
 C1344 C 0.71848 0.58008 0.06029
 C1345 C 0.72833 0.59036 0.04048
 C1346 C 0.75179 0.58958 0.03661
 N1347 N 0.72284 0.55977 0.09771
 N1348 N 0.70248 0.56349 0.10425
 C1349 C 0.69363 0.55542 0.12603
 C1350 C 0.67154 0.56151 0.13264
 C1351 C 0.66266 0.55479 0.15411
 C1352 C 0.67574 0.54170 0.16941
 C1353 C 0.69785 0.53532 0.16263
 C1354 C 0.70676 0.54219 0.14116
 H1355 H 0.78320 0.57629 0.04952
 H1356 H 0.76579 0.55790 0.08398
 H1357 H 0.70045 0.58160 0.06333
 H1358 H 0.71774 0.59986 0.02876
 H1359 H 0.66124 0.57166 0.12114
 H1360 H 0.64544 0.55961 0.15868
 H1361 H 0.70836 0.52535 0.17407
 H1362 H 0.72392 0.53729 0.13646
 C1363 C 0.27353 1.09706 0.55819
 C1364 C 0.26304 1.08625 0.57730
 C1365 C 0.23982 1.08302 0.57845
 C1366 C 0.22711 1.09033 0.55994
 C1367 C 0.23755 1.10142 0.54086
 C1368 C 0.26085 1.10534 0.53989
 N1369 N 0.22951 1.07337 0.59897
 N1370 N 0.20907 1.06716 0.60051
 C1371 C 0.19877 1.05868 0.62153
 C1372 C 0.17776 1.04828 0.62158
 C1373 C 0.16689 1.04069 0.64192
 C1374 C 0.17670 1.04376 0.66271
 C1375 C 0.19792 1.05412 0.66252
 C1376 C 0.20891 1.06138 0.64215
 H1377 H 0.29159 1.09899 0.55789
 H1378 H 0.27304 1.08054 0.59139
 H1379 H 0.20907 1.08807 0.56049
 H1380 H 0.22716 1.10748 0.52728
 H1381 H 0.16979 1.04606 0.60580
 H1382 H 0.15081 1.03238 0.64130
 H1383 H 0.20584 1.05719 0.67814
 H1384 H 0.22505 1.06961 0.64256
 C1385 C 0.22866 0.91968 0.95779
 C1386 C 0.21690 0.93326 0.94198
 C1387 C 0.22700 0.93972 0.92098
 C1388 C 0.24945 0.93328 0.91624
 C1389 C 0.26119 0.91952 0.93186
 C1390 C 0.25080 0.91163 0.95269
 N1391 N 0.21373 0.95141 0.90427
 N1392 N 0.22225 0.95900 0.88534
 C1393 C 0.20871 0.96910 0.86798
 C1394 C 0.21928 0.97931 0.84852
 C1395 C 0.20655 0.98772 0.83054
 C1396 C 0.18303 0.98566 0.83168
 C1397 C 0.17242 0.97576 0.85138
 C1398 C 0.18513 0.96764 0.86944
 H1399 H 0.21961 0.91488 0.97335
 H1400 H 0.19959 0.93827 0.94591
 H1401 H 0.25780 0.93836 0.90021
 H1402 H 0.27853 0.91532 0.92735
 H1403 H 0.23744 0.98040 0.84715
 H1404 H 0.21512 0.99514 0.81548
 H1405 H 0.15429 0.97420 0.85275
 H1406 H 0.17657 0.95972 0.88426
 C1407 C 0.77704 0.41201 0.43164
 C1408 C 0.76693 0.42620 0.41520
 C1409 C 0.74381 0.43081 0.41669
 C1410 C 0.73094 0.42178 0.43542
 C1411 C 0.74104 0.40742 0.45187
 C1412 C 0.76409 0.40177 0.44981
 N1413 N 0.73371 0.44326 0.39821
 N1414 N 0.71301 0.44922 0.39870
 C1415 C 0.70282 0.46022 0.37946
 C1416 C 0.68061 0.46836 0.38171
 C1417 C 0.66957 0.47744 0.36288
 C1418 C 0.68049 0.47828 0.34129
 C1419 C 0.70304 0.47065 0.33921
 C1420 C 0.71412 0.46176 0.35812
 H1421 H 0.79499 0.40877 0.42985
 H1422 H 0.77708 0.43321 0.40095
 H1423 H 0.71299 0.42515 0.43695
 H1424 H 0.73056 0.40010 0.46561
 H1425 H 0.67172 0.46733 0.39806
 H1426 H 0.65238 0.48363 0.36521
 H1427 H 0.71189 0.47078 0.32285
 H1428 H 0.73127 0.45544 0.35591
 C1429 C 0.77744 0.41738 0.52504
 C1430 C 0.77947 0.43099 0.54370
 C1431 C 0.79274 0.42336 0.56161
 C1432 C 0.80340 0.40159 0.56095
 C1433 C 0.80135 0.38804 0.54246
 C1434 C 0.78872 0.39593 0.52409
 N1435 N 0.79602 0.43811 0.57986
 N1436 N 0.81026 0.43256 0.59464
 C1437 C 0.81508 0.44641 0.61305
 C1438 C 0.83315 0.43964 0.62623
 C1439 C 0.83936 0.45302 0.64370
 C1440 C 0.82739 0.47337 0.64852
 C1441 C 0.80877 0.47991 0.63575
 C1442 C 0.80273 0.46658 0.61793
 H1443 H 0.76765 0.42393 0.51110
 H1444 H 0.77114 0.44772 0.54396
 H1445 H 0.81354 0.39509 0.57464
 H1446 H 0.80972 0.37132 0.54258
 H1447 H 0.84271 0.42408 0.62266
 H1448 H 0.85358 0.44746 0.65350
 H1449 H 0.79931 0.49555 0.63919
 H1450 H 0.78863 0.47207 0.60795
 C1451 C 0.26143 -0.07602 0.02717
 C1452 C 0.26271 -0.06330 0.04653
 C1453 C 0.27784 -0.06989 0.06313
 C1454 C 0.29201 -0.08913 0.05999
 C1455 C 0.29116 -0.10151 0.04055
 C1456 C 0.27579 -0.09531 0.02376
 N1457 N 0.27923 -0.05660 0.08272
 N1458 N 0.28865 -0.06503 0.10018
 C1459 C 0.29208 -0.05224 0.11968
 C1460 C 0.29967 -0.06412 0.13902
 C1461 C 0.30556 -0.05215 0.15763
 C1462 C 0.30421 -0.02795 0.15709
 C1463 C 0.29603 -0.01601 0.13784
 C1464 C 0.28987 -0.02809 0.11929
 H1465 H 0.24989 -0.06992 0.01455
 H1466 H 0.25189 -0.04829 0.04859
 H1467 H 0.30396 -0.09452 0.07252
 H1468 H 0.30209 -0.11653 0.03930
 H1469 H 0.30162 -0.08272 0.13942
 H1470 H 0.31215 -0.06178 0.17205
 H1471 H 0.29480 0.00264 0.13703
 H1472 H 0.28418 -0.01856 0.10440
 C1473 C 0.26235 0.10052 0.44802
 C1474 C 0.26203 0.08901 0.42788
 C1475 C 0.28003 0.07457 0.42141
 C1476 C 0.29809 0.07108 0.43576
 C1477 C 0.29858 0.08284 0.45570
 C1478 C 0.28094 0.09802 0.46176
 N1479 N 0.28074 0.06553 0.39936
 N1480 N 0.29553 0.05067 0.39338
 C1481 C 0.29797 0.04322 0.37075
 C1482 C 0.31294 0.02504 0.36614
 C1483 C 0.31797 0.01922 0.34390
 C1484 C 0.30827 0.03176 0.32582
 C1485 C 0.29265 0.04953 0.33051
 C1486 C 0.28742 0.05515 0.35281
 H1487 H 0.24868 0.11236 0.45215
 H1488 H 0.24811 0.09198 0.41690
 H1489 H 0.31228 0.06012 0.43107
 H1490 H 0.31306 0.08062 0.46607
 H1491 H 0.32131 0.01585 0.37980
 H1492 H 0.33028 0.00565 0.34077
 H1493 H 0.28487 0.05938 0.31688
 H1494 H 0.27589 0.06939 0.35596
 C1495 C 0.75535 0.58506 0.94449
 C1496 C 0.75742 0.57403 0.92400
 C1497 C 0.77794 0.56384 0.91711
 C1498 C 0.79581 0.56306 0.93185
 C1499 C 0.79368 0.57385 0.95233
 C1500 C 0.77375 0.58582 0.95843
 N1501 N 0.78120 0.55676 0.89436
 N1502 N 0.80098 0.55332 0.88599
 C1503 C 0.80585 0.54772 0.86306
 C1504 C 0.82827 0.54846 0.85500
 C1505 C 0.83387 0.54503 0.83236
 C1506 C 0.81712 0.54040 0.81740
 C1507 C 0.79463 0.53883 0.82555
 C1508 C 0.78895 0.54273 0.84828
 H1509 H 0.73994 0.59430 0.94852
 H1510 H 0.74350 0.57476 0.91283
 H1511 H 0.81176 0.55498 0.92712
 H1512 H 0.80803 0.57378 0.96294
 H1513 H 0.84140 0.55231 0.86623
 H1514 H 0.85135 0.54606 0.82645
 H1515 H 0.78150 0.53519 0.81423
 H1516 H 0.77149 0.54208 0.85422
 C1517 C 0.03204 0.73710 0.58088
 C1518 C 0.04925 0.72333 0.57145
 C1519 C 0.07086 0.73207 0.56718
 C1520 C 0.07475 0.75524 0.57105
 C1521 C 0.05764 0.76906 0.58025
 C1522 C 0.03616 0.76007 0.58622
 N1523 N 0.08888 0.71694 0.56017
 N1524 N 0.10929 0.72301 0.56067
 C1525 C 0.12793 0.70837 0.55446
 C1526 C 0.14966 0.71555 0.55831
 C1527 C 0.16830 0.70151 0.55318
 C1528 C 0.16556 0.68002 0.54381
 C1529 C 0.14365 0.67294 0.53973
 C1530 C 0.12497 0.68695 0.54510
 H1531 H 0.01618 0.72891 0.58530
 H1532 H 0.04602 0.70547 0.56847
 H1533 H 0.09117 0.76261 0.56735
 H1534 H 0.06148 0.78688 0.58270
 H1535 H 0.15211 0.73198 0.56565
 H1536 H 0.18484 0.70736 0.55692
 H1537 H 0.14093 0.65669 0.53218
 H1538 H 0.10829 0.68110 0.54188
 C1539 C 0.53081 0.23068 1.09050
 C1540 C 0.54776 0.21789 1.07946
 C1541 C 0.56796 0.22825 1.07192
 C1542 C 0.57061 0.25195 1.07450
 C1543 C 0.55357 0.26483 1.08524
 C1544 C 0.53369 0.25423 1.09392
 N1545 N 0.58588 0.21419 1.06278
 N1546 N 0.60589 0.22155 1.05988
 C1547 C 0.62411 0.20750 1.05139
 C1548 C 0.64610 0.21545 1.05219
 C1549 C 0.66441 0.20175 1.04515
 C1550 C 0.66104 0.17983 1.03685
 C1551 C 0.63883 0.17214 1.03560
 C1552 C 0.62054 0.18577 1.04292
 H1553 H 0.51596 0.22179 1.09722
 H1554 H 0.54552 0.19963 1.07759
 H1555 H 0.58596 0.26044 1.06854
 H1556 H 0.55618 0.28303 1.08708
 H1557 H 0.64907 0.23212 1.05880
 H1558 H 0.68121 0.20813 1.04672
 H1559 H 0.63552 0.15560 1.02889
 H1560 H 0.60367 0.17931 1.04200
 C1561 C 0.95032 0.23652 0.92358
 C1562 C 0.93310 0.22455 0.93576
 C1563 C 0.91252 0.22108 0.92598
 C1564 C 0.90946 0.22944 0.90367
 C1565 C 0.92657 0.24138 0.89154
 C1566 C 0.94710 0.24528 0.90142
 N1567 N 0.89490 0.20922 0.93887
 N1568 N 0.87593 0.20612 0.93050
 C1569 C 0.85775 0.19444 0.94254
 C1570 C 0.83798 0.19129 0.93129
 C1571 C 0.81993 0.17963 0.94214
 C1572 C 0.82131 0.17092 0.96458
 C1573 C 0.84107 0.17442 0.97603
 C1574 C 0.85922 0.18605 0.96507
 H1575 H 0.96590 0.23939 0.93167
 H1576 H 0.93571 0.21817 0.95292
 H1577 H 0.89381 0.22685 0.89559
 H1578 H 0.92374 0.24744 0.87433
 H1579 H 0.83663 0.19779 0.91397
 H1580 H 0.80483 0.17750 0.93299
 H1581 H 0.84266 0.16773 0.99326
 H1582 H 0.87436 0.18834 0.97410
 C1583 C 0.45285 0.71600 0.40999
 C1584 C 0.43723 0.70358 0.42380
 C1585 C 0.42009 0.71506 0.43590
 C1586 C 0.41923 0.73929 0.43474
 C1587 C 0.43483 0.75172 0.42088
 C1588 C 0.45153 0.74015 0.40801
 N1589 N 0.40287 0.70173 0.44767
 N1590 N 0.38661 0.71090 0.45889
 C1591 C 0.36865 0.69742 0.46920
 C1592 C 0.35167 0.70831 0.48206
 C1593 C 0.33300 0.69596 0.49079
 C1594 C 0.33097 0.67250 0.48655
 C1595 C 0.34829 0.66149 0.47404
 C1596 C 0.36700 0.67380 0.46549
 H1597 H 0.46513 0.70661 0.40000
 H1598 H 0.43796 0.68491 0.42443
 H1599 H 0.40613 0.74857 0.44395
 H1600 H 0.43355 0.77037 0.41982
 H1601 H 0.35268 0.72653 0.48493
 H1602 H 0.31981 0.70489 0.50023
 H1603 H 0.34728 0.64336 0.47077
 H1604 H 0.37989 0.66497 0.45557
 C1605 C 0.53912 0.75441 0.40436
 C1606 C 0.55882 0.75789 0.41576
 C1607 C 0.56346 0.77969 0.42332
 C1608 C 0.54767 0.79774 0.42029
 C1609 C 0.52795 0.79423 0.40923
 C1610 C 0.52366 0.77269 0.40065
 N1611 N 0.58443 0.78356 0.43342
 N1612 N 0.59131 0.80402 0.43491
 C1613 C 0.61173 0.80962 0.44505
 C1614 C 0.61881 0.83244 0.44276
 C1615 C 0.63799 0.83916 0.45314
 C1616 C 0.65038 0.82321 0.46644
 C1617 C 0.64353 0.80007 0.46835
 C1618 C 0.62432 0.79329 0.45768
 H1619 H 0.53645 0.73766 0.39780
 H1620 H 0.57081 0.74381 0.41803
 H1621 H 0.55063 0.81465 0.42635
 H1622 H 0.51614 0.80852 0.40724
 H1623 H 0.60929 0.84511 0.43294
 H1624 H 0.64308 0.85696 0.45079
 H1625 H 0.65262 0.78740 0.47856
 H1626 H 0.61905 0.77553 0.45970
 C1627 C 0.01581 0.29929 -0.07448
 C1628 C 0.03236 0.30340 -0.05933
 C1629 C 0.04991 0.28746 -0.05592
 C1630 C 0.05016 0.26662 -0.06705
 C1631 C 0.03343 0.26238 -0.08215
 C1632 C 0.01649 0.27900 -0.08644
 N1633 N 0.06791 0.29381 -0.04241
 N1634 N 0.08524 0.28116 -0.03900
 C1635 C 0.10336 0.28922 -0.02649
 C1636 C 0.12189 0.27467 -0.02223
 C1637 C 0.14033 0.28275 -0.01122
 C1638 C 0.14055 0.30561 -0.00437
 C1639 C 0.12178 0.32004 -0.00854
 C1640 C 0.10340 0.31194 -0.01937
 H1641 H 0.00277 0.31225 -0.07727
 H1642 H 0.03197 0.31948 -0.05080
 H1643 H 0.06360 0.25405 -0.06465
 H1644 H 0.03439 0.24668 -0.09129
 H1645 H 0.12213 0.25714 -0.02767
 H1646 H 0.15441 0.27112 -0.00810
 H1647 H 0.12153 0.33788 -0.00403
 H1648 H 0.08943 0.32366 -0.02264
 C1649 C 0.45307 0.27544 0.07718
 C1650 C 0.43160 0.27586 0.06830
 C1651 C 0.41326 0.28584 0.08012
 C1652 C 0.41674 0.29583 0.10073
 C1653 C 0.43809 0.29569 0.10941
 C1654 C 0.45651 0.28549 0.09778
 N1655 N 0.39132 0.28609 0.07100
 N1656 N 0.37407 0.29197 0.08298
 C1657 C 0.35185 0.29392 0.07475
 C1658 C 0.33429 0.30047 0.08965
 C1659 C 0.31283 0.30522 0.08189
 C1660 C 0.30849 0.30347 0.05894
 C1661 C 0.32596 0.29579 0.04416
 C1662 C 0.34751 0.29109 0.05199
 H1663 H 0.46696 0.26733 0.06799
 H1664 H 0.42919 0.26816 0.05235
 H1665 H 0.40292 0.30374 0.11020
 H1666 H 0.44001 0.30301 0.12563
 H1667 H 0.33748 0.30274 0.10723
 H1668 H 0.29994 0.31138 0.09370
 H1669 H 0.32311 0.29393 0.02646
 H1670 H 0.36085 0.28594 0.04019
 C1671 C 0.95798 0.77764 0.56964
 C1672 C 0.93696 0.77896 0.55983
 C1673 C 0.92086 0.79538 0.56651
 C1674 C 0.92641 0.81123 0.58236
 C1675 C 0.94729 0.81007 0.59207
 C1676 C 0.96340 0.79286 0.58643
 N1677 N 0.89882 0.79554 0.55762
 N1678 N 0.88315 0.80791 0.56632
 C1679 C 0.86073 0.80948 0.55861
 C1680 C 0.84520 0.82330 0.57028
 C1681 C 0.82338 0.82639 0.56301
 C1682 C 0.81656 0.81563 0.54380
 C1683 C 0.83212 0.80137 0.53221
 C1684 C 0.85409 0.79826 0.53961
 H1685 H 0.96986 0.76481 0.56363
 H1686 H 0.93307 0.76686 0.54731
 H1687 H 0.91437 0.82429 0.58771
 H1688 H 0.94985 0.82202 0.60505
 H1689 H 0.85021 0.83211 0.58488
 H1690 H 0.81209 0.83794 0.57202
 H1691 H 0.82735 0.79282 0.51739
 H1692 H 0.86590 0.78746 0.53034
   
