data_POSCAR
  _audit_creation_date              2014-09-24
  _audit_creation_method            'ToBaCCo'
  _symmetry_space_group_name_H-M    'P1'
  _symmetry_Int_Tables_number       1
  _symmetry_cell_setting            triclinic
  loop_
  _symmetry_equiv_pos_as_xyz
 x,y,z
_cell_length_a 78.6062
_cell_length_b 78.5173
_cell_length_c 78.4212
_cell_angle_alpha 89.951400
_cell_angle_beta 89.993800
_cell_angle_gamma 89.955300
loop_
  _atom_site_label
  _atom_site_type_symbol
  _atom_site_fract_x
  _atom_site_fract_y
  _atom_site_fract_z
N1 N 0.35574 1.34479 0.30892
 N2 N 0.34375 1.35651 0.30900
 C3 C 0.34627 1.36721 0.29579
 C4 C 0.36052 1.36180 0.28710
 C5 C 0.36627 1.34760 0.29567
 H6 H 0.33834 1.37804 0.29268
 H7 H 0.37722 1.33987 0.29248
 Cu8 Cu 0.32598 1.35644 0.32629
 Cu9 Cu 0.35672 1.32667 0.32586
 Cu10 Cu 0.32547 1.32661 0.35706
 N11 N 0.30865 1.35644 0.34403
 N12 N 0.30854 1.34470 0.35603
 C13 C 0.29529 1.34748 0.36655
 C14 C 0.28674 1.36168 0.36078
 C15 C 0.29545 1.36712 0.34652
 H16 H 0.29209 1.33975 0.37751
 H17 H 0.29237 1.37797 0.33859
 N18 N 0.34367 1.30937 0.35596
 N19 N 0.35558 1.30939 0.34407
 C20 C 0.36607 1.29606 0.34670
 C21 C 0.36043 1.28736 0.36086
 C22 C 0.34628 1.29603 0.36647
 H23 H 0.37699 1.29289 0.33894
 H24 H 0.33851 1.29284 0.37739
 H25 H 0.33099 1.32617 0.33129
 H26 H 0.34457 1.34005 0.34499
 N27 N 0.35549 0.84402 0.80896
 N28 N 0.34385 0.85607 0.80932
 C29 C 0.34691 0.86721 0.79661
 C30 C 0.36115 0.86175 0.78794
 C31 C 0.36632 0.84705 0.79601
 H32 H 0.33924 0.87827 0.79369
 H33 H 0.37696 0.83901 0.79255
 Cu34 Cu 0.32548 0.85576 0.82596
 Cu35 Cu 0.35508 0.82485 0.82461
 Cu36 Cu 0.32588 0.82661 0.85761
 N37 N 0.30844 0.85574 0.84394
 N38 N 0.30878 0.84447 0.85636
 C39 C 0.29568 0.84741 0.86702
 C40 C 0.28677 0.86123 0.86091
 C41 C 0.29511 0.86628 0.84631
 H42 H 0.29279 0.84001 0.87829
 H43 H 0.29171 0.87681 0.83809
 N44 N 0.34410 0.80943 0.85644
 N45 N 0.35517 0.80869 0.84379
 C46 C 0.36574 0.79544 0.84641
 C47 C 0.36098 0.78752 0.86134
 C48 C 0.34728 0.79661 0.86742
 H49 H 0.37605 0.79174 0.83807
 H50 H 0.34009 0.79394 0.87887
 H51 H 0.32952 0.82541 0.83188
 H52 H 0.34461 0.83929 0.84393
 N53 N 0.85609 1.34455 0.80871
 N54 N 0.84416 1.35632 0.80884
 C55 C 0.84662 1.36698 0.79558
 C56 C 0.86081 1.36149 0.78683
 C57 C 0.86656 1.34729 0.79540
 H58 H 0.83872 1.37784 0.79250
 H59 H 0.87748 1.33954 0.79218
 Cu60 Cu 0.82652 1.35641 0.82626
 Cu61 Cu 0.85713 1.32650 0.82572
 Cu62 Cu 0.82587 1.32645 0.85688
 N63 N 0.80903 1.35622 0.84382
 N64 N 0.80887 1.34445 0.85576
 C65 C 0.79554 1.34716 0.86620
 C66 C 0.78697 1.36134 0.86043
 C67 C 0.79576 1.36684 0.84625
 H68 H 0.79232 1.33942 0.87715
 H69 H 0.79271 1.37773 0.83836
 N70 N 0.84413 1.30929 0.85588
 N71 N 0.85604 1.30930 0.84398
 C72 C 0.86655 1.29599 0.84666
 C73 C 0.86092 1.28732 0.86084
 C74 C 0.84675 1.29599 0.86643
 H75 H 0.87746 1.29280 0.83890
 H76 H 0.83897 1.29279 0.87733
 H77 H 0.83140 1.32615 0.83113
 H78 H 0.84506 1.33989 0.84491
 N79 N 0.85615 0.84441 0.30877
 N80 N 0.84403 0.85599 0.30871
 C81 C 0.84651 0.86666 0.29547
 C82 C 0.86089 0.86138 0.28690
 C83 C 0.86674 0.84728 0.29558
 H84 H 0.83850 0.87740 0.29227
 H85 H 0.87781 0.83969 0.29251
 Cu86 Cu 0.82619 0.85591 0.32592
 Cu87 Cu 0.85724 0.82640 0.32580
 Cu88 Cu 0.82601 0.82635 0.35701
 N89 N 0.80897 0.85593 0.34376
 N90 N 0.80900 0.84433 0.35588
 C91 C 0.79581 0.84718 0.36646
 C92 C 0.78714 0.86127 0.36061
 C93 C 0.79573 0.86657 0.34623
 H94 H 0.79273 0.83958 0.37755
 H95 H 0.79255 0.87733 0.33822
 N96 N 0.84428 0.80920 0.35599
 N97 N 0.85619 0.80922 0.34409
 C98 C 0.86671 0.79592 0.34675
 C99 C 0.86109 0.78723 0.36093
 C100 C 0.84692 0.79589 0.36652
 H101 H 0.87761 0.79273 0.33897
 H102 H 0.83913 0.79268 0.37742
 H103 H 0.83153 0.82575 0.33125
 H104 H 0.84498 0.83992 0.34480
 N105 N 0.64399 0.65600 0.30907
 N106 N 0.65596 0.64427 0.30914
 C107 C 0.65347 0.63367 0.29587
 C108 C 0.63928 0.63914 0.28713
 C109 C 0.63350 0.65328 0.29576
 H110 H 0.66145 0.62293 0.29266
 H111 H 0.62254 0.66099 0.29259
 Cu112 Cu 0.67388 0.64430 0.32625
 Cu113 Cu 0.64298 0.67402 0.32606
 Cu114 Cu 0.67421 0.67397 0.35722
 N115 N 0.69105 0.64422 0.34413
 N116 N 0.69116 0.65593 0.35613
 C117 C 0.70448 0.65318 0.36658
 C118 C 0.71308 0.63904 0.36075
 C119 C 0.70430 0.63361 0.34657
 H120 H 0.70768 0.66086 0.37756
 H121 H 0.70747 0.62286 0.33856
 N122 N 0.65598 0.69115 0.35621
 N123 N 0.64407 0.69117 0.34432
 C124 C 0.63350 0.70442 0.34705
 C125 C 0.63910 0.71303 0.36126
 C126 C 0.65330 0.70438 0.36682
 H127 H 0.62257 0.70759 0.33931
 H128 H 0.66106 0.70753 0.37776
 H129 H 0.66882 0.67457 0.33134
 H130 H 0.65527 0.66056 0.34498
 N131 N 0.64383 0.15558 0.80870
 N132 N 0.65583 0.14388 0.80878
 C133 C 0.65328 0.13315 0.79561
 C134 C 0.63901 0.13854 0.78695
 C135 C 0.63327 0.15276 0.79548
 H136 H 0.66115 0.12226 0.79256
 H137 H 0.62240 0.16056 0.79223
 Cu138 Cu 0.67357 0.14396 0.82609
 Cu139 Cu 0.64282 0.17370 0.82563
 Cu140 Cu 0.67410 0.17374 0.85679
 N141 N 0.69097 0.14398 0.84374
 N142 N 0.69106 0.15569 0.85573
 C143 C 0.70432 0.15291 0.86625
 C144 C 0.71289 0.13873 0.86051
 C145 C 0.70418 0.13330 0.84626
 H146 H 0.70757 0.16071 0.87713
 H147 H 0.70722 0.12239 0.83841
 N148 N 0.65589 0.19095 0.85571
 N149 N 0.64397 0.19095 0.84383
 C150 C 0.63347 0.20427 0.84648
 C151 C 0.63912 0.21294 0.86064
 C152 C 0.65328 0.20425 0.86624
 H153 H 0.62254 0.20744 0.83874
 H154 H 0.66105 0.20742 0.87716
 H155 H 0.66862 0.17420 0.83095
 H156 H 0.65503 0.16026 0.84469
 N157 N 1.14413 0.65587 0.80898
 N158 N 1.15626 0.64431 0.80894
 C159 C 1.15377 0.63364 0.79572
 C160 C 1.13939 0.63888 0.78715
 C161 C 1.13354 0.65297 0.79581
 H162 H 1.16179 0.62291 0.79252
 H163 H 1.12246 0.66055 0.79272
 Cu164 Cu 1.17413 0.64442 0.82610
 Cu165 Cu 1.14304 0.67390 0.82596
 Cu166 Cu 1.17431 0.67397 0.85713
 N167 N 1.19138 0.64443 0.84389
 N168 N 1.19134 0.65601 0.85601
 C169 C 1.20454 0.65316 0.86658
 C170 C 1.21321 0.63909 0.86071
 C171 C 1.20462 0.63380 0.84635
 H172 H 1.20760 0.66074 0.87767
 H173 H 1.20781 0.62304 0.83836
 N174 N 1.15602 0.69109 0.85611
 N175 N 1.14411 0.69108 0.84422
 C176 C 1.13360 0.70438 0.84686
 C177 C 1.13922 0.71305 0.86102
 C178 C 1.15339 0.70439 0.86663
 H179 H 1.12269 0.70757 0.83909
 H180 H 1.16118 0.70759 0.87753
 H181 H 1.16876 0.67457 0.83137
 H182 H 1.15534 0.66039 0.84496
 N183 N 1.14408 0.15566 0.30895
 N184 N 1.15622 0.14411 0.30888
 C185 C 1.15373 0.13345 0.29566
 C186 C 1.13934 0.13869 0.28711
 C187 C 1.13348 0.15277 0.29578
 H188 H 1.16175 0.12273 0.29244
 H189 H 1.12239 0.16034 0.29271
 Cu190 Cu 1.17411 0.14421 0.32601
 Cu191 Cu 1.14300 0.17367 0.32594
 Cu192 Cu 1.17427 0.17371 0.35710
 N193 N 1.19133 0.14419 0.34382
 N194 N 1.19129 0.15575 0.35596
 C195 C 1.20447 0.15287 0.36653
 C196 C 1.21314 0.13881 0.36065
 C197 C 1.20456 0.13355 0.34628
 H198 H 1.20754 0.16043 0.37764
 H199 H 1.20774 0.12280 0.33826
 N200 N 1.15599 0.19083 0.35609
 N201 N 1.14408 0.19083 0.34420
 C202 C 1.13357 0.20413 0.34685
 C203 C 1.13920 0.21279 0.36101
 C204 C 1.15337 0.20414 0.36661
 H205 H 1.12266 0.20732 0.33908
 H206 H 1.16116 0.20733 0.37751
 H207 H 1.16873 0.17434 0.33134
 H208 H 1.15531 0.16013 0.34491
 N209 N 0.64410 1.34406 0.69101
 N210 N 0.65587 1.35596 0.69074
 C211 C 0.65343 1.36654 0.70404
 C212 C 0.63944 1.36088 0.71298
 C213 C 0.63377 1.34665 0.70446
 H214 H 0.66118 1.37751 0.70701
 H215 H 0.62295 1.33882 0.70777
 Cu216 Cu 0.67321 1.35649 0.67305
 Cu217 Cu 0.64304 1.32610 0.67398
 Cu218 Cu 0.67425 1.32613 0.64279
 N219 N 0.69090 1.35601 0.65571
 N220 N 0.69122 1.34411 0.64391
 C221 C 0.70466 1.34673 0.63359
 C222 C 0.71314 1.36097 0.63930
 C223 C 0.70417 1.36660 0.65331
 H224 H 0.70800 1.33890 0.62275
 H225 H 0.70710 1.37758 0.66109
 N226 N 0.65600 1.30899 0.64378
 N227 N 0.64410 1.30899 0.65568
 C228 C 0.63356 1.29573 0.65299
 C229 C 0.63917 1.28709 0.63880
 C230 C 0.65335 1.29573 0.63321
 H231 H 0.62265 1.29255 0.66075
 H232 H 0.66112 1.29255 0.62229
 H233 H 0.66877 1.32612 0.66857
 H234 H 0.65487 1.33949 0.65461
 N235 N 0.64410 0.84414 1.19113
 N236 N 0.65611 0.85580 1.19106
 C237 C 0.65368 0.86641 1.20434
 C238 C 0.63944 0.86102 1.21305
 C239 C 0.63363 0.84691 1.20442
 H240 H 0.66159 0.87723 1.20745
 H241 H 0.62262 0.83928 1.20756
 Cu242 Cu 0.67368 0.85592 1.17361
 Cu243 Cu 0.64296 0.82620 1.17404
 Cu244 Cu 0.67422 0.82622 1.14281
 N245 N 0.69115 0.85583 1.15604
 N246 N 0.69125 0.84417 1.14400
 C247 C 0.70454 0.84695 1.13354
 C248 C 0.71313 0.86107 1.13939
 C249 C 0.70440 0.86645 1.15364
 H250 H 0.70772 0.83932 1.12251
 H251 H 0.70747 0.87726 1.16159
 N252 N 0.65590 0.80913 1.14378
 N253 N 0.64400 0.80912 1.15568
 C254 C 0.63346 0.79587 1.15299
 C255 C 0.63906 0.78723 1.13878
 C256 C 0.65325 0.79586 1.13321
 H257 H 0.62255 0.79267 1.16076
 H258 H 0.66103 0.79267 1.12230
 H259 H 0.66867 0.82569 1.16859
 H260 H 0.65506 0.83960 1.15490
 N261 N 1.14416 1.34399 1.19095
 N262 N 1.15593 1.35590 1.19069
 C263 C 1.15348 1.36647 1.20399
 C264 C 1.13949 1.36081 1.21293
 C265 C 1.13383 1.34658 1.20439
 H266 H 1.16123 1.37745 1.20697
 H267 H 1.12301 1.33873 1.20770
 Cu268 Cu 1.17328 1.35644 1.17301
 Cu269 Cu 1.14312 1.32604 1.17391
 Cu270 Cu 1.17434 1.32611 1.14272
 N271 N 1.19097 1.35599 1.15568
 N272 N 1.19130 1.34410 1.14386
 C273 C 1.20473 1.34674 1.13355
 C274 C 1.21320 1.36098 1.13927
 C275 C 1.20423 1.36659 1.15328
 H276 H 1.20808 1.33892 1.12270
 H277 H 1.20716 1.37756 1.16108
 N278 N 1.15610 1.30896 1.14371
 N279 N 1.14420 1.30894 1.15560
 C280 C 1.13368 1.29568 1.15291
 C281 C 1.13929 1.28705 1.13871
 C282 C 1.15346 1.29570 1.13314
 H283 H 1.12276 1.29248 1.16067
 H284 H 1.16124 1.29253 1.12221
 H285 H 1.16886 1.32607 1.16851
 H286 H 1.15496 1.33945 1.15455
 N287 N 1.14384 0.84412 0.69085
 N288 N 1.15587 0.85577 0.69083
 C289 C 1.15335 0.86644 0.70404
 C290 C 1.13905 0.86111 0.71268
 C291 C 1.13327 0.84697 0.70406
 H292 H 1.16129 0.87723 0.70719
 H293 H 1.12226 0.83934 0.70720
 Cu294 Cu 1.17368 0.85575 0.67361
 Cu295 Cu 1.14283 0.82607 0.67389
 Cu296 Cu 1.17405 0.82611 0.64266
 N297 N 1.19089 0.85582 0.65579
 N298 N 1.19095 0.84419 0.64371
 C299 C 1.20415 0.84707 0.63316
 C300 C 1.21272 0.86121 0.63898
 C301 C 1.20406 0.86651 0.65330
 H302 H 1.20732 0.83944 0.62213
 H303 H 1.20719 0.87729 0.66128
 N304 N 1.15589 0.80888 0.64376
 N305 N 1.14399 0.80887 0.65567
 C306 C 1.13352 0.79554 0.65305
 C307 C 1.13917 0.78687 0.63889
 C308 C 1.15330 0.79555 0.63326
 H309 H 1.12262 0.79235 0.66083
 H310 H 1.16108 0.79237 0.62235
 H311 H 1.16855 0.82555 0.66844
 H312 H 1.15499 0.83959 0.65484
 N313 N 0.35566 0.65585 0.69090
 N314 N 0.34344 0.64442 0.69104
 C315 C 0.34573 0.63389 0.70444
 C316 C 0.36009 0.63914 0.71304
 C317 C 0.36613 0.65304 0.70420
 H318 H 0.33767 0.62323 0.70769
 H319 H 0.37727 0.66053 0.70721
 Cu320 Cu 0.32612 0.64427 0.67335
 Cu321 Cu 0.35705 0.67373 0.67367
 Cu322 Cu 0.32404 0.67543 0.64432
 N323 N 0.30875 0.64420 0.65567
 N324 N 0.30820 0.65636 0.64414
 C325 C 0.29507 0.65350 0.63350
 C326 C 0.28706 0.63878 0.63870
 C327 C 0.29597 0.63314 0.65276
 H328 H 0.29151 0.66159 0.62292
 H329 H 0.29323 0.62195 0.66032
 N330 N 0.34324 0.69155 0.64415
 N331 N 0.35586 0.69083 0.65527
 C332 C 0.36681 0.70362 0.65203
 C333 C 0.36078 0.71265 0.63825
 C334 C 0.34589 0.70475 0.63349
 H335 H 0.37822 0.70631 0.65925
 H336 H 0.33758 0.70845 0.62314
 H337 H 0.33143 0.67470 0.66985
 H338 H 0.34374 0.66133 0.65451
 N339 N 0.35579 0.15595 1.19102
 N340 N 0.34379 0.14428 1.19090
 C341 C 0.34621 0.13361 1.20416
 C342 C 0.36042 0.13899 1.21292
 C343 C 0.36623 0.15313 1.20433
 H344 H 0.33833 0.12275 1.20720
 H345 H 0.37724 0.16076 1.20752
 Cu346 Cu 0.32642 0.14405 1.17326
 Cu347 Cu 0.35699 0.17395 1.17399
 Cu348 Cu 0.32581 0.17406 1.14267
 N349 N 0.30886 0.14440 1.15580
 N350 N 0.30878 0.15611 1.14379
 C351 C 0.29551 0.15336 1.13329
 C352 C 0.28691 0.13922 1.13909
 C353 C 0.29562 0.13378 1.15334
 H354 H 0.29236 0.16103 1.12227
 H355 H 0.29256 0.12290 1.16122
 N356 N 0.34412 0.19115 1.14375
 N357 N 0.35599 0.19111 1.15568
 C358 C 0.36651 0.20440 1.15306
 C359 C 0.36093 0.21310 1.13888
 C360 C 0.34678 0.20447 1.13324
 H361 H 0.37739 0.20756 1.16088
 H362 H 0.33902 0.20770 1.12232
 H363 H 0.33130 0.17434 1.16844
 H364 H 0.34502 0.16061 1.15469
 N365 N 0.85601 0.65577 1.19091
 N366 N 0.84421 0.64389 1.19064
 C367 C 0.84664 0.63328 1.20393
 C368 C 0.86066 0.63887 1.21286
 C369 C 0.86635 0.65311 1.20434
 H370 H 0.83885 0.62233 1.20692
 H371 H 0.87717 0.66093 1.20766
 Cu372 Cu 0.82683 0.64350 1.17298
 Cu373 Cu 0.85710 0.67378 1.17391
 Cu374 Cu 0.82588 0.67389 1.14271
 N375 N 0.80914 0.64405 1.15565
 N376 N 0.80887 0.65595 1.14382
 C377 C 0.79544 0.65335 1.13349
 C378 C 0.78692 0.63913 1.13921
 C379 C 0.79585 0.63348 1.15324
 H380 H 0.79213 0.66118 1.12263
 H381 H 0.79289 0.62251 1.16104
 N382 N 0.84417 0.69099 1.14373
 N383 N 0.85606 0.69095 1.15564
 C384 C 0.86660 0.70422 1.15299
 C385 C 0.86101 0.71290 1.13880
 C386 C 0.84685 0.70428 1.13318
 H387 H 0.87749 0.70739 1.16078
 H388 H 0.83908 0.70750 1.12226
 H389 H 0.83137 0.67386 1.16848
 H390 H 0.84523 0.66047 1.15453
 N391 N 0.85560 0.15572 0.69096
 N392 N 0.84363 0.14402 0.69081
 C393 C 0.84602 0.13339 0.70410
 C394 C 0.86021 0.13877 0.71287
 C395 C 0.86603 0.15292 0.70429
 H396 H 0.83813 0.12253 0.70714
 H397 H 0.87701 0.16057 0.70749
 Cu398 Cu 0.82623 0.14385 0.67319
 Cu399 Cu 0.85681 0.17373 0.67393
 Cu400 Cu 0.82563 0.17384 0.64262
 N401 N 0.80869 0.14414 0.65572
 N402 N 0.80858 0.15589 0.64374
 C403 C 0.79529 0.15317 0.63327
 C404 C 0.78670 0.13902 0.63906
 C405 C 0.79542 0.13357 0.65329
 H406 H 0.79211 0.16087 0.62227
 H407 H 0.79236 0.12269 0.66117
 N408 N 0.84393 0.19093 0.64369
 N409 N 0.85581 0.19088 0.65561
 C410 C 0.86634 0.20417 0.65299
 C411 C 0.86076 0.21286 0.63880
 C412 C 0.84660 0.20424 0.63317
 H413 H 0.87722 0.20733 0.66079
 H414 H 0.83884 0.20748 0.62225
 H415 H 0.83111 0.17415 0.66841
 H416 H 0.84483 0.16044 0.65464
 N417 N 1.34438 0.35571 0.69085
 N418 N 1.35628 0.34392 0.69056
 C419 C 1.36688 0.34636 0.70384
 C420 C 1.36125 0.36038 0.71278
 C421 C 1.34700 0.36605 0.70429
 H422 H 1.37785 0.33858 0.70681
 H423 H 1.33916 0.37686 0.70762
 Cu424 Cu 1.35670 0.32653 0.67289
 Cu425 Cu 1.32636 0.35679 0.67387
 Cu426 Cu 1.32630 0.32557 0.64267
 N427 N 1.35619 0.30883 0.65554
 N428 N 1.34428 0.30854 0.64375
 C429 C 1.34687 0.29510 0.63341
 C430 C 1.36111 0.28660 0.63911
 C431 C 1.36678 0.29553 0.65311
 H432 H 1.33902 0.29179 0.62258
 H433 H 1.37776 0.29257 0.66089
 N434 N 1.30918 0.34386 0.64371
 N435 N 1.30920 0.35575 0.65562
 C436 C 1.29593 0.36631 0.65298
 C437 C 1.28727 0.36073 0.63879
 C438 C 1.29590 0.34654 0.63318
 H439 H 1.29275 0.37722 0.66076
 H440 H 1.29270 0.33878 0.62226
 H441 H 1.32634 0.33102 0.66844
 H442 H 1.33967 0.34493 0.65446
 N443 N 1.34463 0.85577 1.19119
 N444 N 1.35653 0.84397 1.19090
 C445 C 1.36714 0.84641 1.20419
 C446 C 1.36150 0.86044 1.21311
 C447 C 1.34725 0.86612 1.20462
 H448 H 1.37810 0.83862 1.20715
 H449 H 1.33940 0.87695 1.20794
 Cu450 Cu 1.35694 0.82658 1.17322
 Cu451 Cu 1.32661 0.85683 1.17419
 Cu452 Cu 1.32659 0.82561 1.14297
 N453 N 1.35650 0.80890 1.15584
 N454 N 1.34460 0.80861 1.14404
 C455 C 1.34721 0.79519 1.13369
 C456 C 1.36145 0.78669 1.13938
 C457 C 1.36711 0.79561 1.15340
 H458 H 1.33936 0.79187 1.12286
 H459 H 1.37808 0.79265 1.16119
 N460 N 1.30943 0.84388 1.14402
 N461 N 1.30943 0.85578 1.15593
 C462 C 1.29615 0.86632 1.15326
 C463 C 1.28750 0.86073 1.13907
 C464 C 1.29615 0.84654 1.13348
 H465 H 1.29297 0.87724 1.16103
 H466 H 1.29297 0.83877 1.12256
 H467 H 1.32659 0.83108 1.16874
 H468 H 1.33992 0.84499 1.15479
 N469 N 0.84432 0.35606 1.19141
 N470 N 0.85598 0.34401 1.19135
 C471 C 0.86659 0.34641 1.20462
 C472 C 0.86121 0.36065 1.21334
 C473 C 0.84710 0.36652 1.20473
 H474 H 0.87740 0.33844 1.20774
 H475 H 0.83943 0.37752 1.20790
 Cu476 Cu 0.85609 0.32653 1.17380
 Cu477 Cu 0.82635 0.35726 1.17433
 Cu478 Cu 0.82637 0.32596 1.14305
 N479 N 0.85601 0.30898 1.15631
 N480 N 0.84434 0.30891 1.14426
 C481 C 0.84712 0.29559 1.13381
 C482 C 0.86123 0.28697 1.13966
 C483 C 0.86661 0.29571 1.15390
 H484 H 0.83945 0.29240 1.12281
 H485 H 0.87742 0.29258 1.16186
 N486 N 0.80927 0.34431 1.14405
 N487 N 0.80926 0.35623 1.15594
 C488 C 0.79599 0.36677 1.15324
 C489 C 0.78736 0.36115 1.13905
 C490 C 0.79601 0.34696 1.13348
 H491 H 0.79277 0.37767 1.16102
 H492 H 0.79282 0.33916 1.12259
 H493 H 0.82580 0.33155 1.16880
 H494 H 0.83965 0.34518 1.15513
 N495 N 0.84393 0.85594 0.69109
 N496 N 0.85561 0.84391 0.69105
 C497 C 0.86617 0.84635 0.70435
 C498 C 0.86075 0.86060 0.71306
 C499 C 0.84667 0.86642 0.70439
 H500 H 0.87696 0.83841 0.70749
 H501 H 0.83902 0.87745 0.70752
 Cu502 Cu 0.85589 0.82626 0.67363
 Cu503 Cu 0.82605 0.85710 0.67399
 Cu504 Cu 0.82604 0.82595 0.64278
 N505 N 0.85561 0.80889 0.65593
 N506 N 0.84393 0.80885 0.64391
 C507 C 0.84667 0.79556 0.63341
 C508 C 0.86076 0.78690 0.63923
 C509 C 0.86618 0.79559 0.65348
 H510 H 0.83901 0.79244 0.62239
 H511 H 0.87697 0.79244 0.66142
 N512 N 0.80897 0.84429 0.64374
 N513 N 0.80898 0.85618 0.65565
 C514 C 0.79574 0.86675 0.65297
 C515 C 0.78710 0.86118 0.63877
 C516 C 0.79572 0.84699 0.63318
 H517 H 0.79254 0.87766 0.66077
 H518 H 0.79251 0.83920 0.62227
 H519 H 0.82569 0.83130 0.66861
 H520 H 0.83959 0.84497 0.65492
 N521 N 0.65599 0.64393 0.69087
 N522 N 0.64410 0.65572 0.69056
 C523 C 0.63348 0.65328 0.70383
 C524 C 0.63909 0.63926 0.71279
 C525 C 0.65335 0.63358 0.70431
 H526 H 0.62252 0.66107 0.70679
 H527 H 0.66119 0.62277 0.70768
 Cu528 Cu 0.64369 0.67314 0.67290
 Cu529 Cu 0.67404 0.64290 0.67393
 Cu530 Cu 0.67411 0.67417 0.64271
 N531 N 0.64422 0.69086 0.65557
 N532 N 0.65612 0.69117 0.64378
 C533 C 0.65351 0.70463 0.63345
 C534 C 0.63927 0.71313 0.63915
 C535 C 0.63363 0.70416 0.65315
 H536 H 0.66134 0.70798 0.62262
 H537 H 0.62265 0.70710 0.66092
 N538 N 0.69125 0.65589 0.64379
 N539 N 0.69123 0.64399 0.65570
 C540 C 0.70450 0.63344 0.65306
 C541 C 0.71316 0.63904 0.63887
 C542 C 0.70452 0.65323 0.63324
 H543 H 0.70766 0.62250 0.66083
 H544 H 0.70771 0.66099 0.62231
 H545 H 0.67407 0.66868 0.66849
 H546 H 0.66077 0.65479 0.65450
 N547 N 0.65586 1.14384 1.19153
 N548 N 0.64396 1.15563 1.19123
 C549 C 0.63334 1.15320 1.20451
 C550 C 0.63898 1.13918 1.21345
 C551 C 0.65323 1.13348 1.20498
 H552 H 0.62236 1.16098 1.20745
 H553 H 0.66106 1.12264 1.20830
 Cu554 Cu 0.64349 1.17301 1.17353
 Cu555 Cu 0.67387 1.14278 1.17453
 Cu556 Cu 0.67385 1.17402 1.14329
 N557 N 0.64395 1.19070 1.15614
 N558 N 0.65584 1.19100 1.14435
 C559 C 0.65322 1.20443 1.13399
 C560 C 0.63898 1.21293 1.13967
 C561 C 0.63334 1.20398 1.15370
 H562 H 0.66105 1.20777 1.12315
 H563 H 0.62237 1.20694 1.16147
 N564 N 0.69101 1.15577 1.14434
 N565 N 0.69103 1.14386 1.15625
 C566 C 0.70430 1.13332 1.15358
 C567 C 0.71294 1.13894 1.13937
 C568 C 0.70428 1.15313 1.13378
 H569 H 0.70749 1.12239 1.16134
 H570 H 0.70744 1.16091 1.12285
 H571 H 0.67385 1.16855 1.16908
 H572 H 0.66053 1.15463 1.15513
 N573 N 0.15536 0.64396 1.19109
 N574 N 0.14349 0.65579 1.19082
 C575 C 0.13278 0.65328 1.20403
 C576 C 0.13833 0.63915 1.21288
 C577 C 0.15262 0.63350 1.20443
 H578 H 0.12185 0.66110 1.20702
 H579 H 0.16046 0.62266 1.20775
 Cu580 Cu 0.14352 0.67342 1.17336
 Cu581 Cu 0.17356 0.64302 1.17422
 Cu582 Cu 0.17359 0.67439 1.14298
 N583 N 0.14355 0.69096 1.15583
 N584 N 0.15542 0.69126 1.14399
 C585 C 0.15270 0.70464 1.13357
 C586 C 0.13842 0.71307 1.13926
 C587 C 0.13285 0.70418 1.15335
 H588 H 0.16053 0.70797 1.12273
 H589 H 0.12190 0.70713 1.16116
 N590 N 0.19087 0.65620 1.14416
 N591 N 0.19087 0.64427 1.15606
 C592 C 0.20420 0.63379 1.15343
 C593 C 0.21288 0.63945 1.13928
 C594 C 0.20420 0.65361 1.13366
 H595 H 0.20736 0.62284 1.16118
 H596 H 0.20737 0.66140 1.12273
 H597 H 0.17384 0.66876 1.16872
 H598 H 0.16035 0.65499 1.15484
 N599 N 0.15531 1.14399 0.69123
 N600 N 0.14366 1.15604 0.69119
 C601 C 0.13297 1.15353 0.70440
 C602 C 0.13832 1.13920 0.71304
 C603 C 0.15246 1.13341 0.70445
 H604 H 0.12219 1.16151 0.70753
 H605 H 0.16012 1.12239 0.70760
 Cu606 Cu 0.14375 1.17389 0.67394
 Cu607 Cu 0.17340 1.14298 0.67430
 Cu608 Cu 0.17347 1.17427 0.64308
 N609 N 0.14377 1.19119 0.65615
 N610 N 0.15543 1.19124 0.64411
 C611 C 0.15261 1.20448 0.63354
 C612 C 0.13847 1.21307 0.63933
 C613 C 0.13309 1.20441 0.65365
 H614 H 0.16027 1.20761 0.62251
 H615 H 0.12229 1.20753 0.66160
 N616 N 0.19066 1.15603 0.64419
 N617 N 0.19064 1.14411 0.65609
 C618 C 0.20396 1.13361 0.65349
 C619 C 0.21266 1.13925 0.63933
 C620 C 0.20399 1.15341 0.63369
 H621 H 0.20713 1.12269 0.66127
 H622 H 0.20718 1.16120 0.62277
 H623 H 0.17395 1.16875 0.66887
 H624 H 0.15998 1.15520 0.65521
 N625 N 1.34412 0.64451 0.30916
 N626 N 1.35581 0.65651 0.30918
 C627 C 1.36636 0.65404 0.29587
 C628 C 1.36093 0.63979 0.28719
 C629 C 1.34685 0.63400 0.29588
 H630 H 1.37715 0.66195 0.29270
 H631 H 1.33919 0.62299 0.29276
 Cu632 Cu 1.35609 0.67420 0.32656
 Cu633 Cu 1.32623 0.64341 0.32626
 Cu634 Cu 1.32624 0.67461 0.35742
 N635 N 1.35582 0.69161 0.34422
 N636 N 1.34414 0.69168 0.35626
 C637 C 1.34688 0.70497 0.36675
 C638 C 1.36097 0.71360 0.36089
 C639 C 1.36639 0.70490 0.34664
 H640 H 1.33923 0.70811 0.37778
 H641 H 1.37718 0.70802 0.33868
 N642 N 1.30916 0.65631 0.35649
 N643 N 1.30916 0.64441 0.34459
 C644 C 1.29592 0.63385 0.34728
 C645 C 1.28728 0.63943 0.36148
 C646 C 1.29591 0.65363 0.36707
 H647 H 1.29274 0.62294 0.33950
 H648 H 1.29271 0.66141 0.37798
 H649 H 1.32589 0.66922 0.33159
 H650 H 1.33978 0.65555 0.34529
 N651 N 1.34408 1.14411 0.80891
 N652 N 1.35563 1.15622 0.80886
 C653 C 1.36627 1.15374 0.79561
 C654 C 1.36101 1.13937 0.78704
 C655 C 1.34695 1.13352 0.79572
 H656 H 1.37700 1.16173 0.79241
 H657 H 1.33939 1.12243 0.79266
 Cu658 Cu 1.35559 1.17406 0.82606
 Cu659 Cu 1.32613 1.14300 0.82596
 Cu660 Cu 1.32615 1.17424 0.85718
 N661 N 1.35565 1.19126 0.84388
 N662 N 1.34411 1.19124 0.85603
 C663 C 1.34700 1.20443 0.86661
 C664 C 1.36106 1.21307 0.86072
 C665 C 1.36630 1.20448 0.84633
 H666 H 1.33945 1.20751 0.87772
 H667 H 1.37703 1.20764 0.83831
 N668 N 1.30902 1.15597 0.85617
 N669 N 1.30902 1.14407 0.84427
 C670 C 1.29575 1.13355 0.84693
 C671 C 1.28710 1.13917 0.86111
 C672 C 1.29574 1.15333 0.86672
 H673 H 1.29255 1.12265 0.83915
 H674 H 1.29255 1.16112 0.87762
 H675 H 1.32548 1.16873 0.83140
 H676 H 1.33966 1.15523 0.84493
 N677 N 0.84404 0.64413 0.80888
 N678 N 0.85570 0.65614 0.80893
 C679 C 0.86629 0.65371 0.79563
 C680 C 0.86090 0.63946 0.78693
 C681 C 0.84681 0.63364 0.79559
 H682 H 0.87711 0.66162 0.79251
 H683 H 0.83921 0.62259 0.79249
 Cu684 Cu 0.85586 0.67364 0.82647
 Cu685 Cu 0.82611 0.64299 0.82600
 Cu686 Cu 0.82617 0.67428 0.85722
 N687 N 0.85576 0.69122 0.84393
 N688 N 0.84411 0.69133 0.85598
 C689 C 0.84692 0.70462 0.86644
 C690 C 0.86102 0.71322 0.86056
 C691 C 0.86638 0.70448 0.84630
 H692 H 0.83934 0.70776 0.87751
 H693 H 0.87718 0.70755 0.83834
 N694 N 0.80907 0.65596 0.85628
 N695 N 0.80905 0.64404 0.84438
 C696 C 0.79579 0.63352 0.84709
 C697 C 0.78717 0.63913 0.86129
 C698 C 0.79582 0.65331 0.86685
 H699 H 0.79259 0.62261 0.83932
 H700 H 0.79264 0.66111 0.87776
 H701 H 0.82571 0.66871 0.83149
 H702 H 0.83951 0.65503 0.84520
 N703 N 0.84401 1.14382 0.30893
 N704 N 0.85590 1.15560 0.30919
 C705 C 0.86649 1.15315 0.29589
 C706 C 0.86086 1.13914 0.28697
 C707 C 0.84662 1.13347 0.29550
 H708 H 0.87745 1.16091 0.29291
 H709 H 0.83879 1.12265 0.29219
 Cu710 Cu 0.85641 1.17298 0.32684
 Cu711 Cu 0.82604 1.14279 0.32595
 Cu712 Cu 0.82609 1.17405 0.35713
 N713 N 0.85597 1.19067 0.34417
 N714 N 0.84410 1.19100 0.35600
 C715 C 0.84676 1.20444 0.36631
 C716 C 0.86100 1.21289 0.36058
 C717 C 0.86659 1.20393 0.34656
 H718 H 0.83896 1.20779 0.37716
 H719 H 0.87755 1.20685 0.33876
 N720 N 0.80893 1.15581 0.35613
 N721 N 0.80892 1.14390 0.34424
 C722 C 0.79564 1.13339 0.34692
 C723 C 0.78701 1.13901 0.36111
 C724 C 0.79566 1.15319 0.36669
 H725 H 0.79246 1.12247 0.33916
 H726 H 0.79249 1.16097 0.37761
 H727 H 0.82605 1.16856 0.33134
 H728 H 0.83940 1.15464 0.34529
 N729 N 0.65557 0.35563 0.30880
 N730 N 0.64400 0.34352 0.30879
 C731 C 0.63333 0.34599 0.29555
 C732 C 0.63860 0.36037 0.28695
 C733 C 0.65268 0.36622 0.29559
 H734 H 0.62259 0.33800 0.29240
 H735 H 0.66024 0.37731 0.29250
 Cu736 Cu 0.64407 0.32571 0.32607
 Cu737 Cu 0.67356 0.35674 0.32582
 Cu738 Cu 0.67360 0.32553 0.35712
 N739 N 0.64405 0.30848 0.34393
 N740 N 0.65563 0.30850 0.35605
 C741 C 0.65278 0.29532 0.36667
 C742 C 0.63870 0.28667 0.36082
 C743 C 0.63340 0.29525 0.34643
 H744 H 0.66037 0.29225 0.37776
 H745 H 0.62266 0.29208 0.33843
 N746 N 0.69073 0.34380 0.35604
 N747 N 0.69072 0.35570 0.34412
 C748 C 0.70400 0.36623 0.34675
 C749 C 0.71267 0.36062 0.36094
 C750 C 0.70402 0.34645 0.36657
 H751 H 0.70718 0.37713 0.33895
 H752 H 0.70721 0.33867 0.37749
 H753 H 0.67420 0.33101 0.33133
 H754 H 0.66007 0.34454 0.34486
 N755 N 0.65608 0.85611 0.80901
 N756 N 0.64442 0.84406 0.80908
 C757 C 0.63386 0.84650 0.79579
 C758 C 0.63922 0.86074 0.78705
 C759 C 0.65331 0.86658 0.79570
 H760 H 0.62309 0.83854 0.79267
 H761 H 0.66092 0.87761 0.79253
 Cu762 Cu 0.64417 0.82639 0.82649
 Cu763 Cu 0.67398 0.85724 0.82606
 Cu764 Cu 0.67409 0.82607 0.85731
 N765 N 0.64453 0.80903 0.84421
 N766 N 0.65623 0.80899 0.85625
 C767 C 0.65352 0.79569 0.86675
 C768 C 0.63943 0.78703 0.86094
 C769 C 0.63401 0.79573 0.84669
 H770 H 0.66117 0.79255 0.87778
 H771 H 0.62322 0.79260 0.83875
 N772 N 0.69113 0.84440 0.85629
 N773 N 0.69108 0.85630 0.84437
 C774 C 0.70432 0.86687 0.84701
 C775 C 0.71299 0.86129 0.86120
 C776 C 0.70439 0.84709 0.86683
 H777 H 0.70748 0.87777 0.83920
 H778 H 0.70761 0.83931 0.87775
 H779 H 0.67437 0.83143 0.83146
 H780 H 0.66047 0.84510 0.84516
 N781 N 0.15585 0.35567 0.80921
 N782 N 0.14418 0.34366 0.80931
 C783 C 0.13357 0.34611 0.79604
 C784 C 0.13899 0.36031 0.78725
 C785 C 0.15309 0.36613 0.79588
 H786 H 0.12284 0.33811 0.79287
 H787 H 0.16076 0.37711 0.79266
 Cu788 Cu 0.14429 0.32582 0.82655
 Cu789 Cu 0.17384 0.35680 0.82622
 Cu790 Cu 0.17395 0.32559 0.85749
 N791 N 0.14430 0.30862 0.84442
 N792 N 0.15600 0.30854 0.85643
 C793 C 0.15330 0.29523 0.86693
 C794 C 0.13919 0.28661 0.86111
 C795 C 0.13371 0.29535 0.84689
 H796 H 0.16100 0.29205 0.87791
 H797 H 0.12296 0.29219 0.83890
 N798 N 0.19102 0.34392 0.85643
 N799 N 0.19097 0.35581 0.84450
 C800 C 0.20417 0.36643 0.84718
 C801 C 0.21282 0.36088 0.86140
 C802 C 0.20425 0.34666 0.86701
 H803 H 0.20730 0.37735 0.83938
 H804 H 0.20746 0.33891 0.87795
 H805 H 0.17450 0.33094 0.83161
 H806 H 0.16047 0.34451 0.84522
 N807 N 0.15566 0.85542 0.30931
 N808 N 0.14384 0.84356 0.30957
 C809 C 0.13322 0.84599 0.29629
 C810 C 0.13877 0.86006 0.28738
 C811 C 0.15298 0.86578 0.29589
 H812 H 0.12230 0.83818 0.29332
 H813 H 0.16073 0.87666 0.29258
 Cu814 Cu 0.14350 0.82617 0.32726
 Cu815 Cu 0.17366 0.85654 0.32629
 Cu816 Cu 0.17377 0.82532 0.35757
 N817 N 0.14397 0.80851 0.34467
 N818 N 0.15583 0.80828 0.35651
 C819 C 0.15322 0.79486 0.36690
 C820 C 0.13902 0.78634 0.36118
 C821 C 0.13340 0.79522 0.34711
 H822 H 0.16102 0.79159 0.37779
 H823 H 0.12245 0.79224 0.33930
 N824 N 0.19086 0.84363 0.35649
 N825 N 0.19082 0.85553 0.34457
 C826 C 0.20407 0.86609 0.34719
 C827 C 0.21275 0.86050 0.36139
 C828 C 0.20414 0.84631 0.36702
 H829 H 0.20722 0.87700 0.33939
 H830 H 0.20736 0.83854 0.37795
 H831 H 0.17381 0.83080 0.33177
 H832 H 0.16037 0.84465 0.34567
 O833 O 0.98340 0.93857 0.91517
 O834 O 0.98343 0.91874 0.89528
 C835 C 0.97754 0.93254 0.90135
 C836 C 0.96331 0.94132 0.89259
 C837 C 0.95634 0.93455 0.87755
 H838 H 0.96179 0.92322 0.87184
 O839 O 1.01676 1.06182 0.91502
 O840 O 1.01670 1.08167 0.89510
 C841 C 1.02260 1.06786 0.90117
 C842 C 1.03679 1.05906 0.89239
 C843 C 1.04375 1.06582 0.87733
 H844 H 1.03832 1.07716 0.87161
 O845 O 0.91524 0.98351 0.93847
 O846 O 0.89541 0.98354 0.91858
 C847 C 0.90145 0.97765 0.93241
 C848 C 0.89271 0.96342 0.94121
 C849 C 0.87769 0.95646 0.93444
 H850 H 0.87197 0.96192 0.92311
 O851 O 1.08482 1.01683 0.93834
 O852 O 1.10469 1.01677 0.91848
 C853 C 1.09864 1.02266 0.93229
 C854 C 1.10741 1.03685 0.94109
 C855 C 1.12244 1.04379 0.93432
 H856 H 1.12814 1.03833 0.92297
 O857 O 0.93851 0.91521 0.98341
 O858 O 0.91872 0.89532 0.98341
 C859 C 0.93250 0.90140 0.97753
 C860 C 0.94130 0.89266 0.96329
 C861 C 0.93455 0.87764 0.95629
 H862 H 0.92323 0.87193 0.96172
 O863 O 1.06172 1.08508 0.98320
 O864 O 1.08155 1.10494 0.98321
 C865 C 1.06777 1.09889 0.97731
 C866 C 1.05900 1.10766 0.96305
 C867 C 1.06575 1.12268 0.95603
 H868 H 1.07708 1.12838 0.96146
 O869 O 0.93861 1.01679 0.91518
 O870 O 0.91881 1.01684 0.89526
 C871 C 0.93260 1.02270 0.90135
 C872 C 0.94138 1.03694 0.89262
 C873 C 0.93461 1.04394 0.87758
 H874 H 0.92330 1.03850 0.87186
 O875 O 1.06146 0.98358 0.91505
 O876 O 1.08130 0.98350 0.89516
 C877 C 1.06750 0.97766 0.90124
 C878 C 1.05872 0.96343 0.89252
 C879 C 1.06549 0.95644 0.87748
 H880 H 1.07680 0.96189 0.87175
 O881 O 1.01669 0.91527 0.93854
 O882 O 1.01673 0.89541 0.91868
 C883 C 1.02259 0.90147 0.93250
 C884 C 1.03681 0.89273 0.94130
 C885 C 1.04380 0.87771 0.93451
 H886 H 1.03836 0.87201 0.92316
 O887 O 0.98355 1.08510 0.93847
 O888 O 0.98345 1.10497 0.91859
 C889 C 0.97762 1.09889 0.93243
 C890 C 0.96338 1.10760 0.94123
 C891 C 0.95638 1.12263 0.93447
 H892 H 0.96182 1.12837 0.92313
 O893 O 0.91522 1.06165 0.98339
 O894 O 0.89537 1.08152 0.98339
 C895 C 0.90143 1.06772 0.97750
 C896 C 0.89270 1.05896 0.96324
 C897 C 0.87768 1.06574 0.95626
 H898 H 0.87196 1.07706 0.96171
 O899 O 1.08475 0.93853 0.98358
 O900 O 1.10463 0.91870 0.98347
 C901 C 1.09854 0.93252 0.97764
 C902 C 1.10724 0.94137 0.96340
 C903 C 1.12232 0.93467 0.95647
 H904 H 1.12807 0.92337 0.96195
 O905 O 0.98352 1.06177 0.91515
 O906 O 0.98343 1.08162 0.89523
 C907 C 0.97760 1.06780 0.90133
 C908 C 0.96338 1.05900 0.89261
 C909 C 0.95639 1.06578 0.87756
 H910 H 0.96181 1.07711 0.87183
 O911 O 1.01666 0.93859 0.91516
 O912 O 1.01669 0.91875 0.89526
 C913 C 1.02254 0.93256 0.90133
 C914 C 1.03673 0.94136 0.89256
 C915 C 1.04372 0.93459 0.87752
 H916 H 1.03831 0.92325 0.87182
 O917 O 1.08469 0.98355 0.93846
 O918 O 1.10456 0.98347 0.91861
 C919 C 1.09848 0.97763 0.93245
 C920 C 1.10721 0.96342 0.94130
 C921 C 1.12228 0.95649 0.93459
 H922 H 1.12801 0.96195 0.92326
 O923 O 0.91524 1.01680 0.93844
 O924 O 0.89540 1.01685 0.91855
 C925 C 0.90145 1.02270 0.93238
 C926 C 0.89272 1.03693 0.94117
 C927 C 0.87769 1.04392 0.93441
 H928 H 0.87197 1.03847 0.92308
 O929 O 0.93855 1.08492 0.98338
 O930 O 0.91874 1.10482 0.98338
 C931 C 0.93253 1.09875 0.97750
 C932 C 0.94133 1.10752 0.96328
 C933 C 0.93455 1.12256 0.95630
 H934 H 0.92322 1.12826 0.96175
 O935 O 1.06156 0.91514 0.98360
 O936 O 1.08140 0.89527 0.98349
 C937 C 1.06760 0.90136 0.97765
 C938 C 1.05882 0.89267 0.96338
 C939 C 1.06560 0.87767 0.95637
 H940 H 1.07692 0.87193 0.96180
 O941 O 1.06151 1.01688 0.91499
 O942 O 1.08135 1.01682 0.89511
 C943 C 1.06756 1.02274 0.90116
 C944 C 1.05880 1.03698 0.89239
 C945 C 1.06557 1.04397 0.87733
 H946 H 1.07688 1.03852 0.87162
 O947 O 0.93853 0.98349 0.91512
 O948 O 0.91873 0.98352 0.89520
 C949 C 0.93251 0.97762 0.90129
 C950 C 0.94128 0.96337 0.89256
 C951 C 0.93452 0.95638 0.87752
 H952 H 0.92320 0.96182 0.87179
 O953 O 1.01682 1.08515 0.93834
 O954 O 1.01675 1.10503 0.91846
 C955 C 1.02267 1.09896 0.93227
 C956 C 1.03692 1.10769 0.94102
 C957 C 1.04389 1.12272 0.93422
 H958 H 1.03842 1.12845 0.92290
 O959 O 0.98343 0.91522 0.93851
 O960 O 0.98346 0.89536 0.91864
 C961 C 0.97757 0.90141 0.93246
 C962 C 0.96336 0.89266 0.94125
 C963 C 0.95639 0.87764 0.93446
 H964 H 0.96184 0.87194 0.92312
 O965 O 1.08494 1.06166 0.98327
 O966 O 1.10480 1.08148 0.98326
 C967 C 1.09874 1.06768 0.97739
 C968 C 1.10746 1.05888 0.96316
 C969 C 1.12249 1.06561 0.95617
 H970 H 1.12822 1.07692 0.96161
 O971 O 0.91525 0.93858 0.98341
 O972 O 0.89542 0.91872 0.98341
 C973 C 0.90146 0.93254 0.97752
 C974 C 0.89272 0.94134 0.96328
 C975 C 0.87771 0.93459 0.95629
 H976 H 0.87200 0.92326 0.96174
 Cu977 Cu 1.00004 0.92890 0.92883
 Cu978 Cu 1.00008 0.90507 0.90497
 Cu979 Cu 1.00018 1.07148 0.92874
 Cu980 Cu 1.00007 1.09531 0.90486
 Cu981 Cu 0.92889 1.00014 0.92879
 Cu982 Cu 0.90511 1.00019 0.90490
 Cu983 Cu 1.07113 1.00022 0.92870
 Cu984 Cu 1.09496 1.00013 0.90484
 C985 C 0.95581 0.95587 0.89988
 H986 H 0.96094 0.96102 0.91161
 C987 C 0.94201 0.94202 0.87008
 C988 C 1.04428 1.04450 0.89969
 H989 H 1.03914 1.03935 0.91143
 C990 C 1.05809 1.05832 0.86986
 C991 C 0.90001 0.95589 0.95576
 H992 H 0.91172 0.96102 0.96091
 C993 C 0.87025 0.94211 0.94194
 C994 C 1.10014 1.04436 0.95565
 H995 H 1.08842 1.03925 0.96080
 C996 C 1.12992 1.05810 0.94181
 C997 C 0.95584 0.89995 0.95580
 H998 H 0.96098 0.91166 0.96096
 C999 C 0.94205 0.87019 0.94194
 C1000 C 1.04445 1.10038 0.95556
 H1001 H 1.03932 1.08866 0.96073
 C1002 C 1.05824 1.13016 0.94168
 C1003 C 0.95590 1.04445 0.89993
 H1004 H 0.96105 1.03930 0.91166
 C1005 C 0.94207 1.05829 0.87011
 C1006 C 1.04420 0.95593 0.89984
 H1007 H 1.03905 0.96108 0.91157
 C1008 C 1.05804 0.94209 0.87004
 C1009 C 1.04430 0.90000 0.95587
 H1010 H 1.03915 0.91172 0.96103
 C1011 C 1.05813 0.87025 0.94199
 C1012 C 0.95588 1.10025 0.95577
 H1013 H 0.96103 1.08852 0.96091
 C1014 C 0.94203 1.13005 0.94196
 C1015 C 0.90001 1.04443 0.95572
 H1016 H 0.91173 1.03929 0.96086
 C1017 C 0.87024 1.05826 0.94190
 C1018 C 1.09990 0.95588 0.95584
 H1019 H 1.08814 0.96097 0.96095
 C1020 C 1.12977 0.94218 0.94213
 O1021 O 1.01675 0.93848 1.08506
 O1022 O 1.01677 0.91864 1.10497
 C1023 C 1.02264 0.93244 1.09889
 C1024 C 1.03687 0.94121 1.10760
 C1025 C 1.04383 0.93445 1.12266
 H1026 H 1.03837 0.92315 1.12842
 O1027 O 0.98352 1.06146 1.08480
 O1028 O 0.98351 1.08126 1.10473
 C1029 C 0.97766 1.06747 1.09864
 C1030 C 0.96347 1.05866 1.10742
 C1031 C 0.95653 1.06542 1.12248
 H1032 H 0.96197 1.07674 1.12819
 O1033 O 0.91524 1.01662 1.06172
 O1034 O 0.89541 1.01667 1.08162
 C1035 C 0.90147 1.02254 1.06779
 C1036 C 0.89275 1.03682 1.05901
 C1037 C 0.87774 1.04382 1.06579
 H1038 H 0.87203 1.03837 1.07713
 O1039 O 1.08513 0.98328 1.06161
 O1040 O 1.10496 0.98329 1.08150
 C1041 C 1.09893 0.97740 1.06768
 C1042 C 1.10767 0.96316 1.05891
 C1043 C 1.12269 0.95618 1.06568
 H1044 H 1.12842 0.96163 1.07700
 O1045 O 1.06165 0.91506 1.01695
 O1046 O 1.08149 0.89519 1.01687
 C1047 C 1.06771 0.90124 1.02281
 C1048 C 1.05897 0.89248 1.03709
 C1049 C 1.06577 0.87746 1.04410
 H1050 H 1.07710 0.87176 1.03865
 O1051 O 0.93855 1.08491 1.01669
 O1052 O 0.91874 1.10481 1.01671
 C1053 C 0.93254 1.09873 1.02257
 C1054 C 0.94136 1.10747 1.03677
 C1055 C 0.93465 1.12253 1.04372
 H1056 H 0.92334 1.12828 1.03828
 O1057 O 0.93850 0.98321 1.08506
 O1058 O 0.91870 0.98326 1.10498
 C1059 C 0.93248 0.97734 1.09891
 C1060 C 0.94126 0.96310 1.10768
 C1061 C 0.93450 0.95613 1.12274
 H1062 H 0.92317 0.96157 1.12845
 O1063 O 1.06168 1.01652 1.08484
 O1064 O 1.08147 1.01655 1.10477
 C1065 C 1.06767 1.02240 1.09867
 C1066 C 1.05884 1.03659 1.10741
 C1067 C 1.06555 1.04354 1.12249
 H1068 H 1.07687 1.03810 1.12822
 O1069 O 0.98356 0.91518 1.06168
 O1070 O 0.98353 0.89530 1.08156
 C1071 C 0.97768 0.90137 1.06772
 C1072 C 0.96348 0.89265 1.05889
 C1073 C 0.95655 0.87759 1.06563
 H1074 H 0.96200 0.87184 1.07695
 O1075 O 1.01675 1.08484 1.06149
 O1076 O 1.01675 1.10467 1.08139
 C1077 C 1.02262 1.09864 1.06755
 C1078 C 1.03681 1.10741 1.05876
 C1079 C 1.04376 1.12243 1.06555
 H1080 H 1.03832 1.12812 1.07690
 O1081 O 0.91519 0.93850 1.01673
 O1082 O 0.89536 0.91865 1.01676
 C1083 C 0.90140 0.93245 1.02263
 C1084 C 0.89265 0.94125 1.03686
 C1085 C 0.87762 0.93451 1.04384
 H1086 H 0.87190 0.92320 1.03839
 O1087 O 1.08493 1.06169 1.01659
 O1088 O 1.10480 1.08151 1.01663
 C1089 C 1.09872 1.06770 1.02251
 C1090 C 1.10744 1.05889 1.03677
 C1091 C 1.12244 1.06565 1.04379
 H1092 H 1.12814 1.07700 1.03836
 O1093 O 1.01676 1.06146 1.08479
 O1094 O 1.01676 1.08126 1.10472
 C1095 C 1.02262 1.06746 1.09863
 C1096 C 1.03680 1.05863 1.10740
 C1097 C 1.04373 1.06536 1.12247
 H1098 H 1.03828 1.07668 1.12820
 O1099 O 0.98348 0.93834 1.08518
 O1100 O 0.98347 0.91849 1.10509
 C1101 C 0.97758 0.93229 1.09901
 C1102 C 0.96333 0.94107 1.10774
 C1103 C 0.95634 0.93431 1.12280
 H1104 H 0.96180 0.92300 1.12855
 O1105 O 1.08500 1.01659 1.06152
 O1106 O 1.10482 1.01662 1.08142
 C1107 C 1.09876 1.02250 1.06759
 C1108 C 1.10746 1.03678 1.05881
 C1109 C 1.12246 1.04376 1.06561
 H1110 H 1.12818 1.03829 1.07693
 O1111 O 0.91522 0.98332 1.06167
 O1112 O 0.89539 0.98335 1.08157
 C1113 C 0.90142 0.97747 1.06773
 C1114 C 0.89266 0.96328 1.05893
 C1115 C 0.87762 0.95634 1.06569
 H1116 H 0.87191 0.96180 1.07702
 O1117 O 1.06160 1.08497 1.01653
 O1118 O 1.08142 1.10483 1.01658
 C1119 C 1.06762 1.09876 1.02244
 C1120 C 1.05883 1.10747 1.03668
 C1121 C 1.06557 1.12248 1.04369
 H1122 H 1.07688 1.12822 1.03825
 O1123 O 0.93861 0.91529 1.01673
 O1124 O 0.91882 0.89540 1.01676
 C1125 C 0.93261 0.90147 1.02262
 C1126 C 0.94143 0.89271 1.03684
 C1127 C 0.93471 0.87765 1.04380
 H1128 H 0.92340 0.87194 1.03836
 O1129 O 1.06175 0.98325 1.08488
 O1130 O 1.08154 0.98326 1.10481
 C1131 C 1.06776 0.97738 1.09874
 C1132 C 1.05896 0.96318 1.10752
 C1133 C 1.06570 0.95620 1.12259
 H1134 H 1.07703 0.96162 1.12830
 O1135 O 0.93865 1.01651 1.08494
 O1136 O 0.91886 1.01657 1.10487
 C1137 C 0.93265 1.02241 1.09877
 C1138 C 0.94146 1.03662 1.10748
 C1139 C 0.93472 1.04361 1.12253
 H1140 H 0.92341 1.03818 1.12827
 O1141 O 0.98350 1.08486 1.06151
 O1142 O 0.98349 1.10469 1.08141
 C1143 C 0.97762 1.09866 1.06758
 C1144 C 0.96342 1.10743 1.05880
 C1145 C 0.95649 1.12249 1.06555
 H1146 H 0.96195 1.12820 1.07688
 O1147 O 1.01682 0.91501 1.06189
 O1148 O 1.01681 0.89513 1.08176
 C1149 C 1.02270 0.90120 1.06795
 C1150 C 1.03695 0.89246 1.05918
 C1151 C 1.04396 0.87744 1.06597
 H1152 H 1.03854 0.87172 1.07732
 O1153 O 1.08498 0.93834 1.01689
 O1154 O 1.10485 0.91850 1.01680
 C1155 C 1.09882 0.93230 1.02271
 C1156 C 1.10761 0.94108 1.03690
 C1157 C 1.12264 0.93431 1.04386
 H1158 H 1.12834 0.92298 1.03842
 O1159 O 0.91525 1.06161 1.01674
 O1160 O 0.89541 1.08148 1.01676
 C1161 C 0.90147 1.06767 1.02265
 C1162 C 0.89275 1.05889 1.03693
 C1163 C 0.87774 1.06567 1.04393
 H1164 H 0.87203 1.07701 1.03848
 Cu1165 Cu 1.00015 0.92874 1.07147
 Cu1166 Cu 1.00014 0.90490 1.09534
 Cu1167 Cu 1.00013 1.07117 1.07115
 Cu1168 Cu 1.00013 1.09496 1.09506
 Cu1169 Cu 0.92887 0.92889 1.00007
 Cu1170 Cu 0.90509 0.90503 1.00009
 Cu1171 Cu 1.07124 0.92875 1.00028
 Cu1172 Cu 1.09508 0.90492 1.00014
 Cu1173 Cu 0.92887 1.07128 1.00005
 Cu1174 Cu 0.90507 1.09515 1.00006
 Cu1175 Cu 1.07131 1.07137 0.99989
 Cu1176 Cu 1.09513 1.09518 0.99992
 Cu1177 Cu 0.92888 0.99990 1.07135
 Cu1178 Cu 0.90511 0.99996 1.09526
 Cu1179 Cu 1.07142 0.99990 1.07121
 Cu1180 Cu 1.09519 0.99994 1.09512
 C1181 C 1.04441 0.95571 1.10024
 H1182 H 1.03927 0.96085 1.08850
 C1183 C 1.05819 0.94190 1.13010
 C1184 C 0.95597 1.04412 1.10013
 H1185 H 0.96108 1.03898 1.08838
 C1186 C 0.94221 1.05794 1.12996
 C1187 C 0.90004 1.04434 1.04444
 H1188 H 0.91174 1.03918 1.03928
 C1189 C 0.87029 1.05819 1.05830
 C1190 C 1.10035 0.95565 1.04439
 H1191 H 1.08863 0.96080 1.03925
 C1192 C 1.13013 0.94181 1.05820
 C1193 C 1.04443 0.89976 1.04460
 H1194 H 1.03926 0.91146 1.03943
 C1195 C 1.05832 0.87000 1.05849
 C1196 C 0.95588 1.10013 1.04427
 H1197 H 0.96098 1.08838 1.03914
 C1198 C 0.94217 1.12998 1.05806
 C1199 C 0.95580 0.95560 1.10040
 H1200 H 0.96095 0.96074 1.08866
 C1201 C 0.94199 0.94179 1.13025
 C1202 C 1.04433 1.04411 1.10008
 H1203 H 1.03922 1.03899 1.08832
 C1204 C 1.05805 1.05786 1.12995
 C1205 C 0.95595 0.90000 1.04436
 H1206 H 0.96106 0.91175 1.03924
 C1207 C 0.94222 0.87015 1.05814
 C1208 C 1.04432 1.10014 1.04419
 H1209 H 1.03920 1.08842 1.03903
 C1210 C 1.05808 1.12990 1.05806
 C1211 C 0.89996 0.95577 1.04438
 H1212 H 0.91168 0.96088 1.03924
 C1213 C 0.87016 0.94202 1.05819
 C1214 C 1.10016 1.04433 1.04427
 H1215 H 1.08846 1.03919 1.03910
 C1216 C 1.12989 1.05813 1.05814
 O1217 O 0.98335 0.43822 0.41484
 O1218 O 0.98344 0.41837 0.39497
 C1219 C 0.97751 0.43216 0.40101
 C1220 C 0.96327 0.44091 0.39223
 C1221 C 0.95631 0.43413 0.37720
 H1222 H 0.96177 0.42280 0.37149
 O1223 O 1.01691 0.56140 0.41486
 O1224 O 1.01684 0.58123 0.39493
 C1225 C 1.02276 0.56745 0.40102
 C1226 C 1.03702 0.55869 0.39227
 C1227 C 1.04400 0.56549 0.37724
 H1228 H 1.03855 0.57682 0.37151
 O1229 O 0.91509 0.48300 0.43817
 O1230 O 0.89527 0.48310 0.41827
 C1231 C 0.90129 0.47717 0.43209
 C1232 C 0.89252 0.46293 0.44087
 C1233 C 0.87751 0.45596 0.43409
 H1234 H 0.87181 0.46141 0.42275
 O1235 O 1.08503 0.51648 0.43836
 O1236 O 1.10488 0.51645 0.41848
 C1237 C 1.09883 0.52235 0.43230
 C1238 C 1.10755 0.53659 0.44107
 C1239 C 1.12257 0.54356 0.43429
 H1240 H 1.12830 0.53809 0.42298
 O1241 O 0.93845 0.41498 0.48316
 O1242 O 0.91868 0.39507 0.48321
 C1243 C 0.93245 0.40115 0.47731
 C1244 C 0.94126 0.39241 0.46308
 C1245 C 0.93454 0.37737 0.45610
 H1246 H 0.92322 0.37165 0.46154
 O1247 O 1.06165 0.58483 0.48314
 O1248 O 1.08145 0.60470 0.48314
 C1249 C 1.06767 0.59864 0.47725
 C1250 C 1.05888 0.60738 0.46300
 C1251 C 1.06560 0.62243 0.45600
 H1252 H 1.07690 0.62816 0.46144
 O1253 O 0.93860 0.51627 0.41500
 O1254 O 0.91882 0.51641 0.39506
 C1255 C 0.93262 0.52222 0.40117
 C1256 C 0.94146 0.53643 0.39244
 C1257 C 0.93476 0.54340 0.37736
 H1258 H 0.92345 0.53799 0.37162
 O1259 O 1.06164 0.48325 0.41508
 O1260 O 1.08145 0.48318 0.39517
 C1261 C 1.06765 0.47735 0.40126
 C1262 C 1.05883 0.46315 0.39251
 C1263 C 1.06558 0.45618 0.37746
 H1264 H 1.07690 0.46161 0.37174
 O1265 O 1.01663 0.41501 0.43834
 O1266 O 1.01672 0.39512 0.41849
 C1267 C 1.02255 0.40120 0.43232
 C1268 C 1.03676 0.39246 0.44115
 C1269 C 1.04372 0.37742 0.43440
 H1270 H 1.03828 0.37169 0.42308
 O1271 O 0.98360 0.58466 0.43824
 O1272 O 0.98351 0.60451 0.41834
 C1273 C 0.97767 0.59846 0.43218
 C1274 C 0.96345 0.60719 0.44099
 C1275 C 0.95648 0.62224 0.43423
 H1276 H 0.96192 0.62798 0.42290
 O1277 O 0.91531 0.56132 0.48320
 O1278 O 0.89545 0.58117 0.48316
 C1279 C 0.90152 0.56736 0.47729
 C1280 C 0.89278 0.55856 0.46306
 C1281 C 0.87774 0.56533 0.45610
 H1282 H 0.87203 0.57665 0.46155
 O1283 O 1.08501 0.43813 0.48328
 O1284 O 1.10486 0.41826 0.48328
 C1285 C 1.09880 0.43207 0.47738
 C1286 C 1.10754 0.44086 0.46312
 C1287 C 1.12255 0.43408 0.45611
 H1288 H 1.12826 0.42274 0.46156
 O1289 O 0.98364 0.56124 0.41500
 O1290 O 0.98355 0.58106 0.39507
 C1291 C 0.97772 0.56725 0.40117
 C1292 C 0.96352 0.55844 0.39244
 C1293 C 0.95659 0.56518 0.37736
 H1294 H 0.96205 0.57649 0.37161
 O1295 O 1.01662 0.43837 0.41501
 O1296 O 1.01673 0.41852 0.39513
 C1297 C 1.02255 0.43234 0.40121
 C1298 C 1.03678 0.44114 0.39249
 C1299 C 1.04375 0.43439 0.37743
 H1300 H 1.03831 0.42308 0.37170
 O1301 O 1.08506 0.48316 0.43831
 O1302 O 1.10491 0.48311 0.41844
 C1303 C 1.09885 0.47723 0.43226
 C1304 C 1.10756 0.46295 0.44105
 C1305 C 1.12257 0.45595 0.43427
 H1306 H 1.12829 0.46141 0.42294
 O1307 O 0.91520 0.51630 0.43825
 O1308 O 0.89538 0.51643 0.41835
 C1309 C 0.90144 0.52225 0.43219
 C1310 C 0.89273 0.53650 0.44100
 C1311 C 0.87769 0.54349 0.43426
 H1312 H 0.87195 0.53803 0.42295
 O1313 O 0.93864 0.58461 0.48320
 O1314 O 0.91881 0.60449 0.48316
 C1315 C 0.93262 0.59842 0.47730
 C1316 C 0.94141 0.60717 0.46306
 C1317 C 0.93467 0.62223 0.45609
 H1318 H 0.92335 0.62795 0.46154
 O1319 O 1.06157 0.41496 0.48336
 O1320 O 1.08138 0.39506 0.48334
 C1321 C 1.06759 0.40115 0.47747
 C1322 C 1.05879 0.39244 0.46323
 C1323 C 1.06554 0.37740 0.45625
 H1324 H 1.07685 0.37167 0.46170
 O1325 O 1.06183 0.51655 0.41491
 O1326 O 1.08165 0.51650 0.39500
 C1327 C 1.06787 0.52242 0.40107
 C1328 C 1.05909 0.53667 0.39230
 C1329 C 1.06587 0.54369 0.37726
 H1330 H 1.07721 0.53828 0.37156
 O1331 O 0.93842 0.48298 0.41484
 O1332 O 0.91864 0.48308 0.39490
 C1333 C 0.93240 0.47715 0.40099
 C1334 C 0.94119 0.46292 0.39223
 C1335 C 0.93443 0.45592 0.37719
 H1336 H 0.92310 0.46134 0.37147
 O1337 O 1.01685 0.58472 0.43821
 O1338 O 1.01678 0.60458 0.41831
 C1339 C 1.02268 0.59855 0.43214
 C1340 C 1.03686 0.60733 0.44093
 C1341 C 1.04379 0.62238 0.43414
 H1342 H 1.03833 0.62809 0.42280
 O1343 O 0.98338 0.41498 0.43829
 O1344 O 0.98345 0.39510 0.41845
 C1345 C 0.97754 0.40116 0.43225
 C1346 C 0.96333 0.39241 0.44104
 C1347 C 0.95639 0.37737 0.43428
 H1348 H 0.96185 0.37165 0.42296
 O1349 O 1.08494 0.56148 0.48316
 O1350 O 1.10478 0.58132 0.48316
 C1351 C 1.09874 0.56751 0.47729
 C1352 C 1.10750 0.55870 0.46307
 C1353 C 1.12252 0.56545 0.45608
 H1354 H 1.12821 0.57679 0.46150
 O1355 O 0.91504 0.43821 0.48313
 O1356 O 0.89524 0.41834 0.48318
 C1357 C 0.90126 0.43214 0.47725
 C1358 C 0.89251 0.44090 0.46298
 C1359 C 0.87750 0.43413 0.45599
 H1360 H 0.87179 0.42281 0.46146
 Cu1361 Cu 0.99998 0.42863 0.42860
 Cu1362 Cu 1.00010 0.40479 0.40477
 Cu1363 Cu 1.00026 0.57102 0.42857
 Cu1364 Cu 1.00016 0.59483 0.40466
 Cu1365 Cu 0.92880 0.49961 0.42856
 Cu1366 Cu 0.90504 0.49977 0.40465
 Cu1367 Cu 1.07141 0.49987 0.42866
 Cu1368 Cu 1.09521 0.49980 0.40479
 C1369 C 0.95574 0.45544 0.39953
 H1370 H 0.96088 0.46060 0.41125
 C1371 C 0.94195 0.44158 0.36972
 C1372 C 1.04453 0.54415 0.39958
 H1373 H 1.03937 0.53897 0.41130
 C1374 C 1.05837 0.55804 0.36978
 C1375 C 0.89980 0.45543 0.45544
 H1376 H 0.91150 0.46057 0.46060
 C1377 C 0.87005 0.44162 0.44160
 C1378 C 1.10023 0.54413 0.45560
 H1379 H 1.08852 0.53900 0.46075
 C1380 C 1.12999 0.55793 0.44175
 C1381 C 0.95579 0.39971 0.45558
 H1382 H 0.96091 0.41143 0.46073
 C1383 C 0.94206 0.36991 0.44176
 C1384 C 1.04438 0.60005 0.45549
 H1385 H 1.03927 0.58832 0.46065
 C1386 C 1.05810 0.62987 0.44163
 C1387 C 0.95598 0.54392 0.39978
 H1388 H 0.96107 0.53880 0.41155
 C1389 C 0.94227 0.55772 0.36988
 C1390 C 1.04429 0.45565 0.39982
 H1391 H 1.03916 0.46078 0.41156
 C1392 C 1.05809 0.44186 0.36999
 C1393 C 1.04427 0.39977 0.45570
 H1394 H 1.03914 0.41150 0.46083
 C1395 C 1.05806 0.36996 0.44190
 C1396 C 0.95594 0.59987 0.45554
 H1397 H 0.96108 0.58813 0.46068
 C1398 C 0.94215 0.62971 0.44174
 C1399 C 0.90006 0.54402 0.45553
 H1400 H 0.91179 0.53888 0.46066
 C1401 C 0.87026 0.55784 0.44176
 C1402 C 1.10026 0.45543 0.45561
 H1403 H 1.08856 0.46059 0.46077
 C1404 C 1.13002 0.44158 0.44176
 O1405 O 1.01668 0.43830 0.58485
 O1406 O 1.01671 0.41844 0.60475
 C1407 C 1.02256 0.43226 0.59868
 C1408 C 1.03675 0.44106 0.60743
 C1409 C 1.04372 0.43430 0.62249
 H1410 H 1.03828 0.42297 0.62823
 O1411 O 0.98345 0.56133 0.58482
 O1412 O 0.98341 0.58116 0.60471
 C1413 C 0.97756 0.56735 0.59864
 C1414 C 0.96336 0.55855 0.60740
 C1415 C 0.95639 0.56531 0.62245
 H1416 H 0.96183 0.57664 0.62816
 O1417 O 0.91529 0.51638 0.56159
 O1418 O 0.89543 0.51643 0.58145
 C1419 C 0.90150 0.52229 0.56763
 C1420 C 0.89279 0.53654 0.55881
 C1421 C 0.87777 0.54354 0.56556
 H1422 H 0.87205 0.53812 0.57691
 O1423 O 1.08489 0.48320 0.56152
 O1424 O 1.10474 0.48318 0.58139
 C1425 C 1.09869 0.47731 0.56757
 C1426 C 1.10744 0.46310 0.55877
 C1427 C 1.12249 0.45615 0.56552
 H1428 H 1.12821 0.46161 0.57684
 O1429 O 1.06174 0.41484 0.51671
 O1430 O 1.08156 0.39494 0.51673
 C1431 C 1.06778 0.40102 0.52263
 C1432 C 1.05901 0.39230 0.53691
 C1433 C 1.06578 0.37728 0.54396
 H1434 H 1.07712 0.37156 0.53854
 O1435 O 0.93856 0.58467 0.51654
 O1436 O 0.91872 0.60455 0.51651
 C1437 C 0.93251 0.59849 0.52241
 C1438 C 0.94127 0.60724 0.53666
 C1439 C 0.93449 0.62227 0.54364
 H1440 H 0.92317 0.62798 0.53819
 O1441 O 0.93853 0.48304 0.58499
 O1442 O 0.91870 0.48306 0.60489
 C1443 C 0.93249 0.47716 0.59882
 C1444 C 0.94127 0.46291 0.60758
 C1445 C 0.93452 0.45593 0.62264
 H1446 H 0.92320 0.46137 0.62836
 O1447 O 1.06160 0.51651 0.58487
 O1448 O 1.08141 0.51648 0.60477
 C1449 C 1.06762 0.52237 0.59870
 C1450 C 1.05884 0.53660 0.60745
 C1451 C 1.06559 0.54357 0.62250
 H1452 H 1.07692 0.53813 0.62821
 O1453 O 0.98349 0.41499 0.56146
 O1454 O 0.98347 0.39510 0.58133
 C1455 C 0.97761 0.40118 0.56750
 C1456 C 0.96340 0.39246 0.55869
 C1457 C 0.95645 0.37742 0.56546
 H1458 H 0.96190 0.37168 0.57680
 O1459 O 1.01669 0.58468 0.56146
 O1460 O 1.01667 0.60455 0.58132
 C1461 C 1.02256 0.59849 0.56750
 C1462 C 1.03677 0.60724 0.55871
 C1463 C 1.04372 0.62227 0.56548
 H1464 H 1.03827 0.62797 0.57682
 O1465 O 0.91514 0.43831 0.51647
 O1466 O 0.89533 0.41844 0.51656
 C1467 C 0.90137 0.43226 0.52241
 C1468 C 0.89266 0.44105 0.53667
 C1469 C 0.87763 0.43433 0.54365
 H1470 H 0.87188 0.42303 0.53819
 O1471 O 1.08489 0.56145 0.51648
 O1472 O 1.10474 0.58128 0.51652
 C1473 C 1.09868 0.56747 0.52239
 C1474 C 1.10739 0.55866 0.53664
 C1475 C 1.12240 0.56541 0.54364
 H1476 H 1.12811 0.57673 0.53820
 O1477 O 1.01671 0.56140 0.58487
 O1478 O 1.01669 0.58123 0.60477
 C1479 C 1.02257 0.56743 0.59870
 C1480 C 1.03679 0.55864 0.60746
 C1481 C 1.04375 0.56539 0.62251
 H1482 H 1.03830 0.57671 0.62824
 O1483 O 0.98341 0.43813 0.58499
 O1484 O 0.98343 0.41827 0.60489
 C1485 C 0.97754 0.43208 0.59882
 C1486 C 0.96331 0.44085 0.60758
 C1487 C 0.95634 0.43409 0.62265
 H1488 H 0.96179 0.42276 0.62838
 O1489 O 1.08484 0.51650 0.56147
 O1490 O 1.10469 0.51648 0.58134
 C1491 C 1.09863 0.52237 0.56751
 C1492 C 1.10737 0.53659 0.55871
 C1493 C 1.12237 0.54355 0.56549
 H1494 H 1.12808 0.53810 0.57684
 O1495 O 0.91529 0.48310 0.56157
 O1496 O 0.89543 0.48312 0.58143
 C1497 C 0.90148 0.47724 0.56761
 C1498 C 0.89272 0.46305 0.55878
 C1499 C 0.87768 0.45611 0.56554
 H1500 H 0.87198 0.46156 0.57688
 O1501 O 1.06158 0.58476 0.51647
 O1502 O 1.08139 0.60464 0.51651
 C1503 C 1.06760 0.59856 0.52238
 C1504 C 1.05881 0.60727 0.53664
 C1505 C 1.06554 0.62230 0.54363
 H1506 H 1.07685 0.62803 0.53819
 O1507 O 0.93850 0.41504 0.51648
 O1508 O 0.91873 0.39513 0.51656
 C1509 C 0.93252 0.40122 0.52241
 C1510 C 0.94135 0.39249 0.53664
 C1511 C 0.93463 0.37744 0.54363
 H1512 H 0.92332 0.37172 0.53819
 O1513 O 1.06154 0.48321 0.58483
 O1514 O 1.08136 0.48317 0.60473
 C1515 C 1.06756 0.47732 0.59866
 C1516 C 1.05877 0.46310 0.60742
 C1517 C 1.06551 0.45612 0.62248
 H1518 H 1.07682 0.46156 0.62821
 O1519 O 0.93861 0.51635 0.58491
 O1520 O 0.91878 0.51639 0.60480
 C1521 C 0.93258 0.52225 0.59872
 C1522 C 0.94135 0.53649 0.60745
 C1523 C 0.93459 0.54349 0.62248
 H1524 H 0.92328 0.53806 0.62822
 O1525 O 0.98343 0.58471 0.56150
 O1526 O 0.98339 0.60457 0.58135
 C1527 C 0.97753 0.59851 0.56753
 C1528 C 0.96330 0.60725 0.55873
 C1529 C 0.95631 0.62228 0.56549
 H1530 H 0.96174 0.62800 0.57683
 O1531 O 1.01677 0.41485 0.56164
 O1532 O 1.01677 0.39496 0.58152
 C1533 C 1.02266 0.40104 0.56771
 C1534 C 1.03693 0.39231 0.55895
 C1535 C 1.04392 0.37728 0.56577
 H1536 H 1.03845 0.37156 0.57710
 O1537 O 1.08492 0.43826 0.51662
 O1538 O 1.10478 0.41840 0.51665
 C1539 C 1.09872 0.43222 0.52251
 C1540 C 1.10746 0.44103 0.53672
 C1541 C 1.12250 0.43430 0.54369
 H1542 H 1.12823 0.42298 0.53825
 O1543 O 0.91533 0.56130 0.51654
 O1544 O 0.89547 0.58115 0.51652
 C1545 C 0.90153 0.56734 0.52242
 C1546 C 0.89280 0.55857 0.53669
 C1547 C 0.87779 0.56535 0.54366
 H1548 H 0.87208 0.57668 0.53819
 Cu1549 Cu 1.00009 0.42855 0.57125
 Cu1550 Cu 1.00009 0.40470 0.59511
 Cu1551 Cu 1.00007 0.57104 0.57117
 Cu1552 Cu 1.00003 0.59487 0.59503
 Cu1553 Cu 0.92875 0.42863 0.49980
 Cu1554 Cu 0.90501 0.40475 0.49989
 Cu1555 Cu 1.07133 0.42853 0.50000
 Cu1556 Cu 1.09513 0.40467 0.50000
 Cu1557 Cu 0.92895 0.57099 0.49987
 Cu1558 Cu 0.90512 0.59483 0.49983
 Cu1559 Cu 1.07128 0.57115 0.49981
 Cu1560 Cu 1.09508 0.59498 0.49984
 Cu1561 Cu 0.92892 0.49971 0.57128
 Cu1562 Cu 0.90510 0.49975 0.59514
 Cu1563 Cu 1.07123 0.49986 0.57118
 Cu1564 Cu 1.09504 0.49982 0.59505
 C1565 C 1.04425 0.45559 0.60011
 H1566 H 1.03913 0.46073 0.58836
 C1567 C 1.05803 0.44178 0.62996
 C1568 C 0.95587 0.54400 0.60012
 H1569 H 0.96101 0.53885 0.58838
 C1570 C 0.94207 0.55784 0.62993
 C1571 C 0.90009 0.54403 0.54423
 H1572 H 0.91180 0.53886 0.53909
 C1573 C 0.87033 0.55789 0.55804
 C1574 C 1.10014 0.45557 0.54423
 H1575 H 1.08841 0.46069 0.53910
 C1576 C 1.12996 0.44181 0.55803
 C1577 C 1.04445 0.39960 0.54439
 H1578 H 1.03930 0.41130 0.53921
 C1579 C 1.05828 0.36983 0.55832
 C1580 C 0.95581 0.59994 0.54418
 H1581 H 0.96097 0.58823 0.53903
 C1582 C 0.94197 0.62973 0.55800
 C1583 C 0.95579 0.45540 0.60027
 H1584 H 0.96093 0.46054 0.58853
 C1585 C 0.94201 0.44158 0.63012
 C1586 C 1.04430 0.54411 0.60015
 H1587 H 1.03917 0.53898 0.58841
 C1588 C 1.05810 0.55790 0.62997
 C1589 C 0.95587 0.39979 0.54415
 H1590 H 0.96098 0.41153 0.53900
 C1591 C 0.94212 0.36997 0.55798
 C1592 C 1.04429 0.59995 0.54415
 H1593 H 1.03917 0.58823 0.53900
 C1594 C 1.05805 0.62974 0.55799
 C1595 C 0.89999 0.45555 0.54421
 H1596 H 0.91172 0.46066 0.53907
 C1597 C 0.87019 0.44181 0.55803
 C1598 C 1.10008 0.54412 0.54415
 H1599 H 1.08838 0.53899 0.53899
 C1600 C 1.12983 0.55790 0.55800
 O1601 O 0.48300 0.93837 0.41482
 O1602 O 0.48313 0.91853 0.39495
 C1603 C 0.47719 0.93232 0.40098
 C1604 C 0.46296 0.94108 0.39219
 C1605 C 0.45599 0.93431 0.37715
 H1606 H 0.46145 0.92299 0.37143
 O1607 O 0.51664 1.06182 0.41507
 O1608 O 0.51656 1.08164 0.39513
 C1609 C 0.52248 1.06785 0.40122
 C1610 C 0.53670 1.05907 0.39245
 C1611 C 0.54368 1.06587 0.37741
 H1612 H 0.53825 1.07723 0.37171
 O1613 O 0.41502 0.98325 0.43825
 O1614 O 0.39516 0.98340 0.41839
 C1615 C 0.40119 0.97746 0.43221
 C1616 C 0.39241 0.96326 0.44100
 C1617 C 0.37739 0.95630 0.43423
 H1618 H 0.37169 0.96175 0.42288
 O1619 O 0.58467 1.01676 0.43837
 O1620 O 0.60449 1.01675 0.41847
 C1621 C 0.59846 1.02263 0.43230
 C1622 C 0.60720 1.03684 0.44109
 C1623 C 0.62225 1.04377 0.43433
 H1624 H 0.62796 1.03830 0.42301
 O1625 O 0.43818 0.91505 0.48315
 O1626 O 0.41838 0.89518 0.48322
 C1627 C 0.43215 0.90124 0.47729
 C1628 C 0.44092 0.89248 0.46303
 C1629 C 0.43417 0.87745 0.45604
 H1630 H 0.42286 0.87174 0.46149
 O1631 O 0.56148 1.08518 0.48319
 O1632 O 0.58132 1.10503 0.48319
 C1633 C 0.56753 1.09899 0.47730
 C1634 C 0.55875 1.10775 0.46305
 C1635 C 0.56551 1.12276 0.45601
 H1636 H 0.57685 1.12845 0.46142
 O1637 O 0.43853 1.01651 0.41506
 O1638 O 0.41870 1.01670 0.39518
 C1639 C 0.43251 1.02249 0.40127
 C1640 C 0.44130 1.03676 0.39259
 C1641 C 0.43454 1.04377 0.37755
 H1642 H 0.42324 1.03834 0.37180
 O1643 O 0.56129 0.98349 0.41511
 O1644 O 0.58108 0.98346 0.39518
 C1645 C 0.56729 0.97760 0.40128
 C1646 C 0.55850 0.96337 0.39255
 C1647 C 0.56527 0.95639 0.37752
 H1648 H 0.57660 0.96182 0.37181
 O1649 O 0.51628 0.91524 0.43838
 O1650 O 0.51643 0.89536 0.41854
 C1651 C 0.52225 0.90146 0.43236
 C1652 C 0.53651 0.89279 0.44118
 C1653 C 0.54351 0.87775 0.43444
 H1654 H 0.53806 0.87199 0.42314
 O1655 O 0.48334 1.08510 0.43846
 O1656 O 0.48325 1.10494 0.41854
 C1657 C 0.47741 1.09889 0.43239
 C1658 C 0.46317 1.10761 0.44118
 C1659 C 0.45618 1.12264 0.43439
 H1660 H 0.46162 1.12837 0.42305
 O1661 O 0.41524 1.06164 0.48344
 O1662 O 0.39535 1.08147 0.48333
 C1663 C 0.40145 1.06766 0.47750
 C1664 C 0.39276 1.05883 0.46325
 C1665 C 0.37771 1.06556 0.45629
 H1666 H 0.37197 1.07687 0.46173
 O1667 O 0.58483 0.93862 0.48329
 O1668 O 0.60467 0.91875 0.48332
 C1669 C 0.59863 0.93256 0.47742
 C1670 C 0.60737 0.94133 0.46316
 C1671 C 0.62241 0.93458 0.45620
 H1672 H 0.62814 0.92326 0.46168
 O1673 O 0.48338 1.06167 0.41521
 O1674 O 0.48328 1.08149 0.39527
 C1675 C 0.47746 1.06768 0.40138
 C1676 C 0.46327 1.05885 0.39265
 C1677 C 0.45629 1.06563 0.37760
 H1678 H 0.46170 1.07698 0.37189
 O1679 O 0.51626 0.93856 0.41502
 O1680 O 0.51642 0.91871 0.39514
 C1681 C 0.52222 0.93253 0.40122
 C1682 C 0.53646 0.94135 0.39252
 C1683 C 0.54346 0.93459 0.37748
 H1684 H 0.53803 0.92327 0.37174
 O1685 O 0.58478 0.98346 0.43828
 O1686 O 0.60460 0.98344 0.41838
 C1687 C 0.59858 0.97757 0.43222
 C1688 C 0.60734 0.96335 0.44104
 C1689 C 0.62238 0.95638 0.43428
 H1690 H 0.62808 0.96181 0.42293
 O1691 O 0.41522 1.01654 0.43839
 O1692 O 0.39535 1.01671 0.41854
 C1693 C 0.40145 1.02251 0.43237
 C1694 C 0.39276 1.03675 0.44121
 C1695 C 0.37770 1.04370 0.43448
 H1696 H 0.37196 1.03823 0.42318
 O1697 O 0.43839 1.08509 0.48345
 O1698 O 0.41854 1.10495 0.48336
 C1699 C 0.43235 1.09888 0.47751
 C1700 C 0.44113 1.10761 0.46325
 C1701 C 0.43436 1.12263 0.45623
 H1702 H 0.42303 1.12834 0.46167
 O1703 O 0.56139 0.91546 0.48329
 O1704 O 0.58119 0.89555 0.48331
 C1705 C 0.56740 0.90163 0.47742
 C1706 C 0.55860 0.89288 0.46320
 C1707 C 0.56538 0.87785 0.45624
 H1708 H 0.57672 0.87215 0.46167
 O1709 O 0.56145 1.01681 0.41495
 O1710 O 0.58123 1.01679 0.39502
 C1711 C 0.56746 1.02270 0.40112
 C1712 C 0.55870 1.03697 0.39239
 C1713 C 0.56546 1.04399 0.37735
 H1714 H 0.57676 1.03854 0.37161
 O1715 O 0.43825 0.98319 0.41481
 O1716 O 0.41842 0.98336 0.39493
 C1717 C 0.43219 0.97738 0.40097
 C1718 C 0.44092 0.96313 0.39218
 C1719 C 0.43415 0.95614 0.37715
 H1720 H 0.42282 0.96158 0.37143
 O1721 O 0.51662 1.08518 0.43838
 O1722 O 0.51653 1.10502 0.41846
 C1723 C 0.52245 1.09899 0.43228
 C1724 C 0.53668 1.10776 0.44102
 C1725 C 0.54365 1.12277 0.43420
 H1726 H 0.53819 1.12848 0.42286
 O1727 O 0.48301 0.91508 0.43824
 O1728 O 0.48313 0.89520 0.41839
 C1729 C 0.47719 0.90125 0.43219
 C1730 C 0.46296 0.89248 0.44096
 C1731 C 0.45600 0.87745 0.43419
 H1732 H 0.46146 0.87173 0.42286
 O1733 O 0.58468 1.06174 0.48322
 O1734 O 0.60455 1.08155 0.48321
 C1735 C 0.59849 1.06775 0.47734
 C1736 C 0.60722 1.05892 0.46312
 C1737 C 0.62226 1.06563 0.45614
 H1738 H 0.62799 1.07695 0.46157
 O1739 O 0.41494 0.93845 0.48319
 O1740 O 0.39509 0.91861 0.48325
 C1741 C 0.40113 0.93242 0.47734
 C1742 C 0.39238 0.94122 0.46310
 C1743 C 0.37737 0.93448 0.45613
 H1744 H 0.37165 0.92316 0.46159
 Cu1745 Cu 0.49961 0.92880 0.42860
 Cu1746 Cu 0.49980 0.90496 0.40477
 Cu1747 Cu 0.50001 1.07147 0.42878
 Cu1748 Cu 0.49989 1.09526 0.40485
 Cu1749 Cu 0.42874 0.99983 0.42861
 Cu1750 Cu 0.40492 1.00007 0.40477
 Cu1751 Cu 0.57107 1.00013 0.42867
 Cu1752 Cu 0.59483 1.00011 0.40476
 C1753 C 0.45545 0.95562 0.39948
 H1754 H 0.46060 0.96077 0.41120
 C1755 C 0.44164 0.94179 0.36968
 C1756 C 0.54418 1.04449 0.39972
 H1757 H 0.53904 1.03932 0.41145
 C1758 C 0.55800 1.05838 0.36992
 C1759 C 0.39968 0.95575 0.45558
 H1760 H 0.41139 0.96088 0.46073
 C1761 C 0.36992 0.94197 0.44176
 C1762 C 0.59991 1.04439 0.45562
 H1763 H 0.58818 1.03929 0.46076
 C1764 C 0.62971 1.05810 0.44181
 C1765 C 0.45544 0.89978 0.45552
 H1766 H 0.46058 0.91149 0.46067
 C1767 C 0.44166 0.86999 0.44168
 C1768 C 0.54420 1.10047 0.45558
 H1769 H 0.53906 1.08877 0.46078
 C1770 C 0.55800 1.13022 0.44165
 C1771 C 0.45580 1.04427 0.39994
 H1772 H 0.46093 1.03912 0.41167
 C1773 C 0.44199 1.05815 0.37013
 C1774 C 0.54395 0.95587 0.39985
 H1775 H 0.53880 0.96101 0.41158
 C1776 C 0.55781 0.94206 0.37005
 C1777 C 0.54404 0.90015 0.45569
 H1778 H 0.53888 0.91187 0.46082
 C1779 C 0.55788 0.87035 0.44192
 C1780 C 0.45567 1.10031 0.45575
 H1781 H 0.46082 1.08859 0.46091
 C1782 C 0.44183 1.13009 0.44187
 C1783 C 0.40009 1.04429 0.45573
 H1784 H 0.41183 1.03918 0.46085
 C1785 C 0.37025 1.05804 0.44197
 C1786 C 0.60006 0.95586 0.45561
 H1787 H 0.58834 0.96100 0.46075
 C1788 C 0.62986 0.94205 0.44182
 O1789 O 0.51641 0.93865 0.58486
 O1790 O 0.51644 0.91880 0.60476
 C1791 C 0.52229 0.93262 0.59869
 C1792 C 0.53648 0.94141 0.60746
 C1793 C 0.54344 0.93463 0.62251
 H1794 H 0.53802 0.92329 0.62822
 O1795 O 0.48335 1.06157 0.58483
 O1796 O 0.48326 1.08139 0.60473
 C1797 C 0.47743 1.06758 0.59864
 C1798 C 0.46322 1.05876 0.60736
 C1799 C 0.45625 1.06550 0.62241
 H1800 H 0.46170 1.07680 0.62816
 O1801 O 0.41485 1.01677 0.56153
 O1802 O 0.39503 1.01677 0.58143
 C1803 C 0.40107 1.02266 0.56761
 C1804 C 0.39234 1.03693 0.55884
 C1805 C 0.37731 1.04390 0.56560
 H1806 H 0.37158 1.03842 0.57692
 O1807 O 0.58461 0.98361 0.56169
 O1808 O 0.60448 0.98354 0.58154
 C1809 C 0.59841 0.97769 0.56772
 C1810 C 0.60715 0.96347 0.55890
 C1811 C 0.62219 0.95650 0.56565
 H1812 H 0.62791 0.96194 0.57698
 O1813 O 0.56144 0.91537 0.51662
 O1814 O 0.58124 0.89546 0.51666
 C1815 C 0.56745 0.90154 0.52252
 C1816 C 0.55864 0.89280 0.53675
 C1817 C 0.56537 0.87774 0.54374
 H1818 H 0.57669 0.87202 0.53831
 O1819 O 0.43835 1.08508 0.51680
 O1820 O 0.41850 1.10494 0.51673
 C1821 C 0.43229 1.09889 0.52266
 C1822 C 0.44104 1.10764 0.53691
 C1823 C 0.43426 1.12267 0.54390
 H1824 H 0.42293 1.12838 0.53845
 O1825 O 0.43821 0.98345 0.58482
 O1826 O 0.41843 0.98345 0.60476
 C1827 C 0.43221 0.97757 0.59867
 C1828 C 0.44102 0.96336 0.60744
 C1829 C 0.43429 0.95640 0.62251
 H1830 H 0.42297 0.96183 0.62823
 O1831 O 0.56141 1.01695 0.58512
 O1832 O 0.58125 1.01688 0.60500
 C1833 C 0.56747 1.02281 0.59894
 C1834 C 0.55873 1.03706 0.60770
 C1835 C 0.56553 1.04406 0.62272
 H1836 H 0.57687 1.03862 0.62841
 O1837 O 0.48321 0.91530 0.56151
 O1838 O 0.48322 0.89542 0.58140
 C1839 C 0.47735 0.90148 0.56757
 C1840 C 0.46316 0.89273 0.55877
 C1841 C 0.45619 0.87771 0.56557
 H1842 H 0.46162 0.87201 0.57693
 O1843 O 0.51654 1.08498 0.56152
 O1844 O 0.51651 1.10484 0.58139
 C1845 C 0.52240 1.09879 0.56757
 C1846 C 0.53661 1.10753 0.55877
 C1847 C 0.54358 1.12253 0.56557
 H1848 H 0.53816 1.12823 0.57692
 O1849 O 0.41498 0.93845 0.51652
 O1850 O 0.39514 0.91861 0.51660
 C1851 C 0.40120 0.93242 0.52245
 C1852 C 0.39248 0.94123 0.53670
 C1853 C 0.37746 0.93449 0.54370
 H1854 H 0.37175 0.92316 0.53828
 O1855 O 0.58469 1.06177 0.51655
 O1856 O 0.60456 1.08158 0.51657
 C1857 C 0.59848 1.06778 0.52245
 C1858 C 0.60718 1.05897 0.53672
 C1859 C 0.62221 1.06569 0.54370
 H1860 H 0.62795 1.07700 0.53825
 O1861 O 0.51661 1.06187 0.58511
 O1862 O 0.51655 1.08169 0.60501
 C1863 C 0.52246 1.06791 0.59895
 C1864 C 0.53671 1.05914 0.60771
 C1865 C 0.54372 1.06592 0.62274
 H1866 H 0.53830 1.07726 0.62845
 O1867 O 0.48316 0.93860 0.58487
 O1868 O 0.48318 0.91875 0.60478
 C1869 C 0.47730 0.93256 0.59870
 C1870 C 0.46308 0.94134 0.60745
 C1871 C 0.45613 0.93458 0.62252
 H1872 H 0.46159 0.92326 0.62826
 O1873 O 0.58456 1.01689 0.56161
 O1874 O 0.60443 1.01684 0.58146
 C1875 C 0.59837 1.02273 0.56764
 C1876 C 0.60712 1.03693 0.55881
 C1877 C 0.62216 1.04385 0.56557
 H1878 H 0.62786 1.03839 0.57691
 O1879 O 0.41496 0.98346 0.56143
 O1880 O 0.39514 0.98344 0.58133
 C1881 C 0.40119 0.97756 0.56750
 C1882 C 0.39247 0.96331 0.55873
 C1883 C 0.37745 0.95635 0.56552
 H1884 H 0.37174 0.96181 0.57685
 O1885 O 0.56137 1.08507 0.51652
 O1886 O 0.58120 1.10491 0.51655
 C1887 C 0.56740 1.09885 0.52242
 C1888 C 0.55862 1.10757 0.53668
 C1889 C 0.56538 1.12257 0.54369
 H1890 H 0.57670 1.12830 0.53825
 O1891 O 0.43835 0.91519 0.51649
 O1892 O 0.41854 0.89532 0.51659
 C1893 C 0.43234 0.90139 0.52242
 C1894 C 0.44115 0.89269 0.53668
 C1895 C 0.43440 0.87767 0.54371
 H1896 H 0.42309 0.87194 0.53827
 O1897 O 0.56123 0.98364 0.58496
 O1898 O 0.58106 0.98355 0.60484
 C1899 C 0.56726 0.97771 0.59877
 C1900 C 0.55848 0.96347 0.60749
 C1901 C 0.56523 0.95646 0.62253
 H1902 H 0.57654 0.96188 0.62827
 O1903 O 0.43832 1.01672 0.58470
 O1904 O 0.41853 1.01674 0.60464
 C1905 C 0.43232 1.02259 0.59855
 C1906 C 0.44114 1.03678 0.60730
 C1907 C 0.43440 1.04374 0.62236
 H1908 H 0.42307 1.03832 0.62808
 O1909 O 0.48327 1.08513 0.56171
 O1910 O 0.48322 1.10499 0.58157
 C1911 C 0.47735 1.09893 0.56776
 C1912 C 0.46310 1.10766 0.55897
 C1913 C 0.45609 1.12269 0.56574
 H1914 H 0.46153 1.12841 0.57707
 O1915 O 0.51646 0.91533 0.56153
 O1916 O 0.51649 0.89544 0.58141
 C1917 C 0.52235 0.90152 0.56758
 C1918 C 0.53658 0.89279 0.55879
 C1919 C 0.54353 0.87773 0.56556
 H1920 H 0.53807 0.87200 0.57688
 O1921 O 0.58468 0.93873 0.51663
 O1922 O 0.60452 0.91885 0.51669
 C1923 C 0.59846 0.93267 0.52255
 C1924 C 0.60717 0.94145 0.53681
 C1925 C 0.62220 0.93469 0.54379
 H1926 H 0.62793 0.92337 0.53834
 O1927 O 0.41499 1.06182 0.51677
 O1928 O 0.39511 1.08165 0.51668
 C1929 C 0.40116 1.06785 0.52260
 C1930 C 0.39238 1.05905 0.53682
 C1931 C 0.37734 1.06580 0.54379
 H1932 H 0.37164 1.07714 0.53835
 Cu1933 Cu 0.49981 0.92896 0.57120
 Cu1934 Cu 0.49984 0.90511 0.59508
 Cu1935 Cu 0.49995 1.07141 0.57130
 Cu1936 Cu 0.49988 1.09522 0.59517
 Cu1937 Cu 0.42860 0.92877 0.49982
 Cu1938 Cu 0.40480 0.90494 0.49992
 Cu1939 Cu 0.57111 0.92904 0.49995
 Cu1940 Cu 0.59489 0.90516 0.50000
 Cu1941 Cu 0.42873 1.07143 0.50014
 Cu1942 Cu 0.40489 1.09524 0.50001
 Cu1943 Cu 0.57106 1.07146 0.49986
 Cu1944 Cu 0.59490 1.09525 0.49988
 Cu1945 Cu 0.42856 1.00010 0.57112
 Cu1946 Cu 0.40479 1.00010 0.59503
 Cu1947 Cu 0.57096 1.00028 0.57136
 Cu1948 Cu 0.59479 1.00019 0.59520
 C1949 C 0.54396 0.95597 0.60016
 H1950 H 0.53883 0.96113 0.58842
 C1951 C 0.55776 0.94210 0.62998
 C1952 C 0.45569 1.04426 0.60001
 H1953 H 0.46083 1.03914 0.58827
 C1954 C 0.44191 1.05804 0.62985
 C1955 C 0.39966 1.04448 0.54432
 H1956 H 0.41138 1.03934 0.53918
 C1957 C 0.36987 1.05827 0.55813
 C1958 C 0.59986 0.95598 0.54434
 H1959 H 0.58814 0.96112 0.53920
 C1960 C 0.62965 0.94217 0.55814
 C1961 C 0.54411 0.90011 0.54425
 H1962 H 0.53899 0.91185 0.53911
 C1963 C 0.55787 0.87028 0.55809
 C1964 C 0.45559 1.10036 0.54442
 H1965 H 0.46075 1.08865 0.53928
 C1966 C 0.44174 1.13014 0.55825
 C1967 C 0.45555 0.95587 0.60012
 H1968 H 0.46067 0.96101 0.58838
 C1969 C 0.44180 0.94207 0.62999
 C1970 C 0.54418 1.04458 0.60042
 H1971 H 0.53901 1.03941 0.58872
 C1972 C 0.55808 1.05843 0.63019
 C1973 C 0.45566 0.90001 0.54419
 H1974 H 0.46078 0.91172 0.53901
 C1975 C 0.44188 0.87024 0.55809
 C1976 C 0.54410 1.10025 0.54420
 H1977 H 0.53897 1.08855 0.53903
 C1978 C 0.55791 1.12999 0.55807
 C1979 C 0.39977 0.95578 0.54419
 H1980 H 0.41148 0.96091 0.53903
 C1981 C 0.37001 0.94200 0.55805
 C1982 C 0.59984 1.04446 0.54425
 H1983 H 0.58812 1.03935 0.53911
 C1984 C 0.62964 1.05817 0.55806
 O1985 O 0.48340 0.43847 0.91506
 O1986 O 0.48342 0.41865 0.89515
 C1987 C 0.47753 0.43244 0.90123
 C1988 C 0.46331 0.44125 0.89248
 C1989 C 0.45635 0.43452 0.87741
 H1990 H 0.46180 0.42321 0.87167
 O1991 O 0.51659 0.56162 0.91518
 O1992 O 0.51659 0.58148 0.89527
 C1993 C 0.52245 0.56766 0.90134
 C1994 C 0.53663 0.55884 0.89257
 C1995 C 0.54355 0.56557 0.87747
 H1996 H 0.53809 0.57689 0.87173
 O1997 O 0.41514 0.48340 0.93839
 O1998 O 0.39530 0.48348 0.91852
 C1999 C 0.40133 0.47757 0.93234
 C2000 C 0.39257 0.46335 0.94114
 C2001 C 0.37754 0.45640 0.93438
 H2002 H 0.37182 0.46187 0.92305
 O2003 O 0.58484 0.51670 0.93847
 O2004 O 0.60467 0.51672 0.91858
 C2005 C 0.59863 0.52259 0.93241
 C2006 C 0.60738 0.53680 0.94121
 C2007 C 0.62239 0.54376 0.93442
 H2008 H 0.62810 0.53832 0.92308
 O2009 O 0.43848 0.41522 0.98330
 O2010 O 0.41870 0.39532 0.98335
 C2011 C 0.43247 0.40140 0.97744
 C2012 C 0.44127 0.39264 0.96321
 C2013 C 0.43451 0.37762 0.95621
 H2014 H 0.42318 0.37192 0.96164
 O2015 O 0.56157 0.58486 0.98343
 O2016 O 0.58137 0.60474 0.98340
 C2017 C 0.56758 0.59867 0.97753
 C2018 C 0.55879 0.60742 0.96328
 C2019 C 0.56552 0.62246 0.95628
 H2020 H 0.57684 0.62817 0.96171
 O2021 O 0.43855 0.51667 0.91510
 O2022 O 0.41874 0.51675 0.89520
 C2023 C 0.43253 0.52259 0.90128
 C2024 C 0.44133 0.53681 0.89254
 C2025 C 0.43461 0.54377 0.87746
 H2026 H 0.42332 0.53832 0.87171
 O2027 O 0.56153 0.48342 0.91517
 O2028 O 0.58133 0.48343 0.89525
 C2029 C 0.56755 0.47755 0.90133
 C2030 C 0.55876 0.46334 0.89257
 C2031 C 0.56553 0.45639 0.87752
 H2032 H 0.57684 0.46184 0.87180
 O2033 O 0.51668 0.41515 0.93843
 O2034 O 0.51672 0.39530 0.91856
 C2035 C 0.52258 0.40135 0.93239
 C2036 C 0.53681 0.39262 0.94119
 C2037 C 0.54381 0.37760 0.93442
 H2038 H 0.53838 0.37188 0.92307
 O2039 O 0.48335 0.58495 0.93855
 O2040 O 0.48333 0.60483 0.91868
 C2041 C 0.47747 0.59876 0.93251
 C2042 C 0.46326 0.60750 0.94131
 C2043 C 0.45627 0.62253 0.93452
 H2044 H 0.46170 0.62824 0.92317
 O2045 O 0.41523 0.56167 0.98355
 O2046 O 0.39534 0.58149 0.98347
 C2047 C 0.40144 0.56769 0.97761
 C2048 C 0.39277 0.55890 0.96335
 C2049 C 0.37775 0.56565 0.95634
 H2050 H 0.37201 0.57697 0.96179
 O2051 O 0.58484 0.43846 0.98341
 O2052 O 0.60468 0.41859 0.98342
 C2053 C 0.59864 0.43241 0.97753
 C2054 C 0.60737 0.44120 0.96329
 C2055 C 0.62240 0.43444 0.95630
 H2056 H 0.62811 0.42310 0.96174
 O2057 O 0.48335 0.56165 0.91519
 O2058 O 0.48333 0.58151 0.89528
 C2059 C 0.47748 0.56769 0.90135
 C2060 C 0.46330 0.55889 0.89258
 C2061 C 0.45637 0.56564 0.87749
 H2062 H 0.46180 0.57697 0.87177
 O2063 O 0.51665 0.43851 0.91510
 O2064 O 0.51670 0.41869 0.89519
 C2065 C 0.52254 0.43249 0.90127
 C2066 C 0.53675 0.44130 0.89254
 C2067 C 0.54373 0.43456 0.87748
 H2068 H 0.53831 0.42325 0.87175
 O2069 O 0.58484 0.48341 0.93850
 O2070 O 0.60467 0.48341 0.91861
 C2071 C 0.59863 0.47753 0.93244
 C2072 C 0.60737 0.46329 0.94123
 C2073 C 0.62240 0.45632 0.93446
 H2074 H 0.62811 0.46179 0.92313
 O2075 O 0.41531 0.51669 0.93851
 O2076 O 0.39547 0.51679 0.91864
 C2077 C 0.40153 0.52263 0.93247
 C2078 C 0.39281 0.53686 0.94127
 C2079 C 0.37779 0.54383 0.93450
 H2080 H 0.37208 0.53838 0.92317
 O2081 O 0.43849 0.58499 0.98357
 O2082 O 0.41863 0.60485 0.98349
 C2083 C 0.43245 0.59879 0.97764
 C2084 C 0.44123 0.60752 0.96339
 C2085 C 0.43447 0.62254 0.95638
 H2086 H 0.42314 0.62826 0.96182
 O2087 O 0.56156 0.41515 0.98342
 O2088 O 0.58136 0.39525 0.98344
 C2089 C 0.56758 0.40133 0.97754
 C2090 C 0.55882 0.39261 0.96328
 C2091 C 0.56561 0.37759 0.95628
 H2092 H 0.57692 0.37187 0.96174
 O2093 O 0.56149 0.51671 0.91518
 O2094 O 0.58128 0.51673 0.89525
 C2095 C 0.56749 0.52259 0.90133
 C2096 C 0.55867 0.53679 0.89257
 C2097 C 0.56537 0.54373 0.87747
 H2098 H 0.57667 0.53827 0.87173
 O2099 O 0.43852 0.48337 0.91511
 O2100 O 0.41870 0.48344 0.89520
 C2101 C 0.43249 0.47752 0.90127
 C2102 C 0.44127 0.46330 0.89250
 C2103 C 0.43452 0.45636 0.87743
 H2104 H 0.42321 0.46182 0.87171
 O2105 O 0.51661 0.58493 0.93852
 O2106 O 0.51661 0.60482 0.91865
 C2107 C 0.52249 0.59873 0.93247
 C2108 C 0.53672 0.60745 0.94125
 C2109 C 0.54367 0.62249 0.93447
 H2110 H 0.53821 0.62823 0.92315
 O2111 O 0.48342 0.41515 0.93843
 O2112 O 0.48344 0.39529 0.91856
 C2113 C 0.47755 0.40135 0.93238
 C2114 C 0.46333 0.39261 0.94117
 C2115 C 0.45637 0.37759 0.93440
 H2116 H 0.46182 0.37187 0.92307
 O2117 O 0.58490 0.56156 0.98344
 O2118 O 0.60474 0.58140 0.98342
 C2119 C 0.59869 0.56760 0.97754
 C2120 C 0.60741 0.55882 0.96328
 C2121 C 0.62242 0.56558 0.95628
 H2122 H 0.62813 0.57690 0.96172
 O2123 O 0.41515 0.43854 0.98329
 O2124 O 0.39534 0.41867 0.98334
 C2125 C 0.40136 0.43248 0.97743
 C2126 C 0.39259 0.44127 0.96320
 C2127 C 0.37757 0.43453 0.95622
 H2128 H 0.37188 0.42319 0.96166
 Cu2129 Cu 0.50003 0.42880 0.92874
 Cu2130 Cu 0.50007 0.40499 0.90487
 Cu2131 Cu 0.49997 0.57130 0.92885
 Cu2132 Cu 0.49996 0.59516 0.90498
 Cu2133 Cu 0.42886 0.50002 0.92877
 Cu2134 Cu 0.40506 0.50012 0.90490
 Cu2135 Cu 0.57119 0.50006 0.92882
 Cu2136 Cu 0.59498 0.50007 0.90493
 C2137 C 0.45579 0.45577 0.89981
 H2138 H 0.46091 0.46088 0.91156
 C2139 C 0.44202 0.44203 0.86994
 C2140 C 0.54416 0.54432 0.89991
 H2141 H 0.53907 0.53921 0.91168
 C2142 C 0.55786 0.55806 0.86998
 C2143 C 0.39987 0.45582 0.95568
 H2144 H 0.41158 0.46095 0.96083
 C2145 C 0.37010 0.44205 0.94187
 C2146 C 0.60010 0.54430 0.95577
 H2147 H 0.58840 0.53916 0.96093
 C2148 C 0.62985 0.55810 0.94191
 C2149 C 0.45581 0.39992 0.95571
 H2150 H 0.46095 0.41163 0.96086
 C2151 C 0.44202 0.37016 0.94187
 C2152 C 0.54425 0.60013 0.95579
 H2153 H 0.53913 0.58840 0.96094
 C2154 C 0.55801 0.62994 0.94194
 C2155 C 0.45581 0.54434 0.89989
 H2156 H 0.46092 0.53921 0.91165
 C2157 C 0.44208 0.55812 0.86999
 C2158 C 0.54424 0.45583 0.89987
 H2159 H 0.53910 0.46095 0.91161
 C2160 C 0.55806 0.44206 0.87004
 C2161 C 0.54429 0.39991 0.95575
 H2162 H 0.53913 0.41162 0.96091
 C2163 C 0.55815 0.37015 0.94191
 C2164 C 0.45576 0.60021 0.95588
 H2165 H 0.46091 0.58849 0.96105
 C2166 C 0.44194 0.62999 0.94201
 C2167 C 0.40010 0.54437 0.95583
 H2168 H 0.41182 0.53924 0.96098
 C2169 C 0.37032 0.55817 0.94198
 C2170 C 0.60008 0.45576 0.95578
 H2171 H 0.58836 0.46090 0.96093
 C2172 C 0.62985 0.44196 0.94194
 O2173 O 0.51670 0.43856 1.08536
 O2174 O 0.51670 0.41863 1.10519
 C2175 C 0.52259 0.43244 1.09916
 C2176 C 0.53686 0.44115 1.10790
 C2177 C 0.54388 0.43432 1.12290
 H2178 H 0.53844 0.42298 1.12862
 O2179 O 0.48328 0.56165 1.08494
 O2180 O 0.48330 0.58145 1.10487
 C2181 C 0.47742 0.56766 1.09878
 C2182 C 0.46321 0.55886 1.10755
 C2183 C 0.45623 0.56563 1.12259
 H2184 H 0.46166 0.57696 1.12829
 O2185 O 0.41510 0.51668 1.06181
 O2186 O 0.39524 0.51668 1.08166
 C2187 C 0.40130 0.52257 1.06785
 C2188 C 0.39256 0.53682 1.05904
 C2189 C 0.37752 0.54378 1.06579
 H2190 H 0.37179 0.53831 1.07712
 O2191 O 0.58484 0.48327 1.06174
 O2192 O 0.60469 0.48327 1.08160
 C2193 C 0.59864 0.47739 1.06778
 C2194 C 0.60740 0.46319 1.05896
 C2195 C 0.62245 0.45622 1.06569
 H2196 H 0.62816 0.46164 1.07703
 O2197 O 0.56150 0.41521 1.01677
 O2198 O 0.58131 0.39530 1.01681
 C2199 C 0.56752 0.40140 1.02268
 C2200 C 0.55873 0.39268 1.03695
 C2201 C 0.56546 0.37762 1.04392
 H2202 H 0.57675 0.37187 1.03845
 O2203 O 0.43836 0.58508 1.01690
 O2204 O 0.41851 0.60494 1.01684
 C2205 C 0.43231 0.59890 1.02275
 C2206 C 0.44108 0.60767 1.03697
 C2207 C 0.43433 0.62272 1.04394
 H2208 H 0.42301 0.62844 1.03849
 O2209 O 0.43839 0.48333 1.08521
 O2210 O 0.41856 0.48334 1.10509
 C2211 C 0.43235 0.47745 1.09904
 C2212 C 0.44114 0.46321 1.10783
 C2213 C 0.43435 0.45620 1.12286
 H2214 H 0.42300 0.46162 1.12855
 O2215 O 0.56145 0.51656 1.08500
 O2216 O 0.58127 0.51661 1.10490
 C2217 C 0.56747 0.52247 1.09881
 C2218 C 0.55868 0.53673 1.10751
 C2219 C 0.56544 0.54371 1.12255
 H2220 H 0.57675 0.53826 1.12828
 O2221 O 0.48345 0.41542 1.06184
 O2222 O 0.48342 0.39546 1.08164
 C2223 C 0.47757 0.40159 1.06782
 C2224 C 0.46340 0.39286 1.05896
 C2225 C 0.45647 0.37778 1.06569
 H2226 H 0.46190 0.37205 1.07703
 O2227 O 0.51652 0.58499 1.06158
 O2228 O 0.51657 0.60482 1.08148
 C2229 C 0.52243 0.59877 1.06764
 C2230 C 0.53667 0.60749 1.05886
 C2231 C 0.54364 0.62251 1.06563
 H2232 H 0.53817 0.62825 1.07694
 O2233 O 0.41519 0.43856 1.01662
 O2234 O 0.39538 0.41869 1.01670
 C2235 C 0.40141 0.43251 1.02255
 C2236 C 0.39267 0.44130 1.03679
 C2237 C 0.37763 0.43458 1.04374
 H2238 H 0.37190 0.42328 1.03827
 O2239 O 0.58487 0.56153 1.01678
 O2240 O 0.60471 0.58137 1.01678
 C2241 C 0.59866 0.56756 1.02267
 C2242 C 0.60740 0.55876 1.03692
 C2243 C 0.62244 0.56549 1.04388
 H2244 H 0.62815 0.57681 1.03842
 O2245 O 0.51654 0.56163 1.08492
 O2246 O 0.51658 0.58143 1.10485
 C2247 C 0.52244 0.56763 1.09875
 C2248 C 0.53666 0.55881 1.10749
 C2249 C 0.54364 0.56557 1.12253
 H2250 H 0.53822 0.57691 1.12825
 O2251 O 0.48341 0.43856 1.08537
 O2252 O 0.48338 0.41863 1.10520
 C2253 C 0.47750 0.43246 1.09917
 C2254 C 0.46323 0.44120 1.10790
 C2255 C 0.45621 0.43440 1.12293
 H2256 H 0.46166 0.42308 1.12866
 O2257 O 0.58490 0.51656 1.06179
 O2258 O 0.60475 0.51659 1.08166
 C2259 C 0.59869 0.52246 1.06783
 C2260 C 0.60742 0.53669 1.05901
 C2261 C 0.62245 0.54365 1.06575
 H2262 H 0.62818 0.53818 1.07708
 O2263 O 0.41522 0.48338 1.06171
 O2264 O 0.39535 0.48336 1.08156
 C2265 C 0.40142 0.47750 1.06773
 C2266 C 0.39268 0.46331 1.05890
 C2267 C 0.37764 0.45636 1.06563
 H2268 H 0.37191 0.46180 1.07697
 O2269 O 0.56156 0.58486 1.01675
 O2270 O 0.58137 0.60474 1.01676
 C2271 C 0.56757 0.59868 1.02263
 C2272 C 0.55876 0.60743 1.03685
 C2273 C 0.56551 0.62246 1.04383
 H2274 H 0.57684 0.62815 1.03840
 O2275 O 0.43861 0.41535 1.01663
 O2276 O 0.41883 0.39545 1.01671
 C2277 C 0.43262 0.40154 1.02256
 C2278 C 0.44143 0.39283 1.03682
 C2279 C 0.43472 0.37776 1.04378
 H2280 H 0.42344 0.37202 1.03830
 O2281 O 0.56166 0.48325 1.08523
 O2282 O 0.58148 0.48327 1.10513
 C2283 C 0.56770 0.47738 1.09907
 C2284 C 0.55894 0.46314 1.10785
 C2285 C 0.56574 0.45609 1.12287
 H2286 H 0.57709 0.46148 1.12856
 O2287 O 0.43849 0.51664 1.08506
 O2288 O 0.41866 0.51667 1.10495
 C2289 C 0.43245 0.52255 1.09887
 C2290 C 0.44121 0.53680 1.10759
 C2291 C 0.43444 0.54379 1.12263
 H2292 H 0.42314 0.53836 1.12836
 O2293 O 0.48325 0.58511 1.06170
 O2294 O 0.48328 0.60495 1.08159
 C2295 C 0.47738 0.59892 1.06777
 C2296 C 0.46315 0.60769 1.05900
 C2297 C 0.45619 0.62274 1.06576
 H2298 H 0.46164 0.62846 1.07708
 O2299 O 0.51670 0.41534 1.06192
 O2300 O 0.51668 0.39538 1.08172
 C2301 C 0.52255 0.40149 1.06791
 C2302 C 0.53674 0.39273 1.05907
 C2303 C 0.54369 0.37766 1.06582
 H2304 H 0.53826 0.37194 1.07716
 O2305 O 0.58487 0.43844 1.01674
 O2306 O 0.60471 0.41857 1.01676
 C2307 C 0.59867 0.43239 1.02263
 C2308 C 0.60742 0.44118 1.03685
 C2309 C 0.62247 0.43444 1.04380
 H2310 H 0.62821 0.42314 1.03831
 O2311 O 0.41514 0.56169 1.01689
 O2312 O 0.39525 0.58151 1.01684
 C2313 C 0.40132 0.56771 1.02275
 C2314 C 0.39257 0.55890 1.03698
 C2315 C 0.37752 0.56565 1.04395
 H2316 H 0.37181 0.57697 1.03849
 Cu2317 Cu 0.50007 0.42898 1.07166
 Cu2318 Cu 0.50004 0.40503 1.09543
 Cu2319 Cu 0.49989 0.57137 1.07129
 Cu2320 Cu 0.49994 0.59514 1.09519
 Cu2321 Cu 0.42883 0.42891 0.99995
 Cu2322 Cu 0.40508 0.40504 1.00003
 Cu2323 Cu 0.57121 0.42880 1.00008
 Cu2324 Cu 0.59500 0.40493 1.00011
 Cu2325 Cu 0.42879 0.57137 1.00025
 Cu2326 Cu 0.40494 0.59519 1.00015
 Cu2327 Cu 0.57125 0.57121 1.00010
 Cu2328 Cu 0.59503 0.59505 1.00009
 Cu2329 Cu 0.42879 0.50000 1.07146
 Cu2330 Cu 0.40497 0.50001 1.09531
 Cu2331 Cu 0.57123 0.49990 1.07146
 Cu2332 Cu 0.59503 0.49994 1.09532
 C2333 C 0.54437 0.45569 1.10059
 H2334 H 0.53919 0.46089 1.08889
 C2335 C 0.55826 0.44174 1.13034
 C2336 C 0.45573 0.54431 1.10026
 H2337 H 0.46087 0.53916 1.08853
 C2338 C 0.44191 0.55815 1.13007
 C2339 C 0.39987 0.54435 1.04450
 H2340 H 0.41159 0.53922 1.03937
 C2341 C 0.37006 0.55814 1.05829
 C2342 C 0.60010 0.45569 1.04440
 H2343 H 0.58837 0.46082 1.03928
 C2344 C 0.62993 0.44191 1.05815
 C2345 C 0.54424 0.40003 1.04450
 H2346 H 0.53913 0.41178 1.03937
 C2347 C 0.55799 0.37017 1.05829
 C2348 C 0.45562 0.60038 1.04448
 H2349 H 0.46075 0.58865 1.03934
 C2350 C 0.44184 0.63021 1.05827
 C2351 C 0.45571 0.45574 1.10057
 H2352 H 0.46087 0.46091 1.08885
 C2353 C 0.44183 0.44186 1.13036
 C2354 C 0.54415 0.54425 1.10019
 H2355 H 0.53901 0.53911 1.08846
 C2356 C 0.55797 0.55807 1.13000
 C2357 C 0.45591 0.40017 1.04439
 H2358 H 0.46101 0.41192 1.03927
 C2359 C 0.44219 0.37031 1.05815
 C2360 C 0.54420 0.60016 1.04433
 H2361 H 0.53907 0.58844 1.03919
 C2362 C 0.55799 0.62994 1.05816
 C2363 C 0.39999 0.45581 1.04434
 H2364 H 0.41172 0.46092 1.03922
 C2365 C 0.37017 0.44206 1.05810
 C2366 C 0.60010 0.54422 1.04446
 H2367 H 0.58838 0.53910 1.03933
 C2368 C 0.62990 0.55799 1.05824
 C2369 C 1.13202 1.13115 1.27215
 C2370 C 1.12583 1.12485 1.25960
 C2371 C 1.11838 1.11732 1.24464
 C2372 C 1.11804 1.09960 1.24283
 C2373 C 1.11065 1.09226 1.22839
 C2374 C 1.10350 1.10256 1.21556
 C2375 C 1.10396 1.12038 1.21749
 C2376 C 1.11136 1.12769 1.23194
 C2377 C 1.09548 1.09475 1.20032
 C2378 C 1.08023 1.10138 1.19364
 C2379 C 1.07258 1.09388 1.17942
 C2380 C 1.08005 1.07966 1.17170
 C2381 C 1.09527 1.07303 1.17818
 C2382 C 1.10294 1.08050 1.19240
 C2383 C 1.07216 1.07191 1.15711
 C2384 C 1.06563 1.06545 1.14480
 H2385 H 1.12339 1.09146 1.25261
 H2386 H 1.11030 1.07851 1.22738
 H2387 H 1.09876 1.12865 1.20774
 H2388 H 1.11160 1.14143 1.23320
 H2389 H 1.07408 1.11221 1.19957
 H2390 H 1.06081 1.09912 1.17450
 H2391 H 1.10121 1.06209 1.17222
 H2392 H 1.11479 1.07526 1.19708
 C2393 C 1.13207 0.63134 0.77218
 C2394 C 1.12588 0.62504 0.75963
 C2395 C 1.11841 0.61756 0.74466
 C2396 C 1.12191 0.60059 0.74047
 C2397 C 1.11451 0.59325 0.72603
 C2398 C 1.10349 0.60280 0.71559
 C2399 C 1.10012 0.61987 0.71988
 C2400 C 1.10753 0.62719 0.73432
 C2401 C 1.09544 0.59493 0.70037
 C2402 C 1.07834 0.59839 0.69632
 C2403 C 1.07072 0.59085 0.68210
 C2404 C 1.08008 0.57976 0.67175
 C2405 C 1.09712 0.57631 0.67560
 C2406 C 1.10476 0.58383 0.68982
 C2407 C 1.07221 0.57197 0.65714
 C2408 C 1.06570 0.56550 0.64483
 H2409 H 1.13028 0.59301 0.74842
 H2410 H 1.11719 0.58002 0.72320
 H2411 H 1.09188 0.62762 0.71198
 H2412 H 1.10478 0.64035 0.73742
 H2413 H 1.07077 0.60671 0.70430
 H2414 H 1.05753 0.59362 0.67922
 H2415 H 1.10450 0.56783 0.66761
 H2416 H 1.11801 0.58111 0.69245
 C2417 C 0.63215 1.13148 0.77270
 C2418 C 0.62602 1.12520 0.76010
 C2419 C 0.61861 1.11763 0.74513
 C2420 C 0.61629 1.09999 0.74429
 C2421 C 0.60890 1.09263 0.72984
 C2422 C 0.60372 1.10285 0.71603
 C2423 C 0.60617 1.12058 0.71699
 C2424 C 0.61356 1.12791 0.73144
 C2425 C 0.59568 1.09505 0.70076
 C2426 C 0.58180 1.10303 0.69268
 C2427 C 0.57413 1.09559 0.67843
 C2428 C 0.58020 1.08008 0.67205
 C2429 C 0.59404 1.07209 0.67994
 C2430 C 0.60173 1.07951 0.69420
 C2431 C 0.57227 1.07241 0.65740
 C2432 C 0.56571 1.06600 0.64506
 H2433 H 0.62011 1.09191 0.75483
 H2434 H 0.60701 1.07898 0.72960
 H2435 H 0.60256 1.12877 0.70648
 H2436 H 0.61536 1.14158 0.73195
 H2437 H 0.57671 1.11489 0.69754
 H2438 H 0.56343 1.10190 0.67242
 H2439 H 0.59891 1.06014 0.67505
 H2440 H 0.61253 1.07317 0.69997
 C2441 C 0.63196 0.63161 1.27217
 C2442 C 0.62578 0.62524 1.25964
 C2443 C 0.61832 0.61759 1.24474
 C2444 C 0.61028 0.60175 1.24601
 C2445 C 0.60287 0.59433 1.23163
 C2446 C 0.60341 0.60266 1.21575
 C2447 C 0.61156 0.61858 1.21458
 C2448 C 0.61898 0.62597 1.22900
 C2449 C 0.59544 0.59480 1.20049
 C2450 C 0.58626 0.60482 1.18878
 C2451 C 0.57862 0.59735 1.17453
 C2452 C 0.58004 0.57979 1.17179
 C2453 C 0.58922 0.56974 1.18330
 C2454 C 0.59687 0.57717 1.19756
 C2455 C 0.57213 0.57210 1.15716
 C2456 C 0.56559 0.56566 1.14485
 H2457 H 0.60967 0.59519 1.25816
 H2458 H 0.59649 0.58219 1.23301
 H2459 H 0.61236 0.62521 1.20250
 H2460 H 0.62521 0.63823 1.22785
 H2461 H 0.58477 0.61838 1.19078
 H2462 H 0.57155 0.60526 1.16569
 H2463 H 0.59050 0.55615 1.18124
 H2464 H 0.60406 0.56916 1.20620
 C2465 C 0.86785 0.86852 1.27274
 C2466 C 0.87409 0.87481 1.26018
 C2467 C 0.88161 0.88230 1.24521
 C2468 C 0.87826 0.89930 1.24105
 C2469 C 0.88569 0.90663 1.22661
 C2470 C 0.89661 0.89703 1.21612
 C2471 C 0.89985 0.87992 1.22039
 C2472 C 0.89240 0.87262 1.23484
 C2473 C 0.90466 0.90488 1.20086
 C2474 C 0.92170 0.90127 1.19670
 C2475 C 0.92932 0.90878 1.18244
 C2476 C 0.92002 0.92000 1.17215
 C2477 C 0.90304 0.92361 1.17613
 C2478 C 0.89540 0.91612 1.19038
 C2479 C 0.92788 0.92776 1.15749
 C2480 C 0.93439 0.93421 1.14515
 H2481 H 0.86996 0.90692 1.24903
 H2482 H 0.88311 0.91989 1.22380
 H2483 H 0.90801 0.87212 1.21246
 H2484 H 0.89505 0.85942 1.23792
 H2485 H 0.92923 0.89283 1.20461
 H2486 H 0.94247 0.90589 1.17948
 H2487 H 0.89569 0.93220 1.16820
 H2488 H 0.88219 0.91896 1.19310
 C2489 C 0.86772 0.36858 0.77262
 C2490 C 0.87393 0.37484 0.76003
 C2491 C 0.88142 0.38229 0.74504
 C2492 C 0.87808 0.39929 0.74086
 C2493 C 0.88552 0.40660 0.72640
 C2494 C 0.89642 0.39696 0.71593
 C2495 C 0.89963 0.37985 0.72021
 C2496 C 0.89218 0.37257 0.73467
 C2497 C 0.90452 0.40478 0.70069
 C2498 C 0.92156 0.40113 0.69657
 C2499 C 0.92922 0.40861 0.68232
 C2500 C 0.91997 0.41983 0.67200
 C2501 C 0.90299 0.42349 0.67593
 C2502 C 0.89530 0.41603 0.69018
 C2503 C 0.92788 0.42756 0.65735
 C2504 C 0.93441 0.43400 0.64501
 H2505 H 0.86981 0.40694 0.74883
 H2506 H 0.88296 0.41985 0.72359
 H2507 H 0.90777 0.37203 0.71228
 H2508 H 0.89481 0.35938 0.73777
 H2509 H 0.92906 0.39269 0.70451
 H2510 H 0.94237 0.40568 0.67939
 H2511 H 0.89568 0.43208 0.66798
 H2512 H 0.88210 0.41890 0.69286
 C2513 C 0.36851 0.86927 0.77297
 C2514 C 0.37465 0.87550 0.76034
 C2515 C 0.38200 0.88288 0.74525
 C2516 C 0.39262 0.87310 0.73480
 C2517 C 0.39990 0.88030 0.72021
 C2518 C 0.39664 0.89739 0.71590
 C2519 C 0.38585 0.90708 0.72644
 C2520 C 0.37859 0.89985 0.74102
 C2521 C 0.40461 0.90515 0.70058
 C2522 C 0.39530 0.91634 0.69009
 C2523 C 0.40291 0.92381 0.67581
 C2524 C 0.41989 0.92023 0.67184
 C2525 C 0.42922 0.90905 0.68212
 C2526 C 0.42165 0.90155 0.69640
 C2527 C 0.42773 0.92800 0.65719
 C2528 C 0.43422 0.93447 0.64487
 H2529 H 0.39528 0.85992 0.73792
 H2530 H 0.40795 0.87244 0.71223
 H2531 H 0.38326 0.92032 0.72358
 H2532 H 0.37040 0.90753 0.74904
 H2533 H 0.38210 0.91917 0.69283
 H2534 H 0.39553 0.93238 0.66787
 H2535 H 0.44238 0.90618 0.67915
 H2536 H 0.42920 0.89316 0.70432
 C2537 C 0.36744 0.36889 1.27288
 C2538 C 0.37364 0.37512 1.26027
 C2539 C 0.38115 0.38253 1.24526
 C2540 C 0.37782 0.39953 1.24104
 C2541 C 0.38526 0.40679 1.22656
 C2542 C 0.39617 0.39714 1.21611
 C2543 C 0.39939 0.38004 1.22044
 C2544 C 0.39192 0.37280 1.23492
 C2545 C 0.40427 0.40493 1.20084
 C2546 C 0.42131 0.40127 1.19671
 C2547 C 0.42897 0.40875 1.18246
 C2548 C 0.41973 0.41999 1.17215
 C2549 C 0.40274 0.42364 1.17609
 C2550 C 0.39506 0.41617 1.19033
 C2551 C 0.42765 0.42776 1.15752
 C2552 C 0.43420 0.43423 1.14521
 H2553 H 0.36953 0.40719 1.24897
 H2554 H 0.38271 0.42004 1.22371
 H2555 H 0.40754 0.37220 1.21255
 H2556 H 0.39455 0.35961 1.23804
 H2557 H 0.42880 0.39282 1.20464
 H2558 H 0.44212 0.40582 1.17953
 H2559 H 0.39543 0.43224 1.16814
 H2560 H 0.38185 0.41905 1.19302
 C2561 C 0.86755 1.13115 0.72779
 C2562 C 0.87382 1.12478 0.74028
 C2563 C 0.88143 1.11720 0.75513
 C2564 C 0.89316 1.10391 0.75331
 C2565 C 0.90071 1.09662 0.76771
 C2566 C 0.89663 1.10255 0.78414
 C2567 C 0.88477 1.11588 0.78583
 C2568 C 0.87724 1.12316 0.77141
 C2569 C 0.90475 1.09488 0.79941
 C2570 C 0.89520 1.09176 0.81427
 C2571 C 0.90285 1.08437 0.82857
 C2572 C 0.92012 1.08003 0.82823
 C2573 C 0.92974 1.08316 0.81355
 C2574 C 0.92212 1.09054 0.79923
 C2575 C 0.92796 1.07232 0.84290
 C2576 C 0.93446 1.06588 0.85524
 H2577 H 0.89646 1.09917 0.74076
 H2578 H 0.90960 1.08622 0.76600
 H2579 H 0.88151 1.12086 0.79829
 H2580 H 0.86821 1.13347 0.77294
 H2581 H 0.88177 1.09478 0.81474
 H2582 H 0.89528 1.08198 0.83987
 H2583 H 0.94314 1.07992 0.81318
 H2584 H 0.92987 1.09301 0.78809
 C2585 C 0.86795 0.63137 0.22786
 C2586 C 0.87416 0.62509 0.24043
 C2587 C 0.88167 0.61760 0.25538
 C2588 C 0.87911 0.60033 0.25898
 C2589 C 0.88657 0.59298 0.27339
 C2590 C 0.89671 0.60282 0.28441
 C2591 C 0.89916 0.62019 0.28071
 C2592 C 0.89168 0.62751 0.26628
 C2593 C 0.90479 0.59495 0.29961
 C2594 C 0.92155 0.59921 0.30423
 C2595 C 0.92922 0.59162 0.31842
 C2596 C 0.92026 0.57969 0.32816
 C2597 C 0.90355 0.57545 0.32374
 C2598 C 0.89585 0.58301 0.30956
 C2599 C 0.92816 0.57186 0.34274
 C2600 C 0.93468 0.56535 0.35503
 H2601 H 0.87143 0.59253 0.25058
 H2602 H 0.88463 0.57953 0.27576
 H2603 H 0.90671 0.62814 0.28905
 H2604 H 0.89371 0.64090 0.26363
 H2605 H 0.92883 0.60820 0.29672
 H2606 H 0.94216 0.59501 0.32174
 H2607 H 0.89645 0.56631 0.33127
 H2608 H 0.88285 0.57966 0.30649
 C2609 C 0.36776 1.13136 0.22784
 C2610 C 0.37404 1.12501 0.24033
 C2611 C 0.38167 1.11745 0.25519
 C2612 C 0.39529 1.10610 0.25339
 C2613 C 0.40282 1.09883 0.26781
 C2614 C 0.39682 1.10283 0.28424
 C2615 C 0.38310 1.11423 0.28590
 C2616 C 0.37560 1.12150 0.27146
 C2617 C 0.40486 1.09511 0.29954
 C2618 C 0.39483 1.08951 0.31331
 C2619 C 0.40242 1.08203 0.32760
 C2620 C 0.42010 1.08007 0.32831
 C2621 C 0.43019 1.08570 0.31474
 C2622 C 0.42264 1.09317 0.30044
 C2623 C 0.42790 1.07227 0.34296
 C2624 C 0.43438 1.06577 0.35528
 H2625 H 0.40007 1.10285 0.24085
 H2626 H 0.41320 1.08992 0.26609
 H2627 H 0.37834 1.11772 0.29838
 H2628 H 0.36510 1.13032 0.27298
 H2629 H 0.38111 1.09065 0.31291
 H2630 H 0.39449 1.07771 0.33804
 H2631 H 0.44390 1.08432 0.31522
 H2632 H 0.43071 1.09758 0.29016
 C2633 C 0.36743 0.63155 0.72798
 C2634 C 0.37368 0.62520 0.74050
 C2635 C 0.38125 0.61766 0.75540
 C2636 C 0.37950 0.60019 0.75847
 C2637 C 0.38701 0.59282 0.77285
 C2638 C 0.39639 0.60285 0.78436
 C2639 C 0.39803 0.62042 0.78118
 C2640 C 0.39050 0.62776 0.76679
 C2641 C 0.40452 0.59500 0.79956
 C2642 C 0.42092 0.60000 0.80471
 C2643 C 0.42862 0.59249 0.81892
 C2644 C 0.42004 0.57989 0.82817
 C2645 C 0.40369 0.57489 0.82320
 C2646 C 0.39598 0.58237 0.80899
 C2647 C 0.42797 0.57215 0.84278
 C2648 C 0.43449 0.56570 0.85511
 H2649 H 0.37241 0.59225 0.74969
 H2650 H 0.38571 0.57923 0.77482
 H2651 H 0.40498 0.62851 0.78991
 H2652 H 0.39190 0.64130 0.76455
 H2653 H 0.42790 0.60953 0.79760
 H2654 H 0.44127 0.59646 0.82266
 H2655 H 0.39690 0.56522 0.83034
 H2656 H 0.38325 0.57843 0.80550
 C2657 C 1.13171 0.86867 0.72763
 C2658 C 1.12553 0.87501 0.74017
 C2659 C 1.11810 0.88260 0.75511
 C2660 C 1.11581 0.87290 0.76992
 C2661 C 1.10848 0.88026 0.78439
 C2662 C 1.10336 0.89744 0.78424
 C2663 C 1.10576 0.90708 0.76930
 C2664 C 1.11308 0.89970 0.75484
 C2665 C 1.09545 0.90527 0.79955
 C2666 C 1.09959 0.92202 0.80437
 C2667 C 1.09196 0.92947 0.81864
 C2668 C 1.08010 0.92030 0.82826
 C2669 C 1.07597 0.90360 0.82364
 C2670 C 1.08359 0.89612 0.80938
 C2671 C 1.07220 0.92803 0.84289
 C2672 C 1.06566 0.93448 0.85520
 H2673 H 1.11969 0.85966 0.77027
 H2674 H 1.10700 0.87257 0.79577
 H2675 H 1.10175 0.92026 0.76870
 H2676 H 1.11476 0.90730 0.74342
 H2677 H 1.10886 0.92930 0.79722
 H2678 H 1.09533 0.94237 0.82217
 H2679 H 1.06681 0.89638 0.83102
 H2680 H 1.07999 0.88327 0.80589
 C2681 C 1.13216 0.36832 0.22790
 C2682 C 1.12594 0.37466 0.24042
 C2683 C 1.11842 0.38230 0.25527
 C2684 C 1.12101 0.37509 0.27139
 C2685 C 1.11362 0.38251 0.28581
 C2686 C 1.10353 0.39725 0.28427
 C2687 C 1.10102 0.40439 0.26799
 C2688 C 1.10842 0.39695 0.25361
 C2689 C 1.09559 0.40513 0.29953
 C2690 C 1.09505 0.42296 0.30129
 C2691 C 1.08738 0.43039 0.31554
 C2692 C 1.08016 0.42013 0.32820
 C2693 C 1.08071 0.40239 0.32663
 C2694 C 1.08838 0.39492 0.31238
 C2695 C 1.07225 0.42783 0.34283
 C2696 C 1.06571 0.43427 0.35514
 H2697 H 1.12877 0.36377 0.27283
 H2698 H 1.11596 0.37684 0.29818
 H2699 H 1.09315 0.41559 0.26636
 H2700 H 1.10629 0.40260 0.24118
 H2701 H 1.10071 0.43115 0.29174
 H2702 H 1.08712 0.44414 0.31669
 H2703 H 1.07516 0.39432 0.33637
 H2704 H 1.08843 0.38117 0.31130
 C2705 C 0.63207 0.86861 0.22797
 C2706 C 0.62580 0.87497 0.24046
 C2707 C 0.61817 0.88257 0.25528
 C2708 C 0.62493 0.87943 0.27150
 C2709 C 0.61744 0.88677 0.28590
 C2710 C 0.60306 0.89734 0.28426
 C2711 C 0.59639 0.90043 0.26789
 C2712 C 0.60390 0.89309 0.25352
 C2713 C 0.59503 0.90513 0.29953
 C2714 C 0.57721 0.90613 0.30089
 C2715 C 0.56964 0.91361 0.31517
 C2716 C 0.57977 0.92021 0.32826
 C2717 C 0.59750 0.91920 0.32708
 C2718 C 0.60510 0.91171 0.31281
 C2719 C 0.57195 0.92799 0.34289
 C2720 C 0.56543 0.93447 0.35520
 H2721 H 0.63594 0.87126 0.27301
 H2722 H 0.62275 0.88399 0.29834
 H2723 H 0.58549 0.90870 0.26619
 H2724 H 0.59859 0.89563 0.24102
 H2725 H 0.56911 0.90095 0.29101
 H2726 H 0.55590 0.91424 0.31600
 H2727 H 0.60546 0.92427 0.33714
 H2728 H 0.61885 0.91130 0.31205
 C2729 C 0.63210 0.36841 0.72794
 C2730 C 0.62584 0.37476 0.74044
 C2731 C 0.61827 0.38240 0.75528
 C2732 C 0.62403 0.37803 0.77159
 C2733 C 0.61662 0.38546 0.78599
 C2734 C 0.60336 0.39739 0.78424
 C2735 C 0.59767 0.40168 0.76777
 C2736 C 0.60509 0.39423 0.75340
 C2737 C 0.59546 0.40533 0.79949
 C2738 C 0.59110 0.42272 0.79943
 C2739 C 0.58348 0.43016 0.81371
 C2740 C 0.58011 0.42035 0.82821
 C2741 C 0.58446 0.40306 0.82844
 C2742 C 0.59209 0.39559 0.81418
 C2743 C 0.57222 0.42804 0.84286
 C2744 C 0.56569 0.43448 0.85518
 H2745 H 0.63426 0.36891 0.77318
 H2746 H 0.62142 0.38206 0.79848
 H2747 H 0.58734 0.41064 0.76600
 H2748 H 0.60050 0.39766 0.74083
 H2749 H 0.59375 0.43061 0.78842
 H2750 H 0.58025 0.44358 0.81343
 H2751 H 0.58190 0.39534 0.83961
 H2752 H 0.59512 0.38214 0.81454
 C2753 C 1.27203 1.13162 1.13173
 C2754 C 1.25955 1.12523 1.12552
 C2755 C 1.24471 1.11756 1.11805
 C2756 C 1.24617 1.10234 1.10889
 C2757 C 1.23178 1.09490 1.10157
 C2758 C 1.21570 1.10260 1.10330
 C2759 C 1.21436 1.11790 1.11256
 C2760 C 1.22878 1.12531 1.11988
 C2761 C 1.20042 1.09474 1.09543
 C2762 C 1.18804 1.10492 1.08739
 C2763 C 1.17378 1.09747 1.07980
 C2764 C 1.17170 1.07977 1.08014
 C2765 C 1.18388 1.06955 1.08818
 C2766 C 1.19816 1.07697 1.09577
 C2767 C 1.15705 1.07209 1.07228
 C2768 C 1.14473 1.06568 1.06576
 H2769 H 1.25845 1.09625 1.10736
 H2770 H 1.23327 1.08326 1.09433
 H2771 H 1.20214 1.12403 1.11431
 H2772 H 1.22751 1.13707 1.12699
 H2773 H 1.18951 1.11862 1.08674
 H2774 H 1.16441 1.10550 1.07362
 H2775 H 1.18235 1.05584 1.08860
 H2776 H 1.20733 1.06882 1.10207
 C2777 C 1.27219 0.63117 0.63132
 C2778 C 1.25967 0.62482 0.62514
 C2779 C 1.24472 0.61728 0.61776
 C2780 C 1.24387 0.59964 0.61540
 C2781 C 1.22938 0.59230 0.60815
 C2782 C 1.21554 0.60253 0.60314
 C2783 C 1.21651 0.62025 0.60560
 C2784 C 1.23101 0.62756 0.61287
 C2785 C 1.20023 0.59474 0.59527
 C2786 C 1.19208 0.60266 0.58138
 C2787 C 1.17783 0.59517 0.57382
 C2788 C 1.17153 0.57969 0.58001
 C2789 C 1.17946 0.57178 0.59389
 C2790 C 1.19372 0.57923 0.60147
 C2791 C 1.15693 0.57194 0.57215
 C2792 C 1.14465 0.56548 0.56563
 H2793 H 1.25442 0.59156 0.61911
 H2794 H 1.22912 0.57865 0.60622
 H2795 H 1.20599 0.62844 0.60209
 H2796 H 1.23153 0.64123 0.61469
 H2797 H 1.19689 0.61450 0.57620
 H2798 H 1.17177 0.60141 0.56309
 H2799 H 1.17462 0.55985 0.59886
 H2800 H 1.19955 0.57296 0.61230
 C2801 C 0.77179 1.13145 0.63172
 C2802 C 0.75931 1.12507 0.62551
 C2803 C 0.74446 1.11743 0.61803
 C2804 C 0.72853 1.12518 0.61988
 C2805 C 0.71412 1.11778 0.61253
 C2806 C 0.71546 1.10251 0.60324
 C2807 C 0.73154 1.09481 0.60149
 C2808 C 0.74593 1.10223 0.60884
 C2809 C 0.70019 1.09467 0.59535
 C2810 C 0.69790 1.07690 0.59570
 C2811 C 0.68363 1.06950 0.58810
 C2812 C 0.67147 1.07974 0.58004
 C2813 C 0.67358 1.09743 0.57969
 C2814 C 0.68784 1.10486 0.58729
 C2815 C 0.65682 1.07208 0.57217
 C2816 C 0.64450 1.06570 0.56566
 H2817 H 0.72725 1.13692 0.62701
 H2818 H 0.70189 1.12390 0.61429
 H2819 H 0.73303 1.08318 0.59424
 H2820 H 0.75821 1.09615 0.60730
 H2821 H 0.70706 1.06874 0.60201
 H2822 H 0.68207 1.05579 0.58853
 H2823 H 0.66423 1.10547 0.57349
 H2824 H 0.68933 1.11856 0.58664
 C2825 C 0.77198 0.63160 1.13189
 C2826 C 0.75949 0.62525 1.12567
 C2827 C 0.74464 0.61761 1.11815
 C2828 C 0.74614 0.60242 1.10897
 C2829 C 0.73177 0.59498 1.10160
 C2830 C 0.71568 0.60266 1.10331
 C2831 C 0.71431 0.61795 1.11257
 C2832 C 0.72871 0.62536 1.11994
 C2833 C 0.70042 0.59477 1.09542
 C2834 C 0.68801 0.60491 1.08740
 C2835 C 0.67376 0.59742 1.07981
 C2836 C 0.67172 0.57971 1.08015
 C2837 C 0.68394 0.56953 1.08818
 C2838 C 0.69820 0.57698 1.09576
 C2839 C 0.65708 0.57200 1.07231
 C2840 C 0.64476 0.56556 1.06582
 H2841 H 0.75843 0.59634 1.10745
 H2842 H 0.73329 0.58335 1.09435
 H2843 H 0.70208 0.62407 1.11430
 H2844 H 0.72741 0.63712 1.12706
 H2845 H 0.68944 0.61861 1.08675
 H2846 H 0.66437 0.60543 1.07363
 H2847 H 0.68244 0.55582 1.08860
 H2848 H 0.70739 0.56885 1.10207
 C2849 C 1.27182 0.86876 0.86824
 C2850 C 1.25929 0.87506 0.87444
 C2851 C 1.24437 0.88260 0.88191
 C2852 C 1.23220 0.87231 0.88986
 C2853 C 1.21778 0.87965 0.89728
 C2854 C 1.21536 0.89741 0.89682
 C2855 C 1.22766 0.90763 0.88874
 C2856 C 1.24207 0.90026 0.88134
 C2857 C 1.20015 0.90526 0.90483
 C2858 C 1.19165 0.91886 0.89681
 C2859 C 1.17744 0.92637 0.90446
 C2860 C 1.17156 0.92041 0.92021
 C2861 C 1.17986 0.90684 0.92825
 C2862 C 1.19406 0.89930 0.92062
 C2863 C 1.15695 0.92818 0.92806
 C2864 C 1.14464 0.93463 0.93456
 H2865 H 1.23385 0.85861 0.89033
 H2866 H 1.20844 0.87143 0.90320
 H2867 H 1.22627 0.92135 0.88837
 H2868 H 1.25144 0.90834 0.87526
 H2869 H 1.19587 0.92357 0.88454
 H2870 H 1.17104 0.93681 0.89808
 H2871 H 1.17539 0.90212 0.94044
 H2872 H 1.20044 0.88898 0.92721
 C2873 C 1.27255 0.36878 0.36770
 C2874 C 1.26000 0.37504 0.37392
 C2875 C 1.24506 0.38255 0.38143
 C2876 C 1.24490 0.39988 0.38558
 C2877 C 1.23046 0.40717 0.39300
 C2878 C 1.21596 0.39722 0.39638
 C2879 C 1.21624 0.37980 0.39214
 C2880 C 1.23070 0.37253 0.38471
 C2881 C 1.20064 0.40498 0.40436
 C2882 C 1.19140 0.39613 0.41692
 C2883 C 1.17712 0.40355 0.42455
 C2884 C 1.17188 0.41990 0.41973
 C2885 C 1.18092 0.42877 0.40718
 C2886 C 1.19520 0.42138 0.39954
 C2887 C 1.15722 0.42758 0.42762
 C2888 C 1.14489 0.43400 0.43415
 H2889 H 1.25596 0.40774 0.38315
 H2890 H 1.23074 0.42055 0.39633
 H2891 H 1.20522 0.37185 0.39438
 H2892 H 1.23068 0.35911 0.38150
 H2893 H 1.19536 0.38357 0.42105
 H2894 H 1.17021 0.39656 0.43424
 H2895 H 1.17692 0.44139 0.40327
 H2896 H 1.20188 0.42841 0.38973
 C2897 C 0.77220 0.86881 0.36797
 C2898 C 0.75967 0.87510 0.37421
 C2899 C 0.74476 0.88262 0.38173
 C2900 C 0.74347 0.90033 0.38321
 C2901 C 0.72904 0.90767 0.39061
 C2902 C 0.71568 0.89737 0.39665
 C2903 C 0.71710 0.87957 0.39508
 C2904 C 0.73154 0.87226 0.38767
 C2905 C 0.70040 0.90519 0.40460
 C2906 C 0.69287 0.89779 0.41911
 C2907 C 0.67861 0.90529 0.42670
 C2908 C 0.67169 0.92026 0.41991
 C2909 C 0.67902 0.92765 0.40543
 C2910 C 0.69328 0.92019 0.39782
 C2911 C 0.65705 0.92801 0.42775
 C2912 C 0.64473 0.93447 0.43424
 H2913 H 0.75366 0.90847 0.37871
 H2914 H 0.72846 0.92139 0.39184
 H2915 H 0.70695 0.87131 0.39940
 H2916 H 0.73239 0.85853 0.38655
 H2917 H 0.69815 0.88636 0.42474
 H2918 H 0.67303 0.89944 0.43790
 H2919 H 0.67371 0.93918 0.40000
 H2920 H 0.69862 0.92604 0.38652
 C2921 C 0.77204 0.36888 0.86779
 C2922 C 0.75955 0.37519 0.87408
 C2923 C 0.74471 0.38273 0.88172
 C2924 C 0.72856 0.37961 0.87490
 C2925 C 0.71416 0.38695 0.88237
 C2926 C 0.71574 0.39752 0.89676
 C2927 C 0.73204 0.40054 0.90353
 C2928 C 0.74641 0.39319 0.89606
 C2929 C 0.70049 0.40541 0.90468
 C2930 C 0.70102 0.42232 0.91058
 C2931 C 0.68672 0.42972 0.91817
 C2932 C 0.67171 0.42033 0.91997
 C2933 C 0.67101 0.40352 0.91409
 C2934 C 0.68530 0.39609 0.90648
 C2935 C 0.65703 0.42798 0.92782
 C2936 C 0.64470 0.43439 0.93433
 H2937 H 0.72711 0.37155 0.86379
 H2938 H 0.70181 0.38454 0.87673
 H2939 H 0.73366 0.40842 0.91474
 H2940 H 0.75885 0.39563 0.90148
 H2941 H 0.71243 0.42990 0.90916
 H2942 H 0.68737 0.44277 0.92260
 H2943 H 0.65945 0.39614 0.91543
 H2944 H 0.68454 0.38299 0.90225
 C2945 C 0.72804 0.86866 1.13205
 C2946 C 0.74053 0.87500 1.12580
 C2947 C 0.75536 0.88256 1.11818
 C2948 C 0.77066 0.88333 1.12728
 C2949 C 0.78507 0.89066 1.11983
 C2950 C 0.78436 0.89730 1.10317
 C2951 C 0.76891 0.89645 1.09415
 C2952 C 0.75452 0.88913 1.10161
 C2953 C 0.79963 0.90512 1.09523
 C2954 C 0.80342 0.90222 1.07793
 C2955 C 0.81768 0.90973 1.07041
 C2956 C 0.82834 0.92024 1.08004
 C2957 C 0.82475 0.92315 1.09728
 C2958 C 0.81049 0.91564 1.10484
 C2959 C 0.84298 0.92802 1.07225
 C2960 C 0.85530 0.93446 1.06578
 H2961 H 0.77146 0.87823 1.14009
 H2962 H 0.79683 0.89093 1.12703
 H2963 H 0.76789 0.90166 1.08140
 H2964 H 0.74273 0.88862 1.09448
 H2965 H 0.79545 0.89398 1.07027
 H2966 H 0.82040 0.90732 1.05708
 H2967 H 0.83293 0.93126 1.10486
 H2968 H 0.80782 0.91827 1.11812
 C2969 C 0.72809 0.36850 0.63199
 C2970 C 0.74059 0.37480 0.62573
 C2971 C 0.75543 0.38234 0.61811
 C2972 C 0.75395 0.39152 0.60288
 C2973 C 0.76833 0.39884 0.59541
 C2974 C 0.78442 0.39706 0.60307
 C2975 C 0.78578 0.38782 0.61839
 C2976 C 0.77137 0.38050 0.62585
 C2977 C 0.79969 0.40486 0.59509
 C2978 C 0.81214 0.41286 0.60519
 C2979 C 0.82638 0.42038 0.59763
 C2980 C 0.82839 0.42000 0.57990
 C2981 C 0.81615 0.41199 0.56976
 C2982 C 0.80189 0.40447 0.57729
 C2983 C 0.84303 0.42779 0.57211
 C2984 C 0.85534 0.43425 0.56563
 H2985 H 0.74166 0.39306 0.59681
 H2986 H 0.76682 0.40608 0.58375
 H2987 H 0.79801 0.38605 0.62449
 H2988 H 0.77267 0.37337 0.63761
 H2989 H 0.81072 0.41354 0.61891
 H2990 H 0.83579 0.42655 0.60561
 H2991 H 0.81762 0.41154 0.55603
 H2992 H 0.79267 0.39819 0.56919
 C2993 C 0.22767 0.86876 0.63168
 C2994 C 0.24022 0.87508 0.62553
 C2995 C 0.25518 0.88262 0.61812
 C2996 C 0.25630 0.90031 0.61633
 C2997 C 0.27075 0.90765 0.60900
 C2998 C 0.28430 0.89737 0.60335
 C2999 C 0.28307 0.87959 0.60526
 C3000 C 0.26860 0.87228 0.61260
 C3001 C 0.29958 0.90518 0.59541
 C3002 C 0.30732 0.89759 0.58112
 C3003 C 0.32156 0.90509 0.57351
 C3004 C 0.32825 0.92024 0.58007
 C3005 C 0.32071 0.92782 0.59434
 C3006 C 0.30647 0.92036 0.60196
 C3007 C 0.34286 0.92798 0.57220
 C3008 C 0.35517 0.93443 0.56567
 H3009 H 0.24596 0.90842 0.62053
 H3010 H 0.27121 0.92136 0.60752
 H3011 H 0.29337 0.87135 0.60124
 H3012 H 0.26788 0.85856 0.61397
 H3013 H 0.30220 0.88602 0.57566
 H3014 H 0.32731 0.89910 0.56248
 H3015 H 0.32586 0.93950 0.59959
 H3016 H 0.30096 0.92637 0.61309
 C3017 C 0.22814 0.36852 1.13196
 C3018 C 0.24063 0.37484 1.12570
 C3019 C 0.25547 0.38240 1.11809
 C3020 C 0.25397 0.39159 1.10287
 C3021 C 0.26835 0.39893 1.09540
 C3022 C 0.28444 0.39716 1.10306
 C3023 C 0.28581 0.38790 1.11838
 C3024 C 0.27141 0.38056 1.12583
 C3025 C 0.29970 0.40498 1.09510
 C3026 C 0.31213 0.41299 1.10520
 C3027 C 0.32636 0.42055 1.09765
 C3028 C 0.32838 0.42018 1.07992
 C3029 C 0.31615 0.41215 1.06977
 C3030 C 0.30190 0.40460 1.07729
 C3031 C 0.34300 0.42800 1.07215
 C3032 C 0.35531 0.43448 1.06568
 H3033 H 0.24168 0.39312 1.09680
 H3034 H 0.26684 0.40618 1.08375
 H3035 H 0.29805 0.38615 1.12447
 H3036 H 0.27271 0.37343 1.13759
 H3037 H 0.31071 0.41366 1.11892
 H3038 H 0.33576 0.42673 1.10563
 H3039 H 0.31763 0.41171 1.05604
 H3040 H 0.29270 0.39831 1.06919
 C3041 C 0.72790 1.13127 0.86781
 C3042 C 0.74043 1.12500 0.87407
 C3043 C 0.75528 1.11746 0.88172
 C3044 C 0.75374 1.10804 0.89679
 C3045 C 0.76812 1.10071 0.90428
 C3046 C 0.78426 1.10269 0.89679
 C3047 C 0.78568 1.11222 0.88164
 C3048 C 0.77127 1.11954 0.87416
 C3049 C 0.79952 1.09481 0.90472
 C3050 C 0.81506 1.10366 0.90535
 C3051 C 0.82936 1.09624 0.91296
 C3052 C 0.82831 1.07989 0.92001
 C3053 C 0.81293 1.07096 0.91938
 C3054 C 0.79863 1.07835 0.91180
 C3055 C 0.84301 1.07224 0.92783
 C3056 C 0.85536 1.06583 0.93431
 H3057 H 0.74143 1.10641 0.90279
 H3058 H 0.76664 1.09365 0.91606
 H3059 H 0.79788 1.11380 0.87544
 H3060 H 0.77259 1.12679 0.86247
 H3061 H 0.81611 1.11642 0.90020
 H3062 H 0.84121 1.10327 0.91339
 H3063 H 0.81200 1.05826 0.92473
 H3064 H 0.78692 1.07112 0.91130
 C3065 C 0.72802 0.63147 0.36806
 C3066 C 0.74053 0.62509 0.37426
 C3067 C 0.75539 0.61745 0.38178
 C3068 C 0.75362 0.60373 0.39303
 C3069 C 0.76798 0.59636 0.40051
 C3070 C 0.78435 0.60262 0.39684
 C3071 C 0.78601 0.61639 0.38545
 C3072 C 0.77161 0.62375 0.37798
 C3073 C 0.79960 0.59481 0.40486
 C3074 C 0.81457 0.59225 0.39536
 C3075 C 0.82885 0.58474 0.40290
 C3076 C 0.82837 0.57970 0.42002
 C3077 C 0.81357 0.58227 0.42960
 C3078 C 0.79928 0.58976 0.42209
 C3079 C 0.84304 0.57191 0.42775
 C3080 C 0.85538 0.56543 0.43419
 H3081 H 0.74112 0.59873 0.39600
 H3082 H 0.76628 0.58563 0.40903
 H3083 H 0.79841 0.62163 0.38253
 H3084 H 0.77313 0.63440 0.36931
 H3085 H 0.81515 0.59582 0.38203
 H3086 H 0.84024 0.58281 0.39536
 H3087 H 0.81309 0.57849 0.44288
 H3088 H 0.78804 0.59179 0.42981
 C3089 C 0.22803 1.13121 0.36802
 C3090 C 0.24051 1.12485 0.37429
 C3091 C 0.25534 1.11724 0.38187
 C3092 C 0.25381 1.10779 0.39693
 C3093 C 0.26818 1.10039 0.40435
 C3094 C 0.28430 1.10235 0.39680
 C3095 C 0.28571 1.11189 0.38167
 C3096 C 0.27131 1.11928 0.37426
 C3097 C 0.29956 1.09446 0.40471
 C3098 C 0.31510 1.10333 0.40534
 C3099 C 0.32939 1.09592 0.41295
 C3100 C 0.32834 1.07958 0.42001
 C3101 C 0.31298 1.07063 0.41937
 C3102 C 0.29868 1.07800 0.41178
 C3103 C 0.34303 1.07196 0.42786
 C3104 C 0.35538 1.06558 0.43438
 H3105 H 0.24151 1.10619 0.40295
 H3106 H 0.26672 1.09332 0.41612
 H3107 H 0.29791 1.11345 0.37544
 H3108 H 0.27262 1.12654 0.36257
 H3109 H 0.31613 1.11608 0.40018
 H3110 H 0.34123 1.10297 0.41339
 H3111 H 0.31206 1.05793 0.42472
 H3112 H 0.28698 1.07076 0.41127
 C3113 C 0.22812 0.63151 0.86810
 C3114 C 0.24060 0.62518 0.87439
 C3115 C 0.25544 0.61760 0.88199
 C3116 C 0.25391 0.60813 0.89704
 C3117 C 0.26829 0.60073 0.90446
 C3118 C 0.28442 0.60271 0.89693
 C3119 C 0.28583 0.61230 0.88182
 C3120 C 0.27142 0.61969 0.87441
 C3121 C 0.29967 0.59478 0.90481
 C3122 C 0.31523 0.60363 0.90546
 C3123 C 0.32952 0.59617 0.91304
 C3124 C 0.32846 0.57980 0.92003
 C3125 C 0.31308 0.57087 0.91937
 C3126 C 0.29878 0.57830 0.91181
 C3127 C 0.34314 0.57214 0.92786
 C3128 C 0.35547 0.56573 0.93437
 H3129 H 0.24161 0.60650 0.90305
 H3130 H 0.26682 0.59364 0.91621
 H3131 H 0.29803 0.61389 0.87561
 H3132 H 0.27273 0.62697 0.86274
 H3133 H 0.31627 0.61640 0.90035
 H3134 H 0.34137 0.60320 0.91349
 H3135 H 0.31215 0.55816 0.92467
 H3136 H 0.28707 0.57107 0.91128
 C3137 C 1.13186 1.27210 1.13128
 C3138 C 1.12555 1.25958 1.12506
 C3139 C 1.11792 1.24470 1.11763
 C3140 C 1.10154 1.24564 1.11071
 C3141 C 1.09408 1.23121 1.10345
 C3142 C 1.10293 1.21563 1.10302
 C3143 C 1.11939 1.21481 1.11003
 C3144 C 1.12682 1.22926 1.11729
 C3145 C 1.09502 1.20034 1.09522
 C3146 C 1.10472 1.18924 1.08501
 C3147 C 1.09719 1.17499 1.07747
 C3148 C 1.07989 1.17164 1.08003
 C3149 C 1.07016 1.18252 1.09025
 C3150 C 1.07766 1.19678 1.09780
 C3151 C 1.07212 1.15703 1.07220
 C3152 C 1.06566 1.14473 1.06569
 H3153 H 1.09456 1.25754 1.11087
 H3154 H 1.08149 1.23231 1.09796
 H3155 H 1.12643 1.20295 1.11009
 H3156 H 1.13949 1.22839 1.12267
 H3157 H 1.11806 1.19173 1.08263
 H3158 H 1.10483 1.16663 1.06959
 H3159 H 1.05679 1.17998 1.09240
 H3160 H 1.06992 1.20494 1.10579
 C3161 C 1.13175 0.77190 0.63147
 C3162 C 1.12545 0.75939 0.62523
 C3163 C 1.11782 0.74453 0.61773
 C3164 C 1.12563 0.72859 0.61944
 C3165 C 1.11820 0.71417 0.61212
 C3166 C 1.10283 0.71551 0.60300
 C3167 C 1.09509 0.73160 0.60138
 C3168 C 1.10255 0.74600 0.60870
 C3169 C 1.09490 0.70023 0.59517
 C3170 C 1.07715 0.69795 0.59570
 C3171 C 1.06967 0.68368 0.58814
 C3172 C 1.07980 0.67152 0.57996
 C3173 C 1.09748 0.67362 0.57944
 C3174 C 1.10499 0.68787 0.58700
 C3175 C 1.07206 0.65689 0.57212
 C3176 C 1.06561 0.64458 0.56561
 H3177 H 1.13744 0.72731 0.62645
 H3178 H 1.12435 0.70194 0.61377
 H3179 H 1.08339 0.73309 0.59424
 H3180 H 1.09642 0.75828 0.60726
 H3181 H 1.06907 0.70710 0.60211
 H3182 H 1.05599 0.68213 0.58870
 H3183 H 1.10544 0.66428 0.57314
 H3184 H 1.11866 0.68936 0.58622
 C3185 C 0.63173 1.27215 0.63136
 C3186 C 0.62541 1.25964 0.62513
 C3187 C 0.61777 1.24477 0.61766
 C3188 C 0.60255 1.24624 0.60855
 C3189 C 0.59508 1.23183 0.60127
 C3190 C 0.60276 1.21573 0.60303
 C3191 C 0.61808 1.21438 0.61222
 C3192 C 0.62552 1.22882 0.61950
 C3193 C 0.59482 1.20044 0.59524
 C3194 C 0.60491 1.18802 0.58716
 C3195 C 0.59739 1.17376 0.57962
 C3196 C 0.57971 1.17172 0.58007
 C3197 C 0.56958 1.18393 0.58818
 C3198 C 0.57707 1.19820 0.59571
 C3199 C 0.57196 1.15710 0.57222
 C3200 C 0.56550 1.14481 0.56571
 H3201 H 0.59647 1.25854 0.60702
 H3202 H 0.58342 1.23332 0.59408
 H3203 H 0.62418 1.20214 0.61397
 H3204 H 0.63729 1.22753 0.62658
 H3205 H 0.61859 1.18947 0.58643
 H3206 H 0.60535 1.16437 0.57339
 H3207 H 0.55588 1.18242 0.58868
 H3208 H 0.56899 1.20740 0.60205
 C3209 C 0.63164 0.77228 1.13136
 C3210 C 0.62535 0.75975 1.12512
 C3211 C 0.61775 0.74486 1.11765
 C3212 C 0.60251 0.74631 1.10854
 C3213 C 0.59508 0.73188 1.10126
 C3214 C 0.60279 0.71579 1.10299
 C3215 C 0.61813 0.71448 1.11217
 C3216 C 0.62554 0.72893 1.11945
 C3217 C 0.59488 0.70049 1.09521
 C3218 C 0.60497 0.68808 1.08714
 C3219 C 0.59746 0.67380 1.07961
 C3220 C 0.57978 0.67174 1.08006
 C3221 C 0.56964 0.68395 1.08816
 C3222 C 0.57712 0.69823 1.09569
 C3223 C 0.57203 0.65710 1.07225
 C3224 C 0.56558 0.64478 1.06576
 H3225 H 0.59640 0.75859 1.10703
 H3226 H 0.58341 0.73336 1.09407
 H3227 H 0.62427 0.70225 1.11391
 H3228 H 0.63732 0.72767 1.12653
 H3229 H 0.61865 0.68954 1.08640
 H3230 H 0.60543 0.66442 1.07338
 H3231 H 0.55595 0.68243 1.08868
 H3232 H 0.56904 0.70742 1.10203
 C3233 C 0.86832 1.27235 0.86829
 C3234 C 0.87457 1.25980 0.87457
 C3235 C 0.88214 1.24490 0.88210
 C3236 C 0.89949 1.24479 0.88608
 C3237 C 0.90688 1.23037 0.89345
 C3238 C 0.89701 1.21583 0.89695
 C3239 C 0.87956 1.21608 0.89291
 C3240 C 0.87219 1.23052 0.88552
 C3241 C 0.90489 1.20053 0.90481
 C3242 C 0.89627 1.19131 0.91755
 C3243 C 0.90383 1.17705 0.92510
 C3244 C 0.92008 1.17182 0.92002
 C3245 C 0.92871 1.18083 0.90729
 C3246 C 0.92119 1.19509 0.89973
 C3247 C 0.92790 1.15720 0.92785
 C3248 C 0.93441 1.14489 0.93435
 H3249 H 0.90729 1.25587 0.88353
 H3250 H 0.92028 1.23067 0.89664
 H3251 H 0.87167 1.20503 0.89526
 H3252 H 0.85875 1.23047 0.88246
 H3253 H 0.88380 1.19528 0.92187
 H3254 H 0.89703 1.17015 0.93494
 H3255 H 0.94126 1.17682 0.90319
 H3256 H 0.92804 1.20176 0.88978
 C3257 C 0.86850 0.77224 0.36835
 C3258 C 0.87478 0.75969 0.37460
 C3259 C 0.88236 0.74477 0.38208
 C3260 C 0.87241 0.73040 0.38553
 C3261 C 0.87979 0.71593 0.39287
 C3262 C 0.89725 0.71566 0.39686
 C3263 C 0.90713 0.73018 0.39332
 C3264 C 0.89973 0.74462 0.38599
 C3265 C 0.90513 0.70035 0.40471
 C3266 C 0.92141 0.69488 0.39962
 C3267 C 0.92892 0.68060 0.40716
 C3268 C 0.92029 0.67159 0.41989
 C3269 C 0.90405 0.67685 0.42499
 C3270 C 0.89651 0.69113 0.41746
 C3271 C 0.92808 0.65693 0.42769
 C3272 C 0.93456 0.64459 0.43415
 H3273 H 0.85896 0.73036 0.38251
 H3274 H 0.87189 0.70489 0.39524
 H3275 H 0.92054 0.73047 0.39645
 H3276 H 0.90753 0.75570 0.38342
 H3277 H 0.92826 0.70154 0.38966
 H3278 H 0.94145 0.67657 0.40304
 H3279 H 0.89725 0.66996 0.43484
 H3280 H 0.88405 0.69513 0.42180
 C3281 C 0.36788 1.27240 0.36832
 C3282 C 0.37419 1.25989 0.37461
 C3283 C 0.38181 1.24502 0.38217
 C3284 C 0.37424 1.22902 0.38012
 C3285 C 0.38167 1.21459 0.38748
 C3286 C 0.39681 1.21598 0.39696
 C3287 C 0.40431 1.23213 0.39894
 C3288 C 0.39685 1.24654 0.39159
 C3289 C 0.40477 1.20068 0.40477
 C3290 C 0.42256 1.19862 0.40463
 C3291 C 0.43008 1.18434 0.41216
 C3292 C 0.41995 1.17192 0.41993
 C3293 C 0.40224 1.17378 0.42007
 C3294 C 0.39468 1.18806 0.41254
 C3295 C 0.42773 1.15726 0.42775
 C3296 C 0.43422 1.14494 0.43425
 H3297 H 0.36262 1.22770 0.37282
 H3298 H 0.37571 1.20232 0.38555
 H3299 H 0.41581 1.23367 0.40636
 H3300 H 0.40279 1.25887 0.39329
 H3301 H 0.43066 1.20797 0.39854
 H3302 H 0.44379 1.18297 0.41190
 H3303 H 0.39427 1.16424 0.42605
 H3304 H 0.38098 1.18936 0.41302
 C3305 C 0.36847 0.77259 0.86878
 C3306 C 0.37475 0.76004 0.87500
 C3307 C 0.38230 0.74508 0.88243
 C3308 C 0.37232 0.73071 0.88576
 C3309 C 0.37966 0.71619 0.89303
 C3310 C 0.39711 0.71587 0.89704
 C3311 C 0.40703 0.73039 0.89360
 C3312 C 0.39966 0.74488 0.88635
 C3313 C 0.40494 0.70052 0.90484
 C3314 C 0.42121 0.69503 0.89973
 C3315 C 0.42870 0.68074 0.90728
 C3316 C 0.42006 0.67176 0.92002
 C3317 C 0.40383 0.67703 0.92511
 C3318 C 0.39630 0.69131 0.91757
 C3319 C 0.42785 0.65713 0.92786
 C3320 C 0.43433 0.64483 0.93438
 H3321 H 0.35887 0.73071 0.88272
 H3322 H 0.37173 0.70515 0.89532
 H3323 H 0.42043 0.73062 0.89676
 H3324 H 0.40749 0.75596 0.88386
 H3325 H 0.42807 0.70169 0.88979
 H3326 H 0.44123 0.67670 0.90317
 H3327 H 0.39702 0.67015 0.93496
 H3328 H 0.38385 0.69531 0.92191
 C3329 C 1.13182 0.72802 0.86846
 C3330 C 1.12558 0.74054 0.87476
 C3331 C 1.11806 0.75541 0.88237
 C3332 C 1.12034 0.77144 0.87490
 C3333 C 1.11294 0.78586 0.88228
 C3334 C 1.10312 0.78441 0.89722
 C3335 C 1.10096 0.76823 0.90465
 C3336 C 1.10838 0.75384 0.89726
 C3337 C 1.09511 0.79966 0.90502
 C3338 C 1.07853 0.79876 0.91174
 C3339 C 1.07101 0.81305 0.91922
 C3340 C 1.07994 0.82843 0.92009
 C3341 C 1.09641 0.82949 0.91338
 C3342 C 1.10395 0.81521 0.90588
 C3343 C 1.07220 0.84310 0.92788
 C3344 C 1.06573 0.85541 0.93437
 H3345 H 1.12778 0.77278 0.86335
 H3346 H 1.11468 0.79811 0.87615
 H3347 H 1.09370 0.76673 0.91628
 H3348 H 1.10658 0.74150 0.90317
 H3349 H 1.07130 0.78705 0.91104
 H3350 H 1.05823 0.81212 0.92430
 H3351 H 1.10344 0.84134 0.91401
 H3352 H 1.11680 0.81626 0.90100
 C3353 C 1.13179 0.22775 0.36844
 C3354 C 1.12551 0.24027 0.37471
 C3355 C 1.11794 0.25513 0.38228
 C3356 C 1.10825 0.25356 0.39716
 C3357 C 1.10079 0.26794 0.40451
 C3358 C 1.10293 0.28411 0.39706
 C3359 C 1.11274 0.28557 0.38212
 C3360 C 1.12019 0.27115 0.37478
 C3361 C 1.09491 0.29936 0.40486
 C3362 C 1.10378 0.31490 0.40573
 C3363 C 1.09626 0.32918 0.41326
 C3364 C 1.07980 0.32812 0.41999
 C3365 C 1.07085 0.31275 0.41911
 C3366 C 1.07834 0.29847 0.41160
 C3367 C 1.07208 0.34278 0.42780
 C3368 C 1.06564 0.35511 0.43430
 H3369 H 1.10648 0.24122 0.40309
 H3370 H 1.09351 0.26644 0.41614
 H3371 H 1.11446 0.29780 0.37598
 H3372 H 1.12764 0.27249 0.36323
 H3373 H 1.11661 0.31594 0.40083
 H3374 H 1.10330 0.34102 0.41389
 H3375 H 1.05808 0.31182 0.42421
 H3376 H 1.07110 0.28676 0.41089
 C3377 C 0.63168 0.72798 0.36871
 C3378 C 0.62540 0.74051 0.37498
 C3379 C 0.61782 0.75538 0.38252
 C3380 C 0.60808 0.75384 0.39737
 C3381 C 0.60061 0.76823 0.40470
 C3382 C 0.60279 0.78440 0.39725
 C3383 C 0.61266 0.78583 0.38234
 C3384 C 0.62011 0.77140 0.37502
 C3385 C 0.59478 0.79967 0.40502
 C3386 C 0.60365 0.81521 0.40588
 C3387 C 0.59613 0.82951 0.41338
 C3388 C 0.57966 0.82847 0.42009
 C3389 C 0.57070 0.81310 0.41921
 C3390 C 0.57820 0.79880 0.41173
 C3391 C 0.57193 0.84315 0.42787
 C3392 C 0.56548 0.85549 0.43434
 H3393 H 0.60627 0.74150 0.40330
 H3394 H 0.59331 0.76675 0.41630
 H3395 H 0.61440 0.79806 0.37619
 H3396 H 0.62759 0.77272 0.36349
 H3397 H 0.61650 0.81624 0.40100
 H3398 H 0.60318 0.84134 0.41401
 H3399 H 0.55792 0.81219 0.42429
 H3400 H 0.57095 0.78710 0.41104
 C3401 C 0.63170 0.22788 0.86814
 C3402 C 0.62548 0.24039 0.87450
 C3403 C 0.61801 0.25527 0.88217
 C3404 C 0.60837 0.25369 0.89708
 C3405 C 0.60100 0.26808 0.90453
 C3406 C 0.60318 0.28428 0.89714
 C3407 C 0.61298 0.28575 0.88219
 C3408 C 0.62033 0.27132 0.87476
 C3409 C 0.59517 0.29953 0.90498
 C3410 C 0.60401 0.31508 0.90583
 C3411 C 0.59646 0.32937 0.91333
 C3412 C 0.58000 0.32830 0.92006
 C3413 C 0.57109 0.31292 0.91920
 C3414 C 0.57860 0.29862 0.91172
 C3415 C 0.57225 0.34298 0.92783
 C3416 C 0.56577 0.35530 0.93431
 H3417 H 0.60655 0.24134 0.90296
 H3418 H 0.59375 0.26656 0.91617
 H3419 H 0.61473 0.29800 0.87610
 H3420 H 0.62776 0.27268 0.86319
 H3421 H 0.61685 0.31614 0.90093
 H3422 H 0.60349 0.34122 0.91394
 H3423 H 0.55831 0.31198 0.92429
 H3424 H 0.57137 0.28691 0.91103
 C3425 C 0.86842 0.72789 1.13141
 C3426 C 0.87465 0.74046 1.12521
 C3427 C 0.88212 0.75543 1.11775
 C3428 C 0.89152 0.76669 1.12785
 C3429 C 0.89892 0.78115 1.12055
 C3430 C 0.89700 0.78452 1.10302
 C3431 C 0.88748 0.77313 1.09300
 C3432 C 0.88010 0.75869 1.10032
 C3433 C 0.90499 0.79977 1.09520
 C3434 C 0.89624 0.80931 1.08278
 C3435 C 0.90386 0.82354 1.07526
 C3436 C 0.92030 0.82840 1.08002
 C3437 C 0.92908 0.81906 1.09243
 C3438 C 0.92148 0.80483 1.09997
 C3439 C 0.92815 0.84300 1.07222
 C3440 C 0.93464 0.85530 1.06574
 H3441 H 0.89313 0.76430 1.14136
 H3442 H 0.90599 0.78978 1.12864
 H3443 H 0.88596 0.77525 1.07944
 H3444 H 0.87288 0.75001 1.09238
 H3445 H 0.88344 0.80589 1.07902
 H3446 H 0.89691 0.83075 1.06575
 H3447 H 0.94181 0.82273 1.09622
 H3448 H 0.92862 0.79764 1.10934
 C3449 C 0.86818 0.22783 0.63139
 C3450 C 0.87442 0.24037 0.62511
 C3451 C 0.88192 0.25525 0.61750
 C3452 C 0.88045 0.27111 0.62549
 C3453 C 0.88780 0.28554 0.61809
 C3454 C 0.89672 0.28428 0.60258
 C3455 C 0.89810 0.26827 0.59465
 C3456 C 0.89075 0.25386 0.60208
 C3457 C 0.90463 0.29955 0.59472
 C3458 C 0.90395 0.30206 0.57696
 C3459 C 0.91161 0.31631 0.56953
 C3460 C 0.92007 0.32821 0.57972
 C3461 C 0.92075 0.32589 0.59741
 C3462 C 0.91307 0.31166 0.60487
 C3463 C 0.92799 0.34283 0.57203
 C3464 C 0.93453 0.35513 0.56558
 H3465 H 0.87360 0.27232 0.63742
 H3466 H 0.88634 0.29772 0.62440
 H3467 H 0.90507 0.26683 0.58283
 H3468 H 0.89200 0.24163 0.59581
 H3469 H 0.89733 0.29311 0.56884
 H3470 H 0.91093 0.31804 0.55584
 H3471 H 0.92725 0.33505 0.60542
 H3472 H 0.91398 0.30999 0.61855
 C3473 C 0.36821 0.72759 0.63078
 C3474 C 0.37447 0.74015 0.62458
 C3475 C 0.38203 0.75514 0.61725
 C3476 C 0.37180 0.76896 0.61251
 C3477 C 0.37916 0.78350 0.60534
 C3478 C 0.39687 0.78441 0.60283
 C3479 C 0.40703 0.77046 0.60768
 C3480 C 0.39964 0.75593 0.61484
 C3481 C 0.40472 0.79977 0.59508
 C3482 C 0.42025 0.80613 0.60130
 C3483 C 0.42779 0.82041 0.59381
 C3484 C 0.41992 0.82852 0.58001
 C3485 C 0.40440 0.82238 0.57381
 C3486 C 0.39683 0.80810 0.58129
 C3487 C 0.42776 0.84313 0.57221
 C3488 C 0.43427 0.85542 0.56572
 H3489 H 0.35815 0.76850 0.61439
 H3490 H 0.37102 0.79411 0.60194
 H3491 H 0.42066 0.77068 0.60571
 H3492 H 0.40767 0.74530 0.61844
 H3493 H 0.42650 0.80016 0.61207
 H3494 H 0.43975 0.82513 0.59878
 H3495 H 0.39819 0.82857 0.56313
 H3496 H 0.38497 0.80341 0.57609
 C3497 C 0.36836 0.22806 1.13148
 C3498 C 0.37463 0.24059 1.12521
 C3499 C 0.38216 0.25546 1.11762
 C3500 C 0.38082 0.27129 1.12570
 C3501 C 0.38820 0.28573 1.11832
 C3502 C 0.39699 0.28449 1.10274
 C3503 C 0.39824 0.26851 1.09472
 C3504 C 0.39087 0.25410 1.10213
 C3505 C 0.40489 0.29977 1.09487
 C3506 C 0.40405 0.30236 1.07713
 C3507 C 0.41168 0.31662 1.06969
 C3508 C 0.42023 0.32847 1.07986
 C3509 C 0.42106 0.32608 1.09753
 C3510 C 0.41343 0.31183 1.10500
 C3511 C 0.42811 0.34312 1.07216
 C3512 C 0.43461 0.35544 1.06572
 H3513 H 0.37406 0.27249 1.13769
 H3514 H 0.38684 0.29788 1.12469
 H3515 H 0.40512 0.26710 1.08285
 H3516 H 0.39202 0.24190 1.09580
 H3517 H 0.39735 0.29345 1.06903
 H3518 H 0.41087 0.31841 1.05601
 H3519 H 0.42764 0.33519 1.10552
 H3520 H 0.41445 0.31010 1.11866
 C3521 C 1.13120 1.13224 0.72723
 C3522 C 1.12497 1.12599 0.73981
 C3523 C 1.11757 1.11842 0.75479
 C3524 C 1.10953 1.12866 0.76698
 C3525 C 1.10225 1.12127 0.78148
 C3526 C 1.10293 1.10353 0.78398
 C3527 C 1.11109 1.09337 0.77167
 C3528 C 1.11835 1.10078 0.75718
 C3529 C 1.09506 1.09562 0.79930
 C3530 C 1.10320 1.08209 0.80781
 C3531 C 1.09567 1.07450 0.82207
 C3532 C 1.07992 1.08032 0.82802
 C3533 C 1.07177 1.09383 0.81971
 C3534 C 1.07927 1.10144 0.80545
 C3535 C 1.07214 1.07246 0.84266
 C3536 C 1.06568 1.06594 0.85499
 H3537 H 1.10890 1.14234 0.76529
 H3538 H 1.09626 1.12946 0.79083
 H3539 H 1.11163 1.07966 0.77311
 H3540 H 1.12451 1.09273 0.74780
 H3541 H 1.11546 1.07748 0.80354
 H3542 H 1.10214 1.06412 0.82847
 H3543 H 1.05958 1.09845 0.82422
 H3544 H 1.07260 1.11169 0.79907
 C3545 C 1.13126 0.63224 0.22711
 C3546 C 1.12505 0.62601 0.23971
 C3547 C 1.11769 0.61842 0.25472
 C3548 C 1.11767 0.60071 0.25664
 C3549 C 1.11045 0.59327 0.27113
 C3550 C 1.10312 0.60347 0.28393
 C3551 C 1.10325 0.62129 0.28190
 C3552 C 1.11049 0.62870 0.26738
 C3553 C 1.09529 0.59554 0.29925
 C3554 C 1.08001 0.60197 0.30604
 C3555 C 1.07251 0.59432 0.32029
 C3556 C 1.08017 0.58016 0.32796
 C3557 C 1.09543 0.57373 0.32138
 C3558 C 1.10295 0.58135 0.30713
 C3559 C 1.07241 0.57225 0.34260
 C3560 C 1.06596 0.56570 0.35492
 H3561 H 1.12318 0.59263 0.24689
 H3562 H 1.11036 0.57952 0.27219
 H3563 H 1.09792 0.62951 0.29161
 H3564 H 1.11049 0.64244 0.26606
 H3565 H 1.07369 0.61274 0.30016
 H3566 H 1.06071 0.59941 0.32528
 H3567 H 1.10153 0.56283 0.32727
 H3568 H 1.11483 0.57625 0.30238
 C3569 C 0.63182 1.13223 0.22762
 C3570 C 0.62545 1.12599 0.24013
 C3571 C 0.61781 1.11842 0.25499
 C3572 C 0.62153 1.12474 0.27125
 C3573 C 0.61414 1.11732 0.28568
 C3574 C 0.60294 1.10344 0.28402
 C3575 C 0.59926 1.09722 0.26760
 C3576 C 0.60666 1.10467 0.25320
 C3577 C 0.59511 1.09545 0.29930
 C3578 C 0.59331 1.07765 0.30035
 C3579 C 0.58577 1.07013 0.31463
 C3580 C 0.57992 1.08028 0.32807
 C3581 C 0.58174 1.09800 0.32721
 C3582 C 0.58928 1.10555 0.31293
 C3583 C 0.57210 1.07251 0.34273
 C3584 C 0.56560 1.06601 0.35506
 H3585 H 0.63019 1.13537 0.27279
 H3586 H 0.61738 1.12227 0.29814
 H3587 H 0.59051 1.08673 0.26587
 H3588 H 0.60366 1.09971 0.24067
 H3589 H 0.59790 1.06952 0.29019
 H3590 H 0.58452 1.05640 0.31520
 H3591 H 0.57726 1.10598 0.33755
 H3592 H 0.59032 1.11929 0.31244
 C3593 C 0.63160 0.63200 0.72782
 C3594 C 0.62533 0.62582 0.74041
 C3595 C 0.61782 0.61837 0.75539
 C3596 C 0.62738 0.60741 0.76571
 C3597 C 0.62001 0.59997 0.78013
 C3598 C 0.60297 0.60341 0.78441
 C3599 C 0.59350 0.61451 0.77399
 C3600 C 0.60088 0.62193 0.75957
 C3601 C 0.59505 0.59536 0.79961
 C3602 C 0.58402 0.60473 0.81018
 C3603 C 0.57643 0.59709 0.82437
 C3604 C 0.57975 0.57999 0.82819
 C3605 C 0.59077 0.57058 0.81781
 C3606 C 0.59838 0.57820 0.80361
 C3607 C 0.57192 0.57214 0.84279
 C3608 C 0.56543 0.56565 0.85510
 H3609 H 0.64052 0.60460 0.76260
 H3610 H 0.62770 0.59166 0.78802
 H3611 H 0.58029 0.61724 0.77681
 H3612 H 0.59336 0.63035 0.75163
 H3613 H 0.58140 0.61802 0.80758
 H3614 H 0.56800 0.60452 0.83238
 H3615 H 0.59343 0.55734 0.82066
 H3616 H 0.60665 0.57059 0.79562
 C3617 C 0.86836 0.86797 0.72796
 C3618 C 0.87479 0.87422 0.74043
 C3619 C 0.88249 0.88177 0.75526
 C3620 C 0.89538 0.89390 0.75335
 C3621 C 0.90282 0.90134 0.76772
 C3622 C 0.89745 0.89674 0.78422
 C3623 C 0.88448 0.88451 0.78599
 C3624 C 0.87706 0.87708 0.77159
 C3625 C 0.90535 0.90467 0.79947
 C3626 C 0.89532 0.90939 0.81357
 C3627 C 0.90278 0.91701 0.82785
 C3628 C 0.92033 0.92000 0.82822
 C3629 C 0.93041 0.91528 0.81430
 C3630 C 0.92299 0.90768 0.80002
 C3631 C 0.92801 0.92788 0.84289
 C3632 C 0.93443 0.93440 0.85522
 H3633 H 0.89965 0.89765 0.74076
 H3634 H 0.91260 0.91087 0.76592
 H3635 H 0.88021 0.88054 0.79851
 H3636 H 0.86713 0.86766 0.77321
 H3637 H 0.88169 0.90743 0.81347
 H3638 H 0.89485 0.92061 0.83856
 H3639 H 0.94402 0.91745 0.81450
 H3640 H 0.93108 0.90397 0.78948
 C3641 C 0.86838 0.36758 0.22750
 C3642 C 0.87475 0.37377 0.24003
 C3643 C 0.88235 0.38124 0.25495
 C3644 C 0.90007 0.38211 0.25643
 C3645 C 0.90747 0.38949 0.27085
 C3646 C 0.89723 0.39614 0.28398
 C3647 C 0.87943 0.39516 0.28238
 C3648 C 0.87205 0.38776 0.26796
 C3649 C 0.90510 0.40415 0.29923
 C3650 C 0.89806 0.41901 0.30637
 C3651 C 0.90556 0.42664 0.32061
 C3652 C 0.92019 0.41953 0.32790
 C3653 C 0.92724 0.40471 0.32096
 C3654 C 0.91976 0.39706 0.30672
 C3655 C 0.92793 0.42742 0.34254
 C3656 C 0.93438 0.43395 0.35486
 H3657 H 0.90816 0.37715 0.24641
 H3658 H 0.92121 0.39025 0.27159
 H3659 H 0.87120 0.39994 0.29237
 H3660 H 0.85832 0.38712 0.26695
 H3661 H 0.88690 0.42489 0.30080
 H3662 H 0.89999 0.43810 0.32590
 H3663 H 0.93850 0.39904 0.32657
 H3664 H 0.92533 0.38550 0.30168
 C3665 C 0.36859 0.86737 0.22731
 C3666 C 0.37483 0.87363 0.23988
 C3667 C 0.38224 0.88123 0.25483
 C3668 C 0.39295 0.87166 0.26541
 C3669 C 0.40026 0.87910 0.27985
 C3670 C 0.39695 0.89625 0.28392
 C3671 C 0.38612 0.90574 0.27323
 C3672 C 0.37883 0.89827 0.25879
 C3673 C 0.40484 0.90424 0.29917
 C3674 C 0.39548 0.91560 0.30941
 C3675 C 0.40298 0.92327 0.32364
 C3676 C 0.41992 0.91971 0.32783
 C3677 C 0.42931 0.90836 0.31778
 C3678 C 0.42184 0.90068 0.30355
 C3679 C 0.42764 0.92762 0.34247
 C3680 C 0.43407 0.93417 0.35480
 H3681 H 0.39564 0.85844 0.26249
 H3682 H 0.40836 0.87139 0.28793
 H3683 H 0.38350 0.91901 0.27586
 H3684 H 0.37059 0.90581 0.25068
 H3685 H 0.38231 0.91842 0.30653
 H3686 H 0.39555 0.93195 0.33138
 H3687 H 0.44243 0.90550 0.32091
 H3688 H 0.42945 0.89216 0.29583
 C3689 C 0.36873 0.36769 0.72779
 C3690 C 0.37497 0.37393 0.74036
 C3691 C 0.38242 0.38147 0.75531
 C3692 C 0.37286 0.39257 0.76546
 C3693 C 0.38016 0.40008 0.77987
 C3694 C 0.39715 0.39657 0.78432
 C3695 C 0.40664 0.38534 0.77405
 C3696 C 0.39931 0.37785 0.75965
 C3697 C 0.40500 0.40465 0.79953
 C3698 C 0.41593 0.39528 0.81023
 C3699 C 0.42345 0.40295 0.82443
 C3700 C 0.42017 0.42007 0.82814
 C3701 C 0.40926 0.42948 0.81764
 C3702 C 0.40171 0.42184 0.80343
 C3703 C 0.42796 0.42795 0.84275
 C3704 C 0.43443 0.43445 0.85507
 H3705 H 0.35976 0.39543 0.76224
 H3706 H 0.37246 0.40848 0.78763
 H3707 H 0.41980 0.38255 0.77700
 H3708 H 0.40684 0.36932 0.75184
 H3709 H 0.41851 0.38197 0.80772
 H3710 H 0.43179 0.39551 0.83254
 H3711 H 0.40662 0.44274 0.82040
 H3712 H 0.39352 0.42944 0.79534
 C3713 C 1.13121 0.86742 1.27242
 C3714 C 1.12490 0.87372 1.25991
 C3715 C 1.11737 0.88139 1.24505
 C3716 C 1.11910 0.87365 1.22908
 C3717 C 1.11183 0.88117 1.21464
 C3718 C 1.10274 0.89656 1.21601
 C3719 C 1.10107 0.90422 1.23214
 C3720 C 1.10835 0.89668 1.24655
 C3721 C 1.09500 0.90460 1.20071
 C3722 C 1.09555 0.92238 1.19850
 C3723 C 1.08807 0.92997 1.18422
 C3724 C 1.07995 0.91991 1.17196
 C3725 C 1.07941 0.90221 1.17399
 C3726 C 1.08689 0.89459 1.18826
 C3727 C 1.07220 0.92776 1.15730
 C3728 C 1.06576 0.93428 1.14497
 H3729 H 1.12611 0.86183 1.22777
 H3730 H 1.11351 0.87506 1.20238
 H3731 H 1.09395 0.91593 1.23366
 H3732 H 1.10690 0.90275 1.25887
 H3733 H 1.10192 0.93041 1.20772
 H3734 H 1.08865 0.94368 1.18272
 H3735 H 1.07315 0.89430 1.16457
 H3736 H 1.08608 0.88089 1.18969
 C3737 C 1.13144 0.36764 0.77228
 C3738 C 1.12511 0.37390 0.75976
 C3739 C 1.11757 0.38153 0.74488
 C3740 C 1.10854 0.39681 0.74637
 C3741 C 1.10124 0.40435 0.73197
 C3742 C 1.10288 0.39667 0.71585
 C3743 C 1.11198 0.38129 0.71447
 C3744 C 1.11928 0.37378 0.72890
 C3745 C 1.09508 0.40468 0.70056
 C3746 C 1.08694 0.39463 0.68816
 C3747 C 1.07941 0.40221 0.67389
 C3748 C 1.07992 0.41991 0.67182
 C3749 C 1.08808 0.43000 0.68402
 C3750 C 1.09561 0.42246 0.69830
 C3751 C 1.07211 0.42770 0.65717
 C3752 C 1.06562 0.43418 0.64484
 H3753 H 1.10710 0.40288 0.75869
 H3754 H 1.09413 0.41606 0.73350
 H3755 H 1.11365 0.37519 0.70220
 H3756 H 1.12629 0.36196 0.72758
 H3757 H 1.08616 0.38094 0.68962
 H3758 H 1.07313 0.39427 0.66451
 H3759 H 1.08863 0.44371 0.68248
 H3760 H 1.10200 0.43052 0.70748
 C3761 C 0.63160 0.86809 0.77214
 C3762 C 0.62519 0.87434 0.75965
 C3763 C 0.61754 0.88194 0.74482
 C3764 C 0.60845 0.89720 0.74632
 C3765 C 0.60110 0.90470 0.73193
 C3766 C 0.60274 0.89702 0.71580
 C3767 C 0.61186 0.88165 0.71442
 C3768 C 0.61921 0.87418 0.72885
 C3769 C 0.59492 0.90500 0.70051
 C3770 C 0.58676 0.89494 0.68813
 C3771 C 0.57920 0.90250 0.67387
 C3772 C 0.57970 0.92020 0.67179
 C3773 C 0.58787 0.93031 0.68397
 C3774 C 0.59543 0.92278 0.69825
 C3775 C 0.57186 0.92799 0.65716
 C3776 C 0.56536 0.93448 0.64484
 H3777 H 0.60702 0.90329 0.75863
 H3778 H 0.59396 0.91641 0.73344
 H3779 H 0.61353 0.87553 0.70216
 H3780 H 0.62625 0.86238 0.72754
 H3781 H 0.58600 0.88125 0.68961
 H3782 H 0.57291 0.89456 0.66451
 H3783 H 0.58841 0.94401 0.68243
 H3784 H 0.60183 0.93084 0.70742
 C3785 C 0.63140 0.36737 1.27283
 C3786 C 0.62506 0.37367 1.26032
 C3787 C 0.61752 0.38132 1.24543
 C3788 C 0.61921 0.37352 1.22948
 C3789 C 0.61195 0.38101 1.21502
 C3790 C 0.60290 0.39643 1.21633
 C3791 C 0.60126 0.40415 1.23245
 C3792 C 0.60853 0.39663 1.24688
 C3793 C 0.59516 0.40445 1.20100
 C3794 C 0.59568 0.42223 1.19876
 C3795 C 0.58822 0.42979 1.18445
 C3796 C 0.58013 0.41972 1.17219
 C3797 C 0.57963 0.40201 1.17423
 C3798 C 0.58709 0.39441 1.18853
 C3799 C 0.57235 0.42755 1.15752
 C3800 C 0.56587 0.43408 1.14519
 H3801 H 0.62620 0.36169 1.22821
 H3802 H 0.61361 0.37486 1.20278
 H3803 H 0.59418 0.41588 1.23393
 H3804 H 0.60711 0.40276 1.25917
 H3805 H 0.60202 0.43028 1.20798
 H3806 H 0.58877 0.44350 1.18295
 H3807 H 0.57340 0.39408 1.16481
 H3808 H 0.58631 0.38072 1.18997
 C3809 C 0.86839 1.13183 1.27200
 C3810 C 0.87476 1.12563 1.25948
 C3811 C 0.88244 1.11815 1.24462
 C3812 C 0.87471 1.11992 1.22864
 C3813 C 0.88216 1.11255 1.21423
 C3814 C 0.89745 1.10333 1.21563
 C3815 C 0.90512 1.10166 1.23176
 C3816 C 0.89765 1.10902 1.24614
 C3817 C 0.90536 1.09542 1.20037
 C3818 C 0.92311 1.09582 1.19810
 C3819 C 0.93059 1.08818 1.18386
 C3820 C 0.92043 1.08003 1.17171
 C3821 C 0.90275 1.07963 1.17379
 C3822 C 0.89525 1.08727 1.18802
 C3823 C 0.92816 1.07212 1.15710
 C3824 C 0.93462 1.06558 1.14480
 H3825 H 0.86295 1.12700 1.22732
 H3826 H 0.87606 1.11424 1.20196
 H3827 H 0.91677 1.09444 1.23329
 H3828 H 0.90371 1.10753 1.25847
 H3829 H 0.93121 1.10221 1.20725
 H3830 H 0.94427 1.08865 1.18231
 H3831 H 0.89478 1.07335 1.16444
 H3832 H 0.88157 1.08658 1.18950
 C3833 C 0.86852 0.63207 0.77204
 C3834 C 0.87493 0.62580 0.75956
 C3835 C 0.88259 0.61826 0.74471
 C3836 C 0.89779 0.60911 0.74623
 C3837 C 0.90522 0.60168 0.73184
 C3838 C 0.89752 0.60331 0.71572
 C3839 C 0.88223 0.61256 0.71433
 C3840 C 0.87484 0.61999 0.72874
 C3841 C 0.90538 0.59534 0.70046
 C3842 C 0.89523 0.58724 0.68811
 C3843 C 0.90269 0.57958 0.67385
 C3844 C 0.92037 0.57992 0.67175
 C3845 C 0.93056 0.58803 0.68390
 C3846 C 0.92314 0.59568 0.69817
 C3847 C 0.92805 0.57201 0.65710
 C3848 C 0.93448 0.56547 0.64478
 H3849 H 0.90387 0.60765 0.75854
 H3850 H 0.91685 0.59445 0.73338
 H3851 H 0.87611 0.61422 0.70207
 H3852 H 0.86308 0.62709 0.72742
 H3853 H 0.88155 0.58660 0.68961
 H3854 H 0.89467 0.57335 0.66451
 H3855 H 0.94425 0.58845 0.68234
 H3856 H 0.93127 0.60203 0.70730
 C3857 C 0.36859 1.13201 0.77211
 C3858 C 0.37494 1.12577 0.75960
 C3859 C 0.38256 1.11825 0.74473
 C3860 C 0.37477 1.12002 0.72878
 C3861 C 0.38214 1.11262 0.71434
 C3862 C 0.39742 1.10336 0.71569
 C3863 C 0.40515 1.10168 0.73180
 C3864 C 0.39775 1.10908 0.74621
 C3865 C 0.40527 1.09544 0.70041
 C3866 C 0.42302 1.09583 0.69809
 C3867 C 0.43044 1.08820 0.68381
 C3868 C 0.42024 1.08006 0.67168
 C3869 C 0.40256 1.07968 0.67382
 C3870 C 0.39511 1.08732 0.68808
 C3871 C 0.42791 1.07217 0.65704
 C3872 C 0.43434 1.06564 0.64471
 H3873 H 0.36302 1.12713 0.72749
 H3874 H 0.37601 1.11431 0.70209
 H3875 H 0.41678 1.09444 0.73329
 H3876 H 0.40385 1.10759 0.75851
 H3877 H 0.43115 1.10220 0.70721
 H3878 H 0.44412 1.08866 0.68222
 H3879 H 0.39455 1.07342 0.66449
 H3880 H 0.38144 1.08664 0.68961
 C3881 C 0.36851 0.63239 1.27227
 C3882 C 0.37490 0.62613 1.25979
 C3883 C 0.38256 0.61859 1.24493
 C3884 C 0.39776 0.60944 1.24644
 C3885 C 0.40516 0.60198 1.23205
 C3886 C 0.39743 0.60359 1.21594
 C3887 C 0.38215 0.61284 1.21456
 C3888 C 0.37478 0.62030 1.22897
 C3889 C 0.40527 0.59561 1.20067
 C3890 C 0.39511 0.58751 1.18833
 C3891 C 0.40255 0.57986 1.17405
 C3892 C 0.42023 0.58020 1.17192
 C3893 C 0.43043 0.58830 1.18407
 C3894 C 0.42302 0.59595 1.19835
 C3895 C 0.42790 0.57230 1.15726
 C3896 C 0.43433 0.56577 1.14493
 H3897 H 0.40387 0.60800 1.25874
 H3898 H 0.41679 0.59474 1.23358
 H3899 H 0.37600 0.61449 1.20231
 H3900 H 0.36303 0.62741 1.22765
 H3901 H 0.38143 0.58687 1.18983
 H3902 H 0.39452 0.57364 1.16472
 H3903 H 0.44412 0.58873 1.18249
 H3904 H 0.43117 0.60229 1.20748
 C3905 C 1.13203 1.27247 0.86806
 C3906 C 1.12561 1.25997 0.87425
 C3907 C 1.11790 1.24511 0.88172
 C3908 C 1.12322 1.22880 0.87687
 C3909 C 1.11575 1.21440 0.88423
 C3910 C 1.10283 1.21613 0.89655
 C3911 C 1.09757 1.23260 0.90130
 C3912 C 1.10506 1.24697 0.89393
 C3913 C 1.09491 1.20087 0.90445
 C3914 C 1.07729 1.20039 0.90761
 C3915 C 1.06985 1.18609 0.91518
 C3916 C 1.07989 1.17208 0.91970
 C3917 C 1.09742 1.17238 0.91655
 C3918 C 1.10489 1.18667 0.90897
 C3919 C 1.07221 1.15739 0.92755
 C3920 C 1.06580 1.14504 0.93406
 H3921 H 1.13311 1.22720 0.86737
 H3922 H 1.11993 1.20190 0.88014
 H3923 H 1.08784 1.23438 0.91091
 H3924 H 1.10089 1.25954 0.89780
 H3925 H 1.06922 1.21100 0.90406
 H3926 H 1.05626 1.18596 0.91748
 H3927 H 1.10532 1.16161 0.92000
 H3928 H 1.11850 1.18672 0.90689
 C3929 C 1.13188 0.77219 0.36814
 C3930 C 1.12550 0.75968 0.37437
 C3931 C 1.11783 0.74483 0.38187
 C3932 C 1.12321 0.72853 0.37704
 C3933 C 1.11575 0.71411 0.38438
 C3934 C 1.10278 0.71582 0.39664
 C3935 C 1.09747 0.73227 0.40139
 C3936 C 1.10495 0.74666 0.39405
 C3937 C 1.09484 0.70054 0.40448
 C3938 C 1.07720 0.70004 0.40753
 C3939 C 1.06974 0.68575 0.41508
 C3940 C 1.07978 0.67176 0.41968
 C3941 C 1.09732 0.67208 0.41663
 C3942 C 1.10481 0.68637 0.40907
 C3943 C 1.07207 0.65709 0.42751
 C3944 C 1.06565 0.64475 0.43402
 H3945 H 1.13314 0.72697 0.36759
 H3946 H 1.11997 0.70164 0.38029
 H3947 H 1.08769 0.73402 0.41095
 H3948 H 1.10072 0.75921 0.39791
 H3949 H 1.06914 0.71064 0.40392
 H3950 H 1.05613 0.68560 0.41730
 H3951 H 1.10522 0.66132 0.42015
 H3952 H 1.11844 0.68643 0.40707
 C3953 C 0.63154 1.27255 0.36782
 C3954 C 0.62519 1.26004 0.37407
 C3955 C 0.61757 1.24516 0.38160
 C3956 C 0.62648 1.22971 0.38195
 C3957 C 0.61909 1.21528 0.38933
 C3958 C 0.60268 1.21610 0.39646
 C3959 C 0.59384 1.23170 0.39603
 C3960 C 0.60125 1.24611 0.38865
 C3961 C 0.59480 1.20080 0.40435
 C3962 C 0.57741 1.19730 0.40195
 C3963 C 0.56995 1.18302 0.40954
 C3964 C 0.57975 1.17205 0.41963
 C3965 C 0.59708 1.17536 0.42202
 C3966 C 0.60457 1.18964 0.41444
 C3967 C 0.57202 1.15740 0.42749
 C3968 C 0.56558 1.14507 0.43401
 H3969 H 0.63911 1.22882 0.37649
 H3970 H 0.62614 1.20342 0.38926
 H3971 H 0.58130 1.23282 0.40162
 H3972 H 0.59427 1.25801 0.38851
 H3973 H 0.56961 1.20549 0.39406
 H3974 H 0.55655 1.18052 0.40752
 H3975 H 0.60478 1.16695 0.42980
 H3976 H 0.61794 1.19208 0.41669
 C3977 C 0.63183 0.77213 0.86830
 C3978 C 0.62537 0.75965 0.87448
 C3979 C 0.61763 0.74479 0.88191
 C3980 C 0.62527 0.72880 0.88002
 C3981 C 0.61782 0.71439 0.88736
 C3982 C 0.60259 0.71579 0.89670
 C3983 C 0.59499 0.73193 0.89849
 C3984 C 0.60247 0.74631 0.89114
 C3985 C 0.59470 0.70052 0.90462
 C3986 C 0.57693 0.69833 0.90436
 C3987 C 0.56949 0.68405 0.91195
 C3988 C 0.57968 0.67178 0.91992
 C3989 C 0.59736 0.67379 0.92018
 C3990 C 0.60484 0.68806 0.91258
 C3991 C 0.57198 0.65713 0.92779
 C3992 C 0.56556 0.64480 0.93432
 H3993 H 0.63697 0.72747 0.87284
 H3994 H 0.62387 0.70212 0.88557
 H3995 H 0.58340 0.73347 0.90580
 H3996 H 0.59646 0.75864 0.89271
 H3997 H 0.56880 0.70756 0.89811
 H3998 H 0.55579 0.68257 0.91159
 H3999 H 0.60537 0.66436 0.92631
 H4000 H 0.61853 0.68947 0.91317
 C4001 C 0.86877 1.27201 1.13233
 C4002 C 0.87507 1.25948 1.12608
 C4003 C 0.88258 1.24458 1.11853
 C4004 C 0.87253 1.23329 1.10910
 C4005 C 0.87986 1.21889 1.10161
 C4006 C 0.89736 1.21558 1.10348
 C4007 C 0.90734 1.22700 1.11301
 C4008 C 0.89999 1.24139 1.12047
 C4009 C 0.90520 1.20036 1.09544
 C4010 C 0.91763 1.19084 1.10417
 C4011 C 0.92514 1.17663 1.09652
 C4012 C 0.92035 1.17174 1.08005
 C4013 C 0.90792 1.18105 1.07130
 C4014 C 0.90039 1.19527 1.07892
 C4015 C 0.92813 1.15714 1.07218
 C4016 C 0.93460 1.14484 1.06567
 H4017 H 0.85903 1.23562 1.10754
 H4018 H 0.87179 1.21023 1.09454
 H4019 H 0.92088 1.22493 1.11449
 H4020 H 0.90790 1.25009 1.12769
 H4021 H 0.92141 1.19428 1.11699
 H4022 H 0.93466 1.16943 1.10346
 H4023 H 0.90410 1.17736 1.05855
 H4024 H 0.89100 1.20243 1.07180
 C4025 C 0.86836 0.77198 0.63187
 C4026 C 0.87478 0.75948 0.62568
 C4027 C 0.88248 0.74460 0.61822
 C4028 C 0.87382 0.72904 0.61833
 C4029 C 0.88123 0.71463 0.61093
 C4030 C 0.89743 0.71560 0.60334
 C4031 C 0.90604 0.73131 0.60337
 C4032 C 0.89861 0.74570 0.61076
 C4033 C 0.90528 0.70033 0.59537
 C4034 C 0.92278 0.69703 0.59733
 C4035 C 0.93020 0.68275 0.58970
 C4036 C 0.92027 0.67160 0.58000
 C4037 C 0.90284 0.67471 0.57803
 C4038 C 0.89539 0.68898 0.58567
 C4039 C 0.92795 0.65694 0.57212
 C4040 C 0.93438 0.64460 0.56560
 H4041 H 0.86135 0.72803 0.62413
 H4042 H 0.87436 0.70268 0.61132
 H4043 H 0.91842 0.73254 0.59744
 H4044 H 0.90541 0.75770 0.61058
 H4045 H 0.93068 0.70538 0.60493
 H4046 H 0.94368 0.68041 0.59139
 H4047 H 0.89503 0.66615 0.57056
 H4048 H 0.88194 0.69127 0.58376
 C4049 C 0.36823 1.27242 0.63218
 C4050 C 0.37456 1.25988 0.62597
 C4051 C 0.38217 1.24498 0.61848
 C4052 C 0.37282 1.22989 0.61703
 C4053 C 0.38020 1.21546 0.60964
 C4054 C 0.39706 1.21594 0.60361
 C4055 C 0.40635 1.23118 0.60516
 C4056 C 0.39894 1.24559 0.61255
 C4057 C 0.40492 1.20067 0.59565
 C4058 C 0.42201 1.19645 0.59898
 C4059 C 0.42947 1.18220 0.59133
 C4060 C 0.41997 1.17197 0.58026
 C4061 C 0.40294 1.17599 0.57694
 C4062 C 0.39545 1.19024 0.58457
 C4063 C 0.42769 1.15733 0.57238
 C4064 C 0.43414 1.14500 0.56586
 H4065 H 0.35983 1.22927 0.62161
 H4066 H 0.37279 1.20387 0.60883
 H4067 H 0.41927 1.23204 0.60044
 H4068 H 0.40627 1.25723 0.61356
 H4069 H 0.42956 1.20406 0.60764
 H4070 H 0.44263 1.17915 0.59408
 H4071 H 0.39546 1.16816 0.56840
 H4072 H 0.38234 1.19325 0.58160
 C4073 C 0.36855 0.77250 1.13244
 C4074 C 0.37484 0.75995 1.12621
 C4075 C 0.38238 0.74502 1.11869
 C4076 C 0.37207 0.73162 1.11309
 C4077 C 0.37940 0.71719 1.10563
 C4078 C 0.39716 0.71599 1.10367
 C4079 C 0.40740 0.72954 1.10937
 C4080 C 0.40005 0.74394 1.11682
 C4081 C 0.40499 0.70073 1.09565
 C4082 C 0.42023 0.69386 1.10212
 C4083 C 0.42770 0.67962 1.09446
 C4084 C 0.42007 0.67206 1.08023
 C4085 C 0.40488 0.67874 1.07374
 C4086 C 0.39738 0.69298 1.08139
 C4087 C 0.42781 0.65742 1.07236
 C4088 C 0.43426 0.64509 1.06586
 H4089 H 0.35838 0.73230 1.11450
 H4090 H 0.37119 0.70690 1.10157
 H4091 H 0.42108 0.72912 1.10784
 H4092 H 0.40814 0.75428 1.12105
 H4093 H 0.42626 0.69937 1.11323
 H4094 H 0.43940 0.67449 1.09966
 H4095 H 0.39886 0.67298 1.06274
 H4096 H 0.38577 0.69807 1.07598
 C4097 C 0.86865 0.72810 0.86792
 C4098 C 0.87502 0.74056 0.87421
 C4099 C 0.88260 0.75539 0.88183
 C4100 C 0.88092 0.77134 0.87402
 C4101 C 0.88823 0.78575 0.88149
 C4102 C 0.89731 0.78439 0.89691
 C4103 C 0.89892 0.76829 0.90464
 C4104 C 0.89161 0.75390 0.89715
 C4105 C 0.90510 0.79966 0.90488
 C4106 C 0.90456 0.80193 0.92267
 C4107 C 0.91207 0.81620 0.93020
 C4108 C 0.92022 0.82839 0.92006
 C4109 C 0.92075 0.82631 0.90234
 C4110 C 0.91324 0.81204 0.89479
 C4111 C 0.92801 0.84303 0.92784
 C4112 C 0.93448 0.85534 0.93432
 H4113 H 0.87392 0.77264 0.86219
 H4114 H 0.88659 0.79799 0.87533
 H4115 H 0.90602 0.76677 0.91637
 H4116 H 0.89301 0.74161 0.90328
 H4117 H 0.89817 0.79276 0.93076
 H4118 H 0.91150 0.81774 0.94391
 H4119 H 0.92703 0.83567 0.89438
 H4120 H 0.91404 0.81057 0.88108
 C4121 C 0.86857 0.22784 0.36788
 C4122 C 0.87492 0.24033 0.37411
 C4123 C 0.88252 0.25516 0.38171
 C4124 C 0.88085 0.27110 0.37388
 C4125 C 0.88821 0.28551 0.38132
 C4126 C 0.89732 0.28413 0.39671
 C4127 C 0.89892 0.26804 0.40446
 C4128 C 0.89157 0.25366 0.39699
 C4129 C 0.90512 0.29940 0.40469
 C4130 C 0.90458 0.30166 0.42248
 C4131 C 0.91210 0.31591 0.43001
 C4132 C 0.92027 0.32809 0.41989
 C4133 C 0.92080 0.32603 0.40217
 C4134 C 0.91328 0.31178 0.39460
 C4135 C 0.92805 0.34273 0.42767
 C4136 C 0.93450 0.35505 0.43416
 H4137 H 0.87383 0.27240 0.36206
 H4138 H 0.88658 0.29774 0.37516
 H4139 H 0.90605 0.26652 0.41617
 H4140 H 0.89297 0.24138 0.40313
 H4141 H 0.89818 0.29249 0.43056
 H4142 H 0.91153 0.31744 0.44373
 H4143 H 0.92709 0.33539 0.39421
 H4144 H 0.91407 0.31032 0.38090
 C4145 C 0.36817 0.72770 0.36787
 C4146 C 0.37459 0.74017 0.37411
 C4147 C 0.38225 0.75502 0.38163
 C4148 C 0.37439 0.77094 0.38005
 C4149 C 0.38176 0.78533 0.38752
 C4150 C 0.39710 0.78398 0.39668
 C4151 C 0.40492 0.76791 0.39813
 C4152 C 0.39754 0.75354 0.39065
 C4153 C 0.40490 0.79922 0.40472
 C4154 C 0.41242 0.79810 0.42097
 C4155 C 0.41987 0.81241 0.42850
 C4156 C 0.41992 0.82804 0.41990
 C4157 C 0.41241 0.82931 0.40376
 C4158 C 0.40494 0.81502 0.39622
 C4159 C 0.42766 0.84274 0.42764
 C4160 C 0.43410 0.85510 0.43410
 H4161 H 0.36254 0.77222 0.37312
 H4162 H 0.37531 0.79747 0.38634
 H4163 H 0.41685 0.76647 0.40488
 H4164 H 0.40377 0.74129 0.39190
 H4165 H 0.41237 0.78621 0.42796
 H4166 H 0.42558 0.81129 0.44102
 H4167 H 0.41239 0.84134 0.39697
 H4168 H 0.39943 0.81626 0.38362
 C4169 C 0.36867 0.22798 0.86806
 C4170 C 0.37505 0.24047 0.87426
 C4171 C 0.38269 0.25533 0.88174
 C4172 C 0.37537 0.27140 0.87924
 C4173 C 0.38276 0.28583 0.88660
 C4174 C 0.39759 0.28436 0.89655
 C4175 C 0.40485 0.26814 0.89896
 C4176 C 0.39744 0.25374 0.89160
 C4177 C 0.40544 0.29964 0.90445
 C4178 C 0.42324 0.30151 0.90484
 C4179 C 0.43064 0.31578 0.91247
 C4180 C 0.42038 0.32836 0.91981
 C4181 C 0.40266 0.32667 0.91940
 C4182 C 0.39522 0.31241 0.91177
 C4183 C 0.42804 0.34300 0.92771
 C4184 C 0.43445 0.35531 0.93424
 H4185 H 0.36397 0.27277 0.87160
 H4186 H 0.37699 0.29815 0.88433
 H4187 H 0.41612 0.26655 0.90674
 H4188 H 0.40317 0.24135 0.89366
 H4189 H 0.43144 0.29203 0.89909
 H4190 H 0.44437 0.31701 0.91262
 H4191 H 0.39459 0.33634 0.92504
 H4192 H 0.38150 0.31125 0.91184
 C4193 C 1.13131 0.72727 1.13234
 C4194 C 1.12503 0.73983 1.12611
 C4195 C 1.11752 0.75476 1.11853
 C4196 C 1.10412 0.75306 1.10693
 C4197 C 1.09686 0.76750 1.09944
 C4198 C 1.10293 0.78388 1.10345
 C4199 C 1.11640 0.78545 1.11518
 C4200 C 1.12365 0.77097 1.12265
 C4201 C 1.09522 0.79921 1.09543
 C4202 C 1.09238 0.81408 1.10503
 C4203 C 1.08491 0.82840 1.09750
 C4204 C 1.08019 0.82807 1.08029
 C4205 C 1.08307 0.81338 1.07061
 C4206 C 1.09053 0.79905 1.07811
 C4207 C 1.07241 0.84277 1.07255
 C4208 C 1.06593 0.85512 1.06609
 H4209 H 1.09926 0.74057 1.10368
 H4210 H 1.08636 0.76587 1.09066
 H4211 H 1.12150 0.79785 1.11838
 H4212 H 1.13406 0.77243 1.13158
 H4213 H 1.09568 0.81454 1.11843
 H4214 H 1.08274 0.83970 1.10512
 H4215 H 1.07955 0.81301 1.05726
 H4216 H 1.09279 0.78790 1.07032
 C4217 C 1.13130 0.22720 0.63234
 C4218 C 1.12496 0.23971 0.62606
 C4219 C 1.11738 0.25458 0.61847
 C4220 C 1.11982 0.27064 0.62582
 C4221 C 1.11246 0.28508 0.61841
 C4222 C 1.10253 0.28364 0.60354
 C4223 C 1.10017 0.26743 0.59626
 C4224 C 1.10755 0.25302 0.60369
 C4225 C 1.09466 0.29895 0.59563
 C4226 C 1.07809 0.29820 0.58889
 C4227 C 1.07073 0.31255 0.58131
 C4228 C 1.07981 0.32783 0.58034
 C4229 C 1.09629 0.32874 0.58706
 C4230 C 1.10367 0.31441 0.59466
 C4231 C 1.07221 0.34257 0.57248
 C4232 C 1.06583 0.35494 0.56596
 H4233 H 1.12738 0.27199 0.63729
 H4234 H 1.11434 0.29733 0.62444
 H4235 H 1.09280 0.26592 0.58470
 H4236 H 1.10562 0.24066 0.59787
 H4237 H 1.07073 0.28658 0.58966
 H4238 H 1.05794 0.31172 0.57622
 H4239 H 1.10345 0.34051 0.58638
 H4240 H 1.11652 0.31535 0.59955
 C4241 C 0.63173 0.72810 0.63183
 C4242 C 0.62536 0.74061 0.62561
 C4243 C 0.61770 0.75545 0.61805
 C4244 C 0.62004 0.77150 0.62542
 C4245 C 0.61257 0.78591 0.61805
 C4246 C 0.60264 0.78441 0.60319
 C4247 C 0.60038 0.76821 0.59588
 C4248 C 0.60787 0.75384 0.60327
 C4249 C 0.59464 0.79966 0.59533
 C4250 C 0.57803 0.79881 0.58869
 C4251 C 0.57056 0.81309 0.58113
 C4252 C 0.57957 0.82842 0.58009
 C4253 C 0.59607 0.82944 0.58671
 C4254 C 0.60357 0.81516 0.59430
 C4255 C 0.57187 0.84308 0.57223
 C4256 C 0.56544 0.85541 0.56571
 H4257 H 0.62760 0.77288 0.63689
 H4258 H 0.61437 0.79817 0.62409
 H4259 H 0.59301 0.76667 0.58433
 H4260 H 0.60602 0.74148 0.59743
 H4261 H 0.57074 0.78714 0.58952
 H4262 H 0.55775 0.81219 0.57611
 H4263 H 0.60316 0.84124 0.58596
 H4264 H 0.61644 0.81617 0.59911
 C4265 C 0.63146 0.22790 1.13232
 C4266 C 0.62517 0.24042 1.12603
 C4267 C 0.61764 0.25529 1.11838
 C4268 C 0.60744 0.25362 1.10386
 C4269 C 0.60012 0.26802 1.09635
 C4270 C 0.60291 0.28431 1.10328
 C4271 C 0.61319 0.28585 1.11790
 C4272 C 0.62051 0.27142 1.12538
 C4273 C 0.59510 0.29959 1.09530
 C4274 C 0.58820 0.31265 1.10546
 C4275 C 0.58065 0.32692 1.09791
 C4276 C 0.57989 0.32832 1.08013
 C4277 C 0.58680 0.31545 1.06992
 C4278 C 0.59435 0.30118 1.07744
 C4279 C 0.57206 0.34297 1.07236
 C4280 C 0.56557 0.35530 1.06589
 H4281 H 0.60511 0.24119 1.09836
 H4282 H 0.59209 0.26638 1.08526
 H4283 H 0.61575 0.29822 1.12341
 H4284 H 0.62844 0.27285 1.13659
 H4285 H 0.58841 0.31172 1.11923
 H4286 H 0.57534 0.33681 1.10593
 H4287 H 0.58637 0.31646 1.05615
 H4288 H 0.59977 0.29147 1.06928
 C4289 C 1.27215 1.13174 0.86852
 C4290 C 1.25963 1.12543 0.87474
 C4291 C 1.24475 1.11780 0.88218
 C4292 C 1.22884 1.12559 0.88036
 C4293 C 1.21439 1.11815 0.88762
 C4294 C 1.21570 1.10280 0.89681
 C4295 C 1.23177 1.09507 0.89855
 C4296 C 1.24618 1.10253 0.89128
 C4297 C 1.20041 1.09489 0.90461
 C4298 C 1.19813 1.07712 0.90416
 C4299 C 1.18387 1.06965 0.91172
 C4300 C 1.17170 1.07982 0.91984
 C4301 C 1.17379 1.09752 0.92028
 C4302 C 1.18804 1.10502 0.91271
 C4303 C 1.15707 1.07210 0.92769
 C4304 C 1.14476 1.06566 0.93420
 H4305 H 1.22759 1.13739 0.87329
 H4306 H 1.20218 1.12430 0.88588
 H4307 H 1.23323 1.08338 0.90573
 H4308 H 1.25845 1.09642 0.89280
 H4309 H 1.20730 1.06901 0.89780
 H4310 H 1.18232 1.05595 0.91123
 H4311 H 1.16444 1.10551 0.92653
 H4312 H 1.18953 1.11871 0.91344
 C4313 C 1.27232 0.63199 0.36890
 C4314 C 1.25980 0.62566 0.37510
 C4315 C 1.24493 0.61799 0.38254
 C4316 C 1.24670 0.60542 0.39507
 C4317 C 1.23230 0.59790 0.40230
 C4318 C 1.21589 0.60284 0.39708
 C4319 C 1.21424 0.61550 0.38447
 C4320 C 1.22868 0.62301 0.37725
 C4321 C 1.20060 0.59483 0.40480
 C4322 C 1.18621 0.60471 0.40887
 C4323 C 1.17193 0.59717 0.41636
 C4324 C 1.17182 0.57969 0.41986
 C4325 C 1.18602 0.56974 0.41575
 C4326 C 1.20031 0.57725 0.40828
 C4327 C 1.15716 0.57195 0.42765
 C4328 C 1.14484 0.56550 0.43414
 H4329 H 1.25922 0.60147 0.39929
 H4330 H 1.23399 0.58836 0.41214
 H4331 H 1.20180 0.61944 0.38002
 H4332 H 1.22716 0.63269 0.36750
 H4333 H 1.18611 0.61830 0.40653
 H4334 H 1.16101 0.60499 0.41949
 H4335 H 1.18603 0.55618 0.41832
 H4336 H 1.21108 0.56926 0.40506
 C4337 C 0.77207 1.13158 0.36855
 C4338 C 0.75955 1.12527 0.37477
 C4339 C 0.74467 1.11763 0.38221
 C4340 C 0.74609 1.10236 0.39130
 C4341 C 0.73167 1.09490 0.39857
 C4342 C 0.71561 1.10264 0.39684
 C4343 C 0.71431 1.11800 0.38766
 C4344 C 0.72876 1.12543 0.38039
 C4345 C 0.70031 1.09475 0.40466
 C4346 C 0.68796 1.10490 0.41275
 C4347 C 0.67368 1.09743 0.42031
 C4348 C 0.67157 1.07974 0.41987
 C4349 C 0.68372 1.06954 0.41177
 C4350 C 0.69801 1.07699 0.40421
 C4351 C 0.65691 1.07204 0.42771
 C4352 C 0.64458 1.06563 0.43421
 H4353 H 0.75836 1.09624 0.39282
 H4354 H 0.73313 1.08320 0.40575
 H4355 H 0.70210 1.12415 0.38592
 H4356 H 0.72751 1.13723 0.37333
 H4357 H 0.68946 1.11859 0.41347
 H4358 H 0.66434 1.10544 0.42655
 H4359 H 0.68215 1.05584 0.41127
 H4360 H 0.70716 1.06886 0.39786
 C4361 C 0.77221 0.63173 0.86872
 C4362 C 0.75968 0.62545 0.87496
 C4363 C 0.74480 0.61785 0.88245
 C4364 C 0.74654 0.60446 0.89409
 C4365 C 0.73212 0.59700 0.90137
 C4366 C 0.71575 0.60285 0.89709
 C4367 C 0.71413 0.61635 0.88538
 C4368 C 0.72857 0.62378 0.87810
 C4369 C 0.70045 0.59491 0.90485
 C4370 C 0.68660 0.60499 0.91010
 C4371 C 0.67231 0.59749 0.91762
 C4372 C 0.67167 0.57983 0.91998
 C4373 C 0.68533 0.56968 0.91471
 C4374 C 0.69962 0.57715 0.90720
 C4375 C 0.65701 0.57211 0.92780
 C4376 C 0.64470 0.56567 0.93430
 H4377 H 0.75904 0.59980 0.89758
 H4378 H 0.73381 0.58680 0.91052
 H4379 H 0.70170 0.62100 0.88167
 H4380 H 0.72708 0.63412 0.86906
 H4381 H 0.68692 0.61870 0.90864
 H4382 H 0.66181 0.60547 0.92166
 H4383 H 0.68492 0.55599 0.91639
 H4384 H 0.70995 0.56902 0.90306
 C4385 C 1.27254 0.86817 1.13162
 C4386 C 1.26001 0.87446 1.12536
 C4387 C 1.24511 0.88204 1.11786
 C4388 C 1.23068 0.87212 1.11465
 C4389 C 1.21622 0.87949 1.10731
 C4390 C 1.21601 0.89692 1.10310
 C4391 C 1.23059 0.90678 1.10639
 C4392 C 1.24503 0.89938 1.11372
 C4393 C 1.20070 0.90480 1.09525
 C4394 C 1.19536 0.92119 1.10017
 C4395 C 1.18108 0.92870 1.09263
 C4396 C 1.17196 0.91995 1.08007
 C4397 C 1.17709 0.90360 1.07516
 C4398 C 1.19136 0.89606 1.08269
 C4399 C 1.15731 0.92773 1.07226
 C4400 C 1.14499 0.93421 1.06578
 H4401 H 1.23059 0.85869 1.11784
 H4402 H 1.20514 0.87161 1.10513
 H4403 H 1.23092 0.92017 1.10308
 H4404 H 1.25615 0.90717 1.11610
 H4405 H 1.20211 0.92814 1.10998
 H4406 H 1.17716 0.94131 1.09660
 H4407 H 1.17011 0.89670 1.06546
 H4408 H 1.19525 0.88351 1.07850
 C4409 C 1.27230 0.36817 0.63139
 C4410 C 1.25975 0.37443 0.62515
 C4411 C 1.24482 0.38192 0.61764
 C4412 C 1.24258 0.38156 0.59995
 C4413 C 1.22814 0.38892 0.59261
 C4414 C 1.21572 0.39675 0.60289
 C4415 C 1.21807 0.39701 0.62068
 C4416 C 1.23253 0.38963 0.62799
 C4417 C 1.20044 0.40469 0.59506
 C4418 C 1.19412 0.42030 0.60118
 C4419 C 1.17987 0.42787 0.59364
 C4420 C 1.17175 0.41994 0.57990
 C4421 C 1.17786 0.40435 0.57379
 C4422 C 1.19211 0.39677 0.58130
 C4423 C 1.15713 0.42776 0.57211
 C4424 C 1.14482 0.43424 0.56562
 H4425 H 1.25205 0.37566 0.59182
 H4426 H 1.22682 0.38872 0.57887
 H4427 H 1.20865 0.40275 0.62895
 H4428 H 1.23412 0.38993 0.64172
 H4429 H 1.20036 0.42681 0.61162
 H4430 H 1.17524 0.43993 0.59849
 H4431 H 1.17160 0.39805 0.56323
 H4432 H 1.19650 0.38462 0.57646
 C4433 C 0.77210 0.86859 0.63138
 C4434 C 0.75953 0.87480 0.62514
 C4435 C 0.74458 0.88224 0.61762
 C4436 C 0.74396 0.88515 0.60002
 C4437 C 0.72950 0.89248 0.59267
 C4438 C 0.71545 0.89700 0.60284
 C4439 C 0.71619 0.89399 0.62052
 C4440 C 0.73067 0.88664 0.62784
 C4441 C 0.70015 0.90491 0.59502
 C4442 C 0.69167 0.91840 0.60323
 C4443 C 0.67741 0.92599 0.59572
 C4444 C 0.67145 0.92021 0.57994
 C4445 C 0.67973 0.90673 0.57173
 C4446 C 0.69398 0.89913 0.57920
 C4447 C 0.65682 0.92807 0.57219
 C4448 C 0.64451 0.93457 0.56573
 H4449 H 0.75468 0.88183 0.59200
 H4450 H 0.72942 0.89484 0.57907
 H4451 H 0.70551 0.89712 0.62865
 H4452 H 0.73101 0.88440 0.64147
 H4453 H 0.69621 0.92326 0.61531
 H4454 H 0.67109 0.93641 0.60220
 H4455 H 0.67515 0.90209 0.55956
 H4456 H 0.70007 0.88861 0.57269
 C4457 C 0.77237 0.36852 1.13162
 C4458 C 0.75981 0.37473 1.12536
 C4459 C 0.74486 0.38223 1.11788
 C4460 C 0.73223 0.37186 1.11081
 C4461 C 0.71776 0.37918 1.10344
 C4462 C 0.71575 0.39699 1.10306
 C4463 C 0.72853 0.40729 1.11023
 C4464 C 0.74298 0.39995 1.11758
 C4465 C 0.70045 0.40483 1.09516
 C4466 C 0.69258 0.41904 1.10273
 C4467 C 0.67833 0.42657 1.09518
 C4468 C 0.67175 0.42001 1.07996
 C4469 C 0.67941 0.40582 1.07238
 C4470 C 0.69367 0.39826 1.07992
 C4471 C 0.65712 0.42782 1.07217
 C4472 C 0.64480 0.43431 1.06571
 H4473 H 0.73354 0.35813 1.11101
 H4474 H 0.70806 0.37090 1.09822
 H4475 H 0.72748 0.42104 1.10992
 H4476 H 0.75271 0.40809 1.12297
 H4477 H 0.69734 0.42423 1.11460
 H4478 H 0.67243 0.43748 1.10122
 H4479 H 0.67441 0.40063 1.06060
 H4480 H 0.69954 0.38746 1.07367
 C4481 C 0.72788 1.13152 1.13189
 C4482 C 0.74039 1.12529 1.12556
 C4483 C 0.75526 1.11779 1.11793
 C4484 C 0.75370 1.10800 1.10312
 C4485 C 0.76810 1.10062 1.09571
 C4486 C 0.78428 1.10294 1.10302
 C4487 C 0.78572 1.11287 1.11789
 C4488 C 0.77129 1.12023 1.12529
 C4489 C 0.79955 1.09498 1.09519
 C4490 C 0.81502 1.10394 1.09423
 C4491 C 0.82933 1.09644 1.08672
 C4492 C 0.82837 1.07991 1.08011
 C4493 C 0.81307 1.07088 1.08108
 C4494 C 0.79875 1.07835 1.08856
 C4495 C 0.84308 1.07221 1.07235
 C4496 C 0.85543 1.06577 1.06589
 H4497 H 0.74136 1.10608 1.09728
 H4498 H 0.76659 1.09326 1.08414
 H4499 H 0.79796 1.11474 1.12394
 H4500 H 0.77263 1.12777 1.13678
 H4501 H 0.81600 1.11682 1.09904
 H4502 H 0.84111 1.10356 1.08603
 H4503 H 0.81221 1.05806 1.07608
 H4504 H 0.78711 1.07103 1.08934
 C4505 C 0.72808 0.63157 0.63142
 C4506 C 0.74057 0.62525 0.62515
 C4507 C 0.75543 0.61765 0.61760
 C4508 C 0.75372 0.60367 0.60670
 C4509 C 0.76810 0.59628 0.59929
 C4510 C 0.78443 0.60280 0.60269
 C4511 C 0.78602 0.61685 0.61372
 C4512 C 0.77160 0.62422 0.62111
 C4513 C 0.79969 0.59498 0.59474
 C4514 C 0.81476 0.59277 0.60418
 C4515 C 0.82905 0.58524 0.59670
 C4516 C 0.82848 0.57983 0.57971
 C4517 C 0.81359 0.58206 0.57019
 C4518 C 0.79929 0.58957 0.57764
 C4519 C 0.84315 0.57201 0.57202
 C4520 C 0.85548 0.56551 0.56560
 H4521 H 0.74126 0.59845 0.60395
 H4522 H 0.76648 0.58533 0.59107
 H4523 H 0.79838 0.62228 0.61643
 H4524 H 0.77305 0.63508 0.62950
 H4525 H 0.81541 0.59663 0.61742
 H4526 H 0.84052 0.58357 0.60419
 H4527 H 0.81304 0.57800 0.55700
 H4528 H 0.78797 0.59133 0.56997
 C4529 C 0.22761 1.13179 0.63189
 C4530 C 0.24012 1.12549 0.62562
 C4531 C 0.25497 1.11789 0.61805
 C4532 C 0.25339 1.10803 0.60328
 C4533 C 0.26777 1.10057 0.59591
 C4534 C 0.28396 1.10288 0.60322
 C4535 C 0.28542 1.11285 0.61806
 C4536 C 0.27101 1.12029 0.62542
 C4537 C 0.29922 1.09491 0.59538
 C4538 C 0.31468 1.10388 0.59436
 C4539 C 0.32896 1.09642 0.58677
 C4540 C 0.32799 1.07992 0.58012
 C4541 C 0.31270 1.07086 0.58114
 C4542 C 0.29841 1.07829 0.58871
 C4543 C 0.34267 1.07225 0.57226
 C4544 C 0.35500 1.06584 0.56574
 H4545 H 0.24105 1.10613 0.59744
 H4546 H 0.26625 1.09318 0.58437
 H4547 H 0.29766 1.11469 0.62411
 H4548 H 0.27236 1.12786 0.63688
 H4549 H 0.31567 1.11676 0.59920
 H4550 H 0.34073 1.10356 0.58604
 H4551 H 0.31183 1.05804 0.57611
 H4552 H 0.28678 1.07096 0.58953
 C4553 C 0.22781 0.63199 1.13180
 C4554 C 0.24030 0.62569 1.12547
 C4555 C 0.25514 0.61810 1.11786
 C4556 C 0.27118 0.62049 1.12522
 C4557 C 0.28558 0.61304 1.11784
 C4558 C 0.28410 0.60307 1.10301
 C4559 C 0.26791 0.60079 1.09570
 C4560 C 0.25354 0.60825 1.10309
 C4561 C 0.29935 0.59506 1.09518
 C4562 C 0.29851 0.57842 1.08856
 C4563 C 0.31281 0.57091 1.08108
 C4564 C 0.32814 0.57991 1.08010
 C4565 C 0.32913 0.59644 1.08669
 C4566 C 0.31485 0.60397 1.09420
 C4567 C 0.34283 0.57216 1.07233
 C4568 C 0.35518 0.56571 1.06587
 H4569 H 0.27255 0.62806 1.13668
 H4570 H 0.29782 0.61488 1.12389
 H4571 H 0.26637 0.59339 1.08416
 H4572 H 0.24119 0.60636 1.09726
 H4573 H 0.28685 0.57113 1.08935
 H4574 H 0.31192 0.55808 1.07609
 H4575 H 0.34093 0.60353 1.08599
 H4576 H 0.31585 0.61686 1.09899
 C4577 C 0.72795 0.86871 0.86860
 C4578 C 0.74048 0.87496 0.87486
 C4579 C 0.75536 0.88246 0.88243
 C4580 C 0.75383 0.89221 0.89727
 C4581 C 0.76824 0.89953 0.90468
 C4582 C 0.78440 0.89718 0.89733
 C4583 C 0.78581 0.88735 0.88239
 C4584 C 0.77137 0.88003 0.87500
 C4585 C 0.79970 0.90500 0.90521
 C4586 C 0.81242 0.91241 0.89499
 C4587 C 0.82669 0.91997 0.90246
 C4588 C 0.82844 0.92021 0.92022
 C4589 C 0.81592 0.91277 0.93049
 C4590 C 0.80164 0.90522 0.92305
 C4591 C 0.84309 0.92804 0.92792
 C4592 C 0.85540 0.93453 0.93436
 H4593 H 0.74148 0.89420 0.90309
 H4594 H 0.76670 0.90722 0.91603
 H4595 H 0.79809 0.88514 0.87655
 H4596 H 0.77270 0.87246 0.86354
 H4597 H 0.81120 0.91261 0.88124
 H4598 H 0.83631 0.92569 0.89440
 H4599 H 0.81720 0.91280 0.94424
 H4600 H 0.79220 0.89939 0.93124
 C4601 C 0.72763 0.36803 0.36838
 C4602 C 0.74016 0.37426 0.37467
 C4603 C 0.75505 0.38175 0.38228
 C4604 C 0.77063 0.38143 0.37364
 C4605 C 0.78505 0.38881 0.38101
 C4606 C 0.78407 0.39663 0.39713
 C4607 C 0.76835 0.39681 0.40572
 C4608 C 0.75395 0.38942 0.39833
 C4609 C 0.79932 0.40465 0.40492
 C4610 C 0.79791 0.42019 0.41375
 C4611 C 0.81222 0.42772 0.42116
 C4612 C 0.82813 0.41984 0.41988
 C4613 C 0.82970 0.40440 0.41109
 C4614 C 0.81540 0.39685 0.40365
 C4615 C 0.84284 0.42759 0.42759
 C4616 C 0.85518 0.43404 0.43403
 H4617 H 0.77161 0.37555 0.36118
 H4618 H 0.79691 0.38862 0.37398
 H4619 H 0.76722 0.40250 0.41824
 H4620 H 0.74197 0.38969 0.40516
 H4621 H 0.78577 0.42664 0.41474
 H4622 H 0.81087 0.43970 0.42788
 H4623 H 0.84196 0.39817 0.41003
 H4624 H 0.81688 0.38480 0.39711
 C4625 C 0.22769 0.86796 0.36880
 C4626 C 0.24019 0.87424 0.37507
 C4627 C 0.25506 0.88180 0.38263
 C4628 C 0.25352 0.89157 0.39746
 C4629 C 0.26791 0.89896 0.40483
 C4630 C 0.28408 0.89668 0.39745
 C4631 C 0.28549 0.88682 0.38254
 C4632 C 0.27107 0.87943 0.37519
 C4633 C 0.29936 0.90460 0.40527
 C4634 C 0.31202 0.91202 0.39500
 C4635 C 0.32629 0.91966 0.40241
 C4636 C 0.32809 0.91997 0.42016
 C4637 C 0.31562 0.91253 0.43048
 C4638 C 0.30134 0.90490 0.42311
 C4639 C 0.34274 0.92786 0.42779
 C4640 C 0.35506 0.93438 0.43419
 H4641 H 0.24118 0.89353 0.40330
 H4642 H 0.26637 0.90667 0.41617
 H4643 H 0.29777 0.88465 0.37667
 H4644 H 0.27241 0.87184 0.36373
 H4645 H 0.31077 0.91217 0.38125
 H4646 H 0.33587 0.92538 0.39429
 H4647 H 0.31693 0.91260 0.44424
 H4648 H 0.29195 0.89907 0.43135
 C4649 C 0.22780 0.36832 0.86876
 C4650 C 0.24036 0.37456 0.87495
 C4651 C 0.25532 0.38203 0.88240
 C4652 C 0.26723 0.39036 0.87208
 C4653 C 0.28170 0.39774 0.87936
 C4654 C 0.28444 0.39687 0.89707
 C4655 C 0.27240 0.38842 0.90732
 C4656 C 0.25795 0.38106 0.90002
 C4657 C 0.29971 0.40483 0.90487
 C4658 C 0.30848 0.39661 0.91819
 C4659 C 0.32270 0.40422 0.92568
 C4660 C 0.32835 0.42014 0.92000
 C4661 C 0.31979 0.42838 0.90670
 C4662 C 0.30556 0.42079 0.89917
 C4663 C 0.34296 0.42798 0.92779
 C4664 C 0.35526 0.43447 0.93427
 H4665 H 0.26535 0.39114 0.85842
 H4666 H 0.29083 0.40396 0.87110
 H4667 H 0.27402 0.38773 0.92101
 H4668 H 0.24878 0.37468 0.90813
 H4669 H 0.30444 0.38421 0.92269
 H4670 H 0.32930 0.39767 0.93590
 H4671 H 0.32406 0.44070 0.90219
 H4672 H 0.29898 0.42753 0.88909
   
