data_POSCAR
  _audit_creation_date              2014-09-24
  _audit_creation_method            'ToBaCCo'
  _symmetry_space_group_name_H-M    'P1'
  _symmetry_Int_Tables_number       1
  _symmetry_cell_setting            triclinic
  loop_
  _symmetry_equiv_pos_as_xyz
 x,y,z
_cell_length_a 29.1948
_cell_length_b 29.3838
_cell_length_c 29.5208
_cell_angle_alpha 89.907000
_cell_angle_beta 90.471100
_cell_angle_gamma 89.913300
loop_
  _atom_site_label
  _atom_site_type_symbol
  _atom_site_fract_x
  _atom_site_fract_y
  _atom_site_fract_z
C1 C 0.09749 -0.04981 0.26596
 C2 C 0.07546 -0.00860 0.27395
 C3 C 0.07637 0.01001 0.31683
 C4 C 0.10046 -0.01056 0.35204
 C5 C 0.12903 -0.04817 0.34223
 C6 C 0.12764 -0.06737 0.29791
 C7 C 0.06829 0.02180 0.23587
 C8 C 0.06010 0.00304 0.19395
 C9 C 0.08345 0.01849 0.15539
 C10 C 0.11682 0.05301 0.16098
 C11 C 0.12007 0.07492 0.20378
 C12 C 0.09147 0.06251 0.23851
 H13 H 0.09762 -0.06425 0.23217
 H14 H 0.05605 0.04031 0.32333
 H15 H 0.03880 -0.02722 0.19255
 H16 H 0.09548 0.07945 0.27091
 H17 H 0.14797 -0.06494 0.36919
 H18 H 0.13648 0.06522 0.13251
 C19 C 0.40591 -0.05646 0.73062
 C20 C 0.42420 -0.01339 0.72429
 C21 C 0.42543 0.00523 0.68128
 C22 C 0.40289 -0.01545 0.64513
 C23 C 0.37739 -0.05542 0.65334
 C24 C 0.37922 -0.07561 0.69704
 C25 C 0.42191 0.01730 0.76255
 C26 C 0.43112 0.00074 0.80531
 C27 C 0.40958 0.01849 0.84392
 C28 C 0.37801 0.05472 0.83786
 C29 C 0.37252 0.07381 0.79379
 C30 C 0.39543 0.05593 0.75747
 H31 H 0.40443 -0.07121 0.76429
 H32 H 0.44101 0.03845 0.67699
 H33 H 0.45328 -0.02891 0.80762
 H34 H 0.38777 0.06946 0.72402
 H35 H 0.35803 -0.07116 0.62635
 H36 H 0.36121 0.07002 0.86664
 C37 C 0.90334 0.44133 0.23298
 C38 C 0.92236 0.48414 0.22774
 C39 C 0.92637 0.50277 0.18484
 C40 C 0.90420 0.48294 0.14774
 C41 C 0.87806 0.44312 0.15457
 C42 C 0.87821 0.42247 0.19800
 C43 C 0.91731 0.51458 0.26593
 C44 C 0.92725 0.49903 0.30905
 C45 C 0.90687 0.51822 0.34760
 C46 C 0.87441 0.55361 0.34109
 C47 C 0.86679 0.57072 0.29648
 C48 C 0.88904 0.55192 0.26010
 H49 H 0.90015 0.42668 0.26658
 H50 H 0.94303 0.53558 0.18145
 H51 H 0.94980 0.46973 0.31203
 H52 H 0.88052 0.56408 0.22631
 H53 H 0.85959 0.42769 0.12669
 H54 H 0.85868 0.57003 0.36982
 C55 C 0.59858 0.44002 0.76490
 C56 C 0.58258 0.48395 0.76930
 C57 C 0.57874 0.50311 0.81187
 C58 C 0.59649 0.48106 0.85006
 C59 C 0.62093 0.44013 0.84418
 C60 C 0.62149 0.42005 0.80060
 C61 C 0.58915 0.51344 0.73083
 C62 C 0.58135 0.49709 0.68753
 C63 C 0.60046 0.51842 0.65005
 C64 C 0.62940 0.55621 0.65665
 C65 C 0.63644 0.57255 0.70121
 C66 C 0.61548 0.55204 0.73728
 H67 H 0.60186 0.42488 0.73157
 H68 H 0.56317 0.53655 0.81494
 H69 H 0.55912 0.46783 0.68285
 H70 H 0.62347 0.56422 0.77112
 H71 H 0.63650 0.42297 0.87279
 H72 H 0.64308 0.57454 0.62793
 C73 C 0.23591 0.10702 1.05133
 C74 C 0.23094 0.08167 1.01245
 C75 C 0.18781 0.07249 0.99533
 C76 C 0.14865 0.09158 1.01498
 C77 C 0.15440 0.12332 1.05062
 C78 C 0.19908 0.13005 1.06867
 C79 C 0.26932 0.08307 0.98239
 C80 C 0.31240 0.07433 0.99968
 C81 C 0.35168 0.09521 0.98192
 C82 C 0.34554 0.12824 0.94723
 C83 C 0.30064 0.13516 0.92901
 C84 C 0.26406 0.11066 0.94511
 H85 H 0.26992 0.11443 1.06465
 H86 H 0.18509 0.05198 0.96484
 H87 H 0.31460 0.05275 1.02956
 H88 H 0.22990 0.11800 0.93208
 H89 H 0.12506 0.13878 1.06670
 H90 H 0.37471 0.14501 0.93224
 C91 C 0.76946 0.39400 1.05722
 C92 C 0.77357 0.41218 1.01411
 C93 C 0.81622 0.41526 0.99446
 C94 C 0.85394 0.39293 1.01345
 C95 C 0.84696 0.36479 1.05193
 C96 C 0.80378 0.36601 1.07423
 C97 C 0.73369 0.40830 0.98476
 C98 C 0.69105 0.41835 1.00172
 C99 C 0.65090 0.39949 0.98319
 C100 C 0.65525 0.36859 0.94654
 C101 C 0.69930 0.36147 0.92734
 C102 C 0.73741 0.38188 0.94623
 H103 H 0.73601 0.39286 1.07291
 H104 H 0.81899 0.43253 0.96207
 H105 H 0.68977 0.44000 1.03146
 H106 H 0.77089 0.37342 0.93286
 H107 H 0.87510 0.34554 1.06608
 H108 H 0.62526 0.35382 0.93098
 C109 C 0.27293 0.90060 0.56244
 C110 C 0.27598 0.92103 0.52054
 C111 C 0.31833 0.92531 0.50050
 C112 C 0.35560 0.89896 0.51533
 C113 C 0.34867 0.86844 0.55207
 C114 C 0.30642 0.87013 0.57583
 C115 C 0.23656 0.91402 0.49122
 C116 C 0.19307 0.92005 0.50849
 C117 C 0.15490 0.90127 0.48715
 C118 C 0.16102 0.87407 0.44828
 C119 C 0.20578 0.86799 0.43105
 C120 C 0.24252 0.88897 0.45171
 H121 H 0.24027 0.89987 0.57968
 H122 H 0.31978 0.94382 0.46877
 H123 H 0.18870 0.94110 0.53838
 H124 H 0.27650 0.88212 0.43877
 H125 H 0.37575 0.84600 0.56316
 H126 H 0.13165 0.86088 0.42995
 C127 C 0.73932 0.61358 0.54389
 C128 C 0.72961 0.58792 0.50541
 C129 C 0.68561 0.58836 0.48731
 C130 C 0.64984 0.61031 0.50923
 C131 C 0.65992 0.63722 0.54765
 C132 C 0.70576 0.63945 0.56386
 C133 C 0.76728 0.57110 0.47802
 C134 C 0.80928 0.56578 0.49908
 C135 C 0.84777 0.59093 0.48465
 C136 C 0.84024 0.62461 0.45064
 C137 C 0.79730 0.62399 0.42693
 C138 C 0.76710 0.58870 0.43505
 H139 H 0.77399 0.61616 0.55710
 H140 H 0.67803 0.56717 0.45812
 H141 H 0.81029 0.54647 0.53048
 H142 H 0.73596 0.58628 0.41500
 H143 H 0.63257 0.65297 0.56656
 H144 H 0.86723 0.64759 0.44058
 C145 C -0.06246 0.26869 0.09287
 C146 C -0.02274 0.27349 0.06831
 C147 C -0.00342 0.31606 0.06418
 C148 C -0.01461 0.35110 0.09445
 C149 C -0.04850 0.34214 0.12779
 C150 C -0.07251 0.29987 0.12652
 C151 C 0.00855 0.23536 0.07337
 C152 C -0.00768 0.19199 0.06599
 C153 C 0.01064 0.15404 0.08894
 C154 C 0.04560 0.16166 0.12188
 C155 C 0.06365 0.20652 0.12701
 C156 C 0.04636 0.24179 0.10128
 H157 H -0.07939 0.23584 0.09335
 H158 H 0.02650 0.31854 0.04289
 H159 H -0.03730 0.18852 0.04374
 H160 H 0.05940 0.27582 0.10747
 H161 H -0.05717 0.36765 0.15263
 H162 H 0.06105 0.13340 0.13993
 C163 C -0.06380 0.73819 0.40878
 C164 C -0.02152 0.73550 0.42939
 C165 C -0.00117 0.69334 0.43463
 C166 C -0.01759 0.65532 0.41089
 C167 C -0.05424 0.66155 0.37985
 C168 C -0.07622 0.70470 0.37844
 C169 C 0.00778 0.77389 0.41988
 C170 C -0.00970 0.81760 0.42319
 C171 C 0.01125 0.85400 0.40142
 C172 C 0.04862 0.84541 0.37266
 C173 C 0.06508 0.80025 0.36858
 C174 C 0.04623 0.76587 0.39376
 H175 H -0.08135 0.77073 0.40712
 H176 H 0.03062 0.69138 0.45390
 H177 H -0.03879 0.82370 0.44511
 H178 H 0.05916 0.73159 0.38894
 H179 H -0.06713 0.63344 0.35986
 H180 H 0.06669 0.87329 0.35683
 C181 C 0.45406 0.23841 0.89515
 C182 C 0.49206 0.23055 0.92224
 C183 C 0.50823 0.18705 0.92800
 C184 C 0.48866 0.14985 0.90522
 C185 C 0.45325 0.15874 0.87301
 C186 C 0.43606 0.20415 0.86882
 C187 C 0.52352 0.26793 0.92794
 C188 C 0.50505 0.31009 0.93570
 C189 C 0.51846 0.34837 0.91034
 C190 C 0.55155 0.34174 0.87575
 C191 C 0.57398 0.29855 0.87281
 C192 C 0.56268 0.26424 0.90271
 H193 H 0.44171 0.27292 0.88987
 H194 H 0.53853 0.18289 0.94925
 H195 H 0.47534 0.31111 0.95760
 H196 H 0.57846 0.23101 0.89876
 H197 H 0.43709 0.13118 0.85467
 H198 H 0.56159 0.36953 0.85414
 C199 C 0.43601 0.77021 0.59294
 C200 C 0.47794 0.77310 0.57191
 C201 C 0.49756 0.81545 0.56661
 C202 C 0.48511 0.85130 0.59518
 C203 C 0.45011 0.84366 0.62744
 C204 C 0.42565 0.80179 0.62602
 C205 C 0.50857 0.73547 0.58269
 C206 C 0.49184 0.69153 0.58006
 C207 C 0.51507 0.65522 0.59992
 C208 C 0.55484 0.66410 0.62611
 C209 C 0.57104 0.70954 0.62999
 C210 C 0.54887 0.74412 0.60700
 H211 H 0.41783 0.73808 0.59286
 H212 H 0.52815 0.81765 0.54617
 H213 H 0.46145 0.68505 0.55957
 H214 H 0.56130 0.77858 0.61154
 H215 H 0.44110 0.86979 0.65145
 H216 H 0.57449 0.63627 0.64043
 C217 C 0.82566 1.06141 0.76312
 C218 C 0.84754 1.02011 0.77008
 C219 C 0.87498 1.01240 0.80740
 C220 C 0.87899 1.04441 0.84151
 C221 C 0.85552 1.08719 0.83590
 C222 C 0.83007 1.09617 0.79480
 C223 C 0.84962 0.98679 0.73489
 C224 C 0.87853 0.99593 0.69929
 C225 C 0.88767 0.96326 0.66690
 C226 C 0.86794 0.91849 0.67289
 C227 C 0.84107 0.90815 0.71260
 C228 C 0.83165 0.94371 0.74217
 H229 H 0.80686 1.06700 0.73176
 H230 H 0.89230 0.97971 0.81019
 H231 H 0.89305 1.02986 0.69650
 H232 H 0.81171 0.93769 0.77244
 H233 H 0.85833 1.11319 0.86171
 H234 H 0.87429 0.89217 0.64810
 C235 C 0.31942 0.55993 0.25769
 C236 C 0.33902 0.51747 0.26540
 C237 C 0.36599 0.50855 0.30322
 C238 C 0.37502 0.54183 0.33500
 C239 C 0.35492 0.58639 0.32766
 C240 C 0.32680 0.59558 0.28783
 C241 C 0.33996 0.48422 0.22981
 C242 C 0.36617 0.49420 0.19227
 C243 C 0.37817 0.46067 0.16176
 C244 C 0.36165 0.41495 0.16960
 C245 C 0.33419 0.40485 0.20896
 C246 C 0.32409 0.44057 0.23815
 H247 H 0.30000 0.56551 0.22669
 H248 H 0.38130 0.47504 0.30716
 H249 H 0.37893 0.52863 0.18784
 H250 H 0.30503 0.43433 0.26895
 H251 H 0.36118 0.61317 0.35205
 H252 H 0.36984 0.38818 0.14585
 C253 C 0.67150 1.06253 0.23636
 C254 C 0.65192 1.01982 0.22998
 C255 C 0.62808 1.00940 0.19065
 C256 C 0.62237 1.04128 0.15635
 C257 C 0.64214 1.08586 0.16247
 C258 C 0.66717 1.09650 0.20350
 C259 C 0.65111 0.98711 0.26677
 C260 C 0.62683 0.99825 0.30546
 C261 C 0.62316 0.96779 0.34138
 C262 C 0.64352 0.92314 0.33607
 C263 C 0.66584 0.91060 0.29432
 C264 C 0.66995 0.94395 0.26097
 H265 H 0.68918 1.06964 0.26801
 H266 H 0.61278 0.97588 0.18724
 H267 H 0.61144 1.03183 0.30776
 H268 H 0.68713 0.93606 0.22948
 H269 H 0.63807 1.11141 0.13630
 H270 H 0.64066 0.89827 0.36299
 C271 C 0.17381 0.56648 0.73907
 C272 C 0.15520 0.52348 0.73313
 C273 C 0.12921 0.51297 0.69503
 C274 C 0.12120 0.54508 0.66130
 C275 C 0.14033 0.58995 0.66698
 C276 C 0.16689 0.60064 0.70699
 C277 C 0.15795 0.49046 0.76947
 C278 C 0.13608 0.50055 0.80986
 C279 C 0.13062 0.46774 0.84316
 C280 C 0.14869 0.42269 0.83471
 C281 C 0.17248 0.41272 0.79301
 C282 C 0.17663 0.44764 0.76140
 H283 H 0.19302 0.57354 0.76984
 H284 H 0.11461 0.47914 0.69192
 H285 H 0.12110 0.53406 0.81443
 H286 H 0.19307 0.44111 0.72921
 H287 H 0.13485 0.61561 0.64115
 H288 H 0.14415 0.39613 0.85970
 C289 C 0.74318 0.82053 -0.05834
 C290 C 0.73156 0.83558 -0.01513
 C291 C 0.68981 0.85611 -0.00683
 C292 C 0.65978 0.86620 -0.04175
 C293 C 0.67167 0.85247 -0.08703
 C294 C 0.71386 0.82809 -0.09516
 C295 C 0.76618 0.84019 0.01980
 C296 C 0.80198 0.86996 0.01184
 C297 C 0.83387 0.88010 0.04552
 C298 C 0.82731 0.86076 0.08983
 C299 C 0.78738 0.83357 0.09903
 C300 C 0.75836 0.82289 0.06281
 H301 H 0.77633 0.80473 -0.06354
 H302 H 0.68242 0.86817 0.02712
 H303 H 0.80554 0.88437 -0.02187
 H304 H 0.72812 0.80221 0.06806
 H305 H 0.64864 0.86006 -0.11496
 H306 H 0.85166 0.86793 0.11673
 C307 C 0.24130 0.32429 0.43699
 C308 C 0.23346 0.34017 0.48057
 C309 C 0.19375 0.36368 0.49114
 C310 C 0.16126 0.37365 0.45828
 C311 C 0.16917 0.35828 0.41262
 C312 C 0.21004 0.33278 0.40208
 C313 C 0.27028 0.34090 0.51356
 C314 C 0.30924 0.36542 0.50277
 C315 C 0.34071 0.37755 0.53582
 C316 C 0.33275 0.36299 0.58185
 C317 C 0.29275 0.33625 0.59275
 C318 C 0.26239 0.32597 0.55752
 H319 H 0.27307 0.30651 0.42999
 H320 H 0.18925 0.37661 0.52527
 H321 H 0.31371 0.37761 0.46833
 H322 H 0.23095 0.30765 0.56437
 H323 H 0.14410 0.36540 0.38633
 H324 H 0.35717 0.37174 0.60820
 C325 C 0.26498 0.67718 -0.05756
 C326 C 0.27065 0.65654 -0.01553
 C327 C 0.31074 0.63413 -0.00386
 C328 C 0.34616 0.63017 -0.03443
 C329 C 0.34074 0.65054 -0.07862
 C330 C 0.29936 0.67508 -0.09008
 C331 C 0.23295 0.65455 0.01566
 C332 C 0.19484 0.62856 0.00426
 C333 C 0.15808 0.62448 0.03373
 C334 C 0.16240 0.64619 0.07772
 C335 C 0.20380 0.67042 0.09038
 C336 C 0.23761 0.67484 0.05786
 H337 H 0.23265 0.69384 -0.06523
 H338 H 0.31356 0.61798 0.02917
 H339 H 0.19360 0.61240 -0.02878
 H340 H 0.26890 0.69319 0.06575
 H341 H 0.36772 0.64717 -0.10332
 H342 H 0.13502 0.64299 0.10202
 C343 C 0.76439 0.17651 0.44034
 C344 C 0.76804 0.15387 0.48142
 C345 C 0.80567 0.12690 0.49197
 C346 C 0.84312 0.12438 0.46310
 C347 C 0.83998 0.14860 0.42035
 C348 C 0.79892 0.17370 0.40820
 C349 C 0.73011 0.15516 0.51247
 C350 C 0.69032 0.13243 0.50049
 C351 C 0.65452 0.12831 0.53069
 C352 C 0.65961 0.14872 0.57500
 C353 C 0.70092 0.17316 0.58707
 C354 C 0.73538 0.17562 0.55464
 H355 H 0.73313 0.19522 0.43300
 H356 H 0.80622 0.10927 0.52434
 H357 H 0.68793 0.11643 0.46741
 H358 H 0.76756 0.19234 0.56253
 H359 H 0.86793 0.14663 0.39657
 H360 H 0.63253 0.14508 0.59956
 C361 C 1.06438 0.76001 0.83507
 C362 C 1.02245 0.76445 0.85614
 C363 C 1.01270 0.80092 0.88391
 C364 C 1.04308 0.83709 0.88804
 C365 C 1.08640 0.83381 0.86505
 C366 C 1.09772 0.79345 0.83973
 C367 C 0.98940 0.72850 0.85245
 C368 C 0.99837 0.68868 0.87577
 C369 C 0.96740 0.65292 0.87570
 C370 C 0.92439 0.65971 0.85152
 C371 C 0.91430 0.70280 0.82913
 C372 C 0.94834 0.73585 0.82949
 H373 H 1.07120 0.72953 0.81552
 H374 H 0.97954 0.80192 0.90032
 H375 H 1.03087 0.68556 0.89374
 H376 H 0.94238 0.76854 0.81332
 H377 H 1.11096 0.86127 0.86766
 H378 H 0.89872 0.63318 0.85186
 C379 C 0.55979 0.25910 0.32622
 C380 C 0.51590 0.26507 0.34283
 C381 C 0.50337 0.30433 0.36580
 C382 C 0.53443 0.33921 0.37289
 C383 C 0.58050 0.33338 0.35597
 C384 C 0.59324 0.29226 0.33218
 C385 C 0.48352 0.22807 0.34024
 C386 C 0.49460 0.18723 0.36137
 C387 C 0.46202 0.15349 0.36700
 C388 C 0.41625 0.16194 0.34982
 C389 C 0.40547 0.20410 0.32655
 C390 C 0.44020 0.23604 0.32221
 H391 H 0.56803 0.22754 0.30903
 H392 H 0.46895 0.30729 0.37915
 H393 H 0.52859 0.18277 0.37594
 H394 H 0.43316 0.26864 0.30625
 H395 H 0.60559 0.35999 0.36112
 H396 H 0.38980 0.13668 0.35471
 C397 C 1.05947 0.24467 0.67613
 C398 C 1.01623 0.23423 0.65909
 C399 C 1.00777 0.19465 0.63539
 C400 C 1.04265 0.16444 0.62630
 C401 C 1.08806 0.17464 0.64297
 C402 C 1.09640 0.21586 0.66843
 C403 C 0.98221 0.26918 0.65523
 C404 C 0.99150 0.30486 0.62627
 C405 C 0.95900 0.33801 0.61719
 C406 C 0.91405 0.33268 0.63671
 C407 C 0.90354 0.29283 0.66340
 C408 C 0.93899 0.26244 0.67281
 H409 H 1.06464 0.27687 0.69337
 H410 H 0.97361 0.18863 0.62167
 H411 H 1.02558 0.30730 0.61192
 H412 H 0.93288 0.23206 0.69282
 H413 H 1.11597 0.15134 0.63641
 H414 H 0.88780 0.35801 0.63038
 C415 C 0.55350 0.74219 0.17836
 C416 C 0.50998 0.73188 0.16236
 C417 C 0.50039 0.69107 0.14096
 C418 C 0.53475 0.66006 0.13230
 C419 C 0.58060 0.67054 0.14753
 C420 C 0.58978 0.71250 0.17138
 C421 C 0.47664 0.76750 0.15779
 C422 C 0.48705 0.80362 0.12955
 C423 C 0.45399 0.83505 0.11707
 C424 C 0.40820 0.82912 0.13417
 C425 C 0.39772 0.79081 0.16296
 C426 C 0.43297 0.76101 0.17429
 H427 H 0.55941 0.77495 0.19429
 H428 H 0.46609 0.68496 0.12778
 H429 H 0.52159 0.80675 0.11652
 H430 H 0.42628 0.73126 0.19505
 H431 H 0.60822 0.64691 0.14094
 H432 H 0.38174 0.85357 0.12559
 O433 O -0.00034 0.86800 0.94733
 O434 O 0.00847 0.86102 1.04337
 O435 O -0.13655 0.94211 1.00529
 O436 O -0.14519 1.03651 1.01050
 O437 O -0.05897 1.00434 0.87251
 O438 O 0.03652 1.00523 0.86412
 O439 O 0.00088 1.07303 1.09256
 O440 O -0.08313 1.03124 1.10579
 O441 O 0.08722 1.00628 1.07573
 O442 O 0.10152 0.92190 1.03587
 O443 O 0.06789 1.09101 1.00631
 O444 O 0.02478 1.10205 0.92281
 O445 O -0.01589 1.11321 1.03027
 O446 O -0.03069 1.12525 0.95439
 O447 O 0.11089 1.02906 0.99332
 O448 O 0.12431 0.95315 0.97980
 O449 O 0.02513 0.98911 1.11600
 O450 O -0.05157 0.97613 1.12926
 O451 O 0.03519 0.91560 0.89872
 O452 O -0.03033 0.93343 0.85930
 O453 O -0.11072 1.03644 0.91972
 O454 O -0.14965 0.97271 0.93650
 O455 O -0.08745 0.89364 1.04039
 O456 O -0.06173 0.84660 0.98918
 Zr457 Zr -0.02741 0.90865 1.00251
 O458 O 0.01220 0.94886 1.04777
 Zr459 Zr -0.09503 0.99636 0.97793
 O460 O -0.05598 1.04297 1.01725
 Zr461 Zr -0.00514 0.97378 0.91348
 O462 O 0.04031 1.01453 0.95246
 Zr463 Zr -0.02489 1.00725 1.07069
 O464 O -0.06490 0.96227 1.03196
 Zr465 Zr 0.06516 0.97935 1.01108
 O466 O 0.02608 0.93821 0.96768
 Zr467 Zr 0.00245 1.06734 0.98156
 O468 O -0.04084 1.02667 0.94242
 O469 O -0.05845 0.94306 0.94875
 O470 O 0.03032 1.03451 1.03700
 C471 C 0.02636 0.87509 0.91261
 C472 C -0.12857 0.90686 1.03113
 C473 C -0.09555 1.02919 0.87952
 C474 C -0.00274 1.11150 1.07135
 C475 C 0.06620 1.00292 1.11395
 C476 C 0.10718 1.07093 1.00353
 H477 H 0.02438 0.92943 1.07242
 H478 H 0.06496 1.02639 0.93301
 H479 H -0.07778 0.92317 0.92953
 H480 H -0.07605 1.06756 1.02840
 H481 H -0.08062 1.06475 1.10791
 H482 H -0.15024 1.02165 1.04017
 H483 H 0.11586 0.94958 0.94741
 H484 H -0.01348 0.94280 0.83179
 H485 H -0.05460 0.94346 1.12152
 H486 H -0.08353 0.85248 0.96390
 H487 H 0.05827 1.10648 0.92576
 H488 H 0.02190 1.03499 0.85769
 H489 H 0.03678 0.85390 1.02654
 H490 H 0.10565 0.92584 1.06894
 H491 H -0.17761 0.98928 0.94596
 H492 H -0.06337 1.11658 0.95145
 O493 O 0.37360 0.44934 0.51284
 O494 O 0.36240 0.54492 0.50374
 O495 O 0.44097 0.50117 0.36696
 O496 O 0.50858 0.51619 0.34488
 O497 O 0.50050 0.37121 0.43994
 O498 O 0.53391 0.36940 0.52116
 O499 O 0.56925 0.60541 0.48908
 O500 O 0.52096 0.61160 0.41948
 O501 O 0.49384 0.57548 0.59557
 O502 O 0.41634 0.52516 0.59760
 O503 O 0.59703 0.50082 0.57045
 O504 O 0.61256 0.43029 0.52007
 O505 O 0.61155 0.54350 0.50940
 O506 O 0.62849 0.47184 0.46463
 O507 O 0.53285 0.51048 0.61261
 O508 O 0.46579 0.46824 0.62347
 O509 O 0.51044 0.61754 0.53326
 O510 O 0.45472 0.62691 0.46759
 O511 O 0.41629 0.38544 0.50525
 O512 O 0.46951 0.35943 0.54110
 O513 O 0.51384 0.41817 0.38048
 O514 O 0.56173 0.48525 0.36984
 O515 O 0.39012 0.53352 0.41482
 O516 O 0.34985 0.47736 0.44357
 Zr517 Zr 0.41105 0.50011 0.47519
 O518 O 0.44831 0.54792 0.51568
 Zr519 Zr 0.50065 0.48324 0.40808
 O520 O 0.54392 0.52469 0.44873
 Zr521 Zr 0.48234 0.41385 0.49596
 O522 O 0.51928 0.45524 0.54203
 Zr523 Zr 0.50400 0.57489 0.47876
 O524 O 0.46219 0.53444 0.43778
 Zr525 Zr 0.47993 0.51008 0.56698
 O526 O 0.44231 0.46411 0.52791
 Zr527 Zr 0.57051 0.48704 0.50445
 O528 O 0.53443 0.44463 0.45904
 O529 O 0.44891 0.44826 0.44263
 O530 O 0.53261 0.53893 0.53155
 C531 C 0.37966 0.40582 0.51845
 C532 C 0.40430 0.52578 0.37450
 C533 C 0.51623 0.37899 0.39966
 C534 C 0.60659 0.58615 0.50281
 C535 C 0.50652 0.61257 0.57593
 C536 C 0.57619 0.50939 0.60781
 H537 H 0.43025 0.57309 0.52884
 H538 H 0.53184 0.43707 0.56750
 H539 H 0.43054 0.42800 0.42288
 H540 H 0.56842 0.53900 0.43071
 H541 H 0.49492 0.60777 0.39814
 H542 H 0.51036 0.54925 0.35125
 H543 H 0.44861 0.44181 0.61145
 H544 H 0.46728 0.37315 0.57174
 H545 H 0.47080 0.65643 0.47078
 H546 H 0.35758 0.45000 0.42566
 H547 H 0.60586 0.42072 0.55147
 H548 H 0.55822 0.36769 0.49805
 H549 H 0.35139 0.52978 0.53157
 H550 H 0.42309 0.54320 0.62518
 H551 H 0.58395 0.46512 0.38560
 H552 H 0.63240 0.49701 0.44273
 O553 O 0.49809 -0.06788 0.60670
 O554 O 0.57293 -0.01028 0.61034
 O555 O 0.39184 -0.00759 0.56398
 O556 O 0.37324 0.05641 0.51131
 O557 O 0.43507 -0.11285 0.50427
 O558 O 0.48347 -0.13110 0.44134
 O559 O 0.48840 0.12305 0.43786
 O560 O 0.51662 0.15597 0.49854
 O561 O 0.62534 0.05797 0.50053
 O562 O 0.61423 -0.04966 0.52790
 O563 O 0.56105 0.00766 0.37271
 O564 O 0.48202 -0.04445 0.36696
 O565 O 0.48239 0.07412 0.37865
 O566 O 0.45150 0.01608 0.35575
 O567 O 0.61126 -0.02733 0.41990
 O568 O 0.65774 0.00210 0.47159
 O569 O 0.57443 0.11488 0.51429
 O570 O 0.47090 0.10671 0.55025
 O571 O 0.52912 -0.10146 0.54853
 O572 O 0.53931 -0.13475 0.47095
 O573 O 0.40080 -0.05562 0.47128
 O574 O 0.36196 0.01880 0.46426
 O575 O 0.45110 0.02514 0.59687
 O576 O 0.52261 0.02706 0.63554
 Zr577 Zr 0.51094 -0.00533 0.57253
 O578 O 0.55174 0.03693 0.53231
 Zr579 Zr 0.42318 0.00549 0.50063
 O580 O 0.46026 0.04858 0.45829
 Zr581 Zr 0.49746 -0.07885 0.48849
 O582 O 0.53681 -0.03938 0.44422
 Zr583 Zr 0.51106 0.08388 0.49545
 O584 O 0.47021 0.04471 0.53933
 Zr585 Zr 0.58592 -0.00137 0.48246
 O586 O 0.54903 -0.04528 0.52615
 Zr587 Zr 0.49826 0.01063 0.41053
 O588 O 0.45638 -0.03245 0.45023
 O589 O 0.46160 -0.04228 0.53701
 O590 O 0.54833 0.04806 0.44601
 C591 C 0.50730 -0.10460 0.58557
 C592 C 0.41362 0.00314 0.60015
 C593 C 0.39780 -0.09193 0.49466
 C594 C 0.47784 0.11412 0.39606
 C595 C 0.61558 0.09894 0.51423
 C596 C 0.59774 -0.01678 0.37964
 H597 H 0.57093 0.04986 0.55675
 H598 H 0.54674 -0.06357 0.42318
 H599 H 0.44268 -0.06142 0.55694
 H600 H 0.43513 0.06710 0.44526
 H601 H 0.48586 0.16950 0.50340
 H602 H 0.39042 0.08411 0.52000
 H603 H 0.67143 -0.02860 0.47556
 H604 H 0.57129 -0.12389 0.47430
 H605 H 0.49299 0.11853 0.57312
 H606 H 0.51227 0.00563 0.65937
 H607 H 0.51053 -0.05416 0.35182
 H608 H 0.46362 -0.11705 0.41780
 H609 H 0.58007 -0.04313 0.61312
 H610 H 0.63472 -0.03212 0.54833
 H611 H 0.36980 0.01596 0.43180
 H612 H 0.42053 0.01522 0.36935
 O613 O -0.00211 0.42953 1.10886
 O614 O 0.06574 0.48008 1.12381
 O615 O -0.10606 0.49256 1.06656
 O616 O -0.12624 0.55330 1.01761
 O617 O -0.06319 0.38753 1.00469
 O618 O -0.01113 0.37101 0.94026
 O619 O 0.00245 0.62188 0.94051
 O620 O 0.02535 0.65534 1.00602
 O621 O 0.12742 0.56191 0.99330
 O622 O 0.13417 0.48008 1.04110
 O623 O 0.05925 0.49321 0.87443
 O624 O -0.04718 0.46564 0.88943
 O625 O -0.02708 0.57355 0.88842
 O626 O 0.00424 0.52437 0.84438
 O627 O 0.12004 0.48564 0.92263
 O628 O 0.14677 0.45526 0.97837
 O629 O 0.07898 0.61021 1.02852
 O630 O -0.02962 0.60980 1.05032
 O631 O 0.03018 0.39765 1.05074
 O632 O 0.03938 0.36392 0.97234
 O633 O -0.10066 0.44608 0.97563
 O634 O -0.13034 0.52316 0.96193
 O635 O -0.04662 0.52336 1.10066
 O636 O 0.02790 0.52957 1.13568
 Zr637 Zr 0.01279 0.49261 1.07609
 O638 O 0.05614 0.53456 1.03817
 Zr639 Zr -0.07369 0.50597 1.00367
 O640 O -0.03494 0.55079 0.96432
 Zr641 Zr -0.00030 0.42119 0.99045
 O642 O 0.04067 0.46161 0.94891
 Zr643 Zr 0.01649 0.58364 1.00194
 O644 O -0.02656 0.54399 1.04376
 Zr645 Zr 0.08971 0.49870 0.98702
 O646 O 0.05108 0.45408 1.02856
 Zr647 Zr 0.00160 0.51208 0.91528
 O648 O -0.04122 0.46776 0.95248
 O649 O -0.03663 0.45698 1.03918
 O650 O 0.05251 0.54859 0.95137
 C651 C 0.00698 0.39324 1.08685
 C652 C -0.08439 0.50202 1.10317
 C653 C -0.10116 0.40766 0.99584
 C654 C -0.01867 0.61424 0.90212
 C655 C 0.11986 0.59805 1.01795
 C656 C 0.10172 0.48256 0.88277
 H657 H 0.07748 0.54432 1.06245
 H658 H 0.05372 0.43795 0.92910
 H659 H -0.05638 0.43788 1.05833
 H660 H -0.05993 0.57193 0.95563
 H661 H -0.00503 0.67048 1.00412
 H662 H -0.11069 0.58030 1.03052
 H663 H 0.13446 0.42377 0.97845
 H664 H 0.07162 0.37231 0.97880
 H665 H -0.01038 0.62098 1.07585
 H666 H 0.02867 0.56202 1.12644
 H667 H -0.02965 0.44476 0.86964
 H668 H -0.03758 0.38155 0.92183
 H669 H 0.08434 0.45501 1.11114
 H670 H 0.14895 0.50816 1.05250
 H671 H -0.11940 0.52028 0.93037
 H672 H -0.02533 0.51546 0.83022
 O673 O 0.12764 0.44443 0.48227
 O674 O 0.13973 0.53836 0.49178
 O675 O 0.05334 0.51026 0.62932
 O676 O -0.04084 0.49946 0.64000
 O677 O 0.00471 0.36856 0.55898
 O678 O -0.03083 0.36037 0.48037
 O679 O -0.07053 0.59491 0.49623
 O680 O -0.03399 0.60707 0.57377
 O681 O -0.00428 0.57301 0.40753
 O682 O 0.07930 0.52788 0.39650
 O683 O -0.09329 0.50986 0.42834
 O684 O -0.11253 0.42961 0.46858
 O685 O -0.11157 0.53428 0.51544
 O686 O -0.12890 0.45697 0.52537
 O687 O -0.03271 0.49091 0.38635
 O688 O 0.04162 0.47631 0.37009
 O689 O 0.01190 0.61382 0.46967
 O690 O 0.03748 0.61991 0.54976
 O691 O 0.08497 0.38031 0.48750
 O692 O 0.02821 0.35753 0.45003
 O693 O -0.03680 0.41583 0.60261
 O694 O 0.03402 0.43532 0.64088
 O695 O 0.11260 0.52629 0.58223
 O696 O 0.15141 0.47281 0.55390
 Zr697 Zr 0.09047 0.49451 0.52083
 O698 O 0.05164 0.54289 0.48287
 Zr699 Zr 0.00284 0.47446 0.58866
 O700 O -0.04224 0.51690 0.55104
 Zr701 Zr 0.01942 0.40878 0.49937
 O702 O -0.01880 0.45091 0.45549
 Zr703 Zr -0.00497 0.56917 0.52017
 O704 O 0.03852 0.52679 0.55824
 Zr705 Zr 0.01915 0.50720 0.43046
 O706 O 0.05847 0.46006 0.46751
 Zr707 Zr -0.07019 0.48283 0.49307
 O708 O -0.03189 0.43998 0.53584
 O709 O 0.05415 0.44162 0.55191
 O710 O -0.03441 0.53636 0.46547
 C711 C 0.12169 0.40114 0.47544
 C712 C 0.09390 0.52732 0.62173
 C713 C -0.02499 0.37538 0.59127
 C714 C -0.10961 0.57465 0.50054
 C715 C -0.00134 0.61131 0.42872
 C716 C -0.07368 0.50517 0.38940
 H717 H 0.07158 0.56707 0.47077
 H718 H -0.03163 0.43067 0.43184
 H719 H 0.07351 0.42068 0.57004
 H720 H -0.06488 0.52934 0.57245
 H721 H -0.02323 0.59231 0.60213
 H722 H -0.02649 0.52771 0.65147
 H723 H 0.04659 0.44386 0.37788
 H724 H 0.03049 0.37368 0.42058
 H725 H 0.02655 0.65029 0.53958
 H726 H 0.14512 0.44316 0.56849
 H727 H -0.10922 0.42823 0.43528
 H728 H -0.05839 0.36697 0.49852
 H729 H 0.14643 0.52559 0.46153
 H730 H 0.07617 0.56076 0.38984
 H731 H 0.01601 0.44069 0.66868
 H732 H -0.12015 0.45389 0.55775
 O733 O 0.62651 0.93809 -0.02219
 O734 O 0.64160 1.03120 -0.01301
 O735 O 0.55402 1.00808 0.12426
 O736 O 0.45952 0.99876 0.13495
 O737 O 0.49831 0.86456 0.05418
 O738 O 0.46816 0.85574 -0.02321
 O739 O 0.43337 1.09394 -0.00895
 O740 O 0.47048 1.10582 0.06778
 O741 O 0.49551 1.06854 -0.09759
 O742 O 0.57887 1.02220 -0.10967
 O743 O 0.40728 1.00858 -0.07561
 O744 O 0.38545 0.92946 -0.03497
 O745 O 0.38944 1.03454 0.00901
 O746 O 0.37133 0.95749 0.02327
 O747 O 0.46640 0.98517 -0.11681
 O748 O 0.54104 0.97147 -0.13488
 O749 O 0.51672 1.10868 -0.03698
 O750 O 0.54173 1.11605 0.04355
 O751 O 0.58308 0.87492 -0.01361
 O752 O 0.52617 0.85467 -0.05462
 O753 O 0.46364 0.91439 0.10138
 O754 O 0.53401 0.93334 0.13703
 O755 O 0.61403 1.02124 0.07726
 O756 O 0.65121 0.96573 0.04933
 Zr757 Zr 0.59092 0.98908 0.01620
 O758 O 0.55343 1.03772 -0.02258
 Zr759 Zr 0.50312 0.97212 0.08438
 O760 O 0.45901 1.01532 0.04625
 Zr761 Zr 0.51762 0.90487 -0.00419
 O762 O 0.48009 0.94727 -0.04831
 Zr763 Zr 0.49789 1.06608 0.01468
 O764 O 0.54004 1.02310 0.05328
 Zr765 Zr 0.51920 1.00249 -0.07434
 O766 O 0.55770 0.95493 -0.03673
 Zr767 Zr 0.42982 0.98125 -0.01094
 O768 O 0.46725 0.93783 0.03217
 O769 O 0.55331 0.93738 0.04791
 O770 O 0.46693 1.03355 -0.03923
 C771 C 0.62000 0.89469 -0.02697
 C772 C 0.59512 1.02376 0.11664
 C773 C 0.47167 0.87344 0.08853
 C774 C 0.39351 1.07530 -0.00472
 C775 C 0.50153 1.10704 -0.07736
 C776 C 0.42676 1.00262 -0.11436
 H777 H 0.57435 1.06080 -0.03516
 H778 H 0.46650 0.92649 -0.07109
 H779 H 0.57190 0.91596 0.06626
 H780 H 0.43635 1.02879 0.06700
 H781 H 0.48017 1.09068 0.09630
 H782 H 0.47453 1.02667 0.14643
 H783 H 0.54590 0.93900 -0.12714
 H784 H 0.53012 0.87151 -0.08347
 H785 H 0.53213 1.14646 0.03225
 H786 H 0.64359 0.93733 0.06564
 H787 H 0.38892 0.92744 -0.06822
 H788 H 0.43894 0.86543 -0.00944
 H789 H 0.64721 1.01863 -0.04357
 H790 H 0.57606 1.05514 -0.11625
 H791 H 0.51728 0.94067 0.16520
 H792 H 0.38056 0.95562 0.05560
 O793 O 0.37773 0.55811 -0.01278
 O794 O 0.36110 0.46505 -0.00628
 O795 O 0.44261 0.50323 0.13191
 O796 O 0.51796 0.46659 0.14121
 O797 O 0.50415 0.62969 0.06337
 O798 O 0.53972 0.63487 -0.01274
 O799 O 0.56959 0.40147 -0.00740
 O800 O 0.52703 0.38234 0.07014
 O801 O 0.50740 0.42924 -0.09321
 O802 O 0.42393 0.47581 -0.10457
 O803 O 0.59705 0.49093 -0.06814
 O804 O 0.61714 0.56781 -0.02319
 O805 O 0.61444 0.45875 0.01469
 O806 O 0.63499 0.53346 0.03085
 O807 O 0.53603 0.51028 -0.11111
 O808 O 0.46156 0.53002 -0.12637
 O809 O 0.48318 0.38828 -0.03513
 O810 O 0.46731 0.37211 0.04332
 O811 O 0.42263 0.62036 -0.00468
 O812 O 0.47785 0.64218 -0.04146
 O813 O 0.51875 0.58076 0.12132
 O814 O 0.55269 0.52360 0.14384
 O815 O 0.39421 0.46909 0.08242
 O816 O 0.35344 0.52869 0.05560
 Zr817 Zr 0.41356 0.50525 0.02327
 O818 O 0.44934 0.45794 -0.01777
 Zr819 Zr 0.50273 0.51706 0.09203
 O820 O 0.54550 0.47642 0.05180
 Zr821 Zr 0.48724 0.58889 0.00593
 O822 O 0.52358 0.54808 -0.03986
 Zr823 Zr 0.50537 0.42752 0.01819
 O824 O 0.46364 0.46799 0.05958
 Zr825 Zr 0.48383 0.49438 -0.06809
 O826 O 0.44650 0.54054 -0.02850
 Zr827 Zr 0.57427 0.51347 -0.00284
 O828 O 0.53854 0.55525 0.04281
 O829 O 0.45224 0.55475 0.05775
 O830 O 0.53664 0.46235 -0.03367
 C831 C 0.38511 0.60134 -0.01772
 C832 C 0.40724 0.47739 0.12327
 C833 C 0.51982 0.62067 0.10358
 C834 C 0.60975 0.41914 -0.00183
 C835 C 0.50110 0.39029 -0.07404
 C836 C 0.57696 0.49595 -0.10695
 H837 H 0.42725 0.43631 -0.03123
 H838 H 0.53678 0.56877 -0.06275
 H839 H 0.43452 0.57527 0.07758
 H840 H 0.56789 0.46237 0.07295
 H841 H 0.56050 0.38597 0.07419
 H842 H 0.50171 0.43864 0.13160
 H843 H 0.45661 0.56176 -0.11628
 H844 H 0.47585 0.62741 -0.07162
 H845 H 0.43505 0.38264 0.04336
 H846 H 0.36217 0.55454 0.07528
 H847 H 0.61415 0.57130 -0.05642
 H848 H 0.56603 0.62939 0.00794
 H849 H 0.35510 0.47845 -0.03657
 H850 H 0.42751 0.44360 -0.11365
 H851 H 0.58280 0.52302 0.12852
 H852 H 0.62646 0.53733 0.06300
 O853 O -0.12564 0.06275 0.50507
 O854 O -0.13355 -0.03578 0.49459
 O855 O -0.05319 0.00833 0.63591
 O856 O 0.01837 -0.01145 0.65624
 O857 O 0.02170 0.13208 0.55711
 O858 O 0.01064 0.14257 0.46431
 O859 O 0.07534 -0.09495 0.50848
 O860 O 0.03275 -0.10427 0.58019
 O861 O -0.00951 -0.06658 0.40704
 O862 O -0.08166 -0.01008 0.40210
 O863 O 0.09999 0.00989 0.43168
 O864 O 0.10798 0.08500 0.48441
 O865 O 0.11761 -0.03150 0.49431
 O866 O 0.13343 0.03949 0.53526
 O867 O 0.03496 -0.00667 0.39235
 O868 O -0.03168 0.04230 0.38073
 O869 O 0.01386 -0.10833 0.46784
 O870 O -0.03723 -0.11969 0.53559
 O871 O -0.07745 0.11255 0.47141
 O872 O -0.05539 0.14736 0.53783
 O873 O 0.01687 0.09000 0.62137
 O874 O 0.06636 0.02473 0.63521
 O875 O -0.09761 -0.03366 0.58941
 O876 O -0.14819 0.01755 0.56265
 Zr877 Zr -0.08528 0.00483 0.52976
 O878 O -0.04768 -0.04055 0.48744
 Zr879 Zr 0.00608 0.02389 0.59491
 O880 O 0.04948 -0.01568 0.55332
 Zr881 Zr -0.01757 0.09345 0.50852
 O882 O 0.02088 0.05453 0.46101
 Zr883 Zr 0.01014 -0.06655 0.52305
 O884 O -0.03150 -0.02841 0.56564
 Zr885 Zr -0.01837 -0.00108 0.43645
 O886 O -0.05649 0.04163 0.47771
 Zr887 Zr 0.07373 0.02297 0.49766
 O888 O 0.03677 0.06270 0.54330
 O889 O -0.04806 0.05696 0.56158
 O890 O 0.03609 -0.02932 0.47040
 C891 C -0.11843 0.09885 0.47980
 C892 C -0.08614 -0.02117 0.62954
 C893 C 0.02874 0.12652 0.60035
 C894 C 0.11258 -0.07455 0.49705
 C895 C 0.00527 -0.10347 0.42576
 C896 C 0.07836 -0.00249 0.39555
 H897 H -0.06545 -0.06618 0.47466
 H898 H 0.03294 0.07239 0.43534
 H899 H -0.06691 0.07596 0.58191
 H900 H 0.07483 -0.02931 0.57119
 H901 H 0.00769 -0.10320 0.60254
 H902 H 0.01561 -0.04423 0.64916
 H903 H -0.04131 0.07177 0.39386
 H904 H -0.04548 0.17570 0.52253
 H905 H -0.02069 -0.14886 0.53146
 H906 H -0.14231 0.04214 0.58494
 H907 H 0.10860 0.08935 0.45118
 H908 H 0.04186 0.14885 0.47601
 H909 H -0.14634 -0.01588 0.47052
 H910 H -0.08992 -0.04264 0.40442
 H911 H 0.08879 0.04350 0.61856
 H912 H 0.13609 0.01729 0.56037
 O913 O 0.73295 0.14084 0.22582
 O914 O 0.83115 0.14254 0.24051
 O915 O 0.76003 0.23096 0.36240
 O916 O 0.77424 0.30295 0.37487
 O917 O 0.63802 0.26163 0.27144
 O918 O 0.63878 0.28891 0.18881
 O919 O 0.86782 0.35188 0.23405
 O920 O 0.87461 0.31224 0.31087
 O921 O 0.85751 0.26294 0.13972
 O922 O 0.81279 0.18294 0.13701
 O923 O 0.76661 0.35766 0.14213
 O924 O 0.69286 0.37481 0.18933
 O925 O 0.80684 0.38659 0.19979
 O926 O 0.73366 0.40201 0.24300
 O927 O 0.80432 0.29740 0.11190
 O928 O 0.75379 0.22994 0.10073
 O929 O 0.89374 0.29585 0.19961
 O930 O 0.90093 0.24353 0.26933
 O931 O 0.66512 0.17771 0.21772
 O932 O 0.64255 0.22385 0.16949
 O933 O 0.67633 0.28916 0.33270
 O934 O 0.73483 0.34674 0.34258
 O935 O 0.80344 0.17865 0.32631
 O936 O 0.76180 0.12766 0.29417
 Zr937 Zr 0.77846 0.18822 0.25895
 O938 O 0.82625 0.22475 0.21780
 Zr939 Zr 0.74555 0.28242 0.31224
 O940 O 0.78826 0.32396 0.27157
 Zr941 Zr 0.68783 0.24628 0.22099
 O942 O 0.72982 0.28330 0.17570
 Zr943 Zr 0.84507 0.28601 0.25067
 O944 O 0.80404 0.24620 0.29336
 Zr945 Zr 0.79040 0.24726 0.16031
 O946 O 0.74489 0.20814 0.19907
 Zr947 Zr 0.75333 0.34087 0.21055
 O948 O 0.70895 0.30552 0.25445
 O949 O 0.71995 0.22362 0.28079
 O950 O 0.81038 0.30478 0.19331
 C951 C 0.68959 0.14131 0.21539
 C952 C 0.78773 0.19607 0.36302
 C953 C 0.63897 0.28130 0.31079
 C954 C 0.84923 0.38430 0.21068
 C955 C 0.89087 0.28573 0.15756
 C956 C 0.79188 0.33917 0.11136
 H957 H 0.85416 0.20816 0.20855
 H958 H 0.71293 0.29136 0.14760
 H959 H 0.69984 0.20512 0.30039
 H960 H 0.79859 0.35130 0.28824
 H961 H 0.87319 0.28755 0.33368
 H962 H 0.80744 0.30674 0.36969
 H963 H 0.73282 0.20505 0.10949
 H964 H 0.66146 0.22006 0.14201
 H965 H 0.92893 0.26250 0.26807
 H966 H 0.73257 0.13337 0.31013
 H967 H 0.68504 0.36378 0.15857
 H968 H 0.63324 0.31504 0.20917
 H969 H 0.81948 0.12643 0.21334
 H970 H 0.83074 0.18867 0.10925
 H971 H 0.71560 0.36443 0.32109
 H972 H 0.75907 0.41145 0.26327
 O973 O 0.74024 0.64398 0.63609
 O974 O 0.81633 0.63377 0.67693
 O975 O 0.64508 0.64432 0.73427
 O976 O 0.63420 0.68505 0.80623
 O977 O 0.64461 0.74308 0.63742
 O978 O 0.69114 0.81828 0.63014
 O979 O 0.74373 0.76689 0.85923
 O980 O 0.78104 0.70349 0.87571
 O981 O 0.86953 0.74214 0.77026
 O982 O 0.86618 0.71568 0.68182
 O983 O 0.78031 0.86283 0.74439
 O984 O 0.69406 0.86334 0.71514
 O985 O 0.72500 0.83316 0.82393
 O986 O 0.67662 0.85703 0.78074
 O987 O 0.84138 0.82581 0.71450
 O988 O 0.86456 0.78258 0.66791
 O989 O 0.83187 0.70305 0.82501
 O990 O 0.73243 0.65589 0.82421
 O991 O 0.70992 0.70806 0.60365
 O992 O 0.74697 0.78054 0.59791
 O993 O 0.61102 0.71046 0.69894
 O994 O 0.60574 0.74702 0.77237
 O995 O 0.70591 0.61084 0.69931
 O996 O 0.77830 0.60336 0.74103
 Zr997 Zr 0.75545 0.66145 0.70438
 O998 O 0.79874 0.69717 0.74870
 Zr999 Zr 0.66383 0.71263 0.74705
 O1000 O 0.70336 0.75445 0.78888
 Zr1001 Zr 0.71433 0.75521 0.65637
 O1002 O 0.76039 0.79377 0.69520
 Zr1003 Zr 0.76320 0.71882 0.80740
 O1004 O 0.72178 0.67511 0.76678
 Zr1005 Zr 0.81923 0.75716 0.71735
 O1006 O 0.77689 0.72052 0.67055
 Zr1007 Zr 0.72755 0.81313 0.75500
 O1008 O 0.67963 0.77535 0.71506
 O1009 O 0.69672 0.69634 0.68849
 O1010 O 0.78765 0.77926 0.77728
 C1011 C 0.71995 0.66566 0.60336
 C1012 C 0.66435 0.61150 0.71234
 C1013 C 0.61107 0.72240 0.65726
 C1014 C 0.72877 0.80865 0.85988
 C1015 C 0.86919 0.71675 0.80684
 C1016 C 0.81998 0.86263 0.72458
 H1017 H 0.82379 0.67501 0.75353
 H1018 H 0.76828 0.81965 0.67537
 H1019 H 0.67684 0.67786 0.66920
 H1020 H 0.68157 0.76169 0.81326
 H1021 H 0.75321 0.69347 0.89204
 H1022 H 0.65491 0.69230 0.83188
 H1023 H 0.84585 0.78708 0.64001
 H1024 H 0.77779 0.76647 0.59759
 H1025 H 0.75808 0.63447 0.83056
 H1026 H 0.77722 0.57665 0.72052
 H1027 H 0.71671 0.87643 0.69406
 H1028 H 0.66076 0.82424 0.64360
 H1029 H 0.82192 0.64934 0.64773
 H1030 H 0.88186 0.69572 0.70410
 H1031 H 0.60357 0.77610 0.75551
 H1032 H 0.64865 0.83819 0.78389
 O1033 O 0.36491 0.14666 0.76245
 O1034 O 0.37361 0.19035 0.68773
 O1035 O 0.36509 0.24103 0.85929
 O1036 O 0.32457 0.31523 0.86986
 O1037 O 0.26751 0.14526 0.85762
 O1038 O 0.19158 0.13586 0.81313
 O1039 O 0.23574 0.36798 0.76468
 O1040 O 0.29872 0.38622 0.72717
 O1041 O 0.25665 0.27910 0.63932
 O1042 O 0.28910 0.19294 0.63965
 O1043 O 0.14166 0.25047 0.72804
 O1044 O 0.14399 0.22080 0.81358
 O1045 O 0.17048 0.33086 0.78370
 O1046 O 0.14919 0.28666 0.83156
 O1047 O 0.17848 0.22077 0.66724
 O1048 O 0.22325 0.17428 0.64426
 O1049 O 0.29622 0.33525 0.67494
 O1050 O 0.34931 0.33540 0.77198
 O1051 O 0.30235 0.11235 0.79366
 O1052 O 0.22907 0.10569 0.75612
 O1053 O 0.30076 0.20634 0.89237
 O1054 O 0.26243 0.28016 0.89950
 O1055 O 0.39831 0.20747 0.79805
 O1056 O 0.40352 0.25412 0.72823
 Zr1057 Zr 0.34631 0.21525 0.74925
 O1058 O 0.30759 0.25896 0.70756
 Zr1059 Zr 0.29601 0.25563 0.84120
 O1060 O 0.25153 0.29714 0.80344
 Zr1061 Zr 0.25361 0.16434 0.78979
 O1062 O 0.21228 0.20265 0.74631
 Zr1063 Zr 0.28502 0.31716 0.74376
 O1064 O 0.33155 0.27727 0.78364
 Zr1065 Zr 0.24754 0.22567 0.68830
 O1066 O 0.28738 0.17969 0.72824
 Zr1067 Zr 0.19255 0.26212 0.78005
 O1068 O 0.23309 0.22237 0.82589
 O1069 O 0.31218 0.19794 0.80678
 O1070 O 0.22453 0.28533 0.72042
 C1071 C 0.34463 0.11319 0.78268
 C1072 C 0.39783 0.21857 0.83995
 C1073 C 0.28901 0.16442 0.89095
 C1074 C 0.19396 0.36764 0.77986
 C1075 C 0.28093 0.31627 0.63863
 C1076 C 0.14172 0.23024 0.68876
 H1077 H 0.32868 0.26500 0.68226
 H1078 H 0.18662 0.18202 0.73890
 H1079 H 0.33107 0.17827 0.82569
 H1080 H 0.24418 0.32143 0.82532
 H1081 H 0.30835 0.40269 0.75501
 H1082 H 0.31476 0.34110 0.85060
 H1083 H 0.22023 0.14647 0.66311
 H1084 H 0.24594 0.10385 0.72723
 H1085 H 0.36964 0.34170 0.74588
 H1086 H 0.43084 0.23401 0.72847
 H1087 H 0.13030 0.19989 0.79101
 H1088 H 0.18552 0.14928 0.84324
 H1089 H 0.35908 0.16053 0.68167
 H1090 H 0.30767 0.21644 0.62434
 H1091 H 0.23376 0.26243 0.90207
 H1092 H 0.16890 0.29010 0.85889
 O1093 O 0.13682 0.76568 0.35950
 O1094 O 0.17833 0.69030 0.36629
 O1095 O 0.23706 0.86087 0.35810
 O1096 O 0.30719 0.87320 0.31285
 O1097 O 0.13557 0.86452 0.26017
 O1098 O 0.12044 0.81699 0.18768
 O1099 O 0.35381 0.76524 0.22614
 O1100 O 0.37508 0.72947 0.28866
 O1101 O 0.26625 0.64104 0.25190
 O1102 O 0.17856 0.64231 0.28230
 O1103 O 0.23394 0.73235 0.13564
 O1104 O 0.20500 0.81746 0.13818
 O1105 O 0.31520 0.78526 0.16207
 O1106 O 0.27127 0.83679 0.14445
 O1107 O 0.20617 0.67033 0.17238
 O1108 O 0.15982 0.64711 0.21715
 O1109 O 0.32383 0.67743 0.28925
 O1110 O 0.32570 0.77449 0.33941
 O1111 O 0.10128 0.79879 0.29850
 O1112 O 0.09001 0.76325 0.22734
 O1113 O 0.19637 0.89523 0.29794
 O1114 O 0.26764 0.90323 0.25434
 O1115 O 0.20237 0.79968 0.39089
 O1116 O 0.24489 0.72740 0.39428
 Zr1117 Zr 0.20478 0.75156 0.33895
 O1118 O 0.24699 0.70953 0.29999
 Zr1119 Zr 0.24536 0.84418 0.28873
 O1120 O 0.28495 0.80611 0.24370
 Zr1121 Zr 0.15152 0.79464 0.24880
 O1122 O 0.18792 0.75006 0.20715
 Zr1123 Zr 0.30503 0.74580 0.27676
 O1124 O 0.26708 0.78566 0.32341
 Zr1125 Zr 0.21202 0.69088 0.24112
 O1126 O 0.16731 0.73177 0.28115
 Zr1127 Zr 0.24730 0.78357 0.18619
 O1128 O 0.20964 0.83003 0.22720
 O1129 O 0.18707 0.81059 0.30646
 O1130 O 0.27135 0.72318 0.21740
 C1131 C 0.10308 0.78704 0.34021
 C1132 C 0.21595 0.84103 0.39105
 C1133 C 0.15464 0.89614 0.28446
 C1134 C 0.35258 0.78004 0.18462
 C1135 C 0.30462 0.64078 0.27529
 C1136 C 0.21476 0.69235 0.13575
 H1137 H 0.25310 0.68401 0.32100
 H1138 H 0.16655 0.74265 0.18211
 H1139 H 0.16878 0.82967 0.32638
 H1140 H 0.30958 0.82762 0.23563
 H1141 H 0.39190 0.75762 0.29706
 H1142 H 0.33229 0.85224 0.30460
 H1143 H 0.13194 0.66629 0.21400
 H1144 H 0.09065 0.73208 0.24009
 H1145 H 0.33310 0.74841 0.35968
 H1146 H 0.22577 0.72803 0.42190
 H1147 H 0.18234 0.79538 0.12636
 H1148 H 0.13427 0.84674 0.18004
 H1149 H 0.14839 0.68457 0.35139
 H1150 H 0.20209 0.62690 0.30117
 H1151 H 0.24661 0.90742 0.22817
 H1152 H 0.27570 0.86332 0.16473
 O1153 O 0.23289 0.64451 0.72806
 O1154 O 0.33169 0.64506 0.74183
 O1155 O 0.26100 0.73281 0.86496
 O1156 O 0.27970 0.80501 0.87698
 O1157 O 0.14004 0.76423 0.77695
 O1158 O 0.13948 0.79411 0.69477
 O1159 O 0.36967 0.85349 0.73325
 O1160 O 0.37806 0.81470 0.81075
 O1161 O 0.35542 0.76596 0.63984
 O1162 O 0.31131 0.68532 0.63892
 O1163 O 0.27423 0.86205 0.64775
 O1164 O 0.19431 0.87608 0.68999
 O1165 O 0.30742 0.89025 0.70367
 O1166 O 0.23399 0.90420 0.74716
 O1167 O 0.29928 0.79838 0.61166
 O1168 O 0.25038 0.73098 0.60447
 O1169 O 0.39370 0.79733 0.69939
 O1170 O 0.40229 0.74486 0.76911
 O1171 O 0.16510 0.68175 0.72129
 O1172 O 0.14155 0.72877 0.67450
 O1173 O 0.18008 0.79191 0.83709
 O1174 O 0.23886 0.84867 0.84716
 O1175 O 0.30413 0.68076 0.82828
 O1176 O 0.26339 0.62974 0.79552
 Zr1177 Zr 0.27939 0.69087 0.76099
 O1178 O 0.32645 0.72708 0.71891
 Zr1179 Zr 0.24856 0.78493 0.81536
 O1180 O 0.29070 0.82640 0.77417
 Zr1181 Zr 0.18842 0.75004 0.72511
 O1182 O 0.22973 0.78685 0.67912
 Zr1183 Zr 0.34655 0.78800 0.75171
 O1184 O 0.30641 0.74824 0.79537
 Zr1185 Zr 0.28917 0.74971 0.66226
 O1186 O 0.24445 0.71126 0.70207
 Zr1187 Zr 0.25467 0.84381 0.71404
 O1188 O 0.21089 0.80878 0.75867
 O1189 O 0.22172 0.72665 0.78402
 O1190 O 0.31044 0.80674 0.69537
 C1191 C 0.18937 0.64529 0.71842
 C1192 C 0.28824 0.69772 0.86511
 C1193 C 0.14224 0.78358 0.81634
 C1194 C 0.35036 0.88671 0.71156
 C1195 C 0.38943 0.78801 0.65728
 C1196 C 0.29342 0.84146 0.61422
 H1197 H 0.35402 0.71036 0.70894
 H1198 H 0.21253 0.79549 0.65138
 H1199 H 0.20192 0.70806 0.80385
 H1200 H 0.30157 0.85362 0.79071
 H1201 H 0.37801 0.78998 0.83359
 H1202 H 0.31299 0.80607 0.87127
 H1203 H 0.23019 0.70588 0.61435
 H1204 H 0.15957 0.72567 0.64635
 H1205 H 0.43050 0.76343 0.76690
 H1206 H 0.23432 0.63512 0.81188
 H1207 H 0.19222 0.87087 0.65693
 H1208 H 0.13425 0.81953 0.71609
 H1209 H 0.31937 0.62858 0.71518
 H1210 H 0.32851 0.69098 0.61068
 H1211 H 0.21954 0.86698 0.82629
 H1212 H 0.25918 0.91349 0.76777
 O1213 O 0.22994 0.13819 0.14097
 O1214 O 0.30468 0.12745 0.18288
 O1215 O 0.13314 0.14592 0.23632
 O1216 O 0.12256 0.18976 0.30721
 O1217 O 0.13660 0.23904 0.13616
 O1218 O 0.18347 0.31292 0.12573
 O1219 O 0.23582 0.26974 0.35752
 O1220 O 0.27031 0.20635 0.37655
 O1221 O 0.35985 0.24163 0.26858
 O1222 O 0.35703 0.21134 0.18235
 O1223 O 0.27275 0.36088 0.24056
 O1224 O 0.18706 0.36278 0.21084
 O1225 O 0.21721 0.33501 0.32035
 O1226 O 0.16798 0.35734 0.27604
 O1227 O 0.33317 0.32231 0.21127
 O1228 O 0.35372 0.27686 0.16403
 O1229 O 0.32270 0.20468 0.32510
 O1230 O 0.22311 0.15717 0.32622
 O1231 O 0.20065 0.20091 0.10497
 O1232 O 0.24017 0.27329 0.09643
 O1233 O 0.10135 0.20897 0.19807
 O1234 O 0.09653 0.25142 0.27014
 O1235 O 0.19288 0.10899 0.20306
 O1236 O 0.26487 0.10181 0.24816
 Zr1237 Zr 0.24435 0.15836 0.20805
 O1238 O 0.28878 0.19550 0.24981
 Zr1239 Zr 0.15358 0.21371 0.24722
 O1240 O 0.19419 0.25564 0.28796
 Zr1241 Zr 0.20589 0.25103 0.15520
 O1242 O 0.25166 0.29094 0.19276
 Zr1243 Zr 0.25364 0.21968 0.30754
 O1244 O 0.21048 0.17554 0.26926
 Zr1245 Zr 0.30970 0.25413 0.21583
 O1246 O 0.26720 0.21534 0.17125
 Zr1247 Zr 0.21904 0.31264 0.25200
 O1248 O 0.17097 0.27447 0.21268
 O1249 O 0.18714 0.19442 0.19017
 O1250 O 0.27865 0.27862 0.27509
 C1251 C 0.21031 0.15839 0.10710
 C1252 C 0.15097 0.11186 0.21509
 C1253 C 0.10257 0.21909 0.15586
 C1254 C 0.22168 0.31169 0.35705
 C1255 C 0.35980 0.21767 0.30588
 C1256 C 0.31249 0.35966 0.22098
 H1257 H 0.31356 0.17323 0.25543
 H1258 H 0.25999 0.31610 0.17218
 H1259 H 0.16736 0.17566 0.17130
 H1260 H 0.17279 0.26398 0.31234
 H1261 H 0.24208 0.19741 0.39286
 H1262 H 0.14505 0.19402 0.33206
 H1263 H 0.33404 0.28113 0.13679
 H1264 H 0.26869 0.25513 0.09471
 H1265 H 0.24885 0.13608 0.33326
 H1266 H 0.26257 0.07404 0.22923
 H1267 H 0.20971 0.37366 0.18857
 H1268 H 0.15387 0.32069 0.13994
 H1269 H 0.31197 0.14251 0.15379
 H1270 H 0.37103 0.19083 0.20522
 H1271 H 0.09334 0.27787 0.24952
 H1272 H 0.14010 0.33851 0.27990
 O1273 O 0.85897 0.64418 0.26664
 O1274 O 0.86914 0.68888 0.19411
 O1275 O 0.85319 0.73914 0.36592
 O1276 O 0.80865 0.80956 0.37943
 O1277 O 0.75948 0.63866 0.35855
 O1278 O 0.68431 0.62974 0.31410
 O1279 O 0.72929 0.86488 0.26933
 O1280 O 0.79247 0.88292 0.23497
 O1281 O 0.74994 0.77674 0.14419
 O1282 O 0.78376 0.69105 0.14368
 O1283 O 0.63447 0.74761 0.23045
 O1284 O 0.63319 0.71848 0.31431
 O1285 O 0.66329 0.82809 0.28642
 O1286 O 0.64154 0.78249 0.33529
 O1287 O 0.67205 0.71707 0.17049
 O1288 O 0.71786 0.67218 0.14654
 O1289 O 0.78978 0.83200 0.18088
 O1290 O 0.84242 0.82997 0.27796
 O1291 O 0.79582 0.60839 0.29502
 O1292 O 0.72193 0.60253 0.25527
 O1293 O 0.79199 0.69853 0.39566
 O1294 O 0.74745 0.77063 0.40397
 O1295 O 0.88930 0.70626 0.30595
 O1296 O 0.89611 0.75245 0.23502
 Zr1297 Zr 0.83913 0.71263 0.25483
 O1298 O 0.80085 0.75603 0.21266
 Zr1299 Zr 0.78489 0.75019 0.34641
 O1300 O 0.74267 0.79310 0.30803
 Zr1301 Zr 0.74592 0.65978 0.29164
 O1302 O 0.70492 0.69921 0.24907
 Zr1303 Zr 0.77781 0.81354 0.24935
 O1304 O 0.82260 0.77341 0.29050
 Zr1305 Zr 0.74107 0.72277 0.19205
 O1306 O 0.78110 0.67670 0.23155
 Zr1307 Zr 0.68435 0.75853 0.28309
 O1308 O 0.72325 0.71671 0.32851
 O1309 O 0.80340 0.69387 0.31072
 O1310 O 0.71767 0.78218 0.22440
 C1311 C 0.83852 0.60997 0.28533
 C1312 C 0.88688 0.71752 0.34781
 C1313 C 0.78164 0.65623 0.39229
 C1314 C 0.68718 0.86487 0.28315
 C1315 C 0.77471 0.81347 0.14426
 C1316 C 0.63502 0.72691 0.19150
 H1317 H 0.82241 0.76224 0.18778
 H1318 H 0.67946 0.67854 0.24115
 H1319 H 0.82290 0.67424 0.32895
 H1320 H 0.73507 0.81728 0.32995
 H1321 H 0.80275 0.89830 0.26322
 H1322 H 0.80830 0.83421 0.35659
 H1323 H 0.71491 0.64388 0.16469
 H1324 H 0.74118 0.60016 0.22793
 H1325 H 0.86273 0.83688 0.25201
 H1326 H 0.92401 0.73329 0.23762
 H1327 H 0.62369 0.69457 0.29265
 H1328 H 0.67649 0.64451 0.34316
 H1329 H 0.85373 0.65999 0.18600
 H1330 H 0.80217 0.71495 0.12880
 H1331 H 0.72197 0.74869 0.40721
 H1332 H 0.66159 0.78589 0.36235
 O1333 O 0.76484 0.13984 0.77090
 O1334 O 0.66655 0.14154 0.75397
 O1335 O 0.73939 0.23009 0.63333
 O1336 O 0.72105 0.30275 0.62225
 O1337 O 0.85960 0.26008 0.72319
 O1338 O 0.85963 0.28789 0.80588
 O1339 O 0.63078 0.34957 0.76518
 O1340 O 0.62245 0.31145 0.68782
 O1341 O 0.64432 0.26345 0.85879
 O1342 O 0.68545 0.18055 0.85911
 O1343 O 0.72760 0.35616 0.85347
 O1344 O 0.80586 0.37090 0.80976
 O1345 O 0.69246 0.38471 0.79746
 O1346 O 0.76564 0.39981 0.75384
 O1347 O 0.70211 0.29179 0.88823
 O1348 O 0.74805 0.22230 0.89345
 O1349 O 0.60577 0.29430 0.79904
 O1350 O 0.59729 0.24179 0.72946
 O1351 O 0.83293 0.17627 0.77807
 O1352 O 0.85782 0.22211 0.82415
 O1353 O 0.82064 0.28943 0.66308
 O1354 O 0.76140 0.34563 0.65261
 O1355 O 0.69586 0.17765 0.66902
 O1356 O 0.73707 0.12621 0.70218
 Zr1357 Zr 0.71984 0.18691 0.73676
 O1358 O 0.67277 0.22273 0.77926
 Zr1359 Zr 0.75175 0.28151 0.68380
 O1360 O 0.70962 0.32253 0.72555
 Zr1361 Zr 0.81081 0.24487 0.77416
 O1362 O 0.76965 0.28111 0.82049
 Zr1363 Zr 0.65336 0.28422 0.74705
 O1364 O 0.69348 0.24501 0.70288
 Zr1365 Zr 0.70982 0.24436 0.83637
 O1366 O 0.75429 0.20647 0.79610
 Zr1367 Zr 0.74533 0.33884 0.78623
 O1368 O 0.78899 0.30423 0.74122
 O1369 O 0.77803 0.22256 0.71464
 O1370 O 0.68914 0.30205 0.80397
 C1371 C 0.80814 0.14028 0.78138
 C1372 C 0.71197 0.19513 0.63245
 C1373 C 0.85816 0.28082 0.68442
 C1374 C 0.64986 0.38190 0.78801
 C1375 C 0.61026 0.28555 0.84129
 C1376 C 0.70903 0.33474 0.88687
 H1377 H 0.64504 0.20613 0.78892
 H1378 H 0.78678 0.28895 0.84846
 H1379 H 0.79802 0.20423 0.69477
 H1380 H 0.69896 0.35007 0.70928
 H1381 H 0.62236 0.28679 0.66499
 H1382 H 0.68767 0.30328 0.62758
 H1383 H 0.76824 0.19762 0.88252
 H1384 H 0.84003 0.21889 0.85246
 H1385 H 0.56926 0.26073 0.73136
 H1386 H 0.76650 0.13185 0.68656
 H1387 H 0.80971 0.36326 0.84223
 H1388 H 0.86546 0.31360 0.78501
 H1389 H 0.67790 0.12464 0.78086
 H1390 H 0.66763 0.18665 0.88688
 H1391 H 0.77981 0.36398 0.67414
 H1392 H 0.74014 0.40976 0.73385
   
