data_POSCAR
  _audit_creation_date              2014-09-24
  _audit_creation_method            'ToBaCCo'
  _symmetry_space_group_name_H-M    'P1'
  _symmetry_Int_Tables_number       1
  _symmetry_cell_setting            triclinic
  loop_
  _symmetry_equiv_pos_as_xyz
 x,y,z
_cell_length_a 78.9511
_cell_length_b 78.9345
_cell_length_c 79.0017
_cell_angle_alpha 90.028700
_cell_angle_beta 90.033200
_cell_angle_gamma 90.028900
loop_
  _atom_site_label
  _atom_site_type_symbol
  _atom_site_fract_x
  _atom_site_fract_y
  _atom_site_fract_z
C1 C 0.19502 0.21070 0.21913
 N2 N 0.20575 0.19748 0.22165
 C3 C 0.21900 0.19475 0.21103
 N4 N 0.22146 0.20542 0.19776
 C5 C 0.21086 0.21870 0.19505
 N6 N 0.19767 0.22124 0.20580
 C7 C 0.69454 0.71130 0.71892
 N8 N 0.70524 0.69805 0.72140
 C9 C 0.71852 0.69535 0.71081
 N10 N 0.72104 0.70610 0.69761
 C11 C 0.71047 0.71941 0.69494
 N12 N 0.69725 0.72192 0.70566
 C13 C 0.30396 0.78822 0.72046
 N14 N 0.30131 0.77767 0.70712
 C15 C 0.28812 0.78023 0.69636
 N16 N 0.27754 0.79353 0.69907
 C17 C 0.27997 0.80423 0.71235
 N18 N 0.29324 0.80145 0.72297
 C19 C 0.80573 0.28931 0.21924
 N20 N 0.79493 0.30249 0.22175
 C21 C 0.78162 0.30516 0.21116
 N22 N 0.77916 0.29447 0.19790
 C23 C 0.78981 0.28123 0.19518
 N24 N 0.80304 0.27876 0.20589
 C25 C 0.80544 0.71110 0.28104
 N26 N 0.79471 0.69786 0.27858
 C27 C 0.78145 0.69517 0.28919
 N28 N 0.77897 0.70592 0.30240
 C29 C 0.78957 0.71923 0.30506
 N30 N 0.80277 0.72172 0.29432
 C31 C 0.30527 0.21017 -0.21915
 N32 N 0.29453 0.19693 -0.22164
 C33 C 0.28120 0.19417 -0.21109
 N34 N 0.27871 0.20492 -0.19787
 C35 C 0.28929 0.21823 -0.19515
 N36 N 0.30252 0.22075 -0.20585
 C37 C 0.69498 0.28959 -0.21873
 N38 N 0.69772 0.27904 -0.20543
 C39 C 0.71098 0.28159 -0.19476
 N40 N 0.72156 0.29489 -0.19753
 C41 C 0.71904 0.30560 -0.21077
 N42 N 0.70569 0.30281 -0.22130
 C43 C 0.19531 0.78912 0.27995
 N44 N 0.19798 0.77856 0.29327
 C45 C 0.21119 0.78110 0.30400
 N46 N 0.22179 0.79439 0.30130
 C47 C 0.21935 0.80511 0.28805
 N48 N 0.20605 0.80234 0.27745
 C49 C 0.46081 0.44522 0.46974
 N50 N 0.44759 0.45597 0.47220
 C51 C 0.44494 0.46926 0.46160
 N52 N 0.45571 0.47174 0.44841
 C53 C 0.46899 0.46112 0.44576
 N54 N 0.47144 0.44790 0.45649
 C55 C -0.03972 -0.05520 0.96802
 N56 N -0.02914 -0.05249 0.95474
 C57 C -0.03161 -0.03921 0.94409
 N58 N -0.04486 -0.02859 0.94685
 C59 C -0.05561 -0.03108 0.96007
 N60 N -0.05290 -0.04445 0.97058
 C61 C 1.03884 0.55495 0.96885
 N62 N 1.05207 0.54420 0.97133
 C63 C 1.05477 0.53091 0.96073
 N64 N 1.04406 0.52841 0.94749
 C65 C 1.03078 0.53900 0.94480
 N66 N 1.02827 0.55222 0.95552
 C67 C 0.53935 0.05472 0.46922
 N68 N 0.55263 0.04405 0.47170
 C69 C 0.55540 0.03075 0.46112
 N70 N 0.54463 0.02823 0.44791
 C71 C 0.53129 0.03876 0.44523
 N72 N 0.52875 0.05198 0.45595
 C73 C -0.03928 0.05527 0.53100
 N74 N -0.05253 0.04456 0.52851
 C75 C -0.05523 0.03120 0.53905
 N76 N -0.04442 0.02869 0.55221
 C77 C -0.03110 0.03927 0.55490
 N78 N -0.02863 0.05253 0.54423
 C79 C 0.46086 0.55476 0.03158
 N80 N 0.44763 0.54404 0.02901
 C81 C 0.44489 0.53073 0.03956
 N82 N 0.45557 0.52820 0.05281
 C83 C 0.46886 0.53879 0.05558
 N84 N 0.47141 0.55204 0.04490
 C85 C 0.53966 -0.05528 0.03111
 N86 N 0.52911 -0.05254 0.04444
 C87 C 0.53162 -0.03929 0.05514
 N88 N 0.54489 -0.02868 0.05241
 C89 C 0.55559 -0.03119 0.03919
 N90 N 0.55288 -0.04451 0.02862
 C91 C 1.03853 0.44561 0.53021
 N92 N 1.02795 0.44832 0.54352
 C93 C 1.03043 0.46156 0.55424
 N94 N 1.04369 0.47220 0.55155
 C95 C 1.05440 0.46972 0.53833
 N96 N 1.05172 0.45641 0.52774
 C97 C 0.40119 0.00755 0.22722
 H98 H 0.40188 0.01904 0.23466
 C99 C 0.41229 0.00514 0.21368
 H100 H 0.42158 0.01482 0.21083
 C101 C 0.38858 -0.01926 0.22233
 H102 H 0.37948 -0.02884 0.22586
 C103 C 0.39945 -0.02220 0.20870
 H104 H 0.39833 -0.03392 0.20166
 N105 N 0.38951 -0.00448 0.23116
 C106 C 0.34938 0.02251 0.25782
 H107 H 0.34867 0.01506 0.26929
 C108 C 0.33834 0.03610 0.25541
 H109 H 0.32905 0.03897 0.26508
 C110 C 0.36203 0.02736 0.23106
 H111 H 0.37111 0.02380 0.22150
 C112 C 0.35120 0.04104 0.22812
 H113 H 0.35235 0.04808 0.21642
 Zn114 Zn 0.37524 -0.00035 0.24996
 N115 N 0.36105 0.01853 0.24581
 C116 C 0.38850 0.01852 0.27769
 N117 N 0.38943 0.00376 0.26886
 C118 C 0.40106 -0.00830 0.27285
 C119 C 0.41211 -0.00592 0.28645
 C120 C 0.39930 0.02143 0.29139
 C121 C 0.34932 -0.02312 0.24195
 C122 C 0.33822 -0.03668 0.24429
 C123 C 0.35101 -0.04173 0.27161
 C124 C 0.36187 -0.02806 0.26875
 N125 N 0.36097 -0.01919 0.25402
 H126 H 0.37951 0.02816 0.27405
 H127 H 0.40168 -0.01983 0.26546
 H128 H 0.42107 -0.01580 0.28960
 H129 H 0.39847 0.03333 0.29816
 H130 H 0.34873 -0.01570 0.23045
 H131 H 0.32924 -0.03978 0.23439
 H132 H 0.35181 -0.04853 0.28348
 H133 H 0.37088 -0.02447 0.27840
 C134 C 0.33918 0.04559 0.24041
 C135 C 0.41148 -0.00989 0.20419
 C136 C 0.33900 -0.04623 0.25927
 C137 C 0.41129 0.00911 0.29595
 C138 C 0.09949 -0.00805 0.72678
 H139 H 0.09874 -0.01954 0.73420
 C140 C 0.08847 -0.00560 0.71317
 H141 H 0.07917 -0.01526 0.71026
 C142 C 0.11220 0.01873 0.72201
 H143 H 0.12130 0.02828 0.72562
 C144 C 0.10141 0.02171 0.70832
 H145 H 0.10259 0.03344 0.70131
 N146 N 0.11118 0.00395 0.73081
 C147 C 0.15107 -0.02314 0.75776
 H148 H 0.15174 -0.01566 0.76923
 C149 C 0.16205 -0.03679 0.75546
 H150 H 0.17126 -0.03969 0.76520
 C151 C 0.13857 -0.02800 0.73092
 H152 H 0.12955 -0.02443 0.72129
 C153 C 0.14933 -0.04175 0.72808
 H154 H 0.14822 -0.04882 0.71639
 Zn155 Zn 0.12531 -0.00023 0.74972
 N156 N 0.13948 -0.01914 0.74566
 C157 C 0.11180 -0.01912 0.77727
 N158 N 0.11098 -0.00432 0.76849
 C159 C 0.09936 0.00776 0.77242
 C160 C 0.08821 0.00537 0.78593
 C161 C 0.10089 -0.02204 0.79086
 C162 C 0.15132 0.02252 0.74196
 C163 C 0.16241 0.03607 0.74440
 C164 C 0.14949 0.04107 0.77166
 C165 C 0.13862 0.02742 0.76868
 N166 N 0.13959 0.01858 0.75393
 H167 H 0.12085 -0.02873 0.77374
 H168 H 0.09875 0.01926 0.76501
 H169 H 0.07897 0.01509 0.78878
 H170 H 0.10192 -0.03378 0.79786
 H171 H 0.15203 0.01506 0.73048
 H172 H 0.17174 0.03892 0.73477
 H173 H 0.14834 0.04812 0.78337
 H174 H 0.12949 0.02389 0.77822
 C175 C 0.16125 -0.04634 0.74047
 C176 C 0.08936 0.00943 0.70372
 C177 C 0.16156 0.04558 0.75941
 C178 C 0.08891 -0.00968 0.79538
 C179 C 0.59912 0.49200 0.22792
 H180 H 0.59846 0.48050 0.23534
 C181 C 0.58802 0.49440 0.21437
 H182 H 0.57876 0.48470 0.21149
 C183 C 0.61168 0.51883 0.22309
 H184 H 0.62076 0.52843 0.22665
 C185 C 0.60081 0.52177 0.20946
 H186 H 0.60191 0.53350 0.20244
 N187 N 0.61078 0.50405 0.23189
 C188 C 0.65099 0.47707 0.25847
 H189 H 0.65171 0.48448 0.26997
 C190 C 0.66206 0.46350 0.25600
 H191 H 0.67136 0.46061 0.26566
 C192 C 0.63833 0.47227 0.23169
 H193 H 0.62922 0.47585 0.22214
 C194 C 0.64917 0.45862 0.22869
 H195 H 0.64802 0.45161 0.21696
 Zn196 Zn 0.62508 0.49990 0.25069
 N197 N 0.63930 0.48106 0.24647
 C198 C 0.61187 0.48093 0.27834
 N199 N 0.61091 0.49572 0.26956
 C200 C 0.59927 0.50775 0.27359
 C201 C 0.58825 0.50533 0.28719
 C202 C 0.60109 0.47797 0.29203
 C203 C 0.65093 0.52276 0.24276
 C204 C 0.66199 0.53635 0.24514
 C205 C 0.64928 0.54124 0.27252
 C206 C 0.63843 0.52756 0.26960
 N207 N 0.63931 0.51876 0.25482
 H208 H 0.62094 0.47136 0.27473
 H209 H 0.59856 0.51925 0.26618
 H210 H 0.57900 0.51501 0.29012
 H211 H 0.60223 0.46624 0.29903
 H212 H 0.65158 0.51534 0.23126
 H213 H 0.67123 0.53925 0.23544
 H214 H 0.64820 0.54825 0.28425
 H215 H 0.62939 0.52398 0.27920
 C216 C 0.66121 0.45405 0.24096
 C217 C 0.58881 0.50944 0.20490
 C218 C 0.66123 0.54582 0.26018
 C219 C 0.58910 0.49028 0.29664
 C220 C 0.90043 0.50798 0.72671
 H221 H 0.90113 0.51948 0.73413
 C222 C 0.91145 0.50558 0.71311
 H223 H 0.92070 0.51528 0.71020
 C224 C 0.88783 0.48115 0.72192
 H225 H 0.87877 0.47156 0.72551
 C226 C 0.89863 0.47821 0.70823
 H227 H 0.89749 0.46648 0.70121
 N228 N 0.88879 0.49594 0.73072
 C229 C 0.84874 0.52294 0.75750
 H230 H 0.84814 0.51558 0.76903
 C231 C 0.83766 0.53651 0.75509
 H232 H 0.82871 0.53967 0.76497
 C233 C 0.86127 0.52773 0.73067
 H234 H 0.87025 0.52409 0.72104
 C235 C 0.85044 0.54141 0.72775
 H236 H 0.85124 0.54815 0.71584
 Zn237 Zn 0.87461 0.50010 0.74959
 N238 N 0.86036 0.51894 0.74545
 C239 C 0.88795 0.51907 0.77721
 N240 N 0.88889 0.50429 0.76839
 C241 C 0.90057 0.49228 0.77234
 C242 C 0.91167 0.49471 0.78590
 C243 C 0.89880 0.52202 0.79087
 C244 C 0.84870 0.47722 0.74180
 C245 C 0.83765 0.46363 0.74426
 C246 C 0.85055 0.45879 0.77157
 C247 C 0.86138 0.47246 0.76857
 N248 N 0.86040 0.48124 0.75379
 H249 H 0.87892 0.52868 0.77360
 H250 H 0.90120 0.48074 0.76497
 H251 H 0.92067 0.48485 0.78902
 H252 H 0.89797 0.53392 0.79763
 H253 H 0.84798 0.48463 0.73031
 H254 H 0.82835 0.46072 0.73461
 H255 H 0.85171 0.45179 0.78329
 H256 H 0.87048 0.47607 0.77812
 C257 C 0.83845 0.54598 0.74007
 C258 C 0.91061 0.49054 0.70364
 C259 C 0.83851 0.45419 0.75930
 C260 C 0.91084 0.50973 0.79540
 C261 C 0.22690 0.40043 0.00759
 H262 H 0.23431 0.40111 0.01910
 C263 C 0.21334 0.41150 0.00516
 H264 H 0.21044 0.42076 0.01484
 C265 C 0.22213 0.38785 -0.01923
 H266 H 0.22572 0.37878 -0.02881
 C267 C 0.20848 0.39870 -0.02220
 H268 H 0.20149 0.39759 -0.03394
 N269 N 0.23091 0.38878 -0.00444
 C270 C 0.25755 0.34865 0.02259
 H271 H 0.26906 0.34796 0.01520
 C272 C 0.25511 0.33759 0.03616
 H273 H 0.26479 0.32833 0.03908
 C274 C 0.23073 0.36124 0.02734
 H275 H 0.22115 0.37031 0.02374
 C276 C 0.22775 0.35041 0.04099
 H277 H 0.21601 0.35153 0.04798
 Zn278 Zn 0.24974 0.37454 -0.00024
 N279 N 0.24552 0.36030 0.01858
 C280 C 0.27734 0.38784 0.01879
 N281 N 0.26859 0.38877 0.00399
 C282 C 0.27262 0.40042 -0.00802
 C283 C 0.28620 0.41148 -0.00556
 C284 C 0.29101 0.39868 0.02179
 C285 C 0.24191 0.34864 -0.02310
 C286 C 0.24437 0.33756 -0.03665
 C287 C 0.27172 0.35041 -0.04148
 C288 C 0.26874 0.36124 -0.02783
 N289 N 0.25394 0.36031 -0.01907
 H290 H 0.27373 0.37877 0.02835
 H291 H 0.26523 0.40111 -0.01954
 H292 H 0.28913 0.42075 -0.01523
 H293 H 0.29799 0.39756 0.03353
 H294 H 0.23036 0.34801 -0.01577
 H295 H 0.23450 0.32857 -0.03984
 H296 H 0.28364 0.35124 -0.04819
 H297 H 0.27836 0.37026 -0.02416
 C298 C 0.24006 0.33841 0.04560
 C299 C 0.20389 0.41070 -0.00989
 C300 C 0.25942 0.33839 -0.04608
 C301 C 0.29563 0.41067 0.00950
 C302 C 0.72772 0.09933 -0.00793
 H303 H 0.73509 0.09866 -0.01945
 C304 C 0.71413 0.08827 -0.00550
 H305 H 0.71119 0.07903 -0.01519
 C306 C 0.72304 0.11186 0.01892
 H307 H 0.72668 0.12091 0.02851
 C308 C 0.70937 0.10103 0.02189
 H309 H 0.70241 0.10213 0.03364
 N310 N 0.73178 0.11095 0.00412
 C311 C 0.75846 0.15110 -0.02285
 H312 H 0.77002 0.15171 -0.01552
 C313 C 0.75601 0.16222 -0.03637
 H314 H 0.76588 0.17120 -0.03952
 C315 C 0.73162 0.13854 -0.02762
 H316 H 0.72200 0.12952 -0.02399
 C317 C 0.72864 0.14940 -0.04125
 H318 H 0.71671 0.14860 -0.04796
 Zn319 Zn 0.75063 0.12517 -0.00007
 N320 N 0.74643 0.13944 -0.01886
 C321 C 0.77818 0.11186 -0.01913
 N322 N 0.76945 0.11093 -0.00432
 C323 C 0.77348 0.09926 0.00768
 C324 C 0.78702 0.08817 0.00519
 C325 C 0.79180 0.10100 -0.02216
 C326 C 0.74288 0.15105 0.02280
 C327 C 0.74535 0.16212 0.03636
 C328 C 0.77267 0.14923 0.04123
 C329 C 0.76967 0.13841 0.02756
 N330 N 0.75488 0.13938 0.01878
 H331 H 0.77456 0.12095 -0.02868
 H332 H 0.76611 0.09857 0.01920
 H333 H 0.78994 0.07889 0.01484
 H334 H 0.79876 0.10212 -0.03391
 H335 H 0.73133 0.15170 0.01545
 H336 H 0.73551 0.17112 0.03953
 H337 H 0.78459 0.14838 0.04796
 H338 H 0.77927 0.12938 0.02390
 C339 C 0.74094 0.16143 -0.04580
 C340 C 0.70473 0.08906 0.00957
 C341 C 0.76040 0.16127 0.04581
 C342 C 0.79641 0.08898 -0.00989
 C343 C 0.22700 0.59982 0.49182
 H344 H 0.23445 0.59909 0.48036
 C345 C 0.21339 0.58878 0.49421
 H346 H 0.21050 0.57950 0.48454
 C347 C 0.22215 0.61247 0.51859
 H348 H 0.22572 0.62157 0.52816
 C349 C 0.20845 0.60167 0.52151
 H350 H 0.20141 0.60283 0.53321
 N351 N 0.23099 0.61149 0.50384
 C352 C 0.25777 0.65160 0.47690
 H353 H 0.26928 0.65227 0.48430
 C354 C 0.25537 0.66263 0.46330
 H355 H 0.26524 0.67163 0.46016
 C356 C 0.23099 0.63893 0.47201
 H357 H 0.22138 0.62991 0.47562
 C358 C 0.22808 0.64971 0.45830
 H359 H 0.21620 0.64883 0.45151
 Zn360 Zn 0.24987 0.62570 0.49972
 N361 N 0.24574 0.63992 0.48086
 C362 C 0.27757 0.61240 0.48088
 N363 N 0.26869 0.61144 0.49560
 C364 C 0.27260 0.59975 0.50761
 C365 C 0.28617 0.58867 0.50524
 C366 C 0.29123 0.60155 0.47797
 C367 C 0.24204 0.65162 0.52254
 C368 C 0.24442 0.66262 0.53618
 C369 C 0.27168 0.64965 0.54119
 C370 C 0.26876 0.63889 0.52746
 N371 N 0.25403 0.63992 0.51858
 H372 H 0.27406 0.62151 0.47131
 H373 H 0.26512 0.59904 0.51906
 H374 H 0.28900 0.57937 0.51491
 H375 H 0.29831 0.60269 0.46630
 H376 H 0.23058 0.65239 0.51506
 H377 H 0.23476 0.67191 0.53906
 H378 H 0.28336 0.64844 0.54828
 H379 H 0.27831 0.62978 0.52391
 C380 C 0.24038 0.66174 0.45376
 C381 C 0.20388 0.58965 0.50921
 C382 C 0.25940 0.66168 0.54575
 C383 C 0.29572 0.58951 0.49027
 C384 C 0.72733 0.90140 0.50780
 H385 H 0.73473 0.90210 0.51931
 C386 C 0.71375 0.91245 0.50535
 H387 H 0.71083 0.92172 0.51503
 C388 C 0.72259 0.88880 0.48098
 H389 H 0.72620 0.87972 0.47142
 C390 C 0.70892 0.89962 0.47800
 H391 H 0.70193 0.89849 0.46626
 N392 N 0.73136 0.88975 0.49578
 C393 C 0.75796 0.84965 0.52291
 H394 H 0.76949 0.84896 0.51556
 C395 C 0.75548 0.83861 0.53648
 H396 H 0.76515 0.82935 0.53944
 C397 C 0.73112 0.86224 0.52756
 H398 H 0.72155 0.87130 0.52392
 C399 C 0.72810 0.85142 0.54121
 H400 H 0.71634 0.85255 0.54816
 Zn401 Zn 0.75019 0.87552 0.50002
 N402 N 0.74594 0.86130 0.51885
 C403 C 0.77779 0.88884 0.51906
 N404 N 0.76902 0.88976 0.50426
 C405 C 0.77305 0.90142 0.49225
 C406 C 0.78663 0.91248 0.49470
 C407 C 0.79145 0.89968 0.52205
 C408 C 0.74241 0.84962 0.47713
 C409 C 0.74488 0.83857 0.46356
 C410 C 0.77226 0.85139 0.45883
 C411 C 0.76925 0.86222 0.47249
 N412 N 0.75443 0.86128 0.48120
 H413 H 0.77419 0.87976 0.52862
 H414 H 0.76565 0.90210 0.48073
 H415 H 0.78955 0.92175 0.48503
 H416 H 0.79844 0.89856 0.53379
 H417 H 0.73087 0.84893 0.48449
 H418 H 0.73520 0.82930 0.46060
 H419 H 0.78403 0.85251 0.45189
 H420 H 0.77882 0.87129 0.47613
 C421 C 0.74039 0.83943 0.54586
 C422 C 0.70431 0.91162 0.49030
 C423 C 0.75996 0.83939 0.45418
 C424 C 0.79606 0.91168 0.50975
 C425 C 0.00776 0.22769 0.40105
 H426 H 0.01928 0.23509 0.40176
 C427 C 0.00529 0.21412 0.41210
 H428 H 0.01495 0.21122 0.42139
 C429 C -0.01903 0.22293 0.38839
 H430 H -0.02858 0.22652 0.37929
 C431 C -0.02205 0.20928 0.39922
 H432 H -0.03379 0.20228 0.39806
 N433 N -0.00423 0.23170 0.38936
 C434 C 0.02298 0.25825 0.34931
 H435 H 0.01560 0.26978 0.34859
 C436 C 0.03657 0.25576 0.33830
 H437 H 0.03952 0.26542 0.32903
 C438 C 0.02765 0.23144 0.36195
 H439 H 0.02401 0.22189 0.37103
 C440 C 0.04132 0.22842 0.35116
 H441 H 0.04829 0.21666 0.35232
 Zn442 Zn 0.00004 0.25051 0.37512
 N443 N 0.01891 0.24625 0.36097
 C444 C 0.01902 0.27817 0.38839
 N445 N 0.00422 0.26939 0.38932
 C446 C -0.00782 0.27343 0.40092
 C447 C -0.00541 0.28704 0.41195
 C448 C 0.02196 0.29189 0.39917
 C449 C -0.02277 0.24264 0.34920
 C450 C -0.03632 0.24506 0.33811
 C451 C -0.04114 0.27247 0.35084
 C452 C -0.02751 0.26951 0.36171
 N453 N -0.01876 0.25470 0.36083
 H454 H 0.02865 0.27450 0.37942
 H455 H -0.01937 0.26607 0.40154
 H456 H -0.01529 0.29024 0.42089
 H457 H 0.03388 0.29863 0.39835
 H458 H -0.01539 0.23111 0.34856
 H459 H -0.03923 0.23536 0.32886
 H460 H -0.04812 0.28423 0.35191
 H461 H -0.02391 0.27911 0.37076
 C462 C 0.04597 0.24069 0.33916
 C463 C -0.00977 0.20468 0.41124
 C464 C -0.04574 0.26014 0.33886
 C465 C 0.00964 0.29651 0.41113
 C466 C -0.00800 0.72679 0.09832
 H467 H -0.01952 0.73417 0.09763
 C468 C -0.00557 0.71317 0.08730
 H469 H -0.01528 0.71021 0.07808
 C470 C 0.01888 0.72214 0.11084
 H471 H 0.02848 0.72579 0.11987
 C472 C 0.02184 0.70844 0.10005
 H473 H 0.03360 0.70147 0.10117
 N474 N 0.00406 0.73088 0.10992
 C475 C -0.02286 0.75768 0.15000
 H476 H -0.01545 0.76920 0.15063
 C477 C -0.03639 0.75529 0.16111
 H478 H -0.03926 0.76500 0.17035
 C479 C -0.02769 0.73081 0.13751
 H480 H -0.02413 0.72120 0.12846
 C481 C -0.04131 0.72787 0.14840
 H482 H -0.04831 0.71613 0.14734
 Zn483 Zn -0.00010 0.74977 0.12409
 N484 N -0.01890 0.74561 0.13838
 C485 C -0.01916 0.77732 0.11077
 N486 N -0.00435 0.76857 0.10984
 C487 C 0.00765 0.77258 0.09816
 C488 C 0.00517 0.78613 0.08708
 C489 C -0.02218 0.79095 0.09992
 C490 C 0.02279 0.74203 0.14995
 C491 C 0.03638 0.74450 0.16099
 C492 C 0.04129 0.77178 0.14805
 C493 C 0.02759 0.76880 0.13726
 N494 N 0.01878 0.75402 0.13826
 H495 H -0.02871 0.77373 0.11986
 H496 H 0.01917 0.76520 0.09747
 H497 H 0.01482 0.78904 0.07780
 H498 H -0.03393 0.79792 0.10105
 H499 H 0.01541 0.73049 0.15063
 H500 H 0.03954 0.73466 0.17000
 H501 H 0.04805 0.78369 0.14717
 H502 H 0.02394 0.77838 0.12822
 C503 C -0.04585 0.74022 0.16037
 C504 C 0.00950 0.70376 0.08811
 C505 C 0.04587 0.75953 0.16010
 C506 C -0.00990 0.79554 0.08790
 C507 C 0.49189 0.22689 0.59951
 H508 H 0.48032 0.23420 0.59888
 C509 C 0.49437 0.21333 0.58843
 H510 H 0.48451 0.21014 0.57944
 C511 C 0.51872 0.22219 0.61211
 H512 H 0.52832 0.22587 0.62112
 C513 C 0.52172 0.20853 0.60128
 H514 H 0.53366 0.20184 0.60211
 N515 N 0.50390 0.23093 0.61117
 C516 C 0.47679 0.25748 0.65130
 H517 H 0.48416 0.26901 0.65200
 C518 C 0.46322 0.25499 0.66234
 H519 H 0.46028 0.26466 0.67161
 C520 C 0.47209 0.23065 0.63867
 H521 H 0.47570 0.22109 0.62959
 C522 C 0.45843 0.22762 0.64949
 H523 H 0.45147 0.21586 0.64835
 Zn524 Zn 0.49965 0.24974 0.62542
 N525 N 0.48083 0.24547 0.63963
 C526 C 0.48060 0.27735 0.61219
 N527 N 0.49540 0.26860 0.61123
 C528 C 0.50742 0.27266 0.59960
 C529 C 0.50497 0.28627 0.58860
 C530 C 0.47761 0.29104 0.60141
 C531 C 0.52255 0.24196 0.65128
 C532 C 0.53613 0.24444 0.66233
 C533 C 0.54087 0.27184 0.64958
 C534 C 0.52721 0.26883 0.63875
 N535 N 0.51849 0.25399 0.63965
 H536 H 0.47103 0.27371 0.62125
 H537 H 0.51894 0.26528 0.59890
 H538 H 0.51465 0.28922 0.57935
 H539 H 0.46587 0.29802 0.60255
 H540 H 0.51519 0.23042 0.65194
 H541 H 0.53908 0.23475 0.67157
 H542 H 0.54783 0.28361 0.64848
 H543 H 0.52358 0.27840 0.62970
 C544 C 0.45381 0.23990 0.66150
 C545 C 0.50943 0.20392 0.58926
 C546 C 0.54552 0.25953 0.66154
 C547 C 0.48991 0.29570 0.58944
 C548 C 0.50801 0.72721 0.90157
 H549 H 0.51956 0.73457 0.90215
 C550 C 0.50563 0.71363 0.91263
 H551 H 0.51555 0.71046 0.92156
 C552 C 0.48112 0.72242 0.88912
 H553 H 0.47145 0.72608 0.88017
 C554 C 0.47822 0.70874 0.89993
 H555 H 0.46630 0.70200 0.89916
 N556 N 0.49591 0.73122 0.88998
 C557 C 0.52268 0.75796 0.84976
 H558 H 0.51524 0.76944 0.84911
 C559 C 0.53620 0.75556 0.83863
 H560 H 0.53902 0.76525 0.82936
 C561 C 0.52759 0.73115 0.86231
 H562 H 0.52408 0.72156 0.87140
 C563 C 0.54120 0.72821 0.85141
 H564 H 0.54823 0.71650 0.85249
 Zn565 Zn 0.50000 0.75007 0.87574
 N566 N 0.51877 0.74592 0.86142
 C567 C 0.51901 0.77774 0.88892
 N568 N 0.50424 0.76893 0.88994
 C569 C 0.49228 0.77292 0.90166
 C570 C 0.49478 0.78650 0.91272
 C571 C 0.52203 0.79143 0.89973
 C572 C 0.47703 0.74213 0.85000
 C573 C 0.46335 0.74448 0.83904
 C574 C 0.45846 0.77183 0.85187
 C575 C 0.47222 0.76894 0.86261
 N576 N 0.48106 0.75419 0.86162
 H577 H 0.52857 0.77411 0.87986
 H578 H 0.48075 0.76554 0.90236
 H579 H 0.48496 0.78965 0.92175
 H580 H 0.53393 0.79818 0.89883
 H581 H 0.48448 0.73065 0.84927
 H582 H 0.46042 0.73477 0.82981
 H583 H 0.45140 0.78353 0.85304
 H584 H 0.47583 0.77854 0.87166
 C585 C 0.54569 0.74054 0.83939
 C586 C 0.49058 0.70416 0.91187
 C587 C 0.45383 0.75948 0.83992
 C588 C 0.50980 0.79599 0.91181
 C589 C 0.15584 0.22998 0.23923
 C590 C 0.15318 0.21908 0.25293
 C591 C 0.16417 0.20544 0.25560
 C592 C 0.17778 0.20270 0.24462
 C593 C 0.18059 0.21359 0.23079
 C594 C 0.16944 0.22727 0.22823
 C595 C 0.13917 0.22188 0.26424
 C596 C 0.12743 0.22423 0.27370
 C597 C 0.11369 0.22700 0.28478
 C598 C 0.10195 0.22936 0.29423
 C599 C 0.08792 0.23219 0.30551
 C600 C 0.07681 0.21893 0.30937
 C601 C 0.06317 0.22167 0.32032
 C602 C 0.06047 0.23775 0.32755
 C603 C 0.07172 0.25099 0.32358
 C604 C 0.08535 0.24822 0.31264
 H605 H 0.14740 0.24058 0.23704
 H606 H 0.16223 0.19692 0.26618
 H607 H 0.18609 0.19205 0.24699
 H608 H 0.17119 0.23591 0.21773
 H609 H 0.07865 0.20649 0.30389
 H610 H 0.05461 0.21128 0.32294
 H611 H 0.07011 0.26344 0.32911
 H612 H 0.09391 0.25856 0.30977
 C613 C 0.65534 0.73052 0.73905
 C614 C 0.65263 0.71954 0.75267
 C615 C 0.66359 0.70587 0.75528
 C616 C 0.67722 0.70317 0.74432
 C617 C 0.68008 0.71414 0.73056
 C618 C 0.66896 0.72786 0.72806
 C619 C 0.63861 0.72230 0.76399
 C620 C 0.62688 0.72461 0.77347
 C621 C 0.61315 0.72731 0.78458
 C622 C 0.60143 0.72961 0.79408
 C623 C 0.58745 0.73235 0.80543
 C624 C 0.57643 0.71902 0.80934
 C625 C 0.56285 0.72166 0.82038
 C626 C 0.56011 0.73770 0.82767
 C627 C 0.57126 0.75102 0.82365
 C628 C 0.58484 0.74835 0.81261
 H629 H 0.64692 0.74115 0.73691
 H630 H 0.66161 0.69729 0.76580
 H631 H 0.68550 0.69249 0.74664
 H632 H 0.67075 0.73656 0.71762
 H633 H 0.57831 0.70660 0.80381
 H634 H 0.55437 0.71122 0.82304
 H635 H 0.56962 0.76345 0.82921
 H636 H 0.59332 0.75874 0.80971
 C637 C 0.34322 0.76904 0.74053
 C638 C 0.34591 0.77998 0.75421
 C639 C 0.33488 0.79359 0.75690
 C640 C 0.32123 0.79627 0.74595
 C641 C 0.31841 0.78535 0.73213
 C642 C 0.32958 0.77169 0.72956
 C643 C 0.35999 0.77727 0.76546
 C644 C 0.37179 0.77501 0.77488
 C645 C 0.38562 0.77238 0.78589
 C646 C 0.39744 0.77014 0.79529
 C647 C 0.41157 0.76748 0.80650
 C648 C 0.42259 0.78085 0.81027
 C649 C 0.43632 0.77827 0.82114
 C650 C 0.43923 0.76225 0.82839
 C651 C 0.42807 0.74889 0.82452
 C652 C 0.41433 0.75150 0.81365
 H653 H 0.35169 0.75846 0.73833
 H654 H 0.33685 0.80214 0.76745
 H655 H 0.31290 0.80691 0.74832
 H656 H 0.32781 0.76303 0.71907
 H657 H 0.42059 0.79326 0.80476
 H658 H 0.44481 0.78875 0.82369
 H659 H 0.42983 0.73647 0.83006
 H660 H 0.40585 0.74107 0.81085
 C661 C -0.15561 0.27036 0.23874
 C662 C -0.15296 0.28127 0.25244
 C663 C -0.16400 0.29485 0.25512
 C664 C -0.17765 0.29754 0.24418
 C665 C -0.18051 0.28664 0.23029
 C666 C -0.16925 0.27299 0.22776
 C667 C -0.13892 0.27852 0.26373
 C668 C -0.12717 0.27621 0.27319
 C669 C -0.11340 0.27349 0.28427
 C670 C -0.10165 0.27117 0.29373
 C671 C -0.08763 0.26841 0.30505
 C672 C -0.07653 0.28170 0.30888
 C673 C -0.06291 0.27903 0.31988
 C674 C -0.06021 0.26300 0.32718
 C675 C -0.07144 0.24972 0.32324
 C676 C -0.08506 0.25242 0.31225
 H677 H -0.14714 0.25979 0.23655
 H678 H -0.16206 0.30339 0.26570
 H679 H -0.18593 0.30819 0.24666
 H680 H -0.17090 0.26427 0.21729
 H681 H -0.07838 0.29411 0.30334
 H682 H -0.05437 0.28945 0.32248
 H683 H -0.06983 0.23730 0.32882
 H684 H -0.09360 0.24206 0.30940
 C685 C -0.15538 0.73029 0.26083
 C686 C -0.15273 0.71930 0.24718
 C687 C -0.16372 0.70563 0.24459
 C688 C -0.17732 0.70295 0.25559
 C689 C -0.18012 0.71393 0.26937
 C690 C -0.16897 0.72764 0.27185
 C691 C -0.13873 0.72204 0.23584
 C692 C -0.12702 0.72433 0.22633
 C693 C -0.11331 0.72700 0.21519
 C694 C -0.10160 0.72929 0.20568
 C695 C -0.08762 0.73202 0.19431
 C696 C -0.07658 0.71872 0.19045
 C697 C -0.06300 0.72136 0.17941
 C698 C -0.06028 0.73738 0.17208
 C699 C -0.07147 0.75068 0.17605
 C700 C -0.08505 0.74800 0.18709
 H701 H -0.14694 0.74091 0.26295
 H702 H -0.16178 0.69705 0.23407
 H703 H -0.18563 0.69228 0.25329
 H704 H -0.17073 0.73634 0.28230
 H705 H -0.07843 0.70631 0.19601
 H706 H -0.05448 0.71093 0.17679
 H707 H -0.06985 0.76309 0.17046
 H708 H -0.09355 0.75838 0.18995
 C709 C 0.34384 0.22929 0.76135
 C710 C 0.34656 0.21834 0.74770
 C711 C 0.33559 0.20468 0.74504
 C712 C 0.32195 0.20195 0.75597
 C713 C 0.31902 0.21289 0.76981
 C714 C 0.33022 0.22662 0.77232
 C715 C 0.36059 0.22113 0.73642
 C716 C 0.37235 0.22348 0.72697
 C717 C 0.38610 0.22623 0.71591
 C718 C 0.39786 0.22860 0.70647
 C719 C 0.41189 0.23143 0.69519
 C720 C 0.42299 0.21817 0.69133
 C721 C 0.43662 0.22091 0.68037
 C722 C 0.43933 0.23697 0.67313
 C723 C 0.42809 0.25022 0.67711
 C724 C 0.41446 0.24745 0.68806
 H725 H 0.35227 0.23992 0.76352
 H726 H 0.33759 0.19613 0.73450
 H727 H 0.31372 0.19124 0.75352
 H728 H 0.32851 0.23536 0.78275
 H729 H 0.42115 0.20573 0.69681
 H730 H 0.44518 0.21051 0.67774
 H731 H 0.42970 0.26266 0.67158
 H732 H 0.40591 0.25779 0.69093
 C733 C 0.65567 0.27028 0.76136
 C734 C 0.65294 0.28117 0.74766
 C735 C 0.66392 0.29481 0.74493
 C736 C 0.67759 0.29757 0.75585
 C737 C 0.68047 0.28669 0.76968
 C738 C 0.66933 0.27300 0.77230
 C739 C 0.63888 0.27833 0.73640
 C740 C 0.62711 0.27595 0.72697
 C741 C 0.61333 0.27317 0.71593
 C742 C 0.60156 0.27079 0.70650
 C743 C 0.58750 0.26797 0.69523
 C744 C 0.57637 0.28122 0.69142
 C745 C 0.56272 0.27850 0.68047
 C746 C 0.56002 0.26245 0.67318
 C747 C 0.57128 0.24920 0.67711
 C748 C 0.58493 0.25196 0.68805
 H749 H 0.64724 0.25967 0.76358
 H750 H 0.66192 0.30332 0.73436
 H751 H 0.68589 0.30823 0.75344
 H752 H 0.67114 0.26437 0.78279
 H753 H 0.57822 0.29366 0.69694
 H754 H 0.55416 0.28889 0.67788
 H755 H 0.56967 0.23677 0.67154
 H756 H 0.59349 0.24162 0.69088
 C757 C 0.16440 0.79444 0.24351
 C758 C 0.15337 0.78082 0.24619
 C759 C 0.15604 0.76991 0.25988
 C760 C 0.16967 0.77258 0.27087
 C761 C 0.18085 0.78625 0.26830
 C762 C 0.17805 0.79715 0.25448
 C763 C 0.13933 0.77806 0.23490
 C764 C 0.12755 0.77575 0.22546
 C765 C 0.11377 0.77303 0.21440
 C766 C 0.10198 0.77071 0.20497
 C767 C 0.08791 0.76793 0.19372
 C768 C 0.07309 0.76029 0.19974
 C769 C 0.05941 0.75756 0.18882
 C770 C 0.06038 0.76244 0.17172
 C771 C 0.07534 0.77013 0.16580
 C772 C 0.08900 0.77284 0.17674
 H773 H 0.16245 0.80297 0.23295
 H774 H 0.14758 0.75932 0.26207
 H775 H 0.17143 0.76394 0.28136
 H776 H 0.18638 0.80779 0.25210
 H777 H 0.07209 0.75649 0.21287
 H778 H 0.04800 0.75183 0.19381
 H779 H 0.07656 0.77383 0.15266
 H780 H 0.10043 0.77872 0.17194
 C781 C 0.23916 0.15557 0.23029
 C782 C 0.25278 0.15284 0.21931
 C783 C 0.25538 0.16378 0.20562
 C784 C 0.24441 0.17741 0.20292
 C785 C 0.23066 0.18029 0.21388
 C786 C 0.22816 0.16919 0.22761
 C787 C 0.26409 0.13881 0.22207
 C788 C 0.27356 0.12706 0.22437
 C789 C 0.28466 0.11331 0.22708
 C790 C 0.29413 0.10157 0.22939
 C791 C 0.30543 0.08753 0.23215
 C792 C 0.30932 0.07650 0.21884
 C793 C 0.32029 0.06287 0.22151
 C794 C 0.32753 0.06008 0.23755
 C795 C 0.32353 0.07125 0.25085
 C796 C 0.31256 0.08488 0.24815
 H797 H 0.23703 0.14718 0.24092
 H798 H 0.26589 0.16178 0.19704
 H799 H 0.24672 0.18567 0.19223
 H800 H 0.21772 0.17101 0.23631
 H801 H 0.30383 0.07841 0.20642
 H802 H 0.32294 0.05437 0.21107
 H803 H 0.32906 0.06958 0.26328
 H804 H 0.30967 0.09338 0.25854
 C805 C 0.73854 0.65604 0.72992
 C806 C 0.75221 0.65335 0.71898
 C807 C 0.75488 0.66436 0.70537
 C808 C 0.74393 0.67802 0.70269
 C809 C 0.73014 0.68086 0.71362
 C810 C 0.72757 0.66969 0.72728
 C811 C 0.76348 0.63929 0.72172
 C812 C 0.77293 0.62753 0.72401
 C813 C 0.78400 0.61375 0.72671
 C814 C 0.79345 0.60199 0.72903
 C815 C 0.80473 0.58795 0.73180
 C816 C 0.82170 0.58906 0.72680
 C817 C 0.83267 0.57542 0.72948
 C818 C 0.82681 0.56047 0.73722
 C819 C 0.80972 0.55949 0.74220
 C820 C 0.79877 0.57314 0.73950
 H821 H 0.73635 0.64758 0.74050
 H822 H 0.76542 0.66240 0.69682
 H823 H 0.74630 0.68635 0.69206
 H824 H 0.71710 0.67147 0.73594
 H825 H 0.82646 0.60048 0.72087
 H826 H 0.84579 0.57665 0.72570
 H827 H 0.80477 0.54808 0.74798
 H828 H 0.78565 0.57213 0.74338
 C829 C 0.75492 0.33594 0.79454
 C830 C 0.75223 0.34687 0.78088
 C831 C 0.73854 0.34412 0.76999
 C832 C 0.72755 0.33050 0.77272
 C833 C 0.73009 0.31934 0.78645
 C834 C 0.74398 0.32230 0.79733
 C835 C 0.76353 0.36090 0.77803
 C836 C 0.77299 0.37265 0.77565
 C837 C 0.78406 0.38641 0.77288
 C838 C 0.79352 0.39817 0.77052
 C839 C 0.80481 0.41221 0.76770
 C840 C 0.81190 0.41482 0.75169
 C841 C 0.82286 0.42847 0.74894
 C842 C 0.82687 0.43969 0.76220
 C843 C 0.81967 0.43694 0.77826
 C844 C 0.80870 0.42330 0.78098
 H845 H 0.76550 0.33796 0.80306
 H846 H 0.73634 0.35251 0.75936
 H847 H 0.71709 0.32877 0.76402
 H848 H 0.74646 0.31411 0.80804
 H849 H 0.80901 0.40629 0.74134
 H850 H 0.82837 0.43011 0.73650
 H851 H 0.82232 0.44548 0.78867
 H852 H 0.80324 0.42142 0.79341
 C853 C 0.23892 -0.15632 0.26898
 C854 C 0.25256 -0.15358 0.27995
 C855 C 0.25518 -0.16454 0.29361
 C856 C 0.24423 -0.17819 0.29631
 C857 C 0.23040 -0.18113 0.28535
 C858 C 0.22793 -0.16996 0.27162
 C859 C 0.26385 -0.13953 0.27721
 C860 C 0.27331 -0.12777 0.27493
 C861 C 0.28440 -0.11399 0.27226
 C862 C 0.29387 -0.10223 0.27000
 C863 C 0.30519 -0.08819 0.26731
 C864 C 0.32215 -0.08935 0.27230
 C865 C 0.33316 -0.07571 0.26970
 C866 C 0.32732 -0.06071 0.26204
 C867 C 0.31023 -0.05968 0.25707
 C868 C 0.29925 -0.07333 0.25969
 H869 H 0.23678 -0.14791 0.25836
 H870 H 0.26570 -0.16252 0.30218
 H871 H 0.24666 -0.18640 0.30702
 H872 H 0.21752 -0.17168 0.26286
 H873 H 0.32689 -0.10081 0.27817
 H874 H 0.34628 -0.07699 0.27347
 H875 H 0.30530 -0.04823 0.25135
 H876 H 0.28613 -0.07227 0.25582
 C877 C 0.24426 -0.16533 0.70669
 C878 C 0.24690 -0.15436 0.72034
 C879 C 0.26047 -0.15714 0.73137
 C880 C 0.27141 -0.17082 0.72877
 C881 C 0.26894 -0.18200 0.71503
 C882 C 0.25516 -0.17903 0.70403
 C883 C 0.23568 -0.14024 0.72302
 C884 C 0.22629 -0.12842 0.72524
 C885 C 0.21530 -0.11456 0.72782
 C886 C 0.20591 -0.10273 0.73002
 C887 C 0.19471 -0.08859 0.73264
 C888 C 0.18749 -0.08581 0.74857
 C889 C 0.17661 -0.07208 0.75113
 C890 C 0.17280 -0.06093 0.73776
 C891 C 0.18013 -0.06384 0.72179
 C892 C 0.19101 -0.07758 0.71926
 H893 H 0.23378 -0.16329 0.69807
 H894 H 0.26262 -0.14871 0.74199
 H895 H 0.28179 -0.17256 0.73756
 H896 H 0.25273 -0.18724 0.69332
 H897 H 0.19023 -0.09428 0.75900
 H898 H 0.17100 -0.07031 0.76351
 H899 H 0.17763 -0.05537 0.71131
 H900 H 0.19658 -0.07958 0.70689
 C901 C 0.74513 0.33601 0.20583
 C902 C 0.74774 0.34697 0.21951
 C903 C 0.76141 0.34429 0.23046
 C904 C 0.77244 0.33070 0.22776
 C905 C 0.76993 0.31959 0.21404
 C906 C 0.75613 0.32241 0.20310
 C907 C 0.73640 0.36097 0.22230
 C908 C 0.72691 0.37270 0.22464
 C909 C 0.71580 0.38642 0.22738
 C910 C 0.70631 0.39815 0.22973
 C911 C 0.69500 0.41216 0.23255
 C912 C 0.68789 0.41476 0.24856
 C913 C 0.67691 0.42838 0.25131
 C914 C 0.67288 0.43958 0.23805
 C915 C 0.68009 0.43685 0.22199
 C916 C 0.69108 0.42323 0.21928
 H917 H 0.73458 0.33797 0.19728
 H918 H 0.76355 0.35271 0.24109
 H919 H 0.78291 0.32893 0.23644
 H920 H 0.75381 0.31412 0.19242
 H921 H 0.69080 0.40625 0.25891
 H922 H 0.67139 0.43001 0.26375
 H923 H 0.67743 0.44537 0.21159
 H924 H 0.69656 0.42136 0.20684
 C925 C 0.74507 0.66419 0.29470
 C926 C 0.74768 0.65318 0.28106
 C927 C 0.76132 0.65587 0.27009
 C928 C 0.77231 0.66952 0.27271
 C929 C 0.76980 0.68068 0.28639
 C930 C 0.75603 0.67785 0.29736
 C931 C 0.73638 0.63913 0.27833
 C932 C 0.72690 0.62737 0.27604
 C933 C 0.71580 0.61361 0.27335
 C934 C 0.70632 0.60185 0.27107
 C935 C 0.69501 0.58781 0.26834
 C936 C 0.68778 0.58517 0.25238
 C937 C 0.67680 0.57153 0.24971
 C938 C 0.67289 0.56033 0.26301
 C939 C 0.68022 0.56310 0.27901
 C940 C 0.69121 0.57675 0.28165
 H941 H 0.73454 0.66222 0.30327
 H942 H 0.76346 0.64742 0.25949
 H943 H 0.78276 0.67130 0.26402
 H944 H 0.75371 0.68617 0.30801
 H945 H 0.69060 0.59369 0.24200
 H946 H 0.67120 0.56986 0.23731
 H947 H 0.67765 0.55458 0.28944
 H948 H 0.69677 0.57864 0.29404
 C949 C 0.26171 0.15555 0.76981
 C950 C 0.24804 0.15283 0.78072
 C951 C 0.24537 0.16381 0.79436
 C952 C 0.25630 0.17748 0.79709
 C953 C 0.27016 0.18040 0.78619
 C954 C 0.27268 0.16920 0.77248
 C955 C 0.23675 0.13878 0.77793
 C956 C 0.22729 0.12702 0.77560
 C957 C 0.21620 0.11326 0.77286
 C958 C 0.20673 0.10151 0.77053
 C959 C 0.19540 0.08748 0.76774
 C960 C 0.19145 0.07647 0.78104
 C961 C 0.18045 0.06285 0.77836
 C962 C 0.17325 0.06006 0.76229
 C963 C 0.17731 0.07120 0.74900
 C964 C 0.18831 0.08482 0.75172
 H965 H 0.26389 0.14712 0.75921
 H966 H 0.23481 0.16182 0.80289
 H967 H 0.25383 0.18571 0.80778
 H968 H 0.28313 0.17090 0.76377
 H969 H 0.19691 0.07839 0.79348
 H970 H 0.17776 0.05437 0.78878
 H971 H 0.17180 0.06952 0.73655
 H972 H 0.19124 0.09330 0.74135
 C973 C 0.22994 0.23865 0.15571
 C974 C 0.21897 0.25230 0.15300
 C975 C 0.20536 0.25499 0.16401
 C976 C 0.20270 0.24407 0.17768
 C977 C 0.21365 0.23029 0.18054
 C978 C 0.22731 0.22771 0.16938
 C979 C 0.22170 0.26356 0.13893
 C980 C 0.22399 0.27299 0.12716
 C981 C 0.22669 0.28403 0.11338
 C982 C 0.22899 0.29347 0.10161
 C983 C 0.23176 0.30474 0.08756
 C984 C 0.21847 0.30856 0.07649
 C985 C 0.22114 0.31951 0.06284
 C986 C 0.23719 0.32678 0.06009
 C987 C 0.25047 0.32284 0.07130
 C988 C 0.24776 0.31190 0.08494
 H989 H 0.24052 0.23646 0.14727
 H990 H 0.19679 0.26552 0.16202
 H991 H 0.19207 0.24645 0.18600
 H992 H 0.23599 0.21725 0.17117
 H993 H 0.20604 0.30304 0.07837
 H994 H 0.21072 0.32211 0.05432
 H995 H 0.26290 0.32840 0.06965
 H996 H 0.25814 0.30906 0.09346
 C997 C 0.72973 0.73952 0.65577
 C998 C 0.71880 0.75320 0.65308
 C999 C 0.70515 0.75586 0.66405
 C1000 C 0.70242 0.74489 0.67767
 C1001 C 0.71334 0.73107 0.68050
 C1002 C 0.72703 0.72852 0.66937
 C1003 C 0.72159 0.76451 0.63906
 C1004 C 0.72394 0.77396 0.62732
 C1005 C 0.72671 0.78503 0.61357
 C1006 C 0.72907 0.79447 0.60182
 C1007 C 0.73191 0.80575 0.58779
 C1008 C 0.74793 0.81290 0.58524
 C1009 C 0.75070 0.82385 0.57160
 C1010 C 0.73746 0.82779 0.56034
 C1011 C 0.72140 0.82053 0.56303
 C1012 C 0.71866 0.80958 0.57666
 H1013 H 0.74034 0.73734 0.64735
 H1014 H 0.69661 0.76642 0.66208
 H1015 H 0.69176 0.74724 0.68595
 H1016 H 0.73569 0.71804 0.67115
 H1017 H 0.75826 0.81006 0.59380
 H1018 H 0.76314 0.82940 0.57001
 H1019 H 0.71102 0.82313 0.55446
 H1020 H 0.70623 0.80406 0.57849
 C1021 C 0.77044 0.73936 0.34429
 C1022 C 0.78138 0.75305 0.34695
 C1023 C 0.79501 0.75570 0.33595
 C1024 C 0.79769 0.74471 0.32232
 C1025 C 0.78676 0.73089 0.31952
 C1026 C 0.77309 0.72835 0.33068
 C1027 C 0.77863 0.76437 0.36096
 C1028 C 0.77630 0.77385 0.37271
 C1029 C 0.77357 0.78493 0.38646
 C1030 C 0.77122 0.79439 0.39820
 C1031 C 0.76840 0.80568 0.41223
 C1032 C 0.78166 0.80953 0.42335
 C1033 C 0.77894 0.82049 0.43699
 C1034 C 0.76288 0.82775 0.43969
 C1035 C 0.74963 0.82379 0.42844
 C1036 C 0.75239 0.81284 0.41480
 H1037 H 0.75985 0.73719 0.35273
 H1038 H 0.80356 0.76626 0.33789
 H1039 H 0.80833 0.74706 0.31401
 H1040 H 0.76442 0.71786 0.32892
 H1041 H 0.79409 0.80403 0.42151
 H1042 H 0.78933 0.82311 0.44555
 H1043 H 0.73720 0.82934 0.43004
 H1044 H 0.74205 0.80998 0.40624
 C1045 C 0.27001 0.23831 -0.15597
 C1046 C 0.28095 0.25200 -0.15325
 C1047 C 0.29460 0.25467 -0.16421
 C1048 C 0.29734 0.24369 -0.17784
 C1049 C 0.28642 0.22987 -0.18069
 C1050 C 0.27271 0.22731 -0.16958
 C1051 C 0.27814 0.26331 -0.13924
 C1052 C 0.27578 0.27279 -0.12751
 C1053 C 0.27302 0.28388 -0.11376
 C1054 C 0.27066 0.29334 -0.10202
 C1055 C 0.26785 0.30464 -0.08799
 C1056 C 0.27282 0.32162 -0.08909
 C1057 C 0.27010 0.33260 -0.07547
 C1058 C 0.26233 0.32673 -0.06055
 C1059 C 0.25738 0.30963 -0.05958
 C1060 C 0.26013 0.29867 -0.07321
 H1061 H 0.25940 0.23613 -0.14756
 H1062 H 0.30315 0.26523 -0.16223
 H1063 H 0.30800 0.24606 -0.18611
 H1064 H 0.26405 0.21682 -0.17138
 H1065 H 0.27877 0.32638 -0.10050
 H1066 H 0.27386 0.34573 -0.07670
 H1067 H 0.25158 0.30466 -0.04819
 H1068 H 0.25627 0.28553 -0.07220
 C1069 C 0.70570 0.24527 -0.16373
 C1070 C 0.71939 0.24795 -0.15280
 C1071 C 0.73033 0.26162 -0.15555
 C1072 C 0.72761 0.27257 -0.16919
 C1073 C 0.71387 0.27000 -0.18028
 C1074 C 0.70294 0.25620 -0.17737
 C1075 C 0.72222 0.23666 -0.13877
 C1076 C 0.72458 0.22720 -0.12704
 C1077 C 0.72734 0.21611 -0.11331
 C1078 C 0.72969 0.20662 -0.10158
 C1079 C 0.73251 0.19529 -0.08759
 C1080 C 0.74024 0.20122 -0.07279
 C1081 C 0.74300 0.19022 -0.05919
 C1082 C 0.73803 0.17313 -0.06023
 C1083 C 0.73025 0.16730 -0.07518
 C1084 C 0.72752 0.17832 -0.08876
 H1085 H 0.69715 0.23472 -0.16171
 H1086 H 0.74097 0.26381 -0.14717
 H1087 H 0.73628 0.28305 -0.17102
 H1088 H 0.69225 0.25382 -0.18563
 H1089 H 0.74411 0.21435 -0.07173
 H1090 H 0.74880 0.19515 -0.04779
 H1091 H 0.72648 0.15417 -0.07645
 H1092 H 0.72156 0.17359 -0.10018
 C1093 C 0.20573 0.74481 0.33505
 C1094 C 0.21935 0.74752 0.34607
 C1095 C 0.23031 0.76118 0.34335
 C1096 C 0.22768 0.77211 0.32968
 C1097 C 0.21401 0.76951 0.31851
 C1098 C 0.20307 0.75571 0.32137
 C1099 C 0.22208 0.73629 0.36016
 C1100 C 0.22437 0.72689 0.37195
 C1101 C 0.22707 0.71588 0.38577
 C1102 C 0.22938 0.70649 0.39757
 C1103 C 0.23215 0.69527 0.41166
 C1104 C 0.23974 0.70133 0.42648
 C1105 C 0.24244 0.69044 0.44018
 C1106 C 0.23755 0.67332 0.43922
 C1107 C 0.22991 0.66735 0.42426
 C1108 C 0.22724 0.67826 0.41058
 H1109 H 0.19717 0.73426 0.33704
 H1110 H 0.24089 0.76340 0.35181
 H1111 H 0.23635 0.78258 0.32788
 H1112 H 0.19243 0.75331 0.31304
 H1113 H 0.24354 0.71449 0.42748
 H1114 H 0.24813 0.69548 0.45159
 H1115 H 0.22621 0.65420 0.42305
 H1116 H 0.22140 0.67342 0.39914
 C1117 C 0.29365 0.74405 0.66517
 C1118 C 0.28008 0.74681 0.65412
 C1119 C 0.26912 0.76046 0.65687
 C1120 C 0.27171 0.77133 0.67061
 C1121 C 0.28534 0.76868 0.68181
 C1122 C 0.29628 0.75490 0.67892
 C1123 C 0.27740 0.73565 0.63995
 C1124 C 0.27514 0.72633 0.62807
 C1125 C 0.27249 0.71542 0.61416
 C1126 C 0.27022 0.70611 0.60227
 C1127 C 0.26751 0.69499 0.58808
 C1128 C 0.25148 0.68796 0.58523
 C1129 C 0.24883 0.67714 0.57146
 C1130 C 0.26220 0.67321 0.56035
 C1131 C 0.27826 0.68037 0.56333
 C1132 C 0.28088 0.69119 0.57710
 H1133 H 0.30221 0.73352 0.66316
 H1134 H 0.25857 0.76271 0.64838
 H1135 H 0.26304 0.78179 0.67242
 H1136 H 0.30688 0.75247 0.68727
 H1137 H 0.24105 0.69079 0.59368
 H1138 H 0.23638 0.67167 0.56964
 H1139 H 0.28874 0.67777 0.55489
 H1140 H 0.29332 0.69661 0.57917
 C1141 C 0.77068 0.26115 0.15588
 C1142 C 0.78169 0.24753 0.15316
 C1143 C 0.79534 0.24492 0.16414
 C1144 C 0.79801 0.25587 0.17780
 C1145 C 0.78701 0.26961 0.18067
 C1146 C 0.77331 0.27212 0.16954
 C1147 C 0.77895 0.23624 0.13911
 C1148 C 0.77665 0.22678 0.12735
 C1149 C 0.77395 0.21572 0.11357
 C1150 C 0.77162 0.20626 0.10181
 C1151 C 0.76883 0.19499 0.08776
 C1152 C 0.77377 0.17800 0.08887
 C1153 C 0.77105 0.16703 0.07523
 C1154 C 0.76332 0.17292 0.06029
 C1155 C 0.75841 0.19003 0.05931
 C1156 C 0.76116 0.20097 0.07296
 H1157 H 0.76007 0.26329 0.14746
 H1158 H 0.80394 0.23441 0.16215
 H1159 H 0.80867 0.25354 0.18610
 H1160 H 0.76460 0.28256 0.17134
 H1161 H 0.77968 0.17322 0.10029
 H1162 H 0.77478 0.15389 0.07646
 H1163 H 0.75265 0.19500 0.04791
 H1164 H 0.75733 0.21412 0.07195
 C1165 C 0.47988 0.40595 0.48986
 C1166 C 0.46887 0.40325 0.50347
 C1167 C 0.45523 0.41425 0.50607
 C1168 C 0.45259 0.42791 0.49511
 C1169 C 0.46359 0.43075 0.48138
 C1170 C 0.47727 0.41959 0.47888
 C1171 C 0.47157 0.38919 0.51475
 C1172 C 0.47384 0.37742 0.52419
 C1173 C 0.47652 0.36363 0.53523
 C1174 C 0.47883 0.35185 0.54465
 C1175 C 0.48159 0.33778 0.55590
 C1176 C 0.46830 0.32668 0.55970
 C1177 C 0.47098 0.31300 0.57061
 C1178 C 0.48703 0.31023 0.57787
 C1179 C 0.50031 0.32147 0.57396
 C1180 C 0.49760 0.33515 0.56306
 H1181 H 0.49048 0.39750 0.48773
 H1182 H 0.44663 0.41228 0.51657
 H1183 H 0.44193 0.43622 0.49743
 H1184 H 0.48599 0.42137 0.46846
 H1185 H 0.45588 0.32857 0.55419
 H1186 H 0.46057 0.30446 0.57318
 H1187 H 0.51274 0.31981 0.57951
 H1188 H 0.50796 0.34369 0.56024
 C1189 C -0.04511 0.91375 0.00431
 C1190 C -0.03149 0.90274 0.00161
 C1191 C -0.02058 0.90545 -0.01207
 C1192 C -0.02324 0.91911 -0.02301
 C1193 C -0.03690 0.93028 -0.02040
 C1194 C -0.04781 0.92742 -0.00660
 C1195 C -0.02871 0.88869 0.01288
 C1196 C -0.02636 0.87693 0.02232
 C1197 C -0.02359 0.86317 0.03338
 C1198 C -0.02122 0.85143 0.04283
 C1199 C -0.01838 0.83741 0.05412
 C1200 C -0.00236 0.83484 0.06124
 C1201 C 0.00042 0.82123 0.07222
 C1202 C -0.01284 0.81000 0.07623
 C1203 C -0.02891 0.81269 0.06900
 C1204 C -0.03164 0.82631 0.05802
 H1205 H -0.05364 0.91177 0.01487
 H1206 H -0.00999 0.89700 -0.01427
 H1207 H -0.01459 0.92090 -0.03348
 H1208 H -0.05844 0.93574 -0.00421
 H1209 H 0.00799 0.84339 0.05835
 H1210 H 0.01286 0.81963 0.07775
 H1211 H -0.03930 0.80415 0.07165
 H1212 H -0.04409 0.82815 0.05253
 C1213 C 0.04434 0.58525 0.00472
 C1214 C 0.03071 0.59624 0.00205
 C1215 C 0.01978 0.59354 -0.01161
 C1216 C 0.02244 0.57991 -0.02260
 C1217 C 0.03614 0.56870 -0.02009
 C1218 C 0.04706 0.57160 -0.00623
 C1219 C 0.02795 0.61029 0.01334
 C1220 C 0.02563 0.62205 0.02278
 C1221 C 0.02290 0.63584 0.03383
 C1222 C 0.02057 0.64762 0.04326
 C1223 C 0.01780 0.66169 0.05451
 C1224 C 0.00181 0.66430 0.06170
 C1225 C -0.00090 0.67797 0.07262
 C1226 C 0.01237 0.68923 0.07651
 C1227 C 0.02840 0.68650 0.06922
 C1228 C 0.03108 0.67282 0.05829
 H1229 H 0.05289 0.58723 0.01527
 H1230 H 0.00918 0.60198 -0.01379
 H1231 H 0.01371 0.57822 -0.03305
 H1232 H 0.05774 0.56336 -0.00377
 H1233 H -0.00854 0.65573 0.05889
 H1234 H -0.01332 0.67961 0.07819
 H1235 H 0.03881 0.69506 0.07178
 H1236 H 0.04349 0.67095 0.05276
 C1237 C 0.54468 0.08570 0.50562
 C1238 C 0.53098 0.09663 0.50299
 C1239 C 0.52002 0.09389 0.48933
 C1240 C 0.52273 0.08027 0.47834
 C1241 C 0.53647 0.06918 0.48087
 C1242 C 0.54742 0.07207 0.49465
 C1243 C 0.52817 0.11065 0.51429
 C1244 C 0.52582 0.12240 0.52376
 C1245 C 0.52307 0.13616 0.53483
 C1246 C 0.52072 0.14792 0.54428
 C1247 C 0.51790 0.16197 0.55555
 C1248 C 0.51017 0.17675 0.54958
 C1249 C 0.50741 0.19040 0.56052
 C1250 C 0.51236 0.18943 0.57761
 C1251 C 0.52014 0.17451 0.58348
 C1252 C 0.52287 0.16088 0.57252
 H1253 H 0.55324 0.08771 0.51615
 H1254 H 0.50938 0.10227 0.48718
 H1255 H 0.51405 0.07845 0.46788
 H1256 H 0.55812 0.06381 0.49698
 H1257 H 0.50631 0.17775 0.53645
 H1258 H 0.50160 0.20179 0.55556
 H1259 H 0.52390 0.17329 0.59661
 H1260 H 0.52883 0.14947 0.57729
 C1261 C -0.04480 0.08634 0.49474
 C1262 C -0.03113 0.09731 0.49737
 C1263 C -0.02013 0.09457 0.51099
 C1264 C -0.02277 0.08092 0.52194
 C1265 C -0.03648 0.06978 0.51941
 C1266 C -0.04747 0.07266 0.50566
 C1267 C -0.02838 0.11137 0.48610
 C1268 C -0.02606 0.12313 0.47667
 C1269 C -0.02333 0.13691 0.46562
 C1270 C -0.02099 0.14867 0.45618
 C1271 C -0.01818 0.16272 0.44491
 C1272 C -0.00216 0.16534 0.43781
 C1273 C 0.00059 0.17898 0.42687
 C1274 C -0.01268 0.19019 0.42287
 C1275 C -0.02875 0.18743 0.43008
 C1276 C -0.03146 0.17379 0.44103
 H1277 H -0.05340 0.08834 0.48423
 H1278 H -0.00950 0.10300 0.51314
 H1279 H -0.01405 0.07910 0.53237
 H1280 H -0.05815 0.06437 0.50332
 H1281 H 0.00820 0.15682 0.44070
 H1282 H 0.01303 0.18063 0.42136
 H1283 H -0.03916 0.19596 0.42743
 H1284 H -0.04391 0.17190 0.44649
 C1285 C 0.48015 0.59404 1.01167
 C1286 C 0.46924 0.59677 0.99798
 C1287 C 0.45559 0.58580 0.99526
 C1288 C 0.45285 0.57213 1.00618
 C1289 C 0.46375 0.56926 1.01999
 C1290 C 0.47744 0.58039 1.02261
 C1291 C 0.47205 0.61083 0.98673
 C1292 C 0.47441 0.62260 0.97731
 C1293 C 0.47718 0.63637 0.96626
 C1294 C 0.47953 0.64813 0.95683
 C1295 C 0.48233 0.66217 0.94555
 C1296 C 0.47729 0.66108 0.92860
 C1297 C 0.47997 0.67472 0.91764
 C1298 C 0.48776 0.68965 0.92350
 C1299 C 0.49279 0.69062 0.94057
 C1300 C 0.49008 0.67697 0.95151
 H1301 H 0.49076 0.60247 1.01389
 H1302 H 0.44706 0.58780 0.98470
 H1303 H 0.44218 0.56384 1.00377
 H1304 H 0.48609 0.57858 1.03310
 H1305 H 0.47131 0.64967 0.92385
 H1306 H 0.47615 0.67350 0.90453
 H1307 H 0.49861 0.70202 0.94552
 H1308 H 0.49399 0.67797 0.96462
 C1309 C 0.52057 0.90608 1.01164
 C1310 C 0.53149 0.90338 0.99797
 C1311 C 0.54512 0.91437 0.99529
 C1312 C 0.54785 0.92804 1.00623
 C1313 C 0.53695 0.93095 1.02008
 C1314 C 0.52325 0.91973 1.02261
 C1315 C 0.52869 0.88933 0.98668
 C1316 C 0.52634 0.87756 0.97724
 C1317 C 0.52357 0.86379 0.96618
 C1318 C 0.52119 0.85202 0.95674
 C1319 C 0.51835 0.83797 0.94548
 C1320 C 0.52320 0.83908 0.92848
 C1321 C 0.52044 0.82544 0.91753
 C1322 C 0.51275 0.81048 0.92344
 C1323 C 0.50792 0.80949 0.94056
 C1324 C 0.51071 0.82314 0.95149
 H1325 H 0.50998 0.89764 1.01382
 H1326 H 0.55365 0.91239 0.98474
 H1327 H 0.55854 0.93628 1.00375
 H1328 H 0.51453 0.92142 1.03306
 H1329 H 0.52909 0.85052 0.92368
 H1330 H 0.52411 0.82668 0.90438
 H1331 H 0.50219 0.79807 0.94555
 H1332 H 0.50694 0.82212 0.96463
 C1333 C 0.04413 0.41529 0.49439
 C1334 C 0.03054 0.40425 0.49705
 C1335 C 0.01959 0.40692 0.51069
 C1336 C 0.02220 0.42058 0.52166
 C1337 C 0.03586 0.43184 0.51916
 C1338 C 0.04680 0.42897 0.50532
 C1339 C 0.02784 0.39017 0.48578
 C1340 C 0.02557 0.37837 0.47635
 C1341 C 0.02291 0.36455 0.46532
 C1342 C 0.02063 0.35274 0.45591
 C1343 C 0.01789 0.33864 0.44469
 C1344 C 0.01020 0.32384 0.45070
 C1345 C 0.00751 0.31014 0.43980
 C1346 C 0.01250 0.31105 0.42273
 C1347 C 0.02023 0.32599 0.41681
 C1348 C 0.02290 0.33968 0.42773
 H1349 H 0.05269 0.41333 0.48385
 H1350 H 0.00902 0.39844 0.51286
 H1351 H 0.01346 0.42224 0.53209
 H1352 H 0.05746 0.43725 0.50286
 H1353 H 0.00632 0.32288 0.46381
 H1354 H 0.00174 0.29874 0.44479
 H1355 H 0.02401 0.32717 0.40369
 H1356 H 0.02882 0.35110 0.42293
 C1357 C 0.40566 0.48940 0.48063
 C1358 C 0.40301 0.50305 0.46966
 C1359 C 0.41404 0.50568 0.45607
 C1360 C 0.42769 0.49471 0.45343
 C1361 C 0.43048 0.48092 0.46438
 C1362 C 0.41929 0.47840 0.47803
 C1363 C 0.38897 0.51436 0.47236
 C1364 C 0.37721 0.52383 0.47460
 C1365 C 0.36345 0.53493 0.47724
 C1366 C 0.35170 0.54441 0.47949
 C1367 C 0.33767 0.55572 0.48219
 C1368 C 0.32670 0.55963 0.46883
 C1369 C 0.31307 0.57062 0.47144
 C1370 C 0.31021 0.57784 0.48747
 C1371 C 0.32132 0.57383 0.50082
 C1372 C 0.33495 0.56284 0.49818
 H1373 H 0.39719 0.48725 0.49121
 H1374 H 0.41210 0.51621 0.44749
 H1375 H 0.43602 0.49704 0.44280
 H1376 H 0.42104 0.46794 0.48671
 H1377 H 0.32867 0.55415 0.45641
 H1378 H 0.30463 0.57328 0.46096
 H1379 H 0.31959 0.57935 0.51325
 H1380 H 0.34339 0.55994 0.50860
 C1381 C 0.90592 -0.01145 -0.02075
 C1382 C 0.90326 0.00226 -0.03162
 C1383 C 0.91423 0.00492 -0.04525
 C1384 C 0.92783 -0.00607 -0.04803
 C1385 C 0.93069 -0.01998 -0.03717
 C1386 C 0.91950 -0.02249 -0.02346
 C1387 C 0.88928 0.01360 -0.02879
 C1388 C 0.87757 0.02311 -0.02642
 C1389 C 0.86387 0.03425 -0.02364
 C1390 C 0.85217 0.04375 -0.02126
 C1391 C 0.83820 0.05510 -0.01841
 C1392 C 0.82708 0.05901 -0.03164
 C1393 C 0.81350 0.07003 -0.02889
 C1394 C 0.81085 0.07729 -0.01284
 C1395 C 0.82210 0.07327 0.00039
 C1396 C 0.83568 0.06226 -0.00239
 H1397 H 0.89750 -0.01363 -0.01015
 H1398 H 0.91228 0.01551 -0.05375
 H1399 H 0.93605 -0.00361 -0.05871
 H1400 H 0.92116 -0.03297 -0.01478
 H1401 H 0.82888 0.05350 -0.04408
 H1402 H 0.80493 0.07268 -0.03927
 H1403 H 0.82053 0.07881 0.01283
 H1404 H 0.84424 0.05935 0.00793
 C1405 C 0.58653 0.00526 0.04449
 C1406 C 0.59750 0.00260 0.03084
 C1407 C 0.59478 -0.01109 0.01991
 C1408 C 0.58117 -0.02209 0.02261
 C1409 C 0.57005 -0.01954 0.03631
 C1410 C 0.57291 -0.00572 0.04723
 C1411 C 0.61152 0.01392 0.02804
 C1412 C 0.62326 0.02340 0.02571
 C1413 C 0.63701 0.03450 0.02298
 C1414 C 0.64875 0.04398 0.02066
 C1415 C 0.66279 0.05529 0.01788
 C1416 C 0.66536 0.06249 0.00191
 C1417 C 0.67899 0.07347 -0.00081
 C1418 C 0.69024 0.07740 0.01245
 C1419 C 0.68754 0.07010 0.02847
 C1420 C 0.67390 0.05911 0.03115
 H1421 H 0.58852 0.01583 0.05303
 H1422 H 0.60320 -0.01326 0.00930
 H1423 H 0.57937 -0.03258 0.01396
 H1424 H 0.56462 -0.00335 0.05789
 H1425 H 0.65680 0.05966 -0.00844
 H1426 H 0.68060 0.07905 -0.01322
 H1427 H 0.69610 0.07269 0.03887
 H1428 H 0.67206 0.05357 0.04356
 C1429 C 0.08534 0.50616 0.54376
 C1430 C 0.09632 0.50352 0.53011
 C1431 C 0.09362 0.48986 0.51915
 C1432 C 0.07999 0.47887 0.52180
 C1433 C 0.06885 0.48139 0.53549
 C1434 C 0.07170 0.49518 0.54644
 C1435 C 0.11037 0.51481 0.52738
 C1436 C 0.12215 0.52426 0.52509
 C1437 C 0.13594 0.53532 0.52240
 C1438 C 0.14773 0.54475 0.52011
 C1439 C 0.16181 0.55601 0.51738
 C1440 C 0.16451 0.56313 0.50139
 C1441 C 0.17819 0.57406 0.49871
 C1442 C 0.18935 0.57803 0.51203
 C1443 C 0.18652 0.57080 0.52807
 C1444 C 0.17284 0.55987 0.53071
 H1445 H 0.08732 0.51670 0.55233
 H1446 H 0.10204 0.48771 0.50854
 H1447 H 0.07820 0.46840 0.51311
 H1448 H 0.06341 0.49752 0.55710
 H1449 H 0.15602 0.56026 0.49099
 H1450 H 0.17990 0.57958 0.48629
 H1451 H 0.19501 0.57342 0.53852
 H1452 H 0.17089 0.55439 0.54313
 C1453 C 0.09401 0.51082 -0.02006
 C1454 C 0.09671 0.49716 -0.03102
 C1455 C 0.08573 0.49451 -0.04467
 C1456 C 0.07209 0.50548 -0.04737
 C1457 C 0.06924 0.51927 -0.03642
 C1458 C 0.08038 0.52181 -0.02272
 C1459 C 0.11074 0.48585 -0.02826
 C1460 C 0.12249 0.47638 -0.02595
 C1461 C 0.13623 0.46528 -0.02326
 C1462 C 0.14797 0.45580 -0.02095
 C1463 C 0.16199 0.44448 -0.01818
 C1464 C 0.17306 0.44064 -0.03146
 C1465 C 0.18669 0.42965 -0.02879
 C1466 C 0.18942 0.42236 -0.01276
 C1467 C 0.17821 0.42631 0.00051
 C1468 C 0.16459 0.43730 -0.00220
 H1469 H 0.10244 0.51298 -0.00945
 H1470 H 0.08770 0.48397 -0.05323
 H1471 H 0.06379 0.50313 -0.05804
 H1472 H 0.07859 0.53227 -0.01405
 H1473 H 0.17120 0.44617 -0.04387
 H1474 H 0.19521 0.42704 -0.03920
 H1475 H 0.17984 0.42074 0.01292
 H1476 H 0.15606 0.44015 0.00816
 C1477 C 0.58584 0.99502 0.45554
 C1478 C 0.59683 0.99771 0.46916
 C1479 C 0.59410 1.01136 0.48011
 C1480 C 0.58042 1.02229 0.47748
 C1481 C 0.56920 1.01975 0.46379
 C1482 C 0.57215 1.00592 0.45285
 C1483 C 0.61091 0.98647 0.47191
 C1484 C 0.62269 0.97704 0.47421
 C1485 C 0.63648 0.96599 0.47691
 C1486 C 0.64826 0.95656 0.47923
 C1487 C 0.66231 0.94529 0.48200
 C1488 C 0.66493 0.93812 0.49798
 C1489 C 0.67859 0.92718 0.50070
 C1490 C 0.68980 0.92324 0.48743
 C1491 C 0.68705 0.93051 0.47140
 C1492 C 0.67339 0.94146 0.46872
 H1493 H 0.58785 0.98449 0.44697
 H1494 H 0.60254 1.01356 0.49071
 H1495 H 0.57870 1.03272 0.48623
 H1496 H 0.56390 1.00343 0.44217
 H1497 H 0.65640 0.94096 0.50834
 H1498 H 0.68024 0.92162 0.51311
 H1499 H 0.69558 0.92791 0.46099
 H1500 H 0.67151 0.94698 0.45630
 C1501 C 0.90608 1.01172 0.52007
 C1502 C 0.90343 0.99802 0.53097
 C1503 C 0.91447 0.99533 0.54454
 C1504 C 0.92813 1.00627 0.54724
 C1505 C 0.93100 1.02016 0.53636
 C1506 C 0.91973 1.02271 0.52271
 C1507 C 0.88937 0.98673 0.52821
 C1508 C 0.87760 0.97727 0.52591
 C1509 C 0.86383 0.96619 0.52320
 C1510 C 0.85207 0.95673 0.52088
 C1511 C 0.83803 0.94542 0.51810
 C1512 C 0.82694 0.94159 0.53137
 C1513 C 0.81330 0.93061 0.52868
 C1514 C 0.81056 0.92332 0.51264
 C1515 C 0.82178 0.92727 0.49938
 C1516 C 0.83543 0.93824 0.50211
 H1517 H 0.89760 1.01392 0.50952
 H1518 H 0.91252 0.98475 0.55306
 H1519 H 0.93642 1.00378 0.55789
 H1520 H 0.92139 1.03317 0.51401
 H1521 H 0.82881 0.94712 0.54378
 H1522 H 0.80476 0.92802 0.53908
 H1523 H 0.82015 0.92169 0.48696
 H1524 H 0.84396 0.94108 0.49176
 C1525 C 0.40567 0.51070 0.02019
 C1526 C 0.40293 0.49701 0.03109
 C1527 C 0.41388 0.49432 0.04476
 C1528 C 0.42753 0.50527 0.04753
 C1529 C 0.43041 0.51909 0.03664
 C1530 C 0.41931 0.52167 0.02293
 C1531 C 0.38889 0.48572 0.02825
 C1532 C 0.37714 0.47625 0.02587
 C1533 C 0.36338 0.46517 0.02309
 C1534 C 0.35162 0.45571 0.02073
 C1535 C 0.33758 0.44442 0.01791
 C1536 C 0.32648 0.44057 0.03117
 C1537 C 0.31284 0.42960 0.02845
 C1538 C 0.31012 0.42233 0.01241
 C1539 C 0.32135 0.42629 -0.00084
 C1540 C 0.33499 0.43726 0.00191
 H1541 H 0.39727 0.51289 0.00957
 H1542 H 0.41187 0.48376 0.05328
 H1543 H 0.43580 0.50290 0.05820
 H1544 H 0.42113 0.53216 0.01429
 H1545 H 0.32835 0.44608 0.04359
 H1546 H 0.30430 0.42698 0.03884
 H1547 H 0.31972 0.42073 -0.01327
 H1548 H 0.34354 0.44011 -0.00843
 C1549 C 0.50544 0.45564 0.41492
 C1550 C 0.50283 0.46927 0.40391
 C1551 C 0.48917 0.48024 0.40656
 C1552 C 0.47816 0.47761 0.42016
 C1553 C 0.48066 0.46394 0.43132
 C1554 C 0.49445 0.45298 0.42853
 C1555 C 0.51415 0.47200 0.38990
 C1556 C 0.52363 0.47428 0.37816
 C1557 C 0.53471 0.47696 0.36442
 C1558 C 0.54417 0.47926 0.35267
 C1559 C 0.55546 0.48202 0.33864
 C1560 C 0.56263 0.49802 0.33600
 C1561 C 0.57357 0.50072 0.32236
 C1562 C 0.57749 0.48742 0.31115
 C1563 C 0.57023 0.47137 0.31392
 C1564 C 0.55928 0.46871 0.32757
 H1565 H 0.51598 0.44707 0.41299
 H1566 H 0.48703 0.49084 0.39811
 H1567 H 0.46770 0.48630 0.42191
 H1568 H 0.49678 0.44233 0.43685
 H1569 H 0.55979 0.50840 0.34452
 H1570 H 0.57912 0.51315 0.32070
 H1571 H 0.57282 0.46095 0.30540
 H1572 H 0.55376 0.45628 0.32946
 C1573 C -0.01148 -0.01987 0.90498
 C1574 C 0.00214 -0.03085 0.90221
 C1575 C 0.00474 -0.04458 0.91311
 C1576 C -0.00623 -0.04732 0.92673
 C1577 C -0.01998 -0.03634 0.92963
 C1578 C -0.02247 -0.02257 0.91858
 C1579 C 0.01346 -0.02805 0.88821
 C1580 C 0.02294 -0.02570 0.87649
 C1581 C 0.03405 -0.02297 0.86278
 C1582 C 0.04355 -0.02064 0.85107
 C1583 C 0.05491 -0.01789 0.83709
 C1584 C 0.05876 -0.03119 0.82603
 C1585 C 0.06982 -0.02854 0.81247
 C1586 C 0.07716 -0.01251 0.80978
 C1587 C 0.07319 0.00078 0.82096
 C1588 C 0.06214 -0.00190 0.83453
 H1589 H -0.01360 -0.00920 0.89661
 H1590 H 0.01525 -0.05317 0.91109
 H1591 H -0.00392 -0.05803 0.93496
 H1592 H -0.03290 -0.01386 0.92042
 H1593 H 0.05320 -0.04360 0.82787
 H1594 H 0.07244 -0.03896 0.80395
 H1595 H 0.07880 0.01320 0.81936
 H1596 H 0.05928 0.00847 0.84304
 C1597 C -0.01087 0.01992 0.59397
 C1598 C 0.00282 0.03086 0.59666
 C1599 C 0.00544 0.04455 0.58572
 C1600 C -0.00558 0.04730 0.57214
 C1601 C -0.01940 0.03637 0.56931
 C1602 C -0.02191 0.02264 0.58040
 C1603 C 0.01418 0.02805 0.61064
 C1604 C 0.02369 0.02570 0.62235
 C1605 C 0.03481 0.02296 0.63606
 C1606 C 0.04430 0.02061 0.64779
 C1607 C 0.05562 0.01782 0.66179
 C1608 C 0.05955 0.03111 0.67284
 C1609 C 0.07053 0.02841 0.68646
 C1610 C 0.07773 0.01234 0.68922
 C1611 C 0.07370 -0.00095 0.67803
 C1612 C 0.06272 0.00179 0.66441
 H1613 H -0.01301 0.00929 0.60237
 H1614 H 0.01600 0.05310 0.58768
 H1615 H -0.00325 0.05798 0.56387
 H1616 H -0.03240 0.01398 0.57863
 H1617 H 0.05408 0.04356 0.67096
 H1618 H 0.07320 0.03883 0.69498
 H1619 H 0.07920 -0.01340 0.67969
 H1620 H 0.05981 -0.00858 0.65591
 C1621 C 0.48882 0.51952 0.09483
 C1622 C 0.50248 0.53048 0.09760
 C1623 C 0.50516 0.54415 0.08666
 C1624 C 0.49424 0.54687 0.07299
 C1625 C 0.48045 0.53592 0.07008
 C1626 C 0.47787 0.52221 0.08118
 C1627 C 0.51374 0.52770 0.11166
 C1628 C 0.52318 0.52538 0.12343
 C1629 C 0.53424 0.52268 0.13720
 C1630 C 0.54370 0.52038 0.14896
 C1631 C 0.55500 0.51763 0.16300
 C1632 C 0.55886 0.53095 0.17404
 C1633 C 0.56985 0.52831 0.18767
 C1634 C 0.57713 0.51227 0.19043
 C1635 C 0.57315 0.49896 0.17926
 C1636 C 0.56217 0.50164 0.16563
 H1637 H 0.48662 0.50890 0.10323
 H1638 H 0.51570 0.55271 0.08869
 H1639 H 0.49662 0.55755 0.06473
 H1640 H 0.46741 0.51353 0.07933
 H1641 H 0.55335 0.54338 0.17215
 H1642 H 0.57248 0.53875 0.19617
 H1643 H 0.57871 0.48653 0.18092
 H1644 H 0.55930 0.49125 0.15713
 C1645 C 0.51157 -0.02006 0.09436
 C1646 C 0.49793 -0.03104 0.09708
 C1647 C 0.49528 -0.04471 0.08612
 C1648 C 0.50622 -0.04741 0.07248
 C1649 C 0.52000 -0.03644 0.06961
 C1650 C 0.52254 -0.02272 0.08073
 C1651 C 0.48665 -0.02827 0.11112
 C1652 C 0.47719 -0.02595 0.12287
 C1653 C 0.46611 -0.02324 0.13662
 C1654 C 0.45664 -0.02092 0.14835
 C1655 C 0.44533 -0.01815 0.16236
 C1656 C 0.44142 -0.03147 0.17338
 C1657 C 0.43041 -0.02880 0.18697
 C1658 C 0.42317 -0.01275 0.18974
 C1659 C 0.42720 0.00056 0.17860
 C1660 C 0.43820 -0.00214 0.16500
 H1661 H 0.51374 -0.00943 0.10278
 H1662 H 0.48475 -0.05328 0.08811
 H1663 H 0.50387 -0.05808 0.06419
 H1664 H 0.53300 -0.01403 0.07892
 H1665 H 0.44691 -0.04390 0.17148
 H1666 H 0.42775 -0.03924 0.19546
 H1667 H 0.42166 0.01300 0.18026
 H1668 H 0.44110 0.00825 0.15652
 C1669 C 1.01034 0.48067 0.59350
 C1670 C 0.99671 0.46966 0.59620
 C1671 C 0.99409 0.45601 0.58520
 C1672 C 1.00504 0.45336 0.57155
 C1673 C 1.01879 0.46436 0.56871
 C1674 C 1.02131 0.47805 0.57986
 C1675 C 0.98543 0.47236 0.61025
 C1676 C 0.97599 0.47463 0.62201
 C1677 C 0.96494 0.47730 0.63579
 C1678 C 0.95550 0.47959 0.64756
 C1679 C 0.94424 0.48233 0.66162
 C1680 C 0.94041 0.46901 0.67266
 C1681 C 0.92947 0.47166 0.68632
 C1682 C 0.92222 0.48770 0.68912
 C1683 C 0.92615 0.50101 0.67795
 C1684 C 0.93709 0.49833 0.66429
 H1685 H 1.01248 0.49128 0.60194
 H1686 H 0.98357 0.44740 0.58718
 H1687 H 1.00271 0.44269 0.56325
 H1688 H 1.03175 0.48677 0.57808
 H1689 H 0.94592 0.45659 0.67073
 H1690 H 0.92688 0.46122 0.69481
 H1691 H 0.92061 0.51344 0.67964
 H1692 H 0.93993 0.50872 0.65580
 C1693 C 1.01073 0.51984 0.90551
 C1694 C 0.99707 0.53080 0.90281
 C1695 C 0.99441 0.54443 0.91381
 C1696 C 1.00536 0.54712 0.92747
 C1697 C 1.01915 0.53617 0.93031
 C1698 C 1.02170 0.52249 0.91915
 C1699 C 0.98579 0.52805 0.88875
 C1700 C 0.97635 0.52575 0.87698
 C1701 C 0.96529 0.52305 0.86319
 C1702 C 0.95584 0.52075 0.85142
 C1703 C 0.94456 0.51800 0.83737
 C1704 C 0.92758 0.52294 0.83849
 C1705 C 0.91661 0.52027 0.82485
 C1706 C 0.92249 0.51260 0.80988
 C1707 C 0.93959 0.50767 0.80889
 C1708 C 0.95054 0.51037 0.82254
 H1709 H 1.01290 0.50924 0.89707
 H1710 H 0.98387 0.55299 0.91183
 H1711 H 1.00300 0.55776 0.93578
 H1712 H 1.03216 0.51381 0.92094
 H1713 H 0.92280 0.52882 0.84993
 H1714 H 0.90347 0.52400 0.82609
 H1715 H 0.94456 0.50195 0.79747
 H1716 H 0.96368 0.50654 0.82152
 C1717 C 0.51125 0.01947 0.40600
 C1718 C 0.49754 0.03037 0.40331
 C1719 C 0.49484 0.04400 0.41431
 C1720 C 0.50580 0.04675 0.42794
 C1721 C 0.51965 0.03586 0.43077
 C1722 C 0.52223 0.02218 0.41962
 C1723 C 0.48624 0.02756 0.38928
 C1724 C 0.47678 0.02521 0.37753
 C1725 C 0.46572 0.02247 0.36376
 C1726 C 0.45627 0.02014 0.35200
 C1727 C 0.44499 0.01737 0.33795
 C1728 C 0.42801 0.02235 0.33905
 C1729 C 0.41705 0.01967 0.32540
 C1730 C 0.42293 0.01195 0.31046
 C1731 C 0.44002 0.00699 0.30948
 C1732 C 0.45096 0.00969 0.32314
 H1733 H 0.51345 0.00887 0.39756
 H1734 H 0.48426 0.05251 0.41235
 H1735 H 0.50341 0.05739 0.43625
 H1736 H 0.53274 0.01355 0.42140
 H1737 H 0.42324 0.02826 0.35047
 H1738 H 0.40392 0.02343 0.32663
 H1739 H 0.44499 0.00123 0.29808
 H1740 H 0.46409 0.00584 0.32214
   
