data_POSCAR
  _audit_creation_date              2014-09-24
  _audit_creation_method            'ToBaCCo'
  _symmetry_space_group_name_H-M    'P1'
  _symmetry_Int_Tables_number       1
  _symmetry_cell_setting            triclinic
  loop_
  _symmetry_equiv_pos_as_xyz
 x,y,z
_cell_length_a 48.9821
_cell_length_b 49.1863
_cell_length_c 49.3194
_cell_angle_alpha 89.998700
_cell_angle_beta 89.614200
_cell_angle_gamma 91.589400
loop_
  _atom_site_label
  _atom_site_type_symbol
  _atom_site_fract_x
  _atom_site_fract_y
  _atom_site_fract_z
C1 C 0.73543 0.61155 1.03044
 C2 C 0.75015 0.62170 1.00805
 C3 C 0.77658 0.63283 1.01149
 C4 C 0.78865 0.63398 1.03743
 C5 C 0.77358 0.62273 1.05953
 C6 C 0.74686 0.61169 1.05657
 C7 C 0.73799 0.61898 0.98078
 C8 C 0.71230 0.62984 0.97552
 C9 C 0.69922 0.62486 0.95070
 C10 C 0.71225 0.60888 0.93114
 C11 C 0.73771 0.59756 0.93622
 C12 C 0.75076 0.60321 0.96092
 H13 H 0.71567 0.60216 1.02656
 H14 H 0.78742 0.63992 0.99361
 H15 H 0.70232 0.64175 0.99099
 H16 H 0.77026 0.59430 0.96522
 H17 H 0.78242 0.62329 1.07958
 H18 H 0.70289 0.60575 0.91153
 C19 C 0.75497 0.36781 0.45658
 C20 C 0.76823 0.35631 0.47876
 C21 C 0.79384 0.34469 0.47500
 C22 C 0.80600 0.34409 0.44911
 C23 C 0.79234 0.35565 0.42711
 C24 C 0.76690 0.36756 0.43067
 C25 C 0.75509 0.35636 0.50581
 C26 C 0.72822 0.34623 0.50896
 C27 C 0.71517 0.34674 0.53437
 C28 C 0.72913 0.35825 0.55658
 C29 C 0.75617 0.36818 0.55385
 C30 C 0.76907 0.36702 0.52832
 H31 H 0.73533 0.37705 0.45953
 H32 H 0.80416 0.33624 0.49228
 H33 H 0.71749 0.33816 0.49147
 H34 H 0.78961 0.37535 0.52559
 H35 H 0.80169 0.35565 0.40714
 H36 H 0.71915 0.35883 0.57625
 C37 C 0.23917 -0.12541 -0.02664
 C38 C 0.25224 -0.13625 -0.00404
 C39 C 0.27764 -0.14852 -0.00734
 C40 C 0.29076 -0.14916 -0.03290
 C41 C 0.27755 -0.13718 -0.05508
 C42 C 0.25161 -0.12586 -0.05234
 C43 C 0.24075 -0.13231 0.02350
 C44 C 0.21349 -0.13975 0.02972
 C45 C 0.20228 -0.13460 0.05566
 C46 C 0.21943 -0.12199 0.07523
 C47 C 0.24677 -0.11494 0.06938
 C48 C 0.25717 -0.12001 0.04342
 H49 H 0.21964 -0.11588 -0.02401
 H50 H 0.28750 -0.15612 0.01055
 H51 H 0.20105 -0.14930 0.01411
 H52 H 0.27794 -0.11368 0.03833
 H53 H 0.28752 -0.13662 -0.07472
 H54 H 0.21243 -0.11891 0.09577
 C55 C 0.23802 0.09771 0.53873
 C56 C 0.25250 0.11234 0.51868
 C57 C 0.27576 0.12798 0.52558
 C58 C 0.28430 0.12948 0.55266
 C59 C 0.27000 0.11411 0.57251
 C60 C 0.24664 0.09845 0.56581
 C61 C 0.24205 0.11247 0.49084
 C62 C 0.21856 0.12688 0.48502
 C63 C 0.20729 0.12597 0.45898
 C64 C 0.21936 0.10989 0.43894
 C65 C 0.24324 0.09571 0.44446
 C66 C 0.25469 0.09739 0.47046
 H67 H 0.22016 0.08560 0.53301
 H68 H 0.28644 0.13982 0.51008
 H69 H 0.20893 0.13859 0.50087
 H70 H 0.27296 0.08638 0.47507
 H71 H 0.27675 0.11470 0.59337
 H72 H 0.21081 0.10939 0.41874
 C73 C 0.12431 0.53791 0.23994
 C74 C 0.13579 0.51764 0.25578
 C75 C 0.14387 0.52339 0.28229
 C76 C 0.14093 0.54950 0.29312
 C77 C 0.12872 0.56961 0.27729
 C78 C 0.12042 0.56431 0.25033
 C79 C 0.13906 0.49019 0.24448
 C80 C 0.15446 0.48670 0.22079
 C81 C 0.15728 0.46073 0.20947
 C82 C 0.14365 0.43833 0.22179
 C83 C 0.12756 0.44170 0.24517
 C84 C 0.12594 0.46771 0.25676
 H85 H 0.11750 0.53202 0.21999
 H86 H 0.15241 0.50738 0.29439
 H87 H 0.16387 0.50439 0.21112
 H88 H 0.11413 0.47068 0.27511
 H89 H 0.12647 0.58969 0.28591
 H90 H 0.14516 0.41827 0.21291
 C91 C -0.11670 -0.03716 0.23296
 C92 C -0.13214 -0.01538 0.24168
 C93 C -0.14756 -0.01755 0.26565
 C94 C -0.14769 -0.04167 0.28131
 C95 C -0.13157 -0.06336 0.27219
 C96 C -0.11608 -0.06115 0.24818
 C97 C -0.13015 0.01045 0.22664
 C98 C -0.14352 0.01332 0.20182
 C99 C -0.13975 0.03724 0.18627
 C100 C -0.12183 0.05790 0.19617
 C101 C -0.10863 0.05534 0.22123
 C102 C -0.11311 0.03146 0.23636
 H103 H -0.10490 -0.03522 0.21435
 H104 H -0.15825 0.00020 0.27233
 H105 H -0.15588 -0.00367 0.19450
 H106 H -0.10282 0.02882 0.25553
 H107 H -0.13101 -0.08215 0.28363
 H108 H -0.11939 0.07675 0.18502
 C109 C 0.38641 0.47696 0.73178
 C110 C 0.37443 0.49678 0.74813
 C111 C 0.36698 0.49048 0.77502
 C112 C 0.37204 0.46472 0.78608
 C113 C 0.38381 0.44509 0.76908
 C114 C 0.39100 0.45083 0.74202
 C115 C 0.37022 0.52438 0.73722
 C116 C 0.35639 0.52777 0.71267
 C117 C 0.35204 0.55393 0.70248
 C118 C 0.36229 0.57668 0.71675
 C119 C 0.37636 0.57373 0.74132
 C120 C 0.38005 0.54735 0.75141
 H121 H 0.39268 0.48239 0.71138
 H122 H 0.35775 0.50599 0.78740
 H123 H 0.34821 0.51007 0.70210
 H124 H 0.39083 0.54453 0.77028
 H125 H 0.38616 0.42456 0.77628
 H126 H 0.35974 0.59663 0.70808
 C127 C 0.60949 1.04757 0.73710
 C128 C 0.62184 1.02548 0.74961
 C129 C 0.63650 1.02946 0.77377
 C130 C 0.63909 1.05553 0.78562
 C131 C 0.62633 1.07730 0.77259
 C132 C 0.61112 1.07357 0.74878
 C133 C 0.61803 0.99784 0.73820
 C134 C 0.62645 0.99212 0.71155
 C135 C 0.62233 0.96596 0.70062
 C136 C 0.60989 0.94551 0.71681
 C137 C 0.60094 0.95105 0.74325
 C138 C 0.60528 0.97728 0.75391
 H139 H 0.59778 1.04421 0.71878
 H140 H 0.64507 1.01189 0.78333
 H141 H 0.63609 1.00805 0.69935
 H142 H 0.59878 0.98178 0.77443
 H143 H 0.62899 1.09764 0.78061
 H144 H 0.60705 0.92512 0.70881
 C145 C -0.00507 0.24036 -0.11723
 C146 C 0.01575 0.25612 -0.12967
 C147 C 0.01007 0.28214 -0.13970
 C148 C -0.01640 0.29271 -0.13759
 C149 C -0.03664 0.27672 -0.12403
 C150 C -0.03123 0.25077 -0.11399
 C151 C 0.04368 0.24562 -0.13238
 C152 C 0.04817 0.22028 -0.14462
 C153 C 0.07495 0.21155 -0.14963
 C154 C 0.09705 0.22818 -0.14060
 C155 C 0.09273 0.25287 -0.12731
 C156 C 0.06603 0.26157 -0.12349
 H157 H -0.00068 0.22039 -0.10937
 H158 H 0.02636 0.29317 -0.15009
 H159 H 0.03075 0.20815 -0.15150
 H160 H 0.06260 0.28081 -0.11347
 H161 H -0.05714 0.28412 -0.12155
 H162 H 0.11778 0.22130 -0.14203
 C163 C 0.54157 0.23713 0.11959
 C164 C 0.51975 0.25091 0.13112
 C165 C 0.52451 0.27595 0.14402
 C166 C 0.55111 0.28733 0.14572
 C167 C 0.57274 0.27367 0.13322
 C168 C 0.56820 0.24848 0.12029
 C169 C 0.49178 0.23930 0.12937
 C170 C 0.48448 0.21567 0.14391
 C171 C 0.45744 0.20559 0.14366
 C172 C 0.43813 0.21850 0.12753
 C173 C 0.44537 0.24159 0.11201
 C174 C 0.47224 0.25222 0.11358
 H175 H 0.53749 0.21805 0.10919
 H176 H 0.50734 0.28651 0.15250
 H177 H 0.49954 0.20588 0.15629
 H178 H 0.47819 0.27035 0.10226
 H179 H 0.59331 0.28233 0.13407
 H180 H 0.41731 0.21060 0.12746
 C181 C 0.99664 0.74122 0.62419
 C182 C 0.97600 0.75568 0.63704
 C183 C 0.98243 0.78010 0.65068
 C184 C 1.00978 0.78973 0.65248
 C185 C 1.03014 0.77476 0.63922
 C186 C 1.02378 0.75089 0.62485
 C187 C 0.94778 0.74451 0.63706
 C188 C 0.94194 0.71911 0.64903
 C189 C 0.91514 0.70829 0.64962
 C190 C 0.89430 0.72294 0.63728
 C191 C 0.89999 0.74821 0.62491
 C192 C 0.92681 0.75895 0.62498
 H193 H 0.99131 0.72279 0.61317
 H194 H 0.96614 0.79032 0.66107
 H195 H 0.95826 0.70809 0.65840
 H196 H 0.93143 0.77845 0.61551
 H197 H 1.05130 0.78177 0.63976
 H198 H 0.87376 0.71432 0.63635
 C199 C 0.45657 0.73212 0.39314
 C200 C 0.47680 0.74637 0.37813
 C201 C 0.47069 0.77125 0.36589
 C202 C 0.44439 0.78164 0.36818
 C203 C 0.42475 0.76777 0.38425
 C204 C 0.43060 0.74299 0.39663
 C205 C 0.50434 0.73522 0.37530
 C206 C 0.50769 0.70910 0.36453
 C207 C 0.53379 0.69815 0.36261
 C208 C 0.55644 0.71342 0.37212
 C209 C 0.55356 0.73988 0.38243
 C210 C 0.52727 0.75058 0.38384
 H211 H 0.46134 0.71301 0.40272
 H212 H 0.48609 0.78189 0.35372
 H213 H 0.48996 0.69733 0.35787
 H214 H 0.52445 0.77079 0.39198
 H215 H 0.40459 0.77599 0.38671
 H216 H 0.57632 0.70444 0.37142
 C217 C 0.41888 -0.03133 0.28858
 H218 H 0.42362 -0.01089 0.29551
 C219 C 0.43148 -0.05347 0.30061
 H220 H 0.44588 -0.04981 0.31684
 C221 C 0.39241 -0.06099 0.26072
 H222 H 0.37648 -0.06406 0.24596
 C223 C 0.40438 -0.08357 0.27218
 H224 H 0.39780 -0.10370 0.26560
 N225 N 0.39946 -0.03551 0.26930
 C226 C 0.38382 0.04141 0.22990
 H227 H 0.36180 0.03973 0.23155
 C228 C 0.39602 0.06394 0.21735
 H229 H 0.38306 0.07939 0.20919
 C230 C 0.42705 0.02292 0.23869
 H231 H 0.43892 0.00683 0.24718
 C232 C 0.44025 0.04533 0.22619
 H233 H 0.46233 0.04639 0.22555
 Zn234 Zn 0.37831 -0.00621 0.25757
 N235 N 0.39931 0.02165 0.24053
 C236 C 0.36887 0.03381 0.29702
 N237 N 0.36102 0.00844 0.28861
 C238 C 0.34219 -0.00674 0.30282
 C239 C 0.32943 0.00410 0.32570
 C240 C 0.35714 0.04514 0.32007
 C241 C 0.36342 -0.02739 0.20759
 C242 C 0.34649 -0.03751 0.18712
 C243 C 0.30741 -0.02885 0.21562
 C244 C 0.32515 -0.01873 0.23554
 N245 N 0.35263 -0.01869 0.23141
 H246 H 0.38447 0.04528 0.28604
 H247 H 0.33693 -0.02719 0.29626
 H248 H 0.31410 -0.00795 0.33657
 H249 H 0.36338 0.06551 0.32619
 H250 H 0.38534 -0.02674 0.20467
 H251 H 0.35569 -0.04452 0.16845
 H252 H 0.28574 -0.02953 0.21993
 H253 H 0.31685 -0.01112 0.25430
 C254 C 0.42460 0.06634 0.21546
 C255 C 0.42374 -0.08006 0.29280
 C256 C 0.31803 -0.03854 0.19095
 C257 C 0.33703 0.03031 0.33457
 C258 C 0.08595 1.01698 0.79158
 H259 H 0.08204 0.99785 0.80189
 C260 C 0.07400 1.04073 0.80131
 H261 H 0.06091 1.03965 0.81907
 C262 C 0.10998 1.04228 0.75775
 H263 H 0.12464 1.04336 0.74138
 C264 C 0.09857 1.06624 0.76669
 H265 H 0.10447 1.08518 0.75678
 N266 N 0.10431 1.01834 0.77069
 C267 C 0.12234 0.94271 0.73026
 H268 H 0.14333 0.94849 0.72582
 C269 C 0.11129 0.91916 0.71883
 H270 H 0.12390 0.90775 0.70508
 C271 C 0.08066 0.95135 0.75287
 H272 H 0.06891 0.96402 0.76622
 C273 C 0.06873 0.92749 0.74195
 H274 H 0.04779 0.92189 0.74704
 Zn275 Zn 0.12684 0.98867 0.76147
 N276 N 0.10717 0.95827 0.74704
 C277 C 0.15938 0.95315 0.79075
 N278 N 0.14617 0.97702 0.79244
 C279 C 0.14609 0.99163 0.81586
 C280 C 0.15893 0.98186 0.83902
 C281 C 0.17223 0.94253 0.81340
 C282 C 0.14163 1.00356 0.70890
 C283 C 0.15804 1.01396 0.68801
 C284 C 0.19543 1.01845 0.71955
 C285 C 0.17826 1.00765 0.73989
 N286 N 0.15183 1.00077 0.73426
 H287 H 0.15957 0.94199 0.77192
 H288 H 0.13606 1.01090 0.81666
 H289 H 0.15869 0.99421 0.85712
 H290 H 0.18204 0.92316 0.81148
 H291 H 0.12045 0.99814 0.70505
 H292 H 0.14923 1.01613 0.66807
 H293 H 0.21600 1.02476 0.72491
 H294 H 0.18577 1.00553 0.76033
 C295 C 0.08437 0.91079 0.72509
 C296 C 0.08115 1.06589 0.78931
 C297 C 0.18530 1.02191 0.69312
 C298 C 0.17183 0.95661 0.83821
 C299 C 0.59160 0.52543 0.27478
 H300 H 0.57964 0.50945 0.26504
 C301 C 0.57862 0.54584 0.28964
 H302 H 0.55656 0.54559 0.29129
 C303 C 0.63498 0.54537 0.28491
 H304 H 0.65698 0.54500 0.28304
 C305 C 0.62302 0.56569 0.30002
 H306 H 0.63601 0.58119 0.30932
 N307 N 0.61937 0.52546 0.27316
 C308 C 0.62534 0.47141 0.20878
 H309 H 0.63709 0.48720 0.19854
 C310 C 0.61577 0.44918 0.19380
 H311 H 0.61956 0.44895 0.17217
 C312 C 0.60683 0.45235 0.24921
 H313 H 0.60422 0.45338 0.27099
 C314 C 0.59706 0.42946 0.23494
 H315 H 0.58670 0.41307 0.24588
 Zn316 Zn 0.64122 0.49922 0.25622
 N317 N 0.62132 0.47242 0.23608
 C318 C 0.68063 0.46335 0.27815
 N319 N 0.66067 0.48121 0.28392
 C320 C 0.65272 0.48573 0.30998
 C321 C 0.66573 0.47324 0.33144
 C322 C 0.69448 0.45053 0.29916
 C323 C 0.65149 0.53626 0.21534
 C324 C 0.66582 0.55059 0.19523
 C325 C 0.70746 0.53090 0.21103
 C326 C 0.69222 0.51685 0.23095
 N327 N 0.66462 0.51918 0.23219
 H328 H 0.68585 0.45910 0.25726
 H329 H 0.63581 0.49867 0.31432
 H330 H 0.65834 0.47692 0.35178
 H331 H 0.71066 0.43678 0.29421
 H332 H 0.62958 0.53803 0.21701
 H333 H 0.65473 0.56350 0.18163
 H334 H 0.72919 0.52777 0.20961
 H335 H 0.70242 0.50366 0.24487
 C336 C 0.60242 0.42725 0.20698
 C337 C 0.59456 0.56585 0.30301
 C338 C 0.69412 0.54770 0.19252
 C339 C 0.68738 0.45580 0.32631
 C340 C 0.90930 0.46168 0.78261
 H341 H 0.91463 0.48265 0.78727
 C342 C 0.92230 0.44060 0.79616
 H343 H 0.93786 0.44538 0.81105
 C344 C 0.88105 0.42970 0.75925
 H345 H 0.86428 0.42531 0.74572
 C346 C 0.89316 0.40824 0.77249
 H347 H 0.88598 0.38761 0.76847
 N348 N 0.88881 0.45587 0.76480
 C349 C 0.86621 0.52828 0.72034
 H350 H 0.84461 0.52314 0.72131
 C351 C 0.87497 0.55227 0.70789
 H352 H 0.85988 0.56516 0.69896
 C353 C 0.91165 0.51771 0.73168
 H354 H 0.92568 0.50433 0.74148
 C355 C 0.92142 0.54187 0.71935
 H356 H 0.94304 0.54693 0.71996
 Zn357 Zn 0.86596 0.48324 0.75128
 N358 N 0.88433 0.51181 0.73236
 C359 C 0.85627 0.52476 0.78837
 N360 N 0.84799 0.49905 0.78144
 C361 C 0.82926 0.48491 0.79679
 C362 C 0.81745 0.49706 0.81958
 C363 C 0.84543 0.53739 0.81110
 C364 C 0.85432 0.45879 0.70270
 C365 C 0.83941 0.44667 0.68183
 C366 C 0.79825 0.45238 0.70821
 C367 C 0.81407 0.46464 0.72866
 N368 N 0.84163 0.46729 0.72563
 H369 H 0.87176 0.53549 0.77658
 H370 H 0.82361 0.46419 0.79145
 H371 H 0.80238 0.48574 0.83153
 H372 H 0.85215 0.55797 0.81592
 H373 H 0.87625 0.46139 0.70074
 H374 H 0.85022 0.44018 0.66384
 H375 H 0.77649 0.44990 0.71149
 H376 H 0.80429 0.47190 0.74686
 C377 C 0.90279 0.55976 0.70771
 C378 C 0.91350 0.41359 0.79171
 C379 C 0.81093 0.44320 0.68426
 C380 C 0.82580 0.52354 0.82707
 C381 C 0.31501 0.41068 -0.03276
 H382 H 0.32841 0.39768 -0.02175
 C383 C 0.32547 0.42545 -0.05471
 H384 H 0.34691 0.42386 -0.05984
 C385 C 0.27069 0.42686 -0.04078
 H386 H 0.24914 0.42642 -0.03577
 C387 C 0.28033 0.44191 -0.06318
 H388 H 0.26594 0.45286 -0.07530
 N389 N 0.28794 0.41107 -0.02659
 C390 C 0.24959 0.38074 0.04749
 H391 H 0.25385 0.35965 0.04348
 C392 C 0.23467 0.38755 0.07037
 H393 H 0.22792 0.37163 0.08423
 C394 C 0.25307 0.42697 0.03379
 H395 H 0.25996 0.44203 0.01911
 C396 C 0.23833 0.43480 0.05686
 H397 H 0.23393 0.45602 0.06003
 Zn398 Zn 0.27379 0.38495 -0.00164
 N399 N 0.25782 0.40019 0.02943
 C400 C 0.32012 0.37786 0.02814
 N401 N 0.30259 0.36384 0.01170
 C402 C 0.30547 0.33682 0.00698
 C403 C 0.32723 0.32312 0.01850
 C404 C 0.34196 0.36502 0.04010
 C405 C 0.21978 0.36942 -0.01169
 C406 C 0.19773 0.35560 -0.02341
 C407 C 0.22926 0.33148 -0.05178
 C408 C 0.25090 0.34608 -0.03957
 N409 N 0.24584 0.36407 -0.01930
 H410 H 0.31694 0.39918 0.03209
 H411 H 0.29088 0.32579 -0.00544
 H412 H 0.32930 0.30163 0.01447
 H413 H 0.35500 0.37672 0.05362
 H414 H 0.21583 0.38492 0.00319
 H415 H 0.17736 0.36092 -0.01718
 H416 H 0.23364 0.31683 -0.06750
 H417 H 0.27166 0.34301 -0.04623
 C418 C 0.22831 0.41475 0.07495
 C419 C 0.30797 0.44055 -0.07087
 C420 C 0.20223 0.33581 -0.04332
 C421 C 0.34600 0.33729 0.03516
 C422 C 0.79704 0.10922 1.00685
 H423 H 0.80672 0.11458 0.98775
 C424 C 0.81142 0.09465 1.02611
 H425 H 0.83209 0.08868 1.02165
 C426 C 0.75932 0.11255 1.03693
 H427 H 0.73960 0.12058 1.04167
 C428 C 0.77271 0.09743 1.05650
 H429 H 0.76306 0.09392 1.07607
 N430 N 0.77191 0.11872 1.01292
 C431 C 0.72927 0.15031 0.94311
 H432 H 0.73280 0.17169 0.94739
 C433 C 0.71413 0.14243 0.92057
 H434 H 0.70678 0.15812 0.90735
 C435 C 0.73593 0.10431 0.95503
 H436 H 0.74447 0.08966 0.96871
 C437 C 0.72055 0.09544 0.93267
 H438 H 0.71729 0.07385 0.92926
 Zn439 Zn 0.75868 0.14607 0.98983
 N440 N 0.73984 0.13138 0.95976
 C441 C 0.79721 0.16512 0.95083
 N442 N 0.78969 0.16677 0.97740
 C443 C 0.80552 0.18070 0.99557
 C444 C 0.82931 0.19464 0.98700
 C445 C 0.82115 0.17816 0.94157
 C446 C 0.70879 0.15567 1.01477
 C447 C 0.68884 0.16971 1.02889
 C448 C 0.71938 0.20905 1.03008
 C449 C 0.73876 0.19422 1.01579
 N450 N 0.73338 0.16784 1.00889
 H451 H 0.78508 0.15306 0.93686
 H452 H 0.79984 0.18069 1.01680
 H453 H 0.84166 0.20569 1.00167
 H454 H 0.82688 0.17656 0.92039
 H455 H 0.70472 0.13488 1.00852
 H456 H 0.66950 0.15942 1.03336
 H457 H 0.72464 0.22967 1.03602
 H458 H 0.75807 0.20389 1.01039
 C459 C 0.70906 0.11466 0.91529
 C460 C 0.79952 0.08942 1.05158
 C461 C 0.69392 0.19679 1.03687
 C462 C 0.83736 0.19333 0.95968
 C463 C 0.25809 0.61065 0.53563
 H464 H 0.26831 0.61063 0.51612
 C465 C 0.27066 0.59921 0.55822
 H466 H 0.29047 0.59021 0.55589
 C467 C 0.22118 0.62477 0.56303
 H468 H 0.20242 0.63552 0.56526
 C469 C 0.23290 0.61357 0.58595
 H470 H 0.22252 0.61532 0.60530
 N471 N 0.23425 0.62395 0.53864
 C472 C 0.19347 0.64624 0.46408
 H473 H 0.19385 0.66786 0.46813
 C474 C 0.18024 0.63619 0.44122
 H475 H 0.17080 0.65033 0.42758
 C476 C 0.20645 0.60192 0.47672
 H477 H 0.21677 0.58883 0.49071
 C478 C 0.19368 0.59095 0.45364
 H479 H 0.19422 0.56929 0.44988
 Zn480 Zn 0.22267 0.64744 0.51077
 N481 N 0.20618 0.62919 0.48127
 C482 C 0.26215 0.66261 0.47181
 N483 N 0.25392 0.66718 0.49778
 C484 C 0.26894 0.68357 0.51459
 C485 C 0.29274 0.69690 0.50506
 C486 C 0.28604 0.67496 0.46170
 C487 C 0.17061 0.65810 0.52863
 C488 C 0.14912 0.67239 0.53972
 C489 C 0.17902 0.71215 0.54256
 C490 C 0.19997 0.69706 0.53111
 N491 N 0.19555 0.67037 0.52492
 H492 H 0.25056 0.64886 0.45896
 H493 H 0.26263 0.68603 0.53549
 H494 H 0.30451 0.70990 0.51861
 H495 H 0.29227 0.67100 0.44099
 H496 H 0.16757 0.63690 0.52331
 H497 H 0.12957 0.66193 0.54263
 H498 H 0.18352 0.73300 0.54826
 H499 H 0.21978 0.70662 0.52765
 C500 C 0.18017 0.60823 0.43574
 C501 C 0.25859 0.60179 0.58396
 C502 C 0.15310 0.69977 0.54714
 C503 C 0.30152 0.69248 0.47830
 C504 C 0.78285 0.90735 0.46827
 H505 H 0.79265 0.90099 0.48671
 C506 C 0.79886 0.91584 0.44615
 H507 H 0.82090 0.91626 0.44788
 C508 C 0.74240 0.91324 0.44314
 H509 H 0.72046 0.91120 0.44165
 C510 C 0.75764 0.92233 0.42066
 H511 H 0.74721 0.92739 0.40211
 N512 N 0.75520 0.90516 0.46607
 C513 C 0.70013 0.89294 0.53509
 H514 H 0.69418 0.87212 0.53048
 C515 C 0.68829 0.90593 0.55710
 H516 H 0.67320 0.89482 0.56918
 C517 C 0.72791 0.93196 0.52531
 H518 H 0.74357 0.94179 0.51290
 C519 C 0.71665 0.94578 0.54744
 H520 H 0.72350 0.96646 0.55153
 Zn521 Zn 0.73562 0.88422 0.49256
 N522 N 0.71972 0.90588 0.51988
 C523 C 0.76257 0.86009 0.53674
 N524 N 0.76040 0.86032 0.50924
 C525 C 0.77706 0.84521 0.49342
 C526 C 0.79729 0.82961 0.50514
 C527 C 0.78221 0.84450 0.54929
 C528 C 0.68364 0.87770 0.47002
 C529 C 0.66104 0.86402 0.45888
 C530 C 0.68671 0.82279 0.45843
 C531 C 0.70872 0.83720 0.46997
 N532 N 0.70684 0.86419 0.47547
 H533 H 0.74949 0.87243 0.54906
 H534 H 0.77514 0.84590 0.47159
 H535 H 0.81046 0.81790 0.49219
 H536 H 0.78387 0.84494 0.57118
 H537 H 0.68257 0.89912 0.47474
 H538 H 0.64282 0.87520 0.45465
 H539 H 0.68847 0.80128 0.45431
 H540 H 0.72716 0.82670 0.47469
 C541 C 0.69678 0.93255 0.56393
 C542 C 0.78626 0.92250 0.42164
 C543 C 0.66236 0.83614 0.45311
 C544 C 0.80023 0.82943 0.53346
 C545 C -0.01766 0.26069 0.39751
 H546 H -0.00249 0.25227 0.41068
 C547 C -0.03936 0.27521 0.40848
 H548 H -0.04089 0.27800 0.43022
 C549 C -0.03445 0.26737 0.35306
 H550 H -0.03240 0.26406 0.33146
 C551 C -0.05601 0.28222 0.36304
 H552 H -0.07078 0.29001 0.34897
 N553 N -0.01554 0.25744 0.37018
 C554 C 0.02949 0.19830 0.38819
 H555 H 0.00915 0.18986 0.38537
 C556 C 0.04875 0.18303 0.40169
 H557 H 0.04290 0.16309 0.40941
 C558 C 0.06221 0.23396 0.38075
 H559 H 0.06754 0.25354 0.37194
 C560 C 0.08202 0.21954 0.39448
 H561 H 0.10254 0.22814 0.39610
 Zn562 Zn 0.01285 0.23922 0.35242
 N563 N 0.03674 0.22284 0.37719
 C564 C 0.05393 0.25774 0.31439
 N565 N 0.03303 0.26511 0.33093
 C566 C 0.02715 0.29174 0.33440
 C567 C 0.04198 0.31202 0.32072
 C568 C 0.06934 0.27752 0.30009
 C569 C -0.02595 0.19873 0.34447
 C570 C -0.03976 0.17680 0.33259
 C571 C -0.00988 0.18135 0.29363
 C572 C 0.00345 0.20343 0.30635
 N573 N -0.00446 0.21130 0.33161
 H574 H 0.05903 0.23657 0.31268
 H575 H 0.01139 0.29758 0.34843
 H576 H 0.03681 0.33298 0.32433
 H577 H 0.08550 0.27093 0.28682
 H578 H -0.03224 0.20560 0.36432
 H579 H -0.05694 0.16749 0.34334
 H580 H -0.00309 0.17494 0.27376
 H581 H 0.02024 0.21387 0.29616
 C582 C 0.07563 0.19329 0.40414
 C583 C -0.05847 0.28663 0.39101
 C584 C -0.03142 0.16737 0.30710
 C585 C 0.06355 0.30525 0.30331
 C586 C 1.02354 0.79323 0.11210
 H587 H 1.01150 0.80447 0.12634
 C588 C 1.04458 0.80679 0.09793
 H589 H 1.04851 0.82821 0.10182
 C590 C 1.03323 0.75203 0.08980
 H591 H 1.02858 0.73072 0.08645
 C592 C 1.05453 0.76480 0.07514
 H593 H 1.06654 0.75271 0.06145
 N594 N 1.01921 0.76596 0.10899
 C595 C 0.96567 0.69808 0.12319
 H596 H 0.97813 0.68985 0.13902
 C597 C 0.94394 0.68239 0.11302
 H598 H 0.94053 0.66196 0.12069
 C599 C 0.95453 0.73489 0.09471
 H600 H 0.95839 0.75568 0.08828
 C601 C 0.93240 0.71986 0.08400
 H602 H 0.91935 0.72922 0.06925
 Zn603 Zn 0.99567 0.74634 0.13374
 N604 N 0.97010 0.72409 0.11453
 C605 C 0.94829 0.76998 0.15605
 N606 N 0.97609 0.77080 0.15625
 C607 C 0.99009 0.78861 0.17251
 C608 C 0.97616 0.80740 0.18828
 C609 C 0.93355 0.78814 0.17179
 C610 C 1.03403 0.70583 0.14423
 C611 C 1.04905 0.68802 0.15981
 C612 C 1.02890 0.70689 0.20015
 C613 C 1.01430 0.72449 0.18373
 N614 N 1.01707 0.72370 0.15625
 H615 H 0.93739 0.75540 0.14352
 H616 H 1.01216 0.78848 0.17290
 H617 H 0.98768 0.82184 0.20057
 H618 H 0.91149 0.78764 0.17059
 H619 H 1.03546 0.70476 0.12247
 H620 H 1.06224 0.67392 0.14959
 H621 H 1.02551 0.70741 0.22182
 H622 H 1.00014 0.73817 0.19303
 C623 C 0.92629 0.69361 0.09395
 C624 C 1.06113 0.79238 0.07991
 C625 C 1.04660 0.68824 0.18819
 C626 C 0.94752 0.80739 0.18794
 C627 C 0.52212 0.30186 0.59939
 H628 H 0.50660 0.31333 0.60946
 C629 C 0.54499 0.31564 0.58873
 H630 H 0.54615 0.33759 0.59010
 C631 C 0.53972 0.25948 0.58609
 H632 H 0.53793 0.23751 0.58606
 C633 C 0.56314 0.27247 0.57535
 H634 H 0.57916 0.26028 0.56686
 N635 N 0.52025 0.27424 0.59862
 C636 C 0.44409 0.23098 0.61743
 H637 H 0.44582 0.23288 0.63921
 C638 C 0.42131 0.21794 0.60635
 H639 H 0.40565 0.20988 0.61996
 C640 C 0.46321 0.23874 0.57374
 H641 H 0.47978 0.24687 0.56131
 C642 C 0.44056 0.22567 0.56165
 H643 H 0.43977 0.22429 0.53979
 Zn644 Zn 0.49412 0.25581 0.62082
 N645 N 0.46456 0.24076 0.60120
 C646 C 0.46077 0.29823 0.63500
 N647 N 0.47913 0.28102 0.64562
 C648 C 0.48635 0.28261 0.67216
 C649 C 0.47583 0.30289 0.68879
 C650 C 0.44963 0.31862 0.65088
 C651 C 0.50412 0.20090 0.63205
 C652 C 0.51765 0.17892 0.64300
 C653 C 0.54721 0.21058 0.66708
 C654 C 0.53350 0.23204 0.65514
 N655 N 0.51199 0.22689 0.63840
 H656 H 0.45518 0.29642 0.61388
 H657 H 0.50062 0.26857 0.68043
 H658 H 0.48288 0.30426 0.70947
 H659 H 0.43528 0.33219 0.64176
 H660 H 0.48767 0.19702 0.61802
 H661 H 0.51095 0.15842 0.63781
 H662 H 0.56413 0.21492 0.68058
 H663 H 0.54020 0.25281 0.65900
 C664 C 0.41933 0.21474 0.57813
 C665 C 0.56651 0.30084 0.57770
 C666 C 0.53941 0.18365 0.66081
 C667 C 0.45725 0.32141 0.67816
 C668 C 0.47638 0.80091 0.89602
 H669 H 0.49275 0.81224 0.88602
 C670 C 0.45437 0.81479 0.90685
 H671 H 0.45402 0.83672 0.90506
 C672 C 0.45652 0.75868 0.90990
 H673 H 0.45699 0.73675 0.91028
 C674 C 0.43425 0.77181 0.92138
 H675 H 0.41777 0.75982 0.93054
 N676 N 0.47644 0.77325 0.89651
 C677 C 0.54293 0.71866 0.87995
 H678 H 0.53764 0.71404 0.85917
 C679 C 0.56424 0.70528 0.89219
 H680 H 0.57522 0.69037 0.88057
 C681 C 0.53526 0.74430 0.91984
 H682 H 0.52381 0.75959 0.93038
 C683 C 0.55684 0.73155 0.93285
 H684 H 0.56166 0.73693 0.95359
 Zn685 Zn 0.50138 0.75478 0.87371
 N686 N 0.52898 0.73780 0.89376
 C687 C 0.54605 0.78177 0.84746
 N688 N 0.51829 0.78002 0.84894
 C689 C 0.50267 0.79703 0.83420
 C690 C 0.51495 0.81725 0.81790
 C691 C 0.55911 0.80118 0.83089
 C692 C 0.47722 0.70307 0.86849
 C693 C 0.46470 0.68077 0.85572
 C694 C 0.46103 0.70775 0.81507
 C695 C 0.47408 0.72949 0.82852
 N696 N 0.48192 0.72677 0.85478
 H697 H 0.55825 0.76846 0.85949
 H698 H 0.48065 0.79550 0.83584
 H699 H 0.50229 0.83106 0.80680
 H700 H 0.58121 0.80253 0.83037
 H701 H 0.48377 0.70129 0.88929
 H702 H 0.46127 0.66211 0.86703
 H703 H 0.45509 0.71011 0.79410
 H704 H 0.47814 0.74834 0.81785
 C705 C 0.57172 0.71182 0.91886
 C706 C 0.43242 0.80009 0.91872
 C707 C 0.45665 0.68288 0.82858
 C708 C 0.54351 0.81942 0.81613
 C709 C 0.44825 -0.14979 0.33597
 C710 C 0.42251 -0.14871 0.32383
 N711 N 0.40462 -0.17008 0.32620
 C712 C 0.41119 -0.19258 0.34038
 C713 C 0.43692 -0.19387 0.35279
 N714 N 0.45499 -0.17240 0.35005
 N715 N 0.46594 -0.12812 0.33364
 C716 C 0.45895 -0.10536 0.31982
 C717 C 0.43309 -0.10427 0.30762
 N718 N 0.41565 -0.12618 0.30998
 H719 H 0.39658 -0.20945 0.34157
 H720 H 0.47353 -0.08851 0.31817
 C721 C 0.94059 0.34637 0.83646
 C722 C 0.95960 0.36459 0.82456
 N723 N 0.98662 0.35944 0.82625
 C724 C 0.99550 0.33668 0.83885
 C725 C 0.97637 0.31779 0.85042
 N726 N 0.94939 0.32379 0.84899
 N727 N 0.91353 0.35095 0.83452
 C728 C 0.90453 0.37282 0.82080
 C729 C 0.92342 0.39101 0.80838
 N730 N 0.95068 0.38664 0.81083
 H731 H 1.01723 0.33394 0.83978
 H732 H 0.88278 0.37589 0.81939
 C733 C 0.06380 1.14188 0.82525
 C734 C 0.08880 1.13723 0.81241
 N735 N 0.10842 1.15711 0.81170
 C736 C 0.10448 1.18151 0.82367
 C737 C 0.07948 1.18657 0.83704
 N738 N 0.05957 1.16648 0.83698
 N739 N 0.04445 1.12149 0.82625
 C740 C 0.04911 1.09667 0.81500
 C741 C 0.07419 1.09216 0.80187
 N742 N 0.09327 1.11277 0.80098
 H743 H 0.12053 1.19690 0.82169
 H744 H 0.03337 1.08083 0.81602
 C745 C 0.56534 0.63199 0.34822
 C746 C 0.55174 0.62343 0.32462
 N747 N 0.53101 0.63839 0.31498
 C748 C 0.52367 0.66178 0.32755
 C749 C 0.53811 0.67099 0.35055
 N750 N 0.55841 0.65552 0.36038
 N751 N 0.58624 0.61742 0.35784
 C752 C 0.59480 0.59509 0.34448
 C753 C 0.58229 0.58715 0.32000
 N754 N 0.56059 0.60129 0.31089
 H755 H 0.50764 0.67368 0.31890
 H756 H 0.61179 0.58407 0.35248
 C757 C 0.58404 0.35358 0.16511
 C758 C 0.56790 0.36168 0.18712
 N759 N 0.54649 0.34551 0.19527
 C760 C 0.54042 0.32166 0.18236
 C761 C 0.55654 0.31345 0.16016
 N762 N 0.57808 0.32977 0.15228
 N763 N 0.60562 0.36950 0.15709
 C764 C 0.61179 0.39327 0.16997
 C765 C 0.59560 0.40172 0.19203
 N766 N 0.57407 0.38542 0.20014
 H767 H 0.52356 0.30907 0.18981
 H768 H 0.62959 0.40501 0.16336
 C769 C 0.05388 0.83847 0.68832
 C770 C 0.03601 0.85908 0.69532
 N771 N 0.00916 0.85611 0.68886
 C772 C -0.00054 0.83357 0.67553
 C773 C 0.01767 0.81314 0.66754
 N774 N 0.04441 0.81648 0.67453
 N775 N 0.08054 0.84076 0.69513
 C776 C 0.09047 0.86322 0.70800
 C777 C 0.07309 0.88488 0.71379
 N778 N 0.04599 0.88199 0.70772
 H779 H -0.02191 0.83251 0.67030
 H780 H 0.11182 0.86408 0.71346
 C781 C 0.92338 0.63738 0.67453
 C782 C 0.89769 0.63166 0.68610
 N783 N 0.87847 0.65095 0.68627
 C784 C 0.88361 0.67576 0.67501
 C785 C 0.90915 0.68160 0.66275
 N786 N 0.92857 0.66218 0.66312
 N787 N 0.94252 0.61786 0.67451
 C788 C 0.93700 0.59280 0.68541
 C789 C 0.91101 0.58689 0.69669
 N790 N 0.89218 0.60676 0.69674
 H791 H 0.86792 0.69079 0.67596
 H792 H 0.95249 0.57758 0.68460
 C793 C 0.45660 0.13727 0.17622
 C794 C 0.43109 0.13690 0.18926
 N795 N 0.41535 0.15908 0.18828
 C796 C 0.42373 0.18161 0.17436
 C797 C 0.44897 0.18196 0.16053
 N798 N 0.46504 0.15979 0.16214
 N799 N 0.47202 0.11472 0.17706
 C800 C 0.46290 0.09173 0.19011
 C801 C 0.43700 0.09117 0.20276
 N802 N 0.42200 0.11404 0.20204
 H803 H 0.41073 0.19904 0.17400
 H804 H 0.47540 0.07396 0.18976
 C805 C 0.33669 0.46692 -0.14814
 C806 C 0.34804 0.44490 -0.13474
 N807 N 0.36784 0.43062 -0.14700
 C808 C 0.37649 0.43686 -0.17247
 C809 C 0.36471 0.45855 -0.18673
 N810 N 0.34539 0.47337 -0.17366
 N811 N 0.31655 0.48089 -0.13573
 C812 C 0.30706 0.47353 -0.11063
 C813 C 0.31828 0.45114 -0.09730
 N814 N 0.33869 0.43766 -0.10985
 H815 H 0.39295 0.42530 -0.18086
 H816 H 0.29101 0.48503 -0.10130
 C817 C 0.83079 0.93323 0.34829
 C818 C 0.80893 0.94995 0.35453
 N819 N 0.80170 0.96929 0.33656
 C820 C 0.81540 0.97283 0.31266
 C821 C 0.83734 0.95584 0.30596
 N822 N 0.84412 0.93633 0.32423
 N823 N 0.83837 0.91413 0.36638
 C824 C 0.82497 0.91091 0.39044
 C825 C 0.80262 0.92726 0.39663
 N826 N 0.79510 0.94640 0.37832
 H827 H 0.80825 0.98805 0.29884
 H828 H 0.83118 0.89514 0.40421
 C829 C 0.84413 0.06601 1.12016
 C830 C 0.81928 0.05272 1.11400
 N831 N 0.80896 0.03341 1.13115
 C832 C 0.82220 0.02695 1.15438
 C833 C 0.84666 0.04117 1.16140
 N834 N 0.85683 0.06027 1.14369
 N835 N 0.85484 0.08499 1.10291
 C836 C 0.84155 0.09166 1.07988
 C837 C 0.81601 0.07928 1.07415
 N838 N 0.80547 0.05999 1.09142
 H839 H 0.81268 0.01202 1.16772
 H840 H 0.85022 0.10740 1.06684
 C841 C 0.30389 0.58491 0.65455
 C842 C 0.30545 0.56781 0.63186
 N843 N 0.32196 0.54607 0.63266
 C844 C 0.33700 0.54073 0.65510
 C845 C 0.33571 0.55812 0.67774
 N846 N 0.31909 0.57980 0.67671
 N847 N 0.28742 0.60656 0.65405
 C848 C 0.27232 0.61198 0.63184
 C849 C 0.27382 0.59507 0.60884
 N850 N 0.29060 0.57338 0.60940
 H851 H 0.35020 0.52345 0.65503
 H852 H 0.25987 0.62980 0.63195
 C853 C 0.14675 0.58196 0.36103
 C854 C 0.17012 0.56997 0.37149
 N855 N 0.18325 0.55117 0.35654
 C856 C 0.17413 0.54385 0.33153
 C857 C 0.15081 0.55602 0.32079
 N858 N 0.13774 0.57483 0.33600
 N859 N 0.13378 0.60099 0.37581
 C860 C 0.14345 0.60901 0.40038
 C861 C 0.16738 0.59768 0.41063
 N862 N 0.17993 0.57809 0.39596
 H863 H 0.18551 0.52929 0.31993
 H864 H 0.13269 0.62431 0.41165
 C865 C 0.66291 0.09158 0.84615
 C866 C 0.68181 0.07387 0.85703
 N867 N 0.68587 0.04965 0.84459
 C868 C 0.67203 0.04245 0.82165
 C869 C 0.65345 0.06065 0.81009
 N870 N 0.64958 0.08469 0.82315
 N871 N 0.65824 0.11557 0.85856
 C872 C 0.67213 0.12304 0.88117
 C873 C 0.69216 0.10598 0.89171
 N874 N 0.69615 0.08146 0.87947
 H875 H 0.67654 0.02325 0.81227
 H876 H 0.66736 0.14211 0.89074
 C877 C 0.66489 0.96344 0.63773
 C878 C 0.65002 0.94445 0.62213
 N879 N 0.62586 0.93409 0.63158
 C880 C 0.61609 0.94138 0.65628
 C881 C 0.63132 0.95968 0.67258
 N882 N 0.65527 0.97063 0.66260
 N883 N 0.68928 0.97341 0.62824
 C884 C 0.69967 0.96493 0.60406
 C885 C 0.68513 0.94525 0.58868
 N886 N 0.66048 0.93581 0.59824
 H887 H 0.59670 0.93277 0.66318
 H888 H 0.71954 0.97267 0.59763
 C889 C 0.18042 0.43138 0.14418
 C890 C 0.20297 0.44831 0.13735
 N891 N 0.21024 0.46915 0.15407
 C892 C 0.19598 0.47385 0.17730
 C893 C 0.17333 0.45685 0.18424
 N894 N 0.16625 0.43601 0.16732
 N895 N 0.17326 0.41030 0.12779
 C896 C 0.18791 0.40507 0.10503
 C897 C 0.21089 0.42161 0.09834
 N898 N 0.21771 0.44310 0.11459
 H899 H 0.20273 0.49028 0.19041
 H900 H 0.18176 0.38805 0.09235
 C901 C -0.12735 0.32957 0.41688
 C902 C -0.11888 0.30685 0.43147
 N903 N -0.13440 0.29738 0.45255
 C904 C -0.15818 0.30939 0.45947
 C905 C -0.16709 0.33178 0.44438
 N906 N -0.15113 0.34131 0.42358
 N907 N -0.11228 0.33889 0.39553
 C908 C -0.08937 0.32612 0.38762
 C909 C -0.08126 0.30270 0.40149
 N910 N -0.09606 0.29385 0.42345
 H911 H -0.17042 0.30082 0.47585
 H912 H -0.07785 0.33390 0.37036
 C913 C 0.35666 0.83603 0.93570
 C914 C 0.36748 0.81729 0.95379
 N915 N 0.35305 0.81019 0.97641
 C916 C 0.32826 0.82096 0.98180
 C917 C 0.31685 0.83948 0.96333
 N918 N 0.33173 0.84628 0.94071
 N919 N 0.37110 0.84357 0.91326
 C920 C 0.39591 0.83303 0.90794
 C921 C 0.40668 0.81366 0.92565
 N922 N 0.39204 0.80620 0.94822
 H923 H 0.31738 0.81401 0.99971
 H924 H 0.40666 0.83903 0.88957
 C925 C 1.13653 0.82781 0.05273
 C926 C 1.12341 0.83709 0.07611
 N927 N 1.13566 0.85663 0.09145
 C928 C 1.16088 0.86690 0.08499
 C929 C 1.17501 0.85698 0.06202
 N930 N 1.16184 0.83798 0.04619
 N931 N 1.12417 0.80806 0.03752
 C932 C 1.09950 0.79681 0.04499
 C933 C 1.08658 0.80558 0.06896
 N934 N 1.09894 0.82585 0.08363
 H935 H 1.16918 0.88300 0.09760
 H936 H 1.09028 0.78113 0.03239
 C937 C 0.64447 0.33681 0.56100
 C938 C 0.63515 0.31380 0.54665
 N939 N 0.65182 0.30219 0.52815
 C940 C 0.67745 0.31253 0.52339
 C941 C 0.68702 0.33549 0.53797
 N942 N 0.67011 0.34698 0.55647
 N943 N 0.62800 0.34827 0.57971
 C944 C 0.60258 0.33770 0.58487
 C945 C 0.59311 0.31437 0.57076
 N946 N 0.60986 0.30301 0.55196
 H947 H 0.69041 0.30244 0.50891
 H948 H 0.59044 0.34692 0.60057
 C949 C 0.35091 0.16790 0.55047
 C950 C 0.35056 0.18138 0.57548
 N951 N 0.32863 0.17831 0.59219
 C952 C 0.30704 0.16199 0.58521
 C953 C 0.30740 0.14785 0.56039
 N954 N 0.32932 0.15149 0.54341
 N955 N 0.37319 0.17087 0.53405
 C956 C 0.39526 0.18648 0.54167
 C957 C 0.39514 0.19967 0.56707
 N958 N 0.37250 0.19675 0.58308
 H959 H 0.28970 0.16029 0.59887
 H960 H 0.41291 0.18769 0.52842
 C961 C 0.85116 0.65419 0.07344
 C962 C 0.86538 0.67013 0.05427
 N963 N 0.85443 0.67347 0.02931
 C964 C 0.82984 0.66169 0.02267
 C965 C 0.81502 0.64590 0.04213
 N966 N 0.82659 0.64277 0.06700
 N967 N 0.86178 0.65076 0.09846
 C968 C 0.88611 0.66266 0.10527
 C969 C 0.90056 0.67899 0.08624
 N970 N 0.88964 0.68239 0.06109
 H971 H 0.82198 0.66564 0.00273
 H972 H 0.89356 0.66004 0.12567
 C973 C 0.64213 0.67342 0.94823
 C974 C 0.62386 0.65989 0.93074
 N975 N 0.62958 0.63474 0.92147
 C976 C 0.65313 0.62266 0.92835
 C977 C 0.67222 0.63652 0.94497
 N978 N 0.66592 0.66151 0.95490
 N979 N 0.63626 0.69870 0.95732
 C980 C 0.61317 0.71122 0.94935
 C981 C 0.59525 0.69802 0.93105
 N982 N 0.60113 0.67250 0.92248
 H983 H 0.65690 0.60247 0.92073
 H984 H 0.60952 0.73165 0.95633
 C985 C 0.14073 0.14522 0.43022
 C986 C 0.13935 0.17262 0.43797
 N987 N 0.15965 0.18401 0.45313
 C988 C 0.18140 0.16929 0.46076
 C989 C 0.18319 0.14203 0.45245
 N990 N 0.16270 0.13068 0.43734
 N991 N 0.12031 0.13373 0.41532
 C992 C 0.09862 0.14845 0.40758
 C993 C 0.09746 0.17613 0.41468
 N994 N 0.11799 0.18751 0.42976
 H995 H 0.19749 0.17898 0.47255
 H996 H 0.08298 0.13887 0.39516
 C997 C 0.57894 0.11740 0.69684
 C998 C 0.57180 0.14016 0.71222
 N999 N 0.57678 0.14057 0.73920
 C1000 C 0.58895 0.11945 0.75153
 C1001 C 0.59702 0.09680 0.73612
 N1002 N 0.59144 0.09638 0.70905
 N1003 N 0.57320 0.11669 0.66996
 C1004 C 0.56055 0.13770 0.65779
 C1005 C 0.55356 0.16065 0.67314
 N1006 N 0.55950 0.16126 0.70006
 H1007 H 0.59178 0.12036 0.77322
 H1008 H 0.55626 0.13664 0.63632
 C1009 C 1.08786 0.62844 0.23334
 C1010 C 1.08263 0.62512 0.20570
 N1011 N 1.09061 0.60231 0.19291
 C1012 C 1.10325 0.58230 0.20653
 C1013 C 1.10816 0.58496 0.23473
 N1014 N 1.10044 0.60846 0.24711
 N1015 N 1.08004 0.65151 0.24601
 C1016 C 1.06698 0.67129 0.23226
 C1017 C 1.06131 0.66784 0.20443
 N1018 N 1.06959 0.64472 0.19199
 H1019 H 1.10970 0.56510 0.19485
 H1020 H 1.06146 0.68951 0.24297
 C1021 C 0.90403 0.86945 0.22757
 C1022 C 0.93025 0.87457 0.21676
 N1023 N 0.94130 0.90015 0.21753
 C1024 C 0.92713 0.92099 0.22823
 C1025 C 0.90061 0.91612 0.23862
 N1026 N 0.88982 0.89027 0.23831
 N1027 N 0.89283 0.84393 0.22625
 C1028 C 0.90649 0.82338 0.21424
 C1029 C 0.93261 0.82854 0.20292
 N1030 N 0.94389 0.85410 0.20481
 H1031 H 0.93638 0.94123 0.22842
 H1032 H 0.89702 0.80326 0.21354
 C1033 C 0.42522 0.38652 0.72404
 C1034 C 0.42505 0.38697 0.69570
 N1035 N 0.41408 0.40832 0.68263
 C1036 C 0.40323 0.42932 0.69666
 C1037 C 0.40340 0.42907 0.72527
 N1038 N 0.41450 0.40743 0.73804
 N1039 N 0.43560 0.36493 0.73717
 C1040 C 0.44601 0.34371 0.72321
 C1041 C 0.44619 0.34406 0.69461
 N1042 N 0.43551 0.36586 0.68170
 H1043 H 0.39408 0.44554 0.68544
 H1044 H 0.45349 0.32669 0.73451
 C1045 C 0.42064 0.61540 0.78748
 C1046 C 0.41132 0.64174 0.78322
 N1047 N 0.39030 0.64554 0.76600
 C1048 C 0.37835 0.62426 0.75254
 C1049 C 0.38804 0.59774 0.75617
 N1050 N 0.40893 0.59417 0.77386
 N1051 N 0.44133 0.61146 0.80506
 C1052 C 0.45314 0.63271 0.81866
 C1053 C 0.44400 0.65926 0.81435
 N1054 N 0.42327 0.66305 0.79656
 H1055 H 0.36126 0.62821 0.73953
 H1056 H 0.46982 0.62896 0.83231
 C1057 C -0.07357 0.10002 0.27167
 C1058 C -0.06128 0.12030 0.25534
 N1059 N -0.06370 0.11864 0.22799
 C1060 C -0.07823 0.09785 0.21624
 C1061 C -0.09130 0.07782 0.23263
 N1062 N -0.08823 0.07946 0.26001
 N1063 N -0.07097 0.10136 0.29896
 C1064 C -0.05703 0.12238 0.31080
 C1065 C -0.04535 0.14335 0.29463
 N1066 N -0.04750 0.14149 0.26713
 H1067 H -0.07927 0.09703 0.19438
 H1068 H -0.05507 0.12254 0.33262
 C1069 C 0.10843 0.37099 0.26655
 C1070 C 0.08280 0.37463 0.27852
 N1071 N 0.07211 0.39974 0.27929
 C1072 C 0.08604 0.42158 0.26877
 C1073 C 0.11197 0.41823 0.25692
 N1074 N 0.12241 0.39280 0.25592
 N1075 N 0.11906 0.34578 0.26614
 C1076 C 0.10525 0.32403 0.27726
 C1077 C 0.07943 0.32761 0.28945
 N1078 N 0.06907 0.35304 0.28955
 H1079 H 0.07669 0.44124 0.26931
 H1080 H 0.11478 0.30451 0.27701
 C1081 C 0.58308 0.88251 0.77111
 C1082 C 0.56053 0.88789 0.78775
 N1083 N 0.55182 0.91376 0.79000
 C1084 C 0.56465 0.93455 0.77635
 C1085 C 0.58712 0.92923 0.75940
 N1086 N 0.59566 0.90317 0.75719
 N1087 N 0.59213 0.85675 0.76922
 C1088 C 0.57972 0.83607 0.78333
 C1089 C 0.55698 0.84129 0.79992
 N1090 N 0.54788 0.86718 0.80160
 H1091 H 0.55698 0.95488 0.77826
 H1092 H 0.58736 0.81572 0.78146
 C1093 C 0.73448 0.58474 0.12507
 C1094 C 0.70668 0.57762 0.12428
 N1095 N 0.69227 0.58233 0.10150
 C1096 C 0.70443 0.59356 0.07917
 C1097 C 0.73270 0.60052 0.07942
 N1098 N 0.74670 0.59601 0.10283
 N1099 N 0.74887 0.58005 0.14796
 C1100 C 0.73665 0.56833 0.17011
 C1101 C 0.70867 0.56094 0.16934
 N1102 N 0.69447 0.56601 0.14630
 H1103 H 0.69161 0.59746 0.06200
 H1104 H 0.74864 0.56519 0.18811
 C1105 C 0.23090 1.06041 0.62952
 C1106 C 0.20240 1.05766 0.62849
 N1107 N 0.18881 1.06780 0.60705
 C1108 C 0.20247 1.08063 0.58645
 C1109 C 0.23113 1.08361 0.58734
 N1110 N 0.24460 1.07341 0.60906
 N1111 N 0.24438 1.05013 0.65101
 C1112 C 0.23062 1.03740 0.67169
 C1113 C 0.20186 1.03494 0.67100
 N1114 N 0.18868 1.04515 0.64913
 H1115 H 0.19093 1.08899 0.56995
 H1116 H 0.24219 1.02912 0.68817
 C1117 C 0.20904 0.92018 0.90655
 C1118 C 0.21367 0.91072 0.88020
 N1119 N 0.22995 0.88921 0.87621
 C1120 C 0.24212 0.87687 0.89742
 C1121 C 0.23802 0.88657 0.92400
 N1122 N 0.22126 0.90797 0.92781
 N1123 N 0.19235 0.94142 0.91046
 C1124 C 0.18015 0.95374 0.88918
 C1125 C 0.18493 0.94450 0.86249
 N1126 N 0.20162 0.92301 0.85898
 H1127 H 0.25455 0.85946 0.89346
 H1128 H 0.16659 0.97016 0.89339
 C1129 C 0.72771 0.41739 0.39131
 C1130 C 0.72763 0.40594 0.36527
 N1131 N 0.74035 0.38213 0.36094
 C1132 C 0.75320 0.36930 0.38149
 C1133 C 0.75315 0.38067 0.40770
 N1134 N 0.74026 0.40450 0.41187
 N1135 N 0.71548 0.44140 0.39561
 C1136 C 0.70280 0.45437 0.37513
 C1137 C 0.70193 0.44268 0.34900
 N1138 N 0.71472 0.41874 0.34479
 H1139 H 0.76298 0.35025 0.37749
 H1140 H 0.69387 0.47378 0.37933
 C1141 C 0.76866 0.40574 0.61837
 C1142 C 0.79688 0.40334 0.62145
 N1143 N 0.81133 0.38930 0.60282
 C1144 C 0.79883 0.37770 0.58101
 C1145 C 0.77049 0.38022 0.57759
 N1146 N 0.75610 0.39410 0.59662
 N1147 N 0.75437 0.42006 0.63694
 C1148 C 0.76703 0.43214 0.65849
 C1149 C 0.79548 0.42981 0.66173
 N1150 N 0.80949 0.41532 0.64290
 H1151 H 0.81091 0.36636 0.56672
 H1152 H 0.75496 0.44385 0.67241
 C1153 C 0.26825 -0.07360 0.12915
 C1154 C 0.29610 -0.07904 0.13076
 N1155 N 0.30750 -0.09592 0.11238
 C1156 C 0.29227 -0.10759 0.09235
 C1157 C 0.26424 -0.10224 0.09060
 N1158 N 0.25296 -0.08535 0.10926
 N1159 N 0.25695 -0.05657 0.14745
 C1160 C 0.27222 -0.04484 0.16746
 C1161 C 0.30023 -0.05049 0.16943
 N1162 N 0.31132 -0.06747 0.15075
 H1163 H 0.30190 -0.12131 0.07832
 H1164 H 0.26253 -0.03098 0.18126
 C1165 C 0.29783 0.06795 0.40077
 C1166 C 0.28271 0.05267 0.38176
 N1167 N 0.25506 0.05120 0.38385
 C1168 C 0.24180 0.06456 0.40394
 C1169 C 0.25687 0.08006 0.42293
 N1170 N 0.28463 0.08112 0.42093
 N1171 N 0.32541 0.06997 0.39834
 C1172 C 0.33859 0.05766 0.37755
 C1173 C 0.32352 0.04251 0.35831
 N1174 N 0.29586 0.04021 0.36109
 H1175 H 0.21974 0.06298 0.40513
 H1176 H 0.36061 0.05970 0.37604
 C1177 C 0.79032 0.56610 0.89244
 C1178 C 0.77433 0.54870 0.87602
 N1179 N 0.74693 0.54686 0.88010
 C1180 C 0.73470 0.56193 0.89958
 C1181 C 0.75056 0.57987 0.91573
 N1182 N 0.77813 0.58118 0.91191
 N1183 N 0.81766 0.56824 0.88811
 C1184 C 0.82971 0.55415 0.86779
 C1185 C 0.81370 0.53714 0.85087
 N1186 N 0.78634 0.53461 0.85570
 H1187 H 0.71282 0.55987 0.90242
 H1188 H 0.85157 0.55636 0.86478
 C1189 C 0.08780 0.73977 0.58611
 C1190 C 0.08798 0.71139 0.58416
 N1191 N 0.06711 0.69625 0.59512
 C1192 C 0.04598 0.70826 0.60803
 C1193 C 0.04580 0.73679 0.61025
 N1194 N 0.06687 0.75177 0.59915
 N1195 N 0.10856 0.75489 0.57494
 C1196 C 0.12973 0.74290 0.56208
 C1197 C 0.13034 0.71428 0.56044
 N1198 N 0.10915 0.69940 0.57152
 H1199 H 0.02989 0.69561 0.61696
 H1200 H 0.14554 0.75574 0.55305
 C1201 C 0.63179 0.23731 1.08048
 C1202 C 0.63262 0.20886 1.07987
 N1203 N 0.61299 0.19384 1.09295
 C1204 C 0.59231 0.20597 1.10642
 C1205 C 0.59110 0.23455 1.10682
 N1206 N 0.61115 0.24950 1.09393
 N1207 N 0.65130 0.25225 1.06708
 C1208 C 0.67166 0.24005 1.05309
 C1209 C 0.67264 0.21141 1.05239
 N1210 N 0.65288 0.19668 1.06593
 H1211 H 0.57710 0.19339 1.11682
 H1212 H 0.68638 0.25272 1.04220
 C1213 C 0.90794 0.23447 0.92890
 C1214 C 0.90213 0.20729 0.92191
 N1215 N 0.91898 0.19432 0.90449
 C1216 C 0.94124 0.20742 0.89347
 C1217 C 0.94660 0.23495 0.89970
 N1218 N 0.92975 0.24773 0.91741
 N1219 N 0.89135 0.24735 0.94659
 C1220 C 0.86899 0.23435 0.95747
 C1221 C 0.86258 0.20737 0.94988
 N1222 N 0.87945 0.19449 0.93225
 H1223 H 0.95404 0.19677 0.87925
 H1224 H 0.85589 0.24522 0.97123
 C1225 C 0.37134 0.73080 0.44278
 C1226 C 0.36572 0.70297 0.43885
 N1227 N 0.38222 0.68840 0.42246
 C1228 C 0.40394 0.70049 0.40949
 C1229 C 0.40908 0.72858 0.41260
 N1230 N 0.39260 0.74301 0.42933
 N1231 N 0.35498 0.74530 0.45938
 C1232 C 0.33300 0.73329 0.47200
 C1233 C 0.32673 0.70562 0.46734
 N1234 N 0.34343 0.69114 0.45090
 H1235 H 0.41642 0.68850 0.39611
 H1236 H 0.32000 0.74545 0.48470
 C1237 C 0.59472 0.79148 0.42107
 C1238 C 0.62145 0.78599 0.41281
 N1239 N 0.62569 0.76619 0.39426
 C1240 C 0.60446 0.75131 0.38380
 C1241 C 0.57751 0.75616 0.39253
 N1242 N 0.57351 0.77646 0.41087
 N1243 N 0.59042 0.81158 0.43931
 C1244 C 0.61169 0.82649 0.44971
 C1245 C 0.63861 0.82090 0.44169
 N1246 N 0.64273 0.80063 0.42339
 H1247 H 0.60877 0.73619 0.36860
 H1248 H 0.60761 0.84211 0.46452
 C1249 C 0.13503 0.29291 -0.07873
 C1250 C 0.15978 0.29642 -0.09296
 N1251 N 0.16213 0.28607 -0.11836
 C1252 C 0.14087 0.27222 -0.13011
 C1253 C 0.11600 0.26872 -0.11588
 N1254 N 0.11377 0.27931 -0.09050
 N1255 N 0.13280 0.30265 -0.05316
 C1256 C 0.15407 0.31609 -0.04118
 C1257 C 0.17886 0.32036 -0.05552
 N1258 N 0.18105 0.31009 -0.08111
 H1259 H 0.14329 0.26418 -0.15038
 H1260 H 0.15159 0.32296 -0.02052
 C1261 C 0.40888 0.29590 0.07556
 C1262 C 0.38561 0.28181 0.06601
 N1263 N 0.38271 0.25469 0.07050
 C1264 C 0.40179 0.24106 0.08458
 C1265 C 0.42479 0.25528 0.09512
 N1266 N 0.42781 0.28241 0.08990
 N1267 N 0.41199 0.32294 0.07070
 C1268 C 0.39260 0.33668 0.05716
 C1269 C 0.36865 0.32284 0.04833
 N1270 N 0.36608 0.29553 0.05276
 H1271 H 0.39894 0.21936 0.08728
 H1272 H 0.39608 0.35814 0.05334
 C1273 C 0.86320 0.78774 0.57310
 C1274 C 0.83718 0.78957 0.58492
 N1275 N 0.83213 0.77807 0.60952
 C1276 C 0.85193 0.76469 0.62284
 C1277 C 0.87811 0.76293 0.61117
 N1278 N 0.88309 0.77467 0.58653
 N1279 N 0.86810 0.79897 0.54835
 C1280 C 0.84817 0.81201 0.53485
 C1281 C 0.82210 0.81416 0.54675
 N1282 N 0.81739 0.80287 0.57164
 H1283 H 0.84737 0.75580 0.64248
 H1284 H 0.85289 0.82117 0.51537
   
