data_POSCAR
  _audit_creation_date              2014-09-24
  _audit_creation_method            'ToBaCCo'
  _symmetry_space_group_name_H-M    'P1'
  _symmetry_Int_Tables_number       1
  _symmetry_cell_setting            triclinic
  loop_
  _symmetry_equiv_pos_as_xyz
 x,y,z
_cell_length_a 59.8753
_cell_length_b 59.8204
_cell_length_c 59.7542
_cell_angle_alpha 89.937500
_cell_angle_beta 90.024700
_cell_angle_gamma 90.034600
loop_
  _atom_site_label
  _atom_site_type_symbol
  _atom_site_fract_x
  _atom_site_fract_y
  _atom_site_fract_z
C1 C 0.35538 1.35683 0.32833
 C2 C 0.36539 1.33813 0.33830
 C3 C 0.35598 1.32858 0.35752
 C4 C 0.33656 1.33773 0.36683
 C5 C 0.32653 1.35646 0.35691
 C6 C 0.33596 1.36601 0.33766
 H7 H 0.38037 1.33092 0.33107
 H8 H 0.32926 1.33022 0.38166
 H9 H 0.32815 1.38045 0.32990
 C10 C 0.34226 0.84305 0.81486
 C11 C 0.35175 0.82395 0.82452
 C12 C 0.34220 0.81449 0.84372
 C13 C 0.32313 0.82412 0.85325
 C14 C 0.31363 0.84327 0.84362
 C15 C 0.32320 0.85271 0.82439
 H16 H 0.36665 0.81662 0.81729
 H17 H 0.31589 0.81687 0.86825
 H18 H 0.31603 0.86766 0.81701
 C19 C 0.84838 1.35054 0.82200
 C20 C 0.82926 1.36001 0.83161
 C21 C 0.81973 1.35032 0.85074
 C22 C 0.82934 1.33115 0.86021
 C23 C 0.84847 1.32172 0.85060
 C24 C 0.85797 1.33141 0.83150
 H25 H 0.82190 1.37487 0.82425
 H26 H 0.82203 1.32362 0.87503
 H27 H 0.87281 1.32413 0.82409
 C28 C 0.85641 0.85621 0.32798
 C29 C 0.83720 0.86570 0.33739
 C30 C 0.82773 0.85632 0.35667
 C31 C 0.83750 0.83746 0.36657
 C32 C 0.85673 0.82800 0.35718
 C33 C 0.86617 0.83737 0.33789
 H34 H 0.82959 0.88024 0.32967
 H35 H 0.83011 0.83012 0.38142
 H36 H 0.88099 0.82996 0.33055
 C37 C 0.64383 0.64409 0.32765
 C38 C 0.66313 0.63465 0.33699
 C39 C 0.67312 0.64449 0.35575
 C40 C 0.66383 0.66379 0.36519
 C41 C 0.64455 0.67326 0.35587
 C42 C 0.63454 0.66340 0.33711
 H43 H 0.67043 0.61976 0.32966
 H44 H 0.67163 0.67146 0.37966
 H45 H 0.61965 0.67082 0.32988
 C46 C 0.64706 0.14619 0.82625
 C47 C 0.66644 0.13690 0.83552
 C48 C 0.67651 0.14690 0.85418
 C49 C 0.66714 0.16621 0.86356
 C50 C 0.64775 0.17548 0.85431
 C51 C 0.63771 0.16548 0.83565
 H52 H 0.67366 0.12197 0.82818
 H53 H 0.67489 0.17401 0.87800
 H54 H 0.62272 0.17269 0.82846
 C55 C 1.15338 0.65342 0.81854
 C56 C 1.14400 0.67268 0.82796
 C57 C 1.15368 0.68234 0.84698
 C58 C 1.17276 0.67276 0.85656
 C59 C 1.18214 0.65350 0.84715
 C60 C 1.17245 0.64384 0.82814
 H61 H 1.12914 0.68003 0.82061
 H62 H 1.18018 0.68017 0.87137
 H63 H 1.17964 0.62884 0.82094
 C64 C 1.14650 0.14493 0.32560
 C65 C 1.16581 0.13553 0.33498
 C66 C 1.17571 0.14535 0.35384
 C67 C 1.16628 0.16460 0.36329
 C68 C 1.14701 0.17401 0.35392
 C69 C 1.13711 0.16417 0.33510
 H70 H 1.17314 0.12066 0.32760
 H71 H 1.17393 0.17229 0.37784
 H72 H 1.12220 0.17154 0.32785
 C73 C 0.64568 1.35583 0.67413
 C74 C 0.63637 1.33655 0.66466
 C75 C 0.64631 1.32674 0.64587
 C76 C 0.66557 1.33623 0.63652
 C77 C 0.67492 1.35552 0.64599
 C78 C 0.66496 1.36532 0.66481
 H79 H 0.62149 1.32917 0.67192
 H80 H 0.67326 1.32855 0.62200
 H81 H 0.67218 1.38021 0.67224
 C82 C 0.64335 0.85759 1.17150
 C83 C 0.66232 0.86727 1.16177
 C84 C 0.67209 0.85749 1.14286
 C85 C 0.66288 0.83802 1.13369
 C86 C 0.64391 0.82831 1.14341
 C87 C 0.63415 0.83811 1.16231
 H88 H 0.66953 0.88228 1.16895
 H89 H 0.67050 0.83038 1.11912
 H90 H 0.61953 0.83055 1.16991
 C91 C 1.14066 1.35914 1.17044
 C92 C 1.16004 1.36852 1.16118
 C93 C 1.16979 1.35891 1.14218
 C94 C 1.16017 1.33992 1.13242
 C95 C 1.14084 1.33051 1.14167
 C96 C 1.13107 1.34012 1.16066
 H97 H 1.16762 1.38314 1.16879
 H98 H 1.16781 1.33239 1.11780
 H99 H 1.11616 1.33271 1.16787
 C100 C 1.15284 0.84839 0.68025
 C101 C 1.14344 0.82909 0.67094
 C102 C 1.15340 0.81901 0.65231
 C103 C 1.17282 0.82822 0.64301
 C104 C 1.18227 0.84752 0.65234
 C105 C 1.17226 0.85760 0.67098
 H106 H 1.12835 0.82200 0.67808
 H107 H 1.18042 0.82045 0.62848
 H108 H 1.17945 0.87262 0.67819
 C109 C 0.35297 0.64671 0.67569
 C110 C 0.36190 0.66643 0.66675
 C111 C 0.35212 0.67626 0.64785
 C112 C 0.33338 0.66635 0.63790
 C113 C 0.32444 0.64662 0.64684
 C114 C 0.33424 0.63680 0.66574
 H115 H 0.37641 0.67410 0.67446
 H116 H 0.32580 0.67394 0.62327
 H117 H 0.32731 0.62154 0.67268
 C118 C 0.35812 0.14127 1.17146
 C119 C 0.33909 0.13167 1.16173
 C120 C 0.32995 0.14095 1.14223
 C121 C 0.33982 0.15981 1.13246
 C122 C 0.35882 0.16943 1.14218
 C123 C 0.36799 0.16015 1.16166
 H124 H 0.33131 0.11715 1.16935
 H125 H 0.33264 0.16709 1.11746
 H126 H 0.38264 0.16771 1.16921
 C127 C 0.85217 0.64781 1.17723
 C128 C 0.86180 0.66694 1.16767
 C129 C 0.85233 0.67653 1.14849
 C130 C 0.83324 0.66702 1.13886
 C131 C 0.82360 0.64791 1.14840
 C132 C 0.83306 0.63831 1.16757
 H133 H 0.87658 0.67437 1.17512
 H134 H 0.82589 0.67446 1.12403
 H135 H 0.82554 0.62352 1.17493
 C136 C 0.85772 0.14146 0.67110
 C137 C 0.83838 0.13213 0.66173
 C138 C 0.82876 0.14177 0.64261
 C139 C 0.83855 0.16072 0.63286
 C140 C 0.85790 0.17002 0.64220
 C141 C 0.86747 0.16040 0.66131
 H142 H 0.83073 0.11754 0.66938
 H143 H 0.83108 0.16832 0.61815
 H144 H 0.88236 0.16777 0.66860
 C145 C 1.35175 0.35129 0.67697
 C146 C 1.33266 0.36069 0.66723
 C147 C 1.32331 0.35103 0.64805
 C148 C 1.33305 0.33195 0.63860
 C149 C 1.35216 0.32253 0.64835
 C150 C 1.36150 0.33222 0.66755
 H151 H 1.32511 0.37545 0.67454
 H152 H 1.32575 0.32450 0.62375
 H153 H 1.37628 0.32497 0.67516
 C154 C 1.34983 0.84975 1.18043
 C155 C 1.35983 0.83102 1.17053
 C156 C 1.35070 0.82180 1.15102
 C157 C 1.33158 0.83127 1.14140
 C158 C 1.32159 0.84998 1.15126
 C159 C 1.33070 0.85923 1.17077
 H160 H 1.37468 0.82368 1.17790
 H161 H 1.32455 0.82414 1.12628
 H162 H 1.32296 0.87378 1.17831
 C163 C 0.85389 0.35376 1.17561
 C164 C 0.83469 0.36314 1.16601
 C165 C 0.82524 0.35354 1.14685
 C166 C 0.83498 0.33455 1.13726
 C167 C 0.85417 0.32515 1.14682
 C168 C 0.86362 0.33475 1.16599
 H169 H 0.82707 0.37782 1.17344
 H170 H 0.82761 0.32707 1.12246
 H171 H 0.87845 0.32738 1.17341
 C172 C 0.85997 0.85972 0.66867
 C173 C 0.84105 0.86946 0.65891
 C174 C 0.83150 0.85995 0.63974
 C175 C 0.84091 0.84071 0.63030
 C176 C 0.85985 0.83097 0.64003
 C177 C 0.86937 0.84047 0.65922
 H178 H 0.83367 0.88427 0.66632
 H179 H 0.83344 0.83325 0.61555
 H180 H 0.88392 0.83283 0.66686
 C181 C 0.64498 0.64459 0.67392
 C182 C 0.66409 0.63503 0.66440
 C183 C 0.67392 0.64482 0.64550
 C184 C 0.66461 0.66416 0.63611
 C185 C 0.64550 0.67374 0.64565
 C186 C 0.63570 0.66395 0.66455
 H187 H 0.67134 0.62010 0.67172
 H188 H 0.67225 0.67178 0.62152
 H189 H 0.62096 0.67140 0.67198
 C190 C 0.64597 1.14588 1.17386
 C191 C 0.66533 1.13658 1.16460
 C192 C 0.67534 1.14656 1.14590
 C193 C 0.66597 1.16584 1.13646
 C194 C 0.64658 1.17516 1.14572
 C195 C 0.63659 1.16515 1.16442
 H196 H 0.67262 1.12169 1.17196
 H197 H 0.67379 1.17357 1.12201
 H198 H 0.62162 1.17234 1.17168
 C199 C 0.14553 0.64676 1.17529
 C200 C 0.13624 0.66604 1.16570
 C201 C 0.14633 0.67589 1.14694
 C202 C 0.16569 0.66643 1.13778
 C203 C 0.17496 0.64717 1.14737
 C204 C 0.16489 0.63735 1.16611
 H205 H 0.12126 0.67337 1.17283
 H206 H 0.17356 0.67400 1.12328
 H207 H 0.17215 0.62245 1.17351
 C208 C 0.14280 1.14303 0.67032
 C209 C 0.13366 1.16247 0.66098
 C210 C 0.14345 1.17215 0.64198
 C211 C 0.16239 1.16232 0.63233
 C212 C 0.17152 1.14287 0.64167
 C213 C 0.16172 1.13323 0.66066
 H214 H 0.11906 1.17008 0.66857
 H215 H 0.17009 1.16981 0.61769
 H216 H 0.16887 1.11825 0.66797
 C217 C 1.34784 0.65337 0.32031
 C218 C 1.35730 0.67269 0.32957
 C219 C 1.34767 0.68253 0.34853
 C220 C 1.32856 0.67303 0.35820
 C221 C 1.31912 0.65370 0.34893
 C222 C 1.32876 0.64389 0.33000
 H223 H 1.37216 0.67992 0.32209
 H224 H 1.32111 0.68052 0.37295
 H225 H 1.32150 0.62888 0.32288
 C226 C 1.35674 1.14500 0.82789
 C227 C 1.33753 1.13552 0.83733
 C228 C 1.32810 1.14489 0.85661
 C229 C 1.33791 1.16372 0.86648
 C230 C 1.35715 1.17321 0.85706
 C231 C 1.36655 1.16384 0.83774
 H232 H 1.32988 1.12099 0.82964
 H233 H 1.33051 1.17099 0.88136
 H234 H 1.38138 1.17120 0.83033
 C235 C 0.85387 0.64549 0.82616
 C236 C 0.86374 0.66445 0.83572
 C237 C 0.85446 0.67406 0.85496
 C238 C 0.83531 0.66469 0.86464
 C239 C 0.82544 0.64572 0.85509
 C240 C 0.83473 0.63612 0.83585
 H241 H 0.87852 0.67175 0.82818
 H242 H 0.82807 0.67217 0.87949
 H243 H 0.82705 0.62148 0.82842
 C244 C 0.85684 1.14332 0.32796
 C245 C 0.83762 1.13397 0.33751
 C246 C 0.82844 1.14333 0.35691
 C247 C 0.83849 1.16205 0.36676
 C248 C 0.85771 1.17139 0.35721
 C249 C 0.86689 1.16202 0.33782
 H250 H 0.82978 1.11954 0.32982
 H251 H 0.83130 1.16939 0.38170
 H252 H 0.88172 1.16933 0.33037
 C253 C 0.64271 0.35685 0.32864
 C254 C 0.66210 0.36622 0.33786
 C255 C 0.67210 0.35638 0.35663
 C256 C 0.66274 0.33715 0.36619
 C257 C 0.64336 0.32774 0.35700
 C258 C 0.63333 0.33761 0.33823
 H259 H 0.66947 0.38105 0.33041
 H260 H 0.67061 0.32950 0.38066
 H261 H 0.61837 0.33028 0.33103
 C262 C 0.64448 0.85560 0.82810
 C263 C 0.66324 0.86560 0.83792
 C264 C 0.67275 0.85629 0.85721
 C265 C 0.66350 0.83696 0.86670
 C266 C 0.64473 0.82696 0.85690
 C267 C 0.63523 0.83629 0.83761
 H268 H 0.67047 0.88050 0.83051
 H269 H 0.67093 0.82968 0.88158
 H270 H 0.62075 0.82849 0.82997
 C271 C 0.14250 0.35815 0.82833
 C272 C 0.13308 0.33891 0.83787
 C273 C 0.14296 0.32909 0.85673
 C274 C 0.16222 0.33853 0.86609
 C275 C 0.17165 0.35776 0.85660
 C276 C 0.16179 0.36758 0.83772
 H277 H 0.11823 0.33147 0.83058
 H278 H 0.16994 0.33085 0.88061
 H279 H 0.16921 0.38240 0.83032
 C280 C 0.14911 0.85167 0.32223
 C281 C 0.13972 0.83242 0.33178
 C282 C 0.14977 0.82248 0.35048
 C283 C 0.16921 0.83177 0.35964
 C284 C 0.17860 0.85100 0.35012
 C285 C 0.16857 0.86095 0.33141
 H286 H 0.12465 0.82520 0.32474
 H287 H 0.17696 0.82409 0.37414
 H288 H 0.17587 0.87587 0.32409
 O289 O 1.08137 1.02224 1.11171
 O290 O 1.10744 1.02227 1.13779
 C291 C 1.08927 1.02990 1.12989
 C292 C 1.07749 1.04826 1.14157
 C293 C 1.08521 1.05621 1.16230
 H294 H 1.09950 1.04847 1.17031
 O295 O 0.91993 0.97823 1.11145
 O296 O 0.89397 0.97820 1.13761
 C297 C 0.91210 0.97056 1.12966
 C298 C 0.92392 0.95220 1.14133
 C299 C 0.91616 0.94415 1.16202
 H300 H 0.90181 0.95180 1.16999
 O301 O 1.02257 1.11168 1.08082
 O302 O 1.02252 1.13785 1.10678
 C303 C 1.03013 1.12993 1.08860
 C304 C 1.04831 1.14171 1.07660
 C305 C 1.05589 1.16269 1.08393
 H306 H 1.04804 1.17079 1.09811
 O307 O 0.97878 0.88898 1.08078
 O308 O 0.97871 0.86285 1.10684
 C309 C 0.97106 0.87084 1.08867
 C310 C 0.95255 0.85930 1.07693
 C311 C 0.94415 0.83892 1.08507
 H312 H 0.95165 0.83106 1.09959
 O313 O 1.11171 1.08117 1.02170
 O314 O 1.13784 1.10717 1.02169
 C315 C 1.12991 1.08899 1.02933
 C316 C 1.14163 1.07703 1.04761
 C317 C 1.16261 1.08435 1.05520
 H318 H 1.17075 1.09850 1.04730
 O319 O 0.88907 0.91962 1.02171
 O320 O 0.86290 0.89366 1.02173
 C321 C 0.87086 0.91182 1.02934
 C322 C 0.85920 0.92373 1.04764
 C323 C 0.83832 0.91629 1.05538
 H324 H 0.83018 0.90213 1.04753
 O325 O 0.97910 1.08090 1.11146
 O326 O 0.97901 1.10690 1.13760
 C327 C 0.97143 1.08871 1.12965
 C328 C 0.95309 1.07681 1.14129
 C329 C 0.94504 1.08455 1.16196
 H330 H 0.95266 1.09892 1.16994
 O331 O 1.02245 0.91948 1.11144
 O332 O 1.02246 0.89344 1.13759
 C333 C 1.03010 0.91161 1.12964
 C334 C 1.04848 0.92342 1.14131
 C335 C 1.05671 0.91543 1.16184
 H336 H 1.04917 0.90093 1.16971
 O337 O 1.11177 0.97858 1.08103
 O338 O 1.13791 0.97851 1.10704
 C339 C 1.12991 0.97086 1.08889
 C340 C 1.14141 0.95235 1.07716
 C341 C 1.16161 0.94372 1.08545
 H342 H 1.16940 0.95109 1.10007
 O343 O 0.88948 1.02198 1.08086
 O344 O 0.86343 1.02204 1.10694
 C345 C 0.87137 1.02969 1.08877
 C346 C 0.85981 1.04816 1.07700
 C347 C 0.83938 1.05646 1.08503
 H348 H 0.83152 1.04891 1.09953
 O349 O 0.92011 1.11155 1.02168
 O350 O 0.89415 1.13768 1.02171
 C351 C 0.91230 1.12973 1.02934
 C352 C 0.92410 1.14136 1.04776
 C353 C 0.91619 1.16190 1.05593
 H354 H 0.90180 1.16983 1.04830
 O355 O 1.08115 0.88900 1.02199
 O356 O 1.10712 0.86287 1.02189
 C357 C 1.08902 0.87079 1.02961
 C358 C 1.07732 0.85911 1.04807
 C359 C 1.08539 0.83866 1.05636
 H360 H 1.09987 0.83084 1.04880
 O361 O 0.92015 1.02184 1.11139
 O362 O 0.89421 1.02186 1.13758
 C363 C 0.91236 1.02948 1.12961
 C364 C 0.92422 1.04782 1.14127
 C365 C 0.91644 1.05582 1.16193
 H366 H 0.90210 1.04813 1.16990
 O367 O 1.08119 0.97861 1.11161
 O368 O 1.10722 0.97858 1.13773
 C369 C 1.08906 0.97092 1.12979
 C370 C 1.07731 0.95246 1.14141
 C371 C 1.08527 0.94420 1.16194
 H372 H 1.09968 0.95179 1.16987
 O373 O 1.02239 0.88877 1.08094
 O374 O 1.02238 0.86261 1.10697
 C375 C 1.03003 0.87058 1.08881
 C376 C 1.04844 0.85899 1.07704
 C377 C 1.05676 0.83853 1.08506
 H378 H 1.04923 0.83061 1.09954
 O379 O 0.97901 1.11155 1.08085
 O380 O 0.97890 1.13768 1.10686
 C381 C 0.97131 1.12971 1.08868
 C382 C 0.95293 1.14131 1.07682
 C383 C 0.94475 1.16184 1.08472
 H384 H 0.95230 1.16973 1.09920
 O385 O 0.88951 1.08095 1.02179
 O386 O 0.86345 1.10699 1.02185
 C387 C 0.87138 1.08883 1.02951
 C388 C 0.85981 1.07708 1.04800
 C389 C 0.83938 1.08511 1.05629
 H390 H 0.83150 1.09957 1.04870
 O391 O 1.11159 0.91980 1.02194
 O392 O 1.13762 0.89374 1.02188
 C393 C 1.12972 0.91187 1.02960
 C394 C 1.14132 0.92349 1.04815
 C395 C 1.16150 0.91512 1.05672
 H396 H 1.16920 0.90051 1.04930
 O397 O 0.97887 0.91940 1.11154
 O398 O 0.97884 0.89338 1.13771
 C399 C 0.97122 0.91154 1.12974
 C400 C 0.95287 0.92334 1.14139
 C401 C 0.94484 0.91554 1.16206
 H402 H 0.95252 0.90120 1.17006
 O403 O 1.02268 1.08118 1.11162
 O404 O 1.02265 1.10721 1.13773
 C405 C 1.03031 1.08906 1.12982
 C406 C 1.04865 1.07724 1.14153
 C407 C 1.05662 1.08493 1.16226
 H408 H 1.04895 1.09926 1.17026
 O409 O 0.88933 0.97837 1.08079
 O410 O 0.86323 0.97838 1.10682
 C411 C 0.87111 0.97078 1.08861
 C412 C 0.85933 0.95257 1.07667
 C413 C 0.83845 0.94487 1.08415
 H414 H 0.83042 0.95267 1.09840
 O415 O 1.11171 1.02221 1.08084
 O416 O 1.13793 1.02219 1.10677
 C417 C 1.12995 1.02981 1.08859
 C418 C 1.14164 1.04806 1.07659
 C419 C 1.16262 1.05564 1.08390
 H420 H 1.17077 1.04773 1.09805
 O421 O 0.91973 0.88911 1.02178
 O422 O 0.89368 0.86302 1.02185
 C423 C 0.91184 0.87096 1.02950
 C424 C 0.92358 0.85935 1.04800
 C425 C 0.91547 0.83896 1.05640
 H426 H 0.90095 0.83113 1.04891
 O427 O 1.08122 1.11187 1.02167
 O428 O 1.10719 1.13803 1.02165
 C429 C 1.08904 1.13009 1.02928
 C430 C 1.07713 1.14180 1.04756
 C431 C 1.08446 1.16278 1.05515
 H432 H 1.09856 1.17096 1.04722
 Cu433 Cu 1.09389 1.00043 1.09370
 Cu434 Cu 1.12525 1.00040 1.12495
 Cu435 Cu 0.90732 1.00008 1.09351
 Cu436 Cu 0.87609 1.00011 1.12487
 Cu437 Cu 1.00086 1.09372 1.09359
 Cu438 Cu 1.00077 1.12503 1.12487
 Cu439 Cu 1.00063 0.90676 1.09356
 Cu440 Cu 1.00059 0.87544 1.12489
 C441 C 1.05906 1.05875 1.13144
 H442 H 1.05321 1.05292 1.11531
 C443 C 1.07480 1.07443 1.17260
 C444 C 0.94243 0.94182 1.13127
 H445 H 0.94830 0.94772 1.11517
 C446 C 0.92660 0.92592 1.17232
 C447 C 1.05890 1.13151 1.05826
 H448 H 1.05334 1.11520 1.05270
 C449 C 1.07383 1.17320 1.07321
 C450 C 0.94228 0.86927 1.05824
 H451 H 0.94843 0.88516 1.05208
 C452 C 0.92571 0.82881 1.07485
 C453 C 1.13139 1.05874 1.05829
 H454 H 1.11507 1.05319 1.05275
 C455 C 1.17306 1.07365 1.07322
 C456 C 0.86945 0.94203 1.05826
 H457 H 0.88569 0.94766 1.05259
 C458 C 0.82799 0.92685 1.07352
 C459 C 0.94270 1.05829 1.13119
 H460 H 0.94859 1.05243 1.11509
 C461 C 0.92682 1.07408 1.17222
 C462 C 1.05876 0.94209 1.13135
 H463 H 1.05273 0.94814 1.11536
 C464 C 1.07500 0.92578 1.17209
 C465 C 1.13151 0.94226 1.05836
 H466 H 1.11576 0.94858 1.05208
 C467 C 1.17158 0.92519 1.07528
 C468 C 0.86978 1.05846 1.05834
 H469 H 0.88569 1.05238 1.05226
 C470 C 0.82923 1.07483 1.07471
 C471 C 0.94263 1.13131 1.05818
 H472 H 0.94861 1.11531 1.05221
 C473 C 0.92648 1.17208 1.07432
 C474 C 1.05870 0.86902 1.05839
 H475 H 1.05260 0.88496 1.05232
 C476 C 1.07515 0.82842 1.07476
 O477 O 1.08101 0.97878 0.88840
 O478 O 1.10699 0.97875 0.86225
 C479 C 1.08885 0.97111 0.87022
 C480 C 1.07710 0.95265 0.85863
 C481 C 1.08532 0.94415 0.83833
 H482 H 1.09992 0.95156 0.83057
 O483 O 0.91969 1.02223 0.88809
 O484 O 0.89365 1.02229 0.86198
 C485 C 0.91185 1.02987 0.86988
 C486 C 0.92376 1.04813 0.85812
 C487 C 0.91623 1.05592 0.83725
 H488 H 0.90197 1.04815 0.82921
 O489 O 0.97863 1.11157 0.91866
 O490 O 0.97856 1.13772 0.89262
 C491 C 0.97092 1.12973 0.91079
 C492 C 0.95247 1.14126 0.92256
 C493 C 0.94387 1.16151 0.91432
 H494 H 0.95120 1.16931 0.89968
 O495 O 1.02185 0.88945 0.91904
 O496 O 1.02194 0.86332 0.89302
 C497 C 1.02958 0.87132 0.91118
 C498 C 1.04813 0.85983 0.92288
 C499 C 1.05698 0.83985 0.91432
 H500 H 1.04976 0.83223 0.89954
 O501 O 1.11156 0.91974 0.97819
 O502 O 1.13758 0.89366 0.97811
 C503 C 1.12962 0.91178 0.97039
 C504 C 1.14103 0.92326 0.95162
 C505 C 1.16067 0.91431 0.94243
 H506 H 1.16812 0.89940 0.94957
 O507 O 0.88939 1.08093 0.97810
 O508 O 0.86331 1.10695 0.97813
 C509 C 0.87122 1.08880 0.97046
 C510 C 0.85956 1.07709 0.95200
 C511 C 0.83909 1.08514 0.94379
 H512 H 0.83126 1.09957 0.95142
 O513 O 1.02224 1.08111 0.88803
 O514 O 1.02229 1.10716 0.86188
 C515 C 1.02989 1.08898 0.86982
 C516 C 1.04817 1.07711 0.85814
 C517 C 1.05585 1.08454 0.83719
 H518 H 1.04798 1.09870 0.82905
 O519 O 0.97830 0.91986 0.88814
 O520 O 0.97835 0.89386 0.86201
 C521 C 0.97073 0.91203 0.86990
 C522 C 0.95250 0.92393 0.85812
 C523 C 0.94493 0.91659 0.83712
 H524 H 0.95283 0.90245 0.82900
 O525 O 1.11170 1.02233 0.91902
 O526 O 1.13782 1.02234 0.89300
 C527 C 1.12989 1.02998 0.91118
 C528 C 1.14155 1.04833 0.92303
 C529 C 1.16223 1.05633 0.91531
 H530 H 1.17023 1.04863 0.90100
 O531 O 0.88916 0.97865 0.91886
 O532 O 0.86294 0.97867 0.89293
 C533 C 0.87093 0.97104 0.91111
 C534 C 0.85925 0.95278 0.92310
 C535 C 0.83832 0.94510 0.91573
 H536 H 0.83020 0.95294 0.90153
 O537 O 1.08107 1.11170 0.97800
 O538 O 1.10703 1.13786 0.97792
 C539 C 1.08889 1.12989 0.97029
 C540 C 1.07703 1.14151 0.95189
 C541 C 1.08464 1.16229 0.94399
 H542 H 1.09889 1.17034 0.95175
 O543 O 0.91962 0.88900 0.97809
 O544 O 0.89361 0.86289 0.97808
 C545 C 0.91176 0.87083 0.97043
 C546 C 0.92354 0.85922 0.95201
 C547 C 0.91582 0.83853 0.94400
 H548 H 0.90155 0.83048 0.95175
 O549 O 0.91953 0.97865 0.88803
 O550 O 0.89348 0.97865 0.86193
 C551 C 0.91166 0.97104 0.86982
 C552 C 0.92356 0.95281 0.85807
 C553 C 0.91625 0.94523 0.83706
 H554 H 0.90213 0.95311 0.82890
 O555 O 1.08120 1.02238 0.88824
 O556 O 1.10718 1.02239 0.86209
 C557 C 1.08902 1.03000 0.87000
 C558 C 1.07712 1.04825 0.85822
 C559 C 1.08454 1.05593 0.83727
 H560 H 1.09873 1.04810 0.82919
 O561 O 0.97825 0.88929 0.91889
 O562 O 0.97829 0.86315 0.89289
 C563 C 0.97064 0.87108 0.91106
 C564 C 0.95233 0.85937 0.92293
 C565 C 0.94432 0.83871 0.91517
 H566 H 0.95194 0.83079 0.90075
 O567 O 1.02221 1.11159 0.91876
 O568 O 1.02223 1.13779 0.89276
 C569 C 1.02985 1.12981 0.91095
 C570 C 1.04815 1.14148 0.92287
 C571 C 1.05603 1.16227 0.91524
 H572 H 1.04830 1.17030 0.90093
 O573 O 0.88919 0.91973 0.97806
 O574 O 0.86303 0.89376 0.97805
 C575 C 0.87099 0.91193 0.97042
 C576 C 0.85929 0.92386 0.95212
 C577 C 0.83837 0.91644 0.94447
 H578 H 0.83028 0.90226 0.95235
 O579 O 1.11173 1.08124 0.97803
 O580 O 1.13784 1.10727 0.97796
 C581 C 1.12989 1.08910 0.97034
 C582 C 1.14152 1.07728 0.95196
 C583 C 1.16219 1.08502 0.94396
 H584 H 1.17016 1.09937 0.95165
 O585 O 1.02189 0.91994 0.88830
 O586 O 1.02197 0.89390 0.86220
 C587 C 1.02961 0.91205 0.87015
 C588 C 1.04812 0.92376 0.85859
 C589 C 1.05663 0.91553 0.83830
 H590 H 1.04919 0.90096 0.83051
 O591 O 0.97867 1.08105 0.88798
 O592 O 0.97867 1.10707 0.86181
 C593 C 0.97105 1.08889 0.86975
 C594 C 0.95275 1.07701 0.85804
 C595 C 0.94494 1.08455 0.83718
 H596 H 0.95274 1.09878 0.82909
 O597 O 0.88920 1.02225 0.91881
 O598 O 0.86302 1.02236 0.89284
 C599 C 0.87103 1.02995 0.91101
 C600 C 0.85947 1.04832 0.92290
 C601 C 0.83900 1.05663 0.91497
 H602 H 0.83108 1.04915 0.90048
 O603 O 1.11162 0.97866 0.91896
 O604 O 1.13767 0.97860 0.89289
 C605 C 1.12969 0.97089 0.91102
 C606 C 1.14107 0.95216 0.92258
 C607 C 1.16073 0.94293 0.91368
 H608 H 1.16822 0.95001 0.89875
 O609 O 1.08078 0.88938 0.97829
 O610 O 1.10675 0.86325 0.97818
 C611 C 1.08862 0.87126 0.97054
 C612 C 1.07698 0.85979 0.95192
 C613 C 1.08555 0.83982 0.94308
 H614 H 1.10026 0.83217 0.95038
 O615 O 0.92001 1.11149 0.97798
 O616 O 0.89402 1.13759 0.97798
 C617 C 0.91211 1.12963 0.97027
 C618 C 0.92372 1.14120 0.95168
 C619 C 0.91540 1.16144 0.94316
 H620 H 0.90085 1.16919 0.95066
 Cu621 Cu 1.09379 1.00057 0.90628
 Cu622 Cu 1.12505 1.00055 0.87495
 Cu623 Cu 0.90701 1.00043 0.90605
 Cu624 Cu 0.87563 1.00049 0.87481
 Cu625 Cu 1.09383 1.09389 0.99987
 Cu626 Cu 1.12509 1.12521 0.99981
 Cu627 Cu 1.09367 0.90710 1.00014
 Cu628 Cu 1.12489 0.87577 1.00002
 Cu629 Cu 0.90736 1.09362 0.99989
 Cu630 Cu 0.87612 1.12492 0.99993
 Cu631 Cu 0.90702 0.90696 0.99991
 Cu632 Cu 0.87570 0.87570 0.99992
 Cu633 Cu 1.00044 1.09372 0.90596
 Cu634 Cu 1.00045 1.12507 0.87466
 Cu635 Cu 1.00004 0.90725 0.90620
 Cu636 Cu 1.00012 0.87592 0.87492
 C637 C 1.05834 0.94248 0.86851
 H638 H 1.05212 0.94870 0.88434
 C639 C 1.07514 0.92568 0.82824
 C640 C 0.94218 1.05864 0.86826
 H641 H 0.94790 1.05292 0.88449
 C642 C 0.92680 1.07402 0.82683
 C643 C 0.94240 1.13135 0.94140
 H644 H 0.94869 1.11555 0.94764
 C645 C 0.92542 1.17152 0.92457
 C646 C 1.05811 0.86956 0.94184
 H647 H 1.05163 0.88517 0.94832
 C648 C 1.07562 0.82995 0.92435
 C649 C 1.13147 0.94234 0.94170
 H650 H 1.11610 0.94910 0.94843
 C651 C 1.17042 0.92406 0.92352
 C652 C 0.86950 1.05852 0.94158
 H653 H 0.88545 1.05243 0.94759
 C654 C 0.82888 1.07495 0.92538
 C655 C 1.05878 1.05881 0.86840
 H656 H 1.05315 1.05318 0.88469
 C657 C 1.07391 1.07395 0.82680
 C658 C 0.94183 0.94218 0.86835
 H659 H 0.94737 0.94774 0.88469
 C660 C 0.92694 0.92723 0.82662
 C661 C 1.13144 1.05878 0.94151
 H662 H 1.11535 1.05292 0.94737
 C663 C 1.17250 1.07457 0.92576
 C664 C 0.86949 0.94219 0.94146
 H665 H 0.88576 0.94781 0.94706
 C666 C 0.82794 0.92705 0.92640
 C667 C 1.05864 1.13134 0.94134
 H668 H 1.05289 1.11517 0.94712
 C669 C 1.07416 1.17262 0.92578
 C670 C 0.94196 0.86938 0.94150
 H671 H 0.94781 0.88548 0.94738
 C672 C 0.92619 0.82833 0.92568
 O673 O 0.97805 0.41900 0.38851
 O674 O 0.97775 0.39300 0.36238
 C675 C 0.97019 0.41116 0.37040
 C676 C 0.95171 0.42297 0.35892
 C677 C 0.94337 0.41507 0.33841
 H678 H 0.95088 0.40065 0.33044
 O679 O 1.02173 0.58064 0.38835
 O680 O 1.02163 0.60667 0.36218
 C681 C 1.02926 0.58848 0.37008
 C682 C 1.04749 0.57663 0.35828
 C683 C 1.05544 0.58444 0.33758
 H684 H 1.04778 0.59884 0.32967
 O685 O 0.88866 0.47802 0.41963
 O686 O 0.86248 0.47805 0.39367
 C687 C 0.87048 0.47036 0.41181
 C688 C 0.85890 0.45192 0.42361
 C689 C 0.83825 0.44389 0.41583
 H690 H 0.83023 0.45165 0.40153
 O691 O 1.11086 0.52147 0.41861
 O692 O 1.13692 0.52161 0.39255
 C693 C 1.12897 0.52922 0.41072
 C694 C 1.14050 0.54773 0.42246
 C695 C 1.16058 0.55652 0.41403
 H696 H 1.16824 0.54929 0.39929
 O697 O 0.91957 0.38822 0.47836
 O698 O 0.89364 0.36202 0.47828
 C699 C 0.91181 0.37000 0.47071
 C700 C 0.92379 0.35831 0.45248
 C701 C 0.91652 0.33729 0.44494
 H702 H 0.90241 0.32912 0.45286
 O703 O 1.08072 0.61098 0.47825
 O704 O 1.10682 0.63701 0.47827
 C705 C 1.08867 0.62913 0.47057
 C706 C 1.07706 0.64075 0.45202
 C707 C 1.08539 0.66099 0.44348
 H708 H 1.09996 0.66874 0.45097
 O709 O 0.91916 0.52173 0.38895
 O710 O 0.89307 0.52180 0.36289
 C711 C 0.91123 0.52945 0.37081
 C712 C 0.92291 0.54797 0.35920
 C713 C 0.91472 0.55639 0.33883
 H714 H 0.90017 0.54890 0.33103
 O715 O 1.08034 0.47793 0.38783
 O716 O 1.10630 0.47797 0.36165
 C717 C 1.08813 0.47035 0.36958
 C718 C 1.07617 0.45214 0.35783
 C719 C 1.08346 0.44456 0.33682
 H720 H 1.09759 0.45244 0.32867
 O721 O 1.02198 0.38838 0.41864
 O722 O 1.02186 0.36233 0.39255
 C723 C 1.02962 0.37024 0.41069
 C724 C 1.04809 0.35862 0.42239
 C725 C 1.05638 0.33818 0.41435
 H726 H 1.04886 0.33034 0.39983
 O727 O 0.97846 0.61132 0.41930
 O728 O 0.97844 0.63755 0.39333
 C729 C 0.97088 0.62958 0.41154
 C730 C 0.95271 0.64131 0.42354
 C731 C 0.94506 0.66225 0.41612
 H732 H 0.95290 0.67037 0.40192
 O733 O 0.88892 0.58087 0.47845
 O734 O 0.86283 0.60688 0.47839
 C735 C 0.87074 0.58870 0.47079
 C736 C 0.85905 0.57683 0.45246
 C737 C 0.83841 0.58460 0.44441
 H738 H 0.83049 0.59899 0.45203
 O739 O 1.11106 0.41896 0.47779
 O740 O 1.13722 0.39302 0.47778
 C741 C 1.12923 0.41116 0.47011
 C742 C 1.14080 0.42298 0.45165
 C743 C 1.16143 0.41522 0.44359
 H744 H 1.16942 0.40089 0.45132
 O745 O 0.97814 0.58069 0.38873
 O746 O 0.97798 0.60679 0.36264
 C747 C 0.97035 0.58862 0.37062
 C748 C 0.95182 0.57692 0.35911
 C749 C 0.94337 0.58506 0.33873
 H750 H 0.95085 0.59958 0.33085
 O751 O 1.02162 0.41902 0.38802
 O752 O 1.02138 0.39311 0.36179
 C753 C 1.02906 0.41126 0.36970
 C754 C 1.04723 0.42322 0.35788
 C755 C 1.05477 0.41590 0.33686
 H756 H 1.04687 0.40175 0.32875
 O757 O 1.11090 0.47783 0.41853
 O758 O 1.13700 0.47788 0.39251
 C759 C 1.12907 0.47020 0.41069
 C760 C 1.14072 0.45184 0.42256
 C761 C 1.16137 0.44382 0.41479
 H762 H 1.16932 0.45148 0.40040
 O763 O 0.88868 0.52168 0.41965
 O764 O 0.86248 0.52172 0.39369
 C765 C 0.87049 0.52935 0.41183
 C766 C 0.85892 0.54777 0.42364
 C767 C 0.83830 0.55583 0.41585
 H768 H 0.83029 0.54812 0.40152
 O769 O 0.91962 0.61137 0.47842
 O770 O 0.89368 0.63753 0.47834
 C771 C 0.91184 0.62958 0.47076
 C772 C 0.92379 0.64129 0.45249
 C773 C 0.91641 0.66222 0.44480
 H774 H 0.90223 0.67032 0.45264
 O775 O 1.08064 0.38820 0.47774
 O776 O 1.10670 0.36216 0.47769
 C777 C 1.08856 0.37008 0.47002
 C778 C 1.07689 0.35853 0.45148
 C779 C 1.08491 0.33809 0.44318
 H780 H 1.09932 0.33018 0.45080
 O781 O 1.08035 0.52152 0.38792
 O782 O 1.10630 0.52162 0.36174
 C783 C 1.08817 0.52923 0.36972
 C784 C 1.07633 0.54764 0.35810
 C785 C 1.08403 0.55573 0.33741
 H786 H 1.09832 0.54807 0.32936
 O787 O 0.91913 0.47806 0.38891
 O788 O 0.89305 0.47810 0.36284
 C789 C 0.91120 0.47041 0.37074
 C790 C 0.92287 0.45197 0.35907
 C791 C 0.91480 0.44379 0.33857
 H792 H 0.90036 0.45142 0.33072
 O793 O 1.02204 0.61111 0.41910
 O794 O 1.02206 0.63725 0.39305
 C795 C 1.02975 0.62926 0.41119
 C796 C 1.04827 0.64078 0.42291
 C797 C 1.05687 0.66104 0.41466
 H798 H 1.04950 0.66883 0.40003
 O799 O 0.97842 0.38836 0.41913
 O800 O 0.97824 0.36221 0.39314
 C801 C 0.97078 0.37012 0.41139
 C802 C 0.95267 0.35836 0.42349
 C803 C 0.94513 0.33734 0.41622
 H804 H 0.95300 0.32921 0.40206
 O805 O 1.11101 0.58016 0.47802
 O806 O 1.13718 0.60612 0.47800
 C807 C 1.12913 0.58804 0.47027
 C808 C 1.14055 0.57648 0.45160
 C809 C 1.16062 0.58498 0.44288
 H810 H 1.16832 0.59962 0.45029
 O811 O 0.88887 0.41870 0.47839
 O812 O 0.86279 0.39265 0.47831
 C813 C 0.87070 0.41086 0.47072
 C814 C 0.85901 0.42278 0.45240
 C815 C 0.83835 0.41503 0.44436
 H816 H 0.83042 0.40062 0.45199
 Cu817 Cu 1.00005 0.40629 0.40618
 Cu818 Cu 0.99977 0.37505 0.37484
 Cu819 Cu 1.00010 0.59333 0.40648
 Cu820 Cu 1.00002 0.62469 0.37518
 Cu821 Cu 0.90652 0.49987 0.40689
 Cu822 Cu 0.87515 0.49992 0.37565
 Cu823 Cu 1.09301 0.49966 0.40583
 Cu824 Cu 1.12426 0.49976 0.37450
 C825 C 0.94147 0.44157 0.36901
 H826 H 0.94759 0.44755 0.38498
 C827 C 0.92502 0.42545 0.32830
 C828 C 1.05791 0.55807 0.36829
 H829 H 1.05209 0.55214 0.38440
 C830 C 1.07360 0.57402 0.32719
 C831 C 0.86904 0.44138 0.44204
 H832 H 0.88511 0.44725 0.44793
 C833 C 0.82803 0.42557 0.42619
 C834 C 1.13073 0.55770 0.44141
 H835 H 1.11506 0.55127 0.44780
 C836 C 1.17054 0.57507 0.42419
 C837 C 0.94203 0.36860 0.44179
 H838 H 0.94754 0.38494 0.44730
 C839 C 0.92719 0.32686 0.42694
 C840 C 1.05835 0.63089 0.44175
 H841 H 1.05204 0.61510 0.44800
 C842 C 1.07534 0.67107 0.42490
 C843 C 0.94161 0.55822 0.36909
 H844 H 0.94781 0.55205 0.38497
 C845 C 0.92491 0.57484 0.32866
 C846 C 1.05790 0.44150 0.36810
 H847 H 1.05239 0.44704 0.38444
 C848 C 1.07276 0.42656 0.32637
 C849 C 1.05833 0.36855 0.44110
 H850 H 1.05226 0.38447 0.44720
 C851 C 1.07470 0.32797 0.42472
 C852 C 0.94210 0.63108 0.44189
 H853 H 0.94769 0.61480 0.44751
 C854 C 0.92703 0.67266 0.42675
 C855 C 0.86906 0.55825 0.44210
 H856 H 0.88512 0.55236 0.44800
 C857 C 0.82810 0.57413 0.42621
 C858 C 1.13069 0.44144 0.44114
 H859 H 1.11463 0.44731 0.44704
 C860 C 1.17166 0.42561 0.42529
 O861 O 1.02175 0.41863 0.61162
 O862 O 1.02176 0.39264 0.63783
 C863 C 1.02932 0.41086 0.62990
 C864 C 1.04746 0.42288 0.64170
 C865 C 1.05511 0.41551 0.66268
 H866 H 1.04730 0.40129 0.67079
 O867 O 0.97808 0.58055 0.61150
 O868 O 0.97812 0.60651 0.63767
 C869 C 0.97043 0.58838 0.62970
 C870 C 0.95201 0.57658 0.64130
 C871 C 0.94373 0.58451 0.66182
 H872 H 0.95126 0.59896 0.66973
 O873 O 0.88884 0.52148 0.58076
 O874 O 0.86274 0.52143 0.60679
 C875 C 0.87069 0.52913 0.58864
 C876 C 0.85910 0.54761 0.57689
 C877 C 0.83852 0.55567 0.58474
 H878 H 0.83054 0.54793 0.59907
 O879 O 1.11094 0.47745 0.58088
 O880 O 1.13703 0.47733 0.60694
 C881 C 1.12906 0.46972 0.58877
 C882 C 1.14063 0.45129 0.57698
 C883 C 1.16100 0.44288 0.58509
 H884 H 1.16881 0.45030 0.59967
 O885 O 1.08055 0.38818 0.52145
 O886 O 1.10656 0.36210 0.52143
 C887 C 1.08843 0.37001 0.52912
 C888 C 1.07672 0.35836 0.54759
 C889 C 1.08451 0.33769 0.55559
 H890 H 1.09877 0.32971 0.54778
 O891 O 0.91949 0.61155 0.52205
 O892 O 0.89356 0.63772 0.52202
 C893 C 0.91172 0.62978 0.52964
 C894 C 0.92368 0.64151 0.54788
 C895 C 0.91643 0.66252 0.55544
 H896 H 0.90234 0.67070 0.54751
 O897 O 0.91944 0.47774 0.61129
 O898 O 0.89342 0.47764 0.63740
 C899 C 0.91154 0.46998 0.62943
 C900 C 0.92316 0.45138 0.64095
 C901 C 0.91486 0.44284 0.66122
 H902 H 0.90032 0.45031 0.66900
 O903 O 1.08061 0.52134 0.61135
 O904 O 1.10669 0.52138 0.63741
 C905 C 1.08857 0.52908 0.62946
 C906 C 1.07699 0.54767 0.64099
 C907 C 1.08556 0.55646 0.66103
 H908 H 1.10030 0.54919 0.66865
 O909 O 0.97844 0.38783 0.58082
 O910 O 0.97849 0.36162 0.60681
 C911 C 0.97087 0.36956 0.58862
 C912 C 0.95264 0.35783 0.57667
 C913 C 0.94500 0.33688 0.58406
 H914 H 0.95287 0.32874 0.59823
 O915 O 1.02187 0.61100 0.58095
 O916 O 1.02205 0.63702 0.60707
 C917 C 1.02971 0.62905 0.58892
 C918 C 1.04840 0.64044 0.57735
 C919 C 1.05736 0.66038 0.58595
 H920 H 1.05012 0.66804 0.60069
 O921 O 0.88893 0.41862 0.52206
 O922 O 0.86286 0.39257 0.52205
 C923 C 0.87078 0.41073 0.52971
 C924 C 0.85913 0.42255 0.54809
 C925 C 0.83857 0.41467 0.55627
 H926 H 0.83066 0.40022 0.54871
 O927 O 1.11131 0.58004 0.52172
 O928 O 1.13757 0.60592 0.52169
 C929 C 1.12957 0.58776 0.52931
 C930 C 1.14124 0.57583 0.54763
 C931 C 1.16191 0.58355 0.55565
 H932 H 1.16988 0.59792 0.54798
 O933 O 1.02169 0.58037 0.61148
 O934 O 1.02180 0.60631 0.63768
 C935 C 1.02944 0.58820 0.62965
 C936 C 1.04803 0.57654 0.64111
 C937 C 1.05688 0.58504 0.66114
 H938 H 1.04961 0.59973 0.66883
 O939 O 0.97819 0.41853 0.61129
 O940 O 0.97811 0.39246 0.63741
 C941 C 0.97044 0.41060 0.62942
 C942 C 0.95192 0.42230 0.64094
 C943 C 0.94334 0.41404 0.66122
 H944 H 0.95069 0.39941 0.66901
 O945 O 1.11123 0.52106 0.58077
 O946 O 1.13741 0.52099 0.60674
 C947 C 1.12947 0.52862 0.58855
 C948 C 1.14119 0.54690 0.57663
 C949 C 1.16187 0.55489 0.58438
 H950 H 1.16982 0.54722 0.59877
 O951 O 0.88879 0.47782 0.58075
 O952 O 0.86268 0.47775 0.60678
 C953 C 0.87063 0.47011 0.58862
 C954 C 0.85905 0.45165 0.57687
 C955 C 0.83850 0.44350 0.58478
 H956 H 0.83056 0.45118 0.59914
 O957 O 1.08081 0.61074 0.52199
 O958 O 1.10698 0.63669 0.52204
 C959 C 1.08884 0.62880 0.52976
 C960 C 1.07734 0.64031 0.54841
 C961 C 1.08600 0.66027 0.55727
 H962 H 1.10075 0.66786 0.54998
 O963 O 0.91946 0.38796 0.52198
 O964 O 0.89352 0.36177 0.52195
 C965 C 0.91168 0.36970 0.52957
 C966 C 0.92364 0.35792 0.54778
 C967 C 0.91626 0.33696 0.55543
 H968 H 0.90207 0.32887 0.54759
 O969 O 1.08047 0.47770 0.61164
 O970 O 1.10643 0.47770 0.63783
 C971 C 1.08824 0.47012 0.62992
 C972 C 1.07629 0.45191 0.64171
 C973 C 1.08368 0.44428 0.66268
 H974 H 1.09783 0.45216 0.67080
 O975 O 0.91936 0.52142 0.61146
 O976 O 0.89336 0.52136 0.63760
 C977 C 0.91148 0.52906 0.62965
 C978 C 0.92319 0.54753 0.64128
 C979 C 0.91517 0.55574 0.66178
 H980 H 0.90075 0.54811 0.66967
 O981 O 0.97828 0.61136 0.58097
 O982 O 0.97840 0.63746 0.60701
 C983 C 0.97077 0.62961 0.58880
 C984 C 0.95260 0.64143 0.57684
 C985 C 0.94508 0.66244 0.58417
 H986 H 0.95300 0.67054 0.59832
 O987 O 1.02200 0.38814 0.58084
 O988 O 1.02212 0.36201 0.60690
 C989 C 1.02972 0.36998 0.58871
 C990 C 1.04805 0.35837 0.57681
 C991 C 1.05612 0.33769 0.58453
 H992 H 1.04854 0.32970 0.59894
 O993 O 1.11108 0.41881 0.52151
 O994 O 1.13720 0.39283 0.52153
 C995 C 1.12922 0.41093 0.52923
 C996 C 1.14073 0.42257 0.54782
 C997 C 1.16108 0.41443 0.55621
 H998 H 1.16894 0.39998 0.54863
 O999 O 0.88901 0.58082 0.52210
 O1000 O 0.86294 0.60684 0.52212
 C1001 C 0.87086 0.58866 0.52976
 C1002 C 0.85920 0.57678 0.54812
 C1003 C 0.83861 0.58457 0.55623
 H1004 H 0.83070 0.59901 0.54866
 Cu1005 Cu 1.00011 0.40589 0.59353
 Cu1006 Cu 1.00014 0.37456 0.62487
 Cu1007 Cu 0.99992 0.59322 0.59361
 Cu1008 Cu 1.00007 0.62443 0.62500
 Cu1009 Cu 0.90680 0.40599 0.50021
 Cu1010 Cu 0.87557 0.37464 0.50013
 Cu1011 Cu 1.09322 0.40614 0.49962
 Cu1012 Cu 1.12455 0.37492 0.49961
 Cu1013 Cu 0.90686 0.59354 0.50027
 Cu1014 Cu 0.87563 0.62486 0.50021
 Cu1015 Cu 1.09333 0.59289 0.50001
 Cu1016 Cu 1.12476 0.62405 0.50001
 Cu1017 Cu 0.90671 0.49963 0.59346
 Cu1018 Cu 0.87544 0.49954 0.62477
 Cu1019 Cu 1.09320 0.49938 0.59356
 Cu1020 Cu 1.12451 0.49934 0.62486
 C1021 C 1.05802 0.44125 0.63147
 H1022 H 1.05242 0.44684 0.61516
 C1023 C 1.07310 0.42620 0.67313
 C1024 C 0.94175 0.55793 0.63129
 H1025 H 0.94782 0.55192 0.61532
 C1026 C 0.92541 0.57412 0.67200
 C1027 C 0.86920 0.55814 0.55843
 H1028 H 0.88523 0.55223 0.55248
 C1029 C 0.82832 0.57404 0.57444
 C1030 C 1.13074 0.44115 0.55819
 H1031 H 1.11488 0.44732 0.55203
 C1032 C 1.17115 0.42454 0.57475
 C1033 C 1.05833 0.36846 0.55819
 H1034 H 1.05243 0.38454 0.55233
 C1035 C 1.07425 0.32741 0.57394
 C1036 C 0.94192 0.63122 0.55855
 H1037 H 0.94741 0.61489 0.55300
 C1038 C 0.92712 0.67295 0.57346
 C1039 C 0.94184 0.44112 0.63106
 H1040 H 0.94812 0.44739 0.61525
 C1041 C 0.92490 0.42427 0.67128
 C1042 C 1.05808 0.55770 0.63127
 H1043 H 1.05159 0.55128 0.61562
 C1044 C 1.07557 0.57507 0.67101
 C1045 C 0.94199 0.36810 0.55837
 H1046 H 0.94759 0.38440 0.55277
 C1047 C 0.92693 0.32648 0.57345
 C1048 C 1.05839 0.63065 0.55844
 H1049 H 1.05182 0.61508 0.55194
 C1050 C 1.07607 0.67021 0.57596
 C1051 C 0.86912 0.44119 0.55838
 H1052 H 0.88513 0.44716 0.55240
 C1053 C 0.82831 0.42513 0.57451
 C1054 C 1.13113 0.55734 0.55809
 H1055 H 1.11503 0.55151 0.55222
 C1056 C 1.17217 0.57311 0.57392
 O1057 O 0.47884 0.92005 0.38891
 O1058 O 0.47875 0.89404 0.36278
 C1059 C 0.47106 0.91214 0.37079
 C1060 C 0.45241 0.92372 0.35935
 C1061 C 0.44346 0.91511 0.33939
 H1062 H 0.45071 0.90038 0.33174
 O1063 O 0.52213 1.08174 0.38902
 O1064 O 0.52218 1.10780 0.36288
 C1065 C 0.52976 1.08959 0.37080
 C1066 C 0.54800 1.07770 0.35907
 C1067 C 0.55582 1.08532 0.33825
 H1068 H 0.54807 1.09962 0.33022
 O1069 O 0.38930 0.97913 0.41955
 O1070 O 0.36322 0.97913 0.39347
 C1071 C 0.37116 0.97144 0.41164
 C1072 C 0.35964 0.95287 0.42329
 C1073 C 0.33953 0.94419 0.41485
 H1074 H 0.33182 0.95158 0.40018
 O1075 O 0.61159 1.02248 0.41940
 O1076 O 0.63770 1.02266 0.39338
 C1077 C 0.62978 1.03016 0.41161
 C1078 C 0.64147 1.04839 0.42360
 C1079 C 0.66227 1.05624 0.41604
 H1080 H 0.67029 1.04854 0.40174
 O1081 O 0.41991 0.88941 0.47836
 O1082 O 0.39391 0.86329 0.47825
 C1083 C 0.41202 0.87129 0.47060
 C1084 C 0.42364 0.85981 0.45200
 C1085 C 0.41503 0.83985 0.44311
 H1086 H 0.40027 0.83224 0.45035
 O1087 O 0.58129 1.11195 0.47869
 O1088 O 0.60730 1.13807 0.47866
 C1089 C 0.58914 1.13015 0.47103
 C1090 C 0.57731 1.14186 0.45267
 C1091 C 0.58507 1.16256 0.44469
 H1092 H 0.59942 1.17050 0.45239
 O1093 O 0.41993 1.02271 0.38884
 O1094 O 0.39398 1.02271 0.36264
 C1095 C 0.41212 1.03036 0.37061
 C1096 C 0.42392 1.04875 0.35896
 C1097 C 0.41628 1.05665 0.33818
 H1098 H 0.40206 1.04884 0.33011
 O1099 O 0.58109 0.97901 0.38852
 O1100 O 0.60705 0.97915 0.36234
 C1101 C 0.58891 0.97147 0.37027
 C1102 C 0.57705 0.95318 0.35853
 C1103 C 0.58451 0.94548 0.33763
 H1104 H 0.59868 0.95334 0.32952
 O1105 O 0.52256 0.88942 0.41939
 O1106 O 0.52254 0.86333 0.39334
 C1107 C 0.53019 0.87124 0.41153
 C1108 C 0.54853 0.85957 0.42338
 C1109 C 0.55656 0.83892 0.41559
 H1110 H 0.54891 0.83098 0.40120
 O1111 O 0.47869 1.11238 0.41972
 O1112 O 0.47871 1.13861 0.39376
 C1113 C 0.47111 1.13064 0.41195
 C1114 C 0.45292 1.14235 0.42395
 C1115 C 0.44522 1.16327 0.41654
 H1116 H 0.45300 1.17140 0.40231
 O1117 O 0.38928 1.08164 0.47839
 O1118 O 0.36325 1.10770 0.47839
 C1119 C 0.37117 1.08958 0.47068
 C1120 C 0.35959 1.07789 0.45216
 C1121 C 0.33910 1.08584 0.44389
 H1122 H 0.33119 1.10026 0.45147
 O1123 O 0.61181 0.91998 0.47838
 O1124 O 0.63793 0.89399 0.47828
 C1125 C 0.62994 0.91214 0.47064
 C1126 C 0.64149 0.92397 0.45218
 C1127 C 0.66209 0.91621 0.44409
 H1128 H 0.67007 0.90185 0.45177
 O1129 O 0.47857 1.08187 0.38899
 O1130 O 0.47856 1.10795 0.36287
 C1131 C 0.47094 1.08975 0.37078
 C1132 C 0.45266 1.07786 0.35905
 C1133 C 0.44476 1.08550 0.33825
 H1134 H 0.45243 1.09984 0.33024
 O1135 O 0.52244 0.92000 0.38862
 O1136 O 0.52239 0.89404 0.36244
 C1137 C 0.53000 0.91221 0.37036
 C1138 C 0.54821 0.92417 0.35859
 C1139 C 0.55592 0.91672 0.33768
 H1140 H 0.54813 0.90249 0.32961
 O1141 O 0.61158 0.97889 0.41924
 O1142 O 0.63767 0.97900 0.39320
 C1143 C 0.62975 0.97129 0.41137
 C1144 C 0.64141 0.95291 0.42318
 C1145 C 0.66204 0.94489 0.41538
 H1146 H 0.66999 0.95259 0.40101
 O1147 O 0.38932 1.02279 0.41943
 O1148 O 0.36326 1.02282 0.39334
 C1149 C 0.37119 1.03048 0.41151
 C1150 C 0.35960 1.04894 0.42323
 C1151 C 0.33912 1.05716 0.41523
 H1152 H 0.33123 1.04956 0.40078
 O1153 O 0.41991 1.11221 0.47875
 O1154 O 0.39401 1.13841 0.47886
 C1155 C 0.41215 1.13049 0.47121
 C1156 C 0.42408 1.14228 0.45298
 C1157 C 0.41664 1.16320 0.44530
 H1158 H 0.40245 1.17125 0.45316
 O1159 O 0.58137 0.88928 0.47850
 O1160 O 0.60736 0.86317 0.47846
 C1161 C 0.58920 0.87111 0.47083
 C1162 C 0.57739 0.85949 0.45242
 C1163 C 0.58516 0.83886 0.44435
 H1164 H 0.59949 0.83087 0.45205
 O1165 O 0.58095 1.02263 0.38880
 O1166 O 0.60692 1.02282 0.36264
 C1167 C 0.58876 1.03038 0.37062
 C1168 C 0.57687 1.04873 0.35899
 C1169 C 0.58442 1.05663 0.33817
 H1170 H 0.59864 1.04888 0.33009
 O1171 O 0.41988 0.97905 0.38898
 O1172 O 0.39386 0.97901 0.36284
 C1173 C 0.41195 0.97130 0.37084
 C1174 C 0.42350 0.95265 0.35938
 C1175 C 0.41484 0.94375 0.33943
 H1176 H 0.40010 0.95102 0.33180
 O1177 O 0.52226 1.11225 0.41969
 O1178 O 0.52234 1.13846 0.39370
 C1179 C 0.52996 1.13044 0.41186
 C1180 C 0.54835 1.14201 0.42373
 C1181 C 0.55636 1.16272 0.41605
 H1182 H 0.54866 1.17079 0.40175
 O1183 O 0.47895 0.88938 0.41941
 O1184 O 0.47888 0.86330 0.39335
 C1185 C 0.47121 0.87126 0.41150
 C1186 C 0.45260 0.85978 0.42310
 C1187 C 0.44369 0.83983 0.41447
 H1188 H 0.45094 0.83221 0.39972
 O1189 O 0.61172 1.08122 0.47868
 O1190 O 0.63787 1.10721 0.47862
 C1191 C 0.62990 1.08905 0.47101
 C1192 C 0.64153 1.07720 0.45266
 C1193 C 0.66231 1.08480 0.44482
 H1194 H 0.67036 1.09903 0.45262
 O1195 O 0.38933 0.92000 0.47846
 O1196 O 0.36326 0.89394 0.47836
 C1197 C 0.37120 0.91212 0.47073
 C1198 C 0.35966 0.92384 0.45220
 C1199 C 0.33954 0.91544 0.44348
 H1200 H 0.33184 0.90076 0.45082
 Cu1201 Cu 0.50074 0.90731 0.40669
 Cu1202 Cu 0.50067 0.87605 0.37536
 Cu1203 Cu 0.50039 1.09445 0.40696
 Cu1204 Cu 0.50044 1.12584 0.37569
 Cu1205 Cu 0.40721 1.00094 0.40681
 Cu1206 Cu 0.37597 1.00094 0.37544
 Cu1207 Cu 0.59369 1.00073 0.40659
 Cu1208 Cu 0.62495 1.00094 0.37527
 C1209 C 0.44243 0.94264 0.36910
 H1210 H 0.44898 0.94916 0.38469
 C1211 C 0.42476 0.92506 0.32953
 C1212 C 0.55850 1.05924 0.36920
 H1213 H 0.55279 1.05346 0.38540
 C1214 C 0.57390 1.07480 0.32785
 C1215 C 0.36946 0.94272 0.44212
 H1216 H 0.38516 0.94907 0.44850
 C1217 C 0.32956 0.92556 0.42488
 C1218 C 0.63135 1.05884 0.44207
 H1219 H 0.61517 1.05309 0.44779
 C1220 C 0.67262 1.07434 0.42663
 C1221 C 0.44259 0.86952 0.44202
 H1222 H 0.44910 0.88511 0.44854
 C1223 C 0.42498 0.82997 0.42441
 C1224 C 0.55880 1.13183 0.44220
 H1225 H 0.55293 1.11571 0.44803
 C1226 C 0.57462 1.17294 0.42650
 C1227 C 0.44227 1.05933 0.36915
 H1228 H 0.44805 1.05354 0.38532
 C1229 C 0.42667 1.07491 0.32787
 C1230 C 0.55875 0.94255 0.36876
 H1231 H 0.55311 0.94818 0.38503
 C1232 C 0.57395 0.92737 0.32724
 C1233 C 0.55893 0.86960 0.44194
 H1234 H 0.55305 0.88567 0.44784
 C1235 C 0.57477 0.82862 0.42605
 C1236 C 0.44238 1.13211 0.44233
 H1237 H 0.44802 1.11584 0.44794
 C1238 C 0.42719 1.17365 0.42721
 C1239 C 0.36959 1.05929 0.44184
 H1240 H 0.38553 1.05325 0.44791
 C1241 C 0.32892 1.07550 0.42552
 C1242 C 0.63138 0.94247 0.44174
 H1243 H 0.61534 0.94834 0.44767
 C1244 C 0.67232 0.92664 0.42581
 O1245 O 0.52234 0.91974 0.61177
 O1246 O 0.52233 0.89369 0.63791
 C1247 C 0.52998 0.91186 0.62997
 C1248 C 0.54840 0.92361 0.64162
 C1249 C 0.55642 0.91576 0.66228
 H1250 H 0.54869 0.90143 0.67026
 O1251 O 0.47894 1.08089 0.61198
 O1252 O 0.47894 1.10681 0.63820
 C1253 C 0.47127 1.08869 0.63018
 C1254 C 0.45284 1.07689 0.64176
 C1255 C 0.44476 1.08469 0.66239
 H1256 H 0.45246 1.09900 0.67040
 O1257 O 0.38912 1.02219 0.58099
 O1258 O 0.36299 1.02218 0.60699
 C1259 C 0.37091 1.02978 0.58878
 C1260 C 0.35917 1.04801 0.57680
 C1261 C 0.33820 1.05557 0.58413
 H1262 H 0.33009 1.04768 0.59830
 O1263 O 0.61217 0.97867 0.58115
 O1264 O 0.63834 0.97860 0.60713
 C1265 C 0.63042 0.97108 0.58890
 C1266 C 0.64218 0.95297 0.57682
 C1267 C 0.66329 0.94555 0.58395
 H1268 H 0.67149 0.95348 0.59803
 O1269 O 0.58146 0.88932 0.52219
 O1270 O 0.60749 0.86326 0.52222
 C1271 C 0.58935 0.87117 0.52988
 C1272 C 0.57758 0.85952 0.54832
 C1273 C 0.58548 0.83897 0.55653
 H1274 H 0.59989 0.83107 0.54893
 O1275 O 0.41981 1.11178 0.52242
 O1276 O 0.39382 1.13789 0.52260
 C1277 C 0.41194 1.12988 0.53024
 C1278 C 0.42368 1.14134 0.54880
 C1279 C 0.41559 1.16167 0.55729
 H1280 H 0.40107 1.16954 0.54984
 O1281 O 0.41970 0.97849 0.61159
 O1282 O 0.39368 0.97845 0.63770
 C1283 C 0.41175 0.97071 0.62970
 C1284 C 0.42319 0.95191 0.64109
 C1285 C 0.41412 0.94251 0.66064
 H1286 H 0.39918 0.94954 0.66806
 O1287 O 0.58150 1.02205 0.61192
 O1288 O 0.60748 1.02199 0.63811
 C1289 C 0.58931 1.02962 0.63017
 C1290 C 0.57742 1.04788 0.64191
 C1291 C 0.58505 1.05573 0.66271
 H1292 H 0.59935 1.04800 0.67072
 O1293 O 0.47886 0.88908 0.58101
 O1294 O 0.47887 0.86288 0.60701
 C1295 C 0.47119 0.87088 0.58887
 C1296 C 0.45267 0.85936 0.57717
 C1297 C 0.44402 0.83917 0.58553
 H1298 H 0.45141 0.83139 0.60015
 O1299 O 0.52253 1.11163 0.58146
 O1300 O 0.52258 1.13767 0.60756
 C1301 C 0.53020 1.12978 0.58936
 C1302 C 0.54859 1.14144 0.57756
 C1303 C 0.55680 1.16197 0.58550
 H1304 H 0.54924 1.16987 0.59995
 O1305 O 0.38927 0.91974 0.52217
 O1306 O 0.36324 0.89364 0.52210
 C1307 C 0.37116 0.91175 0.52986
 C1308 C 0.35965 0.92324 0.54852
 C1309 C 0.33981 0.91445 0.55749
 H1310 H 0.33228 0.89964 0.55025
 O1311 O 0.61193 1.08131 0.52234
 O1312 O 0.63807 1.10730 0.52232
 C1313 C 0.63013 1.08914 0.52998
 C1314 C 0.64180 1.07728 0.54834
 C1315 C 0.66253 1.08495 0.55627
 H1316 H 0.67053 1.09927 0.54853
 O1317 O 0.52253 1.08090 0.61203
 O1318 O 0.52256 1.10681 0.63826
 C1319 C 0.53017 1.08867 0.63028
 C1320 C 0.54848 1.07677 0.64196
 C1321 C 0.55638 1.08436 0.66275
 H1322 H 0.54866 1.09863 0.67080
 O1323 O 0.47868 0.91961 0.61162
 O1324 O 0.47863 0.89348 0.63768
 C1325 C 0.47089 0.91159 0.62970
 C1326 C 0.45210 0.92298 0.64108
 C1327 C 0.44273 0.91386 0.66063
 H1328 H 0.44976 0.89888 0.66804
 O1329 O 0.61205 1.02226 0.58128
 O1330 O 0.63816 1.02225 0.60732
 C1331 C 0.63021 1.02992 0.58915
 C1332 C 0.64184 1.04831 0.57730
 C1333 C 0.66258 1.05622 0.58495
 H1334 H 0.67062 1.04845 0.59923
 O1335 O 0.38908 0.97856 0.58110
 O1336 O 0.36300 0.97851 0.60716
 C1337 C 0.37097 0.97081 0.58904
 C1338 C 0.35954 0.95214 0.57747
 C1339 C 0.33970 0.94308 0.58618
 H1340 H 0.33210 0.95026 0.60098
 O1341 O 0.58128 1.11179 0.52238
 O1342 O 0.60730 1.13790 0.52240
 C1343 C 0.58917 1.12994 0.53007
 C1344 C 0.57744 1.14151 0.54854
 C1345 C 0.58539 1.16203 0.55675
 H1346 H 0.59978 1.16996 0.54912
 O1347 O 0.41992 0.88926 0.52207
 O1348 O 0.39395 0.86310 0.52198
 C1349 C 0.41206 0.87106 0.52971
 C1350 C 0.42372 0.85946 0.54823
 C1351 C 0.41535 0.83927 0.55686
 H1352 H 0.40071 0.83156 0.54947
 O1353 O 0.58154 0.97845 0.61175
 O1354 O 0.60755 0.97831 0.63789
 C1355 C 0.58939 0.97072 0.62993
 C1356 C 0.57751 0.95236 0.64158
 C1357 C 0.58526 0.94425 0.66225
 H1358 H 0.59966 0.95183 0.67022
 O1359 O 0.41972 1.02216 0.61171
 O1360 O 0.39373 1.02218 0.63785
 C1361 C 0.41190 1.02979 0.62992
 C1362 C 0.42377 1.04810 0.64163
 C1363 C 0.41597 1.05616 0.66228
 H1364 H 0.40156 1.04855 0.67021
 O1365 O 0.47891 1.11155 0.58143
 O1366 O 0.47890 1.13758 0.60754
 C1367 C 0.47121 1.12967 0.58937
 C1368 C 0.45269 1.14125 0.57770
 C1369 C 0.44431 1.16158 0.58592
 H1370 H 0.45183 1.16936 0.60047
 O1371 O 0.52247 0.88919 0.58110
 O1372 O 0.52251 0.86303 0.60713
 C1373 C 0.53016 0.87102 0.58897
 C1374 C 0.54861 0.85946 0.57722
 C1375 C 0.55680 0.83892 0.58517
 H1376 H 0.54918 0.83097 0.59958
 O1377 O 0.61210 0.91991 0.52204
 O1378 O 0.63827 0.89399 0.52197
 C1379 C 0.63035 0.91215 0.52960
 C1380 C 0.64214 0.92413 0.54779
 C1381 C 0.66324 0.91696 0.55518
 H1382 H 0.67140 0.90292 0.54717
 O1383 O 0.38913 1.08127 0.52205
 O1384 O 0.36300 1.10724 0.52210
 C1385 C 0.37090 1.08902 0.52965
 C1386 C 0.35915 1.07697 0.54783
 C1387 C 0.33818 1.08427 0.55541
 H1388 H 0.33005 1.09842 0.54752
 Cu1389 Cu 0.50061 0.90703 0.59377
 Cu1390 Cu 0.50061 0.87566 0.62506
 Cu1391 Cu 0.50074 1.09365 0.59410
 Cu1392 Cu 0.50076 1.12484 0.62551
 Cu1393 Cu 0.40721 0.90722 0.50027
 Cu1394 Cu 0.37598 0.87587 0.50016
 Cu1395 Cu 0.59407 0.90722 0.50030
 Cu1396 Cu 0.62538 0.87598 0.50024
 Cu1397 Cu 0.40713 1.09412 0.50039
 Cu1398 Cu 0.37591 1.12544 0.50050
 Cu1399 Cu 0.59394 1.09396 0.50052
 Cu1400 Cu 0.62525 1.12524 0.50049
 Cu1401 Cu 0.40701 1.00040 0.59374
 Cu1402 Cu 0.37574 1.00038 0.62506
 Cu1403 Cu 0.59421 1.00035 0.59392
 Cu1404 Cu 0.62550 1.00027 0.62524
 C1405 C 0.55892 0.94206 0.63152
 H1406 H 0.55305 0.94800 0.61543
 C1407 C 0.57474 0.92605 0.67254
 C1408 C 0.44236 1.05845 0.63162
 H1409 H 0.44827 1.05256 0.61554
 C1410 C 0.42644 1.07435 0.67260
 C1411 C 0.36939 1.05868 0.55849
 H1412 H 0.38570 1.05315 0.55294
 C1413 C 0.32774 1.07357 0.57344
 C1414 C 0.63186 0.94229 0.55858
 H1415 H 0.61547 0.94772 0.55318
 C1416 C 0.67378 0.92768 0.57312
 C1417 C 0.55899 0.86951 0.55865
 H1418 H 0.55299 0.88550 0.55263
 C1419 C 0.57512 0.82873 0.57485
 C1420 C 0.44239 1.13137 0.55899
 H1421 H 0.44853 1.11553 0.55277
 C1422 C 0.42585 1.17172 0.57576
 C1423 C 0.44232 0.94215 0.63156
 H1424 H 0.44918 0.94905 0.61627
 C1425 C 0.42380 0.92355 0.67030
 C1426 C 0.55898 1.05837 0.63178
 H1427 H 0.55320 1.05263 0.61560
 C1428 C 0.57456 1.07386 0.67308
 C1429 C 0.44254 0.86925 0.55837
 H1430 H 0.44887 0.88500 0.55205
 C1431 C 0.42544 0.82920 0.57543
 C1432 C 0.55890 1.13147 0.55893
 H1433 H 0.55288 1.11548 0.55292
 C1434 C 0.57510 1.17220 0.57511
 C1435 C 0.36925 0.94224 0.55849
 H1436 H 0.38475 0.94889 0.55190
 C1437 C 0.32992 0.92430 0.57625
 C1438 C 0.63170 1.05881 0.55884
 H1439 H 0.61557 1.05300 0.55304
 C1440 C 0.67287 1.07444 0.57446
 O1441 O 0.47805 0.41884 0.88958
 O1442 O 0.47801 0.39277 0.86351
 C1443 C 0.47033 0.41090 0.87145
 C1444 C 0.45181 0.42257 0.85988
 C1445 C 0.44336 0.41443 0.83952
 H1446 H 0.45083 0.39991 0.83168
 O1447 O 0.52159 0.58068 0.88945
 O1448 O 0.52163 0.60670 0.86328
 C1449 C 0.52924 0.58854 0.87125
 C1450 C 0.54755 0.57670 0.85958
 C1451 C 0.55543 0.58433 0.83878
 H1452 H 0.54770 0.59862 0.83073
 O1453 O 0.38866 0.47781 0.92025
 O1454 O 0.36249 0.47787 0.89427
 C1455 C 0.37045 0.47020 0.91243
 C1456 C 0.35880 0.45182 0.92427
 C1457 C 0.33810 0.44390 0.91656
 H1458 H 0.33010 0.45167 0.90225
 O1459 O 0.61091 0.52172 0.92017
 O1460 O 0.63705 0.52178 0.89418
 C1461 C 0.62909 0.52940 0.91234
 C1462 C 0.64070 0.54779 0.92419
 C1463 C 0.66124 0.55601 0.91631
 H1464 H 0.66916 0.54845 0.90188
 O1465 O 0.41928 0.38817 0.97923
 O1466 O 0.39333 0.36200 0.97918
 C1467 C 0.41149 0.36996 0.97158
 C1468 C 0.42344 0.35827 0.95331
 C1469 C 0.41597 0.33741 0.94554
 H1470 H 0.40173 0.32933 0.95331
 O1471 O 0.58026 0.61107 0.97933
 O1472 O 0.60628 0.63718 0.97928
 C1473 C 0.58812 0.62925 0.97165
 C1474 C 0.57633 0.64091 0.95324
 C1475 C 0.58419 0.66152 0.94515
 H1476 H 0.59857 0.66944 0.95281
 O1477 O 0.41928 0.52135 0.88946
 O1478 O 0.39330 0.52134 0.86330
 C1479 C 0.41145 0.52898 0.87123
 C1480 C 0.42327 0.54734 0.85952
 C1481 C 0.41545 0.55540 0.83886
 H1482 H 0.40110 0.54772 0.83090
 O1483 O 0.58036 0.47814 0.88943
 O1484 O 0.60635 0.47818 0.86329
 C1485 C 0.58819 0.47053 0.87121
 C1486 C 0.57634 0.45221 0.85949
 C1487 C 0.58396 0.44437 0.83870
 H1488 H 0.59821 0.45217 0.83066
 O1489 O 0.52181 0.38850 0.92020
 O1490 O 0.52194 0.36237 0.89419
 C1491 C 0.52955 0.37036 0.91236
 C1492 C 0.54797 0.35882 0.92420
 C1493 C 0.55637 0.33841 0.91620
 H1494 H 0.54894 0.33054 0.90166
 O1495 O 0.47782 0.61110 0.91995
 O1496 O 0.47776 0.63716 0.89383
 C1497 C 0.47005 0.62918 0.91196
 C1498 C 0.45135 0.64058 0.92347
 C1499 C 0.44207 0.66022 0.91451
 H1500 H 0.44911 0.66769 0.89955
 O1501 O 0.38879 0.58034 0.97933
 O1502 O 0.36268 0.60632 0.97930
 C1503 C 0.37066 0.58821 0.97161
 C1504 C 0.35918 0.57660 0.95299
 C1505 C 0.33922 0.58519 0.94411
 H1506 H 0.33159 0.59991 0.95140
 O1507 O 0.61091 0.41933 0.97944
 O1508 O 0.63703 0.39335 0.97950
 C1509 C 0.62905 0.41145 0.97176
 C1510 C 0.64057 0.42309 0.95317
 C1511 C 0.66078 0.41479 0.94461
 H1512 H 0.66853 0.40020 0.95208
 O1513 O 0.47803 0.58044 0.88944
 O1514 O 0.47804 0.60642 0.86322
 C1515 C 0.47043 0.58824 0.87119
 C1516 C 0.45212 0.57635 0.85951
 C1517 C 0.44403 0.58415 0.83885
 H1518 H 0.45162 0.59857 0.83090
 O1519 O 0.52163 0.41903 0.88945
 O1520 O 0.52166 0.39304 0.86331
 C1521 C 0.52925 0.41124 0.87122
 C1522 C 0.54750 0.42318 0.85949
 C1523 C 0.55539 0.41561 0.83870
 H1524 H 0.54769 0.40130 0.83067
 O1525 O 0.61085 0.47809 0.92016
 O1526 O 0.63696 0.47807 0.89413
 C1527 C 0.62899 0.47040 0.91230
 C1528 C 0.64054 0.45192 0.92406
 C1529 C 0.66076 0.44336 0.91581
 H1530 H 0.66851 0.45074 0.90116
 O1531 O 0.38882 0.52146 0.92021
 O1532 O 0.36274 0.52156 0.89413
 C1533 C 0.37071 0.52921 0.91229
 C1534 C 0.35923 0.54777 0.92394
 C1535 C 0.33926 0.55664 0.91535
 H1536 H 0.33164 0.54942 0.90056
 O1537 O 0.41916 0.61108 0.97916
 O1538 O 0.39309 0.63711 0.97912
 C1539 C 0.41116 0.62915 0.97136
 C1540 C 0.42256 0.64056 0.95255
 C1541 C 0.41355 0.66018 0.94328
 H1542 H 0.39866 0.66762 0.95041
 O1543 O 0.58043 0.38865 0.97950
 O1544 O 0.60647 0.36259 0.97959
 C1545 C 0.58834 0.37050 0.97186
 C1546 C 0.57670 0.35887 0.95335
 C1547 C 0.58484 0.33847 0.94508
 H1548 H 0.59929 0.33065 0.95270
 O1549 O 0.58039 0.52174 0.88947
 O1550 O 0.60640 0.52182 0.86335
 C1551 C 0.58824 0.52942 0.87127
 C1552 C 0.57642 0.54775 0.85958
 C1553 C 0.58403 0.55564 0.83878
 H1554 H 0.59828 0.54788 0.83074
 O1555 O 0.41920 0.47772 0.88962
 O1556 O 0.39313 0.47767 0.86353
 C1557 C 0.41127 0.47001 0.87148
 C1558 C 0.42292 0.45150 0.85991
 C1559 C 0.41474 0.44309 0.83955
 H1560 H 0.40022 0.45059 0.83172
 O1561 O 0.52144 0.61116 0.92020
 O1562 O 0.52147 0.63731 0.89416
 C1563 C 0.52908 0.62936 0.91236
 C1564 C 0.54743 0.64099 0.92424
 C1565 C 0.55555 0.66162 0.91643
 H1566 H 0.54793 0.66961 0.90204
 O1567 O 0.47825 0.38828 0.92026
 O1568 O 0.47831 0.36208 0.89433
 C1569 C 0.47068 0.37003 0.91250
 C1570 C 0.45242 0.35830 0.92443
 C1571 C 0.44468 0.33744 0.91692
 H1572 H 0.45250 0.32938 0.90269
 O1573 O 0.61090 0.58053 0.97933
 O1574 O 0.63702 0.60654 0.97932
 C1575 C 0.62906 0.58840 0.97166
 C1576 C 0.64067 0.57665 0.95321
 C1577 C 0.66119 0.58461 0.94504
 H1578 H 0.66908 0.59903 0.95267
 O1579 O 0.38864 0.41870 0.97916
 O1580 O 0.36254 0.39267 0.97912
 C1581 C 0.37047 0.41085 0.97149
 C1582 C 0.35881 0.42275 0.95314
 C1583 C 0.33808 0.41511 0.94517
 H1584 H 0.33007 0.40078 0.95286
 Cu1585 Cu 0.49994 0.40628 0.90747
 Cu1586 Cu 0.49999 0.37494 0.87621
 Cu1587 Cu 0.49973 0.59325 0.90739
 Cu1588 Cu 0.49974 0.62454 0.87602
 Cu1589 Cu 0.40660 0.49959 0.90749
 Cu1590 Cu 0.37529 0.49961 0.87619
 Cu1591 Cu 0.59302 0.49992 0.90742
 Cu1592 Cu 0.62433 0.49997 0.87613
 C1593 C 0.44160 0.44126 0.86983
 H1594 H 0.44780 0.44743 0.88569
 C1595 C 0.42492 0.42466 0.82942
 C1596 C 0.55803 0.55826 0.86973
 H1597 H 0.55226 0.55248 0.88592
 C1598 C 0.57355 0.57381 0.82843
 C1599 C 0.36892 0.44126 0.94271
 H1600 H 0.38504 0.44705 0.94854
 C1601 C 0.32778 0.42566 0.92698
 C1602 C 0.63067 0.55808 0.94281
 H1603 H 0.61469 0.55206 0.94879
 C1604 C 0.67142 0.57433 0.92670
 C1605 C 0.44183 0.36847 0.94279
 H1606 H 0.44750 0.38470 0.94848
 C1607 C 0.42658 0.32704 0.92746
 C1608 C 0.55780 0.63089 0.94280
 H1609 H 0.55186 0.61483 0.94872
 C1610 C 0.57383 0.67182 0.92686
 C1611 C 0.44176 0.55779 0.86959
 H1612 H 0.44767 0.55190 0.88569
 C1613 C 0.42580 0.57370 0.82859
 C1614 C 0.55795 0.44165 0.86964
 H1615 H 0.55218 0.44739 0.88582
 C1616 C 0.57350 0.42619 0.82834
 C1617 C 0.55812 0.36880 0.94293
 H1618 H 0.55197 0.38471 0.94899
 C1619 C 0.57471 0.32831 0.92660
 C1620 C 0.44160 0.63101 0.94265
 H1621 H 0.44841 0.61566 0.94944
 C1622 C 0.42324 0.66991 0.92434
 C1623 C 0.36895 0.55774 0.94291
 H1624 H 0.38455 0.55126 0.94940
 C1625 C 0.32935 0.57528 0.92537
 C1626 C 0.63069 0.44181 0.94290
 H1627 H 0.61492 0.44809 0.94916
 C1628 C 0.67080 0.42488 0.92603
 O1629 O 0.52125 0.41897 1.11295
 O1630 O 0.52125 0.39296 1.13913
 C1631 C 0.52883 0.41116 1.13121
 C1632 C 0.54705 0.42311 1.14297
 C1633 C 0.55475 0.41564 1.16389
 H1634 H 0.54693 0.40142 1.17198
 O1635 O 0.47799 0.58046 1.11254
 O1636 O 0.47784 0.60651 1.13863
 C1637 C 0.47020 0.58836 1.13065
 C1638 C 0.45162 0.57669 1.14212
 C1639 C 0.44284 0.58513 1.16220
 H1640 H 0.45013 0.59983 1.16990
 O1641 O 0.38846 0.52140 1.08191
 O1642 O 0.36230 0.52136 1.10788
 C1643 C 0.37030 0.52907 1.08976
 C1644 C 0.35877 0.54759 1.07803
 C1645 C 0.33839 0.55595 1.08612
 H1646 H 0.33052 0.54840 1.10061
 O1647 O 0.61074 0.47806 1.08247
 O1648 O 0.63685 0.47801 1.10851
 C1649 C 0.62891 0.47041 1.09031
 C1650 C 0.64057 0.45210 1.07844
 C1651 C 0.66111 0.44393 1.08634
 H1652 H 0.66901 0.45147 1.10081
 O1653 O 0.58037 0.38872 1.02321
 O1654 O 0.60643 0.36268 1.02330
 C1655 C 0.58828 0.37058 1.03093
 C1656 C 0.57656 0.35894 1.04940
 C1657 C 0.58459 0.33845 1.05762
 H1658 H 0.59902 0.33061 1.05000
 O1659 O 0.41938 0.61109 1.02289
 O1660 O 0.39338 0.63718 1.02288
 C1661 C 0.41154 0.62927 1.03052
 C1662 C 0.42333 0.64093 1.04892
 C1663 C 0.41535 0.66143 1.05713
 H1664 H 0.40089 0.66929 1.04956
 O1665 O 0.41894 0.47772 1.11262
 O1666 O 0.39290 0.47768 1.13871
 C1667 C 0.41105 0.47005 1.13081
 C1668 C 0.42281 0.45166 1.14252
 C1669 C 0.41502 0.44367 1.16321
 H1670 H 0.40072 0.45140 1.17117
 O1671 O 0.58021 0.52159 1.11319
 O1672 O 0.60619 0.52158 1.13936
 C1673 C 0.58804 0.52920 1.13142
 C1674 C 0.57617 0.54749 1.14312
 C1675 C 0.58373 0.55532 1.16395
 H1676 H 0.59798 0.54756 1.17202
 O1677 O 0.47794 0.38822 1.08210
 O1678 O 0.47796 0.36198 1.10806
 C1679 C 0.47039 0.36993 1.08984
 C1680 C 0.45226 0.35815 1.07778
 C1681 C 0.44479 0.33708 1.08499
 H1682 H 0.45269 0.32891 1.09913
 O1683 O 0.52179 0.61108 1.08220
 O1684 O 0.52178 0.63720 1.10822
 C1685 C 0.52944 0.62926 1.09006
 C1686 C 0.54780 0.64092 1.07822
 C1687 C 0.55587 0.66157 1.08596
 H1688 H 0.54827 0.66954 1.10035
 O1689 O 0.38864 0.41872 1.02281
 O1690 O 0.36254 0.39270 1.02284
 C1691 C 0.37045 0.41089 1.03045
 C1692 C 0.35874 0.42282 1.04870
 C1693 C 0.33785 0.41536 1.05642
 H1694 H 0.32976 0.40116 1.04859
 O1695 O 0.61078 0.58042 1.02305
 O1696 O 0.63689 0.60644 1.02307
 C1697 C 0.62891 0.58830 1.03076
 C1698 C 0.64045 0.57658 1.04930
 C1699 C 0.66087 0.58464 1.05760
 H1700 H 0.66875 0.59910 1.05000
 O1701 O 0.52156 0.58054 1.11297
 O1702 O 0.52148 0.60652 1.13913
 C1703 C 0.52909 0.58834 1.13124
 C1704 C 0.54730 0.57643 1.14304
 C1705 C 0.55510 0.58399 1.16389
 H1706 H 0.54734 0.59826 1.17191
 O1707 O 0.47769 0.41874 1.11281
 O1708 O 0.47762 0.39266 1.13893
 C1709 C 0.46999 0.41083 1.13097
 C1710 C 0.45162 0.42264 1.14259
 C1711 C 0.44357 0.41492 1.16330
 H1712 H 0.45121 0.40058 1.17133
 O1713 O 0.61063 0.52167 1.08241
 O1714 O 0.63674 0.52170 1.10845
 C1715 C 0.62879 0.52935 1.09026
 C1716 C 0.64039 0.54777 1.07843
 C1717 C 0.66083 0.55610 1.08645
 H1718 H 0.66868 0.54861 1.10099
 O1719 O 0.38857 0.47776 1.08175
 O1720 O 0.36239 0.47770 1.10770
 C1721 C 0.37037 0.47010 1.08953
 C1722 C 0.35871 0.45180 1.07760
 C1723 C 0.33783 0.44407 1.08505
 H1724 H 0.32974 0.45190 1.09925
 O1725 O 0.58039 0.61116 1.02301
 O1726 O 0.60641 0.63728 1.02299
 C1727 C 0.58828 0.62933 1.03067
 C1728 C 0.57655 0.64096 1.04911
 C1729 C 0.58436 0.66161 1.05712
 H1730 H 0.59865 0.66960 1.04935
 O1731 O 0.41922 0.38812 1.02287
 O1732 O 0.39328 0.36193 1.02287
 C1733 C 0.41144 0.36988 1.03049
 C1734 C 0.42340 0.35814 1.04874
 C1735 C 0.41619 0.33707 1.05622
 H1736 H 0.40212 0.32889 1.04825
 O1737 O 0.58009 0.47800 1.11304
 O1738 O 0.60607 0.47794 1.13922
 C1739 C 0.58790 0.47034 1.13127
 C1740 C 0.57598 0.45205 1.14298
 C1741 C 0.58342 0.44431 1.16390
 H1742 H 0.59762 0.45212 1.17201
 O1743 O 0.41909 0.52138 1.11245
 O1744 O 0.39301 0.52139 1.13851
 C1745 C 0.41115 0.52909 1.13057
 C1746 C 0.42275 0.54768 1.14211
 C1747 C 0.41425 0.55642 1.16219
 H1748 H 0.39957 0.54908 1.16986
 O1749 O 0.47822 0.61115 1.08201
 O1750 O 0.47815 0.63731 1.10799
 C1751 C 0.47057 0.62935 1.08980
 C1752 C 0.45222 0.64097 1.07792
 C1753 C 0.44398 0.66147 1.08585
 H1754 H 0.45152 0.66936 1.10033
 O1755 O 0.52151 0.38844 1.08231
 O1756 O 0.52160 0.36228 1.10835
 C1757 C 0.52924 0.37029 1.09019
 C1758 C 0.54771 0.35879 1.07842
 C1759 C 0.55601 0.33829 1.08636
 H1760 H 0.54848 0.33032 1.10081
 O1761 O 0.61091 0.41939 1.02316
 O1762 O 0.63705 0.39344 1.02323
 C1763 C 0.62907 0.41157 1.03087
 C1764 C 0.64065 0.42334 1.04933
 C1765 C 0.66118 0.41543 1.05751
 H1766 H 0.66911 0.40106 1.04985
 O1767 O 0.38867 0.58054 1.02303
 O1768 O 0.36257 0.60654 1.02302
 C1769 C 0.37051 0.58839 1.03069
 C1770 C 0.35888 0.57662 1.04915
 C1771 C 0.33848 0.58470 1.05748
 H1772 H 0.33067 0.59922 1.04996
 Cu1773 Cu 0.49959 0.40620 1.09494
 Cu1774 Cu 0.49960 0.37484 1.12624
 Cu1775 Cu 0.49992 0.59320 1.09482
 Cu1776 Cu 0.49981 0.62450 1.12612
 Cu1777 Cu 0.40654 0.40604 1.00102
 Cu1778 Cu 0.37530 0.37470 1.00101
 Cu1779 Cu 0.59305 0.40663 1.00133
 Cu1780 Cu 0.62437 0.37540 1.00143
 Cu1781 Cu 0.40662 0.59316 1.00114
 Cu1782 Cu 0.37532 0.62441 1.00111
 Cu1783 Cu 0.59298 0.59319 1.00117
 Cu1784 Cu 0.62428 0.62447 1.00116
 Cu1785 Cu 0.40638 0.49955 1.09458
 Cu1786 Cu 0.37503 0.49950 1.12582
 Cu1787 Cu 0.59281 0.49983 1.09517
 Cu1788 Cu 0.62409 0.49980 1.12650
 C1789 C 0.55764 0.44148 1.13276
 H1790 H 0.55200 0.44714 1.11649
 C1791 C 0.57281 0.42623 1.17431
 C1792 C 0.44159 0.55781 1.13232
 H1793 H 0.44802 0.55141 1.11665
 C1794 C 0.42424 0.57506 1.17215
 C1795 C 0.36877 0.55792 1.05940
 H1796 H 0.38466 0.55179 1.05329
 C1797 C 0.32831 0.57441 1.07589
 C1798 C 0.63058 0.44183 1.05977
 H1799 H 0.61458 0.44780 1.05378
 C1800 C 0.67135 0.42569 1.07590
 C1801 C 0.55798 0.36887 1.05978
 H1802 H 0.55190 0.38483 1.05376
 C1803 C 0.57435 0.32819 1.07599
 C1804 C 0.44193 0.63096 1.05929
 H1805 H 0.44796 0.61498 1.05329
 C1806 C 0.42565 0.67163 1.07550
 C1807 C 0.44125 0.44116 1.13245
 H1808 H 0.44715 0.44702 1.11635
 C1809 C 0.42538 0.42541 1.17355
 C1810 C 0.55781 0.55802 1.13292
 H1811 H 0.55210 0.55229 1.11670
 C1812 C 0.57320 0.57346 1.17429
 C1813 C 0.44160 0.36844 1.05949
 H1814 H 0.44707 0.38482 1.05401
 C1815 C 0.42688 0.32657 1.07421
 C1816 C 0.55812 0.63086 1.05964
 H1817 H 0.55221 0.61479 1.05377
 C1818 C 0.57405 0.67187 1.07543
 C1819 C 0.36892 0.44120 1.05927
 H1820 H 0.38515 0.44686 1.05362
 C1821 C 0.32744 0.42598 1.07448
 C1822 C 0.63045 0.55800 1.05969
 H1823 H 0.61453 0.55190 1.05361
 C1824 C 0.67099 0.57444 1.07607
 C1825 C 1.09993 1.09916 1.23136
 C1826 C 1.09003 1.11816 1.24141
 C1827 C 1.09944 1.12737 1.26121
 C1828 C 1.11869 1.11754 1.27084
 C1829 C 1.12841 1.09837 1.26096
 C1830 C 1.11900 1.08915 1.24116
 C1831 C 1.12905 1.07002 1.23155
 C1832 C 1.14785 1.06026 1.24123
 C1833 C 1.15706 1.06928 1.26058
 C1834 C 1.14753 1.08811 1.27040
 C1835 C 1.08930 1.14641 1.27090
 C1836 C 1.07039 1.15606 1.26131
 C1837 C 1.06119 1.14705 1.24196
 C1838 C 1.07083 1.12832 1.23204
 C1839 C 1.12866 1.12731 1.29073
 C1840 C 1.13701 1.13553 1.30715
 C1841 C 1.09077 1.09021 1.21071
 C1842 C 1.08337 1.08293 1.19342
 H1843 H 1.12249 1.06238 1.21651
 H1844 H 1.15532 1.04563 1.23367
 H1845 H 1.17167 1.06164 1.26803
 H1846 H 1.15528 1.09450 1.28545
 H1847 H 1.09583 1.15402 1.28596
 H1848 H 1.06284 1.17061 1.26895
 H1849 H 1.04650 1.15460 1.23458
 H1850 H 1.06306 1.12191 1.21701
 C1851 C 1.10387 0.60378 0.72632
 C1852 C 1.10885 0.59087 0.74555
 C1853 C 1.11904 0.60112 0.76442
 C1854 C 1.12416 0.62423 0.76394
 C1855 C 1.11917 0.63716 0.74471
 C1856 C 1.10900 0.62689 0.72583
 C1857 C 1.10425 0.64012 0.70676
 C1858 C 1.10939 0.66284 0.70634
 C1859 C 1.11928 0.67289 0.72482
 C1860 C 1.12414 0.66028 0.74383
 C1861 C 1.12390 0.58786 0.78344
 C1862 C 1.11885 0.56512 0.78380
 C1863 C 1.10888 0.55510 0.76535
 C1864 C 1.10389 0.56774 0.74640
 C1865 C 1.13458 0.63468 0.78321
 C1866 C 1.14319 0.64328 0.79928
 C1867 C 1.09365 0.59330 0.70697
 C1868 C 1.08530 0.58481 0.69071
 H1869 H 1.09654 0.63308 0.69198
 H1870 H 1.10571 0.67268 0.69159
 H1871 H 1.12323 0.69055 0.72441
 H1872 H 1.13186 0.66885 0.75779
 H1873 H 1.13166 0.59489 0.79820
 H1874 H 1.12270 0.55523 0.79848
 H1875 H 1.10499 0.53743 0.76571
 H1876 H 1.09614 0.55920 0.73246
 C1877 C 0.59947 1.09889 0.73177
 C1878 C 0.61699 1.08765 0.74303
 C1879 C 0.62643 1.09707 0.76272
 C1880 C 0.61828 1.11767 0.77103
 C1881 C 0.60050 1.12872 0.75998
 C1882 C 0.59107 1.11930 0.74029
 C1883 C 0.57337 1.13070 0.72948
 C1884 C 0.56521 1.15081 0.73791
 C1885 C 0.57442 1.16001 0.75716
 C1886 C 0.59188 1.14918 0.76813
 C1887 C 0.64398 1.08556 0.77365
 C1888 C 0.65196 1.06531 0.76538
 C1889 C 0.64274 1.05611 0.74613
 C1890 C 0.62546 1.06708 0.73501
 C1891 C 0.62838 1.12765 0.79073
 C1892 C 0.63686 1.13605 0.80697
 C1893 C 0.59042 1.08973 0.71118
 C1894 C 0.58308 1.08236 0.69391
 H1895 H 0.56563 1.12419 0.71447
 H1896 H 0.55164 1.15929 0.72945
 H1897 H 0.56802 1.17564 0.76364
 H1898 H 0.59849 1.15699 0.78306
 H1899 H 0.65168 1.09205 0.78869
 H1900 H 0.66538 1.05672 0.77396
 H1901 H 0.64900 1.04037 0.73978
 H1902 H 0.61881 1.05924 0.72011
 C1903 C 0.59803 0.59796 1.23325
 C1904 C 0.58528 0.61303 1.24628
 C1905 C 0.59451 0.62229 1.26615
 C1906 C 0.61642 0.61642 1.27285
 C1907 C 0.62905 0.60110 1.25998
 C1908 C 0.61983 0.59185 1.24012
 C1909 C 0.63280 0.57663 1.22749
 C1910 C 0.65426 0.57072 1.23429
 C1911 C 0.66328 0.57976 1.25371
 C1912 C 0.65090 0.59479 1.26647
 C1913 C 0.58148 0.63737 1.27887
 C1914 C 0.55993 0.64312 1.27218
 C1915 C 0.55092 0.63407 1.25275
 C1916 C 0.56337 0.61920 1.23988
 C1917 C 0.62611 0.62636 1.29278
 C1918 C 0.63434 0.63468 1.30921
 C1919 C 0.58893 0.58909 1.21255
 C1920 C 0.58162 0.58187 1.19520
 H1921 H 0.62650 0.56913 1.21227
 H1922 H 0.66394 0.55905 1.22443
 H1923 H 0.67996 0.57511 1.25892
 H1924 H 0.65863 0.60136 1.28146
 H1925 H 0.58776 0.64483 1.29412
 H1926 H 0.55019 0.65467 1.28212
 H1927 H 0.53417 0.63860 1.24762
 H1928 H 0.55563 0.61259 1.22492
 C1929 C 0.90153 0.90053 1.23081
 C1930 C 0.89570 0.91492 1.24867
 C1931 C 0.88657 0.90590 1.26869
 C1932 C 0.88333 0.88254 1.27073
 C1933 C 0.88923 0.86813 1.25290
 C1934 C 0.89836 0.87715 1.23287
 C1935 C 0.90408 0.86243 1.21526
 C1936 C 0.90087 0.83944 1.21735
 C1937 C 0.89195 0.83062 1.23693
 C1938 C 0.88617 0.84472 1.25456
 C1939 C 0.88083 0.92063 1.28630
 C1940 C 0.88402 0.94361 1.28418
 C1941 C 0.89296 0.95243 1.26461
 C1942 C 0.89876 0.93833 1.24699
 C1943 C 0.87384 0.87332 1.29111
 C1944 C 0.86592 0.86559 1.30797
 C1945 C 0.91058 0.90974 1.21024
 C1946 C 0.91797 0.91723 1.19304
 H1947 H 0.91109 0.86849 1.19970
 H1948 H 0.90534 0.82843 1.20371
 H1949 H 0.88950 0.81276 1.23848
 H1950 H 0.87930 0.83706 1.26946
 H1951 H 0.87382 0.91456 1.30185
 H1952 H 0.87954 0.95463 1.29781
 H1953 H 0.89541 0.97029 1.26305
 H1954 H 0.90565 0.94598 1.23210
 C1955 C 0.89697 0.39766 0.72789
 C1956 C 0.87360 0.39400 0.72842
 C1957 C 0.86354 0.38447 0.74774
 C1958 C 0.87691 0.37866 0.76641
 C1959 C 0.90027 0.38237 0.76590
 C1960 C 0.91033 0.39191 0.74658
 C1961 C 0.93370 0.39546 0.74644
 C1962 C 0.94677 0.38974 0.76488
 C1963 C 0.93694 0.38039 0.78377
 C1964 C 0.91397 0.37670 0.78437
 C1965 C 0.84016 0.38093 0.74787
 C1966 C 0.82709 0.38665 0.72943
 C1967 C 0.83693 0.39597 0.71053
 C1968 C 0.85990 0.39965 0.70994
 C1969 C 0.86667 0.36877 0.78610
 C1970 C 0.85826 0.36050 0.80246
 C1971 C 0.90723 0.40719 0.70804
 C1972 C 0.91549 0.41503 0.69140
 H1973 H 0.94211 0.40268 0.73213
 H1974 H 0.96463 0.39258 0.76450
 H1975 H 0.94717 0.37597 0.79804
 H1976 H 0.90710 0.36939 0.79944
 H1977 H 0.83174 0.37373 0.76219
 H1978 H 0.80924 0.38382 0.72980
 H1979 H 0.82672 0.40037 0.69624
 H1980 H 0.86677 0.40696 0.69487
 C1981 C 0.39363 0.89357 0.72401
 C1982 C 0.37772 0.87644 0.72022
 C1983 C 0.36701 0.86592 0.73867
 C1984 C 0.37227 0.87259 0.76079
 C1985 C 0.38817 0.88972 0.76456
 C1986 C 0.39888 0.90024 0.74611
 C1987 C 0.41470 0.91732 0.75030
 C1988 C 0.41981 0.92383 0.77209
 C1989 C 0.40936 0.91355 0.79013
 C1990 C 0.39371 0.89668 0.78652
 C1991 C 0.35117 0.84886 0.73448
 C1992 C 0.34605 0.84236 0.71267
 C1993 C 0.35652 0.85265 0.69463
 C1994 C 0.37218 0.86950 0.69826
 C1995 C 0.36138 0.86189 0.77969
 C1996 C 0.35254 0.85320 0.79560
 C1997 C 0.40453 0.90433 0.70516
 C1998 C 0.41346 0.91319 0.68940
 H1999 H 0.42328 0.92582 0.73681
 H2000 H 0.43196 0.93693 0.77499
 H2001 H 0.41339 0.91866 0.80703
 H2002 H 0.38604 0.88919 0.80110
 H2003 H 0.34259 0.84036 0.74797
 H2004 H 0.33389 0.82928 0.70975
 H2005 H 0.35249 0.84754 0.67773
 H2006 H 0.37988 0.87699 0.68369
 C2007 C 0.39988 0.40087 1.23224
 C2008 C 0.37652 0.40161 1.23588
 C2009 C 0.36736 0.39273 1.25595
 C2010 C 0.38160 0.38315 1.27227
 C2011 C 0.40497 0.38249 1.26868
 C2012 C 0.41414 0.39138 1.24860
 C2013 C 0.43754 0.39049 1.24537
 C2014 C 0.45149 0.38110 1.26150
 C2015 C 0.44253 0.37241 1.28113
 C2016 C 0.41955 0.37305 1.28476
 C2017 C 0.34395 0.39362 1.25919
 C2018 C 0.33000 0.40300 1.24304
 C2019 C 0.33895 0.41166 1.22341
 C2020 C 0.36193 0.41103 1.21978
 C2021 C 0.37220 0.37377 1.29262
 C2022 C 0.36433 0.36587 1.30943
 C2023 C 0.40918 0.40967 1.21160
 C2024 C 0.41671 0.41689 1.19433
 H2025 H 0.44529 0.39704 1.23037
 H2026 H 0.46935 0.38056 1.25876
 H2027 H 0.45344 0.36513 1.29361
 H2028 H 0.41337 0.36608 1.30029
 H2029 H 0.33620 0.38711 1.27420
 H2030 H 0.31213 0.40353 1.24579
 H2031 H 0.32804 0.41891 1.21091
 H2032 H 0.36810 0.41800 1.20425
 C2033 C 0.90228 1.09845 0.76766
 C2034 C 0.89950 1.12182 0.76506
 C2035 C 0.89047 1.13054 0.74486
 C2036 C 0.88425 1.11584 0.72736
 C2037 C 0.88715 1.09248 0.72990
 C2038 C 0.89619 1.08376 0.75012
 C2039 C 0.89888 1.06035 0.75230
 C2040 C 0.89284 1.04596 0.73499
 C2041 C 0.88403 1.05449 0.71522
 C2042 C 0.88117 1.07747 0.71262
 C2043 C 0.88783 1.15396 0.74267
 C2044 C 0.89392 1.16835 0.75996
 C2045 C 0.90273 1.15982 0.77972
 C2046 C 0.90553 1.13685 0.78234
 C2047 C 0.87473 1.12478 0.70687
 C2048 C 0.86676 1.13248 0.68999
 C2049 C 0.91118 1.08957 0.78846
 C2050 C 0.91841 1.08238 0.80586
 H2051 H 0.90567 1.05293 0.76736
 H2052 H 0.89502 1.02810 0.73693
 H2053 H 0.87938 1.04324 0.70183
 H2054 H 0.87425 1.08331 0.69694
 H2055 H 0.88106 1.16140 0.72762
 H2056 H 0.89179 1.18621 0.75800
 H2057 H 0.90743 1.17107 0.79310
 H2058 H 0.91246 1.13103 0.79802
 C2059 C 0.89814 0.60127 0.27141
 C2060 C 0.91218 0.60930 0.25411
 C2061 C 0.90265 0.61885 0.23452
 C2062 C 0.87914 0.62031 0.23235
 C2063 C 0.86510 0.61221 0.24962
 C2064 C 0.87463 0.60267 0.26922
 C2065 C 0.86026 0.59474 0.28629
 C2066 C 0.83714 0.59619 0.28406
 C2067 C 0.82782 0.60549 0.26489
 C2068 C 0.84156 0.61344 0.24781
 C2069 C 0.91702 0.62677 0.21746
 C2070 C 0.94014 0.62532 0.21969
 C2071 C 0.94945 0.61600 0.23886
 C2072 C 0.93572 0.60806 0.25593
 C2073 C 0.86942 0.63023 0.21242
 C2074 C 0.86133 0.63849 0.19589
 C2075 C 0.90785 0.59173 0.29153
 C2076 C 0.91575 0.58394 0.30836
 H2077 H 0.86671 0.58735 0.30151
 H2078 H 0.82640 0.59004 0.29727
 H2079 H 0.80985 0.60656 0.26323
 H2080 H 0.83352 0.62053 0.23322
 H2081 H 0.91056 0.63416 0.20223
 H2082 H 0.95088 0.63145 0.20647
 H2083 H 0.96743 0.61491 0.24051
 H2084 H 0.94375 0.60096 0.27052
 C2085 C 0.40162 1.09884 0.26873
 C2086 C 0.41605 1.10772 0.25219
 C2087 C 0.40705 1.11627 0.23190
 C2088 C 0.38368 1.11589 0.22827
 C2089 C 0.36926 1.10694 0.24478
 C2090 C 0.37826 1.09840 0.26508
 C2091 C 0.36350 1.08960 0.28137
 C2092 C 0.34051 1.08925 0.27772
 C2093 C 0.33172 1.09758 0.25786
 C2094 C 0.34585 1.10634 0.24152
 C2095 C 0.42181 1.12511 0.21562
 C2096 C 0.44479 1.12548 0.21930
 C2097 C 0.45359 1.11712 0.23914
 C2098 C 0.43946 1.10832 0.25546
 C2099 C 0.37447 1.12490 0.20767
 C2100 C 0.36680 1.13252 0.19063
 C2101 C 0.41077 1.09031 0.28957
 C2102 C 0.41817 1.08327 0.30696
 H2103 H 0.36953 1.08290 0.29708
 H2104 H 0.32946 1.08248 0.29037
 H2105 H 0.31385 1.09727 0.25510
 H2106 H 0.33821 1.11261 0.22635
 H2107 H 0.41576 1.13181 0.19992
 H2108 H 0.45583 1.13230 0.20667
 H2109 H 0.47145 1.11744 0.24191
 H2110 H 0.44709 1.10201 0.27062
 C2111 C 0.40028 0.59955 0.77048
 C2112 C 0.40570 0.62176 0.76428
 C2113 C 0.39621 0.63127 0.74465
 C2114 C 0.38136 0.61851 0.73133
 C2115 C 0.37611 0.59624 0.73742
 C2116 C 0.38560 0.58673 0.75706
 C2117 C 0.38005 0.56446 0.76284
 C2118 C 0.36554 0.55193 0.74960
 C2119 C 0.35626 0.56122 0.73041
 C2120 C 0.36142 0.58312 0.72430
 C2121 C 0.40182 0.65352 0.73883
 C2122 C 0.41639 0.66602 0.75203
 C2123 C 0.42566 0.65673 0.77122
 C2124 C 0.42044 0.63486 0.77736
 C2125 C 0.37134 0.62839 0.71153
 C2126 C 0.36297 0.63669 0.69516
 C2127 C 0.40951 0.59009 0.79086
 C2128 C 0.41703 0.58247 0.80796
 H2129 H 0.38685 0.55650 0.77762
 H2130 H 0.36148 0.53492 0.75427
 H2131 H 0.34500 0.55142 0.72018
 H2132 H 0.35379 0.58961 0.70922
 H2133 H 0.39504 0.66148 0.72404
 H2134 H 0.42049 0.68301 0.74733
 H2135 H 0.43697 0.66651 0.78142
 H2136 H 0.42810 0.62837 0.79243
 C2137 C 1.10249 0.89829 0.77182
 C2138 C 1.09547 0.87685 0.76465
 C2139 C 1.10570 0.86674 0.74574
 C2140 C 1.12289 0.87814 0.73412
 C2141 C 1.12975 0.89967 0.74114
 C2142 C 1.11952 0.90978 0.76005
 C2143 C 1.12668 0.93130 0.76680
 C2144 C 1.14347 0.94253 0.75517
 C2145 C 1.15347 0.93264 0.73668
 C2146 C 1.14677 0.91146 0.72967
 C2147 C 1.09844 0.84528 0.73892
 C2148 C 1.08155 0.83412 0.75045
 C2149 C 1.07154 0.84401 0.76894
 C2150 C 1.07836 0.86512 0.77604
 C2151 C 1.13357 0.86765 0.71502
 C2152 C 1.14240 0.85889 0.69918
 C2153 C 1.09254 0.90828 0.79155
 C2154 C 1.08447 0.91636 0.80815
 H2155 H 1.11939 0.93969 0.78107
 H2156 H 1.14873 0.95898 0.76054
 H2157 H 1.16650 0.94143 0.72771
 H2158 H 1.15505 0.90447 0.71519
 H2159 H 1.10571 0.83690 0.72463
 H2160 H 1.07619 0.81772 0.74500
 H2161 H 1.05842 0.83528 0.77784
 H2162 H 1.07005 0.87212 0.79051
 C2163 C 1.09626 0.40318 0.26644
 C2164 C 1.08544 0.38508 0.25569
 C2165 C 1.09430 0.37627 0.23546
 C2166 C 1.11392 0.38564 0.22611
 C2167 C 1.12454 0.40396 0.23667
 C2168 C 1.11568 0.41276 0.25690
 C2169 C 1.12663 0.43104 0.26719
 C2170 C 1.14579 0.44036 0.25777
 C2171 C 1.15445 0.43176 0.23800
 C2172 C 1.14402 0.41377 0.22750
 C2173 C 1.08324 0.35811 0.22507
 C2174 C 1.06398 0.34893 0.23439
 C2175 C 1.05531 0.35754 0.25416
 C2176 C 1.06585 0.37540 0.26476
 C2177 C 1.12340 0.37618 0.20585
 C2178 C 1.13144 0.36822 0.18916
 C2179 C 1.08769 0.41164 0.28752
 C2180 C 1.08078 0.41852 0.30516
 H2181 H 1.12052 0.43833 0.28258
 H2182 H 1.15395 0.45434 0.26586
 H2183 H 1.16933 0.43906 0.23075
 H2184 H 1.15138 0.40767 0.21214
 H2185 H 1.08934 0.35085 0.20966
 H2186 H 1.05573 0.33505 0.22622
 H2187 H 1.04033 0.35034 0.26132
 H2188 H 1.05846 0.38153 0.28010
 C2189 C 0.59792 0.90327 0.26778
 C2190 C 0.58797 0.88419 0.25793
 C2191 C 0.59697 0.87513 0.23788
 C2192 C 0.61586 0.88521 0.22780
 C2193 C 0.62562 0.90449 0.23748
 C2194 C 0.61662 0.91355 0.25753
 C2195 C 0.62670 0.93278 0.26692
 C2196 C 0.64513 0.94279 0.25680
 C2197 C 0.65394 0.93393 0.23721
 C2198 C 0.64436 0.91500 0.22758
 C2199 C 0.58678 0.85600 0.22839
 C2200 C 0.56822 0.84611 0.23840
 C2201 C 0.55942 0.85497 0.25800
 C2202 C 0.56912 0.87378 0.26773
 C2203 C 0.62547 0.87556 0.20770
 C2204 C 0.63357 0.86742 0.19114
 C2205 C 0.58923 0.91204 0.28868
 C2206 C 0.58217 0.91914 0.30618
 H2207 H 0.62044 0.94031 0.28214
 H2208 H 0.65263 0.95751 0.26421
 H2209 H 0.66826 0.94177 0.22941
 H2210 H 0.65180 0.90874 0.21232
 H2211 H 0.59300 0.84851 0.21314
 H2212 H 0.56063 0.83149 0.23091
 H2213 H 0.54500 0.84722 0.26571
 H2214 H 0.56166 0.88007 0.28297
 C2215 C 0.59838 0.40171 0.76941
 C2216 C 0.58983 0.38152 0.76049
 C2217 C 0.59923 0.37241 0.74065
 C2218 C 0.61712 0.38354 0.72986
 C2219 C 0.62544 0.40390 0.73859
 C2220 C 0.61604 0.41302 0.75843
 C2221 C 0.62469 0.43336 0.76688
 C2222 C 0.64210 0.44439 0.75604
 C2223 C 0.65129 0.43548 0.73664
 C2224 C 0.64312 0.41547 0.72795
 C2225 C 0.59045 0.35217 0.73209
 C2226 C 0.57289 0.34125 0.74281
 C2227 C 0.56371 0.35015 0.76221
 C2228 C 0.57202 0.37005 0.77103
 C2229 C 0.62717 0.37387 0.70998
 C2230 C 0.63559 0.36572 0.69359
 C2231 C 0.58931 0.41059 0.79011
 C2232 C 0.58198 0.41780 0.80746
 H2233 H 0.61808 0.44096 0.78191
 H2234 H 0.64851 0.45994 0.76272
 H2235 H 0.66481 0.44412 0.72828
 H2236 H 0.65080 0.40922 0.71281
 H2237 H 0.59702 0.34459 0.71703
 H2238 H 0.56637 0.32579 0.73603
 H2239 H 0.55007 0.34160 0.77048
 H2240 H 0.56431 0.37632 0.78614
 C2241 C 1.23287 1.09697 1.09693
 C2242 C 1.24392 1.08549 1.11446
 C2243 C 1.26413 1.09418 1.12343
 C2244 C 1.27317 1.11430 1.11481
 C2245 C 1.26229 1.12562 1.09707
 C2246 C 1.24208 1.11693 1.08810
 C2247 C 1.23145 1.12858 1.07043
 C2248 C 1.24054 1.14825 1.06185
 C2249 C 1.26030 1.15675 1.07062
 C2250 C 1.27112 1.14564 1.08802
 C2251 C 1.27482 1.08245 1.14101
 C2252 C 1.26581 1.06269 1.14948
 C2253 C 1.24606 1.05419 1.14070
 C2254 C 1.23516 1.06539 1.12340
 C2255 C 1.29344 1.12355 1.12442
 C2256 C 1.31015 1.13139 1.13250
 C2257 C 1.21183 1.08853 1.08829
 C2258 C 1.19423 1.08167 1.08130
 H2259 H 1.21606 1.12262 1.06304
 H2260 H 1.23219 1.15695 1.04833
 H2261 H 1.26729 1.17204 1.06390
 H2262 H 1.28646 1.15289 1.09427
 H2263 H 1.29023 1.08839 1.14838
 H2264 H 1.27421 1.05393 1.16292
 H2265 H 1.23913 1.03883 1.14734
 H2266 H 1.21985 1.05810 1.11711
 C2267 C 1.23023 0.59900 0.59922
 C2268 C 1.24380 0.58616 0.61378
 C2269 C 1.26334 0.59576 0.62328
 C2270 C 1.26920 0.61813 0.61816
 C2271 C 1.25577 0.63087 0.60340
 C2272 C 1.23622 0.62128 0.59390
 C2273 C 1.22302 0.63437 0.57924
 C2274 C 1.22896 0.65631 0.57411
 C2275 C 1.24807 0.66569 0.58339
 C2276 C 1.26138 0.65320 0.59788
 C2277 C 1.27661 0.58263 0.63785
 C2278 C 1.27074 0.56064 0.64286
 C2279 C 1.25163 0.55126 0.63356
 C2280 C 1.23824 0.56380 0.61918
 C2281 C 1.28888 0.62812 0.62826
 C2282 C 1.30513 0.63651 0.63670
 C2283 C 1.20988 0.58947 0.59007
 C2284 C 1.19279 0.58184 0.58262
 H2285 H 1.20801 0.62781 0.57157
 H2286 H 1.21867 0.66608 0.56286
 H2287 H 1.25261 0.68274 0.57935
 H2288 H 1.27609 0.66123 0.60467
 H2289 H 1.29163 0.58919 0.64548
 H2290 H 1.28108 0.55083 0.65402
 H2291 H 1.24715 0.53417 0.63751
 H2292 H 1.22355 0.55576 0.61235
 C2293 C 0.73185 1.09904 0.59897
 C2294 C 0.74846 1.08432 0.60719
 C2295 C 0.76869 1.09306 0.61607
 C2296 C 0.77219 1.11647 0.61668
 C2297 C 0.75559 1.13118 0.60841
 C2298 C 0.73536 1.12244 0.59954
 C2299 C 0.71899 1.13749 0.59145
 C2300 C 0.72250 1.16051 0.59210
 C2301 C 0.74229 1.16905 0.60074
 C2302 C 0.75871 1.15464 0.60881
 C2303 C 0.78504 1.07802 0.62421
 C2304 C 0.78149 1.05500 0.62361
 C2305 C 0.76171 1.04645 0.61495
 C2306 C 0.74532 1.06086 0.60680
 C2307 C 0.79273 1.12543 0.62599
 C2308 C 0.80970 1.13302 0.63377
 C2309 C 0.71108 1.09014 0.59013
 C2310 C 0.69373 1.08289 0.58290
 H2311 H 0.70332 1.13165 0.58455
 H2312 H 0.70979 1.17178 0.58587
 H2313 H 0.74495 1.18695 0.60120
 H2314 H 0.77383 1.16209 0.61537
 H2315 H 0.80069 1.08386 0.63112
 H2316 H 0.79417 1.04373 0.62992
 H2317 H 0.75903 1.02856 0.61453
 H2318 H 0.73021 1.05342 0.60022
 C2319 C 0.72839 0.60116 1.10197
 C2320 C 0.73087 0.62470 1.10265
 C2321 C 0.75048 0.63428 1.11202
 C2322 C 0.76748 0.62027 1.12066
 C2323 C 0.76502 0.59673 1.11994
 C2324 C 0.74541 0.58715 1.11056
 C2325 C 0.74329 0.56359 1.11006
 C2326 C 0.76008 0.54987 1.11858
 C2327 C 0.77925 0.55924 1.12775
 C2328 C 0.78179 0.58239 1.12847
 C2329 C 0.75257 0.65785 1.11254
 C2330 C 0.73574 0.67156 1.10408
 C2331 C 0.71656 0.66219 1.09493
 C2332 C 0.71407 0.63904 1.09416
 C2333 C 0.78742 0.63006 1.13042
 C2334 C 0.80393 0.63820 1.13858
 C2335 C 0.70823 0.59141 1.09266
 C2336 C 0.69135 0.58352 1.08503
 H2337 H 0.72869 0.55552 1.10309
 H2338 H 0.75818 0.53188 1.11807
 H2339 H 0.79224 0.54851 1.13436
 H2340 H 0.79700 0.58888 1.13577
 H2341 H 0.76718 0.66593 1.11949
 H2342 H 0.73761 0.68955 1.10464
 H2343 H 0.70354 0.67291 1.08838
 H2344 H 0.69885 0.63255 1.08685
 C2345 C 1.22427 0.89405 0.89394
 C2346 C 1.24103 0.90707 0.88348
 C2347 C 1.25937 0.89641 0.87282
 C2348 C 1.26081 0.87278 0.87267
 C2349 C 1.24400 0.85975 0.88307
 C2350 C 1.22569 0.87042 0.89377
 C2351 C 1.20914 0.85705 0.90415
 C2352 C 1.21063 0.83380 0.90393
 C2353 C 1.22847 0.82337 0.89337
 C2354 C 1.24503 0.83610 0.88305
 C2355 C 1.27594 0.90979 0.86249
 C2356 C 1.27444 0.93304 0.86270
 C2357 C 1.25650 0.94346 0.87311
 C2358 C 1.23994 0.93071 0.88341
 C2359 C 1.27971 0.86192 0.86203
 C2360 C 1.29556 0.85307 0.85332
 C2361 C 1.20543 0.90493 0.90464
 C2362 C 1.18962 0.91380 0.91337
 H2363 H 1.19492 0.86438 0.91255
 H2364 H 1.19786 0.82383 0.91201
 H2365 H 1.22951 0.80530 0.89321
 H2366 H 1.25861 0.82723 0.87508
 H2367 H 1.29020 0.90246 0.85416
 H2368 H 1.28726 0.94301 0.85472
 H2369 H 1.25541 0.96152 0.87322
 H2370 H 1.22632 0.93959 0.89130
 C2371 C 1.23022 0.40028 0.40062
 C2372 C 1.23315 0.37681 0.39966
 C2373 C 1.25321 0.36774 0.39076
 C2374 C 1.27022 0.38220 0.38288
 C2375 C 1.26731 0.40567 0.38389
 C2376 C 1.24725 0.41473 0.39280
 C2377 C 1.24471 0.43824 0.39361
 C2378 C 1.26150 0.45240 0.38584
 C2379 C 1.28110 0.44354 0.37712
 C2380 C 1.28407 0.42046 0.37612
 C2381 C 1.25572 0.34423 0.38993
 C2382 C 1.23890 0.33007 0.39763
 C2383 C 1.21928 0.33893 0.40632
 C2384 C 1.21636 0.36202 0.40738
 C2385 C 1.29062 0.37293 0.37359
 C2386 C 1.30751 0.36521 0.36580
 C2387 C 1.20961 0.40951 0.40946
 C2388 C 1.19238 0.41698 0.41672
 H2389 H 1.22976 0.44593 0.40025
 H2390 H 1.25927 0.47034 0.38658
 H2391 H 1.29409 0.45461 0.37109
 H2392 H 1.29961 0.41436 0.36919
 H2393 H 1.27068 0.33654 0.38332
 H2394 H 1.24109 0.31213 0.39684
 H2395 H 1.20626 0.32787 0.41227
 H2396 H 1.20081 0.36811 0.41430
 C2397 C 0.73075 0.90120 0.40105
 C2398 C 0.73351 0.87772 0.39990
 C2399 C 0.75353 0.86860 0.39098
 C2400 C 0.77066 0.88301 0.38327
 C2401 C 0.76791 0.90649 0.38449
 C2402 C 0.74790 0.91561 0.39341
 C2403 C 0.74551 0.93913 0.39442
 C2404 C 0.76242 0.95324 0.38682
 C2405 C 0.78199 0.94432 0.37809
 C2406 C 0.78480 0.92123 0.37690
 C2407 C 0.75590 0.84507 0.38996
 C2408 C 0.73895 0.83097 0.39750
 C2409 C 0.71938 0.83988 0.40620
 C2410 C 0.71660 0.86298 0.40745
 C2411 C 0.79099 0.87367 0.37393
 C2412 C 0.80779 0.86582 0.36610
 C2413 C 0.71019 0.91049 0.40992
 C2414 C 0.69300 0.91800 0.41720
 H2415 H 0.73059 0.94686 0.40108
 H2416 H 0.76031 0.97119 0.38771
 H2417 H 0.79507 0.95535 0.37220
 H2418 H 0.80032 0.91509 0.36997
 H2419 H 0.77082 0.83733 0.38334
 H2420 H 0.74103 0.81302 0.39657
 H2421 H 0.70626 0.82886 0.41203
 H2422 H 0.70108 0.86911 0.41438
 C2423 C 0.72718 0.39744 0.89880
 C2424 C 0.74373 0.41124 0.88900
 C2425 C 0.76290 0.40143 0.87900
 C2426 C 0.76540 0.37789 0.87888
 C2427 C 0.74887 0.36410 0.88872
 C2428 C 0.72971 0.37390 0.89873
 C2429 C 0.71340 0.35978 0.90848
 C2430 C 0.71594 0.33663 0.90831
 C2431 C 0.73465 0.32703 0.89848
 C2432 C 0.75099 0.34053 0.88879
 C2433 C 0.77920 0.41556 0.86926
 C2434 C 0.77664 0.43871 0.86940
 C2435 C 0.75789 0.44830 0.87918
 C2436 C 0.74157 0.43480 0.88889
 C2437 C 0.78498 0.36789 0.86866
 C2438 C 0.80128 0.35962 0.86021
 C2439 C 0.70742 0.40741 0.90868
 C2440 C 0.69085 0.41551 0.91671
 H2441 H 0.69855 0.36645 0.91633
 H2442 H 0.70332 0.32608 0.91587
 H2443 H 0.73653 0.30904 0.89838
 H2444 H 0.76526 0.33228 0.88137
 H2445 H 0.79407 0.40889 0.86144
 H2446 H 0.78926 0.44927 0.86187
 H2447 H 0.75598 0.46629 0.87924
 H2448 H 0.72729 0.44304 0.89630
 C2449 C 0.76861 0.90287 1.09771
 C2450 C 0.75714 0.88572 1.08611
 C2451 C 0.73707 0.87672 1.09508
 C2452 C 0.72858 0.88493 1.11560
 C2453 C 0.73990 0.90227 1.12707
 C2454 C 0.75998 0.91127 1.11809
 C2455 C 0.77104 0.92854 1.12990
 C2456 C 0.76252 0.93669 1.14999
 C2457 C 0.74289 0.92789 1.15876
 C2458 C 0.73164 0.91088 1.14751
 C2459 C 0.72595 0.85952 1.08322
 C2460 C 0.73441 0.85146 1.06307
 C2461 C 0.75403 0.86026 1.05429
 C2462 C 0.76534 0.87719 1.06561
 C2463 C 0.70842 0.87531 1.12510
 C2464 C 0.69180 0.86723 1.13313
 C2465 C 0.78949 0.91157 1.08892
 C2466 C 0.80697 0.91863 1.08179
 H2467 H 0.78635 0.93593 1.12374
 H2468 H 0.77119 0.94990 1.15880
 H2469 H 0.73634 0.93428 1.17437
 H2470 H 0.71642 0.90460 1.15499
 H2471 H 0.71062 0.85216 1.08937
 H2472 H 0.72569 0.83831 1.05422
 H2473 H 0.76053 0.85394 1.03863
 H2474 H 0.78053 0.88352 1.05810
 C2475 C 0.77021 0.40010 0.60063
 C2476 C 0.76720 0.40006 0.62414
 C2477 C 0.74734 0.39101 0.63355
 C2478 C 0.73061 0.38208 0.61938
 C2479 C 0.73358 0.38221 0.59587
 C2480 C 0.75344 0.39125 0.58647
 C2481 C 0.75606 0.39115 0.56293
 C2482 C 0.73952 0.38237 0.54906
 C2483 C 0.72010 0.37353 0.55825
 C2484 C 0.71707 0.37341 0.58137
 C2485 C 0.74474 0.39110 0.65709
 C2486 C 0.76128 0.39987 0.67096
 C2487 C 0.78069 0.40873 0.66177
 C2488 C 0.78370 0.40887 0.63864
 C2489 C 0.71044 0.37260 0.62900
 C2490 C 0.69374 0.36463 0.63699
 C2491 C 0.79064 0.40906 0.59108
 C2492 C 0.80773 0.41642 0.58336
 H2493 H 0.77087 0.39784 0.55499
 H2494 H 0.74179 0.38242 0.53109
 H2495 H 0.70731 0.36673 0.54741
 H2496 H 0.70168 0.36636 0.58772
 H2497 H 0.72993 0.38442 0.66503
 H2498 H 0.75902 0.39980 0.68893
 H2499 H 0.79346 0.41556 0.67260
 H2500 H 0.79908 0.41595 0.63230
 C2501 C 0.27467 0.89551 0.60459
 C2502 C 0.27747 0.87859 0.62096
 C2503 C 0.25844 0.86846 0.63095
 C2504 C 0.23673 0.87532 0.62451
 C2505 C 0.23394 0.89221 0.60813
 C2506 C 0.25297 0.90234 0.59814
 C2507 C 0.24976 0.91919 0.58180
 C2508 C 0.22836 0.92585 0.57550
 C2509 C 0.20975 0.91594 0.58526
 C2510 C 0.21241 0.89932 0.60139
 C2511 C 0.26165 0.85159 0.64726
 C2512 C 0.28306 0.84490 0.65353
 C2513 C 0.30167 0.85479 0.64375
 C2514 C 0.29901 0.87145 0.62765
 C2515 C 0.21724 0.86506 0.63472
 C2516 C 0.20089 0.85674 0.64306
 C2517 C 0.29411 0.90588 0.59442
 C2518 C 0.31034 0.91439 0.58604
 H2519 H 0.26372 0.92739 0.57373
 H2520 H 0.22621 0.93876 0.56298
 H2521 H 0.19316 0.92117 0.58031
 H2522 H 0.19741 0.89212 0.60849
 H2523 H 0.24768 0.84340 0.65533
 H2524 H 0.28521 0.83196 0.66603
 H2525 H 0.31826 0.84952 0.64866
 H2526 H 0.31400 0.87864 0.62053
 C2527 C 0.26800 0.40237 1.09882
 C2528 C 0.26430 0.40232 1.12223
 C2529 C 0.24397 0.39370 1.13100
 C2530 C 0.22748 0.38517 1.11631
 C2531 C 0.23112 0.38535 1.09290
 C2532 C 0.25145 0.39399 1.08412
 C2533 C 0.25473 0.39395 1.06067
 C2534 C 0.23841 0.38564 1.04628
 C2535 C 0.21854 0.37720 1.05485
 C2536 C 0.21485 0.37701 1.07788
 C2537 C 0.24067 0.39380 1.15446
 C2538 C 0.25699 0.40213 1.16884
 C2539 C 0.27687 0.41054 1.16027
 C2540 C 0.28057 0.41069 1.13725
 C2541 C 0.20690 0.37599 1.12533
 C2542 C 0.18992 0.36827 1.13295
 C2543 C 0.28892 0.41084 1.08992
 C2544 C 0.30641 0.41779 1.08274
 H2545 H 0.26992 0.40035 1.05320
 H2546 H 0.24119 0.38574 1.02838
 H2547 H 0.20591 0.37075 1.04361
 H2548 H 0.19912 0.37028 1.08375
 H2549 H 0.22548 0.38745 1.16193
 H2550 H 0.25420 0.40207 1.18674
 H2551 H 0.28950 0.41699 1.17151
 H2552 H 0.29630 0.41743 1.13138
 C2553 C 0.77140 1.10153 0.89947
 C2554 C 0.77125 1.12420 0.89263
 C2555 C 0.75156 1.13364 0.88328
 C2556 C 0.73214 1.12034 0.88081
 C2557 C 0.73228 1.09768 0.88770
 C2558 C 0.75197 1.08825 0.89706
 C2559 C 0.75171 1.06556 0.90382
 C2560 C 0.73253 1.05257 0.90141
 C2561 C 0.71328 1.06179 0.89225
 C2562 C 0.71306 1.08407 0.88544
 C2563 C 0.75181 1.15635 0.87658
 C2564 C 0.77098 1.16935 0.87901
 C2565 C 0.79025 1.16011 0.88811
 C2566 C 0.79048 1.13781 0.89488
 C2567 C 0.71206 1.12994 0.87118
 C2568 C 0.69536 1.13790 0.86318
 C2569 C 0.79158 1.09186 0.90883
 C2570 C 0.80848 1.08402 0.91647
 H2571 H 0.76627 1.05764 0.91104
 H2572 H 0.73262 1.03525 0.90668
 H2573 H 0.69843 1.05162 0.89042
 H2574 H 0.69769 1.09049 0.87841
 H2575 H 0.73724 1.16428 0.86939
 H2576 H 0.77089 1.18669 0.87379
 H2577 H 0.80510 1.17027 0.88993
 H2578 H 0.80586 1.13140 0.90189
 C2579 C 0.76978 0.59919 0.40064
 C2580 C 0.76688 0.60011 0.37713
 C2581 C 0.74696 0.60924 0.36797
 C2582 C 0.73005 0.61739 0.38237
 C2583 C 0.73291 0.61638 0.40588
 C2584 C 0.75283 0.60725 0.41504
 C2585 C 0.75533 0.60645 0.43859
 C2586 C 0.73862 0.61444 0.45269
 C2587 C 0.71913 0.62337 0.44373
 C2588 C 0.71622 0.62437 0.42061
 C2589 C 0.74446 0.61001 0.34442
 C2590 C 0.76118 0.60203 0.33032
 C2591 C 0.78067 0.59312 0.33928
 C2592 C 0.78357 0.59212 0.36240
 C2593 C 0.70981 0.62694 0.37301
 C2594 C 0.69305 0.63492 0.36518
 C2595 C 0.79028 0.59016 0.40996
 C2596 C 0.80743 0.58277 0.41750
 H2597 H 0.77019 0.59965 0.44634
 H2598 H 0.74080 0.61370 0.47066
 H2599 H 0.70620 0.62955 0.45475
 H2600 H 0.70077 0.63146 0.41444
 H2601 H 0.72959 0.61678 0.33666
 H2602 H 0.75900 0.60276 0.31235
 H2603 H 0.79360 0.58693 0.32826
 H2604 H 0.79902 0.58502 0.36856
 C2605 C 0.27096 1.10076 0.39927
 C2606 C 0.25425 1.10970 0.41343
 C2607 C 0.23441 1.11878 0.40403
 C2608 C 0.23140 1.11887 0.38052
 C2609 C 0.24808 1.10985 0.36636
 C2610 C 0.26792 1.10078 0.37577
 C2611 C 0.28437 1.09191 0.36127
 C2612 C 0.28132 1.09201 0.33815
 C2613 C 0.26192 1.10087 0.32896
 C2614 C 0.24542 1.10970 0.34282
 C2615 C 0.21797 1.12766 0.41852
 C2616 C 0.22103 1.12755 0.44164
 C2617 C 0.24043 1.11867 0.45084
 C2618 C 0.25690 1.10983 0.43697
 C2619 C 0.21123 1.12836 0.37089
 C2620 C 0.19453 1.13630 0.36289
 C2621 C 0.29135 1.09172 0.40884
 C2622 C 0.30840 1.08428 0.41659
 H2623 H 0.29974 1.08482 0.36762
 H2624 H 0.29408 1.08518 0.32730
 H2625 H 0.25962 1.10090 0.31099
 H2626 H 0.23062 1.11639 0.33488
 H2627 H 0.20260 1.13475 0.41217
 H2628 H 0.20828 1.13440 0.45249
 H2629 H 0.24272 1.11863 0.46881
 H2630 H 0.27170 1.10311 0.44491
 C2631 C 0.27428 0.60408 0.89681
 C2632 C 0.27594 0.62616 0.88839
 C2633 C 0.25710 0.63640 0.87818
 C2634 C 0.23675 0.62447 0.87637
 C2635 C 0.23511 0.60237 0.88475
 C2636 C 0.25393 0.59215 0.89501
 C2637 C 0.25190 0.57005 0.90326
 C2638 C 0.23185 0.55837 0.90140
 C2639 C 0.21344 0.56835 0.89134
 C2640 C 0.21496 0.59010 0.88309
 C2641 C 0.25914 0.65851 0.86994
 C2642 C 0.27925 0.67012 0.87164
 C2643 C 0.29771 0.66007 0.88153
 C2644 C 0.29616 0.63836 0.88988
 C2645 C 0.21751 0.63488 0.86591
 C2646 C 0.20144 0.64342 0.85729
 C2647 C 0.29356 0.59361 0.90715
 C2648 C 0.30974 0.58510 0.91558
 H2649 H 0.26576 0.56157 0.91121
 H2650 H 0.23059 0.54147 0.90778
 H2651 H 0.19790 0.55921 0.88993
 H2652 H 0.20018 0.59714 0.87540
 H2653 H 0.24525 0.66702 0.86207
 H2654 H 0.28054 0.68700 0.86522
 H2655 H 0.31333 0.66910 0.88270
 H2656 H 0.31097 0.63128 0.89746
 C2657 C 1.09703 1.23313 1.09681
 C2658 C 1.08701 1.24288 1.11591
 C2659 C 1.09563 1.26318 1.12477
 C2660 C 1.11423 1.27359 1.11448
 C2661 C 1.12407 1.26398 1.09521
 C2662 C 1.11545 1.24369 1.08635
 C2663 C 1.12562 1.23435 1.06714
 C2664 C 1.14380 1.24477 1.05696
 C2665 C 1.15224 1.26461 1.06562
 C2666 C 1.14256 1.27418 1.08452
 C2667 C 1.08539 1.27256 1.14393
 C2668 C 1.06715 1.26220 1.15404
 C2669 C 1.05872 1.24236 1.14539
 C2670 C 1.06846 1.23274 1.12654
 C2671 C 1.12349 1.29393 1.12395
 C2672 C 1.13131 1.31068 1.13196
 C2673 C 1.08867 1.21203 1.08821
 C2674 C 1.08184 1.19439 1.08126
 H2675 H 1.11964 1.21895 1.05977
 H2676 H 1.15138 1.23740 1.04227
 H2677 H 1.16636 1.27264 1.05765
 H2678 H 1.14970 1.28964 1.09062
 H2679 H 1.09134 1.28799 1.15127
 H2680 H 1.05952 1.26961 1.16869
 H2681 H 1.04454 1.23437 1.15331
 H2682 H 1.06129 1.21730 1.12042
 C2683 C 1.10441 0.72578 0.60413
 C2684 C 1.11576 0.74155 0.59059
 C2685 C 1.12596 0.76055 0.60057
 C2686 C 1.12477 0.76364 0.62403
 C2687 C 1.11347 0.74784 0.63758
 C2688 C 1.10323 0.72886 0.62760
 C2689 C 1.09197 0.71332 0.64147
 C2690 C 1.09088 0.71642 0.66455
 C2691 C 1.10096 0.73493 0.67433
 C2692 C 1.11213 0.75052 0.66108
 C2693 C 1.13722 0.77609 0.58669
 C2694 C 1.13837 0.77295 0.56362
 C2695 C 1.12839 0.75437 0.55386
 C2696 C 1.11719 0.73880 0.56711
 C2697 C 1.13502 0.78316 0.63418
 C2698 C 1.14346 0.79945 0.64249
 C2699 C 1.09417 0.70627 0.59396
 C2700 C 1.08581 0.68994 0.58564
 H2701 H 1.08387 0.69865 0.63465
 H2702 H 1.08214 0.70441 0.67491
 H2703 H 1.10010 0.73724 0.69227
 H2704 H 1.11969 0.76467 0.66945
 H2705 H 1.14526 0.79079 0.59350
 H2706 H 1.14705 0.78499 0.55326
 H2707 H 1.12932 0.75201 0.53593
 H2708 H 1.10969 0.72462 0.55874
 C2709 C 0.60106 1.23024 0.60047
 C2710 C 0.62453 1.23286 0.60170
 C2711 C 0.63379 1.25274 0.61086
 C2712 C 0.61951 1.26987 0.61876
 C2713 C 0.59604 1.26726 0.61748
 C2714 C 0.58678 1.24739 0.60830
 C2715 C 0.56327 1.24515 0.60723
 C2716 C 0.54929 1.26206 0.61501
 C2717 C 0.55834 1.28149 0.62398
 C2718 C 0.58143 1.28415 0.62525
 C2719 C 0.65731 1.25496 0.61195
 C2720 C 0.67128 1.23802 0.60422
 C2721 C 0.66224 1.21858 0.59527
 C2722 C 0.63914 1.21595 0.59397
 C2723 C 0.62897 1.29008 0.62830
 C2724 C 0.63685 1.30682 0.63628
 C2725 C 0.59163 1.20982 0.59136
 C2726 C 0.58396 1.19275 0.58390
 H2727 H 0.55544 1.23035 0.60039
 H2728 H 0.53134 1.26007 0.61407
 H2729 H 0.54741 1.29457 0.63001
 H2730 H 0.58767 1.29957 0.63237
 H2731 H 0.66514 1.26977 0.61876
 H2732 H 0.68923 1.23999 0.60519
 H2733 H 0.67316 1.20547 0.58930
 H2734 H 0.63290 1.20053 0.58685
 C2735 C 0.59951 0.73053 1.09990
 C2736 C 0.58510 0.74786 1.10705
 C2737 C 0.59418 0.76799 1.11584
 C2738 C 0.61764 0.77067 1.11740
 C2739 C 0.63205 0.75335 1.11020
 C2740 C 0.62296 0.73322 1.10142
 C2741 C 0.63771 0.71613 1.09437
 C2742 C 0.66078 0.71884 1.09597
 C2743 C 0.66966 0.73851 1.10455
 C2744 C 0.65555 0.75563 1.11160
 C2745 C 0.57944 0.78505 1.12293
 C2746 C 0.55637 0.78232 1.12138
 C2747 C 0.54749 0.76265 1.11279
 C2748 C 0.56160 0.74556 1.10568
 C2749 C 0.62692 0.79116 1.12653
 C2750 C 0.63464 0.80813 1.13419
 C2751 C 0.59025 0.70987 1.09114
 C2752 C 0.58273 0.69262 1.08394
 H2753 H 0.63160 0.70053 1.08757
 H2754 H 0.67181 0.70559 1.09052
 H2755 H 0.68759 0.74053 1.10576
 H2756 H 0.66325 0.77063 1.11815
 H2757 H 0.58555 0.80066 1.12973
 H2758 H 0.54533 0.79554 1.12689
 H2759 H 0.52956 0.76060 1.11162
 H2760 H 0.55390 0.73056 1.09911
 C2761 C 0.89736 1.22790 0.89777
 C2762 C 0.91091 1.24522 0.88898
 C2763 C 0.90082 1.26446 0.87934
 C2764 C 0.87725 1.26625 0.87855
 C2765 C 0.86370 1.24895 0.88737
 C2766 C 0.87379 1.22972 0.89703
 C2767 C 0.85991 1.21265 0.90576
 C2768 C 0.83672 1.21451 0.90495
 C2769 C 0.82686 1.23330 0.89548
 C2770 C 0.84011 1.25038 0.88678
 C2771 C 0.91470 1.28155 0.87065
 C2772 C 0.93789 1.27968 0.87146
 C2773 C 0.94775 1.26086 0.88087
 C2774 C 0.93450 1.24377 0.88955
 C2775 C 0.86695 1.28588 0.86866
 C2776 C 0.85847 1.30220 0.86043
 C2777 C 0.90763 1.20814 0.90740
 C2778 C 0.91593 1.19157 0.91529
 H2779 H 0.86679 1.19771 0.91330
 H2780 H 0.82636 1.20131 0.91175
 H2781 H 0.80884 1.23466 0.89489
 H2782 H 0.83166 1.26468 0.87960
 H2783 H 0.90781 1.29651 0.86316
 H2784 H 0.94825 1.29291 0.86474
 H2785 H 0.96577 1.25948 0.88146
 H2786 H 0.94294 1.22946 0.89671
 C2787 C 0.90285 0.73210 0.40291
 C2788 C 0.88331 0.74140 0.41244
 C2789 C 0.87413 0.76139 0.40344
 C2790 C 0.88455 0.77195 0.38497
 C2791 C 0.90430 0.76284 0.37567
 C2792 C 0.91348 0.74285 0.38467
 C2793 C 0.93318 0.73401 0.37506
 C2794 C 0.94353 0.74463 0.35707
 C2795 C 0.93455 0.76418 0.34826
 C2796 C 0.91516 0.77325 0.35738
 C2797 C 0.85454 0.77034 0.41319
 C2798 C 0.84432 0.75984 0.43133
 C2799 C 0.85330 0.74030 0.44014
 C2800 C 0.87257 0.73110 0.43087
 C2801 C 0.87477 0.79196 0.37531
 C2802 C 0.86657 0.80845 0.36713
 C2803 C 0.91171 0.71121 0.41154
 C2804 C 0.91883 0.69372 0.41855
 H2805 H 0.94081 0.71886 0.38134
 H2806 H 0.95861 0.73766 0.34992
 H2807 H 0.94266 0.77236 0.33428
 H2808 H 0.90883 0.78849 0.34997
 H2809 H 0.84693 0.78552 0.40695
 H2810 H 0.82935 0.76691 0.43860
 H2811 H 0.84531 0.73221 0.45424
 H2812 H 0.87893 0.71589 0.43832
 C2813 C 0.40267 1.23300 0.40345
 C2814 C 0.38179 1.24088 0.41128
 C2815 C 0.37253 1.26083 0.40225
 C2816 C 0.38421 1.27278 0.38546
 C2817 C 0.40527 1.26510 0.37791
 C2818 C 0.41453 1.24516 0.38694
 C2819 C 0.43557 1.23778 0.37908
 C2820 C 0.44715 1.24977 0.36279
 C2821 C 0.43809 1.26927 0.35395
 C2822 C 0.41739 1.27692 0.36135
 C2823 C 0.35160 1.26832 0.41028
 C2824 C 0.34015 1.25647 0.42677
 C2825 C 0.34921 1.23698 0.43560
 C2826 C 0.36978 1.22919 0.42800
 C2827 C 0.37437 1.29272 0.37570
 C2828 C 0.36605 1.30913 0.36748
 C2829 C 0.41168 1.21216 0.41203
 C2830 C 0.41891 1.19469 0.41902
 H2831 H 0.44331 1.22272 0.38547
 H2832 H 0.46323 1.24391 0.35699
 H2833 H 0.44715 1.27852 0.34129
 H2834 H 0.41104 1.29218 0.35399
 H2835 H 0.34388 1.28341 0.40395
 H2836 H 0.32416 1.26245 0.43272
 H2837 H 0.34025 1.22783 0.44841
 H2838 H 0.37614 1.21395 0.43541
 C2839 C 0.39324 0.72385 0.89472
 C2840 C 0.40625 0.74052 0.88407
 C2841 C 0.39561 0.75890 0.87340
 C2842 C 0.37201 0.76048 0.87344
 C2843 C 0.35899 0.74377 0.88402
 C2844 C 0.36964 0.72542 0.89474
 C2845 C 0.35628 0.70898 0.90531
 C2846 C 0.33306 0.71059 0.90525
 C2847 C 0.32264 0.72846 0.89466
 C2848 C 0.33537 0.74493 0.88417
 C2849 C 0.40897 0.77536 0.86287
 C2850 C 0.43219 0.77370 0.86287
 C2851 C 0.44260 0.75573 0.87330
 C2852 C 0.42986 0.73928 0.88381
 C2853 C 0.36119 0.77943 0.86280
 C2854 C 0.35241 0.79532 0.85404
 C2855 C 0.40410 0.70497 0.90543
 C2856 C 0.41297 0.68913 0.91416
 H2857 H 0.36361 0.69474 0.91374
 H2858 H 0.32310 0.69790 0.91346
 H2859 H 0.30460 0.72960 0.89461
 H2860 H 0.32651 0.75854 0.87619
 H2861 H 0.40166 0.78964 0.85451
 H2862 H 0.44215 0.78644 0.85473
 H2863 H 0.46064 0.75452 0.87326
 H2864 H 0.43873 0.72562 0.89170
 C2865 C 1.10439 0.77484 0.89594
 C2866 C 1.12640 0.77653 0.88743
 C2867 C 1.13667 0.75764 0.87736
 C2868 C 1.12482 0.73721 0.87579
 C2869 C 1.10279 0.73554 0.88424
 C2870 C 1.09255 0.75441 0.89436
 C2871 C 1.07051 0.75236 0.90268
 C2872 C 1.05891 0.73223 0.90104
 C2873 C 1.06892 0.71376 0.89114
 C2874 C 1.09060 0.71530 0.88281
 C2875 C 1.15870 0.75971 0.86902
 C2876 C 1.17023 0.77991 0.87050
 C2877 C 1.16014 0.79841 0.88024
 C2878 C 1.13851 0.79683 0.88868
 C2879 C 1.13524 0.71791 0.86547
 C2880 C 1.14373 0.70176 0.85697
 C2881 C 1.09393 0.79413 0.90621
 C2882 C 1.08543 0.81033 0.91460
 H2883 H 1.06201 0.76626 0.91051
 H2884 H 1.04206 0.73095 0.90747
 H2885 H 1.05984 0.69816 0.88990
 H2886 H 1.09767 0.70047 0.87526
 H2887 H 1.16723 0.74578 0.86127
 H2888 H 1.18706 0.78122 0.86401
 H2889 H 1.16911 0.81410 0.88122
 H2890 H 1.13140 0.81168 0.89614
 C2891 C 1.10104 0.27020 0.39918
 C2892 C 1.12454 0.26757 0.39848
 C2893 C 1.13397 0.24777 0.38937
 C2894 C 1.11985 0.23072 0.38099
 C2895 C 1.09636 0.23333 0.38174
 C2896 C 1.08693 0.25313 0.39086
 C2897 C 1.06340 0.25538 0.39138
 C2898 C 1.04958 0.23854 0.38314
 C2899 C 1.05879 0.21918 0.37423
 C2900 C 1.08190 0.21651 0.37349
 C2901 C 1.15750 0.24554 0.38884
 C2902 C 1.17132 0.26240 0.39704
 C2903 C 1.16211 0.28177 0.40593
 C2904 C 1.13900 0.28441 0.40670
 C2905 C 1.12948 0.21057 0.37148
 C2906 C 1.13747 0.19388 0.36351
 C2907 C 1.09144 0.29052 0.40832
 C2908 C 1.08366 0.30751 0.41584
 H2909 H 1.05544 0.27013 0.39814
 H2910 H 1.03162 0.24053 0.38367
 H2911 H 1.04798 0.20614 0.36785
 H2912 H 1.08827 0.20115 0.36640
 H2913 H 1.16546 0.23078 0.38209
 H2914 H 1.18929 0.26042 0.39650
 H2915 H 1.17292 0.29482 0.41228
 H2916 H 1.13263 0.29978 0.41379
 C2917 C 0.60017 0.77021 0.40105
 C2918 C 0.62361 0.76770 0.39913
 C2919 C 0.63267 0.74772 0.39004
 C2920 C 0.61824 0.73036 0.38291
 C2921 C 0.59480 0.73283 0.38493
 C2922 C 0.58574 0.75281 0.39403
 C2923 C 0.56227 0.75490 0.39585
 C2924 C 0.54814 0.73774 0.38889
 C2925 C 0.55700 0.71820 0.38000
 C2926 C 0.58005 0.71568 0.37800
 C2927 C 0.65615 0.74561 0.38827
 C2928 C 0.67028 0.76277 0.39527
 C2929 C 0.66142 0.78231 0.40414
 C2930 C 0.63837 0.78484 0.40609
 C2931 C 0.62749 0.71005 0.37338
 C2932 C 0.63522 0.69324 0.36541
 C2933 C 0.59093 0.79075 0.41005
 C2934 C 0.58343 0.80794 0.41742
 H2935 H 0.55459 0.76978 0.40265
 H2936 H 0.53022 0.73961 0.39041
 H2937 H 0.54595 0.70491 0.37463
 H2938 H 0.58614 0.70017 0.37098
 H2939 H 0.66384 0.73072 0.38149
 H2940 H 0.68820 0.76088 0.39379
 H2941 H 0.67246 0.79559 0.40954
 H2942 H 0.63228 0.80035 0.41312
 C2943 C 0.60149 0.27099 0.90058
 C2944 C 0.58788 0.25209 0.89641
 C2945 C 0.59739 0.23249 0.88696
 C2946 C 0.62045 0.23190 0.88177
 C2947 C 0.63408 0.25079 0.88600
 C2948 C 0.62457 0.27040 0.89543
 C2949 C 0.63851 0.28909 0.89946
 C2950 C 0.66120 0.28843 0.89432
 C2951 C 0.67050 0.26925 0.88511
 C2952 C 0.65718 0.25059 0.88097
 C2953 C 0.58343 0.21381 0.88290
 C2954 C 0.56074 0.21448 0.88804
 C2955 C 0.55145 0.23365 0.89729
 C2956 C 0.56478 0.25229 0.90146
 C2957 C 0.63014 0.21190 0.87204
 C2958 C 0.63816 0.19529 0.86395
 C2959 C 0.59176 0.29112 0.90997
 C2960 C 0.58385 0.30797 0.91764
 H2961 H 0.63206 0.30439 0.90662
 H2962 H 0.67160 0.30289 0.89748
 H2963 H 0.68814 0.26883 0.88115
 H2964 H 0.66519 0.23607 0.87378
 H2965 H 0.58988 0.19852 0.87573
 H2966 H 0.55032 0.20005 0.88483
 H2967 H 0.53382 0.23409 0.90125
 H2968 H 0.55679 0.26682 0.90867
 C2969 C 0.89933 0.77159 1.10167
 C2970 C 0.89061 0.75464 1.08764
 C2971 C 0.88105 0.73509 1.09722
 C2972 C 0.88027 0.73261 1.12078
 C2973 C 0.88903 0.74955 1.13482
 C2974 C 0.89859 0.76910 1.12523
 C2975 C 0.90720 0.78582 1.13961
 C2976 C 0.90638 0.78331 1.16278
 C2977 C 0.89703 0.76420 1.17215
 C2978 C 0.88844 0.74745 1.15841
 C2979 C 0.87240 0.71840 1.08285
 C2980 C 0.87318 0.72094 1.05968
 C2981 C 0.88253 0.74005 1.05031
 C2982 C 0.89117 0.75677 1.06405
 C2983 C 0.87040 0.71270 1.13058
 C2984 C 0.86217 0.69620 1.13873
 C2985 C 0.90885 0.79169 1.09192
 C2986 C 0.91662 0.80851 1.08400
 H2987 H 0.91465 0.80098 1.13312
 H2988 H 0.91304 0.79626 1.17352
 H2989 H 0.89643 0.76233 1.19016
 H2990 H 0.88134 0.73289 1.16649
 H2991 H 0.86495 0.70323 1.08934
 H2992 H 0.86649 0.70801 1.04893
 H2993 H 0.88309 0.74195 1.03230
 H2994 H 0.89827 0.77133 1.05598
 C2995 C 0.90322 0.26678 0.59727
 C2996 C 0.88592 0.25547 0.58574
 C2997 C 0.87699 0.23530 0.59462
 C2998 C 0.88540 0.22657 0.61499
 C2999 C 0.90293 0.23771 0.62634
 C3000 C 0.91187 0.25787 0.61746
 C3001 C 0.92932 0.26875 0.62915
 C3002 C 0.93772 0.25996 0.64905
 C3003 C 0.92899 0.24025 0.65774
 C3004 C 0.91179 0.22918 0.64659
 C3005 C 0.85965 0.22433 0.58284
 C3006 C 0.85138 0.23303 0.56285
 C3007 C 0.86011 0.25274 0.55416
 C3008 C 0.87718 0.26391 0.56540
 C3009 C 0.87577 0.20638 0.62445
 C3010 C 0.86767 0.18974 0.63246
 C3011 C 0.91182 0.28778 0.58861
 C3012 C 0.91880 0.30535 0.58160
 H3013 H 0.93668 0.28412 0.62305
 H3014 H 0.95108 0.26850 0.65777
 H3015 H 0.93557 0.23349 0.67320
 H3016 H 0.90556 0.21388 0.65400
 H3017 H 0.85233 0.20894 0.58892
 H3018 H 0.83812 0.22442 0.55404
 H3019 H 0.85363 0.25943 0.53862
 H3020 H 0.88345 0.27918 0.55797
 C3021 C 0.39823 0.77240 0.60236
 C3022 C 0.40559 0.75108 0.59524
 C3023 C 0.39600 0.73147 0.60464
 C3024 C 0.37910 0.73329 0.62112
 C3025 C 0.37173 0.75462 0.62824
 C3026 C 0.38133 0.77424 0.61883
 C3027 C 0.37368 0.79538 0.62621
 C3028 C 0.35703 0.79709 0.64241
 C3029 C 0.34766 0.77791 0.65161
 C3030 C 0.35486 0.75687 0.64467
 C3031 C 0.40363 0.71033 0.59724
 C3032 C 0.42025 0.70863 0.58101
 C3033 C 0.42963 0.72781 0.57183
 C3034 C 0.42246 0.74884 0.57880
 C3035 C 0.36936 0.71321 0.63071
 C3036 C 0.36142 0.69641 0.63857
 C3037 C 0.40801 0.79243 0.59273
 C3038 C 0.41605 0.80912 0.58477
 H3039 H 0.38047 0.81078 0.61955
 H3040 H 0.35137 0.81339 0.64784
 H3041 H 0.33474 0.77934 0.66419
 H3042 H 0.34707 0.74244 0.65232
 H3043 H 0.39685 0.69492 0.60388
 H3044 H 0.42588 0.69234 0.57554
 H3045 H 0.44254 0.72641 0.55923
 H3046 H 0.43027 0.76327 0.57116
 C3047 C 0.40374 0.26646 1.09753
 C3048 C 0.38659 0.25503 1.08590
 C3049 C 0.37779 0.23477 1.09471
 C3050 C 0.38620 0.22607 1.11509
 C3051 C 0.40360 0.23733 1.12652
 C3052 C 0.41241 0.25758 1.11771
 C3053 C 0.42975 0.26857 1.12948
 C3054 C 0.43815 0.25980 1.14939
 C3055 C 0.42953 0.24001 1.15801
 C3056 C 0.41246 0.22883 1.14679
 C3057 C 0.36057 0.22369 1.08285
 C3058 C 0.35230 0.23236 1.06284
 C3059 C 0.36092 0.25215 1.05422
 C3060 C 0.37786 0.26343 1.06554
 C3061 C 0.37667 0.20581 1.12450
 C3062 C 0.36861 0.18914 1.13247
 C3063 C 0.41213 0.28760 1.08901
 C3064 C 0.41894 0.30530 1.08215
 H3065 H 0.43701 0.28400 1.12342
 H3066 H 0.45142 0.26842 1.15816
 H3067 H 0.43611 0.23327 1.17349
 H3068 H 0.40632 0.21348 1.15415
 H3069 H 0.35334 0.20823 1.08888
 H3070 H 0.33913 0.22367 1.05399
 H3071 H 0.35444 0.25881 1.03866
 H3072 H 0.38404 0.27876 1.05816
 C3073 C 1.09759 1.09790 0.76710
 C3074 C 1.11538 1.08685 0.75612
 C3075 C 1.12428 1.09581 0.73596
 C3076 C 1.11534 1.11577 0.72690
 C3077 C 1.09732 1.12664 0.73770
 C3078 C 1.08842 1.11768 0.75786
 C3079 C 1.07046 1.12889 0.76840
 C3080 C 1.06155 1.14838 0.75927
 C3081 C 1.07024 1.15715 0.73956
 C3082 C 1.08793 1.14648 0.72883
 C3083 C 1.14212 1.08450 0.72533
 C3084 C 1.15091 1.06490 0.73435
 C3085 C 1.14220 1.05613 0.75406
 C3086 C 1.12465 1.06691 0.76489
 C3087 C 1.12490 1.12532 0.70670
 C3088 C 1.13299 1.13334 0.69005
 C3089 C 1.08902 1.08918 0.78810
 C3090 C 1.08205 1.08213 0.80567
 H3091 H 1.06311 1.12270 0.78375
 H3092 H 1.04781 1.15673 0.76754
 H3093 H 1.06325 1.17230 0.73254
 H3094 H 1.09411 1.15393 0.71353
 H3095 H 1.14944 1.09066 0.70996
 H3096 H 1.16454 1.05646 0.72600
 H3097 H 1.14908 1.04089 0.76099
 H3098 H 1.11843 1.05944 0.78017
 C3099 C 1.09875 0.59960 0.26879
 C3100 C 1.11852 0.59050 0.25953
 C3101 C 1.12793 0.60008 0.23990
 C3102 C 1.11750 0.61870 0.22962
 C3103 C 1.09756 0.62760 0.23870
 C3104 C 1.08816 0.61802 0.25834
 C3105 C 1.06825 0.62725 0.26714
 C3106 C 1.05791 0.64540 0.25681
 C3107 C 1.06711 0.65477 0.23762
 C3108 C 1.08671 0.64605 0.22859
 C3109 C 1.14774 0.59073 0.23100
 C3110 C 1.15795 0.57243 0.24119
 C3111 C 1.14875 0.56307 0.26039
 C3112 C 1.12927 0.57193 0.26954
 C3113 C 1.12745 0.62884 0.20990
 C3114 C 1.13586 0.63727 0.19362
 C3115 C 1.08959 0.59031 0.28929
 C3116 C 1.08219 0.58277 0.30647
 H3117 H 1.06045 0.62052 0.28203
 H3118 H 1.04268 0.65223 0.26375
 H3119 H 1.05901 0.66887 0.22966
 H3120 H 1.09322 0.65389 0.21363
 H3121 H 1.15552 0.59742 0.21608
 H3122 H 1.17308 0.56548 0.23415
 H3123 H 1.15674 0.54885 0.26824
 H3124 H 1.12274 0.56405 0.28448
 C3125 C 0.59872 1.09933 0.26890
 C3126 C 0.61826 1.08981 0.25961
 C3127 C 0.62766 1.09901 0.23979
 C3128 C 0.61746 1.11767 0.22940
 C3129 C 0.59771 1.12698 0.23850
 C3130 C 0.58831 1.11778 0.25832
 C3131 C 0.56861 1.12740 0.26715
 C3132 C 0.55846 1.14558 0.25668
 C3133 C 0.56766 1.15458 0.23731
 C3134 C 0.58706 1.14546 0.22825
 C3135 C 0.64726 1.08925 0.23085
 C3136 C 0.65726 1.07091 0.24118
 C3137 C 0.64806 1.06191 0.26055
 C3138 C 0.62880 1.07119 0.26974
 C3139 C 0.62746 1.12751 0.20958
 C3140 C 0.63586 1.13582 0.19323
 C3141 C 0.58962 1.09047 0.28960
 C3142 C 0.58231 1.08324 0.30695
 H3143 H 0.56082 1.12097 0.28218
 H3144 H 0.54339 1.15273 0.26365
 H3145 H 0.55971 1.16871 0.22924
 H3146 H 0.59357 1.15304 0.21314
 H3147 H 0.65502 1.09565 0.21580
 H3148 H 0.67222 1.06365 0.23410
 H3149 H 0.65590 1.04766 0.26850
 H3150 H 0.62227 1.06358 0.28482
 C3151 C 0.59827 0.59858 0.76953
 C3152 C 0.61473 0.58654 0.75755
 C3153 C 0.62403 0.59573 0.73768
 C3154 C 0.61682 0.61690 0.72992
 C3155 C 0.60017 0.62882 0.74175
 C3156 C 0.59086 0.61963 0.76161
 C3157 C 0.57428 0.63188 0.77320
 C3158 C 0.56711 0.65263 0.76539
 C3159 C 0.57621 0.66162 0.74597
 C3160 C 0.59255 0.64993 0.73421
 C3161 C 0.64052 0.58342 0.72603
 C3162 C 0.64761 0.56262 0.73379
 C3163 C 0.63850 0.55363 0.75321
 C3164 C 0.62225 0.56538 0.76503
 C3165 C 0.62674 0.62656 0.70995
 C3166 C 0.63503 0.63471 0.69347
 C3167 C 0.58930 0.58956 0.79022
 C3168 C 0.58201 0.58227 0.80755
 H3169 H 0.56668 0.62558 0.78837
 H3170 H 0.55442 0.66177 0.77446
 H3171 H 0.57059 0.67775 0.73997
 H3172 H 0.59911 0.65761 0.71918
 H3173 H 0.64809 0.58971 0.71083
 H3174 H 0.66023 0.55343 0.72467
 H3175 H 0.64406 0.53747 0.75916
 H3176 H 0.61565 0.55769 0.78003
 C3177 C 0.90384 0.90335 0.76670
 C3178 C 0.90647 0.88038 0.76165
 C3179 C 0.89783 0.87165 0.74129
 C3180 C 0.88660 0.88594 0.72609
 C3181 C 0.88418 0.90896 0.73103
 C3182 C 0.89284 0.91769 0.75139
 C3183 C 0.89018 0.94075 0.75597
 C3184 C 0.87929 0.95478 0.74087
 C3185 C 0.87082 0.94624 0.72098
 C3186 C 0.87318 0.92360 0.71603
 C3187 C 0.90062 0.84861 0.73665
 C3188 C 0.91161 0.83460 0.75169
 C3189 C 0.92005 0.84314 0.77160
 C3190 C 0.91756 0.86575 0.77661
 C3191 C 0.87728 0.87687 0.70557
 C3192 C 0.86944 0.86915 0.68867
 C3193 C 0.91214 0.91211 0.78778
 C3194 C 0.91894 0.91914 0.80541
 H3195 H 0.89650 0.94817 0.77122
 H3196 H 0.87742 0.97238 0.74464
 H3197 H 0.86237 0.95721 0.70931
 H3198 H 0.86632 0.91774 0.70033
 H3199 H 0.89437 0.84119 0.72137
 H3200 H 0.91359 0.81703 0.74787
 H3201 H 0.92857 0.83219 0.78323
 H3202 H 0.92444 0.87160 0.79229
 C3203 C 0.89886 0.39971 0.27048
 C3204 C 0.87538 0.39858 0.26784
 C3205 C 0.86610 0.38916 0.24809
 C3206 C 0.88036 0.38093 0.23109
 C3207 C 0.90384 0.38212 0.23370
 C3208 C 0.91312 0.39154 0.25346
 C3209 C 0.93663 0.39251 0.25572
 C3210 C 0.95059 0.38439 0.23893
 C3211 C 0.94152 0.37518 0.21962
 C3212 C 0.91843 0.37401 0.21693
 C3213 C 0.84258 0.38816 0.24585
 C3214 C 0.82862 0.39621 0.26266
 C3215 C 0.83769 0.40541 0.28199
 C3216 C 0.86078 0.40664 0.28464
 C3217 C 0.87088 0.37114 0.21099
 C3218 C 0.86294 0.36298 0.19435
 C3219 C 0.90831 0.40904 0.29080
 C3220 C 0.91602 0.41663 0.30781
 H3221 H 0.94447 0.39953 0.27044
 H3222 H 0.96854 0.38526 0.24094
 H3223 H 0.95243 0.36889 0.20663
 H3224 H 0.91217 0.36669 0.20161
 H3225 H 0.83473 0.38116 0.23112
 H3226 H 0.81067 0.39530 0.26069
 H3227 H 0.82678 0.41163 0.29501
 H3228 H 0.86704 0.41395 0.29996
 C3229 C 0.39661 0.89701 0.27377
 C3230 C 0.37985 0.88047 0.27628
 C3231 C 0.37001 0.87058 0.25703
 C3232 C 0.37698 0.87729 0.23540
 C3233 C 0.39372 0.89385 0.23290
 C3234 C 0.40356 0.90374 0.25214
 C3235 C 0.42026 0.92025 0.24923
 C3236 C 0.42704 0.92681 0.22790
 C3237 C 0.41742 0.91714 0.20908
 C3238 C 0.40094 0.90085 0.21145
 C3239 C 0.35330 0.85408 0.25996
 C3240 C 0.34650 0.84755 0.28129
 C3241 C 0.35612 0.85722 0.30011
 C3242 C 0.37261 0.87350 0.29774
 C3243 C 0.36701 0.86718 0.21570
 C3244 C 0.35888 0.85893 0.19919
 C3245 C 0.40670 0.90708 0.29341
 C3246 C 0.41502 0.91537 0.30979
 H3247 H 0.42824 0.92825 0.26336
 H3248 H 0.43983 0.93946 0.22598
 H3249 H 0.42275 0.92230 0.19255
 H3250 H 0.39397 0.89383 0.19630
 H3251 H 0.34532 0.84608 0.24582
 H3252 H 0.33370 0.83491 0.28323
 H3253 H 0.35077 0.85209 0.31665
 H3254 H 0.37959 0.88054 0.31288
 C3255 C 0.39813 0.39837 0.77215
 C3256 C 0.37462 0.39675 0.77007
 C3257 C 0.36508 0.38722 0.75049
 C3258 C 0.37911 0.37937 0.73312
 C3259 C 0.40261 0.38105 0.73519
 C3260 C 0.41215 0.39058 0.75476
 C3261 C 0.43569 0.39204 0.75647
 C3262 C 0.44941 0.38431 0.73932
 C3263 C 0.44009 0.37499 0.72017
 C3264 C 0.41697 0.37334 0.71804
 C3265 C 0.34154 0.38575 0.74880
 C3266 C 0.32782 0.39344 0.76597
 C3267 C 0.33714 0.40275 0.78512
 C3268 C 0.36026 0.40444 0.78723
 C3269 C 0.36938 0.36947 0.71321
 C3270 C 0.36133 0.36120 0.69668
 C3271 C 0.40785 0.40784 0.79228
 C3272 C 0.41576 0.41559 0.80912
 H3273 H 0.44372 0.39916 0.77104
 H3274 H 0.46738 0.38556 0.74090
 H3275 H 0.45082 0.36901 0.70690
 H3276 H 0.41051 0.36596 0.70283
 H3277 H 0.33350 0.37864 0.73422
 H3278 H 0.30985 0.39217 0.76440
 H3279 H 0.32641 0.40871 0.79841
 H3280 H 0.36672 0.41182 0.80244
 C3281 C 1.10108 0.89943 1.22972
 C3282 C 1.09331 0.87849 1.23762
 C3283 C 1.10305 0.86876 1.25702
 C3284 C 1.12050 0.88001 1.26838
 C3285 C 1.12810 0.90106 1.26061
 C3286 C 1.11835 0.91079 1.24122
 C3287 C 1.12627 0.93181 1.23373
 C3288 C 1.14333 0.94289 1.24508
 C3289 C 1.15285 0.93337 1.26404
 C3290 C 1.14540 0.91270 1.27179
 C3291 C 1.09506 0.84779 1.26457
 C3292 C 1.07794 0.83675 1.25328
 C3293 C 1.06842 0.84627 1.23431
 C3294 C 1.07595 0.86689 1.22649
 C3295 C 1.13078 0.86984 1.28790
 C3296 C 1.13937 0.86132 1.30404
 C3297 C 1.09161 0.90903 1.20951
 C3298 C 1.08392 0.91680 1.19256
 H3299 H 1.11938 0.93990 1.21907
 H3300 H 1.14918 0.95896 1.23912
 H3301 H 1.16610 0.94205 1.27280
 H3302 H 1.15332 0.90598 1.28662
 H3303 H 1.10193 0.83972 1.27925
 H3304 H 1.07203 0.82073 1.25928
 H3305 H 1.05513 0.83762 1.22559
 H3306 H 1.06800 0.87362 1.21168
 C3307 C 1.09705 0.40242 0.73279
 C3308 C 1.08918 0.38175 0.74125
 C3309 C 1.09827 0.37290 0.76138
 C3310 C 1.11517 0.38478 0.77293
 C3311 C 1.12281 0.40561 0.76465
 C3312 C 1.11372 0.41446 0.74452
 C3313 C 1.12167 0.43528 0.73652
 C3314 C 1.13813 0.44702 0.74809
 C3315 C 1.14702 0.43837 0.76776
 C3316 C 1.13951 0.41791 0.77603
 C3317 C 1.09019 0.35216 0.76945
 C3318 C 1.07362 0.34049 0.75797
 C3319 C 1.06474 0.34914 0.73829
 C3320 C 1.07237 0.36952 0.72994
 C3321 C 1.12495 0.37538 0.79310
 C3322 C 1.13316 0.36739 0.80971
 C3323 C 1.08834 0.41106 0.71182
 C3324 C 1.08128 0.41806 0.69426
 H3325 H 1.11525 0.44270 0.72130
 H3326 H 1.14401 0.46293 0.74174
 H3327 H 1.15980 0.44756 0.77668
 H3328 H 1.14693 0.41188 0.79141
 H3329 H 1.09657 0.34475 0.78470
 H3330 H 1.06763 0.32466 0.76439
 H3331 H 1.05187 0.34002 0.72944
 H3332 H 1.06493 0.37557 0.71459
 C3333 C 0.59956 0.90041 0.73104
 C3334 C 0.60043 0.87693 0.73394
 C3335 C 0.60944 0.86777 0.75396
 C3336 C 0.61752 0.88214 0.77096
 C3337 C 0.61657 0.90562 0.76809
 C3338 C 0.60756 0.91479 0.74807
 C3339 C 0.60682 0.93831 0.74556
 C3340 C 0.61476 0.95238 0.76235
 C3341 C 0.62357 0.94342 0.78192
 C3342 C 0.62451 0.92032 0.78485
 C3343 C 0.61017 0.84424 0.75647
 C3344 C 0.60226 0.83017 0.73965
 C3345 C 0.59347 0.83913 0.72007
 C3346 C 0.59251 0.86222 0.71717
 C3347 C 0.62698 0.87278 0.79129
 C3348 C 0.63492 0.86497 0.80811
 C3349 C 0.59063 0.90974 0.71046
 C3350 C 0.58332 0.91731 0.69325
 H3351 H 0.60011 0.94606 0.73063
 H3352 H 0.61407 0.97033 0.76015
 H3353 H 0.62973 0.95442 0.79491
 H3354 H 0.63151 0.91415 0.80037
 H3355 H 0.61685 0.83648 0.77140
 H3356 H 0.60297 0.81222 0.74184
 H3357 H 0.58736 0.82813 0.70706
 H3358 H 0.58551 0.86839 0.70165
 C3359 C 0.59708 0.40216 1.23371
 C3360 C 0.58578 0.38469 1.24503
 C3361 C 0.59491 0.37563 1.26505
 C3362 C 0.61527 0.38410 1.27362
 C3363 C 0.62640 0.40180 1.26248
 C3364 C 0.61727 0.41085 1.24246
 C3365 C 0.62873 0.42848 1.23158
 C3366 C 0.64863 0.43694 1.24022
 C3367 C 0.65755 0.42809 1.25980
 C3368 C 0.64664 0.41071 1.27086
 C3369 C 0.58336 0.35813 1.27603
 C3370 C 0.56335 0.34981 1.26749
 C3371 C 0.55443 0.35867 1.24792
 C3372 C 0.56545 0.37590 1.23674
 C3373 C 0.62499 0.37437 1.29365
 C3374 C 0.63323 0.36618 1.31014
 C3375 C 0.58820 0.41086 1.21284
 C3376 C 0.58106 0.41795 1.19536
 H3377 H 0.62244 0.43594 1.21631
 H3378 H 0.65717 0.45043 1.23169
 H3379 H 0.67301 0.43471 1.26645
 H3380 H 0.65423 0.40440 1.28604
 H3381 H 0.58963 0.35071 1.29131
 H3382 H 0.55472 0.33643 1.27611
 H3383 H 0.53888 0.35216 1.24135
 H3384 H 0.55784 0.38225 1.22158
 C3385 C 0.90118 1.09899 1.23058
 C3386 C 0.91397 1.09882 1.25051
 C3387 C 0.90485 1.10777 1.27055
 C3388 C 0.88301 1.11683 1.27053
 C3389 C 0.87019 1.11693 1.25060
 C3390 C 0.87931 1.10799 1.23057
 C3391 C 0.86619 1.10830 1.21085
 C3392 C 0.84468 1.11719 1.21092
 C3393 C 0.83576 1.12592 1.23052
 C3394 C 0.84829 1.12584 1.25018
 C3395 C 0.91796 1.10745 1.29027
 C3396 C 0.93945 1.09852 1.29020
 C3397 C 0.94836 1.08976 1.27060
 C3398 C 0.93584 1.08987 1.25094
 C3399 C 0.87376 1.12613 1.29094
 C3400 C 0.86607 1.13392 1.30785
 C3401 C 0.91052 1.09002 1.21006
 C3402 C 0.91809 1.08268 1.19290
 H3403 H 0.87238 1.10169 1.19519
 H3404 H 0.83489 1.11731 1.19569
 H3405 H 0.81905 1.13280 1.23049
 H3406 H 0.84063 1.13282 1.26500
 H3407 H 0.91176 1.11407 1.30593
 H3408 H 0.94924 1.09840 1.30543
 H3409 H 0.96506 1.08284 1.27064
 H3410 H 0.94349 1.08286 1.23612
 C3411 C 0.89924 0.59959 0.72992
 C3412 C 0.91346 0.60754 0.74710
 C3413 C 0.90415 0.61677 0.76692
 C3414 C 0.88067 0.61800 0.76945
 C3415 C 0.86644 0.60997 0.75231
 C3416 C 0.87575 0.60075 0.73248
 C3417 C 0.86119 0.59289 0.71555
 C3418 C 0.83809 0.59412 0.71812
 C3419 C 0.82899 0.60313 0.73751
 C3420 C 0.84291 0.61098 0.75446
 C3421 C 0.91871 0.62465 0.78384
 C3422 C 0.94180 0.62345 0.78125
 C3423 C 0.95091 0.61442 0.76187
 C3424 C 0.93698 0.60654 0.74493
 C3425 C 0.87116 0.62766 0.78960
 C3426 C 0.86329 0.63575 0.80629
 C3427 C 0.90873 0.59043 0.70955
 C3428 C 0.91646 0.58293 0.69251
 H3429 H 0.86747 0.58573 0.70017
 H3430 H 0.82720 0.58805 0.70500
 H3431 H 0.81103 0.60404 0.73943
 H3432 H 0.83504 0.61783 0.76924
 H3433 H 0.91242 0.63181 0.79922
 H3434 H 0.95269 0.62955 0.79436
 H3435 H 0.96886 0.61353 0.75994
 H3436 H 0.94485 0.59966 0.73017
 C3437 C 0.40146 1.09998 0.73096
 C3438 C 0.40077 1.12346 0.73387
 C3439 C 0.39177 1.13265 0.75386
 C3440 C 0.38351 1.11829 0.77080
 C3441 C 0.38425 1.09481 0.76791
 C3442 C 0.39325 1.08563 0.74792
 C3443 C 0.39377 1.06211 0.74538
 C3444 C 0.38563 1.04806 0.76211
 C3445 C 0.37683 1.05703 0.78166
 C3446 C 0.37610 1.08013 0.78462
 C3447 C 0.39123 1.15617 0.75637
 C3448 C 0.39931 1.17022 0.73961
 C3449 C 0.40810 1.16124 0.72006
 C3450 C 0.40887 1.13815 0.71714
 C3451 C 0.37410 1.12769 0.79111
 C3452 C 0.36623 1.13555 0.80792
 C3453 C 0.41043 1.09064 0.71043
 C3454 C 0.41778 1.08307 0.69327
 H3455 H 0.40045 1.05434 0.73047
 H3456 H 0.38615 1.03011 0.75989
 H3457 H 0.37053 1.04605 0.79461
 H3458 H 0.36910 1.08631 0.80011
 H3459 H 0.38457 1.16395 0.77128
 H3460 H 0.39875 1.18817 0.74180
 H3461 H 0.41436 1.17223 0.70709
 H3462 H 0.41588 1.13197 0.70165
 C3463 C 0.39620 0.60326 1.22781
 C3464 C 0.40978 0.61059 1.24577
 C3465 C 0.39984 0.62093 1.26471
 C3466 C 0.37639 0.62387 1.26557
 C3467 C 0.36281 0.61652 1.24761
 C3468 C 0.37275 0.60618 1.22867
 C3469 C 0.35885 0.59900 1.21090
 C3470 C 0.33578 0.60196 1.21182
 C3471 C 0.32606 0.61206 1.23034
 C3472 C 0.33933 0.61928 1.24809
 C3473 C 0.41375 0.62816 1.28245
 C3474 C 0.43682 0.62524 1.28151
 C3475 C 0.44654 0.61512 1.26299
 C3476 C 0.43325 0.60785 1.24527
 C3477 C 0.36625 0.63441 1.28492
 C3478 C 0.35785 0.64310 1.30103
 C3479 C 0.40636 0.59299 1.20833
 C3480 C 0.41463 0.58466 1.19196
 H3481 H 0.36562 0.59105 1.19614
 H3482 H 0.32541 0.59639 1.19807
 H3483 H 0.30813 0.61431 1.23097
 H3484 H 0.33099 0.62705 1.26213
 H3485 H 0.40697 0.63613 1.29721
 H3486 H 0.44721 0.63086 1.29523
 H3487 H 0.46446 0.61289 1.26234
 H3488 H 0.44158 0.60008 1.23123
 C3489 C 1.09897 1.23159 0.90134
 C3490 C 1.08443 1.24814 0.89271
 C3491 C 1.09333 1.26830 0.88379
 C3492 C 1.11672 1.27178 0.88355
 C3493 C 1.13126 1.25527 0.89229
 C3494 C 1.12236 1.23510 0.90120
 C3495 C 1.13724 1.21880 0.90975
 C3496 C 1.16024 1.22232 0.90950
 C3497 C 1.16895 1.24204 0.90081
 C3498 C 1.15471 1.25839 0.89229
 C3499 C 1.07846 1.28459 0.87521
 C3500 C 1.05546 1.28105 0.87542
 C3501 C 1.04675 1.26133 0.88414
 C3502 C 1.06099 1.24501 0.89270
 C3503 C 1.12586 1.29222 0.87413
 C3504 C 1.13358 1.30909 0.86624
 C3505 C 1.08993 1.21084 0.91014
 C3506 C 1.08262 1.19349 0.91734
 H3507 H 1.13127 1.20319 0.91671
 H3508 H 1.17138 1.20966 0.91609
 H3509 H 1.18683 1.24470 0.90067
 H3510 H 1.16228 1.27346 0.88572
 H3511 H 1.08444 1.30019 0.86825
 H3512 H 1.04433 1.29368 0.86879
 H3513 H 1.02887 1.25866 0.88426
 H3514 H 1.05343 1.22995 0.89931
 C3515 C 1.10264 0.72784 0.39800
 C3516 C 1.12606 0.73107 0.39898
 C3517 C 1.13577 0.75046 0.38922
 C3518 C 1.12200 0.76651 0.37857
 C3519 C 1.09858 0.76327 0.37760
 C3520 C 1.08888 0.74388 0.38734
 C3521 C 1.06544 0.74099 0.38614
 C3522 C 1.05197 0.75682 0.37561
 C3523 C 1.06146 0.77578 0.36608
 C3524 C 1.08448 0.77906 0.36702
 C3525 C 1.15921 0.75329 0.39036
 C3526 C 1.17268 0.73744 0.40086
 C3527 C 1.16319 0.71851 0.41044
 C3528 C 1.14015 0.71527 0.40955
 C3529 C 1.13190 0.78632 0.36861
 C3530 C 1.14007 0.80279 0.36034
 C3531 C 1.09277 0.70789 0.40772
 C3532 C 1.08471 0.69120 0.41565
 H3533 H 1.05729 0.72651 0.39330
 H3534 H 1.03408 0.75434 0.37483
 H3535 H 1.05092 0.78802 0.35792
 H3536 H 1.09108 0.79408 0.35935
 H3537 H 1.16738 0.76776 0.38317
 H3538 H 1.19059 0.73987 0.40157
 H3539 H 1.17371 0.70628 0.41863
 H3540 H 1.13355 0.70027 0.41725
 C3541 C 0.59972 1.23165 0.40172
 C3542 C 0.62309 1.23527 0.40190
 C3543 C 0.63205 1.25535 0.39284
 C3544 C 0.61758 1.27166 0.38362
 C3545 C 0.59420 1.26807 0.38352
 C3546 C 0.58524 1.24800 0.39260
 C3547 C 0.56182 1.24476 0.39226
 C3548 C 0.54765 1.26089 0.38322
 C3549 C 0.55641 1.28052 0.37435
 C3550 C 0.57940 1.28415 0.37445
 C3551 C 0.65547 1.25858 0.39318
 C3552 C 0.66964 1.24244 0.40218
 C3553 C 0.66089 1.22280 0.41102
 C3554 C 0.63789 1.21917 0.41094
 C3555 C 0.62676 1.29201 0.37408
 C3556 C 0.63450 1.30884 0.36609
 C3557 C 0.59062 1.21099 0.41067
 C3558 C 0.58322 1.19372 0.41797
 H3559 H 0.55422 1.22977 0.39897
 H3560 H 0.52978 1.25815 0.38310
 H3561 H 0.54533 1.29300 0.36735
 H3562 H 0.58542 1.29968 0.36735
 H3563 H 0.66307 1.27359 0.38650
 H3564 H 0.68751 1.24518 0.40230
 H3565 H 0.67197 1.21030 0.41799
 H3566 H 0.63189 1.20364 0.41803
 C3567 C 0.59966 0.73010 0.90183
 C3568 C 0.58537 0.74710 0.89365
 C3569 C 0.59461 0.76706 0.88463
 C3570 C 0.61809 0.76989 0.88384
 C3571 C 0.63237 0.75291 0.89208
 C3572 C 0.62313 0.73295 0.90109
 C3573 C 0.63774 0.71617 0.90916
 C3574 C 0.66083 0.71904 0.90834
 C3575 C 0.66986 0.73856 0.89955
 C3576 C 0.65588 0.75537 0.89149
 C3577 C 0.58000 0.78381 0.87652
 C3578 C 0.55692 0.78092 0.87730
 C3579 C 0.54788 0.76140 0.88611
 C3580 C 0.56187 0.74462 0.89422
 C3581 C 0.62753 0.79018 0.87441
 C3582 C 0.63537 0.80698 0.86648
 C3583 C 0.59025 0.70960 0.91081
 C3584 C 0.58262 0.69246 0.91819
 H3585 H 0.63152 0.70069 0.91618
 H3586 H 0.67176 0.70603 0.91457
 H3587 H 0.68781 0.74071 0.89896
 H3588 H 0.66370 0.77026 0.88481
 H3589 H 0.58623 0.79929 0.86950
 H3590 H 0.54598 0.79389 0.87102
 H3591 H 0.52994 0.75923 0.88668
 H3592 H 0.55405 0.72974 0.90092
 C3593 C 0.90064 1.22967 1.10069
 C3594 C 0.89235 1.22933 1.12289
 C3595 C 0.88298 1.24901 1.13231
 C3596 C 0.88195 1.26891 1.11949
 C3597 C 0.89031 1.26926 1.09732
 C3598 C 0.89968 1.24958 1.08790
 C3599 C 0.90790 1.25032 1.06570
 C3600 C 0.90690 1.26995 1.05317
 C3601 C 0.89773 1.28920 1.06239
 C3602 C 0.88951 1.28895 1.08420
 C3603 C 0.87478 1.24826 1.15452
 C3604 C 0.87579 1.22863 1.16705
 C3605 C 0.88495 1.20939 1.15783
 C3606 C 0.89316 1.20964 1.13602
 C3607 C 0.87219 1.28894 1.12907
 C3608 C 0.86401 1.30549 1.13712
 C3609 C 0.90999 1.20948 1.09103
 C3610 C 0.91760 1.19254 1.08325
 H3611 H 0.91518 1.23577 1.05781
 H3612 H 0.91326 1.27023 1.03622
 H3613 H 0.89699 1.30441 1.05258
 H3614 H 0.88254 1.30435 1.09063
 H3615 H 0.86751 1.26280 1.16243
 H3616 H 0.86943 1.22835 1.18400
 H3617 H 0.88569 1.19417 1.16764
 H3618 H 0.90014 1.19424 1.12960
 C3619 C 0.90383 0.73299 0.59668
 C3620 C 0.91289 0.74234 0.61646
 C3621 C 0.90416 0.76270 0.62504
 C3622 C 0.88642 0.77360 0.61378
 C3623 C 0.87754 0.76439 0.59384
 C3624 C 0.88628 0.74403 0.58526
 C3625 C 0.87709 0.73513 0.56534
 C3626 C 0.85978 0.74603 0.55420
 C3627 C 0.85124 0.76593 0.56259
 C3628 C 0.85995 0.77508 0.58217
 C3629 C 0.91345 0.77167 0.64488
 C3630 C 0.93086 0.76085 0.65594
 C3631 C 0.93940 0.74095 0.64755
 C3632 C 0.93058 0.73172 0.62805
 C3633 C 0.87709 0.79407 0.62289
 C3634 C 0.86926 0.81095 0.63062
 C3635 C 0.91229 0.71184 0.58829
 C3636 C 0.91915 0.69418 0.58147
 H3637 H 0.88319 0.71970 0.55815
 H3638 H 0.85295 0.73899 0.53898
 H3639 H 0.83778 0.77433 0.55387
 H3640 H 0.85276 0.79061 0.58802
 H3641 H 0.90739 0.78713 0.65205
 H3642 H 0.93777 0.76795 0.67109
 H3643 H 0.95293 0.73261 0.65620
 H3644 H 0.93779 0.71622 0.62218
 C3645 C 0.39940 1.22884 0.60255
 C3646 C 0.39760 1.23086 0.62609
 C3647 C 0.38792 1.25036 0.63558
 C3648 C 0.38009 1.26771 0.62147
 C3649 C 0.38196 1.26571 0.59794
 C3650 C 0.39164 1.24621 0.58844
 C3651 C 0.39328 1.24457 0.56487
 C3652 C 0.38559 1.26170 0.55107
 C3653 C 0.37612 1.28077 0.56035
 C3654 C 0.37429 1.28284 0.58350
 C3655 C 0.38627 1.25199 0.65916
 C3656 C 0.39394 1.23484 0.67296
 C3657 C 0.40339 1.21577 0.66368
 C3658 C 0.40526 1.21372 0.64052
 C3659 C 0.37002 1.28753 0.63116
 C3660 C 0.36163 1.30398 0.63922
 C3661 C 0.40898 1.20877 0.59286
 C3662 C 0.41678 1.19198 0.58496
 H3663 H 0.40052 1.23006 0.55687
 H3664 H 0.38697 1.26017 0.53307
 H3665 H 0.37017 1.29403 0.54955
 H3666 H 0.36680 1.29799 0.58992
 H3667 H 0.37905 1.26650 0.66717
 H3668 H 0.39254 1.23635 0.69096
 H3669 H 0.40932 1.20249 0.67447
 H3670 H 0.41274 1.19857 0.63410
 C3671 C 0.39932 0.72898 1.10187
 C3672 C 0.41042 0.74006 1.11960
 C3673 C 0.40064 0.75928 1.12954
 C3674 C 0.37982 0.76730 1.12167
 C3675 C 0.36885 0.75638 1.10375
 C3676 C 0.37863 0.73716 1.09382
 C3677 C 0.36732 0.72647 1.07598
 C3678 C 0.34693 0.73455 1.06817
 C3679 C 0.33736 0.75334 1.07788
 C3680 C 0.34812 0.76420 1.09548
 C3681 C 0.41201 0.77004 1.14730
 C3682 C 0.43247 0.76204 1.15501
 C3683 C 0.44204 0.74324 1.14529
 C3684 C 0.43122 0.73231 1.12779
 C3685 C 0.36960 0.78666 1.13210
 C3686 C 0.36102 0.80269 1.14076
 C3687 C 0.40891 0.70890 1.09225
 C3688 C 0.41667 0.69202 1.08447
 H3689 H 0.37411 0.71181 1.06786
 H3690 H 0.33851 0.72618 1.05451
 H3691 H 0.32151 0.75955 1.07176
 H3692 H 0.34001 0.77877 1.10248
 H3693 H 0.40524 0.78472 1.15539
 H3694 H 0.44094 0.77047 1.16861
 H3695 H 0.45793 0.73710 1.15135
 H3696 H 0.43933 0.71777 1.12076
 C3697 C 0.90121 0.76986 0.90032
 C3698 C 0.88974 0.75462 0.91436
 C3699 C 0.88041 0.73478 0.90519
 C3700 C 0.88263 0.73029 0.88204
 C3701 C 0.89428 0.74543 0.86803
 C3702 C 0.90360 0.76527 0.87720
 C3703 C 0.91511 0.78019 0.86285
 C3704 C 0.91736 0.77563 0.84010
 C3705 C 0.90825 0.75623 0.83114
 C3706 C 0.89683 0.74124 0.84486
 C3707 C 0.86895 0.71984 0.91955
 C3708 C 0.86679 0.72436 0.94233
 C3709 C 0.87592 0.74376 0.95129
 C3710 C 0.88727 0.75878 0.93755
 C3711 C 0.87273 0.71025 0.87257
 C3712 C 0.86443 0.69370 0.86460
 C3713 C 0.91025 0.79040 0.90955
 C3714 C 0.91760 0.80761 0.91703
 H3715 H 0.92251 0.79549 0.86904
 H3716 H 0.92621 0.78723 0.82936
 H3717 H 0.91004 0.75276 0.81345
 H3718 H 0.89006 0.72637 0.83711
 H3719 H 0.86157 0.70453 0.91336
 H3720 H 0.85798 0.71275 0.95307
 H3721 H 0.87420 0.74719 0.96899
 H3722 H 0.89409 0.77363 0.94530
 C3723 C 0.90353 0.26720 0.40322
 C3724 C 0.88391 0.25780 0.41253
 C3725 C 0.87492 0.23777 0.40345
 C3726 C 0.88561 0.22728 0.38513
 C3727 C 0.90546 0.23646 0.37609
 C3728 C 0.91445 0.25649 0.38517
 C3729 C 0.93426 0.26541 0.37580
 C3730 C 0.94491 0.25482 0.35800
 C3731 C 0.93612 0.23523 0.34912
 C3732 C 0.91662 0.22609 0.35799
 C3733 C 0.85524 0.22872 0.41297
 C3734 C 0.84476 0.23915 0.43096
 C3735 C 0.85355 0.25874 0.43984
 C3736 C 0.87289 0.26804 0.43079
 C3737 C 0.87596 0.20730 0.37533
 C3738 C 0.86774 0.19085 0.36710
 C3739 C 0.91216 0.28815 0.41187
 C3740 C 0.91912 0.30571 0.41886
 H3741 H 0.94175 0.28060 0.38215
 H3742 H 0.96006 0.26185 0.35106
 H3743 H 0.94445 0.22707 0.33529
 H3744 H 0.91043 0.21081 0.35053
 H3745 H 0.84778 0.21350 0.40666
 H3746 H 0.82974 0.23199 0.43806
 H3747 H 0.84535 0.26677 0.45383
 H3748 H 0.87910 0.28328 0.43829
 C3749 C 0.39632 0.77468 0.39606
 C3750 C 0.39712 0.75373 0.40707
 C3751 C 0.38687 0.73474 0.39713
 C3752 C 0.37589 0.73682 0.37624
 C3753 C 0.37506 0.75778 0.36524
 C3754 C 0.38531 0.77677 0.37518
 C3755 C 0.38427 0.79756 0.36387
 C3756 C 0.37341 0.79954 0.34333
 C3757 C 0.36338 0.78097 0.33362
 C3758 C 0.36414 0.76029 0.34437
 C3759 C 0.38788 0.71397 0.40846
 C3760 C 0.39872 0.71201 0.42901
 C3761 C 0.40875 0.73058 0.43872
 C3762 C 0.40801 0.75124 0.42796
 C3763 C 0.36556 0.71737 0.36606
 C3764 C 0.35709 0.70107 0.35776
 C3765 C 0.40670 0.79409 0.40625
 C3766 C 0.41517 0.81033 0.41463
 H3767 H 0.39182 0.81249 0.37076
 H3768 H 0.37278 0.81556 0.33491
 H3769 H 0.35496 0.78259 0.31766
 H3770 H 0.35609 0.74633 0.33615
 H3771 H 0.38032 0.69904 0.40159
 H3772 H 0.39934 0.69600 0.43744
 H3773 H 0.41715 0.72898 0.45469
 H3774 H 0.41605 0.76520 0.43619
 C3775 C 0.40247 0.26785 0.90295
 C3776 C 0.38444 0.25698 0.91376
 C3777 C 0.37538 0.23704 0.90454
 C3778 C 0.38441 0.22810 0.88457
 C3779 C 0.40266 0.23878 0.87394
 C3780 C 0.41172 0.25872 0.88316
 C3781 C 0.42992 0.26915 0.87220
 C3782 C 0.43892 0.26013 0.85270
 C3783 C 0.43007 0.24063 0.84369
 C3784 C 0.41214 0.23001 0.85411
 C3785 C 0.35731 0.22651 0.91561
 C3786 C 0.34845 0.23542 0.93523
 C3787 C 0.35731 0.25491 0.94424
 C3788 C 0.37509 0.26565 0.93370
 C3789 C 0.37469 0.20815 0.87475
 C3790 C 0.36650 0.19169 0.86648
 C3791 C 0.41120 0.28865 0.91190
 C3792 C 0.41830 0.30607 0.91912
 H3793 H 0.43740 0.28434 0.87857
 H3794 H 0.45285 0.26831 0.84454
 H3795 H 0.43712 0.23368 0.82854
 H3796 H 0.40585 0.21487 0.84648
 H3797 H 0.34986 0.21130 0.90926
 H3798 H 0.33464 0.22713 0.94349
 H3799 H 0.35037 0.26176 0.95949
 H3800 H 0.38142 0.28077 0.94136
 C3801 C 1.10140 0.77074 1.10079
 C3802 C 1.08718 0.75373 1.10908
 C3803 C 1.09649 0.73401 1.11855
 C3804 C 1.11998 0.73141 1.11966
 C3805 C 1.13420 0.74840 1.11131
 C3806 C 1.12489 0.76813 1.10185
 C3807 C 1.13945 0.78490 1.09366
 C3808 C 1.16254 0.78227 1.09479
 C3809 C 1.17165 0.76299 1.10403
 C3810 C 1.15772 0.74619 1.11221
 C3811 C 1.08193 0.71725 1.12677
 C3812 C 1.05884 0.71990 1.12567
 C3813 C 1.04973 0.73918 1.11642
 C3814 C 1.06366 0.75596 1.10820
 C3815 C 1.12949 0.71133 1.12948
 C3816 C 1.13738 0.69468 1.13767
 C3817 C 1.09190 0.79103 1.09138
 C3818 C 1.08416 0.80799 1.08371
 H3819 H 1.13316 0.80020 1.08631
 H3820 H 1.17343 0.79527 1.08846
 H3821 H 1.18960 0.76103 1.10486
 H3822 H 1.16559 0.73149 1.11923
 H3823 H 1.08822 0.70196 1.13412
 H3824 H 1.04795 0.70692 1.13204
 H3825 H 1.03178 0.74116 1.11562
 H3826 H 1.05579 0.77065 1.10116
 C3827 C 1.09968 0.26871 0.59840
 C3828 C 1.08526 0.25128 0.60538
 C3829 C 1.09433 0.23117 0.61422
 C3830 C 1.11777 0.22859 0.61603
 C3831 C 1.13220 0.24599 0.60897
 C3832 C 1.12313 0.26611 0.60013
 C3833 C 1.13789 0.28328 0.59322
 C3834 C 1.16094 0.28067 0.59502
 C3835 C 1.16981 0.26100 0.60366
 C3836 C 1.15569 0.24381 0.61058
 C3837 C 1.07957 0.21400 0.62114
 C3838 C 1.05651 0.21663 0.61935
 C3839 C 1.04765 0.23629 0.61069
 C3840 C 1.06177 0.25347 0.60376
 C3841 C 1.12703 0.20814 0.62530
 C3842 C 1.13473 0.19121 0.63309
 C3843 C 1.09043 0.28937 0.58963
 C3844 C 1.08292 0.30664 0.58243
 H3845 H 1.13179 0.29888 0.58637
 H3846 H 1.17198 0.29397 0.58967
 H3847 H 1.18773 0.25905 0.60502
 H3848 H 1.16338 0.22882 0.61718
 H3849 H 1.08567 0.19840 0.62798
 H3850 H 1.04547 0.20333 0.62471
 H3851 H 1.02973 0.23824 0.60934
 H3852 H 1.05408 0.26845 0.59714
 C3853 C 0.60043 0.77056 0.60065
 C3854 C 0.60877 0.75372 0.58627
 C3855 C 0.61791 0.73379 0.59545
 C3856 C 0.61865 0.73081 0.61896
 C3857 C 0.61024 0.74762 0.63333
 C3858 C 0.60111 0.76756 0.62415
 C3859 C 0.59286 0.78415 0.63887
 C3860 C 0.59360 0.78113 0.66198
 C3861 C 0.60250 0.76163 0.67095
 C3862 C 0.61074 0.74501 0.65688
 C3863 C 0.62617 0.71720 0.58075
 C3864 C 0.62542 0.72022 0.55763
 C3865 C 0.61649 0.73971 0.54865
 C3866 C 0.60825 0.75633 0.56273
 C3867 C 0.62815 0.71053 0.62834
 C3868 C 0.63606 0.69373 0.63618
 C3869 C 0.59133 0.79103 0.59130
 C3870 C 0.58387 0.80814 0.58368
 H3871 H 0.58576 0.79960 0.63269
 H3872 H 0.58722 0.79400 0.67299
 H3873 H 0.60302 0.75936 0.68892
 H3874 H 0.61749 0.73013 0.66466
 H3875 H 0.63327 0.70175 0.58693
 H3876 H 0.63180 0.70737 0.54662
 H3877 H 0.61595 0.74198 0.53069
 H3878 H 0.60147 0.77120 0.55496
 C3879 C 0.60088 0.27040 1.10134
 C3880 C 0.58687 0.25248 1.10788
 C3881 C 0.59637 0.23266 1.11694
 C3882 C 0.61983 0.23089 1.11940
 C3883 C 0.63385 0.24881 1.11282
 C3884 C 0.62435 0.26862 1.10377
 C3885 C 0.63870 0.28632 1.09734
 C3886 C 0.66177 0.28450 1.09982
 C3887 C 0.67106 0.26513 1.10867
 C3888 C 0.65734 0.24743 1.11513
 C3889 C 0.58202 0.21499 1.12341
 C3890 C 0.55895 0.21683 1.12097
 C3891 C 0.54966 0.23620 1.11210
 C3892 C 0.56338 0.25387 1.10561
 C3893 C 0.62952 0.21072 1.12880
 C3894 C 0.63755 0.19400 1.13669
 C3895 C 0.59120 0.29072 1.09227
 C3896 C 0.58336 0.30771 1.08480
 H3897 H 0.63227 0.30172 1.09036
 H3898 H 0.67249 0.29821 1.09483
 H3899 H 0.68899 0.26380 1.11056
 H3900 H 0.66535 0.23270 1.12192
 H3901 H 0.58845 0.19959 1.13040
 H3902 H 0.54821 0.20314 1.12599
 H3903 H 0.53173 0.23754 1.11024
 H3904 H 0.55538 0.26860 1.09880
 C3905 C 1.23111 1.09993 0.90117
 C3906 C 1.23457 1.12335 0.90140
 C3907 C 1.25461 1.13248 0.89248
 C3908 C 1.27105 1.11813 0.88336
 C3909 C 1.26763 1.09471 0.88321
 C3910 C 1.24760 1.08558 0.89215
 C3911 C 1.24453 1.06212 0.89178
 C3912 C 1.26079 1.04807 0.88282
 C3913 C 1.28037 1.05700 0.87408
 C3914 C 1.28385 1.08003 0.87423
 C3915 C 1.25767 1.15595 0.89286
 C3916 C 1.24140 1.17000 0.90177
 C3917 C 1.22180 1.16108 0.91048
 C3918 C 1.21835 1.13804 0.91036
 C3919 C 1.29137 1.12750 0.87396
 C3920 C 1.30816 1.13537 0.86608
 C3921 C 1.21050 1.09067 0.91000
 C3922 C 1.19325 1.08319 0.91723
 H3923 H 1.22958 1.05439 0.89839
 H3924 H 1.25817 1.03016 0.88267
 H3925 H 1.29295 1.04601 0.86715
 H3926 H 1.29935 1.08618 0.86724
 H3927 H 1.27264 1.16368 0.88629
 H3928 H 1.24401 1.18790 0.90191
 H3929 H 1.20920 1.17206 0.91737
 H3930 H 1.20284 1.13190 0.91736
 C3931 C 1.22621 0.60392 0.39682
 C3932 C 1.22614 0.62723 0.39264
 C3933 C 1.24517 0.63761 0.38293
 C3934 C 1.26414 0.62460 0.37744
 C3935 C 1.26421 0.60129 0.38163
 C3936 C 1.24518 0.59092 0.39136
 C3937 C 1.24562 0.56760 0.39538
 C3938 C 1.26434 0.55489 0.38995
 C3939 C 1.28295 0.56502 0.38044
 C3940 C 1.28298 0.58795 0.37629
 C3941 C 1.24472 0.66093 0.37891
 C3942 C 1.22598 0.67363 0.38430
 C3943 C 1.20735 0.66348 0.39376
 C3944 C 1.20734 0.64056 0.39794
 C3945 C 1.28355 0.63514 0.36740
 C3946 C 1.29973 0.64372 0.35901
 C3947 C 1.20671 0.59334 0.40662
 C3948 C 1.19035 0.58480 0.41468
 H3949 H 1.23154 0.55896 0.40274
 H3950 H 1.26439 0.53707 0.39314
 H3951 H 1.29745 0.55507 0.37626
 H3952 H 1.29786 0.59506 0.36886
 H3953 H 1.25881 0.66958 0.37157
 H3954 H 1.22590 0.69145 0.38111
 H3955 H 1.19282 0.67341 0.39788
 H3956 H 1.19246 0.63344 0.40534
 C3957 C 0.73143 1.09926 0.40216
 C3958 C 0.73475 1.12269 0.40163
 C3959 C 0.75482 1.13163 0.39261
 C3960 C 0.77144 1.11708 0.38415
 C3961 C 0.76819 1.09364 0.38484
 C3962 C 0.74812 1.08470 0.39386
 C3963 C 0.74521 1.06122 0.39431
 C3964 C 0.76169 1.04697 0.38611
 C3965 C 0.78133 1.05572 0.37730
 C3966 C 0.78463 1.07877 0.37662
 C3967 C 0.75775 1.15512 0.39225
 C3968 C 0.74131 1.16936 0.40054
 C3969 C 0.72167 1.16062 0.40932
 C3970 C 0.71833 1.13757 0.40991
 C3971 C 0.79175 1.12625 0.37457
 C3972 C 0.80852 1.13397 0.36654
 C3973 C 0.71076 1.09018 0.41100
 C3974 C 0.69346 1.08283 0.41821
 H3975 H 0.73022 1.05363 0.40100
 H3976 H 0.75921 1.02905 0.38660
 H3977 H 0.79408 1.04458 0.37096
 H3978 H 0.80018 1.08477 0.36961
 H3979 H 0.77275 1.16272 0.38560
 H3980 H 0.74383 1.18728 0.40013
 H3981 H 0.70894 1.17176 0.41572
 H3982 H 0.70278 1.13158 0.41693
 C3983 C 0.72939 0.60035 0.90127
 C3984 C 0.73215 0.62385 0.90035
 C3985 C 0.75196 0.63312 0.89107
 C3986 C 0.76888 0.61884 0.88276
 C3987 C 0.76616 0.59534 0.88376
 C3988 C 0.74635 0.58607 0.89305
 C3989 C 0.74399 0.56253 0.89384
 C3990 C 0.76071 0.54856 0.88567
 C3991 C 0.78007 0.55762 0.87658
 C3992 C 0.78285 0.58073 0.87559
 C3993 C 0.75431 0.65666 0.89028
 C3994 C 0.73757 0.67064 0.89841
 C3995 C 0.71821 0.66157 0.90748
 C3996 C 0.71544 0.63846 0.90850
 C3997 C 0.78900 0.62832 0.87304
 C3998 C 0.80564 0.63624 0.86489
 C3999 C 0.70901 0.59090 0.91044
 C4000 C 0.69196 0.58322 0.91793
 H4001 H 0.72923 0.55469 0.90076
 H4002 H 0.75863 0.53059 0.88640
 H4003 H 0.79301 0.54669 0.87026
 H4004 H 0.79820 0.58699 0.86836
 H4005 H 0.76908 0.66450 0.88339
 H4006 H 0.73965 0.68860 0.89767
 H4007 H 0.70525 0.67250 0.91377
 H4008 H 0.70009 0.63221 0.91573
 C4009 C 1.22795 0.89764 1.10259
 C4010 C 1.23064 0.87413 1.10241
 C4011 C 1.24983 0.86432 1.11241
 C4012 C 1.26621 0.87810 1.12251
 C4013 C 1.26353 0.90162 1.12266
 C4014 C 1.24434 0.91142 1.11267
 C4015 C 1.24200 0.93496 1.11305
 C4016 C 1.25816 0.94844 1.12304
 C4017 C 1.27693 0.93886 1.13281
 C4018 C 1.27967 0.91573 1.13268
 C4019 C 1.25214 0.84077 1.11207
 C4020 C 1.23594 0.82729 1.10215
 C4021 C 1.21718 0.83687 1.09237
 C4022 C 1.21447 0.86001 1.09244
 C4023 C 1.28580 0.86810 1.13275
 C4024 C 1.30210 0.85982 1.14122
 C4025 C 1.20817 0.90762 1.09269
 C4026 C 1.19160 0.91575 1.08463
 H4027 H 1.22769 0.94320 1.10566
 H4028 H 1.25610 0.96642 1.12319
 H4029 H 1.28943 0.94940 1.14055
 H4030 H 1.29455 0.90906 1.14050
 H4031 H 1.26645 0.83254 1.11946
 H4032 H 1.23796 0.80931 1.10205
 H4033 H 1.20465 0.82633 1.08467
 H4034 H 1.19960 0.86668 1.08460
 C4035 C 1.22836 0.39771 0.60097
 C4036 C 1.24526 0.41171 0.60983
 C4037 C 1.26481 0.40212 0.61933
 C4038 C 1.26733 0.37859 0.61993
 C4039 C 1.25045 0.36459 0.61102
 C4040 C 1.23091 0.37418 0.60152
 C4041 C 1.21423 0.35984 0.59277
 C4042 C 1.21679 0.33669 0.59342
 C4043 C 1.23591 0.32732 0.60269
 C4044 C 1.25261 0.34103 0.61141
 C4045 C 1.28145 0.41646 0.62812
 C4046 C 1.27886 0.43960 0.62754
 C4047 C 1.25974 0.44897 0.61825
 C4048 C 1.24308 0.43527 0.60947
 C4049 C 1.28720 0.36879 0.62982
 C4050 C 1.30368 0.36068 0.63810
 C4051 C 1.20827 0.40747 0.59152
 C4052 C 1.19144 0.41540 0.58380
 H4053 H 1.19907 0.36634 0.58537
 H4054 H 1.20387 0.32598 0.58667
 H4055 H 1.23782 0.30933 0.60314
 H4056 H 1.26718 0.33295 0.61844
 H4057 H 1.29662 0.40996 0.63552
 H4058 H 1.29175 0.45032 0.63434
 H4059 H 1.25780 0.46696 0.61785
 H4060 H 1.22852 0.44334 0.60242
 C4061 C 0.73407 0.90435 0.59562
 C4062 C 0.74720 0.91731 0.61046
 C4063 C 0.76753 0.90853 0.61906
 C4064 C 0.77463 0.88686 0.61275
 C4065 C 0.76170 0.87407 0.59759
 C4066 C 0.74136 0.88284 0.58900
 C4067 C 0.72870 0.86970 0.57393
 C4068 C 0.73591 0.84851 0.56752
 C4069 C 0.75579 0.83994 0.57592
 C4070 C 0.76860 0.85249 0.59079
 C4071 C 0.78032 0.92176 0.63394
 C4072 C 0.77324 0.94307 0.64013
 C4073 C 0.75337 0.95165 0.63170
 C4074 C 0.74042 0.93899 0.61705
 C4075 C 0.79497 0.87754 0.62215
 C4076 C 0.81171 0.86961 0.63009
 C4077 C 0.71286 0.91292 0.58751
 C4078 C 0.69512 0.91979 0.58090
 H4079 H 0.71313 0.87566 0.56691
 H4080 H 0.72602 0.83870 0.55597
 H4081 H 0.76132 0.82347 0.57089
 H4082 H 0.78396 0.84510 0.59685
 H4083 H 0.79591 0.91581 0.64092
 H4084 H 0.78324 0.95297 0.65151
 H4085 H 0.74796 0.96822 0.63655
 H4086 H 0.72511 0.94640 0.61092
 C4087 C 0.72923 0.39949 1.10127
 C4088 C 0.74617 0.41364 1.10980
 C4089 C 0.76596 0.40422 1.11896
 C4090 C 0.76868 0.38071 1.11954
 C4091 C 0.75177 0.36657 1.11093
 C4092 C 0.73198 0.37598 1.10177
 C4093 C 0.71529 0.36150 1.09331
 C4094 C 0.71806 0.33838 1.09389
 C4095 C 0.73741 0.32917 1.10285
 C4096 C 0.75413 0.34302 1.11129
 C4097 C 0.78265 0.41871 1.12742
 C4098 C 0.77987 0.44183 1.12684
 C4099 C 0.76052 0.45103 1.11788
 C4100 C 0.74380 0.43718 1.10944
 C4101 C 0.78879 0.37109 1.12912
 C4102 C 0.80543 0.36309 1.13715
 C4103 C 0.70889 0.40907 1.09216
 C4104 C 0.69187 0.41680 1.08469
 H4105 H 0.69995 0.36786 1.08616
 H4106 H 0.70513 0.32756 1.08734
 H4107 H 0.73949 0.31120 1.10325
 H4108 H 0.76889 0.33507 1.11807
 H4109 H 0.79800 0.41234 1.13455
 H4110 H 0.79280 0.45266 1.13337
 H4111 H 0.75843 0.46900 1.11748
 H4112 H 0.72905 0.44513 1.10264
 C4113 C 0.77162 1.10083 1.10081
 C4114 C 0.77039 1.10527 1.12405
 C4115 C 0.75064 1.11465 1.13329
 C4116 C 0.73222 1.11950 1.11922
 C4117 C 0.73344 1.11504 1.09599
 C4118 C 0.75320 1.10568 1.08675
 C4119 C 0.75405 1.10139 1.06347
 C4120 C 0.73589 1.10622 1.04971
 C4121 C 0.71656 1.11537 1.05874
 C4122 C 0.71526 1.11977 1.08159
 C4123 C 0.74982 1.11898 1.15656
 C4124 C 0.76801 1.11420 1.17031
 C4125 C 0.78732 1.10502 1.16128
 C4126 C 0.78860 1.10057 1.13843
 C4127 C 0.71204 1.12909 1.12865
 C4128 C 0.69529 1.13706 1.13649
 C4129 C 0.79188 1.09144 1.09137
 C4130 C 0.80882 1.08378 1.08366
 H4131 H 0.76872 1.09428 1.05567
 H4132 H 0.73682 1.10283 1.03194
 H4133 H 0.70250 1.11910 1.04797
 H4134 H 0.69987 1.12691 1.08783
 H4135 H 0.73516 1.12610 1.16436
 H4136 H 0.76711 1.11763 1.18807
 H4137 H 0.80140 1.10131 1.17204
 H4138 H 0.80398 1.09342 1.13220
 C4139 C 0.77015 0.59917 0.60016
 C4140 C 0.75319 0.60736 0.58581
 C4141 C 0.73335 0.61657 0.59504
 C4142 C 0.73057 0.61751 0.61855
 C4143 C 0.74749 0.60922 0.63290
 C4144 C 0.76733 0.60002 0.62368
 C4145 C 0.78403 0.59189 0.63836
 C4146 C 0.78122 0.59284 0.66149
 C4147 C 0.76182 0.60183 0.67050
 C4148 C 0.74508 0.60995 0.65646
 C4149 C 0.71666 0.62472 0.58036
 C4150 C 0.71950 0.62379 0.55723
 C4151 C 0.73890 0.61477 0.54821
 C4152 C 0.75561 0.60663 0.56226
 C4153 C 0.71040 0.62713 0.62799
 C4154 C 0.69373 0.63517 0.63592
 C4155 C 0.79059 0.59010 0.59079
 C4156 C 0.80770 0.58270 0.58320
 H4157 H 0.79942 0.58472 0.63215
 H4158 H 0.79417 0.58655 0.67247
 H4159 H 0.75971 0.60253 0.68848
 H4160 H 0.73029 0.61678 0.66427
 H4161 H 0.70128 0.63189 0.58657
 H4162 H 0.70657 0.63009 0.54625
 H4163 H 0.74101 0.61408 0.53024
 H4164 H 0.77040 0.59977 0.55446
 C4165 C 0.26805 1.09713 0.59712
 C4166 C 0.26016 1.08991 0.61826
 C4167 C 0.24004 1.09891 0.62709
 C4168 C 0.22794 1.11509 0.61473
 C4169 C 0.23565 1.12205 0.59343
 C4170 C 0.25577 1.11303 0.58459
 C4171 C 0.26318 1.12029 0.56330
 C4172 C 0.25106 1.13600 0.55107
 C4173 C 0.23141 1.14482 0.55971
 C4174 C 0.22371 1.13799 0.58064
 C4175 C 0.23253 1.09150 0.64830
 C4176 C 0.24454 1.07564 0.66043
 C4177 C 0.26421 1.06683 0.65180
 C4178 C 0.27201 1.07383 0.63097
 C4179 C 0.20779 1.12482 0.62409
 C4180 C 0.19119 1.13301 0.63202
 C4181 C 0.28904 1.08856 0.58850
 C4182 C 0.30661 1.08163 0.58153
 H4183 H 0.27836 1.11390 0.55586
 H4184 H 0.25696 1.14135 0.53480
 H4185 H 0.22206 1.15702 0.55015
 H4186 H 0.20832 1.14532 0.58665
 H4187 H 0.21731 1.09784 0.65571
 H4188 H 0.23855 1.07015 0.67662
 H4189 H 0.27347 1.05451 0.66129
 H4190 H 0.28738 1.06647 0.62495
 C4191 C 0.27083 0.60062 1.10212
 C4192 C 0.26739 0.60011 1.12557
 C4193 C 0.24772 0.60962 1.13486
 C4194 C 0.23159 0.61958 1.12066
 C4195 C 0.23502 0.62005 1.09721
 C4196 C 0.25469 0.61055 1.08792
 C4197 C 0.25776 0.61126 1.06444
 C4198 C 0.24185 0.62108 1.05053
 C4199 C 0.22262 0.63036 1.05962
 C4200 C 0.21915 0.62990 1.08267
 C4201 C 0.24468 0.60895 1.15835
 C4202 C 0.26061 0.59917 1.17225
 C4203 C 0.27983 0.58985 1.16316
 C4204 C 0.28327 0.59027 1.14010
 C4205 C 0.21152 0.62935 1.13014
 C4206 C 0.19485 0.63748 1.13799
 C4207 C 0.29105 0.59116 1.09266
 C4208 C 0.30795 0.58343 1.08491
 H4209 H 0.27246 0.60426 1.05659
 H4210 H 0.24447 0.62148 1.03261
 H4211 H 0.21031 0.63797 1.04874
 H4212 H 0.20392 0.63735 1.08894
 H4213 H 0.22999 0.61597 1.16620
 H4214 H 0.25802 0.59881 1.19018
 H4215 H 0.29213 0.58223 1.17403
 H4216 H 0.29848 0.58280 1.13383
 C4217 C 0.76851 0.90289 0.90262
 C4218 C 0.75812 0.88453 0.91338
 C4219 C 0.73813 0.87534 0.90443
 C4220 C 0.72865 0.88457 0.88477
 C4221 C 0.73884 0.90317 0.87422
 C4222 C 0.75884 0.91235 0.88317
 C4223 C 0.76878 0.93088 0.87228
 C4224 C 0.75923 0.94009 0.85311
 C4225 C 0.73967 0.93111 0.84436
 C4226 C 0.72953 0.91286 0.85472
 C4227 C 0.72809 0.85694 0.91543
 C4228 C 0.73753 0.84787 0.93473
 C4229 C 0.75708 0.85686 0.94349
 C4230 C 0.76734 0.87497 0.93300
 C4231 C 0.70868 0.87468 0.87516
 C4232 C 0.69224 0.86635 0.86705
 C4233 C 0.78939 0.91171 0.91125
 C4234 C 0.80688 0.91883 0.91825
 H4235 H 0.78399 0.93846 0.87847
 H4236 H 0.76705 0.95426 0.84500
 H4237 H 0.73231 0.93833 0.82946
 H4238 H 0.71432 0.90649 0.84729
 H4239 H 0.71285 0.84938 0.90928
 H4240 H 0.72962 0.83381 0.94295
 H4241 H 0.76435 0.84976 0.95849
 H4242 H 0.78251 0.88139 0.94045
 C4243 C 0.76948 0.40081 0.40087
 C4244 C 0.76647 0.39987 0.37738
 C4245 C 0.74638 0.39096 0.36834
 C4246 C 0.72944 0.38302 0.38285
 C4247 C 0.73243 0.38402 0.40634
 C4248 C 0.75251 0.39294 0.41538
 C4249 C 0.75515 0.39371 0.43891
 C4250 C 0.73841 0.38590 0.45312
 C4251 C 0.71877 0.37719 0.44429
 C4252 C 0.71573 0.37621 0.42118
 C4253 C 0.74377 0.39017 0.34481
 C4254 C 0.76053 0.39793 0.33060
 C4255 C 0.78018 0.40662 0.33943
 C4256 C 0.78320 0.40763 0.36254
 C4257 C 0.70904 0.37368 0.37362
 C4258 C 0.69216 0.36583 0.36590
 C4259 C 0.79009 0.40971 0.41006
 C4260 C 0.80731 0.41700 0.41754
 H4261 H 0.77013 0.40034 0.44657
 H4262 H 0.74070 0.38662 0.47107
 H4263 H 0.70583 0.37115 0.45539
 H4264 H 0.70016 0.36929 0.41512
 H4265 H 0.72878 0.38357 0.33714
 H4266 H 0.75826 0.39719 0.31264
 H4267 H 0.79315 0.41261 0.32833
 H4268 H 0.79877 0.41455 0.36860
 C4269 C 0.27336 0.89807 0.39719
 C4270 C 0.25254 0.89962 0.40830
 C4271 C 0.23318 0.88991 0.39854
 C4272 C 0.23477 0.87870 0.37773
 C4273 C 0.25560 0.87713 0.36664
 C4274 C 0.27496 0.88683 0.37640
 C4275 C 0.29562 0.88502 0.36502
 C4276 C 0.29711 0.87393 0.34457
 C4277 C 0.27817 0.86445 0.33502
 C4278 C 0.25761 0.86598 0.34585
 C4279 C 0.21255 0.89168 0.40995
 C4280 C 0.21108 0.90270 0.43043
 C4281 C 0.23002 0.91218 0.43998
 C4282 C 0.25055 0.91071 0.42911
 C4283 C 0.21497 0.86881 0.36779
 C4284 C 0.19843 0.86066 0.35967
 C4285 C 0.29313 0.90796 0.40717
 C4286 C 0.30964 0.91608 0.41535
 H4287 H 0.31081 0.89212 0.37178
 H4288 H 0.31304 0.87269 0.33610
 H4289 H 0.27941 0.85586 0.31914
 H4290 H 0.24336 0.85834 0.33776
 H4291 H 0.19735 0.88457 0.40321
 H4292 H 0.19517 0.90389 0.43894
 H4293 H 0.22880 0.92072 0.45590
 H4294 H 0.26480 0.91835 0.43721
 C4295 C 0.26905 0.40146 0.90152
 C4296 C 0.26624 0.40042 0.87801
 C4297 C 0.24613 0.39171 0.86885
 C4298 C 0.22895 0.38409 0.88325
 C4299 C 0.23173 0.38520 0.90676
 C4300 C 0.25185 0.39391 0.91592
 C4301 C 0.25427 0.39480 0.93947
 C4302 C 0.23732 0.38729 0.95357
 C4303 C 0.21766 0.37876 0.94461
 C4304 C 0.21480 0.37769 0.92149
 C4305 C 0.24374 0.39078 0.84529
 C4306 C 0.26074 0.39821 0.83120
 C4307 C 0.28040 0.40672 0.84016
 C4308 C 0.28321 0.40787 0.86328
 C4309 C 0.20853 0.37492 0.87386
 C4310 C 0.19167 0.36717 0.86601
 C4311 C 0.28971 0.41011 0.91085
 C4312 C 0.30699 0.41723 0.91836
 H4313 H 0.26927 0.40130 0.94723
 H4314 H 0.23946 0.38808 0.97155
 H4315 H 0.20454 0.37294 0.95564
 H4316 H 0.19921 0.37093 0.91532
 H4317 H 0.22874 0.38431 0.83752
 H4318 H 0.25863 0.39736 0.81323
 H4319 H 0.29355 0.41248 0.82914
 H4320 H 0.29880 0.41464 0.86945
   
