data_POSCAR
  _audit_creation_date              2014-09-24
  _audit_creation_method            'ToBaCCo'
  _symmetry_space_group_name_H-M    'P1'
  _symmetry_Int_Tables_number       1
  _symmetry_cell_setting            triclinic
  loop_
  _symmetry_equiv_pos_as_xyz
 x,y,z
_cell_length_a 55.7007
_cell_length_b 56.0119
_cell_length_c 56.0436
_cell_angle_alpha 90.237400
_cell_angle_beta 89.823100
_cell_angle_gamma 89.575300
loop_
  _atom_site_label
  _atom_site_type_symbol
  _atom_site_fract_x
  _atom_site_fract_y
  _atom_site_fract_z
C1 C 0.36971 0.33512 0.35352
 C2 C 0.35199 0.33522 0.37136
 C3 C 0.33341 0.35175 0.37060
 C4 C 0.33226 0.36834 0.35197
 C5 C 0.34973 0.36824 0.33434
 C6 C 0.36864 0.35157 0.33518
 C7 C 0.38877 0.32002 0.34875
 N8 N 0.39949 0.32715 0.32821
 C9 C 0.38713 0.34626 0.31965
 C10 C 0.34310 0.38503 0.31768
 N11 N 0.32196 0.39507 0.32469
 C12 C 0.31534 0.38523 0.34579
 C13 C 0.31796 0.34656 0.38905
 N14 N 0.32689 0.32752 0.40114
 C15 C 0.34755 0.32030 0.39030
 H16 H 0.39392 0.30444 0.35895
 H17 H 0.39091 0.35516 0.30295
 H18 H 0.35245 0.38908 0.30124
 H19 H 0.29903 0.38956 0.35549
 H20 H 0.30099 0.35535 0.39286
 H21 H 0.35814 0.30488 0.39541
 C22 C 0.36528 0.83520 -0.15197
 C23 C 0.34672 0.83425 -0.13506
 C24 C 0.32715 0.84955 -0.13686
 C25 C 0.32597 0.86600 -0.15564
 C26 C 0.34442 0.86707 -0.17214
 C27 C 0.36414 0.85150 -0.17032
 C28 C 0.38525 0.82111 -0.15587
 N29 N 0.39660 0.82861 -0.17605
 C30 C 0.38339 0.84704 -0.18510
 C31 C 0.33805 0.88383 -0.18887
 N32 N 0.31582 0.89254 -0.18340
 C33 C 0.30854 0.88195 -0.16279
 C34 C 0.31103 0.84323 -0.11935
 N35 N 0.32031 0.82441 -0.10724
 C36 C 0.34220 0.81891 -0.11651
 H37 H 0.39094 0.80635 -0.14478
 H38 H 0.38641 0.85550 -0.20217
 H39 H 0.34843 0.88854 -0.20451
 H40 H 0.29194 0.88582 -0.15339
 H41 H 0.29342 0.85099 -0.11630
 H42 H 0.35347 0.80420 -0.11078
 C43 C 0.86593 0.33437 -0.15256
 C44 C 0.84698 0.33211 -0.13620
 C45 C 0.82694 0.34678 -0.13799
 C46 C 0.82556 0.36379 -0.15622
 C47 C 0.84422 0.36600 -0.17233
 C48 C 0.86448 0.35110 -0.17056
 C49 C 0.88656 0.32122 -0.15637
 N50 N 0.89787 0.32959 -0.17621
 C51 C 0.88416 0.34772 -0.18509
 C52 C 0.83740 0.38292 -0.18875
 N53 N 0.81476 0.39065 -0.18340
 C54 C 0.80766 0.37928 -0.16316
 C55 C 0.81069 0.33947 -0.12105
 N56 N 0.82030 0.32062 -0.10924
 C57 C 0.84258 0.31613 -0.11814
 H58 H 0.89188 0.30551 -0.14645
 H59 H 0.88799 0.35760 -0.20121
 H60 H 0.84779 0.38838 -0.20412
 H61 H 0.79085 0.38232 -0.15383
 H62 H 0.79284 0.34669 -0.11808
 H63 H 0.85434 0.30180 -0.11237
 C64 C 0.86327 0.82715 0.34218
 C65 C 0.84452 0.82613 0.35884
 C66 C 0.82518 0.84167 0.35706
 C67 C 0.82433 0.85832 0.33847
 C68 C 0.84298 0.85952 0.32220
 C69 C 0.86267 0.84386 0.32413
 C70 C 0.88331 0.81312 0.33863
 N71 N 0.89538 0.82118 0.31914
 C72 C 0.88259 0.83985 0.31001
 C73 C 0.83681 0.87656 0.30563
 N74 N 0.81452 0.88526 0.31099
 C75 C 0.80707 0.87447 0.33143
 C76 C 0.80916 0.83579 0.37482
 N77 N 0.81831 0.81700 0.38707
 C78 C 0.84000 0.81106 0.37760
 H79 H 0.88870 0.79808 0.34951
 H80 H 0.88662 0.84894 0.29347
 H81 H 0.84734 0.88142 0.29015
 H82 H 0.79046 0.87833 0.34081
 H83 H 0.79185 0.84407 0.37820
 H84 H 0.85132 0.79652 0.38365
 C85 C 0.63880 0.67361 0.34799
 C86 C 0.65621 0.67436 0.36599
 C87 C 0.67532 0.65839 0.36555
 C88 C 0.67727 0.64149 0.34711
 C89 C 0.66016 0.64091 0.32925
 C90 C 0.64092 0.65716 0.32963
 C91 C 0.61827 0.68677 0.34388
 N92 N 0.60786 0.67864 0.32354
 C93 C 0.62191 0.66082 0.31448
 C94 C 0.66604 0.62228 0.31422
 N95 N 0.68618 0.61155 0.32266
 C96 C 0.69340 0.62327 0.34257
 C97 C 0.68954 0.66344 0.38492
 N98 N 0.67946 0.68198 0.39709
 C99 C 0.65920 0.68893 0.38558
 H100 H 0.61143 0.70127 0.35484
 H101 H 0.61873 0.65147 0.29786
 H102 H 0.65616 0.61655 0.29863
 H103 H 0.70882 0.61842 0.35326
 H104 H 0.70628 0.65470 0.38955
 H105 H 0.64773 0.70372 0.39092
 C106 C 0.63991 0.17380 -0.15675
 C107 C 0.65682 0.17313 -0.13828
 C108 C 0.67272 0.15408 -0.13657
 C109 C 0.67166 0.13531 -0.15320
 C110 C 0.65479 0.13590 -0.17119
 C111 C 0.63885 0.15526 -0.17301
 C112 C 0.62366 0.19091 -0.16395
 N113 N 0.61293 0.18334 -0.18441
 C114 C 0.62177 0.16122 -0.18966
 C115 C 0.65894 0.11645 -0.18563
 N116 N 0.67767 0.10354 -0.17670
 C117 C 0.68579 0.11537 -0.15702
 C118 C 0.68840 0.15925 -0.11833
 N119 N 0.68247 0.18099 -0.10919
 C120 C 0.66296 0.18944 -0.12100
 H121 H 0.61979 0.20755 -0.15476
 H122 H 0.61705 0.15070 -0.20519
 H123 H 0.64991 0.11295 -0.20234
 H124 H 0.70088 0.10993 -0.14615
 H125 H 0.70358 0.14849 -0.11273
 H126 H 0.65445 0.20660 -0.11779
 C127 C 0.13791 0.67336 -0.15122
 C128 C 0.15656 0.67461 -0.13450
 C129 C 0.17437 0.65719 -0.13428
 C130 C 0.17363 0.63823 -0.15069
 C131 C 0.15540 0.63722 -0.16725
 C132 C 0.13752 0.65491 -0.16757
 C133 C 0.11823 0.68765 -0.15574
 N134 N 0.10557 0.67810 -0.17424
 C135 C 0.11783 0.65831 -0.18183
 C136 C 0.15907 0.61708 -0.18082
 N137 N 0.17881 0.60523 -0.17260
 C138 C 0.18814 0.61854 -0.15447
 C139 C 0.19052 0.66339 -0.11683
 N140 N 0.18311 0.68426 -0.10676
 C141 C 0.16216 0.69106 -0.11713
 H142 H 0.11326 0.70353 -0.14576
 H143 H 0.11350 0.64761 -0.19733
 H144 H 0.14848 0.61196 -0.19616
 H145 H 0.20389 0.61392 -0.14416
 H146 H 0.20681 0.65384 -0.11221
 H147 H 0.15209 0.70709 -0.11268
 C148 C 0.13409 0.17360 0.34579
 C149 C 0.15291 0.17510 0.36228
 C150 C 0.16991 0.15702 0.36341
 C151 C 0.16842 0.13734 0.34800
 C152 C 0.14993 0.13587 0.33172
 C153 C 0.13258 0.15414 0.33063
 C154 C 0.11549 0.18882 0.34024
 N155 N 0.10226 0.17898 0.32235
 C156 C 0.11300 0.15789 0.31614
 C157 C 0.15372 0.11540 0.31849
 N158 N 0.17397 0.10423 0.32650
 C159 C 0.18317 0.11791 0.34436
 C160 C 0.18643 0.16344 0.38038
 N161 N 0.18010 0.18517 0.38928
 C162 C 0.15945 0.19234 0.37857
 H163 H 0.11171 0.20575 0.34892
 H164 H 0.10778 0.14659 0.30134
 H165 H 0.14326 0.10992 0.30319
 H166 H 0.19944 0.11401 0.35418
 H167 H 0.20211 0.15326 0.38569
 H168 H 0.15019 0.20905 0.38208
 C169 C 0.63728 0.32532 0.64961
 C170 C 0.65586 0.32536 0.63264
 C171 C 0.67253 0.34360 0.63265
 C172 C 0.67095 0.36191 0.64975
 C173 C 0.65300 0.36149 0.66681
 C174 C 0.63597 0.34324 0.66664
 C175 C 0.61866 0.30990 0.65405
 N176 N 0.60596 0.31833 0.67307
 C177 C 0.61666 0.33848 0.68113
 C178 C 0.65665 0.38046 0.68193
 N179 N 0.67593 0.39292 0.67405
 C180 C 0.68501 0.38146 0.65455
 C181 C 0.68915 0.33843 0.61513
 N182 N 0.68318 0.31732 0.60484
 C183 C 0.66267 0.30936 0.61513
 H184 H 0.61463 0.29372 0.64427
 H185 H 0.61090 0.34874 0.69655
 H186 H 0.64636 0.38457 0.69786
 H187 H 0.70086 0.38679 0.64477
 H188 H 0.70487 0.34878 0.61070
 H189 H 0.65391 0.29273 0.61074
 C190 C 0.63488 0.82652 1.15698
 C191 C 0.65132 0.82736 1.13801
 C192 C 0.66612 0.84693 1.13545
 C193 C 0.66461 0.86591 1.15176
 C194 C 0.64840 0.86509 1.17050
 C195 C 0.63334 0.84525 1.17306
 C196 C 0.61955 0.80905 1.16476
 N197 N 0.60888 0.81647 1.18542
 C198 C 0.61692 0.83889 1.19028
 C199 C 0.65276 0.88461 1.18485
 N200 N 0.67099 0.89732 1.17508
 C201 C 0.67844 0.88589 1.15495
 C202 C 0.68178 0.84197 1.11703
 N203 N 0.67695 0.81979 1.10857
 C204 C 0.65822 0.81078 1.12107
 H205 H 0.61613 0.79232 1.15569
 H206 H 0.61202 0.84943 1.20581
 H207 H 0.64427 0.88857 1.20183
 H208 H 0.69358 0.89115 1.14407
 H209 H 0.69625 0.85318 1.11083
 H210 H 0.65094 0.79307 1.11868
 C211 C 0.13743 0.32562 1.15308
 C212 C 0.15604 0.32425 1.13622
 C213 C 0.17473 0.34037 1.13708
 C214 C 0.17506 0.35802 1.15488
 C215 C 0.15667 0.35937 1.17152
 C216 C 0.13761 0.34316 1.17048
 C217 C 0.11792 0.31137 1.15743
 N218 N 0.10575 0.32015 1.17670
 C219 C 0.11800 0.33944 1.18497
 C220 C 0.16247 0.37717 1.18747
 N221 N 0.18400 0.38636 1.18103
 C222 C 0.19168 0.37503 1.16092
 C223 C 0.19097 0.33382 1.11963
 N224 N 0.18262 0.31406 1.10843
 C225 C 0.16115 0.30821 1.11822
 H226 H 0.11292 0.29576 1.14718
 H227 H 0.11379 0.34927 1.20116
 H228 H 0.15216 0.38262 1.20300
 H229 H 0.20839 0.37860 1.15172
 H230 H 0.20801 0.34223 1.11590
 H231 H 0.15049 0.29295 1.11309
 C232 C 0.13162 0.83172 0.65548
 C233 C 0.14905 0.83205 0.63739
 C234 C 0.16630 0.84970 0.63727
 C235 C 0.16639 0.86714 0.65524
 C236 C 0.14906 0.86702 0.67297
 C237 C 0.13161 0.84907 0.67319
 C238 C 0.11483 0.81498 0.66176
 N239 N 0.10502 0.82149 0.68301
 C240 C 0.11488 0.84245 0.69001
 C241 C 0.15525 0.88430 0.68938
 N242 N 0.17638 0.89419 0.68248
 C243 C 0.18297 0.88412 0.66131
 C244 C 0.18259 0.84401 0.61962
 N245 N 0.17583 0.82317 0.60933
 C246 C 0.15522 0.81582 0.61985
 H247 H 0.11091 0.79860 0.65224
 H248 H 0.11111 0.85145 0.70676
 H249 H 0.14605 0.88805 0.70605
 H250 H 0.19901 0.88843 0.65128
 H251 H 0.19882 0.85364 0.61533
 H252 H 0.14616 0.79924 0.61587
 C253 C 0.35677 0.67315 0.65871
 C254 C 0.33905 0.67280 0.64093
 C255 C 0.32089 0.65607 0.64189
 C256 C 0.32003 0.63966 0.66067
 C257 C 0.33721 0.64030 0.67841
 C258 C 0.35565 0.65716 0.67742
 C259 C 0.37638 0.68749 0.66264
 N260 N 0.38726 0.68043 0.68315
 C261 C 0.37427 0.66229 0.69258
 C262 C 0.33141 0.62300 0.69478
 N263 N 0.31100 0.61214 0.68749
 C264 C 0.30403 0.62202 0.66652
 C265 C 0.30533 0.66091 0.62352
 N266 N 0.31328 0.68049 0.61182
 C267 C 0.33410 0.68767 0.62202
 H268 H 0.38233 0.70198 0.65141
 H269 H 0.37796 0.65361 0.70941
 H270 H 0.34109 0.61881 0.71098
 H271 H 0.28835 0.61683 0.65642
 H272 H 0.28878 0.65165 0.61966
 H273 H 0.34416 0.70329 0.61681
 C274 C 0.36631 0.16610 1.15750
 C275 C 0.34919 0.16550 1.13925
 C276 C 0.33059 0.14927 1.14022
 C277 C 0.32899 0.13338 1.15938
 C278 C 0.34601 0.13377 1.17728
 C279 C 0.36471 0.15041 1.17647
 C280 C 0.38413 0.18211 1.16276
 N281 N 0.39300 0.17686 1.18465
 C282 C 0.38155 0.15729 1.19304
 C283 C 0.33870 0.11788 1.19448
 N284 N 0.31729 0.10840 1.18780
 C285 C 0.31153 0.11755 1.16608
 C286 C 0.31488 0.15488 1.12216
 N287 N 0.32341 0.17422 1.11051
 C288 C 0.34450 0.18070 1.12060
 H289 H 0.38935 0.19731 1.15210
 H290 H 0.38428 0.14959 1.21052
 H291 H 0.34764 0.11451 1.21128
 H292 H 0.29578 0.11298 1.15578
 H293 H 0.29776 0.14654 1.11868
 H294 H 0.35484 0.19621 1.11561
 C295 C 0.86523 0.67069 1.15184
 C296 C 0.84649 0.67078 1.13515
 C297 C 0.82841 0.65403 1.13676
 C298 C 0.82866 0.63718 1.15517
 C299 C 0.84698 0.63725 1.17179
 C300 C 0.86543 0.65406 1.17005
 C301 C 0.88445 0.68559 1.15545
 N302 N 0.89642 0.67818 1.17519
 C303 C 0.88469 0.65916 1.18444
 C304 C 0.84157 0.62024 1.18862
 N305 N 0.82032 0.61017 1.18269
 C306 C 0.81244 0.62015 1.16210
 C307 C 0.81174 0.65938 1.11952
 N308 N 0.81904 0.67921 1.10780
 C309 C 0.84043 0.68614 1.11696
 H310 H 0.88917 0.70096 1.14481
 H311 H 0.88949 0.65013 1.20081
 H312 H 0.85185 0.61606 1.20445
 H313 H 0.79576 0.61581 1.15327
 H314 H 0.79502 0.65016 1.11633
 H315 H 0.85026 0.70180 1.11146
 C316 C 0.86010 0.17488 0.65884
 C317 C 0.84421 0.17249 0.63964
 C318 C 0.82904 0.15307 0.63846
 C319 C 0.82968 0.13571 0.65639
 C320 C 0.84561 0.13788 0.67516
 C321 C 0.86094 0.15762 0.67637
 C322 C 0.87619 0.19233 0.66505
 N323 N 0.88659 0.18635 0.68618
 C324 C 0.87768 0.16480 0.69288
 C325 C 0.84158 0.11903 0.69031
 N326 N 0.82376 0.10543 0.68108
 C327 C 0.81618 0.11566 0.66047
 C328 C 0.81512 0.15578 0.61839
 N329 N 0.82174 0.17618 0.60727
 C330 C 0.83928 0.18671 0.62029
 H331 H 0.88042 0.20795 0.65456
 H332 H 0.88237 0.15538 0.70906
 H333 H 0.85053 0.11573 0.70712
 H334 H 0.80143 0.10934 0.64967
 H335 H 0.80113 0.14391 0.61233
 H336 H 0.84756 0.20361 0.61609
 C337 C 0.32619 0.36292 0.65673
 C338 C 0.32559 0.34505 0.63916
 C339 C 0.34258 0.32690 0.63921
 C340 C 0.36040 0.32639 0.65680
 C341 C 0.36100 0.34401 0.67418
 C342 C 0.34373 0.36239 0.67418
 C343 C 0.31172 0.38242 0.66129
 N344 N 0.32013 0.39383 0.68093
 C345 C 0.33954 0.38156 0.68912
 C346 C 0.38014 0.33891 0.68884
 N347 N 0.39125 0.31885 0.68054
 C348 C 0.37911 0.31088 0.66116
 C349 C 0.33755 0.31200 0.62035
 N350 N 0.31810 0.32084 0.60873
 C351 C 0.31046 0.34088 0.62024
 H352 H 0.29600 0.38778 0.65127
 H353 H 0.34953 0.38601 0.70506
 H354 H 0.38568 0.34902 0.70436
 H355 H 0.38356 0.29491 0.65109
 H356 H 0.34716 0.29582 0.61548
 H357 H 0.29504 0.35156 0.61518
 C358 C 0.33001 0.86627 0.15623
 C359 C 0.33129 0.84956 0.13755
 C360 C 0.34947 0.83260 0.13715
 C361 C 0.36671 0.83223 0.15532
 C362 C 0.36547 0.84872 0.17377
 C363 C 0.34694 0.86582 0.17427
 C364 C 0.31349 0.88378 0.16194
 N365 N 0.31981 0.89367 0.18314
 C366 C 0.34038 0.88306 0.19070
 C367 C 0.38374 0.84336 0.18939
 N368 N 0.39622 0.82431 0.18064
 C369 C 0.38575 0.81719 0.15999
 C370 C 0.34531 0.81778 0.11796
 N371 N 0.32527 0.82557 0.10655
 C372 C 0.31643 0.84484 0.11856
 H373 H 0.29764 0.88854 0.15183
 H374 H 0.34941 0.88707 0.20731
 H375 H 0.38740 0.85227 0.20616
 H376 H 0.39140 0.80195 0.14938
 H377 H 0.35561 0.80202 0.11309
 H378 H 0.30003 0.85430 0.11413
 C379 C 0.83041 0.36766 0.14995
 C380 C 0.83107 0.35007 0.13207
 C381 C 0.84925 0.33310 0.13188
 C382 C 0.86689 0.33335 0.14964
 C383 C 0.86623 0.35065 0.16731
 C384 C 0.84786 0.36791 0.16747
 C385 C 0.81480 0.38627 0.15472
 N386 N 0.82254 0.39790 0.17453
 C387 C 0.84250 0.38655 0.18268
 C388 C 0.88507 0.34611 0.18249
 N389 N 0.89719 0.32657 0.17436
 C390 C 0.88601 0.31847 0.15444
 C391 C 0.84514 0.31805 0.11290
 N392 N 0.82501 0.32555 0.10148
 C393 C 0.81607 0.34491 0.11330
 H394 H 0.79898 0.39104 0.14457
 H395 H 0.85227 0.39141 0.19863
 H396 H 0.88942 0.35597 0.19855
 H397 H 0.89107 0.30253 0.14458
 H398 H 0.85581 0.30257 0.10791
 H399 H 0.79958 0.35420 0.10886
 C400 C 0.83535 0.86707 0.65209
 C401 C 0.83610 0.84980 0.63391
 C402 C 0.85481 0.83341 0.63298
 C403 C 0.87291 0.83398 0.65031
 C404 C 0.87213 0.85099 0.66828
 C405 C 0.85324 0.86764 0.66918
 C406 C 0.81827 0.88375 0.65862
 N407 N 0.82525 0.89412 0.67938
 C408 C 0.84670 0.88460 0.68587
 C409 C 0.89039 0.84574 0.68393
 N410 N 0.90230 0.82608 0.67581
 C411 C 0.89158 0.81860 0.65541
 C412 C 0.84971 0.81741 0.61503
 N413 N 0.82812 0.82338 0.60548
 C414 C 0.81981 0.84334 0.61665
 H415 H 0.80157 0.88749 0.64948
 H416 H 0.85630 0.88903 0.70205
 H417 H 0.89411 0.85488 0.70056
 H418 H 0.89627 0.80246 0.64570
 H419 H 0.86031 0.80189 0.61004
 H420 H 0.80259 0.85176 0.61329
 C421 C 0.67525 0.64259 0.65664
 C422 C 0.67513 0.66033 0.63911
 C423 C 0.65737 0.67773 0.63917
 C424 C 0.63940 0.67752 0.65673
 C425 C 0.63944 0.65991 0.67400
 C426 C 0.65748 0.64234 0.67396
 C427 C 0.69028 0.62349 0.66085
 N428 N 0.68184 0.61159 0.68010
 C429 C 0.66191 0.62300 0.68839
 C430 C 0.61995 0.66407 0.68862
 N431 N 0.60798 0.68354 0.68040
 C432 C 0.61986 0.69207 0.66110
 C433 C 0.66189 0.69267 0.62028
 N434 N 0.68172 0.68447 0.60861
 C435 C 0.69009 0.66487 0.62014
 H436 H 0.70603 0.61842 0.65060
 H437 H 0.65145 0.61752 0.70370
 H438 H 0.61487 0.65380 0.70414
 H439 H 0.61458 0.70767 0.65099
 H440 H 0.65173 0.70848 0.61550
 H441 H 0.70599 0.65478 0.61512
 C442 C 0.67298 0.13888 0.15409
 C443 C 0.67251 0.15622 0.13613
 C444 C 0.65409 0.17294 0.13547
 C445 C 0.63567 0.17226 0.15259
 C446 C 0.63616 0.15514 0.17034
 C447 C 0.65501 0.13844 0.17118
 C448 C 0.68961 0.12166 0.16014
 N449 N 0.68231 0.11109 0.18066
 C450 C 0.66102 0.12099 0.18737
 C451 C 0.61706 0.15971 0.18533
 N452 N 0.60475 0.17888 0.17688
 C453 C 0.61619 0.18690 0.15707
 C454 C 0.65955 0.18893 0.11768
 N455 N 0.68091 0.18243 0.10781
 C456 C 0.68873 0.16219 0.11864
 H457 H 0.70608 0.11746 0.15066
 H458 H 0.65104 0.11629 0.20326
 H459 H 0.61279 0.15023 0.20158
 H460 H 0.61097 0.20253 0.14698
 H461 H 0.64935 0.20476 0.11299
 H462 H 0.70554 0.15313 0.11476
 C463 C 0.17411 0.63406 0.15059
 C464 C 0.17437 0.65229 0.13348
 C465 C 0.15795 0.67090 0.13502
 C466 C 0.14116 0.67161 0.15367
 C467 C 0.14096 0.65373 0.17063
 C468 C 0.15751 0.63480 0.16904
 C469 C 0.18844 0.61425 0.15409
 N470 N 0.18075 0.60287 0.17401
 C471 C 0.16206 0.61547 0.18345
 C472 C 0.12345 0.65960 0.18710
 N473 N 0.11331 0.68069 0.18060
 C474 C 0.12378 0.68801 0.16001
 C475 C 0.16299 0.68651 0.11685
 N476 N 0.18187 0.67768 0.10415
 C477 C 0.18915 0.65690 0.11432
 H478 H 0.20357 0.60868 0.14319
 H479 H 0.15285 0.61115 0.19990
 H480 H 0.11875 0.64959 0.20290
 H481 H 0.11928 0.70428 0.15061
 H482 H 0.15403 0.70337 0.11343
 H483 H 0.20433 0.64621 0.10843
 C484 C 0.16964 0.13828 0.65157
 C485 C 0.16893 0.15551 0.63347
 C486 C 0.15076 0.17250 0.63324
 C487 C 0.13310 0.17255 0.65116
 C488 C 0.13390 0.15566 0.66909
 C489 C 0.15227 0.13841 0.66928
 C490 C 0.18513 0.11962 0.65629
 N491 N 0.17738 0.10832 0.67624
 C492 C 0.15753 0.11992 0.68453
 C493 C 0.11499 0.16036 0.68431
 N494 N 0.10257 0.17948 0.67586
 C495 C 0.11368 0.18722 0.65575
 C496 C 0.15492 0.18721 0.61407
 N497 N 0.17502 0.17943 0.60257
 C498 C 0.18387 0.16022 0.61447
 H499 H 0.20083 0.11454 0.64597
 H500 H 0.14771 0.11524 0.70053
 H501 H 0.11082 0.15092 0.70061
 H502 H 0.10816 0.20260 0.64543
 H503 H 0.14434 0.20266 0.60902
 H504 H 0.20029 0.15075 0.60993
 C505 C 0.32106 0.63973 0.34261
 C506 C 0.32063 0.65704 0.36073
 C507 C 0.33798 0.67459 0.36136
 C508 C 0.35611 0.67494 0.34395
 C509 C 0.35657 0.65778 0.32607
 C510 C 0.33886 0.64011 0.32534
 C511 C 0.30564 0.62155 0.33683
 N512 N 0.31349 0.61114 0.31630
 C513 C 0.33397 0.62211 0.30929
 C514 C 0.37568 0.66288 0.31137
 N515 N 0.38690 0.68249 0.32008
 C516 C 0.37492 0.69020 0.33980
 C517 C 0.33226 0.68975 0.37997
 N518 N 0.31175 0.68193 0.39035
 C519 C 0.30467 0.66176 0.37895
 H520 H 0.28953 0.61663 0.34642
 H521 H 0.34405 0.61777 0.29328
 H522 H 0.38105 0.65315 0.29547
 H523 H 0.37963 0.70571 0.35033
 H524 H 0.34180 0.70572 0.38511
 H525 H 0.28870 0.65171 0.38323
 C526 C 0.33345 0.13244 0.84582
 C527 C 0.33445 0.14893 0.86464
 C528 C 0.35205 0.16621 0.86494
 C529 C 0.36902 0.16712 0.84645
 C530 C 0.36805 0.15084 0.82782
 C531 C 0.35010 0.13340 0.82747
 C532 C 0.31788 0.11423 0.84064
 N533 N 0.32482 0.10395 0.81975
 C534 C 0.34433 0.11572 0.81138
 C535 C 0.38636 0.15628 0.81226
 N536 N 0.39858 0.17519 0.82123
 C537 C 0.38791 0.18214 0.84195
 C538 C 0.34791 0.18042 0.88464
 N539 N 0.32843 0.17194 0.89641
 C540 C 0.31996 0.15282 0.88419
 H541 H 0.30250 0.10890 0.85116
 H542 H 0.35339 0.11186 0.79467
 H543 H 0.39039 0.14736 0.79553
 H544 H 0.39349 0.19709 0.85285
 H545 H 0.35781 0.19623 0.88963
 H546 H 0.30404 0.14289 0.88890
 C547 C 0.82335 0.63582 0.84311
 C548 C 0.82321 0.65336 0.86101
 C549 C 0.84059 0.67089 0.86116
 C550 C 0.85843 0.67101 0.84346
 C551 C 0.85854 0.65372 0.82573
 C552 C 0.84084 0.63603 0.82551
 C553 C 0.80766 0.61780 0.83760
 N554 N 0.81503 0.60733 0.81693
 C555 C 0.83547 0.61810 0.80954
 C556 C 0.87719 0.65882 0.81047
 N557 N 0.88859 0.67850 0.81877
 C558 C 0.87706 0.68631 0.83872
 C559 C 0.83496 0.68649 0.87943
 N560 N 0.81447 0.67896 0.89006
 C561 C 0.80732 0.65853 0.87918
 H562 H 0.79153 0.61321 0.84733
 H563 H 0.84507 0.61383 0.79322
 H564 H 0.88208 0.64906 0.79444
 H565 H 0.88192 0.70197 0.84896
 H566 H 0.84447 0.70265 0.88407
 H567 H 0.79127 0.64871 0.88365
 C568 C 0.83378 0.12809 0.34498
 C569 C 0.83322 0.14604 0.36249
 C570 C 0.84911 0.16487 0.36124
 C571 C 0.86569 0.16604 0.34245
 C572 C 0.86608 0.14850 0.32497
 C573 C 0.85005 0.12932 0.32629
 C574 C 0.81922 0.10883 0.34072
 N575 N 0.82638 0.09818 0.32007
 C576 C 0.84502 0.11075 0.31094
 C577 C 0.88251 0.15542 0.30794
 N578 N 0.89182 0.17675 0.31464
 C579 C 0.88192 0.18318 0.33589
 C580 C 0.84291 0.18084 0.37898
 N581 N 0.82351 0.17225 0.39072
 C582 C 0.81760 0.15084 0.38103
 H583 H 0.80401 0.10338 0.35141
 H584 H 0.85361 0.10718 0.29392
 H585 H 0.88684 0.14605 0.29153
 H586 H 0.88583 0.19948 0.34554
 H587 H 0.85101 0.19804 0.38230
 H588 H 0.80234 0.14022 0.38631
 C589 C 0.67690 0.36024 0.34337
 C590 C 0.67766 0.34218 0.36063
 C591 C 0.66073 0.32420 0.36034
 C592 C 0.64275 0.32412 0.34289
 C593 C 0.64220 0.34178 0.32570
 C594 C 0.65947 0.35984 0.32587
 C595 C 0.69111 0.37980 0.33913
 N596 N 0.68259 0.39135 0.31959
 C597 C 0.66356 0.37892 0.31109
 C598 C 0.62298 0.33720 0.31106
 N599 N 0.61168 0.31744 0.31921
 C600 C 0.62385 0.30907 0.33842
 C601 C 0.66649 0.30855 0.37834
 N602 N 0.68665 0.31645 0.38924
 C603 C 0.69343 0.33719 0.37883
 H604 H 0.70653 0.38524 0.34947
 H605 H 0.65357 0.38330 0.29513
 H606 H 0.61753 0.34748 0.29565
 H607 H 0.61911 0.29332 0.34848
 H608 H 0.65726 0.29217 0.38267
 H609 H 0.70912 0.34739 0.38367
 C610 C 0.67669 0.85786 0.84086
 C611 C 0.67575 0.84072 0.85898
 C612 C 0.65830 0.82326 0.85851
 C613 C 0.64147 0.82281 0.83994
 C614 C 0.64240 0.83977 0.82207
 C615 C 0.66012 0.85738 0.82252
 C616 C 0.69140 0.87710 0.83700
 N617 N 0.68391 0.88838 0.81695
 C618 C 0.66498 0.87633 0.80780
 C619 C 0.62361 0.83547 0.80683
 N620 N 0.61114 0.81655 0.81523
 C621 C 0.62207 0.80845 0.83527
 C622 C 0.66173 0.80914 0.87827
 N623 N 0.68058 0.81786 0.89082
 C624 C 0.68942 0.83701 0.87902
 H625 H 0.70625 0.88271 0.84805
 H626 H 0.65542 0.88116 0.79171
 H627 H 0.61910 0.84549 0.79096
 H628 H 0.61604 0.79351 0.84586
 H629 H 0.65149 0.79351 0.88307
 H630 H 0.70474 0.84739 0.88463
 C631 C 0.17924 0.35386 0.84459
 C632 C 0.17970 0.33506 0.86100
 C633 C 0.16176 0.31808 0.86079
 C634 C 0.14305 0.31977 0.84417
 C635 C 0.14261 0.33833 0.82795
 C636 C 0.16081 0.35548 0.82816
 C637 C 0.19448 0.37264 0.84051
 N638 N 0.18553 0.38571 0.82223
 C639 C 0.16509 0.37527 0.81437
 C640 C 0.12283 0.33517 0.81367
 N641 N 0.11112 0.31535 0.82107
 C642 C 0.12348 0.30564 0.83952
 C643 C 0.16716 0.30170 0.87827
 N644 N 0.18802 0.30826 0.88879
 C645 C 0.19565 0.32880 0.87860
 H646 H 0.21082 0.37660 0.85011
 H647 H 0.15424 0.38164 0.79968
 H648 H 0.11752 0.34622 0.79875
 H649 H 0.11866 0.28939 0.84869
 H650 H 0.15694 0.28597 0.88277
 H651 H 0.21179 0.33828 0.88351
 C652 C 0.16624 0.86650 0.35087
 C653 C 0.16590 0.84928 0.36891
 C654 C 0.14889 0.83137 0.36852
 C655 C 0.13190 0.83059 0.35011
 C656 C 0.13228 0.84761 0.33226
 C657 C 0.14957 0.86564 0.33261
 C658 C 0.18245 0.88402 0.34522
 N659 N 0.17615 0.89349 0.32387
 C660 C 0.15594 0.88262 0.31614
 C661 C 0.11567 0.84100 0.31542
 N662 N 0.10542 0.82033 0.32254
 C663 C 0.11498 0.81394 0.34385
 C664 C 0.15481 0.81544 0.38624
 N665 N 0.17506 0.82317 0.39709
 C666 C 0.18181 0.84401 0.38689
 H667 H 0.19830 0.88877 0.35526
 H668 H 0.14730 0.88599 0.29919
 H669 H 0.11204 0.84992 0.29870
 H670 H 0.11060 0.79786 0.35354
 H671 H 0.14596 0.79872 0.39002
 H672 H 0.19789 0.85379 0.39133
 O673 O 0.24893 1.02441 0.22483
 O674 O 0.21695 0.97657 0.25620
 O675 O 0.21557 1.02268 0.25737
 O676 O 0.24959 0.97737 0.22340
 O677 O 0.27823 0.97785 0.25058
 O678 O 0.24315 1.02180 0.28556
 O679 O 0.24566 0.97559 0.28333
 O680 O 0.27640 1.02483 0.25309
 Cu681 Cu 0.23009 1.00038 0.23749
 Cu682 Cu 0.26381 1.00010 0.27082
 C683 C 0.26760 1.03340 0.23407
 C684 C 0.22615 0.96766 0.27488
 C685 C 0.22325 1.02953 0.27756
 C686 C 0.26928 0.96936 0.23156
 O687 O 0.24829 0.52302 0.72571
 O688 O 0.21955 0.47428 0.75890
 O689 O 0.21632 0.52060 0.75869
 O690 O 0.25074 0.47619 0.72402
 O691 O 0.28030 0.47792 0.75010
 O692 O 0.24467 0.52069 0.78600
 O693 O 0.24944 0.47425 0.78476
 O694 O 0.27703 0.52439 0.75276
 Cu695 Cu 0.23090 0.49825 0.73906
 Cu696 Cu 0.26580 0.49939 0.77106
 C697 C 0.26713 0.53251 0.73408
 C698 C 0.22964 0.46596 0.77743
 C699 C 0.22445 0.52812 0.77841
 C700 C 0.27142 0.46964 0.73096
 O701 O 0.74944 -0.02687 0.27543
 O702 O 0.72007 0.02429 0.24618
 O703 O 0.71598 -0.02181 0.24369
 O704 O 0.75335 0.01961 0.27832
 O705 O 0.78131 0.01807 0.25032
 O706 O 0.74353 -0.02269 0.21527
 O707 O 0.74817 0.02368 0.21826
 O708 O 0.77688 -0.02812 0.24693
 Cu709 Cu 0.73199 -0.00107 0.26381
 Cu710 Cu 0.76524 -0.00233 0.22983
 C711 C 0.76780 -0.03659 0.26587
 C712 C 0.72934 0.03285 0.22738
 C713 C 0.72338 -0.02927 0.22354
 C714 C 0.77370 0.02584 0.27029
 O715 O 0.71597 0.52266 0.74323
 O716 O 0.74699 0.47606 0.77805
 O717 O 0.74697 0.52312 0.77762
 O718 O 0.71404 0.47640 0.74562
 O719 O 0.74205 0.47594 0.71775
 O720 O 0.77647 0.52098 0.75124
 O721 O 0.77520 0.47402 0.75036
 O722 O 0.74574 0.52234 0.71704
 Cu723 Cu 0.72823 0.49972 0.76398
 Cu724 Cu 0.76285 0.49803 0.73147
 C725 C 0.72584 0.53067 0.72444
 C726 C 0.76595 0.46647 0.76959
 C727 C 0.76691 0.53046 0.76961
 C728 C 0.72212 0.46852 0.72593
 O729 O 0.21884 0.51974 0.24308
 O730 O 0.25141 0.47623 0.28011
 O731 O 0.24966 0.52323 0.27748
 O732 O 0.22052 0.47363 0.24589
 O733 O 0.25050 0.47260 0.21997
 O734 O 0.27955 0.52242 0.25147
 O735 O 0.28137 0.47579 0.25418
 O736 O 0.24865 0.51919 0.21699
 Cu737 Cu 0.23223 0.49835 0.26441
 Cu738 Cu 0.26803 0.49748 0.23305
 C739 C 0.22813 0.52677 0.22366
 C740 C 0.27158 0.46808 0.27309
 C741 C 0.26921 0.53163 0.26953
 C742 C 0.23077 0.46443 0.22777
 O743 O 0.75524 1.02158 0.72004
 O744 O 0.72101 0.97655 0.75346
 O745 O 0.72047 1.02309 0.75150
 O746 O 0.75388 0.97514 0.72090
 O747 O 0.78224 0.97682 0.74834
 O748 O 0.74637 1.02195 0.78105
 O749 O 0.74945 0.97561 0.78087
 O750 O 0.78136 1.02347 0.74956
 Cu751 Cu 0.73492 0.99920 0.73361
 Cu752 Cu 0.76764 0.99974 0.76779
 C753 C 0.77416 1.03018 0.72919
 C754 C 0.72974 0.96804 0.77259
 C755 C 0.72707 1.03007 0.77198
 C756 C 0.77360 0.96770 0.72946
 O757 O 0.75259 0.52691 0.22304
 O758 O 0.72056 0.47815 0.25261
 O759 O 0.72166 0.52452 0.25738
 O760 O 0.75351 0.48033 0.21963
 O761 O 0.78203 0.47780 0.24682
 O762 O 0.75131 0.52325 0.28350
 O763 O 0.74871 0.47664 0.28011
 O764 O 0.78206 0.52423 0.24924
 Cu765 Cu 0.73420 0.50259 0.23547
 Cu766 Cu 0.76891 0.49999 0.26764
 C767 C 0.77247 0.53417 0.23125
 C768 C 0.72881 0.46942 0.27174
 C769 C 0.73142 0.53183 0.27652
 C770 C 0.77336 0.47171 0.22682
 O771 O 0.25012 -0.02106 0.77864
 O772 O 0.21789 0.02557 0.74530
 O773 O 0.21726 -0.02098 0.74696
 O774 O 0.25159 0.02553 0.77820
 O775 O 0.27974 0.02344 0.75043
 O776 O 0.24474 -0.02182 0.71848
 O777 O 0.24618 0.02486 0.71761
 O778 O 0.27766 -0.02292 0.75023
 Cu779 Cu 0.23141 0.00278 0.76512
 Cu780 Cu 0.26484 0.00106 0.73131
 C781 C 0.26877 -0.03069 0.76958
 C782 C 0.22636 0.03291 0.72563
 C783 C 0.22575 -0.03003 0.72788
 C784 C 0.27185 0.03185 0.77001
 O785 O 0.25267 0.27184 0.97680
 O786 O 0.28345 0.24203 1.02642
 O787 O 0.28625 0.23974 0.98031
 O788 O 0.24993 0.27387 1.02378
 O789 O 0.22323 0.24490 1.02421
 O790 O 0.25815 0.21212 0.97886
 O791 O 0.25688 0.21293 1.02515
 O792 O 0.22452 0.24425 0.97723
 Cu793 Cu 0.27070 0.25987 1.00178
 Cu794 Cu 0.23782 0.22580 1.00128
 C795 C 0.23367 0.26287 0.96826
 C796 C 0.27533 0.22247 1.03429
 C797 C 0.27830 0.22016 0.97214
 C798 C 0.23100 0.26459 1.03224
 O799 O 0.24567 0.71996 0.47868
 O800 O 0.21514 0.75455 0.52588
 O801 O 0.21482 0.75463 0.47965
 O802 O 0.24610 0.71990 0.52581
 O803 O 0.27601 0.74561 0.52542
 O804 O 0.24471 0.78037 0.47926
 O805 O 0.24504 0.78027 0.52598
 O806 O 0.27554 0.74570 0.47869
 Cu807 Cu 0.22755 0.73451 0.50253
 Cu808 Cu 0.26334 0.76557 0.50234
 C809 C 0.26536 0.72739 0.47011
 C810 C 0.22511 0.77308 0.53422
 C811 C 0.22469 0.77318 0.47131
 C812 C 0.26599 0.72725 0.53398
 O813 O 0.28322 0.75530 -0.02286
 O814 O 0.25155 0.72241 0.02415
 O815 O 0.25037 0.72334 -0.02225
 O816 O 0.28441 0.75588 0.02367
 O817 O 0.25568 0.78322 0.02545
 O818 O 0.22291 0.75204 -0.02207
 O819 O 0.22282 0.74979 0.02425
 O820 O 0.25574 0.78393 -0.02119
 Cu821 Cu 0.27026 0.73643 0.00085
 Cu822 Cu 0.23649 0.77010 0.00200
 C823 C 0.27454 0.77483 -0.03049
 C824 C 0.23139 0.73008 0.03162
 C825 C 0.23130 0.73265 -0.03055
 C826 C 0.27591 0.77523 0.03220
 O827 O 0.21973 0.25159 0.47469
 O828 O 0.25030 0.28180 0.52437
 O829 O 0.25342 0.28361 0.47842
 O830 O 0.21751 0.24915 0.52133
 O831 O 0.24531 0.22084 0.52111
 O832 O 0.28107 0.25512 0.47800
 O833 O 0.27844 0.25377 0.52391
 O834 O 0.24764 0.22338 0.47455
 Cu835 Cu 0.23232 0.26927 0.49968
 Cu836 Cu 0.26579 0.23530 0.49949
 C837 C 0.22872 0.23261 0.46588
 C838 C 0.26990 0.27322 0.53216
 C839 C 0.27354 0.27543 0.47122
 C840 C 0.22534 0.22910 0.52852
 O841 O 0.74556 0.77904 0.97778
 O842 O 0.77830 0.74488 1.02335
 O843 O 0.77723 0.74499 0.97673
 O844 O 0.74630 0.77861 1.02446
 O845 O 0.71712 0.75209 1.02466
 O846 O 0.74799 0.71853 0.97695
 O847 O 0.74907 0.71841 1.02403
 O848 O 0.71632 0.75261 0.97843
 Cu849 Cu 0.76478 0.76454 1.00052
 Cu850 Cu 0.72981 0.73260 1.00102
 C851 C 0.72542 0.77166 0.97033
 C852 C 0.76890 0.72620 1.03191
 C853 C 0.76749 0.72637 0.96832
 C854 C 0.72669 0.77085 1.03297
 O855 O 0.75468 0.21511 0.47423
 O856 O 0.72369 0.24942 0.52133
 O857 O 0.72380 0.24971 0.47468
 O858 O 0.75526 0.21491 0.52084
 O859 O 0.78475 0.24104 0.52067
 O860 O 0.75355 0.27560 0.47449
 O861 O 0.75328 0.27548 0.52147
 O862 O 0.78443 0.24101 0.47445
 Cu863 Cu 0.73636 0.22969 0.49787
 Cu864 Cu 0.77187 0.26103 0.49786
 C865 C 0.77457 0.22245 0.46602
 C866 C 0.73343 0.26805 0.52970
 C867 C 0.73377 0.26816 0.46621
 C868 C 0.77548 0.22196 0.52845
 O869 O 0.78140 0.25181 -0.02492
 O870 O 0.74949 0.22144 0.02368
 O871 O 0.74839 0.21983 -0.02323
 O872 O 0.78280 0.25391 0.02133
 O873 O 0.75466 0.28189 0.02150
 O874 O 0.72107 0.24863 -0.02401
 O875 O 0.72118 0.24925 0.02303
 O876 O 0.75399 0.28054 -0.02460
 Cu877 Cu 0.76820 0.23379 -0.00059
 Cu878 Cu 0.73477 0.26779 -0.00083
 C879 C 0.77297 0.27117 -0.03326
 C880 C 0.73008 0.23031 0.03182
 C881 C 0.72946 0.22902 -0.03196
 C882 C 0.77479 0.27395 0.02863
 O883 O 0.78225 0.75266 0.47585
 O884 O 0.75067 0.72310 0.52514
 O885 O 0.74819 0.72169 0.47933
 O886 O 0.78507 0.75410 0.52281
 O887 O 0.75799 0.78305 0.52414
 O888 O 0.72196 0.75150 0.47905
 O889 O 0.72330 0.75188 0.52503
 O890 O 0.75607 0.78246 0.47711
 Cu891 Cu 0.76946 0.73513 0.50074
 Cu892 Cu 0.73733 0.77038 0.50151
 C893 C 0.77411 0.77218 0.46760
 C894 C 0.73118 0.73212 0.53294
 C895 C 0.72875 0.73099 0.47189
 C896 C 0.77738 0.77365 0.53156
 O897 O 1.02301 0.28008 0.24601
 O898 O 0.97438 0.24776 0.27637
 O899 O 1.02122 0.24695 0.27880
 O900 O 0.97661 0.28175 0.24518
 O901 O 0.97730 0.25448 0.21658
 O902 O 1.02212 0.21964 0.25031
 O903 O 0.97530 0.22026 0.24802
 O904 O 1.02354 0.25278 0.21752
 Cu905 Cu 0.99886 0.26677 0.26455
 Cu906 Cu 0.99968 0.23395 0.23034
 C907 C 1.03101 0.27234 0.22615
 C908 C 0.96631 0.22869 0.26713
 C909 C 1.02910 0.22728 0.27048
 C910 C 0.96964 0.27424 0.22499
 O911 O 0.52670 0.21965 0.74964
 O912 O 0.47713 0.25002 0.71829
 O913 O 0.52360 0.25042 0.71590
 O914 O 0.47984 0.21704 0.75143
 O915 O 0.47961 0.24551 0.77880
 O916 O 0.52290 0.27946 0.74275
 O917 O 0.47648 0.27817 0.74603
 O918 O 0.52642 0.24837 0.77674
 Cu919 Cu 0.50161 0.23130 0.73116
 Cu920 Cu 0.50126 0.26568 0.76390
 C921 C 0.53555 0.22938 0.76812
 C922 C 0.46868 0.26948 0.72665
 C923 C 0.53069 0.27061 0.72326
 C924 C 0.47246 0.22538 0.77123
 O925 O -0.02708 0.22471 0.74963
 O926 O 0.02377 0.25275 0.78017
 O927 O -0.02255 0.25772 0.78192
 O928 O 0.01972 0.22113 0.74621
 O929 O 0.02117 0.24973 0.71926
 O930 O -0.02217 0.28543 0.75402
 O931 O 0.02398 0.28154 0.75332
 O932 O -0.02584 0.25232 0.72172
 Cu933 Cu -0.00159 0.23616 0.76715
 Cu934 Cu -0.00056 0.26994 0.73418
 C935 C -0.03549 0.23394 0.73075
 C936 C 0.03212 0.27221 0.77230
 C937 C -0.02941 0.27793 0.77412
 C938 C 0.02778 0.22936 0.72669
 O939 O 0.52214 0.24762 0.22086
 O940 O 0.47735 0.28140 0.25584
 O941 O 0.52383 0.27991 0.25446
 O942 O 0.47528 0.24799 0.22366
 O943 O 0.47576 0.22043 0.25172
 O944 O 0.52543 0.25136 0.28153
 O945 O 0.47894 0.25404 0.28409
 O946 O 0.52240 0.21922 0.24809
 Cu947 Cu 0.49960 0.26696 0.23585
 Cu948 Cu 0.50069 0.23342 0.26910
 C949 C 0.52973 0.22759 0.22836
 C950 C 0.47087 0.27374 0.27611
 C951 C 0.53278 0.27109 0.27332
 C952 C 0.46697 0.22899 0.23269
 O953 O 0.97845 0.75130 0.72066
 O954 O 1.02277 0.71622 0.75442
 O955 O 0.97578 0.71786 0.75343
 O956 O 1.02483 0.74998 0.72351
 O957 O 1.02379 0.77733 0.75205
 O958 O 0.97453 0.74544 0.78170
 O959 O 1.02146 0.74301 0.78325
 O960 O 0.97744 0.77853 0.74928
 Cu961 Cu 1.00033 0.73104 0.73517
 Cu962 Cu 0.99918 0.76373 0.76951
 C963 C 0.97090 0.77113 0.72888
 C964 C 1.02978 0.72357 0.77463
 C965 C 0.96691 0.72611 0.77273
 C966 C 1.03271 0.76907 0.73283
 O967 O 0.47630 0.75220 0.22238
 O968 O 0.52160 0.71683 0.25458
 O969 O 0.47481 0.71963 0.25580
 O970 O 0.52325 0.75051 0.22352
 O971 O 0.52465 0.77759 0.25222
 O972 O 0.47466 0.74810 0.28321
 O973 O 0.52159 0.74378 0.28333
 O974 O 0.47801 0.78039 0.24996
 Cu975 Cu 0.49870 0.73207 0.23621
 Cu976 Cu 0.49970 0.76520 0.27003
 C977 C 0.46980 0.77248 0.23036
 C978 C 0.52938 0.72423 0.27448
 C979 C 0.46647 0.72867 0.27497
 C980 C 0.53276 0.76886 0.23284
 O981 O -0.02162 0.71920 0.24439
 O982 O 0.02460 0.75086 0.27849
 O983 O -0.02193 0.75228 0.27810
 O984 O 0.02523 0.71910 0.24539
 O985 O 0.02627 0.74786 0.21853
 O986 O -0.02195 0.78001 0.25030
 O987 O 0.02454 0.77972 0.25169
 O988 O -0.02078 0.74723 0.21681
 Cu989 Cu 0.00118 0.73244 0.26429
 Cu990 Cu 0.00184 0.76647 0.23149
 C991 C -0.02870 0.72752 0.22457
 C992 C 0.03273 0.77045 0.27068
 C993 C -0.02948 0.77217 0.27014
 C994 C 0.03445 0.72842 0.22693
 O995 O 0.52263 0.75333 0.77912
 O996 O 0.47275 0.72176 0.75072
 O997 O 0.51979 0.72123 0.74615
 O998 O 0.47627 0.75792 0.78054
 O999 O 0.47395 0.78304 0.75054
 O1000 O 0.52030 0.74901 0.71827
 O1001 O 0.47339 0.74701 0.72070
 O1002 O 0.52087 0.78122 0.75139
 Cu1003 Cu 0.49768 0.73582 0.76692
 Cu1004 Cu 0.49690 0.76770 0.73234
 C1005 C 0.53013 0.77271 0.77032
 C1006 C 0.46500 0.72839 0.73056
 C1007 C 0.52804 0.72945 0.72666
 C1008 C 0.46790 0.77706 0.77145
 C1009 C 0.43208 0.29499 0.27940
 C1010 C 0.41477 0.30800 0.29194
 C1011 C 0.41843 0.31461 0.31577
 C1012 C 0.44046 0.30860 0.32692
 C1013 C 0.45804 0.29506 0.31423
 C1014 C 0.45352 0.28791 0.29037
 C1015 C 0.47994 0.28997 0.32565
 N1016 N 0.48382 0.29789 0.34819
 N1017 N 0.46741 0.31072 0.36000
 C1018 C 0.44594 0.31645 0.35012
 H1019 H 0.42848 0.29003 0.26108
 H1020 H 0.39811 0.31262 0.28312
 H1021 H 0.49420 0.28016 0.31680
 H1022 H 0.43366 0.32748 0.36033
 C1023 C 0.43553 0.78028 0.80145
 C1024 C 0.41848 0.79267 0.81487
 C1025 C 0.41585 0.81757 0.81305
 C1026 C 0.43269 0.83023 0.79879
 C1027 C 0.44944 0.81751 0.78415
 C1028 C 0.45067 0.79207 0.78542
 C1029 C 0.46499 0.83100 0.76963
 N1030 N 0.46481 0.85515 0.77092
 N1031 N 0.45034 0.86689 0.78585
 C1032 C 0.43458 0.85529 0.80002
 H1033 H 0.43626 0.76101 0.80303
 H1034 H 0.40629 0.78230 0.82567
 H1035 H 0.47774 0.82301 0.75756
 H1036 H 0.42437 0.86581 0.81270
 C1037 C -0.06488 0.30443 0.77566
 C1038 C -0.08247 0.31754 0.78763
 C1039 C -0.08265 0.31928 0.81267
 C1040 C -0.06289 0.30940 0.82551
 C1041 C -0.04487 0.29600 0.81319
 C1042 C -0.04651 0.29278 0.78812
 C1043 C -0.02512 0.28734 0.82630
 N1044 N -0.02349 0.29195 0.84998
 N1045 N -0.04001 0.30496 0.86140
 C1046 C -0.05941 0.31407 0.84998
 H1047 H -0.06617 0.30266 0.75645
 H1048 H -0.09698 0.32500 0.77717
 H1049 H -0.01052 0.27764 0.81796
 H1050 H -0.07129 0.32565 0.86002
 C1051 C -0.06525 0.77349 0.29623
 C1052 C -0.08344 0.78536 0.30862
 C1053 C -0.08490 0.81043 0.30897
 C1054 C -0.06592 0.82365 0.29836
 C1055 C -0.04716 0.81147 0.28587
 C1056 C -0.04746 0.78613 0.28405
 C1057 C -0.02804 0.82509 0.27677
 N1058 N -0.02780 0.84907 0.27994
 N1059 N -0.04509 0.86039 0.29198
 C1060 C -0.06388 0.84853 0.30155
 H1061 H -0.06555 0.75416 0.29554
 H1062 H -0.09737 0.77471 0.31675
 H1063 H -0.01278 0.81705 0.26790
 H1064 H -0.07641 0.85865 0.31235
 C1065 C 0.56603 0.72451 0.29891
 C1066 C 0.58498 0.71373 0.31092
 C1067 C 0.58692 0.68886 0.31232
 C1068 C 0.56879 0.67459 0.30188
 C1069 C 0.55011 0.68549 0.28838
 C1070 C 0.54859 0.71088 0.28720
 C1071 C 0.53335 0.67041 0.27723
 N1072 N 0.53452 0.64647 0.28049
 N1073 N 0.55124 0.63647 0.29417
 C1074 C 0.56826 0.64970 0.30510
 H1075 H 0.56540 0.74384 0.29819
 H1076 H 0.59859 0.72495 0.31881
 H1077 H 0.51920 0.67709 0.26604
 H1078 H 0.58083 0.64062 0.31661
 C1079 C 0.55725 0.19359 0.78223
 C1080 C 0.57637 0.18220 0.79345
 C1081 C 0.59566 0.19522 0.80285
 C1082 C 0.59648 0.22031 0.79866
 C1083 C 0.57688 0.23193 0.78719
 C1084 C 0.55679 0.21842 0.77963
 C1085 C 0.57876 0.25655 0.78242
 N1086 N 0.59888 0.26852 0.78849
 N1087 N 0.61749 0.25754 0.79856
 C1088 C 0.61713 0.23389 0.80350
 H1089 H 0.54234 0.18292 0.77605
 H1090 H 0.57539 0.16307 0.79593
 H1091 H 0.56489 0.26637 0.77323
 H1092 H 0.63346 0.22593 0.81016
 C1093 C 1.06416 0.72353 0.80221
 C1094 C 1.08237 0.71272 0.81529
 C1095 C 1.08542 0.68779 0.81538
 C1096 C 1.06797 0.67363 0.80340
 C1097 C 1.05041 0.68469 0.78856
 C1098 C 1.04839 0.71008 0.78819
 C1099 C 1.03497 0.66966 0.77553
 N1100 N 1.03554 0.64574 0.77893
 N1101 N 1.05036 0.63569 0.79455
 C1102 C 1.06628 0.64882 0.80712
 H1103 H 1.06300 0.74285 0.80238
 H1104 H 1.09494 0.72425 0.82432
 H1105 H 1.02222 0.67630 0.76284
 H1106 H 1.07683 0.63975 0.82048
 C1107 C 1.06562 0.22624 0.29507
 C1108 C 1.08329 0.21464 0.30819
 C1109 C 1.08315 0.18971 0.31119
 C1110 C 1.06320 0.17666 0.30211
 C1111 C 1.04531 0.18857 0.28836
 C1112 C 1.04694 0.21353 0.28445
 C1113 C 1.02562 0.17525 0.28014
 N1114 N 1.02371 0.15184 0.28577
 N1115 N 1.03988 0.14093 0.29940
 C1116 C 1.05927 0.15256 0.30803
 H1117 H 1.06694 0.24537 0.29266
 H1118 H 1.09795 0.22526 0.31493
 H1119 H 1.01130 0.18321 0.26991
 H1120 H 1.07072 0.14301 0.32024
 C1121 C 0.57013 0.27143 0.70341
 C1122 C 0.58843 0.28290 0.69111
 C1123 C 0.58589 0.30674 0.68414
 C1124 C 0.56396 0.31896 0.68877
 C1125 C 0.54538 0.30736 0.70153
 C1126 C 0.54879 0.28353 0.70924
 C1127 C 0.52369 0.31982 0.70544
 N1128 N 0.52095 0.34235 0.69707
 N1129 N 0.53832 0.35316 0.68493
 C1130 C 0.55966 0.34221 0.68040
 H1131 H 0.57289 0.25312 0.70901
 H1132 H 0.60502 0.27332 0.68753
 H1133 H 0.50875 0.31180 0.71468
 H1134 H 0.57280 0.35164 0.66989
 C1135 C 0.55373 0.80512 0.21946
 C1136 C 0.57261 0.81693 0.20841
 C1137 C 0.59210 0.80426 0.19840
 C1138 C 0.59334 0.77904 0.20186
 C1139 C 0.57389 0.76699 0.21296
 C1140 C 0.55363 0.78021 0.22119
 C1141 C 0.57606 0.74220 0.21672
 N1142 N 0.59641 0.73047 0.21023
 N1143 N 0.61494 0.74184 0.20066
 C1144 C 0.61426 0.76567 0.19661
 H1145 H 0.53870 0.81556 0.22620
 H1146 H 0.57125 0.83612 0.20650
 H1147 H 0.56221 0.73203 0.22542
 H1148 H 0.63052 0.77391 0.19032
 C1149 C 1.06760 0.27310 0.20132
 C1150 C 1.08560 0.28462 0.18870
 C1151 C 1.08636 0.30966 0.18738
 C1152 C 1.06697 0.32311 0.19745
 C1153 C 1.04843 0.31125 0.21022
 C1154 C 1.04931 0.28602 0.21280
 C1155 C 1.02890 0.32501 0.21877
 N1156 N 1.02804 0.34883 0.21479
 N1157 N 1.04508 0.35983 0.20243
 C1158 C 1.06426 0.34781 0.19338
 H1159 H 1.06832 0.25380 0.20258
 H1160 H 1.09987 0.27379 0.18104
 H1161 H 1.01385 0.31715 0.22790
 H1162 H 1.07655 0.35762 0.18228
 C1163 C 1.04847 0.80590 0.71486
 C1164 C 1.06601 0.81868 0.70271
 C1165 C 1.08793 0.80794 0.69650
 C1166 C 1.09269 0.78411 0.70359
 C1167 C 1.07474 0.77098 0.71569
 C1168 C 1.05235 0.78197 0.72100
 C1169 C 1.08016 0.74748 0.72279
 N1170 N 1.10213 0.73796 0.71807
 N1171 N 1.11906 0.75038 0.70695
 C1172 C 1.11516 0.77314 0.69968
 H1173 H 1.03150 0.81457 0.71900
 H1174 H 1.06233 0.83698 0.69764
 H1175 H 1.06737 0.73671 0.73239
 H1176 H 1.12984 0.78251 0.69138
 C1177 C 0.42785 0.72778 0.70662
 C1178 C 0.40910 0.71637 0.69492
 C1179 C 0.40795 0.69142 0.69392
 C1180 C 0.42667 0.67774 0.70437
 C1181 C 0.44500 0.68927 0.71766
 C1182 C 0.44572 0.71471 0.71849
 C1183 C 0.46231 0.67473 0.72893
 N1184 N 0.46201 0.65072 0.72589
 N1185 N 0.44566 0.64014 0.71231
 C1186 C 0.42814 0.65282 0.70132
 H1187 H 0.42801 0.74713 0.70695
 H1188 H 0.39509 0.72714 0.68691
 H1189 H 0.47623 0.68189 0.74002
 H1190 H 0.41595 0.64327 0.68986
 C1191 C 0.44923 0.19178 0.21716
 C1192 C 0.43132 0.17905 0.20552
 C1193 C 0.41050 0.19055 0.19748
 C1194 C 0.40720 0.21525 0.20219
 C1195 C 0.42562 0.22835 0.21366
 C1196 C 0.44697 0.21647 0.22087
 C1197 C 0.42154 0.25276 0.21834
 N1198 N 0.40045 0.26315 0.21203
 N1199 N 0.38307 0.25077 0.20157
 C1200 C 0.38565 0.22719 0.19659
 H1201 H 0.46522 0.18234 0.22289
 H1202 H 0.43384 0.16011 0.20235
 H1203 H 0.43464 0.26365 0.22730
 H1204 H 0.37059 0.21799 0.18880
 C1205 C -0.06709 0.72652 0.20273
 C1206 C -0.08532 0.71460 0.19072
 C1207 C -0.08352 0.69008 0.18596
 C1208 C -0.06233 0.67758 0.19243
 C1209 C -0.04385 0.68963 0.20491
 C1210 C -0.04660 0.71423 0.21051
 C1211 C -0.02288 0.67674 0.21065
 N1212 N -0.02072 0.65343 0.20431
 N1213 N -0.03799 0.64221 0.19245
 C1214 C -0.05863 0.65349 0.18618
 H1215 H -0.06935 0.74537 0.20664
 H1216 H -0.10133 0.72441 0.18569
 H1217 H -0.00798 0.68499 0.21970
 H1218 H -0.07166 0.64363 0.17595
 C1219 C -0.05758 0.19791 0.71867
 C1220 C -0.07687 0.18614 0.70839
 C1221 C -0.09595 0.19883 0.69794
 C1222 C -0.09624 0.22425 0.69990
 C1223 C -0.07642 0.23628 0.71040
 C1224 C -0.05665 0.22287 0.71931
 C1225 C -0.07780 0.26132 0.71290
 N1226 N -0.09767 0.27332 0.70569
 N1227 N -0.11648 0.26204 0.69659
 C1228 C -0.11660 0.23800 0.69379
 H1229 H -0.04293 0.18733 0.72582
 H1230 H -0.07619 0.16683 0.70752
 H1231 H -0.06376 0.27155 0.72115
 H1232 H -0.13307 0.22998 0.68781
 C1233 C 0.30742 0.45214 0.29366
 C1234 C 0.31974 0.43437 0.30606
 C1235 C 0.30865 0.41273 0.31159
 C1236 C 0.28484 0.40863 0.30382
 C1237 C 0.27215 0.42681 0.29148
 C1238 C 0.28356 0.44886 0.28663
 C1239 C 0.24874 0.42185 0.28352
 N1240 N 0.23893 0.40018 0.28767
 N1241 N 0.25095 0.38307 0.29906
 C1242 C 0.27358 0.38650 0.30715
 H1243 H 0.31651 0.46871 0.28972
 H1244 H 0.33806 0.43753 0.31161
 H1245 H 0.23825 0.43472 0.27368
 H1246 H 0.28263 0.37170 0.31563
 C1247 C 0.30500 -0.05201 0.78352
 C1248 C 0.31664 -0.07104 0.79453
 C1249 C 0.30370 -0.09027 0.80406
 C1250 C 0.27841 -0.09106 0.80025
 C1251 C 0.26654 -0.07153 0.78904
 C1252 C 0.28000 -0.05154 0.78132
 C1253 C 0.24171 -0.07337 0.78465
 N1254 N 0.22977 -0.09342 0.79078
 N1255 N 0.24098 -0.11196 0.80058
 C1256 C 0.26484 -0.11162 0.80520
 H1257 H 0.31563 -0.03722 0.77712
 H1258 H 0.33592 -0.07008 0.79672
 H1259 H 0.23168 -0.05950 0.77577
 H1260 H 0.27296 -0.12787 0.81168
 C1261 C 0.80243 0.44620 0.78420
 C1262 C 0.81454 0.42739 0.79506
 C1263 C 0.80213 0.40772 0.80433
 C1264 C 0.77682 0.40641 0.80063
 C1265 C 0.76443 0.42583 0.78974
 C1266 C 0.77743 0.44609 0.78194
 C1267 C 0.73958 0.42360 0.78568
 N1268 N 0.72811 0.40325 0.79168
 N1269 N 0.73982 0.38476 0.80101
 C1270 C 0.76372 0.38549 0.80532
 H1271 H 0.81271 0.46125 0.77783
 H1272 H 0.83378 0.42884 0.79724
 H1273 H 0.72914 0.43743 0.77718
 H1274 H 0.77224 0.36926 0.81134
 C1275 C 0.80390 -0.05890 0.27849
 C1276 C 0.81548 -0.07824 0.28903
 C1277 C 0.80245 -0.09737 0.29859
 C1278 C 0.77706 -0.09775 0.29520
 C1279 C 0.76525 -0.07785 0.28456
 C1280 C 0.77886 -0.05799 0.27681
 C1281 C 0.74028 -0.07917 0.28078
 N1282 N 0.72815 -0.09912 0.28685
 N1283 N 0.73929 -0.11804 0.29601
 C1284 C 0.76326 -0.11818 0.30004
 H1285 H 0.81464 -0.04416 0.27214
 H1286 H 0.83480 -0.07754 0.29091
 H1287 H 0.73028 -0.06496 0.27237
 H1288 H 0.77128 -0.13470 0.30597
 C1289 C 0.30183 0.55283 0.71594
 C1290 C 0.31254 0.57220 0.70472
 C1291 C 0.29929 0.59288 0.69962
 C1292 C 0.27488 0.59438 0.70669
 C1293 C 0.26387 0.57459 0.71792
 C1294 C 0.27749 0.55354 0.72223
 C1295 C 0.23978 0.57698 0.72532
 N1296 N 0.22771 0.59773 0.72158
 N1297 N 0.23811 0.61632 0.71117
 C1298 C 0.26129 0.61541 0.70375
 H1299 H 0.31256 0.53702 0.71945
 H1300 H 0.33129 0.57099 0.69965
 H1301 H 0.23049 0.56280 0.73440
 H1302 H 0.26892 0.63132 0.69609
 C1303 C 0.30448 1.05467 0.22255
 C1304 C 0.31677 1.07331 0.21182
 C1305 C 0.30441 1.09195 0.20038
 C1306 C 0.27887 1.09281 0.20209
 C1307 C 0.26632 1.07377 0.21318
 C1308 C 0.27936 1.05412 0.22272
 C1309 C 0.24117 1.07581 0.21555
 N1310 N 0.22955 1.09552 0.20753
 N1311 N 0.24134 1.11358 0.19774
 C1312 C 0.26552 1.11307 0.19508
 H1313 H 0.31478 1.04017 0.23030
 H1314 H 0.33619 1.07239 0.21124
 H1315 H 0.23054 1.06248 0.22440
 H1316 H 0.27398 1.12900 0.18849
 C1317 C 0.80833 0.55215 0.21267
 C1318 C 0.81998 0.57060 0.20085
 C1319 C 0.80808 0.59217 0.19615
 C1320 C 0.78430 0.59564 0.20457
 C1321 C 0.77230 0.57679 0.21636
 C1322 C 0.78436 0.55468 0.21993
 C1323 C 0.74885 0.58106 0.22492
 N1324 N 0.73833 0.60272 0.22180
 N1325 N 0.74969 0.62045 0.21090
 C1326 C 0.77232 0.61770 0.20230
 H1327 H 0.81792 0.53555 0.21562
 H1328 H 0.83829 0.56792 0.19480
 H1329 H 0.73891 0.56763 0.23445
 H1330 H 0.78084 0.63296 0.19427
 C1331 C 0.79285 1.06990 0.72799
 C1332 C 0.80498 1.08817 0.71640
 C1333 C 0.81270 1.08546 0.69273
 C1334 C 0.80892 1.06344 0.68082
 C1335 C 0.79630 1.04490 0.69252
 C1336 C 0.78787 1.04844 0.71618
 C1337 C 0.79332 1.02309 0.68035
 N1338 N 0.80237 1.02022 0.65803
 N1339 N 0.81437 1.03755 0.64715
 C1340 C 0.81807 1.05898 0.65781
 H1341 H 0.78676 1.07277 0.74617
 H1342 H 0.80789 1.10484 0.72578
 H1343 H 0.78429 1.00815 0.68845
 H1344 H 0.82856 1.07207 0.64837
 C1345 C 0.73124 0.57345 0.29096
 C1346 C 0.72019 0.59300 0.30202
 C1347 C 0.69752 0.59079 0.31257
 C1348 C 0.68622 0.56827 0.31295
 C1349 C 0.69756 0.54836 0.30194
 C1350 C 0.71991 0.55121 0.29032
 C1351 C 0.68639 0.52605 0.30350
 N1352 N 0.66499 0.52402 0.31490
 N1353 N 0.65417 0.54281 0.32500
 C1354 C 0.66409 0.56485 0.32450
 H1355 H 0.74847 0.57583 0.28229
 H1356 H 0.72904 0.61014 0.30186
 H1357 H 0.69484 0.51021 0.29628
 H1358 H 0.65476 0.57937 0.33341
 C1359 C 0.72513 1.06362 0.80058
 C1360 C 0.71330 1.08116 0.81381
 C1361 C 0.68824 1.08394 0.81272
 C1362 C 0.67488 1.06684 0.79942
 C1363 C 0.68702 1.04958 0.78493
 C1364 C 0.71260 1.04810 0.78549
 C1365 C 0.67283 1.03382 0.77133
 N1366 N 0.64859 1.03430 0.77339
 N1367 N 0.63743 1.04925 0.78825
 C1368 C 0.64972 1.06523 0.80154
 H1369 H 0.74455 1.06273 0.80159
 H1370 H 0.72417 1.09354 0.82388
 H1371 H 0.68034 1.02072 0.75937
 H1372 H 0.63967 1.07587 0.81425
 C1373 C 0.22455 0.56319 0.80511
 C1374 C 0.21367 0.58187 0.81756
 C1375 C 0.18859 0.58468 0.81796
 C1376 C 0.17434 0.56642 0.80740
 C1377 C 0.18544 0.54793 0.79364
 C1378 C 0.21097 0.54651 0.79235
 C1379 C 0.17041 0.53100 0.78263
 N1380 N 0.14640 0.53161 0.78650
 N1381 N 0.13629 0.54782 0.80079
 C1382 C 0.14943 0.56494 0.81162
 H1383 H 0.24400 0.56241 0.80464
 H1384 H 0.22520 0.59508 0.82563
 H1385 H 0.17718 0.51686 0.77141
 H1386 H 0.14030 0.57662 0.82411
 C1387 C 0.22202 1.06565 0.30272
 C1388 C 0.21011 1.08381 0.31501
 C1389 C 0.18490 1.08449 0.31660
 C1390 C 0.17176 1.06478 0.30729
 C1391 C 0.18400 1.04630 0.29451
 C1392 C 0.20932 1.04726 0.29165
 C1393 C 0.17056 1.02680 0.28612
 N1394 N 0.14668 1.02572 0.29058
 N1395 N 0.13537 1.04255 0.30321
 C1396 C 0.14710 1.06178 0.31197
 H1397 H 0.24139 1.06649 0.30109
 H1398 H 0.22080 1.09827 0.32202
 H1399 H 0.17876 1.01199 0.27672
 H1400 H 0.13712 1.07389 0.32334
 C1401 C 0.72241 0.43173 0.70173
 C1402 C 0.71146 0.41349 0.68897
 C1403 C 0.68654 0.41318 0.68586
 C1404 C 0.67246 0.43219 0.69536
 C1405 C 0.68340 0.45007 0.70968
 C1406 C 0.70881 0.44995 0.71257
 C1407 C 0.66839 0.46777 0.71989
 N1408 N 0.64459 0.46818 0.71497
 N1409 N 0.63467 0.45220 0.70050
 C1410 C 0.64779 0.43438 0.69039
 H1411 H 0.74176 0.43120 0.70372
 H1412 H 0.72254 0.39919 0.68182
 H1413 H 0.67508 0.48151 0.73151
 H1414 H 0.63885 0.42250 0.67814
 C1415 C 0.72081 -0.06694 0.20097
 C1416 C 0.70817 -0.08487 0.18938
 C1417 C 0.68329 -0.08309 0.18623
 C1418 C 0.67104 -0.06228 0.19423
 C1419 C 0.68388 -0.04402 0.20626
 C1420 C 0.70896 -0.04667 0.20997
 C1421 C 0.67122 -0.02335 0.21341
 N1422 N 0.64739 -0.02131 0.20890
 N1423 N 0.63541 -0.03839 0.19754
 C1424 C 0.64643 -0.05872 0.18995
 H1425 H 0.73996 -0.06926 0.20356
 H1426 H 0.71781 -0.10062 0.18327
 H1427 H 0.68002 -0.00859 0.22211
 H1428 H 0.63591 -0.07164 0.18025
 C1429 C 0.19579 0.44586 0.20844
 C1430 C 0.18435 0.42689 0.19720
 C1431 C 0.19635 0.40516 0.19334
 C1432 C 0.22017 0.40224 0.20173
 C1433 C 0.23199 0.42167 0.21285
 C1434 C 0.21968 0.44374 0.21592
 C1435 C 0.25547 0.41798 0.22139
 N1436 N 0.26617 0.39628 0.21898
 N1437 N 0.25496 0.37800 0.20879
 C1438 C 0.23232 0.38018 0.20021
 H1439 H 0.18602 0.46247 0.21101
 H1440 H 0.16604 0.42921 0.19115
 H1441 H 0.26531 0.43192 0.23033
 H1442 H 0.22394 0.36451 0.19279
 C1443 C 0.18866 -0.05071 0.71564
 C1444 C 0.17644 -0.06959 0.70509
 C1445 C 0.18892 -0.08901 0.69494
 C1446 C 0.21429 -0.09047 0.69792
 C1447 C 0.22673 -0.07129 0.70889
 C1448 C 0.21376 -0.05082 0.71690
 C1449 C 0.25163 -0.07395 0.71273
 N1450 N 0.26309 -0.09433 0.70610
 N1451 N 0.25137 -0.11248 0.69633
 C1452 C 0.22741 -0.11140 0.69233
 H1453 H 0.17842 -0.03558 0.72237
 H1454 H 0.15709 -0.06834 0.70362
 H1455 H 0.26210 -0.06050 0.72162
 H1456 H 0.21888 -0.12735 0.68581
 C1457 C 0.29754 0.27802 0.43423
 C1458 C 0.31047 0.29059 0.41718
 C1459 C 0.31480 0.31502 0.42000
 C1460 C 0.30686 0.32677 0.44106
 C1461 C 0.29353 0.31401 0.45842
 C1462 C 0.28831 0.28953 0.45455
 C1463 C 0.28669 0.32606 0.47949
 N1464 N 0.29262 0.34929 0.48267
 N1465 N 0.30510 0.36122 0.46637
 C1466 C 0.31252 0.35074 0.44575
 H1467 H 0.29422 0.25924 0.43120
 H1468 H 0.31668 0.28132 0.40130
 H1469 H 0.27716 0.31720 0.49370
 H1470 H 0.32318 0.36112 0.43352
 C1471 C 0.29161 0.81110 -0.04867
 C1472 C 0.30263 0.82323 -0.06735
 C1473 C 0.30827 0.81147 -0.08873
 C1474 C 0.30193 0.78724 -0.09174
 C1475 C 0.29087 0.77478 -0.07272
 C1476 C 0.28607 0.78683 -0.05086
 C1477 C 0.28420 0.75088 -0.07666
 N1478 N 0.28845 0.74037 -0.09811
 N1479 N 0.29877 0.75214 -0.11595
 C1480 C 0.30554 0.77521 -0.11354
 H1481 H 0.28772 0.82062 -0.03222
 H1482 H 0.30715 0.84188 -0.06506
 H1483 H 0.27522 0.74051 -0.06318
 H1484 H 0.31326 0.78400 -0.12885
 C1485 C 0.78970 0.30741 -0.05166
 C1486 C 0.80123 0.31946 -0.07005
 C1487 C 0.80844 0.30741 -0.09080
 C1488 C 0.80325 0.28284 -0.09344
 C1489 C 0.79164 0.27045 -0.07467
 C1490 C 0.78516 0.28289 -0.05344
 C1491 C 0.78601 0.24623 -0.07831
 N1492 N 0.79181 0.23534 -0.09922
 N1493 N 0.80265 0.24701 -0.11680
 C1494 C 0.80845 0.27039 -0.11469
 H1495 H 0.78453 0.31727 -0.03577
 H1496 H 0.80478 0.33835 -0.06806
 H1497 H 0.77662 0.23590 -0.06507
 H1498 H 0.81663 0.27904 -0.12982
 C1499 C 0.79138 0.80707 0.44712
 C1500 C 0.80198 0.81806 0.42752
 C1501 C 0.80679 0.80515 0.40660
 C1502 C 0.80005 0.78088 0.40505
 C1503 C 0.78925 0.76963 0.42496
 C1504 C 0.78535 0.78284 0.44633
 C1505 C 0.78186 0.74576 0.42237
 N1506 N 0.78545 0.73408 0.40140
 N1507 N 0.79568 0.74467 0.38278
 C1508 C 0.80299 0.76768 0.38384
 H1509 H 0.78813 0.81749 0.46315
 H1510 H 0.80682 0.83671 0.42870
 H1511 H 0.77287 0.73633 0.43653
 H1512 H 0.81059 0.77549 0.36795
 C1513 C 0.69746 0.28776 0.54675
 C1514 C 0.68519 0.29965 0.56500
 C1515 C 0.69658 0.30498 0.58658
 C1516 C 0.72068 0.29756 0.59010
 C1517 C 0.73329 0.28561 0.57146
 C1518 C 0.72155 0.28097 0.54951
 C1519 C 0.75695 0.27781 0.57588
 N1520 N 0.76716 0.28189 0.59743
 N1521 N 0.75527 0.29299 0.61493
 C1522 C 0.73237 0.30083 0.61207
 H1523 H 0.68815 0.28400 0.53022
 H1524 H 0.66666 0.30495 0.56228
 H1525 H 0.76734 0.26816 0.56265
 H1526 H 0.72347 0.30907 0.62716
 C1527 C 0.69038 0.78897 1.05100
 C1528 C 0.67820 0.80077 1.06937
 C1529 C 0.69015 0.80738 1.09026
 C1530 C 0.71469 0.80132 1.09307
 C1531 C 0.72718 0.78938 1.07435
 C1532 C 0.71489 0.78353 1.05299
 C1533 C 0.75134 0.78286 1.07817
 N1534 N 0.76209 0.78818 1.09918
 N1535 N 0.75032 0.79937 1.11671
 C1536 C 0.72699 0.80601 1.11442
 H1537 H 0.68064 0.78426 1.03497
 H1538 H 0.65934 0.80504 1.06724
 H1539 H 0.76171 0.77320 1.06495
 H1540 H 0.71824 0.81449 1.12949
 C1541 C 0.21215 0.30060 1.05006
 C1542 C 0.20051 0.31268 1.06861
 C1543 C 0.19499 0.30102 1.08995
 C1544 C 0.20203 0.27690 1.09300
 C1545 C 0.21365 0.26447 1.07407
 C1546 C 0.21842 0.27645 1.05229
 C1547 C 0.22098 0.24069 1.07806
 N1548 N 0.21687 0.23029 1.09947
 N1549 N 0.20610 0.24205 1.11724
 C1550 C 0.19866 0.26500 1.11479
 H1551 H 0.21605 0.31009 1.03371
 H1552 H 0.19551 0.33125 1.06628
 H1553 H 0.23035 0.23033 1.06464
 H1554 H 0.19065 0.27379 1.13008
 C1555 C 0.18944 0.79316 0.55136
 C1556 C 0.17737 0.80519 0.56964
 C1557 C 0.18887 0.81030 0.59120
 C1558 C 0.21284 0.80245 0.59473
 C1559 C 0.22530 0.79050 0.57601
 C1560 C 0.21345 0.78609 0.55406
 C1561 C 0.24891 0.78251 0.58033
 N1562 N 0.25913 0.78622 0.60193
 N1563 N 0.24733 0.79720 0.61956
 C1564 C 0.22453 0.80532 0.61675
 H1565 H 0.18006 0.78957 0.53484
 H1566 H 0.15894 0.81082 0.56693
 H1567 H 0.25925 0.77297 0.56699
 H1568 H 0.21568 0.81346 0.63194
 C1569 C 0.30097 0.70692 0.55207
 C1570 C 0.31259 0.69578 0.57105
 C1571 C 0.30086 0.69263 0.59293
 C1572 C 0.27718 0.70158 0.59600
 C1573 C 0.26516 0.71248 0.57656
 C1574 C 0.27719 0.71494 0.55436
 C1575 C 0.24176 0.72144 0.58038
 N1576 N 0.23139 0.71974 0.60222
 N1577 N 0.24284 0.70985 0.62053
 C1578 C 0.26539 0.70085 0.61822
 H1579 H 0.31053 0.70909 0.53535
 H1580 H 0.33082 0.68933 0.56867
 H1581 H 0.23170 0.73015 0.56644
 H1582 H 0.27398 0.69372 0.63392
 C1583 C 0.29438 0.18690 1.05211
 C1584 C 0.30613 0.17514 1.07060
 C1585 C 0.31095 0.18693 1.09209
 C1586 C 0.30302 0.21080 1.09539
 C1587 C 0.29129 0.22289 1.07651
 C1588 C 0.28729 0.21082 1.05459
 C1589 C 0.28318 0.24644 1.08060
 N1590 N 0.28663 0.25694 1.10215
 N1591 N 0.29748 0.24548 1.11991
 C1592 C 0.30568 0.22276 1.11732
 H1593 H 0.29116 0.17738 1.03556
 H1594 H 0.31180 0.15676 1.06812
 H1595 H 0.27374 0.25650 1.06713
 H1596 H 0.31376 0.21421 1.13259
 C1597 C 0.80460 0.70607 1.04873
 C1598 C 0.81690 0.69485 1.06724
 C1599 C 0.80591 0.69144 1.08945
 C1600 C 0.78228 0.70020 1.09335
 C1601 C 0.76958 0.71123 1.07441
 C1602 C 0.78087 0.71392 1.05186
 C1603 C 0.74628 0.72006 1.07904
 N1604 N 0.73661 0.71807 1.10116
 N1605 N 0.74868 0.70802 1.11900
 C1606 C 0.77119 0.69915 1.11590
 H1607 H 0.81358 0.70841 1.03173
 H1608 H 0.83508 0.68853 1.06421
 H1609 H 0.73577 0.72885 1.06548
 H1610 H 0.78029 0.69186 1.13124
 C1611 C 0.77472 0.20118 0.56716
 C1612 C 0.78592 0.19019 0.58644
 C1613 C 0.81071 0.18595 0.58629
 C1614 C 0.82431 0.19177 0.56577
 C1615 C 0.81296 0.20300 0.54612
 C1616 C 0.78802 0.20828 0.54718
 C1617 C 0.82693 0.20790 0.52577
 N1618 N 0.85061 0.20210 0.52539
 N1619 N 0.86122 0.19155 0.54386
 C1620 C 0.84887 0.18609 0.56397
 H1621 H 0.75563 0.20494 0.56823
 H1622 H 0.77532 0.18560 0.60197
 H1623 H 0.81926 0.21580 0.50996
 H1624 H 0.85830 0.17696 0.57811
 C1625 C 0.70724 0.73012 0.43354
 C1626 C 0.69529 0.71824 0.41527
 C1627 C 0.68995 0.69394 0.41719
 C1628 C 0.69565 0.68166 0.43848
 C1629 C 0.70781 0.69371 0.45712
 C1630 C 0.71421 0.71800 0.45423
 C1631 C 0.71253 0.68114 0.47831
 N1632 N 0.70570 0.65806 0.48040
 N1633 N 0.69433 0.64676 0.46285
 C1634 C 0.68899 0.65779 0.44202
 H1635 H 0.71183 0.74872 0.43114
 H1636 H 0.69085 0.72784 0.39913
 H1637 H 0.72114 0.68950 0.49341
 H1638 H 0.67921 0.64791 0.42864
 C1639 C 0.70975 0.19378 -0.04978
 C1640 C 0.69851 0.18202 -0.06862
 C1641 C 0.69521 0.19332 -0.09063
 C1642 C 0.70428 0.21663 -0.09403
 C1643 C 0.71518 0.22884 -0.07472
 C1644 C 0.71767 0.21730 -0.05236
 C1645 C 0.72401 0.25197 -0.07878
 N1646 N 0.72234 0.26186 -0.10075
 N1647 N 0.71257 0.25017 -0.11898
 C1648 C 0.70361 0.22789 -0.11641
 H1649 H 0.71191 0.18461 -0.03293
 H1650 H 0.69195 0.16407 -0.06596
 H1651 H 0.73257 0.26219 -0.06490
 H1652 H 0.69659 0.21908 -0.13205
 C1653 C 0.21238 0.69710 -0.04839
 C1654 C 0.20071 0.68530 -0.06691
 C1655 C 0.19559 0.69702 -0.08835
 C1656 C 0.20308 0.72092 -0.09148
 C1657 C 0.21462 0.73309 -0.07251
 C1658 C 0.21903 0.72104 -0.05072
 C1659 C 0.22218 0.75670 -0.07642
 N1660 N 0.21851 0.76715 -0.09788
 N1661 N 0.20796 0.75560 -0.11575
 C1662 C 0.20024 0.73284 -0.11334
 H1663 H 0.21592 0.68759 -0.03196
 H1664 H 0.19535 0.66692 -0.06448
 H1665 H 0.23135 0.76685 -0.06286
 H1666 H 0.19244 0.72421 -0.12871
 C1667 C 0.19230 0.21672 0.44665
 C1668 C 0.18041 0.20530 0.42803
 C1669 C 0.19279 0.19816 0.40740
 C1670 C 0.21749 0.20356 0.40506
 C1671 C 0.22973 0.21484 0.42414
 C1672 C 0.21699 0.22113 0.44525
 C1673 C 0.25418 0.22021 0.42103
 N1674 N 0.26542 0.21471 0.40021
 N1675 N 0.25383 0.20441 0.38221
 C1676 C 0.23026 0.19878 0.38386
 H1677 H 0.18226 0.22165 0.46253
 H1678 H 0.16146 0.20149 0.42990
 H1679 H 0.26443 0.22905 0.43471
 H1680 H 0.22170 0.19113 0.36838
 C1681 C 0.27245 0.43090 0.71004
 C1682 C 0.28421 0.41241 0.69803
 C1683 C 0.30868 0.41389 0.69250
 C1684 C 0.32134 0.43495 0.69841
 C1685 C 0.30941 0.45378 0.71084
 C1686 C 0.28482 0.45145 0.71703
 C1687 C 0.32238 0.47467 0.71584
 N1688 N 0.34566 0.47639 0.70895
 N1689 N 0.35677 0.45878 0.69721
 C1690 C 0.34539 0.43820 0.69158
 H1691 H 0.25363 0.42886 0.71448
 H1692 H 0.27426 0.39650 0.69344
 H1693 H 0.31420 0.48985 0.72470
 H1694 H 0.35515 0.42486 0.68143
 C1695 C 0.30575 0.95181 0.21301
 C1696 C 0.31809 0.93338 0.20136
 C1697 C 0.30663 0.91190 0.19583
 C1698 C 0.28248 0.90857 0.20297
 C1699 C 0.26978 0.92739 0.21455
 C1700 C 0.28153 0.94932 0.21926
 C1701 C 0.24597 0.92319 0.22187
 N1702 N 0.23579 0.90164 0.21783
 N1703 N 0.24781 0.88395 0.20715
 C1704 C 0.27080 0.88662 0.19970
 H1705 H 0.31507 0.96828 0.21686
 H1706 H 0.33666 0.93595 0.19629
 H1707 H 0.23543 0.93656 0.23114
 H1708 H 0.27981 0.87139 0.19178
 C1709 C 0.77415 0.43392 0.20397
 C1710 C 0.78607 0.41592 0.19131
 C1711 C 0.81057 0.41775 0.18595
 C1712 C 0.82301 0.43878 0.19245
 C1713 C 0.81100 0.45692 0.20572
 C1714 C 0.78646 0.45416 0.21188
 C1715 C 0.82386 0.47762 0.21173
 N1716 N 0.84705 0.47991 0.20473
 N1717 N 0.85818 0.46303 0.19199
 C1718 C 0.84694 0.44263 0.18550
 H1719 H 0.75534 0.43165 0.20834
 H1720 H 0.77629 0.40007 0.18622
 H1721 H 0.81565 0.49218 0.22153
 H1722 H 0.85670 0.42994 0.17454
 C1723 C 0.81007 0.95160 0.70986
 C1724 C 0.82262 0.93373 0.69761
 C1725 C 0.81191 0.91170 0.69275
 C1726 C 0.78841 0.90722 0.70126
 C1727 C 0.77552 0.92546 0.71351
 C1728 C 0.78642 0.94793 0.71745
 C1729 C 0.75237 0.92026 0.72211
 N1730 N 0.74297 0.89826 0.71864
 N1731 N 0.75518 0.88109 0.70733
 C1732 C 0.77760 0.88476 0.69865
 H1733 H 0.81868 0.96861 0.71297
 H1734 H 0.84071 0.93719 0.69146
 H1735 H 0.74179 0.93326 0.73189
 H1736 H 0.78684 0.86992 0.69024
 C1737 C 0.72618 0.57247 0.71093
 C1738 C 0.71541 0.59229 0.70036
 C1739 C 0.69255 0.59064 0.69022
 C1740 C 0.68069 0.56842 0.68984
 C1741 C 0.69175 0.54821 0.70034
 C1742 C 0.71437 0.55049 0.71149
 C1743 C 0.68009 0.52616 0.69867
 N1744 N 0.65850 0.52465 0.68768
 N1745 N 0.64794 0.54372 0.67806
 C1746 C 0.65834 0.56553 0.67866
 H1747 H 0.74362 0.57441 0.71920
 H1748 H 0.72470 0.60921 0.70046
 H1749 H 0.68832 0.51011 0.70547
 H1750 H 0.64922 0.58028 0.67011
 C1751 C 0.69385 0.05225 0.20947
 C1752 C 0.68241 0.07122 0.19809
 C1753 C 0.69473 0.09233 0.19312
 C1754 C 0.71889 0.09470 0.20063
 C1755 C 0.73067 0.07525 0.21192
 C1756 C 0.71803 0.05377 0.21602
 C1757 C 0.75450 0.07835 0.21956
 N1758 N 0.76561 0.09951 0.21610
 N1759 N 0.75446 0.11783 0.20574
 C1760 C 0.73147 0.11620 0.19804
 H1761 H 0.68388 0.03605 0.21276
 H1762 H 0.66386 0.06933 0.19273
 H1763 H 0.76430 0.06436 0.22860
 H1764 H 0.72320 0.13192 0.19046
 C1765 C 0.22821 0.56470 0.20148
 C1766 C 0.21676 0.58329 0.18951
 C1767 C 0.19213 0.58243 0.18471
 C1768 C 0.17902 0.56182 0.19107
 C1769 C 0.19062 0.54292 0.20342
 C1770 C 0.21534 0.54472 0.20912
 C1771 C 0.17714 0.52252 0.20899
 N1772 N 0.15370 0.52133 0.20266
 N1773 N 0.14289 0.53902 0.19097
 C1774 C 0.15476 0.55914 0.18486
 H1775 H 0.24713 0.56634 0.20557
 H1776 H 0.22702 0.59887 0.18459
 H1777 H 0.18503 0.50731 0.21786
 H1778 H 0.14521 0.57259 0.17480
 C1779 C 0.22539 0.07177 0.70502
 C1780 C 0.21354 0.09012 0.69304
 C1781 C 0.18912 0.08836 0.68746
 C1782 C 0.17665 0.06717 0.69320
 C1783 C 0.18862 0.04857 0.70566
 C1784 C 0.21311 0.05120 0.71197
 C1785 C 0.17582 0.02758 0.71062
 N1786 N 0.15266 0.02552 0.70356
 N1787 N 0.14152 0.04289 0.69170
 C1788 C 0.15274 0.06354 0.68615
 H1789 H 0.24417 0.07393 0.70947
 H1790 H 0.22334 0.10611 0.68851
 H1791 H 0.18404 0.01260 0.71962
 H1792 H 0.14298 0.07664 0.67586
 C1793 C 0.30382 0.55137 0.28854
 C1794 C 0.31465 0.57071 0.29981
 C1795 C 0.30189 0.59198 0.30384
 C1796 C 0.27798 0.59413 0.29553
 C1797 C 0.26685 0.57440 0.28423
 C1798 C 0.27986 0.55273 0.28113
 C1799 C 0.24331 0.57743 0.27559
 N1800 N 0.23184 0.59871 0.27828
 N1801 N 0.24236 0.61723 0.28879
 C1802 C 0.26504 0.61572 0.29737
 H1803 H 0.31410 0.53506 0.28594
 H1804 H 0.33305 0.56902 0.30581
 H1805 H 0.23401 0.56330 0.26636
 H1806 H 0.27284 0.63156 0.30509
 C1807 C 0.27496 0.07046 0.79108
 C1808 C 0.28780 0.08804 0.80304
 C1809 C 0.31231 0.08505 0.80775
 C1810 C 0.32394 0.06349 0.80098
 C1811 C 0.31093 0.04559 0.78866
 C1812 C 0.28629 0.04939 0.78335
 C1813 C 0.32289 0.02407 0.78293
 N1814 N 0.34625 0.02096 0.78898
 N1815 N 0.35840 0.03775 0.80058
 C1816 C 0.34802 0.05882 0.80691
 H1817 H 0.25611 0.07354 0.78739
 H1818 H 0.27865 0.10434 0.80839
 H1819 H 0.31389 0.00949 0.77414
 H1820 H 0.35861 0.07145 0.81690
 C1821 C 0.80262 0.54835 0.78856
 C1822 C 0.81438 0.56707 0.79999
 C1823 C 0.80259 0.58884 0.80430
 C1824 C 0.77880 0.59217 0.79609
 C1825 C 0.76671 0.57309 0.78470
 C1826 C 0.77870 0.55087 0.78132
 C1827 C 0.74325 0.57728 0.77627
 N1828 N 0.73282 0.59905 0.77916
 N1829 N 0.74427 0.61697 0.78972
 C1830 C 0.76691 0.61433 0.79815
 H1831 H 0.81213 0.53163 0.78574
 H1832 H 0.83271 0.56451 0.80589
 H1833 H 0.73320 0.56370 0.76705
 H1834 H 0.77549 0.62973 0.80592
 C1835 C 0.77655 0.06370 0.29255
 C1836 C 0.78926 0.08137 0.30449
 C1837 C 0.81399 0.07902 0.30832
 C1838 C 0.82600 0.05795 0.30062
 C1839 C 0.81308 0.03993 0.28834
 C1840 C 0.78817 0.04312 0.28396
 C1841 C 0.82545 0.01894 0.28163
 N1842 N 0.84911 0.01641 0.28674
 N1843 N 0.86117 0.03330 0.29829
 C1844 C 0.85042 0.05390 0.30552
 H1845 H 0.75753 0.06642 0.28946
 H1846 H 0.77983 0.09731 0.31041
 H1847 H 0.81653 0.00430 0.27282
 H1848 H 0.86098 0.06664 0.31539
 C1849 C 0.72915 0.43149 0.29397
 C1850 C 0.71815 0.41261 0.30567
 C1851 C 0.69321 0.41206 0.30871
 C1852 C 0.67914 0.43149 0.30035
 C1853 C 0.69014 0.45020 0.28726
 C1854 C 0.71556 0.45022 0.28424
 C1855 C 0.67520 0.46856 0.27844
 N1856 N 0.65135 0.46863 0.28334
 N1857 N 0.64134 0.45170 0.29654
 C1858 C 0.65441 0.43329 0.30536
 H1859 H 0.74850 0.43112 0.29193
 H1860 H 0.72921 0.39801 0.31206
 H1861 H 0.68197 0.48311 0.26799
 H1862 H 0.64538 0.42063 0.31666
 C1863 C 0.73016 0.92755 0.78966
 C1864 C 0.71908 0.90811 0.80037
 C1865 C 0.69478 0.90915 0.80677
 C1866 C 0.68160 0.93052 0.80315
 C1867 C 0.69287 0.95031 0.79224
 C1868 C 0.71723 0.94857 0.78504
 C1869 C 0.67955 0.97152 0.78969
 N1870 N 0.65644 0.97267 0.79731
 N1871 N 0.64585 0.95407 0.80753
 C1872 C 0.65767 0.93309 0.81084
 H1873 H 0.74886 0.92599 0.78443
 H1874 H 0.72936 0.89191 0.80329
 H1875 H 0.68748 0.98730 0.78222
 H1876 H 0.64835 0.91886 0.81983
 C1877 C 0.23022 0.42427 0.79157
 C1878 C 0.21945 0.40467 0.80237
 C1879 C 0.19640 0.40658 0.81228
 C1880 C 0.18440 0.42892 0.81230
 C1881 C 0.19540 0.44887 0.80147
 C1882 C 0.21822 0.44629 0.79051
 C1883 C 0.18348 0.47102 0.80263
 N1884 N 0.16179 0.47287 0.81356
 N1885 N 0.15137 0.45407 0.82360
 C1886 C 0.16197 0.43220 0.82346
 H1887 H 0.24780 0.42210 0.78348
 H1888 H 0.22887 0.38769 0.80253
 H1889 H 0.19152 0.48690 0.79545
 H1890 H 0.15296 0.41774 0.83240
 C1891 C 0.18981 0.95059 0.29309
 C1892 C 0.17763 0.93261 0.30505
 C1893 C 0.18926 0.91122 0.31094
 C1894 C 0.21341 0.90745 0.30378
 C1895 C 0.22594 0.92584 0.29184
 C1896 C 0.21403 0.94772 0.28684
 C1897 C 0.24976 0.92130 0.28452
 N1898 N 0.26011 0.89979 0.28892
 N1899 N 0.24825 0.88248 0.29997
 C1900 C 0.22525 0.88551 0.30743
 H1901 H 0.18040 0.96709 0.28909
 H1902 H 0.15905 0.93547 0.31013
 H1903 H 0.26014 0.93438 0.27496
 H1904 H 0.21637 0.87058 0.31569
 C1905 C 0.42862 0.28845 0.72651
 C1906 C 0.40986 0.30063 0.71544
 C1907 C 0.41147 0.30717 0.69142
 C1908 C 0.43280 0.30200 0.67848
 C1909 C 0.45186 0.28941 0.68968
 C1910 C 0.44948 0.28231 0.71382
 C1911 C 0.47305 0.28520 0.67651
 N1912 N 0.47482 0.29304 0.65372
 N1913 N 0.45697 0.30495 0.64328
 C1914 C 0.43610 0.30981 0.65490
 H1915 H 0.42669 0.28346 0.74508
 H1916 H 0.39374 0.30469 0.72556
 H1917 H 0.48837 0.27615 0.68415
 H1918 H 0.42256 0.32012 0.64572
 C1919 C 0.43131 0.77513 0.20891
 C1920 C 0.41339 0.78763 0.19690
 C1921 C 0.41562 0.81208 0.19241
 C1922 C 0.43682 0.82400 0.19944
 C1923 C 0.45509 0.81131 0.21180
 C1924 C 0.45201 0.78671 0.21691
 C1925 C 0.47622 0.82356 0.21780
 N1926 N 0.47864 0.84689 0.21196
 N1927 N 0.46152 0.85873 0.20033
 C1928 C 0.44078 0.84807 0.19375
 H1929 H 0.42874 0.75631 0.21246
 H1930 H 0.39736 0.77827 0.19143
 H1931 H 0.49105 0.81481 0.22662
 H1932 H 0.42787 0.85842 0.18375
 C1933 C 0.93140 0.29660 0.22293
 C1934 C 0.91379 0.30930 0.21071
 C1935 C 0.91660 0.31475 0.18652
 C1936 C 0.93820 0.30816 0.17469
 C1937 C 0.95606 0.29494 0.18706
 C1938 C 0.95225 0.28865 0.21127
 C1939 C 0.97756 0.28929 0.17496
 N1940 N 0.98074 0.29633 0.15206
 N1941 N 0.96402 0.30881 0.14052
 C1942 C 0.94294 0.31508 0.15107
 H1943 H 0.92841 0.29249 0.24154
 H1944 H 0.89751 0.31447 0.22006
 H1945 H 0.99209 0.27980 0.18354
 H1946 H 0.93041 0.32585 0.14104
 C1947 C 0.93283 0.79355 0.72523
 C1948 C 0.91618 0.80696 0.71242
 C1949 C 0.92059 0.81326 0.68865
 C1950 C 0.94267 0.80659 0.67785
 C1951 C 0.95959 0.79275 0.69082
 C1952 C 0.95431 0.78586 0.71459
 C1953 C 0.98163 0.78704 0.67975
 N1954 N 0.98618 0.79459 0.65724
 N1955 N 0.97032 0.80763 0.64513
 C1956 C 0.94880 0.81399 0.65470
 H1957 H 0.92866 0.78867 0.74347
 H1958 H 0.89943 0.81209 0.72094
 H1959 H 0.99548 0.77703 0.68883
 H1960 H 0.93697 0.82516 0.64426
 C1961 C 0.57346 0.27125 0.29048
 C1962 C 0.59265 0.28245 0.30163
 C1963 C 0.59104 0.30644 0.30862
 C1964 C 0.56925 0.31915 0.30510
 C1965 C 0.54975 0.30783 0.29352
 C1966 C 0.55214 0.28378 0.28583
 C1967 C 0.52818 0.32078 0.29085
 N1968 N 0.52644 0.34348 0.29920
 N1969 N 0.54470 0.35402 0.31020
 C1970 C 0.56597 0.34262 0.31354
 H1971 H 0.57544 0.25277 0.28496
 H1972 H 0.60913 0.27249 0.30449
 H1973 H 0.51254 0.31302 0.28261
 H1974 H 0.57987 0.35187 0.32318
 C1975 C 0.57114 0.77177 0.78671
 C1976 C 0.59082 0.78228 0.79770
 C1977 C 0.59019 0.80636 0.80446
 C1978 C 0.56899 0.81994 0.80074
 C1979 C 0.54896 0.80925 0.78947
 C1980 C 0.55025 0.78504 0.78210
 C1981 C 0.52793 0.82295 0.78688
 N1982 N 0.52715 0.84585 0.79480
 N1983 N 0.54594 0.85587 0.80539
 C1984 C 0.56677 0.84367 0.80876
 H1985 H 0.57233 0.75315 0.78145
 H1986 H 0.60686 0.77169 0.80071
 H1987 H 0.51199 0.81551 0.77910
 H1988 H 0.58114 0.85254 0.81809
 C1989 C 0.07255 0.27096 0.79001
 C1990 C 0.09172 0.28136 0.80195
 C1991 C 0.09041 0.30509 0.80986
 C1992 C 0.06893 0.31833 0.80641
 C1993 C 0.04946 0.30783 0.79404
 C1994 C 0.05157 0.28406 0.78546
 C1995 C 0.02819 0.32128 0.79144
 N1996 N 0.02670 0.34368 0.80062
 N1997 N 0.04492 0.35345 0.81237
 C1998 C 0.06592 0.34152 0.81569
 H1999 H 0.07428 0.25267 0.78383
 H2000 H 0.10796 0.27099 0.80467
 H2001 H 0.01260 0.31413 0.78258
 H2002 H 0.07979 0.35013 0.82595
 C2003 C 0.04879 0.80641 0.29030
 C2004 C 0.06642 0.81854 0.30297
 C2005 C 0.08796 0.80717 0.30917
 C2006 C 0.09222 0.78331 0.30171
 C2007 C 0.07416 0.77081 0.28911
 C2008 C 0.05217 0.78249 0.28367
 C2009 C 0.07918 0.74728 0.28157
 N2010 N 0.10083 0.73718 0.28630
 N2011 N 0.11785 0.74904 0.29790
 C2012 C 0.11435 0.77176 0.30565
 H2013 H 0.03221 0.81564 0.28600
 H2014 H 0.06318 0.83690 0.30827
 H2015 H 0.06638 0.73692 0.27157
 H2016 H 0.12909 0.78065 0.31434
 C2017 C 0.56875 0.72938 0.70943
 C2018 C 0.58823 0.71832 0.69822
 C2019 C 0.58714 0.69435 0.69118
 C2020 C 0.56564 0.68149 0.69475
 C2021 C 0.54581 0.69275 0.70622
 C2022 C 0.54762 0.71676 0.71397
 C2023 C 0.52448 0.67983 0.70871
 N2024 N 0.52321 0.65707 0.70050
 N2025 N 0.54182 0.64648 0.68973
 C2026 C 0.56292 0.65795 0.68645
 H2027 H 0.57035 0.74784 0.71503
 H2028 H 0.60450 0.72838 0.69536
 H2029 H 0.50873 0.68785 0.71659
 H2030 H 0.57713 0.64869 0.67698
 C2031 C 0.56799 0.22664 0.20615
 C2032 C 0.58623 0.21491 0.19363
 C2033 C 0.58474 0.19048 0.18852
 C2034 C 0.56389 0.17783 0.19534
 C2035 C 0.54539 0.18969 0.20837
 C2036 C 0.54776 0.21424 0.21415
 C2037 C 0.52475 0.17667 0.21442
 N2038 N 0.52290 0.15344 0.20786
 N2039 N 0.54017 0.14240 0.19547
 C2040 C 0.56050 0.15381 0.18888
 H2041 H 0.57000 0.24545 0.21022
 H2042 H 0.60197 0.22484 0.18837
 H2043 H 0.50986 0.18477 0.22390
 H2044 H 0.57353 0.14411 0.17823
 C2045 C 0.05371 0.69278 0.20882
 C2046 C 0.07292 0.68110 0.19772
 C2047 C 0.09444 0.69305 0.19322
 C2048 C 0.09701 0.71700 0.20095
 C2049 C 0.07736 0.72905 0.21191
 C2050 C 0.05541 0.71683 0.21549
 C2051 C 0.08074 0.75272 0.21972
 N2052 N 0.10233 0.76335 0.21679
 N2053 N 0.12081 0.75192 0.20674
 C2054 C 0.11894 0.72910 0.19884
 H2055 H 0.03721 0.68310 0.21181
 H2056 H 0.07089 0.66269 0.19216
 H2057 H 0.06667 0.76278 0.22853
 H2058 H 0.13477 0.72056 0.19149
 C2059 C 0.06624 0.22766 0.70490
 C2060 C 0.08443 0.21567 0.69259
 C2061 C 0.08271 0.19124 0.68759
 C2062 C 0.06168 0.17885 0.69438
 C2063 C 0.04315 0.19102 0.70711
 C2064 C 0.04575 0.21559 0.71275
 C2065 C 0.02225 0.17831 0.71295
 N2066 N 0.02025 0.15503 0.70658
 N2067 N 0.03758 0.14368 0.69457
 C2068 C 0.05813 0.15480 0.68814
 H2069 H 0.06846 0.24647 0.70887
 H2070 H 0.10031 0.22540 0.68734
 H2071 H 0.00726 0.18667 0.72207
 H2072 H 0.07122 0.14485 0.67780
 C2073 C 0.42507 0.72859 0.29107
 C2074 C 0.40566 0.71735 0.30195
 C2075 C 0.40757 0.69370 0.30979
 C2076 C 0.42977 0.68146 0.30756
 C2077 C 0.44953 0.69292 0.29662
 C2078 C 0.44692 0.71645 0.28780
 C2079 C 0.47159 0.68067 0.29563
 N2080 N 0.47354 0.65830 0.30461
 N2081 N 0.45493 0.64747 0.31474
 C2082 C 0.43315 0.65832 0.31664
 H2083 H 0.42288 0.74670 0.28469
 H2084 H 0.38881 0.72695 0.30385
 H2085 H 0.48735 0.68896 0.28834
 H2086 H 0.41889 0.64891 0.32560
 C2087 C 0.43427 0.22383 0.79350
 C2088 C 0.41621 0.21167 0.80550
 C2089 C 0.41825 0.18714 0.80984
 C2090 C 0.43946 0.17483 0.80288
 C2091 C 0.45784 0.18716 0.79051
 C2092 C 0.45487 0.21179 0.78537
 C2093 C 0.47894 0.17451 0.78445
 N2094 N 0.48125 0.15114 0.79029
 N2095 N 0.46403 0.13963 0.80198
 C2096 C 0.44331 0.15069 0.80859
 H2097 H 0.43181 0.24269 0.78990
 H2098 H 0.40019 0.22132 0.81097
 H2099 H 0.49383 0.18300 0.77557
 H2100 H 0.43032 0.14059 0.81863
 C2101 C 0.92603 0.72536 0.79003
 C2102 C 0.90698 0.71385 0.80123
 C2103 C 0.90888 0.68981 0.80781
 C2104 C 0.93072 0.67735 0.80377
 C2105 C 0.95005 0.68901 0.79226
 C2106 C 0.94748 0.71311 0.78499
 C2107 C 0.97172 0.67638 0.78929
 N2108 N 0.97378 0.65359 0.79711
 N2109 N 0.95565 0.64266 0.80796
 C2110 C 0.93426 0.65379 0.81169
 H2111 H 0.92387 0.74388 0.78489
 H2112 H 0.89045 0.72363 0.80451
 H2113 H 0.98713 0.68462 0.78129
 H2114 H 0.92048 0.64425 0.82122
 C2115 C 0.94893 0.19164 0.28330
 C2116 C 0.93082 0.17893 0.29468
 C2117 C 0.90934 0.19020 0.30153
 C2118 C 0.90566 0.21459 0.29585
 C2119 C 0.92431 0.22770 0.28478
 C2120 C 0.94624 0.21609 0.27874
 C2121 C 0.91996 0.25185 0.27933
 N2122 N 0.89836 0.26196 0.28442
 N2123 N 0.88072 0.24953 0.29439
 C2124 C 0.88357 0.22620 0.30013
 H2125 H 0.96543 0.18242 0.27851
 H2126 H 0.93373 0.16023 0.29866
 H2127 H 0.93334 0.26272 0.27078
 H2128 H 0.86833 0.21690 0.30745
 C2129 C 0.27064 0.29213 0.57197
 C2130 C 0.28229 0.30380 0.59057
 C2131 C 0.30653 0.30994 0.58862
 C2132 C 0.31904 0.30509 0.56709
 C2133 C 0.30726 0.29307 0.54818
 C2134 C 0.28297 0.28616 0.55095
 C2135 C 0.32004 0.28916 0.52678
 N2136 N 0.34302 0.29671 0.52470
 N2137 N 0.35402 0.30805 0.54245
 C2138 C 0.34280 0.31259 0.56350
 H2139 H 0.25198 0.28726 0.57420
 H2140 H 0.27249 0.30766 0.60688
 H2141 H 0.31193 0.28058 0.51154
 H2142 H 0.35244 0.32244 0.57700
 C2143 C 0.27753 0.79517 0.07145
 C2144 C 0.28941 0.80744 0.08949
 C2145 C 0.31359 0.81370 0.08700
 C2146 C 0.32581 0.80809 0.06545
 C2147 C 0.31378 0.79537 0.04711
 C2148 C 0.28951 0.78858 0.05040
 C2149 C 0.32628 0.79071 0.02570
 N2150 N 0.34922 0.79822 0.02304
 N2151 N 0.36042 0.81025 0.04019
 C2152 C 0.34948 0.81557 0.06121
 H2153 H 0.25891 0.79036 0.07414
 H2154 H 0.27980 0.81177 0.10579
 H2155 H 0.31799 0.78160 0.01087
 H2156 H 0.35925 0.82599 0.07414
 C2157 C 0.79839 0.27614 0.06578
 C2158 C 0.81038 0.28862 0.08357
 C2159 C 0.81372 0.31331 0.08191
 C2160 C 0.80578 0.32546 0.06121
 C2161 C 0.79309 0.31282 0.04326
 C2162 C 0.78890 0.28800 0.04595
 C2163 C 0.78591 0.32538 0.02274
 N2164 N 0.79111 0.34888 0.02050
 N2165 N 0.80321 0.36062 0.03723
 C2166 C 0.81085 0.34970 0.05740
 H2167 H 0.79598 0.25712 0.06790
 H2168 H 0.81667 0.27901 0.09910
 H2169 H 0.77669 0.31675 0.00820
 H2170 H 0.82131 0.35998 0.06990
 C2171 C 0.79568 0.80984 0.54893
 C2172 C 0.80791 0.82197 0.56688
 C2173 C 0.81539 0.81014 0.58755
 C2174 C 0.80979 0.78568 0.59051
 C2175 C 0.79784 0.77315 0.57201
 C2176 C 0.79085 0.78542 0.55097
 C2177 C 0.79239 0.74893 0.57575
 N2178 N 0.79830 0.73826 0.59660
 N2179 N 0.80908 0.75016 0.61409
 C2180 C 0.81486 0.77350 0.61184
 H2181 H 0.79018 0.81955 0.53316
 H2182 H 0.81176 0.84075 0.56462
 H2183 H 0.78321 0.73838 0.56256
 H2184 H 0.82285 0.78232 0.62699
 C2185 C 0.30027 0.70790 0.45070
 C2186 C 0.31164 0.69706 0.43127
 C2187 C 0.29938 0.69346 0.40980
 C2188 C 0.27533 0.70155 0.40764
 C2189 C 0.26360 0.71227 0.42751
 C2190 C 0.27622 0.71522 0.44929
 C2191 C 0.23988 0.72061 0.42450
 N2192 N 0.22890 0.71836 0.40307
 N2193 N 0.24004 0.70852 0.38438
 C2194 C 0.26288 0.70017 0.38589
 H2195 H 0.31026 0.71045 0.46707
 H2196 H 0.33014 0.69124 0.43296
 H2197 H 0.23003 0.72927 0.43875
 H2198 H 0.27116 0.69302 0.36992
 C2199 C 0.28012 0.20057 0.93287
 C2200 C 0.29222 0.18893 0.91441
 C2201 C 0.31663 0.18318 0.91639
 C2202 C 0.32893 0.18865 0.93780
 C2203 C 0.31665 0.20074 0.95658
 C2204 C 0.29211 0.20698 0.95383
 C2205 C 0.32922 0.20540 0.97782
 N2206 N 0.35249 0.19844 0.97992
 N2207 N 0.36394 0.18698 0.96235
 C2208 C 0.35294 0.18173 0.94145
 H2209 H 0.26133 0.20514 0.93053
 H2210 H 0.28258 0.18475 0.89819
 H2211 H 0.32074 0.21409 0.99292
 H2212 H 0.36295 0.17181 0.92813
 C2213 C 0.80263 0.70661 0.94961
 C2214 C 0.81412 0.69519 0.93056
 C2215 C 0.80204 0.69114 0.90907
 C2216 C 0.77811 0.69944 0.90644
 C2217 C 0.76630 0.71084 0.92589
 C2218 C 0.77868 0.71412 0.94774
 C2219 C 0.74275 0.71945 0.92243
 N2220 N 0.73193 0.71670 0.90097
 N2221 N 0.74310 0.70615 0.88268
 C2222 C 0.76583 0.69757 0.88463
 H2223 H 0.81243 0.70937 0.96606
 H2224 H 0.83253 0.68922 0.93260
 H2225 H 0.73292 0.72866 0.93636
 H2226 H 0.77416 0.68983 0.86896
 C2227 C 0.81029 0.20252 0.44866
 C2228 C 0.82220 0.19026 0.43041
 C2229 C 0.81046 0.18476 0.40908
 C2230 C 0.78642 0.19243 0.40572
 C2231 C 0.77418 0.20476 0.42434
 C2232 C 0.78623 0.20950 0.44611
 C2233 C 0.75056 0.21278 0.42007
 N2234 N 0.74008 0.20857 0.39868
 N2235 N 0.75163 0.19708 0.38121
 C2236 C 0.77445 0.18898 0.38394
 H2237 H 0.81985 0.20636 0.46502
 H2238 H 0.84072 0.18483 0.43293
 H2239 H 0.74043 0.22273 0.43327
 H2240 H 0.78308 0.18034 0.36890
 C2241 C 0.69860 0.28818 0.44817
 C2242 C 0.68711 0.29989 0.42947
 C2243 C 0.69917 0.30424 0.40799
 C2244 C 0.72308 0.29596 0.40499
 C2245 C 0.73490 0.28425 0.42408
 C2246 C 0.72254 0.28065 0.44595
 C2247 C 0.75843 0.27567 0.42021
 N2248 N 0.76919 0.27870 0.39872
 N2249 N 0.75801 0.28955 0.38078
 C2250 C 0.73531 0.29817 0.38313
 H2251 H 0.68882 0.28519 0.46462
 H2252 H 0.66869 0.30581 0.43175
 H2253 H 0.76828 0.26621 0.43381
 H2254 H 0.72697 0.30621 0.36773
 C2255 C 0.72641 0.79067 0.93086
 C2256 C 0.71557 0.80170 0.91144
 C2257 C 0.69105 0.80736 0.91176
 C2258 C 0.67735 0.80260 0.93254
 C2259 C 0.68834 0.79112 0.95229
 C2260 C 0.71302 0.78482 0.95117
 C2261 C 0.67434 0.78712 0.97281
 N2262 N 0.65099 0.79412 0.97336
 N2263 N 0.64076 0.80503 0.95489
 C2264 C 0.65316 0.80964 0.93458
 H2265 H 0.74530 0.78603 0.92973
 H2266 H 0.72627 0.80541 0.89574
 H2267 H 0.68178 0.77893 0.98859
 H2268 H 0.64407 0.81916 0.92050
 C2269 C 0.19835 0.28081 0.94843
 C2270 C 0.18719 0.29173 0.92906
 C2271 C 0.19982 0.29579 0.90783
 C2272 C 0.22391 0.28776 0.90571
 C2273 C 0.23537 0.27688 0.92547
 C2274 C 0.22251 0.27382 0.94712
 C2275 C 0.25916 0.26864 0.92255
 N2276 N 0.27049 0.27123 0.90128
 N2277 N 0.25963 0.28130 0.88270
 C2278 C 0.23672 0.28953 0.88414
 H2279 H 0.18821 0.27823 0.96473
 H2280 H 0.16867 0.29754 0.93073
 H2281 H 0.26876 0.25982 0.93675
 H2282 H 0.22866 0.29689 0.86826
 C2283 C 0.18899 0.79351 0.45485
 C2284 C 0.17684 0.80555 0.43679
 C2285 C 0.18816 0.81038 0.41504
 C2286 C 0.21199 0.80224 0.41108
 C2287 C 0.22451 0.79026 0.42955
 C2288 C 0.21288 0.78615 0.45170
 C2289 C 0.24798 0.78194 0.42480
 N2290 N 0.25799 0.78540 0.40302
 N2291 N 0.24613 0.79645 0.38564
 C2292 C 0.22346 0.80486 0.38887
 H2293 H 0.17976 0.79014 0.47153
 H2294 H 0.15849 0.81139 0.43980
 H2295 H 0.25834 0.77235 0.43793
 H2296 H 0.21455 0.81306 0.37387
 C2297 C 0.72966 0.71301 0.57242
 C2298 C 0.71769 0.70149 0.59082
 C2299 C 0.69336 0.69578 0.58878
 C2300 C 0.68105 0.70108 0.56734
 C2301 C 0.69317 0.71310 0.54865
 C2302 C 0.71761 0.71941 0.55150
 C2303 C 0.68061 0.71754 0.52735
 N2304 N 0.65751 0.71042 0.52511
 N2305 N 0.64621 0.69900 0.54259
 C2306 C 0.65721 0.69397 0.56355
 H2307 H 0.74841 0.71733 0.57474
 H2308 H 0.72737 0.69727 0.60701
 H2309 H 0.68896 0.72619 0.51231
 H2310 H 0.64733 0.68405 0.57678
 C2311 C 0.69388 0.21218 0.04972
 C2312 C 0.68191 0.20057 0.06819
 C2313 C 0.69359 0.19544 0.08969
 C2314 C 0.71755 0.20309 0.09301
 C2315 C 0.72993 0.21437 0.07405
 C2316 C 0.71799 0.21867 0.05214
 C2317 C 0.75367 0.22178 0.07801
 N2318 N 0.76407 0.21835 0.09957
 N2319 N 0.75228 0.20820 0.11751
 C2320 C 0.72936 0.20061 0.11503
 H2321 H 0.68443 0.21562 0.03321
 H2322 H 0.66348 0.19514 0.06559
 H2323 H 0.76396 0.23056 0.06434
 H2324 H 0.72053 0.19324 0.13048
 C2325 C 0.23013 0.70758 0.06936
 C2326 C 0.21822 0.69470 0.08693
 C2327 C 0.19374 0.68965 0.08484
 C2328 C 0.18123 0.69689 0.06410
 C2329 C 0.19330 0.71008 0.04619
 C2330 C 0.21787 0.71589 0.04920
 C2331 C 0.18048 0.71623 0.02545
 N2332 N 0.15719 0.70979 0.02312
 N2333 N 0.14590 0.69743 0.03996
 C2334 C 0.15714 0.69066 0.06028
 H2335 H 0.24897 0.71157 0.07178
 H2336 H 0.22801 0.68909 0.10263
 H2337 H 0.18877 0.72566 0.01086
 H2338 H 0.14726 0.68007 0.07297
 C2339 C 0.20330 0.22769 0.56672
 C2340 C 0.19114 0.21570 0.58475
 C2341 C 0.18641 0.19125 0.58283
 C2342 C 0.19322 0.17886 0.56173
 C2343 C 0.20582 0.19101 0.54340
 C2344 C 0.21127 0.21556 0.54624
 C2345 C 0.21176 0.17828 0.52247
 N2346 N 0.20556 0.15502 0.52024
 N2347 N 0.19364 0.14369 0.53737
 C2348 C 0.18713 0.15483 0.55795
 H2349 H 0.20713 0.24649 0.56910
 H2350 H 0.18587 0.22544 0.60068
 H2351 H 0.22082 0.18663 0.50766
 H2352 H 0.17686 0.14490 0.57086
   
