data_POSCAR
  _audit_creation_date              2014-09-24
  _audit_creation_method            'ToBaCCo'
  _symmetry_space_group_name_H-M    'P1'
  _symmetry_Int_Tables_number       1
  _symmetry_cell_setting            triclinic
  loop_
  _symmetry_equiv_pos_as_xyz
 x,y,z
_cell_length_a 48.5442
_cell_length_b 48.7043
_cell_length_c 61.8416
_cell_angle_alpha 88.539300
_cell_angle_beta 91.323300
_cell_angle_gamma 90.666100
loop_
  _atom_site_label
  _atom_site_type_symbol
  _atom_site_fract_x
  _atom_site_fract_y
  _atom_site_fract_z
C1 C 1.20444 0.26147 0.28542
 H2 H 1.20588 0.23932 0.28548
 C3 C 1.18882 0.27417 0.30093
 H4 H 1.17808 0.26177 0.31292
 C5 C 1.21731 0.30477 0.27013
 H6 H 1.22886 0.31663 0.25838
 C7 C 1.20192 0.31829 0.28538
 H8 H 1.20147 0.34053 0.28519
 N9 N 1.21819 0.27683 0.27037
 C10 C 1.23171 0.22149 0.21728
 H11 H 1.25382 0.22368 0.21599
 C12 C 1.21693 0.20486 0.20296
 H13 H 1.22767 0.19412 0.19061
 C14 C 1.19059 0.23321 0.23471
 H15 H 1.18036 0.24463 0.24687
 C16 C 1.17502 0.21677 0.22068
 H17 H 1.15285 0.21540 0.22219
 Zn18 Zn 1.24039 0.25780 0.25098
 N19 N 1.21846 0.23507 0.23288
 C20 C 1.26554 0.20837 0.26657
 N21 N 1.26531 0.23621 0.26806
 C22 C 1.28177 0.24931 0.28273
 C23 C 1.29960 0.23436 0.29650
 C24 C 1.28305 0.19261 0.28002
 C25 C 1.24454 0.29837 0.21826
 C26 C 1.25755 0.31554 0.20310
 C27 C 1.30158 0.30010 0.21745
 C28 C 1.28775 0.28320 0.23235
 N29 N 1.25971 0.28266 0.23251
 H30 H 1.25184 0.19825 0.25523
 H31 H 1.28082 0.27141 0.28384
 H32 H 1.31249 0.24507 0.30818
 H33 H 1.28287 0.17044 0.27875
 H34 H 1.22227 0.29716 0.21846
 H35 H 1.24530 0.32771 0.19165
 H36 H 1.32389 0.30014 0.21723
 H37 H 1.29946 0.27009 0.24340
 C38 C 1.18834 0.20245 0.20469
 C39 C 1.18761 0.30284 0.30095
 C40 C 1.28634 0.31630 0.20261
 C41 C 1.30022 0.20571 0.29516
 C42 C 0.69627 -0.23355 0.27973
 H43 H 0.69518 -0.25576 0.28040
 C44 C 0.67919 -0.21832 0.29262
 H45 H 0.66481 -0.22877 0.30324
 C46 C 0.71712 -0.19274 0.26573
 H47 H 0.73239 -0.18287 0.25566
 C48 C 0.70043 -0.17673 0.27837
 H49 H 0.70272 -0.15457 0.27785
 N50 N 0.71471 -0.22062 0.26661
 C51 C 0.73364 -0.28047 0.21810
 H52 H 0.75577 -0.28161 0.22033
 C53 C 0.72047 -0.29487 0.20151
 H54 H 0.73243 -0.30734 0.19100
 C55 C 0.69108 -0.26192 0.22847
 H56 H 0.67981 -0.24848 0.23861
 C57 C 0.67711 -0.27597 0.21206
 H58 H 0.65506 -0.27359 0.20979
 Zn59 Zn 0.73874 -0.24294 0.25135
 N60 N 0.71886 -0.26440 0.23116
 C61 C 0.75603 -0.29312 0.27196
 N62 N 0.75752 -0.26520 0.27222
 C63 C 0.77121 -0.25195 0.28839
 C64 C 0.78439 -0.26686 0.30510
 C65 C 0.76895 -0.30884 0.28840
 C66 C 0.75299 -0.20503 0.21906
 C67 C 0.77022 -0.18923 0.20584
 C68 C 0.80952 -0.20691 0.22626
 C69 C 0.79152 -0.22239 0.23915
 N70 N 0.76382 -0.22106 0.23540
 H71 H 0.74451 -0.30323 0.25925
 H72 H 0.77164 -0.22974 0.28837
 H73 H 0.79516 -0.25613 0.31796
 H74 H 0.76760 -0.33105 0.28820
 H75 H 0.73092 -0.20475 0.21623
 H76 H 0.76144 -0.17665 0.19279
 H77 H 0.83156 -0.20821 0.22918
 H78 H 0.79974 -0.23576 0.25186
 C79 C 0.69199 -0.29242 0.19838
 C80 C 0.68142 -0.18968 0.29200
 C81 C 0.79872 -0.19024 0.20945
 C82 C 0.78319 -0.29554 0.30513
 C83 C 0.71002 0.26550 -0.21557
 H84 H 0.70994 0.24328 -0.21505
 C85 C 0.69650 0.27981 -0.19974
 H86 H 0.68583 0.26861 -0.18704
 C87 C 0.72481 0.30731 -0.23233
 H88 H 0.73636 0.31793 -0.24476
 C89 C 0.71156 0.32242 -0.21678
 H90 H 0.71271 0.34466 -0.21743
 N91 N 0.72373 0.27935 -0.23148
 C92 C 0.73116 0.22090 -0.28320
 H93 H 0.75323 0.22196 -0.28519
 C94 C 0.71494 0.20433 -0.29658
 H95 H 0.72452 0.19252 -0.30891
 C96 C 0.69162 0.23537 -0.26493
 H97 H 0.68260 0.24782 -0.25279
 C98 C 0.67460 0.21904 -0.27802
 H99 H 0.65253 0.21877 -0.27583
 Zn100 Zn 0.74348 0.25814 -0.25101
 N101 N 0.71938 0.23580 -0.26763
 C102 C 0.76630 0.20806 -0.23467
 N103 N 0.76804 0.23596 -0.23417
 C104 C 0.78613 0.24876 -0.22051
 C105 C 0.80355 0.23336 -0.20673
 C106 C 0.78334 0.19191 -0.22116
 C107 C 0.74761 0.29681 -0.28493
 C108 C 0.76039 0.31250 -0.30112
 C109 C 0.80442 0.29520 -0.28815
 C110 C 0.79078 0.27984 -0.27219
 N111 N 0.76286 0.28093 -0.27087
 H112 H 0.75132 0.19823 -0.24517
 H113 H 0.78673 0.27095 -0.22016
 H114 H 0.81772 0.24370 -0.19577
 H115 H 0.78163 0.16972 -0.22149
 H116 H 0.72541 0.29687 -0.28376
 H117 H 0.74793 0.32482 -0.31235
 H118 H 0.82663 0.29389 -0.28920
 H119 H 0.80247 0.26658 -0.26123
 C120 C 0.68642 0.20337 -0.29396
 C121 C 0.69738 0.30853 -0.20030
 C122 C 0.78907 0.31158 -0.30284
 C123 C 0.80205 0.20468 -0.20701
 C124 C 1.20364 -0.23026 -0.21732
 H125 H 1.20366 -0.25246 -0.21600
 C126 C 1.18677 -0.21525 -0.20414
 H127 H 1.17365 -0.22587 -0.19263
 C128 C 1.22132 -0.18922 -0.23350
 H129 H 1.23522 -0.17916 -0.24463
 C130 C 1.20476 -0.17340 -0.22059
 H131 H 1.20577 -0.15119 -0.22193
 N132 N 1.22034 -0.21713 -0.23171
 C133 C 1.23619 -0.27860 -0.27968
 H134 H 1.25846 -0.27929 -0.27875
 C135 C 1.22171 -0.29410 -0.29497
 H136 H 1.23281 -0.30696 -0.30577
 C137 C 1.19450 -0.26018 -0.26737
 H138 H 1.18400 -0.24640 -0.25701
 C139 C 1.17925 -0.27533 -0.28242
 H140 H 1.15703 -0.27343 -0.28340
 Zn141 Zn 1.24360 -0.23938 -0.24772
 N142 N 1.22246 -0.26210 -0.26626
 C143 C 1.26402 -0.28830 -0.22688
 N144 N 1.26464 -0.26034 -0.22736
 C145 C 1.27922 -0.24603 -0.21225
 C146 C 1.29424 -0.25984 -0.19593
 C147 C 1.27878 -0.30295 -0.21078
 C148 C 1.25444 -0.20227 -0.28155
 C149 C 1.27034 -0.18664 -0.29591
 C150 C 1.31138 -0.20302 -0.27708
 C151 C 1.29471 -0.21835 -0.26304
 N152 N 1.26677 -0.21757 -0.26545
 H153 H 1.25180 -0.29926 -0.23873
 H154 H 1.27895 -0.22381 -0.21282
 H155 H 1.30571 -0.24827 -0.18392
 H156 H 1.27812 -0.32519 -0.21039
 H157 H 1.23222 -0.20243 -0.28331
 H158 H 1.26037 -0.17461 -0.30876
 H159 H 1.33360 -0.20386 -0.27519
 H160 H 1.30413 -0.23116 -0.25049
 C161 C 1.19300 -0.29231 -0.29641
 C162 C 1.18739 -0.18658 -0.20577
 C163 C 1.29905 -0.18708 -0.29367
 C164 C 1.29396 -0.28854 -0.19516
 C165 C 0.26379 0.19995 0.71803
 H166 H 0.24153 0.20100 0.71771
 C167 C 0.27709 0.18333 0.70357
 H168 H 0.26510 0.17144 0.69208
 C169 C 0.30673 0.21486 0.73291
 H170 H 0.31822 0.22762 0.74402
 C171 C 0.32085 0.19852 0.71871
 H172 H 0.34318 0.19855 0.71907
 N173 N 0.27869 0.21518 0.73238
 C174 C 0.22236 0.23235 0.78408
 H175 H 0.22420 0.25451 0.78427
 C176 C 0.20550 0.21852 0.79884
 H177 H 0.19425 0.23008 0.81044
 C178 C 0.23509 0.19021 0.76889
 H179 H 0.24695 0.17925 0.75742
 C180 C 0.21847 0.17556 0.78339
 H181 H 0.21744 0.15334 0.78289
 Zn182 Zn 0.25902 0.23863 0.75021
 N183 N 0.23647 0.21813 0.76934
 C184 C 0.20945 0.26252 0.73348
 N185 N 0.23733 0.26155 0.73171
 C186 C 0.25059 0.27636 0.71608
 C187 C 0.23581 0.29355 0.70175
 C188 C 0.19389 0.27945 0.71946
 C189 C 0.29969 0.24677 0.78232
 C190 C 0.31740 0.26166 0.79585
 C191 C 0.30114 0.30358 0.77839
 C192 C 0.28373 0.28792 0.76518
 N193 N 0.28347 0.26003 0.76725
 H194 H 0.19920 0.25010 0.74563
 H195 H 0.27271 0.27484 0.71484
 H196 H 0.24654 0.30539 0.68942
 H197 H 0.17172 0.28020 0.72097
 H198 H 0.29869 0.22461 0.78386
 H199 H 0.33017 0.25099 0.80788
 H200 H 0.30112 0.32578 0.77674
 H201 H 0.27020 0.29815 0.75354
 C202 C 0.20348 0.18987 0.79845
 C203 C 0.30588 0.18270 0.70389
 C204 C 0.31810 0.29032 0.79385
 C205 C 0.20723 0.29515 0.70352
 C206 C 0.76488 0.69828 0.71639
 H207 H 0.74267 0.69756 0.71453
 C208 C 0.78115 0.68277 0.70303
 H209 H 0.77147 0.67001 0.69087
 C210 C 0.80472 0.71616 0.73421
 H211 H 0.81387 0.72953 0.74612
 C212 C 0.82175 0.70099 0.72117
 H213 H 0.84393 0.70256 0.72321
 N214 N 0.77680 0.71437 0.73174
 C215 C 0.71376 0.72457 0.78011
 H216 H 0.71353 0.74674 0.78076
 C217 C 0.69690 0.70878 0.79370
 H218 H 0.68361 0.71887 0.80481
 C219 C 0.73173 0.68437 0.76510
 H220 H 0.74563 0.67492 0.75420
 C221 C 0.71520 0.66778 0.77843
 H222 H 0.71632 0.64563 0.77757
 Zn223 Zn 0.75321 0.73545 0.74871
 N224 N 0.73052 0.71224 0.76603
 C225 C 0.70327 0.75560 0.72938
 N226 N 0.73129 0.75743 0.72939
 C227 C 0.74451 0.77441 0.71510
 C228 C 0.72947 0.79092 0.70039
 C229 C 0.68745 0.77175 0.71492
 C230 C 0.78964 0.74508 0.78357
 C231 C 0.80473 0.76043 0.79863
 C232 C 0.78722 0.80191 0.78131
 C233 C 0.77245 0.78579 0.76656
 N234 N 0.77408 0.75789 0.76784
 H235 H 0.69311 0.74154 0.74045
 H236 H 0.76680 0.77516 0.71522
 H237 H 0.74017 0.80449 0.68917
 H238 H 0.66517 0.77023 0.71507
 H239 H 0.79020 0.72288 0.78446
 H240 H 0.81702 0.75005 0.81111
 H241 H 0.78574 0.82408 0.78023
 H242 H 0.75947 0.79561 0.75433
 C243 C 0.69759 0.68011 0.79284
 C244 C 0.80985 0.68413 0.70545
 C245 C 0.80349 0.78911 0.79748
 C246 C 0.70066 0.78964 0.70035
 C247 C 0.77386 0.20743 0.22134
 H248 H 0.75159 0.20708 0.22169
 C249 C 0.78750 0.19120 0.20681
 H250 H 0.77574 0.17817 0.19596
 C251 C 0.81645 0.22543 0.23460
 H252 H 0.82762 0.23921 0.24513
 C253 C 0.83090 0.20953 0.22029
 H254 H 0.85318 0.21090 0.21997
 N255 N 0.78844 0.22397 0.23495
 C256 C 0.73317 0.23858 0.28789
 H257 H 0.73366 0.26079 0.28783
 C258 C 0.71731 0.22401 0.30293
 H259 H 0.70547 0.23499 0.31450
 C260 C 0.74800 0.19704 0.27291
 H261 H 0.76020 0.18660 0.26135
 C262 C 0.73242 0.18167 0.28769
 H263 H 0.73246 0.15945 0.28735
 Zn264 Zn 0.76806 0.24650 0.25301
 N265 N 0.74774 0.22499 0.27306
 C266 C 0.71617 0.26609 0.23725
 N267 N 0.74397 0.26734 0.23480
 C268 C 0.75539 0.28272 0.21859
 C269 C 0.73872 0.29815 0.20431
 C270 C 0.69875 0.28121 0.22330
 C271 C 0.80955 0.25815 0.28371
 C272 C 0.82691 0.27451 0.29644
 C273 C 0.80707 0.31481 0.27891
 C274 C 0.79008 0.29772 0.26650
 N275 N 0.79176 0.26993 0.26899
 H276 H 0.70741 0.25321 0.24984
 H277 H 0.77751 0.28295 0.21680
 H278 H 0.74797 0.31041 0.19148
 H279 H 0.67665 0.28014 0.22533
 H280 H 0.81010 0.23602 0.28560
 H281 H 0.84094 0.26500 0.30818
 H282 H 0.80551 0.33691 0.27694
 H283 H 0.77535 0.30673 0.25515
 C284 C 0.71680 0.19532 0.30272
 C285 C 0.81626 0.19231 0.20626
 C286 C 0.82562 0.30309 0.29399
 C287 C 0.71016 0.29741 0.20673
 C288 C 0.27242 0.70090 0.21513
 H289 H 0.25015 0.70106 0.21391
 C290 C 0.28731 0.68392 0.20192
 H291 H 0.27651 0.67090 0.19049
 C292 C 0.31377 0.71800 0.23124
 H293 H 0.32402 0.73160 0.24244
 C294 C 0.32946 0.70133 0.21830
 H295 H 0.35174 0.70200 0.21969
 N296 N 0.28575 0.71730 0.22957
 C297 C 0.22575 0.73206 0.27927
 H298 H 0.22629 0.75428 0.27925
 C299 C 0.20890 0.71751 0.29364
 H300 H 0.19636 0.72852 0.30473
 C301 C 0.24166 0.69051 0.26502
 H302 H 0.25473 0.68004 0.25407
 C303 C 0.22511 0.67516 0.27915
 H304 H 0.22530 0.65293 0.27891
 Zn305 Zn 0.26377 0.74003 0.24644
 N306 N 0.24143 0.71846 0.26515
 C307 C 0.21344 0.76007 0.22798
 N308 N 0.24143 0.76140 0.22708
 C309 C 0.25419 0.77734 0.21185
 C310 C 0.23870 0.79334 0.19707
 C311 C 0.19719 0.77572 0.21351
 C312 C 0.30199 0.75074 0.27986
 C313 C 0.31764 0.76661 0.29422
 C314 C 0.29990 0.80753 0.27611
 C315 C 0.28460 0.79087 0.26210
 N316 N 0.28600 0.76302 0.26413
 H317 H 0.20362 0.74678 0.23980
 H318 H 0.27645 0.77768 0.21127
 H319 H 0.24902 0.80610 0.18508
 H320 H 0.17494 0.77463 0.21438
 H321 H 0.30230 0.72857 0.28138
 H322 H 0.33014 0.75654 0.30675
 H323 H 0.29841 0.82968 0.27442
 H324 H 0.27125 0.80027 0.24990
 C325 C 0.20852 0.68881 0.29352
 C326 C 0.31609 0.68410 0.20355
 C327 C 0.31653 0.79529 0.29237
 C328 C 0.20994 0.79257 0.19797
 O329 O 1.04869 0.02867 0.01646
 O330 O 0.94480 -0.03415 0.01583
 O331 O 0.96428 0.04984 0.01247
 O332 O 1.02907 -0.05544 0.01495
 O333 O 0.94957 0.01210 0.02556
 O334 O 1.04355 -0.01788 0.02755
 O335 O 0.98321 -0.04991 0.02773
 O336 O 1.01048 0.04462 0.02662
 C337 C 1.03527 0.04092 0.03019
 C338 C 0.95855 -0.04591 0.03059
 C339 C 0.95282 0.03698 0.02742
 C340 C 1.04120 -0.04294 0.02970
 O341 O 1.04804 -0.03311 -0.01491
 O342 O 0.94466 0.02814 -0.01743
 O343 O 1.02929 0.05064 -0.01409
 O344 O 0.96367 -0.05569 -0.01331
 O345 O 0.94938 -0.01823 -0.02714
 O346 O 1.04356 0.01323 -0.02604
 O347 O 1.00953 -0.04932 -0.02626
 O348 O 0.98304 0.04483 -0.02804
 Co349 Co 1.04129 -0.00231 0.00071
 Co350 Co 0.95176 -0.00299 -0.00074
 Co351 Co 0.99675 0.04253 -0.00069
 Co352 Co 0.99639 -0.04761 0.00070
 O353 O 0.99655 -0.00258 -0.00000
 C354 C 1.03420 -0.04484 -0.02930
 C355 C 0.95821 0.04084 -0.03150
 C356 C 1.04097 0.03817 -0.02850
 C357 C 0.95183 -0.04321 -0.02857
 O358 O 1.05244 0.52566 0.52516
 O359 O 0.94042 0.47561 0.50643
 O360 O 0.97950 0.55357 0.51981
 O361 O 1.01912 0.45916 0.53245
 O362 O 0.96039 0.51491 0.52797
 O363 O 1.05698 0.47523 0.51983
 O364 O 0.97243 0.46408 0.52750
 O365 O 1.02805 0.55893 0.51064
 C366 C 1.04437 0.54983 0.52520
 C367 C 0.94778 0.46177 0.52246
 C368 C 0.96627 0.53882 0.53288
 C369 C 1.04435 0.46204 0.53399
 O370 O 1.05338 0.48241 0.47845
 O371 O 0.93215 0.52538 0.49360
 O372 O 1.01470 0.54489 0.46927
 O373 O 0.97662 0.45433 0.48330
 O374 O 0.96155 0.49432 0.47203
 O375 O 1.05407 0.53379 0.48313
 O376 O 1.02658 0.44851 0.49000
 O377 O 0.96712 0.54351 0.47718
 Co378 Co 1.04943 0.50429 0.50166
 Co379 Co 0.96250 0.50541 0.49996
 Co380 Co 0.99785 0.54609 0.49502
 Co381 Co 0.99883 0.46017 0.50766
 O382 O 1.00405 0.50269 0.50177
 C383 C 1.04485 0.45805 0.47745
 C384 C 0.94171 0.54479 0.48120
 C385 C 1.03999 0.54332 0.46764
 C386 C 0.96568 0.46950 0.46862
 O387 O 0.54572 0.01479 0.52750
 O388 O 0.45111 -0.01354 0.52291
 O389 O 0.48398 0.04748 0.52383
 O390 O 0.51343 -0.04624 0.52608
 O391 O 0.44667 0.03272 0.50977
 O392 O 0.55193 -0.03094 0.51533
 O393 O 0.46741 -0.05129 0.51265
 O394 O 0.53084 0.05297 0.51484
 C395 C 0.54183 0.03945 0.53004
 C396 C 0.45477 -0.03826 0.52633
 C397 C 0.45897 0.04389 0.52512
 C398 C 0.53839 -0.04346 0.52938
 O399 O 0.54836 -0.01176 0.47366
 O400 O 0.45403 0.01553 0.46878
 O401 O 0.51630 0.04866 0.47185
 O402 O 0.48605 -0.04548 0.47127
 O403 O 0.44764 -0.03095 0.48153
 O404 O 0.55342 0.03394 0.48632
 O405 O 0.53190 -0.05013 0.48467
 O406 O 0.46938 0.05341 0.48085
 Co407 Co 0.54496 0.00147 0.50047
 Co408 Co 0.45476 0.00096 0.49598
 Co409 Co 0.50011 0.04591 0.49787
 Co410 Co 0.49972 -0.04358 0.49864
 O411 O 0.49987 0.00118 0.49824
 C412 C 0.54411 -0.03633 0.47052
 C413 C 0.45774 0.04044 0.46602
 C414 C 0.54136 0.04575 0.47081
 C415 C 0.46121 -0.04265 0.46771
 O416 O 0.54114 0.52626 0.02597
 O417 O 0.44504 0.47092 0.00904
 O418 O 0.48968 0.53846 0.02598
 O419 O 0.52797 0.44192 0.02144
 O420 O 0.45094 0.51929 0.01776
 O421 O 0.54649 0.47980 0.03190
 O422 O 0.47756 0.44801 0.02566
 O423 O 0.52948 0.55764 0.00436
 C424 C 0.54340 0.55068 0.02046
 C425 C 0.45339 0.45615 0.02477
 C426 C 0.46562 0.53263 0.03079
 C427 C 0.54256 0.45487 0.03452
 O428 O 0.55662 0.47086 -0.01016
 O429 O 0.46215 0.53059 -0.02484
 O430 O 0.51124 0.53567 -0.02975
 O431 O 0.47086 0.44415 -0.01672
 O432 O 0.46119 0.48303 -0.03196
 O433 O 0.55117 0.52079 -0.01806
 O434 O 0.52245 0.44323 -0.02010
 O435 O 0.47984 0.56584 -0.00889
 Co436 Co 0.54509 0.49930 0.00672
 Co437 Co 0.45893 0.50044 -0.00663
 Co438 Co 0.49964 0.53555 -0.00186
 Co439 Co 0.49972 0.44904 0.00241
 O440 O 0.50226 0.49412 0.00091
 C441 C 0.54697 0.45152 -0.02153
 C442 C 0.46042 0.55592 -0.02110
 C443 C 0.53622 0.53164 -0.03292
 C444 C 0.46273 0.45774 -0.03295
 C445 C 1.17279 0.18569 0.18981
 C446 C 1.16014 0.17171 0.17708
 C447 C 1.14544 0.15512 0.16158
 C448 C 1.11671 0.15263 0.16214
 C449 C 1.10245 0.13706 0.14672
 C450 C 1.11677 0.12376 0.13052
 C451 C 1.14567 0.12622 0.13023
 C452 C 1.15987 0.14180 0.14565
 C453 C 1.10164 0.10790 0.11369
 C454 C 1.11216 0.08305 0.10640
 C455 C 1.09839 0.06869 0.09001
 C456 C 1.07393 0.07894 0.08070
 C457 C 1.06312 0.10345 0.08801
 C458 C 1.07684 0.11784 0.10440
 C459 C 1.06032 0.06484 0.06319
 C460 C 1.04891 0.05358 0.04826
 H461 H 1.10532 0.16281 0.17442
 H462 H 1.08024 0.13530 0.14754
 H463 H 1.15727 0.11658 0.11781
 H464 H 1.18211 0.14366 0.14502
 H465 H 1.13101 0.07467 0.11341
 H466 H 1.10694 0.04972 0.08448
 H467 H 1.04427 0.11165 0.08085
 H468 H 1.06839 0.13707 0.10942
 C469 C 1.17775 0.69302 0.68726
 C470 C 1.16497 0.68103 0.67341
 C471 C 1.14978 0.66691 0.65673
 C472 C 1.12938 0.68065 0.64445
 C473 C 1.11483 0.66703 0.62807
 C474 C 1.12049 0.63946 0.62380
 C475 C 1.14101 0.62583 0.63627
 C476 C 1.15555 0.63949 0.65261
 C477 C 1.10521 0.62493 0.60636
 C478 C 1.09674 0.59743 0.60950
 C479 C 1.08320 0.58342 0.59286
 C480 C 1.07789 0.59665 0.57288
 C481 C 1.08587 0.62412 0.56966
 C482 C 1.09941 0.63822 0.58631
 C483 C 1.06531 0.58146 0.55554
 C484 C 1.05539 0.56766 0.54141
 H485 H 1.12473 0.70188 0.64753
 H486 H 1.09895 0.67796 0.61891
 H487 H 1.14612 0.60474 0.63317
 H488 H 1.17138 0.62871 0.66196
 H489 H 1.10055 0.58677 0.62483
 H490 H 1.07711 0.56214 0.59552
 H491 H 1.08200 0.63451 0.55421
 H492 H 1.10594 0.65929 0.58333
 C493 C 0.66953 0.18666 0.69206
 C494 C 0.65609 0.17257 0.67991
 C495 C 0.64086 0.15572 0.66493
 C496 C 0.61384 0.16240 0.65863
 C497 C 0.59969 0.14680 0.64317
 C498 C 0.61243 0.12431 0.63381
 C499 C 0.63945 0.11753 0.64052
 C500 C 0.65355 0.13315 0.65596
 C501 C 0.59808 0.10860 0.61653
 C502 C 0.60066 0.07989 0.61570
 C503 C 0.58836 0.06537 0.59874
 C504 C 0.57330 0.07932 0.58242
 C505 C 0.57023 0.10780 0.58328
 C506 C 0.58250 0.12236 0.60022
 C507 C 0.56186 0.06469 0.56433
 C508 C 0.55258 0.05289 0.54884
 H509 H 0.60383 0.17984 0.66547
 H510 H 0.57880 0.15234 0.63853
 H511 H 0.64999 0.10063 0.63341
 H512 H 0.67452 0.12790 0.66063
 H513 H 0.61223 0.06868 0.62816
 H514 H 0.59085 0.04332 0.59824
 H515 H 0.55873 0.11883 0.57067
 H516 H 0.58044 0.14447 0.60021
 C517 C 0.67824 0.69417 0.18063
 C518 C 0.66682 0.68322 0.16559
 C519 C 0.65327 0.67031 0.14752
 C520 C 0.63144 0.68344 0.13648
 C521 C 0.61819 0.67086 0.11897
 C522 C 0.62666 0.64494 0.11226
 C523 C 0.64874 0.63199 0.12341
 C524 C 0.66193 0.64461 0.14092
 C525 C 0.61214 0.63111 0.09409
 C526 C 0.62699 0.61632 0.07905
 C527 C 0.61316 0.60192 0.06274
 C528 C 0.58436 0.60217 0.06120
 C529 C 0.56944 0.61733 0.07578
 C530 C 0.58322 0.63176 0.09209
 C531 C 0.57005 0.58519 0.04582
 C532 C 0.55794 0.56998 0.03373
 H533 H 0.62465 0.70341 0.14141
 H534 H 0.60147 0.68147 0.11057
 H535 H 0.65546 0.61186 0.11886
 H536 H 0.67879 0.63425 0.14938
 H537 H 0.64927 0.61574 0.07999
 H538 H 0.62490 0.59014 0.05160
 H539 H 0.54713 0.61744 0.07486
 H540 H 0.57120 0.64267 0.10357
 C541 C 0.81673 -0.17497 0.19535
 C542 C 0.83135 -0.16236 0.18304
 C543 C 0.84821 -0.14758 0.16777
 C544 C 0.86677 -0.16179 0.15533
 C545 C 0.88191 -0.14778 0.13949
 C546 C 0.87861 -0.11936 0.13588
 C547 C 0.86024 -0.10518 0.14874
 C548 C 0.84513 -0.11923 0.16458
 C549 C 0.89351 -0.10483 0.11822
 C550 C 0.87993 -0.08522 0.10484
 C551 C 0.89350 -0.07252 0.08753
 C552 C 0.92079 -0.07921 0.08338
 C553 C 0.93462 -0.09838 0.09678
 C554 C 0.92109 -0.11111 0.11410
 C555 C 0.93427 -0.06709 0.06496
 C556 C 0.94541 -0.05726 0.04934
 H557 H 0.86916 -0.18377 0.15758
 H558 H 0.89559 -0.15934 0.12966
 H559 H 0.85752 -0.08325 0.14651
 H560 H 0.83077 -0.10806 0.17412
 H561 H 0.85860 -0.08023 0.10740
 H562 H 0.88258 -0.05780 0.07719
 H563 H 0.95577 -0.10367 0.09370
 H564 H 0.93217 -0.12588 0.12426
 C565 C 0.80131 0.32515 0.68151
 C566 C 0.81257 0.33738 0.66691
 C567 C 0.82608 0.35162 0.64935
 C568 C 0.84939 0.34030 0.64030
 C569 C 0.86255 0.35399 0.62321
 C570 C 0.85256 0.37925 0.61493
 C571 C 0.82905 0.39043 0.62411
 C572 C 0.81590 0.37668 0.64120
 C573 C 0.86696 0.39405 0.59708
 C574 C 0.87076 0.42272 0.59747
 C575 C 0.88550 0.43647 0.58124
 C576 C 0.89655 0.42181 0.56437
 C577 C 0.89244 0.39336 0.56361
 C578 C 0.87772 0.37956 0.57983
 C579 C 0.91357 0.43573 0.54868
 C580 C 0.92868 0.44752 0.53624
 H581 H 0.85747 0.32093 0.64650
 H582 H 0.88083 0.34504 0.61674
 H583 H 0.82068 0.40968 0.61795
 H584 H 0.79779 0.38557 0.64802
 H585 H 0.86306 0.43442 0.61065
 H586 H 0.88877 0.45847 0.58210
 H587 H 0.90098 0.38179 0.55066
 H588 H 0.87482 0.35754 0.57891
 C589 C 0.31572 -0.17188 0.69119
 C590 C 0.32933 -0.15932 0.67815
 C591 C 0.34509 -0.14453 0.66217
 C592 C 0.36937 -0.15567 0.65457
 C593 C 0.38394 -0.14191 0.63825
 C594 C 0.37433 -0.11686 0.62931
 C595 C 0.35012 -0.10564 0.63731
 C596 C 0.33560 -0.11941 0.65362
 C597 C 0.38907 -0.10283 0.61133
 C598 C 0.37418 -0.09084 0.59380
 C599 C 0.38796 -0.07792 0.57671
 C600 C 0.41677 -0.07680 0.57688
 C601 C 0.43180 -0.08861 0.59424
 C602 C 0.41805 -0.10158 0.61137
 C603 C 0.43075 -0.06346 0.55920
 C604 C 0.44198 -0.05208 0.54424
 H605 H 0.37681 -0.17517 0.66101
 H606 H 0.40233 -0.15122 0.63226
 H607 H 0.34242 -0.08620 0.63096
 H608 H 0.31683 -0.11061 0.65941
 H609 H 0.35188 -0.09183 0.59314
 H610 H 0.37614 -0.06889 0.56331
 H611 H 0.45412 -0.08776 0.59455
 H612 H 0.43005 -0.11036 0.62475
 C613 C 0.30016 0.33266 0.18633
 C614 C 0.31179 0.34590 0.17244
 C615 C 0.32579 0.36114 0.15561
 C616 C 0.35099 0.37429 0.16008
 C617 C 0.36515 0.38805 0.14351
 C618 C 0.35431 0.38877 0.12219
 C619 C 0.32876 0.37581 0.11793
 C620 C 0.31463 0.36209 0.13453
 C621 C 0.37002 0.40220 0.10437
 C622 C 0.37130 0.38984 0.08409
 C623 C 0.38706 0.40176 0.06762
 C624 C 0.40171 0.42622 0.07111
 C625 C 0.40025 0.43892 0.09110
 C626 C 0.38451 0.42702 0.10763
 C627 C 0.41925 0.43749 0.05454
 C628 C 0.43449 0.44633 0.04082
 H629 H 0.35990 0.37358 0.17630
 H630 H 0.38493 0.39749 0.14727
 H631 H 0.31969 0.37629 0.10177
 H632 H 0.29512 0.35201 0.13087
 H633 H 0.36073 0.37055 0.08115
 H634 H 0.38819 0.39163 0.05227
 H635 H 0.41152 0.45785 0.09401
 H636 H 0.38368 0.43721 0.12295
 C637 C 0.81883 0.18838 -0.19225
 C638 C 0.83248 0.17465 -0.17964
 C639 C 0.84834 0.15826 -0.16430
 C640 C 0.86631 0.17096 -0.14952
 C641 C 0.88095 0.15515 -0.13407
 C642 C 0.87777 0.12638 -0.13318
 C643 C 0.85985 0.11379 -0.14825
 C644 C 0.84525 0.12965 -0.16370
 C645 C 0.89259 0.10971 -0.11625
 C646 C 0.87914 0.08776 -0.10546
 C647 C 0.89271 0.07282 -0.08889
 C648 C 0.91988 0.07956 -0.08291
 C649 C 0.93357 0.10108 -0.09375
 C650 C 0.92004 0.11606 -0.11032
 C651 C 0.93338 0.06517 -0.06510
 C652 C 0.94469 0.05370 -0.04990
 H653 H 0.86875 0.19310 -0.14976
 H654 H 0.89427 0.16549 -0.12251
 H655 H 0.85721 0.09168 -0.14813
 H656 H 0.83139 0.11961 -0.17507
 H657 H 0.85791 0.08259 -0.10945
 H658 H 0.88187 0.05630 -0.08052
 H659 H 0.95461 0.10648 -0.08925
 H660 H 0.93106 0.13260 -0.11849
 C661 C 0.79612 0.68886 0.32254
 C662 C 0.80701 0.67616 0.33732
 C663 C 0.82015 0.66136 0.35506
 C664 C 0.82492 0.67418 0.37482
 C665 C 0.83823 0.66005 0.39195
 C666 C 0.84692 0.63287 0.38953
 C667 C 0.84181 0.62009 0.36965
 C668 C 0.82853 0.63426 0.35254
 C669 C 0.86183 0.61810 0.40745
 C670 C 0.85637 0.59012 0.41190
 C671 C 0.87137 0.57590 0.42808
 C672 C 0.89200 0.58945 0.44003
 C673 C 0.89727 0.61739 0.43598
 C674 C 0.88226 0.63166 0.41982
 C675 C 0.90887 0.57425 0.45544
 C676 C 0.92356 0.56108 0.46765
 H677 H 0.81845 0.69513 0.37696
 H678 H 0.84158 0.67032 0.40713
 H679 H 0.84860 0.59932 0.36719
 H680 H 0.82503 0.62418 0.33729
 H681 H 0.84054 0.57921 0.40284
 H682 H 0.86719 0.55425 0.43104
 H683 H 0.91336 0.62801 0.44499
 H684 H 0.88719 0.65309 0.41658
 C685 C 0.31610 0.19123 0.30837
 C686 C 0.33047 0.17784 0.32073
 C687 C 0.34724 0.16182 0.33574
 C688 C 0.35941 0.17415 0.35384
 C689 C 0.37486 0.15845 0.36887
 C690 C 0.37833 0.13012 0.36601
 C691 C 0.36625 0.11798 0.34762
 C692 C 0.35083 0.13374 0.33260
 C693 C 0.39382 0.11325 0.38245
 C694 C 0.38409 0.08697 0.38874
 C695 C 0.39795 0.07160 0.40492
 C696 C 0.42174 0.08221 0.41499
 C697 C 0.43184 0.10813 0.40861
 C698 C 0.41800 0.12356 0.39245
 C699 C 0.43503 0.06706 0.43253
 C700 C 0.44568 0.05469 0.44761
 H701 H 0.35667 0.19584 0.35649
 H702 H 0.38354 0.16834 0.38299
 H703 H 0.36881 0.09631 0.34482
 H704 H 0.34153 0.12397 0.31863
 H705 H 0.36534 0.07861 0.38158
 H706 H 0.38983 0.05164 0.40982
 H707 H 0.45023 0.11657 0.41631
 H708 H 0.42620 0.14356 0.38779
 C709 C 0.30879 0.69700 -0.17807
 C710 C 0.32125 0.68535 -0.16354
 C711 C 0.33619 0.67182 -0.14604
 C712 C 0.35350 0.68710 -0.13238
 C713 C 0.36816 0.67404 -0.11542
 C714 C 0.36566 0.64547 -0.11188
 C715 C 0.34808 0.63032 -0.12565
 C716 C 0.33346 0.64343 -0.14262
 C717 C 0.38168 0.63144 -0.09419
 C718 C 0.36968 0.61007 -0.08175
 C719 C 0.38517 0.59607 -0.06574
 C720 C 0.41282 0.60326 -0.06192
 C721 C 0.42482 0.62478 -0.07395
 C722 C 0.40936 0.63883 -0.08996
 C723 C 0.42933 0.58743 -0.04667
 C724 C 0.44340 0.57346 -0.03456
 H725 H 0.35568 0.70912 -0.13484
 H726 H 0.38127 0.68630 -0.10495
 H727 H 0.34602 0.60826 -0.12354
 H728 H 0.32015 0.63140 -0.15312
 H729 H 0.34832 0.60416 -0.08442
 H730 H 0.37571 0.57938 -0.05656
 H731 H 0.44628 0.63034 -0.07127
 H732 H 0.41929 0.65494 -0.09944
 C733 C 1.17098 -0.17088 -0.19164
 C734 C 1.15738 -0.15826 -0.17932
 C735 C 1.14138 -0.14387 -0.16407
 C736 C 1.14294 -0.11521 -0.16317
 C737 C 1.12833 -0.10146 -0.14759
 C738 C 1.11200 -0.11626 -0.13273
 C739 C 1.11032 -0.14504 -0.13397
 C740 C 1.12494 -0.15872 -0.14953
 C741 C 1.09743 -0.10196 -0.11554
 C742 C 1.07071 -0.11030 -0.10969
 C743 C 1.05760 -0.09783 -0.09270
 C744 C 1.07099 -0.07687 -0.08135
 C745 C 1.09737 -0.06808 -0.08727
 C746 C 1.11052 -0.08052 -0.10428
 C747 C 1.05803 -0.06508 -0.06317
 C748 C 1.04717 -0.05564 -0.04776
 H749 H 1.15564 -0.10353 -0.17437
 H750 H 1.12978 -0.07928 -0.14717
 H751 H 1.09826 -0.15703 -0.12255
 H752 H 1.12374 -0.18093 -0.15001
 H753 H 1.05999 -0.12651 -0.11824
 H754 H 1.03716 -0.10474 -0.08825
 H755 H 1.10794 -0.05193 -0.07852
 H756 H 1.13121 -0.07389 -0.10822
 C757 C 1.17236 0.31632 0.31727
 C758 C 1.15984 0.32753 0.33112
 C759 C 1.14519 0.34092 0.34783
 C760 C 1.15449 0.33862 0.36939
 C761 C 1.14063 0.35198 0.38561
 C762 C 1.11724 0.36789 0.38049
 C763 C 1.10792 0.36989 0.35878
 C764 C 1.12181 0.35650 0.34259
 C765 C 1.10302 0.38279 0.39765
 C766 C 1.09344 0.40965 0.39366
 C767 C 1.08086 0.42403 0.40997
 C768 C 1.07762 0.41181 0.43050
 C769 C 1.08681 0.38500 0.43460
 C770 C 1.09942 0.37057 0.41829
 C771 C 1.06563 0.42721 0.44744
 C772 C 1.05594 0.44084 0.46135
 H773 H 1.17261 0.32669 0.37365
 H774 H 1.14857 0.35033 0.40209
 H775 H 1.08979 0.38168 0.35434
 H776 H 1.11437 0.35836 0.32597
 H777 H 1.09623 0.41980 0.37807
 H778 H 1.07397 0.44482 0.40664
 H779 H 1.08441 0.37533 0.45042
 H780 H 1.10624 0.34982 0.42181
 C781 C 0.66537 -0.17373 0.30621
 C782 C 0.65244 -0.16053 0.31860
 C783 C 0.63768 -0.14501 0.33393
 C784 C 0.61859 -0.15819 0.34737
 C785 C 0.60557 -0.14352 0.36328
 C786 C 0.61157 -0.11547 0.36596
 C787 C 0.63041 -0.10228 0.35208
 C788 C 0.64339 -0.11699 0.33618
 C789 C 0.59904 -0.10033 0.38370
 C790 C 0.61507 -0.08195 0.39603
 C791 C 0.60365 -0.06852 0.41333
 C792 C 0.57608 -0.07325 0.41851
 C793 C 0.55984 -0.09123 0.40620
 C794 C 0.57124 -0.10471 0.38890
 C795 C 0.56467 -0.06008 0.43674
 C796 C 0.55526 -0.04918 0.45215
 H797 H 0.61417 -0.17992 0.34584
 H798 H 0.59145 -0.15432 0.37389
 H799 H 0.63518 -0.08063 0.35359
 H800 H 0.65817 -0.10661 0.32586
 H801 H 0.63663 -0.07845 0.39264
 H802 H 0.61641 -0.05470 0.42281
 H803 H 0.53844 -0.09498 0.41007
 H804 H 0.55831 -0.11850 0.37955
 C805 C 0.68446 0.32355 -0.18361
 C806 C 0.67378 0.33580 -0.16936
 C807 C 0.66110 0.35002 -0.15211
 C808 C 0.66733 0.34259 -0.13055
 C809 C 0.65466 0.35593 -0.11374
 C810 C 0.63555 0.37694 -0.11826
 C811 C 0.62960 0.38441 -0.14000
 C812 C 0.64229 0.37102 -0.15679
 C813 C 0.62149 0.39060 -0.10041
 C814 C 0.61669 0.41906 -0.10141
 C815 C 0.60274 0.43171 -0.08488
 C816 C 0.59340 0.41611 -0.06714
 C817 C 0.59830 0.38785 -0.06588
 C818 C 0.61227 0.37518 -0.08238
 C819 C 0.57781 0.42885 -0.05066
 C820 C 0.56412 0.43930 -0.03715
 H821 H 0.68191 0.32641 -0.12674
 H822 H 0.65995 0.34994 -0.09720
 H823 H 0.61472 0.40023 -0.14403
 H824 H 0.63725 0.37688 -0.17342
 H825 H 0.62383 0.43156 -0.11494
 H826 H 0.59902 0.45359 -0.08604
 H827 H 0.59100 0.37555 -0.05230
 H828 H 0.61528 0.35319 -0.08126
 C829 C 1.18730 0.17602 -0.18718
 C830 C 1.17305 0.16388 -0.17433
 C831 C 1.15622 0.14953 -0.15880
 C832 C 1.15135 0.12129 -0.16050
 C833 C 1.13558 0.10723 -0.14507
 C834 C 1.12449 0.12127 -0.12773
 C835 C 1.12928 0.14973 -0.12630
 C836 C 1.14506 0.16374 -0.14174
 C837 C 1.10856 0.10623 -0.11090
 C838 C 1.08492 0.11786 -0.10227
 C839 C 1.07048 0.10398 -0.08594
 C840 C 1.07948 0.07836 -0.07805
 C841 C 1.10279 0.06652 -0.08667
 C842 C 1.11725 0.08033 -0.10300
 C843 C 1.06527 0.06444 -0.06075
 C844 C 1.05389 0.05257 -0.04609
 H845 H 1.15984 0.11013 -0.17368
 H846 H 1.13196 0.08540 -0.14675
 H847 H 1.12134 0.16104 -0.11299
 H848 H 1.14879 0.18559 -0.14025
 H849 H 1.07755 0.13761 -0.10821
 H850 H 1.05242 0.11330 -0.07938
 H851 H 1.10999 0.04674 -0.08061
 H852 H 1.13557 0.07102 -0.10910
 C853 C 1.19130 0.67350 0.30826
 C854 C 1.17684 0.66098 0.32076
 C855 C 1.15960 0.64639 0.33591
 C856 C 1.14224 0.66096 0.34913
 C857 C 1.12596 0.64697 0.36425
 C858 C 1.12685 0.61815 0.36639
 C859 C 1.14420 0.60366 0.35288
 C860 C 1.16046 0.61771 0.33774
 C861 C 1.11030 0.60342 0.38303
 C862 C 1.12170 0.58149 0.39535
 C863 C 1.10663 0.56847 0.41173
 C864 C 1.07995 0.57713 0.41599
 C865 C 1.06824 0.59861 0.40361
 C866 C 1.08329 0.61167 0.38722
 C867 C 1.06518 0.56479 0.43373
 C868 C 1.05335 0.55480 0.44900
 H869 H 1.14149 0.68317 0.34789
 H870 H 1.11315 0.65875 0.37462
 H871 H 1.14510 0.58146 0.35396
 H872 H 1.17379 0.60622 0.32755
 H873 H 1.14256 0.57489 0.39273
 H874 H 1.11596 0.55197 0.42131
 H875 H 1.04761 0.60549 0.40678
 H876 H 1.07381 0.62825 0.37784
 C877 C 0.70008 0.17999 0.31776
 C878 C 0.68585 0.16741 0.33037
 C879 C 0.66869 0.15271 0.34547
 C880 C 0.67015 0.12408 0.34759
 C881 C 0.65355 0.10987 0.36239
 C882 C 0.63524 0.12416 0.37524
 C883 C 0.63387 0.15293 0.37291
 C884 C 0.65049 0.16708 0.35812
 C885 C 0.61794 0.10922 0.39126
 C886 C 0.59044 0.11691 0.39420
 C887 C 0.57446 0.10343 0.40980
 C888 C 0.58572 0.08210 0.42262
 C889 C 0.61293 0.07409 0.41964
 C890 C 0.62895 0.08753 0.40405
 C891 C 0.56968 0.06902 0.43928
 C892 C 0.55655 0.05828 0.45353
 H893 H 0.68411 0.11276 0.33781
 H894 H 0.65484 0.08771 0.36364
 H895 H 0.62028 0.16454 0.38279
 H896 H 0.64925 0.18925 0.35664
 H897 H 0.58128 0.13328 0.38440
 H898 H 0.55340 0.10977 0.41196
 H899 H 0.62188 0.05769 0.42957
 H900 H 0.65013 0.08137 0.40236
 C901 C 0.68153 0.66441 -0.19379
 C902 C 0.66732 0.65086 -0.18172
 C903 C 0.65038 0.63514 -0.16698
 C904 C 0.65349 0.60668 -0.16463
 C905 C 0.63766 0.59166 -0.14973
 C906 C 0.61849 0.60495 -0.13697
 C907 C 0.61531 0.63354 -0.13966
 C908 C 0.63115 0.64849 -0.15455
 C909 C 0.60253 0.58934 -0.12038
 C910 C 0.57482 0.59569 -0.11673
 C911 C 0.56044 0.58231 -0.10011
 C912 C 0.57349 0.56235 -0.08695
 C913 C 0.60081 0.55540 -0.09078
 C914 C 0.61524 0.56875 -0.10738
 C915 C 0.55957 0.55047 -0.06856
 C916 C 0.54852 0.54137 -0.05260
 H917 H 0.66829 0.59611 -0.17419
 H918 H 0.64038 0.56966 -0.14822
 H919 H 0.60108 0.64447 -0.12986
 H920 H 0.62864 0.67053 -0.15615
 H921 H 0.56433 0.61115 -0.12663
 H922 H 0.53932 0.58792 -0.09726
 H923 H 0.61120 0.54015 -0.08058
 H924 H 0.63662 0.56363 -0.10956
 C925 C 0.81837 -0.19470 -0.18684
 C926 C 0.83064 -0.18122 -0.17356
 C927 C 0.84506 -0.16528 -0.15748
 C928 C 0.84734 -0.17527 -0.13610
 C929 C 0.86095 -0.15971 -0.12035
 C930 C 0.87250 -0.13387 -0.12576
 C931 C 0.87025 -0.12406 -0.14734
 C932 C 0.85660 -0.13966 -0.16306
 C933 C 0.88663 -0.11718 -0.10892
 C934 C 0.91098 -0.10237 -0.11352
 C935 C 0.92433 -0.08692 -0.09755
 C936 C 0.91351 -0.08600 -0.07679
 C937 C 0.88926 -0.10054 -0.07210
 C938 C 0.87590 -0.11600 -0.08802
 C939 C 0.92736 -0.07047 -0.06017
 C940 C 0.93868 -0.05780 -0.04592
 H941 H 0.83856 -0.19510 -0.13159
 H942 H 0.86267 -0.16804 -0.10398
 H943 H 0.87862 -0.10412 -0.15197
 H944 H 0.85490 -0.13167 -0.17955
 H945 H 0.91994 -0.10311 -0.12937
 H946 H 0.94315 -0.07583 -0.10135
 H947 H 0.88067 -0.09994 -0.05610
 H948 H 0.85700 -0.12681 -0.08403
 C949 C 0.84253 0.32039 0.30746
 C950 C 0.85626 0.33495 0.31902
 C951 C 0.87206 0.35233 0.33322
 C952 C 0.86825 0.38077 0.33235
 C953 C 0.88224 0.39751 0.34710
 C954 C 0.90020 0.38595 0.36294
 C955 C 0.90434 0.35739 0.36336
 C956 C 0.89032 0.34070 0.34860
 C957 C 0.91346 0.40333 0.37967
 C958 C 0.94074 0.39850 0.38685
 C959 C 0.95238 0.41349 0.40381
 C960 C 0.93694 0.43350 0.41375
 C961 C 0.91006 0.43894 0.40636
 C962 C 0.89838 0.42399 0.38942
 C963 C 0.94786 0.44706 0.43251
 C964 C 0.95635 0.45771 0.44875
 H965 H 0.85415 0.38997 0.32050
 H966 H 0.87888 0.41945 0.34622
 H967 H 0.91770 0.34782 0.37554
 H968 H 0.89329 0.31869 0.34948
 H969 H 0.95296 0.38296 0.37950
 H970 H 0.97319 0.40908 0.40947
 H971 H 0.89786 0.45422 0.41408
 H972 H 0.87722 0.42792 0.38448
 C973 C 0.33023 -0.18948 0.30614
 C974 C 0.34260 -0.17548 0.31901
 C975 C 0.35702 -0.15886 0.33463
 C976 C 0.34764 -0.13252 0.33889
 C977 C 0.36107 -0.11670 0.35457
 C978 C 0.38410 -0.12705 0.36623
 C979 C 0.39353 -0.15346 0.36167
 C980 C 0.38005 -0.16924 0.34599
 C981 C 0.39786 -0.11065 0.38341
 C982 C 0.42674 -0.11044 0.38597
 C983 C 0.43957 -0.09572 0.40259
 C984 C 0.42374 -0.08102 0.41687
 C985 C 0.39503 -0.08085 0.41432
 C986 C 0.38215 -0.09553 0.39770
 C987 C 0.43689 -0.06688 0.43455
 C988 C 0.44794 -0.05552 0.44958
 H989 H 0.32984 -0.12426 0.33017
 H990 H 0.35352 -0.09633 0.35751
 H991 H 0.41095 -0.16217 0.37056
 H992 H 0.38741 -0.18966 0.34291
 H993 H 0.43942 -0.12157 0.37507
 H994 H 0.46182 -0.09599 0.40441
 H995 H 0.38256 -0.06967 0.42535
 H996 H 0.35988 -0.09558 0.39635
 C997 C 0.33538 0.30620 -0.19190
 C998 C 0.34939 0.31974 -0.17977
 C999 C 0.36549 0.33610 -0.16504
 C1000 C 0.36758 0.36455 -0.16847
 C1001 C 0.38189 0.38069 -0.15350
 C1002 C 0.39429 0.36854 -0.13488
 C1003 C 0.39249 0.33985 -0.13179
 C1004 C 0.37815 0.32376 -0.14678
 C1005 C 0.40806 0.38575 -0.11830
 C1006 C 0.43256 0.37706 -0.10777
 C1007 C 0.44459 0.39256 -0.09127
 C1008 C 0.43232 0.41693 -0.08512
 C1009 C 0.40823 0.42601 -0.09575
 C1010 C 0.39618 0.41055 -0.11226
 C1011 C 0.44359 0.43186 -0.06717
 C1012 C 0.45256 0.44395 -0.05174
 H1013 H 0.35784 0.37429 -0.18257
 H1014 H 0.38320 0.40267 -0.15644
 H1015 H 0.40148 0.32994 -0.11747
 H1016 H 0.37652 0.30176 -0.14392
 H1017 H 0.44235 0.35823 -0.11224
 H1018 H 0.46323 0.38535 -0.08311
 H1019 H 0.39847 0.44474 -0.09100
 H1020 H 0.37712 0.41759 -0.11984
 C1021 C 1.19351 -0.19115 0.18294
 C1022 C 1.17961 -0.17759 0.17038
 C1023 C 1.16294 -0.16152 0.15537
 C1024 C 1.17514 -0.14114 0.14229
 C1025 C 1.15901 -0.12574 0.12752
 C1026 C 1.13042 -0.13056 0.12562
 C1027 C 1.11834 -0.15101 0.13893
 C1028 C 1.13451 -0.16637 0.15370
 C1029 C 1.11338 -0.11461 0.10959
 C1030 C 1.09250 -0.12767 0.09733
 C1031 C 1.07705 -0.11284 0.08176
 C1032 C 1.08221 -0.08478 0.07824
 C1033 C 1.10271 -0.07151 0.09052
 C1034 C 1.11819 -0.08630 0.10609
 C1035 C 1.06719 -0.06983 0.06150
 C1036 C 1.05506 -0.05746 0.04716
 H1037 H 1.19714 -0.13727 0.14340
 H1038 H 1.16899 -0.11041 0.11731
 H1039 H 1.09635 -0.15498 0.13804
 H1040 H 1.12484 -0.18205 0.16379
 H1041 H 1.08854 -0.14949 0.09943
 H1042 H 1.06135 -0.12335 0.07226
 H1043 H 1.10688 -0.04979 0.08792
 H1044 H 1.13387 -0.07558 0.11545
 C1045 C 1.19162 0.31261 0.68886
 C1046 C 1.17860 0.32715 0.67645
 C1047 C 1.16311 0.34431 0.66147
 C1048 C 1.13464 0.34688 0.66361
 C1049 C 1.11946 0.36294 0.64868
 C1050 C 1.13262 0.37664 0.63140
 C1051 C 1.16131 0.37416 0.62954
 C1052 C 1.17643 0.35807 0.64448
 C1053 C 1.11642 0.39288 0.61507
 C1054 C 1.12667 0.41806 0.60677
 C1055 C 1.11178 0.43282 0.59083
 C1056 C 1.08650 0.42261 0.58302
 C1057 C 1.07600 0.39774 0.59133
 C1058 C 1.09084 0.38296 0.60727
 C1059 C 1.07168 0.43713 0.56600
 C1060 C 1.05922 0.44879 0.55150
 H1061 H 1.12415 0.33634 0.67675
 H1062 H 1.09746 0.36474 0.65069
 H1063 H 1.17196 0.38415 0.61625
 H1064 H 1.19846 0.35613 0.64264
 H1065 H 1.14615 0.42636 0.61265
 H1066 H 1.12007 0.45206 0.58450
 H1067 H 1.05652 0.38959 0.58529
 H1068 H 1.08260 0.36347 0.61311
 C1069 C 0.68472 -0.19354 0.68532
 C1070 C 0.67136 -0.17951 0.67270
 C1071 C 0.65542 -0.16284 0.65755
 C1072 C 0.66865 -0.14434 0.64344
 C1073 C 0.65324 -0.12848 0.62848
 C1074 C 0.62432 -0.13095 0.62740
 C1075 C 0.61120 -0.14949 0.64176
 C1076 C 0.62665 -0.16530 0.65672
 C1077 C 0.60799 -0.11465 0.61108
 C1078 C 0.58554 -0.12671 0.59990
 C1079 C 0.57075 -0.11169 0.58404
 C1080 C 0.57811 -0.08440 0.57913
 C1081 C 0.60019 -0.07210 0.59033
 C1082 C 0.61503 -0.08710 0.60620
 C1083 C 0.56369 -0.06945 0.56203
 C1084 C 0.55193 -0.05734 0.54734
 H1085 H 0.69090 -0.14231 0.64388
 H1086 H 0.66399 -0.11470 0.61746
 H1087 H 0.58897 -0.15162 0.64153
 H1088 H 0.61617 -0.17950 0.66761
 H1089 H 0.57982 -0.14797 0.60305
 H1090 H 0.55381 -0.12149 0.57538
 H1091 H 0.60609 -0.05100 0.58667
 H1092 H 0.63197 -0.07711 0.61470
 C1093 C 0.69262 0.31291 0.19204
 C1094 C 0.67807 0.32585 0.17957
 C1095 C 0.66094 0.34121 0.16448
 C1096 C 0.67051 0.36613 0.15558
 C1097 C 0.65425 0.38072 0.14041
 C1098 C 0.62820 0.37050 0.13393
 C1099 C 0.61865 0.34555 0.14314
 C1100 C 0.63494 0.33101 0.15832
 C1101 C 0.61141 0.38549 0.11723
 C1102 C 0.59726 0.37109 0.10087
 C1103 C 0.58237 0.38525 0.08461
 C1104 C 0.58136 0.41395 0.08452
 C1105 C 0.59504 0.42846 0.10087
 C1106 C 0.60997 0.41433 0.11714
 C1107 C 0.56714 0.42851 0.06720
 C1108 C 0.55567 0.44061 0.05241
 H1109 H 0.69066 0.37415 0.16018
 H1110 H 0.66233 0.39966 0.13339
 H1111 H 0.59856 0.33734 0.13866
 H1112 H 0.62734 0.31174 0.16515
 H1113 H 0.59829 0.34892 0.10032
 H1114 H 0.57197 0.37385 0.07195
 H1115 H 0.59438 0.45068 0.10094
 H1116 H 0.62036 0.42595 0.12967
 C1117 C 0.83056 0.17646 0.19086
 C1118 C 0.84219 0.16332 0.17766
 C1119 C 0.85563 0.14783 0.16156
 C1120 C 0.83987 0.13221 0.14706
 C1121 C 0.85274 0.11770 0.13099
 C1122 C 0.88158 0.11866 0.12920
 C1123 C 0.89726 0.13429 0.14395
 C1124 C 0.88434 0.14878 0.16003
 C1125 C 0.89512 0.10379 0.11178
 C1126 C 0.91692 0.11613 0.10034
 C1127 C 0.92907 0.10246 0.08346
 C1128 C 0.91960 0.07630 0.07783
 C1129 C 0.89814 0.06372 0.08925
 C1130 C 0.88596 0.07736 0.10612
 C1131 C 0.93158 0.06252 0.06010
 C1132 C 0.94138 0.05091 0.04518
 H1133 H 0.81762 0.13146 0.14804
 H1134 H 0.84008 0.10619 0.11970
 H1135 H 0.91951 0.13517 0.14313
 H1136 H 0.89672 0.16081 0.17119
 H1137 H 0.92419 0.13659 0.10414
 H1138 H 0.94563 0.11239 0.07468
 H1139 H 0.89073 0.04343 0.08505
 H1140 H 0.86946 0.06718 0.11481
 C1141 C 0.82699 0.66866 0.69157
 C1142 C 0.84114 0.65579 0.67974
 C1143 C 0.85774 0.64055 0.66531
 C1144 C 0.84539 0.62088 0.65200
 C1145 C 0.86122 0.60671 0.63742
 C1146 C 0.88969 0.61203 0.63592
 C1147 C 0.90198 0.63163 0.64955
 C1148 C 0.88610 0.64577 0.66414
 C1149 C 0.90618 0.59787 0.61965
 C1150 C 0.92612 0.61245 0.60765
 C1151 C 0.94025 0.59965 0.59129
 C1152 C 0.93476 0.57209 0.58674
 C1153 C 0.91549 0.55721 0.59895
 C1154 C 0.90132 0.56997 0.61531
 C1155 C 0.94722 0.55977 0.56847
 C1156 C 0.95658 0.54991 0.55256
 H1157 H 0.82345 0.61674 0.65269
 H1158 H 0.85103 0.59209 0.62695
 H1159 H 0.92388 0.63599 0.64895
 H1160 H 0.89590 0.66092 0.67438
 H1161 H 0.93010 0.63402 0.61039
 H1162 H 0.95492 0.61146 0.58182
 H1163 H 0.91098 0.53590 0.59552
 H1164 H 0.88639 0.55808 0.62444
 C1165 C 0.32002 0.16676 0.68845
 C1166 C 0.33188 0.15385 0.67524
 C1167 C 0.34605 0.13897 0.65916
 C1168 C 0.33206 0.13114 0.64023
 C1169 C 0.34610 0.11781 0.62413
 C1170 C 0.37437 0.11220 0.62675
 C1171 C 0.38815 0.11984 0.64598
 C1172 C 0.37407 0.13315 0.66207
 C1173 C 0.38954 0.09915 0.60924
 C1174 C 0.41610 0.10855 0.60387
 C1175 C 0.43010 0.09686 0.58697
 C1176 C 0.41780 0.07563 0.57524
 C1177 C 0.39149 0.06596 0.58055
 C1178 C 0.37743 0.07764 0.59745
 C1179 C 0.43208 0.06410 0.55756
 C1180 C 0.44424 0.05475 0.54273
 H1181 H 0.31040 0.13568 0.63779
 H1182 H 0.33501 0.11251 0.60940
 H1183 H 0.40982 0.11549 0.64858
 H1184 H 0.38508 0.13913 0.67668
 H1185 H 0.42581 0.12534 0.61244
 H1186 H 0.45043 0.10454 0.58293
 H1187 H 0.38182 0.04948 0.57159
 H1188 H 0.35715 0.06976 0.60137
 C1189 C 0.33177 0.66705 0.18979
 C1190 C 0.34463 0.65287 0.17800
 C1191 C 0.35967 0.63615 0.16357
 C1192 C 0.34554 0.62167 0.14742
 C1193 C 0.36009 0.60628 0.13280
 C1194 C 0.38904 0.60519 0.13411
 C1195 C 0.40304 0.61951 0.15060
 C1196 C 0.38843 0.63489 0.16522
 C1197 C 0.40452 0.59009 0.11778
 C1198 C 0.42874 0.60149 0.10905
 C1199 C 0.44225 0.58830 0.09258
 C1200 C 0.43184 0.56351 0.08465
 C1201 C 0.40816 0.55163 0.09358
 C1202 C 0.39459 0.56480 0.11006
 C1203 C 0.44432 0.55143 0.06632
 C1204 C 0.45432 0.54227 0.05039
 H1205 H 0.32328 0.62259 0.14593
 H1206 H 0.34871 0.59586 0.12011
 H1207 H 0.42529 0.61884 0.15218
 H1208 H 0.39958 0.64598 0.17768
 H1209 H 0.43672 0.62108 0.11442
 H1210 H 0.46044 0.59779 0.08566
 H1211 H 0.39987 0.53248 0.08753
 H1212 H 0.37621 0.55533 0.11664
   
