data_POSCAR
  _audit_creation_date              2014-09-24
  _audit_creation_method            'ToBaCCo'
  _symmetry_space_group_name_H-M    'P1'
  _symmetry_Int_Tables_number       1
  _symmetry_cell_setting            triclinic
  loop_
  _symmetry_equiv_pos_as_xyz
 x,y,z
_cell_length_a 63.8021
_cell_length_b 63.8063
_cell_length_c 63.7508
_cell_angle_alpha 89.998200
_cell_angle_beta 90.001200
_cell_angle_gamma 89.946200
loop_
  _atom_site_label
  _atom_site_type_symbol
  _atom_site_fract_x
  _atom_site_fract_y
  _atom_site_fract_z
C1 C 0.36760 1.35307 0.33673
 C2 C 0.36761 1.33754 0.35229
 C3 C 0.35225 1.33753 0.36765
 C4 C 0.33668 1.35306 0.36765
 C5 C 0.33666 1.36842 0.35227
 C6 C 0.35221 1.36843 0.33672
 C7 C 0.38012 1.35648 0.31947
 N8 N 0.37263 1.37347 0.30917
 C9 C 0.35561 1.38094 0.31944
 C10 C 0.31937 1.38091 0.35568
 N11 N 0.30910 1.37343 0.37270
 C12 C 0.31942 1.35644 0.38017
 C13 C 0.35568 1.32027 0.38017
 N14 N 0.37269 1.30998 0.37271
 C15 C 0.38014 1.32028 0.35571
 H16 H 0.39342 1.34712 0.31458
 H17 H 0.34623 1.39422 0.31452
 H18 H 0.31444 1.39420 0.34631
 H19 H 0.31454 1.34707 0.39347
 H20 H 0.34633 1.31534 0.39346
 H21 H 0.39343 1.31537 0.34635
 C22 C 0.36733 0.85287 0.83742
 C23 C 0.36733 0.83734 0.85297
 C24 C 0.35195 0.83733 0.86833
 C25 C 0.33640 0.85287 0.86831
 C26 C 0.33640 0.86823 0.85293
 C27 C 0.35195 0.86823 0.83740
 C28 C 0.37984 0.85627 0.82015
 N29 N 0.37238 0.87326 0.80984
 C30 C 0.35537 0.88073 0.82012
 C31 C 0.31912 0.88075 0.85632
 N32 N 0.30883 0.87328 0.87333
 C33 C 0.31912 0.85628 0.88082
 C34 C 0.35537 0.82007 0.88084
 N35 N 0.37239 0.80978 0.87339
 C36 C 0.37985 0.82008 0.85639
 H37 H 0.39314 0.84692 0.81525
 H38 H 0.34602 0.89401 0.81517
 H39 H 0.31421 0.89403 0.84694
 H40 H 0.31421 0.84692 0.89411
 H41 H 0.34602 0.81514 0.89413
 H42 H 0.39314 0.81516 0.84704
 C43 C 0.86680 1.35253 0.83601
 C44 C 0.86682 1.33701 0.85158
 C45 C 0.85145 1.33700 0.86694
 C46 C 0.83587 1.35251 0.86690
 C47 C 0.83584 1.36786 0.85151
 C48 C 0.85140 1.36786 0.83597
 C49 C 0.87937 1.35596 0.81879
 N50 N 0.87190 1.37295 0.80848
 C51 C 0.85484 1.38039 0.81871
 C52 C 0.81856 1.38037 0.85493
 N53 N 0.80831 1.37291 0.87198
 C54 C 0.81863 1.35592 0.87945
 C55 C 0.85492 1.31978 0.87950
 N56 N 0.87197 1.30952 0.87209
 C57 C 0.87940 1.31980 0.85506
 H58 H 0.89271 1.34663 0.81394
 H59 H 0.84548 1.39369 0.81378
 H60 H 0.81364 1.39367 0.84558
 H61 H 0.81377 1.34658 0.89278
 H62 H 0.84559 1.31488 0.89281
 H63 H 0.89273 1.31490 0.84574
 C64 C 0.86814 0.85266 0.33639
 C65 C 0.86813 0.83710 0.35193
 C66 C 0.85276 0.83709 0.36729
 C67 C 0.83721 0.85263 0.36730
 C68 C 0.83721 0.86801 0.35195
 C69 C 0.85276 0.86803 0.33640
 C70 C 0.88066 0.85609 0.31914
 N71 N 0.87319 0.87311 0.30887
 C72 C 0.85618 0.88057 0.31915
 C73 C 0.81994 0.88052 0.35537
 N74 N 0.80964 0.87304 0.37236
 C75 C 0.81994 0.85603 0.37981
 C76 C 0.85617 0.81982 0.37979
 N77 N 0.87317 0.80952 0.37233
 C78 C 0.88064 0.81983 0.35534
 H79 H 0.89396 0.84673 0.31423
 H80 H 0.84681 0.89387 0.31426
 H81 H 0.81502 0.89382 0.34603
 H82 H 0.81502 0.84667 0.39309
 H83 H 0.84681 0.81489 0.39308
 H84 H 0.89394 0.81491 0.34600
 C85 C 0.63159 0.64673 0.33690
 C86 C 0.63160 0.66229 0.35244
 C87 C 0.64698 0.66230 0.36779
 C88 C 0.66252 0.64676 0.36780
 C89 C 0.66252 0.63138 0.35245
 C90 C 0.64696 0.63136 0.33691
 C91 C 0.61907 0.64332 0.31964
 N92 N 0.62655 0.62630 0.30936
 C93 C 0.64356 0.61884 0.31964
 C94 C 0.67981 0.61889 0.35585
 N95 N 0.69012 0.62638 0.37283
 C96 C 0.67981 0.64338 0.38029
 C97 C 0.64358 0.67959 0.38027
 N98 N 0.62658 0.68989 0.37281
 C99 C 0.61910 0.67957 0.35583
 H100 H 0.60578 0.65269 0.31472
 H101 H 0.65294 0.60555 0.31473
 H102 H 0.68474 0.60560 0.34650
 H103 H 0.68474 0.65275 0.39355
 H104 H 0.65295 0.68453 0.39354
 H105 H 0.60581 0.68449 0.34647
 C106 C 0.63319 0.14770 0.83570
 C107 C 0.63316 0.16321 0.85128
 C108 C 0.64853 0.16321 0.86664
 C109 C 0.66411 0.14770 0.86661
 C110 C 0.66415 0.13236 0.85121
 C111 C 0.64860 0.13236 0.83566
 C112 C 0.62063 0.14427 0.81847
 N113 N 0.62810 0.12727 0.80816
 C114 C 0.64516 0.11983 0.81840
 C115 C 0.68142 0.11984 0.85464
 N116 N 0.69165 0.12728 0.87170
 C117 C 0.68134 0.14427 0.87917
 C118 C 0.64504 0.18041 0.87923
 N119 N 0.62800 0.19067 0.87181
 C120 C 0.62058 0.18041 0.85477
 H121 H 0.60728 0.15359 0.81362
 H122 H 0.65452 0.10654 0.81348
 H123 H 0.68634 0.10654 0.84529
 H124 H 0.68619 0.15360 0.89251
 H125 H 0.65436 0.18529 0.89255
 H126 H 0.60725 0.18531 0.84545
 C127 C 1.13254 0.64705 0.83762
 C128 C 1.13253 0.66260 0.85316
 C129 C 1.14790 0.66263 0.86852
 C130 C 1.16346 0.64709 0.86853
 C131 C 1.16347 0.63171 0.85317
 C132 C 1.14792 0.63169 0.83763
 C133 C 1.12003 0.64363 0.82036
 N134 N 1.12750 0.62663 0.81006
 C135 C 1.14451 0.61918 0.82036
 C136 C 1.18075 0.61921 0.85657
 N137 N 1.19104 0.62670 0.87357
 C138 C 1.18074 0.64371 0.88104
 C139 C 1.14448 0.67991 0.88100
 N140 N 1.12747 0.69019 0.87353
 C141 C 1.12001 0.67986 0.85654
 H142 H 1.10674 0.65298 0.81543
 H143 H 1.15387 0.60590 0.81543
 H144 H 1.18566 0.60592 0.84721
 H145 H 1.18565 0.65309 0.89432
 H146 H 1.15383 0.68486 0.89428
 H147 H 1.10672 0.68477 0.84718
 C148 C 1.13256 0.14700 0.33647
 C149 C 1.13255 0.16251 0.35206
 C150 C 1.14792 0.16248 0.36742
 C151 C 1.16348 0.14695 0.36738
 C152 C 1.16350 0.13162 0.35197
 C153 C 1.14794 0.13165 0.33642
 C154 C 1.12002 0.14363 0.31921
 N155 N 1.12749 0.12665 0.30888
 C156 C 1.14453 0.11916 0.31913
 C157 C 1.18078 0.11911 0.35535
 N158 N 1.19105 0.12655 0.37239
 C159 C 1.18075 0.14353 0.37989
 C160 C 1.14450 0.17971 0.37998
 N161 N 1.12749 0.19001 0.37255
 C162 C 1.12003 0.17976 0.35552
 H163 H 1.10671 0.15300 0.31435
 H164 H 1.15389 0.10589 0.31418
 H165 H 1.18570 0.10584 0.34596
 H166 H 1.18564 0.15287 0.39321
 H167 H 1.15385 0.18460 0.39327
 H168 H 1.10673 0.18469 0.34619
 C169 C 0.63219 1.35243 0.66385
 C170 C 0.63218 1.33691 0.64828
 C171 C 0.64754 1.33691 0.63291
 C172 C 0.66309 1.35242 0.63293
 C173 C 0.66311 1.36776 0.64832
 C174 C 0.64757 1.36777 0.66387
 C175 C 0.61967 1.35585 0.68112
 N176 N 0.62714 1.37283 0.69143
 C177 C 0.64416 1.38028 0.68115
 C178 C 0.68037 1.38025 0.64490
 N179 N 0.69064 1.37280 0.62787
 C180 C 0.68033 1.35583 0.62040
 C181 C 0.64410 1.31969 0.62035
 N182 N 0.62709 1.30942 0.62779
 C183 C 0.61965 1.31969 0.64483
 H184 H 0.60636 1.34651 0.68601
 H185 H 0.65352 1.39355 0.68607
 H186 H 0.68530 1.39352 0.65426
 H187 H 0.68523 1.34650 0.60708
 H188 H 0.65343 1.31478 0.60704
 H189 H 0.60635 1.31479 0.65416
 C190 C 0.63164 0.85292 1.16314
 C191 C 0.63168 0.83736 1.14761
 C192 C 0.64706 0.83734 1.13226
 C193 C 0.66258 0.85289 1.13226
 C194 C 0.66254 0.86827 1.14760
 C195 C 0.64698 0.86829 1.16314
 C196 C 0.61910 0.85634 1.18040
 N197 N 0.62654 0.87336 1.19068
 C198 C 0.64354 0.88083 1.18039
 C199 C 0.67979 0.88077 1.14420
 N200 N 0.69012 0.87329 1.12722
 C201 C 0.67986 0.85628 1.11977
 C202 C 0.64370 0.82006 1.11978
 N203 N 0.62671 0.80976 1.12724
 C204 C 0.61921 0.82009 1.14422
 H205 H 0.60583 0.84698 1.18531
 H206 H 0.65289 0.89412 1.18530
 H207 H 0.68468 0.89407 1.15354
 H208 H 0.68481 0.84691 1.10650
 H209 H 0.65307 0.81512 1.10651
 H210 H 0.60592 0.81517 1.15356
 C211 C 1.13201 1.35360 1.16173
 C212 C 1.13202 1.33806 1.14618
 C213 C 1.14742 1.33802 1.13084
 C214 C 1.16298 1.35352 1.13087
 C215 C 1.16296 1.36889 1.14625
 C216 C 1.14739 1.36892 1.16177
 C217 C 1.11950 1.35698 1.17900
 N218 N 1.12698 1.37393 1.18935
 C219 C 1.14399 1.38138 1.17907
 C220 C 1.18027 1.38134 1.14292
 N221 N 1.19060 1.37383 1.12594
 C222 C 1.18030 1.35687 1.11842
 C223 C 1.14403 1.32073 1.11836
 N224 N 1.12702 1.31047 1.12582
 C225 C 1.11953 1.32081 1.14278
 H226 H 1.10623 1.34763 1.18392
 H227 H 1.15336 1.39462 1.18405
 H228 H 1.18518 1.39459 1.15232
 H229 H 1.18525 1.34748 1.10515
 H230 H 1.15342 1.31575 1.10511
 H231 H 1.10624 1.31591 1.15214
 C232 C 1.13083 0.85369 0.66161
 C233 C 1.13086 0.83813 0.64608
 C234 C 1.14622 0.83812 0.63071
 C235 C 1.16173 0.85368 0.63069
 C236 C 1.16170 0.86905 0.64604
 C237 C 1.14616 0.86906 0.66159
 C238 C 1.11837 0.85706 0.67893
 N239 N 1.12583 0.87405 0.68924
 C240 C 1.14278 0.88153 0.67890
 C241 C 1.17898 0.88152 0.64266
 N242 N 1.18932 0.87402 0.62570
 C243 C 1.17903 0.85703 0.61822
 C244 C 1.14289 0.82080 0.61827
 N245 N 1.12594 0.81048 0.62578
 C246 C 1.11843 0.82081 0.64275
 H247 H 1.10514 0.84768 0.68390
 H248 H 1.15215 0.89479 0.68383
 H249 H 1.18391 0.89478 0.65204
 H250 H 1.18400 0.84764 0.60498
 H251 H 1.15227 0.81584 0.60502
 H252 H 1.10519 0.81587 0.65214
 C253 C 0.36745 0.64713 0.66255
 C254 C 0.36742 0.66266 0.64700
 C255 C 0.35204 0.66267 0.63164
 C256 C 0.33651 0.64714 0.63165
 C257 C 0.33654 0.63177 0.64703
 C258 C 0.35210 0.63177 0.66257
 C259 C 0.37997 0.64372 0.67981
 N260 N 0.37254 0.62673 0.69013
 C261 C 0.35554 0.61927 0.67985
 C262 C 0.31929 0.61926 0.64364
 N263 N 0.30898 0.62673 0.62664
 C264 C 0.31924 0.64373 0.61915
 C265 C 0.35544 0.67994 0.61913
 N266 N 0.37244 0.69022 0.62658
 C267 C 0.37991 0.67992 0.64358
 H268 H 0.39325 0.65307 0.68472
 H269 H 0.34621 0.60599 0.68479
 H270 H 0.31440 0.60598 0.65302
 H271 H 0.31431 0.65309 0.60585
 H272 H 0.34608 0.68487 0.60584
 H273 H 0.39320 0.68483 0.65292
 C274 C 0.36801 0.14632 1.16154
 C275 C 0.36800 0.16188 1.14601
 C276 C 0.35260 0.16195 1.13068
 C277 C 0.33703 0.14645 1.13070
 C278 C 0.33705 0.13106 1.14605
 C279 C 0.35264 0.13100 1.16156
 C280 C 0.38052 0.14291 1.17881
 N281 N 0.37305 0.12595 1.18914
 C282 C 0.35604 0.11851 1.17885
 C283 C 0.31974 0.11862 1.14270
 N284 N 0.30941 0.12616 1.12574
 C285 C 0.31970 0.14313 1.11825
 C286 C 0.35597 0.17927 1.11823
 N287 N 0.37299 0.18951 1.12570
 C288 C 0.38048 0.17914 1.14265
 H289 H 0.39380 0.15225 1.18373
 H290 H 0.34666 0.10528 1.18382
 H291 H 0.31482 0.10536 1.15209
 H292 H 0.31476 0.15254 1.10500
 H293 H 0.34658 0.18427 1.10500
 H294 H 0.39377 0.18403 1.15201
 C295 C 0.86907 0.64638 1.16166
 C296 C 0.86901 0.66197 1.14616
 C297 C 0.85361 0.66201 1.13083
 C298 C 0.83809 0.64647 1.13082
 C299 C 0.83815 0.63106 1.14615
 C300 C 0.85374 0.63102 1.16166
 C301 C 0.88158 0.64298 1.17894
 N302 N 0.87414 0.62598 1.18924
 C303 C 0.85716 0.61852 1.17893
 C304 C 0.82086 0.61860 1.14280
 N305 N 0.81048 0.62613 1.12587
 C306 C 0.82075 0.64313 1.11840
 C307 C 0.85692 0.67935 1.11840
 N308 N 0.87390 0.68965 1.12588
 C309 C 0.88144 0.67928 1.14281
 H310 H 0.89483 0.65235 1.18389
 H311 H 0.84780 0.60525 1.18387
 H312 H 0.81597 0.60532 1.15216
 H313 H 0.81575 0.65254 1.10518
 H314 H 0.84751 0.68434 1.10518
 H315 H 0.89472 0.68419 1.15217
 C316 C 0.86794 0.14716 0.66342
 C317 C 0.86795 0.16269 0.64785
 C318 C 0.85260 0.16272 0.63248
 C319 C 0.83704 0.14721 0.63249
 C320 C 0.83702 0.13186 0.64787
 C321 C 0.85256 0.13183 0.66342
 C322 C 0.88045 0.14375 0.68069
 N323 N 0.87296 0.12676 0.69099
 C324 C 0.85595 0.11932 0.68071
 C325 C 0.81975 0.11939 0.64445
 N326 N 0.80947 0.12686 0.62743
 C327 C 0.81978 0.14383 0.61996
 C328 C 0.85603 0.17996 0.61996
 N329 N 0.87304 0.19023 0.62742
 C330 C 0.88048 0.17993 0.64443
 H331 H 0.89375 0.15308 0.68559
 H332 H 0.84657 0.10606 0.68562
 H333 H 0.81481 0.10611 0.65380
 H334 H 0.81488 0.15317 0.60666
 H335 H 0.84669 0.18490 0.60666
 H336 H 0.89377 0.18482 0.65379
 C337 C 1.35372 0.36787 0.66221
 C338 C 1.33820 0.36790 0.64665
 C339 C 1.33818 0.35254 0.63129
 C340 C 1.35369 0.33695 0.63131
 C341 C 1.36904 0.33691 0.64671
 C342 C 1.36905 0.35247 0.66225
 C343 C 1.35711 0.38036 0.67950
 N344 N 1.37406 0.37285 0.68984
 C345 C 1.38152 0.35584 0.67956
 C346 C 1.38149 0.31959 0.64334
 N347 N 1.37400 0.30931 0.62634
 C348 C 1.35703 0.31965 0.61883
 C349 C 1.32090 0.35596 0.61879
 N350 N 1.31062 0.37297 0.62626
 C351 C 1.32094 0.38043 0.64325
 H352 H 1.34776 0.39366 0.68441
 H353 H 1.39476 0.34645 0.68453
 H354 H 1.39474 0.31463 0.65274
 H355 H 1.34765 0.31476 0.60555
 H356 H 1.31595 0.34659 0.60553
 H357 H 1.31602 0.39371 0.65261
 C358 C 1.35265 0.86712 1.16355
 C359 C 1.33711 0.86712 1.14799
 C360 C 1.33709 0.85172 1.13266
 C361 C 1.35260 0.83613 1.13271
 C362 C 1.36796 0.83613 1.14809
 C363 C 1.36798 0.85172 1.16361
 C364 C 1.35607 0.87970 1.18077
 N365 N 1.37307 0.87223 1.19109
 C366 C 1.38051 0.85516 1.18087
 C367 C 1.38047 0.81884 1.14471
 N368 N 1.37299 0.80855 1.12771
 C369 C 1.35600 0.81885 1.12021
 C370 C 1.31985 0.85516 1.12012
 N371 N 1.30960 0.87221 1.12752
 C372 C 1.31990 0.87968 1.14452
 H373 H 1.34674 0.89303 1.18561
 H374 H 1.39379 0.84580 1.18581
 H375 H 1.39376 0.81394 1.15408
 H376 H 1.34665 0.81396 1.10691
 H377 H 1.31493 0.84580 1.10683
 H378 H 1.31501 0.89301 1.15383
 C379 C 0.85268 0.36711 1.16385
 C380 C 0.83712 0.36713 1.14832
 C381 C 0.83711 0.35178 1.13294
 C382 C 0.85265 0.33623 1.13292
 C383 C 0.86804 0.33620 1.14828
 C384 C 0.86805 0.35174 1.16384
 C385 C 0.85612 0.37964 1.18111
 N386 N 0.87315 0.37217 1.19137
 C387 C 0.88060 0.35515 1.18108
 C388 C 0.88056 0.31895 1.14482
 N389 N 0.87308 0.30870 1.12780
 C390 C 0.85606 0.31899 1.12036
 C391 C 0.81986 0.35522 1.12043
 N392 N 0.80957 0.37223 1.12789
 C393 C 0.81987 0.37967 1.14491
 H394 H 0.84677 0.39295 1.18601
 H395 H 0.89391 0.34580 1.18597
 H396 H 0.89388 0.31404 1.15416
 H397 H 0.84669 0.31412 1.10706
 H398 H 0.81494 0.34590 1.10712
 H399 H 0.81497 0.39296 1.15426
 C400 C 0.85336 0.86874 0.66202
 C401 C 0.83782 0.86872 0.64647
 C402 C 0.83783 0.85335 0.63112
 C403 C 0.85338 0.83781 0.63113
 C404 C 0.86874 0.83783 0.64650
 C405 C 0.86873 0.85338 0.66204
 C406 C 0.85672 0.88123 0.67931
 N407 N 0.87370 0.87376 0.68964
 C408 C 0.88120 0.85677 0.67934
 C409 C 0.88123 0.82053 0.64314
 N410 N 0.87376 0.81020 0.62617
 C411 C 0.85677 0.82051 0.61867
 C412 C 0.82053 0.85671 0.61864
 N413 N 0.81020 0.87369 0.62610
 C414 C 0.82051 0.88119 0.64308
 H415 H 0.84734 0.89449 0.68425
 H416 H 0.89447 0.84741 0.68430
 H417 H 0.89449 0.81560 0.65253
 H418 H 0.84740 0.81555 0.60541
 H419 H 0.81560 0.84732 0.60538
 H420 H 0.81556 0.89446 0.65245
 C421 C 0.64657 0.63110 0.66212
 C422 C 0.66212 0.63110 0.64657
 C423 C 0.66212 0.64646 0.63120
 C424 C 0.64656 0.66200 0.63120
 C425 C 0.63120 0.66200 0.64656
 C426 C 0.63120 0.64646 0.66211
 C427 C 0.64320 0.61863 0.67942
 N428 N 0.62622 0.62611 0.68974
 C429 C 0.61873 0.64309 0.67941
 C430 C 0.61872 0.67930 0.64318
 N431 N 0.62620 0.68961 0.62619
 C432 C 0.64318 0.67929 0.61872
 C433 C 0.67942 0.64309 0.61873
 N434 N 0.68974 0.62611 0.62622
 C435 C 0.67943 0.61863 0.64321
 H436 H 0.65258 0.60537 0.68437
 H437 H 0.60546 0.65246 0.68435
 H438 H 0.60545 0.68424 0.65255
 H439 H 0.65256 0.68423 0.60545
 H440 H 0.68436 0.65246 0.60547
 H441 H 0.68438 0.60537 0.65259
 C442 C 0.64718 1.13270 1.16359
 C443 C 0.66273 1.13271 1.14805
 C444 C 0.66273 1.14809 1.13270
 C445 C 0.64719 1.16364 1.13271
 C446 C 0.63181 1.16363 1.14807
 C447 C 0.63180 1.14807 1.16360
 C448 C 0.64376 1.12015 1.18084
 N449 N 0.62673 1.12760 1.19112
 C450 C 0.61927 1.14463 1.18086
 C451 C 0.61928 1.18089 1.14465
 N452 N 0.62676 1.19118 1.12764
 C453 C 0.64378 1.18090 1.12018
 C454 C 0.67999 1.14467 1.12018
 N455 N 0.69028 1.12766 1.12763
 C456 C 0.67999 1.12019 1.14463
 H457 H 0.65311 1.10684 1.18572
 H458 H 0.60596 1.15398 1.18576
 H459 H 0.60597 1.18579 1.15401
 H460 H 0.65314 1.18580 1.10689
 H461 H 0.68491 1.15402 1.10689
 H462 H 0.68490 1.10688 1.15396
 C463 C 0.14757 0.63331 1.16405
 C464 C 0.16310 0.63331 1.14849
 C465 C 0.16312 0.64870 1.13315
 C466 C 0.14761 0.66428 1.13320
 C467 C 0.13226 0.66430 1.14859
 C468 C 0.13224 0.64872 1.16411
 C469 C 0.14413 0.62073 1.18126
 N470 N 0.12714 0.62819 1.19158
 C471 C 0.11970 0.64526 1.18136
 C472 C 0.11974 0.68158 1.14518
 N473 N 0.12721 0.69185 1.12815
 C474 C 0.14421 0.68155 1.12067
 C475 C 0.18034 0.64524 1.12059
 N476 N 0.19059 0.62818 1.12800
 C477 C 0.18030 0.62073 1.14501
 H478 H 0.15346 0.60738 1.18610
 H479 H 0.10641 0.65462 1.18629
 H480 H 0.10644 0.68648 1.15453
 H481 H 0.15354 0.68642 1.10735
 H482 H 0.18526 0.65458 1.10730
 H483 H 0.18518 0.60739 1.15431
 C484 C 0.14736 1.13287 0.66390
 C485 C 0.16287 1.13283 0.64832
 C486 C 0.16287 1.14819 0.63295
 C487 C 0.14736 1.16377 0.63298
 C488 C 0.13202 1.16381 0.64838
 C489 C 0.13202 1.14827 0.66393
 C490 C 0.14394 1.12033 0.68115
 N491 N 0.12695 1.12782 0.69146
 C492 C 0.11950 1.14486 0.68120
 C493 C 0.11951 1.18109 0.64496
 N494 N 0.12696 1.19134 0.62791
 C495 C 0.14395 1.18101 0.62043
 C496 C 0.18009 1.14472 0.62039
 N497 N 0.19036 1.12769 0.62782
 C498 C 0.18009 1.12027 0.64485
 H499 H 0.15327 1.10700 0.68602
 H500 H 0.10622 1.15423 0.68612
 H501 H 0.10623 1.18602 0.65433
 H502 H 0.15329 1.18587 0.60710
 H503 H 0.18498 1.15405 0.60707
 H504 H 0.18500 1.10695 0.65418
 C505 C 1.35264 0.63296 0.33645
 C506 C 1.33711 0.63297 0.35200
 C507 C 1.33705 0.64837 0.36733
 C508 C 1.35254 0.66395 0.36728
 C509 C 1.36790 0.66394 0.35190
 C510 C 1.36795 0.64836 0.33639
 C511 C 1.35609 0.62038 0.31923
 N512 N 1.37308 0.62784 0.30892
 C513 C 1.38049 0.64490 0.31914
 C514 C 1.38038 0.68122 0.35529
 N515 N 1.37290 0.69152 0.37230
 C516 C 1.35592 0.68122 0.37979
 C517 C 1.31982 0.64492 0.37988
 N518 N 1.30960 0.62787 0.37247
 C519 C 1.31991 0.62040 0.35547
 H520 H 1.34678 0.60704 0.31439
 H521 H 1.39376 0.65427 0.31420
 H522 H 1.39368 0.68612 0.34592
 H523 H 1.34656 0.68612 0.39310
 H524 H 1.31488 0.65427 0.39316
 H525 H 1.31505 0.60707 0.34617
 C526 C 1.35298 1.13264 0.83759
 C527 C 1.33744 1.13265 0.85314
 C528 C 1.33741 1.14803 0.86849
 C529 C 1.35293 1.16358 0.86847
 C530 C 1.36829 1.16357 0.85309
 C531 C 1.36831 1.14801 0.83756
 C532 C 1.35638 1.12012 0.82033
 N533 N 1.37336 1.12757 0.81000
 C534 C 1.38080 1.14458 0.82027
 C535 C 1.38077 1.18085 0.85647
 N536 N 1.37329 1.19114 0.87348
 C537 C 1.35631 1.18086 0.88097
 C538 C 1.32015 1.14462 0.88100
 N539 N 1.30989 1.12761 0.87355
 C540 C 1.32020 1.12014 0.85656
 H541 H 1.34705 1.10682 0.81543
 H542 H 1.39406 1.15393 0.81531
 H543 H 1.39405 1.18575 0.84709
 H544 H 1.34694 1.18577 0.89426
 H545 H 1.31520 1.15398 0.89428
 H546 H 1.31531 1.10685 0.84721
 C547 C 0.85325 0.63140 0.83803
 C548 C 0.83769 0.63141 0.85356
 C549 C 0.83766 0.64679 0.86891
 C550 C 0.85318 0.66234 0.86891
 C551 C 0.86856 0.66232 0.85355
 C552 C 0.86859 0.64676 0.83802
 C553 C 0.85666 0.61890 0.82075
 N554 N 0.87364 0.62637 0.81044
 C555 C 0.88109 0.64336 0.82074
 C556 C 0.88101 0.67961 0.85693
 N557 N 0.87351 0.68994 0.87389
 C558 C 0.85653 0.67964 0.88137
 C559 C 0.82036 0.64342 0.88138
 N560 N 0.81008 0.62643 0.87391
 C561 C 0.82042 0.61894 0.85694
 H562 H 0.84732 0.60563 0.81581
 H563 H 0.89435 0.65272 0.81580
 H564 H 0.89428 0.68453 0.84756
 H565 H 0.84715 0.68460 0.89463
 H566 H 0.81539 0.65280 0.89464
 H567 H 0.81551 0.60566 0.84758
 C568 C 0.85395 1.13057 0.33885
 C569 C 0.83837 1.13060 0.35436
 C570 C 0.83834 1.14597 0.36973
 C571 C 0.85390 1.16147 0.36977
 C572 C 0.86930 1.16143 0.35444
 C573 C 0.86933 1.14589 0.33889
 C574 C 0.85732 1.11812 0.32153
 N575 N 0.87431 1.12559 0.31123
 C576 C 0.88180 1.14253 0.32159
 C577 C 0.88176 1.17872 0.35781
 N578 N 0.87424 1.18907 0.37475
 C579 C 0.85724 1.17879 0.38222
 C580 C 0.82099 1.14265 0.38213
 N581 N 0.81067 1.12571 0.37461
 C582 C 0.82103 1.11820 0.35766
 H583 H 0.84792 1.10491 0.31653
 H584 H 0.89506 1.15190 0.31666
 H585 H 0.89503 1.18364 0.34844
 H586 H 0.84782 1.18379 0.39544
 H587 H 0.81600 1.15205 0.39537
 H588 H 0.81609 1.10497 0.34826
 C589 C 0.64704 0.36842 0.33708
 C590 C 0.66260 0.36838 0.35262
 C591 C 0.66259 0.35302 0.36799
 C592 C 0.64703 0.33752 0.36801
 C593 C 0.63165 0.33756 0.35265
 C594 C 0.63165 0.35310 0.33710
 C595 C 0.64364 0.38093 0.31980
 N596 N 0.62662 0.37349 0.30953
 C597 C 0.61913 0.35652 0.31983
 C598 C 0.61914 0.32031 0.35606
 N599 N 0.62661 0.30999 0.37305
 C600 C 0.64362 0.32025 0.38051
 C601 C 0.67988 0.35637 0.38047
 N602 N 0.69020 0.37333 0.37300
 C603 C 0.67989 0.38083 0.35601
 H604 H 0.65302 0.39418 0.31487
 H605 H 0.60584 0.34717 0.31493
 H606 H 0.60585 0.31542 0.34671
 H607 H 0.65299 0.31529 0.39378
 H608 H 0.68481 0.34700 0.39375
 H609 H 0.68483 0.39410 0.34664
 C610 C 0.64654 0.86865 0.83800
 C611 C 0.66209 0.86866 0.85354
 C612 C 0.66213 0.85331 0.86891
 C613 C 0.64661 0.83776 0.86892
 C614 C 0.63124 0.83775 0.85356
 C615 C 0.63120 0.85329 0.83801
 C616 C 0.64313 0.88112 0.82069
 N617 N 0.62616 0.87363 0.81039
 C618 C 0.61871 0.85666 0.82071
 C619 C 0.61879 0.82046 0.85696
 N620 N 0.62629 0.81015 0.87394
 C621 C 0.64326 0.82047 0.88141
 C622 C 0.67942 0.85670 0.88138
 N623 N 0.68970 0.87368 0.87388
 C624 C 0.67936 0.88114 0.85690
 H625 H 0.65248 0.89438 0.81574
 H626 H 0.60546 0.84728 0.81578
 H627 H 0.60552 0.81552 0.84759
 H628 H 0.65264 0.81553 0.89468
 H629 H 0.68439 0.84733 0.89465
 H630 H 0.68428 0.89441 0.84752
 C631 C 0.14681 0.36868 0.83713
 C632 C 0.16232 0.36867 0.85271
 C633 C 0.16229 0.35332 0.86809
 C634 C 0.14676 0.33779 0.86807
 C635 C 0.13142 0.33780 0.85267
 C636 C 0.13144 0.35333 0.83711
 C637 C 0.14345 0.38117 0.81983
 N638 N 0.12647 0.37370 0.80950
 C639 C 0.11898 0.35672 0.81980
 C640 C 0.11894 0.32053 0.85606
 N641 N 0.12638 0.31023 0.87307
 C642 C 0.14335 0.32052 0.88057
 C643 C 0.17955 0.35669 0.88061
 N644 N 0.18987 0.37366 0.87315
 C645 C 0.17959 0.38114 0.85613
 H646 H 0.15283 0.39443 0.81492
 H647 H 0.10571 0.34735 0.81486
 H648 H 0.10568 0.31560 0.84667
 H649 H 0.15269 0.31559 0.89387
 H650 H 0.18446 0.34733 0.89390
 H651 H 0.18454 0.39440 0.84677
 C652 C 0.14667 0.86842 0.33691
 C653 C 0.16221 0.86842 0.35246
 C654 C 0.16224 0.85303 0.36781
 C655 C 0.14674 0.83747 0.36778
 C656 C 0.13138 0.83747 0.35241
 C657 C 0.13134 0.85304 0.33688
 C658 C 0.14326 0.88094 0.31964
 N659 N 0.12629 0.87346 0.30933
 C660 C 0.11884 0.85644 0.31959
 C661 C 0.11893 0.82018 0.35579
 N662 N 0.12642 0.80986 0.37278
 C663 C 0.14338 0.82018 0.38026
 C664 C 0.17951 0.85643 0.38031
 N665 N 0.18977 0.87344 0.37287
 C666 C 0.17945 0.88092 0.35588
 H667 H 0.15261 0.89424 0.31475
 H668 H 0.10559 0.84706 0.31465
 H669 H 0.10566 0.81524 0.34642
 H670 H 0.15275 0.81525 0.39354
 H671 H 0.18446 0.84705 0.39358
 H672 H 0.18436 0.89421 0.34653
 O673 O 0.97957 0.92452 0.89573
 O674 O 0.97954 0.90016 0.87118
 C675 C 0.97242 0.91722 0.87864
 C676 C 0.95534 0.92847 0.86762
 C677 C 0.94841 0.92178 0.84780
 H678 H 0.95592 0.90861 0.84011
 O679 O 1.02035 1.07591 0.89553
 O680 O 1.02036 1.10028 0.87100
 C681 C 1.02751 1.08323 0.87845
 C682 C 1.04463 1.07203 0.86745
 C683 C 1.05168 1.07884 0.84772
 H684 H 1.04422 1.09205 0.84005
 O685 O 0.89551 0.97990 0.92439
 O686 O 0.87100 0.97984 0.90000
 C687 C 0.87844 0.97274 0.91708
 C688 C 0.86745 0.95568 0.92834
 C689 C 0.84765 0.94874 0.92165
 H690 H 0.83994 0.95624 0.90848
 O691 O 1.10443 1.02061 0.92427
 O692 O 1.12894 1.02060 0.89988
 C693 C 1.12151 1.02773 0.91694
 C694 C 1.13251 1.04481 0.92818
 C695 C 1.15228 1.05178 0.92144
 H696 H 1.15997 1.04430 0.90825
 O697 O 0.92429 0.89587 0.97970
 O698 O 0.89995 0.87136 0.97967
 C699 C 0.91699 0.87879 0.97255
 C700 C 0.92825 0.86777 0.95548
 C701 C 0.92156 0.84797 0.94854
 H702 H 0.90839 0.84029 0.95604
 O703 O 1.07564 1.10455 0.97955
 O704 O 1.09999 1.12907 0.97951
 C705 C 1.08294 1.12163 0.97239
 C706 C 1.07168 1.13264 0.95531
 C707 C 1.07838 1.15243 0.94834
 H708 H 1.09156 1.16010 0.95582
 O709 O 0.92418 1.02073 0.89561
 O710 O 0.89983 1.02072 0.87106
 C711 C 0.91687 1.02785 0.87850
 C712 C 0.92809 1.04491 0.86747
 C713 C 0.92133 1.05189 0.84769
 H714 H 0.90813 1.04443 0.84002
 O715 O 1.07568 0.97979 0.89559
 O716 O 1.10002 0.97972 0.87103
 C717 C 1.08297 0.97263 0.87849
 C718 C 1.07171 0.95558 0.86749
 C719 C 1.07835 0.94867 0.84764
 H720 H 1.09148 0.95618 0.83991
 O721 O 1.02049 0.89578 0.92440
 O722 O 1.02051 0.87127 0.90000
 C723 C 1.02764 0.87870 0.91707
 C724 C 1.04473 0.86768 0.92830
 C725 C 1.05171 0.84791 0.92156
 H726 H 1.04424 0.84023 0.90836
 O727 O 0.97943 1.10461 0.92424
 O728 O 0.97939 1.12912 0.89986
 C729 C 0.97226 1.12169 0.91692
 C730 C 0.95517 1.13270 0.92815
 C731 C 0.94812 1.15243 0.92134
 H732 H 0.95555 1.16007 0.90811
 O733 O 0.89543 1.07605 0.97960
 O734 O 0.87091 1.10044 0.97959
 C735 C 0.87835 1.08339 0.97245
 C736 C 0.86736 1.07219 0.95532
 C737 C 0.84765 1.07902 0.94822
 H738 H 0.83999 1.09226 0.95565
 O739 O 1.10445 0.92443 0.97965
 O740 O 1.12899 0.90006 0.97960
 C741 C 1.12152 0.91711 0.97247
 C742 C 1.13250 0.92833 0.95536
 C743 C 1.15226 0.92157 0.94834
 H744 H 1.15994 0.90838 0.95582
 O745 O 0.97946 1.07592 0.89552
 O746 O 0.97942 1.10027 0.87098
 C747 C 0.97231 1.08323 0.87843
 C748 C 0.95522 1.07201 0.86742
 C749 C 0.94822 1.07875 0.84764
 H750 H 0.95568 1.09193 0.83995
 O751 O 1.02044 0.92450 0.89569
 O752 O 1.02046 0.90015 0.87114
 C753 C 1.02757 0.91720 0.87858
 C754 C 1.04460 0.92845 0.86753
 C755 C 1.05149 0.92178 0.84769
 H756 H 1.04397 0.90863 0.83999
 O757 O 1.10439 0.97973 0.92429
 O758 O 1.12889 0.97966 0.89989
 C759 C 1.12146 0.97255 0.91696
 C760 C 1.13247 0.95546 0.92819
 C761 C 1.15223 0.94845 0.92143
 H762 H 1.15989 0.95591 0.90822
 O763 O 0.89549 1.02078 0.92433
 O764 O 0.87098 1.02078 0.89994
 C765 C 0.87841 1.02793 0.91699
 C766 C 0.86740 1.04505 0.92818
 C767 C 0.84769 1.05212 0.92133
 H768 H 0.84006 1.04468 0.90810
 O769 O 0.92417 1.10467 0.97960
 O770 O 0.89981 1.12922 0.97959
 C771 C 0.91685 1.12176 0.97245
 C772 C 0.92806 1.13274 0.95532
 C773 C 0.92125 1.15247 0.94827
 H774 H 0.90804 1.16014 0.95573
 O775 O 1.07577 0.89574 0.97970
 O776 O 1.10016 0.87121 0.97965
 C777 C 1.08309 0.87866 0.97254
 C778 C 1.07186 0.86766 0.95545
 C779 C 1.07859 0.84789 0.94847
 H780 H 1.09178 0.84020 0.95595
 O781 O 1.07571 1.02066 0.89557
 O782 O 1.10007 1.02066 0.87102
 C783 C 1.08303 1.02781 0.87847
 C784 C 1.07180 1.04491 0.86747
 C785 C 1.07861 1.05197 0.84773
 H786 H 1.09184 1.04453 0.84007
 O787 O 0.92423 0.97985 0.89569
 O788 O 0.89988 0.97979 0.87115
 C789 C 0.91693 0.97268 0.87861
 C790 C 0.92819 0.95561 0.86761
 C791 C 0.92151 0.94867 0.84779
 H792 H 0.90835 0.95617 0.84008
 O793 O 1.02031 1.10459 0.92426
 O794 O 1.02032 1.12912 0.89988
 C795 C 1.02745 1.12167 0.91694
 C796 C 1.04452 1.13267 0.92819
 C797 C 1.05146 1.15245 0.92147
 H798 H 1.04396 1.16014 0.90829
 O799 O 0.97961 0.89580 0.92442
 O800 O 0.97958 0.87129 0.90003
 C801 C 0.97246 0.87873 0.91710
 C802 C 0.95539 0.86773 0.92835
 C803 C 0.94846 0.84793 0.92165
 H804 H 0.95597 0.84023 0.90849
 O805 O 1.10438 1.07587 0.97956
 O806 O 1.12888 1.10023 0.97952
 C807 C 1.12146 1.08318 0.97240
 C808 C 1.13248 1.07194 0.95532
 C809 C 1.15225 1.07867 0.94835
 H810 H 1.15991 1.09185 0.95583
 O811 O 0.89560 0.92460 0.97970
 O812 O 0.87110 0.90024 0.97968
 C813 C 0.87852 0.91730 0.97256
 C814 C 0.86749 0.92854 0.95548
 C815 C 0.84769 0.92185 0.94855
 H816 H 0.84002 0.90869 0.95606
 Cu817 Cu 1.00003 0.91259 0.91251
 Cu818 Cu 1.00002 0.88326 0.88313
 Cu819 Cu 0.99989 1.08781 0.91233
 Cu820 Cu 0.99987 1.11716 0.88297
 Cu821 Cu 0.91229 1.00032 0.91245
 Cu822 Cu 0.88296 1.00028 0.88308
 Cu823 Cu 1.08761 1.00020 0.91237
 Cu824 Cu 1.11694 1.00015 0.88299
 C825 C 0.94525 0.94552 0.87730
 H826 H 0.95032 0.95060 0.89269
 C827 C 0.93162 0.93187 0.83792
 C828 C 1.05468 1.05493 0.87710
 H829 H 1.04951 1.04976 0.89244
 C830 C 1.06855 1.06881 0.83788
 C831 C 0.87714 0.94560 0.94540
 H832 H 0.89252 0.95068 0.95048
 C833 C 0.83780 0.93195 0.93176
 C834 C 1.12284 1.05487 0.94526
 H835 H 1.10748 1.04976 0.95037
 C836 C 1.16212 1.06859 0.93153
 C837 C 0.94531 0.87742 0.94540
 H838 H 0.95038 0.89280 0.95048
 C839 C 0.93167 0.83808 0.93175
 C840 C 1.05461 1.12299 0.94525
 H841 H 1.04953 1.10762 0.95035
 C842 C 1.06827 1.16230 0.93154
 C843 C 0.94518 1.05495 0.87710
 H844 H 0.95031 1.04983 0.89247
 C845 C 0.93139 1.06869 0.83780
 C846 C 1.05469 0.94549 0.87721
 H847 H 1.04966 0.95055 0.89262
 C848 C 1.06823 0.93189 0.83777
 C849 C 1.05478 0.87733 0.94539
 H850 H 1.04967 0.89270 0.95050
 C851 C 1.06853 0.83804 0.93164
 C852 C 0.94515 1.12308 0.94528
 H853 H 0.95032 1.10775 0.95045
 C854 C 0.93128 1.16228 0.93140
 C855 C 0.87700 1.05507 0.94532
 H856 H 0.89232 1.04988 0.95051
 C857 C 0.83785 1.06899 0.93134
 C858 C 1.12283 0.94542 0.94530
 H859 H 1.10748 0.95055 0.95044
 C860 C 1.16209 0.93163 0.93150
 O861 O 1.02053 0.92452 1.10458
 O862 O 1.02055 0.90017 1.12914
 C863 C 1.02767 0.91722 1.12168
 C864 C 1.04474 0.92845 1.13270
 C865 C 1.05172 0.92172 1.15249
 H866 H 1.04424 0.90855 1.16018
 O867 O 0.97962 1.07590 1.10451
 O868 O 0.97959 1.10025 1.12907
 C869 C 0.97249 1.08319 1.12162
 C870 C 0.95546 1.07192 1.13266
 C871 C 0.94862 1.07854 1.15253
 H872 H 0.95615 1.09166 1.16026
 O873 O 0.89557 1.02071 1.07585
 O874 O 0.87109 1.02078 1.10028
 C875 C 0.87851 1.02789 1.08320
 C876 C 0.86749 1.04499 1.07198
 C877 C 0.84774 1.05200 1.07876
 H878 H 0.84009 1.04455 1.09198
 O879 O 1.10451 0.97971 1.07585
 O880 O 1.12903 0.97968 1.10024
 C881 C 1.12159 0.97255 1.08318
 C882 C 1.13259 0.95545 1.07196
 C883 C 1.15234 0.94841 1.07874
 H884 H 1.16000 0.95586 1.09196
 O885 O 1.07585 0.89572 1.02061
 O886 O 1.10023 0.87120 1.02062
 C887 C 1.08319 0.87864 1.02777
 C888 C 1.07200 0.86766 1.04491
 C889 C 1.07883 0.84795 1.05200
 H890 H 1.09206 0.84029 1.04456
 O891 O 0.92417 1.10469 1.02052
 O892 O 0.89980 1.12923 1.02057
 C893 C 0.91685 1.12176 1.02769
 C894 C 0.92808 1.13274 1.04481
 C895 C 0.92129 1.15247 1.05187
 H896 H 0.90808 1.16015 1.04443
 O897 O 0.92429 0.97978 1.10454
 O898 O 0.89995 0.97979 1.12910
 C899 C 0.91699 0.97264 1.12164
 C900 C 0.92822 0.95554 1.13264
 C901 C 0.92145 0.94852 1.15240
 H902 H 0.90824 0.95598 1.16007
 O903 O 1.07579 1.02063 1.10453
 O904 O 1.10016 1.02067 1.12906
 C905 C 1.08311 1.02780 1.12161
 C906 C 1.07189 1.04491 1.13260
 C907 C 1.07867 1.05193 1.15236
 H908 H 1.09187 1.04446 1.16003
 O909 O 0.97970 0.89581 1.07585
 O910 O 0.97968 0.87130 1.10023
 C911 C 0.97256 0.87874 1.08316
 C912 C 0.95549 0.86774 1.07191
 C913 C 0.94859 0.84792 1.07858
 H914 H 0.95612 0.84020 1.09172
 O915 O 1.02041 1.10465 1.07577
 O916 O 1.02042 1.12917 1.10015
 C917 C 1.02754 1.12173 1.08308
 C918 C 1.04459 1.13274 1.07181
 C919 C 1.05152 1.15254 1.07850
 H920 H 1.04403 1.16025 1.09167
 O921 O 0.89557 0.92456 1.02061
 O922 O 0.87108 0.90019 1.02064
 C923 C 0.87850 0.91724 1.02777
 C924 C 0.86748 0.92848 1.04486
 C925 C 0.84772 0.92175 1.05185
 H926 H 0.84006 0.90856 1.04439
 O927 O 1.10437 1.07586 1.02046
 O928 O 1.12887 1.10022 1.02048
 C929 C 1.12145 1.08317 1.02761
 C930 C 1.13248 1.07193 1.04469
 C931 C 1.15228 1.07863 1.05161
 H932 H 1.15995 1.09179 1.04411
 O933 O 1.02050 1.07597 1.10450
 O934 O 1.02051 1.10033 1.12904
 C935 C 1.02766 1.08329 1.12159
 C936 C 1.04476 1.07207 1.13259
 C937 C 1.05179 1.07884 1.15235
 H938 H 1.04434 1.09205 1.16002
 O939 O 0.97965 0.92450 1.10457
 O940 O 0.97962 0.90014 1.12912
 C941 C 0.97249 0.91719 1.12166
 C942 C 0.95538 0.92841 1.13265
 C943 C 0.94836 0.92164 1.15241
 H944 H 0.95583 0.90844 1.16009
 O945 O 1.10446 1.02058 1.07579
 O946 O 1.12900 1.02062 1.10017
 C947 C 1.12154 1.02773 1.08310
 C948 C 1.13253 1.04480 1.07184
 C949 C 1.15233 1.05174 1.07852
 H950 H 1.16004 1.04424 1.09169
 O951 O 0.89555 0.97984 1.07586
 O952 O 0.87106 0.97985 1.10027
 C953 C 0.87848 0.97271 1.08320
 C954 C 0.86747 0.95563 1.07198
 C955 C 0.84771 0.94866 1.07874
 H956 H 0.84003 0.95615 1.09193
 O957 O 1.07566 1.10458 1.02045
 O958 O 1.10000 1.12909 1.02046
 C959 C 1.08296 1.12166 1.02759
 C960 C 1.07171 1.13269 1.04466
 C961 C 1.07840 1.15249 1.05158
 H962 H 1.09156 1.16017 1.04406
 O963 O 0.92434 0.89590 1.02059
 O964 O 0.90000 0.87138 1.02062
 C965 C 0.91705 0.87882 1.02774
 C966 C 0.92833 0.86779 1.04479
 C967 C 0.92167 0.84797 1.05170
 H968 H 0.90851 0.84028 1.04419
 O969 O 1.07579 0.97975 1.10456
 O970 O 1.10015 0.97973 1.12910
 C971 C 1.08311 0.97262 1.12166
 C972 C 1.07187 0.95555 1.13269
 C973 C 1.07860 0.94858 1.15248
 H974 H 1.09179 0.95605 1.16017
 O975 O 0.92433 1.02065 1.10452
 O976 O 0.90001 1.02071 1.12910
 C977 C 0.91706 1.02779 1.12164
 C978 C 0.92834 1.04482 1.13266
 C979 C 0.92174 1.05167 1.15254
 H980 H 0.90861 1.04415 1.16027
 O981 O 0.97953 1.10463 1.07581
 O982 O 0.97948 1.12913 1.10021
 C983 C 0.97235 1.12169 1.08315
 C984 C 0.95523 1.13270 1.07195
 C985 C 0.94820 1.15243 1.07876
 H986 H 0.95566 1.16008 1.09198
 O987 O 1.02058 0.89577 1.07591
 O988 O 1.02061 0.87128 1.10032
 C989 C 1.02775 0.87870 1.08325
 C990 C 1.04487 0.86770 1.07206
 C991 C 1.05194 0.84799 1.07890
 H992 H 1.04450 0.84035 1.09213
 O993 O 1.10450 0.92443 1.02057
 O994 O 1.12904 0.90006 1.02057
 C995 C 1.12160 0.91711 1.02771
 C996 C 1.13260 0.92832 1.04481
 C997 C 1.15234 0.92153 1.05183
 H998 H 1.16001 0.90832 1.04437
 O999 O 0.89550 1.07599 1.02052
 O1000 O 0.87097 1.10038 1.02057
 C1001 C 0.87842 1.08332 1.02769
 C1002 C 0.86745 1.07210 1.04481
 C1003 C 0.84770 1.07888 1.05184
 H1004 H 0.84001 1.09207 1.04437
 Cu1005 Cu 1.00012 0.91259 1.08778
 Cu1006 Cu 1.00011 0.88327 1.11716
 Cu1007 Cu 1.00002 1.08785 1.08770
 Cu1008 Cu 1.00000 1.11718 1.11708
 Cu1009 Cu 0.91239 0.91268 1.00015
 Cu1010 Cu 0.88307 0.88334 1.00016
 Cu1011 Cu 1.08770 0.91252 1.00014
 Cu1012 Cu 1.11707 0.88318 1.00010
 Cu1013 Cu 0.91225 1.08791 1.00006
 Cu1014 Cu 0.88292 1.11728 1.00009
 Cu1015 Cu 1.08757 1.08777 1.00001
 Cu1016 Cu 1.11689 1.11711 0.99999
 Cu1017 Cu 0.91237 1.00024 1.08774
 Cu1018 Cu 0.88307 1.00029 1.11715
 Cu1019 Cu 1.08770 1.00017 1.08774
 Cu1020 Cu 1.11704 1.00018 1.11710
 C1021 C 1.05480 0.94551 1.12302
 H1022 H 1.04969 0.95061 1.10764
 C1023 C 1.06853 0.93178 1.16235
 C1024 C 0.94535 1.05492 1.12295
 H1025 H 0.95036 1.04990 1.10751
 C1026 C 0.93188 1.06841 1.16244
 C1027 C 0.87711 1.05502 1.05486
 H1028 H 0.89246 1.04988 1.04971
 C1029 C 0.83788 1.06883 1.06870
 C1030 C 1.12295 0.94542 1.05485
 H1031 H 1.10761 0.95058 1.04970
 C1032 C 1.16218 0.93157 1.06868
 C1033 C 1.05488 0.87730 1.05492
 H1034 H 1.04970 0.89262 1.04973
 C1035 C 1.06880 0.83814 1.06887
 C1036 C 0.94519 1.12308 1.05483
 H1037 H 0.95035 1.10774 1.04966
 C1038 C 0.93135 1.16229 1.06873
 C1039 C 0.94532 0.94550 1.12299
 H1040 H 0.95046 0.95064 1.10764
 C1041 C 0.93151 0.93169 1.16226
 C1042 C 1.05480 1.05496 1.12295
 H1043 H 1.04965 1.04982 1.10760
 C1044 C 1.06863 1.06878 1.16220
 C1045 C 0.94538 0.87744 1.05488
 H1046 H 0.95043 0.89284 1.04982
 C1047 C 0.93181 0.83807 1.06847
 C1048 C 1.05466 1.12304 1.05475
 H1049 H 1.04959 1.10766 1.04968
 C1050 C 1.06831 1.16239 1.06837
 C1051 C 0.87713 0.94556 1.05490
 H1052 H 0.89248 0.95067 1.04977
 C1053 C 0.83786 0.93184 1.06867
 C1054 C 1.12283 1.05487 1.05478
 H1055 H 1.10745 1.04979 1.04970
 C1056 C 1.16217 1.06853 1.06841
 O1057 O 0.97985 0.42400 0.39547
 O1058 O 0.97985 0.39960 0.37097
 C1059 C 0.97270 0.41665 0.37840
 C1060 C 0.95558 0.42784 0.36738
 C1061 C 0.94855 0.42102 0.34764
 H1062 H 0.95601 0.40780 0.33999
 O1063 O 1.02073 0.57547 0.39542
 O1064 O 1.02071 0.59984 0.37088
 C1065 C 1.02787 0.58280 0.37833
 C1066 C 1.04500 0.57162 0.36733
 C1067 C 1.05206 0.57845 0.34761
 H1068 H 1.04461 0.59167 0.33996
 O1069 O 0.89588 0.47928 0.42421
 O1070 O 0.87135 0.47926 0.39983
 C1071 C 0.87880 0.47214 0.41690
 C1072 C 0.86779 0.45509 0.42816
 C1073 C 0.84801 0.44813 0.42143
 H1074 H 0.84034 0.45560 0.40823
 O1075 O 1.10475 0.52023 0.42418
 O1076 O 1.12927 0.52020 0.39979
 C1077 C 1.12183 0.52736 0.41685
 C1078 C 1.13282 0.54445 0.42806
 C1079 C 1.15255 0.55149 0.42127
 H1080 H 1.16022 0.54404 0.40805
 O1081 O 0.92462 0.39546 0.47967
 O1082 O 0.90030 0.37092 0.47964
 C1083 C 0.91734 0.37837 0.47253
 C1084 C 0.92862 0.36735 0.45547
 C1085 C 0.92200 0.34751 0.44860
 H1086 H 0.90887 0.33981 0.45614
 O1087 O 1.07596 0.60416 0.47944
 O1088 O 1.10028 0.62870 0.47942
 C1089 C 1.08325 0.62125 0.47229
 C1090 C 1.07199 0.63225 0.45520
 C1091 C 1.07868 0.65203 0.44822
 H1092 H 1.09185 0.65972 0.45570
 O1093 O 0.92459 0.52009 0.39547
 O1094 O 0.90023 0.52013 0.37092
 C1095 C 0.91729 0.52724 0.37837
 C1096 C 0.92854 0.54428 0.36734
 C1097 C 0.92188 0.55118 0.34750
 H1098 H 0.90873 0.54368 0.33979
 O1099 O 1.07599 0.47939 0.39551
 O1100 O 1.10034 0.47931 0.37096
 C1101 C 1.08329 0.47222 0.37842
 C1102 C 1.07203 0.45517 0.36741
 C1103 C 1.07870 0.44825 0.34758
 H1104 H 1.09185 0.45575 0.33987
 O1105 O 1.02077 0.39536 0.42423
 O1106 O 1.02083 0.37082 0.39987
 C1107 C 1.02794 0.37828 0.41693
 C1108 C 1.04502 0.36727 0.42818
 C1109 C 1.05202 0.34750 0.42143
 H1110 H 1.04456 0.33983 0.40822
 O1111 O 0.97978 0.60414 0.42412
 O1112 O 0.97971 0.62864 0.39972
 C1113 C 0.97260 0.62120 0.41679
 C1114 C 0.95550 0.63221 0.42801
 C1115 C 0.94849 0.65196 0.42125
 H1116 H 0.95596 0.65963 0.40804
 O1117 O 0.89581 0.57545 0.47943
 O1118 O 0.87127 0.59981 0.47940
 C1119 C 0.87872 0.58276 0.47228
 C1120 C 0.86773 0.57153 0.45519
 C1121 C 0.84794 0.57825 0.44821
 H1122 H 0.84025 0.59143 0.45570
 O1123 O 1.10468 0.42402 0.47954
 O1124 O 1.12921 0.39965 0.47953
 C1125 C 1.12176 0.41670 0.47239
 C1126 C 1.13276 0.42791 0.45528
 C1127 C 1.15252 0.42114 0.44827
 H1128 H 1.16019 0.40794 0.45573
 O1129 O 0.97985 0.57538 0.39546
 O1130 O 0.97978 0.59972 0.37090
 C1131 C 0.97269 0.58267 0.37835
 C1132 C 0.95565 0.57140 0.36733
 C1133 C 0.94874 0.57806 0.34749
 H1134 H 0.95624 0.59121 0.33978
 O1135 O 1.02073 0.42410 0.39555
 O1136 O 1.02078 0.39972 0.37102
 C1137 C 1.02788 0.41679 0.37846
 C1138 C 1.04493 0.42804 0.36743
 C1139 C 1.05185 0.42136 0.34760
 H1140 H 1.04435 0.40820 0.33990
 O1141 O 1.10470 0.47935 0.42422
 O1142 O 1.12922 0.47926 0.39983
 C1143 C 1.12177 0.47216 0.41689
 C1144 C 1.13276 0.45506 0.42813
 C1145 C 1.15252 0.44804 0.42137
 H1146 H 1.16019 0.45551 0.40817
 O1147 O 0.89584 0.52015 0.42414
 O1148 O 0.87133 0.52019 0.39975
 C1149 C 0.87876 0.52731 0.41681
 C1150 C 0.86775 0.54439 0.42805
 C1151 C 0.84797 0.55136 0.42132
 H1152 H 0.84029 0.54388 0.40813
 O1153 O 0.92448 0.60415 0.47942
 O1154 O 0.90009 0.62867 0.47939
 C1155 C 0.91715 0.62122 0.47226
 C1156 C 0.92836 0.63222 0.45516
 C1157 C 0.92160 0.65198 0.44814
 H1158 H 0.90840 0.65966 0.45561
 O1159 O 1.07601 0.39533 0.47960
 O1160 O 1.10038 0.37080 0.47959
 C1161 C 1.08333 0.37825 0.47245
 C1162 C 1.07212 0.36724 0.45536
 C1163 C 1.07888 0.34748 0.44837
 H1164 H 1.09206 0.33979 0.45585
 O1165 O 1.07607 0.52027 0.39544
 O1166 O 1.10043 0.52024 0.37090
 C1167 C 1.08339 0.52740 0.37834
 C1168 C 1.07218 0.54451 0.36733
 C1169 C 1.07900 0.55159 0.34761
 H1170 H 1.09225 0.54418 0.33996
 O1171 O 0.92452 0.47922 0.39543
 O1172 O 0.90015 0.47920 0.37090
 C1173 C 0.91720 0.47207 0.37835
 C1174 C 0.92842 0.45496 0.36735
 C1175 C 0.92163 0.44789 0.34762
 H1176 H 0.90840 0.45533 0.33995
 O1177 O 1.02066 0.60414 0.42416
 O1178 O 1.02063 0.62865 0.39977
 C1179 C 1.02777 0.62122 0.41684
 C1180 C 1.04484 0.63224 0.42807
 C1181 C 1.05177 0.65202 0.42134
 H1182 H 1.04426 0.65970 0.40815
 O1183 O 0.97990 0.39542 0.42431
 O1184 O 0.97991 0.37086 0.39996
 C1185 C 0.97278 0.37833 0.41702
 C1186 C 0.95574 0.36732 0.42831
 C1187 C 0.94887 0.34748 0.42168
 H1188 H 0.95639 0.33976 0.40854
 O1189 O 1.10470 0.57548 0.47946
 O1190 O 1.12918 0.59986 0.47944
 C1191 C 1.12177 0.58281 0.47231
 C1192 C 1.13279 0.57159 0.45521
 C1193 C 1.15251 0.57838 0.44817
 H1194 H 1.16015 0.59160 0.45562
 O1195 O 0.89585 0.42412 0.47963
 O1196 O 0.87137 0.39974 0.47959
 C1197 C 0.87879 0.41679 0.47246
 C1198 C 0.86778 0.42800 0.45535
 C1199 C 0.84801 0.42128 0.44838
 H1200 H 0.84032 0.40812 0.45588
 Cu1201 Cu 1.00031 0.41217 0.41233
 Cu1202 Cu 1.00035 0.38279 0.38300
 Cu1203 Cu 1.00025 0.58734 0.41223
 Cu1204 Cu 1.00020 0.61667 0.38285
 Cu1205 Cu 0.91265 0.49968 0.41225
 Cu1206 Cu 0.88331 0.49970 0.38289
 Cu1207 Cu 1.08794 0.49982 0.41228
 Cu1208 Cu 1.11727 0.49974 0.38291
 C1209 C 0.94554 0.44495 0.37700
 H1210 H 0.95069 0.45013 0.39234
 C1211 C 0.93169 0.43104 0.33779
 C1212 C 1.05504 0.55450 0.37696
 H1213 H 1.04986 0.54932 0.39229
 C1214 C 1.06895 0.56845 0.33778
 C1215 C 0.87745 0.44505 0.44526
 H1216 H 0.89281 0.45014 0.45037
 C1217 C 0.83815 0.43135 0.43154
 C1218 C 1.12317 0.55448 0.44518
 H1219 H 1.10784 0.54933 0.45033
 C1220 C 1.16236 0.56834 0.43131
 C1221 C 0.94564 0.37703 0.44535
 H1222 H 0.95066 0.39244 0.45038
 C1223 C 0.93212 0.33761 0.43183
 C1224 C 1.05493 0.62258 0.44514
 H1225 H 1.04985 0.60721 0.45025
 C1226 C 1.06857 0.66189 0.43141
 C1227 C 0.94557 0.55437 0.37703
 H1228 H 0.95063 0.54932 0.39244
 C1229 C 0.93198 0.56795 0.33761
 C1230 C 1.05500 0.44508 0.37711
 H1231 H 1.04994 0.45015 0.39252
 C1232 C 1.06861 0.43147 0.33771
 C1233 C 1.05504 0.37691 0.44528
 H1234 H 1.04991 0.39227 0.45040
 C1235 C 1.06883 0.33764 0.43152
 C1236 C 0.94545 0.62256 0.44511
 H1237 H 0.95059 0.60721 0.45024
 C1238 C 0.93166 0.66182 0.43131
 C1239 C 0.87740 0.55446 0.44513
 H1240 H 0.89277 0.54935 0.45024
 C1241 C 0.83809 0.56817 0.43140
 C1242 C 1.12310 0.44501 0.44523
 H1243 H 1.10775 0.45015 0.45036
 C1244 C 1.16236 0.43121 0.43143
 O1245 O 1.02071 0.42419 0.60458
 O1246 O 1.02077 0.39984 0.62914
 C1247 C 1.02788 0.41689 0.62167
 C1248 C 1.04496 0.42812 0.63267
 C1249 C 1.05193 0.42143 0.65247
 H1250 H 1.04444 0.40828 0.66019
 O1251 O 0.97980 0.57547 0.60444
 O1252 O 0.97975 0.59986 0.62896
 C1253 C 0.97265 0.58280 0.62153
 C1254 C 0.95559 0.57157 0.63256
 C1255 C 0.94865 0.57829 0.65237
 H1256 H 0.95615 0.59145 0.66006
 O1257 O 0.89585 0.52022 0.57576
 O1258 O 0.87132 0.52031 0.60013
 C1259 C 0.87877 0.52740 0.58306
 C1260 C 0.86775 0.54445 0.57177
 C1261 C 0.84794 0.55138 0.57844
 H1262 H 0.84024 0.54390 0.59162
 O1263 O 1.10472 0.47939 0.57573
 O1264 O 1.12925 0.47935 0.60011
 C1265 C 1.12181 0.47224 0.58305
 C1266 C 1.13282 0.45516 0.57179
 C1267 C 1.15263 0.44822 0.57848
 H1268 H 1.16033 0.45572 0.59164
 O1269 O 1.07602 0.39538 0.52052
 O1270 O 1.10040 0.37086 0.52057
 C1271 C 1.08335 0.37832 0.52770
 C1272 C 1.07215 0.36735 0.54483
 C1273 C 1.07894 0.34761 0.55189
 H1274 H 1.09215 0.33993 0.54443
 O1275 O 0.92450 0.60414 0.52033
 O1276 O 0.90012 0.62867 0.52035
 C1277 C 0.91718 0.62122 0.52748
 C1278 C 0.92841 0.63224 0.54456
 C1279 C 0.92172 0.65205 0.55148
 H1280 H 0.90856 0.65975 0.54396
 O1281 O 0.92451 0.47935 0.60456
 O1282 O 0.90013 0.47938 0.62909
 C1283 C 0.91718 0.47222 0.62165
 C1284 C 0.92839 0.45512 0.63268
 C1285 C 0.92154 0.44807 0.65240
 H1286 H 0.90830 0.45551 0.66003
 O1287 O 1.07601 0.52027 0.60445
 O1288 O 1.10038 0.52029 0.62899
 C1289 C 1.08332 0.52742 0.62154
 C1290 C 1.07208 0.54450 0.63255
 C1291 C 1.07882 0.55149 0.65233
 H1292 H 1.09202 0.54402 0.66001
 O1293 O 0.97986 0.39547 0.57589
 O1294 O 0.97988 0.37095 0.60028
 C1295 C 0.97273 0.37839 0.58322
 C1296 C 0.95565 0.36738 0.57199
 C1297 C 0.94867 0.34763 0.57876
 H1298 H 0.95614 0.33996 0.59197
 O1299 O 1.02063 0.60415 0.57568
 O1300 O 1.02063 0.62870 0.60003
 C1301 C 1.02776 0.62124 0.58297
 C1302 C 1.04480 0.63226 0.57170
 C1303 C 1.05166 0.65209 0.57835
 H1304 H 1.04414 0.65980 0.59150
 O1305 O 0.89582 0.42413 0.52055
 O1306 O 0.87133 0.39975 0.52057
 C1307 C 0.87875 0.41680 0.52770
 C1308 C 0.86773 0.42802 0.54480
 C1309 C 0.84799 0.42126 0.55183
 H1310 H 0.84033 0.40806 0.54437
 O1311 O 1.10469 0.57549 0.52037
 O1312 O 1.12916 0.59988 0.52041
 C1313 C 1.12175 0.58282 0.52754
 C1314 C 1.13276 0.57161 0.54465
 C1315 C 1.15250 0.57837 0.55166
 H1316 H 1.16016 0.59156 0.54418
 O1317 O 1.02068 0.57550 0.60445
 O1318 O 1.02068 0.59989 0.62896
 C1319 C 1.02782 0.58284 0.62153
 C1320 C 1.04492 0.57163 0.63255
 C1321 C 1.05190 0.57837 0.65233
 H1322 H 1.04442 0.59156 0.66001
 O1323 O 0.97982 0.42412 0.60465
 O1324 O 0.97983 0.39976 0.62919
 C1325 C 0.97267 0.41680 0.62174
 C1326 C 0.95554 0.42800 0.63273
 C1327 C 0.94845 0.42118 0.65246
 H1328 H 0.95588 0.40795 0.66012
 O1329 O 1.10471 0.52026 0.57574
 O1330 O 1.12924 0.52029 0.60012
 C1331 C 1.12179 0.52741 0.58306
 C1332 C 1.13278 0.54450 0.57182
 C1333 C 1.15253 0.55150 0.57858
 H1334 H 1.16020 0.54404 0.59179
 O1335 O 0.89582 0.47935 0.57584
 O1336 O 0.87129 0.47939 0.60021
 C1337 C 0.87873 0.47224 0.58316
 C1338 C 0.86773 0.45515 0.57195
 C1339 C 0.84799 0.44815 0.57873
 H1340 H 0.84033 0.45561 0.59194
 O1341 O 1.07593 0.60415 0.52034
 O1342 O 1.10024 0.62870 0.52037
 C1343 C 1.08320 0.62124 0.52749
 C1344 C 1.07193 0.63226 0.54455
 C1345 C 1.07855 0.65209 0.55144
 H1346 H 1.09169 0.65980 0.54392
 O1347 O 0.92457 0.39546 0.52058
 O1348 O 0.90024 0.37093 0.52060
 C1349 C 0.91728 0.37838 0.52774
 C1350 C 0.92851 0.36738 0.54484
 C1351 C 0.92178 0.34763 0.55186
 H1352 H 0.90858 0.33996 0.54439
 O1353 O 1.07603 0.47940 0.60447
 O1354 O 1.10040 0.47937 0.62900
 C1355 C 1.08335 0.47226 0.62157
 C1356 C 1.07211 0.45521 0.63261
 C1357 C 1.07883 0.44827 0.65241
 H1358 H 1.09202 0.45574 0.66009
 O1359 O 0.92453 0.52022 0.60450
 O1360 O 0.90017 0.52031 0.62904
 C1361 C 0.91722 0.52740 0.62158
 C1362 C 0.92847 0.54446 0.63259
 C1363 C 0.92178 0.55142 0.65240
 H1364 H 0.90862 0.54394 0.66010
 O1365 O 0.97976 0.60414 0.57569
 O1366 O 0.97971 0.62869 0.60005
 C1367 C 0.97260 0.62123 0.58299
 C1368 C 0.95553 0.63224 0.57172
 C1369 C 0.94859 0.65205 0.57840
 H1370 H 0.95608 0.65975 0.59157
 O1371 O 1.02074 0.39546 0.57590
 O1372 O 1.02081 0.37096 0.60029
 C1373 C 1.02792 0.37839 0.58322
 C1374 C 1.04502 0.36739 0.57200
 C1375 C 1.05206 0.34766 0.57880
 H1376 H 1.04461 0.34001 0.59203
 O1377 O 1.10470 0.42407 0.52045
 O1378 O 1.12924 0.39971 0.52049
 C1379 C 1.12179 0.41677 0.52760
 C1380 C 1.13281 0.42802 0.54466
 C1381 C 1.15262 0.42133 0.55158
 H1382 H 1.16031 0.40816 0.54408
 O1383 O 0.89582 0.57545 0.52034
 O1384 O 0.87128 0.59982 0.52037
 C1385 C 0.87874 0.58277 0.52750
 C1386 C 0.86774 0.57154 0.54459
 C1387 C 0.84792 0.57823 0.55150
 H1388 H 0.84021 0.59138 0.54397
 Cu1389 Cu 1.00028 0.41225 0.58782
 Cu1390 Cu 1.00033 0.38292 0.61719
 Cu1391 Cu 1.00022 0.58737 0.58763
 Cu1392 Cu 1.00019 0.61675 0.61696
 Cu1393 Cu 0.91265 0.41224 0.50011
 Cu1394 Cu 0.88336 0.38287 0.50010
 Cu1395 Cu 1.08791 0.41214 0.50002
 Cu1396 Cu 1.11727 0.38280 0.50005
 Cu1397 Cu 0.91260 0.58736 0.49988
 Cu1398 Cu 0.88323 0.61670 0.49988
 Cu1399 Cu 1.08789 0.58738 0.49990
 Cu1400 Cu 1.11717 0.61674 0.49991
 Cu1401 Cu 0.91262 0.49978 0.58772
 Cu1402 Cu 0.88327 0.49986 0.61708
 Cu1403 Cu 1.08793 0.49983 0.58765
 Cu1404 Cu 1.11728 0.49982 0.61701
 C1405 C 1.05503 0.44516 0.62296
 H1406 H 1.04993 0.45024 0.60757
 C1407 C 1.06874 0.43150 0.66232
 C1408 C 0.94552 0.55452 0.62289
 H1409 H 0.95059 0.54943 0.60750
 C1410 C 0.93187 0.56821 0.66226
 C1411 C 0.87743 0.55451 0.55470
 H1412 H 0.89282 0.54943 0.54964
 C1413 C 0.83805 0.56815 0.56831
 C1414 C 1.12314 0.44509 0.55474
 H1415 H 1.10775 0.45017 0.54967
 C1416 C 1.16250 0.43143 0.56837
 C1417 C 1.05505 0.37701 0.55487
 H1418 H 1.04989 0.39234 0.54971
 C1419 C 1.06890 0.33780 0.56875
 C1420 C 0.94546 0.62256 0.55466
 H1421 H 0.95055 0.60717 0.54959
 C1422 C 0.93180 0.66192 0.56827
 C1423 C 0.94553 0.44511 0.62308
 H1424 H 0.95072 0.45028 0.60775
 C1425 C 0.93157 0.43121 0.66226
 C1426 C 1.05499 0.55455 0.62289
 H1427 H 1.04988 0.54943 0.60752
 C1428 C 1.06873 0.56831 0.66219
 C1429 C 0.94560 0.37703 0.55489
 H1430 H 0.95071 0.39238 0.54975
 C1431 C 0.93185 0.33779 0.56870
 C1432 C 1.05490 0.62257 0.55466
 H1433 H 1.04988 0.60716 0.54961
 C1434 C 1.06842 0.66198 0.56822
 C1435 C 0.87737 0.44511 0.55484
 H1436 H 0.89271 0.45024 0.54969
 C1437 C 0.83815 0.43132 0.56868
 C1438 C 1.12312 0.55453 0.55471
 H1439 H 1.10778 0.54940 0.54958
 C1440 C 1.16236 0.56832 0.56850
 O1441 O 0.47934 0.92429 0.39520
 O1442 O 0.47935 0.89994 0.37065
 C1443 C 0.47220 0.91698 0.37810
 C1444 C 0.45510 0.92820 0.36710
 C1445 C 0.44806 0.92141 0.34735
 H1446 H 0.45552 0.90819 0.33969
 O1447 O 0.52024 1.07580 0.39528
 O1448 O 0.52025 1.10019 0.37076
 C1449 C 0.52739 1.08313 0.37819
 C1450 C 0.54449 1.07192 0.36718
 C1451 C 0.55153 1.07873 0.34743
 H1452 H 0.54408 1.09195 0.33978
 O1453 O 0.39541 0.97964 0.42396
 O1454 O 0.37089 0.97966 0.39958
 C1455 C 0.37833 0.97252 0.41664
 C1456 C 0.36732 0.95545 0.42788
 C1457 C 0.34754 0.94851 0.42116
 H1458 H 0.33985 0.95602 0.40798
 O1459 O 0.60410 1.02042 0.42402
 O1460 O 0.62865 1.02044 0.39967
 C1461 C 0.62119 1.02755 0.41674
 C1462 C 0.63220 1.04458 0.42804
 C1463 C 0.65205 1.05144 0.42142
 H1464 H 0.65977 1.04392 0.40827
 O1465 O 0.42412 0.89557 0.47920
 O1466 O 0.39974 0.87110 0.47918
 C1467 C 0.41679 0.87851 0.47204
 C1468 C 0.42799 0.86751 0.45492
 C1469 C 0.42120 0.84778 0.44786
 H1470 H 0.40799 0.84013 0.45532
 O1471 O 0.57543 1.10442 0.47944
 O1472 O 0.59981 1.12891 0.47939
 C1473 C 0.58275 1.12149 0.47227
 C1474 C 0.57152 1.13250 0.45518
 C1475 C 0.57823 1.15228 0.44821
 H1476 H 0.59141 1.15995 0.45571
 O1477 O 0.42414 1.02047 0.39527
 O1478 O 0.39979 1.02053 0.37072
 C1479 C 0.41684 1.02763 0.37817
 C1480 C 0.42809 1.04468 0.36716
 C1481 C 0.42141 1.05160 0.34733
 H1482 H 0.40827 1.04409 0.33962
 O1483 O 0.57543 0.97960 0.39524
 O1484 O 0.59981 0.97957 0.37071
 C1485 C 0.58276 0.97245 0.37815
 C1486 C 0.57155 0.95537 0.36712
 C1487 C 0.57831 0.94839 0.34734
 H1488 H 0.59149 0.95587 0.33967
 O1489 O 0.52022 0.89559 0.42393
 O1490 O 0.52029 0.87108 0.39954
 C1491 C 0.52739 0.87851 0.41661
 C1492 C 0.54447 0.86750 0.42786
 C1493 C 0.55145 0.84772 0.42114
 H1494 H 0.54398 0.84004 0.40795
 O1495 O 0.47933 1.10446 0.42402
 O1496 O 0.47928 1.12899 0.39965
 C1497 C 0.47216 1.12154 0.41671
 C1498 C 0.45508 1.13255 0.42796
 C1499 C 0.44810 1.15232 0.42123
 H1500 H 0.45557 1.16000 0.40803
 O1501 O 0.39536 1.07578 0.47933
 O1502 O 0.37084 1.10016 0.47930
 C1503 C 0.37829 1.08311 0.47216
 C1504 C 0.36730 1.07190 0.45504
 C1505 C 0.34755 1.07867 0.44802
 H1506 H 0.33987 1.09187 0.45549
 O1507 O 0.60416 0.92427 0.47926
 O1508 O 0.62870 0.89991 0.47925
 C1509 C 0.62125 0.91695 0.47211
 C1510 C 0.63225 0.92818 0.45502
 C1511 C 0.65202 0.92142 0.44802
 H1512 H 0.65970 0.90823 0.45550
 O1513 O 0.47937 1.07576 0.39530
 O1514 O 0.47932 1.10013 0.37077
 C1515 C 0.47222 1.08307 0.37821
 C1516 C 0.45518 1.07182 0.36717
 C1517 C 0.44826 1.07850 0.34734
 H1518 H 0.45575 1.09166 0.33964
 O1519 O 0.52022 0.92429 0.39521
 O1520 O 0.52028 0.89994 0.37066
 C1521 C 0.52738 0.91699 0.37812
 C1522 C 0.54446 0.92823 0.36712
 C1523 C 0.55146 0.92150 0.34733
 H1524 H 0.54401 0.90831 0.33965
 O1525 O 0.60414 0.97955 0.42394
 O1526 O 0.62868 0.97952 0.39958
 C1527 C 0.62123 0.97239 0.41663
 C1528 C 0.63224 0.95530 0.42787
 C1529 C 0.65201 0.94831 0.42112
 H1530 H 0.65968 0.95578 0.40792
 O1531 O 0.39542 1.02051 0.42396
 O1532 O 0.37090 1.02058 0.39957
 C1533 C 0.37835 1.02769 0.41664
 C1534 C 0.36734 1.04478 0.42787
 C1535 C 0.34759 1.05180 0.42110
 H1536 H 0.33993 1.04434 0.40789
 O1537 O 0.42404 1.10447 0.47935
 O1538 O 0.39967 1.12901 0.47933
 C1539 C 0.41672 1.12155 0.47220
 C1540 C 0.42796 1.13255 0.45511
 C1541 C 0.42122 1.15233 0.44814
 H1542 H 0.40803 1.16002 0.45562
 O1543 O 0.57548 0.89559 0.47926
 O1544 O 0.59987 0.87107 0.47925
 C1545 C 0.58281 0.87851 0.47211
 C1546 C 0.57159 0.86750 0.45502
 C1547 C 0.57833 0.84772 0.44806
 H1548 H 0.59151 0.84003 0.45556
 O1549 O 0.57548 1.02048 0.39522
 O1550 O 0.59988 1.02051 0.37071
 C1551 C 0.58282 1.02765 0.37814
 C1552 C 0.57162 1.04477 0.36715
 C1553 C 0.57841 1.05182 0.34740
 H1554 H 0.59162 1.04436 0.33973
 O1555 O 0.42407 0.97959 0.39520
 O1556 O 0.39970 0.97960 0.37067
 C1557 C 0.41674 0.97245 0.37811
 C1558 C 0.42795 0.95534 0.36710
 C1559 C 0.42116 0.94830 0.34735
 H1560 H 0.40794 0.95575 0.33969
 O1561 O 0.52020 1.10444 0.42405
 O1562 O 0.52021 1.12898 0.39969
 C1563 C 0.52734 1.12153 0.41675
 C1564 C 0.54440 1.13252 0.42801
 C1565 C 0.55136 1.15230 0.42129
 H1566 H 0.54388 1.15999 0.40810
 O1567 O 0.47935 0.89557 0.42388
 O1568 O 0.47936 0.87106 0.39949
 C1569 C 0.47221 0.87850 0.41655
 C1570 C 0.45512 0.86750 0.42776
 C1571 C 0.44808 0.84778 0.42095
 H1572 H 0.45553 0.84012 0.40773
 O1573 O 0.60410 1.07567 0.47944
 O1574 O 0.62863 1.09999 0.47940
 C1575 C 0.62118 1.08295 0.47228
 C1576 C 0.63220 1.07168 0.45522
 C1577 C 0.65204 1.07829 0.44835
 H1578 H 0.65976 1.09141 0.45590
 O1579 O 0.39545 0.92432 0.47922
 O1580 O 0.37090 0.90000 0.47921
 C1581 C 0.37835 0.91704 0.47208
 C1582 C 0.36734 0.92830 0.45501
 C1583 C 0.34755 0.92160 0.44804
 H1584 H 0.33987 0.90843 0.45552
 Cu1585 Cu 0.49978 0.91237 0.41200
 Cu1586 Cu 0.49983 0.88305 0.38262
 Cu1587 Cu 0.49979 1.08767 0.41210
 Cu1588 Cu 0.49976 1.11703 0.38276
 Cu1589 Cu 0.41220 1.00004 0.41204
 Cu1590 Cu 0.38286 1.00010 0.38268
 Cu1591 Cu 0.58734 1.00001 0.41204
 Cu1592 Cu 0.61671 1.00001 0.38271
 C1593 C 0.44507 0.94531 0.37674
 H1594 H 0.45022 0.95047 0.39208
 C1595 C 0.43121 0.93145 0.33751
 C1596 C 0.55452 1.05480 0.37680
 H1597 H 0.54936 1.04964 0.39214
 C1598 C 0.56837 1.06868 0.33758
 C1599 C 0.37699 0.94536 0.44495
 H1600 H 0.39237 0.95044 0.45005
 C1601 C 0.33768 0.93171 0.43124
 C1602 C 0.62250 1.05468 0.44508
 H1603 H 0.60708 1.04966 0.45010
 C1604 C 0.66194 1.06817 0.43158
 C1605 C 0.44509 0.87713 0.44489
 H1606 H 0.45024 0.89246 0.45005
 C1607 C 0.43124 0.83795 0.43100
 C1608 C 0.55446 1.12285 0.44509
 H1609 H 0.54936 1.10748 0.45019
 C1610 C 0.56816 1.16215 0.43139
 C1611 C 0.44511 1.05477 0.37685
 H1612 H 0.45018 1.04970 0.39226
 C1613 C 0.43150 1.06839 0.33745
 C1614 C 0.55448 0.94531 0.37678
 H1615 H 0.54936 0.95042 0.39215
 C1616 C 0.56826 0.93157 0.33748
 C1617 C 0.55452 0.87716 0.44494
 H1618 H 0.54941 0.89254 0.45004
 C1619 C 0.56826 0.83786 0.43124
 C1620 C 0.44503 1.12289 0.44504
 H1621 H 0.45015 1.10752 0.45015
 C1622 C 0.43128 1.16219 0.43131
 C1623 C 0.37697 1.05481 0.44499
 H1624 H 0.39232 1.04967 0.45013
 C1625 C 0.33772 1.06862 0.43116
 C1626 C 0.62259 0.94526 0.44496
 H1627 H 0.60723 0.95038 0.45008
 C1628 C 0.66187 0.93149 0.43119
 O1629 O 0.52017 0.92428 0.60423
 O1630 O 0.52022 0.89992 0.62877
 C1631 C 0.52732 0.91697 0.62133
 C1632 C 0.54437 0.92821 0.63236
 C1633 C 0.55130 0.92151 0.65218
 H1634 H 0.54381 0.90835 0.65987
 O1635 O 0.47938 1.07571 0.60436
 O1636 O 0.47930 1.10007 0.62890
 C1637 C 0.47221 1.08302 0.62145
 C1638 C 0.45513 1.07180 0.63244
 C1639 C 0.44814 1.07852 0.65223
 H1640 H 0.45562 1.09169 0.65993
 O1641 O 0.39537 1.02055 0.57557
 O1642 O 0.37084 1.02056 0.59995
 C1643 C 0.37828 1.02770 0.58289
 C1644 C 0.36727 1.04479 0.57167
 C1645 C 0.34754 1.05183 0.57847
 H1646 H 0.33988 1.04439 0.59169
 O1647 O 0.60411 0.97957 0.57558
 O1648 O 0.62864 0.97947 0.59995
 C1649 C 0.62119 0.97239 0.58288
 C1650 C 0.63220 0.95533 0.57160
 C1651 C 0.65202 0.94840 0.57827
 H1652 H 0.65972 0.95589 0.59144
 O1653 O 0.57547 0.89560 0.52017
 O1654 O 0.59985 0.87107 0.52021
 C1655 C 0.58279 0.87852 0.52733
 C1656 C 0.57155 0.86751 0.54440
 C1657 C 0.57825 0.84770 0.55134
 H1658 H 0.59142 0.84000 0.54383
 O1659 O 0.42405 1.10442 0.52026
 O1660 O 0.39969 1.12897 0.52029
 C1661 C 0.41674 1.12151 0.52742
 C1662 C 0.42798 1.13250 0.54452
 C1663 C 0.42127 1.15230 0.55147
 H1664 H 0.40810 1.16000 0.54397
 O1665 O 0.42407 0.97963 0.60428
 O1666 O 0.39968 0.97959 0.62879
 C1667 C 0.41674 0.97247 0.62136
 C1668 C 0.42796 0.95537 0.63236
 C1669 C 0.42121 0.94838 0.65214
 H1670 H 0.40803 0.95587 0.65982
 O1671 O 0.57548 1.02047 0.60439
 O1672 O 0.59987 1.02042 0.62891
 C1673 C 0.58282 1.02759 0.62148
 C1674 C 0.57164 1.04472 0.63250
 C1675 C 0.57850 1.05179 0.65220
 H1676 H 0.59174 1.04435 0.65984
 O1677 O 0.47932 0.89558 0.57552
 O1678 O 0.47931 0.87106 0.59990
 C1679 C 0.47218 0.87850 0.58283
 C1680 C 0.45512 0.86750 0.57158
 C1681 C 0.44813 0.84774 0.57833
 H1682 H 0.45558 0.84007 0.59154
 O1683 O 0.52023 1.10443 0.57568
 O1684 O 0.52021 1.12895 0.60005
 C1685 C 0.52736 1.12151 0.58300
 C1686 C 0.54444 1.13251 0.57177
 C1687 C 0.55146 1.15224 0.57856
 H1688 H 0.54400 1.15990 0.59179
 O1689 O 0.39549 0.92435 0.52012
 O1690 O 0.37095 0.90003 0.52016
 C1691 C 0.37840 0.91707 0.52728
 C1692 C 0.36739 0.92834 0.54435
 C1693 C 0.34757 0.92170 0.55125
 H1694 H 0.33987 0.90856 0.54373
 O1695 O 0.60415 1.07572 0.52035
 O1696 O 0.62868 1.10005 0.52036
 C1697 C 0.62123 1.08301 0.52750
 C1698 C 0.63224 1.07178 0.54460
 C1699 C 0.65199 1.07852 0.55161
 H1700 H 0.65966 1.09171 0.54415
 O1701 O 0.52026 1.07576 0.60443
 O1702 O 0.52025 1.10013 0.62896
 C1703 C 0.52740 1.08309 0.62152
 C1704 C 0.54452 1.07188 0.63252
 C1705 C 0.55163 1.07872 0.65223
 H1706 H 0.54422 1.09196 0.65988
 O1707 O 0.47930 0.92427 0.60424
 O1708 O 0.47929 0.89991 0.62878
 C1709 C 0.47215 0.91696 0.62134
 C1710 C 0.45507 0.92820 0.63235
 C1711 C 0.44808 0.92145 0.65213
 H1712 H 0.45554 0.90825 0.65981
 O1713 O 0.60414 1.02044 0.57564
 O1714 O 0.62868 1.02040 0.60001
 C1715 C 0.62123 1.02755 0.58296
 C1716 C 0.63224 1.04464 0.57174
 C1717 C 0.65199 1.05162 0.57851
 H1718 H 0.65966 1.04414 0.59171
 O1719 O 0.39545 0.97967 0.57549
 O1720 O 0.37090 0.97964 0.59984
 C1721 C 0.37836 0.97253 0.58278
 C1722 C 0.36737 0.95548 0.57150
 C1723 C 0.34754 0.94859 0.57815
 H1724 H 0.33983 0.95610 0.59131
 O1725 O 0.57545 1.10443 0.52035
 O1726 O 0.59982 1.12892 0.52036
 C1727 C 0.58277 1.12150 0.52750
 C1728 C 0.57156 1.13251 0.54461
 C1729 C 0.57834 1.15224 0.55165
 H1730 H 0.59154 1.15990 0.54419
 O1731 O 0.42414 0.89558 0.52012
 O1732 O 0.39976 0.87110 0.52016
 C1733 C 0.41681 0.87852 0.52728
 C1734 C 0.42803 0.86751 0.54439
 C1735 C 0.42128 0.84775 0.55138
 H1736 H 0.40810 0.84008 0.54389
 O1737 O 0.57541 0.97959 0.60431
 O1738 O 0.59978 0.97949 0.62884
 C1739 C 0.58272 0.97240 0.62139
 C1740 C 0.57148 0.95534 0.63239
 C1741 C 0.57816 0.94840 0.65221
 H1742 H 0.59131 0.95589 0.65992
 O1743 O 0.42408 1.02050 0.60429
 O1744 O 0.39971 1.02052 0.62881
 C1745 C 0.41676 1.02764 0.62138
 C1746 C 0.42799 1.04470 0.63242
 C1747 C 0.42124 1.05168 0.65221
 H1748 H 0.40805 1.04422 0.65988
 O1749 O 0.47936 1.10440 0.57564
 O1750 O 0.47928 1.12892 0.60001
 C1751 C 0.47218 1.12148 0.58294
 C1752 C 0.45511 1.13248 0.57168
 C1753 C 0.44815 1.15228 0.57839
 H1754 H 0.45564 1.15996 0.59157
 O1755 O 0.52019 0.89560 0.57550
 O1756 O 0.52024 0.87107 0.59988
 C1757 C 0.52735 0.87852 0.58282
 C1758 C 0.54443 0.86751 0.57156
 C1759 C 0.55137 0.84770 0.57824
 H1760 H 0.54387 0.84000 0.59141
 O1761 O 0.60413 0.92431 0.52017
 O1762 O 0.62867 0.89994 0.52021
 C1763 C 0.62121 0.91699 0.52733
 C1764 C 0.63221 0.92823 0.54442
 C1765 C 0.65203 0.92155 0.55134
 H1766 H 0.65974 0.90839 0.54381
 O1767 O 0.39532 1.07579 0.52025
 O1768 O 0.37080 1.10018 0.52027
 C1769 C 0.37824 1.08313 0.52740
 C1770 C 0.36725 1.07192 0.54451
 C1771 C 0.34751 1.07871 0.55156
 H1772 H 0.33984 1.09193 0.54410
 Cu1773 Cu 0.49974 0.91238 0.58743
 Cu1774 Cu 0.49977 0.88303 0.61679
 Cu1775 Cu 0.49982 1.08763 0.58759
 Cu1776 Cu 0.49975 1.11698 0.61694
 Cu1777 Cu 0.41225 0.91239 0.49966
 Cu1778 Cu 0.38288 0.88310 0.49968
 Cu1779 Cu 0.58737 0.91238 0.49971
 Cu1780 Cu 0.61673 0.88304 0.49974
 Cu1781 Cu 0.41213 1.08767 0.49980
 Cu1782 Cu 0.38279 1.11704 0.49980
 Cu1783 Cu 0.58734 1.08762 0.49990
 Cu1784 Cu 0.61669 1.11692 0.49987
 Cu1785 Cu 0.41219 1.00009 0.58747
 Cu1786 Cu 0.38282 1.00007 0.61681
 Cu1787 Cu 0.58734 1.00003 0.58754
 Cu1788 Cu 0.61670 0.99993 0.61689
 C1789 C 0.55444 0.94527 0.62269
 H1790 H 0.54937 0.95035 0.60729
 C1791 C 0.56807 0.93161 0.66208
 C1792 C 0.44507 1.05474 0.62277
 H1793 H 0.45019 1.04964 0.60739
 C1794 C 0.43132 1.06847 0.66208
 C1795 C 0.37690 1.05482 0.55455
 H1796 H 0.39224 1.04966 0.54940
 C1797 C 0.33768 1.06867 0.56842
 C1798 C 0.62252 0.94527 0.55453
 H1799 H 0.60713 0.95035 0.54946
 C1800 C 0.66190 0.93163 0.56814
 C1801 C 0.55450 0.87719 0.55449
 H1802 H 0.54941 0.89257 0.54942
 C1803 C 0.56816 0.83783 0.56813
 C1804 C 0.44504 1.12282 0.55460
 H1805 H 0.45013 1.10744 0.54951
 C1806 C 0.43135 1.16216 0.56829
 C1807 C 0.44503 0.94529 0.62270
 H1808 H 0.45015 0.95041 0.60733
 C1809 C 0.43127 0.93155 0.66199
 C1810 C 0.55451 1.05474 0.62289
 H1811 H 0.54931 1.04956 0.60757
 C1812 C 0.56851 1.06868 0.66204
 C1813 C 0.44509 0.87715 0.55447
 H1814 H 0.45021 0.89251 0.54935
 C1815 C 0.43133 0.83790 0.56823
 C1816 C 0.55447 1.12287 0.55465
 H1817 H 0.54933 1.10754 0.54950
 C1818 C 0.56829 1.16208 0.56851
 C1819 C 0.37707 0.94538 0.55445
 H1820 H 0.39247 0.95042 0.54940
 C1821 C 0.33767 0.93182 0.56803
 C1822 C 0.62259 1.05470 0.55464
 H1823 H 0.60724 1.04958 0.54950
 C1824 C 0.66184 1.06844 0.56845
 O1825 O 0.47960 0.42416 0.89584
 O1826 O 0.47955 0.39982 0.87128
 C1827 C 0.47244 0.41687 0.87874
 C1828 C 0.45538 0.42814 0.86773
 C1829 C 0.44844 0.42144 0.84792
 H1830 H 0.45594 0.40827 0.84023
 O1831 O 0.52032 0.57555 0.89586
 O1832 O 0.52037 0.59991 0.87131
 C1833 C 0.52748 0.58285 0.87877
 C1834 C 0.54454 0.57158 0.86776
 C1835 C 0.55147 0.57826 0.84793
 H1836 H 0.54398 0.59143 0.84023
 O1837 O 0.39554 0.47956 0.92448
 O1838 O 0.37103 0.47954 0.90008
 C1839 C 0.37846 0.47243 0.91715
 C1840 C 0.36745 0.45537 0.92840
 C1841 C 0.34766 0.44843 0.92168
 H1842 H 0.33998 0.45593 0.90849
 O1843 O 0.60434 0.52014 0.92455
 O1844 O 0.62886 0.52020 0.90016
 C1845 C 0.62141 0.52731 0.91723
 C1846 C 0.63239 0.54438 0.92848
 C1847 C 0.65218 0.55132 0.92178
 H1848 H 0.65989 0.54383 0.90861
 O1849 O 0.42424 0.39555 0.97975
 O1850 O 0.39987 0.37106 0.97973
 C1851 C 0.41692 0.37848 0.97260
 C1852 C 0.42815 0.36745 0.95551
 C1853 C 0.42139 0.34770 0.94851
 H1854 H 0.40818 0.34005 0.95598
 O1855 O 0.57555 0.60422 0.97986
 O1856 O 0.59992 0.62871 0.97984
 C1857 C 0.58287 0.62129 0.97271
 C1858 C 0.57163 0.63233 0.95564
 C1859 C 0.57832 0.65212 0.94871
 H1860 H 0.59148 0.65980 0.95622
 O1861 O 0.42423 0.52040 0.89575
 O1862 O 0.39988 0.52043 0.87120
 C1863 C 0.41692 0.52755 0.87865
 C1864 C 0.42814 0.54462 0.86764
 C1865 C 0.42140 0.55160 0.84785
 H1866 H 0.40822 0.54413 0.84016
 O1867 O 0.57569 0.47929 0.89578
 O1868 O 0.60005 0.47929 0.87124
 C1869 C 0.58302 0.47216 0.87869
 C1870 C 0.57181 0.45507 0.86767
 C1871 C 0.57860 0.44805 0.84791
 H1872 H 0.59180 0.45550 0.84025
 O1873 O 0.52047 0.39537 0.92451
 O1874 O 0.52048 0.37087 0.90012
 C1875 C 0.52762 0.37829 0.91718
 C1876 C 0.54473 0.36728 0.92839
 C1877 C 0.55179 0.34756 0.92155
 H1878 H 0.54435 0.33993 0.90831
 O1879 O 0.47942 0.60431 0.92453
 O1880 O 0.47941 0.62883 0.90014
 C1881 C 0.47228 0.62139 0.91720
 C1882 C 0.45520 0.63242 0.92844
 C1883 C 0.44820 0.65218 0.92168
 H1884 H 0.45566 0.65985 0.90848
 O1885 O 0.39550 0.57569 0.97986
 O1886 O 0.37097 0.60007 0.97982
 C1887 C 0.37842 0.58302 0.97269
 C1888 C 0.36744 0.57180 0.95558
 C1889 C 0.34767 0.57855 0.94857
 H1890 H 0.33999 0.59174 0.95605
 O1891 O 0.60446 0.42398 0.97979
 O1892 O 0.62898 0.39960 0.97978
 C1893 C 0.62154 0.41665 0.97263
 C1894 C 0.63252 0.42785 0.95551
 C1895 C 0.65224 0.42104 0.94842
 H1896 H 0.65990 0.40781 0.95585
 O1897 O 0.47944 0.57565 0.89577
 O1898 O 0.47944 0.60001 0.87123
 C1899 C 0.47231 0.58297 0.87867
 C1900 C 0.45524 0.57175 0.86765
 C1901 C 0.44826 0.57849 0.84786
 H1902 H 0.45572 0.59168 0.84018
 O1903 O 0.52047 0.42405 0.89578
 O1904 O 0.52048 0.39970 0.87123
 C1905 C 0.52762 0.41674 0.87868
 C1906 C 0.54470 0.42794 0.86767
 C1907 C 0.55173 0.42117 0.84791
 H1908 H 0.54429 0.40796 0.84024
 O1909 O 0.60438 0.47926 0.92451
 O1910 O 0.62889 0.47927 0.90012
 C1911 C 0.62146 0.47212 0.91718
 C1912 C 0.63248 0.45500 0.92837
 C1913 C 0.65219 0.44795 0.92154
 H1914 H 0.65983 0.45540 0.90830
 O1915 O 0.39557 0.52043 0.92450
 O1916 O 0.37105 0.52047 0.90010
 C1917 C 0.37849 0.52759 0.91717
 C1918 C 0.36747 0.54468 0.92841
 C1919 C 0.34771 0.55168 0.92165
 H1920 H 0.34004 0.54422 0.90844
 O1921 O 0.42418 0.60438 0.97988
 O1922 O 0.39981 0.62891 0.97983
 C1923 C 0.41686 0.62146 0.97271
 C1924 C 0.42808 0.63245 0.95561
 C1925 C 0.42133 0.65221 0.94861
 H1926 H 0.40814 0.65990 0.95610
 O1927 O 0.57576 0.39531 0.97980
 O1928 O 0.60013 0.37077 0.97979
 C1929 C 0.58308 0.37823 0.97265
 C1930 C 0.57187 0.36724 0.95553
 C1931 C 0.57869 0.34753 0.94845
 H1932 H 0.59192 0.33987 0.95588
 O1933 O 0.57562 0.52017 0.89585
 O1934 O 0.59998 0.52022 0.87130
 C1935 C 0.58292 0.52733 0.87876
 C1936 C 0.57167 0.54441 0.86775
 C1937 C 0.57835 0.55134 0.84793
 H1938 H 0.59151 0.54383 0.84022
 O1939 O 0.42428 0.47953 0.89581
 O1940 O 0.39993 0.47950 0.87125
 C1941 C 0.41698 0.47237 0.87871
 C1942 C 0.42824 0.45529 0.86771
 C1943 C 0.42154 0.44834 0.84789
 H1944 H 0.40838 0.45584 0.84019
 O1945 O 0.52029 0.60430 0.92453
 O1946 O 0.52034 0.62882 0.90014
 C1947 C 0.52745 0.62137 0.91721
 C1948 C 0.54451 0.63236 0.92848
 C1949 C 0.55145 0.65216 0.92179
 H1950 H 0.54395 0.65987 0.90862
 O1951 O 0.47959 0.39541 0.92450
 O1952 O 0.47954 0.37091 0.90011
 C1953 C 0.47242 0.37835 0.91717
 C1954 C 0.45531 0.36738 0.92839
 C1955 C 0.44830 0.34764 0.92164
 H1956 H 0.45578 0.33994 0.90845
 O1957 O 0.60424 0.57548 0.97984
 O1958 O 0.62876 0.59982 0.97982
 C1959 C 0.62132 0.58278 0.97269
 C1960 C 0.63234 0.57153 0.95562
 C1961 C 0.65214 0.57822 0.94867
 H1962 H 0.65981 0.59140 0.95617
 O1963 O 0.39555 0.42428 0.97977
 O1964 O 0.37102 0.39994 0.97975
 C1965 C 0.37846 0.41698 0.97262
 C1966 C 0.36745 0.42823 0.95554
 C1967 C 0.34766 0.42154 0.94858
 H1968 H 0.33998 0.40837 0.95606
 Cu1969 Cu 0.50004 0.41219 0.91261
 Cu1970 Cu 0.50001 0.38287 0.88322
 Cu1971 Cu 0.49987 0.58751 0.91262
 Cu1972 Cu 0.49989 0.61685 0.88324
 Cu1973 Cu 0.41235 0.49998 0.91258
 Cu1974 Cu 0.38301 0.49999 0.88320
 Cu1975 Cu 0.58757 0.49971 0.91262
 Cu1976 Cu 0.61690 0.49975 0.88325
 C1977 C 0.44529 0.44521 0.87740
 H1978 H 0.45037 0.45029 0.89279
 C1979 C 0.43165 0.43154 0.83803
 C1980 C 0.55462 0.55451 0.87744
 H1981 H 0.54955 0.54944 0.89284
 C1982 C 0.56825 0.56814 0.83805
 C1983 C 0.37711 0.44529 0.94547
 H1984 H 0.39249 0.45037 0.95057
 C1985 C 0.33780 0.43164 0.93176
 C1986 C 0.62270 0.55446 0.94554
 H1987 H 0.60732 0.54938 0.95062
 C1988 C 0.66203 0.56813 0.93188
 C1989 C 0.44525 0.37706 0.94547
 H1990 H 0.45039 0.39241 0.95060
 C1991 C 0.43146 0.33782 0.93169
 C1992 C 0.55458 0.62267 0.94554
 H1993 H 0.54950 0.60729 0.95062
 C1994 C 0.56823 0.66201 0.93191
 C1995 C 0.44520 0.55467 0.87730
 H1996 H 0.45032 0.54955 0.89268
 C1997 C 0.43146 0.56842 0.83799
 C1998 C 0.55472 0.44504 0.87732
 H1999 H 0.54958 0.45018 0.89267
 C2000 C 0.56856 0.43121 0.83806
 C2001 C 0.55475 0.37689 0.94552
 H2002 H 0.54957 0.39221 0.95070
 C2003 C 0.56865 0.33772 0.93158
 C2004 C 0.44516 0.62278 0.94554
 H2005 H 0.45028 0.60742 0.95067
 C2006 C 0.43138 0.66205 0.93177
 C2007 C 0.37711 0.55472 0.94551
 H2008 H 0.39247 0.54959 0.95064
 C2009 C 0.33784 0.56850 0.93173
 C2010 C 0.62287 0.44498 0.94550
 H2011 H 0.60755 0.45015 0.95069
 C2012 C 0.66204 0.43108 0.93155
 O2013 O 0.52037 0.42412 1.10479
 O2014 O 0.52038 0.39975 1.12933
 C2015 C 0.52751 0.41679 1.12189
 C2016 C 0.54458 0.42801 1.13291
 C2017 C 0.55156 0.42128 1.15270
 H2018 H 0.54408 0.40810 1.16039
 O2019 O 0.47942 0.57560 1.10482
 O2020 O 0.47941 0.59996 1.12937
 C2021 C 0.47227 0.58292 1.12192
 C2022 C 0.45518 0.57172 1.13293
 C2023 C 0.44815 0.57853 1.15268
 H2024 H 0.45560 0.59173 1.16033
 O2025 O 0.39549 0.52043 1.07609
 O2026 O 0.37096 0.52045 1.10047
 C2027 C 0.37840 0.52759 1.08342
 C2028 C 0.36740 0.54469 1.07219
 C2029 C 0.34767 0.55175 1.07899
 H2030 H 0.34001 0.54432 1.09222
 O2031 O 0.60433 0.47927 1.07606
 O2032 O 0.62885 0.47924 1.10045
 C2033 C 0.62142 0.47212 1.08338
 C2034 C 0.63243 0.45502 1.07216
 C2035 C 0.65218 0.44800 1.07895
 H2036 H 0.65983 0.45545 1.09217
 O2037 O 0.57573 0.39535 1.02071
 O2038 O 0.60010 0.37081 1.02077
 C2039 C 0.58305 0.37827 1.02789
 C2040 C 0.57182 0.36730 1.04501
 C2041 C 0.57859 0.34755 1.05205
 H2042 H 0.59179 0.33987 1.04460
 O2043 O 0.42415 0.60439 1.02079
 O2044 O 0.39977 0.62892 1.02081
 C2045 C 0.41682 0.62147 1.02795
 C2046 C 0.42803 0.63245 1.04507
 C2047 C 0.42124 0.65219 1.05212
 H2048 H 0.40803 0.65987 1.04466
 O2049 O 0.42421 0.47951 1.10477
 O2050 O 0.39983 0.47947 1.12930
 C2051 C 0.41688 0.47234 1.12185
 C2052 C 0.42811 0.45523 1.13285
 C2053 C 0.42134 0.44822 1.15261
 H2054 H 0.40814 0.45570 1.16028
 O2055 O 0.57562 0.52019 1.10474
 O2056 O 0.59998 0.52022 1.12928
 C2057 C 0.58293 0.52735 1.12183
 C2058 C 0.57169 0.54444 1.13285
 C2059 C 0.57844 0.55141 1.15263
 H2060 H 0.59163 0.54393 1.16031
 O2061 O 0.47954 0.39546 1.07602
 O2062 O 0.47950 0.37092 1.10038
 C2063 C 0.47239 0.37838 1.08331
 C2064 C 0.45533 0.36739 1.07204
 C2065 C 0.44840 0.34758 1.07870
 H2066 H 0.45590 0.33986 1.09186
 O2067 O 0.52028 0.60426 1.07609
 O2068 O 0.52033 0.62877 1.10048
 C2069 C 0.52744 0.62133 1.08341
 C2070 C 0.54452 0.63232 1.07217
 C2071 C 0.55150 0.65208 1.07890
 H2072 H 0.54402 0.65977 1.09209
 O2073 O 0.39557 0.42428 1.02068
 O2074 O 0.37105 0.39994 1.02071
 C2075 C 0.37849 0.41699 1.02784
 C2076 C 0.36747 0.42823 1.04492
 C2077 C 0.34767 0.42154 1.05185
 H2078 H 0.33999 0.40838 1.04434
 O2079 O 0.60424 0.57546 1.02074
 O2080 O 0.62877 0.59980 1.02077
 C2081 C 0.62133 0.58275 1.02788
 C2082 C 0.63236 0.57148 1.04494
 C2083 C 0.65219 0.57813 1.05184
 H2084 H 0.65987 0.59128 1.04432
 O2085 O 0.52030 0.57554 1.10478
 O2086 O 0.52035 0.59989 1.12933
 C2087 C 0.52746 0.58284 1.12187
 C2088 C 0.54455 0.57158 1.13287
 C2089 C 0.55154 0.57831 1.15265
 H2090 H 0.54407 0.59150 1.16034
 O2091 O 0.47949 0.42415 1.10475
 O2092 O 0.47945 0.39977 1.12928
 C2093 C 0.47232 0.41683 1.12183
 C2094 C 0.45523 0.42806 1.13284
 C2095 C 0.44821 0.42130 1.15260
 H2096 H 0.45566 0.40809 1.16028
 O2097 O 0.60432 0.52015 1.07603
 O2098 O 0.62885 0.52017 1.10041
 C2099 C 0.62140 0.52729 1.08334
 C2100 C 0.63240 0.54434 1.07208
 C2101 C 0.65223 0.55124 1.07874
 H2102 H 0.65995 0.54372 1.09189
 O2103 O 0.39551 0.47956 1.07605
 O2104 O 0.37097 0.47952 1.10042
 C2105 C 0.37843 0.47241 1.08335
 C2106 C 0.36744 0.45535 1.07208
 C2107 C 0.34764 0.44841 1.07877
 H2108 H 0.33993 0.45590 1.09195
 O2109 O 0.57556 0.60420 1.02076
 O2110 O 0.59993 0.62869 1.02080
 C2111 C 0.58288 0.62127 1.02793
 C2112 C 0.57165 0.63228 1.04502
 C2113 C 0.57838 0.65205 1.05200
 H2114 H 0.59157 0.65972 1.04451
 O2115 O 0.42428 0.39557 1.02066
 O2116 O 0.39991 0.37107 1.02069
 C2117 C 0.41697 0.37849 1.02781
 C2118 C 0.42822 0.36746 1.04487
 C2119 C 0.42153 0.34765 1.05177
 H2120 H 0.40838 0.33997 1.04425
 O2121 O 0.57563 0.47932 1.10478
 O2122 O 0.59999 0.47929 1.12932
 C2123 C 0.58295 0.47218 1.12188
 C2124 C 0.57171 0.45511 1.13290
 C2125 C 0.57844 0.44814 1.15269
 H2126 H 0.59163 0.45561 1.16037
 O2127 O 0.42416 0.52039 1.10484
 O2128 O 0.39979 0.52041 1.12937
 C2129 C 0.41684 0.52753 1.12193
 C2130 C 0.42805 0.54462 1.13294
 C2131 C 0.42125 0.55167 1.15269
 H2132 H 0.40804 0.54424 1.16035
 O2133 O 0.47940 0.60431 1.07611
 O2134 O 0.47940 0.62881 1.10050
 C2135 C 0.47226 0.62139 1.08344
 C2136 C 0.45516 0.63241 1.07223
 C2137 C 0.44813 0.65215 1.07903
 H2138 H 0.45558 0.65979 1.09225
 O2139 O 0.52042 0.39544 1.07605
 O2140 O 0.52043 0.37092 1.10043
 C2141 C 0.52757 0.37836 1.08337
 C2142 C 0.54467 0.36735 1.07215
 C2143 C 0.55169 0.34760 1.07895
 H2144 H 0.54423 0.33995 1.09216
 O2145 O 0.60443 0.42401 1.02071
 O2146 O 0.62895 0.39963 1.02076
 C2147 C 0.62150 0.41669 1.02788
 C2148 C 0.63248 0.42790 1.04500
 C2149 C 0.65223 0.42113 1.05203
 H2150 H 0.65991 0.40793 1.04457
 O2151 O 0.39548 0.57570 1.02077
 O2152 O 0.37095 0.60007 1.02079
 C2153 C 0.37839 0.58303 1.02793
 C2154 C 0.36740 0.57182 1.04504
 C2155 C 0.34767 0.57863 1.05208
 H2156 H 0.34001 0.59185 1.04463
 Cu2157 Cu 0.49995 0.41223 1.08796
 Cu2158 Cu 0.49994 0.38288 1.11731
 Cu2159 Cu 0.49985 0.58749 1.08800
 Cu2160 Cu 0.49987 0.61681 1.11738
 Cu2161 Cu 0.41235 0.41236 1.00021
 Cu2162 Cu 0.38300 0.38305 1.00022
 Cu2163 Cu 0.58765 0.41210 1.00025
 Cu2164 Cu 0.61700 0.38274 1.00028
 Cu2165 Cu 0.41227 0.58760 1.00033
 Cu2166 Cu 0.38291 0.61695 1.00031
 Cu2167 Cu 0.58745 0.58740 1.00030
 Cu2168 Cu 0.61681 0.61671 1.00031
 Cu2169 Cu 0.41228 0.49997 1.08800
 Cu2170 Cu 0.38293 0.49996 1.11735
 Cu2171 Cu 0.58754 0.49973 1.08796
 Cu2172 Cu 0.61688 0.49973 1.11733
 C2173 C 0.55464 0.44507 1.12324
 H2174 H 0.54953 0.45018 1.10786
 C2175 C 0.56837 0.43134 1.16256
 C2176 C 0.44515 0.55463 1.12330
 H2177 H 0.45031 0.54946 1.10795
 C2178 C 0.43130 0.56851 1.16252
 C2179 C 0.37704 0.55471 1.05507
 H2180 H 0.39237 0.54954 1.04991
 C2181 C 0.33783 0.56860 1.06894
 C2182 C 0.62281 0.44499 1.05504
 H2183 H 0.60747 0.45013 1.04989
 C2184 C 0.66205 0.43117 1.06889
 C2185 C 0.55472 0.37697 1.05504
 H2186 H 0.54958 0.39231 1.04988
 C2187 C 0.56853 0.33773 1.06890
 C2188 C 0.44513 0.62279 1.05510
 H2189 H 0.45028 0.60745 1.04994
 C2190 C 0.43129 0.66201 1.06898
 C2191 C 0.44519 0.44517 1.12319
 H2192 H 0.45033 0.45030 1.10783
 C2193 C 0.43138 0.43137 1.16246
 C2194 C 0.55461 0.55450 1.12319
 H2195 H 0.54949 0.54940 1.10782
 C2196 C 0.56837 0.56823 1.16250
 C2197 C 0.44526 0.37710 1.05498
 H2198 H 0.45033 0.39249 1.04993
 C2199 C 0.43162 0.33774 1.06856
 C2200 C 0.55458 0.62265 1.05508
 H2201 H 0.54947 0.60729 1.04997
 C2202 C 0.56831 0.66192 1.06882
 C2203 C 0.37713 0.44528 1.05501
 H2204 H 0.39251 0.45035 1.04994
 C2205 C 0.33778 0.43163 1.06865
 C2206 C 0.62270 0.55444 1.05504
 H2207 H 0.60730 0.54939 1.04999
 C2208 C 0.66209 0.56801 1.06861
 C2209 C 1.11205 1.10020 1.22188
 C2210 C 1.10182 1.11781 1.23511
 C2211 C 1.10485 1.10436 1.25487
 C2212 C 1.11520 1.08686 1.24194
 C2213 C 1.09035 1.09020 1.21895
 C2214 C 1.09337 1.07674 1.23871
 C2215 C 1.08000 1.10770 1.23188
 C2216 C 1.08315 1.09436 1.25195
 C2217 C 1.11304 1.11238 1.27478
 C2218 C 1.11989 1.11913 1.29105
 C2219 C 1.08241 1.08243 1.19885
 C2220 C 1.07604 1.07615 1.18220
 H2221 H 1.12384 1.10251 1.20930
 H2222 H 1.10539 1.13479 1.23385
 H2223 H 1.12976 1.07838 1.24630
 H2224 H 1.08980 1.05976 1.23995
 H2225 H 1.06544 1.11618 1.22752
 H2226 H 1.07135 1.09205 1.26455
 C2227 C 1.07679 0.59301 0.73872
 C2228 C 1.09412 0.58239 0.75205
 C2229 C 1.10460 0.60386 0.75500
 C2230 C 1.08740 0.61460 0.74200
 C2231 C 1.09025 0.58968 0.71903
 C2232 C 1.10074 0.61115 0.72200
 C2233 C 1.10746 0.57894 0.73202
 C2234 C 1.11806 0.60053 0.73529
 C2235 C 1.11272 0.61189 0.77493
 C2236 C 1.11951 0.61865 0.79121
 C2237 C 1.08240 0.58192 0.69889
 C2238 C 1.07609 0.57565 0.68222
 H2239 H 1.05972 0.58983 0.73990
 H2240 H 1.09150 0.57066 0.76463
 H2241 H 1.07924 0.62935 0.74633
 H2242 H 1.10337 0.62289 0.70942
 H2243 H 1.11562 0.56419 0.72769
 H2244 H 1.13513 0.60370 0.73410
 C2245 C 0.61317 1.09781 0.72200
 C2246 C 0.60468 1.11726 0.73380
 C2247 C 0.60523 1.10471 0.75435
 C2248 C 0.61385 1.08537 0.74285
 C2249 C 0.59054 1.09036 0.71858
 C2250 C 0.59109 1.07779 0.73913
 C2251 C 0.58192 1.10969 0.73008
 C2252 C 0.58259 1.09725 0.75095
 C2253 C 0.61353 1.11283 0.77418
 C2254 C 0.62044 1.11966 0.79039
 C2255 C 0.58249 1.08249 0.69855
 C2256 C 0.57603 1.07614 0.68197
 H2257 H 0.62566 1.09796 0.70987
 H2258 H 0.61036 1.13358 0.73182
 H2259 H 0.62708 1.07546 0.74832
 H2260 H 0.58540 1.06147 0.74110
 H2261 H 0.56870 1.11961 0.72461
 H2262 H 0.57011 1.09712 0.76308
 C2263 C 0.57876 0.58676 1.24053
 C2264 C 0.60005 0.58066 1.25053
 C2265 C 0.60414 0.60391 1.25530
 C2266 C 0.58298 0.61013 1.24562
 C2267 C 0.58985 0.58965 1.21933
 C2268 C 0.59394 0.61289 1.22411
 C2269 C 0.61101 0.58343 1.22902
 C2270 C 0.61522 0.60679 1.23410
 C2271 C 0.61222 0.61198 1.27523
 C2272 C 0.61900 0.61875 1.29152
 C2273 C 0.58203 0.58185 1.19920
 C2274 C 0.57573 0.57557 1.18253
 H2275 H 0.56368 0.57844 1.24294
 H2276 H 0.60266 0.56750 1.26162
 H2277 H 0.57154 0.62120 1.25267
 H2278 H 0.59134 0.62606 1.21303
 H2279 H 0.62245 0.57236 1.22197
 H2280 H 0.63029 0.61511 1.23168
 C2281 C 0.88662 0.90810 1.22455
 C2282 C 0.89090 0.88590 1.23340
 C2283 C 0.89566 0.89567 1.25490
 C2284 C 0.89126 0.91776 1.24636
 C2285 C 0.90997 0.91007 1.21900
 C2286 C 0.91474 0.91985 1.24049
 C2287 C 0.91437 0.88799 1.22754
 C2288 C 0.91901 0.89764 1.24936
 C2289 C 0.88756 0.88753 1.27479
 C2290 C 0.88076 0.88070 1.29105
 C2291 C 0.91780 0.91795 1.19890
 C2292 C 0.92412 0.92429 1.18225
 H2293 H 0.87339 0.91249 1.21413
 H2294 H 0.88102 0.87185 1.23069
 H2295 H 0.88166 0.92990 1.25432
 H2296 H 0.92462 0.93390 1.24318
 H2297 H 0.92396 0.87584 1.21959
 H2298 H 0.93224 0.89324 1.25978
 C2299 C 0.89968 0.38789 0.72182
 C2300 C 0.91265 0.38510 0.74218
 C2301 C 0.89479 0.39542 0.75464
 C2302 C 0.88171 0.39808 0.73458
 C2303 C 0.90953 0.40965 0.71884
 C2304 C 0.89168 0.41997 0.73130
 C2305 C 0.92262 0.40699 0.73889
 C2306 C 0.90464 0.41718 0.75167
 C2307 C 0.88648 0.38735 0.77448
 C2308 C 0.87956 0.38055 0.79070
 C2309 C 0.91759 0.41746 0.69880
 C2310 C 0.92406 0.42378 0.68220
 H2311 H 0.89774 0.37593 0.70933
 H2312 H 0.92118 0.37067 0.74687
 H2313 H 0.86479 0.39434 0.73303
 H2314 H 0.88314 0.43439 0.72660
 H2315 H 0.93954 0.41074 0.74044
 H2316 H 0.90658 0.42914 0.76417
 C2317 C 0.39996 0.88839 0.72195
 C2318 C 0.41311 0.88571 0.74220
 C2319 C 0.39533 0.89601 0.75478
 C2320 C 0.38206 0.89856 0.73483
 C2321 C 0.40971 0.91017 0.71882
 C2322 C 0.39193 0.92047 0.73140
 C2323 C 0.42299 0.90762 0.73876
 C2324 C 0.40507 0.91780 0.75166
 C2325 C 0.38720 0.88798 0.77471
 C2326 C 0.38039 0.88123 0.79099
 C2327 C 0.41757 0.91793 0.69869
 C2328 C 0.42390 0.92420 0.68202
 H2329 H 0.39795 0.87638 0.70952
 H2330 H 0.42173 0.87133 0.74687
 H2331 H 0.36515 0.89475 0.73344
 H2332 H 0.38331 0.93485 0.72672
 H2333 H 0.43990 0.91143 0.74014
 H2334 H 0.40708 0.92980 0.76410
 C2335 C 0.39992 0.38819 1.22233
 C2336 C 0.41301 0.38549 1.24261
 C2337 C 0.39522 0.39581 1.25516
 C2338 C 0.38200 0.39838 1.23517
 C2339 C 0.40969 0.40997 1.21923
 C2340 C 0.39189 0.42028 1.23177
 C2341 C 0.42292 0.40739 1.23920
 C2342 C 0.40499 0.41759 1.25206
 C2343 C 0.38704 0.38778 1.27506
 C2344 C 0.38021 0.38102 1.29134
 C2345 C 0.41761 0.41773 1.19911
 C2346 C 0.42397 0.42400 1.18246
 H2347 H 0.39792 0.37619 1.20989
 H2348 H 0.42161 0.37110 1.24730
 H2349 H 0.36508 0.39459 1.23374
 H2350 H 0.38330 0.43467 1.22708
 H2351 H 0.43984 0.41119 1.24062
 H2352 H 0.40698 0.42958 1.26451
 C2353 C 0.91888 1.08433 0.75943
 C2354 C 0.89629 1.08108 0.75111
 C2355 C 0.89544 1.10436 0.74504
 C2356 C 0.91790 1.10775 0.75304
 C2357 C 0.90981 1.09013 0.78099
 C2358 C 0.90895 1.11341 0.77491
 C2359 C 0.88735 1.08674 0.77298
 C2360 C 0.88638 1.11015 0.76660
 C2361 C 0.88732 1.11243 0.72512
 C2362 C 0.88052 1.11921 0.70883
 C2363 C 0.91767 1.08233 0.80112
 C2364 C 0.92400 1.07605 0.81778
 H2365 H 0.93234 1.07363 0.75672
 H2366 H 0.89099 1.06787 0.74110
 H2367 H 0.93037 1.11648 0.74462
 H2368 H 0.91425 1.12662 0.78492
 H2369 H 0.87488 1.07802 0.78141
 H2370 H 0.87293 1.12085 0.76934
 C2371 C 0.89312 0.60532 0.27822
 C2372 C 0.90643 0.61709 0.26167
 C2373 C 0.89676 0.60330 0.24446
 C2374 C 0.88333 0.59165 0.26070
 C2375 C 0.91082 0.58916 0.28057
 C2376 C 0.90116 0.57536 0.26336
 C2377 C 0.92426 0.60081 0.26432
 C2378 C 0.91447 0.58713 0.24679
 C2379 C 0.88878 0.61131 0.22446
 C2380 C 0.88207 0.61804 0.20813
 C2381 C 0.91852 0.58143 0.30078
 C2382 C 0.92472 0.57521 0.31751
 H2383 H 0.88442 0.61272 0.29137
 H2384 H 0.90851 0.63434 0.26076
 H2385 H 0.86642 0.58798 0.25899
 H2386 H 0.89908 0.55811 0.26428
 H2387 H 0.94118 0.60448 0.26605
 H2388 H 0.92316 0.57975 0.23363
 C2389 C 0.39043 1.10309 0.27793
 C2390 C 0.40266 1.11748 0.26268
 C2391 C 0.39585 1.10342 0.24435
 C2392 C 0.38350 1.08915 0.25930
 C2393 C 0.41013 1.08946 0.28044
 C2394 C 0.40333 1.07539 0.26211
 C2395 C 0.42249 1.10374 0.26549
 C2396 C 0.41556 1.08979 0.24684
 C2397 C 0.38777 1.11135 0.22436
 C2398 C 0.38100 1.11803 0.20803
 C2399 C 0.41794 1.08182 0.30064
 C2400 C 0.42421 1.07564 0.31737
 H2401 H 0.38018 1.10848 0.29093
 H2402 H 0.40230 1.13488 0.26269
 H2403 H 0.36738 1.08323 0.25652
 H2404 H 0.40369 1.05800 0.26212
 H2405 H 0.43861 1.10965 0.26827
 H2406 H 0.42580 1.08441 0.23383
 C2407 C 0.42372 0.59579 0.76236
 C2408 C 0.40850 0.58384 0.74768
 C2409 C 0.39552 0.60398 0.74518
 C2410 C 0.41061 0.61605 0.75954
 C2411 C 0.40990 0.58980 0.78115
 C2412 C 0.39692 0.60994 0.77865
 C2413 C 0.39480 0.57772 0.76680
 C2414 C 0.38170 0.59799 0.76399
 C2415 C 0.38738 0.61201 0.72526
 C2416 C 0.38056 0.61876 0.70897
 C2417 C 0.41777 0.58204 0.80129
 C2418 C 0.42409 0.57577 0.81796
 H2419 H 0.44109 0.59480 0.76192
 H2420 H 0.41316 0.57319 0.73471
 H2421 H 0.41702 0.63190 0.75634
 H2422 H 0.39225 0.62059 0.79160
 H2423 H 0.38840 0.56188 0.77001
 H2424 H 0.36434 0.59898 0.76444
 C2425 C 1.11162 0.90243 0.77701
 C2426 C 1.10233 0.88363 0.76479
 C2427 C 1.10331 0.89663 0.74454
 C2428 C 1.11272 0.91532 0.75645
 C2429 C 1.08930 0.91072 0.78068
 C2430 C 1.09028 0.92374 0.76044
 C2431 C 1.07989 0.89203 0.76877
 C2432 C 1.08100 0.90492 0.74820
 C2433 C 1.11126 0.88865 0.72452
 C2434 C 1.11794 0.88195 0.70816
 C2435 C 1.08164 0.91843 0.80091
 C2436 C 1.07546 0.92464 0.81766
 H2437 H 1.12412 0.90149 0.78908
 H2438 H 1.10737 0.86704 0.76637
 H2439 H 1.12631 0.92480 0.75116
 H2440 H 1.08524 0.94032 0.75888
 H2441 H 1.06631 0.88255 0.77406
 H2442 H 1.06850 0.90586 0.73612
 C2443 C 1.10797 0.39458 0.27834
 C2444 C 1.09486 0.38249 0.26187
 C2445 C 1.10419 0.39643 0.24458
 C2446 C 1.11742 0.40840 0.26075
 C2447 C 1.08994 0.41038 0.28068
 C2448 C 1.09927 0.42433 0.26340
 C2449 C 1.07670 0.39841 0.26452
 C2450 C 1.08616 0.41223 0.24691
 C2451 C 1.11226 0.38851 0.22459
 C2452 C 1.11902 0.38183 0.20825
 C2453 C 1.08215 0.41803 0.30089
 C2454 C 1.07589 0.42421 0.31762
 H2455 H 1.11685 0.38741 0.29148
 H2456 H 1.09314 0.36520 0.26101
 H2457 H 1.13425 0.41242 0.25898
 H2458 H 1.10099 0.44162 0.26427
 H2459 H 1.05987 0.39439 0.26630
 H2460 H 1.07729 0.41940 0.23376
 C2461 C 0.58712 0.92132 0.25950
 C2462 C 0.61047 0.91684 0.25452
 C2463 C 0.60408 0.89580 0.24471
 C2464 C 0.58085 0.90015 0.24937
 C2465 C 0.58978 0.91010 0.28066
 C2466 C 0.58339 0.88906 0.27085
 C2467 C 0.61300 0.90575 0.27599
 C2468 C 0.60673 0.88460 0.26587
 C2469 C 0.61218 0.88771 0.22479
 C2470 C 0.61897 0.88092 0.20851
 C2471 C 0.58195 0.91792 0.30079
 C2472 C 0.57564 0.92422 0.31746
 H2473 H 0.57896 0.93651 0.25712
 H2474 H 0.62169 0.92817 0.24758
 H2475 H 0.56773 0.89775 0.23820
 H2476 H 0.57217 0.87773 0.27778
 H2477 H 0.62613 0.90814 0.28716
 H2478 H 0.61489 0.86941 0.26827
 C2479 C 0.60823 0.39379 0.77921
 C2480 C 0.59518 0.38156 0.76280
 C2481 C 0.60460 0.39531 0.74541
 C2482 C 0.61777 0.40743 0.76153
 C2483 C 0.59021 0.40964 0.78132
 C2484 C 0.59962 0.42340 0.76395
 C2485 C 0.57703 0.39752 0.76522
 C2486 C 0.58657 0.41116 0.74752
 C2487 C 0.61274 0.38720 0.72552
 C2488 C 0.61956 0.38040 0.70925
 C2489 C 0.58232 0.41748 0.80143
 C2490 C 0.57598 0.42381 0.81807
 H2491 H 0.61705 0.38674 0.79246
 H2492 H 0.59344 0.36426 0.76211
 H2493 H 0.63461 0.41141 0.75979
 H2494 H 0.60136 0.44069 0.76465
 H2495 H 0.56018 0.39354 0.76696
 H2496 H 0.57776 0.41820 0.73426
 C2497 C 1.23954 1.09009 1.07680
 C2498 C 1.24363 1.11279 1.08440
 C2499 C 1.25519 1.10398 1.10362
 C2500 C 1.25142 1.08141 1.09615
 C2501 C 1.21912 1.08983 1.08958
 C2502 C 1.23068 1.08102 1.10880
 C2503 C 1.22290 1.11240 1.09705
 C2504 C 1.23476 1.10371 1.11639
 C2505 C 1.27517 1.11199 1.11159
 C2506 C 1.29151 1.11870 1.11828
 C2507 C 1.19894 1.08207 1.08189
 C2508 C 1.18223 1.07583 1.07568
 H2509 H 1.24127 1.08441 1.06044
 H2510 H 1.24918 1.12595 1.07446
 H2511 H 1.26337 1.06876 1.09587
 H2512 H 1.22513 1.06786 1.11874
 H2513 H 1.21096 1.12505 1.09734
 H2514 H 1.23302 1.10940 1.13275
 C2515 C 1.22597 0.58892 0.61306
 C2516 C 1.24790 0.58130 0.60591
 C2517 C 1.25500 0.60424 0.60425
 C2518 C 1.23338 0.61198 0.61152
 C2519 C 1.21909 0.58989 0.58999
 C2520 C 1.22619 0.61283 0.58833
 C2521 C 1.24071 0.58214 0.58270
 C2522 C 1.24812 0.60522 0.58117
 C2523 C 1.27490 0.61237 0.61232
 C2524 C 1.29116 0.61917 0.61909
 C2525 C 1.19899 0.58203 0.58218
 C2526 C 1.18235 0.57571 0.57588
 H2527 H 1.21664 0.58213 0.62609
 H2528 H 1.25705 0.56843 0.61323
 H2529 H 1.23058 0.62433 0.62346
 H2530 H 1.21704 0.62570 0.58101
 H2531 H 1.24349 0.56979 0.57076
 H2532 H 1.25746 0.61201 0.56815
 C2533 C 0.72826 1.08355 0.61121
 C2534 C 0.74976 1.08085 0.60023
 C2535 C 0.75449 1.10408 0.60445
 C2536 C 0.73329 1.10690 0.61554
 C2537 C 0.71858 1.08986 0.59006
 C2538 C 0.72331 1.11309 0.59428
 C2539 C 0.73976 1.08704 0.57895
 C2540 C 0.74481 1.11039 0.58330
 C2541 C 0.77438 1.11213 0.61259
 C2542 C 0.79064 1.11889 0.61941
 C2543 C 0.69847 1.08207 0.58218
 C2544 C 0.68183 1.07579 0.57585
 H2545 H 0.72122 1.07243 0.62259
 H2546 H 0.76086 1.06769 0.60278
 H2547 H 0.73084 1.11515 0.63068
 H2548 H 0.71221 1.12626 0.59174
 H2549 H 0.74219 1.07879 0.56382
 H2550 H 0.75184 1.12152 0.57192
 C2551 C 0.72642 0.58785 1.11252
 C2552 C 0.74824 0.58047 1.10481
 C2553 C 0.75522 0.60347 1.10349
 C2554 C 0.73371 0.61096 1.11132
 C2555 C 0.71911 0.58926 1.08960
 C2556 C 0.72610 0.61226 1.08829
 C2557 C 0.74062 0.58176 1.08176
 C2558 C 0.74792 0.60489 1.08057
 C2559 C 0.77522 0.61150 1.11137
 C2560 C 0.79157 0.61822 1.11801
 C2561 C 0.69890 0.58150 1.08199
 C2562 C 0.68218 0.57527 1.07584
 H2563 H 0.71735 0.58075 1.12557
 H2564 H 0.75757 0.56748 1.11169
 H2565 H 0.73109 0.62306 1.12356
 H2566 H 0.71677 0.62525 1.08141
 H2567 H 0.74322 0.56966 1.06952
 H2568 H 0.75699 0.61199 1.06752
 C2569 C 1.22526 0.91003 0.88676
 C2570 C 1.24715 0.91843 0.89307
 C2571 C 1.25480 0.89575 0.89573
 C2572 C 1.23322 0.88723 0.88930
 C2573 C 1.21887 0.91008 0.91000
 C2574 C 1.22652 0.88740 0.91265
 C2575 C 1.24044 0.91861 0.91643
 C2576 C 1.24841 0.89580 0.91896
 C2577 C 1.27471 0.88764 0.88765
 C2578 C 1.29099 0.88084 0.88087
 C2579 C 1.19875 0.91793 0.91782
 C2580 C 1.18210 0.92425 0.92412
 H2581 H 1.21552 0.91596 0.87361
 H2582 H 1.25585 0.93110 0.88492
 H2583 H 1.23047 0.87423 0.87806
 H2584 H 1.21782 0.87473 0.92079
 H2585 H 1.24317 0.93161 0.92768
 H2586 H 1.25816 0.88986 0.93211
 C2587 C 1.23598 0.39910 0.42325
 C2588 C 1.23844 0.38206 0.40610
 C2589 C 1.25508 0.39570 0.39529
 C2590 C 1.25293 0.41262 0.41231
 C2591 C 1.21914 0.40982 0.40977
 C2592 C 1.23577 0.42347 0.39896
 C2593 C 1.22130 0.39291 0.39275
 C2594 C 1.23823 0.40643 0.38181
 C2595 C 1.27499 0.38770 0.38711
 C2596 C 1.29127 0.38096 0.38028
 C2597 C 1.19902 0.41757 0.41768
 C2598 C 1.18237 0.42384 0.42404
 H2599 H 1.23482 0.39617 0.44037
 H2600 H 1.23976 0.36495 0.40895
 H2601 H 1.26617 0.42063 0.42026
 H2602 H 1.23444 0.44058 0.39611
 H2603 H 1.20807 0.38489 0.38479
 H2604 H 1.23937 0.40936 0.36469
 C2605 C 0.73710 0.90314 0.42354
 C2606 C 0.73980 0.88341 0.40964
 C2607 C 0.75461 0.89584 0.39529
 C2608 C 0.75223 0.91546 0.40907
 C2609 C 0.71866 0.91005 0.40965
 C2610 C 0.73348 0.92249 0.39531
 C2611 C 0.72106 0.89044 0.39588
 C2612 C 0.73618 0.90275 0.38141
 C2613 C 0.77453 0.88779 0.38717
 C2614 C 0.79081 0.88102 0.38037
 C2615 C 0.69854 0.91784 0.41750
 C2616 C 0.68188 0.92413 0.42382
 H2617 H 0.73724 0.90339 0.44095
 H2618 H 0.74262 0.86724 0.41544
 H2619 H 0.76527 0.92565 0.41440
 H2620 H 0.73065 0.93865 0.38950
 H2621 H 0.70802 0.88024 0.39054
 H2622 H 0.73602 0.90251 0.36400
 C2623 C 0.72434 0.38622 0.90771
 C2624 C 0.73288 0.39034 0.88535
 C2625 C 0.75445 0.39534 0.89483
 C2626 C 0.74621 0.39109 0.91707
 C2627 C 0.71864 0.40955 0.90954
 C2628 C 0.74020 0.41455 0.91903
 C2629 C 0.72688 0.41379 0.88730
 C2630 C 0.74876 0.41867 0.89666
 C2631 C 0.77430 0.38728 0.88653
 C2632 C 0.79053 0.38049 0.87962
 C2633 C 0.69859 0.41735 0.91759
 C2634 C 0.68199 0.42366 0.92405
 H2635 H 0.71408 0.37296 0.91234
 H2636 H 0.73009 0.38031 0.87141
 H2637 H 0.75437 0.38167 0.92922
 H2638 H 0.74297 0.42459 0.93298
 H2639 H 0.71871 0.42321 0.87515
 H2640 H 0.75902 0.43192 0.89202
 C2641 C 0.75970 0.91475 1.07994
 C2642 C 0.75403 0.89128 1.08253
 C2643 C 0.74514 0.89613 1.10440
 C2644 C 0.75049 0.91947 1.10194
 C2645 C 0.78108 0.91040 1.09014
 C2646 C 0.77219 0.91524 1.11201
 C2647 C 0.77572 0.88706 1.09261
 C2648 C 0.76653 0.89178 1.11459
 C2649 C 0.72523 0.88805 1.11247
 C2650 C 0.70896 0.88127 1.11924
 C2651 C 0.80120 0.91821 1.08233
 C2652 C 0.81785 0.92449 1.07604
 H2653 H 0.75712 0.92428 1.06560
 H2654 H 0.74634 0.88134 1.07050
 H2655 H 0.73989 0.93271 1.10587
 H2656 H 0.77989 0.92518 1.12404
 H2657 H 0.78632 0.87382 1.08868
 H2658 H 0.76912 0.88225 1.12893
 C2659 C 0.77916 0.39614 0.61004
 C2660 C 0.76049 0.40994 0.61716
 C2661 C 0.74558 0.39562 0.60482
 C2662 C 0.76395 0.38170 0.59783
 C2663 C 0.78146 0.40985 0.59037
 C2664 C 0.76654 0.39554 0.57803
 C2665 C 0.76309 0.42379 0.59736
 C2666 C 0.74785 0.40934 0.58515
 C2667 C 0.72570 0.38756 0.61299
 C2668 C 0.70945 0.38079 0.61983
 C2669 C 0.80154 0.41765 0.58246
 C2670 C 0.81817 0.42394 0.57610
 H2671 H 0.79226 0.39079 0.62019
 H2672 H 0.75778 0.41578 0.63334
 H2673 H 0.76409 0.36430 0.59811
 H2674 H 0.76926 0.38970 0.56185
 H2675 H 0.76297 0.44118 0.59708
 H2676 H 0.73475 0.41468 0.57500
 C2677 C 0.25936 0.91513 0.57879
 C2678 C 0.25355 0.89169 0.58135
 C2679 C 0.24455 0.89659 0.60316
 C2680 C 0.25004 0.91990 0.60073
 C2681 C 0.28065 0.91067 0.58913
 C2682 C 0.27165 0.91557 0.61094
 C2683 C 0.27516 0.88736 0.59156
 C2684 C 0.26585 0.89214 0.61349
 C2685 C 0.22456 0.88861 0.61111
 C2686 C 0.20822 0.88191 0.61780
 C2687 C 0.30086 0.91838 0.58145
 C2688 C 0.31759 0.92458 0.57527
 H2689 H 0.25693 0.92468 0.56443
 H2690 H 0.24589 0.88179 0.56927
 H2691 H 0.23948 0.93319 0.60459
 H2692 H 0.27932 0.92547 0.62302
 H2693 H 0.28572 0.87407 0.58771
 H2694 H 0.26831 0.88260 0.62784
 C2695 C 0.26030 0.41058 1.07726
 C2696 C 0.25606 0.38771 1.08425
 C2697 C 0.24479 0.39608 1.10384
 C2698 C 0.24871 0.41882 1.09697
 C2699 C 0.28085 0.41029 1.08982
 C2700 C 0.26958 0.41866 1.10940
 C2701 C 0.27692 0.38755 1.09669
 C2702 C 0.26535 0.39580 1.11639
 C2703 C 0.22482 0.38804 1.11179
 C2704 C 0.20849 0.38131 1.11848
 C2705 C 0.30103 0.41807 1.08213
 C2706 C 0.31773 0.42433 1.07593
 H2707 H 0.25845 0.41675 1.06108
 H2708 H 0.25028 0.37490 1.07400
 H2709 H 0.23688 0.43159 1.09718
 H2710 H 0.27537 0.43147 1.11966
 H2711 H 0.28875 0.37478 1.09648
 H2712 H 0.26721 0.38963 1.13256
 C2713 C 0.76499 1.10258 0.92238
 C2714 C 0.76269 1.11860 0.90426
 C2715 C 0.74549 1.10481 0.89458
 C2716 C 0.74747 1.08891 0.91257
 C2717 C 0.78128 1.09057 0.90931
 C2718 C 0.76409 1.07678 0.89963
 C2719 C 0.77928 1.10647 0.89132
 C2720 C 0.76179 1.09281 0.88152
 C2721 C 0.72565 1.11289 0.88627
 C2722 C 0.70943 1.11969 0.87936
 C2723 C 0.80132 1.08276 0.91737
 C2724 C 0.81791 1.07643 0.92383
 H2725 H 0.76653 1.10651 0.93927
 H2726 H 0.76189 1.13588 0.90607
 H2727 H 0.73416 1.08178 0.92122
 H2728 H 0.76489 1.05949 0.89782
 H2729 H 0.79258 1.11361 0.88267
 H2730 H 0.76025 1.08888 0.86462
 C2731 C 0.76504 0.60141 0.42323
 C2732 C 0.76248 0.61748 0.40518
 C2733 C 0.74522 0.60366 0.39566
 C2734 C 0.74746 0.58771 0.41358
 C2735 C 0.78123 0.58950 0.40994
 C2736 C 0.76397 0.57568 0.40042
 C2737 C 0.77897 0.60545 0.39202
 C2738 C 0.76142 0.59175 0.38238
 C2739 C 0.72528 0.61168 0.38758
 C2740 C 0.70898 0.61842 0.38080
 C2741 C 0.80138 0.58175 0.41776
 C2742 C 0.81806 0.57550 0.42405
 H2743 H 0.76676 0.60530 0.44011
 H2744 H 0.76165 0.63476 0.40706
 H2745 H 0.73428 0.58051 0.42235
 H2746 H 0.76482 0.55840 0.39855
 H2747 H 0.79215 0.61266 0.38325
 H2748 H 0.75971 0.58787 0.36549
 C2749 C 0.26473 1.10198 0.42264
 C2750 C 0.26228 1.11802 0.40456
 C2751 C 0.24505 1.10420 0.39497
 C2752 C 0.24719 1.08828 0.41292
 C2753 C 0.28098 1.09004 0.40945
 C2754 C 0.26376 1.07621 0.39986
 C2755 C 0.27882 1.10596 0.39150
 C2756 C 0.26131 1.09225 0.38179
 C2757 C 0.22515 1.11223 0.38679
 C2758 C 0.20888 1.11899 0.37996
 C2759 C 0.30108 1.08227 0.41738
 C2760 C 0.31773 1.07600 0.42375
 H2761 H 0.26637 1.10589 0.43953
 H2762 H 0.26145 1.13530 0.40640
 H2763 H 0.23396 1.08110 0.42164
 H2764 H 0.26460 1.05893 0.39803
 H2765 H 0.29205 1.11314 0.38278
 H2766 H 0.25968 1.08834 0.36490
 C2767 C 0.26429 0.60073 0.92384
 C2768 C 0.26181 0.61784 0.90677
 C2769 C 0.24509 0.60430 0.89598
 C2770 C 0.24725 0.58730 0.91292
 C2771 C 0.28104 0.59000 0.91024
 C2772 C 0.26433 0.57645 0.89945
 C2773 C 0.27886 0.60699 0.89330
 C2774 C 0.26184 0.59357 0.88239
 C2775 C 0.22516 0.61238 0.88790
 C2776 C 0.20888 0.61916 0.88112
 C2777 C 0.30117 0.58218 0.91806
 C2778 C 0.31783 0.57587 0.92436
 H2779 H 0.26553 0.60358 0.94097
 H2780 H 0.26055 0.63494 0.90970
 H2781 H 0.23402 0.57930 0.92089
 H2782 H 0.26559 0.55935 0.89653
 H2783 H 0.29208 0.61501 0.88533
 H2784 H 0.26062 0.59072 0.86526
 C2785 C 1.07769 1.23402 1.10417
 C2786 C 1.09785 1.23684 1.11742
 C2787 C 1.10416 1.25533 1.10333
 C2788 C 1.08412 1.25283 1.09020
 C2789 C 1.08978 1.21930 1.08942
 C2790 C 1.09608 1.23778 1.07533
 C2791 C 1.10981 1.22182 1.10255
 C2792 C 1.11624 1.24061 1.08858
 C2793 C 1.11228 1.27529 1.11123
 C2794 C 1.11906 1.29160 1.11791
 C2795 C 1.08193 1.19913 1.08180
 C2796 C 1.07563 1.18244 1.07563
 H2797 H 1.06175 1.23109 1.11050
 H2798 H 1.09867 1.23668 1.13481
 H2799 H 1.07365 1.26581 1.08521
 H2800 H 1.09526 1.23794 1.05794
 H2801 H 1.12029 1.20885 1.10755
 H2802 H 1.13218 1.24354 1.08226
 C2803 C 1.08621 0.74014 0.57815
 C2804 C 1.08024 0.75015 0.59948
 C2805 C 1.10347 0.75518 0.60331
 C2806 C 1.10957 0.74548 0.58210
 C2807 C 1.08947 0.71904 0.58930
 C2808 C 1.11270 0.72407 0.59312
 C2809 C 1.08338 0.72873 0.61050
 C2810 C 1.10673 0.73407 0.61444
 C2811 C 1.11141 0.77519 0.61124
 C2812 C 1.11808 0.79155 0.61791
 C2813 C 1.08180 0.69881 0.58163
 C2814 C 1.07563 0.68208 0.57545
 H2815 H 1.07768 0.74240 0.56314
 H2816 H 1.06698 0.76110 0.60219
 H2817 H 1.12042 0.75260 0.57051
 H2818 H 1.12596 0.71312 0.59042
 H2819 H 1.07252 0.72161 0.62209
 H2820 H 1.11525 0.73179 0.62945
 C2821 C 0.58680 1.23998 0.57933
 C2822 C 0.58088 1.24979 0.60077
 C2823 C 0.60415 1.25456 0.60470
 C2824 C 0.61020 1.24507 0.58339
 C2825 C 0.58984 1.21872 0.59022
 C2826 C 0.61311 1.22349 0.59416
 C2827 C 0.58380 1.22821 0.61153
 C2828 C 0.60719 1.23329 0.61558
 C2829 C 0.61226 1.27441 0.61288
 C2830 C 0.61906 1.29064 0.61974
 C2831 C 0.58200 1.19866 0.58230
 C2832 C 0.57569 1.18204 0.57594
 H2833 H 0.57832 1.24251 0.56433
 H2834 H 0.56772 1.26083 0.60358
 H2835 H 0.62114 1.25222 0.57191
 H2836 H 0.62628 1.21246 0.59135
 H2837 H 0.57286 1.22106 0.62302
 H2838 H 0.61566 1.23075 0.63058
 C2839 C 0.60222 0.72133 1.11066
 C2840 C 0.61780 0.73578 1.09894
 C2841 C 0.60395 0.75470 1.10445
 C2842 C 0.58849 0.74055 1.11629
 C2843 C 0.58972 0.71873 1.09023
 C2844 C 0.57586 0.73765 1.09574
 C2845 C 0.60519 0.73288 1.07838
 C2846 C 0.59145 0.75212 1.08401
 C2847 C 0.61201 0.77463 1.11251
 C2848 C 0.61876 0.79092 1.11927
 C2849 C 0.58193 0.69860 1.08244
 C2850 C 0.57565 0.68194 1.07616
 H2851 H 0.60656 0.70844 1.12153
 H2852 H 0.63514 0.73522 1.10034
 H2853 H 0.58171 0.74393 1.13197
 H2854 H 0.55853 0.73819 1.09433
 H2855 H 0.61196 0.72950 1.06270
 H2856 H 0.58712 0.76501 1.07315
 C2857 C 0.88916 1.22935 0.91708
 C2858 C 0.90080 1.25062 0.91826
 C2859 C 0.89509 1.25471 0.89521
 C2860 C 0.88333 1.23375 0.89391
 C2861 C 0.90955 1.21890 0.90967
 C2862 C 0.90384 1.22299 0.88662
 C2863 C 0.92133 1.23985 0.91097
 C2864 C 0.91549 1.24425 0.88779
 C2865 C 0.88691 1.27455 0.88702
 C2866 C 0.88005 1.29076 0.88016
 C2867 C 0.91747 1.19884 0.91758
 C2868 C 0.92384 1.18224 0.92395
 H2869 H 0.87842 1.22300 0.92921
 H2870 H 0.89946 1.26221 0.93118
 H2871 H 0.86761 1.23146 0.88680
 H2872 H 0.90518 1.21141 0.87369
 H2873 H 0.93705 1.24212 0.91808
 H2874 H 0.92622 1.25060 0.87566
 C2875 C 0.88689 0.72386 0.40680
 C2876 C 0.89078 0.74553 0.41703
 C2877 C 0.89599 0.75451 0.39529
 C2878 C 0.89198 0.73315 0.38495
 C2879 C 0.91021 0.71858 0.40970
 C2880 C 0.91542 0.72757 0.38796
 C2881 C 0.91424 0.73995 0.42006
 C2882 C 0.91932 0.74925 0.39818
 C2883 C 0.88794 0.77442 0.38715
 C2884 C 0.88117 0.79069 0.38034
 C2885 C 0.91800 0.69847 0.41758
 C2886 C 0.92429 0.68182 0.42392
 H2887 H 0.87364 0.71319 0.41044
 H2888 H 0.88056 0.75313 0.42890
 H2889 H 0.88274 0.73056 0.37042
 H2890 H 0.92563 0.71997 0.37609
 H2891 H 0.92348 0.74251 0.43458
 H2892 H 0.93256 0.75992 0.39455
 C2893 C 0.42073 1.23222 0.39293
 C2894 C 0.39928 1.23542 0.38199
 C2895 C 0.39556 1.25496 0.39557
 C2896 C 0.41688 1.25208 0.40640
 C2897 C 0.40982 1.21900 0.40985
 C2898 C 0.40611 1.23853 0.42345
 C2899 C 0.38850 1.22189 0.39903
 C2900 C 0.38466 1.24173 0.41249
 C2901 C 0.38748 1.27487 0.38748
 C2902 C 0.38069 1.29115 0.38070
 C2903 C 0.41763 1.19887 0.41767
 C2904 C 0.42393 1.18221 0.42396
 H2905 H 0.43564 1.22808 0.38498
 H2906 H 0.39639 1.23435 0.36485
 H2907 H 0.42846 1.26472 0.40933
 H2908 H 0.40900 1.23959 0.44058
 H2909 H 0.37692 1.20926 0.39608
 H2910 H 0.36974 1.24587 0.42045
 C2911 C 0.40412 0.72312 0.88734
 C2912 C 0.38360 0.73383 0.89468
 C2913 C 0.39537 0.75477 0.89618
 C2914 C 0.41577 0.74436 0.88871
 C2915 C 0.40978 0.71883 0.91036
 C2916 C 0.42157 0.73976 0.91187
 C2917 C 0.38938 0.72924 0.91783
 C2918 C 0.40103 0.75049 0.91921
 C2919 C 0.38722 0.77468 0.88814
 C2920 C 0.38040 0.79095 0.88137
 C2921 C 0.41767 0.69871 0.91814
 C2922 C 0.42400 0.68206 0.92441
 H2923 H 0.40547 0.71165 0.87432
 H2924 H 0.36789 0.73161 0.88753
 H2925 H 0.42654 0.75081 0.87665
 H2926 H 0.43727 0.74197 0.91902
 H2927 H 0.37862 0.72279 0.92989
 H2928 H 0.39967 0.76197 0.93222
 C2929 C 1.10163 0.77842 0.88935
 C2930 C 1.11812 0.76459 0.90060
 C2931 C 1.10449 0.74525 0.89621
 C2932 C 1.08811 0.75877 0.88484
 C2933 C 1.09009 0.78122 0.91032
 C2934 C 1.07645 0.76188 0.90593
 C2935 C 1.10647 0.76769 0.92169
 C2936 C 1.09296 0.74803 0.91718
 C2937 C 1.11264 0.72532 0.88821
 C2938 C 1.11946 0.70903 0.88148
 C2939 C 1.08222 0.80135 0.91805
 C2940 C 1.07589 0.81802 0.92430
 H2941 H 1.10510 0.79114 0.87799
 H2942 H 1.13535 0.76549 0.89832
 H2943 H 1.08066 0.75488 0.86960
 H2944 H 1.05923 0.76099 0.90822
 H2945 H 1.11393 0.77159 0.93693
 H2946 H 1.08949 0.73531 0.92854
 C2947 C 1.10832 0.26837 0.41998
 C2948 C 1.09520 0.24808 0.41754
 C2949 C 1.10461 0.24497 0.39557
 C2950 C 1.11785 0.26494 0.39789
 C2951 C 1.09033 0.28088 0.40996
 C2952 C 1.09975 0.27775 0.38799
 C2953 C 1.07709 0.26092 0.40764
 C2954 C 1.08663 0.25748 0.38555
 C2955 C 1.11270 0.22508 0.38743
 C2956 C 1.11948 0.20882 0.38059
 C2957 C 1.08251 0.30098 0.41782
 C2958 C 1.07621 0.31763 0.42415
 H2959 H 1.11714 0.27307 0.43422
 H2960 H 1.09342 0.23566 0.42959
 H2961 H 1.13469 0.26638 0.39380
 H2962 H 1.10153 0.29017 0.37593
 H2963 H 1.06024 0.25950 0.41174
 H2964 H 1.07780 0.25279 0.37130
 C2965 C 0.59493 0.77659 0.38674
 C2966 C 0.61557 0.76593 0.39380
 C2967 C 0.60383 0.74499 0.39559
 C2968 C 0.58330 0.75536 0.38841
 C2969 C 0.58964 0.78099 0.40984
 C2970 C 0.57789 0.76006 0.41163
 C2971 C 0.61016 0.77063 0.41702
 C2972 C 0.59854 0.74938 0.41869
 C2973 C 0.61187 0.72505 0.38753
 C2974 C 0.61862 0.70875 0.38077
 C2975 C 0.58186 0.80114 0.41764
 C2976 C 0.57560 0.81782 0.42391
 H2977 H 0.59336 0.78801 0.37369
 H2978 H 0.63116 0.76812 0.38638
 H2979 H 0.57235 0.74885 0.37656
 H2980 H 0.56230 0.75788 0.41906
 H2981 H 0.62112 0.77713 0.42887
 H2982 H 0.60012 0.73796 0.43174
 C2983 C 0.58801 0.27380 0.88686
 C2984 C 0.61135 0.26710 0.88688
 C2985 C 0.60485 0.24541 0.89508
 C2986 C 0.58163 0.25181 0.89494
 C2987 C 0.59040 0.28117 0.90968
 C2988 C 0.58389 0.25950 0.91789
 C2989 C 0.61362 0.27477 0.90982
 C2990 C 0.60724 0.25278 0.91790
 C2991 C 0.61303 0.22560 0.88683
 C2992 C 0.61990 0.20941 0.87993
 C2993 C 0.58249 0.30120 0.91767
 C2994 C 0.57611 0.31778 0.92409
 H2995 H 0.58002 0.28267 0.87419
 H2996 H 0.62273 0.27001 0.87404
 H2997 H 0.56857 0.24215 0.88873
 H2998 H 0.57250 0.25661 0.93074
 H2999 H 0.62668 0.28443 0.91602
 H3000 H 0.61524 0.24392 0.93057
 C3001 C 0.89758 0.76558 1.07644
 C3002 C 0.91141 0.74739 1.08471
 C3003 C 0.89648 0.74493 1.10345
 C3004 C 0.88253 0.76280 1.09531
 C3005 C 0.91061 0.78104 1.08951
 C3006 C 0.89567 0.77857 1.10825
 C3007 C 0.92456 0.76318 1.09766
 C3008 C 0.90950 0.76039 1.11652
 C3009 C 0.88848 0.72492 1.11136
 C3010 C 0.88178 0.70857 1.11801
 C3011 C 0.91834 0.80126 1.08188
 C3012 C 0.92455 0.81798 1.07571
 H3013 H 0.89276 0.76795 1.05988
 H3014 H 0.91779 0.73434 1.07511
 H3015 H 0.86515 0.76243 1.09442
 H3016 H 0.88929 0.79161 1.11785
 H3017 H 0.94193 0.76356 1.09854
 H3018 H 0.91432 0.75804 1.13308
 C3019 C 0.92384 0.26146 0.59384
 C3020 C 0.91301 0.25829 0.61536
 C3021 C 0.89598 0.24517 0.60453
 C3022 C 0.90668 0.24801 0.58313
 C3023 C 0.91032 0.28106 0.59023
 C3024 C 0.89329 0.26794 0.57940
 C3025 C 0.89962 0.27821 0.61163
 C3026 C 0.88247 0.26479 0.60092
 C3027 C 0.88786 0.22528 0.61262
 C3028 C 0.88105 0.20903 0.61941
 C3029 C 0.91817 0.30116 0.58240
 C3030 C 0.92448 0.31780 0.57609
 H3031 H 0.94094 0.26032 0.59084
 H3032 H 0.92103 0.25411 0.63024
 H3033 H 0.90950 0.23537 0.57150
 H3034 H 0.88527 0.27214 0.56452
 H3035 H 0.89680 0.29085 0.62326
 H3036 H 0.86537 0.26594 0.60391
 C3037 C 0.41333 0.77288 0.61197
 C3038 C 0.38988 0.76673 0.61314
 C3039 C 0.39536 0.74521 0.60379
 C3040 C 0.41869 0.75106 0.60274
 C3041 C 0.40975 0.78114 0.58961
 C3042 C 0.41524 0.75963 0.58025
 C3043 C 0.38642 0.77529 0.59067
 C3044 C 0.39177 0.75347 0.58144
 C3045 C 0.38723 0.72531 0.61183
 C3046 C 0.38042 0.70905 0.61859
 C3047 C 0.41762 0.80125 0.58185
 C3048 C 0.42395 0.81790 0.57558
 H3049 H 0.42228 0.78108 0.62443
 H3050 H 0.37937 0.76943 0.62675
 H3051 H 0.43187 0.74087 0.60779
 H3052 H 0.42575 0.75695 0.56664
 H3053 H 0.37324 0.78547 0.58562
 H3054 H 0.38282 0.74527 0.56897
 C3055 C 0.39712 0.26540 1.07636
 C3056 C 0.41084 0.24712 1.08465
 C3057 C 0.39583 0.24471 1.10333
 C3058 C 0.38199 0.26266 1.09517
 C3059 C 0.41018 0.28077 1.08951
 C3060 C 0.39517 0.27834 1.10819
 C3061 C 0.42402 0.26282 1.09767
 C3062 C 0.40889 0.26009 1.11647
 C3063 C 0.38771 0.22473 1.11119
 C3064 C 0.38094 0.20840 1.11783
 C3065 C 0.41803 0.30096 1.08193
 C3066 C 0.42432 0.31767 1.07579
 H3067 H 0.39238 0.26782 1.05979
 H3068 H 0.41718 0.23406 1.07505
 H3069 H 0.36462 0.26237 1.09423
 H3070 H 0.38882 0.29140 1.11779
 H3071 H 0.44139 0.26312 1.09861
 H3072 H 0.41363 0.25768 1.13305
 C3073 C 1.11245 1.08687 0.77294
 C3074 C 1.10319 1.08178 0.75106
 C3075 C 1.10446 1.10514 0.74537
 C3076 C 1.11385 1.11035 0.76695
 C3077 C 1.09015 1.09061 0.78123
 C3078 C 1.09143 1.11397 0.77553
 C3079 C 1.08075 1.08539 0.75966
 C3080 C 1.08216 1.10889 0.75366
 C3081 C 1.11256 1.11335 0.72551
 C3082 C 1.11937 1.12021 0.70926
 C3083 C 1.08230 1.08266 0.80130
 C3084 C 1.07597 1.07627 0.81791
 H3085 H 1.12482 1.07772 0.78109
 H3086 H 1.10811 1.06863 0.74077
 H3087 H 1.12754 1.12070 0.76973
 H3088 H 1.08650 1.12713 0.78582
 H3089 H 1.06705 1.07504 0.75690
 H3090 H 1.06979 1.11804 0.74551
 C3091 C 1.07760 0.60393 0.26591
 C3092 C 1.09656 0.61889 0.26352
 C3093 C 1.10470 0.60525 0.24540
 C3094 C 1.08586 0.59041 0.24748
 C3095 C 1.09049 0.59049 0.28120
 C3096 C 1.09863 0.57684 0.26309
 C3097 C 1.10933 0.60533 0.27911
 C3098 C 1.11759 0.59181 0.26069
 C3099 C 1.11275 0.61358 0.22556
 C3100 C 1.11955 0.62051 0.20934
 C3101 C 1.08269 0.58242 0.30124
 C3102 C 1.07638 0.57595 0.31784
 H3103 H 1.06106 0.60882 0.26829
 H3104 H 1.09579 0.63628 0.26348
 H3105 H 1.07630 0.58438 0.23425
 H3106 H 1.09939 0.55946 0.26314
 H3107 H 1.11889 0.61138 0.29233
 H3108 H 1.13412 0.58692 0.25833
 C3109 C 0.58173 1.11028 0.26998
 C3110 C 0.60465 1.11711 0.26582
 C3111 C 0.60424 1.10494 0.24503
 C3112 C 0.58145 1.09822 0.24888
 C3113 C 0.58994 1.09044 0.28090
 C3114 C 0.58953 1.07825 0.26012
 C3115 C 0.61274 1.09716 0.27705
 C3116 C 0.61245 1.08510 0.25596
 C3117 C 0.61234 1.11313 0.22516
 C3118 C 0.61915 1.11999 0.20892
 C3119 C 0.58210 1.08250 0.30098
 C3120 C 0.57578 1.07612 0.31760
 H3121 H 0.56901 1.12054 0.27596
 H3122 H 0.61095 1.13318 0.26795
 H3123 H 0.56867 1.09876 0.23707
 H3124 H 0.58322 1.06218 0.25801
 H3125 H 0.62552 1.09663 0.28885
 H3126 H 0.62518 1.07484 0.24998
 C3127 C 0.57657 0.60261 0.76561
 C3128 C 0.59559 0.61745 0.76289
 C3129 C 0.60359 0.60348 0.74496
 C3130 C 0.58470 0.58876 0.74736
 C3131 C 0.58948 0.58936 0.78105
 C3132 C 0.59748 0.57539 0.76313
 C3133 C 0.60837 0.60408 0.77864
 C3134 C 0.61649 0.59024 0.76041
 C3135 C 0.61158 0.61148 0.72497
 C3136 C 0.61830 0.61819 0.70864
 C3137 C 0.58176 0.58164 0.80125
 C3138 C 0.57553 0.57542 0.81797
 H3139 H 0.56007 0.60761 0.76798
 H3140 H 0.59489 0.63483 0.76257
 H3141 H 0.57506 0.58255 0.73427
 H3142 H 0.59817 0.55801 0.76346
 H3143 H 0.61802 0.61030 0.79172
 H3144 H 0.63299 0.58524 0.75805
 C3145 C 0.89201 0.92027 0.76875
 C3146 C 0.90503 0.91862 0.74830
 C3147 C 0.89631 0.89645 0.74485
 C3148 C 0.88317 0.89798 0.76499
 C3149 C 0.91041 0.91060 0.78093
 C3150 C 0.90169 0.88843 0.77747
 C3151 C 0.92356 0.90908 0.76080
 C3152 C 0.91471 0.88678 0.75703
 C3153 C 0.88832 0.88843 0.72487
 C3154 C 0.88162 0.88170 0.70854
 C3155 C 0.91813 0.91835 0.80113
 C3156 C 0.92434 0.92458 0.81784
 H3157 H 0.88276 0.93413 0.77380
 H3158 H 0.90631 0.93094 0.73607
 H3159 H 0.86648 0.89333 0.76650
 H3160 H 0.90040 0.87611 0.78969
 H3161 H 0.94025 0.91373 0.75931
 H3162 H 0.92396 0.87292 0.75199
 C3163 C 0.89238 0.41952 0.26839
 C3164 C 0.90557 0.41656 0.24819
 C3165 C 0.89571 0.39479 0.24528
 C3166 C 0.88241 0.39763 0.26516
 C3167 C 0.91007 0.40927 0.28113
 C3168 C 0.90022 0.38750 0.27820
 C3169 C 0.92339 0.40643 0.26125
 C3170 C 0.91340 0.38453 0.25802
 C3171 C 0.88758 0.38661 0.22541
 C3172 C 0.88075 0.37977 0.20917
 C3173 C 0.91793 0.41720 0.30120
 C3174 C 0.92427 0.42358 0.31782
 H3175 H 0.88382 0.43400 0.27288
 H3176 H 0.90767 0.42842 0.23563
 H3177 H 0.86547 0.39393 0.26655
 H3178 H 0.89810 0.37564 0.29076
 H3179 H 0.94033 0.41013 0.25987
 H3180 H 0.92196 0.37005 0.25353
 C3181 C 0.39247 0.92015 0.26770
 C3182 C 0.40587 0.91655 0.24774
 C3183 C 0.39548 0.89501 0.24498
 C3184 C 0.38197 0.89849 0.26463
 C3185 C 0.40970 0.90961 0.28084
 C3186 C 0.39931 0.88808 0.27807
 C3187 C 0.42322 0.90614 0.26120
 C3188 C 0.41271 0.88447 0.25813
 C3189 C 0.38742 0.88676 0.22512
 C3190 C 0.38064 0.87987 0.20888
 C3191 C 0.41750 0.91760 0.30091
 C3192 C 0.42380 0.92401 0.31754
 H3193 H 0.38425 0.93491 0.27186
 H3194 H 0.40848 0.92816 0.23504
 H3195 H 0.36492 0.89525 0.26582
 H3196 H 0.39670 0.87646 0.29076
 H3197 H 0.44027 0.90937 0.26002
 H3198 H 0.42094 0.86971 0.25397
 C3199 C 0.38878 0.41494 0.77198
 C3200 C 0.39904 0.41906 0.75034
 C3201 C 0.39658 0.39571 0.74502
 C3202 C 0.38620 0.39147 0.76635
 C3203 C 0.41054 0.41007 0.78108
 C3204 C 0.40808 0.38672 0.77575
 C3205 C 0.42093 0.41431 0.75976
 C3206 C 0.41834 0.39083 0.75412
 C3207 C 0.38865 0.38759 0.72505
 C3208 C 0.38197 0.38081 0.70873
 C3209 C 0.41819 0.41792 0.80126
 C3210 C 0.42437 0.42421 0.81796
 H3211 H 0.37671 0.42495 0.77955
 H3212 H 0.39523 0.43227 0.73966
 H3213 H 0.37184 0.38199 0.76885
 H3214 H 0.41188 0.37350 0.78643
 H3215 H 0.43529 0.42379 0.75728
 H3216 H 0.43041 0.38082 0.74655
 C3217 C 1.10889 0.89568 1.22156
 C3218 C 1.11682 0.90942 1.23994
 C3219 C 1.10400 0.89593 1.25523
 C3220 C 1.09619 0.88207 1.23714
 C3221 C 1.08986 0.91028 1.21923
 C3222 C 1.07704 0.89679 1.23451
 C3223 C 1.09768 0.92414 1.23731
 C3224 C 1.08498 0.91053 1.25291
 C3225 C 1.11202 0.88781 1.27517
 C3226 C 1.11876 0.88102 1.29147
 C3227 C 1.08212 0.91812 1.19908
 C3228 C 1.07586 0.92443 1.18240
 H3229 H 1.11863 0.88966 1.20845
 H3230 H 1.13327 0.91452 1.24240
 H3231 H 1.09566 0.86468 1.23730
 H3232 H 1.06059 0.89169 1.23204
 H3233 H 1.09820 0.94153 1.23714
 H3234 H 1.07524 0.91654 1.26603
 C3235 C 1.10201 0.38944 0.72201
 C3236 C 1.11807 0.40086 0.73619
 C3237 C 1.10425 0.39600 0.75532
 C3238 C 1.08831 0.38446 0.74144
 C3239 C 1.09008 0.41018 0.71926
 C3240 C 1.07626 0.40533 0.73838
 C3241 C 1.10602 0.42173 0.73314
 C3242 C 1.09232 0.41675 0.75258
 C3243 C 1.11226 0.38796 0.77529
 C3244 C 1.11899 0.38122 0.79162
 C3245 C 1.08233 0.41794 0.69908
 C3246 C 1.07607 0.42419 0.68238
 H3247 H 1.10591 0.37829 0.70922
 H3248 H 1.13535 0.39893 0.73551
 H3249 H 1.08112 0.36905 0.74507
 H3250 H 1.05898 0.40726 0.73905
 H3251 H 1.11321 0.43714 0.72950
 H3252 H 1.08843 0.42789 0.76538
 C3253 C 0.60836 0.89581 0.72150
 C3254 C 0.61627 0.90967 0.73981
 C3255 C 0.60346 0.89625 0.75517
 C3256 C 0.59568 0.88227 0.73716
 C3257 C 0.58932 0.91036 0.71908
 C3258 C 0.57651 0.89694 0.73443
 C3259 C 0.59710 0.92435 0.73708
 C3260 C 0.58441 0.91080 0.75275
 C3261 C 0.61148 0.88826 0.77516
 C3262 C 0.61821 0.88155 0.79149
 C3263 C 0.58158 0.91809 0.69888
 C3264 C 0.57535 0.92432 0.68216
 H3265 H 0.61813 0.88974 0.70843
 H3266 H 0.63270 0.91482 0.74225
 H3267 H 0.59519 0.86489 0.73741
 H3268 H 0.56007 0.89179 0.73198
 H3269 H 0.59759 0.94174 0.73681
 H3270 H 0.57465 0.91687 0.76583
 C3271 C 0.57658 0.40756 1.23939
 C3272 C 0.58636 0.38560 1.24288
 C3273 C 0.60419 0.39581 1.25543
 C3274 C 0.59454 0.41766 1.25226
 C3275 C 0.58986 0.40998 1.21943
 C3276 C 0.60769 0.42020 1.23198
 C3277 C 0.59952 0.38815 1.22262
 C3278 C 0.61746 0.39824 1.23547
 C3279 C 0.61229 0.38778 1.27537
 C3280 C 0.61908 0.38103 1.29167
 C3281 C 0.58203 0.41774 1.19928
 C3282 C 0.57572 0.42401 1.18260
 H3283 H 0.55968 0.41148 1.24076
 H3284 H 0.57768 0.37128 1.24758
 H3285 H 0.59259 0.42970 1.26467
 H3286 H 0.61637 0.43452 1.22728
 H3287 H 0.60147 0.37610 1.21021
 H3288 H 0.63436 0.39432 1.23408
 C3289 C 0.89354 1.10589 1.22210
 C3290 C 0.88326 1.09218 1.23930
 C3291 C 0.89683 1.10322 1.25585
 C3292 C 0.90699 1.11704 1.23895
 C3293 C 0.91085 1.08933 1.21963
 C3294 C 0.92443 1.10036 1.23618
 C3295 C 0.90070 1.07549 1.23653
 C3296 C 0.91415 1.08665 1.25340
 C3297 C 0.88888 1.11110 1.27590
 C3298 C 0.88220 1.11774 1.29229
 C3299 C 0.91852 1.08173 1.19936
 C3300 C 0.92468 1.07559 1.18259
 H3301 H 0.88515 1.11372 1.20900
 H3302 H 0.86624 1.08890 1.24080
 H3303 H 0.90949 1.13422 1.24017
 H3304 H 0.94145 1.10364 1.23466
 H3305 H 0.89820 1.05832 1.23530
 H3306 H 0.92253 1.07884 1.26650
 C3307 C 0.90133 0.61151 0.72254
 C3308 C 0.88315 0.60166 0.73524
 C3309 C 0.89639 0.60367 0.75527
 C3310 C 0.91446 0.61364 0.74287
 C3311 C 0.91057 0.58951 0.71922
 C3312 C 0.92382 0.59152 0.73924
 C3313 C 0.89250 0.57954 0.73162
 C3314 C 0.90562 0.58167 0.75196
 C3315 C 0.88835 0.61169 0.77524
 C3316 C 0.88160 0.61842 0.79156
 C3317 C 0.91833 0.58177 0.69903
 C3318 C 0.92458 0.57552 0.68233
 H3319 H 0.89966 0.62369 0.71022
 H3320 H 0.86633 0.60591 0.73382
 H3321 H 0.92339 0.62775 0.74772
 H3322 H 0.94064 0.58726 0.74064
 H3323 H 0.88356 0.56543 0.72676
 H3324 H 0.90730 0.56949 0.76428
 C3325 C 0.39391 1.07880 0.73279
 C3326 C 0.40763 1.08361 0.75226
 C3327 C 0.39600 1.10454 0.75493
 C3328 C 0.38217 1.09985 0.73577
 C3329 C 0.41005 1.09008 0.71894
 C3330 C 0.39843 1.11100 0.72161
 C3331 C 0.42390 1.09476 0.73809
 C3332 C 0.41214 1.11582 0.74107
 C3333 C 0.38803 1.11272 0.77486
 C3334 C 0.38131 1.11955 0.79115
 C3335 C 0.41776 1.08217 0.69880
 C3336 C 0.42399 1.07584 0.68212
 H3337 H 0.38650 1.06349 0.72916
 H3338 H 0.41132 1.07244 0.76510
 H3339 H 0.36492 1.10203 0.73503
 H3340 H 0.39473 1.12218 0.70879
 H3341 H 0.44115 1.09258 0.73881
 H3342 H 0.41956 1.13113 0.74469
 C3343 C 0.40065 0.61248 1.22224
 C3344 C 0.38236 0.60287 1.23498
 C3345 C 0.39554 0.60503 1.25504
 C3346 C 0.41371 0.61476 1.24259
 C3347 C 0.40977 0.59039 1.21919
 C3348 C 0.42296 0.59255 1.23923
 C3349 C 0.39160 0.58066 1.23163
 C3350 C 0.40466 0.58294 1.25200
 C3351 C 0.38746 0.61329 1.27489
 C3352 C 0.38067 0.62019 1.29113
 C3353 C 0.41758 0.58239 1.19912
 C3354 C 0.42389 0.57597 1.18250
 H3355 H 0.39908 0.62453 1.20978
 H3356 H 0.36557 0.60720 1.23345
 H3357 H 0.42271 0.62887 1.24732
 H3358 H 0.43975 0.58821 1.24076
 H3359 H 0.38260 0.56655 1.22690
 H3360 H 0.40622 0.57089 1.26446
 C3361 C 1.08291 1.22909 0.88920
 C3362 C 1.08051 1.25049 0.90045
 C3363 C 1.10368 1.25515 0.89586
 C3364 C 1.10619 1.23406 0.88450
 C3365 C 1.08955 1.21916 0.91012
 C3366 C 1.11272 1.22383 0.90554
 C3367 C 1.08703 1.24023 0.92150
 C3368 C 1.11032 1.24521 0.91679
 C3369 C 1.11169 1.27508 0.88779
 C3370 C 1.11843 1.29138 0.88103
 C3371 C 1.08181 1.19901 0.91793
 C3372 C 1.07557 1.18233 0.92421
 H3373 H 1.07154 1.22224 0.87794
 H3374 H 1.06736 1.26168 0.89826
 H3375 H 1.11416 1.23174 0.86919
 H3376 H 1.12587 1.21264 0.90772
 H3377 H 1.07906 1.24254 0.93681
 H3378 H 1.12169 1.25207 0.92804
 C3379 C 1.11283 0.72564 0.41071
 C3380 C 1.11106 0.73318 0.38769
 C3381 C 1.10383 0.75475 0.39561
 C3382 C 1.10572 0.74751 0.41852
 C3383 C 1.08977 0.71875 0.40992
 C3384 C 1.08253 0.74031 0.41785
 C3385 C 1.08789 0.72599 0.38702
 C3386 C 1.08078 0.74787 0.39481
 C3387 C 1.11180 0.77470 0.38751
 C3388 C 1.11851 0.79100 0.38074
 C3389 C 1.08207 0.69860 0.41776
 C3390 C 1.07586 0.68192 0.42406
 H3391 H 1.12592 0.71627 0.41734
 H3392 H 1.12287 0.73046 0.37520
 H3393 H 1.11314 0.75659 0.43138
 H3394 H 1.07072 0.74301 0.43035
 H3395 H 1.08047 0.71692 0.37415
 H3396 H 1.06769 0.75724 0.38818
 C3397 C 0.57589 1.23594 0.39972
 C3398 C 0.58719 1.25276 0.41312
 C3399 C 0.60380 1.25495 0.39582
 C3400 C 0.59264 1.23844 0.38230
 C3401 C 0.58956 1.21897 0.41002
 C3402 C 0.60617 1.22118 0.39272
 C3403 C 0.60072 1.23547 0.42355
 C3404 C 0.61746 1.23798 0.40612
 C3405 C 0.61187 1.27487 0.38777
 C3406 C 0.61864 1.29115 0.38102
 C3407 C 0.58176 1.19884 0.41779
 C3408 C 0.57549 1.18217 0.42406
 H3409 H 0.55872 1.23487 0.39718
 H3410 H 0.57947 1.26597 0.42142
 H3411 H 0.58940 1.23989 0.36525
 H3412 H 0.61389 1.20797 0.38441
 H3413 H 0.60396 1.23402 0.44059
 H3414 H 0.63464 1.23904 0.40866
 C3415 C 0.57589 0.73569 0.90001
 C3416 C 0.58670 0.75271 0.91355
 C3417 C 0.60366 0.75499 0.89659
 C3418 C 0.59297 0.73829 0.88293
 C3419 C 0.58951 0.71894 0.91069
 C3420 C 0.60647 0.72123 0.89374
 C3421 C 0.60020 0.73563 0.92436
 C3422 C 0.61728 0.73823 0.90728
 C3423 C 0.61167 0.77496 0.88860
 C3424 C 0.61838 0.79127 0.88188
 C3425 C 0.58176 0.69877 0.91841
 C3426 C 0.57552 0.68207 0.92463
 H3427 H 0.55878 0.73442 0.89710
 H3428 H 0.57867 0.76589 0.92160
 H3429 H 0.59009 0.73960 0.86581
 H3430 H 0.61451 0.70807 0.88568
 H3431 H 0.60308 0.73431 0.94148
 H3432 H 0.63439 0.73950 0.91018
 C3433 C 0.89585 1.23411 1.07807
 C3434 C 0.88162 1.23663 1.09760
 C3435 C 0.89553 1.25480 1.10508
 C3436 C 0.90964 1.25260 1.08567
 C3437 C 0.90980 1.21894 1.09054
 C3438 C 0.92372 1.23711 1.09801
 C3439 C 0.89570 1.22116 1.10995
 C3440 C 0.90949 1.23962 1.11754
 C3441 C 0.88745 1.27466 1.11330
 C3442 C 0.88066 1.29090 1.12017
 C3443 C 0.91762 1.19887 1.08258
 C3444 C 0.92394 1.18225 1.07618
 H3445 H 0.89033 1.23162 1.06174
 H3446 H 0.86423 1.23665 1.09752
 H3447 H 0.91528 1.26576 1.07578
 H3448 H 0.94112 1.23707 1.09809
 H3449 H 0.89005 1.20801 1.11984
 H3450 H 0.91501 1.24211 1.13387
 C3451 C 0.89293 0.72125 0.60574
 C3452 C 0.90624 0.73786 0.61739
 C3453 C 0.89642 0.75499 0.60357
 C3454 C 0.88299 0.73867 0.59204
 C3455 C 0.91054 0.71890 0.58948
 C3456 C 0.90072 0.73602 0.57566
 C3457 C 0.92398 0.73522 0.60101
 C3458 C 0.91404 0.75266 0.58731
 C3459 C 0.88841 0.77497 0.61156
 C3460 C 0.88169 0.79130 0.61826
 C3461 C 0.91828 0.69871 0.58176
 C3462 C 0.92451 0.68200 0.57554
 H3463 H 0.88433 0.70811 0.61323
 H3464 H 0.90842 0.73884 0.63464
 H3465 H 0.86604 0.74031 0.58845
 H3466 H 0.89855 0.73503 0.55841
 H3467 H 0.94093 0.73356 0.60460
 H3468 H 0.92263 0.76580 0.57982
 C3469 C 0.41326 1.22695 0.61226
 C3470 C 0.41934 1.24876 0.60351
 C3471 C 0.39611 1.25513 0.60399
 C3472 C 0.38992 1.23362 0.61286
 C3473 C 0.41015 1.21908 0.58970
 C3474 C 0.38692 1.22545 0.59019
 C3475 C 0.41634 1.24058 0.58081
 C3476 C 0.39299 1.24727 0.58142
 C3477 C 0.38816 1.27510 0.61207
 C3478 C 0.38146 1.29142 0.61883
 C3479 C 0.41784 1.19891 0.58189
 C3480 C 0.42406 1.18221 0.57561
 H3481 H 0.42168 1.21836 0.62485
 H3482 H 0.43257 1.25857 0.60908
 H3483 H 0.37897 1.23097 0.62613
 H3484 H 0.37368 1.21564 0.58462
 H3485 H 0.42730 1.24321 0.56754
 H3486 H 0.38457 1.25585 0.56883
 C3487 C 0.38914 0.72901 1.08363
 C3488 C 0.38379 0.73359 1.10689
 C3489 C 0.39544 0.75458 1.10515
 C3490 C 0.40067 0.75031 1.08201
 C3491 C 0.40973 0.71870 1.09070
 C3492 C 0.42140 0.73968 1.08895
 C3493 C 0.40450 0.72298 1.11383
 C3494 C 0.41604 0.74427 1.11222
 C3495 C 0.38735 0.77447 1.11331
 C3496 C 0.38056 0.79073 1.12013
 C3497 C 0.41756 0.69861 1.08279
 C3498 C 0.42388 0.68198 1.07642
 H3499 H 0.37817 0.72251 1.07179
 H3500 H 0.36824 0.73130 1.11435
 H3501 H 0.39901 0.76178 1.06902
 H3502 H 0.43695 0.74196 1.08149
 H3503 H 0.40616 0.71152 1.12683
 H3504 H 0.42701 0.75077 1.12406
 C3505 C 0.91845 0.75962 0.91771
 C3506 C 0.89548 0.75196 0.91958
 C3507 C 0.89618 0.74511 0.89649
 C3508 C 0.91902 0.75245 0.89449
 C3509 C 0.91037 0.78115 0.91056
 C3510 C 0.91107 0.77430 0.88747
 C3511 C 0.88753 0.77381 0.91255
 C3512 C 0.88811 0.76665 0.88934
 C3513 C 0.88815 0.72514 0.88852
 C3514 C 0.88143 0.70882 0.88181
 C3515 C 0.91813 0.80133 0.91826
 C3516 C 0.92438 0.81803 0.92447
 H3517 H 0.93101 0.75696 0.92946
 H3518 H 0.88898 0.74255 0.93270
 H3519 H 0.93188 0.74344 0.88698
 H3520 H 0.91757 0.78371 0.87435
 H3521 H 0.87467 0.78282 0.92006
 H3522 H 0.87555 0.76933 0.87759
 C3523 C 0.89797 0.27776 0.39083
 C3524 C 0.91179 0.25871 0.38486
 C3525 C 0.89682 0.24437 0.39710
 C3526 C 0.88288 0.26313 0.40296
 C3527 C 0.91096 0.28052 0.41094
 C3528 C 0.89598 0.26620 0.42318
 C3529 C 0.92491 0.26178 0.40508
 C3530 C 0.90980 0.24712 0.41721
 C3531 C 0.88881 0.22435 0.38924
 C3532 C 0.88211 0.20800 0.38261
 C3533 C 0.91869 0.30075 0.41851
 C3534 C 0.92489 0.31750 0.42464
 H3535 H 0.89320 0.29058 0.38007
 H3536 H 0.91821 0.25540 0.36901
 H3537 H 0.86551 0.26346 0.40200
 H3538 H 0.88956 0.26951 0.43903
 H3539 H 0.94228 0.26145 0.40604
 H3540 H 0.91457 0.23429 0.42796
 C3541 C 0.39722 0.77884 0.38880
 C3542 C 0.41090 0.75959 0.38313
 C3543 C 0.39534 0.74545 0.39486
 C3544 C 0.38154 0.76440 0.40040
 C3545 C 0.40965 0.78131 0.40929
 C3546 C 0.39409 0.76717 0.42102
 C3547 C 0.42346 0.76236 0.40375
 C3548 C 0.40777 0.74790 0.41535
 C3549 C 0.38724 0.72557 0.38670
 C3550 C 0.38046 0.70932 0.37988
 C3551 C 0.41750 0.80138 0.41719
 C3552 C 0.42383 0.81799 0.42356
 H3553 H 0.39297 0.79179 0.37796
 H3554 H 0.41773 0.75626 0.36747
 H3555 H 0.36421 0.76503 0.39893
 H3556 H 0.38727 0.77051 0.43668
 H3557 H 0.44079 0.76175 0.40522
 H3558 H 0.41202 0.73495 0.42618
 C3559 C 0.41530 0.25958 0.91964
 C3560 C 0.39184 0.25345 0.91819
 C3561 C 0.39568 0.24515 0.89589
 C3562 C 0.41900 0.25096 0.89721
 C3563 C 0.40996 0.28108 0.91019
 C3564 C 0.41379 0.27278 0.88789
 C3565 C 0.38663 0.27526 0.90886
 C3566 C 0.39034 0.26666 0.88645
 C3567 C 0.38760 0.22525 0.88780
 C3568 C 0.38083 0.20898 0.88102
 C3569 C 0.41778 0.30118 0.91802
 C3570 C 0.42408 0.31783 0.92432
 H3571 H 0.42564 0.25689 0.93338
 H3572 H 0.38272 0.24528 0.93056
 H3573 H 0.43222 0.24074 0.89233
 H3574 H 0.42290 0.28095 0.87552
 H3575 H 0.37341 0.28548 0.91374
 H3576 H 0.38000 0.26936 0.87271
 C3577 C 1.10117 0.77885 1.11220
 C3578 C 1.08774 0.75903 1.11615
 C3579 C 1.10472 0.74573 1.10541
 C3580 C 1.11826 0.76526 1.10158
 C3581 C 1.09042 0.78155 1.09080
 C3582 C 1.10740 0.76825 1.08005
 C3583 C 1.07687 0.76203 1.09462
 C3584 C 1.09398 0.74841 1.08400
 C3585 C 1.11281 0.72588 1.11365
 C3586 C 1.11962 0.70964 1.12053
 C3587 C 1.08258 0.80160 1.08279
 C3588 C 1.07625 0.81820 1.07636
 H3589 H 1.10404 0.79159 1.12370
 H3590 H 1.07974 0.75502 1.13108
 H3591 H 1.13537 0.76637 1.10454
 H3592 H 1.11540 0.77227 1.06512
 H3593 H 1.05976 0.76093 1.09166
 H3594 H 1.09111 0.73567 1.07250
 C3595 C 1.09304 0.27601 0.61399
 C3596 C 1.08282 0.25434 0.61014
 C3597 C 1.10458 0.24526 0.60518
 C3598 C 1.11492 0.26663 0.60917
 C3599 C 1.09038 0.28113 0.59059
 C3600 C 1.11214 0.27205 0.58565
 C3601 C 1.08004 0.25976 0.58660
 C3602 C 1.10192 0.25037 0.58178
 C3603 C 1.11263 0.22539 0.61342
 C3604 C 1.11940 0.20914 0.62029
 C3605 C 1.08260 0.30120 0.58261
 C3606 C 1.07630 0.31782 0.57621
 H3607 H 1.08931 0.28678 0.62715
 H3608 H 1.07086 0.24684 0.62030
 H3609 H 1.12934 0.26924 0.61854
 H3610 H 1.12410 0.27955 0.57549
 H3611 H 1.06561 0.25717 0.57723
 H3612 H 1.10566 0.23959 0.56863
 C3613 C 0.59456 0.77634 0.61249
 C3614 C 0.58296 0.75511 0.61063
 C3615 C 0.60354 0.74480 0.60353
 C3616 C 0.61526 0.76573 0.60551
 C3617 C 0.58942 0.78086 0.58939
 C3618 C 0.61000 0.77056 0.58228
 C3619 C 0.57769 0.75994 0.58740
 C3620 C 0.59840 0.74931 0.58042
 C3621 C 0.61155 0.72482 0.61154
 C3622 C 0.61827 0.70850 0.61826
 C3623 C 0.58168 0.80105 0.58165
 C3624 C 0.57545 0.81776 0.57542
 H3625 H 0.59289 0.78768 0.62559
 H3626 H 0.57194 0.74853 0.62237
 H3627 H 0.63079 0.76790 0.61304
 H3628 H 0.62103 0.77714 0.57054
 H3629 H 0.56216 0.75779 0.57986
 H3630 H 0.60007 0.73796 0.56732
 C3631 C 0.60101 0.26432 1.07716
 C3632 C 0.61791 0.26192 1.09445
 C3633 C 0.60430 0.24513 1.10506
 C3634 C 0.58752 0.24722 1.08790
 C3635 C 0.59003 0.28102 1.09061
 C3636 C 0.57642 0.26424 1.10123
 C3637 C 0.60681 0.27892 1.10777
 C3638 C 0.59333 0.26184 1.11851
 C3639 C 0.61239 0.22525 1.11323
 C3640 C 0.61918 0.20899 1.12006
 C3641 C 0.58222 0.30112 1.08270
 C3642 C 0.57591 0.31775 1.07633
 H3643 H 0.60408 0.26558 1.06006
 H3644 H 0.63506 0.26074 1.09175
 H3645 H 0.57968 0.23396 1.07982
 H3646 H 0.55927 0.26543 1.10392
 H3647 H 0.61466 0.29218 1.11586
 H3648 H 0.59025 0.26060 1.13560
 C3649 C 1.23847 1.07665 0.90642
 C3650 C 1.24167 1.08784 0.88509
 C3651 C 1.25487 1.10463 0.89622
 C3652 C 1.25199 1.09356 0.91743
 C3653 C 1.21892 1.09018 0.91027
 C3654 C 1.23211 1.10697 0.92140
 C3655 C 1.22181 1.10125 0.88907
 C3656 C 1.23531 1.11815 0.90007
 C3657 C 1.27478 1.11279 0.88824
 C3658 C 1.29105 1.11961 0.88151
 C3659 C 1.19879 1.08229 0.91797
 C3660 C 1.18213 1.07595 0.92420
 H3661 H 1.23954 1.05949 0.90912
 H3662 H 1.24582 1.08007 0.87008
 H3663 H 1.26463 1.09050 0.92900
 H3664 H 1.22796 1.11474 0.93641
 H3665 H 1.20918 1.10432 0.87749
 H3666 H 1.23422 1.13531 0.89737
 C3667 C 1.23908 0.59205 0.42284
 C3668 C 1.25169 0.58254 0.40436
 C3669 C 1.25478 0.60469 0.39543
 C3670 C 1.24250 0.61433 0.41379
 C3671 C 1.21897 0.59014 0.40973
 C3672 C 1.22208 0.61228 0.40080
 C3673 C 1.23125 0.58050 0.39138
 C3674 C 1.23466 0.60277 0.38234
 C3675 C 1.27462 0.61292 0.38733
 C3676 C 1.29084 0.61979 0.38052
 C3677 C 1.19892 0.58217 0.41757
 C3678 C 1.18232 0.57578 0.42389
 H3679 H 1.24067 0.58755 0.43959
 H3680 H 1.26409 0.57040 0.40573
 H3681 H 1.24734 0.62833 0.42291
 H3682 H 1.20968 0.62442 0.39943
 H3683 H 1.22641 0.56650 0.38226
 H3684 H 1.23306 0.60727 0.36559
 C3685 C 0.73743 1.07519 0.40389
 C3686 C 0.74043 1.08915 0.38422
 C3687 C 0.75527 1.10326 0.39687
 C3688 C 0.75260 1.08944 0.41642
 C3689 C 0.71908 1.08922 0.41070
 C3690 C 0.73392 1.10334 0.42335
 C3691 C 0.72176 1.10305 0.39116
 C3692 C 0.73691 1.11729 0.40369
 C3693 C 0.77532 1.11121 0.38903
 C3694 C 0.79171 1.11787 0.38242
 C3695 C 0.69882 1.08155 0.41827
 C3696 C 0.68206 1.07537 0.42439
 H3697 H 0.73742 1.05779 0.40405
 H3698 H 0.74333 1.08340 0.36805
 H3699 H 0.76551 1.08393 0.42672
 H3700 H 0.73101 1.10909 0.43953
 H3701 H 0.70886 1.10857 0.38085
 H3702 H 0.73691 1.13469 0.40352
 C3703 C 0.72482 0.59094 0.88732
 C3704 C 0.73349 0.61327 0.89123
 C3705 C 0.75495 0.60369 0.89655
 C3706 C 0.74658 0.58148 0.89252
 C3707 C 0.71893 0.58947 0.91064
 C3708 C 0.74037 0.57989 0.91597
 C3709 C 0.72729 0.61168 0.91466
 C3710 C 0.74906 0.60223 0.91987
 C3711 C 0.77490 0.61174 0.88856
 C3712 C 0.79121 0.61849 0.88184
 C3713 C 0.69876 0.58169 0.91836
 C3714 C 0.68207 0.57543 0.92459
 H3715 H 0.71464 0.58621 0.87403
 H3716 H 0.73088 0.62708 0.88097
 H3717 H 0.75474 0.56915 0.88333
 H3718 H 0.74297 0.56607 0.92623
 H3719 H 0.71914 0.62401 0.92385
 H3720 H 0.75925 0.60696 0.93316
 C3721 C 1.22208 0.90082 1.11236
 C3722 C 1.23453 0.88234 1.10270
 C3723 C 1.25471 0.89533 1.10455
 C3724 C 1.24256 0.91369 1.11433
 C3725 C 1.21886 0.90983 1.09024
 C3726 C 1.23903 0.92283 1.09209
 C3727 C 1.23101 0.89147 1.08046
 C3728 C 1.25151 0.90434 1.08243
 C3729 C 1.27458 0.88713 1.11266
 C3730 C 1.29081 0.88028 1.11948
 C3731 C 1.19878 0.91777 1.08240
 C3732 C 1.18216 0.92414 1.07608
 H3733 H 1.20976 0.89946 1.12458
 H3734 H 1.23290 0.86561 1.10715
 H3735 H 1.24753 0.92274 1.12834
 H3736 H 1.24065 0.93957 1.08763
 H3737 H 1.22604 0.88243 1.06645
 H3738 H 1.26383 0.90570 1.07022
 C3739 C 1.24046 0.41248 0.57806
 C3740 C 1.25085 0.41898 0.59905
 C3741 C 1.25549 0.39579 0.60363
 C3742 C 1.24542 0.38916 0.58277
 C3743 C 1.21944 0.41005 0.58956
 C3744 C 1.22409 0.38687 0.59415
 C3745 C 1.22951 0.41668 0.61042
 C3746 C 1.23446 0.39338 0.61512
 C3747 C 1.27545 0.38772 0.61161
 C3748 C 1.29176 0.38094 0.61833
 C3749 C 1.19927 0.41785 0.58186
 C3750 C 1.18257 0.42412 0.57565
 H3751 H 1.24269 0.42042 0.56273
 H3752 H 1.26208 0.43209 0.60115
 H3753 H 1.25218 0.37776 0.57149
 H3754 H 1.21286 0.37376 0.59205
 H3755 H 1.22274 0.42808 0.62170
 H3756 H 1.23221 0.38544 0.63045
 C3757 C 0.73309 0.89499 0.57745
 C3758 C 0.75228 0.90879 0.58303
 C3759 C 0.75498 0.89629 0.60346
 C3760 C 0.73612 0.88238 0.59800
 C3761 C 0.71890 0.91040 0.58934
 C3762 C 0.72162 0.89791 0.60977
 C3763 C 0.73776 0.92432 0.59480
 C3764 C 0.74078 0.91170 0.61535
 C3765 C 0.77497 0.88831 0.61145
 C3766 C 0.79131 0.88160 0.61818
 C3767 C 0.69870 0.91812 0.58162
 C3768 C 0.68198 0.92435 0.57541
 H3769 H 0.72970 0.88821 0.56178
 H3770 H 0.76511 0.91317 0.57213
 H3771 H 0.73566 0.86505 0.59940
 H3772 H 0.70879 0.89352 0.62067
 H3773 H 0.73820 0.94166 0.59340
 H3774 H 0.74417 0.91849 0.63102
 C3775 C 0.73720 0.42345 1.09738
 C3776 C 0.73983 0.40970 1.11724
 C3777 C 0.75463 0.39523 1.10492
 C3778 C 0.75233 0.40885 1.08518
 C3779 C 0.71875 0.40958 1.09054
 C3780 C 0.73355 0.39511 1.07822
 C3781 C 0.72107 0.39596 1.11028
 C3782 C 0.73618 0.38137 1.09809
 C3783 C 0.77452 0.38710 1.11306
 C3784 C 0.79077 0.38027 1.11988
 C3785 C 0.69866 0.41744 1.08266
 C3786 C 0.68203 0.42377 1.07631
 H3787 H 0.73739 0.44084 1.09699
 H3788 H 0.74262 0.41561 1.13337
 H3789 H 0.76540 0.41405 1.07495
 H3790 H 0.73075 0.38920 1.06209
 H3791 H 0.70800 0.39075 1.12051
 H3792 H 0.73597 0.36398 1.09847
 C3793 C 0.76072 1.09113 1.07758
 C3794 C 0.74878 1.08224 1.09679
 C3795 C 0.74525 1.10472 1.10467
 C3796 C 0.75686 1.11374 1.08559
 C3797 C 0.78115 1.09039 1.09031
 C3798 C 0.77760 1.11287 1.09819
 C3799 C 0.76954 1.08138 1.10939
 C3800 C 0.76569 1.10398 1.11739
 C3801 C 0.72536 1.11284 1.11280
 C3802 C 0.70910 1.11964 1.11961
 C3803 C 0.80125 1.08254 1.08244
 C3804 C 0.81789 1.07622 1.07611
 H3805 H 0.75890 1.08575 1.06112
 H3806 H 0.73671 1.06974 1.09631
 H3807 H 0.75143 1.12713 1.07589
 H3808 H 0.78968 1.12538 1.09867
 H3809 H 0.77498 1.06799 1.11909
 H3810 H 0.76752 1.10936 1.13385
 C3811 C 0.76110 0.57608 0.59152
 C3812 C 0.75741 0.58546 0.61364
 C3813 C 0.74497 0.60349 0.60361
 C3814 C 0.74833 0.59424 0.58161
 C3815 C 0.78106 0.58938 0.58951
 C3816 C 0.76861 0.60741 0.57948
 C3817 C 0.77768 0.59863 0.61150
 C3818 C 0.76494 0.61678 0.60159
 C3819 C 0.72498 0.61148 0.61160
 C3820 C 0.70864 0.61819 0.61831
 C3821 C 0.80125 0.58166 0.58179
 C3822 C 0.81797 0.57543 0.57557
 H3823 H 0.75975 0.55926 0.58729
 H3824 H 0.75258 0.57653 0.62777
 H3825 H 0.73603 0.59252 0.56942
 H3826 H 0.77345 0.61634 0.56534
 H3827 H 0.78997 0.60036 0.62370
 H3828 H 0.76629 0.63360 0.60582
 C3829 C 0.27783 1.09899 0.61242
 C3830 C 0.26541 1.11763 0.60303
 C3831 C 0.24521 1.10466 0.60467
 C3832 C 0.25732 1.08614 0.61419
 C3833 C 0.28104 1.09030 0.59017
 C3834 C 0.26084 1.07732 0.59181
 C3835 C 0.26893 1.10883 0.58066
 C3836 C 0.24841 1.09597 0.58243
 C3837 C 0.22536 1.11280 0.61288
 C3838 C 0.20913 1.11963 0.61974
 C3839 C 0.30110 1.08244 0.58224
 C3840 C 0.31772 1.07610 0.57586
 H3841 H 0.29014 1.10015 0.62466
 H3842 H 0.26708 1.13430 0.60773
 H3843 H 0.25232 1.07690 0.62807
 H3844 H 0.25919 1.06065 0.58711
 H3845 H 0.27393 1.11806 0.56678
 H3846 H 0.23609 1.09482 0.57019
 C3847 C 0.27859 0.61159 1.10177
 C3848 C 0.25888 0.61597 1.08829
 C3849 C 0.24541 0.60498 1.10495
 C3850 C 0.26483 0.60072 1.11856
 C3851 C 0.28122 0.59043 1.09059
 C3852 C 0.26776 0.57943 1.10725
 C3853 C 0.26181 0.59468 1.07697
 C3854 C 0.24802 0.58381 1.09377
 C3855 C 0.22557 0.61320 1.11309
 C3856 C 0.20936 0.62009 1.11993
 C3857 C 0.30127 0.58246 1.08272
 C3858 C 0.31788 0.57606 1.07637
 H3859 H 0.29139 0.62293 1.10498
 H3860 H 0.25501 0.63109 1.08058
 H3861 H 0.26586 0.60330 1.13575
 H3862 H 0.27164 0.56432 1.11496
 H3863 H 0.26080 0.59210 1.05978
 H3864 H 0.23523 0.57247 1.09057
 C3865 C 0.76039 0.92328 0.91036
 C3866 C 0.75625 0.91569 0.88765
 C3867 C 0.74485 0.89642 0.89647
 C3868 C 0.74867 0.90387 0.91907
 C3869 C 0.78089 0.91063 0.91055
 C3870 C 0.76949 0.89135 0.91937
 C3871 C 0.77706 0.90317 0.88796
 C3872 C 0.76536 0.88377 0.89666
 C3873 C 0.72489 0.88837 0.88850
 C3874 C 0.70858 0.88162 0.88179
 C3875 C 0.80106 0.91840 0.91825
 C3876 C 0.81775 0.92465 0.92447
 H3877 H 0.75858 0.93961 0.91608
 H3878 H 0.75058 0.92562 0.87451
 H3879 H 0.73677 0.90407 0.93177
 H3880 H 0.77516 0.88143 0.93251
 H3881 H 0.78895 0.90297 0.87525
 H3882 H 0.76718 0.86744 0.89095
 C3883 C 0.77866 0.38961 0.39767
 C3884 C 0.75938 0.38413 0.41138
 C3885 C 0.74531 0.39596 0.39581
 C3886 C 0.76428 0.40132 0.38198
 C3887 C 0.78130 0.41006 0.41009
 C3888 C 0.76723 0.42190 0.39453
 C3889 C 0.76234 0.40471 0.42394
 C3890 C 0.74794 0.41642 0.40824
 C3891 C 0.72536 0.38797 0.38773
 C3892 C 0.70906 0.38125 0.38096
 C3893 C 0.80145 0.41779 0.41791
 C3894 C 0.81812 0.42403 0.42420
 H3895 H 0.79151 0.37866 0.39341
 H3896 H 0.75594 0.36851 0.41822
 H3897 H 0.76486 0.39984 0.36464
 H3898 H 0.77068 0.43752 0.38768
 H3899 H 0.76177 0.40619 0.44128
 H3900 H 0.73508 0.42735 0.41249
 C3901 C 0.26172 0.92420 0.40492
 C3902 C 0.25871 0.91210 0.38407
 C3903 C 0.24484 0.89619 0.39564
 C3904 C 0.24752 0.90816 0.41638
 C3905 C 0.28083 0.91039 0.40986
 C3906 C 0.26696 0.89448 0.42143
 C3907 C 0.27813 0.89842 0.38912
 C3908 C 0.26396 0.88239 0.40058
 C3909 C 0.22491 0.88815 0.38759
 C3910 C 0.20862 0.88140 0.38083
 C3911 C 0.30097 0.91816 0.41764
 C3912 C 0.31765 0.92441 0.42391
 H3913 H 0.26103 0.94149 0.40680
 H3914 H 0.25510 0.91926 0.36861
 H3915 H 0.23471 0.91208 0.42749
 H3916 H 0.27058 0.88732 0.43689
 H3917 H 0.29093 0.89450 0.37800
 H3918 H 0.26466 0.86510 0.39870
 C3919 C 0.26805 0.42104 0.89296
 C3920 C 0.26468 0.39936 0.88256
 C3921 C 0.24495 0.39630 0.89602
 C3922 C 0.24800 0.41785 0.90630
 C3923 C 0.28094 0.41039 0.91031
 C3924 C 0.26121 0.40733 0.92379
 C3925 C 0.27788 0.38884 0.90003
 C3926 C 0.25784 0.38565 0.91337
 C3927 C 0.22501 0.38831 0.88792
 C3928 C 0.20872 0.38159 0.88114
 C3929 C 0.30109 0.41811 0.91814
 C3930 C 0.31777 0.42434 0.92442
 H3931 H 0.27247 0.43567 0.88466
 H3932 H 0.26589 0.39599 0.86552
 H3933 H 0.23548 0.42969 0.90879
 H3934 H 0.26002 0.41070 0.94083
 H3935 H 0.29039 0.37699 0.89753
 H3936 H 0.25342 0.37102 0.92167
   
