data_POSCAR
  _audit_creation_date              2014-09-24
  _audit_creation_method            'ToBaCCo'
  _symmetry_space_group_name_H-M    'P1'
  _symmetry_Int_Tables_number       1
  _symmetry_cell_setting            triclinic
  loop_
  _symmetry_equiv_pos_as_xyz
 x,y,z
_cell_length_a 41.5035
_cell_length_b 41.6719
_cell_length_c 41.5799
_cell_angle_alpha 89.998700
_cell_angle_beta 90.032200
_cell_angle_gamma 89.990000
loop_
  _atom_site_label
  _atom_site_type_symbol
  _atom_site_fract_x
  _atom_site_fract_y
  _atom_site_fract_z
O1 O 0.27151 1.03632 0.03338
 O2 O 0.28156 0.97604 -0.03075
 O3 O 0.27180 1.03781 -0.02908
 O4 O 0.28149 0.97528 0.03253
 O5 O 0.22880 0.96780 0.03277
 O6 O 0.21969 1.02744 -0.03187
 O7 O 0.22946 0.96601 -0.02941
 O8 O 0.21872 1.03001 0.03086
 Cu9 Cu 0.28189 1.00711 0.00148
 Cu10 Cu 0.21888 0.99703 0.00065
 C11 C 0.24336 1.04371 0.04275
 C12 C 0.25726 0.96042 -0.04094
 C13 C 0.24423 1.04302 -0.04126
 C14 C 0.25670 0.96119 0.04346
 O15 O 0.71573 0.53575 0.52556
 O16 O 0.72697 0.47280 0.46413
 O17 O 0.72713 0.47380 0.52693
 O18 O 0.71458 0.53465 0.46368
 O19 O 0.76698 0.54391 0.46244
 O20 O 0.77933 0.48393 0.52648
 O21 O 0.77917 0.48295 0.46305
 O22 O 0.76813 0.54503 0.52499
 Cu23 Cu 0.71589 0.50306 0.49512
 Cu24 Cu 0.77866 0.51476 0.49415
 C25 C 0.74011 0.55127 0.53556
 C26 C 0.75492 0.46741 0.45288
 C27 C 0.75529 0.46882 0.53783
 C28 C 0.73863 0.54983 0.45251
 O29 O 0.72632 0.97385 1.02413
 O30 O 0.72093 1.03838 0.96403
 O31 O 0.72955 0.97659 0.96195
 O32 O 0.71875 1.03583 1.02654
 O33 O 0.77147 1.04104 1.03014
 O34 O 0.78206 0.98498 0.96272
 O35 O 0.77326 1.04696 0.96826
 O36 O 0.77904 0.97973 1.02593
 Cu37 Cu 0.71862 1.00548 0.99386
 Cu38 Cu 0.78180 1.01368 0.99686
 C39 C 0.75354 0.96570 1.03551
 C40 C 0.74601 1.05400 0.95623
 C41 C 0.75755 0.97093 0.95107
 C42 C 0.74336 1.04836 1.03975
 O43 O 0.22954 0.46641 0.53214
 O44 O 0.21742 0.52971 0.47185
 O45 O 0.22862 0.46753 0.47008
 O46 O 0.21969 0.52752 0.53434
 O47 O 0.27176 0.53811 0.53131
 O48 O 0.28121 0.47569 0.46948
 O49 O 0.27009 0.53682 0.46912
 O50 O 0.28177 0.47660 0.53266
 Cu51 Cu 0.21850 0.49694 0.50201
 Cu52 Cu 0.28153 0.50759 0.50050
 C53 C 0.25756 0.46115 0.54316
 C54 C 0.24175 0.54395 0.46010
 C55 C 0.25645 0.46108 0.45914
 C56 C 0.24424 0.54319 0.54362
 O57 O 1.03875 0.21422 0.03446
 O58 O 0.97222 0.21852 -0.02361
 O59 O 1.03430 0.21593 -0.02775
 O60 O 0.97595 0.21936 0.03908
 O61 O 0.97901 0.27227 0.03875
 O62 O 1.03915 0.26867 -0.02580
 O63 O 0.97622 0.27121 -0.02486
 O64 O 1.04087 0.26715 0.03650
 Cu65 Cu 1.00485 0.21174 0.00564
 Cu66 Cu 1.00890 0.27517 0.00608
 C67 C 1.05108 0.23982 0.04550
 C68 C 0.96330 0.24537 -0.03499
 C69 C 1.04694 0.24180 -0.03787
 C70 C 0.96779 0.24649 0.05047
 O71 O 0.52823 0.75386 0.52892
 O72 O 0.46517 0.74993 0.46675
 O73 O 0.46570 0.75166 0.52947
 O74 O 0.52777 0.75195 0.46641
 O75 O 0.53065 0.69905 0.46845
 O76 O 0.46804 0.69882 0.53146
 O77 O 0.46805 0.69704 0.46733
 O78 O 0.53095 0.70091 0.52971
 Cu79 Cu 0.49636 0.75711 0.49775
 Cu80 Cu 0.49909 0.69354 0.49947
 C81 C 0.54070 0.72809 0.53950
 C82 C 0.45633 0.72284 0.45594
 C83 C 0.45661 0.72525 0.54164
 C84 C 0.54013 0.72567 0.45699
 O85 O 0.02845 0.72165 -0.02886
 O86 O -0.03586 0.73105 0.03128
 O87 O -0.03449 0.72251 -0.03020
 O88 O 0.02709 0.73042 0.03263
 O89 O 0.02766 0.78301 0.02584
 O90 O -0.03359 0.77488 -0.03752
 O91 O -0.03449 0.78367 0.02474
 O92 O 0.02872 0.77399 -0.03648
 Cu93 Cu -0.00377 0.72113 0.00196
 Cu94 Cu -0.00283 0.78417 -0.00664
 C95 C 0.03955 0.74623 -0.04317
 C96 C -0.04600 0.75893 0.03834
 C97 C -0.04466 0.74736 -0.04470
 C98 C 0.03779 0.75799 0.03999
 O99 O 0.53796 0.24985 0.47729
 O100 O 0.47405 0.24703 0.53849
 O101 O 0.53679 0.25185 0.53991
 O102 O 0.47531 0.24670 0.47644
 O103 O 0.47938 0.19386 0.47672
 O104 O 0.54117 0.19903 0.54032
 O105 O 0.47843 0.19423 0.54032
 O106 O 0.54207 0.19700 0.47899
 Cu107 Cu 0.50566 0.25415 0.50797
 Cu108 Cu 0.51025 0.19063 0.50923
 C109 C 0.55119 0.22393 0.46806
 C110 C 0.46544 0.22011 0.54989
 C111 C 0.54990 0.22642 0.55053
 C112 C 0.46691 0.21948 0.46567
 O113 O 1.02813 0.01981 0.26399
 O114 O 0.96147 -0.03833 0.25566
 O115 O 1.02347 -0.04302 0.26348
 O116 O 0.96580 0.02350 0.25812
 O117 O 0.97221 0.02519 0.20544
 O118 O 1.03038 -0.04179 0.21082
 O119 O 0.96811 -0.03806 0.20309
 O120 O 1.03457 0.01969 0.21125
 Cu121 Cu 0.99419 -0.00958 0.26558
 Cu122 Cu 1.00166 -0.00864 0.20230
 C123 C 1.04284 0.02942 0.23895
 C124 C 0.95347 -0.04835 0.22789
 C125 C 1.03685 -0.05370 0.23821
 C126 C 0.95914 0.03576 0.23100
 O127 O 0.53439 0.53462 0.70757
 O128 O 0.46749 0.47729 0.70315
 O129 O 0.47207 0.54017 0.70323
 O130 O 0.53039 0.47339 0.71041
 O131 O 0.52591 0.47564 0.76334
 O132 O 0.46514 0.53904 0.75587
 O133 O 0.46450 0.47644 0.75620
 O134 O 0.52817 0.53792 0.76024
 Cu135 Cu 0.50128 0.50618 0.70071
 Cu136 Cu 0.49532 0.50763 0.76422
 C137 C 0.54280 0.54593 0.73460
 C138 C 0.45517 0.46647 0.72888
 C139 C 0.45845 0.55071 0.72850
 C140 C 0.53840 0.46360 0.73827
 O141 O 0.96989 1.03841 0.72511
 O142 O 1.02839 0.97280 0.73406
 O143 O 0.96581 0.97587 0.73230
 O144 O 1.03253 1.03384 0.72787
 O145 O 1.02923 1.04147 0.78036
 O146 O 0.96452 0.98123 0.78510
 O147 O 1.02819 0.97963 0.78668
 O148 O 0.96686 1.04305 0.77781
 Cu149 Cu 0.99903 1.00463 0.72453
 Cu150 Cu 0.99692 1.01174 0.78782
 C151 C 0.95826 1.05205 0.74987
 C152 C 1.03915 0.96573 0.76175
 C153 C 0.95387 0.96854 0.75945
 C154 C 1.04230 1.04742 0.75341
 O155 O 0.46693 0.52076 0.23920
 O156 O 0.52820 0.45693 0.24139
 O157 O 0.46553 0.45789 0.24477
 O158 O 0.52940 0.51796 0.23363
 O159 O 0.53377 0.52319 0.28635
 O160 O 0.46678 0.46562 0.29729
 O161 O 0.52968 0.46078 0.29439
 O162 O 0.47238 0.52772 0.29159
 Cu163 Cu 0.49686 0.48775 0.23446
 Cu164 Cu 0.50104 0.49466 0.29774
 C165 C 0.46000 0.53578 0.26491
 C166 C 0.53928 0.44799 0.26840
 C167 C 0.45511 0.45158 0.27276
 C168 C 0.54263 0.53063 0.25803
 O169 O 0.24891 0.15605 0.21991
 O170 O 0.28027 0.14432 0.26674
 O171 O 0.16410 0.19873 0.26673
 O172 O 0.15428 0.24130 0.29767
 O173 O 0.20569 0.24193 0.18136
 O174 O 0.25231 0.27504 0.17310
 O175 O 0.24882 0.28233 0.34864
 O176 O 0.21222 0.23812 0.35621
 O177 O 0.33271 0.23457 0.31038
 O178 O 0.34055 0.19769 0.26435
 O179 O 0.29915 0.31886 0.26800
 O180 O 0.25451 0.33172 0.23066
 O181 O 0.25544 0.32091 0.31056
 O182 O 0.21954 0.33311 0.26414
 O183 O 0.33550 0.27809 0.26561
 O184 O 0.34316 0.23162 0.23064
 O185 O 0.29392 0.24093 0.34844
 O186 O 0.25501 0.20433 0.35928
 O187 O 0.24790 0.19468 0.18123
 O188 O 0.28625 0.23718 0.17292
 O189 O 0.16707 0.24502 0.22007
 O190 O 0.16095 0.28071 0.26615
 O191 O 0.20043 0.15808 0.26225
 O192 O 0.24347 0.14540 0.29958
 Zr193 Zr 0.24550 0.18128 0.26363
 O194 O 0.27677 0.20689 0.29421
 Zr195 Zr 0.19227 0.24067 0.26383
 O196 O 0.22122 0.26894 0.29429
 Zr197 Zr 0.24895 0.23787 0.20753
 O198 O 0.28056 0.26592 0.23556
 Zr199 Zr 0.25050 0.23923 0.32262
 O200 O 0.21857 0.21051 0.29509
 Zr201 Zr 0.30726 0.23614 0.26650
 O202 O 0.27841 0.20766 0.23563
 Zr203 Zr 0.25402 0.29574 0.26662
 O204 O 0.22226 0.27030 0.23577
 O205 O 0.21720 0.20962 0.23369
 O206 O 0.28256 0.26770 0.29669
 C207 C 0.24922 0.16527 0.19042
 C208 C 0.17152 0.16882 0.26492
 C209 C 0.17632 0.24516 0.19058
 C210 C 0.25190 0.31169 0.33984
 C211 C 0.32340 0.23783 0.33966
 C212 C 0.32810 0.30802 0.26667
 H213 H 0.28898 0.19173 0.30787
 H214 H 0.29467 0.27842 0.22110
 H215 H 0.20284 0.19686 0.21961
 H216 H 0.20704 0.28260 0.30761
 H217 H 0.19834 0.21963 0.35049
 H218 H 0.16362 0.24859 0.31829
 H219 H 0.33878 0.24795 0.21395
 H220 H 0.30196 0.22082 0.18015
 H221 H 0.24836 0.18373 0.34968
 H222 H 0.22529 0.15087 0.31399
 H223 H 0.27154 0.32617 0.21499
 H224 H 0.23853 0.29276 0.18099
 H225 H 0.29847 0.15088 0.25285
 H226 H 0.33556 0.18273 0.28214
 H227 H 0.16871 0.29640 0.25004
 H228 H 0.20391 0.32983 0.28178
 O229 O 0.73648 0.83690 0.19437
 O230 O 0.70117 0.84539 0.23984
 O231 O 0.82026 0.79675 0.23628
 O232 O 0.83306 0.75463 0.26667
 O233 O 0.77695 0.75188 0.15237
 O234 O 0.73112 0.71912 0.14430
 O235 O 0.73828 0.70680 0.32012
 O236 O 0.77612 0.74869 0.32842
 O237 O 0.65486 0.75493 0.28506
 O238 O 0.64246 0.78760 0.23964
 O239 O 0.69180 0.66999 0.24115
 O240 O 0.73493 0.66061 0.20065
 O241 O 0.73946 0.66917 0.28046
 O242 O 0.77163 0.66033 0.23181
 O243 O 0.65365 0.70884 0.24605
 O244 O 0.64311 0.75382 0.20471
 O245 O 0.69459 0.74853 0.32221
 O246 O 0.73942 0.78676 0.33135
 O247 O 0.73197 0.79884 0.15525
 O248 O 0.69588 0.75445 0.14720
 O249 O 0.81748 0.75381 0.18925
 O250 O 0.82675 0.71480 0.23281
 O251 O 0.78180 0.83552 0.24026
 O252 O 0.73734 0.84480 0.27483
 Zr253 Zr 0.73794 0.81033 0.23756
 O254 O 0.70880 0.78252 0.26822
 Zr255 Zr 0.79392 0.75371 0.23405
 O256 O 0.76750 0.72351 0.26501
 Zr257 Zr 0.73469 0.75491 0.18014
 O258 O 0.70579 0.72438 0.20846
 Zr259 Zr 0.73755 0.75083 0.29522
 O260 O 0.76726 0.78141 0.26715
 Zr261 Zr 0.67904 0.75227 0.24090
 O262 O 0.70521 0.78313 0.21007
 Zr263 Zr 0.73540 0.69560 0.23760
 O264 O 0.76437 0.72335 0.20629
 O265 O 0.76621 0.78413 0.20583
 O266 O 0.70649 0.72143 0.26934
 C267 C 0.73332 0.82811 0.16488
 C268 C 0.81123 0.82606 0.23934
 C269 C 0.80688 0.75203 0.16027
 C270 C 0.73981 0.67764 0.31013
 C271 C 0.66487 0.75168 0.31406
 C272 C 0.66260 0.67933 0.24540
 H273 H 0.69604 0.79709 0.28197
 H274 H 0.69167 0.71131 0.19453
 H275 H 0.77968 0.79802 0.19196
 H276 H 0.78265 0.71021 0.27763
 H277 H 0.79241 0.76442 0.32107
 H278 H 0.82665 0.74206 0.28579
 H279 H 0.64288 0.73289 0.19349
 H280 H 0.67914 0.76879 0.15619
 H281 H 0.72088 0.80136 0.32838
 H282 H 0.75085 0.83599 0.29236
 H283 H 0.71584 0.66452 0.18695
 H284 H 0.74440 0.70086 0.15180
 H285 H 0.68457 0.83906 0.22393
 H286 H 0.64990 0.80577 0.25303
 H287 H 0.81997 0.70058 0.21498
 H288 H 0.78882 0.66491 0.24764
 O289 O 0.75494 0.19124 0.80908
 O290 O 0.71975 0.17767 0.76649
 O291 O 0.84014 0.21984 0.75509
 O292 O 0.85328 0.25750 0.71972
 O293 O 0.80690 0.27680 0.83649
 O294 O 0.76437 0.31424 0.84309
 O295 O 0.75209 0.30205 0.66745
 O296 O 0.78992 0.25953 0.66126
 O297 O 0.67371 0.26951 0.71466
 O298 O 0.66448 0.23787 0.76497
 O299 O 0.71803 0.35197 0.74297
 O300 O 0.76511 0.36471 0.77815
 O301 O 0.76043 0.34476 0.70045
 O302 O 0.79912 0.35795 0.74419
 O303 O 0.67789 0.31618 0.75270
 O304 O 0.66774 0.27574 0.79481
 O305 O 0.70992 0.25923 0.67491
 O306 O 0.75397 0.22102 0.66790
 O307 O 0.76126 0.23339 0.84335
 O308 O 0.72648 0.28051 0.84791
 O309 O 0.84402 0.26896 0.79690
 O310 O 0.85060 0.30177 0.74723
 O311 O 0.79997 0.18381 0.76468
 O312 O 0.75417 0.17287 0.73008
 Zr313 Zr 0.75758 0.21143 0.76296
 O314 O 0.72696 0.23644 0.73147
 Zr315 Zr 0.81654 0.26457 0.75424
 O316 O 0.78876 0.29154 0.72130
 Zr317 Zr 0.76244 0.27377 0.81254
 O318 O 0.73275 0.30202 0.78264
 Zr319 Zr 0.75492 0.26201 0.69811
 O320 O 0.78583 0.23414 0.72755
 Zr321 Zr 0.70153 0.27186 0.75688
 O322 O 0.72890 0.24380 0.78931
 Zr323 Zr 0.76063 0.32474 0.74702
 O324 O 0.79093 0.29993 0.77978
 O325 O 0.78988 0.23980 0.78840
 O326 O 0.72770 0.29649 0.72202
 C327 C 0.75743 0.20330 0.83738
 C328 C 0.82967 0.19130 0.76037
 C329 C 0.83596 0.27395 0.82637
 C330 C 0.75538 0.33228 0.67263
 C331 C 0.68110 0.26366 0.68526
 C332 C 0.68816 0.34449 0.74619
 H333 H 0.71229 0.22099 0.72095
 H334 H 0.72079 0.31770 0.79588
 H335 H 0.80355 0.22707 0.80317
 H336 H 0.80298 0.30215 0.70547
 H337 H 0.80708 0.24500 0.66911
 H338 H 0.84560 0.26691 0.69928
 H339 H 0.67416 0.29415 0.80839
 H340 H 0.70953 0.26435 0.84362
 H341 H 0.73727 0.20621 0.67610
 H342 H 0.77036 0.17690 0.71306
 H343 H 0.74744 0.36366 0.79406
 H344 H 0.77766 0.33043 0.83182
 H345 H 0.70243 0.18818 0.77900
 H346 H 0.66614 0.22111 0.74821
 H347 H 0.84631 0.31830 0.76378
 H348 H 0.81366 0.35080 0.72676
 O349 O 0.24958 0.83612 0.79715
 O350 O 0.28552 0.84692 0.75398
 O351 O 0.16561 0.80324 0.74152
 O352 O 0.15045 0.76165 0.71343
 O353 O 0.19903 0.75175 0.82914
 O354 O 0.24286 0.71495 0.83771
 O355 O 0.25132 0.71700 0.66174
 O356 O 0.21284 0.75961 0.65444
 O357 O 0.33071 0.75202 0.70470
 O358 O 0.34094 0.78688 0.75318
 O359 O 0.28685 0.67108 0.74388
 O360 O 0.24041 0.65994 0.77522
 O361 O 0.24572 0.67625 0.69771
 O362 O 0.20528 0.66663 0.74269
 O363 O 0.32753 0.70763 0.74540
 O364 O 0.33856 0.75046 0.78524
 O365 O 0.29335 0.75987 0.66543
 O366 O 0.25028 0.79730 0.65676
 O367 O 0.24411 0.79541 0.83331
 O368 O 0.27974 0.74984 0.84042
 O369 O 0.16192 0.75957 0.78953
 O370 O 0.15556 0.72071 0.74304
 O371 O 0.20458 0.84048 0.75132
 O372 O 0.25113 0.84999 0.71712
 Zr373 Zr 0.24755 0.81319 0.75194
 O374 O 0.27771 0.78634 0.72128
 Zr375 Zr 0.18894 0.75899 0.74666
 O376 O 0.21621 0.73021 0.71521
 Zr377 Zr 0.24352 0.75367 0.80486
 O378 O 0.27306 0.72402 0.77635
 Zr379 Zr 0.24931 0.75869 0.68998
 O380 O 0.21905 0.78822 0.71815
 Zr381 Zr 0.30390 0.75233 0.74793
 O382 O 0.27679 0.78213 0.77935
 Zr383 Zr 0.24467 0.69892 0.74290
 O384 O 0.21468 0.72542 0.77439
 O385 O 0.21564 0.78610 0.77902
 O386 O 0.27703 0.72552 0.71535
 C387 C 0.24697 0.82522 0.82596
 C388 C 0.17527 0.83221 0.74546
 C389 C 0.17002 0.75571 0.81910
 C390 C 0.24920 0.68714 0.66902
 C391 C 0.32238 0.75587 0.67515
 C392 C 0.31681 0.67871 0.74445
 H393 H 0.29212 0.80110 0.70952
 H394 H 0.28516 0.70928 0.79053
 H395 H 0.20195 0.79997 0.79268
 H396 H 0.20180 0.71861 0.70026
 H397 H 0.19657 0.77542 0.66168
 H398 H 0.15863 0.75349 0.69265
 H399 H 0.33210 0.73322 0.80025
 H400 H 0.29692 0.76515 0.83434
 H401 H 0.26613 0.81324 0.66450
 H402 H 0.23525 0.84486 0.70010
 H403 H 0.25391 0.66489 0.79419
 H404 H 0.22713 0.69921 0.82924
 H405 H 0.30282 0.83685 0.76690
 H406 H 0.33883 0.80258 0.73546
 H407 H 0.15883 0.70677 0.76205
 H408 H 0.19239 0.67079 0.72310
 O409 O 0.25512 0.33301 0.70198
 O410 O 0.22384 0.34766 0.74811
 O411 O 0.33921 0.29138 0.74648
 O412 O 0.35180 0.24956 0.77642
 O413 O 0.29044 0.24592 0.66557
 O414 O 0.24394 0.21125 0.66304
 O415 O 0.25728 0.21526 0.83848
 O416 O 0.29737 0.25555 0.84083
 O417 O 0.17430 0.25910 0.80345
 O418 O 0.16300 0.29523 0.75640
 O419 O 0.20322 0.17393 0.76092
 O420 O 0.24553 0.15761 0.72500
 O421 O 0.24843 0.17447 0.80321
 O422 O 0.28293 0.15902 0.75555
 O423 O 0.16756 0.21525 0.76316
 O424 O 0.15766 0.25926 0.72446
 O425 O 0.21603 0.26103 0.83891
 O426 O 0.26275 0.29511 0.84256
 O427 O 0.24658 0.29210 0.66672
 O428 O 0.20975 0.24832 0.66309
 O429 O 0.33205 0.24391 0.70121
 O430 O 0.34016 0.20846 0.74832
 O431 O 0.30325 0.33252 0.74318
 O432 O 0.26232 0.34732 0.78131
 Zr433 Zr 0.25809 0.31012 0.74698
 O434 O 0.22871 0.28717 0.78121
 Zr435 Zr 0.31045 0.24977 0.74667
 O436 O 0.28351 0.22439 0.78123
 Zr437 Zr 0.24942 0.25040 0.69494
 O438 O 0.21987 0.22457 0.72686
 Zr439 Zr 0.25706 0.25658 0.80968
 O440 O 0.28716 0.28231 0.77782
 Zr441 Zr 0.19607 0.25654 0.75787
 O442 O 0.22271 0.28270 0.72326
 Zr443 Zr 0.24848 0.19646 0.75762
 O444 O 0.27792 0.21922 0.72277
 O445 O 0.28358 0.27954 0.71689
 O446 O 0.22287 0.22685 0.78806
 C447 C 0.24978 0.32196 0.67362
 C448 C 0.33206 0.32135 0.74457
 C449 C 0.32049 0.24322 0.67253
 C450 C 0.25303 0.18550 0.83170
 C451 C 0.18588 0.26079 0.83205
 C452 C 0.17452 0.18525 0.76322
 H453 H 0.21740 0.30346 0.79425
 H454 H 0.20463 0.21142 0.71422
 H455 H 0.29707 0.29160 0.70142
 H456 H 0.29817 0.21127 0.79458
 H457 H 0.31390 0.26983 0.83134
 H458 H 0.34500 0.24161 0.79777
 H459 H 0.15932 0.24054 0.70994
 H460 H 0.19378 0.26406 0.67109
 H461 H 0.24739 0.31226 0.83669
 H462 H 0.27831 0.33997 0.79738
 H463 H 0.23054 0.16400 0.70764
 H464 H 0.25960 0.19468 0.66990
 H465 H 0.20475 0.33981 0.73621
 H466 H 0.16894 0.31060 0.77353
 H467 H 0.33150 0.19306 0.73238
 H468 H 0.29853 0.16229 0.77324
 O469 O 0.74813 0.67369 0.70397
 O470 O 0.78103 0.66295 0.74810
 O471 O 0.66421 0.71432 0.75535
 O472 O 0.65310 0.75731 0.78404
 O473 O 0.69948 0.75628 0.66634
 O474 O 0.74314 0.79202 0.65510
 O475 O 0.75121 0.80014 0.83144
 O476 O 0.71631 0.75785 0.84195
 O477 O 0.83302 0.75986 0.78810
 O478 O 0.83993 0.71971 0.74284
 O479 O 0.79403 0.83901 0.74834
 O480 O 0.74873 0.85144 0.71466
 O481 O 0.75217 0.83921 0.79321
 O482 O 0.71262 0.84879 0.74728
 O483 O 0.83162 0.79979 0.74228
 O484 O 0.83934 0.75312 0.70817
 O485 O 0.79634 0.75821 0.82876
 O486 O 0.75259 0.72031 0.84035
 O487 O 0.74424 0.71169 0.66481
 O488 O 0.77972 0.75669 0.65405
 O489 O 0.66269 0.75848 0.70684
 O490 O 0.65862 0.79680 0.75219
 O491 O 0.70163 0.67477 0.74945
 O492 O 0.74741 0.66546 0.78487
 Zr493 Zr 0.74580 0.69954 0.74722
 O494 O 0.77805 0.72643 0.77541
 Zr495 Zr 0.69031 0.75705 0.74931
 O496 O 0.71977 0.78601 0.77854
 Zr497 Zr 0.74406 0.75546 0.69034
 O498 O 0.77566 0.78531 0.71645
 Zr499 Zr 0.75159 0.75730 0.80525
 O500 O 0.71911 0.72806 0.77938
 Zr501 Zr 0.80530 0.75695 0.74586
 O502 O 0.77607 0.72683 0.71714
 Zr503 Zr 0.74984 0.81410 0.74912
 O504 O 0.71777 0.78738 0.71957
 O505 O 0.71489 0.72634 0.71847
 O506 O 0.78093 0.78717 0.77761
 C507 C 0.74716 0.68251 0.67442
 C508 C 0.67260 0.68468 0.75376
 C509 C 0.67047 0.75784 0.67695
 C510 C 0.75150 0.82961 0.82260
 C511 C 0.82524 0.75975 0.81795
 C512 C 0.82319 0.82930 0.74470
 H513 H 0.79206 0.71182 0.78783
 H514 H 0.78834 0.79835 0.70116
 H515 H 0.70049 0.71250 0.70551
 H516 H 0.70590 0.79915 0.79269
 H517 H 0.69906 0.74286 0.83525
 H518 H 0.66226 0.76649 0.80398
 H519 H 0.83333 0.76893 0.69146
 H520 H 0.79613 0.74050 0.66002
 H521 H 0.76987 0.70498 0.83475
 H522 H 0.73233 0.67309 0.80165
 H523 H 0.76078 0.84393 0.69559
 H524 H 0.72903 0.80919 0.66360
 H525 H 0.79991 0.67153 0.73638
 H526 H 0.83898 0.70702 0.76292
 H527 H 0.66370 0.81109 0.73386
 H528 H 0.69940 0.84638 0.76693
 O529 O 0.24952 0.66116 0.28814
 O530 O 0.21270 0.65267 0.24442
 O531 O 0.33363 0.69639 0.24568
 O532 O 0.34872 0.73713 0.21440
 O533 O 0.29221 0.74601 0.32802
 O534 O 0.24773 0.78013 0.33529
 O535 O 0.25139 0.78587 0.15868
 O536 O 0.29096 0.74533 0.15149
 O537 O 0.17048 0.74795 0.19501
 O538 O 0.15572 0.71364 0.23887
 O539 O 0.21091 0.82808 0.23574
 O540 O 0.25492 0.83718 0.27594
 O541 O 0.25613 0.82530 0.19619
 O542 O 0.29122 0.83459 0.24380
 O543 O 0.17050 0.79135 0.23830
 O544 O 0.15863 0.74491 0.27595
 O545 O 0.21048 0.74210 0.15805
 O546 O 0.25612 0.70520 0.15152
 O547 O 0.24695 0.70012 0.32652
 O548 O 0.21090 0.74614 0.33275
 O549 O 0.33286 0.74088 0.29160
 O550 O 0.34335 0.77860 0.24673
 O551 O 0.29338 0.65944 0.24232
 O552 O 0.24752 0.65091 0.20835
 Zr553 Zr 0.25074 0.68641 0.24456
 O554 O 0.22258 0.71424 0.21328
 Zr555 Zr 0.30935 0.74070 0.24650
 O556 O 0.28415 0.77063 0.21412
 Zr557 Zr 0.24999 0.74346 0.30026
 O558 O 0.22265 0.77448 0.27092
 Zr559 Zr 0.25300 0.74320 0.18533
 O560 O 0.28164 0.71278 0.21432
 Zr561 Zr 0.19432 0.74679 0.23964
 O562 O 0.21919 0.71564 0.27132
 Zr563 Zr 0.25329 0.80080 0.24042
 O564 O 0.28088 0.77302 0.27307
 O565 O 0.28026 0.71241 0.27540
 O566 O 0.22313 0.77493 0.20997
 C567 C 0.24797 0.67060 0.31748
 C568 C 0.32321 0.66744 0.24327
 C569 C 0.32214 0.74405 0.32046
 C570 C 0.25328 0.81545 0.16705
 C571 C 0.18077 0.74490 0.16604
 C572 C 0.18100 0.82022 0.23582
 H573 H 0.20921 0.69978 0.19999
 H574 H 0.20938 0.78863 0.28462
 H575 H 0.29344 0.69854 0.28956
 H576 H 0.29943 0.78293 0.20069
 H577 H 0.30799 0.73069 0.15941
 H578 H 0.34326 0.74979 0.19504
 H579 H 0.16171 0.76371 0.29015
 H580 H 0.19499 0.72986 0.32579
 H581 H 0.23774 0.69053 0.15514
 H582 H 0.26354 0.65664 0.19168
 H583 H 0.23556 0.83496 0.28963
 H584 H 0.26074 0.79815 0.32682
 H585 H 0.19608 0.66095 0.25935
 H586 H 0.16315 0.69446 0.22703
 H587 H 0.33687 0.79362 0.26402
 H588 H 0.30728 0.82927 0.22706
 O589 O 0.75752 0.32979 0.30071
 O590 O 0.79518 0.33713 0.25703
 O591 O 0.67323 0.29570 0.25371
 O592 O 0.66000 0.25554 0.22019
 O593 O 0.70843 0.24628 0.33762
 O594 O 0.75298 0.21071 0.34736
 O595 O 0.75346 0.20354 0.17151
 O596 O 0.71815 0.24774 0.16289
 O597 O 0.83754 0.24252 0.21081
 O598 O 0.84908 0.27731 0.25783
 O599 O 0.79378 0.16192 0.25526
 O600 O 0.74594 0.15459 0.28990
 O601 O 0.75330 0.16466 0.21002
 O602 O 0.71350 0.15625 0.25405
 O603 O 0.83472 0.19809 0.25222
 O604 O 0.84700 0.24223 0.29111
 O605 O 0.79867 0.24107 0.17226
 O606 O 0.75766 0.28351 0.16254
 O607 O 0.75366 0.29071 0.33882
 O608 O 0.78932 0.24579 0.34766
 O609 O 0.67034 0.25167 0.29856
 O610 O 0.66133 0.21434 0.25414
 O611 O 0.71401 0.33230 0.25278
 O612 O 0.76076 0.33974 0.22038
 Zr613 Zr 0.75621 0.30446 0.25661
 O614 O 0.78503 0.27564 0.22648
 Zr615 Zr 0.69657 0.25108 0.25541
 O616 O 0.72270 0.21996 0.22526
 Zr617 Zr 0.75253 0.24766 0.31253
 O618 O 0.78130 0.21637 0.28502
 Zr619 Zr 0.75540 0.24657 0.19761
 O620 O 0.72650 0.27827 0.22487
 Zr621 Zr 0.81157 0.24306 0.25446
 O622 O 0.78556 0.27454 0.28503
 Zr623 Zr 0.75173 0.18990 0.25376
 O624 O 0.72260 0.21847 0.28409
 O625 O 0.72452 0.27915 0.28574
 O626 O 0.78353 0.21478 0.22419
 C627 C 0.75558 0.32025 0.33012
 C628 C 0.68403 0.32456 0.25240
 C629 C 0.67907 0.24878 0.32804
 C630 C 0.75387 0.17415 0.18067
 C631 C 0.82817 0.24042 0.18141
 C632 C 0.82375 0.16928 0.25351
 H633 H 0.79931 0.28946 0.21349
 H634 H 0.79365 0.20228 0.29964
 H635 H 0.71100 0.29341 0.29915
 H636 H 0.70781 0.20767 0.21138
 H637 H 0.70289 0.26471 0.16968
 H638 H 0.66587 0.24151 0.20193
 H639 H 0.84138 0.22484 0.30629
 H640 H 0.80687 0.25988 0.33991
 H641 H 0.77765 0.29596 0.16594
 H642 H 0.74765 0.33219 0.20199
 H643 H 0.76334 0.15764 0.30588
 H644 H 0.73728 0.19438 0.34005
 H645 H 0.81109 0.32865 0.27262
 H646 H 0.84518 0.29388 0.24125
 H647 H 0.66748 0.19834 0.27064
 H648 H 0.69899 0.16134 0.23588
 C649 C 0.21495 0.09144 0.06564
 C650 C 0.23947 0.06833 0.06787
 C651 C 0.26071 0.06901 0.09414
 C652 C 0.25750 0.09249 0.11809
 C653 C 0.23349 0.11644 0.11515
 C654 C 0.21225 0.11561 0.08887
 C655 C 0.23109 0.14060 0.13863
 C656 C 0.25154 0.14025 0.16556
 C657 C 0.27453 0.11578 0.16878
 C658 C 0.27782 0.09234 0.14503
 H659 H 0.27939 0.05092 0.09615
 H660 H 0.19352 0.13356 0.08635
 H661 H 0.21302 0.15926 0.13633
 H662 H 0.29614 0.07401 0.14779
 H663 H 0.19839 0.09122 0.04550
 H664 H 0.29045 0.11522 0.18944
 C665 C 0.70835 0.59640 0.55943
 C666 C 0.73602 0.57698 0.55956
 C667 C 0.76027 0.58267 0.58238
 C668 C 0.75694 0.60740 0.60499
 C669 C 0.72947 0.62753 0.60415
 C670 C 0.70526 0.62174 0.58130
 C671 C 0.72661 0.65279 0.62639
 C672 C 0.75029 0.65719 0.65010
 C673 C 0.77699 0.63660 0.65125
 C674 C 0.78056 0.61218 0.62860
 H675 H 0.78151 0.56751 0.58283
 H676 H 0.68393 0.63672 0.58042
 H677 H 0.70574 0.66843 0.62583
 H678 H 0.80161 0.59684 0.62973
 H679 H 0.68945 0.59241 0.54190
 H680 H 0.79534 0.63974 0.66953
 C681 C 0.78462 0.93435 0.07462
 C682 C 0.75528 0.94142 0.05903
 C683 C 0.72748 0.92409 0.06795
 C684 C 0.72889 0.90038 0.09190
 C685 C 0.75831 0.89419 0.10789
 C686 C 0.78603 0.91122 0.09897
 C687 C 0.75950 0.87092 0.13233
 C688 C 0.73184 0.85324 0.14023
 C689 C 0.70293 0.85898 0.12381
 C690 C 0.70133 0.88264 0.10005
 H691 H 0.70465 0.92879 0.05616
 H692 H 0.80884 0.90662 0.11080
 H693 H 0.78195 0.86611 0.14480
 H694 H 0.67863 0.88691 0.08791
 H695 H 0.80650 0.94710 0.06846
 H696 H 0.68152 0.84529 0.12962
 C697 C 0.28590 0.44066 0.59207
 C698 C 0.26169 0.43707 0.56874
 C699 C 0.24045 0.41094 0.57063
 C700 C 0.24307 0.38872 0.59574
 C701 C 0.26675 0.39309 0.61983
 C702 C 0.28822 0.41899 0.61763
 C703 C 0.26853 0.37145 0.64561
 C704 C 0.24762 0.34500 0.64697
 C705 C 0.22485 0.34033 0.62245
 C706 C 0.22232 0.36224 0.59721
 H707 H 0.22195 0.40786 0.55245
 H708 H 0.30669 0.42255 0.63573
 H709 H 0.28648 0.37481 0.66427
 H710 H 0.20421 0.35844 0.57882
 H711 H 0.30243 0.46074 0.59102
 H712 H 0.20862 0.31999 0.62316
 C713 C 0.72049 0.07833 0.90781
 C714 C 0.74334 0.08032 0.93264
 C715 C 0.76342 0.10744 0.93466
 C716 C 0.76075 0.13229 0.91192
 C717 C 0.73839 0.12942 0.88640
 C718 C 0.71826 0.10249 0.88469
 C719 C 0.73685 0.15329 0.86272
 C720 C 0.75685 0.18041 0.86442
 C721 C 0.77803 0.18385 0.89053
 C722 C 0.78016 0.15983 0.91400
 H723 H 0.78080 0.10932 0.95404
 H724 H 0.70088 0.10005 0.86539
 H725 H 0.72030 0.15063 0.84269
 H726 H 0.79727 0.16256 0.93349
 H727 H 0.70480 0.05764 0.90588
 H728 H 0.79384 0.20448 0.89206
 C729 C 0.21060 0.58967 0.43659
 C730 C 0.23736 0.56907 0.43565
 C731 C 0.26057 0.57291 0.41149
 C732 C 0.25717 0.59704 0.38835
 C733 C 0.23069 0.61842 0.38990
 C734 C 0.20747 0.61445 0.41409
 C735 C 0.22787 0.64313 0.36706
 C736 C 0.25051 0.64566 0.34217
 C737 C 0.27622 0.62388 0.34044
 C738 C 0.27978 0.60000 0.36357
 H739 H 0.28107 0.55679 0.41046
 H740 H 0.18691 0.63040 0.41555
 H741 H 0.20786 0.65983 0.36815
 H742 H 0.30008 0.58371 0.36196
 H743 H 0.19252 0.58704 0.45518
 H744 H 0.29389 0.62573 0.32134
 C745 C 0.29035 0.93369 0.91822
 C746 C 0.26093 0.93712 0.93482
 C747 C 0.23500 0.91695 0.92636
 C748 C 0.23831 0.89395 0.90193
 C749 C 0.26759 0.89157 0.88473
 C750 C 0.29348 0.91147 0.89317
 C751 C 0.27044 0.86923 0.85951
 C752 C 0.24474 0.84857 0.85229
 C753 C 0.21613 0.85045 0.87010
 C754 C 0.21276 0.87322 0.89448
 H755 H 0.21223 0.91875 0.93902
 H756 H 0.31620 0.90980 0.88046
 H757 H 0.29262 0.86756 0.84585
 H758 H 0.19022 0.87456 0.90756
 H759 H 0.31084 0.94871 0.92403
 H760 H 0.19612 0.83464 0.86465
 C761 C 0.78187 0.44761 0.40293
 C762 C 0.75926 0.44292 0.42761
 C763 C 0.74075 0.41475 0.42799
 C764 C 0.74495 0.39131 0.40411
 C765 C 0.76710 0.39658 0.37878
 C766 C 0.78547 0.42483 0.37847
 C767 C 0.77053 0.37345 0.35435
 C768 C 0.75296 0.34466 0.35570
 C769 C 0.73171 0.33937 0.38146
 C770 C 0.72746 0.36260 0.40525
 H771 H 0.72355 0.41083 0.44722
 H772 H 0.80272 0.42923 0.35942
 H773 H 0.78711 0.37758 0.33464
 H774 H 0.71053 0.35808 0.42455
 H775 H 0.79632 0.46924 0.40224
 H776 H 0.71772 0.31745 0.38278
 C777 C 0.10140 0.21410 0.06576
 C778 C 0.07745 0.23766 0.06914
 C779 C 0.07840 0.25856 0.09559
 C780 C 0.10274 0.25555 0.11887
 C781 C 0.12721 0.23223 0.11492
 C782 C 0.12637 0.21170 0.08821
 C783 C 0.15175 0.22947 0.13804
 C784 C 0.15134 0.24882 0.16569
 C785 C 0.12655 0.27138 0.16978
 C786 C 0.10270 0.27506 0.14635
 H787 H 0.05965 0.27646 0.09852
 H788 H 0.14476 0.19353 0.08491
 H789 H 0.17060 0.21170 0.13505
 H790 H 0.08402 0.29287 0.14990
 H791 H 0.10099 0.19779 0.04548
 H792 H 0.12593 0.28647 0.19099
 C793 C 0.59247 0.70728 0.56135
 C794 C 0.56723 0.72966 0.56292
 C795 C 0.56774 0.75364 0.58664
 C796 C 0.59314 0.75503 0.60889
 C797 C 0.61893 0.73293 0.60656
 C798 C 0.61835 0.70914 0.58274
 C799 C 0.64462 0.73470 0.62836
 C800 C 0.64424 0.75739 0.65326
 C801 C 0.61822 0.77870 0.65602
 C802 C 0.59307 0.77788 0.63367
 H803 H 0.54810 0.77073 0.58813
 H804 H 0.63778 0.69187 0.58078
 H805 H 0.66446 0.71784 0.62660
 H806 H 0.57339 0.79482 0.63600
 H807 H 0.59249 0.68873 0.54310
 H808 H 0.61761 0.79622 0.67526
 C809 C 0.07932 0.71300 0.92889
 C810 C 0.06380 0.74275 0.93352
 C811 C 0.07292 0.76897 0.91415
 C812 C 0.09669 0.76549 0.89046
 C813 C 0.11265 0.73574 0.88670
 C814 C 0.10378 0.70968 0.90604
 C815 C 0.13701 0.73256 0.86347
 C816 C 0.14455 0.75842 0.84329
 C817 C 0.12807 0.78759 0.84658
 C818 C 0.10456 0.79126 0.87026
 H819 H 0.06109 0.79201 0.91694
 H820 H 0.11559 0.68664 0.90334
 H821 H 0.14971 0.70998 0.86071
 H822 H 0.09244 0.81417 0.87267
 H823 H 0.07298 0.69230 0.94332
 H824 H 0.13389 0.80774 0.83116
 C825 C 0.60314 0.20275 0.44699
 C826 C 0.57782 0.22501 0.44477
 C827 C 0.57817 0.24819 0.42032
 C828 C 0.60333 0.24877 0.39783
 C829 C 0.62909 0.22666 0.40060
 C830 C 0.62880 0.20383 0.42533
 C831 C 0.65438 0.22741 0.37826
 C832 C 0.65352 0.24906 0.35246
 C833 C 0.62761 0.27053 0.34954
 C834 C 0.60292 0.27072 0.37231
 H835 H 0.55848 0.26519 0.41835
 H836 H 0.64822 0.18660 0.42771
 H837 H 0.67418 0.21054 0.38030
 H838 H 0.58331 0.28769 0.36969
 H839 H 0.60330 0.18482 0.46585
 H840 H 0.62666 0.28738 0.32976
 C841 C 0.93093 0.78677 0.08605
 C842 C 0.92866 0.76255 0.06272
 C843 C 0.90221 0.74160 0.06292
 C844 C 0.87810 0.74477 0.08630
 C845 C 0.88115 0.76844 0.11052
 C846 C 0.90756 0.78944 0.11008
 C847 C 0.85776 0.77066 0.13474
 C848 C 0.83083 0.75031 0.13436
 C849 C 0.82729 0.72777 0.10955
 C850 C 0.85098 0.72472 0.08591
 H851 H 0.90023 0.72318 0.04460
 H852 H 0.91011 0.80789 0.12827
 H853 H 0.86027 0.78838 0.15369
 H854 H 0.84811 0.70667 0.06736
 H855 H 0.95123 0.80310 0.08613
 H856 H 0.80660 0.71193 0.10902
 C857 C 0.44291 0.19816 0.60091
 C858 C 0.44015 0.21907 0.57460
 C859 C 0.41345 0.23961 0.57236
 C860 C 0.38972 0.23948 0.59634
 C861 C 0.39333 0.21931 0.62348
 C862 C 0.41988 0.19855 0.62540
 C863 C 0.37046 0.22043 0.64829
 C864 C 0.34353 0.24067 0.64579
 C865 C 0.33943 0.25961 0.61817
 C866 C 0.36255 0.25931 0.59378
 H867 H 0.41106 0.25548 0.55181
 H868 H 0.42288 0.18275 0.64588
 H869 H 0.37350 0.20555 0.66947
 H870 H 0.35928 0.27471 0.57304
 H871 H 0.46341 0.18219 0.60294
 H872 H 0.31885 0.27546 0.61597
 C873 C 0.92517 0.21719 0.93024
 C874 C 0.93952 0.24605 0.94078
 C875 C 0.93018 0.27505 0.92586
 C876 C 0.90738 0.27505 0.90075
 C877 C 0.89347 0.24578 0.89053
 C878 C 0.90244 0.21709 0.90551
 C879 C 0.87066 0.24568 0.86561
 C880 C 0.86151 0.27444 0.85075
 C881 C 0.87529 0.30346 0.86081
 C882 C 0.89818 0.30378 0.88559
 H883 H 0.94085 0.29757 0.93342
 H884 H 0.89194 0.19448 0.89802
 H885 H 0.85966 0.22331 0.85800
 H886 H 0.90850 0.32647 0.89305
 H887 H 0.93157 0.19438 0.94100
 H888 H 0.86809 0.32584 0.84968
 C889 C 0.43381 0.69641 0.40680
 C890 C 0.43277 0.72152 0.42932
 C891 C 0.40996 0.74615 0.42549
 C892 C 0.38842 0.74575 0.39946
 C893 C 0.39030 0.72092 0.37633
 C894 C 0.41299 0.69628 0.38032
 C895 C 0.36923 0.72102 0.34985
 C896 C 0.34556 0.74493 0.34699
 C897 C 0.34334 0.76900 0.37047
 C898 C 0.36490 0.76970 0.39626
 H899 H 0.40881 0.76547 0.44293
 H900 H 0.41463 0.67692 0.36299
 H901 H 0.37057 0.70207 0.33201
 H902 H 0.36296 0.78876 0.41388
 H903 H 0.45134 0.67730 0.40921
 H904 H 0.32505 0.78746 0.36863
 C905 C 0.09734 0.04759 0.22222
 C906 C 0.07010 0.05186 0.24175
 C907 C 0.06875 0.07810 0.26290
 C908 C 0.09416 0.10039 0.26392
 C909 C 0.12175 0.09554 0.24452
 C910 C 0.12316 0.06897 0.22391
 C911 C 0.14721 0.11763 0.24560
 C912 C 0.14505 0.14520 0.26489
 C913 C 0.11733 0.15023 0.28359
 C914 C 0.09226 0.12778 0.28345
 H915 H 0.04754 0.08170 0.27768
 H916 H 0.14401 0.06501 0.20875
 H917 H 0.16834 0.11386 0.23073
 H918 H 0.07124 0.13204 0.29829
 H919 H 0.09874 0.02744 0.20580
 H920 H 0.11527 0.17135 0.29862
 C921 C 0.59621 0.56405 0.71473
 C922 C 0.57023 0.56820 0.73594
 C923 C 0.57046 0.59391 0.75774
 C924 C 0.59609 0.61588 0.75768
 C925 C 0.62234 0.61126 0.73646
 C926 C 0.62226 0.58516 0.71525
 C927 C 0.64787 0.63324 0.73622
 C928 C 0.64692 0.66049 0.75599
 C929 C 0.62064 0.66518 0.77672
 C930 C 0.59561 0.64280 0.77790
 H931 H 0.55026 0.59736 0.77391
 H932 H 0.64209 0.58136 0.69874
 H933 H 0.66788 0.62983 0.71980
 H934 H 0.57563 0.64684 0.79417
 H935 H 0.59645 0.54421 0.69789
 H936 H 0.61958 0.68613 0.79210
 C937 C 0.92814 0.08943 0.71577
 C938 C 0.93589 0.07718 0.74642
 C939 C 0.92083 0.09067 0.77364
 C940 C 0.89840 0.11564 0.77032
 C941 C 0.89131 0.12803 0.73945
 C942 C 0.90631 0.11475 0.71237
 C943 C 0.86912 0.15329 0.73623
 C944 C 0.85345 0.16555 0.76343
 C945 C 0.86020 0.15287 0.79390
 C946 C 0.88276 0.12827 0.79740
 H947 H 0.92615 0.08155 0.79749
 H948 H 0.90104 0.12384 0.68852
 H949 H 0.86361 0.16304 0.71268
 H950 H 0.88779 0.11898 0.82122
 H951 H 0.93921 0.07972 0.69428
 H952 H 0.84814 0.16224 0.81502
 C953 C 0.44181 0.58885 0.28551
 C954 C 0.43773 0.56323 0.26393
 C955 C 0.41229 0.56398 0.24173
 C956 C 0.39066 0.58983 0.24150
 C957 C 0.39527 0.61581 0.26296
 C958 C 0.42097 0.61513 0.28479
 C959 C 0.37372 0.64172 0.26266
 C960 C 0.34696 0.64136 0.24208
 C961 C 0.34222 0.61529 0.22123
 C962 C 0.36416 0.58991 0.22060
 H963 H 0.40886 0.54408 0.22526
 H964 H 0.42474 0.63471 0.30153
 H965 H 0.37710 0.66161 0.27915
 H966 H 0.36014 0.57014 0.20416
 H967 H 0.46143 0.58872 0.30270
 H968 H 0.32161 0.61471 0.20524
 C969 C 0.08457 0.94021 0.79236
 C970 C 0.06539 0.94186 0.76453
 C971 C 0.07258 0.92173 0.73839
 C972 C 0.09864 0.90041 0.73983
 C973 C 0.11827 0.89937 0.76764
 C974 C 0.11091 0.91927 0.79384
 C975 C 0.14454 0.87808 0.76886
 C976 C 0.15055 0.85725 0.74302
 C977 C 0.13072 0.85823 0.71573
 C978 C 0.10522 0.87993 0.71394
 H979 H 0.05788 0.92263 0.71684
 H980 H 0.12553 0.91868 0.81543
 H981 H 0.15947 0.87680 0.79024
 H982 H 0.09031 0.88031 0.69253
 H983 H 0.07965 0.95564 0.81274
 H984 H 0.13495 0.84199 0.69582
 C985 C 0.56132 0.39783 0.29221
 C986 C 0.56372 0.42260 0.26951
 C987 C 0.58971 0.42319 0.24795
 C988 C 0.61339 0.39923 0.24918
 C989 C 0.61024 0.37373 0.27141
 C990 C 0.58418 0.37326 0.29286
 C991 C 0.63332 0.34923 0.27196
 C992 C 0.66012 0.35049 0.25146
 C993 C 0.66376 0.37639 0.23025
 C994 C 0.64029 0.40041 0.22878
 H995 H 0.59180 0.44264 0.23075
 H996 H 0.58160 0.35404 0.31022
 H997 H 0.63079 0.32946 0.28869
 H998 H 0.64322 0.41994 0.21182
 H999 H 0.54137 0.39719 0.30899
 H1000 H 0.68439 0.37763 0.21435
 C1001 C 0.92204 0.91453 0.19465
 C1002 C 0.92855 0.92895 0.22465
 C1003 C 0.90979 0.91989 0.25143
 C1004 C 0.88515 0.89703 0.24833
 C1005 C 0.87958 0.88213 0.21828
 C1006 C 0.89809 0.89113 0.19161
 C1007 C 0.85550 0.85858 0.21546
 C1008 C 0.83640 0.85059 0.24210
 C1009 C 0.84145 0.86603 0.27160
 C1010 C 0.86589 0.88886 0.27482
 H1011 H 0.91402 0.93085 0.27471
 H1012 H 0.89400 0.88013 0.16834
 H1013 H 0.85131 0.84677 0.19260
 H1014 H 0.86966 0.90019 0.29798
 H1015 H 0.93589 0.92084 0.17349
 H1016 H 0.82676 0.86003 0.29227
 C1017 C 0.40469 0.44460 0.70495
 C1018 C 0.43000 0.44178 0.72714
 C1019 C 0.43134 0.41512 0.74769
 C1020 C 0.40752 0.39132 0.74612
 C1021 C 0.38139 0.39489 0.72456
 C1022 C 0.38027 0.42154 0.70396
 C1023 C 0.35682 0.37180 0.72404
 C1024 C 0.35861 0.34469 0.74403
 C1025 C 0.38527 0.34066 0.76439
 C1026 C 0.40938 0.36400 0.76573
 H1027 H 0.45121 0.41269 0.76447
 H1028 H 0.36057 0.42450 0.68709
 H1029 H 0.33642 0.37477 0.70800
 H1030 H 0.42939 0.36075 0.78216
 H1031 H 0.40347 0.46505 0.68890
 H1032 H 0.38692 0.31990 0.77999
 C1033 C 0.06879 0.21710 0.91204
 C1034 C 0.07083 0.24075 0.93599
 C1035 C 0.09564 0.26366 0.93468
 C1036 C 0.11828 0.26294 0.90966
 C1037 C 0.11543 0.23962 0.88512
 C1038 C 0.09071 0.21674 0.88658
 C1039 C 0.13748 0.23946 0.85964
 C1040 C 0.16285 0.26164 0.85881
 C1041 C 0.16622 0.28407 0.88372
 C1042 C 0.14382 0.28500 0.90880
 H1043 H 0.09757 0.28171 0.95336
 H1044 H 0.08837 0.19858 0.86807
 H1045 H 0.13538 0.22168 0.84080
 H1046 H 0.14653 0.30285 0.92756
 H1047 H 0.04978 0.19930 0.91266
 H1048 H 0.18584 0.30120 0.88341
 C1049 C 0.58995 0.70236 0.43262
 C1050 C 0.56596 0.72616 0.43266
 C1051 C 0.56694 0.75063 0.40949
 C1052 C 0.59142 0.75121 0.38627
 C1053 C 0.61593 0.72760 0.38684
 C1054 C 0.61496 0.70328 0.41013
 C1055 C 0.64064 0.72847 0.36380
 C1056 C 0.64035 0.75187 0.33953
 C1057 C 0.61559 0.77479 0.33877
 C1058 C 0.59156 0.77477 0.36223
 H1059 H 0.54829 0.76886 0.40917
 H1060 H 0.63339 0.68486 0.41080
 H1061 H 0.65946 0.71042 0.36407
 H1062 H 0.57286 0.79289 0.36130
 H1063 H 0.58966 0.68337 0.45040
 H1064 H 0.61504 0.79292 0.32010
 C1065 C 0.91617 0.71479 0.92600
 C1066 C 0.93170 0.74440 0.93135
 C1067 C 0.92300 0.77101 0.91231
 C1068 C 0.89935 0.76811 0.88843
 C1069 C 0.88333 0.73848 0.88404
 C1070 C 0.89198 0.71199 0.90285
 C1071 C 0.85894 0.73587 0.86087
 C1072 C 0.85117 0.76224 0.84151
 C1073 C 0.86769 0.79131 0.84525
 C1074 C 0.89146 0.79435 0.86881
 H1075 H 0.93488 0.79395 0.91568
 H1076 H 0.88009 0.68906 0.89962
 H1077 H 0.84614 0.71340 0.85769
 H1078 H 0.90364 0.81717 0.87170
 H1079 H 0.92223 0.69380 0.94013
 H1080 H 0.86170 0.81179 0.83033
 C1081 C 0.44353 0.19389 0.41643
 C1082 C 0.44231 0.21790 0.44009
 C1083 C 0.41771 0.24101 0.43892
 C1084 C 0.39447 0.24019 0.41444
 C1085 C 0.39640 0.21654 0.39011
 C1086 C 0.42098 0.19344 0.39139
 C1087 C 0.37352 0.21628 0.36516
 C1088 C 0.34812 0.23856 0.36505
 C1089 C 0.34598 0.26141 0.38975
 C1090 C 0.36920 0.26251 0.41402
 H1091 H 0.41640 0.25938 0.45736
 H1092 H 0.42270 0.17499 0.37311
 H1093 H 0.37497 0.19833 0.34633
 H1094 H 0.36726 0.28065 0.43259
 H1095 H 0.46239 0.17592 0.41691
 H1096 H 0.32653 0.27876 0.38996
 C1097 C 0.06111 0.78578 0.08772
 C1098 C 0.06240 0.76077 0.06517
 C1099 C 0.08718 0.73799 0.06691
 C1100 C 0.11063 0.74011 0.09101
 C1101 C 0.10861 0.76468 0.11442
 C1102 C 0.08383 0.78750 0.11248
 C1103 C 0.13146 0.76601 0.13925
 C1104 C 0.15685 0.74381 0.14014
 C1105 C 0.15932 0.72022 0.11621
 C1106 C 0.13613 0.71810 0.09203
 H1107 H 0.08843 0.71893 0.04920
 H1108 H 0.08207 0.80664 0.13003
 H1109 H 0.12985 0.78450 0.15754
 H1110 H 0.13816 0.69932 0.07412
 H1111 H 0.04205 0.80351 0.08661
 H1112 H 0.17884 0.70296 0.11668
 C1113 C 0.60086 0.20563 0.57448
 C1114 C 0.57620 0.22872 0.57428
 C1115 C 0.57743 0.25438 0.59616
 C1116 C 0.60299 0.25688 0.61815
 C1117 C 0.62817 0.23398 0.61754
 C1118 C 0.62682 0.20842 0.59568
 C1119 C 0.65409 0.23685 0.63901
 C1120 C 0.65455 0.26158 0.66191
 C1121 C 0.62913 0.28378 0.66291
 C1122 C 0.60375 0.28172 0.64090
 H1123 H 0.55833 0.27214 0.59630
 H1124 H 0.64578 0.19056 0.59502
 H1125 H 0.67348 0.21940 0.63852
 H1126 H 0.58459 0.29936 0.64187
 H1127 H 0.60045 0.18579 0.55765
 H1128 H 0.62918 0.30298 0.68048
 C1129 C 0.94997 0.27159 0.10184
 C1130 C 0.94542 0.24826 0.07789
 C1131 C 0.91928 0.22704 0.08016
 C1132 C 0.89732 0.22969 0.10569
 C1133 C 0.90236 0.25293 0.13003
 C1134 C 0.92890 0.27362 0.12795
 C1135 C 0.88035 0.25559 0.15555
 C1136 C 0.85264 0.23634 0.15615
 C1137 C 0.84757 0.21371 0.13165
 C1138 C 0.86998 0.21001 0.10691
 H1139 H 0.91549 0.20922 0.06152
 H1140 H 0.93307 0.29169 0.14623
 H1141 H 0.88407 0.27338 0.17422
 H1142 H 0.86559 0.19224 0.08839
 H1143 H 0.97013 0.28805 0.10051
 H1144 H 0.82623 0.19876 0.13175
 C1145 C 0.43021 0.69943 0.58941
 C1146 C 0.43290 0.72560 0.56825
 C1147 C 0.41350 0.75280 0.57329
 C1148 C 0.39169 0.75391 0.59902
 C1149 C 0.38962 0.72775 0.62059
 C1150 C 0.40894 0.70058 0.61551
 C1151 C 0.36785 0.72905 0.64647
 C1152 C 0.34753 0.75572 0.65030
 C1153 C 0.34945 0.78133 0.62850
 C1154 C 0.37166 0.78066 0.60332
 H1155 H 0.41516 0.77305 0.55699
 H1156 H 0.40754 0.68021 0.63165
 H1157 H 0.36582 0.70894 0.66285
 H1158 H 0.37280 0.80082 0.58690
 H1159 H 0.44502 0.67828 0.58613
 H1160 H 0.33365 0.80188 0.63101
 C1161 C 0.21799 0.06336 0.90868
 C1162 C 0.24083 0.06733 0.93328
 C1163 C 0.26089 0.09444 0.93318
 C1164 C 0.25831 0.11736 0.90865
 C1165 C 0.23602 0.11266 0.88333
 C1166 C 0.21583 0.08568 0.88368
 C1167 C 0.23439 0.13498 0.85812
 C1168 C 0.25409 0.16238 0.85844
 C1169 C 0.27536 0.16737 0.88424
 C1170 C 0.27771 0.14487 0.90898
 H1171 H 0.27827 0.09782 0.95236
 H1172 H 0.19845 0.08181 0.86461
 H1173 H 0.21764 0.13125 0.83845
 H1174 H 0.29473 0.14895 0.92832
 H1175 H 0.20235 0.04256 0.90838
 H1176 H 0.29077 0.18834 0.88483
 C1177 C 0.70712 0.59571 0.43001
 C1178 C 0.73367 0.57491 0.42800
 C1179 C 0.75590 0.57864 0.40286
 C1180 C 0.75164 0.60286 0.37981
 C1181 C 0.72545 0.62446 0.38259
 C1182 C 0.70326 0.62058 0.40773
 C1183 C 0.72188 0.64938 0.36007
 C1184 C 0.74341 0.65204 0.33418
 C1185 C 0.76867 0.62989 0.33105
 C1186 C 0.77305 0.60576 0.35392
 H1187 H 0.77622 0.56238 0.40102
 H1188 H 0.68291 0.63670 0.41011
 H1189 H 0.70211 0.66624 0.36223
 H1190 H 0.79306 0.58927 0.35127
 H1191 H 0.68981 0.59320 0.44933
 H1192 H 0.78541 0.63169 0.31115
 C1193 C 0.70883 0.08079 0.07468
 C1194 C 0.73966 0.07038 0.06501
 C1195 C 0.76691 0.08255 0.08113
 C1196 C 0.76354 0.10464 0.10624
 C1197 C 0.73250 0.11535 0.11529
 C1198 C 0.70532 0.10320 0.09943
 C1199 C 0.72926 0.13809 0.13996
 C1200 C 0.75668 0.14971 0.15576
 C1201 C 0.78731 0.13854 0.14720
 C1202 C 0.79078 0.11626 0.12244
 H1203 H 0.79090 0.07475 0.07435
 H1204 H 0.68136 0.11104 0.10615
 H1205 H 0.70563 0.14680 0.14683
 H1206 H 0.81472 0.10818 0.11593
 H1207 H 0.68732 0.07193 0.06289
 H1208 H 0.80856 0.14738 0.15950
 C1209 C 0.21800 0.56325 0.59364
 C1210 C 0.24080 0.56745 0.56908
 C1211 C 0.26046 0.59486 0.56906
 C1212 C 0.25733 0.61798 0.59334
 C1213 C 0.23495 0.61312 0.61852
 C1214 C 0.21534 0.58573 0.61840
 C1215 C 0.23251 0.63576 0.64333
 C1216 C 0.25140 0.66368 0.64272
 C1217 C 0.27291 0.66879 0.61718
 C1218 C 0.27612 0.64594 0.59284
 H1219 H 0.27782 0.59838 0.54990
 H1220 H 0.19793 0.58174 0.63740
 H1221 H 0.21565 0.63192 0.66287
 H1222 H 0.29325 0.65013 0.57364
 H1223 H 0.20269 0.54221 0.59403
 H1224 H 0.28779 0.69014 0.61649
 C1225 C 0.78540 0.95133 0.90135
 C1226 C 0.76137 0.94751 0.92482
 C1227 C 0.74047 0.92116 0.92306
 C1228 C 0.74347 0.89869 0.89823
 C1229 C 0.76705 0.90308 0.87405
 C1230 C 0.78798 0.92948 0.87589
 C1231 C 0.76938 0.88081 0.84873
 C1232 C 0.74923 0.85375 0.84823
 C1233 C 0.72650 0.84929 0.87279
 C1234 C 0.72334 0.87177 0.89737
 H1235 H 0.72216 0.91786 0.94138
 H1236 H 0.80637 0.93313 0.85777
 H1237 H 0.78720 0.88407 0.82995
 H1238 H 0.70531 0.86797 0.91582
 H1239 H 0.80172 0.97159 0.90235
 H1240 H 0.71075 0.82855 0.87264
 C1241 C 0.28278 0.43939 0.40966
 C1242 C 0.26000 0.43606 0.43439
 C1243 C 0.24062 0.40852 0.43557
 C1244 C 0.24398 0.38437 0.41235
 C1245 C 0.26624 0.38829 0.38688
 C1246 C 0.28560 0.41587 0.38582
 C1247 C 0.26876 0.36453 0.36305
 C1248 C 0.25007 0.33649 0.36503
 C1249 C 0.22883 0.33241 0.39099
 C1250 C 0.22553 0.35630 0.41425
 H1251 H 0.22335 0.40564 0.45493
 H1252 H 0.30298 0.41918 0.36666
 H1253 H 0.28545 0.36763 0.34324
 H1254 H 0.20855 0.35281 0.43373
 H1255 H 0.29795 0.46050 0.40846
 H1256 H 0.21414 0.31100 0.39283
 C1257 C 0.28362 0.94068 0.09304
 C1258 C 0.26031 0.93687 0.06886
 C1259 C 0.24041 0.90967 0.06903
 C1260 C 0.24392 0.88625 0.09298
 C1261 C 0.26685 0.89065 0.11781
 C1262 C 0.28659 0.91796 0.11759
 C1263 C 0.26973 0.86758 0.14225
 C1264 C 0.25083 0.83966 0.14143
 C1265 C 0.22874 0.83513 0.11625
 C1266 C 0.22503 0.85840 0.09241
 H1267 H 0.22266 0.90645 0.05015
 H1268 H 0.30443 0.92164 0.13627
 H1269 H 0.28696 0.87102 0.16155
 H1270 H 0.20748 0.85457 0.07349
 H1271 H 0.29913 0.96159 0.09325
 H1272 H 0.21379 0.81382 0.11543
 C1273 C 0.78413 0.45103 0.58750
 C1274 C 0.76007 0.44566 0.56434
 C1275 C 0.74025 0.41844 0.56710
 C1276 C 0.74446 0.39679 0.59269
 C1277 C 0.76807 0.40298 0.61645
 C1278 C 0.78786 0.43010 0.61353
 C1279 C 0.77150 0.38193 0.64266
 C1280 C 0.75239 0.35417 0.64483
 C1281 C 0.72968 0.34775 0.62060
 C1282 C 0.72548 0.36904 0.59496
 H1283 H 0.72185 0.41395 0.54913
 H1284 H 0.80623 0.43513 0.63136
 H1285 H 0.78927 0.38688 0.66113
 H1286 H 0.70740 0.36380 0.57690
 H1287 H 0.79958 0.47192 0.58587
 H1288 H 0.71458 0.32658 0.62195
 C1289 C 0.09614 0.06300 0.73226
 C1290 C 0.06951 0.06990 0.75186
 C1291 C 0.06926 0.09808 0.77031
 C1292 C 0.09528 0.11949 0.76887
 C1293 C 0.12247 0.11194 0.74979
 C1294 C 0.12265 0.08363 0.73157
 C1295 C 0.14875 0.13308 0.74885
 C1296 C 0.14760 0.16233 0.76557
 C1297 C 0.12009 0.17005 0.78363
 C1298 C 0.09438 0.14857 0.78577
 H1299 H 0.04853 0.10360 0.78519
 H1300 H 0.14315 0.07758 0.71663
 H1301 H 0.16965 0.12727 0.73432
 H1302 H 0.07360 0.15492 0.80020
 H1303 H 0.09670 0.04124 0.71801
 H1304 H 0.11853 0.19268 0.79623
 C1305 C 0.59225 0.54917 0.22997
 C1306 C 0.56830 0.55450 0.25318
 C1307 C 0.56814 0.58336 0.27058
 C1308 C 0.59134 0.60709 0.26430
 C1309 C 0.61580 0.60129 0.24131
 C1310 C 0.61612 0.57216 0.22442
 C1311 C 0.63923 0.62487 0.23533
 C1312 C 0.63782 0.65461 0.25115
 C1313 C 0.61302 0.66041 0.27340
 C1314 C 0.59020 0.63673 0.28020
 H1315 H 0.54933 0.58774 0.28813
 H1316 H 0.63453 0.56737 0.20658
 H1317 H 0.65820 0.62034 0.21798
 H1318 H 0.57155 0.64167 0.29775
 H1319 H 0.59260 0.52704 0.21631
 H1320 H 0.61173 0.68309 0.28609
 C1321 C 0.05523 0.89501 0.26300
 C1322 C 0.06028 0.91989 0.24081
 C1323 C 0.08815 0.91979 0.22169
 C1324 C 0.11113 0.89530 0.22511
 C1325 C 0.10551 0.86992 0.24702
 C1326 C 0.07744 0.86997 0.26576
 C1327 C 0.12824 0.84517 0.25009
 C1328 C 0.15707 0.84610 0.23246
 C1329 C 0.16281 0.87174 0.21131
 C1330 C 0.13984 0.89595 0.20735
 H1331 H 0.09234 0.93923 0.20486
 H1332 H 0.07285 0.85084 0.28281
 H1333 H 0.12387 0.82556 0.26667
 H1334 H 0.14464 0.91529 0.19060
 H1335 H 0.03384 0.89477 0.27792
 H1336 H 0.18485 0.87270 0.19739
 C1337 C 0.55772 0.41365 0.76453
 C1338 C 0.56264 0.43814 0.74192
 C1339 C 0.59150 0.43915 0.72435
 C1340 C 0.61565 0.41617 0.72990
 C1341 C 0.61023 0.39125 0.75237
 C1342 C 0.58113 0.39010 0.76940
 C1343 C 0.63410 0.36804 0.75765
 C1344 C 0.66375 0.36982 0.74148
 C1345 C 0.66927 0.39507 0.71978
 C1346 C 0.64530 0.41790 0.71380
 H1347 H 0.59554 0.45841 0.70728
 H1348 H 0.57667 0.37127 0.78681
 H1349 H 0.62974 0.34876 0.77461
 H1350 H 0.64996 0.43692 0.69665
 H1351 H 0.53561 0.41267 0.77833
 H1352 H 0.69186 0.39669 0.70683
 C1353 C 0.93841 0.08661 0.20616
 C1354 C 0.93589 0.06254 0.22967
 C1355 C 0.91146 0.06459 0.25292
 C1356 C 0.88985 0.09041 0.25293
 C1357 C 0.89314 0.11516 0.22987
 C1358 C 0.91740 0.11291 0.20645
 C1359 C 0.87195 0.14148 0.23058
 C1360 C 0.84694 0.14262 0.25333
 C1361 C 0.84340 0.11752 0.27551
 C1362 C 0.86493 0.09182 0.27561
 H1363 H 0.90910 0.04589 0.27091
 H1364 H 0.92013 0.13149 0.18842
 H1365 H 0.87435 0.16062 0.21306
 H1366 H 0.86196 0.07293 0.29328
 H1367 H 0.95716 0.08547 0.18808
 H1368 H 0.82415 0.11805 0.29309
 C1369 C 0.43876 0.60242 0.70495
 C1370 C 0.43448 0.57674 0.72638
 C1371 C 0.40747 0.57635 0.74669
 C1372 C 0.38494 0.60140 0.74576
 C1373 C 0.39000 0.62784 0.72503
 C1374 C 0.41689 0.62801 0.70456
 C1375 C 0.36798 0.65348 0.72509
 C1376 C 0.34038 0.65229 0.74460
 C1377 C 0.33508 0.62545 0.76428
 C1378 C 0.35739 0.60041 0.76522
 H1379 H 0.40386 0.55635 0.76298
 H1380 H 0.42101 0.64791 0.68829
 H1381 H 0.37195 0.67401 0.70961
 H1382 H 0.35304 0.58021 0.78104
 H1383 H 0.45949 0.60309 0.68916
 H1384 H 0.31390 0.62418 0.77946
 C1385 C 0.90382 0.94744 0.78543
 C1386 C 0.92719 0.94518 0.76110
 C1387 C 0.92483 0.92058 0.73815
 C1388 C 0.89957 0.89827 0.73959
 C1389 C 0.87566 0.90118 0.76368
 C1390 C 0.87804 0.92585 0.78650
 C1391 C 0.85009 0.87909 0.76474
 C1392 C 0.84892 0.85350 0.74280
 C1393 C 0.87314 0.85042 0.71946
 C1394 C 0.89802 0.87286 0.71756
 H1395 H 0.94300 0.91846 0.71953
 H1396 H 0.86009 0.92833 0.80526
 H1397 H 0.83168 0.88121 0.78311
 H1398 H 0.91624 0.87015 0.69911
 H1399 H 0.90519 0.96631 0.80330
 H1400 H 0.87256 0.83076 0.70242
 C1401 C 0.40451 0.43196 0.29904
 C1402 C 0.42936 0.42745 0.27658
 C1403 C 0.42938 0.39979 0.25729
 C1404 C 0.40483 0.37682 0.26030
 C1405 C 0.37921 0.38206 0.28209
 C1406 C 0.37938 0.40965 0.30148
 C1407 C 0.35396 0.35961 0.28407
 C1408 C 0.35471 0.33148 0.26538
 C1409 C 0.38088 0.32602 0.24470
 C1410 C 0.40552 0.34866 0.24187
 H1411 H 0.44877 0.39597 0.24024
 H1412 H 0.36012 0.41396 0.31853
 H1413 H 0.33399 0.36376 0.30035
 H1414 H 0.42511 0.34415 0.22526
 H1415 H 0.40414 0.45315 0.31412
 H1416 H 0.38183 0.30454 0.23006
   
