data_POSCAR
  _audit_creation_date              2014-09-24
  _audit_creation_method            'ToBaCCo'
  _symmetry_space_group_name_H-M    'P1'
  _symmetry_Int_Tables_number       1
  _symmetry_cell_setting            triclinic
  loop_
  _symmetry_equiv_pos_as_xyz
 x,y,z
_cell_length_a 42.2201
_cell_length_b 42.7454
_cell_length_c 42.4278
_cell_angle_alpha 90.029600
_cell_angle_beta 89.864900
_cell_angle_gamma 89.968100
loop_
  _atom_site_label
  _atom_site_type_symbol
  _atom_site_fract_x
  _atom_site_fract_y
  _atom_site_fract_z
C1 C 0.25100 0.93710 -0.03676
 C2 C 0.25002 0.92151 -0.00763
 C3 C 0.24776 0.93760 0.02104
 C4 C 0.24434 0.97054 0.02082
 C5 C 0.24572 0.98710 -0.00812
 C6 C 0.24935 0.97044 -0.03700
 C7 C 0.24921 0.98758 -0.06527
 C8 C 0.24728 1.01994 -0.06528
 C9 C 0.24227 1.03688 -0.03731
 C10 C 0.24243 1.02038 -0.00823
 C11 C 0.23792 0.98715 0.04868
 C12 C 0.23503 1.01951 0.04860
 C13 C 0.23890 1.03692 0.02074
 C14 C 0.23691 1.07019 0.02066
 C15 C 0.23651 1.08571 -0.00852
 C16 C 0.23846 1.06994 -0.03747
 H17 H 0.25016 0.97649 -0.08806
 H18 H 0.24987 1.03132 -0.08784
 H19 H 0.23421 0.97522 0.07086
 H20 H 0.22875 1.03055 0.07067
 H21 H 0.25253 0.89625 -0.00712
 H22 H 0.23457 1.11099 -0.00876
 C23 C 0.75837 0.44097 0.53340
 C24 C 0.75304 0.42591 0.50455
 C25 C 0.75186 0.44234 0.47609
 C26 C 0.75538 0.47522 0.47621
 C27 C 0.75932 0.49118 0.50528
 C28 C 0.76136 0.47403 0.53395
 C29 C 0.76779 0.49034 0.56199
 C30 C 0.77024 0.52280 0.56229
 C31 C 0.76694 0.54030 0.53447
 C32 C 0.76253 0.52430 0.50550
 C33 C 0.75656 0.49239 0.44796
 C34 C 0.76007 0.52470 0.44818
 C35 C 0.76227 0.54126 0.47666
 C36 C 0.76550 0.57422 0.47714
 C37 C 0.76829 0.58959 0.50602
 C38 C 0.76919 0.57333 0.53457
 H39 H 0.77141 0.47826 0.58405
 H40 H 0.77549 0.53396 0.58456
 H41 H 0.75536 0.48104 0.42523
 H42 H 0.76138 0.53646 0.42566
 H43 H 0.75052 0.40065 0.50411
 H44 H 0.76972 0.61494 0.50626
 C45 C 0.73337 1.03629 1.07381
 C46 C 0.72929 1.00825 1.09008
 C47 C 0.72904 0.97901 1.07489
 C48 C 0.73248 0.97830 1.04138
 C49 C 0.73693 1.00680 1.02447
 C50 C 0.73736 1.03581 1.04079
 C51 C 0.74087 1.06367 1.02359
 C52 C 0.74411 1.06323 0.99105
 C53 C 0.74272 1.03504 0.97412
 C54 C 0.73980 1.00646 0.99098
 C55 C 0.72893 0.95049 1.02393
 C56 C 0.73259 0.95010 0.99130
 C57 C 0.73898 0.97765 0.97439
 C58 C 0.74310 0.97742 0.94117
 C59 C 0.74534 1.00597 0.92499
 C60 C 0.74419 1.03473 0.94075
 H61 H 0.74083 1.08628 1.03498
 H62 H 0.74770 1.08542 0.97937
 H63 H 0.72235 0.92873 1.03510
 H64 H 0.72930 0.92798 0.97938
 H65 H 0.72768 1.00939 1.11558
 H66 H 0.74749 1.00583 0.89952
 C67 C 0.23639 0.52736 0.42217
 C68 C 0.23839 0.49855 0.40659
 C69 C 0.24154 0.47028 0.42292
 C70 C 0.24375 0.47080 0.45626
 C71 C 0.24176 0.49981 0.47259
 C72 C 0.23764 0.52812 0.45555
 C73 C 0.23425 0.55626 0.47240
 C74 C 0.23657 0.55698 0.50504
 C75 C 0.24064 0.52938 0.52249
 C76 C 0.24323 0.50046 0.50613
 C77 C 0.24731 0.44317 0.47381
 C78 C 0.25035 0.44398 0.50639
 C79 C 0.24771 0.47222 0.52317
 C80 C 0.24988 0.47312 0.55648
 C81 C 0.24729 0.50185 0.57212
 C82 C 0.24262 0.52991 0.55583
 H83 H 0.22960 0.57819 0.46068
 H84 H 0.23512 0.57960 0.51632
 H85 H 0.24797 0.42045 0.46271
 H86 H 0.25471 0.42200 0.51814
 H87 H 0.23742 0.49807 0.38105
 H88 H 0.24858 0.50233 0.59766
 C89 C 0.94105 0.27011 -0.02516
 C90 C 0.92506 0.26196 0.00265
 C91 C 0.94091 0.25510 0.03065
 C92 C 0.97443 0.25509 0.03093
 C93 C 0.99145 0.26423 0.00349
 C94 C 0.97473 0.27248 -0.02448
 C95 C 0.99243 0.28097 -0.05125
 C96 C 1.02518 0.28252 -0.05044
 C97 C 1.04235 0.27203 -0.02418
 C98 C 1.02531 0.26376 0.00360
 C99 C 0.99132 0.24463 0.05736
 C100 C 1.02426 0.24381 0.05733
 C101 C 1.04194 0.25430 0.03122
 C102 C 1.07567 0.25340 0.03093
 C103 C 1.09166 0.26181 0.00318
 C104 C 1.07603 0.27063 -0.02451
 H105 H 0.98161 0.28637 -0.07353
 H106 H 1.03675 0.29187 -0.07111
 H107 H 0.97918 0.23591 0.07804
 H108 H 1.03557 0.23393 0.07785
 H109 H 0.89935 0.26170 0.00273
 H110 H 1.11732 0.26084 0.00301
 C111 C 0.55604 0.71891 0.52959
 C112 C 0.57323 0.71921 0.50133
 C113 C 0.55838 0.71845 0.47190
 C114 C 0.52488 0.71800 0.47050
 C115 C 0.50689 0.71918 0.49884
 C116 C 0.52248 0.71885 0.52850
 C117 C 0.50406 0.71714 0.55607
 C118 C 0.47110 0.71754 0.55474
 C119 C 0.45511 0.71986 0.52577
 C120 C 0.47320 0.71973 0.49748
 C121 C 0.50888 0.71511 0.44165
 C122 C 0.47603 0.71578 0.44031
 C123 C 0.45771 0.71914 0.46778
 C124 C 0.42425 0.72047 0.46645
 C125 C 0.40686 0.72158 0.49456
 C126 C 0.42154 0.72092 0.52415
 H127 H 0.51489 0.71498 0.57903
 H128 H 0.45837 0.71552 0.57676
 H129 H 0.52149 0.71179 0.41971
 H130 H 0.46523 0.71309 0.41740
 H131 H 0.59890 0.72005 0.50227
 H132 H 0.38122 0.72280 0.49336
 C133 C 0.01610 0.73311 -0.07058
 C134 C -0.01310 0.73975 -0.08511
 C135 C -0.04066 0.74665 -0.06786
 C136 C -0.03864 0.74835 -0.03453
 C137 C -0.01003 0.74017 -0.01909
 C138 C 0.01736 0.73236 -0.03699
 C139 C 0.04464 0.72260 -0.02064
 C140 C 0.04633 0.72417 0.01203
 C141 C 0.01987 0.73283 0.03013
 C142 C -0.00883 0.73999 0.01449
 C143 C -0.06371 0.76036 -0.01629
 C144 C -0.06257 0.75998 0.01633
 C145 C -0.03620 0.74779 0.03232
 C146 C -0.03565 0.74579 0.06576
 C147 C -0.00630 0.74102 0.08063
 C148 C 0.02135 0.73500 0.06338
 H149 H 0.06513 0.71336 -0.03274
 H150 H 0.06861 0.71798 0.02282
 H151 H -0.08436 0.77083 -0.02701
 H152 H -0.08237 0.77014 0.02891
 H153 H -0.01446 0.73957 -0.11061
 H154 H -0.00489 0.74032 0.10612
 C155 C 0.53391 0.23222 0.57093
 C156 C 0.50484 0.23902 0.58525
 C157 C 0.47666 0.24068 0.56800
 C158 C 0.47757 0.23566 0.53497
 C159 C 0.50693 0.22868 0.52005
 C160 C 0.53510 0.22659 0.53811
 C161 C 0.56352 0.21806 0.52303
 C162 C 0.56474 0.21357 0.49062
 C163 C 0.53754 0.21711 0.47200
 C164 C 0.50813 0.22370 0.48694
 C165 C 0.45013 0.23777 0.51637
 C166 C 0.45116 0.23185 0.48413
 C167 C 0.47993 0.22512 0.46887
 C168 C 0.48138 0.21943 0.43605
 C169 C 0.51064 0.21415 0.42164
 C170 C 0.53876 0.21348 0.43888
 H171 H 0.58516 0.21449 0.53612
 H172 H 0.58719 0.20677 0.48036
 H173 H 0.42748 0.24405 0.52644
 H174 H 0.42908 0.23284 0.47131
 H175 H 0.50414 0.24294 0.61051
 H176 H 0.51155 0.21140 0.39622
 C177 C 0.93632 -0.02631 0.25801
 C178 C 0.92050 0.00240 0.25886
 C179 C 0.93685 0.03065 0.26171
 C180 C 0.97030 0.03044 0.26341
 C181 C 0.98681 0.00153 0.26294
 C182 C 0.96975 -0.02697 0.26039
 C183 C 0.98654 -0.05533 0.26081
 C184 C 1.01937 -0.05574 0.26199
 C185 C 1.03684 -0.02787 0.26446
 C186 C 1.02044 0.00110 0.26529
 C187 C 0.98766 0.05830 0.26578
 C188 C 1.02048 0.05796 0.26652
 C189 C 1.03756 0.02966 0.26748
 C190 C 1.07127 0.02905 0.26830
 C191 C 1.08687 0.00005 0.26649
 C192 C 1.07029 -0.02820 0.26525
 H193 H 0.97461 -0.07767 0.26011
 H194 H 1.03078 -0.07833 0.26069
 H195 H 0.97624 0.08089 0.26658
 H196 H 1.03202 0.08044 0.26571
 H197 H 0.89485 0.00279 0.25725
 H198 H 1.11255 -0.00074 0.26733
 C199 C 0.43597 0.47395 0.73005
 C200 C 0.42025 0.50202 0.73654
 C201 C 0.43665 0.52980 0.74234
 C202 C 0.47015 0.52982 0.74153
 C203 C 0.48664 0.50140 0.73582
 C204 C 0.46952 0.47341 0.72976
 C205 C 0.48642 0.44595 0.72274
 C206 C 0.51934 0.44542 0.72356
 C207 C 0.53678 0.47244 0.73096
 C208 C 0.52034 0.50100 0.73606
 C209 C 0.48759 0.55734 0.74643
 C210 C 0.52047 0.55726 0.74488
 C211 C 0.53747 0.52929 0.74055
 C212 C 0.57105 0.52880 0.73973
 C213 C 0.58674 0.50012 0.73632
 C214 C 0.57028 0.47197 0.73218
 H215 H 0.47440 0.42456 0.71629
 H216 H 0.53096 0.42363 0.71767
 H217 H 0.47606 0.57943 0.75118
 H218 H 0.53221 0.57954 0.74736
 H219 H 0.39456 0.50223 0.73730
 H220 H 0.61244 0.49977 0.73659
 C221 C 1.02616 0.93176 0.74063
 C222 C 0.99644 0.91749 0.73641
 C223 C 0.96845 0.93482 0.73351
 C224 C 0.96990 0.96792 0.73439
 C225 C 0.99943 0.98309 0.73905
 C226 C 1.02731 0.96498 0.74352
 C227 C 1.05486 0.98048 0.75359
 C228 C 1.05640 1.01288 0.75473
 C229 C 1.03042 1.03151 0.74599
 C230 C 1.00097 1.01648 0.74006
 C231 C 0.94256 0.98627 0.73120
 C232 C 0.94383 1.01860 0.73371
 C233 C 0.97286 1.03456 0.73663
 C234 C 0.97445 1.06782 0.73870
 C235 C 1.00411 1.08192 0.74338
 C236 C 1.03235 1.06474 0.74616
 H237 H 1.07539 0.96772 0.76171
 H238 H 1.07802 1.02311 0.76363
 H239 H 0.91957 0.97594 0.72727
 H240 H 0.92136 1.03058 0.73401
 H241 H 0.99494 0.89229 0.73406
 H242 H 1.00542 1.10723 0.74225
 C243 C 0.47127 0.56761 0.26689
 C244 C 0.49949 0.58442 0.27009
 C245 C 0.52909 0.56967 0.26992
 C246 C 0.53068 0.53677 0.26622
 C247 C 0.50240 0.51944 0.26164
 C248 C 0.47255 0.53478 0.26266
 C249 C 0.44485 0.51673 0.26054
 C250 C 0.44633 0.48466 0.25551
 C251 C 0.47560 0.46918 0.25279
 C252 C 0.50391 0.48655 0.25677
 C253 C 0.55959 0.52057 0.26815
 C254 C 0.56106 0.48841 0.26345
 C255 C 0.53365 0.47102 0.25670
 C256 C 0.53498 0.43831 0.25126
 C257 C 0.50675 0.42166 0.24681
 C258 C 0.47723 0.43657 0.24748
 H259 H 0.42162 0.52707 0.26311
 H260 H 0.42414 0.47211 0.25425
 H261 H 0.58144 0.53245 0.27386
 H262 H 0.58396 0.47733 0.26569
 H263 H 0.49837 0.60968 0.27244
 H264 H 0.50774 0.39663 0.24270
 O265 O 0.26534 0.16249 0.20344
 O266 O 0.30229 0.15485 0.24743
 O267 O 0.18283 0.19599 0.25267
 O268 O 0.17229 0.23532 0.28692
 O269 O 0.21527 0.24380 0.16961
 O270 O 0.25916 0.27944 0.15935
 O271 O 0.26592 0.28634 0.33034
 O272 O 0.22931 0.24193 0.33910
 O273 O 0.34606 0.24299 0.28940
 O274 O 0.35261 0.20835 0.24009
 O275 O 0.30549 0.32433 0.25072
 O276 O 0.25867 0.33225 0.21346
 O277 O 0.26178 0.32364 0.29233
 O278 O 0.22671 0.33317 0.24868
 O279 O 0.34390 0.28696 0.25036
 O280 O 0.35563 0.24862 0.21332
 O281 O 0.30946 0.24683 0.32866
 O282 O 0.27197 0.21031 0.34147
 O283 O 0.25946 0.20061 0.16648
 O284 O 0.29359 0.24411 0.15584
 O285 O 0.17896 0.24216 0.20933
 O286 O 0.17172 0.27535 0.25412
 O287 O 0.22267 0.16036 0.24774
 O288 O 0.26676 0.15138 0.28135
 Zr289 Zr 0.26411 0.18691 0.24677
 O290 O 0.29331 0.21413 0.27607
 Zr291 Zr 0.20641 0.23970 0.25056
 O292 O 0.23378 0.27010 0.27868
 Zr293 Zr 0.25956 0.24247 0.19244
 O294 O 0.28990 0.27179 0.21849
 Zr295 Zr 0.26604 0.24369 0.30514
 O296 O 0.23655 0.21271 0.27935
 Zr297 Zr 0.31939 0.24472 0.24756
 O298 O 0.29249 0.21531 0.21777
 Zr299 Zr 0.26259 0.29860 0.24988
 O300 O 0.23182 0.27124 0.22173
 O301 O 0.23237 0.21228 0.21948
 O302 O 0.29383 0.27350 0.27809
 C303 C 0.26234 0.17184 0.17478
 C304 C 0.19338 0.16777 0.25041
 C305 C 0.18664 0.24395 0.18008
 C306 C 0.26373 0.31494 0.32117
 C307 C 0.33801 0.24530 0.31850
 C308 C 0.33460 0.31544 0.25178
 H309 H 0.30707 0.20012 0.28856
 H310 H 0.30246 0.28508 0.20409
 H311 H 0.21854 0.19898 0.20628
 H312 H 0.21961 0.28250 0.29244
 H313 H 0.21640 0.22317 0.33428
 H314 H 0.17918 0.24872 0.30463
 H315 H 0.34552 0.25568 0.19359
 H316 H 0.31048 0.22910 0.16160
 H317 H 0.27496 0.18984 0.33111
 H318 H 0.25074 0.15646 0.29765
 H319 H 0.27786 0.33085 0.20011
 H320 H 0.24377 0.29506 0.16728
 H321 H 0.31664 0.16070 0.22991
 H322 H 0.35238 0.19482 0.25901
 H323 H 0.17768 0.29181 0.23881
 H324 H 0.21048 0.32726 0.26444
 O325 O 0.74250 0.83764 0.21206
 O326 O 0.70086 0.84119 0.25366
 O327 O 0.82320 0.80712 0.26474
 O328 O 0.83447 0.76747 0.29825
 O329 O 0.79803 0.75982 0.17927
 O330 O 0.75678 0.72249 0.16624
 O331 O 0.74327 0.71356 0.33755
 O332 O 0.77378 0.75872 0.34910
 O333 O 0.66018 0.75089 0.29223
 O334 O 0.65411 0.78667 0.25087
 O335 O 0.70920 0.67270 0.25233
 O336 O 0.75737 0.66763 0.22105
 O337 O 0.74389 0.67611 0.29939
 O338 O 0.79051 0.67293 0.26190
 O339 O 0.66856 0.70776 0.25429
 O340 O 0.66127 0.74703 0.21170
 O341 O 0.69539 0.74843 0.33279
 O342 O 0.73285 0.79011 0.34771
 O343 O 0.75069 0.80052 0.17441
 O344 O 0.71985 0.75509 0.16258
 O345 O 0.83155 0.76441 0.22088
 O346 O 0.83801 0.72823 0.26430
 O347 O 0.78207 0.84164 0.26161
 O348 O 0.73724 0.84688 0.29143
 Zr349 Zr 0.74229 0.81305 0.25528
 O350 O 0.71289 0.78374 0.28223
 Zr351 Zr 0.80210 0.76265 0.26054
 O352 O 0.77495 0.73095 0.28733
 Zr353 Zr 0.75247 0.75854 0.20013
 O354 O 0.72270 0.72727 0.22462
 Zr355 Zr 0.74014 0.75567 0.31236
 O356 O 0.76948 0.78774 0.28825
 Zr357 Zr 0.68997 0.75205 0.25235
 O358 O 0.71700 0.78357 0.22465
 Zr359 Zr 0.74953 0.70126 0.25700
 O360 O 0.77995 0.73039 0.23008
 O361 O 0.77649 0.78970 0.22895
 O362 O 0.71567 0.72469 0.28374
 C363 C 0.74601 0.82891 0.18321
 C364 C 0.81151 0.83493 0.26504
 C365 C 0.82591 0.76242 0.19128
 C366 C 0.74323 0.68496 0.32831
 C367 C 0.66714 0.74813 0.32160
 C368 C 0.67962 0.67979 0.25332
 H369 H 0.69726 0.79662 0.29379
 H370 H 0.71153 0.71375 0.20933
 H371 H 0.79012 0.80429 0.21691
 H372 H 0.78894 0.71883 0.30147
 H373 H 0.78830 0.77612 0.34367
 H374 H 0.82751 0.75329 0.31532
 H375 H 0.63961 0.74143 0.21881
 H376 H 0.70074 0.76679 0.16924
 H377 H 0.71413 0.80276 0.34196
 H378 H 0.74700 0.83784 0.31055
 H379 H 0.74203 0.67160 0.20394
 H380 H 0.77285 0.70769 0.17436
 H381 H 0.70673 0.86256 0.24662
 H382 H 0.66004 0.80134 0.23380
 H383 H 0.83393 0.71250 0.24767
 H384 H 0.78389 0.65175 0.26883
 O385 O 0.76431 0.17114 0.78957
 O386 O 0.73319 0.16156 0.74370
 O387 O 0.84214 0.22299 0.75831
 O388 O 0.84891 0.26936 0.72807
 O389 O 0.79135 0.25164 0.83865
 O390 O 0.74411 0.28026 0.84741
 O391 O 0.75637 0.30469 0.67570
 O392 O 0.79478 0.26656 0.66391
 O393 O 0.67734 0.24918 0.70453
 O394 O 0.66694 0.21240 0.74409
 O395 O 0.70249 0.33069 0.75316
 O396 O 0.74021 0.34386 0.79296
 O397 O 0.74768 0.33902 0.71569
 O398 O 0.78007 0.34715 0.76615
 O399 O 0.66883 0.28938 0.74907
 O400 O 0.66402 0.23979 0.78268
 O401 O 0.71690 0.25907 0.66949
 O402 O 0.76818 0.22747 0.66204
 O403 O 0.75257 0.20388 0.83033
 O404 O 0.71176 0.24385 0.83955
 O405 O 0.83210 0.26273 0.80520
 O406 O 0.83974 0.30187 0.76398
 O407 O 0.81003 0.18142 0.74819
 O408 O 0.76848 0.17036 0.71023
 Zr409 Zr 0.76381 0.20022 0.74973
 O410 O 0.73264 0.22569 0.72088
 Zr411 Zr 0.81119 0.26144 0.75992
 O412 O 0.78314 0.28910 0.72983
 Zr413 Zr 0.75147 0.24895 0.80952
 O414 O 0.72124 0.27774 0.78271
 Zr415 Zr 0.75825 0.26086 0.69762
 O416 O 0.79026 0.23358 0.72450
 Zr417 Zr 0.69921 0.24997 0.74854
 O418 O 0.72736 0.22047 0.77713
 Zr419 Zr 0.74754 0.31070 0.75663
 O420 O 0.77738 0.28516 0.78748
 O421 O 0.78672 0.22663 0.78376
 O422 O 0.72334 0.28433 0.72312
 C423 C 0.75876 0.17662 0.81883
 C424 C 0.83739 0.19381 0.75281
 C425 C 0.82059 0.25750 0.83283
 C426 C 0.75185 0.33242 0.68637
 C427 C 0.68777 0.25343 0.67649
 C428 C 0.67477 0.31886 0.75028
 H429 H 0.72235 0.21114 0.70596
 H430 H 0.70563 0.28797 0.79672
 H431 H 0.80085 0.21377 0.79709
 H432 H 0.79686 0.30449 0.71904
 H433 H 0.81130 0.27970 0.67375
 H434 H 0.84497 0.25574 0.70960
 H435 H 0.66222 0.25799 0.79699
 H436 H 0.69882 0.22663 0.83078
 H437 H 0.75016 0.21272 0.66102
 H438 H 0.78418 0.18021 0.69600
 H439 H 0.72742 0.33361 0.80954
 H440 H 0.75615 0.29945 0.84224
 H441 H 0.71491 0.16505 0.75794
 H442 H 0.67778 0.19579 0.73194
 H443 H 0.83002 0.31507 0.78057
 H444 H 0.79494 0.34849 0.74814
 O445 O 0.23605 0.82223 0.79615
 O446 O 0.26783 0.83438 0.74787
 O447 O 0.15671 0.77406 0.75433
 O448 O 0.14987 0.73290 0.72234
 O449 O 0.20232 0.73774 0.83566
 O450 O 0.25061 0.70733 0.84288
 O451 O 0.24467 0.69605 0.67166
 O452 O 0.20422 0.73654 0.66443
 O453 O 0.32407 0.74973 0.70613
 O454 O 0.32798 0.78750 0.74497
 O455 O 0.29652 0.66624 0.75276
 O456 O 0.25321 0.65175 0.78862
 O457 O 0.25571 0.66068 0.71015
 O458 O 0.21961 0.64717 0.75523
 O459 O 0.32963 0.70755 0.74520
 O460 O 0.33312 0.74833 0.78653
 O461 O 0.28537 0.73969 0.67022
 O462 O 0.24345 0.77183 0.65883
 O463 O 0.24090 0.78474 0.83395
 O464 O 0.28140 0.74639 0.84178
 O465 O 0.16388 0.73132 0.79873
 O466 O 0.15913 0.69450 0.75498
 O467 O 0.18960 0.81620 0.75290
 O468 O 0.23108 0.83152 0.71790
 Zr469 Zr 0.23567 0.79679 0.75310
 O470 O 0.26698 0.77272 0.72274
 Zr471 Zr 0.18735 0.73543 0.75523
 O472 O 0.21666 0.70888 0.72520
 Zr473 Zr 0.24415 0.74281 0.80878
 O474 O 0.27621 0.71701 0.78104
 Zr475 Zr 0.24279 0.73899 0.69609
 O476 O 0.21051 0.76583 0.72345
 Zr477 Zr 0.29967 0.74684 0.74931
 O478 O 0.27052 0.77370 0.78003
 Zr479 Zr 0.25094 0.68576 0.75247
 O480 O 0.21897 0.70912 0.78285
 O481 O 0.21066 0.76780 0.78337
 O482 O 0.27623 0.71404 0.72156
 C483 C 0.23795 0.81325 0.82509
 C484 C 0.16188 0.80366 0.75335
 C485 C 0.17334 0.73333 0.82743
 C486 C 0.25163 0.66835 0.68120
 C487 C 0.31440 0.74474 0.67785
 C488 C 0.32404 0.67815 0.74820
 H489 H 0.27797 0.78791 0.70893
 H490 H 0.29148 0.70621 0.79495
 H491 H 0.19601 0.77973 0.79710
 H492 H 0.20361 0.69426 0.71269
 H493 H 0.18942 0.75363 0.67018
 H494 H 0.15844 0.72294 0.70309
 H495 H 0.35457 0.74770 0.77697
 H496 H 0.29646 0.76197 0.83320
 H497 H 0.24016 0.79257 0.66850
 H498 H 0.21519 0.82383 0.70262
 H499 H 0.26909 0.65891 0.80414
 H500 H 0.23608 0.69006 0.83719
 H501 H 0.28304 0.83306 0.76552
 H502 H 0.32453 0.80003 0.76429
 H503 H 0.16845 0.68001 0.77062
 H504 H 0.20486 0.64842 0.73720
 O505 O 0.25063 0.33309 0.69234
 O506 O 0.21730 0.34867 0.73476
 O507 O 0.33130 0.29582 0.74256
 O508 O 0.34249 0.25576 0.77329
 O509 O 0.28947 0.24556 0.66181
 O510 O 0.24364 0.21330 0.65712
 O511 O 0.24695 0.22389 0.82980
 O512 O 0.28443 0.26402 0.83333
 O513 O 0.16613 0.26465 0.78874
 O514 O 0.15743 0.29608 0.74027
 O515 O 0.19903 0.17901 0.75386
 O516 O 0.24195 0.16243 0.72114
 O517 O 0.24229 0.18217 0.79684
 O518 O 0.27843 0.16663 0.75131
 O519 O 0.16346 0.21889 0.75211
 O520 O 0.15535 0.25947 0.71056
 O521 O 0.20488 0.26695 0.82575
 O522 O 0.25006 0.30188 0.83079
 O523 O 0.24575 0.29224 0.65822
 O524 O 0.20992 0.24878 0.65450
 O525 O 0.32807 0.24993 0.69893
 O526 O 0.33324 0.21502 0.74595
 O527 O 0.29560 0.33496 0.73491
 O528 O 0.25273 0.34992 0.76960
 Zr529 Zr 0.25136 0.31248 0.73704
 O530 O 0.22064 0.29090 0.76941
 Zr531 Zr 0.30368 0.25486 0.74187
 O532 O 0.27559 0.23092 0.77506
 Zr533 Zr 0.24712 0.25230 0.68757
 O534 O 0.21667 0.22761 0.71824
 Zr535 Zr 0.24724 0.26282 0.80002
 O536 O 0.27847 0.28720 0.76985
 Zr537 Zr 0.19075 0.25947 0.74585
 O538 O 0.21866 0.28425 0.71270
 Zr539 Zr 0.24322 0.20192 0.75120
 O540 O 0.27376 0.22350 0.71782
 O541 O 0.27868 0.28220 0.71001
 O542 O 0.21562 0.23226 0.77820
 C543 C 0.24762 0.32162 0.66457
 C544 C 0.32397 0.32474 0.73865
 C545 C 0.31865 0.24587 0.67047
 C546 C 0.24489 0.19444 0.82441
 C547 C 0.17567 0.26696 0.81738
 C548 C 0.17061 0.18979 0.75450
 H549 H 0.20841 0.30706 0.78078
 H550 H 0.20267 0.21391 0.70571
 H551 H 0.29260 0.29367 0.69520
 H552 H 0.28952 0.21902 0.78940
 H553 H 0.30139 0.27724 0.82422
 H554 H 0.33448 0.24909 0.79414
 H555 H 0.15772 0.24007 0.69806
 H556 H 0.19370 0.26425 0.66097
 H557 H 0.23421 0.31755 0.82413
 H558 H 0.26770 0.34368 0.78640
 H559 H 0.22834 0.16780 0.70300
 H560 H 0.25730 0.19677 0.66617
 H561 H 0.19941 0.34038 0.72225
 H562 H 0.16269 0.31273 0.75558
 H563 H 0.32684 0.20017 0.72922
 H564 H 0.29271 0.17065 0.76931
 O565 O 0.74228 0.67686 0.71154
 O566 O 0.77954 0.67339 0.75553
 O567 O 0.66036 0.71389 0.75871
 O568 O 0.64843 0.75637 0.78701
 O569 O 0.69121 0.75064 0.66967
 O570 O 0.73031 0.78798 0.65485
 O571 O 0.74423 0.81196 0.82537
 O572 O 0.71112 0.76988 0.84057
 O573 O 0.82483 0.77138 0.78326
 O574 O 0.83173 0.73092 0.74810
 O575 O 0.77909 0.84444 0.74258
 O576 O 0.73211 0.84842 0.70579
 O577 O 0.73581 0.84539 0.78457
 O578 O 0.69943 0.84943 0.74028
 O579 O 0.81879 0.80857 0.73943
 O580 O 0.82450 0.76515 0.70275
 O581 O 0.79028 0.77121 0.82459
 O582 O 0.74928 0.73526 0.84155
 O583 O 0.74053 0.71138 0.67072
 O584 O 0.76864 0.75773 0.65488
 O585 O 0.65523 0.75398 0.70962
 O586 O 0.64861 0.79328 0.75166
 O587 O 0.70068 0.67854 0.75672
 O588 O 0.74602 0.67559 0.79105
 Zr589 Zr 0.74177 0.70570 0.75176
 O590 O 0.77177 0.73660 0.77597
 Zr591 Zr 0.68308 0.75726 0.75093
 O592 O 0.71056 0.79013 0.77609
 Zr593 Zr 0.73524 0.75547 0.69203
 O594 O 0.76439 0.78870 0.71415
 Zr595 Zr 0.74490 0.76743 0.80376
 O596 O 0.71449 0.73424 0.78193
 Zr597 Zr 0.79589 0.76538 0.74396
 O598 O 0.76917 0.73157 0.71924
 Zr599 Zr 0.73725 0.81716 0.74416
 O600 O 0.70717 0.78640 0.71882
 O601 O 0.70919 0.72732 0.72239
 O602 O 0.77050 0.79577 0.77313
 C603 C 0.74264 0.68362 0.68207
 C604 C 0.67128 0.68578 0.75927
 C605 C 0.66271 0.75125 0.68031
 C606 C 0.73922 0.83943 0.81401
 C607 C 0.81842 0.77254 0.81280
 C608 C 0.80851 0.83677 0.74032
 H609 H 0.78698 0.72426 0.78857
 H610 H 0.77597 0.80092 0.69805
 H611 H 0.69595 0.71198 0.71093
 H612 H 0.69633 0.80308 0.78927
 H613 H 0.69518 0.75345 0.83628
 H614 H 0.65632 0.76961 0.80441
 H615 H 0.84661 0.76980 0.70905
 H616 H 0.78715 0.74518 0.66155
 H617 H 0.76451 0.71886 0.83518
 H618 H 0.73098 0.68332 0.80721
 H619 H 0.75023 0.84528 0.69132
 H620 H 0.71672 0.80506 0.66299
 H621 H 0.79360 0.67686 0.73719
 H622 H 0.82842 0.71578 0.73077
 H623 H 0.65240 0.80649 0.73286
 H624 H 0.68426 0.84484 0.75748
 O625 O 0.24309 0.67094 0.28898
 O626 O 0.21188 0.65746 0.24927
 O627 O 0.32884 0.69845 0.23900
 O628 O 0.33973 0.73693 0.20034
 O629 O 0.29928 0.74872 0.31870
 O630 O 0.25966 0.78711 0.32947
 O631 O 0.24340 0.78423 0.15576
 O632 O 0.27413 0.74053 0.14423
 O633 O 0.16543 0.75712 0.20402
 O634 O 0.15637 0.72303 0.24598
 O635 O 0.21619 0.83333 0.23378
 O636 O 0.25853 0.84012 0.26755
 O637 O 0.25207 0.82492 0.18920
 O638 O 0.29737 0.82976 0.22632
 O639 O 0.17443 0.80054 0.24208
 O640 O 0.16706 0.76242 0.28521
 O641 O 0.19908 0.74536 0.16363
 O642 O 0.24377 0.70414 0.15532
 O643 O 0.25232 0.70993 0.32432
 O644 O 0.22034 0.75830 0.33111
 O645 O 0.33528 0.74472 0.27883
 O646 O 0.34292 0.77603 0.23026
 O647 O 0.28786 0.66401 0.24310
 O648 O 0.23871 0.65925 0.20879
 Zr649 Zr 0.24681 0.69253 0.24484
 O650 O 0.21656 0.72003 0.21687
 Zr651 Zr 0.30696 0.74237 0.23768
 O652 O 0.28013 0.77064 0.20699
 Zr653 Zr 0.25529 0.75061 0.29613
 O654 O 0.22786 0.78133 0.26878
 Zr655 Zr 0.24463 0.74438 0.18437
 O656 O 0.27508 0.71506 0.21091
 Zr657 Zr 0.19444 0.75520 0.24383
 O658 O 0.22039 0.72414 0.27287
 Zr659 Zr 0.25542 0.80353 0.23404
 O660 O 0.28416 0.77679 0.26497
 O661 O 0.28018 0.71752 0.27031
 O662 O 0.22086 0.77857 0.20991
 C663 C 0.24676 0.68119 0.31717
 C664 C 0.31752 0.67070 0.24103
 C665 C 0.32770 0.74644 0.30820
 C666 C 0.24644 0.81350 0.16170
 C667 C 0.17150 0.75192 0.17484
 C668 C 0.18656 0.82782 0.23762
 H669 H 0.20073 0.70640 0.20657
 H670 H 0.21762 0.79682 0.28285
 H671 H 0.29305 0.70380 0.28402
 H672 H 0.29424 0.78109 0.19161
 H673 H 0.29565 0.74671 0.15087
 H674 H 0.33000 0.72214 0.18523
 H675 H 0.14537 0.76851 0.27871
 H676 H 0.20388 0.74209 0.32813
 H677 H 0.22309 0.69371 0.15853
 H678 H 0.25731 0.65984 0.19455
 H679 H 0.27760 0.83591 0.28038
 H680 H 0.27556 0.80185 0.32096
 H681 H 0.19131 0.66848 0.24960
 H682 H 0.16050 0.70931 0.26431
 H683 H 0.33990 0.79249 0.24641
 H684 H 0.29105 0.85151 0.22115
 O685 O 0.75569 0.33284 0.30500
 O686 O 0.78613 0.34721 0.25898
 O687 O 0.67379 0.29033 0.26370
 O688 O 0.66434 0.25255 0.22879
 O689 O 0.71903 0.24880 0.34113
 O690 O 0.76424 0.21520 0.34639
 O691 O 0.75991 0.21403 0.17382
 O692 O 0.72072 0.25430 0.16848
 O693 O 0.84025 0.26064 0.21200
 O694 O 0.84656 0.29512 0.25238
 O695 O 0.80696 0.17596 0.25245
 O696 O 0.76495 0.16109 0.28699
 O697 O 0.76277 0.17518 0.21038
 O698 O 0.72857 0.16230 0.25693
 O699 O 0.84313 0.21531 0.24928
 O700 O 0.84873 0.25420 0.29197
 O701 O 0.80139 0.25626 0.17515
 O702 O 0.76089 0.29171 0.16759
 O703 O 0.76323 0.29350 0.34032
 O704 O 0.79798 0.25022 0.34655
 O705 O 0.68014 0.24361 0.30442
 O706 O 0.67252 0.21136 0.25689
 O707 O 0.70843 0.33106 0.26268
 O708 O 0.75243 0.34506 0.22634
 Zr709 Zr 0.75375 0.30955 0.26107
 O710 O 0.78437 0.28564 0.22982
 Zr711 Zr 0.70269 0.25074 0.26068
 O712 O 0.73040 0.22507 0.22847
 Zr713 Zr 0.76041 0.25237 0.31375
 O714 O 0.79029 0.22608 0.28438
 Zr715 Zr 0.75859 0.25513 0.20106
 O716 O 0.72705 0.28152 0.23001
 Zr717 Zr 0.81552 0.25627 0.25457
 O718 O 0.78786 0.28332 0.28632
 Zr719 Zr 0.76297 0.19822 0.25408
 O720 O 0.73307 0.22146 0.28641
 O721 O 0.72781 0.28036 0.29039
 O722 O 0.79033 0.22654 0.22483
 C723 C 0.76081 0.32248 0.33299
 C724 C 0.68022 0.31963 0.26386
 C725 C 0.69013 0.24426 0.33301
 C726 C 0.76130 0.18513 0.18191
 C727 C 0.83061 0.25911 0.18338
 C728 C 0.83538 0.18624 0.25030
 H729 H 0.79614 0.30112 0.21700
 H730 H 0.80482 0.21354 0.29758
 H731 H 0.71422 0.29222 0.30522
 H732 H 0.71641 0.21215 0.21509
 H733 H 0.70578 0.27099 0.17493
 H734 H 0.67249 0.24523 0.20821
 H735 H 0.87019 0.25253 0.28256
 H736 H 0.81439 0.26498 0.33904
 H737 H 0.74715 0.30864 0.17561
 H738 H 0.73319 0.34168 0.21351
 H739 H 0.77899 0.16777 0.30437
 H740 H 0.74935 0.19874 0.33934
 H741 H 0.80367 0.34205 0.27347
 H742 H 0.84335 0.30724 0.27200
 H743 H 0.67967 0.19595 0.27277
 H744 H 0.71365 0.16505 0.23920
 C745 C 0.21570 0.11533 0.04958
 C746 C 0.23584 0.08895 0.04837
 C747 C 0.25662 0.08375 0.07395
 C748 C 0.25739 0.10452 0.09970
 C749 C 0.23770 0.13125 0.09967
 C750 C 0.21668 0.13618 0.07479
 C751 C 0.23960 0.15294 0.12433
 C752 C 0.26047 0.14814 0.14956
 C753 C 0.27915 0.12096 0.15019
 C754 C 0.27791 0.09947 0.12524
 H755 H 0.27329 0.06446 0.07319
 H756 H 0.20112 0.15635 0.07466
 H757 H 0.22469 0.17360 0.12398
 H758 H 0.29307 0.07902 0.12584
 H759 H 0.19883 0.11985 0.03092
 H760 H 0.29527 0.11679 0.16956
 C761 C 0.79560 0.61511 0.56601
 C762 C 0.77175 0.59232 0.56369
 C763 C 0.74829 0.59056 0.58716
 C764 C 0.74815 0.61197 0.61222
 C765 C 0.77135 0.63582 0.61335
 C766 C 0.79534 0.63678 0.59055
 C767 C 0.76964 0.65887 0.63672
 C768 C 0.74557 0.65793 0.65944
 C769 C 0.72359 0.63336 0.65932
 C770 C 0.72465 0.61065 0.63562
 H771 H 0.72954 0.57335 0.58520
 H772 H 0.81344 0.65472 0.59127
 H773 H 0.78677 0.67777 0.63709
 H774 H 0.70683 0.59242 0.63529
 H775 H 0.81383 0.61679 0.54807
 H776 H 0.70495 0.63244 0.67682
 C777 C 0.70486 0.95257 0.12020
 C778 C 0.72601 0.95207 0.09433
 C779 C 0.74605 0.92582 0.09075
 C780 C 0.74523 0.90112 0.11270
 C781 C 0.72461 0.90281 0.13894
 C782 C 0.70423 0.92837 0.14218
 C783 C 0.72500 0.87915 0.16184
 C784 C 0.74524 0.85331 0.15859
 C785 C 0.76494 0.85119 0.13192
 C786 C 0.76519 0.87505 0.10932
 H787 H 0.76352 0.92530 0.07200
 H788 H 0.68799 0.92986 0.16194
 H789 H 0.70945 0.88076 0.18217
 H790 H 0.78110 0.87320 0.08933
 H791 H 0.68861 0.97192 0.12353
 H792 H 0.78075 0.83142 0.12898
 C793 C 0.28106 0.44452 0.59720
 C794 C 0.25544 0.44491 0.57615
 C795 C 0.23436 0.41944 0.57555
 C796 C 0.23912 0.39367 0.59548
 C797 C 0.26446 0.39407 0.61722
 C798 C 0.28545 0.41942 0.61769
 C799 C 0.26784 0.36956 0.63879
 C800 C 0.24661 0.34433 0.63865
 C801 C 0.22257 0.34310 0.61594
 C802 C 0.21866 0.36778 0.59462
 H803 H 0.21416 0.41990 0.55981
 H804 H 0.30505 0.41998 0.63413
 H805 H 0.28654 0.37041 0.65627
 H806 H 0.19928 0.36695 0.57794
 H807 H 0.29743 0.46401 0.59808
 H808 H 0.20590 0.32384 0.61574
 C809 C 0.71824 0.08537 0.92503
 C810 C 0.74322 0.06386 0.92142
 C811 C 0.76636 0.06941 0.89825
 C812 C 0.76485 0.09627 0.87923
 C813 C 0.74019 0.11828 0.88376
 C814 C 0.71701 0.11256 0.90676
 C815 C 0.73877 0.14521 0.86472
 C816 C 0.76101 0.14970 0.84047
 C817 C 0.78519 0.12752 0.83600
 C818 C 0.78733 0.10125 0.85543
 H819 H 0.78542 0.05270 0.89495
 H820 H 0.69768 0.12888 0.91031
 H821 H 0.71985 0.16207 0.86802
 H822 H 0.80631 0.08461 0.85153
 H823 H 0.69966 0.08108 0.94214
 H824 H 0.80261 0.13065 0.81748
 C825 C 0.20848 0.55663 0.37946
 C826 C 0.23244 0.55584 0.40238
 C827 C 0.25345 0.58127 0.40486
 C828 C 0.25012 0.60741 0.38511
 C829 C 0.22659 0.60736 0.36146
 C830 C 0.20574 0.58201 0.35900
 C831 C 0.22481 0.63228 0.34012
 C832 C 0.24570 0.65770 0.34253
 C833 C 0.26765 0.65858 0.36730
 C834 C 0.27016 0.63341 0.38821
 H835 H 0.27244 0.58057 0.42200
 H836 H 0.18745 0.58171 0.34112
 H837 H 0.20758 0.63165 0.32120
 H838 H 0.28807 0.63406 0.40645
 H839 H 0.19210 0.53727 0.37712
 H840 H 0.28382 0.67806 0.36961
 C841 C 0.27559 0.92384 0.91194
 C842 C 0.25261 0.91856 0.93553
 C843 C 0.23155 0.89330 0.93174
 C844 C 0.23229 0.87476 0.90448
 C845 C 0.25478 0.88091 0.88051
 C846 C 0.27645 0.90544 0.88460
 C847 C 0.25569 0.86185 0.85338
 C848 C 0.23481 0.83641 0.85059
 C849 C 0.21243 0.83083 0.87442
 C850 C 0.21097 0.84994 0.90100
 H851 H 0.21387 0.88858 0.94972
 H852 H 0.29428 0.91019 0.86684
 H853 H 0.27333 0.86590 0.83524
 H854 H 0.19355 0.84492 0.91910
 H855 H 0.29327 0.94196 0.91487
 H856 H 0.19622 0.81130 0.87257
 C857 C 0.72360 0.42791 0.42596
 C858 C 0.74923 0.42387 0.44662
 C859 C 0.77239 0.40137 0.43975
 C860 C 0.77016 0.38303 0.41253
 C861 C 0.74462 0.38749 0.39143
 C862 C 0.72149 0.41009 0.39835
 C863 C 0.74231 0.36867 0.36433
 C864 C 0.76461 0.34488 0.35894
 C865 C 0.78979 0.34071 0.38006
 C866 C 0.79278 0.35986 0.40643
 H867 H 0.79205 0.39806 0.45582
 H868 H 0.70160 0.41367 0.38268
 H869 H 0.72258 0.37156 0.34827
 H870 H 0.81241 0.35612 0.42241
 H871 H 0.70531 0.44492 0.43123
 H872 H 0.80711 0.32238 0.37618
 C873 C 0.12098 0.22458 0.05198
 C874 C 0.09470 0.24447 0.05695
 C875 C 0.09070 0.25813 0.08699
 C876 C 0.11317 0.25302 0.11090
 C877 C 0.14010 0.23429 0.10472
 C878 C 0.14336 0.21961 0.07548
 C879 C 0.16383 0.23117 0.12755
 C880 C 0.16080 0.24603 0.15685
 C881 C 0.13335 0.26346 0.16348
 C882 C 0.10984 0.26719 0.14057
 H883 H 0.07140 0.27436 0.09116
 H884 H 0.16362 0.20483 0.07050
 H885 H 0.18477 0.21736 0.12245
 H886 H 0.08932 0.28149 0.14590
 H887 H 0.12451 0.21313 0.02945
 H888 H 0.13058 0.27503 0.18603
 C889 C 0.59832 0.69534 0.56303
 C890 C 0.57470 0.71822 0.55934
 C891 C 0.57164 0.74193 0.58220
 C892 C 0.59243 0.74305 0.60807
 C893 C 0.61699 0.72067 0.61056
 C894 C 0.61935 0.69660 0.58828
 C895 C 0.63938 0.72320 0.63477
 C896 C 0.63722 0.74737 0.65705
 C897 C 0.61187 0.76855 0.65557
 C898 C 0.58978 0.76661 0.63103
 H899 H 0.55381 0.75995 0.57929
 H900 H 0.63787 0.67912 0.59002
 H901 H 0.65878 0.70661 0.63611
 H902 H 0.57099 0.78382 0.62971
 H903 H 0.60107 0.67692 0.54568
 H904 H 0.60993 0.78731 0.67263
 C905 C 0.03975 0.71015 0.88178
 C906 C 0.04283 0.72798 0.90963
 C907 C 0.07237 0.74215 0.91593
 C908 C 0.09821 0.73795 0.89545
 C909 C 0.09432 0.72048 0.86747
 C910 C 0.06511 0.70653 0.86098
 C911 C 0.11944 0.71794 0.84599
 C912 C 0.14868 0.73236 0.85217
 C913 C 0.15288 0.74836 0.88079
 C914 C 0.12776 0.75141 0.90213
 H915 H 0.07504 0.75742 0.93616
 H916 H 0.06180 0.69288 0.83971
 H917 H 0.11601 0.70528 0.82410
 H918 H 0.13129 0.76467 0.92360
 H919 H 0.01772 0.69844 0.87619
 H920 H 0.17520 0.75960 0.88612
 C921 C 0.57228 0.18827 0.39734
 C922 C 0.56878 0.21131 0.42073
 C923 C 0.59190 0.23475 0.42369
 C924 C 0.61774 0.23574 0.40290
 C925 C 0.62007 0.21340 0.37840
 C926 C 0.59765 0.18937 0.37626
 C927 C 0.64422 0.21604 0.35588
 C928 C 0.66651 0.24023 0.35803
 C929 C 0.66514 0.26135 0.38331
 C930 C 0.64068 0.25933 0.40546
 H931 H 0.58904 0.25294 0.44129
 H932 H 0.59927 0.17190 0.35780
 H933 H 0.64555 0.19954 0.33649
 H934 H 0.63939 0.27650 0.42422
 H935 H 0.55464 0.17007 0.39469
 H936 H 0.68227 0.28012 0.38517
 C937 C 0.90860 0.73144 0.07473
 C938 C 0.93640 0.74706 0.08441
 C939 C 0.93610 0.76266 0.11370
 C940 C 0.90859 0.76342 0.13228
 C941 C 0.88077 0.74827 0.12181
 C942 C 0.88108 0.73231 0.09302
 C943 C 0.85334 0.74880 0.14061
 C944 C 0.85365 0.76375 0.17008
 C945 C 0.88140 0.77896 0.18011
 C946 C 0.90853 0.77897 0.16132
 H947 H 0.95697 0.77509 0.12171
 H948 H 0.86017 0.72010 0.08483
 H949 H 0.83214 0.73681 0.13279
 H950 H 0.92959 0.79081 0.16970
 H951 H 0.90828 0.71778 0.05322
 H952 H 0.88215 0.79086 0.20265
 C953 C 0.44618 0.27411 0.60566
 C954 C 0.44712 0.24778 0.58583
 C955 C 0.42116 0.22712 0.58547
 C956 C 0.39461 0.23276 0.60472
 C957 C 0.39459 0.25872 0.62540
 C958 C 0.42026 0.27945 0.62539
 C959 C 0.36923 0.26313 0.64630
 C960 C 0.34346 0.24243 0.64632
 C961 C 0.34276 0.21762 0.62469
 C962 C 0.36835 0.21259 0.60423
 H963 H 0.42196 0.20643 0.57071
 H964 H 0.42049 0.29956 0.64095
 H965 H 0.36963 0.28250 0.66283
 H966 H 0.36781 0.19273 0.58836
 H967 H 0.46596 0.29022 0.60635
 H968 H 0.32301 0.20145 0.62451
 C969 C 0.92429 0.29947 0.92729
 C970 C 0.92252 0.27311 0.94717
 C971 C 0.90018 0.24968 0.94009
 C972 C 0.88106 0.25173 0.91332
 C973 C 0.88407 0.27753 0.89272
 C974 C 0.90567 0.30139 0.90005
 C975 C 0.86495 0.27919 0.86562
 C976 C 0.84228 0.25583 0.85981
 C977 C 0.83937 0.23055 0.88069
 C978 C 0.85881 0.22831 0.90702
 H979 H 0.89810 0.22931 0.95522
 H980 H 0.90778 0.32177 0.88501
 H981 H 0.86697 0.29890 0.84967
 H982 H 0.85618 0.20843 0.92266
 H983 H 0.93960 0.31894 0.93314
 H984 H 0.82207 0.21231 0.87643
 C985 C 0.38336 0.69637 0.43169
 C986 C 0.40627 0.71971 0.43633
 C987 C 0.41075 0.74275 0.41300
 C988 C 0.39244 0.74240 0.38533
 C989 C 0.36901 0.71912 0.38140
 C990 C 0.36488 0.69606 0.40450
 C991 C 0.34931 0.71986 0.35495
 C992 C 0.35246 0.74350 0.33229
 C993 C 0.37663 0.76576 0.33536
 C994 C 0.39651 0.76526 0.36182
 H995 H 0.42813 0.76104 0.41664
 H996 H 0.34704 0.67805 0.40174
 H997 H 0.33078 0.70253 0.35233
 H998 H 0.41447 0.78318 0.36430
 H999 H 0.37959 0.67849 0.44939
 H1000 H 0.37916 0.78426 0.31811
 C1001 C 0.08471 0.07988 0.29235
 C1002 C 0.09005 0.05638 0.26961
 C1003 C 0.11517 0.06015 0.24815
 C1004 C 0.13347 0.08740 0.24819
 C1005 C 0.12720 0.11137 0.27036
 C1006 C 0.10289 0.10724 0.29251
 C1007 C 0.14583 0.13865 0.27032
 C1008 C 0.17100 0.14156 0.24888
 C1009 C 0.17677 0.11767 0.22685
 C1010 C 0.15805 0.09093 0.22634
 H1011 H 0.11980 0.04228 0.23055
 H1012 H 0.09806 0.12503 0.31008
 H1013 H 0.14160 0.15691 0.28757
 H1014 H 0.16310 0.07282 0.20916
 H1015 H 0.06653 0.07697 0.31018
 H1016 H 0.19609 0.11964 0.21010
 C1017 C 0.61136 0.56270 0.71383
 C1018 C 0.59088 0.55762 0.73947
 C1019 C 0.59047 0.57931 0.76450
 C1020 C 0.60944 0.60636 0.76321
 C1021 C 0.63018 0.61081 0.73738
 C1022 C 0.63099 0.58888 0.71289
 C1023 C 0.64994 0.63707 0.73647
 C1024 C 0.64883 0.65953 0.76050
 C1025 C 0.62749 0.65577 0.78559
 C1026 C 0.60815 0.62912 0.78714
 H1027 H 0.57523 0.57523 0.78468
 H1028 H 0.64670 0.59205 0.69290
 H1029 H 0.66619 0.64022 0.71693
 H1030 H 0.59224 0.62629 0.80701
 H1031 H 0.61216 0.54621 0.69445
 H1032 H 0.62646 0.67296 0.80433
 C1033 C 0.92497 0.08446 0.71227
 C1034 C 0.94772 0.08790 0.73632
 C1035 C 0.94439 0.11319 0.75747
 C1036 C 0.91831 0.13337 0.75579
 C1037 C 0.89471 0.12838 0.73278
 C1038 C 0.89845 0.10407 0.71091
 C1039 C 0.86799 0.14801 0.73194
 C1040 C 0.86525 0.17308 0.75322
 C1041 C 0.88928 0.17829 0.77541
 C1042 C 0.91543 0.15841 0.77692
 H1043 H 0.96169 0.11668 0.77600
 H1044 H 0.88107 0.10041 0.69254
 H1045 H 0.84964 0.14412 0.71454
 H1046 H 0.93340 0.16264 0.79461
 H1047 H 0.92786 0.06681 0.69417
 H1048 H 0.88748 0.19742 0.79208
 C1049 C 0.43520 0.60529 0.29402
 C1050 C 0.44117 0.58559 0.26818
 C1051 C 0.41966 0.58501 0.24290
 C1052 C 0.39249 0.60398 0.24347
 C1053 C 0.38736 0.62442 0.26921
 C1054 C 0.40859 0.62462 0.29452
 C1055 C 0.36168 0.64512 0.26874
 C1056 C 0.34080 0.64542 0.24313
 C1057 C 0.34497 0.62417 0.21831
 C1058 C 0.37080 0.60361 0.21840
 H1059 H 0.42444 0.57026 0.22264
 H1060 H 0.40489 0.64007 0.31445
 H1061 H 0.35839 0.66172 0.28784
 H1062 H 0.37424 0.58798 0.19857
 H1063 H 0.45157 0.60610 0.31363
 H1064 H 0.32910 0.62449 0.19829
 C1065 C 0.08136 0.92141 0.72422
 C1066 C 0.05365 0.91245 0.74059
 C1067 C 0.05331 0.88291 0.75547
 C1068 C 0.08006 0.86343 0.75488
 C1069 C 0.10794 0.87338 0.73941
 C1070 C 0.10827 0.90236 0.72404
 C1071 C 0.13486 0.85402 0.73927
 C1072 C 0.13393 0.82447 0.75376
 C1073 C 0.10590 0.81466 0.76872
 C1074 C 0.07931 0.83406 0.76951
 H1075 H 0.03252 0.87531 0.76841
 H1076 H 0.12921 0.91012 0.71147
 H1077 H 0.15629 0.86166 0.72742
 H1078 H 0.05811 0.82600 0.78145
 H1079 H 0.08207 0.94296 0.71083
 H1080 H 0.10469 0.79207 0.78022
 C1081 C 0.58925 0.42794 0.22881
 C1082 C 0.56526 0.42051 0.25058
 C1083 C 0.56961 0.39522 0.27118
 C1084 C 0.59761 0.37758 0.27025
 C1085 C 0.62197 0.38553 0.24871
 C1086 C 0.61754 0.41085 0.22814
 C1087 C 0.64986 0.36747 0.24758
 C1088 C 0.65300 0.34101 0.26694
 C1089 C 0.62866 0.33343 0.28823
 C1090 C 0.60138 0.35174 0.29015
 H1091 H 0.55103 0.38920 0.28780
 H1092 H 0.63573 0.41713 0.21124
 H1093 H 0.66842 0.37314 0.23083
 H1094 H 0.58296 0.34530 0.30674
 H1095 H 0.58602 0.44703 0.21235
 H1096 H 0.63074 0.31312 0.30336
 C1097 C 0.92096 0.92395 0.23040
 C1098 C 0.91674 0.94502 0.25548
 C1099 C 0.89258 0.93969 0.27759
 C1100 C 0.87299 0.91343 0.27496
 C1101 C 0.87813 0.89167 0.25032
 C1102 C 0.90219 0.89714 0.22816
 C1103 C 0.85862 0.86525 0.24789
 C1104 C 0.83334 0.86117 0.26897
 C1105 C 0.82798 0.88312 0.29294
 C1106 C 0.84798 0.90886 0.29624
 H1107 H 0.88890 0.95621 0.29666
 H1108 H 0.90614 0.88097 0.20886
 H1109 H 0.86232 0.84847 0.22904
 H1110 H 0.84359 0.92544 0.31508
 H1111 H 0.93894 0.92823 0.21267
 H1112 H 0.80838 0.88019 0.30920
 C1113 C 0.39183 0.44721 0.70174
 C1114 C 0.41590 0.44594 0.72452
 C1115 C 0.41817 0.41958 0.74420
 C1116 C 0.39629 0.39500 0.74145
 C1117 C 0.37139 0.39721 0.71931
 C1118 C 0.36971 0.42312 0.69920
 C1119 C 0.34812 0.37386 0.71819
 C1120 C 0.34973 0.34796 0.73843
 C1121 C 0.37535 0.34512 0.75928
 C1122 C 0.39831 0.36863 0.76101
 H1123 H 0.43631 0.41872 0.76222
 H1124 H 0.35092 0.42507 0.68195
 H1125 H 0.32859 0.37594 0.70175
 H1126 H 0.41735 0.36641 0.77795
 H1127 H 0.38965 0.46742 0.68649
 H1128 H 0.37696 0.32525 0.77503
 C1129 C 0.12388 0.29268 0.95112
 C1130 C 0.09508 0.27611 0.94835
 C1131 C 0.08764 0.26257 0.91893
 C1132 C 0.10817 0.26584 0.89306
 C1133 C 0.13738 0.28148 0.89680
 C1134 C 0.14481 0.29515 0.92578
 C1135 C 0.15904 0.28251 0.87173
 C1136 C 0.15157 0.26878 0.84260
 C1137 C 0.12163 0.25508 0.83848
 C1138 C 0.10030 0.25313 0.86364
 H1139 H 0.06665 0.24821 0.91641
 H1140 H 0.16695 0.30756 0.92897
 H1141 H 0.18187 0.29366 0.87500
 H1142 H 0.07780 0.24147 0.86014
 H1143 H 0.13033 0.30388 0.97310
 H1144 H 0.11509 0.24497 0.81609
 C1145 C 0.60362 0.69595 0.44122
 C1146 C 0.57907 0.71806 0.44344
 C1147 C 0.57584 0.74076 0.41964
 C1148 C 0.59675 0.74119 0.39384
 C1149 C 0.62197 0.71944 0.39253
 C1150 C 0.62499 0.69672 0.41611
 C1151 C 0.64426 0.72128 0.36810
 C1152 C 0.64138 0.74416 0.34458
 C1153 C 0.61540 0.76461 0.34498
 C1154 C 0.59336 0.76335 0.36965
 H1155 H 0.55732 0.75827 0.42147
 H1156 H 0.64407 0.67977 0.41531
 H1157 H 0.66421 0.70527 0.36762
 H1158 H 0.57402 0.78002 0.37011
 H1159 H 0.60653 0.67831 0.45931
 H1160 H 0.61298 0.78243 0.32700
 C1161 C 0.90244 0.73585 0.92573
 C1162 C 0.93050 0.75071 0.91553
 C1163 C 0.92962 0.76834 0.88749
 C1164 C 0.90147 0.77140 0.87032
 C1165 C 0.87352 0.75660 0.88105
 C1166 C 0.87425 0.73901 0.90887
 C1167 C 0.84565 0.75868 0.86315
 C1168 C 0.84575 0.77463 0.83423
 C1169 C 0.87346 0.78989 0.82418
 C1170 C 0.90101 0.78853 0.84220
 H1171 H 0.95076 0.78024 0.87924
 H1172 H 0.85319 0.72712 0.91723
 H1173 H 0.82445 0.74654 0.87084
 H1174 H 0.92217 0.80014 0.83369
 H1175 H 0.90249 0.72096 0.94638
 H1176 H 0.87397 0.80242 0.80199
 C1177 C 0.44652 0.19154 0.39823
 C1178 C 0.45326 0.21881 0.41539
 C1179 C 0.43545 0.24602 0.41011
 C1180 C 0.41099 0.24596 0.38780
 C1181 C 0.40485 0.21852 0.37013
 C1182 C 0.42253 0.19138 0.37573
 C1183 C 0.38124 0.21872 0.34702
 C1184 C 0.36321 0.24570 0.34198
 C1185 C 0.36877 0.27264 0.35995
 C1186 C 0.39279 0.27291 0.38253
 H1187 H 0.44108 0.26726 0.42291
 H1188 H 0.41804 0.17016 0.36249
 H1189 H 0.37655 0.19785 0.33325
 H1190 H 0.39707 0.29410 0.39590
 H1191 H 0.46039 0.17052 0.40185
 H1192 H 0.35478 0.29354 0.35616
 C1193 C 0.06869 0.70482 0.08284
 C1194 C 0.05150 0.73289 0.08115
 C1195 C 0.06223 0.75922 0.09772
 C1196 C 0.09000 0.75776 0.11565
 C1197 C 0.10773 0.72966 0.11665
 C1198 C 0.09688 0.70333 0.10009
 C1199 C 0.13543 0.72822 0.13491
 C1200 C 0.14475 0.75413 0.15298
 C1201 C 0.12692 0.78179 0.15198
 C1202 C 0.09998 0.78376 0.13312
 H1203 H 0.04866 0.78076 0.09684
 H1204 H 0.10990 0.68150 0.10088
 H1205 H 0.14898 0.70669 0.13614
 H1206 H 0.08659 0.80539 0.13272
 H1207 H 0.06029 0.68412 0.07073
 H1208 H 0.13385 0.80186 0.16598
 C1209 C 0.56244 0.21021 0.61718
 C1210 C 0.56228 0.23077 0.59143
 C1211 C 0.58823 0.25086 0.58650
 C1212 C 0.61415 0.25033 0.60721
 C1213 C 0.61361 0.22994 0.63341
 C1214 C 0.58787 0.20979 0.63802
 C1215 C 0.63844 0.23051 0.65510
 C1216 C 0.66407 0.25108 0.65115
 C1217 C 0.66527 0.27038 0.62442
 C1218 C 0.64034 0.27013 0.60264
 H1219 H 0.58798 0.26706 0.56684
 H1220 H 0.58722 0.19398 0.65798
 H1221 H 0.63757 0.21524 0.67550
 H1222 H 0.64126 0.28578 0.58258
 H1223 H 0.54260 0.19466 0.62130
 H1224 H 0.68482 0.28643 0.62104
 C1225 C 0.89617 0.22668 0.05689
 C1226 C 0.92090 0.24862 0.05887
 C1227 C 0.92361 0.26715 0.08611
 C1228 C 0.90139 0.26438 0.11067
 C1229 C 0.87582 0.24319 0.10775
 C1230 C 0.87379 0.22404 0.08103
 C1231 C 0.85249 0.24183 0.13139
 C1232 C 0.85489 0.26072 0.15835
 C1233 C 0.88097 0.28086 0.16160
 C1234 C 0.90383 0.28295 0.13781
 H1235 H 0.94231 0.28446 0.08762
 H1236 H 0.85455 0.20746 0.07851
 H1237 H 0.83267 0.22589 0.12899
 H1238 H 0.92334 0.29918 0.14057
 H1239 H 0.89362 0.21225 0.03605
 H1240 H 0.88328 0.29549 0.18231
 C1241 C 0.37629 0.69804 0.55443
 C1242 C 0.40053 0.72048 0.55244
 C1243 C 0.40307 0.74330 0.57625
 C1244 C 0.38192 0.74333 0.60193
 C1245 C 0.35722 0.72103 0.60316
 C1246 C 0.35474 0.69840 0.57941
 C1247 C 0.33526 0.72181 0.62800
 C1248 C 0.33808 0.74404 0.65222
 C1249 C 0.36331 0.76541 0.65152
 C1250 C 0.38485 0.76532 0.62635
 H1251 H 0.42133 0.76105 0.57462
 H1252 H 0.33607 0.68102 0.58010
 H1253 H 0.31611 0.70491 0.62870
 H1254 H 0.40376 0.78244 0.62598
 H1255 H 0.37384 0.68034 0.53630
 H1256 H 0.36589 0.78264 0.67006
 C1257 C 0.21643 0.07984 0.90953
 C1258 C 0.23664 0.08814 0.93462
 C1259 C 0.25372 0.11636 0.93238
 C1260 C 0.25140 0.13536 0.90566
 C1261 C 0.23199 0.12618 0.88019
 C1262 C 0.21452 0.09839 0.88242
 C1263 C 0.23013 0.14521 0.85322
 C1264 C 0.24679 0.17364 0.85202
 C1265 C 0.26563 0.18262 0.87773
 C1266 C 0.26815 0.16354 0.90417
 H1267 H 0.26951 0.12332 0.95126
 H1268 H 0.19899 0.09125 0.86344
 H1269 H 0.21533 0.13830 0.83357
 H1270 H 0.28306 0.17094 0.92355
 H1271 H 0.20152 0.05928 0.91113
 H1272 H 0.27884 0.20434 0.87720
 C1273 C 0.79314 0.61378 0.44398
 C1274 C 0.76700 0.59393 0.44836
 C1275 C 0.74153 0.59533 0.42710
 C1276 C 0.74222 0.61649 0.40175
 C1277 C 0.76831 0.63700 0.39825
 C1278 C 0.79376 0.63522 0.41925
 C1279 C 0.76835 0.65928 0.37406
 C1280 C 0.74314 0.66078 0.35276
 C1281 C 0.71779 0.63978 0.35551
 C1282 C 0.71715 0.61795 0.38010
 H1283 H 0.72107 0.58044 0.43069
 H1284 H 0.81397 0.65064 0.41678
 H1285 H 0.78801 0.67545 0.37169
 H1286 H 0.69704 0.60236 0.38228
 H1287 H 0.81287 0.61311 0.46026
 H1288 H 0.69816 0.64085 0.33913
 C1289 C 0.70629 0.07197 0.11170
 C1290 C 0.73279 0.06549 0.09273
 C1291 C 0.75933 0.08530 0.09405
 C1292 C 0.75934 0.11138 0.11418
 C1293 C 0.73282 0.11708 0.13383
 C1294 C 0.70632 0.09749 0.13215
 C1295 C 0.73352 0.14185 0.15538
 C1296 C 0.76006 0.16137 0.15716
 C1297 C 0.78585 0.15652 0.13689
 C1298 C 0.78560 0.13149 0.11561
 H1299 H 0.78003 0.08004 0.07983
 H1300 H 0.68580 0.10164 0.14696
 H1301 H 0.71363 0.14576 0.17115
 H1302 H 0.80605 0.12759 0.10064
 H1303 H 0.68576 0.05679 0.11108
 H1304 H 0.80654 0.17143 0.13830
 C1305 C 0.21326 0.57803 0.57391
 C1306 C 0.24046 0.55909 0.57486
 C1307 C 0.26491 0.56663 0.59594
 C1308 C 0.26224 0.59262 0.61595
 C1309 C 0.23509 0.61198 0.61437
 C1310 C 0.21083 0.60457 0.59309
 C1311 C 0.23227 0.63774 0.63483
 C1312 C 0.25565 0.64344 0.65761
 C1313 C 0.28240 0.62401 0.65907
 C1314 C 0.28592 0.59907 0.63811
 H1315 H 0.28572 0.55180 0.59716
 H1316 H 0.18966 0.61886 0.59183
 H1317 H 0.21139 0.65249 0.63398
 H1318 H 0.30680 0.58441 0.63972
 H1319 H 0.19379 0.57209 0.55844
 H1320 H 0.30062 0.62818 0.67653
 C1321 C 0.76701 0.92456 0.92944
 C1322 C 0.74487 0.94808 0.92223
 C1323 C 0.72578 0.94467 0.89538
 C1324 C 0.72885 0.91837 0.87585
 C1325 C 0.75073 0.89450 0.88356
 C1326 C 0.76959 0.89779 0.91056
 C1327 C 0.75373 0.86818 0.86378
 C1328 C 0.73586 0.86612 0.83591
 C1329 C 0.71447 0.89021 0.82847
 C1330 C 0.71075 0.91589 0.84838
 H1331 H 0.70884 0.96280 0.88946
 H1332 H 0.78674 0.87996 0.91672
 H1333 H 0.77048 0.84983 0.86954
 H1334 H 0.69396 0.93402 0.84208
 H1335 H 0.78251 0.92709 0.94959
 H1336 H 0.70029 0.88900 0.80726
 C1337 C 0.21500 0.43596 0.38345
 C1338 C 0.24062 0.44096 0.40393
 C1339 C 0.26555 0.41907 0.40456
 C1340 C 0.26442 0.39214 0.38550
 C1341 C 0.23885 0.38795 0.36444
 C1342 C 0.21422 0.40989 0.36372
 C1343 C 0.23855 0.36217 0.34404
 C1344 C 0.26293 0.33991 0.34500
 C1345 C 0.28753 0.34330 0.36689
 C1346 C 0.28848 0.36946 0.38679
 H1347 H 0.28575 0.42308 0.41976
 H1348 H 0.19440 0.40692 0.34782
 H1349 H 0.21947 0.35947 0.32716
 H1350 H 0.30814 0.37210 0.40294
 H1351 H 0.19566 0.45260 0.38249
 H1352 H 0.30658 0.32636 0.36772
 C1353 C 0.27281 0.92633 0.07360
 C1354 C 0.24996 0.91905 0.05068
 C1355 C 0.23052 0.89277 0.05509
 C1356 C 0.23387 0.87391 0.08192
 C1357 C 0.25655 0.88169 0.10516
 C1358 C 0.27578 0.90809 0.10081
 C1359 C 0.26008 0.86250 0.13187
 C1360 C 0.24197 0.83510 0.13494
 C1361 C 0.21956 0.82766 0.11166
 C1362 C 0.21532 0.84702 0.08558
 H1363 H 0.21307 0.88680 0.03735
 H1364 H 0.29351 0.91429 0.11814
 H1365 H 0.27754 0.86826 0.14965
 H1366 H 0.19786 0.84070 0.06801
 H1367 H 0.28855 0.94606 0.07027
 H1368 H 0.20512 0.80681 0.11376
 C1369 C 0.78491 0.39613 0.56008
 C1370 C 0.76274 0.42063 0.56161
 C1371 C 0.74377 0.42382 0.58880
 C1372 C 0.74709 0.40275 0.61411
 C1373 C 0.76867 0.37758 0.61157
 C1374 C 0.78769 0.37469 0.58466
 C1375 C 0.77052 0.35527 0.63567
 C1376 C 0.75165 0.35797 0.66286
 C1377 C 0.73162 0.38403 0.66615
 C1378 C 0.72898 0.40601 0.64176
 H1379 H 0.72626 0.44234 0.59002
 H1380 H 0.80453 0.35567 0.58247
 H1381 H 0.78650 0.33554 0.63316
 H1382 H 0.71261 0.42537 0.64440
 H1383 H 0.79975 0.39325 0.53942
 H1384 H 0.71726 0.38685 0.68709
 C1385 C 0.08822 0.07216 0.72993
 C1386 C 0.06142 0.08162 0.74753
 C1387 C 0.06324 0.11002 0.76442
 C1388 C 0.09048 0.12868 0.76326
 C1389 C 0.11712 0.11881 0.74566
 C1390 C 0.11584 0.09029 0.72939
 C1391 C 0.14407 0.13817 0.74383
 C1392 C 0.14402 0.16769 0.75850
 C1393 C 0.11742 0.17700 0.77605
 C1394 C 0.09108 0.15757 0.77878
 H1395 H 0.04334 0.11774 0.77864
 H1396 H 0.13583 0.08249 0.71537
 H1397 H 0.16441 0.13092 0.72998
 H1398 H 0.07086 0.16552 0.79237
 H1399 H 0.08746 0.05138 0.71535
 H1400 H 0.11698 0.19950 0.78762
 C1401 C 0.55920 0.61177 0.29767
 C1402 C 0.55755 0.58987 0.27302
 C1403 C 0.58174 0.58914 0.25017
 C1404 C 0.60734 0.60998 0.25202
 C1405 C 0.60809 0.63261 0.27633
 C1406 C 0.58415 0.63308 0.29923
 C1407 C 0.63236 0.65488 0.27692
 C1408 C 0.65632 0.65440 0.25399
 C1409 C 0.65647 0.63098 0.23085
 C1410 C 0.63190 0.60905 0.22966
 H1411 H 0.58031 0.57272 0.23074
 H1412 H 0.58452 0.65015 0.31812
 H1413 H 0.63249 0.67287 0.29498
 H1414 H 0.63186 0.59170 0.21104
 H1415 H 0.54075 0.61272 0.31543
 H1416 H 0.67486 0.63045 0.21302
 C1417 C 0.08590 0.91993 0.28815
 C1418 C 0.08897 0.94242 0.26422
 C1419 C 0.11051 0.93732 0.23951
 C1420 C 0.12849 0.90977 0.23837
 C1421 C 0.12452 0.88674 0.26201
 C1422 C 0.10319 0.89208 0.28682
 C1423 C 0.14255 0.85916 0.26083
 C1424 C 0.16530 0.85499 0.23705
 C1425 C 0.16927 0.87805 0.21384
 C1426 C 0.15070 0.90506 0.21423
 H1427 H 0.11324 0.95489 0.22127
 H1428 H 0.10015 0.87490 0.30535
 H1429 H 0.13986 0.84157 0.27905
 H1430 H 0.15412 0.92251 0.19602
 H1431 H 0.06983 0.92387 0.30769
 H1432 H 0.18684 0.87512 0.19541
 C1433 C 0.61358 0.44148 0.70618
 C1434 C 0.58928 0.44283 0.72880
 C1435 C 0.58487 0.41742 0.74948
 C1436 C 0.60492 0.39118 0.74786
 C1437 C 0.62994 0.39071 0.72567
 C1438 C 0.63376 0.41568 0.70463
 C1439 C 0.65152 0.36585 0.72565
 C1440 C 0.64860 0.34137 0.74743
 C1441 C 0.62282 0.34095 0.76832
 C1442 C 0.60113 0.36581 0.76863
 H1443 H 0.56641 0.41850 0.76725
 H1444 H 0.65276 0.41555 0.68740
 H1445 H 0.67123 0.36590 0.70928
 H1446 H 0.58197 0.36564 0.78566
 H1447 H 0.61730 0.46078 0.69007
 H1448 H 0.62039 0.32224 0.78535
 C1449 C 0.89584 0.06197 0.28946
 C1450 C 0.91773 0.05955 0.26466
 C1451 C 0.92015 0.08385 0.24244
 C1452 C 0.90114 0.11066 0.24540
 C1453 C 0.87875 0.11244 0.27017
 C1454 C 0.87640 0.08814 0.29215
 C1455 C 0.85840 0.13810 0.27213
 C1456 C 0.86022 0.16232 0.24998
 C1457 C 0.88339 0.16139 0.22628
 C1458 C 0.90366 0.13553 0.22386
 H1459 H 0.93670 0.08178 0.22298
 H1460 H 0.85938 0.08927 0.31127
 H1461 H 0.84053 0.13897 0.29054
 H1462 H 0.92083 0.13468 0.20486
 H1463 H 0.89366 0.04335 0.30665
 H1464 H 0.88481 0.17990 0.20891
 C1465 C 0.39644 0.55644 0.77587
 C1466 C 0.41737 0.55776 0.75015
 C1467 C 0.41736 0.58424 0.73050
 C1468 C 0.39627 0.60901 0.73635
 C1469 C 0.37448 0.60678 0.76163
 C1470 C 0.37511 0.58068 0.78154
 C1471 C 0.35170 0.63018 0.76600
 C1472 C 0.35064 0.65610 0.74581
 C1473 C 0.37330 0.65910 0.72174
 C1474 C 0.39585 0.63556 0.71687
 H1475 H 0.43313 0.58510 0.71031
 H1476 H 0.35868 0.57873 0.80109
 H1477 H 0.33430 0.62795 0.78472
 H1478 H 0.41247 0.63778 0.69751
 H1479 H 0.39608 0.53611 0.79110
 H1480 H 0.37261 0.67891 0.70585
 C1481 C 0.93667 0.89528 0.70379
 C1482 C 0.93849 0.91705 0.72855
 C1483 C 0.91271 0.92001 0.74948
 C1484 C 0.88538 0.90164 0.74548
 C1485 C 0.88442 0.87910 0.72110
 C1486 C 0.91001 0.87634 0.70021
 C1487 C 0.85832 0.85899 0.71861
 C1488 C 0.83278 0.86148 0.73971
 C1489 C 0.83300 0.88502 0.76277
 C1490 C 0.85926 0.90482 0.76582
 H1491 H 0.91415 0.93630 0.76902
 H1492 H 0.90956 0.85929 0.68131
 H1493 H 0.85820 0.84078 0.70079
 H1494 H 0.85945 0.92211 0.78450
 H1495 H 0.95626 0.89259 0.68748
 H1496 H 0.81365 0.88698 0.77946
 C1497 C 0.42843 0.42115 0.21758
 C1498 C 0.44844 0.41715 0.24367
 C1499 C 0.44089 0.39479 0.26659
 C1500 C 0.41344 0.37663 0.26373
 C1501 C 0.39309 0.38090 0.23757
 C1502 C 0.40083 0.40329 0.21463
 C1503 C 0.36591 0.36211 0.23446
 C1504 C 0.35960 0.33870 0.25675
 C1505 C 0.37978 0.33488 0.28270
 C1506 C 0.40629 0.35390 0.28637
 H1507 H 0.45641 0.39167 0.28669
 H1508 H 0.38570 0.40680 0.19435
 H1509 H 0.35060 0.36465 0.21413
 H1510 H 0.42162 0.35031 0.30651
 H1511 H 0.43413 0.43830 0.19966
 H1512 H 0.37525 0.31668 0.29989
   
