data_POSCAR
  _audit_creation_date              2014-09-24
  _audit_creation_method            'ToBaCCo'
  _symmetry_space_group_name_H-M    'P1'
  _symmetry_Int_Tables_number       1
  _symmetry_cell_setting            triclinic
  loop_
  _symmetry_equiv_pos_as_xyz
 x,y,z
_cell_length_a 62.3093
_cell_length_b 62.3656
_cell_length_c 62.4136
_cell_angle_alpha 89.983100
_cell_angle_beta 90.045800
_cell_angle_gamma 90.010300
loop_
  _atom_site_label
  _atom_site_type_symbol
  _atom_site_fract_x
  _atom_site_fract_y
  _atom_site_fract_z
O1 O 0.37571 0.34676 -0.02143
 O2 O 0.34625 0.37613 0.02053
 O3 O 0.37588 0.34659 0.02036
 O4 O 0.34606 0.37629 -0.02125
 O5 O 0.32103 0.35116 -0.02122
 O6 O 0.35079 0.32151 0.02031
 O7 O 0.32121 0.35099 0.02049
 O8 O 0.35063 0.32168 -0.02140
 Cu9 Cu 0.36350 0.36398 -0.00045
 Cu10 Cu 0.33339 0.33381 -0.00046
 C11 C 0.36814 0.32925 -0.02848
 C12 C 0.32874 0.36851 0.02758
 C13 C 0.36836 0.32902 0.02735
 C14 C 0.32849 0.36873 -0.02825
 O15 O 0.63097 0.65995 -0.02139
 O16 O 0.66047 0.63053 0.02044
 O17 O 0.63090 0.66010 0.02026
 O18 O 0.66050 0.63033 -0.02122
 O19 O 0.68563 0.65537 -0.02128
 O20 O 0.65603 0.68515 0.02019
 O21 O 0.68559 0.65559 0.02036
 O22 O 0.65612 0.68499 -0.02144
 Cu23 Cu 0.64317 0.64269 -0.00047
 Cu24 Cu 0.67338 0.67280 -0.00055
 C25 C 0.63853 0.67748 -0.02841
 C26 C 0.67805 0.63807 0.02740
 C27 C 0.63843 0.67769 0.02717
 C28 C 0.67811 0.63778 -0.02819
 O29 O 0.65596 0.37399 0.98059
 O30 O 0.62751 0.34388 1.02267
 O31 O 0.65633 0.37423 1.02241
 O32 O 0.62720 0.34363 0.98104
 O33 O 0.65297 0.31925 0.98102
 O34 O 0.68205 0.34981 1.02234
 O35 O 0.65328 0.31949 1.02261
 O36 O 0.68168 0.34957 0.98058
 Cu37 Cu 0.63918 0.36143 1.00169
 Cu38 Cu 0.67012 0.33210 1.00164
 C39 C 0.67360 0.36682 0.97345
 C40 C 0.63553 0.32653 1.02963
 C41 C 0.67412 0.36717 1.02938
 C42 C 0.63513 0.32622 0.97412
 O43 O 0.34304 0.62723 0.97846
 O44 O 0.37325 0.65567 1.02050
 O45 O 0.34287 0.62690 1.02009
 O46 O 0.37340 0.65604 0.97869
 O47 O 0.34893 0.68172 0.97881
 O48 O 0.31844 0.65262 1.02016
 O49 O 0.34878 0.68135 1.02057
 O50 O 0.31860 0.65295 0.97857
 Cu51 Cu 0.36064 0.63889 0.99942
 Cu52 Cu 0.33126 0.66978 0.99953
 C53 C 0.32566 0.63523 0.97152
 C54 C 0.36608 0.67330 1.02765
 C55 C 0.32544 0.63479 1.02703
 C56 C 0.36629 0.67380 0.97175
 O57 O -0.02070 0.37225 0.34290
 O58 O 0.02150 0.34383 0.37293
 O59 O 0.02100 0.37282 0.34280
 O60 O -0.02039 0.34314 0.37290
 O61 O -0.02002 0.31768 0.34825
 O62 O 0.02130 0.34730 0.31821
 O63 O 0.02181 0.31835 0.34829
 O64 O -0.02035 0.34675 0.31828
 Cu65 Cu 0.00032 0.36056 0.36040
 Cu66 Cu 0.00072 0.32992 0.33081
 C67 C -0.02755 0.36435 0.32547
 C68 C 0.02880 0.32631 0.36565
 C69 C 0.02805 0.36511 0.32536
 C70 C -0.02722 0.32541 0.36562
 O71 O 0.01950 0.65516 0.62602
 O72 O -0.02221 0.62465 0.65466
 O73 O -0.02227 0.65479 0.62575
 O74 O 0.01966 0.62494 0.65498
 O75 O 0.01929 0.64952 0.68050
 O76 O -0.02258 0.67932 0.65132
 O77 O -0.02252 0.64923 0.68018
 O78 O 0.01913 0.67970 0.65159
 Cu79 Cu -0.00127 0.63739 0.63778
 Cu80 Cu -0.00168 0.66690 0.66849
 C81 C 0.02628 0.67264 0.63393
 C82 C -0.02943 0.63184 0.67224
 C83 C -0.02948 0.67212 0.63360
 C84 C 0.02653 0.63219 0.67270
 O85 O 0.98071 0.65517 0.37547
 O86 O 1.02192 0.62488 0.34581
 O87 O 1.02248 0.65442 0.37534
 O88 O 0.98005 0.62539 0.34607
 O89 O 0.98031 0.65041 0.32096
 O90 O 1.02270 0.67941 0.35020
 O91 O 1.02211 0.64992 0.32072
 O92 O 0.98098 0.68014 0.35031
 Cu93 Cu 1.00125 0.63743 0.36320
 Cu94 Cu 1.00153 0.66747 0.33300
 C95 C 0.97397 0.67282 0.36792
 C96 C 1.02899 0.63233 0.32826
 C97 C 1.02973 0.67184 0.36772
 C98 C 0.97304 0.63300 0.32856
 O99 O 0.97868 0.33988 0.62953
 O100 O 1.02019 0.36911 0.65975
 O101 O 1.02041 0.33989 0.62987
 O102 O 0.97846 0.36915 0.65939
 O103 O 0.97827 0.34379 0.68417
 O104 O 1.02020 0.31455 0.65466
 O105 O 1.01997 0.34374 0.68453
 O106 O 0.97849 0.31454 0.65433
 Cu107 Cu 0.99945 0.35707 0.64213
 Cu108 Cu 0.99921 0.32660 0.67192
 C109 C 0.97165 0.32223 0.63679
 C110 C 1.02702 0.36139 0.67728
 C111 C 1.02733 0.32224 0.63724
 C112 C 0.97135 0.36145 0.67681
 O113 O 0.33999 -0.02120 0.37023
 O114 O 0.36927 0.02042 0.34027
 O115 O 0.34002 0.02050 0.37014
 O116 O 0.36930 -0.02127 0.34041
 O117 O 0.34393 -0.02133 0.31561
 O118 O 0.31466 0.02043 0.34533
 O119 O 0.34389 0.02034 0.31547
 O120 O 0.31464 -0.02125 0.34541
 Cu121 Cu 0.35721 -0.00038 0.35777
 Cu122 Cu 0.32672 -0.00046 0.32795
 C123 C 0.32233 -0.02818 0.36291
 C124 C 0.36156 0.02733 0.32277
 C125 C 0.32236 0.02745 0.36279
 C126 C 0.36160 -0.02828 0.32295
 O127 O 0.65530 -0.01962 0.62490
 O128 O 0.62500 0.02173 0.65436
 O129 O 0.65455 0.02212 0.62482
 O130 O 0.62549 -0.02010 0.65427
 O131 O 0.65053 -0.01973 0.67940
 O132 O 0.67958 0.02246 0.64997
 O133 O 0.65006 0.02204 0.67946
 O134 O 0.68029 -0.01922 0.65008
 Cu135 Cu 0.63755 0.00098 0.63707
 Cu136 Cu 0.66762 0.00141 0.66727
 C137 C 0.67297 -0.02632 0.63250
 C138 C 0.63246 0.02888 0.67188
 C139 C 0.67200 0.02938 0.63240
 C140 C 0.63309 -0.02703 0.67182
 O141 O 0.34397 1.02171 0.62701
 O142 O 0.37250 0.97957 0.65699
 O143 O 0.34343 0.97986 0.62690
 O144 O 0.37296 1.02123 0.65715
 O145 O 0.34738 1.02141 0.68171
 O146 O 0.31791 0.98010 0.65150
 O147 O 0.34693 0.97980 0.68155
 O148 O 0.31844 1.02190 0.65160
 Cu149 Cu 0.36077 1.00057 0.63950
 Cu150 Cu 0.33006 1.00082 0.66903
 C151 C 0.32640 1.02895 0.63428
 C152 C 0.36458 0.97267 0.67439
 C153 C 0.32570 0.97297 0.63414
 C154 C 0.36519 1.02822 0.67459
 O155 O 0.62520 0.97835 0.34526
 O156 O 0.65593 1.01996 0.37386
 O157 O 0.62561 1.02018 0.34497
 O158 O 0.65539 0.97823 0.37418
 O159 O 0.67991 0.97781 0.34859
 O160 O 0.65016 1.01971 0.31941
 O161 O 0.68044 1.01948 0.34826
 O162 O 0.64977 0.97794 0.31972
 Cu163 Cu 0.63804 0.99924 0.36214
 Cu164 Cu 0.66752 0.99871 0.33140
 C165 C 0.63234 0.97110 0.32767
 C166 C 0.67343 1.02667 0.36592
 C167 C 0.63286 1.02701 0.32724
 C168 C 0.67270 0.97096 0.36632
 C169 C 0.81239 0.81218 0.51152
 C170 C 0.81272 0.81190 0.48966
 C171 C 0.82830 0.79848 0.47763
 C172 C 0.79794 0.82544 0.47672
 C173 C 0.79898 0.82776 0.52355
 C174 C 0.82584 0.79731 0.52445
 C175 C 0.85044 0.80023 0.48144
 C176 C 0.86492 0.78722 0.47037
 C177 C 0.85756 0.77238 0.45508
 C178 C 0.83540 0.77101 0.45097
 C179 C 0.82093 0.78399 0.46209
 C180 C 0.80631 0.83933 0.46114
 C181 C 0.79272 0.85278 0.44947
 C182 C 0.77044 0.85253 0.45305
 C183 C 0.76203 0.83821 0.46830
 C184 C 0.77564 0.82470 0.47993
 C185 C 0.78439 0.82043 0.53900
 C186 C 0.77139 0.83491 0.55008
 C187 C 0.77284 0.85705 0.54601
 C188 C 0.78781 0.86438 0.53083
 C189 C 0.80084 0.84989 0.51980
 C190 C 0.82503 0.77504 0.52115
 C191 C 0.83851 0.76136 0.53272
 C192 C 0.85287 0.76965 0.54801
 C193 C 0.85319 0.79189 0.55170
 C194 C 0.83976 0.80556 0.54008
 H195 H 0.85649 0.81167 0.49302
 H196 H 0.88191 0.78895 0.47359
 H197 H 0.82922 0.75962 0.43942
 H198 H 0.80391 0.78249 0.45886
 H199 H 0.82345 0.84011 0.45839
 H200 H 0.79971 0.86377 0.43800
 H201 H 0.76881 0.81377 0.49156
 H202 H 0.78281 0.80342 0.54219
 H203 H 0.75990 0.82876 0.56155
 H204 H 0.78960 0.88135 0.52765
 H205 H 0.81237 0.85591 0.50830
 H206 H 0.81407 0.76830 0.50948
 H207 H 0.83763 0.74427 0.52979
 H208 H 0.86422 0.79880 0.56320
 H209 H 0.84061 0.82268 0.54290
 H210 H 0.74491 0.83738 0.47115
 C211 C 0.18961 0.19042 0.51151
 C212 C 0.18989 0.19011 0.48967
 C213 C 0.17628 0.20481 0.47677
 C214 C 0.20320 0.17449 0.47758
 C215 C 0.20438 0.17687 0.52440
 C216 C 0.17396 0.20369 0.52361
 C217 C 0.16246 0.19636 0.46116
 C218 C 0.14900 0.20985 0.44943
 C219 C 0.14917 0.23210 0.45300
 C220 C 0.16338 0.24060 0.46831
 C221 C 0.17692 0.22708 0.48000
 C222 C 0.20122 0.15237 0.48125
 C223 C 0.21375 0.13782 0.46974
 C224 C 0.22831 0.14510 0.45415
 C225 C 0.23001 0.16725 0.45029
 C226 C 0.21751 0.18179 0.46186
 C227 C 0.22667 0.17756 0.52113
 C228 C 0.24025 0.16400 0.53272
 C229 C 0.23180 0.14972 0.54798
 C230 C 0.20954 0.14952 0.55162
 C231 C 0.19598 0.16300 0.53998
 C232 C 0.18124 0.21802 0.53932
 C233 C 0.16667 0.23051 0.55086
 C234 C 0.14450 0.22878 0.54699
 C235 C 0.13723 0.21418 0.53142
 C236 C 0.15182 0.20166 0.51993
 H237 H 0.16175 0.17922 0.45841
 H238 H 0.13807 0.20281 0.43792
 H239 H 0.16410 0.25771 0.47116
 H240 H 0.18779 0.23396 0.49167
 H241 H 0.18988 0.14638 0.49295
 H242 H 0.21178 0.12084 0.47278
 H243 H 0.21916 0.19880 0.45872
 H244 H 0.23350 0.18847 0.50948
 H245 H 0.25737 0.16475 0.52983
 H246 H 0.20254 0.13854 0.56309
 H247 H 0.17884 0.16225 0.54276
 H248 H 0.19826 0.21970 0.54246
 H249 H 0.17276 0.24173 0.56261
 H250 H 0.12024 0.21219 0.52837
 H251 H 0.14584 0.19031 0.50824
 H252 H 0.24121 0.17336 0.43853
 C253 C 0.18795 0.81114 0.49021
 C254 C 0.18764 0.81126 0.51206
 C255 C 0.17212 0.79801 0.52431
 C256 C 0.20230 0.82516 0.52475
 C257 C 0.20127 0.82655 0.47787
 C258 C 0.17441 0.79615 0.47752
 C259 C 0.14997 0.79975 0.52055
 C260 C 0.13552 0.78685 0.53179
 C261 C 0.14294 0.77214 0.54719
 C262 C 0.16510 0.77082 0.55128
 C263 C 0.17954 0.78370 0.53998
 C264 C 0.19378 0.83922 0.54008
 C265 C 0.20723 0.85300 0.55153
 C266 C 0.22951 0.85292 0.54797
 C267 C 0.23807 0.83845 0.53296
 C268 C 0.22461 0.82460 0.52155
 C269 C 0.21577 0.81897 0.46247
 C270 C 0.22844 0.83331 0.45083
 C271 C 0.22671 0.85552 0.45428
 C272 C 0.21191 0.86308 0.46950
 C273 C 0.19921 0.84873 0.48109
 C274 C 0.17514 0.77392 0.48110
 C275 C 0.16172 0.76014 0.46957
 C276 C 0.14753 0.76831 0.45404
 C277 C 0.14724 0.79051 0.45016
 C278 C 0.16059 0.80427 0.46174
 H279 H 0.14390 0.81107 0.50887
 H280 H 0.11853 0.78853 0.52859
 H281 H 0.17130 0.75953 0.56292
 H282 H 0.19656 0.78222 0.54318
 H283 H 0.17663 0.83988 0.54281
 H284 H 0.20011 0.86410 0.56281
 H285 H 0.23156 0.81355 0.51012
 H286 H 0.21748 0.80191 0.45969
 H287 H 0.23982 0.82700 0.43934
 H288 H 0.20992 0.88011 0.47222
 H289 H 0.18773 0.85491 0.49255
 H290 H 0.18601 0.76728 0.49290
 H291 H 0.16254 0.74308 0.47267
 H292 H 0.13633 0.79732 0.43849
 H293 H 0.15980 0.82135 0.45871
 H294 H 0.25520 0.83776 0.53013
 C295 C 0.81204 0.18733 0.48645
 C296 C 0.81190 0.18766 0.50830
 C297 C 0.82722 0.20107 0.52066
 C298 C 0.79694 0.17409 0.52097
 C299 C 0.79883 0.17176 0.47418
 C300 C 0.82590 0.20203 0.47377
 C301 C 0.84944 0.19914 0.51750
 C302 C 0.86371 0.21187 0.52917
 C303 C 0.85603 0.22659 0.54441
 C304 C 0.83378 0.22821 0.54779
 C305 C 0.81952 0.21550 0.53607
 C306 C 0.80511 0.16035 0.53680
 C307 C 0.79139 0.14703 0.54843
 C308 C 0.76916 0.14725 0.54457
 C309 C 0.76094 0.16134 0.52898
 C310 C 0.77469 0.17473 0.51740
 C311 C 0.78446 0.17912 0.45852
 C312 C 0.77157 0.16464 0.44728
 C313 C 0.77292 0.14251 0.45142
 C314 C 0.78771 0.13517 0.46679
 C315 C 0.80063 0.14964 0.47797
 C316 C 0.82524 0.22432 0.47697
 C317 C 0.83907 0.23783 0.46561
 C318 C 0.85364 0.22933 0.45065
 C319 C 0.85382 0.20707 0.44708
 C320 C 0.84005 0.19358 0.45848
 H321 H 0.85572 0.18772 0.50604
 H322 H 0.88077 0.20998 0.52652
 H323 H 0.82737 0.23952 0.55928
 H324 H 0.80243 0.21712 0.53880
 H325 H 0.82222 0.15962 0.53983
 H326 H 0.79824 0.13619 0.56014
 H327 H 0.76800 0.18554 0.50556
 H328 H 0.78295 0.19612 0.45531
 H329 H 0.76022 0.17079 0.43566
 H330 H 0.78942 0.11819 0.47002
 H331 H 0.81199 0.14362 0.48965
 H332 H 0.81412 0.23122 0.48837
 H333 H 0.83830 0.25494 0.46845
 H334 H 0.86499 0.20001 0.43584
 H335 H 0.84079 0.17645 0.45575
 H336 H 0.74385 0.16211 0.52589
 C337 C 0.51135 0.81238 0.81132
 C338 C 0.48946 0.81237 0.81142
 C339 C 0.47696 0.82771 0.79819
 C340 C 0.47693 0.79758 0.82532
 C341 C 0.52387 0.79918 0.82667
 C342 C 0.52387 0.82619 0.79644
 C343 C 0.48032 0.84989 0.80003
 C344 C 0.46877 0.86417 0.78722
 C345 C 0.45346 0.85654 0.77252
 C346 C 0.44979 0.83434 0.77108
 C347 C 0.46140 0.82007 0.78386
 C348 C 0.46140 0.80593 0.83927
 C349 C 0.44994 0.79238 0.85293
 C350 C 0.45370 0.77015 0.85283
 C351 C 0.46897 0.76175 0.83852
 C352 C 0.48037 0.77533 0.82480
 C353 C 0.53941 0.78484 0.81904
 C354 C 0.55114 0.77218 0.83332
 C355 C 0.54763 0.77377 0.85551
 C356 C 0.53231 0.78845 0.86312
 C357 C 0.52063 0.80113 0.84883
 C358 C 0.52035 0.82556 0.77422
 C359 C 0.53173 0.83922 0.76056
 C360 C 0.54706 0.85356 0.76884
 C361 C 0.55090 0.85376 0.79104
 C362 C 0.53947 0.84018 0.80468
 H363 H 0.49192 0.85612 0.81137
 H364 H 0.47164 0.88120 0.78898
 H365 H 0.43822 0.82799 0.75979
 H366 H 0.45851 0.80301 0.78233
 H367 H 0.45847 0.82304 0.83992
 H368 H 0.43848 0.79937 0.86392
 H369 H 0.49197 0.76850 0.81383
 H370 H 0.54221 0.78322 0.80199
 H371 H 0.56271 0.76090 0.82697
 H372 H 0.52956 0.79032 0.88014
 H373 H 0.50906 0.81249 0.85505
 H374 H 0.50870 0.81457 0.76748
 H375 H 0.52867 0.83845 0.74350
 H376 H 0.56241 0.86479 0.79795
 H377 H 0.54246 0.84090 0.82176
 H378 H 0.47196 0.74467 0.83783
 C379 C 0.51045 0.18754 0.18792
 C380 C 0.48856 0.18765 0.18771
 C381 C 0.47591 0.17224 0.20070
 C382 C 0.47618 0.20268 0.17391
 C383 C 0.52308 0.20089 0.17281
 C384 C 0.52286 0.17356 0.20276
 C385 C 0.47921 0.15006 0.19872
 C386 C 0.46748 0.13571 0.21128
 C387 C 0.45204 0.14326 0.22586
 C388 C 0.44845 0.16546 0.22745
 C389 C 0.46023 0.17980 0.21492
 C390 C 0.46075 0.19460 0.15966
 C391 C 0.44954 0.20838 0.14601
 C392 C 0.45344 0.23059 0.14642
 C393 C 0.46857 0.23872 0.16104
 C394 C 0.47973 0.22491 0.17475
 C395 C 0.53853 0.21521 0.18069
 C396 C 0.55018 0.22817 0.16663
 C397 C 0.54668 0.22692 0.14441
 C398 C 0.53150 0.21221 0.13654
 C399 C 0.51990 0.19922 0.15060
 C400 C 0.51921 0.17398 0.22497
 C401 C 0.53056 0.16024 0.23859
 C402 C 0.54598 0.14601 0.23030
 C403 C 0.54992 0.14600 0.20812
 C404 C 0.53852 0.15968 0.19452
 H405 H 0.49089 0.14389 0.18746
 H406 H 0.47030 0.11868 0.20941
 H407 H 0.43679 0.17176 0.23865
 H408 H 0.45739 0.19686 0.21656
 H409 H 0.45774 0.17752 0.15876
 H410 H 0.43817 0.20158 0.13478
 H411 H 0.49125 0.23154 0.18594
 H412 H 0.54127 0.21662 0.19777
 H413 H 0.56164 0.23947 0.17317
 H414 H 0.52876 0.21059 0.11948
 H415 H 0.50840 0.18789 0.14419
 H416 H 0.50752 0.18489 0.23172
 H417 H 0.52742 0.16087 0.25564
 H418 H 0.56150 0.13508 0.20121
 H419 H 0.54162 0.15911 0.17746
 H420 H 0.47167 0.25578 0.16198
 C421 C 0.48978 0.18871 0.81225
 C422 C 0.51168 0.18881 0.81250
 C423 C 0.52439 0.17527 0.79757
 C424 C 0.52396 0.20199 0.82811
 C425 C 0.47706 0.20366 0.82576
 C426 C 0.47749 0.17325 0.79891
 C427 C 0.53988 0.16114 0.80573
 C428 C 0.55124 0.14759 0.79200
 C429 C 0.54742 0.14801 0.76980
 C430 C 0.53229 0.16260 0.76159
 C431 C 0.52098 0.17620 0.77534
 C432 C 0.52020 0.20015 0.85021
 C433 C 0.53153 0.21291 0.86473
 C434 C 0.54704 0.22758 0.85745
 C435 C 0.55110 0.22903 0.83534
 C436 C 0.53971 0.21630 0.82082
 C437 C 0.48059 0.22589 0.82499
 C438 C 0.46916 0.23965 0.83847
 C439 C 0.45379 0.23147 0.85278
 C440 C 0.44988 0.20926 0.85307
 C441 C 0.46136 0.19552 0.83965
 C442 C 0.46189 0.18074 0.78453
 C443 C 0.45045 0.16637 0.77170
 C444 C 0.45431 0.14419 0.77311
 C445 C 0.46969 0.13671 0.78783
 C446 C 0.48107 0.15110 0.80069
 H447 H 0.54278 0.16020 0.82282
 H448 H 0.56262 0.13639 0.79883
 H449 H 0.52927 0.16355 0.74453
 H450 H 0.50942 0.18732 0.76868
 H451 H 0.50846 0.18883 0.85620
 H452 H 0.52834 0.21111 0.88169
 H453 H 0.54292 0.21787 0.80384
 H454 H 0.49232 0.23255 0.81405
 H455 H 0.47226 0.25672 0.83763
 H456 H 0.43831 0.20244 0.86407
 H457 H 0.45836 0.17843 0.84046
 H458 H 0.45882 0.19777 0.78301
 H459 H 0.43884 0.17263 0.76040
 H460 H 0.47272 0.11971 0.78959
 H461 H 0.49269 0.14496 0.81205
 H462 H 0.56281 0.24030 0.82922
 C463 C 0.48875 0.81060 0.18889
 C464 C 0.51063 0.81048 0.18883
 C465 C 0.52327 0.82406 0.20379
 C466 C 0.52301 0.79737 0.17328
 C467 C 0.47608 0.79581 0.17515
 C468 C 0.47638 0.82605 0.20214
 C469 C 0.53885 0.83810 0.19565
 C470 C 0.55026 0.85160 0.20939
 C471 C 0.54639 0.85124 0.23157
 C472 C 0.53113 0.83679 0.23976
 C473 C 0.51977 0.82322 0.22600
 C474 C 0.51950 0.79942 0.15115
 C475 C 0.53119 0.78699 0.13666
 C476 C 0.54681 0.77246 0.14401
 C477 C 0.55054 0.77073 0.16617
 C478 C 0.53879 0.78313 0.18065
 C479 C 0.47953 0.77356 0.17575
 C480 C 0.46805 0.75996 0.16212
 C481 C 0.45272 0.76835 0.14784
 C482 C 0.44894 0.79057 0.14770
 C483 C 0.46047 0.80414 0.16126
 C484 C 0.46062 0.81855 0.21631
 C485 C 0.44893 0.83293 0.22887
 C486 C 0.45268 0.85512 0.22737
 C487 C 0.46827 0.86259 0.21290
 C488 C 0.47991 0.84820 0.20031
 H489 H 0.54181 0.83897 0.17857
 H490 H 0.56173 0.86271 0.20258
 H491 H 0.52807 0.83591 0.25681
 H492 H 0.50813 0.81218 0.23264
 H493 H 0.50776 0.81071 0.14511
 H494 H 0.52825 0.78898 0.11968
 H495 H 0.54181 0.78143 0.19766
 H496 H 0.49120 0.76676 0.18668
 H497 H 0.47105 0.74288 0.16283
 H498 H 0.43742 0.79753 0.13672
 H499 H 0.45755 0.82125 0.16057
 H500 H 0.45759 0.80151 0.21784
 H501 H 0.43716 0.82668 0.23999
 H502 H 0.47124 0.87961 0.21108
 H503 H 0.49165 0.85434 0.18908
 H504 H 0.56232 0.75955 0.17233
 C505 C 0.80984 0.51028 0.81091
 C506 C 0.81002 0.48842 0.81085
 C507 C 0.79531 0.47575 0.82465
 C508 C 0.82548 0.47608 0.79758
 C509 C 0.82338 0.52293 0.79594
 C510 C 0.79672 0.52264 0.82647
 C511 C 0.80374 0.46025 0.83859
 C512 C 0.79024 0.44879 0.85227
 C513 C 0.76800 0.45252 0.85219
 C514 C 0.75950 0.46772 0.83786
 C515 C 0.77303 0.47913 0.82411
 C516 C 0.84765 0.47967 0.79935
 C517 C 0.86205 0.46805 0.78674
 C518 C 0.85456 0.45244 0.77230
 C519 C 0.83236 0.44863 0.77085
 C520 C 0.81797 0.46030 0.78344
 C521 C 0.82252 0.51943 0.77373
 C522 C 0.83606 0.53080 0.75996
 C523 C 0.85049 0.54608 0.76814
 C524 C 0.85088 0.54995 0.79033
 C525 C 0.83741 0.53853 0.80407
 C526 C 0.78241 0.53835 0.81910
 C527 C 0.77002 0.55010 0.83359
 C528 C 0.77183 0.54644 0.85575
 C529 C 0.78642 0.53088 0.86309
 C530 C 0.79884 0.51919 0.84860
 H531 H 0.82088 0.45738 0.83923
 H532 H 0.79729 0.43736 0.86328
 H533 H 0.74240 0.47069 0.83721
 H534 H 0.76615 0.49072 0.81315
 H535 H 0.85380 0.49142 0.81056
 H536 H 0.87907 0.47105 0.78851
 H537 H 0.80092 0.45723 0.78194
 H538 H 0.81148 0.50777 0.76709
 H539 H 0.83517 0.52773 0.74291
 H540 H 0.86198 0.56144 0.79713
 H541 H 0.83830 0.54149 0.82115
 H542 H 0.78065 0.54132 0.80209
 H543 H 0.75879 0.56183 0.82743
 H544 H 0.78848 0.52799 0.88008
 H545 H 0.81019 0.50750 0.85463
 H546 H 0.82609 0.43685 0.75975
 C547 C 0.18862 0.51148 0.18732
 C548 C 0.18847 0.48960 0.18752
 C549 C 0.20337 0.47688 0.17396
 C550 C 0.17300 0.47732 0.20088
 C551 C 0.17510 0.52418 0.20227
 C552 C 0.20185 0.52376 0.17176
 C553 C 0.19516 0.46127 0.16001
 C554 C 0.20887 0.44982 0.14652
 C555 C 0.23110 0.45367 0.14680
 C556 C 0.23936 0.46895 0.16118
 C557 C 0.22563 0.48035 0.17473
 C558 C 0.15082 0.48094 0.19916
 C559 C 0.13644 0.46959 0.21205
 C560 C 0.14394 0.45419 0.22673
 C561 C 0.16613 0.45029 0.22807
 C562 C 0.18051 0.46170 0.21521
 C563 C 0.17605 0.52075 0.22450
 C564 C 0.16247 0.53207 0.23827
 C565 C 0.14790 0.54722 0.23009
 C566 C 0.14745 0.55105 0.20790
 C567 C 0.16097 0.53968 0.19414
 C568 C 0.21619 0.53946 0.17911
 C569 C 0.22894 0.55087 0.16465
 C570 C 0.22748 0.54690 0.14252
 C571 C 0.21279 0.53142 0.13517
 C572 C 0.20001 0.52006 0.14964
 H573 H 0.17805 0.45832 0.15920
 H574 H 0.20199 0.43833 0.13547
 H575 H 0.25644 0.47200 0.16202
 H576 H 0.23234 0.49201 0.18571
 H577 H 0.14466 0.49257 0.18783
 H578 H 0.11943 0.47266 0.21034
 H579 H 0.19755 0.45861 0.21668
 H580 H 0.18717 0.50918 0.23114
 H581 H 0.16344 0.52904 0.25532
 H582 H 0.13626 0.56245 0.20109
 H583 H 0.16002 0.54259 0.17706
 H584 H 0.21776 0.54261 0.19611
 H585 H 0.24022 0.56255 0.17082
 H586 H 0.21099 0.52829 0.11820
 H587 H 0.18867 0.50837 0.14360
 H588 H 0.17242 0.43868 0.23934
 C589 C 0.81215 0.48974 0.18884
 C590 C 0.81223 0.51161 0.18887
 C591 C 0.79915 0.52410 0.17340
 C592 C 0.82601 0.52413 0.20379
 C593 C 0.82746 0.47725 0.20212
 C594 C 0.79734 0.47722 0.17494
 C595 C 0.80121 0.52074 0.15126
 C596 C 0.78861 0.53237 0.13685
 C597 C 0.77392 0.54775 0.14430
 C598 C 0.77223 0.55138 0.16647
 C599 C 0.78479 0.53970 0.18088
 C600 C 0.84007 0.53967 0.19560
 C601 C 0.85365 0.55108 0.20928
 C602 C 0.85337 0.54727 0.23148
 C603 C 0.83895 0.53200 0.23972
 C604 C 0.82530 0.52064 0.22601
 C605 C 0.81977 0.46170 0.21641
 C606 C 0.83402 0.45004 0.22918
 C607 C 0.85625 0.45364 0.22775
 C608 C 0.86393 0.46896 0.21311
 C609 C 0.84967 0.48056 0.20031
 C610 C 0.77508 0.48075 0.17539
 C611 C 0.76148 0.46935 0.16166
 C612 C 0.76986 0.45401 0.14743
 C613 C 0.79209 0.45018 0.14741
 C614 C 0.80567 0.46162 0.16106
 H615 H 0.81258 0.50912 0.14516
 H616 H 0.79057 0.52952 0.11985
 H617 H 0.76093 0.56300 0.17269
 H618 H 0.78309 0.54258 0.19791
 H619 H 0.84087 0.54263 0.17852
 H620 H 0.86473 0.56254 0.20241
 H621 H 0.81425 0.50903 0.23272
 H622 H 0.80268 0.45885 0.21792
 H623 H 0.82763 0.43847 0.24043
 H624 H 0.88098 0.47177 0.21135
 H625 H 0.85594 0.49213 0.18899
 H626 H 0.76826 0.49241 0.18629
 H627 H 0.74438 0.47241 0.16229
 H628 H 0.79907 0.43865 0.13647
 H629 H 0.82278 0.45862 0.16047
 H630 H 0.83811 0.52897 0.25678
 C631 C 0.18718 0.48841 0.81278
 C632 C 0.18702 0.51028 0.81260
 C633 C 0.20030 0.52291 0.82779
 C634 C 0.17306 0.52266 0.79771
 C635 C 0.17178 0.47575 0.79975
 C636 C 0.20225 0.47605 0.82656
 C637 C 0.19860 0.51967 0.84998
 C638 C 0.21153 0.53126 0.86412
 C639 C 0.22623 0.54650 0.85634
 C640 C 0.22751 0.55007 0.83413
 C641 C 0.21460 0.53842 0.82000
 C642 C 0.15910 0.53828 0.80590
 C643 C 0.14542 0.54962 0.79225
 C644 C 0.14551 0.54566 0.77007
 C645 C 0.15981 0.53030 0.76183
 C646 C 0.17356 0.51900 0.77551
 C647 C 0.17938 0.46009 0.78554
 C648 C 0.16505 0.44830 0.77299
 C649 C 0.14282 0.45186 0.77454
 C650 C 0.13523 0.46729 0.78911
 C651 C 0.14957 0.47903 0.80169
 C652 C 0.22449 0.47967 0.82574
 C653 C 0.23834 0.46851 0.83941
 C654 C 0.23025 0.45331 0.85397
 C655 C 0.20803 0.44936 0.85435
 C656 C 0.19421 0.46057 0.84075
 H657 H 0.18728 0.50812 0.85633
 H658 H 0.20988 0.52847 0.88116
 H659 H 0.23879 0.56157 0.82766
 H660 H 0.21604 0.54121 0.80293
 H661 H 0.15847 0.54138 0.82296
 H662 H 0.13444 0.56116 0.79913
 H663 H 0.18453 0.50734 0.76879
 H664 H 0.19645 0.45727 0.78392
 H665 H 0.17138 0.43666 0.76178
 H666 H 0.11819 0.47009 0.79096
 H667 H 0.14337 0.49069 0.81295
 H668 H 0.23109 0.49124 0.81460
 H669 H 0.25541 0.47165 0.83849
 H670 H 0.20127 0.43793 0.86553
 H671 H 0.17712 0.45750 0.84162
 H672 H 0.16050 0.52714 0.74479
 C673 C 0.27522 0.44221 0.10649
 C674 C 0.27178 0.42045 0.10220
 C675 C 0.25540 0.40943 0.11286
 C676 C 0.24234 0.42014 0.12758
 C677 C 0.31715 0.37991 0.04383
 C678 C 0.26220 0.45296 0.12123
 C679 C 0.28466 0.40954 0.08648
 C680 C 0.29517 0.40030 0.07315
 C681 C 0.30716 0.38937 0.05739
 C682 C 0.24551 0.44207 0.13183
 H683 H 0.28780 0.45092 0.09826
 H684 H 0.25261 0.39257 0.10968
 H685 H 0.22981 0.41126 0.13568
 H686 H 0.26485 0.46990 0.12395
 C687 C 0.74422 0.59355 0.11742
 C688 C 0.73505 0.58315 0.09978
 C689 C 0.73846 0.56119 0.09674
 C690 C 0.75106 0.54965 0.11125
 C691 C 0.68980 0.62643 0.04335
 C692 C 0.75681 0.58204 0.13196
 C693 C 0.72239 0.59506 0.08463
 C694 C 0.71193 0.60499 0.07178
 C695 C 0.69989 0.61658 0.05655
 C696 C 0.76041 0.55997 0.12899
 H697 H 0.74174 0.61057 0.11986
 H698 H 0.73140 0.55299 0.08315
 H699 H 0.75331 0.53262 0.10871
 H700 H 0.76401 0.59046 0.14532
 C701 C 0.72462 0.44096 0.89324
 C702 C 0.72825 0.41923 0.89752
 C703 C 0.74443 0.40824 0.88655
 C704 C 0.75715 0.41897 0.87156
 C705 C 0.68470 0.37841 0.95701
 C706 C 0.73731 0.45173 0.87822
 C707 C 0.71580 0.40831 0.91357
 C708 C 0.70571 0.39903 0.92717
 C709 C 0.69424 0.38799 0.94322
 C710 C 0.75384 0.44088 0.86735
 H711 H 0.71218 0.44964 0.90170
 H712 H 0.74735 0.39140 0.88973
 H713 H 0.76957 0.41013 0.86325
 H714 H 0.73456 0.46866 0.87551
 C715 C 0.26288 0.55951 0.90311
 C716 C 0.26655 0.58142 0.89997
 C717 C 0.25714 0.59193 0.88251
 C718 C 0.24406 0.58058 0.86827
 C719 C 0.31353 0.62388 0.95563
 C720 C 0.24980 0.54814 0.88891
 C721 C 0.27971 0.59316 0.91484
 C722 C 0.29058 0.60292 0.92748
 C723 C 0.30308 0.61426 0.94253
 C724 C 0.24020 0.55857 0.87135
 H725 H 0.27012 0.55122 0.91656
 H726 H 0.25981 0.60891 0.87999
 H727 H 0.23670 0.58909 0.85505
 H728 H 0.24737 0.53115 0.89152
 C729 C 0.10845 0.27558 0.44056
 C730 C 0.10442 0.27181 0.41882
 C731 C 0.11547 0.25551 0.40810
 C732 C 0.13029 0.24282 0.41912
 C733 C 0.04524 0.31521 0.37727
 C734 C 0.12329 0.26291 0.45162
 C735 C 0.08850 0.28420 0.40763
 C736 C 0.07498 0.29425 0.39815
 C737 C 0.05899 0.30568 0.38695
 C738 C 0.13424 0.24627 0.44105
 H739 H 0.09991 0.28811 0.44903
 H740 H 0.11249 0.25248 0.39127
 H741 H 0.13867 0.23030 0.41050
 H742 H 0.12580 0.26577 0.46855
 C743 C 0.11567 0.74125 0.59194
 C744 C 0.09841 0.73189 0.58104
 C745 C 0.09575 0.73559 0.55909
 C746 C 0.11024 0.74866 0.54806
 C747 C 0.04215 0.68481 0.62260
 C748 C 0.13019 0.75431 0.58094
 C749 C 0.08328 0.71871 0.59242
 C750 C 0.07047 0.70783 0.60194
 C751 C 0.05529 0.69530 0.61308
 C752 C 0.12761 0.75820 0.55888
 H753 H 0.11782 0.73855 0.60895
 H754 H 0.08246 0.72839 0.55049
 H755 H 0.10800 0.75111 0.53103
 H756 H 0.14325 0.76163 0.58975
 C757 C 0.88486 0.74120 0.41054
 C758 C 0.90218 0.73199 0.42146
 C759 C 0.90489 0.73590 0.44338
 C760 C 0.89037 0.74901 0.45433
 C761 C 0.95825 0.68491 0.37958
 C762 C 0.87031 0.75430 0.42146
 C763 C 0.91733 0.71878 0.41013
 C764 C 0.93011 0.70788 0.40057
 C765 C 0.94522 0.69536 0.38930
 C766 C 0.87293 0.75839 0.44348
 H767 H 0.88267 0.73836 0.39355
 H768 H 0.91822 0.72883 0.45200
 H769 H 0.89264 0.75161 0.47133
 H770 H 0.85721 0.76150 0.41260
 C771 C 0.90347 0.26203 0.55854
 C772 C 0.90010 0.26546 0.58044
 C773 C 0.88228 0.25631 0.59055
 C774 C 0.86789 0.24373 0.57883
 C775 C 0.95587 0.31056 0.62481
 C776 C 0.88911 0.24944 0.54680
 C777 C 0.91510 0.27810 0.59259
 C778 C 0.92779 0.28852 0.60277
 C779 C 0.94284 0.30052 0.61467
 C780 C 0.87118 0.24011 0.55683
 H781 H 0.91721 0.26906 0.55056
 H782 H 0.87957 0.25880 0.60752
 H783 H 0.85439 0.23655 0.58706
 H784 H 0.89191 0.24717 0.52983
 C785 C 0.43845 0.09590 0.26151
 C786 C 0.41648 0.09904 0.26492
 C787 C 0.40612 0.11665 0.25564
 C788 C 0.41767 0.13107 0.24296
 C789 C 0.37317 0.04316 0.31082
 C790 C 0.45003 0.11029 0.24883
 C791 C 0.40454 0.08403 0.27773
 C792 C 0.39459 0.07132 0.28833
 C793 C 0.38300 0.05624 0.30056
 C794 C 0.43975 0.12802 0.23939
 H795 H 0.44663 0.08233 0.26866
 H796 H 0.38910 0.11917 0.25812
 H797 H 0.40927 0.14443 0.23570
 H798 H 0.46706 0.10769 0.24661
 C799 C 0.59138 0.11371 0.74543
 C800 C 0.58026 0.10324 0.72898
 C801 C 0.55853 0.10777 0.72554
 C802 C 0.54790 0.12256 0.73861
 C803 C 0.62080 0.04499 0.68344
 C804 C 0.58079 0.12847 0.75853
 C805 C 0.59107 0.08751 0.71602
 C806 C 0.60027 0.07419 0.70546
 C807 C 0.61124 0.05848 0.69343
 C808 C 0.55889 0.13297 0.75535
 H809 H 0.60822 0.11035 0.74821
 H810 H 0.54974 0.09970 0.71291
 H811 H 0.53098 0.12547 0.73595
 H812 H 0.58974 0.13642 0.77110
 C813 C 0.40796 0.88313 0.74205
 C814 C 0.41850 0.90061 0.73275
 C815 C 0.44046 0.90365 0.73634
 C816 C 0.45185 0.88930 0.74924
 C817 C 0.37596 0.95671 0.68639
 C818 C 0.41932 0.86874 0.75495
 C819 C 0.40675 0.91563 0.71977
 C820 C 0.39697 0.92838 0.70906
 C821 C 0.38560 0.94354 0.69672
 C822 C 0.44139 0.87170 0.75872
 H823 H 0.39094 0.88069 0.73943
 H824 H 0.44877 0.91713 0.72918
 H825 H 0.46888 0.89183 0.75162
 H826 H 0.41078 0.85549 0.76223
 C827 C 0.59062 0.88527 0.25585
 C828 C 0.57954 0.89602 0.27211
 C829 C 0.55777 0.89171 0.27554
 C830 C 0.54704 0.87687 0.26259
 C831 C 0.62054 0.95484 0.31648
 C832 C 0.57993 0.87046 0.24287
 C833 C 0.59043 0.91189 0.28483
 C834 C 0.59973 0.92534 0.29513
 C835 C 0.61084 0.94122 0.30681
 C836 C 0.55798 0.86621 0.24599
 H837 H 0.60748 0.88847 0.25308
 H838 H 0.54902 0.90001 0.28803
 H839 H 0.53008 0.87413 0.26520
 H840 H 0.58883 0.86231 0.23041
 C841 C 0.40937 0.25590 0.88644
 C842 C 0.42038 0.27226 0.89714
 C843 C 0.44219 0.27565 0.89296
 C844 C 0.45300 0.26259 0.87830
 C845 C 0.37960 0.31767 0.95530
 C846 C 0.42014 0.24281 0.87180
 C847 C 0.40940 0.28517 0.91279
 C848 C 0.40011 0.29570 0.92606
 C849 C 0.38911 0.30769 0.94177
 C850 C 0.44212 0.24592 0.86767
 H851 H 0.39248 0.25315 0.88952
 H852 H 0.45089 0.28822 0.90123
 H853 H 0.46998 0.26520 0.87567
 H854 H 0.41128 0.23028 0.86366
 C855 C 0.56130 0.73809 0.90281
 C856 C 0.58326 0.73465 0.89963
 C857 C 0.59357 0.74388 0.88199
 C858 C 0.58199 0.75655 0.86758
 C859 C 0.62683 0.68923 0.95569
 C860 C 0.54969 0.75077 0.88843
 C861 C 0.59525 0.72193 0.91466
 C862 C 0.60526 0.71142 0.92741
 C863 C 0.61692 0.69934 0.94255
 C864 C 0.55992 0.76018 0.87068
 H865 H 0.55316 0.73099 0.91641
 H866 H 0.61059 0.74139 0.87944
 H867 H 0.59036 0.76380 0.85421
 H868 H 0.53267 0.75304 0.89107
 C869 C 0.40812 0.74455 0.11397
 C870 C 0.41904 0.72830 0.10302
 C871 C 0.44083 0.72472 0.10716
 C872 C 0.45173 0.73751 0.12200
 C873 C 0.37775 0.68444 0.04403
 C874 C 0.41899 0.75736 0.12879
 C875 C 0.40798 0.71576 0.08714
 C876 C 0.39858 0.70559 0.07366
 C877 C 0.38742 0.69404 0.05773
 C878 C 0.44096 0.75410 0.13285
 H879 H 0.39125 0.74743 0.11091
 H880 H 0.44945 0.71224 0.09870
 H881 H 0.46870 0.73479 0.12460
 H882 H 0.41020 0.76982 0.13709
 C883 C 0.59214 0.25799 0.11846
 C884 C 0.58164 0.26739 0.10100
 C885 C 0.55973 0.26368 0.09778
 C886 C 0.54834 0.25055 0.11191
 C887 C 0.62417 0.31443 0.04551
 C888 C 0.58077 0.24486 0.13264
 C889 C 0.59339 0.28058 0.08619
 C890 C 0.60317 0.29147 0.07359
 C891 C 0.61454 0.30398 0.05858
 C892 C 0.55876 0.24095 0.12948
 H893 H 0.60912 0.26069 0.12105
 H894 H 0.55145 0.27092 0.08433
 H895 H 0.53135 0.24809 0.10924
 H896 H 0.58928 0.23750 0.14587
 C897 C 0.27536 0.10894 0.55995
 C898 C 0.27168 0.10476 0.58167
 C899 C 0.25541 0.11574 0.59254
 C900 C 0.24266 0.13062 0.58168
 C901 C 0.31527 0.04540 0.62272
 C902 C 0.26264 0.12385 0.54906
 C903 C 0.28413 0.08878 0.59270
 C904 C 0.29423 0.07521 0.60205
 C905 C 0.30571 0.05918 0.61313
 C906 C 0.24602 0.13472 0.55977
 H907 H 0.28786 0.10046 0.55138
 H908 H 0.25245 0.11264 0.60936
 H909 H 0.23017 0.13894 0.59041
 H910 H 0.26543 0.12647 0.53213
 C911 C 0.74175 0.11513 0.40688
 C912 C 0.73244 0.09793 0.41787
 C913 C 0.73628 0.09532 0.43980
 C914 C 0.74943 0.10982 0.45073
 C915 C 0.68503 0.04166 0.37662
 C916 C 0.75489 0.12967 0.41777
 C917 C 0.71917 0.08279 0.40659
 C918 C 0.70820 0.06997 0.39715
 C919 C 0.69558 0.05479 0.38609
 C920 C 0.75892 0.12715 0.43982
 H921 H 0.73895 0.11724 0.38988
 H922 H 0.72912 0.08207 0.44847
 H923 H 0.75198 0.10763 0.46775
 H924 H 0.76217 0.14270 0.40889
 C925 C 0.73636 0.90442 0.55749
 C926 C 0.73230 0.90172 0.57937
 C927 C 0.74140 0.88438 0.59035
 C928 C 0.75455 0.86982 0.57952
 C929 C 0.68507 0.95791 0.62092
 C930 C 0.74952 0.88988 0.54663
 C931 C 0.71903 0.91689 0.59063
 C932 C 0.70810 0.92970 0.60011
 C933 C 0.69554 0.94484 0.61129
 C934 C 0.75880 0.87243 0.55753
 H935 H 0.72938 0.91776 0.54883
 H936 H 0.73843 0.88219 0.60732
 H937 H 0.76165 0.85671 0.58841
 H938 H 0.75225 0.89216 0.52964
 C939 C 0.26205 0.90311 0.44054
 C940 C 0.26557 0.89986 0.41864
 C941 C 0.25652 0.88207 0.40840
 C942 C 0.24394 0.86759 0.41999
 C943 C 0.31066 0.95597 0.37477
 C944 C 0.24946 0.88867 0.45216
 C945 C 0.27820 0.91495 0.40662
 C946 C 0.28862 0.92772 0.39656
 C947 C 0.30062 0.94286 0.38479
 C948 C 0.24022 0.87076 0.44200
 H949 H 0.26901 0.91682 0.44862
 H950 H 0.25907 0.87945 0.39143
 H951 H 0.23682 0.85411 0.41167
 H952 H 0.24712 0.89138 0.46913
 C953 C 0.09546 0.43823 0.73882
 C954 C 0.09862 0.41628 0.73540
 C955 C 0.11626 0.40595 0.74470
 C956 C 0.13067 0.41751 0.75740
 C957 C 0.04282 0.37298 0.68932
 C958 C 0.10984 0.44981 0.75153
 C959 C 0.08364 0.40434 0.72256
 C960 C 0.07094 0.39439 0.71192
 C961 C 0.05588 0.38281 0.69964
 C962 C 0.12759 0.43957 0.76099
 H963 H 0.08188 0.44638 0.73166
 H964 H 0.11881 0.38895 0.74222
 H965 H 0.14404 0.40914 0.76468
 H966 H 0.10721 0.46683 0.75375
 C967 C 0.10770 0.55838 0.27438
 C968 C 0.10321 0.58010 0.27097
 C969 C 0.11369 0.59120 0.25453
 C970 C 0.12843 0.58060 0.24141
 C971 C 0.04506 0.62068 0.31664
 C972 C 0.12246 0.54774 0.26129
 C973 C 0.08750 0.59093 0.28395
 C974 C 0.07421 0.60013 0.29454
 C975 C 0.05852 0.61111 0.30660
 C976 C 0.13289 0.55871 0.24456
 H977 H 0.09961 0.54961 0.28701
 H978 H 0.11036 0.60803 0.25177
 H979 H 0.13639 0.58953 0.22884
 H980 H 0.12534 0.53082 0.26393
 C981 C 0.90341 0.44037 0.26384
 C982 C 0.90031 0.41842 0.26732
 C983 C 0.88276 0.40798 0.25800
 C984 C 0.86836 0.41943 0.24518
 C985 C 0.95646 0.37569 0.31346
 C986 C 0.88905 0.45184 0.25101
 C987 C 0.91533 0.40659 0.28022
 C988 C 0.92809 0.39675 0.29088
 C989 C 0.94327 0.38534 0.30316
 C990 C 0.87139 0.44148 0.24149
 H991 H 0.91693 0.44860 0.27101
 H992 H 0.88027 0.39097 0.26054
 H993 H 0.85506 0.41097 0.23786
 H994 H 0.89163 0.46886 0.24871
 C995 C 0.89099 0.55747 0.72422
 C996 C 0.89528 0.57923 0.72765
 C997 C 0.88448 0.59030 0.74388
 C998 C 0.86965 0.57961 0.75684
 C999 C 0.95426 0.62011 0.68343
 C1000 C 0.87614 0.54674 0.73715
 C1001 C 0.91118 0.59011 0.71498
 C1002 C 0.92467 0.59939 0.70472
 C1003 C 0.94059 0.61046 0.69308
 C1004 C 0.86544 0.55767 0.75372
 H1005 H 0.89934 0.54873 0.71175
 H1006 H 0.88766 0.60716 0.74665
 H1007 H 0.86147 0.58851 0.76929
 H1008 H 0.87344 0.52979 0.73455
 C1009 C 0.73710 0.56052 0.90365
 C1010 C 0.73388 0.58251 0.90053
 C1011 C 0.74295 0.59271 0.88274
 C1012 C 0.75524 0.58098 0.86813
 C1013 C 0.68924 0.62660 0.95684
 C1014 C 0.74940 0.54877 0.88907
 C1015 C 0.72146 0.59464 0.91571
 C1016 C 0.71117 0.60478 0.92854
 C1017 C 0.69927 0.61659 0.94371
 C1018 C 0.75864 0.55888 0.87116
 H1019 H 0.73011 0.55247 0.91736
 H1020 H 0.74063 0.60974 0.88021
 H1021 H 0.76237 0.58927 0.85464
 H1022 H 0.75149 0.53173 0.89169
 C1023 C 0.27478 0.44209 0.89406
 C1024 C 0.27139 0.42035 0.89853
 C1025 C 0.25489 0.40927 0.88807
 C1026 C 0.24169 0.41991 0.87339
 C1027 C 0.31737 0.37966 0.95652
 C1028 C 0.26161 0.45276 0.87935
 C1029 C 0.28447 0.40947 0.91418
 C1030 C 0.29512 0.40022 0.92742
 C1031 C 0.30726 0.38921 0.94307
 C1032 C 0.24481 0.44181 0.86895
 H1033 H 0.28745 0.45084 0.90212
 H1034 H 0.25214 0.39244 0.89137
 H1035 H 0.22909 0.41097 0.86544
 H1036 H 0.26424 0.46968 0.87648
 C1037 C 0.26349 0.55948 0.09509
 C1038 C 0.26717 0.58144 0.09792
 C1039 C 0.25794 0.59211 0.11535
 C1040 C 0.24506 0.58089 0.12988
 C1041 C 0.31391 0.62387 0.04192
 C1042 C 0.25061 0.54824 0.10959
 C1043 C 0.28021 0.59305 0.08282
 C1044 C 0.29101 0.60277 0.07006
 C1045 C 0.30347 0.61416 0.05497
 C1046 C 0.24122 0.55883 0.12715
 H1047 H 0.27059 0.55104 0.08168
 H1048 H 0.26060 0.60912 0.11765
 H1049 H 0.23785 0.58955 0.14308
 H1050 H 0.24820 0.53121 0.10721
 C1051 C 0.74598 0.40935 0.11365
 C1052 C 0.72961 0.42019 0.10275
 C1053 C 0.72603 0.44197 0.10683
 C1054 C 0.73890 0.45292 0.12160
 C1055 C 0.68493 0.37838 0.04460
 C1056 C 0.75887 0.42027 0.12839
 C1057 C 0.71688 0.40902 0.08704
 C1058 C 0.70653 0.39951 0.07375
 C1059 C 0.69474 0.38819 0.05807
 C1060 C 0.75558 0.44222 0.13243
 H1061 H 0.74887 0.39249 0.11065
 H1062 H 0.71346 0.45054 0.09843
 H1063 H 0.73614 0.46987 0.12416
 H1064 H 0.77139 0.41152 0.13667
 C1065 C 0.89298 0.72540 0.56005
 C1066 C 0.89724 0.72898 0.58178
 C1067 C 0.88664 0.74553 0.59260
 C1068 C 0.87201 0.75859 0.58171
 C1069 C 0.95521 0.68326 0.62280
 C1070 C 0.87834 0.73843 0.54913
 C1071 C 0.91284 0.71604 0.59289
 C1072 C 0.92607 0.70547 0.60225
 C1073 C 0.94172 0.69336 0.61329
 C1074 C 0.86778 0.75527 0.55980
 H1075 H 0.90116 0.71269 0.55150
 H1076 H 0.88978 0.74844 0.60943
 H1077 H 0.86395 0.77124 0.59043
 H1078 H 0.87564 0.73564 0.53221
 C1079 C 0.88834 0.25289 0.40654
 C1080 C 0.89891 0.26941 0.41744
 C1081 C 0.89434 0.27317 0.43907
 C1082 C 0.87940 0.26034 0.44981
 C1083 C 0.95750 0.31443 0.37659
 C1084 C 0.87342 0.24003 0.41725
 C1085 C 0.91477 0.28217 0.40650
 C1086 C 0.92816 0.29258 0.39722
 C1087 C 0.94396 0.30449 0.38618
 C1088 C 0.86886 0.24352 0.43905
 H1089 H 0.89172 0.24985 0.38979
 H1090 H 0.90248 0.28587 0.44769
 H1091 H 0.87645 0.26325 0.46666
 H1092 H 0.86538 0.22739 0.40845
 C1093 C 0.11710 0.25775 0.59292
 C1094 C 0.09938 0.26683 0.58256
 C1095 C 0.09645 0.26361 0.56056
 C1096 C 0.11115 0.25129 0.54896
 C1097 C 0.04247 0.31123 0.62616
 C1098 C 0.13183 0.24544 0.58136
 C1099 C 0.08404 0.27922 0.59454
 C1100 C 0.07108 0.28946 0.60455
 C1101 C 0.05574 0.30129 0.61624
 C1102 C 0.12899 0.24203 0.55925
 H1103 H 0.11947 0.26007 0.60996
 H1104 H 0.08280 0.27060 0.55237
 H1105 H 0.10868 0.24919 0.53192
 H1106 H 0.14525 0.23830 0.58977
 C1107 C 0.11432 0.74399 0.40919
 C1108 C 0.10345 0.72760 0.42000
 C1109 C 0.10740 0.72413 0.44181
 C1110 C 0.12200 0.73714 0.45283
 C1111 C 0.04518 0.68270 0.37858
 C1112 C 0.12889 0.75702 0.42018
 C1113 C 0.08781 0.71480 0.40881
 C1114 C 0.07453 0.70440 0.39935
 C1115 C 0.05878 0.69256 0.38818
 C1116 C 0.13278 0.75385 0.44216
 H1117 H 0.11141 0.74680 0.39231
 H1118 H 0.09901 0.71155 0.45036
 H1119 H 0.12444 0.73447 0.46980
 H1120 H 0.13715 0.76957 0.41147
 C1121 C 0.59162 0.88743 0.74483
 C1122 C 0.58072 0.89819 0.72843
 C1123 C 0.55894 0.89396 0.72486
 C1124 C 0.54805 0.87921 0.73778
 C1125 C 0.62172 0.95666 0.68342
 C1126 C 0.58076 0.87271 0.75778
 C1127 C 0.59179 0.91393 0.71566
 C1128 C 0.60116 0.92727 0.70525
 C1129 C 0.61221 0.94306 0.69336
 C1130 C 0.55881 0.86853 0.75450
 H1131 H 0.60848 0.89055 0.74772
 H1132 H 0.55032 0.90226 0.71226
 H1133 H 0.53109 0.87655 0.73503
 H1134 H 0.58956 0.86454 0.77033
 C1135 C 0.43891 0.90264 0.26274
 C1136 C 0.41689 0.89960 0.26592
 C1137 C 0.40657 0.88198 0.25662
 C1138 C 0.41820 0.86746 0.24414
 C1139 C 0.37324 0.95582 0.31111
 C1140 C 0.45057 0.88815 0.25025
 C1141 C 0.40485 0.91472 0.27852
 C1142 C 0.39481 0.92752 0.28894
 C1143 C 0.38313 0.94268 0.30098
 C1144 C 0.44034 0.87041 0.24077
 H1145 H 0.44706 0.91621 0.26990
 H1146 H 0.38951 0.87953 0.25892
 H1147 H 0.40982 0.85411 0.23684
 H1148 H 0.46764 0.89069 0.24819
 C1149 C 0.55793 0.10547 0.27417
 C1150 C 0.57974 0.10139 0.27069
 C1151 C 0.59063 0.11227 0.25437
 C1152 C 0.57973 0.12697 0.24142
 C1153 C 0.62123 0.04321 0.31572
 C1154 C 0.54699 0.12020 0.26124
 C1155 C 0.59089 0.08571 0.28350
 C1156 C 0.60035 0.07243 0.29392
 C1157 C 0.61156 0.05673 0.30581
 C1158 C 0.55774 0.13101 0.24461
 H1159 H 0.54931 0.09709 0.28670
 H1160 H 0.60752 0.10927 0.25156
 H1161 H 0.58852 0.13524 0.22895
 H1162 H 0.53002 0.12276 0.26393
 C1163 C 0.40900 0.11729 0.74251
 C1164 C 0.41962 0.09981 0.73330
 C1165 C 0.44158 0.09687 0.73700
 C1166 C 0.45288 0.11131 0.74992
 C1167 C 0.37687 0.04394 0.68667
 C1168 C 0.42027 0.13176 0.75542
 C1169 C 0.40795 0.08475 0.72026
 C1170 C 0.39816 0.07202 0.70948
 C1171 C 0.38668 0.05696 0.69707
 C1172 C 0.44233 0.12891 0.75931
 H1173 H 0.39199 0.11967 0.73982
 H1174 H 0.44997 0.08342 0.72992
 H1175 H 0.46991 0.10885 0.75237
 H1176 H 0.41165 0.14499 0.76263
 C1177 C 0.56076 0.73758 0.09619
 C1178 C 0.58278 0.73438 0.09926
 C1179 C 0.59304 0.74353 0.11699
 C1180 C 0.58135 0.75586 0.13159
 C1181 C 0.62669 0.68952 0.04300
 C1182 C 0.54904 0.74992 0.11076
 C1183 C 0.59488 0.72191 0.08409
 C1184 C 0.60497 0.71157 0.07127
 C1185 C 0.61672 0.69960 0.05611
 C1186 C 0.55922 0.75923 0.12861
 H1187 H 0.55266 0.73053 0.08254
 H1188 H 0.61010 0.74122 0.11948
 H1189 H 0.58969 0.76304 0.14503
 H1190 H 0.53198 0.75199 0.10819
 C1191 C 0.40945 0.25506 0.11209
 C1192 C 0.42054 0.27155 0.10167
 C1193 C 0.44227 0.27500 0.10625
 C1194 C 0.45291 0.26189 0.12102
 C1195 C 0.37992 0.31734 0.04348
 C1196 C 0.42006 0.24192 0.12683
 C1197 C 0.40969 0.28457 0.08596
 C1198 C 0.40046 0.29517 0.07267
 C1199 C 0.38946 0.30727 0.05697
 C1200 C 0.44196 0.24509 0.13138
 H1201 H 0.39262 0.25226 0.10871
 H1202 H 0.45104 0.28767 0.09822
 H1203 H 0.46983 0.26457 0.12397
 H1204 H 0.41111 0.22931 0.13474
 C1205 C 0.55941 0.26359 0.90492
 C1206 C 0.58140 0.26726 0.90220
 C1207 C 0.59217 0.25802 0.88483
 C1208 C 0.58101 0.24515 0.87025
 C1209 C 0.62362 0.31403 0.95836
 C1210 C 0.54823 0.25071 0.89037
 C1211 C 0.59295 0.28030 0.91736
 C1212 C 0.60262 0.29110 0.93016
 C1213 C 0.61395 0.30357 0.94529
 C1214 C 0.55891 0.24131 0.87287
 H1215 H 0.55091 0.27069 0.91829
 H1216 H 0.60921 0.26068 0.88262
 H1217 H 0.58974 0.23793 0.85710
 H1218 H 0.53117 0.24831 0.89266
 C1219 C 0.40904 0.74638 0.88671
 C1220 C 0.41986 0.72996 0.89751
 C1221 C 0.44163 0.72630 0.89333
 C1222 C 0.45259 0.73916 0.87857
 C1223 C 0.37812 0.68524 0.95565
 C1224 C 0.41996 0.75927 0.87198
 C1225 C 0.40870 0.71723 0.91322
 C1226 C 0.39920 0.70687 0.92650
 C1227 C 0.38790 0.69507 0.94218
 C1228 C 0.44190 0.75590 0.86784
 H1229 H 0.39219 0.74934 0.88978
 H1230 H 0.45019 0.71368 0.90166
 H1231 H 0.46952 0.73633 0.87593
 H1232 H 0.41122 0.77183 0.86377
 C1233 C 0.74658 0.88623 0.40829
 C1234 C 0.72999 0.89687 0.41900
 C1235 C 0.72629 0.89267 0.44072
 C1236 C 0.73925 0.87803 0.45174
 C1237 C 0.68444 0.95478 0.37774
 C1238 C 0.75957 0.87161 0.41927
 C1239 C 0.71711 0.91246 0.40781
 C1240 C 0.70658 0.92567 0.39838
 C1241 C 0.69452 0.94131 0.38728
 C1242 C 0.75613 0.86743 0.44116
 H1243 H 0.74957 0.88933 0.39147
 H1244 H 0.71354 0.90088 0.44920
 H1245 H 0.73637 0.87538 0.46864
 H1246 H 0.77226 0.86351 0.41062
 C1247 C 0.25293 0.88751 0.59224
 C1248 C 0.26941 0.89820 0.58139
 C1249 C 0.27319 0.89373 0.55974
 C1250 C 0.26042 0.87879 0.54893
 C1251 C 0.31417 0.95681 0.62248
 C1252 C 0.24013 0.87258 0.58146
 C1253 C 0.28209 0.91406 0.59240
 C1254 C 0.29244 0.92747 0.60174
 C1255 C 0.30428 0.94327 0.61285
 C1256 C 0.24364 0.86814 0.55964
 H1257 H 0.24988 0.89080 0.60901
 H1258 H 0.28586 0.90197 0.55116
 H1259 H 0.26335 0.87592 0.53207
 H1260 H 0.22753 0.86446 0.59022
 C1261 C 0.26318 0.09714 0.44043
 C1262 C 0.26633 0.10008 0.41842
 C1263 C 0.25719 0.11779 0.40811
 C1264 C 0.24489 0.13249 0.41972
 C1265 C 0.31072 0.04339 0.37457
 C1266 C 0.25087 0.11181 0.45207
 C1267 C 0.27871 0.08479 0.40639
 C1268 C 0.28895 0.07188 0.39632
 C1269 C 0.30078 0.05660 0.38456
 C1270 C 0.24155 0.12963 0.44184
 H1271 H 0.27021 0.08350 0.44858
 H1272 H 0.25946 0.12018 0.39106
 H1273 H 0.23770 0.14589 0.41134
 H1274 H 0.24882 0.10933 0.46912
 C1275 C 0.74492 0.11438 0.58966
 C1276 C 0.72849 0.10345 0.57896
 C1277 C 0.72496 0.10724 0.55713
 C1278 C 0.73796 0.12174 0.54599
 C1279 C 0.68350 0.04561 0.62083
 C1280 C 0.75794 0.12885 0.57856
 C1281 C 0.71567 0.08792 0.59028
 C1282 C 0.70526 0.07474 0.59985
 C1283 C 0.69339 0.05911 0.61114
 C1284 C 0.75472 0.13258 0.55656
 H1285 H 0.74777 0.11159 0.60656
 H1286 H 0.71234 0.09881 0.54866
 H1287 H 0.73525 0.12407 0.52901
 H1288 H 0.77052 0.13715 0.58720
 C1289 C 0.88732 0.59171 0.25558
 C1290 C 0.89802 0.58080 0.27201
 C1291 C 0.89372 0.55906 0.27558
 C1292 C 0.87895 0.54821 0.26262
 C1293 C 0.95666 0.62164 0.31702
 C1294 C 0.87258 0.58090 0.24259
 C1295 C 0.91379 0.59182 0.28481
 C1296 C 0.92717 0.60114 0.29522
 C1297 C 0.94301 0.61216 0.30711
 C1298 C 0.86833 0.55897 0.24587
 H1299 H 0.89050 0.60855 0.25269
 H1300 H 0.90197 0.55043 0.28820
 H1301 H 0.87623 0.53128 0.26537
 H1302 H 0.86446 0.58969 0.23001
 C1303 C 0.88147 0.40638 0.74303
 C1304 C 0.89907 0.41670 0.73369
 C1305 C 0.90207 0.43872 0.73685
 C1306 C 0.88757 0.45036 0.74935
 C1307 C 0.95541 0.37310 0.68859
 C1308 C 0.86694 0.41799 0.75553
 C1309 C 0.91421 0.40468 0.72111
 C1310 C 0.92703 0.39466 0.71070
 C1311 C 0.94223 0.38298 0.69868
 C1312 C 0.86986 0.44012 0.75887
 H1313 H 0.87904 0.38932 0.74076
 H1314 H 0.91562 0.44688 0.72966
 H1315 H 0.89009 0.46742 0.75139
 H1316 H 0.85361 0.40960 0.76286
 C1317 C 0.10503 0.55744 0.72604
 C1318 C 0.10088 0.57923 0.72949
 C1319 C 0.11167 0.59015 0.74585
 C1320 C 0.12637 0.57932 0.75887
 C1321 C 0.04273 0.62056 0.68424
 C1322 C 0.11977 0.54657 0.73903
 C1323 C 0.08520 0.59031 0.71661
 C1324 C 0.07192 0.59972 0.70613
 C1325 C 0.05623 0.61090 0.69418
 C1326 C 0.13050 0.55736 0.75570
 H1327 H 0.09672 0.54880 0.71347
 H1328 H 0.10861 0.60702 0.74865
 H1329 H 0.13458 0.58814 0.77137
 H1330 H 0.12239 0.52962 0.73636
 C1331 C 0.11705 0.40896 0.25738
 C1332 C 0.09959 0.41960 0.26665
 C1333 C 0.09667 0.44154 0.26295
 C1334 C 0.11109 0.45281 0.25000
 C1335 C 0.04377 0.37684 0.31332
 C1336 C 0.13151 0.42020 0.24444
 C1337 C 0.08454 0.40794 0.27972
 C1338 C 0.07182 0.39816 0.29051
 C1339 C 0.05678 0.38667 0.30293
 C1340 C 0.12867 0.44225 0.24056
 H1341 H 0.11942 0.39196 0.26006
 H1342 H 0.08323 0.44994 0.27007
 H1343 H 0.10864 0.46982 0.24757
 H1344 H 0.14471 0.41157 0.23719
   
