data_POSCAR
  _audit_creation_date              2014-09-24
  _audit_creation_method            'ToBaCCo'
  _symmetry_space_group_name_H-M    'P1'
  _symmetry_Int_Tables_number       1
  _symmetry_cell_setting            triclinic
  loop_
  _symmetry_equiv_pos_as_xyz
 x,y,z
_cell_length_a 99.0202
_cell_length_b 98.6415
_cell_length_c 100.1920
_cell_angle_alpha 89.950300
_cell_angle_beta 89.958600
_cell_angle_gamma 89.940800
loop_
  _atom_site_label
  _atom_site_type_symbol
  _atom_site_fract_x
  _atom_site_fract_y
  _atom_site_fract_z
N1 N 0.35698 0.31911 0.33019
 N2 N 0.35694 0.32871 0.32106
 C3 C 0.36732 0.32665 0.31259
 C4 C 0.37413 0.31519 0.31669
 C5 C 0.36738 0.31062 0.32785
 H6 H 0.36975 0.33295 0.30409
 H7 H 0.36983 0.30180 0.33378
 Cu8 Cu 0.34331 0.34293 0.32109
 Cu9 Cu 0.34352 0.31829 0.34434
 Cu10 Cu 0.31874 0.34315 0.34431
 N11 N 0.32915 0.35661 0.32103
 N12 N 0.31957 0.35664 0.33014
 C13 C 0.31110 0.36706 0.32777
 C14 C 0.31565 0.37383 0.31661
 C15 C 0.32708 0.36701 0.31254
 H16 H 0.30229 0.36952 0.33368
 H17 H 0.33336 0.36943 0.30403
 N18 N 0.31961 0.32865 0.35780
 N19 N 0.32906 0.31918 0.35782
 C20 C 0.32693 0.31077 0.36822
 C21 C 0.31566 0.31522 0.37497
 C22 C 0.31123 0.32652 0.36820
 H23 H 0.33309 0.30208 0.37072
 H24 H 0.30256 0.33270 0.37068
 H25 H 0.32843 0.32799 0.33373
 H26 H 0.33915 0.33878 0.34475
 N27 N 0.35731 0.81942 -0.16992
 N28 N 0.35713 0.82874 -0.17933
 C29 C 0.36756 0.82659 -0.18772
 C30 C 0.37453 0.81537 -0.18326
 C31 C 0.36783 0.81102 -0.17198
 H32 H 0.36990 0.83267 -0.19641
 H33 H 0.37040 0.80241 -0.16579
 Cu34 Cu 0.34320 0.84267 -0.17971
 Cu35 Cu 0.34385 0.81880 -0.15575
 Cu36 Cu 0.31919 0.84380 -0.15600
 N37 N 0.32944 0.85677 -0.17961
 N38 N 0.32008 0.85714 -0.17029
 C39 C 0.31181 0.86774 -0.17256
 C40 C 0.31629 0.87428 -0.18387
 C41 C 0.32746 0.86715 -0.18815
 H42 H 0.30318 0.87043 -0.16649
 H43 H 0.33359 0.86934 -0.19682
 N44 N 0.31998 0.82941 -0.14237
 N45 N 0.32938 0.81988 -0.14227
 C46 C 0.32716 0.81156 -0.13183
 C47 C 0.31589 0.81610 -0.12513
 C48 C 0.31155 0.82739 -0.13199
 H49 H 0.33324 0.80282 -0.12928
 H50 H 0.30289 0.83361 -0.12960
 H51 H 0.32853 0.82823 -0.16626
 H52 H 0.33958 0.83932 -0.15587
 N53 N 0.85689 0.31994 -0.17056
 N54 N 0.85647 0.32939 -0.17983
 C55 C 0.86677 0.32743 -0.18842
 C56 C 0.87391 0.31620 -0.18426
 C57 C 0.86743 0.31165 -0.17293
 H58 H 0.86889 0.33361 -0.19708
 H59 H 0.87015 0.30295 -0.16692
 Cu60 Cu 0.84237 0.34315 -0.17985
 Cu61 Cu 0.84367 0.31899 -0.15619
 Cu62 Cu 0.81874 0.34372 -0.15575
 N63 N 0.82846 0.35709 -0.17935
 N64 N 0.81922 0.35725 -0.16990
 C65 C 0.81076 0.36775 -0.17197
 C66 C 0.81499 0.37444 -0.18330
 C67 C 0.82619 0.36751 -0.18778
 H68 H 0.80217 0.37026 -0.16576
 H69 H 0.83214 0.36982 -0.19654
 N70 N 0.81994 0.32919 -0.14227
 N71 N 0.82942 0.31976 -0.14245
 C72 C 0.82748 0.31130 -0.13205
 C73 C 0.81629 0.31565 -0.12510
 C74 C 0.81173 0.32698 -0.13175
 H75 H 0.83371 0.30261 -0.12968
 H76 H 0.80308 0.33311 -0.12910
 H77 H 0.82810 0.32832 -0.16638
 H78 H 0.83919 0.33939 -0.15600
 N79 N 0.85689 0.81962 0.32967
 N80 N 0.85676 0.82933 0.32065
 C81 C 0.86709 0.82739 0.31209
 C82 C 0.87396 0.81591 0.31602
 C83 C 0.86729 0.81119 0.32717
 H84 H 0.86944 0.83378 0.30363
 H85 H 0.86981 0.80230 0.33299
 Cu86 Cu 0.84306 0.84347 0.32088
 Cu87 Cu 0.84356 0.81862 0.34392
 Cu88 Cu 0.81868 0.84338 0.34430
 N89 N 0.82880 0.85705 0.32103
 N90 N 0.81929 0.85698 0.33021
 C91 C 0.81072 0.86735 0.32796
 C92 C 0.81516 0.87419 0.31679
 C93 C 0.82660 0.86747 0.31259
 H94 H 0.80194 0.86970 0.33396
 H95 H 0.83279 0.86998 0.30405
 N96 N 0.81974 0.82878 0.35771
 N97 N 0.82921 0.81932 0.35754
 C98 C 0.82720 0.81082 0.36790
 C99 C 0.81599 0.81518 0.37482
 C100 C 0.81148 0.82654 0.36817
 H101 H 0.83341 0.80212 0.37026
 H102 H 0.80282 0.83268 0.37079
 H103 H 0.82835 0.82835 0.33351
 H104 H 0.83913 0.83908 0.34454
 N105 N 0.64291 0.68052 0.33002
 N106 N 0.64323 0.67110 0.32074
 C107 C 0.63289 0.67311 0.31222
 C108 C 0.62581 0.68435 0.31645
 C109 C 0.63236 0.68884 0.32774
 H110 H 0.63067 0.66692 0.30360
 H111 H 0.62968 0.69751 0.33379
 Cu112 Cu 0.65719 0.65719 0.32072
 Cu113 Cu 0.65621 0.68138 0.34431
 Cu114 Cu 0.68118 0.65667 0.34442
 N115 N 0.67123 0.64337 0.32088
 N116 N 0.68059 0.64323 0.33020
 C117 C 0.68901 0.63274 0.32802
 C118 C 0.68467 0.62603 0.31677
 C119 C 0.67340 0.63296 0.31245
 H120 H 0.69765 0.63019 0.33415
 H121 H 0.66729 0.63057 0.30382
 N122 N 0.68008 0.67112 0.35795
 N123 N 0.67057 0.68053 0.35792
 C124 C 0.67259 0.68893 0.36834
 C125 C 0.68386 0.68455 0.37515
 C126 C 0.68839 0.67329 0.36838
 H127 H 0.66638 0.69760 0.37080
 H128 H 0.69711 0.66718 0.37088
 H129 H 0.67167 0.67201 0.33393
 H130 H 0.66076 0.66094 0.34451
 N131 N 0.64314 0.18055 -0.17014
 N132 N 0.64317 0.17104 -0.17934
 C133 C 0.63282 0.17324 -0.18780
 C134 C 0.62604 0.18468 -0.18361
 C135 C 0.63278 0.18910 -0.17241
 H136 H 0.63037 0.16703 -0.19635
 H137 H 0.63032 0.19785 -0.16638
 Cu138 Cu 0.65672 0.15674 -0.17939
 Cu139 Cu 0.65651 0.18116 -0.15593
 Cu140 Cu 0.68131 0.15637 -0.15617
 N141 N 0.67096 0.14313 -0.17955
 N142 N 0.68056 0.14305 -0.17047
 C143 C 0.68905 0.13267 -0.17290
 C144 C 0.68449 0.12598 -0.18408
 C145 C 0.67303 0.13279 -0.18810
 H146 H 0.69785 0.13018 -0.16699
 H147 H 0.66672 0.13038 -0.19657
 N148 N 0.68037 0.17070 -0.14251
 N149 N 0.67089 0.18013 -0.14240
 C150 C 0.67298 0.18843 -0.13192
 C151 C 0.68427 0.18396 -0.12520
 C152 C 0.68875 0.17275 -0.13210
 H153 H 0.66682 0.19710 -0.12937
 H154 H 0.69747 0.16661 -0.12971
 H155 H 0.67160 0.17156 -0.16666
 H156 H 0.66089 0.16063 -0.15570
 N157 N 0.14306 0.68068 -0.17004
 N158 N 0.14338 0.67129 -0.17936
 C159 C 0.13303 0.67332 -0.18785
 C160 C 0.12595 0.68454 -0.18358
 C161 C 0.13251 0.68900 -0.17229
 H162 H 0.13080 0.66717 -0.19650
 H163 H 0.12984 0.69766 -0.16622
 Cu164 Cu 0.15736 0.65744 -0.17953
 Cu165 Cu 0.15638 0.68147 -0.15577
 Cu166 Cu 0.18112 0.65655 -0.15561
 N167 N 0.17117 0.64341 -0.17922
 N168 N 0.18043 0.64312 -0.16982
 C169 C 0.18873 0.63252 -0.17195
 C170 C 0.18440 0.62590 -0.18325
 C171 C 0.17326 0.63299 -0.18766
 H172 H 0.19730 0.62986 -0.16578
 H173 H 0.16721 0.63073 -0.19636
 N174 N 0.18013 0.67101 -0.14210
 N175 N 0.17073 0.68052 -0.14217
 C176 C 0.17284 0.68894 -0.13179
 C177 C 0.18405 0.68446 -0.12496
 C178 C 0.18846 0.67312 -0.13168
 H179 H 0.16673 0.69770 -0.12938
 H180 H 0.19712 0.66694 -0.12918
 H181 H 0.17184 0.67203 -0.16608
 H182 H 0.16071 0.66097 -0.15569
 N183 N 0.14295 0.18084 0.33027
 N184 N 0.14324 0.17148 0.32093
 C185 C 0.13281 0.17350 0.31251
 C186 C 0.12573 0.18469 0.31687
 C187 C 0.13236 0.18913 0.32813
 H188 H 0.13056 0.16737 0.30386
 H189 H 0.12970 0.19776 0.33424
 Cu190 Cu 0.15727 0.15767 0.32062
 Cu191 Cu 0.15638 0.18165 0.34444
 Cu192 Cu 0.18122 0.15683 0.34438
 N193 N 0.17111 0.14365 0.32086
 N194 N 0.18045 0.14339 0.33019
 C195 C 0.18875 0.13279 0.32801
 C196 C 0.18432 0.12613 0.31676
 C197 C 0.17314 0.13321 0.31243
 H198 H 0.19736 0.13014 0.33412
 H199 H 0.16701 0.13092 0.30380
 N200 N 0.18030 0.17130 0.35790
 N201 N 0.17083 0.18076 0.35792
 C202 C 0.17296 0.18915 0.36831
 C203 C 0.18424 0.18472 0.37505
 C204 C 0.18868 0.17343 0.36828
 H205 H 0.16680 0.19785 0.37080
 H206 H 0.19738 0.16728 0.37073
 H207 H 0.17179 0.17228 0.33401
 H208 H 0.16078 0.16115 0.34445
 N209 N 0.64285 0.31964 0.66974
 N210 N 0.64297 0.32915 0.67895
 C211 C 0.63261 0.32707 0.68745
 C212 C 0.62571 0.31572 0.68325
 C213 C 0.63239 0.31124 0.67203
 H214 H 0.63027 0.33328 0.69604
 H215 H 0.62989 0.30248 0.66603
 Cu216 Cu 0.65687 0.34308 0.67892
 Cu217 Cu 0.65630 0.31878 0.65555
 Cu218 Cu 0.68116 0.34360 0.65557
 N219 N 0.67079 0.35698 0.67895
 N220 N 0.68030 0.35709 0.66977
 C221 C 0.68868 0.36758 0.67206
 C222 C 0.68416 0.37430 0.68326
 C223 C 0.67282 0.36739 0.68743
 H224 H 0.69742 0.37008 0.66608
 H225 H 0.66659 0.36976 0.69599
 N226 N 0.68026 0.32908 0.64207
 N227 N 0.67079 0.31964 0.64205
 C228 C 0.67294 0.31122 0.63168
 C229 C 0.68425 0.31560 0.62494
 C230 C 0.68868 0.32689 0.63171
 H231 H 0.66679 0.30253 0.62920
 H232 H 0.69739 0.33302 0.62926
 H233 H 0.67159 0.32828 0.66594
 H234 H 0.66078 0.33924 0.65518
 N235 N 0.64296 0.81948 1.17008
 N236 N 0.64296 0.82909 1.17918
 C237 C 0.63259 0.82701 1.18765
 C238 C 0.62582 0.81553 1.18358
 C239 C 0.63260 0.81097 1.17244
 H240 H 0.63014 0.83330 1.19615
 H241 H 0.63018 0.80213 1.16652
 Cu242 Cu 0.65656 0.84332 1.17914
 Cu243 Cu 0.65641 0.81865 1.15593
 Cu244 Cu 0.68123 0.84339 1.15600
 N245 N 0.67080 0.85690 1.17922
 N246 N 0.68043 0.85686 1.17016
 C247 C 0.68894 0.86722 1.17253
 C248 C 0.68436 0.87404 1.18364
 C249 C 0.67288 0.86730 1.18768
 H250 H 0.69778 0.86961 1.16664
 H251 H 0.66656 0.86980 1.19615
 N252 N 0.68034 0.82893 1.14248
 N253 N 0.67087 0.81951 1.14245
 C254 C 0.67300 0.81110 1.13206
 C255 C 0.68432 0.81548 1.12533
 C256 C 0.68875 0.82676 1.13212
 H257 H 0.66684 0.80242 1.12957
 H258 H 0.69747 0.83288 1.12968
 H259 H 0.67145 0.82829 1.16661
 H260 H 0.66079 0.83912 1.15550
 N261 N 0.14299 0.31960 1.16995
 N262 N 0.14328 0.32892 1.17934
 C263 C 0.13287 0.32685 1.18778
 C264 C 0.12580 0.31569 1.18340
 C265 C 0.13242 0.31130 1.17210
 H266 H 0.13062 0.33294 1.19648
 H267 H 0.12978 0.30269 1.16595
 Cu268 Cu 0.15731 0.34272 1.17965
 Cu269 Cu 0.15638 0.31882 1.15575
 Cu270 Cu 0.18123 0.34358 1.15583
 N271 N 0.17116 0.35672 1.17942
 N272 N 0.18050 0.35697 1.17007
 C273 C 0.18881 0.36754 1.17225
 C274 C 0.18440 0.37419 1.18352
 C275 C 0.17322 0.36714 1.18787
 H276 H 0.19742 0.37016 1.16612
 H277 H 0.16711 0.36944 1.19652
 N278 N 0.18028 0.32917 1.14226
 N279 N 0.17081 0.31974 1.14222
 C280 C 0.17294 0.31136 1.13181
 C281 C 0.18424 0.31576 1.12508
 C282 C 0.18868 0.32703 1.13188
 H283 H 0.16679 0.30267 1.12931
 H284 H 0.19740 0.33314 1.12945
 H285 H 0.17179 0.32809 1.16618
 H286 H 0.16078 0.33928 1.15580
 N287 N 0.14307 0.81955 0.67011
 N288 N 0.14347 0.82898 0.67939
 C289 C 0.13311 0.82708 0.68792
 C290 C 0.12595 0.81590 0.68371
 C291 C 0.13247 0.81133 0.67242
 H292 H 0.13092 0.83330 0.69654
 H293 H 0.12973 0.80268 0.66638
 Cu294 Cu 0.15752 0.84273 0.67945
 Cu295 Cu 0.15633 0.81860 0.65579
 Cu296 Cu 0.18118 0.84335 0.65537
 N297 N 0.17139 0.85667 0.67897
 N298 N 0.18061 0.85687 0.66951
 C299 C 0.18897 0.86743 0.67156
 C300 C 0.18471 0.87412 0.68287
 C301 C 0.17356 0.86711 0.68736
 H302 H 0.19753 0.87001 0.66535
 H303 H 0.16757 0.86943 0.69609
 N304 N 0.18007 0.82881 0.64194
 N305 N 0.17063 0.81936 0.64212
 C306 C 0.17263 0.81088 0.63176
 C307 C 0.18382 0.81526 0.62483
 C308 C 0.18833 0.82660 0.63147
 H309 H 0.16646 0.80216 0.62942
 H310 H 0.19698 0.83272 0.62885
 H311 H 0.17187 0.82799 0.66596
 H312 H 0.16074 0.83907 0.65560
 N313 N 0.35716 0.68062 0.66987
 N314 N 0.35686 0.67128 0.67925
 C315 C 0.36721 0.67336 0.68773
 C316 C 0.37427 0.68456 0.68336
 C317 C 0.36769 0.68895 0.67204
 H318 H 0.36945 0.66726 0.69642
 H319 H 0.37034 0.69757 0.66590
 Cu320 Cu 0.34289 0.65743 0.67949
 Cu321 Cu 0.34382 0.68138 0.65562
 Cu322 Cu 0.31905 0.65653 0.65561
 N323 N 0.32910 0.64339 0.67922
 N324 N 0.31980 0.64311 0.66985
 C325 C 0.31151 0.63252 0.67203
 C326 C 0.31589 0.62589 0.68334
 C327 C 0.32704 0.63297 0.68769
 H328 H 0.30292 0.62987 0.66591
 H329 H 0.33311 0.63071 0.69638
 N330 N 0.32000 0.67100 0.64206
 N331 N 0.32945 0.68045 0.64205
 C332 C 0.32737 0.68884 0.63163
 C333 C 0.31613 0.68440 0.62484
 C334 C 0.31167 0.67312 0.63163
 H335 H 0.33352 0.69753 0.62914
 H336 H 0.30299 0.66697 0.62915
 H337 H 0.32838 0.67201 0.66600
 H338 H 0.33947 0.66089 0.65564
 N339 N 0.35716 0.18067 1.16995
 N340 N 0.35720 0.17100 1.17900
 C341 C 0.36759 0.17304 1.18744
 C342 C 0.37432 0.18455 1.18340
 C343 C 0.36752 0.18918 1.17231
 H344 H 0.37007 0.16668 1.19589
 H345 H 0.36991 0.19805 1.16643
 Cu346 Cu 0.34364 0.15673 1.17896
 Cu347 Cu 0.34371 0.18152 1.15582
 Cu348 Cu 0.31898 0.15668 1.15584
 N349 N 0.32940 0.14314 1.17903
 N350 N 0.31979 0.14318 1.16997
 C351 C 0.31127 0.13283 1.17237
 C352 C 0.31582 0.12601 1.18349
 C353 C 0.32731 0.13274 1.18752
 H354 H 0.30243 0.13046 1.16650
 H355 H 0.33359 0.13026 1.19601
 N356 N 0.31983 0.17119 1.14235
 N357 N 0.32925 0.18067 1.14235
 C358 C 0.32709 0.18909 1.13196
 C359 C 0.31583 0.18465 1.12521
 C360 C 0.31144 0.17333 1.13198
 H361 H 0.33322 0.19780 1.12948
 H362 H 0.30279 0.16715 1.12950
 H363 H 0.32869 0.17177 1.16649
 H364 H 0.33939 0.16104 1.15533
 N365 N 0.85673 0.68071 1.17044
 N366 N 0.85666 0.67106 1.17952
 C367 C 0.86700 0.67308 1.18802
 C368 C 0.87381 0.68455 1.18400
 C369 C 0.86710 0.68918 1.17285
 H370 H 0.86941 0.66673 1.19650
 H371 H 0.86957 0.69803 1.16696
 Cu372 Cu 0.84306 0.65685 1.17941
 Cu373 Cu 0.84339 0.68156 1.15620
 Cu374 Cu 0.81865 0.65672 1.15606
 N375 N 0.82885 0.64324 1.17939
 N376 N 0.81933 0.64324 1.17023
 C377 C 0.81083 0.63286 1.17256
 C378 C 0.81530 0.62607 1.18374
 C379 C 0.82671 0.63285 1.18787
 H380 H 0.80206 0.63043 1.16660
 H381 H 0.83294 0.63039 1.19640
 N382 N 0.81963 0.67121 1.14255
 N383 N 0.82904 0.68070 1.14261
 C384 C 0.82697 0.68911 1.13220
 C385 C 0.81577 0.68466 1.12536
 C386 C 0.81133 0.67334 1.13210
 H387 H 0.83311 0.69783 1.12977
 H388 H 0.80270 0.66716 1.12956
 H389 H 0.82826 0.67186 1.16673
 H390 H 0.83909 0.66109 1.15573
 N391 N 0.85716 0.18055 0.67012
 N392 N 0.85691 0.17101 0.67930
 C393 C 0.86723 0.17298 0.68785
 C394 C 0.87418 0.18434 0.68375
 C395 C 0.86760 0.18892 0.67251
 H396 H 0.86949 0.16673 0.69643
 H397 H 0.87020 0.19769 0.66655
 Cu398 Cu 0.84300 0.15714 0.67914
 Cu399 Cu 0.84383 0.18151 0.65583
 Cu400 Cu 0.81896 0.15671 0.65562
 N401 N 0.82906 0.14329 0.67909
 N402 N 0.81966 0.14318 0.66982
 C403 C 0.81121 0.13274 0.67208
 C404 C 0.81561 0.12602 0.68333
 C405 C 0.82692 0.13289 0.68757
 H406 H 0.80251 0.13025 0.66604
 H407 H 0.83303 0.13052 0.69620
 N408 N 0.82001 0.17125 0.64213
 N409 N 0.82947 0.18070 0.64222
 C410 C 0.82747 0.18912 0.63181
 C411 C 0.81626 0.18473 0.62494
 C412 C 0.81175 0.17343 0.63166
 H413 H 0.83366 0.19781 0.62939
 H414 H 0.80310 0.16728 0.62909
 H415 H 0.82844 0.17201 0.66609
 H416 H 0.83936 0.16109 0.65541
 N417 N 0.31956 0.35699 0.66995
 N418 N 0.32887 0.35668 0.67931
 C419 C 0.32679 0.36709 0.68778
 C420 C 0.31563 0.37417 0.68342
 C421 C 0.31126 0.36757 0.67212
 H422 H 0.33286 0.36933 0.69647
 H423 H 0.30266 0.37022 0.66600
 Cu424 Cu 0.34265 0.34263 0.67955
 Cu425 Cu 0.31880 0.34358 0.65574
 Cu426 Cu 0.34349 0.31860 0.65577
 N427 N 0.35659 0.32873 0.67933
 N428 N 0.35685 0.31934 0.67001
 C429 C 0.36738 0.31099 0.67223
 C430 C 0.37400 0.31544 0.68349
 C431 C 0.36697 0.32668 0.68778
 H432 H 0.37001 0.30233 0.66614
 H433 H 0.36925 0.33283 0.69642
 N434 N 0.32909 0.31961 0.64222
 N435 N 0.31971 0.32915 0.64221
 C436 C 0.31135 0.32710 0.63181
 C437 C 0.31570 0.31578 0.62504
 C438 C 0.32692 0.31123 0.63181
 H439 H 0.30271 0.33333 0.62933
 H440 H 0.33300 0.30248 0.62934
 H441 H 0.32812 0.32805 0.66616
 H442 H 0.33922 0.33909 0.65572
 N443 N 0.31966 0.85702 0.16979
 N444 N 0.32898 0.85666 0.17913
 C445 C 0.32697 0.86707 0.18762
 C446 C 0.31582 0.87421 0.18331
 C447 C 0.31140 0.86763 0.17201
 H448 H 0.33308 0.86928 0.19629
 H449 H 0.30280 0.87034 0.16590
 Cu450 Cu 0.34276 0.84259 0.17931
 Cu451 Cu 0.31885 0.84364 0.15553
 Cu452 Cu 0.34358 0.81870 0.15540
 N453 N 0.35672 0.82869 0.17899
 N454 N 0.35699 0.81937 0.16961
 C455 C 0.36755 0.81104 0.17173
 C456 C 0.37418 0.81542 0.18302
 C457 C 0.36712 0.82660 0.18741
 H458 H 0.37020 0.80244 0.16557
 H459 H 0.36940 0.83270 0.19609
 N460 N 0.32915 0.81973 0.14189
 N461 N 0.31973 0.82923 0.14194
 C462 C 0.31135 0.82718 0.13155
 C463 C 0.31574 0.81591 0.12471
 C464 C 0.32700 0.81139 0.13145
 H465 H 0.30268 0.83338 0.12911
 H466 H 0.33312 0.80267 0.12893
 H467 H 0.32819 0.82810 0.16584
 H468 H 0.33926 0.83921 0.15546
 N469 N 0.81948 0.35678 0.16942
 N470 N 0.82898 0.35679 0.17859
 C471 C 0.82680 0.36718 0.18705
 C472 C 0.81537 0.37395 0.18290
 C473 C 0.81094 0.36716 0.17172
 H474 H 0.83300 0.36964 0.19559
 H475 H 0.80217 0.36957 0.16574
 Cu476 Cu 0.84322 0.34317 0.17865
 Cu477 Cu 0.81884 0.34330 0.15526
 Cu478 Cu 0.84372 0.31854 0.15542
 N479 N 0.85690 0.32899 0.17879
 N480 N 0.85704 0.31939 0.16969
 C481 C 0.86746 0.31094 0.17210
 C482 C 0.87411 0.31554 0.18329
 C483 C 0.86722 0.32697 0.18732
 H484 H 0.87000 0.30213 0.16619
 H485 H 0.86957 0.33329 0.19582
 N486 N 0.82937 0.31938 0.14181
 N487 N 0.81989 0.32882 0.14175
 C488 C 0.81162 0.32668 0.13129
 C489 C 0.81614 0.31541 0.12453
 C490 C 0.82737 0.31100 0.13138
 H491 H 0.80295 0.33284 0.12875
 H492 H 0.83359 0.30233 0.12893
 H493 H 0.82850 0.32816 0.16593
 H494 H 0.83927 0.33900 0.15496
 N495 N 0.81970 0.85722 0.66949
 N496 N 0.82900 0.85701 0.67887
 C497 C 0.82683 0.86741 0.68732
 C498 C 0.81562 0.87441 0.68295
 C499 C 0.81131 0.86775 0.67165
 H500 H 0.83287 0.86971 0.69602
 H501 H 0.80269 0.87033 0.66552
 Cu502 Cu 0.84288 0.84304 0.67914
 Cu503 Cu 0.81905 0.84378 0.65529
 Cu504 Cu 0.84391 0.81899 0.65541
 N505 N 0.85691 0.82921 0.67900
 N506 N 0.85723 0.81982 0.66968
 C507 C 0.86778 0.81151 0.67191
 C508 C 0.87435 0.81595 0.68319
 C509 C 0.86727 0.82717 0.68749
 H510 H 0.87044 0.80286 0.66582
 H511 H 0.86950 0.83331 0.69614
 N512 N 0.82955 0.81986 0.64182
 N513 N 0.82008 0.82931 0.64177
 C514 C 0.81176 0.82715 0.63135
 C515 C 0.81625 0.81584 0.62461
 C516 C 0.82749 0.81144 0.63143
 H517 H 0.80307 0.83328 0.62884
 H518 H 0.83366 0.80273 0.62901
 H519 H 0.82844 0.82836 0.66574
 H520 H 0.83948 0.83945 0.65531
 N521 N 0.68053 0.64329 0.66983
 N522 N 0.67128 0.64344 0.67927
 C523 C 0.67347 0.63296 0.68764
 C524 C 0.68465 0.62598 0.68316
 C525 C 0.68892 0.63273 0.67188
 H526 H 0.66745 0.63058 0.69633
 H527 H 0.69749 0.63018 0.66567
 Cu528 Cu 0.65736 0.65735 0.67971
 Cu529 Cu 0.68106 0.65683 0.65568
 Cu530 Cu 0.65611 0.68154 0.65609
 N531 N 0.64329 0.67113 0.67971
 N532 N 0.64287 0.68057 0.67044
 C533 C 0.63229 0.68882 0.67279
 C534 C 0.62580 0.68425 0.68410
 C535 C 0.63296 0.67304 0.68828
 H536 H 0.62954 0.69749 0.66677
 H537 H 0.63081 0.66682 0.69692
 N538 N 0.67040 0.68081 0.64239
 N539 N 0.67990 0.67139 0.64224
 C540 C 0.68816 0.67364 0.63177
 C541 C 0.68361 0.68497 0.62512
 C542 C 0.67238 0.68931 0.63203
 H543 H 0.69686 0.66755 0.62919
 H544 H 0.66617 0.69801 0.62968
 H545 H 0.67168 0.67215 0.66626
 H546 H 0.66062 0.66107 0.65587
 N547 N 0.68047 0.14290 0.16945
 N548 N 0.67091 0.14283 0.17858
 C549 C 0.67303 0.13238 0.18700
 C550 C 0.68448 0.12563 0.18286
 C551 C 0.68899 0.13250 0.17174
 H552 H 0.66678 0.12986 0.19550
 H553 H 0.69779 0.13012 0.16579
 Cu554 Cu 0.65667 0.15644 0.17863
 Cu555 Cu 0.68117 0.15648 0.15534
 Cu556 Cu 0.65623 0.18117 0.15548
 N557 N 0.64294 0.17057 0.17876
 N558 N 0.64282 0.18021 0.16968
 C559 C 0.63238 0.18863 0.17208
 C560 C 0.62569 0.18398 0.18325
 C561 C 0.63258 0.17255 0.18728
 H562 H 0.62987 0.19747 0.16620
 H563 H 0.63023 0.16621 0.19578
 N564 N 0.67067 0.18045 0.14194
 N565 N 0.68018 0.17105 0.14190
 C566 C 0.68855 0.17331 0.13151
 C567 C 0.68404 0.18462 0.12479
 C568 C 0.67273 0.18893 0.13158
 H569 H 0.69727 0.16721 0.12901
 H570 H 0.66651 0.19761 0.12914
 H571 H 0.67142 0.17152 0.16600
 H572 H 0.66073 0.16071 0.15496
 N573 N 0.18014 0.64299 0.16973
 N574 N 0.17067 0.64331 0.17895
 C575 C 0.17265 0.63296 0.18752
 C576 C 0.18390 0.62588 0.18338
 C577 C 0.18844 0.63245 0.17210
 H578 H 0.16644 0.63073 0.19613
 H579 H 0.19714 0.62978 0.16611
 Cu580 Cu 0.15682 0.65731 0.17888
 Cu581 Cu 0.18106 0.65630 0.15539
 Cu582 Cu 0.15641 0.68132 0.15506
 N583 N 0.14307 0.67141 0.17861
 N584 N 0.14297 0.68077 0.16925
 C585 C 0.13254 0.68927 0.17138
 C586 C 0.12582 0.68497 0.18265
 C587 C 0.13269 0.67366 0.18704
 H588 H 0.13006 0.69793 0.16522
 H589 H 0.13029 0.66758 0.19571
 N590 N 0.17088 0.68017 0.14157
 N591 N 0.18028 0.67066 0.14171
 C592 C 0.18874 0.67267 0.13136
 C593 C 0.18441 0.68394 0.12446
 C594 C 0.17311 0.68849 0.13112
 H595 H 0.19743 0.66647 0.12902
 H596 H 0.16705 0.69723 0.12856
 H597 H 0.17161 0.67182 0.16566
 H598 H 0.16066 0.66080 0.15509
 N599 N 0.18002 0.14236 0.67017
 N600 N 0.17064 0.14272 0.67947
 C601 C 0.17263 0.13234 0.68801
 C602 C 0.18382 0.12521 0.68376
 C603 C 0.18829 0.13177 0.67246
 H604 H 0.16650 0.13015 0.69668
 H605 H 0.19694 0.12909 0.66642
 Cu606 Cu 0.15690 0.15684 0.67956
 Cu607 Cu 0.18096 0.15573 0.65590
 Cu608 Cu 0.15634 0.18076 0.65564
 N609 N 0.14301 0.17079 0.67919
 N610 N 0.14286 0.18012 0.66979
 C611 C 0.13236 0.18854 0.67188
 C612 C 0.12565 0.18422 0.68315
 C613 C 0.13259 0.17297 0.68758
 H614 H 0.12982 0.19718 0.66571
 H615 H 0.13024 0.16691 0.69627
 N616 N 0.17084 0.17969 0.64220
 N617 N 0.18022 0.17015 0.64231
 C618 C 0.18872 0.17221 0.63200
 C619 C 0.18445 0.18354 0.62516
 C620 C 0.17314 0.18807 0.63181
 H621 H 0.19741 0.16601 0.62964
 H622 H 0.16710 0.19685 0.62928
 H623 H 0.17161 0.17128 0.66617
 H624 H 0.16058 0.16023 0.65573
 N625 N 0.31957 0.64321 0.33017
 N626 N 0.32913 0.64315 0.32104
 C627 C 0.32694 0.63277 0.31257
 C628 C 0.31547 0.62606 0.31670
 C629 C 0.31101 0.63288 0.32785
 H630 H 0.33317 0.63029 0.30404
 H631 H 0.30222 0.63049 0.33381
 Cu632 Cu 0.34342 0.65668 0.32099
 Cu633 Cu 0.31891 0.65671 0.34433
 Cu634 Cu 0.34377 0.68142 0.34412
 N635 N 0.35705 0.67088 0.32083
 N636 N 0.35712 0.68053 0.32988
 C637 C 0.36750 0.68899 0.32743
 C638 C 0.37421 0.68436 0.31628
 C639 C 0.36738 0.67289 0.31229
 H640 H 0.37001 0.69783 0.33330
 H641 H 0.36975 0.66655 0.30380
 N642 N 0.32942 0.68062 0.35772
 N643 N 0.31995 0.67120 0.35780
 C644 C 0.31169 0.67335 0.36828
 C645 C 0.31621 0.68463 0.37501
 C646 C 0.32743 0.68902 0.36814
 H647 H 0.30302 0.66722 0.37085
 H648 H 0.33365 0.69768 0.37057
 H649 H 0.32860 0.67176 0.33358
 H650 H 0.33932 0.66096 0.34465
 N651 N 0.31965 0.14286 0.83049
 N652 N 0.32914 0.14279 0.82129
 C653 C 0.32695 0.13236 0.81290
 C654 C 0.31554 0.12563 0.81712
 C655 C 0.31111 0.13248 0.82827
 H656 H 0.33313 0.12985 0.80434
 H657 H 0.30234 0.13012 0.83428
 Cu658 Cu 0.34336 0.15638 0.82109
 Cu659 Cu 0.31899 0.15647 0.84453
 Cu660 Cu 0.34381 0.18124 0.84406
 N661 N 0.35702 0.17053 0.82081
 N662 N 0.35714 0.18023 0.82981
 C663 C 0.36753 0.18866 0.82729
 C664 C 0.37419 0.18395 0.81613
 C665 C 0.36733 0.17247 0.81223
 H666 H 0.37003 0.19754 0.83309
 H667 H 0.36968 0.16608 0.80378
 N668 N 0.32947 0.18055 0.85768
 N669 N 0.32002 0.17110 0.85788
 C670 C 0.31174 0.17337 0.86832
 C671 C 0.31623 0.18474 0.87492
 C672 C 0.32744 0.18907 0.86799
 H673 H 0.30309 0.16724 0.87096
 H674 H 0.33362 0.19779 0.87032
 H675 H 0.32861 0.17148 0.83370
 H676 H 0.33942 0.16077 0.84475
 N677 N 0.81980 0.64302 0.83038
 N678 N 0.82907 0.64330 0.82096
 C679 C 0.82699 0.63287 0.81253
 C680 C 0.81587 0.62578 0.81695
 C681 C 0.81151 0.63243 0.82825
 H682 H 0.83305 0.63061 0.80383
 H683 H 0.80295 0.62978 0.83443
 Cu684 Cu 0.84289 0.65731 0.82060
 Cu685 Cu 0.81911 0.65648 0.84459
 Cu686 Cu 0.84393 0.68127 0.84441
 N687 N 0.85689 0.67115 0.82076
 N688 N 0.85723 0.68047 0.83013
 C689 C 0.86778 0.68878 0.82791
 C690 C 0.87432 0.68439 0.81658
 C691 C 0.86724 0.67321 0.81224
 H692 H 0.87046 0.69738 0.83405
 H693 H 0.86944 0.66711 0.80355
 N694 N 0.82959 0.68040 0.85802
 N695 N 0.82012 0.67097 0.85809
 C696 C 0.81180 0.67317 0.86853
 C697 C 0.81630 0.68448 0.87524
 C698 C 0.82755 0.68884 0.86840
 H699 H 0.80310 0.66707 0.87106
 H700 H 0.83372 0.69753 0.87081
 H701 H 0.82844 0.67193 0.83412
 H702 H 0.83954 0.66079 0.84447
 N703 N 0.81989 0.14287 0.33016
 N704 N 0.82926 0.14304 0.32084
 C705 C 0.82714 0.13263 0.31240
 C706 C 0.81589 0.12567 0.31672
 C707 C 0.81150 0.13237 0.32798
 H708 H 0.83325 0.13028 0.30375
 H709 H 0.80286 0.12981 0.33408
 Cu710 Cu 0.84323 0.15689 0.32065
 Cu711 Cu 0.81919 0.15633 0.34436
 Cu712 Cu 0.84399 0.18113 0.34421
 N713 N 0.85710 0.17084 0.32068
 N714 N 0.85734 0.18029 0.32994
 C715 C 0.86785 0.18864 0.32764
 C716 C 0.87446 0.18414 0.31639
 C717 C 0.86746 0.17286 0.31218
 H718 H 0.87046 0.19734 0.33368
 H719 H 0.86974 0.16666 0.30357
 N720 N 0.82961 0.18027 0.35780
 N721 N 0.82017 0.17081 0.35786
 C722 C 0.81183 0.17297 0.36829
 C723 C 0.81628 0.18428 0.37502
 C724 C 0.82752 0.18869 0.36819
 H725 H 0.80316 0.16682 0.37080
 H726 H 0.83367 0.19740 0.37062
 H727 H 0.82864 0.17166 0.33382
 H728 H 0.83961 0.16065 0.34444
 N729 N 0.68037 0.35630 0.32997
 N730 N 0.67083 0.35634 0.32085
 C731 C 0.67297 0.36673 0.31238
 C732 C 0.68441 0.37349 0.31648
 C733 C 0.68890 0.36667 0.32764
 H734 H 0.66670 0.36925 0.30391
 H735 H 0.69768 0.36909 0.33360
 Cu736 Cu 0.65649 0.34286 0.32091
 Cu737 Cu 0.68102 0.34288 0.34420
 Cu738 Cu 0.65617 0.31819 0.34417
 N739 N 0.64290 0.32861 0.32084
 N740 N 0.64282 0.31900 0.32996
 C741 C 0.63244 0.31053 0.32760
 C742 C 0.62573 0.31512 0.31644
 C743 C 0.63255 0.32656 0.31235
 H744 H 0.62996 0.30171 0.33355
 H745 H 0.63013 0.33288 0.30387
 N746 N 0.67052 0.31902 0.35775
 N747 N 0.68000 0.32844 0.35777
 C748 C 0.68832 0.32627 0.36820
 C749 C 0.68381 0.31500 0.37497
 C750 C 0.67257 0.31061 0.36817
 H751 H 0.69702 0.33237 0.37068
 H752 H 0.66640 0.30192 0.37062
 H753 H 0.67133 0.32783 0.33358
 H754 H 0.66060 0.33868 0.34459
 N755 N 0.67971 0.85741 0.83123
 N756 N 0.67099 0.85687 0.82133
 C757 C 0.67381 0.86680 0.81252
 C758 C 0.68476 0.87393 0.81726
 C759 C 0.68828 0.86778 0.82912
 H760 H 0.66828 0.86883 0.80342
 H761 H 0.69642 0.87063 0.83572
 Cu762 Cu 0.65692 0.84313 0.82105
 Cu763 Cu 0.67896 0.84494 0.84630
 Cu764 Cu 0.65610 0.81836 0.84400
 N765 N 0.64282 0.82942 0.82086
 N766 N 0.64274 0.81959 0.82976
 C767 C 0.63223 0.81132 0.82729
 C768 C 0.62550 0.81621 0.81625
 C769 C 0.63243 0.82765 0.81235
 H770 H 0.62972 0.80238 0.83303
 H771 H 0.63006 0.83414 0.80396
 N772 N 0.67034 0.81921 0.85771
 N773 N 0.67891 0.82942 0.85870
 C774 C 0.68724 0.82714 0.86910
 C775 C 0.68365 0.81499 0.87487
 C776 C 0.67295 0.81020 0.86750
 H777 H 0.69531 0.83379 0.87224
 H778 H 0.66746 0.80088 0.86919
 H779 H 0.67159 0.82927 0.83486
 H780 H 0.65887 0.83882 0.84492
 N781 N 0.17986 0.35699 0.83036
 N782 N 0.17029 0.35703 0.82125
 C783 C 0.17241 0.36744 0.81278
 C784 C 0.18387 0.37418 0.81686
 C785 C 0.18837 0.36736 0.82801
 H786 H 0.16617 0.36991 0.80427
 H787 H 0.19719 0.36974 0.83392
 Cu788 Cu 0.15607 0.34343 0.82125
 Cu789 Cu 0.18063 0.34347 0.84450
 Cu790 Cu 0.15581 0.31873 0.84443
 N791 N 0.14247 0.32920 0.82115
 N792 N 0.14242 0.31960 0.83027
 C793 C 0.13208 0.31109 0.82790
 C794 C 0.12537 0.31564 0.81673
 C795 C 0.13214 0.32711 0.81264
 H796 H 0.12964 0.30225 0.83382
 H797 H 0.12973 0.33340 0.80412
 N798 N 0.17021 0.31952 0.85794
 N799 N 0.17969 0.32894 0.85797
 C800 C 0.18806 0.32669 0.86834
 C801 C 0.18358 0.31537 0.87507
 C802 C 0.17230 0.31105 0.86830
 H803 H 0.19677 0.33279 0.87083
 H804 H 0.16612 0.30236 0.87074
 H805 H 0.17095 0.32844 0.83384
 H806 H 0.16023 0.33923 0.84491
 N807 N 0.17995 0.85707 0.33022
 N808 N 0.17056 0.85691 0.32093
 C809 C 0.17262 0.86738 0.31252
 C810 C 0.18385 0.87436 0.31683
 C811 C 0.18828 0.86762 0.32805
 H812 H 0.16649 0.86974 0.30389
 H813 H 0.19694 0.87017 0.33412
 Cu814 Cu 0.15672 0.84292 0.32070
 Cu815 Cu 0.18075 0.84354 0.34437
 Cu816 Cu 0.15593 0.81875 0.34435
 N817 N 0.14275 0.82906 0.32088
 N818 N 0.14251 0.81964 0.33018
 C819 C 0.13199 0.81130 0.32798
 C820 C 0.12535 0.81577 0.31673
 C821 C 0.13236 0.82703 0.31243
 H822 H 0.12940 0.80262 0.33405
 H823 H 0.13007 0.83319 0.30379
 N824 N 0.17038 0.81956 0.35785
 N825 N 0.17985 0.82900 0.35784
 C826 C 0.18824 0.82679 0.36820
 C827 C 0.18381 0.81548 0.37495
 C828 C 0.17251 0.81111 0.36822
 H829 H 0.19694 0.83292 0.37067
 H830 H 0.16635 0.80242 0.37069
 H831 H 0.17130 0.82818 0.33393
 H832 H 0.16034 0.83922 0.34449
 C833 C 0.24473 1.00010 0.25448
 C834 C 0.25505 1.00012 0.24560
 C835 C 0.26047 1.01293 0.24015
 C836 C 0.26062 0.98736 0.24012
 C837 C 0.23931 0.98730 0.25996
 C838 C 0.23919 1.01286 0.25997
 C839 C 0.25372 1.01951 0.22968
 C840 C 0.25899 1.03145 0.22424
 C841 C 0.27103 1.03688 0.22924
 C842 C 0.27770 1.03041 0.23979
 C843 C 0.27245 1.01847 0.24523
 C844 C 0.25284 0.97938 0.23146
 C845 C 0.25824 0.96754 0.22595
 C846 C 0.27148 0.96361 0.22902
 C847 C 0.27925 0.97152 0.23770
 C848 C 0.27385 0.98336 0.24322
 C849 C 0.24614 0.98067 0.27035
 C850 C 0.24082 0.96881 0.27590
 C851 C 0.22865 0.96349 0.27108
 C852 C 0.22190 0.97001 0.26059
 C853 C 0.22721 0.98187 0.25506
 C854 C 0.24694 1.02073 0.26876
 C855 C 0.24158 1.03258 0.27427
 C856 C 0.22841 1.03663 0.27108
 C857 C 0.22067 1.02884 0.26227
 C858 C 0.22603 1.01699 0.25675
 H859 H 0.24445 1.01534 0.22569
 H860 H 0.25374 1.03637 0.21608
 H861 H 0.28701 1.03454 0.24376
 H862 H 0.27769 1.01358 0.25340
 H863 H 0.24266 0.98241 0.22887
 H864 H 0.25215 0.96152 0.21921
 H865 H 0.27998 0.98935 0.24992
 H866 H 0.25549 0.98477 0.27423
 H867 H 0.24612 0.96385 0.28400
 H868 H 0.21250 0.96596 0.25677
 H869 H 0.22190 0.98680 0.24695
 H870 H 0.25707 1.01760 0.27144
 H871 H 0.24765 1.03852 0.28110
 H872 H 0.21047 1.03188 0.25975
 H873 H 0.21992 1.01108 0.24995
 H874 H 0.28950 0.96859 0.24014
 C875 C 0.24476 0.49995 0.75450
 C876 C 0.25512 0.50004 0.74566
 C877 C 0.26066 0.51285 0.74029
 C878 C 0.26055 0.48730 0.74008
 C879 C 0.23923 0.48713 0.75988
 C880 C 0.23932 0.51268 0.76006
 C881 C 0.25291 0.52084 0.73158
 C882 C 0.25829 0.53271 0.72612
 C883 C 0.27149 0.53666 0.72929
 C884 C 0.27922 0.52876 0.73803
 C885 C 0.27384 0.51690 0.74351
 C886 C 0.25370 0.48075 0.72968
 C887 C 0.25897 0.46887 0.72412
 C888 C 0.27111 0.46347 0.72895
 C889 C 0.27789 0.46991 0.73944
 C890 C 0.27264 0.48179 0.74499
 C891 C 0.24704 0.47908 0.76849
 C892 C 0.24167 0.46719 0.77392
 C893 C 0.22844 0.46328 0.77084
 C894 C 0.22064 0.47127 0.76223
 C895 C 0.22600 0.48315 0.75678
 C896 C 0.24606 0.51914 0.77058
 C897 C 0.24076 0.53099 0.77615
 C898 C 0.22869 0.53646 0.77123
 C899 C 0.22201 0.53011 0.76062
 C900 C 0.22731 0.51825 0.75506
 H901 H 0.24276 0.51778 0.72890
 H902 H 0.25222 0.53873 0.71935
 H903 H 0.28944 0.53173 0.74055
 H904 H 0.27995 0.51090 0.75024
 H905 H 0.24436 0.48491 0.72582
 H906 H 0.25365 0.46397 0.71601
 H907 H 0.27795 0.48664 0.75312
 H908 H 0.25721 0.48210 0.77110
 H909 H 0.24778 0.46111 0.78062
 H910 H 0.21038 0.46835 0.75979
 H911 H 0.21984 0.48921 0.75014
 H912 H 0.25536 0.51494 0.77451
 H913 H 0.24600 0.53583 0.78435
 H914 H 0.21269 0.53428 0.75672
 H915 H 0.22207 0.51346 0.74684
 H916 H 0.28726 0.46578 0.74327
 C917 C 0.74523 -0.00017 0.24558
 C918 C 0.75552 -0.00022 0.25448
 C919 C 0.76097 -0.01303 0.25999
 C920 C 0.76095 0.01254 0.25999
 C921 C 0.73972 0.01262 0.24010
 C922 C 0.73977 -0.01294 0.24011
 C923 C 0.75313 -0.02088 0.26874
 C924 C 0.75838 -0.03279 0.27426
 C925 C 0.77155 -0.03692 0.27112
 C926 C 0.77939 -0.02913 0.26237
 C927 C 0.77414 -0.01722 0.25684
 C928 C 0.75408 0.01917 0.27035
 C929 C 0.75935 0.03106 0.27587
 C930 C 0.77151 0.03640 0.27104
 C931 C 0.77831 0.02988 0.26060
 C932 C 0.77306 0.01799 0.25509
 C933 C 0.74755 0.02060 0.23145
 C934 C 0.74220 0.03246 0.22592
 C935 C 0.72895 0.03641 0.22894
 C936 C 0.72113 0.02850 0.23760
 C937 C 0.72648 0.01665 0.24315
 C938 C 0.74655 -0.01955 0.22968
 C939 C 0.74123 -0.03144 0.22420
 C940 C 0.72912 -0.03679 0.22913
 C941 C 0.72241 -0.03029 0.23965
 C942 C 0.72772 -0.01840 0.24512
 H943 H 0.74300 -0.01771 0.27138
 H944 H 0.75224 -0.03872 0.28104
 H945 H 0.78959 -0.03222 0.25988
 H946 H 0.78032 -0.01132 0.25009
 H947 H 0.74472 0.01506 0.27421
 H948 H 0.75400 0.03601 0.28394
 H949 H 0.77841 0.01306 0.24701
 H950 H 0.75773 0.01755 0.22888
 H951 H 0.74833 0.03848 0.21920
 H952 H 0.71087 0.03145 0.24000
 H953 H 0.72029 0.01065 0.24982
 H954 H 0.75587 -0.01543 0.22573
 H955 H 0.74650 -0.03638 0.21607
 H956 H 0.71305 -0.03436 0.24355
 H957 H 0.72245 -0.01350 0.25327
 H958 H 0.78771 0.03395 0.25677
 C959 C 0.74490 0.49997 0.74573
 C960 C 0.75525 0.49998 0.75457
 C961 C 0.76062 0.48719 0.76013
 C962 C 0.76080 0.51276 0.75999
 C963 C 0.73952 0.51275 0.74016
 C964 C 0.73934 0.48720 0.74031
 C965 C 0.75377 0.48067 0.77058
 C966 C 0.75899 0.46874 0.77612
 C967 C 0.77109 0.46327 0.77124
 C968 C 0.77785 0.46969 0.76071
 C969 C 0.77265 0.48161 0.75518
 C970 C 0.75298 0.52078 0.76862
 C971 C 0.75835 0.53262 0.77413
 C972 C 0.77160 0.53652 0.77110
 C973 C 0.77941 0.52859 0.76245
 C974 C 0.77405 0.51675 0.75692
 C975 C 0.74639 0.51929 0.72974
 C976 C 0.74114 0.53117 0.72416
 C977 C 0.72900 0.53660 0.72896
 C978 C 0.72219 0.53017 0.73946
 C979 C 0.72743 0.51828 0.74504
 C980 C 0.74710 0.47923 0.73158
 C981 C 0.74169 0.46741 0.72606
 C982 C 0.72847 0.46349 0.72918
 C983 C 0.72071 0.47139 0.73792
 C984 C 0.72612 0.48320 0.74345
 H985 H 0.74449 0.48491 0.77451
 H986 H 0.75366 0.46387 0.78426
 H987 H 0.78719 0.46551 0.75684
 H988 H 0.77800 0.48647 0.74706
 H989 H 0.74279 0.51777 0.77118
 H990 H 0.75223 0.53865 0.78085
 H991 H 0.78022 0.51075 0.75024
 H992 H 0.75573 0.51511 0.72589
 H993 H 0.74648 0.53606 0.71603
 H994 H 0.71281 0.53429 0.74327
 H995 H 0.72208 0.51343 0.75317
 H996 H 0.75726 0.48227 0.72894
 H997 H 0.74776 0.46141 0.71927
 H998 H 0.71047 0.46846 0.74038
 H999 H 0.71999 0.48920 0.75017
 H1000 H 0.78967 0.53152 0.76005
 C1001 C 0.24499 0.50006 0.24563
 C1002 C 0.25531 0.50005 0.25450
 C1003 C 0.26085 0.48728 0.25997
 C1004 C 0.26069 0.51282 0.26003
 C1005 C 0.23939 0.51283 0.24020
 C1006 C 0.23960 0.48727 0.24015
 C1007 C 0.25310 0.47940 0.26878
 C1008 C 0.25844 0.46750 0.27424
 C1009 C 0.27159 0.46343 0.27098
 C1010 C 0.27934 0.47125 0.26218
 C1011 C 0.27400 0.48314 0.25671
 C1012 C 0.25377 0.51945 0.27036
 C1013 C 0.25896 0.53138 0.27584
 C1014 C 0.27109 0.53679 0.27100
 C1015 C 0.27797 0.53025 0.26061
 C1016 C 0.27279 0.51831 0.25514
 C1017 C 0.24716 0.52090 0.23158
 C1018 C 0.24172 0.53275 0.22611
 C1019 C 0.22846 0.53660 0.22918
 C1020 C 0.22069 0.52860 0.23780
 C1021 C 0.22612 0.51675 0.24328
 C1022 C 0.24634 0.48076 0.22963
 C1023 C 0.24105 0.46888 0.22410
 C1024 C 0.22898 0.46344 0.22907
 C1025 C 0.22233 0.46983 0.23968
 C1026 C 0.22761 0.48170 0.24520
 H1027 H 0.24298 0.48255 0.27149
 H1028 H 0.25236 0.46155 0.28107
 H1029 H 0.28952 0.46820 0.25960
 H1030 H 0.28010 0.48907 0.24991
 H1031 H 0.24440 0.51532 0.27419
 H1032 H 0.25357 0.53635 0.28388
 H1033 H 0.27816 0.51340 0.24706
 H1034 H 0.25736 0.51793 0.22899
 H1035 H 0.24780 0.53885 0.21942
 H1036 H 0.21042 0.53148 0.24024
 H1037 H 0.21999 0.51070 0.24994
 H1038 H 0.25562 0.48495 0.22565
 H1039 H 0.24629 0.46402 0.21591
 H1040 H 0.21302 0.46568 0.24363
 H1041 H 0.22237 0.48652 0.25342
 H1042 H 0.28735 0.53435 0.25679
 C1043 C 0.74517 1.00019 0.75523
 C1044 C 0.75456 1.00021 0.74531
 C1045 C 0.76007 1.01307 0.73992
 C1046 C 0.75986 0.98751 0.73933
 C1047 C 0.73998 0.98746 0.76126
 C1048 C 0.73953 1.01301 0.76058
 C1049 C 0.75822 1.01624 0.72639
 C1050 C 0.76355 1.02820 0.72110
 C1051 C 0.77091 1.03702 0.72926
 C1052 C 0.77281 1.03390 0.74277
 C1053 C 0.76742 1.02196 0.74809
 C1054 C 0.75115 0.97780 0.73374
 C1055 C 0.75639 0.96597 0.72803
 C1056 C 0.77037 0.96380 0.72774
 C1057 C 0.77908 0.97350 0.73315
 C1058 C 0.77387 0.98530 0.73887
 C1059 C 0.74878 0.97785 0.76689
 C1060 C 0.74366 0.96595 0.77258
 C1061 C 0.72970 0.96362 0.77277
 C1062 C 0.72090 0.97326 0.76733
 C1063 C 0.72600 0.98513 0.76165
 C1064 C 0.74134 1.01622 0.77410
 C1065 C 0.73594 1.02818 0.77933
 C1066 C 0.72856 1.03698 0.77112
 C1067 C 0.72664 1.03378 0.75764
 C1068 C 0.73210 1.02184 0.75238
 H1069 H 0.75259 1.00947 0.71996
 H1070 H 0.76201 1.03052 0.71064
 H1071 H 0.77854 1.04064 0.74915
 H1072 H 0.76909 1.01956 0.75851
 H1073 H 0.74034 0.97943 0.73375
 H1074 H 0.74956 0.95856 0.72380
 H1075 H 0.78077 0.99269 0.74304
 H1076 H 0.75957 0.97959 0.76693
 H1077 H 0.75055 0.95861 0.77685
 H1078 H 0.71008 0.97160 0.76749
 H1079 H 0.71904 0.99246 0.75745
 H1080 H 0.74702 1.00950 0.78056
 H1081 H 0.73745 1.03054 0.78978
 H1082 H 0.72086 1.04046 0.75123
 H1083 H 0.73044 1.01940 0.74197
 H1084 H 0.78992 0.97193 0.73294
 C1085 C 0.74473 0.49978 0.25456
 C1086 C 0.75500 0.49978 0.24563
 C1087 C 0.76053 0.51256 0.24017
 C1088 C 0.76037 0.48700 0.24006
 C1089 C 0.73920 0.48699 0.26001
 C1090 C 0.73937 0.51256 0.26013
 C1091 C 0.75272 0.52056 0.23152
 C1092 C 0.75805 0.53247 0.22608
 C1093 C 0.77124 0.53644 0.22922
 C1094 C 0.77906 0.52851 0.23787
 C1095 C 0.77373 0.51661 0.24331
 C1096 C 0.75353 0.48051 0.22961
 C1097 C 0.75875 0.46861 0.22406
 C1098 C 0.77083 0.46310 0.22893
 C1099 C 0.77759 0.46948 0.23947
 C1100 C 0.77239 0.48139 0.24501
 C1101 C 0.74701 0.47899 0.26865
 C1102 C 0.74167 0.46709 0.27410
 C1103 C 0.72847 0.46313 0.27099
 C1104 C 0.72066 0.47106 0.26233
 C1105 C 0.72600 0.48295 0.25686
 C1106 C 0.74627 0.51910 0.27051
 C1107 C 0.74106 0.53101 0.27607
 C1108 C 0.72893 0.53647 0.27126
 C1109 C 0.72210 0.53004 0.26080
 C1110 C 0.72730 0.51812 0.25525
 H1111 H 0.74256 0.51750 0.22889
 H1112 H 0.75193 0.53851 0.21937
 H1113 H 0.78927 0.53149 0.24035
 H1114 H 0.77989 0.51059 0.25000
 H1115 H 0.74424 0.48474 0.22571
 H1116 H 0.75344 0.46376 0.21591
 H1117 H 0.77772 0.48621 0.25316
 H1118 H 0.75717 0.48205 0.27128
 H1119 H 0.74779 0.46105 0.28082
 H1120 H 0.71043 0.46810 0.25986
 H1121 H 0.71984 0.48896 0.25018
 H1122 H 0.75560 0.51491 0.27435
 H1123 H 0.74642 0.53590 0.28416
 H1124 H 0.71273 0.53418 0.25699
 H1125 H 0.72194 0.51327 0.24714
 H1126 H 0.78692 0.46528 0.24333
 C1127 C 0.24521 -0.00042 0.74587
 C1128 C 0.25554 -0.00038 0.75473
 C1129 C 0.26107 -0.01315 0.76016
 C1130 C 0.26096 0.01240 0.76024
 C1131 C 0.23968 0.01236 0.74046
 C1132 C 0.23976 -0.01319 0.74036
 C1133 C 0.25427 -0.01989 0.77050
 C1134 C 0.25963 -0.03179 0.77592
 C1135 C 0.27181 -0.03704 0.77102
 C1136 C 0.27854 -0.03041 0.76059
 C1137 C 0.27319 -0.01850 0.75518
 C1138 C 0.25316 0.02018 0.76909
 C1139 C 0.25841 0.03207 0.77460
 C1140 C 0.27153 0.03624 0.77136
 C1141 C 0.27933 0.02853 0.76251
 C1142 C 0.27408 0.01665 0.75698
 C1143 C 0.24630 0.01892 0.72990
 C1144 C 0.24092 0.03081 0.72446
 C1145 C 0.22890 0.03622 0.72956
 C1146 C 0.22235 0.02978 0.74021
 C1147 C 0.22772 0.01788 0.74564
 C1148 C 0.24766 -0.02116 0.73175
 C1149 C 0.24235 -0.03299 0.72617
 C1150 C 0.22908 -0.03692 0.72909
 C1151 C 0.22119 -0.02903 0.73771
 C1152 C 0.22650 -0.01721 0.74331
 H1153 H 0.24489 -0.01586 0.77441
 H1154 H 0.25435 -0.03684 0.78399
 H1155 H 0.28794 -0.03441 0.75670
 H1156 H 0.27847 -0.01350 0.74710
 H1157 H 0.24307 0.01696 0.77180
 H1158 H 0.25230 0.03794 0.78147
 H1159 H 0.28022 0.01081 0.75014
 H1160 H 0.25556 0.01476 0.72582
 H1161 H 0.24607 0.03572 0.71622
 H1162 H 0.21306 0.03389 0.74424
 H1163 H 0.22257 0.01300 0.75388
 H1164 H 0.25785 -0.01812 0.72925
 H1165 H 0.24852 -0.03899 0.71948
 H1166 H 0.21092 -0.03198 0.74004
 H1167 H 0.22027 -0.01123 0.74996
 H1168 H 0.28949 0.03166 0.75995
 C1169 C 0.25493 0.24524 1.00003
 C1170 C 0.24486 0.25462 1.00006
 C1171 C 0.23949 0.26022 1.01273
 C1172 C 0.23872 0.25989 0.98757
 C1173 C 0.26099 0.23998 0.98750
 C1174 C 0.26039 0.23966 1.01266
 C1175 C 0.22587 0.25823 1.01605
 C1176 C 0.22064 0.26359 1.02788
 C1177 C 0.22895 0.27110 1.03641
 C1178 C 0.24255 0.27315 1.03313
 C1179 C 0.24781 0.26773 1.02133
 C1180 C 0.23310 0.25109 0.97805
 C1181 C 0.22739 0.25629 0.96634
 C1182 C 0.22713 0.27031 0.96412
 C1183 C 0.23254 0.27911 0.97366
 C1184 C 0.23825 0.27394 0.98534
 C1185 C 0.26655 0.24877 0.97791
 C1186 C 0.27225 0.24357 0.96620
 C1187 C 0.27256 0.22954 0.96404
 C1188 C 0.26720 0.22075 0.97363
 C1189 C 0.26148 0.22593 0.98531
 C1190 C 0.27404 0.24166 1.01587
 C1191 C 0.27935 0.23632 1.02766
 C1192 C 0.27111 0.22881 1.03629
 C1193 C 0.25750 0.22673 1.03311
 C1194 C 0.25215 0.23213 1.02134
 H1195 H 0.21935 0.25244 1.00952
 H1196 H 0.21012 0.26193 1.03034
 H1197 H 0.24905 0.27899 1.03965
 H1198 H 0.25831 0.26947 1.01882
 H1199 H 0.23311 0.24024 0.97970
 H1200 H 0.22316 0.24939 0.95905
 H1201 H 0.24245 0.28089 0.99260
 H1202 H 0.26650 0.25963 0.97952
 H1203 H 0.27644 0.25046 0.95887
 H1204 H 0.26742 0.20988 0.97208
 H1205 H 0.25733 0.21898 0.99261
 H1206 H 0.28051 0.24745 1.00927
 H1207 H 0.28989 0.23799 1.03003
 H1208 H 0.25105 0.22088 1.03969
 H1209 H 0.24164 0.23037 1.01892
 H1210 H 0.23235 0.28997 0.97206
 C1211 C 0.25461 0.74492 0.49990
 C1212 C 0.24557 0.75523 0.49990
 C1213 C 0.23999 0.76062 0.51250
 C1214 C 0.24002 0.76078 0.48733
 C1215 C 0.26019 0.73952 0.48731
 C1216 C 0.26015 0.73936 0.51247
 C1217 C 0.22955 0.75368 0.51903
 C1218 C 0.22401 0.75889 0.53080
 C1219 C 0.22888 0.77107 0.53610
 C1220 C 0.23941 0.77795 0.52967
 C1221 C 0.24495 0.77275 0.51791
 C1222 C 0.23134 0.75288 0.47945
 C1223 C 0.22582 0.75821 0.46772
 C1224 C 0.22890 0.77149 0.46381
 C1225 C 0.23758 0.77938 0.47163
 C1226 C 0.24310 0.77405 0.48335
 C1227 C 0.27053 0.74655 0.48069
 C1228 C 0.27611 0.74131 0.46895
 C1229 C 0.27138 0.72902 0.46376
 C1230 C 0.26094 0.72208 0.47026
 C1231 C 0.25536 0.72731 0.48199
 C1232 C 0.26896 0.74717 0.52028
 C1233 C 0.27449 0.74181 0.53198
 C1234 C 0.27131 0.72857 0.53594
 C1235 C 0.26250 0.72075 0.52819
 C1236 C 0.25695 0.72612 0.51650
 H1237 H 0.22566 0.74430 0.51495
 H1238 H 0.21587 0.75348 0.53569
 H1239 H 0.24328 0.78736 0.53371
 H1240 H 0.25311 0.77814 0.51306
 H1241 H 0.22876 0.74266 0.48246
 H1242 H 0.21910 0.75203 0.46177
 H1243 H 0.24983 0.78027 0.48925
 H1244 H 0.27430 0.75602 0.48467
 H1245 H 0.28417 0.74677 0.46399
 H1246 H 0.25716 0.71260 0.46629
 H1247 H 0.24725 0.72188 0.48688
 H1248 H 0.27163 0.75736 0.51724
 H1249 H 0.28132 0.74793 0.53788
 H1250 H 0.25998 0.71050 0.53115
 H1251 H 0.25013 0.71997 0.51065
 H1252 H 0.24002 0.78966 0.46869
 C1253 C 0.24509 0.74557 -0.00028
 C1254 C 0.25541 0.75458 -0.00026
 C1255 C 0.26081 0.76018 -0.01285
 C1256 C 0.26092 0.76012 0.01232
 C1257 C 0.23967 0.73997 0.01230
 C1258 C 0.23954 0.74008 -0.01287
 C1259 C 0.27295 0.75524 -0.01820
 C1260 C 0.27816 0.76078 -0.02997
 C1261 C 0.27126 0.77129 -0.03647
 C1262 C 0.25907 0.77615 -0.03122
 C1263 C 0.25386 0.77060 -0.01945
 C1264 C 0.27414 0.75696 0.01630
 C1265 C 0.27946 0.76251 0.02800
 C1266 C 0.27162 0.77127 0.03581
 C1267 C 0.25841 0.77442 0.03190
 C1268 C 0.25309 0.76889 0.02019
 C1269 C 0.22756 0.74494 0.01767
 C1270 C 0.22235 0.73940 0.02944
 C1271 C 0.22920 0.72886 0.03591
 C1272 C 0.24136 0.72395 0.03064
 C1273 C 0.24659 0.72949 0.01887
 C1274 C 0.22635 0.74335 -0.01685
 C1275 C 0.22101 0.73790 -0.02858
 C1276 C 0.22881 0.72912 -0.03642
 C1277 C 0.24199 0.72587 -0.03252
 C1278 C 0.24734 0.73130 -0.02077
 H1279 H 0.27834 0.74708 -0.01332
 H1280 H 0.28758 0.75693 -0.03397
 H1281 H 0.25366 0.78427 -0.03617
 H1282 H 0.24446 0.77448 -0.01542
 H1283 H 0.28032 0.75018 0.01040
 H1284 H 0.28969 0.76001 0.03093
 H1285 H 0.24292 0.77154 0.01717
 H1286 H 0.22220 0.75313 0.01281
 H1287 H 0.21295 0.74330 0.03345
 H1288 H 0.24675 0.71580 0.03557
 H1289 H 0.25596 0.72558 0.01482
 H1290 H 0.22022 0.75015 -0.01093
 H1291 H 0.21080 0.74048 -0.03150
 H1292 H 0.24810 0.71906 -0.03849
 H1293 H 0.25749 0.72859 -0.01777
 H1294 H 0.25226 0.78123 0.03784
 C1295 C 0.24522 0.24489 0.50022
 C1296 C 0.25454 0.25501 0.50022
 C1297 C 0.26014 0.26044 0.48759
 C1298 C 0.25979 0.26108 0.51273
 C1299 C 0.24001 0.23875 0.51273
 C1300 C 0.23966 0.23947 0.48758
 C1301 C 0.26770 0.25214 0.47899
 C1302 C 0.27319 0.25748 0.46726
 C1303 C 0.27117 0.27115 0.46404
 C1304 C 0.26362 0.27946 0.47258
 C1305 C 0.25818 0.27414 0.48434
 C1306 C 0.27379 0.26148 0.51494
 C1307 C 0.27895 0.26718 0.52662
 C1308 C 0.27019 0.27261 0.53619
 C1309 C 0.25622 0.27240 0.53400
 C1310 C 0.25104 0.26671 0.52229
 C1311 C 0.22602 0.23831 0.51499
 C1312 C 0.22090 0.23262 0.52671
 C1313 C 0.22970 0.22722 0.53627
 C1314 C 0.24366 0.22745 0.53401
 C1315 C 0.24880 0.23313 0.52226
 C1316 C 0.23212 0.24779 0.47897
 C1317 C 0.22673 0.24248 0.46719
 C1318 C 0.22882 0.22883 0.46394
 C1319 C 0.23633 0.22052 0.47250
 C1320 C 0.24167 0.22579 0.48430
 H1321 H 0.26944 0.24159 0.48146
 H1322 H 0.27908 0.25100 0.46076
 H1323 H 0.26200 0.29005 0.47017
 H1324 H 0.25238 0.28067 0.49088
 H1325 H 0.28071 0.25726 0.50766
 H1326 H 0.28977 0.26733 0.52819
 H1327 H 0.24023 0.26673 0.52066
 H1328 H 0.21907 0.24252 0.50774
 H1329 H 0.21008 0.23245 0.52834
 H1330 H 0.25055 0.22323 0.54131
 H1331 H 0.25960 0.23313 0.52058
 H1332 H 0.23034 0.25833 0.48145
 H1333 H 0.22086 0.24898 0.46067
 H1334 H 0.23801 0.20994 0.47007
 H1335 H 0.24746 0.21926 0.49085
 H1336 H 0.24936 0.27665 0.54132
 C1337 C 0.75514 0.74548 1.00016
 C1338 C 0.74503 0.75484 1.00009
 C1339 C 0.73956 0.76046 1.01270
 C1340 C 0.73894 0.75998 0.98753
 C1341 C 0.76127 0.74018 0.98768
 C1342 C 0.76055 0.73995 1.01283
 C1343 C 0.72592 0.75844 1.01594
 C1344 C 0.72061 0.76376 1.02775
 C1345 C 0.72885 0.77125 1.03636
 C1346 C 0.74246 0.77336 1.03314
 C1347 C 0.74780 0.76800 1.02135
 C1348 C 0.73339 0.75108 0.97805
 C1349 C 0.72775 0.75615 0.96626
 C1350 C 0.72750 0.77015 0.96390
 C1351 C 0.73281 0.77905 0.97340
 C1352 C 0.73846 0.77401 0.98517
 C1353 C 0.76690 0.74894 0.97811
 C1354 C 0.77263 0.74371 0.96643
 C1355 C 0.77288 0.72968 0.96428
 C1356 C 0.76747 0.72091 0.97387
 C1357 C 0.76174 0.72612 0.98552
 C1358 C 0.77419 0.74193 1.01606
 C1359 C 0.77949 0.73654 1.02785
 C1360 C 0.77123 0.72901 1.03644
 C1361 C 0.75761 0.72697 1.03324
 C1362 C 0.75228 0.73241 1.02148
 H1363 H 0.71945 0.75265 1.00936
 H1364 H 0.71008 0.76206 1.03015
 H1365 H 0.74890 0.77921 1.03970
 H1366 H 0.75830 0.76978 1.01890
 H1367 H 0.73342 0.74025 0.97981
 H1368 H 0.72359 0.74918 0.95901
 H1369 H 0.74260 0.78104 0.99238
 H1370 H 0.76688 0.75980 0.97972
 H1371 H 0.77687 0.75058 0.95911
 H1372 H 0.76767 0.71004 0.97233
 H1373 H 0.75754 0.71919 0.99282
 H1374 H 0.78068 0.74771 1.00948
 H1375 H 0.79003 0.73819 1.03023
 H1376 H 0.75116 0.72109 1.03979
 H1377 H 0.74178 0.73064 1.01903
 H1378 H 0.73262 0.78990 0.97169
 C1379 C 0.75438 0.24449 0.49993
 C1380 C 0.74536 0.25481 0.49994
 C1381 C 0.73986 0.26040 0.51251
 C1382 C 0.73978 0.26022 0.48735
 C1383 C 0.75993 0.23894 0.48736
 C1384 C 0.76000 0.23913 0.51252
 C1385 C 0.73112 0.25259 0.52042
 C1386 C 0.72569 0.25795 0.53218
 C1387 C 0.72892 0.27119 0.53608
 C1388 C 0.73764 0.27901 0.52822
 C1389 C 0.74308 0.27365 0.51648
 C1390 C 0.72939 0.25324 0.48079
 C1391 C 0.72385 0.25846 0.46902
 C1392 C 0.72868 0.27069 0.46375
 C1393 C 0.73915 0.27760 0.47021
 C1394 C 0.74468 0.27239 0.48197
 C1395 C 0.76863 0.24681 0.47946
 C1396 C 0.77417 0.24147 0.46776
 C1397 C 0.77110 0.22818 0.46388
 C1398 C 0.76242 0.22030 0.47172
 C1399 C 0.75686 0.22565 0.48342
 C1400 C 0.77043 0.24612 0.51901
 C1401 C 0.77602 0.24093 0.53076
 C1402 C 0.77120 0.22874 0.53611
 C1403 C 0.76069 0.22182 0.52974
 C1404 C 0.75510 0.22699 0.51798
 H1405 H 0.72843 0.24240 0.51742
 H1406 H 0.71892 0.25182 0.53816
 H1407 H 0.74019 0.28927 0.53114
 H1408 H 0.74984 0.27981 0.51055
 H1409 H 0.72553 0.24382 0.48485
 H1410 H 0.71576 0.25304 0.46411
 H1411 H 0.75279 0.27781 0.48684
 H1412 H 0.77122 0.25704 0.48245
 H1413 H 0.78091 0.24764 0.46179
 H1414 H 0.75999 0.21001 0.46883
 H1415 H 0.75015 0.21943 0.48936
 H1416 H 0.77427 0.25552 0.51490
 H1417 H 0.78415 0.24637 0.53561
 H1418 H 0.75687 0.21240 0.53381
 H1419 H 0.74694 0.22157 0.51318
 H1420 H 0.74297 0.28705 0.46620
 C1421 C 0.74534 0.24490 -0.00037
 C1422 C 0.75431 0.25526 -0.00036
 C1423 C 0.75989 0.26067 -0.01296
 C1424 C 0.75985 0.26080 0.01222
 C1425 C 0.73978 0.23946 0.01222
 C1426 C 0.73989 0.23930 -0.01296
 C1427 C 0.77034 0.25372 -0.01949
 C1428 C 0.77594 0.25899 -0.03121
 C1429 C 0.77110 0.27122 -0.03648
 C1430 C 0.76053 0.27808 -0.03008
 C1431 C 0.75493 0.27281 -0.01836
 C1432 C 0.76860 0.25293 0.02008
 C1433 C 0.77415 0.25828 0.03177
 C1434 C 0.77105 0.27156 0.03566
 C1435 C 0.76228 0.27942 0.02788
 C1436 C 0.75671 0.27407 0.01619
 C1437 C 0.72934 0.24639 0.01879
 C1438 C 0.72383 0.24113 0.03056
 C1439 C 0.72873 0.22893 0.03583
 C1440 C 0.73925 0.22207 0.02936
 C1441 C 0.74476 0.22732 0.01759
 C1442 C 0.73112 0.24708 -0.02088
 C1443 C 0.72569 0.24166 -0.03260
 C1444 C 0.72895 0.22841 -0.03646
 C1445 C 0.73773 0.22064 -0.02860
 C1446 C 0.74317 0.22606 -0.01690
 H1447 H 0.77419 0.24429 -0.01546
 H1448 H 0.78408 0.25359 -0.03610
 H1449 H 0.75666 0.28751 -0.03411
 H1450 H 0.74672 0.27817 -0.01354
 H1451 H 0.77122 0.24272 0.01708
 H1452 H 0.78093 0.25212 0.03770
 H1453 H 0.74994 0.28026 0.01030
 H1454 H 0.72543 0.25580 0.01475
 H1455 H 0.71570 0.24652 0.03549
 H1456 H 0.74316 0.21265 0.03337
 H1457 H 0.75293 0.22195 0.01273
 H1458 H 0.72839 0.25727 -0.01791
 H1459 H 0.71888 0.24775 -0.03858
 H1460 H 0.74032 0.21038 -0.03150
 H1461 H 0.74998 0.21993 -0.01097
 H1462 H 0.75980 0.28970 0.03080
 C1463 C 0.74547 0.74483 0.50005
 C1464 C 0.75450 0.75513 0.50001
 C1465 C 0.76007 0.76051 0.48739
 C1466 C 0.76005 0.76071 0.51256
 C1467 C 0.73988 0.73948 0.51268
 C1468 C 0.73992 0.73925 0.48750
 C1469 C 0.77055 0.75357 0.48088
 C1470 C 0.77612 0.75880 0.46913
 C1471 C 0.77124 0.77099 0.46380
 C1472 C 0.76068 0.77786 0.47020
 C1473 C 0.75512 0.77264 0.48196
 C1474 C 0.76879 0.75286 0.52045
 C1475 C 0.77431 0.75823 0.53214
 C1476 C 0.77118 0.77151 0.53601
 C1477 C 0.76245 0.77936 0.52818
 C1478 C 0.75692 0.77399 0.51650
 C1479 C 0.72952 0.74653 0.51925
 C1480 C 0.72398 0.74137 0.53105
 C1481 C 0.72877 0.72914 0.53635
 C1482 C 0.73921 0.72215 0.52988
 C1483 C 0.74475 0.72730 0.51808
 C1484 C 0.73113 0.74708 0.47965
 C1485 C 0.72560 0.74171 0.46796
 C1486 C 0.72877 0.72846 0.46405
 C1487 C 0.73756 0.72063 0.47184
 C1488 C 0.74311 0.72599 0.48352
 H1489 H 0.77444 0.74418 0.48497
 H1490 H 0.78427 0.75340 0.46425
 H1491 H 0.75680 0.78728 0.46615
 H1492 H 0.74693 0.77803 0.48678
 H1493 H 0.77141 0.74263 0.51747
 H1494 H 0.78109 0.75208 0.53809
 H1495 H 0.75016 0.78018 0.51058
 H1496 H 0.72569 0.75595 0.51518
 H1497 H 0.71591 0.74686 0.53597
 H1498 H 0.74302 0.71270 0.53392
 H1499 H 0.75285 0.72183 0.51322
 H1500 H 0.72848 0.75729 0.48266
 H1501 H 0.71879 0.74786 0.46203
 H1502 H 0.74008 0.71036 0.46891
 H1503 H 0.74992 0.71983 0.48940
 H1504 H 0.75997 0.78964 0.53108
 C1505 C 1.00004 0.25536 0.24552
 C1506 C 1.00004 0.24500 0.25440
 C1507 C 1.01277 0.23949 0.25992
 C1508 C 0.98730 0.23952 0.25985
 C1509 C 0.98732 0.26093 0.24003
 C1510 C 1.01279 0.26078 0.24002
 C1511 C 1.01691 0.22626 0.25678
 C1512 C 1.02873 0.22094 0.26233
 C1513 C 1.03649 0.22878 0.27108
 C1514 C 1.03243 0.24200 0.27420
 C1515 C 1.02060 0.24733 0.26867
 C1516 C 0.98190 0.22740 0.25487
 C1517 C 0.97003 0.22208 0.26031
 C1518 C 0.96349 0.22882 0.27077
 C1519 C 0.96879 0.24100 0.27569
 C1520 C 0.98065 0.24633 0.27024
 C1521 C 0.98329 0.27420 0.24312
 C1522 C 0.97145 0.27957 0.23762
 C1523 C 0.96358 0.27173 0.22897
 C1524 C 0.96755 0.25846 0.22588
 C1525 C 0.97938 0.25309 0.23136
 C1526 C 1.01831 0.27283 0.24502
 C1527 C 1.03021 0.27807 0.23954
 C1528 C 1.03665 0.27130 0.22903
 C1529 C 1.03123 0.25918 0.22411
 C1530 C 1.01935 0.25393 0.22960
 H1531 H 1.01103 0.22009 0.25002
 H1532 H 1.03177 0.21069 0.25985
 H1533 H 1.03834 0.24815 0.28099
 H1534 H 1.01747 0.25751 0.27129
 H1535 H 0.98684 0.22209 0.24677
 H1536 H 0.96600 0.21267 0.25641
 H1537 H 0.98473 0.25569 0.27418
 H1538 H 0.98925 0.28038 0.24980
 H1539 H 0.96849 0.28984 0.24007
 H1540 H 0.96156 0.25232 0.21916
 H1541 H 0.98244 0.24288 0.22876
 H1542 H 1.01345 0.27815 0.25316
 H1543 H 1.03433 0.28743 0.24345
 H1544 H 1.03613 0.25385 0.21599
 H1545 H 1.01519 0.24459 0.22568
 H1546 H 0.96382 0.24629 0.28379
 C1547 C 0.49994 0.25477 0.74503
 C1548 C 0.49993 0.24533 0.75494
 C1549 C 0.51260 0.24007 0.76096
 C1550 C 0.48714 0.23967 0.76025
 C1551 C 0.48715 0.26035 0.73964
 C1552 C 0.51260 0.26007 0.73906
 C1553 C 0.51489 0.22602 0.76136
 C1554 C 0.52670 0.22084 0.76703
 C1555 C 0.53633 0.22964 0.77242
 C1556 C 0.53406 0.24366 0.77221
 C1557 C 0.52222 0.24886 0.76656
 C1558 C 0.47839 0.23226 0.75200
 C1559 C 0.46649 0.22675 0.75721
 C1560 C 0.46327 0.22859 0.77071
 C1561 C 0.47198 0.23597 0.77896
 C1562 C 0.48389 0.24143 0.77377
 C1563 C 0.47829 0.26777 0.74780
 C1564 C 0.46640 0.27321 0.74249
 C1565 C 0.46329 0.27127 0.72899
 C1566 C 0.47209 0.26388 0.72083
 C1567 C 0.48400 0.25850 0.72611
 C1568 C 0.51481 0.27413 0.73864
 C1569 C 0.52662 0.27934 0.73299
 C1570 C 0.53631 0.27057 0.72762
 C1571 C 0.53412 0.25654 0.72786
 C1572 C 0.52229 0.25131 0.73349
 H1573 H 0.50758 0.21907 0.75717
 H1574 H 0.52833 0.20998 0.76720
 H1575 H 0.54141 0.25055 0.77644
 H1576 H 0.52053 0.25970 0.76657
 H1577 H 0.48085 0.23065 0.74158
 H1578 H 0.45987 0.22098 0.75076
 H1579 H 0.49055 0.24711 0.78026
 H1580 H 0.48067 0.26945 0.75822
 H1581 H 0.45969 0.27899 0.74887
 H1582 H 0.46978 0.26233 0.71037
 H1583 H 0.49074 0.25282 0.71968
 H1584 H 0.50743 0.28106 0.74279
 H1585 H 0.52819 0.29020 0.73282
 H1586 H 0.54153 0.24967 0.72365
 H1587 H 0.52065 0.24046 0.73346
 H1588 H 0.46958 0.23745 0.78941
 C1589 C -0.00012 0.24504 0.74521
 C1590 C -0.00013 0.25452 0.75507
 C1591 C -0.01293 0.26024 0.76032
 C1592 C 0.01252 0.25977 0.76107
 C1593 C 0.01255 0.23976 0.73919
 C1594 C -0.01291 0.23946 0.73987
 C1595 C -0.02163 0.26769 0.75202
 C1596 C -0.03353 0.27326 0.75718
 C1597 C -0.03680 0.27146 0.77067
 C1598 C -0.02815 0.26404 0.77897
 C1599 C -0.01622 0.25853 0.77384
 C1600 C 0.01479 0.27382 0.76146
 C1601 C 0.02659 0.27898 0.76712
 C1602 C 0.03623 0.27018 0.77252
 C1603 C 0.03399 0.25616 0.77232
 C1604 C 0.02215 0.25097 0.76668
 C1605 C 0.01479 0.22571 0.73870
 C1606 C 0.02658 0.22053 0.73297
 C1607 C 0.03623 0.22934 0.72760
 C1608 C 0.03402 0.24336 0.72791
 C1609 C 0.02220 0.24856 0.73362
 C1610 C -0.02173 0.23207 0.74809
 C1611 C -0.03363 0.22663 0.74283
 C1612 C -0.03677 0.22853 0.72933
 C1613 C -0.02801 0.23591 0.72112
 C1614 C -0.01609 0.24129 0.72634
 H1615 H -0.01911 0.26931 0.74162
 H1616 H -0.04013 0.27904 0.75069
 H1617 H -0.03058 0.26257 0.78941
 H1618 H -0.00957 0.25288 0.78038
 H1619 H 0.00746 0.28078 0.75726
 H1620 H 0.02820 0.28985 0.76728
 H1621 H 0.02048 0.24013 0.76671
 H1622 H 0.00745 0.21875 0.74285
 H1623 H 0.02817 0.20967 0.73274
 H1624 H 0.04138 0.25026 0.72370
 H1625 H 0.02053 0.25941 0.73364
 H1626 H -0.01932 0.23043 0.75851
 H1627 H -0.04031 0.22087 0.74925
 H1628 H -0.03035 0.23745 0.71066
 H1629 H -0.00938 0.24697 0.71988
 H1630 H 0.04135 0.24927 0.77657
 C1631 C 0.50004 0.24459 0.24561
 C1632 C 0.50002 0.25492 0.25450
 C1633 C 0.48728 0.26046 0.25998
 C1634 C 0.51275 0.26033 0.26002
 C1635 C 0.51278 0.23903 0.24014
 C1636 C 0.48730 0.23918 0.24009
 C1637 C 0.48320 0.27371 0.25683
 C1638 C 0.47134 0.27904 0.26230
 C1639 C 0.46349 0.27119 0.27099
 C1640 C 0.46751 0.25795 0.27414
 C1641 C 0.47938 0.25262 0.26868
 C1642 C 0.51822 0.27245 0.25508
 C1643 C 0.53013 0.27765 0.26053
 C1644 C 0.53665 0.27077 0.27093
 C1645 C 0.53124 0.25862 0.27582
 C1646 C 0.51935 0.25340 0.27036
 C1647 C 0.51680 0.22575 0.24324
 C1648 C 0.52866 0.22040 0.23779
 C1649 C 0.53658 0.22827 0.22917
 C1650 C 0.53263 0.24155 0.22610
 C1651 C 0.52076 0.24690 0.23154
 C1652 C 0.48179 0.22709 0.24508
 C1653 C 0.46992 0.22185 0.23958
 C1654 C 0.46349 0.22864 0.22907
 C1655 C 0.46890 0.24078 0.22416
 C1656 C 0.48077 0.24603 0.22966
 H1657 H 0.48915 0.27990 0.25012
 H1658 H 0.46832 0.28929 0.25980
 H1659 H 0.46155 0.25180 0.28089
 H1660 H 0.48248 0.24243 0.27132
 H1661 H 0.51334 0.27781 0.24698
 H1662 H 0.53423 0.28705 0.25667
 H1663 H 0.51524 0.24401 0.27421
 H1664 H 0.51080 0.21955 0.24990
 H1665 H 0.53161 0.21012 0.24023
 H1666 H 0.53867 0.24772 0.21943
 H1667 H 0.51773 0.25711 0.22894
 H1668 H 0.48663 0.22176 0.25322
 H1669 H 0.46580 0.21247 0.24347
 H1670 H 0.46401 0.24611 0.21603
 H1671 H 0.48493 0.25538 0.22574
 H1672 H 0.53618 0.25323 0.28389
 C1673 C 1.00011 0.75487 0.74501
 C1674 C 1.00011 0.74543 0.75492
 C1675 C 1.01291 0.73983 0.76028
 C1676 C 0.98745 0.74013 0.76091
 C1677 C 0.98745 0.76022 0.73906
 C1678 C 1.01290 0.76046 0.73964
 C1679 C 1.02174 0.73241 0.75209
 C1680 C 1.03363 0.72695 0.75737
 C1681 C 1.03677 0.72886 0.77087
 C1682 C 1.02799 0.73625 0.77906
 C1683 C 1.01608 0.74165 0.77381
 C1684 C 0.98526 0.72608 0.76133
 C1685 C 0.97347 0.72086 0.76699
 C1686 C 0.96377 0.72962 0.77238
 C1687 C 0.96595 0.74365 0.77215
 C1688 C 0.97777 0.74889 0.76650
 C1689 C 0.98528 0.77429 0.73862
 C1690 C 0.97350 0.77956 0.73298
 C1691 C 0.96378 0.77084 0.72762
 C1692 C 0.96592 0.75680 0.72787
 C1693 C 0.97773 0.75151 0.73350
 C1694 C 1.02172 0.76786 0.74784
 C1695 C 1.03359 0.77335 0.74254
 C1696 C 1.03671 0.77150 0.72902
 C1697 C 1.02795 0.76411 0.72084
 C1698 C 1.01607 0.75867 0.72611
 H1699 H 1.01934 0.73076 0.74167
 H1700 H 1.04032 0.72118 0.75097
 H1701 H 1.03033 0.73778 0.78951
 H1702 H 1.00936 0.74734 0.78026
 H1703 H 0.99263 0.71915 0.75717
 H1704 H 0.97191 0.70999 0.76716
 H1705 H 0.97940 0.75974 0.76652
 H1706 H 0.99268 0.78119 0.74276
 H1707 H 0.97197 0.79044 0.73279
 H1708 H 0.95850 0.74997 0.72367
 H1709 H 0.97933 0.74065 0.73349
 H1710 H 1.01933 0.76948 0.75827
 H1711 H 1.04027 0.77911 0.74894
 H1712 H 1.03028 0.76261 0.71037
 H1713 H 1.00936 0.75299 0.71966
 H1714 H 0.95855 0.75051 0.77637
 C1715 C 0.49997 0.75528 0.24556
 C1716 C 0.49998 0.74492 0.25444
 C1717 C 0.51271 0.73936 0.25990
 C1718 C 0.48725 0.73944 0.25991
 C1719 C 0.48724 0.76083 0.24006
 C1720 C 0.51272 0.76068 0.24004
 C1721 C 0.51681 0.72614 0.25669
 C1722 C 0.52865 0.72077 0.26216
 C1723 C 0.53647 0.72856 0.27090
 C1724 C 0.53245 0.74178 0.27409
 C1725 C 0.52060 0.74716 0.26864
 C1726 C 0.48182 0.72735 0.25488
 C1727 C 0.46993 0.72205 0.26029
 C1728 C 0.46339 0.72879 0.27077
 C1729 C 0.46874 0.74092 0.27574
 C1730 C 0.48062 0.74624 0.27032
 C1731 C 0.48322 0.77412 0.24308
 C1732 C 0.47142 0.77949 0.23753
 C1733 C 0.46356 0.77163 0.22888
 C1734 C 0.46751 0.75834 0.22587
 C1735 C 0.47932 0.75297 0.23141
 C1736 C 0.51826 0.77274 0.24502
 C1737 C 0.53017 0.77793 0.23956
 C1738 C 0.53662 0.77112 0.22907
 C1739 C 0.53117 0.75901 0.22416
 C1740 C 0.51926 0.75380 0.22963
 H1741 H 0.51088 0.72001 0.24994
 H1742 H 0.53166 0.71053 0.25962
 H1743 H 0.53841 0.74789 0.28087
 H1744 H 0.51750 0.75733 0.27132
 H1745 H 0.48673 0.72207 0.24674
 H1746 H 0.46587 0.71267 0.25636
 H1747 H 0.48471 0.75560 0.27425
 H1748 H 0.48918 0.78033 0.24975
 H1749 H 0.46846 0.78978 0.23993
 H1750 H 0.46152 0.75218 0.21916
 H1751 H 0.48236 0.74275 0.22884
 H1752 H 0.51340 0.77808 0.25315
 H1753 H 0.53432 0.78729 0.24345
 H1754 H 0.53607 0.75366 0.21605
 H1755 H 0.51509 0.74448 0.22572
 H1756 H 0.46377 0.74621 0.28385
 C1757 C -0.00011 0.74529 0.24487
 C1758 C -0.00015 0.75472 0.25478
 C1759 C -0.01297 0.76032 0.26011
 C1760 C 0.01250 0.76003 0.26077
 C1761 C 0.01258 0.74011 0.23881
 C1762 C -0.01288 0.73964 0.23954
 C1763 C -0.02177 0.76772 0.25188
 C1764 C -0.03368 0.77321 0.25712
 C1765 C -0.03685 0.77135 0.27062
 C1766 C -0.02809 0.76398 0.27886
 C1767 C -0.01617 0.75855 0.27364
 C1768 C 0.01466 0.77409 0.26122
 C1769 C 0.02643 0.77932 0.26690
 C1770 C 0.03614 0.77055 0.27227
 C1771 C 0.03399 0.75652 0.27200
 C1772 C 0.02219 0.75128 0.26633
 C1773 C 0.01490 0.72607 0.23830
 C1774 C 0.02672 0.72098 0.23256
 C1775 C 0.03630 0.72985 0.22717
 C1776 C 0.03400 0.74386 0.22750
 C1777 C 0.02216 0.74898 0.23323
 C1778 C -0.02167 0.73223 0.24779
 C1779 C -0.03358 0.72678 0.24257
 C1780 C -0.03678 0.72868 0.22908
 C1781 C -0.02804 0.73605 0.22083
 C1782 C -0.01611 0.74145 0.22602
 H1783 H -0.01934 0.76935 0.24146
 H1784 H -0.04034 0.77897 0.25068
 H1785 H -0.03045 0.76249 0.28932
 H1786 H -0.00946 0.75289 0.28013
 H1787 H 0.00728 0.78102 0.25707
 H1788 H 0.02797 0.79019 0.26710
 H1789 H 0.02059 0.74042 0.26632
 H1790 H 0.00761 0.71907 0.24246
 H1791 H 0.02837 0.71012 0.23231
 H1792 H 0.04131 0.75081 0.22328
 H1793 H 0.02043 0.75982 0.23328
 H1794 H -0.01923 0.73059 0.25820
 H1795 H -0.04024 0.72102 0.24901
 H1796 H -0.03041 0.73758 0.21038
 H1797 H -0.00942 0.74713 0.21954
 H1798 H 0.04140 0.74966 0.27620
 C1799 C 0.49986 0.74546 0.74527
 C1800 C 0.49982 0.75491 0.75515
 C1801 C 0.48713 0.76022 0.76111
 C1802 C 0.51259 0.76055 0.76049
 C1803 C 0.51268 0.73985 0.73996
 C1804 C 0.48722 0.74014 0.73928
 C1805 C 0.48492 0.77428 0.76154
 C1806 C 0.47314 0.77950 0.76723
 C1807 C 0.46346 0.77075 0.77264
 C1808 C 0.46564 0.75671 0.77238
 C1809 C 0.47746 0.75146 0.76670
 C1810 C 0.52136 0.76800 0.75227
 C1811 C 0.53321 0.77354 0.75754
 C1812 C 0.53636 0.77167 0.77104
 C1813 C 0.52764 0.76423 0.77925
 C1814 C 0.51578 0.75875 0.77402
 C1815 C 0.52146 0.73242 0.74819
 C1816 C 0.53336 0.72692 0.74295
 C1817 C 0.53656 0.72880 0.72945
 C1818 C 0.52783 0.73622 0.72123
 C1819 C 0.51591 0.74166 0.72644
 C1820 C 0.48504 0.72608 0.73887
 C1821 C 0.47328 0.72085 0.73319
 C1822 C 0.46359 0.72960 0.72777
 C1823 C 0.46575 0.74363 0.72800
 C1824 C 0.47754 0.74889 0.73367
 H1825 H 0.49229 0.78120 0.75737
 H1826 H 0.47158 0.79038 0.76742
 H1827 H 0.45825 0.74985 0.77661
 H1828 H 0.47909 0.74061 0.76672
 H1829 H 0.51894 0.76963 0.74185
 H1830 H 0.53985 0.77934 0.75112
 H1831 H 0.50910 0.75304 0.78048
 H1832 H 0.51901 0.73078 0.75861
 H1833 H 0.54001 0.72114 0.74938
 H1834 H 0.53021 0.73773 0.71077
 H1835 H 0.50923 0.74735 0.71996
 H1836 H 0.49242 0.71916 0.74305
 H1837 H 0.47174 0.70998 0.73302
 H1838 H 0.45835 0.75049 0.72376
 H1839 H 0.47915 0.75974 0.73364
 H1840 H 0.52999 0.76273 0.78971
 C1841 C 0.40747 0.29845 0.29938
 N1842 N 0.41817 0.30635 0.29610
 N1843 N 0.42910 0.30093 0.29045
 C1844 C 0.42966 0.28744 0.28790
 N1845 N 0.41896 0.27953 0.29119
 N1846 N 0.40803 0.28496 0.29684
 C1847 C 0.39572 0.30430 0.30548
 C1848 C 0.38586 0.30925 0.31059
 C1849 C 0.44147 0.28161 0.28188
 C1850 C 0.45146 0.27681 0.27688
 C1851 C 0.40731 0.79852 0.80027
 N1852 N 0.41768 0.80639 0.79602
 N1853 N 0.42863 0.80077 0.79060
 C1854 C 0.42954 0.78712 0.78926
 N1855 N 0.41917 0.77925 0.79350
 N1856 N 0.40822 0.78487 0.79893
 C1857 C 0.39554 0.80457 0.80615
 C1858 C 0.38566 0.80966 0.81112
 C1859 C 0.44137 0.78111 0.78344
 C1860 C 0.45138 0.77625 0.77853
 C1861 C -0.09291 0.29955 0.79805
 N1862 N -0.08279 0.30754 0.79344
 N1863 N -0.07188 0.30205 0.78781
 C1864 C -0.07078 0.28839 0.78660
 N1865 N -0.08091 0.28041 0.79122
 N1866 N -0.09181 0.28590 0.79685
 C1867 C -0.10460 0.30545 0.80424
 C1868 C -0.11441 0.31036 0.80948
 C1869 C -0.05892 0.28245 0.78080
 C1870 C -0.04889 0.27743 0.77609
 C1871 C -0.09293 0.79919 0.29828
 N1872 N -0.08285 0.80719 0.29360
 N1873 N -0.07196 0.80170 0.28794
 C1874 C -0.07083 0.78805 0.28677
 N1875 N -0.08091 0.78005 0.29144
 N1876 N -0.09180 0.78554 0.29710
 C1877 C -0.10460 0.80508 0.30449
 C1878 C -0.11438 0.81003 0.30975
 C1879 C -0.05898 0.78214 0.28091
 C1880 C -0.04894 0.77720 0.27613
 C1881 C 0.59246 0.70112 0.29916
 N1882 N 0.58195 0.70526 0.30682
 N1883 N 0.57103 0.71075 0.30122
 C1884 C 0.57029 0.71226 0.28779
 N1885 N 0.58081 0.70812 0.28012
 N1886 N 0.59173 0.70263 0.28572
 C1887 C 0.60421 0.69519 0.30521
 C1888 C 0.61407 0.69023 0.31032
 C1889 C 0.55848 0.71807 0.28176
 C1890 C 0.54849 0.72289 0.27677
 C1891 C 0.59271 0.20201 0.79967
 N1892 N 0.59178 0.20373 0.78627
 N1893 N 0.58083 0.20941 0.78092
 C1894 C 0.57048 0.21355 0.78881
 N1895 N 0.57141 0.21184 0.80221
 N1896 N 0.58237 0.20616 0.80756
 C1897 C 0.60447 0.19586 0.80545
 C1898 C 0.61432 0.19073 0.81040
 C1899 C 0.55857 0.21942 0.78304
 C1900 C 0.54848 0.22420 0.77822
 C1901 C 1.09278 0.70126 0.79882
 N1902 N 1.08276 0.69321 0.79411
 N1903 N 1.07188 0.69866 0.78840
 C1904 C 1.07070 0.71230 0.78721
 N1905 N 1.08072 0.72035 0.79192
 N1906 N 1.09160 0.71490 0.79763
 C1907 C 1.10445 0.69539 0.80504
 C1908 C 1.11426 0.69045 0.81025
 C1909 C 1.05888 0.71816 0.78127
 C1910 C 1.04886 0.72305 0.77642
 C1911 C 1.09240 0.20151 0.29963
 N1912 N 1.09172 0.20302 0.28619
 N1913 N 1.08080 0.20848 0.28054
 C1914 C 1.07025 0.21260 0.28817
 N1915 N 1.07094 0.21110 0.30161
 N1916 N 1.08185 0.20564 0.30725
 C1917 C 1.10412 0.19558 0.30570
 C1918 C 1.11397 0.19060 0.31080
 C1919 C 1.05845 0.21837 0.28209
 C1920 C 1.04848 0.22316 0.27704
 C1921 C 0.59253 0.29842 0.70031
 N1922 N 0.58526 0.30516 0.70967
 N1923 N 0.57434 0.29949 0.71508
 C1924 C 0.57037 0.28690 0.71131
 N1925 N 0.57766 0.28016 0.70196
 N1926 N 0.58857 0.28584 0.69654
 C1927 C 0.60423 0.30456 0.69440
 C1928 C 0.61404 0.30969 0.68936
 C1929 C 0.55850 0.28090 0.71701
 C1930 C 0.54844 0.27606 0.72182
 C1931 C 0.59263 0.79846 0.20082
 N1932 N 0.58235 0.79384 0.19312
 N1933 N 0.57145 0.78832 0.19872
 C1934 C 0.57050 0.78723 0.21218
 N1935 N 0.58077 0.79184 0.21988
 N1936 N 0.59168 0.79736 0.21429
 C1937 C 0.60433 0.80447 0.19479
 C1938 C 0.61414 0.80952 0.18969
 C1939 C 0.55867 0.78146 0.21820
 C1940 C 0.54867 0.77669 0.22320
 C1941 C 1.09250 0.29879 0.20062
 N1942 N 1.09157 0.29774 0.21409
 N1943 N 1.08067 0.29224 0.21971
 C1944 C 1.07038 0.28761 0.21204
 N1945 N 1.07132 0.28866 0.19857
 N1946 N 1.08221 0.29416 0.19295
 C1947 C 1.10422 0.30473 0.19455
 C1948 C 1.11406 0.30974 0.18946
 C1949 C 1.05860 0.28177 0.21809
 C1950 C 1.04864 0.27694 0.22311
 C1951 C 1.09261 0.79940 0.70117
 N1952 N 1.08019 0.80157 0.69587
 N1953 N 1.06928 0.79610 0.70150
 C1954 C 1.07046 0.78830 0.71259
 N1955 N 1.08287 0.78613 0.71789
 N1956 N 1.09379 0.79160 0.71226
 C1957 C 1.10435 0.80523 0.69506
 C1958 C 1.11421 0.81012 0.68989
 C1959 C 1.05871 0.78236 0.71857
 C1960 C 1.04874 0.77739 0.72344
 C1961 C 0.40752 0.70170 0.70034
 N1962 N 0.40834 0.71535 0.70173
 N1963 N 0.41927 0.72100 0.70712
 C1964 C 0.42971 0.71317 0.71129
 N1965 N 0.42889 0.69951 0.70991
 N1966 N 0.41796 0.69387 0.70451
 C1967 C 0.39580 0.69562 0.69443
 C1968 C 0.38598 0.69055 0.68941
 C1969 C 0.44152 0.71921 0.71705
 C1970 C 0.45152 0.72409 0.72192
 C1971 C 0.40761 0.20132 0.20069
 N1972 N 0.41779 0.19329 0.20512
 N1973 N 0.42870 0.19873 0.21076
 C1974 C 0.42975 0.21236 0.21214
 N1975 N 0.41957 0.22039 0.20771
 N1976 N 0.40866 0.21495 0.20207
 C1977 C 0.39587 0.19545 0.19461
 C1978 C 0.38603 0.19049 0.18950
 C1979 C 0.44154 0.21820 0.21815
 C1980 C 0.45150 0.22302 0.22316
 C1981 C -0.09296 0.70116 0.20152
 N1982 N -0.09302 0.71428 0.20555
 N1983 N -0.08209 0.71969 0.21118
 C1984 C -0.07079 0.71213 0.21297
 N1985 N -0.07073 0.69900 0.20894
 N1986 N -0.08166 0.69360 0.20331
 C1987 C -0.10468 0.69536 0.19536
 C1988 C -0.11450 0.69044 0.19017
 C1989 C -0.05894 0.71799 0.21883
 C1990 C -0.04889 0.72288 0.22360
 C1991 C -0.09278 0.20101 0.70150
 N1992 N -0.08273 0.19295 0.70616
 N1993 N -0.07185 0.19837 0.71185
 C1994 C -0.07070 0.21201 0.71308
 N1995 N -0.08075 0.22007 0.70842
 N1996 N -0.09164 0.21465 0.70273
 C1997 C -0.10443 0.19517 0.69526
 C1998 C -0.11419 0.19023 0.69000
 C1999 C -0.05887 0.21784 0.71898
 C2000 C -0.04885 0.22273 0.72379
 C2001 C 0.29879 0.40712 0.29915
 N2002 N 0.30567 0.41412 0.28969
 N2003 N 0.30023 0.42509 0.28406
 C2004 C 0.28776 0.42938 0.28772
 N2005 N 0.28088 0.42238 0.29719
 N2006 N 0.28631 0.41141 0.30282
 C2007 C 0.30470 0.39538 0.30528
 C2008 C 0.30969 0.38554 0.31045
 C2009 C 0.28198 0.44128 0.28177
 C2010 C 0.27720 0.45134 0.27682
 C2011 C 0.29966 -0.09309 0.79905
 N2012 N 0.30635 -0.08613 0.78942
 N2013 N 0.30078 -0.07521 0.78382
 C2014 C 0.28836 -0.07093 0.78768
 N2015 N 0.28167 -0.07789 0.79731
 N2016 N 0.28723 -0.08880 0.80291
 C2017 C 0.30567 -0.10479 0.80513
 C2018 C 0.31069 -0.11463 0.81028
 C2019 C 0.28244 -0.05909 0.78176
 C2020 C 0.27754 -0.04908 0.77684
 C2021 C 0.79848 0.40723 0.79977
 N2022 N 0.80527 0.41407 0.79012
 N2023 N 0.79982 0.42500 0.78443
 C2024 C 0.78742 0.42941 0.78822
 N2025 N 0.78064 0.42259 0.79788
 N2026 N 0.78609 0.41166 0.80357
 C2027 C 0.80432 0.39545 0.80589
 C2028 C 0.80928 0.38556 0.81100
 C2029 C 0.78159 0.44125 0.78219
 C2030 C 0.77673 0.45125 0.77718
 C2031 C 0.79854 -0.09314 0.29971
 N2032 N 0.80545 -0.08620 0.29022
 N2033 N 0.80005 -0.07525 0.28452
 C2034 C 0.78757 -0.07091 0.28813
 N2035 N 0.78066 -0.07785 0.29762
 N2036 N 0.78606 -0.08880 0.30332
 C2037 C 0.80441 -0.10488 0.30589
 C2038 C 0.80942 -0.11472 0.31104
 C2039 C 0.78183 -0.05903 0.28209
 C2040 C 0.77710 -0.04899 0.27706
 C2041 C 0.29906 0.59255 0.70071
 N2042 N 0.28658 0.58830 0.69704
 N2043 N 0.28109 0.57739 0.70273
 C2044 C 0.28791 0.57042 0.71226
 N2045 N 0.30039 0.57468 0.71593
 N2046 N 0.30588 0.58558 0.71024
 C2047 C 0.30498 0.60428 0.69458
 C2048 C 0.30996 0.61413 0.68944
 C2049 C 0.28205 0.55862 0.71832
 C2050 C 0.27719 0.54865 0.72336
 C2051 C 0.29872 1.09284 0.20093
 N2052 N 0.28634 1.08851 0.19705
 N2053 N 0.28078 1.07762 0.20270
 C2054 C 0.28745 1.07074 0.21241
 N2055 N 0.29983 1.07508 0.21629
 N2056 N 0.30538 1.08597 0.21063
 C2057 C 0.30473 1.10453 0.19481
 C2058 C 0.30980 1.11433 0.18965
 C2059 C 0.28155 1.05892 0.21839
 C2060 C 0.27669 1.04892 0.22337
 C2061 C 0.79844 0.59273 0.20107
 N2062 N 0.80528 0.58576 0.21059
 N2063 N 0.79985 0.57479 0.21620
 C2064 C 0.78741 0.57047 0.21248
 N2065 N 0.78057 0.57744 0.20296
 N2066 N 0.78600 0.58841 0.19734
 C2067 C 0.80433 0.60449 0.19497
 C2068 C 0.80932 0.61435 0.18984
 C2069 C 0.78164 0.55858 0.21843
 C2070 C 0.77686 0.54853 0.22338
 C2071 C 0.79857 1.09298 0.70101
 N2072 N 0.78612 1.08867 0.69732
 N2073 N 0.78062 1.07782 0.70309
 C2074 C 0.78741 1.07097 0.71273
 N2075 N 0.79986 1.07527 0.71641
 N2076 N 0.80536 1.08613 0.71064
 C2077 C 0.80453 1.10461 0.69475
 C2078 C 0.80957 1.11438 0.68951
 C2079 C 0.78159 1.05914 0.71874
 C2080 C 0.77671 1.04911 0.72364
 C2081 C 0.70163 0.59257 0.29971
 N2082 N 0.71165 0.59385 0.29056
 N2083 N 0.71711 0.58289 0.28495
 C2084 C 0.71273 0.57033 0.28833
 N2085 N 0.70271 0.56905 0.29748
 N2086 N 0.69724 0.58001 0.30309
 C2087 C 0.69569 0.60436 0.30572
 C2088 C 0.69067 0.61425 0.31077
 C2089 C 0.71855 0.55851 0.28227
 C2090 C 0.72335 0.54851 0.27723
 C2091 C 0.70096 1.09326 0.79887
 N2092 N 0.70234 1.08163 0.80595
 N2093 N 0.70781 1.07068 0.80034
 C2094 C 0.71207 1.07103 0.78748
 N2095 N 0.71070 1.08267 0.78039
 N2096 N 0.70522 1.09362 0.78600
 C2097 C 0.69507 1.10504 0.80493
 C2098 C 0.69010 1.11489 0.81008
 C2099 C 0.71791 1.05919 0.78148
 C2100 C 0.72278 1.04913 0.77665
 C2101 C 0.20125 0.59245 0.79965
 N2102 N 0.19673 0.57990 0.80289
 N2103 N 0.20221 0.56895 0.79729
 C2104 C 0.21237 0.57022 0.78829
 N2105 N 0.21689 0.58278 0.78506
 N2106 N 0.21141 0.59373 0.79066
 C2107 C 0.19532 0.60423 0.80566
 C2108 C 0.19033 0.61412 0.81072
 C2109 C 0.21821 0.55842 0.78224
 C2110 C 0.22304 0.54845 0.77719
 C2111 C 0.20102 1.09265 0.29956
 N2112 N 0.19405 1.08084 0.29908
 N2113 N 0.19949 1.06989 0.29345
 C2114 C 0.21207 1.07041 0.28812
 N2115 N 0.21905 1.08222 0.28860
 N2116 N 0.21361 1.09318 0.29423
 C2117 C 0.19515 1.10444 0.30562
 C2118 C 0.19021 1.11434 0.31071
 C2119 C 0.21791 1.05861 0.28207
 C2120 C 0.22275 1.04863 0.27702
 C2121 C 0.70094 0.40762 0.70063
 N2122 N 0.69396 0.41945 0.70122
 N2123 N 0.69942 0.43035 0.70689
 C2124 C 0.71203 0.42977 0.71216
 N2125 N 0.71901 0.41795 0.71157
 N2126 N 0.71354 0.40704 0.70590
 C2127 C 0.69505 0.39588 0.69452
 C2128 C 0.69009 0.38603 0.68938
 C2129 C 0.71791 0.44155 0.71821
 C2130 C 0.72277 0.45151 0.72324
 C2131 C 0.70132 -0.09266 0.20088
 N2132 N 0.71393 -0.09329 0.20612
 N2133 N 0.71948 -0.08238 0.21172
 C2134 C 0.71257 -0.07051 0.21224
 N2135 N 0.69996 -0.06988 0.20700
 N2136 N 0.69442 -0.08079 0.20141
 C2137 C 0.69535 -0.10439 0.19484
 C2138 C 0.69033 -0.11424 0.18974
 C2139 C 0.71852 -0.05874 0.21824
 C2140 C 0.72341 -0.04878 0.22324
 C2141 C 0.20124 0.40761 0.20067
 N2142 N 0.21438 0.40750 0.20448
 N2143 N 0.21990 0.41841 0.21009
 C2144 C 0.21244 0.42978 0.21206
 N2145 N 0.19930 0.42989 0.20825
 N2146 N 0.19378 0.41898 0.20264
 C2147 C 0.19530 0.39586 0.19463
 C2148 C 0.19032 0.38598 0.18956
 C2149 C 0.21837 0.44154 0.21808
 C2150 C 0.22327 0.45148 0.22311
 C2151 C 0.20176 -0.09262 0.70009
 N2152 N 0.20035 -0.08021 0.69443
 N2153 N 0.20583 -0.06933 0.70014
 C2154 C 0.21287 -0.07053 0.71169
 N2155 N 0.21428 -0.08295 0.71735
 N2156 N 0.20881 -0.09383 0.71163
 C2157 C 0.19579 -0.10433 0.69399
 C2158 C 0.19074 -0.11415 0.68889
 C2159 C 0.21867 -0.05879 0.71788
 C2160 C 0.22346 -0.04886 0.72302
 C2161 C 0.29891 0.29844 0.40826
 N2162 N 0.30072 0.30433 0.42035
 N2163 N 0.29526 0.29888 0.43126
 C2164 C 0.28784 0.28737 0.43042
 N2165 N 0.28602 0.28147 0.41833
 N2166 N 0.29148 0.28692 0.40741
 C2167 C 0.30478 0.30432 0.39652
 C2168 C 0.30974 0.30928 0.38668
 C2169 C 0.28194 0.28155 0.44217
 C2170 C 0.27702 0.27675 0.45210
 C2171 C 0.29870 0.79940 -0.09201
 N2172 N 0.29131 0.78787 -0.09296
 N2173 N 0.28577 0.78236 -0.08212
 C2174 C 0.28744 0.78823 -0.06999
 N2175 N 0.29483 0.79976 -0.06904
 N2176 N 0.30037 0.80527 -0.07989
 C2177 C 0.30474 0.80528 -0.10367
 C2178 C 0.30983 0.81022 -0.11346
 C2179 C 0.28162 0.78223 -0.05828
 C2180 C 0.27683 0.77722 -0.04838
 C2181 C 0.79952 0.29851 -0.09197
 N2182 N 0.79754 0.30612 -0.08086
 N2183 N 0.79199 0.30067 -0.06999
 C2184 C 0.78826 0.28744 -0.06989
 N2185 N 0.79024 0.27983 -0.08099
 N2186 N 0.79579 0.28528 -0.09187
 C2187 C 0.80546 0.30443 -0.10367
 C2188 C 0.81043 0.30952 -0.11345
 C2189 C 0.78221 0.28163 -0.05820
 C2190 C 0.77712 0.27684 -0.04833
 C2191 C 0.79945 0.79820 0.40815
 N2192 N 0.79198 0.78671 0.40727
 N2193 N 0.78646 0.78127 0.41817
 C2194 C 0.78824 0.78715 0.43027
 N2195 N 0.79571 0.79863 0.43115
 N2196 N 0.80123 0.80407 0.42025
 C2197 C 0.80531 0.80412 0.39641
 C2198 C 0.81020 0.80915 0.38655
 C2199 C 0.78223 0.78136 0.44200
 C2200 C 0.77720 0.77658 0.45190
 C2201 C 0.70122 0.29865 0.59182
 N2202 N 0.70899 0.30625 0.58355
 N2203 N 0.71450 0.30077 0.57268
 C2204 C 0.71242 0.28751 0.56975
 N2205 N 0.70465 0.27991 0.57802
 N2206 N 0.69914 0.28539 0.58889
 C2207 C 0.69525 0.30458 0.60349
 C2208 C 0.69023 0.30960 0.61328
 C2209 C 0.71826 0.28166 0.55798
 C2210 C 0.72314 0.27683 0.54803
 C2211 C 0.70133 0.79853 1.09225
 N2212 N 0.71394 0.80214 1.08837
 N2213 N 0.71947 0.79670 1.07749
 C2214 C 0.71255 0.78747 1.07017
 N2215 N 0.69993 0.78385 1.07406
 N2216 N 0.69441 0.78929 1.08494
 C2217 C 0.69533 0.80446 1.10391
 C2218 C 0.69030 0.80949 1.11369
 C2219 C 0.71842 0.78172 1.05836
 C2220 C 0.72325 0.77693 1.04838
 C2221 C 0.20147 0.29871 1.09216
 N2222 N 0.21117 0.30546 1.08529
 N2223 N 0.21674 0.29997 1.07445
 C2224 C 0.21277 0.28756 1.07016
 N2225 N 0.20307 0.28081 1.07702
 N2226 N 0.19751 0.28630 1.08787
 C2227 C 0.19539 0.30467 1.10376
 C2228 C 0.19029 0.30972 1.11348
 C2229 C 0.21862 0.28174 1.05838
 C2230 C 0.22341 0.27688 1.04841
 C2231 C 0.20062 0.79832 0.59164
 N2232 N 0.20861 0.80589 0.58356
 N2233 N 0.21420 0.80044 0.57272
 C2234 C 0.21198 0.78725 0.56963
 N2235 N 0.20398 0.77967 0.57771
 N2236 N 0.19839 0.78513 0.58856
 C2237 C 0.19464 0.80421 0.60332
 C2238 C 0.18967 0.80922 0.61313
 C2239 C 0.21795 0.78142 0.55792
 C2240 C 0.22295 0.77663 0.54801
 C2241 C 0.29937 0.70125 0.59157
 N2242 N 0.30123 0.69541 0.57946
 N2243 N 0.29571 0.70086 0.56857
 C2244 C 0.28816 0.71230 0.56947
 N2245 N 0.28630 0.71815 0.58158
 N2246 N 0.29183 0.71270 0.59247
 C2247 C 0.30527 0.69535 0.60329
 C2248 C 0.31023 0.69036 0.61313
 C2249 C 0.28219 0.71812 0.55774
 C2250 C 0.27720 0.72293 0.54784
 C2251 C 0.29883 0.20139 1.09202
 N2252 N 0.29136 0.21289 1.09290
 N2253 N 0.28579 0.21829 1.08202
 C2254 C 0.28751 0.21235 1.06994
 N2255 N 0.29499 0.20086 1.06905
 N2256 N 0.30056 0.19546 1.07993
 C2257 C 0.30482 0.19555 1.10372
 C2258 C 0.30986 0.19060 1.11353
 C2259 C 0.28159 0.21819 1.05820
 C2260 C 0.27673 0.22305 1.04826
 C2261 C 0.79889 0.70142 1.09212
 N2262 N 0.80065 0.69552 1.08002
 N2263 N 0.79507 0.70094 1.06914
 C2264 C 0.78757 0.71241 1.07005
 N2265 N 0.78582 0.71832 1.08214
 N2266 N 0.79139 0.71290 1.09302
 C2267 C 0.80487 0.69557 1.10382
 C2268 C 0.80987 0.69061 1.11365
 C2269 C 0.78168 0.71829 1.05832
 C2270 C 0.77683 0.72320 1.04839
 C2271 C 0.79957 0.20174 0.59173
 N2272 N 0.78916 0.21062 0.59283
 N2273 N 0.78360 0.21605 0.58196
 C2274 C 0.78828 0.21277 0.56966
 N2275 N 0.79870 0.20390 0.56855
 N2276 N 0.80426 0.19846 0.57942
 C2277 C 0.80548 0.19579 0.60342
 C2278 C 0.81042 0.19075 0.61324
 C2279 C 0.78223 0.21850 0.55794
 C2280 C 0.77718 0.22322 0.54803
 C2281 C 0.70069 0.70131 0.40840
 N2282 N 0.69860 0.71454 0.41144
 N2283 N 0.70415 0.71994 0.42232
 C2284 C 0.71196 0.71226 0.43049
 N2285 N 0.71405 0.69903 0.42745
 N2286 N 0.70850 0.69363 0.41657
 C2287 C 0.69472 0.69548 0.39669
 C2288 C 0.68974 0.69052 0.38686
 C2289 C 0.71790 0.71804 0.44225
 C2290 C 0.72287 0.72282 0.45216
 C2291 C 0.70110 0.20071 -0.09195
 N2292 N 0.70945 0.19331 -0.08406
 N2293 N 0.71497 0.19881 -0.07322
 C2294 C 0.71232 0.21189 -0.06995
 N2295 N 0.70397 0.21929 -0.07783
 N2296 N 0.69845 0.21378 -0.08867
 C2297 C 0.69518 0.19479 -0.10365
 C2298 C 0.69020 0.18984 -0.11348
 C2299 C 0.71821 0.21779 -0.05823
 C2300 C 0.72313 0.22268 -0.04834
 C2301 C 0.20115 0.70140 -0.09197
 N2302 N 0.21084 0.69464 -0.08510
 N2303 N 0.21642 0.70014 -0.07428
 C2304 C 0.21248 0.71258 -0.07002
 N2305 N 0.20279 0.71935 -0.07690
 N2306 N 0.19721 0.71384 -0.08771
 C2307 C 0.19511 0.69546 -0.10358
 C2308 C 0.19004 0.69045 -0.11333
 C2309 C 0.21834 0.71843 -0.05828
 C2310 C 0.22317 0.72332 -0.04835
 C2311 C 0.20120 0.20157 0.40817
 N2312 N 0.20923 0.19402 0.41624
 N2313 N 0.21475 0.19948 0.42710
 C2314 C 0.21241 0.21266 0.43021
 N2315 N 0.20439 0.22021 0.42214
 N2316 N 0.19886 0.21474 0.41127
 C2317 C 0.19521 0.19567 0.39651
 C2318 C 0.19020 0.19068 0.38672
 C2319 C 0.21824 0.21848 0.44199
 C2320 C 0.22309 0.22327 0.45195
 C2321 C 0.29867 0.40752 0.70058
 N2322 N 0.30030 0.41992 0.69495
 N2323 N 0.29477 0.43085 0.70054
 C2324 C 0.28744 0.42970 0.71192
 N2325 N 0.28581 0.41730 0.71756
 N2326 N 0.29134 0.40637 0.71196
 C2327 C 0.30465 0.39577 0.69456
 C2328 C 0.30967 0.38592 0.68949
 C2329 C 0.28158 0.44149 0.71797
 C2330 C 0.27674 0.45146 0.72301
 C2331 C 0.29903 0.90760 0.20065
 N2332 N 0.30588 0.91462 0.21011
 N2333 N 0.30039 0.92555 0.21575
 C2334 C 0.28788 0.92978 0.21210
 N2335 N 0.28104 0.92276 0.20265
 N2336 N 0.28653 0.91183 0.19701
 C2337 C 0.30496 0.89585 0.19455
 C2338 C 0.30993 0.88598 0.18942
 C2339 C 0.28203 0.94162 0.21810
 C2340 C 0.27717 0.95161 0.22310
 C2341 C 0.79827 0.40716 0.20029
 N2342 N 0.80503 0.41405 0.20990
 N2343 N 0.79953 0.42494 0.21558
 C2344 C 0.78709 0.42928 0.21184
 N2345 N 0.78032 0.42239 0.20224
 N2346 N 0.78583 0.41149 0.19655
 C2347 C 0.80423 0.39546 0.19414
 C2348 C 0.80930 0.38564 0.18900
 C2349 C 0.78124 0.44109 0.21789
 C2350 C 0.77643 0.45108 0.22295
 C2351 C 0.79825 0.90764 0.69999
 N2352 N 0.80488 0.91479 0.70950
 N2353 N 0.79920 0.92570 0.71498
 C2354 C 0.78671 0.92979 0.71113
 N2355 N 0.78008 0.92265 0.70162
 N2356 N 0.78576 0.91173 0.69614
 C2357 C 0.80439 0.89594 0.69404
 C2358 C 0.80954 0.88612 0.68900
 C2359 C 0.78071 0.94165 0.71693
 C2360 C 0.77586 0.95169 0.72183
 C2361 C 0.70160 0.59250 0.70018
 N2362 N 0.69468 0.58066 0.70067
 N2363 N 0.70014 0.56973 0.70634
 C2364 C 0.71270 0.57032 0.71170
 N2365 N 0.71963 0.58216 0.71121
 N2366 N 0.71417 0.59309 0.70554
 C2367 C 0.69567 0.60428 0.69414
 C2368 C 0.69066 0.61418 0.68910
 C2369 C 0.71855 0.55855 0.71783
 C2370 C 0.72337 0.54859 0.72294
 C2371 C 0.70142 0.09225 0.20014
 N2372 N 0.69453 0.08039 0.20061
 N2373 N 0.70001 0.06948 0.20631
 C2374 C 0.71255 0.07011 0.21172
 N2375 N 0.71944 0.08197 0.21125
 N2376 N 0.71396 0.09288 0.20554
 C2377 C 0.69549 0.10401 0.19404
 C2378 C 0.69049 0.11387 0.18893
 C2379 C 0.71843 0.05835 0.21784
 C2380 C 0.72328 0.04839 0.22294
 C2381 C 0.20064 0.59253 0.20086
 N2382 N 0.19378 0.58064 0.20127
 N2383 N 0.19930 0.56972 0.20689
 C2384 C 0.21185 0.57035 0.21227
 N2385 N 0.21871 0.58223 0.21186
 N2386 N 0.21319 0.59316 0.20623
 C2387 C 0.19472 0.60427 0.19475
 C2388 C 0.18977 0.61413 0.18958
 C2389 C 0.21779 0.55857 0.21829
 C2390 C 0.22271 0.54860 0.22329
 C2391 C 0.20089 0.09201 0.70119
 N2392 N 0.20114 0.09070 0.71466
 N2393 N 0.20676 0.07983 0.72030
 C2394 C 0.21230 0.06996 0.71263
 N2395 N 0.21205 0.07127 0.69916
 N2396 N 0.20643 0.08214 0.69352
 C2397 C 0.19482 0.10370 0.69510
 C2398 C 0.18976 0.11351 0.68995
 C2399 C 0.21822 0.05818 0.71868
 C2400 C 0.22313 0.04822 0.72369
 C2401 C 0.29839 0.59286 0.29937
 N2402 N 0.30512 0.58599 0.28971
 N2403 N 0.29964 0.57507 0.28408
 C2404 C 0.28726 0.57069 0.28792
 N2405 N 0.28051 0.57756 0.29757
 N2406 N 0.28599 0.58848 0.30321
 C2407 C 0.30436 0.60454 0.30551
 C2408 C 0.30943 0.61435 0.31063
 C2409 C 0.28143 0.55887 0.28191
 C2410 C 0.27665 0.54886 0.27689
 C2411 C 0.29859 0.09237 0.79980
 N2412 N 0.28613 0.08805 0.80348
 N2413 N 0.28071 0.07711 0.79782
 C2414 C 0.28758 0.07018 0.78830
 N2415 N 0.30003 0.07451 0.78461
 N2416 N 0.30545 0.08544 0.79027
 C2417 C 0.30447 0.10409 0.80594
 C2418 C 0.30949 0.11392 0.81107
 C2419 C 0.28182 0.05832 0.78229
 C2420 C 0.27708 0.04830 0.77728
 C2421 C 0.79904 0.59245 0.79961
 N2422 N 0.80586 0.58550 0.79007
 N2423 N 0.80038 0.57460 0.78440
 C2424 C 0.78791 0.57033 0.78808
 N2425 N 0.78107 0.57729 0.79761
 N2426 N 0.78656 0.58819 0.80329
 C2427 C 0.80496 0.60417 0.80575
 C2428 C 0.80993 0.61402 0.81088
 C2429 C 0.78207 0.55851 0.78206
 C2430 C 0.77725 0.54852 0.77704
 C2431 C 0.79895 0.09239 0.29942
 N2432 N 0.78655 0.08803 0.30325
 N2433 N 0.78106 0.07712 0.29760
 C2434 C 0.78779 0.07026 0.28794
 N2435 N 0.80019 0.07462 0.28411
 N2436 N 0.80568 0.08553 0.28976
 C2437 C 0.80489 0.10410 0.30553
 C2438 C 0.80990 0.11394 0.31065
 C2439 C 0.78195 0.05843 0.28195
 C2440 C 0.77714 0.04843 0.27695
 C2441 C 0.70121 0.40691 0.29923
 N2442 N 0.71162 0.40569 0.29051
 N2443 N 0.71704 0.41667 0.28489
 C2444 C 0.71221 0.42919 0.28783
 N2445 N 0.70180 0.43040 0.29656
 N2446 N 0.69638 0.41943 0.30217
 C2447 C 0.69534 0.39511 0.30529
 C2448 C 0.69036 0.38524 0.31040
 C2449 C 0.71802 0.44104 0.28182
 C2450 C 0.72282 0.45107 0.27685
 C2451 C 0.70223 0.90719 0.80035
 N2452 N 0.71549 0.90720 0.79693
 N2453 N 0.72108 0.91820 0.79152
 C2454 C 0.71358 0.92951 0.78937
 N2455 N 0.70032 0.92948 0.79280
 N2456 N 0.69474 0.91849 0.79821
 C2457 C 0.69618 0.89541 0.80627
 C2458 C 0.69100 0.88558 0.81126
 C2459 C 0.71953 0.94138 0.78354
 C2460 C 0.72432 0.95145 0.77864
 C2461 C 0.20086 0.40738 0.79939
 N2462 N 0.21415 0.41020 0.80117
 N2463 N 0.21965 0.42109 0.79546
 C2464 C 0.21204 0.42947 0.78779
 N2465 N 0.19876 0.42665 0.78602
 N2466 N 0.19326 0.41576 0.79173
 C2467 C 0.19492 0.39568 0.80555
 C2468 C 0.18989 0.38587 0.81072
 C2469 C 0.21791 0.44127 0.78176
 C2470 C 0.22276 0.45126 0.77674
 C2471 C 0.20085 0.90772 0.29964
 N2472 N 0.21118 0.90636 0.29085
 N2473 N 0.21674 0.91726 0.28521
 C2474 C 0.21212 0.92984 0.28821
 N2475 N 0.20179 0.93120 0.29701
 N2476 N 0.19624 0.92030 0.30264
 C2477 C 0.19485 0.89598 0.30569
 C2478 C 0.18982 0.88612 0.31077
 C2479 C 0.21806 0.94159 0.28213
 C2480 C 0.22295 0.95153 0.27706
 C2481 C 0.40723 0.29875 0.70100
 N2482 N 0.41709 0.30682 0.70599
 N2483 N 0.42798 0.30141 0.71170
 C2484 C 0.42934 0.28776 0.71261
 N2485 N 0.41948 0.27968 0.70762
 N2486 N 0.40859 0.28510 0.70191
 C2487 C 0.39554 0.30459 0.69480
 C2488 C 0.38572 0.30952 0.68961
 C2489 C 0.44117 0.28193 0.71855
 C2490 C 0.45120 0.27706 0.72341
 C2491 C 0.40762 0.79877 0.20025
 N2492 N 0.41783 0.80684 0.20449
 N2493 N 0.42876 0.80146 0.21017
 C2494 C 0.42980 0.78785 0.21180
 N2495 N 0.41959 0.77977 0.20756
 N2496 N 0.40866 0.78515 0.20187
 C2497 C 0.39584 0.80458 0.19415
 C2498 C 0.38596 0.80950 0.18905
 C2499 C 0.44161 0.78207 0.21787
 C2500 C 0.45158 0.77728 0.22293
 C2501 C 0.90746 0.29893 0.20073
 N2502 N 0.91748 0.30702 0.20538
 N2503 N 0.92843 0.30162 0.21101
 C2504 C 0.92970 0.28798 0.21216
 N2505 N 0.91968 0.27989 0.20752
 N2506 N 0.90873 0.28529 0.20189
 C2507 C 0.89570 0.30475 0.19461
 C2508 C 0.88584 0.30966 0.18945
 C2509 C 0.94155 0.28218 0.21813
 C2510 C 0.95156 0.27738 0.22310
 C2511 C 0.90765 0.79884 0.70022
 N2512 N 0.91807 0.80666 0.70438
 N2513 N 0.92901 0.80100 0.70979
 C2514 C 0.92985 0.78735 0.71119
 N2515 N 0.91942 0.77952 0.70702
 N2516 N 0.90849 0.78518 0.70162
 C2517 C 0.89592 0.80492 0.69430
 C2518 C 0.88608 0.80999 0.68927
 C2519 C 0.94167 0.78129 0.71695
 C2520 C 0.95169 0.77639 0.72180
 C2521 C 0.59263 0.29807 0.29909
 N2522 N 0.59174 0.29695 0.28563
 N2523 N 0.58084 0.29144 0.28003
 C2524 C 0.57052 0.28688 0.28773
 N2525 N 0.57143 0.28800 0.30119
 N2526 N 0.58232 0.29350 0.30678
 C2527 C 0.60429 0.30411 0.30515
 C2528 C 0.61406 0.30916 0.31029
 C2529 C 0.55872 0.28108 0.28172
 C2530 C 0.54871 0.27631 0.27676
 C2531 C 0.59222 0.79967 0.79878
 N2532 N 0.59122 0.79875 0.78531
 N2533 N 0.58032 0.79323 0.77972
 C2534 C 0.57011 0.78847 0.78743
 N2535 N 0.57111 0.78941 0.80090
 N2536 N 0.58200 0.79493 0.80649
 C2537 C 0.60394 0.80557 0.80485
 C2538 C 0.61378 0.81045 0.81002
 C2539 C 0.55835 0.78254 0.78146
 C2540 C 0.54839 0.77757 0.77660
 C2541 C 0.09228 0.29817 0.79981
 N2542 N 0.09132 0.29662 0.78640
 N2543 N 0.08045 0.29083 0.78103
 C2544 C 0.07023 0.28640 0.78892
 N2545 N 0.07119 0.28795 0.80233
 N2546 N 0.08206 0.29374 0.80770
 C2547 C 0.10395 0.30440 0.80562
 C2548 C 0.11373 0.30958 0.81062
 C2549 C 0.05840 0.28043 0.78315
 C2550 C 0.04835 0.27562 0.77831
 C2551 C 0.09211 0.79852 0.29984
 N2552 N 0.09114 0.79708 0.28641
 N2553 N 0.08027 0.79134 0.28100
 C2554 C 0.07004 0.78685 0.28885
 N2555 N 0.07101 0.78830 0.30228
 N2556 N 0.08188 0.79403 0.30769
 C2557 C 0.10381 0.80468 0.30569
 C2558 C 0.11364 0.80979 0.31068
 C2559 C 0.05822 0.78090 0.28303
 C2560 C 0.04821 0.77606 0.27813
 C2561 C 0.59255 0.70095 0.70161
 N2562 N 0.59019 0.69934 0.71486
 N2563 N 0.57929 0.70486 0.72050
 C2564 C 0.57045 0.71216 0.71306
 N2565 N 0.57281 0.71377 0.69982
 N2566 N 0.58370 0.70825 0.69419
 C2567 C 0.60426 0.69502 0.69551
 C2568 C 0.61409 0.69008 0.69033
 C2569 C 0.55865 0.71802 0.71907
 C2570 C 0.54864 0.72294 0.72392
 C2571 C 0.59244 0.20081 0.20067
 N2572 N 0.59178 0.20237 0.21411
 N2573 N 0.58089 0.20787 0.21976
 C2574 C 0.57034 0.21200 0.21215
 N2575 N 0.57100 0.21045 0.19871
 N2576 N 0.58189 0.20495 0.19306
 C2577 C 0.60415 0.19487 0.19457
 C2578 C 0.61398 0.18989 0.18942
 C2579 C 0.55855 0.21780 0.21823
 C2580 C 0.54858 0.22261 0.22327
 C2581 C 0.09255 0.70244 0.19941
 N2582 N 0.09172 0.70418 0.21281
 N2583 N 0.08079 0.70984 0.21824
 C2584 C 0.07038 0.71395 0.21043
 N2585 N 0.07122 0.71222 0.19702
 N2586 N 0.08215 0.70656 0.19160
 C2587 C 0.10427 0.69627 0.19356
 C2588 C 0.11411 0.69110 0.18861
 C2589 C 0.05850 0.71978 0.21629
 C2590 C 0.04843 0.72449 0.22123
 C2591 C 0.09234 0.20160 0.69990
 N2592 N 0.09151 0.20334 0.71330
 N2593 N 0.08060 0.20904 0.71872
 C2594 C 0.07022 0.21321 0.71090
 N2595 N 0.07106 0.21147 0.69750
 N2596 N 0.08196 0.20576 0.69208
 C2597 C 0.10407 0.19544 0.69405
 C2598 C 0.11391 0.19029 0.68910
 C2599 C 0.05837 0.21911 0.71675
 C2600 C 0.04833 0.22390 0.72168
 C2601 C 0.40744 0.70116 0.29885
 N2602 N 0.41766 0.69318 0.29443
 N2603 N 0.42858 0.69867 0.28884
 C2604 C 0.42960 0.71231 0.28750
 N2605 N 0.41938 0.72030 0.29190
 N2606 N 0.40846 0.71481 0.29749
 C2607 C 0.39573 0.69524 0.30495
 C2608 C 0.38590 0.69027 0.31010
 C2609 C 0.44140 0.71822 0.28154
 C2610 C 0.45138 0.72309 0.27660
 C2611 C 0.40728 0.20063 0.79836
 N2612 N 0.41857 0.19310 0.79637
 N2613 N 0.42945 0.19859 0.79070
 C2614 C 0.42937 0.21177 0.78684
 N2615 N 0.41808 0.21930 0.78882
 N2616 N 0.40719 0.21381 0.79449
 C2617 C 0.39561 0.19476 0.80458
 C2618 C 0.38583 0.18982 0.80985
 C2619 C 0.44118 0.21773 0.78097
 C2620 C 0.45119 0.22270 0.77620
 C2621 C 0.90760 0.70160 0.79962
 N2622 N 0.91807 0.69380 0.79546
 N2623 N 0.92901 0.69948 0.79011
 C2624 C 0.92982 0.71314 0.78876
 N2625 N 0.91934 0.72095 0.79291
 N2626 N 0.90840 0.71526 0.79826
 C2627 C 0.89587 0.69548 0.80550
 C2628 C 0.88604 0.69037 0.81051
 C2629 C 0.94164 0.71922 0.78303
 C2630 C 0.95167 0.72411 0.77820
 C2631 C 0.90769 0.20101 0.29901
 N2632 N 0.90866 0.21466 0.29765
 N2633 N 0.91954 0.22020 0.29203
 C2634 C 0.92978 0.21226 0.28759
 N2635 N 0.92882 0.19861 0.28894
 N2636 N 0.91794 0.19307 0.29456
 C2637 C 0.89600 0.19505 0.30510
 C2638 C 0.88618 0.19006 0.31025
 C2639 C 0.94154 0.21820 0.28161
 C2640 C 0.95150 0.22311 0.27664
 C2641 C 0.29830 0.29946 0.59190
 N2642 N 0.29058 0.28814 0.59281
 N2643 N 0.28479 0.28295 0.58195
 C2644 C 0.28652 0.28893 0.56988
 N2645 N 0.29424 0.30024 0.56898
 N2646 N 0.30003 0.30544 0.57983
 C2647 C 0.30450 0.30509 0.60358
 C2648 C 0.30966 0.30991 0.61337
 C2649 C 0.28049 0.28323 0.55815
 C2650 C 0.27565 0.27842 0.54820
 C2651 C 0.29884 0.79924 0.09147
 N2652 N 0.29125 0.78784 0.09240
 N2653 N 0.28579 0.78235 0.08151
 C2654 C 0.28776 0.78811 0.06937
 N2655 N 0.29535 0.79951 0.06844
 N2656 N 0.30080 0.80499 0.07932
 C2657 C 0.30477 0.80510 0.10318
 C2658 C 0.30978 0.81003 0.11301
 C2659 C 0.28199 0.78215 0.05763
 C2660 C 0.27721 0.77718 0.04771
 C2661 C 0.79943 0.29866 0.09121
 N2662 N 0.79752 0.30632 0.08012
 N2663 N 0.79195 0.30094 0.06923
 C2664 C 0.78813 0.28774 0.06911
 N2665 N 0.79006 0.28007 0.08020
 N2666 N 0.79562 0.28545 0.09108
 C2667 C 0.80536 0.30450 0.10295
 C2668 C 0.81030 0.30945 0.11280
 C2669 C 0.78209 0.28197 0.05740
 C2670 C 0.77703 0.27720 0.04752
 C2671 C 0.79941 0.79890 0.59147
 N2672 N 0.79201 0.78737 0.59241
 N2673 N 0.78644 0.78192 0.58157
 C2674 C 0.78811 0.78783 0.56945
 N2675 N 0.79552 0.79934 0.56850
 N2676 N 0.80108 0.80480 0.57935
 C2677 C 0.80536 0.80482 0.60315
 C2678 C 0.81034 0.80983 0.61294
 C2679 C 0.78210 0.78199 0.55776
 C2680 C 0.77710 0.77716 0.54788
 C2681 C 0.29957 0.70164 0.40824
 N2682 N 0.30150 0.69589 0.42039
 N2683 N 0.29600 0.70137 0.43126
 C2684 C 0.28839 0.71277 0.43031
 N2685 N 0.28646 0.71853 0.41816
 N2686 N 0.29197 0.71304 0.40729
 C2687 C 0.30544 0.69568 0.39654
 C2688 C 0.31036 0.69065 0.38672
 C2689 C 0.28239 0.71861 0.44201
 C2690 C 0.27735 0.72342 0.45189
 C2691 C 0.29982 0.20197 0.90816
 N2692 N 0.29338 0.19417 0.91732
 N2693 N 0.28805 0.19976 0.92822
 C2694 C 0.28900 0.21331 0.93030
 N2695 N 0.29544 0.22111 0.92115
 N2696 N 0.30077 0.21552 0.91024
 C2697 C 0.30559 0.19594 0.89644
 C2698 C 0.31044 0.19083 0.88661
 C2699 C 0.28327 0.21927 0.94208
 C2700 C 0.27842 0.22409 0.95204
 C2701 C 0.79998 0.70179 0.90848
 N2702 N 0.80202 0.69614 0.92066
 N2703 N 0.79676 0.70182 0.93155
 C2704 C 0.78932 0.71334 0.93060
 N2705 N 0.78728 0.71899 0.91842
 N2706 N 0.79254 0.71331 0.90752
 C2707 C 0.80565 0.69567 0.89676
 C2708 C 0.81048 0.69054 0.88694
 C2709 C 0.78358 0.71935 0.94234
 C2710 C 0.77873 0.72420 0.95229
 C2711 C 0.79941 0.20108 0.40827
 N2712 N 0.80122 0.19520 0.42037
 N2713 N 0.79564 0.20059 0.43125
 C2714 C 0.78808 0.21202 0.43036
 N2715 N 0.78628 0.21791 0.41825
 N2716 N 0.79186 0.21252 0.40737
 C2717 C 0.80537 0.19522 0.39654
 C2718 C 0.81036 0.19025 0.38672
 C2719 C 0.78206 0.21779 0.44208
 C2720 C 0.77703 0.22257 0.45199
 C2721 C 0.70053 0.29814 0.40825
 N2722 N 0.70852 0.30568 0.41635
 N2723 N 0.71410 0.30018 0.42718
 C2724 C 0.71187 0.28697 0.43022
 N2725 N 0.70387 0.27943 0.42214
 N2726 N 0.69829 0.28494 0.41131
 C2727 C 0.69461 0.30405 0.39655
 C2728 C 0.68968 0.30903 0.38670
 C2729 C 0.71780 0.28110 0.44194
 C2730 C 0.72277 0.27627 0.45184
 C2731 C 0.70047 0.79732 0.90771
 N2732 N 0.71274 0.80137 0.91219
 N2733 N 0.71810 0.79576 0.92308
 C2734 C 0.71135 0.78594 0.92981
 N2735 N 0.69908 0.78189 0.92533
 N2736 N 0.69372 0.78750 0.91444
 C2737 C 0.69462 0.80350 0.89609
 C2738 C 0.68965 0.80872 0.88639
 C2739 C 0.71700 0.78014 0.94170
 C2740 C 0.72176 0.77545 0.95177
 C2741 C 0.20011 0.29805 0.90820
 N2742 N 0.20783 0.30549 0.91662
 N2743 N 0.21313 0.29985 0.92752
 C2744 C 0.21087 0.28659 0.93032
 N2745 N 0.20315 0.27914 0.92191
 N2746 N 0.19785 0.28478 0.91101
 C2747 C 0.19434 0.30415 0.89652
 C2748 C 0.18946 0.30929 0.88672
 C2749 C 0.21652 0.28059 0.94211
 C2750 C 0.22132 0.27576 0.95209
 C2751 C 0.20076 0.79864 0.40814
 N2752 N 0.20635 0.78609 0.40770
 N2753 N 0.21190 0.78068 0.41859
 C2754 C 0.21204 0.78767 0.43024
 N2755 N 0.20645 0.80022 0.43068
 N2756 N 0.20090 0.80562 0.41979
 C2757 C 0.19479 0.80449 0.39643
 C2758 C 0.18977 0.80947 0.38662
 C2759 C 0.21802 0.78188 0.44198
 C2760 C 0.22301 0.77710 0.45190
 C2761 C 0.70041 0.70195 0.59192
 N2762 N 0.69892 0.71536 0.58928
 N2763 N 0.70453 0.72081 0.57844
 C2764 C 0.71181 0.71301 0.56991
 N2765 N 0.71329 0.69960 0.57254
 N2766 N 0.70768 0.69415 0.58338
 C2767 C 0.69441 0.69606 0.60361
 C2768 C 0.68944 0.69104 0.61342
 C2769 C 0.71781 0.71883 0.55819
 C2770 C 0.72283 0.72360 0.54828
 C2771 C 0.70087 0.20160 0.09158
 N2772 N 0.70954 0.19430 0.08394
 N2773 N 0.71504 0.19976 0.07305
 C2774 C 0.71205 0.21268 0.06947
 N2775 N 0.70339 0.21998 0.07712
 N2776 N 0.69788 0.21452 0.08801
 C2777 C 0.69492 0.19568 0.10329
 C2778 C 0.68994 0.19066 0.11310
 C2779 C 0.71793 0.21852 0.05770
 C2780 C 0.72286 0.22332 0.04776
 C2781 C 0.20169 0.70081 0.09146
 N2782 N 0.20971 0.69331 0.08334
 N2783 N 0.21527 0.69885 0.07252
 C2784 C 0.21300 0.71206 0.06950
 N2785 N 0.20498 0.71956 0.07763
 N2786 N 0.19941 0.71402 0.08845
 C2787 C 0.19563 0.69484 0.10308
 C2788 C 0.19051 0.68985 0.11283
 C2789 C 0.21883 0.71798 0.05776
 C2790 C 0.22363 0.72295 0.04784
 C2791 C 0.20207 0.20021 0.59224
 N2792 N 0.21281 0.19406 0.58640
 N2793 N 0.21849 0.19939 0.57554
 C2794 C 0.21362 0.21105 0.57021
 N2795 N 0.20289 0.21721 0.57606
 N2796 N 0.19720 0.21187 0.58691
 C2797 C 0.19585 0.19438 0.60384
 C2798 C 0.19063 0.18946 0.61357
 C2799 C 0.21955 0.21668 0.55837
 C2800 C 0.22431 0.22146 0.54834
   
