data_POSCAR
  _audit_creation_date              2014-09-24
  _audit_creation_method            'ToBaCCo'
  _symmetry_space_group_name_H-M    'P1'
  _symmetry_Int_Tables_number       1
  _symmetry_cell_setting            triclinic
  loop_
  _symmetry_equiv_pos_as_xyz
 x,y,z
_cell_length_a 50.5285
_cell_length_b 50.6597
_cell_length_c 50.4475
_cell_angle_alpha 89.400500
_cell_angle_beta 89.503100
_cell_angle_gamma 89.561800
loop_
  _atom_site_label
  _atom_site_type_symbol
  _atom_site_fract_x
  _atom_site_fract_y
  _atom_site_fract_z
C1 C 0.11260 0.00033 0.22380
 C2 C 0.12954 0.02495 0.22594
 C3 C 0.14452 0.02547 0.24816
 C4 C 0.14138 0.00111 0.26642
 C5 C 0.13200 -0.02285 0.22591
 C6 C 0.14699 -0.02257 0.24822
 C7 C 0.09621 -0.00067 0.24952
 C8 C 0.11137 -0.00028 0.27183
 H9 H 0.12883 0.04121 0.21170
 H10 H 0.15379 0.00151 0.28449
 H11 H 0.13221 -0.03926 0.21219
 H12 H 0.07475 -0.00180 0.25007
 C13 C 0.39131 -0.00063 0.72920
 C14 C 0.37232 -0.02390 0.73080
 C15 C 0.35636 -0.02370 0.75266
 C16 C 0.36081 0.00014 0.77102
 C17 C 0.37359 0.02393 0.73063
 C18 C 0.35770 0.02454 0.75258
 C19 C 0.40591 -0.00125 0.75391
 C20 C 0.38905 -0.00078 0.77693
 H21 H 0.37264 -0.04003 0.71675
 H22 H 0.34758 0.00039 0.78875
 H23 H 0.37523 0.04047 0.71682
 H24 H 0.42737 -0.00060 0.75492
 C25 C 0.88872 0.49851 0.22642
 C26 C 0.87008 0.47511 0.22830
 C27 C 0.85416 0.47524 0.25012
 C28 C 0.85819 0.49924 0.26831
 C29 C 0.87090 0.52293 0.22786
 C30 C 0.85508 0.52357 0.24984
 C31 C 0.90409 0.49818 0.25252
 C32 C 0.88802 0.49866 0.27448
 H33 H 0.87056 0.45888 0.21436
 H34 H 0.84500 0.49946 0.28605
 H35 H 0.87271 0.53959 0.21421
 H36 H 0.92554 0.49894 0.25353
 C37 C 0.61363 0.50107 0.72409
 C38 C 0.63140 0.52515 0.72579
 C39 C 0.64667 0.52540 0.74781
 C40 C 0.64298 0.50131 0.76634
 C41 C 0.63230 0.47729 0.72619
 C42 C 0.64760 0.47730 0.74831
 C43 C 0.59755 0.50083 0.75002
 C44 C 0.61300 0.50093 0.77213
 H45 H 0.63086 0.54140 0.71153
 H46 H 0.65562 0.50148 0.78425
 H47 H 0.63192 0.46083 0.71254
 H48 H 0.57607 0.50024 0.75084
 C49 C 0.22421 0.11081 1.00078
 C50 C 0.22587 0.12799 1.02530
 C51 C 0.24779 0.14331 1.02584
 C52 C 0.26629 0.14022 1.00163
 C53 C 0.22621 0.12996 0.97726
 C54 C 0.24825 0.14530 0.97762
 C55 C 0.25012 0.09487 1.00025
 C56 C 0.27214 0.11035 1.00067
 H57 H 0.21151 0.12725 1.04147
 H58 H 0.28414 0.15287 1.00207
 H59 H 0.21256 0.12993 0.96073
 H60 H 0.25099 0.07346 0.99931
 C61 C 0.72708 0.38746 0.99880
 C62 C 0.72848 0.36946 0.97662
 C63 C 0.75161 0.35304 0.97670
 C64 C 0.76914 0.35769 0.99932
 C65 C 0.72894 0.37096 1.02248
 C66 C 0.75217 0.35460 1.02298
 C67 C 0.75157 0.40256 0.99771
 C68 C 0.77489 0.38604 0.99803
 H69 H 0.71457 0.36982 0.96025
 H70 H 0.78703 0.34473 0.99948
 H71 H 0.71571 0.37289 1.03951
 H72 H 0.75232 0.42400 0.99798
 C73 C 0.22652 0.89224 0.49700
 C74 C 0.22892 0.87318 0.47393
 C75 C 0.25107 0.85782 0.47452
 C76 C 0.26906 0.86279 0.49856
 C77 C 0.22837 0.87499 0.52193
 C78 C 0.25064 0.85973 0.52298
 C79 C 0.25227 0.90819 0.49637
 C80 C 0.27458 0.89268 0.49726
 H81 H 0.21498 0.87288 0.45764
 H82 H 0.28706 0.85007 0.49917
 H83 H 0.21448 0.87651 0.53844
 H84 H 0.25281 0.92962 0.49638
 C85 C 0.72454 0.61199 0.50103
 C86 C 0.72656 0.62883 0.52577
 C87 C 0.74863 0.64393 0.52630
 C88 C 0.76688 0.64101 0.50192
 C89 C 0.72651 0.63144 0.47776
 C90 C 0.74869 0.64656 0.47816
 C91 C 0.75031 0.59583 0.50007
 C92 C 0.77245 0.61114 0.50051
 H93 H 0.71231 0.62805 0.54205
 H94 H 0.78485 0.65350 0.50238
 H95 H 0.71280 0.63166 0.46127
 H96 H 0.75100 0.57444 0.49887
 C97 C -0.00020 0.22231 0.11109
 C98 C 0.02386 0.22389 0.12899
 C99 C 0.02433 0.24596 0.14403
 C100 C 0.00045 0.26462 0.14002
 C101 C -0.02414 0.22481 0.12964
 C102 C -0.02391 0.24698 0.14471
 C103 C 0.00001 0.24797 0.09470
 C104 C 0.00031 0.27011 0.10994
 H105 H 0.04001 0.20958 0.12860
 H106 H 0.00079 0.28257 0.15249
 H107 H -0.04083 0.21141 0.12930
 H108 H -0.00051 0.24861 0.07318
 C109 C -0.00465 0.72736 0.38894
 C110 C -0.02638 0.72937 0.37063
 C111 C -0.02563 0.75235 0.35420
 C112 C -0.00297 0.76943 0.35892
 C113 C 0.02048 0.72907 0.37190
 C114 C 0.02157 0.75117 0.35629
 C115 C -0.00520 0.75316 0.40476
 C116 C -0.00421 0.77528 0.38891
 H117 H -0.04298 0.71579 0.37075
 H118 H -0.00229 0.78727 0.34592
 H119 H 0.03702 0.71534 0.37385
 H120 H -0.00488 0.75386 0.42627
 C121 C 0.49653 0.22509 0.89047
 C122 C 0.47357 0.22773 0.87126
 C123 C 0.47448 0.24982 0.85579
 C124 C 0.49869 0.26747 0.86081
 C125 C 0.52148 0.22662 0.87325
 C126 C 0.52282 0.24882 0.85788
 C127 C 0.49620 0.25074 0.90642
 C128 C 0.49740 0.27293 0.89079
 H129 H 0.45702 0.21412 0.87108
 H130 H 0.49954 0.28542 0.84800
 H131 H 0.53784 0.21265 0.87498
 H132 H 0.49619 0.25127 0.92794
 C133 C 0.50202 0.72550 0.61095
 C134 C 0.52633 0.72664 0.62855
 C135 C 0.52711 0.74843 0.64398
 C136 C 0.50332 0.76731 0.64059
 C137 C 0.47836 0.72784 0.62987
 C138 C 0.47895 0.74973 0.64531
 C139 C 0.50217 0.75144 0.59499
 C140 C 0.50283 0.77332 0.61060
 H141 H 0.54230 0.71214 0.62787
 H142 H 0.50394 0.78503 0.65336
 H143 H 0.46161 0.71451 0.62960
 H144 H 0.50140 0.75244 0.57348
 C145 C 0.88892 1.00342 0.77483
 C146 C 0.87062 1.02547 0.77276
 C147 C 0.85400 1.02439 0.75001
 C148 C 0.85861 1.00128 0.73346
 C149 C 0.87184 0.97871 0.77424
 C150 C 0.85601 0.97745 0.75263
 C151 C 0.90447 1.00317 0.74855
 C152 C 0.88850 1.00205 0.72682
 H153 H 0.87127 1.04256 0.78561
 H154 H 0.84555 1.00025 0.71588
 H155 H 0.87314 0.96289 0.78892
 H156 H 0.92592 1.00401 0.74722
 C157 C 0.38955 0.50217 0.27501
 C158 C 0.37021 0.52536 0.27219
 C159 C 0.35479 0.52409 0.25021
 C160 C 0.35996 0.49956 0.23305
 C161 C 0.37244 0.47755 0.27434
 C162 C 0.35702 0.47608 0.25250
 C163 C 0.40546 0.50191 0.24899
 C164 C 0.38990 0.50059 0.22702
 H165 H 0.37019 0.54230 0.28524
 H166 H 0.34724 0.49836 0.21525
 H167 H 0.37329 0.46199 0.28933
 H168 H 0.42689 0.50328 0.24799
 C169 C 0.61101 1.00286 0.27421
 C170 C 0.62741 0.97745 0.27183
 C171 C 0.64271 0.97654 0.24942
 C172 C 0.64038 1.00148 0.23159
 C173 C 0.62979 1.02415 0.27240
 C174 C 0.64587 1.02358 0.24912
 C175 C 0.59491 1.00435 0.24851
 C176 C 0.61038 1.00349 0.22611
 H177 H 0.62539 0.96077 0.28541
 H178 H 0.65309 1.00094 0.21350
 H179 H 0.63015 1.04044 0.28629
 H180 H 0.57342 1.00432 0.24806
 C181 C 0.11000 0.50198 0.77275
 C182 C 0.12702 0.47703 0.77063
 C183 C 0.14265 0.47641 0.74850
 C184 C 0.14012 0.50116 0.73056
 C185 C 0.12939 0.52481 0.77116
 C186 C 0.14511 0.52459 0.74919
 C187 C 0.09442 0.50336 0.74681
 C188 C 0.11025 0.50283 0.72470
 H189 H 0.12506 0.46028 0.78414
 H190 H 0.15311 0.50088 0.71268
 H191 H 0.12953 0.54078 0.78540
 H192 H 0.07294 0.50329 0.74598
 C193 C 0.77475 0.89020 0.00261
 C194 C 0.77128 0.87162 0.02642
 C195 C 0.74937 0.85618 0.02494
 C196 C 0.73295 0.86060 -0.00031
 C197 C 0.77476 0.87241 -0.02155
 C198 C 0.75299 0.85698 -0.02315
 C199 C 0.74884 0.90605 0.00105
 C200 C 0.72697 0.89046 -0.00043
 H201 H 0.78393 0.87195 0.04373
 H202 H 0.71520 0.84787 -0.00162
 H203 H 0.79004 0.87293 -0.03686
 H204 H 0.74781 0.92745 0.00190
 C205 C 0.27507 0.39115 0.50192
 C206 C 0.27175 0.37248 0.52569
 C207 C 0.24984 0.35702 0.52432
 C208 C 0.23326 0.36152 0.49917
 C209 C 0.27495 0.37342 0.47770
 C210 C 0.25317 0.35799 0.47617
 C211 C 0.24913 0.40696 0.50057
 C212 C 0.22726 0.39138 0.49916
 H213 H 0.28451 0.37277 0.54292
 H214 H 0.21551 0.34878 0.49793
 H215 H 0.29013 0.37404 0.46229
 H216 H 0.24810 0.42837 0.50132
 C217 C 0.27337 0.60626 0.00070
 C218 C 0.27152 0.62398 -0.02392
 C219 C 0.24939 0.63951 -0.02450
 C220 C 0.23115 0.63621 0.00002
 C221 C 0.27138 0.62493 0.02412
 C222 C 0.24942 0.64055 0.02399
 C223 C 0.24746 0.59060 0.00126
 C224 C 0.22531 0.60635 0.00081
 H225 H 0.28524 0.62259 -0.04058
 H226 H 0.21328 0.64912 -0.00019
 H227 H 0.28550 0.62481 0.04027
 H228 H 0.24669 0.56919 0.00080
 C229 C 0.77277 0.11028 0.50101
 C230 C 0.77138 0.12734 0.47770
 C231 C 0.74845 0.14415 0.47742
 C232 C 0.73128 0.14084 0.50090
 C233 C 0.77157 0.12778 0.52358
 C234 C 0.74878 0.14464 0.52371
 C235 C 0.74800 0.09564 0.50159
 C236 C 0.72499 0.11258 0.50148
 H237 H 0.78460 0.12547 0.46066
 H238 H 0.71363 0.15413 0.50095
 H239 H 0.78552 0.12698 0.53991
 H240 H 0.74687 0.07424 0.50064
 C241 C 1.00409 0.77349 0.89155
 C242 C 1.02752 0.77076 0.87239
 C243 C 1.02615 0.74914 0.85661
 C244 C 1.00128 0.73223 0.86127
 C245 C 0.97961 0.77334 0.87415
 C246 C 0.97802 0.75188 0.85837
 C247 C 1.00332 0.74732 0.90711
 C248 C 1.00190 0.72572 0.89116
 H249 H 1.04468 0.78356 0.87275
 H250 H 0.99999 0.71475 0.84823
 H251 H 0.96411 0.78833 0.87515
 H252 H 1.00456 0.74595 0.92857
 C253 C 0.50145 0.27656 0.39156
 C254 C 0.52431 0.27417 0.37165
 C255 C 0.52293 0.25233 0.35616
 C256 C 0.49865 0.23489 0.36185
 C257 C 0.47642 0.27564 0.37499
 C258 C 0.47487 0.25397 0.35949
 C259 C 0.50182 0.25059 0.40741
 C260 C 0.50041 0.22878 0.39179
 H261 H 0.54121 0.28732 0.37137
 H262 H 0.49736 0.21721 0.34909
 H263 H 0.46080 0.29050 0.37602
 H264 H 0.50373 0.24950 0.42883
 C265 C 0.99969 0.27330 0.60733
 C266 C 0.97497 0.27089 0.62481
 C267 C 0.97473 0.24877 0.64040
 C268 C 0.99958 0.23112 0.63737
 C269 C 1.02290 0.27181 0.62635
 C270 C 1.02304 0.24986 0.64204
 C271 C 1.00095 0.24757 0.59161
 C272 C 1.00080 0.22546 0.60740
 H273 H 0.95808 0.28423 0.62324
 H274 H 0.99962 0.21324 0.65031
 H275 H 1.03876 0.28620 0.62639
 H276 H 1.00052 0.24685 0.57010
 C277 C 0.49953 0.77105 0.10867
 C278 C 0.47489 0.76878 0.12627
 C279 C 0.47468 0.74678 0.14202
 C280 C 0.49950 0.72909 0.13904
 C281 C 0.52282 0.76967 0.12761
 C282 C 0.52300 0.74785 0.14346
 C283 C 0.50070 0.74517 0.09315
 C284 C 0.50059 0.72318 0.10912
 H285 H 0.45796 0.78206 0.12457
 H286 H 0.49958 0.71131 0.15213
 H287 H 0.53866 0.78408 0.12751
 H288 H 0.50014 0.74429 0.07165
 O289 O -0.01390 0.98404 0.92451
 O290 O 0.02908 0.99769 0.92265
 O291 O -0.01301 0.92390 0.98647
 O292 O -0.00493 0.92097 1.02925
 O293 O -0.07474 0.98516 0.98560
 O294 O -0.07568 1.02990 0.99767
 O295 O 0.05301 0.99373 1.05615
 O296 O 0.05694 0.95327 1.03691
 O297 O 0.05749 1.05024 0.99487
 O298 O 0.03489 1.05778 0.95323
 O299 O -0.00390 1.05567 1.05123
 O300 O -0.04507 1.03324 1.05927
 O301 O 0.01630 1.01367 1.07331
 O302 O -0.03120 0.99985 1.07508
 O303 O 0.01547 1.07288 1.01423
 O304 O 0.00145 1.07370 0.96690
 O305 O 0.07449 1.01376 1.01518
 O306 O 0.07449 0.96922 0.99548
 O307 O -0.05026 1.00471 0.94158
 O308 O -0.05695 1.04553 0.96462
 O309 O -0.05788 0.94835 1.00542
 O310 O -0.03400 0.94390 1.04797
 O311 O 0.00556 0.94084 0.94889
 O312 O 0.04835 0.96406 0.94539
 Zr313 Zr 0.01152 0.98096 0.95714
 O314 O 0.03646 1.00505 0.97946
 Zr315 Zr -0.01769 0.95665 1.01125
 O316 O 0.00674 0.97895 1.03578
 Zr317 Zr -0.04208 1.01029 0.98191
 O318 O -0.01945 1.03512 1.00580
 Zr319 Zr 0.04276 0.98727 1.01661
 O320 O 0.01978 0.96173 0.99342
 Zr321 Zr 0.01770 1.04108 0.98789
 O322 O -0.00602 1.01838 0.96263
 Zr323 Zr -0.01084 1.01607 1.04194
 O324 O -0.03676 0.99271 1.01946
 O325 O -0.02530 0.97352 0.97438
 O326 O 0.02589 1.02409 1.02473
 C327 C -0.03690 0.99482 0.92222
 C328 C -0.00325 0.92151 0.96302
 C329 C -0.07716 0.96204 0.99596
 C330 C 0.03982 1.00405 1.07538
 C331 C 0.07664 1.03714 1.00538
 C332 C 0.00607 1.07492 1.03785
 H333 H 0.05333 1.00753 0.96970
 H334 H -0.02927 1.05185 1.00840
 H335 H -0.03654 0.96227 0.96323
 H336 H 0.00968 0.96911 1.05254
 H337 H 0.05295 0.93798 1.02560
 H338 H 0.01210 0.92475 1.03785
 H339 H -0.01462 1.07961 0.97655
 H340 H -0.04328 1.05183 0.95194
 H341 H 0.09057 0.97000 1.00659
 H342 H 0.04582 0.95383 0.92894
 H343 H -0.05219 1.04635 1.04649
 H344 H -0.07773 1.02351 1.01618
 H345 H 0.02321 1.01636 0.92179
 H346 H 0.04858 1.04533 0.94670
 H347 H -0.04845 0.95640 1.05250
 H348 H -0.02137 0.98395 1.08105
 O349 O 0.48579 0.48632 0.42549
 O350 O 0.52882 0.50014 0.42360
 O351 O 0.48648 0.42657 0.48752
 O352 O 0.49478 0.42376 0.53036
 O353 O 0.42492 0.48776 0.48646
 O354 O 0.42402 0.53260 0.49846
 O355 O 0.55274 0.49642 0.55697
 O356 O 0.55655 0.45592 0.53789
 O357 O 0.55731 0.55271 0.49545
 O358 O 0.53455 0.56004 0.45369
 O359 O 0.49598 0.55864 0.55181
 O360 O 0.45493 0.53644 0.56016
 O361 O 0.51611 0.51646 0.57418
 O362 O 0.46841 0.50285 0.57584
 O363 O 0.51540 0.57556 0.51471
 O364 O 0.50139 0.57634 0.46758
 O365 O 0.57420 0.51630 0.51599
 O366 O 0.57413 0.47170 0.49642
 O367 O 0.44942 0.50715 0.44236
 O368 O 0.44279 0.54814 0.46531
 O369 O 0.44180 0.45105 0.50642
 O370 O 0.46557 0.44677 0.54901
 O371 O 0.50506 0.44341 0.44990
 O372 O 0.54794 0.46636 0.44638
 Zr373 Zr 0.51120 0.48347 0.45809
 O374 O 0.53619 0.50756 0.48029
 Zr375 Zr 0.48195 0.45938 0.51228
 O376 O 0.50642 0.48174 0.53673
 Zr377 Zr 0.45760 0.51293 0.48273
 O378 O 0.48032 0.53780 0.50651
 Zr379 Zr 0.54244 0.48989 0.51750
 O380 O 0.51942 0.46431 0.49440
 Zr381 Zr 0.51748 0.54364 0.48856
 O382 O 0.49367 0.52091 0.46340
 Zr383 Zr 0.48895 0.51895 0.54276
 O384 O 0.46296 0.49552 0.52037
 O385 O 0.47437 0.47614 0.47536
 O386 O 0.52568 0.52680 0.52547
 C387 C 0.46278 0.49704 0.42310
 C388 C 0.49614 0.42415 0.46402
 C389 C 0.42252 0.46464 0.49683
 C390 C 0.53962 0.50675 0.57623
 C391 C 0.57642 0.53960 0.50604
 C392 C 0.50602 0.57777 0.53831
 H393 H 0.55307 0.50995 0.47051
 H394 H 0.47055 0.55457 0.50905
 H395 H 0.46312 0.46486 0.46425
 H396 H 0.50933 0.47196 0.55352
 H397 H 0.55251 0.44060 0.52663
 H398 H 0.51166 0.42765 0.53921
 H399 H 0.48516 0.58211 0.47704
 H400 H 0.45647 0.55434 0.45258
 H401 H 0.59021 0.47250 0.50752
 H402 H 0.54537 0.45620 0.42989
 H403 H 0.44754 0.54914 0.54711
 H404 H 0.42195 0.52621 0.51696
 H405 H 0.52273 0.51873 0.42252
 H406 H 0.54840 0.54766 0.44736
 H407 H 0.45114 0.45933 0.55349
 H408 H 0.47825 0.48700 0.58196
 O409 O 0.50857 -0.05579 0.55467
 O410 O 0.54863 -0.03398 0.55792
 O411 O 0.45031 0.00594 0.56040
 O412 O 0.43879 0.04256 0.53888
 O413 O 0.44547 -0.05211 0.49717
 O414 O 0.46896 -0.05775 0.45662
 O415 O 0.51494 0.07653 0.48612
 O416 O 0.49861 0.07788 0.52877
 O417 O 0.57511 0.01950 0.48465
 O418 O 0.57871 -0.02681 0.49810
 O419 O 0.51503 0.01758 0.42669
 O420 O 0.46964 0.00393 0.42590
 O421 O 0.49576 0.05894 0.44978
 O422 O 0.45301 0.03439 0.44475
 O423 O 0.55269 -0.00065 0.44317
 O424 O 0.56104 -0.04289 0.46714
 O425 O 0.55665 0.05560 0.50391
 O426 O 0.53560 0.05520 0.54849
 O427 O 0.48982 -0.07340 0.51808
 O428 O 0.50345 -0.07407 0.47215
 O429 O 0.42712 -0.01632 0.51712
 O430 O 0.42582 0.03021 0.50140
 O431 O 0.48745 -0.01350 0.57686
 O432 O 0.53246 0.00443 0.57523
 Zr433 Zr 0.51335 -0.01579 0.54417
 O434 O 0.53760 0.00875 0.52056
 Zr435 Zr 0.45832 0.01095 0.51969
 O436 O 0.48039 0.03712 0.49569
 Zr437 Zr 0.48535 -0.04155 0.49121
 O438 O 0.50807 -0.01773 0.46537
 Zr439 Zr 0.51750 0.04425 0.51243
 O440 O 0.49401 0.02084 0.53834
 Zr441 Zr 0.54411 -0.00821 0.48335
 O442 O 0.52247 -0.03445 0.50811
 Zr443 Zr 0.48914 0.01893 0.45944
 O444 O 0.46463 -0.00639 0.48245
 O445 O 0.47689 -0.02485 0.52773
 O446 O 0.52584 0.02797 0.47543
 C447 C 0.49941 -0.07535 0.54159
 C448 C 0.46407 -0.00374 0.57956
 C449 C 0.42561 -0.03951 0.50710
 C450 C 0.50569 0.07836 0.46249
 C451 C 0.57638 0.04317 0.49357
 C452 C 0.53886 0.00898 0.42409
 H453 H 0.55433 0.01198 0.52998
 H454 H 0.51077 -0.02725 0.44855
 H455 H 0.46597 -0.03636 0.53935
 H456 H 0.47035 0.05380 0.49332
 H457 H 0.49036 0.07207 0.54570
 H458 H 0.44941 0.05850 0.53521
 H459 H 0.54946 -0.04877 0.45267
 H460 H 0.52135 -0.07603 0.47978
 H461 H 0.54319 0.07306 0.54602
 H462 H 0.53091 -0.00618 0.59181
 H463 H 0.47736 -0.01365 0.42214
 H464 H 0.45641 -0.04438 0.44956
 H465 H 0.55553 -0.04506 0.54334
 H466 H 0.58273 -0.01884 0.51540
 H467 H 0.42211 0.02052 0.48491
 H468 H 0.44814 0.04999 0.45541
 O469 O -0.05310 0.50093 1.05754
 O470 O -0.06044 0.54035 1.03633
 O471 O -0.05683 0.44407 0.99401
 O472 O -0.03498 0.43567 0.95651
 O473 O 0.00615 0.44002 1.05199
 O474 O 0.04623 0.46354 1.05702
 O475 O 0.01199 0.51422 0.92408
 O476 O -0.02967 0.49748 0.92314
 O477 O 0.01255 0.57205 0.98320
 O478 O -0.00106 0.57360 1.02957
 O479 O 0.07283 0.51502 0.98261
 O480 O 0.07673 0.46957 0.99487
 O481 O 0.04970 0.49606 0.94080
 O482 O 0.05793 0.45286 0.96485
 O483 O 0.05477 0.55081 1.00274
 O484 O 0.03018 0.55567 1.04581
 O485 O -0.00624 0.55478 0.94659
 O486 O -0.05018 0.53290 0.94714
 O487 O -0.01523 0.48321 1.07442
 O488 O 0.03005 0.49707 1.07455
 O489 O -0.01277 0.42241 1.01562
 O490 O 0.00313 0.42348 0.96875
 O491 O -0.07521 0.47935 1.01487
 O492 O -0.07618 0.52552 0.99734
 Zr493 Zr -0.04410 0.50689 1.01722
 O494 O -0.02196 0.53319 0.99337
 Zr495 Zr -0.01684 0.45434 0.98884
 O496 O 0.00554 0.47849 0.96307
 Zr497 Zr 0.01085 0.48008 1.04187
 O498 O 0.03520 0.50469 1.01847
 Zr499 Zr -0.01334 0.51511 0.95711
 O500 O -0.03765 0.48951 0.97995
 Zr501 Zr 0.01513 0.54023 1.01019
 O502 O -0.00830 0.51660 1.03587
 Zr503 Zr 0.04157 0.48780 0.98107
 O504 O 0.02025 0.46131 1.00598
 O505 O -0.02544 0.47101 1.02533
 O506 O 0.02342 0.52405 0.97323
 C507 C -0.03899 0.49219 1.07688
 C508 C -0.07664 0.45629 1.00449
 C509 C -0.00310 0.42047 1.03905
 C510 C 0.03591 0.50577 0.92165
 C511 C 0.00364 0.57406 0.95947
 C512 C 0.07438 0.53839 0.99216
 H513 H -0.03219 0.54971 0.99066
 H514 H 0.05196 0.50758 1.02793
 H515 H -0.03637 0.45944 1.03689
 H516 H 0.00814 0.46924 0.94608
 H517 H -0.04602 0.48845 0.92908
 H518 H -0.03235 0.44736 0.94093
 H519 H 0.04620 0.54536 1.05053
 H520 H 0.02183 0.51466 1.07720
 H521 H -0.04823 0.54145 0.92946
 H522 H -0.09276 0.52206 1.00744
 H523 H 0.07954 0.47561 1.01320
 H524 H 0.05336 0.45170 1.04315
 H525 H -0.04579 0.54875 1.04594
 H526 H -0.01844 0.57759 1.02153
 H527 H 0.01962 0.41974 0.97862
 H528 H 0.04725 0.44809 0.94929
 O529 O 0.01469 0.42548 0.51171
 O530 O -0.00086 0.42541 0.46899
 O531 O 0.07488 0.48528 0.50988
 O532 O 0.07759 0.52813 0.49956
 O533 O 0.01710 0.48448 0.57339
 O534 O -0.02793 0.49762 0.57665
 O535 O 0.00158 0.55870 0.44674
 O536 O 0.04196 0.53907 0.44039
 O537 O -0.05507 0.49813 0.44428
 O538 O -0.06116 0.45622 0.46756
 O539 O -0.05744 0.55341 0.50601
 O540 O -0.03308 0.55906 0.54698
 O541 O -0.01627 0.57505 0.48478
 O542 O -0.00048 0.57518 0.53141
 O543 O -0.07537 0.51748 0.48683
 O544 O -0.07599 0.47005 0.50149
 O545 O -0.01954 0.51860 0.42570
 O546 O 0.02535 0.49857 0.42328
 O547 O -0.00407 0.44169 0.54942
 O548 O -0.04446 0.46517 0.55866
 O549 O 0.05304 0.50429 0.55486
 O550 O 0.05643 0.54693 0.53107
 O551 O 0.05701 0.44881 0.49155
 O552 O 0.03271 0.44814 0.44903
 Zr553 Zr 0.01677 0.45866 0.48658
 O554 O -0.00864 0.48195 0.46303
 Zr555 Zr 0.04258 0.51116 0.51508
 O556 O 0.01887 0.53667 0.49203
 Zr557 Zr -0.01001 0.48229 0.54200
 O558 O -0.03613 0.50703 0.52073
 Zr559 Zr 0.00874 0.51886 0.45616
 O560 O 0.03562 0.49466 0.47764
 Zr561 Zr -0.04385 0.49036 0.48368
 O562 O -0.01986 0.46425 0.50611
 Zr563 Zr -0.01750 0.54294 0.51153
 O564 O 0.00736 0.51950 0.53603
 O565 O 0.02588 0.47465 0.52321
 O566 O -0.02727 0.52700 0.47501
 C567 C 0.00521 0.42267 0.53529
 C568 C 0.07670 0.46185 0.50045
 C569 C 0.04047 0.49426 0.57475
 C570 C -0.00797 0.57765 0.46074
 C571 C -0.04300 0.50904 0.42455
 C572 C -0.07701 0.54092 0.49617
 H573 H -0.01190 0.47272 0.44621
 H574 H -0.05249 0.50969 0.53127
 H575 H 0.03751 0.46301 0.53396
 H576 H 0.02852 0.55331 0.48879
 H577 H 0.05756 0.52757 0.44362
 H578 H 0.07239 0.53892 0.48400
 H579 H -0.08138 0.47973 0.51761
 H580 H -0.05186 0.45361 0.54492
 H581 H 0.02358 0.51007 0.40735
 H582 H 0.04274 0.43131 0.45092
 H583 H -0.04659 0.54675 0.55399
 H584 H -0.02127 0.51583 0.57848
 H585 H -0.01910 0.42427 0.47621
 H586 H -0.04965 0.45017 0.45284
 H587 H 0.04438 0.55154 0.54593
 H588 H 0.01533 0.58079 0.52118
 O589 O 0.51400 0.92355 0.01353
 O590 O 0.49844 0.92346 -0.02911
 O591 O 0.57417 0.98337 0.01176
 O592 O 0.57694 1.02620 0.00165
 O593 O 0.51628 0.98266 0.07533
 O594 O 0.47118 0.99563 0.07843
 O595 O 0.50114 1.05670 -0.05144
 O596 O 0.54154 1.03702 -0.05764
 O597 O 0.44441 0.99635 -0.05410
 O598 O 0.43819 0.95439 -0.03074
 O599 O 0.44198 1.05163 0.00769
 O600 O 0.46608 1.05729 0.04863
 O601 O 0.48324 1.07313 -0.01346
 O602 O 0.49898 1.07313 0.03335
 O603 O 0.42399 1.01575 -0.01154
 O604 O 0.42321 0.96833 0.00307
 O605 O 0.48004 1.01683 -0.07248
 O606 O 0.52481 0.99656 -0.07483
 O607 O 0.49516 0.93970 0.05123
 O608 O 0.45475 0.96319 0.06039
 O609 O 0.55227 1.00233 0.05677
 O610 O 0.55569 1.04498 0.03302
 O611 O 0.55633 0.94691 -0.00662
 O612 O 0.53199 0.94617 -0.04911
 Zr613 Zr 0.51608 0.95673 -0.01156
 O614 O 0.49073 0.98004 -0.03517
 Zr615 Zr 0.54186 1.00921 0.01701
 O616 O 0.51826 1.03474 -0.00610
 Zr617 Zr 0.48923 0.98034 0.04383
 O618 O 0.46318 1.00514 0.02248
 Zr619 Zr 0.50822 1.01690 -0.04198
 O620 O 0.53500 0.99270 -0.02044
 Zr621 Zr 0.45548 0.98854 -0.01462
 O622 O 0.47941 0.96238 0.00788
 Zr623 Zr 0.48186 1.04104 0.01332
 O624 O 0.50661 1.01755 0.03789
 O625 O 0.52515 0.97269 0.02511
 O626 O 0.47217 1.02512 -0.02322
 C627 C 0.50448 0.92069 0.03708
 C628 C 0.57602 0.95997 0.00226
 C629 C 0.53966 0.99243 0.07669
 C630 C 0.49159 1.07568 -0.03749
 C631 C 0.45657 1.00733 -0.07376
 C632 C 0.42239 1.03922 -0.00223
 H633 H 0.48749 0.97083 -0.05201
 H634 H 0.44680 1.00783 0.03297
 H635 H 0.53677 0.96105 0.03586
 H636 H 0.52795 1.05136 -0.00932
 H637 H 0.55709 1.02545 -0.05443
 H638 H 0.57182 1.03686 -0.01403
 H639 H 0.41789 0.97795 0.01926
 H640 H 0.44734 0.95172 0.04657
 H641 H 0.52316 1.00810 -0.09075
 H642 H 0.54203 0.92935 -0.04721
 H643 H 0.45273 1.04486 0.05575
 H644 H 0.47778 1.01387 0.08026
 H645 H 0.48017 0.92241 -0.02199
 H646 H 0.44968 0.94836 -0.04549
 H647 H 0.54367 1.04955 0.04790
 H648 H 0.51466 1.07891 0.02301
 O649 O 0.55520 0.50545 -0.05700
 O650 O 0.55831 0.54533 -0.03528
 O651 O 0.56015 0.44733 0.00525
 O652 O 0.53831 0.43604 0.04186
 O653 O 0.49793 0.44255 -0.05388
 O654 O 0.45758 0.46551 -0.06036
 O655 O 0.48512 0.51215 0.07478
 O656 O 0.52762 0.49596 0.07689
 O657 O 0.48397 0.57171 0.01698
 O658 O 0.49738 0.57565 -0.02877
 O659 O 0.42636 0.51146 0.01494
 O660 O 0.42582 0.46628 0.00168
 O661 O 0.44911 0.49268 0.05692
 O662 O 0.44472 0.44969 0.03232
 O663 O 0.44275 0.54901 -0.00357
 O664 O 0.46774 0.55689 -0.04613
 O665 O 0.50303 0.55363 0.05357
 O666 O 0.54754 0.53276 0.05404
 O667 O 0.51888 0.48673 -0.07515
 O668 O 0.47283 0.50025 -0.07635
 O669 O 0.51726 0.42426 -0.01753
 O670 O 0.50104 0.42302 0.02909
 O671 O 0.57688 0.48437 -0.01413
 O672 O 0.57479 0.52950 0.00377
 Zr673 Zr 0.54422 0.51024 -0.01702
 O674 O 0.52012 0.53443 0.00699
 Zr675 Zr 0.51949 0.45540 0.00978
 O676 O 0.49521 0.47741 0.03563
 Zr677 Zr 0.49168 0.48220 -0.04350
 O678 O 0.46540 0.50464 -0.02003
 Zr679 Zr 0.51172 0.51453 0.04269
 O680 O 0.53796 0.49106 0.01979
 Zr681 Zr 0.48309 0.54068 -0.01054
 O682 O 0.50841 0.51925 -0.03633
 Zr683 Zr 0.45918 0.48588 0.01687
 O684 O 0.48253 0.46155 -0.00820
 O685 O 0.52793 0.47386 -0.02617
 O686 O 0.47491 0.52260 0.02584
 C687 C 0.54238 0.49631 -0.07680
 C688 C 0.57942 0.46100 -0.00427
 C689 C 0.50765 0.42279 -0.04100
 C690 C 0.46155 0.50284 0.07645
 C691 C 0.49275 0.57317 0.04078
 C692 C 0.42367 0.53514 0.00604
 H693 H 0.52941 0.55120 0.01021
 H694 H 0.44870 0.50717 -0.02983
 H695 H 0.53970 0.46299 -0.03752
 H696 H 0.49271 0.46747 0.05243
 H697 H 0.54460 0.48774 0.07138
 H698 H 0.53464 0.44678 0.05773
 H699 H 0.45269 0.54587 -0.05154
 H700 H 0.48077 0.51794 -0.07861
 H701 H 0.54484 0.54042 0.07188
 H702 H 0.59158 0.52775 -0.00645
 H703 H 0.42249 0.47357 -0.01626
 H704 H 0.45022 0.45320 -0.04688
 H705 H 0.54382 0.55232 -0.04649
 H706 H 0.51514 0.57907 -0.02153
 H707 H 0.48480 0.41913 0.01905
 H708 H 0.45489 0.44522 0.04845
 O709 O -0.07729 0.01283 0.51335
 O710 O -0.07731 -0.02993 0.49798
 O711 O -0.01768 0.01159 0.57376
 O712 O 0.02519 0.00122 0.57681
 O713 O -0.01784 0.07421 0.51507
 O714 O -0.00459 0.07694 0.46995
 O715 O 0.05643 -0.05200 0.50162
 O716 O 0.03634 -0.05795 0.54194
 O717 O -0.00416 -0.05520 0.44452
 O718 O -0.04593 -0.03212 0.43781
 O719 O 0.05152 0.00634 0.44165
 O720 O 0.05707 0.04740 0.46552
 O721 O 0.07293 -0.01427 0.48333
 O722 O 0.07293 0.03236 0.49850
 O723 O 0.01558 -0.01294 0.42367
 O724 O -0.03198 0.00160 0.42270
 O725 O 0.01616 -0.07330 0.48040
 O726 O -0.00415 -0.07523 0.52525
 O727 O -0.06080 0.05019 0.49420
 O728 O -0.03711 0.05874 0.45354
 O729 O 0.00167 0.05609 0.55141
 O730 O 0.04428 0.03248 0.55536
 O731 O -0.05416 -0.00696 0.55596
 O732 O -0.05486 -0.04950 0.53205
 Zr733 Zr -0.04408 -0.01226 0.51572
 O734 O -0.02055 -0.03595 0.49068
 Zr735 Zr 0.00849 0.01637 0.54147
 O736 O 0.03419 -0.00678 0.51814
 Zr737 Zr -0.02010 0.04263 0.48832
 O738 O 0.00487 0.02120 0.46256
 Zr739 Zr 0.01636 -0.04264 0.50834
 O740 O -0.00808 -0.02098 0.53485
 Zr741 Zr -0.01183 -0.01581 0.45518
 O742 O -0.03817 0.00677 0.47880
 Zr743 Zr 0.04074 0.01227 0.48151
 O744 O 0.01710 0.03689 0.50598
 O745 O -0.02799 0.02430 0.52447
 O746 O 0.02478 -0.02424 0.47207
 C747 C -0.07997 0.03629 0.50370
 C748 C -0.04119 0.00218 0.57563
 C749 C -0.00819 0.07579 0.53852
 C750 C 0.07552 -0.03809 0.49201
 C751 C 0.00664 -0.07473 0.45691
 C752 C 0.03913 -0.00364 0.42206
 H753 H -0.02982 -0.05275 0.48758
 H754 H 0.00766 0.03152 0.44606
 H755 H -0.03967 0.03512 0.53596
 H756 H 0.05080 -0.00987 0.52794
 H757 H 0.02469 -0.05457 0.55744
 H758 H 0.03617 -0.01420 0.57181
 H759 H -0.02223 0.01763 0.41718
 H760 H -0.04879 0.04498 0.44637
 H761 H 0.00738 -0.09110 0.52379
 H762 H -0.07183 -0.04751 0.54191
 H763 H 0.04483 0.05422 0.45183
 H764 H 0.01366 0.07882 0.47660
 H765 H -0.07845 -0.02268 0.47973
 H766 H -0.05232 -0.04641 0.44968
 H767 H 0.04903 0.04714 0.54313
 H768 H 0.07847 0.02234 0.51447
 O769 O 0.67365 0.22997 0.25845
 O770 O 0.67511 0.24634 0.21565
 O771 O 0.73739 0.17295 0.26104
 O772 O 0.78095 0.17191 0.25771
 O773 O 0.72823 0.23321 0.32353
 O774 O 0.73881 0.27855 0.32506
 O775 O 0.81013 0.24795 0.20108
 O776 O 0.79351 0.20600 0.19654
 O777 O 0.74895 0.30150 0.19184
 O778 O 0.70552 0.30764 0.21021
 O779 O 0.79780 0.30787 0.25918
 O780 O 0.80286 0.28359 0.30013
 O781 O 0.82344 0.26749 0.23906
 O782 O 0.82168 0.25185 0.28631
 O783 O 0.76246 0.32420 0.23669
 O784 O 0.71356 0.32208 0.24586
 O785 O 0.77117 0.26555 0.17656
 O786 O 0.75309 0.22033 0.17559
 O787 O 0.68677 0.25014 0.29620
 O788 O 0.70663 0.29290 0.30339
 O789 O 0.75016 0.19702 0.30842
 O790 O 0.79554 0.19511 0.28817
 O791 O 0.70146 0.18907 0.23924
 O792 O 0.70051 0.21398 0.19716
 Zr793 Zr 0.70846 0.22983 0.23506
 O794 O 0.73236 0.25525 0.21197
 Zr795 Zr 0.76030 0.20659 0.26867
 O796 O 0.78633 0.23039 0.24614
 Zr797 Zr 0.72706 0.25872 0.29047
 O798 O 0.75219 0.28489 0.26978
 Zr799 Zr 0.77045 0.23886 0.20869
 O800 O 0.74602 0.21207 0.22981
 Zr801 Zr 0.73792 0.29126 0.23119
 O802 O 0.71115 0.26711 0.25293
 Zr803 Zr 0.78967 0.26741 0.26411
 O804 O 0.76552 0.24264 0.28821
 O805 O 0.72244 0.22205 0.27309
 O806 O 0.77583 0.27566 0.22609
 C807 C 0.66919 0.23913 0.28180
 C808 C 0.71528 0.16994 0.24899
 C809 C 0.73833 0.21009 0.32689
 C810 C 0.82768 0.25906 0.21539
 C811 C 0.76147 0.28886 0.17350
 C812 C 0.78466 0.32700 0.24858
 H813 H 0.72431 0.25775 0.19431
 H814 H 0.75313 0.30140 0.27997
 H815 H 0.71085 0.20987 0.28326
 H816 H 0.80364 0.22132 0.24435
 H817 H 0.78247 0.19017 0.19956
 H818 H 0.79086 0.17626 0.24128
 H819 H 0.72106 0.32781 0.26289
 H820 H 0.69430 0.29804 0.28906
 H821 H 0.76571 0.22153 0.16046
 H822 H 0.68403 0.20347 0.19827
 H823 H 0.78903 0.29602 0.30639
 H824 H 0.75692 0.27221 0.32912
 H825 H 0.67283 0.26453 0.22233
 H826 H 0.69926 0.29409 0.19783
 H827 H 0.79798 0.20753 0.30297
 H828 H 0.82880 0.23630 0.27686
 O829 O 0.75879 0.69959 0.69355
 O830 O 0.79853 0.69450 0.71398
 O831 O 0.70244 0.69238 0.75883
 O832 O 0.69161 0.71368 0.79518
 O833 O 0.69447 0.75690 0.70020
 O834 O 0.71698 0.79678 0.69307
 O835 O 0.76790 0.76391 0.82634
 O836 O 0.75370 0.72200 0.82810
 O837 O 0.82680 0.76654 0.76564
 O838 O 0.82885 0.75532 0.71978
 O839 O 0.76591 0.82522 0.76657
 O840 O 0.72050 0.82684 0.75570
 O841 O 0.74763 0.80059 0.80957
 O842 O 0.70463 0.80708 0.78571
 O843 O 0.80278 0.80917 0.74624
 O844 O 0.80933 0.78522 0.70365
 O845 O 0.81017 0.74674 0.80270
 O846 O 0.78941 0.70278 0.80345
 O847 O 0.73915 0.73654 0.67660
 O848 O 0.75081 0.78226 0.67566
 O849 O 0.67778 0.73642 0.73682
 O850 O 0.67828 0.75081 0.78350
 O851 O 0.73866 0.67617 0.73741
 O852 O 0.78463 0.67747 0.75324
 Zr853 Zr 0.76411 0.70868 0.73361
 O854 O 0.78910 0.73173 0.75690
 Zr855 Zr 0.71008 0.73286 0.76265
 O856 O 0.73297 0.75607 0.78783
 Zr857 Zr 0.73463 0.76216 0.70891
 O858 O 0.75790 0.78738 0.73176
 Zr859 Zr 0.77053 0.73910 0.79343
 O860 O 0.74629 0.71389 0.77113
 Zr861 Zr 0.79449 0.76916 0.73968
 O862 O 0.77213 0.74495 0.71452
 Zr863 Zr 0.74057 0.79258 0.76937
 O864 O 0.71532 0.77030 0.74504
 O865 O 0.72711 0.72536 0.72585
 O866 O 0.77789 0.77642 0.77695
 C867 C 0.74965 0.71348 0.67417
 C868 C 0.71604 0.67333 0.74885
 C869 C 0.67520 0.74730 0.71388
 C870 C 0.75757 0.78702 0.82880
 C871 C 0.82932 0.75657 0.78902
 C872 C 0.78901 0.82809 0.75619
 H873 H 0.80605 0.72214 0.75926
 H874 H 0.75989 0.80427 0.72200
 H875 H 0.71594 0.71404 0.71467
 H876 H 0.72340 0.75794 0.80489
 H877 H 0.74510 0.70546 0.82260
 H878 H 0.70357 0.71562 0.81042
 H879 H 0.79800 0.80048 0.69872
 H880 H 0.76883 0.77494 0.67284
 H881 H 0.79798 0.70474 0.82093
 H882 H 0.78234 0.66091 0.74321
 H883 H 0.72643 0.83023 0.73725
 H884 H 0.70530 0.80396 0.70715
 H885 H 0.80574 0.70944 0.70345
 H886 H 0.83284 0.73739 0.72667
 H887 H 0.67375 0.76734 0.77386
 H888 H 0.70015 0.79603 0.80138
 O889 O 0.30210 0.19296 0.74870
 O890 O 0.30521 0.20970 0.70614
 O891 O 0.30813 0.26269 0.79731
 O892 O 0.28505 0.29912 0.80552
 O893 O 0.24728 0.20299 0.81198
 O894 O 0.20532 0.19525 0.79231
 O895 O 0.23309 0.32326 0.72745
 O896 O 0.27601 0.32598 0.74091
 O897 O 0.22935 0.25920 0.67488
 O898 O 0.24366 0.21404 0.67586
 O899 O 0.17312 0.26312 0.73647
 O900 O 0.17270 0.25606 0.78273
 O901 O 0.19669 0.30769 0.74915
 O902 O 0.19227 0.28754 0.79543
 O903 O 0.18930 0.24009 0.70146
 O904 O 0.21544 0.19766 0.69858
 O905 O 0.24761 0.29763 0.68819
 O906 O 0.29369 0.29952 0.70579
 O907 O 0.26565 0.17726 0.77027
 O908 O 0.21944 0.17502 0.75919
 O909 O 0.26667 0.24091 0.82515
 O910 O 0.24866 0.28685 0.82114
 O911 O 0.32441 0.23876 0.76290
 O912 O 0.32146 0.25016 0.71529
 Zr913 Zr 0.29135 0.23213 0.73870
 O914 O 0.26693 0.25320 0.71208
 Zr915 Zr 0.26714 0.26483 0.79061
 O916 O 0.24251 0.28784 0.76594
 Zr917 Zr 0.23908 0.20936 0.77173
 O918 O 0.21254 0.22992 0.74696
 Zr919 Zr 0.25870 0.29062 0.72761
 O920 O 0.28519 0.27061 0.75320
 Zr921 Zr 0.22985 0.23517 0.70928
 O922 O 0.25541 0.21213 0.73337
 Zr923 Zr 0.20632 0.26851 0.76083
 O924 O 0.23003 0.24650 0.78789
 O925 O 0.27554 0.22730 0.77661
 O926 O 0.22176 0.27318 0.72272
 C927 C 0.28905 0.17438 0.76044
 C928 C 0.32732 0.25191 0.78435
 C929 C 0.25790 0.21750 0.82963
 C930 C 0.20960 0.32610 0.73695
 C931 C 0.23687 0.28308 0.67067
 C932 C 0.17023 0.25100 0.71442
 H933 H 0.27582 0.25468 0.69459
 H934 H 0.19591 0.21981 0.74630
 H935 H 0.28776 0.21735 0.78834
 H936 H 0.24021 0.30552 0.77378
 H937 H 0.29312 0.32097 0.74902
 H938 H 0.28227 0.31320 0.79211
 H939 H 0.20017 0.19358 0.71028
 H940 H 0.22704 0.17043 0.74167
 H941 H 0.29056 0.31619 0.69578
 H942 H 0.33842 0.24059 0.71821
 H943 H 0.17076 0.23691 0.77974
 H944 H 0.19916 0.20974 0.80392
 H945 H 0.29032 0.19853 0.70053
 H946 H 0.26153 0.22060 0.67133
 H947 H 0.23291 0.27679 0.82704
 H948 H 0.20261 0.30387 0.79764
 O949 O 0.19146 0.74884 0.30318
 O950 O 0.20792 0.70657 0.30690
 O951 O 0.26198 0.79698 0.30860
 O952 O 0.29860 0.80453 0.28532
 O953 O 0.20220 0.81156 0.24776
 O954 O 0.19418 0.79171 0.20590
 O955 O 0.32179 0.72627 0.23397
 O956 O 0.32475 0.73996 0.27683
 O957 O 0.25706 0.67439 0.23083
 O958 O 0.21170 0.67589 0.24539
 O959 O 0.26155 0.73525 0.17398
 O960 O 0.25485 0.78141 0.17318
 O961 O 0.30631 0.74768 0.19734
 O962 O 0.28668 0.79388 0.19250
 O963 O 0.23811 0.70067 0.19053
 O964 O 0.19556 0.69835 0.21686
 O965 O 0.29574 0.68749 0.24894
 O966 O 0.29787 0.70530 0.29491
 O967 O 0.17593 0.77022 0.26653
 O968 O 0.17349 0.75905 0.22040
 O969 O 0.24042 0.82446 0.26692
 O970 O 0.28636 0.81995 0.24876
 O971 O 0.23760 0.76310 0.32538
 O972 O 0.24866 0.71549 0.32280
 Zr973 Zr 0.23069 0.73868 0.29251
 O974 O 0.25144 0.71179 0.26820
 Zr975 Zr 0.26399 0.78988 0.26763
 O976 O 0.28672 0.76493 0.24313
 Zr977 Zr 0.20812 0.77134 0.23987
 O978 O 0.22838 0.74627 0.21345
 Zr979 Zr 0.28912 0.72687 0.25971
 O980 O 0.26942 0.75274 0.28607
 Zr981 Zr 0.23329 0.70883 0.23112
 O982 O 0.21054 0.73323 0.25658
 Zr983 Zr 0.26720 0.75973 0.20699
 O984 O 0.24551 0.78704 0.23055
 O985 O 0.22621 0.77633 0.27630
 O986 O 0.27152 0.72187 0.22281
 C987 C 0.17293 0.76051 0.29000
 C988 C 0.25102 0.78439 0.32800
 C989 C 0.21699 0.82908 0.25818
 C990 C 0.32467 0.73550 0.21033
 C991 C 0.28098 0.67007 0.23833
 C992 C 0.24923 0.71332 0.17129
 H993 H 0.25276 0.69443 0.27727
 H994 H 0.21821 0.74555 0.19683
 H995 H 0.21635 0.78816 0.28845
 H996 H 0.30453 0.77258 0.24069
 H997 H 0.31985 0.74817 0.29393
 H998 H 0.31257 0.79106 0.28256
 H999 H 0.19158 0.70990 0.20145
 H1000 H 0.16882 0.74160 0.22803
 H1001 H 0.31449 0.69521 0.29183
 H1002 H 0.23924 0.71869 0.33982
 H1003 H 0.23564 0.77846 0.17126
 H1004 H 0.20882 0.80311 0.19961
 H1005 H 0.19692 0.70067 0.29199
 H1006 H 0.21851 0.67124 0.26316
 H1007 H 0.27632 0.82577 0.23295
 H1008 H 0.30307 0.79605 0.20282
 O1009 O 0.24953 0.80418 0.69274
 O1010 O 0.20724 0.80685 0.70990
 O1011 O 0.29859 0.80975 0.76268
 O1012 O 0.30702 0.78645 0.79907
 O1013 O 0.31333 0.74991 0.70220
 O1014 O 0.29394 0.70806 0.69404
 O1015 O 0.22953 0.73356 0.82311
 O1016 O 0.24276 0.77642 0.82624
 O1017 O 0.17681 0.73032 0.75885
 O1018 O 0.17754 0.74508 0.71360
 O1019 O 0.23878 0.67463 0.76212
 O1020 O 0.28490 0.67468 0.75490
 O1021 O 0.25142 0.69765 0.80705
 O1022 O 0.29761 0.69397 0.78665
 O1023 O 0.20357 0.69074 0.73928
 O1024 O 0.20029 0.71726 0.69692
 O1025 O 0.19009 0.74823 0.79757
 O1026 O 0.20748 0.79420 0.79993
 O1027 O 0.27130 0.76822 0.67659
 O1028 O 0.26067 0.72206 0.67400
 O1029 O 0.32653 0.76877 0.74047
 O1030 O 0.32280 0.75038 0.78646
 O1031 O 0.26404 0.82604 0.73889
 O1032 O 0.21658 0.82258 0.75064
 Zr1033 Zr 0.24000 0.79296 0.73209
 O1034 O 0.21371 0.76811 0.75310
 Zr1035 Zr 0.29213 0.76881 0.76454
 O1036 O 0.26778 0.74377 0.78751
 Zr1037 Zr 0.27322 0.74137 0.70862
 O1038 O 0.24879 0.71444 0.72911
 Zr1039 Zr 0.22941 0.75956 0.79057
 O1040 O 0.25468 0.78644 0.77064
 Zr1041 Zr 0.21106 0.73132 0.73466
 O1042 O 0.23481 0.75730 0.71169
 Zr1043 Zr 0.26285 0.70788 0.76777
 O1044 O 0.28957 0.73201 0.74579
 O1045 O 0.27794 0.77755 0.72695
 O1046 O 0.22471 0.72289 0.77273
 C1047 C 0.26119 0.79146 0.67391
 C1048 C 0.28551 0.82892 0.75204
 C1049 C 0.33097 0.76033 0.71688
 C1050 C 0.23918 0.71015 0.82570
 C1051 C 0.17261 0.73759 0.78287
 C1052 C 0.21671 0.67170 0.75002
 H1053 H 0.19620 0.77683 0.75471
 H1054 H 0.24819 0.69796 0.71881
 H1055 H 0.28951 0.78992 0.71701
 H1056 H 0.27570 0.74131 0.80522
 H1057 H 0.25072 0.79362 0.82137
 H1058 H 0.29377 0.78333 0.81326
 H1059 H 0.21207 0.70218 0.69264
 H1060 H 0.24307 0.72950 0.66955
 H1061 H 0.19761 0.79082 0.81668
 H1062 H 0.21935 0.83965 0.74120
 H1063 H 0.28186 0.67296 0.73566
 H1064 H 0.30559 0.70178 0.70852
 H1065 H 0.20159 0.79208 0.69863
 H1066 H 0.17284 0.76274 0.72045
 H1067 H 0.32874 0.73480 0.77624
 H1068 H 0.29973 0.70400 0.80321
 O1069 O 0.25612 0.19950 0.19313
 O1070 O 0.29582 0.19428 0.21360
 O1071 O 0.19979 0.19275 0.25865
 O1072 O 0.18904 0.21431 0.29487
 O1073 O 0.19194 0.25701 0.19966
 O1074 O 0.21463 0.29688 0.19247
 O1075 O 0.26563 0.26422 0.32572
 O1076 O 0.25107 0.22233 0.32760
 O1077 O 0.32445 0.26632 0.26504
 O1078 O 0.32621 0.25462 0.21895
 O1079 O 0.26402 0.32530 0.26576
 O1080 O 0.21860 0.32720 0.25486
 O1081 O 0.24557 0.30097 0.30886
 O1082 O 0.20255 0.30760 0.28496
 O1083 O 0.30078 0.30886 0.24554
 O1084 O 0.30723 0.28503 0.20311
 O1085 O 0.30767 0.24685 0.30221
 O1086 O 0.28682 0.20293 0.30309
 O1087 O 0.23665 0.23648 0.17604
 O1088 O 0.24835 0.28214 0.17497
 O1089 O 0.17528 0.23671 0.23641
 O1090 O 0.17586 0.25145 0.28295
 O1091 O 0.23586 0.17633 0.23711
 O1092 O 0.28181 0.17741 0.25289
 Zr1093 Zr 0.26146 0.20868 0.23319
 O1094 O 0.28659 0.23164 0.25643
 Zr1095 Zr 0.20758 0.23324 0.26221
 O1096 O 0.23059 0.25644 0.28729
 Zr1097 Zr 0.23217 0.26220 0.20832
 O1098 O 0.25565 0.28736 0.23106
 Zr1099 Zr 0.26805 0.23926 0.29292
 O1100 O 0.24370 0.21410 0.27071
 Zr1101 Zr 0.29215 0.26896 0.23904
 O1102 O 0.26961 0.24484 0.21395
 Zr1103 Zr 0.23841 0.29284 0.26868
 O1104 O 0.21299 0.27058 0.24446
 O1105 O 0.22452 0.22550 0.22541
 O1106 O 0.27562 0.27646 0.27627
 C1107 C 0.24709 0.21337 0.17369
 C1108 C 0.21328 0.17362 0.24868
 C1109 C 0.17268 0.24746 0.21340
 C1110 C 0.25551 0.28743 0.32812
 C1111 C 0.32687 0.25656 0.28852
 C1112 C 0.28719 0.32792 0.25546
 H1113 H 0.30349 0.22198 0.25883
 H1114 H 0.25776 0.30421 0.22126
 H1115 H 0.21331 0.21418 0.21428
 H1116 H 0.22106 0.25845 0.30435
 H1117 H 0.24247 0.20578 0.32214
 H1118 H 0.20097 0.21637 0.31011
 H1119 H 0.29579 0.30015 0.19799
 H1120 H 0.26641 0.27489 0.17227
 H1121 H 0.29534 0.20493 0.32059
 H1122 H 0.27945 0.16084 0.24288
 H1123 H 0.22449 0.33042 0.23637
 H1124 H 0.20295 0.30408 0.20654
 H1125 H 0.30311 0.20916 0.20305
 H1126 H 0.33048 0.23697 0.22638
 H1127 H 0.17143 0.26796 0.27322
 H1128 H 0.19802 0.29665 0.30068
 O1129 O 0.80257 0.69329 0.24906
 O1130 O 0.80565 0.71004 0.20664
 O1131 O 0.80866 0.76352 0.29750
 O1132 O 0.78543 0.79986 0.30559
 O1133 O 0.74829 0.70353 0.31277
 O1134 O 0.70619 0.69557 0.29355
 O1135 O 0.73295 0.82333 0.22783
 O1136 O 0.77596 0.82627 0.24095
 O1137 O 0.72916 0.75892 0.17560
 O1138 O 0.74376 0.71384 0.17670
 O1139 O 0.67328 0.76288 0.23740
 O1140 O 0.67319 0.75605 0.28374
 O1141 O 0.69672 0.80769 0.24978
 O1142 O 0.69259 0.78775 0.29611
 O1143 O 0.68942 0.73971 0.20247
 O1144 O 0.71581 0.69741 0.19968
 O1145 O 0.74725 0.79754 0.18860
 O1146 O 0.79345 0.79976 0.20579
 O1147 O 0.76631 0.67763 0.27097
 O1148 O 0.72005 0.67521 0.26045
 O1149 O 0.76748 0.74165 0.32565
 O1150 O 0.74924 0.78744 0.32154
 O1151 O 0.82490 0.73939 0.26322
 O1152 O 0.82160 0.75062 0.21551
 Zr1153 Zr 0.79174 0.73249 0.23916
 O1154 O 0.76704 0.75331 0.21258
 Zr1155 Zr 0.76763 0.76537 0.29100
 O1156 O 0.74273 0.78812 0.26637
 Zr1157 Zr 0.73972 0.70968 0.27259
 O1158 O 0.71293 0.72995 0.24787
 Zr1159 Zr 0.75869 0.79078 0.22795
 O1160 O 0.78545 0.77104 0.25347
 Zr1161 Zr 0.73004 0.73508 0.21008
 O1162 O 0.75584 0.71231 0.23414
 Zr1163 Zr 0.70659 0.76860 0.26156
 O1164 O 0.73059 0.74686 0.28859
 O1165 O 0.77615 0.72778 0.27717
 O1166 O 0.72181 0.77313 0.22336
 C1167 C 0.78957 0.67470 0.26086
 C1168 C 0.82785 0.75273 0.28454
 C1169 C 0.75890 0.71821 0.33027
 C1170 C 0.70949 0.82612 0.23745
 C1171 C 0.73648 0.78283 0.17124
 C1172 C 0.67035 0.75059 0.21544
 H1173 H 0.77582 0.75475 0.19504
 H1174 H 0.69636 0.71975 0.24735
 H1175 H 0.78849 0.71791 0.28884
 H1176 H 0.74039 0.80583 0.27414
 H1177 H 0.79317 0.82137 0.24894
 H1178 H 0.78248 0.81385 0.29213
 H1179 H 0.70055 0.69335 0.21140
 H1180 H 0.72746 0.67057 0.24286
 H1181 H 0.79015 0.81637 0.19574
 H1182 H 0.83867 0.74125 0.21846
 H1183 H 0.67132 0.73689 0.28084
 H1184 H 0.70007 0.71011 0.30511
 H1185 H 0.79071 0.69901 0.20092
 H1186 H 0.76148 0.72062 0.17189
 H1187 H 0.73353 0.77737 0.32754
 H1188 H 0.70296 0.80407 0.29826
 O1189 O 0.69274 0.24762 0.80418
 O1190 O 0.70966 0.20550 0.80745
 O1191 O 0.76260 0.29655 0.80978
 O1192 O 0.79928 0.30421 0.78653
 O1193 O 0.70266 0.31102 0.74913
 O1194 O 0.69451 0.29138 0.70727
 O1195 O 0.82280 0.22686 0.73386
 O1196 O 0.82600 0.24022 0.77676
 O1197 O 0.75854 0.17442 0.73079
 O1198 O 0.71333 0.17535 0.74548
 O1199 O 0.76199 0.23593 0.67434
 O1200 O 0.75474 0.28250 0.67452
 O1201 O 0.80685 0.24845 0.69754
 O1202 O 0.78719 0.29423 0.69300
 O1203 O 0.73904 0.20094 0.69069
 O1204 O 0.69671 0.19803 0.71744
 O1205 O 0.79718 0.18764 0.74890
 O1206 O 0.79951 0.20523 0.79487
 O1207 O 0.67685 0.26928 0.76786
 O1208 O 0.67415 0.25850 0.72173
 O1209 O 0.74088 0.32413 0.76814
 O1210 O 0.78675 0.32014 0.75009
 O1211 O 0.73882 0.26214 0.82632
 O1212 O 0.75044 0.21465 0.82314
 Zr1213 Zr 0.73201 0.23796 0.79320
 O1214 O 0.75282 0.21149 0.76847
 Zr1215 Zr 0.76469 0.28969 0.76869
 O1216 O 0.78743 0.26516 0.74372
 Zr1217 Zr 0.70884 0.27089 0.74101
 O1218 O 0.72910 0.24623 0.71419
 Zr1219 Zr 0.79032 0.22695 0.75988
 O1220 O 0.77058 0.25239 0.78668
 Zr1221 Zr 0.73449 0.20867 0.73145
 O1222 O 0.71171 0.23265 0.75733
 Zr1223 Zr 0.76775 0.26010 0.70761
 O1224 O 0.74605 0.28700 0.73166
 O1225 O 0.72707 0.27573 0.77739
 O1226 O 0.77254 0.22212 0.72302
 C1227 C 0.67404 0.25928 0.79123
 C1228 C 0.75190 0.28363 0.82913
 C1229 C 0.71739 0.32863 0.75947
 C1230 C 0.82542 0.23632 0.71027
 C1231 C 0.78249 0.17018 0.73825
 C1232 C 0.74983 0.21393 0.67147
 H1233 H 0.75435 0.19407 0.77737
 H1234 H 0.71881 0.24558 0.69764
 H1235 H 0.71717 0.28740 0.78966
 H1236 H 0.80516 0.27297 0.74121
 H1237 H 0.82119 0.24825 0.79398
 H1238 H 0.81347 0.29115 0.78300
 H1239 H 0.69253 0.20964 0.70212
 H1240 H 0.66971 0.24091 0.72919
 H1241 H 0.81624 0.19535 0.79163
 H1242 H 0.74111 0.21760 0.84026
 H1243 H 0.73579 0.27855 0.67203
 H1244 H 0.70906 0.30285 0.70090
 H1245 H 0.69860 0.19964 0.79256
 H1246 H 0.72013 0.17075 0.76327
 H1247 H 0.77683 0.32573 0.73412
 H1248 H 0.80322 0.29685 0.70375
 C1249 C 0.07445 1.00174 1.15263
 C1250 C 0.04939 1.01303 1.14915
 C1251 C 0.03827 1.01425 1.12391
 C1252 C 0.09733 1.00029 1.19935
 C1253 C 0.07752 0.99314 1.10559
 C1254 C 0.08855 0.99195 1.13083
 C1255 C 0.08626 1.00080 1.17835
 C1256 C 0.05217 1.00418 1.10184
 H1257 H 0.03844 1.02084 1.16592
 H1258 H 0.01871 1.02285 1.12175
 H1259 H 0.08876 0.98519 1.08909
 H1260 H 0.10809 0.98335 1.13336
 C1261 C 0.57467 0.50361 0.65332
 C1262 C 0.58879 0.49447 0.63126
 C1263 C 0.57761 0.49599 0.60610
 C1264 C 0.59801 0.50140 0.69983
 C1265 C 0.53815 0.51616 0.62499
 C1266 C 0.54942 0.51462 0.65017
 C1267 C 0.58667 0.50227 0.67897
 C1268 C 0.55208 0.50671 0.60267
 H1269 H 0.60846 0.48611 0.63351
 H1270 H 0.58890 0.48851 0.58941
 H1271 H 0.51845 0.52448 0.62307
 H1272 H 0.53844 0.52193 0.66715
 C1273 C 0.43058 -0.00193 0.65797
 C1274 C 0.45558 -0.01322 0.65383
 C1275 C 0.46643 -0.01402 0.62827
 C1276 C 0.40747 -0.00113 0.70500
 C1277 C 0.42714 0.00763 0.61098
 C1278 C 0.41638 0.00842 0.63652
 C1279 C 0.41885 -0.00154 0.68396
 C1280 C 0.45232 -0.00357 0.60653
 H1281 H 0.46665 -0.02142 0.67032
 H1282 H 0.48588 -0.02277 0.62559
 H1283 H 0.41575 0.01589 0.59476
 H1284 H 0.39691 0.01706 0.63955
 C1285 C -0.07225 0.49584 1.15522
 C1286 C -0.04693 0.48517 1.15142
 C1287 C -0.03619 0.48362 1.12586
 C1288 C -0.09519 0.49785 1.20223
 C1289 C -0.07626 0.50323 1.10794
 C1290 C -0.08691 0.50476 1.13347
 C1291 C -0.08386 0.49699 1.18120
 C1292 C -0.05073 0.49272 1.10382
 H1293 H -0.03553 0.47804 1.16816
 H1294 H -0.01646 0.47545 1.12342
 H1295 H -0.08798 0.51046 1.09148
 H1296 H -0.10663 0.51289 1.13626
 C1297 C -0.08081 0.50684 0.34850
 C1298 C -0.09394 0.49720 0.37109
 C1299 C -0.08202 0.49867 0.39596
 C1300 C -0.10157 0.50145 0.30084
 C1301 C -0.04397 0.52001 0.37582
 C1302 C -0.05595 0.51852 0.35098
 C1303 C -0.09237 0.50397 0.32266
 C1304 C -0.05670 0.50976 0.39860
 H1305 H -0.11320 0.48814 0.36943
 H1306 H -0.09243 0.49058 0.41301
 H1307 H -0.02450 0.52866 0.37705
 H1308 H -0.04560 0.52607 0.33363
 C1309 C 0.41924 1.00621 -0.15012
 C1310 C 0.40615 0.99581 -0.12784
 C1311 C 0.41790 0.99687 -0.10285
 C1312 C 0.39885 1.00162 -0.19805
 C1313 C 0.45569 1.01928 -0.12226
 C1314 C 0.44389 1.01821 -0.14720
 C1315 C 0.40789 1.00380 -0.17612
 C1316 C 0.44301 1.00831 -0.09979
 H1317 H 0.38705 0.98649 -0.12984
 H1318 H 0.40754 0.98821 -0.08605
 H1319 H 0.47500 1.02824 -0.12071
 H1320 H 0.45422 1.02634 -0.16430
 C1321 C 0.58005 0.49798 -0.15363
 C1322 C 0.59328 0.50773 -0.13157
 C1323 C 0.58116 0.50704 -0.10653
 C1324 C 0.60192 0.49998 -0.20145
 C1325 C 0.54255 0.48667 -0.12554
 C1326 C 0.55471 0.48738 -0.15052
 C1327 C 0.59221 0.49909 -0.17954
 C1328 C 0.55557 0.49658 -0.10321
 H1329 H 0.61291 0.51598 -0.13375
 H1330 H 0.59179 0.51483 -0.08982
 H1331 H 0.52288 0.47846 -0.12378
 H1332 H 0.54428 0.47978 -0.16746
 C1333 C 0.07775 -0.00356 0.34573
 C1334 C 0.09069 0.00664 0.36775
 C1335 C 0.07831 0.00632 0.39266
 C1336 C 0.10000 -0.00149 0.29810
 C1337 C 0.04005 -0.01468 0.37363
 C1338 C 0.05248 -0.01434 0.34876
 C1339 C 0.09008 -0.00248 0.31991
 C1340 C 0.05273 -0.00419 0.39588
 H1341 H 0.11026 0.01505 0.36562
 H1342 H 0.08868 0.01455 0.40931
 H1343 H 0.02040 -0.02296 0.37534
 H1344 H 0.04228 -0.02228 0.33185
 C1345 C 0.15366 1.07188 1.00256
 C1346 C 0.13181 1.08583 0.99275
 C1347 C 0.10666 1.07475 0.99416
 C1348 C 0.20006 1.09516 1.00078
 C1349 C 0.12515 1.03575 1.01556
 C1350 C 0.15032 1.04692 1.01412
 C1351 C 0.17925 1.08383 1.00143
 C1352 C 0.10304 1.04950 1.00544
 H1353 H 0.13422 1.10528 0.98396
 H1354 H 0.09012 1.08588 0.98616
 H1355 H 0.12307 1.01626 1.02433
 H1356 H 0.16714 1.03610 1.02197
 C1357 C 0.65365 0.57376 0.50290
 C1358 C 0.63193 0.58775 0.49286
 C1359 C 0.60669 0.57688 0.49439
 C1360 C 0.70025 0.59660 0.50103
 C1361 C 0.62486 0.53804 0.51637
 C1362 C 0.65011 0.54899 0.51482
 C1363 C 0.67934 0.58548 0.50170
 C1364 C 0.60287 0.55182 0.50602
 H1365 H 0.63452 0.60706 0.48381
 H1366 H 0.59025 0.58802 0.48619
 H1367 H 0.62263 0.51870 0.52542
 H1368 H 0.66684 0.53816 0.52285
 C1369 C 0.65735 0.42647 -0.00226
 C1370 C 0.65361 0.45160 -0.01340
 C1371 C 0.62825 0.46285 -0.01420
 C1372 C 0.70404 0.40265 -0.00155
 C1373 C 0.61034 0.42374 0.00722
 C1374 C 0.63568 0.41258 0.00801
 C1375 C 0.68315 0.41429 -0.00191
 C1376 C 0.60629 0.44902 -0.00389
 H1377 H 0.67025 0.46246 -0.02153
 H1378 H 0.62587 0.48235 -0.02289
 H1379 H 0.59397 0.41253 0.01537
 H1380 H 0.63836 0.39304 0.01656
 C1381 C 0.15421 -0.07074 0.49381
 C1382 C 0.14984 -0.04561 0.48294
 C1383 C 0.12417 -0.03519 0.48185
 C1384 C 0.20185 -0.09242 0.49596
 C1385 C 0.10711 -0.07524 0.50218
 C1386 C 0.13279 -0.08559 0.50325
 C1387 C 0.18048 -0.08175 0.49496
 C1388 C 0.10249 -0.04982 0.49163
 H1389 H 0.16627 -0.03403 0.47542
 H1390 H 0.12138 -0.01556 0.47360
 H1391 H 0.09096 -0.08704 0.50992
 H1392 H 0.13597 -0.10516 0.51156
 C1393 C 0.34868 -0.07562 0.50354
 C1394 C 0.35160 -0.05087 0.51522
 C1395 C 0.37663 -0.03936 0.51685
 C1396 C 0.30085 -0.09639 0.49930
 C1397 C 0.39612 -0.07749 0.49541
 C1398 C 0.37105 -0.08896 0.49381
 C1399 C 0.32270 -0.08707 0.50121
 C1400 C 0.39924 -0.05242 0.50678
 H1401 H 0.33447 -0.04033 0.52286
 H1402 H 0.37819 -0.02005 0.52570
 H1403 H 0.41300 -0.08814 0.48742
 H1404 H 0.36909 -0.10813 0.48475
 C1405 C -0.15274 0.41820 1.00278
 C1406 C -0.15022 0.44314 1.01418
 C1407 C -0.12549 0.45539 1.01509
 C1408 C -0.20019 0.39632 0.99964
 C1409 C -0.10550 0.41766 0.99339
 C1410 C -0.13026 0.40546 0.99251
 C1411 C -0.17845 0.40602 1.00111
 C1412 C -0.10279 0.44289 1.00454
 H1413 H -0.16745 0.45324 1.02219
 H1414 H -0.12422 0.47478 1.02381
 H1415 H -0.08854 0.40739 0.98508
 H1416 H -0.13190 0.38617 0.98361
 C1417 C -0.15352 0.57855 0.49686
 C1418 C -0.13164 0.59161 0.50715
 C1419 C -0.10665 0.57956 0.50663
 C1420 C -0.20126 0.60008 0.49921
 C1421 C -0.12537 0.54143 0.48524
 C1422 C -0.15030 0.55353 0.48578
 C1423 C -0.17940 0.59049 0.49811
 C1424 C -0.10325 0.55422 0.49583
 H1425 H -0.13394 0.61100 0.51578
 H1426 H -0.09009 0.58999 0.51494
 H1427 H -0.12350 0.52196 0.47673
 H1428 H -0.16712 0.54325 0.47775
 C1429 C 0.34614 1.07750 -0.00219
 C1430 C 0.36808 1.09042 0.00815
 C1431 C 0.39297 1.07814 0.00787
 C1432 C 0.29850 1.09939 -0.00033
 C1433 C 0.37405 1.04002 -0.01333
 C1434 C 0.34921 1.05235 -0.01303
 C1435 C 0.32034 1.08969 -0.00120
 C1436 C 0.39623 1.05269 -0.00272
 H1437 H 0.36592 1.10990 0.01661
 H1438 H 0.40958 1.08850 0.01618
 H1439 H 0.37579 1.02047 -0.02168
 H1440 H 0.33235 1.04216 -0.02108
 C1441 C 0.00234 1.15174 1.07250
 C1442 C -0.00651 1.12971 1.08684
 C1443 C -0.00479 1.10465 1.07578
 C1444 C -0.00002 1.19807 1.09566
 C1445 C 0.01503 1.12357 1.03601
 C1446 C 0.01328 1.14866 1.04716
 C1447 C 0.00087 1.17728 1.08441
 C1448 C 0.00586 1.10128 1.05016
 H1449 H -0.01480 1.13193 1.10658
 H1450 H -0.01205 1.08797 1.08723
 H1451 H 0.02328 1.12169 1.01623
 H1452 H 0.02038 1.16562 1.03603
 C1453 C 0.50318 0.65497 0.57227
 C1454 C 0.51449 0.65145 0.54716
 C1455 C 0.51588 0.62623 0.53624
 C1456 C 0.50177 0.70142 0.59526
 C1457 C 0.49493 0.60805 0.57577
 C1458 C 0.49355 0.63325 0.58659
 C1459 C 0.50223 0.68061 0.58403
 C1460 C 0.50600 0.60425 0.55039
 H1461 H 0.52220 0.66815 0.53604
 H1462 H 0.52449 0.62402 0.51665
 H1463 H 0.48710 0.59163 0.58720
 H1464 H 0.48497 0.63580 0.60617
 C1465 C -0.00742 0.65578 0.42715
 C1466 C 0.00153 0.63435 0.41218
 C1467 C 0.00086 0.60885 0.42287
 C1468 C -0.00566 0.70297 0.40472
 C1469 C -0.01812 0.62613 0.46353
 C1470 C -0.01742 0.65164 0.45275
 C1471 C -0.00654 0.68183 0.41577
 C1472 C -0.00880 0.60444 0.44876
 H1473 H 0.00917 0.63738 0.39225
 H1474 H 0.00820 0.59266 0.41095
 H1475 H -0.02567 0.62347 0.48352
 H1476 H -0.02454 0.66811 0.46442
 C1477 C 0.49270 1.15360 -0.07141
 C1478 C 0.50112 1.13200 -0.08642
 C1479 C 0.50023 1.10657 -0.07561
 C1480 C 0.49516 1.20068 -0.09390
 C1481 C 0.48205 1.12426 -0.03477
 C1482 C 0.48297 1.14971 -0.04566
 C1483 C 0.49395 1.17958 -0.08285
 C1484 C 0.49088 1.10241 -0.04957
 H1485 H 0.50854 1.13485 -0.10645
 H1486 H 0.50717 1.09024 -0.08756
 H1487 H 0.47475 1.12178 -0.01465
 H1488 H 0.47628 1.16634 -0.03396
 C1489 C 0.50440 0.34643 -0.07738
 C1490 C 0.51542 0.34907 -0.05219
 C1491 C 0.51701 0.37395 -0.04056
 C1492 C 0.49976 0.29899 -0.09829
 C1493 C 0.49690 0.39375 -0.07949
 C1494 C 0.49534 0.36884 -0.09107
 C1495 C 0.50191 0.32067 -0.08890
 C1496 C 0.50754 0.39660 -0.05396
 H1497 H 0.52252 0.33186 -0.04141
 H1498 H 0.52529 0.37536 -0.02090
 H1499 H 0.48941 0.41069 -0.09041
 H1500 H 0.48679 0.36705 -0.11059
 C1501 C 0.00404 -0.15098 0.42012
 C1502 C -0.00529 -0.12857 0.40658
 C1503 C -0.00371 -0.10366 0.41818
 C1504 C -0.00139 -0.19855 0.39958
 C1505 C 0.01716 -0.12337 0.45674
 C1506 C 0.01554 -0.14826 0.44508
 C1507 C 0.00114 -0.17682 0.40878
 C1508 C 0.00723 -0.10077 0.44358
 H1509 H -0.01420 -0.13040 0.38723
 H1510 H -0.01156 -0.08677 0.40744
 H1511 H 0.02567 -0.12195 0.47629
 H1512 H 0.02287 -0.16545 0.45575
 C1513 C 0.50073 -0.15237 0.57834
 C1514 C 0.51057 -0.13062 0.59190
 C1515 C 0.51002 -0.10551 0.58007
 C1516 C 0.50223 -0.20027 0.59972
 C1517 C 0.48964 -0.12387 0.54111
 C1518 C 0.49022 -0.14891 0.55297
 C1519 C 0.50160 -0.17833 0.59022
 C1520 C 0.49962 -0.10183 0.55446
 H1521 H 0.51875 -0.13308 0.61155
 H1522 H 0.51785 -0.08904 0.59094
 H1523 H 0.48148 -0.12183 0.52141
 H1524 H 0.48255 -0.16561 0.54229
 C1525 C -0.00189 0.34383 1.07649
 C1526 C -0.01241 0.34703 1.05109
 C1527 C -0.01294 0.37195 1.03896
 C1528 C -0.00037 0.29630 1.09859
 C1529 C 0.00750 0.39066 1.07772
 C1530 C 0.00800 0.36569 1.08981
 C1531 C -0.00104 0.31805 1.08871
 C1532 C -0.00292 0.39409 1.05209
 H1533 H -0.02012 0.33022 1.04061
 H1534 H -0.02111 0.37382 1.01925
 H1535 H 0.01537 0.40722 1.08843
 H1536 H 0.01620 0.36343 1.10948
 C1537 C 0.76557 0.32318 0.09493
 C1538 C 0.77731 0.29858 0.10010
 C1539 C 0.77677 0.28784 0.12582
 C1540 C 0.75944 0.34264 0.04632
 C1541 C 0.75326 0.32655 0.14153
 C1542 C 0.75388 0.33725 0.11582
 C1543 C 0.76341 0.33329 0.06811
 C1544 C 0.76430 0.30148 0.14682
 H1545 H 0.78628 0.28739 0.08415
 H1546 H 0.78552 0.26852 0.12907
 H1547 H 0.74352 0.33764 0.15710
 H1548 H 0.74457 0.35626 0.11209
 C1549 C 0.26334 0.82625 0.59567
 C1550 C 0.27511 0.80159 0.60031
 C1551 C 0.27503 0.79060 0.62589
 C1552 C 0.25757 0.84652 0.54747
 C1553 C 0.25181 0.82917 0.64242
 C1554 C 0.25196 0.84012 0.61684
 C1555 C 0.26118 0.83680 0.56910
 C1556 C 0.26303 0.80409 0.64723
 H1557 H 0.28386 0.79061 0.58410
 H1558 H 0.28389 0.77127 0.62879
 H1559 H 0.24243 0.84013 0.65829
 H1560 H 0.24266 0.85919 0.61347
 C1561 C 0.75709 0.68208 0.59581
 C1562 C 0.76673 0.66771 0.61753
 C1563 C 0.76415 0.67781 0.64307
 C1564 C 0.75442 0.65893 0.54947
 C1565 C 0.74233 0.71681 0.62515
 C1566 C 0.74493 0.70664 0.59963
 C1567 C 0.75675 0.67015 0.57018
 C1568 C 0.75174 0.70241 0.64720
 H1569 H 0.77577 0.64845 0.61479
 H1570 H 0.77176 0.66627 0.65955
 H1571 H 0.73281 0.73587 0.62757
 H1572 H 0.73699 0.71769 0.58296
 C1573 C 0.25517 0.18182 0.09536
 C1574 C 0.26466 0.16753 0.11720
 C1575 C 0.26181 0.17765 0.14272
 C1576 C 0.25324 0.15854 0.04898
 C1577 C 0.24000 0.21654 0.12457
 C1578 C 0.24286 0.20634 0.09907
 C1579 C 0.25522 0.16986 0.06970
 C1580 C 0.24930 0.20223 0.14673
 H1581 H 0.27381 0.14831 0.11457
 H1582 H 0.26935 0.16616 0.15927
 H1583 H 0.23040 0.23557 0.12690
 H1584 H 0.23503 0.21734 0.08232
 C1585 C 0.26189 0.18391 0.90797
 C1586 C 0.26597 0.21102 0.90428
 C1587 C 0.26542 0.22205 0.87868
 C1588 C 0.25538 0.16091 0.95470
 C1589 C 0.25704 0.17877 0.86062
 C1590 C 0.25779 0.16784 0.88605
 C1591 C 0.25937 0.17237 0.93402
 C1592 C 0.26044 0.20606 0.85662
 H1593 H 0.26893 0.22367 0.92115
 H1594 H 0.26809 0.24313 0.87623
 H1595 H 0.25344 0.16583 0.84410
 H1596 H 0.25446 0.14686 0.88869
 C1597 C 0.76304 0.68502 0.40866
 C1598 C 0.75984 0.66873 0.38675
 C1599 C 0.75912 0.67955 0.36128
 C1600 C 0.75599 0.66214 0.45530
 C1601 C 0.76584 0.72315 0.37931
 C1602 C 0.76635 0.71223 0.40495
 C1603 C 0.76023 0.67356 0.43468
 C1604 C 0.76166 0.70693 0.35727
 H1605 H 0.75710 0.64766 0.38942
 H1606 H 0.75616 0.66646 0.34474
 H1607 H 0.76784 0.74431 0.37682
 H1608 H 0.76861 0.72504 0.42183
 C1609 C 0.25983 0.81616 0.40640
 C1610 C 0.24499 0.79328 0.40267
 C1611 C 0.24226 0.78278 0.37726
 C1612 C 0.25723 0.84132 0.45209
 C1613 C 0.26944 0.81792 0.35918
 C1614 C 0.27216 0.82833 0.38459
 C1615 C 0.25956 0.82908 0.43178
 C1616 C 0.25419 0.79517 0.35511
 H1617 H 0.23497 0.78391 0.41930
 H1618 H 0.23046 0.76522 0.37494
 H1619 H 0.27902 0.82795 0.34269
 H1620 H 0.28333 0.84629 0.38710
 C1621 C 0.76030 0.31459 0.90813
 C1622 C 0.74627 0.29124 0.90409
 C1623 C 0.74365 0.28108 0.87851
 C1624 C 0.75755 0.33845 0.95468
 C1625 C 0.76932 0.31746 0.86076
 C1626 C 0.77191 0.32757 0.88636
 C1627 C 0.76001 0.32691 0.93391
 C1628 C 0.75491 0.29420 0.85642
 H1629 H 0.73681 0.28120 0.92066
 H1630 H 0.73251 0.26311 0.87603
 H1631 H 0.77835 0.32809 0.84434
 H1632 H 0.78245 0.34587 0.88907
 C1633 C 0.81491 0.40574 0.25745
 C1634 C 0.79153 0.40165 0.24341
 C1635 C 0.78176 0.37607 0.24033
 C1636 C 0.83829 0.45229 0.25592
 C1637 C 0.81875 0.35851 0.26533
 C1638 C 0.82845 0.38408 0.26840
 C1639 C 0.82679 0.43154 0.25779
 C1640 C 0.79535 0.35413 0.25110
 H1641 H 0.78112 0.41818 0.23440
 H1642 H 0.76364 0.37351 0.22937
 H1643 H 0.82969 0.34218 0.27404
 H1644 H 0.84681 0.38691 0.27889
 C1645 C 0.31592 0.90755 0.76103
 C1646 C 0.32872 0.88600 0.77303
 C1647 C 0.31877 0.86050 0.77024
 C1648 C 0.34021 0.95359 0.75856
 C1649 C 0.28284 0.87797 0.74366
 C1650 C 0.29287 0.90347 0.74646
 C1651 C 0.32833 0.93309 0.76080
 C1652 C 0.29585 0.85609 0.75526
 H1653 H 0.34681 0.88882 0.78399
 H1654 H 0.32926 0.84422 0.77957
 H1655 H 0.26512 0.87538 0.73207
 H1656 H 0.28302 0.91992 0.73669
 C1657 C 0.18448 0.90754 0.26204
 C1658 C 0.16810 0.88598 0.25746
 C1659 C 0.17866 0.86050 0.25670
 C1660 C 0.16227 0.95444 0.25556
 C1661 C 0.22218 0.87782 0.26596
 C1662 C 0.21153 0.90345 0.26654
 C1663 C 0.17338 0.93367 0.25960
 C1664 C 0.20589 0.85611 0.26056
 H1665 H 0.14718 0.88893 0.25378
 H1666 H 0.16549 0.84427 0.25274
 H1667 H 0.24321 0.87508 0.26901
 H1668 H 0.22443 0.92004 0.26988
 C1669 C 0.68473 0.40713 0.76240
 C1670 C 0.66841 0.38549 0.75797
 C1671 C 0.67900 0.36000 0.75759
 C1672 C 0.66263 0.45409 0.75556
 C1673 C 0.72243 0.37746 0.76695
 C1674 C 0.71174 0.40310 0.76715
 C1675 C 0.67363 0.43326 0.75968
 C1676 C 0.70621 0.35567 0.76168
 H1677 H 0.64751 0.38837 0.75413
 H1678 H 0.66587 0.34371 0.75371
 H1679 H 0.74345 0.37479 0.77014
 H1680 H 0.72461 0.41974 0.77040
 C1681 C 0.68505 0.59482 0.75626
 C1682 C 0.70924 0.59905 0.74327
 C1683 C 0.71929 0.62459 0.74074
 C1684 C 0.66186 0.54848 0.75362
 C1685 C 0.68096 0.64176 0.76431
 C1686 C 0.67097 0.61621 0.76682
 C1687 C 0.67312 0.56917 0.75593
 C1688 C 0.70516 0.64630 0.75106
 H1689 H 0.72007 0.58268 0.73462
 H1690 H 0.73803 0.62730 0.73053
 H1691 H 0.66962 0.65795 0.77262
 H1692 H 0.65200 0.61320 0.77653
 C1693 C 0.18232 0.09517 0.25662
 C1694 C 0.16817 0.11662 0.26694
 C1695 C 0.17813 0.14217 0.26425
 C1696 C 0.15938 0.04872 0.25408
 C1697 C 0.21657 0.12483 0.24097
 C1698 C 0.20655 0.09931 0.24369
 C1699 C 0.17047 0.06949 0.25639
 C1700 C 0.20238 0.14662 0.25105
 H1701 H 0.14916 0.11366 0.27658
 H1702 H 0.16674 0.15842 0.27238
 H1703 H 0.23535 0.12748 0.23081
 H1704 H 0.21744 0.08289 0.23522
 C1705 C 0.32358 0.09656 0.76435
 C1706 C 0.33786 0.11753 0.75311
 C1707 C 0.32696 0.14298 0.75235
 C1708 C 0.34407 0.04868 0.75934
 C1709 C 0.28759 0.12670 0.77469
 C1710 C 0.29853 0.10125 0.77537
 C1711 C 0.33415 0.07013 0.76268
 C1712 C 0.30151 0.14783 0.76282
 H1713 H 0.35724 0.11410 0.74438
 H1714 H 0.33826 0.15871 0.74311
 H1715 H 0.26797 0.12966 0.78299
 H1716 H 0.28724 0.08517 0.78399
 C1717 C 0.82289 0.59628 0.26299
 C1718 C 0.83710 0.61707 0.25129
 C1719 C 0.82669 0.64274 0.25121
 C1720 C 0.84213 0.54799 0.25696
 C1721 C 0.78803 0.62704 0.27519
 C1722 C 0.79848 0.60139 0.27520
 C1723 C 0.83282 0.56964 0.26071
 C1724 C 0.80181 0.64800 0.26281
 H1725 H 0.85599 0.61333 0.24167
 H1726 H 0.83784 0.65831 0.24153
 H1727 H 0.76885 0.63031 0.28436
 H1728 H 0.78725 0.58547 0.28422
 C1729 C 0.90594 0.26243 0.18174
 C1730 C 0.90220 0.26687 0.20888
 C1731 C 0.87661 0.26675 0.21984
 C1732 C 0.95284 0.25466 0.15954
 C1733 C 0.85856 0.25827 0.17641
 C1734 C 0.88403 0.25857 0.16553
 C1735 C 0.93203 0.25921 0.17049
 C1736 C 0.85456 0.26186 0.20377
 H1737 H 0.91905 0.26967 0.22165
 H1738 H 0.87419 0.26954 0.24098
 H1739 H 0.84204 0.25470 0.16342
 H1740 H 0.88668 0.25497 0.14453
 C1741 C 0.40931 0.76413 0.68350
 C1742 C 0.38743 0.76046 0.66721
 C1743 C 0.36198 0.75985 0.67806
 C1744 C 0.45602 0.75713 0.66075
 C1745 C 0.37997 0.76755 0.72168
 C1746 C 0.40557 0.76797 0.71073
 C1747 C 0.43535 0.76135 0.67207
 C1748 C 0.35795 0.76295 0.70548
 H1749 H 0.39010 0.75731 0.64613
 H1750 H 0.34549 0.75653 0.66497
 H1751 H 0.37750 0.76998 0.74286
 H1752 H 0.42241 0.77059 0.72356
 C1753 C 0.40609 0.26011 0.81502
 C1754 C 0.38459 0.27216 0.82785
 C1755 C 0.35902 0.26967 0.81780
 C1756 C 0.45201 0.25655 0.83958
 C1757 C 0.37639 0.24330 0.78172
 C1758 C 0.40194 0.24581 0.79185
 C1759 C 0.43160 0.25936 0.82760
 C1760 C 0.35454 0.25492 0.79477
 H1761 H 0.38746 0.28289 0.84605
 H1762 H 0.34275 0.27899 0.82831
 H1763 H 0.37374 0.23190 0.76392
 H1764 H 0.41836 0.23600 0.78199
 C1765 C 0.90673 0.76185 0.31483
 C1766 C 0.88515 0.77375 0.32769
 C1767 C 0.85956 0.77095 0.31776
 C1768 C 0.95280 0.75863 0.33919
 C1769 C 0.87702 0.74456 0.28175
 C1770 C 0.90260 0.74739 0.29175
 C1771 C 0.93230 0.76137 0.32733
 C1772 C 0.85510 0.75603 0.29483
 H1773 H 0.88799 0.78460 0.34583
 H1774 H 0.84325 0.78017 0.32830
 H1775 H 0.87440 0.73304 0.26402
 H1776 H 0.91906 0.73768 0.28187
 C1777 C 0.09452 0.76380 0.32382
 C1778 C 0.09955 0.77521 0.29895
 C1779 C 0.12520 0.77481 0.28830
 C1780 C 0.04614 0.75816 0.34336
 C1781 C 0.14104 0.75205 0.32764
 C1782 C 0.11538 0.75252 0.33825
 C1783 C 0.06785 0.76176 0.33394
 C1784 C 0.14622 0.76283 0.30234
 H1785 H 0.08356 0.78387 0.28754
 H1786 H 0.12841 0.78335 0.26878
 H1787 H 0.15667 0.74271 0.33901
 H1788 H 0.11168 0.74350 0.35748
 C1789 C 0.59576 0.26152 0.82537
 C1790 C 0.60065 0.27346 0.80073
 C1791 C 0.62627 0.27339 0.78999
 C1792 C 0.54744 0.25567 0.84500
 C1793 C 0.64234 0.24988 0.82880
 C1794 C 0.61671 0.25002 0.83950
 C1795 C 0.56914 0.25930 0.83558
 C1796 C 0.64738 0.26122 0.80371
 H1797 H 0.58459 0.28232 0.78956
 H1798 H 0.62937 0.28236 0.77065
 H1799 H 0.65804 0.24037 0.83992
 H1800 H 0.61312 0.24060 0.85856
 C1801 C 0.59682 0.75520 0.68242
 C1802 C 0.61850 0.76515 0.66820
 C1803 C 0.64403 0.76233 0.67827
 C1804 C 0.55035 0.75360 0.65922
 C1805 C 0.62625 0.73958 0.71694
 C1806 C 0.60073 0.74241 0.70679
 C1807 C 0.57112 0.75539 0.67052
 C1808 C 0.64825 0.74938 0.70271
 H1809 H 0.61571 0.77468 0.64908
 H1810 H 0.66045 0.77026 0.66685
 H1811 H 0.62873 0.72964 0.73588
 H1812 H 0.58411 0.73423 0.71774
 C1813 C 0.09416 0.25440 0.18198
 C1814 C 0.09822 0.24207 0.20656
 C1815 C 0.12377 0.23960 0.21670
 C1816 C 0.04759 0.25178 0.15902
 C1817 C 0.14133 0.26187 0.17764
 C1818 C 0.11574 0.26431 0.16757
 C1819 C 0.06841 0.25408 0.17014
 C1820 C 0.14568 0.24934 0.20227
 H1821 H 0.08169 0.23392 0.21766
 H1822 H 0.12635 0.22997 0.23577
 H1823 H 0.15767 0.26973 0.16608
 H1824 H 0.11285 0.27349 0.14830
 C1825 C -0.07083 1.00158 0.84479
 C1826 C -0.04627 0.98906 0.84795
 C1827 C -0.03526 0.98650 0.87320
 C1828 C -0.09485 1.00387 0.79868
 C1829 C -0.07356 1.00882 0.89205
 C1830 C -0.08445 1.01137 0.86686
 C1831 C -0.08307 1.00316 0.81929
 C1832 C -0.04881 0.99637 0.89555
 H1833 H -0.03573 0.98118 0.83096
 H1834 H -0.01615 0.97689 0.87518
 H1835 H -0.08453 1.01672 0.90875
 H1836 H -0.10361 1.02085 0.86462
 C1837 C 0.42893 0.50191 0.34550
 C1838 C 0.45347 0.48947 0.34903
 C1839 C 0.46444 0.48760 0.37433
 C1840 C 0.40535 0.50303 0.29912
 C1841 C 0.42618 0.51050 0.39255
 C1842 C 0.41531 0.51236 0.36727
 C1843 C 0.41683 0.50282 0.31990
 C1844 C 0.45089 0.49810 0.39640
 H1845 H 0.46403 0.48110 0.33229
 H1846 H 0.48352 0.47799 0.37657
 H1847 H 0.41523 0.51887 0.40902
 H1848 H 0.39618 0.52181 0.36474
 C1849 C 0.57272 0.00663 0.34591
 C1850 C 0.54709 0.01661 0.34960
 C1851 C 0.53620 0.01796 0.37513
 C1852 C 0.59540 0.00392 0.29875
 C1853 C 0.57680 -0.00028 0.39325
 C1854 C 0.58760 -0.00160 0.36776
 C1855 C 0.58427 0.00514 0.31988
 C1856 C 0.55089 0.00934 0.39724
 H1857 H 0.53550 0.02319 0.33278
 H1858 H 0.51619 0.02543 0.37748
 H1859 H 0.58867 -0.00709 0.40977
 H1860 H 0.60754 -0.00919 0.36508
 C1861 C 0.07066 0.50466 0.84386
 C1862 C 0.04498 0.51454 0.84738
 C1863 C 0.03377 0.51545 0.87279
 C1864 C 0.09401 0.50274 0.79701
 C1865 C 0.07416 0.49693 0.89112
 C1866 C 0.08527 0.49605 0.86575
 C1867 C 0.08256 0.50363 0.81798
 C1868 C 0.04820 0.50647 0.89494
 H1869 H 0.03360 0.52141 0.83053
 H1870 H 0.01373 0.52288 0.87502
 H1871 H 0.08584 0.48986 0.90766
 H1872 H 0.10526 0.48853 0.86319
 C1873 C 0.07801 0.49680 0.65095
 C1874 C 0.05281 0.48580 0.64857
 C1875 C 0.04077 0.48448 0.62375
 C1876 C 0.09947 0.50088 0.69841
 C1877 C 0.07931 0.50482 0.60348
 C1878 C 0.09129 0.50612 0.62832
 C1879 C 0.08992 0.49901 0.67668
 C1880 C 0.05378 0.49418 0.60089
 H1881 H 0.04233 0.47852 0.66595
 H1882 H 0.02113 0.47619 0.62255
 H1883 H 0.08994 0.51248 0.58637
 H1884 H 0.11080 0.51465 0.62991
 C1885 C 0.57730 0.99605 0.15282
 C1886 C 0.55190 0.98543 0.15072
 C1887 C 0.53981 0.98368 0.12593
 C1888 C 0.59916 1.00103 0.20004
 C1889 C 0.57871 1.00283 0.10517
 C1890 C 0.59074 1.00454 0.12996
 C1891 C 0.58935 0.99874 0.17846
 C1892 C 0.55298 0.99260 0.10284
 H1893 H 0.54131 0.97878 0.16828
 H1894 H 0.52001 0.97575 0.12493
 H1895 H 0.58949 1.00987 0.08788
 H1896 H 0.61040 1.01276 0.13131
 C1897 C 0.42291 0.50315 0.15280
 C1898 C 0.41008 0.49260 0.13089
 C1899 C 0.42247 0.49281 0.10597
 C1900 C 0.40086 0.50141 0.20055
 C1901 C 0.46050 0.51440 0.12478
 C1902 C 0.44807 0.51417 0.14965
 C1903 C 0.41062 0.50221 0.17866
 C1904 C 0.44794 0.50355 0.10264
 H1905 H 0.39061 0.48401 0.13310
 H1906 H 0.41218 0.48430 0.08941
 H1907 H 0.48006 0.52287 0.12298
 H1908 H 0.45819 0.52239 0.16648
 C1909 C -0.07903 0.00236 0.65237
 C1910 C -0.09231 -0.00772 0.63050
 C1911 C -0.08007 -0.00776 0.60550
 C1912 C -0.10093 0.00204 0.70020
 C1913 C -0.04121 0.01244 0.62423
 C1914 C -0.05350 0.01246 0.64916
 C1915 C -0.09132 0.00213 0.67824
 C1916 C -0.05432 0.00228 0.60207
 H1917 H -0.11208 -0.01561 0.63277
 H1918 H -0.09076 -0.01571 0.58892
 H1919 H -0.02143 0.02035 0.62237
 H1920 H -0.04302 0.02029 0.66596
 C1921 C -0.15486 0.92921 1.00213
 C1922 C -0.15132 0.95378 0.98977
 C1923 C -0.12597 0.96442 0.98745
 C1924 C -0.20124 0.90598 1.00356
 C1925 C -0.10777 0.92575 1.00971
 C1926 C -0.13309 0.91522 1.01203
 C1927 C -0.18048 0.91736 1.00328
 C1928 C -0.10390 0.95049 0.99739
 H1929 H -0.16809 0.96459 0.98180
 H1930 H -0.12369 0.98353 0.97792
 H1931 H -0.09128 0.91453 1.01767
 H1932 H -0.13567 0.89604 1.02138
 C1933 C 0.34514 0.43084 0.50189
 C1934 C 0.34852 0.45551 0.48970
 C1935 C 0.37375 0.46653 0.48781
 C1936 C 0.29902 0.40703 0.50287
 C1937 C 0.39214 0.42803 0.51020
 C1938 C 0.36695 0.41713 0.51210
 C1939 C 0.31966 0.41864 0.50273
 C1940 C 0.39586 0.45286 0.49802
 H1941 H 0.33173 0.46613 0.48153
 H1942 H 0.37592 0.48569 0.47837
 H1943 H 0.40866 0.41699 0.51836
 H1944 H 0.36450 0.39789 0.52135
 C1945 C 0.34516 0.56816 0.00345
 C1946 C 0.36675 0.58287 -0.00576
 C1947 C 0.39233 0.57236 -0.00446
 C1948 C 0.29784 0.59054 0.00138
 C1949 C 0.37486 0.53236 0.01560
 C1950 C 0.34925 0.54296 0.01428
 C1951 C 0.31903 0.57952 0.00228
 C1952 C 0.39671 0.54689 0.00610
 H1953 H 0.36379 0.60250 -0.01401
 H1954 H 0.40862 0.58409 -0.01199
 H1955 H 0.37748 0.51269 0.02383
 H1956 H 0.33268 0.53149 0.02164
 C1957 C -0.15796 0.07060 0.50180
 C1958 C -0.13633 0.08453 0.49152
 C1959 C -0.11098 0.07345 0.49232
 C1960 C -0.20447 0.09469 0.50120
 C1961 C -0.12877 0.03430 0.51380
 C1962 C -0.15417 0.04549 0.51299
 C1963 C -0.18371 0.08283 0.50150
 C1964 C -0.10686 0.04818 0.50347
 H1965 H -0.13904 0.10406 0.48295
 H1966 H -0.09465 0.08469 0.48413
 H1967 H -0.12633 0.01481 0.52250
 H1968 H -0.17078 0.03463 0.52116
 C1969 C 0.65236 0.08145 0.49458
 C1970 C 0.62967 0.09476 0.50353
 C1971 C 0.60490 0.08261 0.50255
 C1972 C 0.69995 0.10277 0.49907
 C1973 C 0.62527 0.04383 0.48315
 C1974 C 0.65002 0.05605 0.48416
 C1975 C 0.67814 0.09338 0.49691
 C1976 C 0.60239 0.05683 0.49263
 H1977 H 0.63116 0.11441 0.51164
 H1978 H 0.58779 0.09326 0.51002
 H1979 H 0.62416 0.02402 0.47542
 H1980 H 0.66742 0.04550 0.47717
 C1981 C 0.15111 0.57499 0.99432
 C1982 C 0.12876 0.58837 1.00402
 C1983 C 0.10373 0.57679 1.00273
 C1984 C 0.19896 0.59568 0.99863
 C1985 C 0.12319 0.53849 0.98154
 C1986 C 0.14819 0.55013 0.98286
 C1987 C 0.17709 0.58643 0.99664
 C1988 C 0.10064 0.55155 0.99172
 H1989 H 0.13072 0.60763 1.01291
 H1990 H 0.08688 0.58745 1.01077
 H1991 H 0.12163 0.51907 0.97296
 H1992 H 0.16531 0.53956 0.97525
 C1993 C 0.15331 0.42435 0.49966
 C1994 C 0.15027 0.44983 0.50972
 C1995 C 0.12538 0.46203 0.51001
 C1996 C 0.20088 0.40229 0.49910
 C1997 C 0.10640 0.42320 0.49017
 C1998 C 0.13134 0.41105 0.48991
 C1999 C 0.17906 0.41205 0.49927
 C2000 C 0.10311 0.44888 0.50020
 H2001 H 0.16717 0.46031 0.51731
 H2002 H 0.12362 0.48177 0.51790
 H2003 H 0.08972 0.41247 0.48248
 H2004 H 0.13349 0.39131 0.48207
 C2005 C 0.65286 0.92302 0.00074
 C2006 C 0.64970 0.94839 0.01102
 C2007 C 0.62472 0.96039 0.01159
 C2008 C 0.70057 0.90131 -0.00030
 C2009 C 0.60588 0.92155 -0.00837
 C2010 C 0.63092 0.90960 -0.00892
 C2011 C 0.67870 0.91093 0.00006
 C2012 C 0.60249 0.94713 0.00185
 H2013 H 0.66658 0.95895 0.01856
 H2014 H 0.62288 0.98006 0.01962
 H2015 H 0.58923 0.91076 -0.01602
 H2016 H 0.63317 0.88993 -0.01691
 C2017 C 0.00334 0.84374 0.93067
 C2018 C 0.01251 0.86554 0.91618
 C2019 C 0.01006 0.89086 0.92656
 C2020 C 0.00497 0.79733 0.90758
 C2021 C -0.01087 0.87264 0.96607
 C2022 C -0.00842 0.84729 0.95559
 C2023 C 0.00460 0.81808 0.91897
 C2024 C -0.00166 0.89474 0.95164
 H2025 H 0.02138 0.86299 0.89674
 H2026 H 0.01744 0.90737 0.91493
 H2027 H -0.01992 0.87489 0.98545
 H2028 H -0.01584 0.83052 0.96682
 C2029 C 0.50137 0.34669 0.43087
 C2030 C 0.48996 0.35010 0.45597
 C2031 C 0.48801 0.37534 0.46677
 C2032 C 0.50241 0.30049 0.40742
 C2033 C 0.50876 0.39370 0.42722
 C2034 C 0.51072 0.36850 0.41653
 C2035 C 0.50225 0.32116 0.41891
 C2036 C 0.49737 0.39745 0.45247
 H2037 H 0.48244 0.33330 0.46709
 H2038 H 0.47918 0.37752 0.48627
 H2039 H 0.51624 0.41022 0.41567
 H2040 H 0.51936 0.36604 0.39697
 C2041 C 0.00175 0.34447 0.56843
 C2042 C -0.00769 0.36597 0.58296
 C2043 C -0.00625 0.39143 0.57232
 C2044 C 0.00006 0.29757 0.59142
 C2045 C 0.01429 0.37396 0.53249
 C2046 C 0.01284 0.34846 0.54323
 C2047 C 0.00076 0.31856 0.58009
 C2048 C 0.00471 0.39575 0.54692
 H2049 H -0.01614 0.36305 0.60258
 H2050 H -0.01387 0.40768 0.58397
 H2051 H 0.02281 0.37657 0.51287
 H2052 H 0.02037 0.33191 0.53193
 C2053 C 0.50125 0.84229 0.06986
 C2054 C 0.49150 0.86367 0.08440
 C2055 C 0.49285 0.88920 0.07389
 C2056 C 0.49982 0.79528 0.09267
 C2057 C 0.51389 0.87205 0.03418
 C2058 C 0.51253 0.84649 0.04478
 C2059 C 0.50040 0.81631 0.08140
 C2060 C 0.50402 0.89372 0.04862
 H2061 H 0.48290 0.86059 0.10393
 H2062 H 0.48501 0.90536 0.08554
 H2063 H 0.52257 0.87481 0.01465
 H2064 H 0.52030 0.83006 0.03347
 C2065 C 0.49400 0.64935 0.07776
 C2066 C 0.48353 0.64669 0.05233
 C2067 C 0.48239 0.62183 0.04055
 C2068 C 0.49839 0.69692 0.09854
 C2069 C 0.50171 0.60205 0.07990
 C2070 C 0.50281 0.62693 0.09161
 C2071 C 0.49635 0.67516 0.08928
 C2072 C 0.49178 0.59921 0.05406
 H2073 H 0.47662 0.66390 0.04141
 H2074 H 0.47466 0.62045 0.02067
 H2075 H 0.50910 0.58513 0.09092
 H2076 H 0.51092 0.62872 0.11131
 C2077 C -0.00542 0.15198 0.57532
 C2078 C -0.01612 0.14947 0.54998
 C2079 C -0.01753 0.12465 0.53816
 C2080 C -0.00122 0.19932 0.59657
 C2081 C 0.00215 0.10468 0.57722
 C2082 C 0.00353 0.12950 0.58898
 C2083 C -0.00314 0.17767 0.58707
 C2084 C -0.00820 0.10195 0.55155
 H2085 H -0.02312 0.16674 0.53922
 H2086 H -0.02558 0.12334 0.51840
 H2087 H 0.00952 0.08768 0.58815
 H2088 H 0.01183 0.13119 0.60861
 C2089 C 0.50479 0.15475 0.42445
 C2090 C 0.49491 0.13279 0.41129
 C2091 C 0.49557 0.10788 0.42348
 C2092 C 0.50191 0.20240 0.40266
 C2093 C 0.51632 0.12676 0.46198
 C2094 C 0.51563 0.15164 0.44973
 C2095 C 0.50326 0.18057 0.41233
 C2096 C 0.50610 0.10458 0.44909
 H2097 H 0.48647 0.13496 0.39171
 H2098 H 0.48755 0.09128 0.41293
 H2099 H 0.52459 0.12498 0.48166
 H2100 H 0.52334 0.16852 0.46010
 C2101 C 0.00413 0.65101 0.92252
 C2102 C 0.01495 0.64727 0.94772
 C2103 C 0.01516 0.62220 0.95956
 C2104 C 0.00254 0.69914 0.90163
 C2105 C -0.00602 0.60432 0.92081
 C2106 C -0.00621 0.62946 0.90902
 C2107 C 0.00324 0.67708 0.91087
 C2108 C 0.00450 0.60042 0.94634
 H2109 H 0.02302 0.66381 0.95836
 H2110 H 0.02345 0.61998 0.97919
 H2111 H -0.01438 0.58804 0.91004
 H2112 H -0.01463 0.63212 0.88949
 C2113 C 0.23624 0.67428 0.90345
 C2114 C 0.22497 0.69926 0.89918
 C2115 C 0.22514 0.71058 0.87373
 C2116 C 0.24234 0.65323 0.95130
 C2117 C 0.24733 0.67170 0.85658
 C2118 C 0.24708 0.66042 0.88200
 C2119 C 0.23855 0.66336 0.92987
 C2120 C 0.23675 0.69712 0.85216
 H2121 H 0.21663 0.71024 0.91560
 H2122 H 0.21678 0.73017 0.87111
 H2123 H 0.25638 0.66073 0.84053
 H2124 H 0.25596 0.64110 0.88506
 C2125 C 0.73546 0.17645 0.40581
 C2126 C 0.72435 0.20138 0.40080
 C2127 C 0.72468 0.21202 0.37503
 C2128 C 0.74141 0.15653 0.45424
 C2129 C 0.74683 0.17265 0.35903
 C2130 C 0.74643 0.16205 0.38478
 C2131 C 0.73756 0.16617 0.43256
 C2132 C 0.73627 0.19795 0.35385
 H2133 H 0.71595 0.21282 0.41686
 H2134 H 0.71634 0.23154 0.37185
 H2135 H 0.75589 0.16122 0.34331
 H2136 H 0.75524 0.14279 0.38839
 C2137 C 0.24835 0.31952 0.40629
 C2138 C 0.26106 0.29519 0.40258
 C2139 C 0.26385 0.28489 0.37709
 C2140 C 0.24889 0.34269 0.45281
 C2141 C 0.24138 0.32343 0.35898
 C2142 C 0.23860 0.33363 0.38446
 C2143 C 0.24770 0.33138 0.43201
 C2144 C 0.25406 0.29893 0.35497
 H2145 H 0.26909 0.28434 0.41933
 H2146 H 0.27360 0.26594 0.37476
 H2147 H 0.23348 0.33472 0.34247
 H2148 H 0.22913 0.35270 0.38709
 C2149 C 0.74906 0.81848 0.90704
 C2150 C 0.76209 0.79431 0.90336
 C2151 C 0.76537 0.78423 0.87784
 C2152 C 0.74891 0.84156 0.95356
 C2153 C 0.74277 0.82268 0.85968
 C2154 C 0.73950 0.83265 0.88518
 C2155 C 0.74800 0.83023 0.93278
 C2156 C 0.75576 0.79834 0.85569
 H2157 H 0.77000 0.78344 0.92016
 H2158 H 0.77534 0.76539 0.87551
 H2159 H 0.73499 0.83401 0.84314
 H2160 H 0.72980 0.85161 0.88781
 C2161 C 0.73186 0.81705 0.09342
 C2162 C 0.73030 0.78960 0.09659
 C2163 C 0.73055 0.77830 0.12207
 C2164 C 0.74099 0.84058 0.04742
 C2165 C 0.73322 0.82197 0.14105
 C2166 C 0.73274 0.83317 0.11571
 C2167 C 0.73580 0.82897 0.06773
 C2168 C 0.73277 0.79440 0.14450
 H2169 H 0.72987 0.77694 0.07943
 H2170 H 0.73022 0.75701 0.12414
 H2171 H 0.73464 0.83492 0.15792
 H2172 H 0.73412 0.85442 0.11348
 C2173 C 0.23278 0.31770 0.59289
 C2174 C 0.23072 0.29027 0.59598
 C2175 C 0.23085 0.27886 0.62143
 C2176 C 0.24162 0.34135 0.54685
 C2177 C 0.23445 0.32239 0.64055
 C2178 C 0.23410 0.33369 0.61525
 C2179 C 0.23658 0.32969 0.56718
 C2180 C 0.23344 0.29482 0.64393
 H2181 H 0.22993 0.27769 0.57878
 H2182 H 0.23009 0.25758 0.62343
 H2183 H 0.23618 0.33525 0.65746
 H2184 H 0.23585 0.35492 0.61309
 C2185 C 0.74159 0.18299 0.59246
 C2186 C 0.73032 0.16981 0.61427
 C2187 C 0.73311 0.17978 0.63988
 C2188 C 0.74336 0.15936 0.54577
 C2189 C 0.75843 0.21639 0.62212
 C2190 C 0.75564 0.20634 0.59650
 C2191 C 0.74140 0.17089 0.56659
 C2192 C 0.74736 0.20314 0.64422
 H2193 H 0.71979 0.15150 0.61156
 H2194 H 0.72419 0.16906 0.65631
 H2195 H 0.76943 0.23444 0.62461
 H2196 H 0.76487 0.21653 0.57989
 C2197 C 0.24170 0.68133 0.09282
 C2198 C 0.22982 0.66871 0.11462
 C2199 C 0.23236 0.67904 0.14007
 C2200 C 0.24372 0.65680 0.04673
 C2201 C 0.25863 0.71493 0.12211
 C2202 C 0.25608 0.70450 0.09665
 C2203 C 0.24173 0.66877 0.06725
 C2204 C 0.24696 0.70221 0.14422
 H2205 H 0.21901 0.65053 0.11202
 H2206 H 0.22298 0.66875 0.15651
 H2207 H 0.26991 0.73282 0.12450
 H2208 H 0.26576 0.71423 0.08002
 C2209 C 0.18589 0.59317 0.74164
 C2210 C 0.17296 0.61477 0.72991
 C2211 C 0.18292 0.64024 0.73274
 C2212 C 0.16153 0.54716 0.74351
 C2213 C 0.21907 0.62269 0.75898
 C2214 C 0.20900 0.59719 0.75615
 C2215 C 0.17352 0.56761 0.74157
 C2216 C 0.20601 0.64459 0.74749
 H2217 H 0.15481 0.61200 0.71903
 H2218 H 0.17240 0.65654 0.72348
 H2219 H 0.23692 0.62525 0.77036
 H2220 H 0.21893 0.58069 0.76574
 C2221 C 0.68516 0.09116 0.23991
 C2222 C 0.70865 0.09522 0.25379
 C2223 C 0.71859 0.12077 0.25666
 C2224 C 0.66094 0.04509 0.24293
 C2225 C 0.68165 0.13832 0.23157
 C2226 C 0.67181 0.11279 0.22870
 C2227 C 0.67280 0.06557 0.24030
 C2228 C 0.70503 0.14271 0.24585
 H2229 H 0.71892 0.07871 0.26300
 H2230 H 0.73666 0.12334 0.26768
 H2231 H 0.67072 0.15464 0.22283
 H2232 H 0.65337 0.11001 0.21832
 C2233 C 0.81665 0.09243 0.73403
 C2234 C 0.83282 0.11457 0.73615
 C2235 C 0.82171 0.13985 0.73660
 C2236 C 0.83971 0.04612 0.74242
 C2237 C 0.77803 0.12118 0.73160
 C2238 C 0.78925 0.09576 0.73135
 C2239 C 0.82837 0.06662 0.73755
 C2240 C 0.79413 0.14346 0.73489
 H2241 H 0.85403 0.11225 0.73839
 H2242 H 0.83471 0.15656 0.73890
 H2243 H 0.75674 0.12332 0.73029
 H2244 H 0.77650 0.07875 0.72994
 C2245 C 0.31525 0.59247 0.23399
 C2246 C 0.33139 0.61469 0.23542
 C2247 C 0.32020 0.63992 0.23592
 C2248 C 0.33893 0.54652 0.24226
 C2249 C 0.27645 0.62102 0.23232
 C2250 C 0.28776 0.59565 0.23204
 C2251 C 0.32720 0.56680 0.23748
 C2252 C 0.29257 0.64338 0.23495
 H2253 H 0.35267 0.61248 0.23709
 H2254 H 0.33319 0.65670 0.23767
 H2255 H 0.25512 0.62308 0.23158
 H2256 H 0.27505 0.57856 0.23117
 C2257 C 0.31887 0.40610 0.24769
 C2258 C 0.33321 0.38441 0.23819
 C2259 C 0.32314 0.35895 0.24117
 C2260 C 0.34183 0.45268 0.24806
 C2261 C 0.28426 0.37677 0.26332
 C2262 C 0.29443 0.40224 0.26033
 C2263 C 0.33062 0.43185 0.24690
 C2264 C 0.29854 0.35479 0.25380
 H2265 H 0.35237 0.38714 0.22877
 H2266 H 0.33462 0.34255 0.23347
 H2267 H 0.26522 0.37433 0.27301
 H2268 H 0.28338 0.41888 0.26817
 C2269 C 0.81914 0.90683 0.74779
 C2270 C 0.79493 0.90255 0.76071
 C2271 C 0.78532 0.87689 0.76394
 C2272 C 0.84117 0.95387 0.74802
 C2273 C 0.82432 0.85971 0.74150
 C2274 C 0.83384 0.88537 0.73828
 C2275 C 0.83036 0.93282 0.74685
 C2276 C 0.79993 0.85514 0.75439
 H2277 H 0.78362 0.91900 0.76858
 H2278 H 0.76642 0.87414 0.77383
 H2279 H 0.83603 0.84349 0.73376
 H2280 H 0.85285 0.88843 0.72867
 C2281 C 0.67502 0.90405 0.23494
 C2282 C 0.66078 0.88291 0.24590
 C2283 C 0.67154 0.85739 0.24592
 C2284 C 0.65544 0.95211 0.24189
 C2285 C 0.71059 0.87386 0.22317
 C2286 C 0.69979 0.89939 0.22323
 C2287 C 0.66484 0.93056 0.23771
 C2288 C 0.69681 0.85260 0.23499
 H2289 H 0.64162 0.88628 0.25513
 H2290 H 0.66035 0.84158 0.25515
 H2291 H 0.73007 0.87094 0.21452
 H2292 H 0.71105 0.91558 0.21478
 C2293 C 0.17533 0.40408 0.73427
 C2294 C 0.16095 0.38296 0.74505
 C2295 C 0.17166 0.35743 0.74514
 C2296 C 0.15564 0.45210 0.74107
 C2297 C 0.21097 0.37386 0.72281
 C2298 C 0.20021 0.39941 0.72282
 C2299 C 0.16514 0.43058 0.73695
 C2300 C 0.19702 0.35261 0.73445
 H2301 H 0.14170 0.38636 0.75408
 H2302 H 0.16034 0.34162 0.75421
 H2303 H 0.23052 0.37092 0.71436
 H2304 H 0.21159 0.41560 0.71451
 C2305 C 0.09485 0.73296 0.81732
 C2306 C 0.11711 0.73458 0.83347
 C2307 C 0.14241 0.73512 0.82224
 C2308 C 0.04871 0.74123 0.84086
 C2309 C 0.12349 0.73116 0.77848
 C2310 C 0.09805 0.73083 0.78981
 C2311 C 0.06909 0.73646 0.82923
 C2312 C 0.14589 0.73400 0.79458
 H2313 H 0.11488 0.73639 0.85477
 H2314 H 0.15923 0.73706 0.83523
 H2315 H 0.12555 0.73031 0.75712
 H2316 H 0.08093 0.72980 0.77710
 C2317 C 0.59126 0.23656 0.31616
 C2318 C 0.61349 0.23906 0.33220
 C2319 C 0.63878 0.23917 0.32099
 C2320 C 0.54526 0.24463 0.34000
 C2321 C 0.61994 0.23319 0.27744
 C2322 C 0.59448 0.23330 0.28877
 C2323 C 0.56553 0.23998 0.32811
 C2324 C 0.64232 0.23672 0.29343
 H2325 H 0.61125 0.24172 0.35340
 H2326 H 0.65557 0.24163 0.33392
 H2327 H 0.62207 0.23129 0.25616
 H2328 H 0.57737 0.23157 0.27614
 C2329 C 0.59175 0.74162 0.18445
 C2330 C 0.61348 0.72987 0.17174
 C2331 C 0.63896 0.73294 0.18174
 C2332 C 0.54568 0.74269 0.15996
 C2333 C 0.62119 0.75946 0.21751
 C2334 C 0.59567 0.75640 0.20739
 C2335 C 0.56616 0.74115 0.17203
 C2336 C 0.64322 0.74793 0.20467
 H2337 H 0.61079 0.71877 0.15372
 H2338 H 0.65535 0.72363 0.17138
 H2339 H 0.62368 0.77102 0.23524
 H2340 H 0.57907 0.76599 0.21715
 C2341 C 0.09172 0.24288 0.68302
 C2342 C 0.11341 0.23111 0.67027
 C2343 C 0.13888 0.23389 0.68040
 C2344 C 0.04570 0.24447 0.65847
 C2345 C 0.12115 0.26018 0.71637
 C2346 C 0.09565 0.25740 0.70612
 C2347 C 0.06617 0.24270 0.67053
 C2348 C 0.14314 0.24862 0.70350
 H2349 H 0.11071 0.22021 0.65213
 H2350 H 0.15524 0.22458 0.67001
 H2351 H 0.12365 0.27155 0.73422
 H2352 H 0.07908 0.26701 0.71592
 C2353 C 0.90302 0.23388 0.67466
 C2354 C 0.88149 0.24391 0.66035
 C2355 C 0.85609 0.24390 0.67153
 C2356 C 0.95070 0.24112 0.65395
 C2357 C 0.87346 0.22294 0.71119
 C2358 C 0.89890 0.22305 0.69997
 C2359 C 0.92937 0.23679 0.66393
 C2360 C 0.85181 0.23386 0.69730
 H2361 H 0.88447 0.25245 0.64077
 H2362 H 0.83995 0.25240 0.66023
 H2363 H 0.87094 0.21501 0.73106
 H2364 H 0.91542 0.21534 0.71129
 C2365 C 0.40261 0.73220 0.17558
 C2366 C 0.38134 0.74237 0.16099
 C2367 C 0.35581 0.74262 0.17187
 C2368 C 0.45055 0.73915 0.15541
 C2369 C 0.37256 0.72163 0.21180
 C2370 C 0.39811 0.72148 0.20086
 C2371 C 0.42911 0.73492 0.16517
 C2372 C 0.35116 0.73271 0.19764
 H2373 H 0.38461 0.75083 0.14142
 H2374 H 0.33988 0.75124 0.16037
 H2375 H 0.36974 0.71378 0.23166
 H2376 H 0.41443 0.71366 0.21240
 C2377 C 0.40491 0.24937 0.32098
 C2378 C 0.40135 0.26129 0.29611
 C2379 C 0.37591 0.26417 0.28570
 C2380 C 0.45147 0.24965 0.34419
 C2381 C 0.35755 0.24342 0.32522
 C2382 C 0.38297 0.24055 0.33553
 C2383 C 0.43064 0.24856 0.33286
 C2384 C 0.35368 0.25526 0.30016
 H2385 H 0.41819 0.26861 0.28489
 H2386 H 0.37369 0.27323 0.26631
 H2387 H 0.34096 0.23622 0.33687
 H2388 H 0.38548 0.23171 0.35501
 C2389 C 0.90766 0.74831 0.82051
 C2390 C 0.90391 0.76066 0.79587
 C2391 C 0.87837 0.76394 0.78584
 C2392 C 0.95451 0.74784 0.84316
 C2393 C 0.86027 0.74281 0.82528
 C2394 C 0.88580 0.73953 0.83522
 C2395 C 0.93355 0.74706 0.83204
 C2396 C 0.85622 0.75503 0.80043
 H2397 H 0.92068 0.76796 0.78455
 H2398 H 0.87601 0.77330 0.76659
 H2399 H 0.84375 0.73559 0.83701
 H2400 H 0.88847 0.73038 0.85453
   
