data_POSCAR
  _audit_creation_date              2014-09-24
  _audit_creation_method            'ToBaCCo'
  _symmetry_space_group_name_H-M    'P1'
  _symmetry_Int_Tables_number       1
  _symmetry_cell_setting            triclinic
  loop_
  _symmetry_equiv_pos_as_xyz
 x,y,z
_cell_length_a 48.5632
_cell_length_b 52.5229
_cell_length_c 50.8743
_cell_angle_alpha 90.486300
_cell_angle_beta 88.966100
_cell_angle_gamma 89.207400
loop_
  _atom_site_label
  _atom_site_type_symbol
  _atom_site_fract_x
  _atom_site_fract_y
  _atom_site_fract_z
C1 C 1.20947 0.25542 0.28458
 H2 H 1.20755 0.23492 0.28428
 C3 C 1.19186 0.27028 0.30064
 H4 H 1.17624 0.26107 0.31249
 C5 C 1.23183 0.29229 0.26899
 H6 H 1.24771 0.30083 0.25702
 C7 C 1.21466 0.30785 0.28469
 H8 H 1.21753 0.32826 0.28452
 N9 N 1.22852 0.26661 0.26868
 C10 C 1.24145 0.21235 0.20421
 H11 H 1.26367 0.21066 0.20441
 C12 C 1.22662 0.19879 0.18565
 H13 H 1.23761 0.18630 0.17193
 C14 C 1.20028 0.23053 0.22223
 H15 H 1.19014 0.24333 0.23614
 C16 C 1.18463 0.21737 0.20393
 H17 H 1.16249 0.22015 0.20407
 Zn18 Zn 1.25047 0.24549 0.24596
 N19 N 1.22814 0.22753 0.22226
 C20 C 1.26645 0.19695 0.26484
 N21 N 1.27063 0.22236 0.26695
 C22 C 1.28831 0.23179 0.28480
 C23 C 1.30307 0.21543 0.30109
 C24 C 1.28071 0.17985 0.28064
 C25 C 1.26169 0.28253 0.20886
 C26 C 1.27734 0.29761 0.19203
 C27 C 1.31842 0.27626 0.20719
 C28 C 1.30197 0.26186 0.22416
 N29 N 1.27415 0.26542 0.22483
 H30 H 1.25195 0.18974 0.25087
 H31 H 1.29075 0.25217 0.28657
 H32 H 1.31582 0.22435 0.31558
 H33 H 1.27734 0.15991 0.27682
 H34 H 1.23948 0.28448 0.20931
 H35 H 1.26709 0.31126 0.17956
 H36 H 1.34055 0.27337 0.20685
 H37 H 1.31140 0.24766 0.23648
 C38 C 1.19779 0.20114 0.18539
 C39 C 1.19406 0.29692 0.30050
 C40 C 1.30605 0.29454 0.19106
 C41 C 1.29968 0.18864 0.29946
 C42 C 0.71759 -0.23703 0.28462
 H43 H 0.71519 -0.25740 0.28644
 C44 C 0.70162 -0.22041 0.30037
 H45 H 0.68666 -0.22814 0.31405
 C46 C 0.73985 -0.20228 0.26433
 H47 H 0.75521 -0.19523 0.25074
 C48 C 0.72434 -0.18501 0.27965
 H49 H 0.72790 -0.16482 0.27753
 N50 N 0.73588 -0.22776 0.26667
 C51 C 0.74667 -0.28903 0.20881
 H52 H 0.76892 -0.29056 0.20862
 C53 C 0.73152 -0.30411 0.19183
 H54 H 0.74228 -0.31763 0.17902
 C55 C 0.70584 -0.26933 0.22578
 H56 H 0.69598 -0.25526 0.23853
 C57 C 0.68984 -0.28400 0.20902
 H58 H 0.66772 -0.28111 0.20917
 Zn59 Zn 0.75677 -0.25113 0.24551
 N60 N 0.73373 -0.27217 0.22544
 C61 C 0.77622 -0.29652 0.26939
 N62 N 0.77907 -0.27084 0.26797
 C63 C 0.79752 -0.25844 0.28308
 C64 C 0.81459 -0.27202 0.29994
 C65 C 0.79281 -0.31083 0.28603
 C66 C 0.76486 -0.21820 0.20386
 C67 C 0.77926 -0.20427 0.18506
 C68 C 0.82167 -0.22318 0.20033
 C69 C 0.80645 -0.23647 0.21919
 N70 N 0.77860 -0.23341 0.22085
 H71 H 0.76103 -0.30599 0.25770
 H72 H 0.79903 -0.23795 0.28189
 H73 H 0.82911 -0.26180 0.31184
 H74 H 0.79057 -0.33130 0.28651
 H75 H 0.74264 -0.21665 0.20523
 H76 H 0.76807 -0.19189 0.17196
 H77 H 0.84387 -0.22542 0.19941
 H78 H 0.81689 -0.24925 0.23236
 C79 C 0.70270 -0.30158 0.19162
 C80 C 0.70473 -0.19397 0.29781
 C81 C 0.80802 -0.20659 0.18327
 C82 C 0.81241 -0.29860 0.30150
 C83 C 0.70997 0.25735 -0.21398
 H84 H 0.70953 0.23683 -0.21246
 C85 C 0.69257 0.27242 -0.19793
 H86 H 0.67847 0.26333 -0.18435
 C87 C 0.72896 0.29408 -0.23358
 H88 H 0.74355 0.30250 -0.24707
 C89 C 0.71189 0.30985 -0.21799
 H90 H 0.71354 0.33030 -0.21973
 N91 N 0.72750 0.26832 -0.23154
 C92 C 0.74548 0.21115 -0.29249
 H93 H 0.76775 0.21122 -0.29240
 C94 C 0.73183 0.19558 -0.31026
 H95 H 0.74378 0.18344 -0.32361
 C96 C 0.70293 0.22681 -0.27495
 H97 H 0.69174 0.23928 -0.26144
 C98 C 0.68845 0.21147 -0.29232
 H99 H 0.66616 0.21234 -0.29200
 Zn100 Zn 0.75127 0.24672 -0.25189
 N101 N 0.73095 0.22613 -0.27511
 C102 C 0.76961 0.20030 -0.22946
 N103 N 0.77103 0.22612 -0.22817
 C104 C 0.78564 0.23793 -0.20916
 C105 C 0.80014 0.22365 -0.19083
 C106 C 0.78372 0.18529 -0.21148
 C107 C 0.76462 0.28060 -0.29201
 C108 C 0.78135 0.29560 -0.30802
 C109 C 0.82085 0.28019 -0.28451
 C110 C 0.80326 0.26547 -0.26905
 N111 N 0.77567 0.26627 -0.27272
 H112 H 0.75742 0.19125 -0.24431
 H113 H 0.78596 0.25851 -0.20827
 H114 H 0.81153 0.23339 -0.17575
 H115 H 0.78267 0.16476 -0.21308
 H116 H 0.74256 0.28073 -0.29466
 H117 H 0.77092 0.30762 -0.32189
 H118 H 0.84264 0.27785 -0.28123
 H119 H 0.81183 0.25321 -0.25427
 C120 C 0.70292 0.19550 -0.31022
 C121 C 0.69334 0.29906 -0.19989
 C122 C 0.81027 0.29605 -0.30451
 C123 C 0.79930 0.19694 -0.19186
 C124 C 1.21264 -0.24599 -0.21354
 H125 H 1.21245 -0.26652 -0.21209
 C126 C 1.19488 -0.23114 -0.19764
 H127 H 1.18079 -0.24041 -0.18418
 C128 C 1.23114 -0.20901 -0.23307
 H129 H 1.24563 -0.20039 -0.24651
 C130 C 1.21372 -0.19347 -0.21763
 H131 H 1.21501 -0.17299 -0.21942
 N132 N 1.23000 -0.23478 -0.23109
 C133 C 1.24647 -0.29250 -0.29169
 H134 H 1.26875 -0.29321 -0.29159
 C135 C 1.23220 -0.30778 -0.30926
 H136 H 1.24368 -0.32054 -0.32234
 C137 C 1.20458 -0.27503 -0.27453
 H138 H 1.19389 -0.26187 -0.26136
 C139 C 1.18949 -0.28991 -0.29182
 H140 H 1.16726 -0.28801 -0.29168
 Zn141 Zn 1.25348 -0.25602 -0.25204
 N142 N 1.23255 -0.27678 -0.27456
 C143 C 1.27270 -0.30204 -0.22938
 N144 N 1.27445 -0.27622 -0.22885
 C145 C 1.28969 -0.26411 -0.21052
 C146 C 1.30420 -0.27807 -0.19190
 C147 C 1.28685 -0.31673 -0.21114
 C148 C 1.26335 -0.22203 -0.29250
 C149 C 1.27839 -0.20637 -0.30927
 C150 C 1.32003 -0.22024 -0.28805
 C151 C 1.30414 -0.23561 -0.27158
 N152 N 1.27628 -0.23593 -0.27386
 H153 H 1.25999 -0.31134 -0.24365
 H154 H 1.29023 -0.24352 -0.21016
 H155 H 1.31585 -0.26805 -0.17722
 H156 H 1.28535 -0.33727 -0.21205
 H157 H 1.24121 -0.22299 -0.29416
 H158 H 1.26767 -0.19548 -0.32400
 H159 H 1.34213 -0.21982 -0.28567
 H160 H 1.31409 -0.24717 -0.25697
 C161 C 1.20328 -0.30664 -0.30946
 C162 C 1.19514 -0.20451 -0.19975
 C163 C 1.30711 -0.20518 -0.30706
 C164 C 1.30277 -0.30477 -0.19198
 C165 C 0.25799 0.22090 0.71263
 H166 H 0.23571 0.22106 0.71311
 C167 C 0.27235 0.20565 0.69429
 H168 H 0.26094 0.19423 0.68055
 C169 C 0.29982 0.23627 0.72955
 H170 H 0.31046 0.24845 0.74310
 C171 C 0.31501 0.22132 0.71151
 H172 H 0.33728 0.22179 0.71178
 N173 N 0.27183 0.23553 0.73002
 C174 C 0.21251 0.24590 0.79472
 H175 H 0.21185 0.26645 0.79642
 C176 C 0.19519 0.23127 0.81053
 H177 H 0.18205 0.24110 0.82481
 C178 C 0.23163 0.20882 0.77454
 H179 H 0.24579 0.20010 0.76043
 C180 C 0.21498 0.19340 0.79016
 H181 H 0.21632 0.17307 0.78677
 Zn182 Zn 0.25042 0.25564 0.75395
 N183 N 0.22965 0.23457 0.77662
 C184 C 0.19870 0.27369 0.73601
 N185 N 0.22650 0.27595 0.73358
 C186 C 0.23794 0.29176 0.71553
 C187 C 0.22123 0.30673 0.69960
 C188 C 0.18124 0.28828 0.72050
 C189 C 0.29113 0.26431 0.79124
 C190 C 0.30898 0.27848 0.80665
 C191 C 0.28911 0.31695 0.78895
 C192 C 0.27164 0.30205 0.77390
 N193 N 0.27329 0.27621 0.77492
 H194 H 0.18991 0.26033 0.74966
 H195 H 0.26012 0.29280 0.71361
 H196 H 0.23073 0.31959 0.68573
 H197 H 0.15918 0.28604 0.72258
 H198 H 0.29175 0.24373 0.79196
 H199 H 0.32353 0.26861 0.81897
 H200 H 0.28746 0.33749 0.78787
 H201 H 0.25680 0.31122 0.76145
 C202 C 0.19582 0.20444 0.80828
 C203 C 0.30127 0.20564 0.69364
 C204 C 0.30830 0.30519 0.80541
 C205 C 0.19245 0.30517 0.70208
 C206 C 0.75484 0.71939 0.71304
 H207 H 0.73261 0.72105 0.71272
 C208 C 0.76874 0.70376 0.69472
 H209 H 0.75700 0.69360 0.68020
 C210 C 0.79702 0.73144 0.73188
 H211 H 0.80804 0.74253 0.74610
 C212 C 0.81175 0.71595 0.71399
 H213 H 0.83398 0.71486 0.71514
 N214 N 0.76904 0.73260 0.73133
 C215 C 0.70781 0.74513 0.79428
 H216 H 0.70750 0.76569 0.79587
 C217 C 0.69026 0.73081 0.81025
 H218 H 0.67720 0.74093 0.82437
 C219 C 0.72666 0.70765 0.77472
 H220 H 0.74092 0.69863 0.76091
 C221 C 0.70980 0.69256 0.79049
 H222 H 0.71100 0.67218 0.78743
 Zn223 Zn 0.74814 0.75364 0.75487
 N224 N 0.72516 0.73344 0.77660
 C225 C 0.69899 0.77680 0.73541
 N226 N 0.72698 0.77585 0.73383
 C227 C 0.74112 0.79038 0.71634
 C228 C 0.72718 0.80742 0.70024
 C229 C 0.68419 0.79350 0.71955
 C230 C 0.78887 0.76008 0.79306
 C231 C 0.80770 0.77347 0.80817
 C232 C 0.78973 0.81270 0.79041
 C233 C 0.77130 0.79859 0.77568
 N234 N 0.77167 0.77272 0.77669
 H235 H 0.68804 0.76463 0.74889
 H236 H 0.76334 0.78884 0.71510
 H237 H 0.73881 0.81886 0.68649
 H238 H 0.66195 0.79435 0.72139
 H239 H 0.78844 0.73951 0.79384
 H240 H 0.82189 0.76303 0.82038
 H241 H 0.78920 0.83327 0.78918
 H242 H 0.75685 0.80842 0.76334
 C243 C 0.69088 0.70393 0.80862
 C244 C 0.79760 0.70176 0.69511
 C245 C 0.80860 0.80014 0.80658
 C246 C 0.69834 0.80924 0.70184
 C247 C 0.76140 0.21853 0.21199
 H248 H 0.73922 0.21717 0.21118
 C249 C 0.77804 0.20470 0.19417
 H250 H 0.76842 0.19292 0.17950
 C251 C 0.80068 0.23620 0.23175
 H252 H 0.80948 0.24871 0.24618
 C253 C 0.81810 0.22257 0.21445
 H254 H 0.84016 0.22434 0.21631
 N255 N 0.77290 0.23361 0.23054
 C256 C 0.70983 0.23706 0.29271
 H257 H 0.70601 0.25736 0.29427
 C258 C 0.69431 0.22033 0.30798
 H259 H 0.67850 0.22783 0.32132
 C260 C 0.73512 0.20254 0.27348
 H261 H 0.75113 0.19567 0.26011
 C262 C 0.72047 0.18519 0.28875
 H263 H 0.72502 0.16502 0.28670
 Zn264 Zn 0.74868 0.25135 0.25408
 N265 N 0.72926 0.22791 0.27536
 C266 C 0.69637 0.26729 0.23477
 N267 N 0.72408 0.27071 0.23333
 C268 C 0.73529 0.28764 0.21627
 C269 C 0.71843 0.30269 0.20058
 C270 C 0.67873 0.28194 0.21943
 C271 C 0.78701 0.26175 0.29311
 C272 C 0.80396 0.27667 0.30869
 C273 C 0.78227 0.31428 0.29094
 C274 C 0.76576 0.29864 0.27570
 N275 N 0.76891 0.27289 0.27650
 H276 H 0.68781 0.25311 0.24766
 H277 H 0.75742 0.28966 0.21514
 H278 H 0.72778 0.31654 0.18769
 H279 H 0.65675 0.27891 0.22083
 H280 H 0.78884 0.24121 0.29363
 H281 H 0.81899 0.26742 0.32100
 H282 H 0.77963 0.33474 0.28984
 H283 H 0.75068 0.30718 0.26304
 C284 C 0.69949 0.19404 0.30593
 C285 C 0.80685 0.20640 0.19542
 C286 C 0.80205 0.30334 0.30737
 C287 C 0.68970 0.30009 0.20219
 C288 C 0.25844 0.72065 0.21496
 H289 H 0.23634 0.71990 0.21284
 C290 C 0.27569 0.70577 0.19861
 H291 H 0.26661 0.69379 0.18377
 C292 C 0.29695 0.73797 0.23632
 H293 H 0.30521 0.75070 0.25087
 C294 C 0.31495 0.72328 0.22052
 H295 H 0.33689 0.72457 0.22356
 N296 N 0.26924 0.73619 0.23351
 C297 C 0.20741 0.74653 0.29621
 H298 H 0.20627 0.76710 0.29739
 C299 C 0.19093 0.73192 0.31286
 H300 H 0.17730 0.74139 0.32704
 C301 C 0.22670 0.70926 0.27632
 H302 H 0.24060 0.70048 0.26202
 C303 C 0.21069 0.69393 0.29266
 H304 H 0.21221 0.67343 0.29047
 Zn305 Zn 0.24437 0.75606 0.25456
 N306 N 0.22437 0.73506 0.27799
 C307 C 0.19207 0.77125 0.23545
 N308 N 0.21980 0.77286 0.23171
 C309 C 0.23070 0.78635 0.21143
 C310 C 0.21350 0.79970 0.19450
 C311 C 0.17415 0.78446 0.21915
 C312 C 0.27991 0.77189 0.29428
 C313 C 0.29471 0.78903 0.30949
 C314 C 0.27518 0.82345 0.28450
 C315 C 0.26070 0.80559 0.26994
 N316 N 0.26364 0.78033 0.27471
 H317 H 0.18369 0.75991 0.25118
 H318 H 0.25282 0.78705 0.20870
 H319 H 0.22253 0.81087 0.17885
 H320 H 0.15214 0.78319 0.22256
 H321 H 0.28175 0.75166 0.29782
 H322 H 0.30841 0.78085 0.32370
 H323 H 0.27100 0.84324 0.28034
 H324 H 0.24692 0.81209 0.25491
 C325 C 0.19221 0.70524 0.31098
 C326 C 0.30440 0.70684 0.20134
 C327 C 0.29299 0.81561 0.30477
 C328 C 0.18485 0.79911 0.19853
 N329 N 1.04865 0.02815 0.02593
 N330 N 1.06635 0.04648 0.03043
 N331 N 1.03005 -0.02499 0.04487
 N332 N 1.03446 -0.04294 0.06238
 N333 N 1.04965 -0.02534 0.02677
 N334 N 1.06796 -0.04342 0.03148
 N335 N 1.02885 0.02854 0.04383
 N336 N 1.03249 0.04710 0.06097
 C337 C 1.05587 0.05826 0.05229
 C338 C 1.05815 -0.05436 0.05368
 N339 N 0.95234 -0.02605 0.02591
 N340 N 0.93389 -0.04360 0.03132
 N341 N 0.96959 0.02825 0.04325
 N342 N 0.96324 0.04612 0.06082
 N343 N 0.95098 0.02748 0.02487
 N344 N 0.93147 0.04475 0.02947
 N345 N 0.97085 -0.02513 0.04438
 N346 N 0.96545 -0.04183 0.06288
 Mn347 Mn 0.99985 0.00169 0.04434
 C348 C 0.94253 -0.05343 0.05436
 C349 C 0.93952 0.05643 0.05182
 N350 N 1.05138 -0.02682 -0.02984
 N351 N 1.06989 -0.04518 -0.03374
 N352 N 1.03202 0.02630 -0.04918
 N353 N 1.03790 0.04343 -0.06725
 N354 N 1.05042 0.02661 -0.03059
 N355 N 1.06923 0.04386 -0.03546
 N356 N 1.03283 -0.02726 -0.04829
 N357 N 1.03816 -0.04594 -0.06519
 Mn358 Mn 1.05031 0.00064 -0.00193
 C359 C 1.06126 -0.05706 -0.05580
 C360 C 1.06108 0.05440 -0.05824
 N361 N 0.95278 0.02613 -0.03177
 N362 N 0.93432 0.04406 -0.03674
 N363 N 0.97352 -0.02762 -0.04897
 N364 N 0.96963 -0.04631 -0.06599
 N365 N 0.95406 -0.02736 -0.03071
 N366 N 0.93647 -0.04582 -0.03476
 N367 N 0.97253 0.02594 -0.04974
 N368 N 0.96807 0.04371 -0.06739
 Mn369 Mn 0.95225 0.00003 -0.00295
 Mn370 Mn 1.00273 -0.00064 -0.04936
 Cl371 Cl 1.00127 0.00044 -0.00249
 C372 C 0.94423 0.05499 -0.05895
 C373 C 0.94650 -0.05761 -0.05675
 N374 N 1.04785 0.52412 0.53002
 N375 N 1.06652 0.54142 0.53521
 N376 N 1.02769 0.47084 0.54703
 N377 N 1.03254 0.45295 0.56448
 N378 N 1.04698 0.47062 0.52862
 N379 N 1.06541 0.45254 0.53299
 N380 N 1.02846 0.52429 0.54834
 N381 N 1.03336 0.54170 0.56642
 C382 C 1.05706 0.55239 0.55790
 C383 C 1.05601 0.44150 0.55531
 N384 N 0.94942 0.47327 0.52934
 N385 N 0.93083 0.45558 0.53351
 N386 N 0.96927 0.52594 0.54870
 N387 N 0.96473 0.54390 0.56661
 N388 N 0.95034 0.52676 0.53064
 N389 N 0.93230 0.54524 0.53584
 N390 N 0.96836 0.47241 0.54740
 N391 N 0.96318 0.45413 0.56435
 Mn392 Mn 0.99843 0.49835 0.54813
 C393 C 0.93977 0.44367 0.55534
 C394 C 0.94167 0.55590 0.55826
 N395 N 1.04765 0.47140 0.47208
 N396 N 1.06573 0.45291 0.46716
 N397 N 1.02981 0.52566 0.45506
 N398 N 1.03577 0.54336 0.43764
 N399 N 1.04852 0.52486 0.47336
 N400 N 1.06763 0.54196 0.46892
 N401 N 1.02886 0.47211 0.45385
 N402 N 1.03372 0.45414 0.43599
 Mn403 Mn 1.04802 0.49776 0.50101
 C404 C 1.05671 0.44218 0.44466
 C405 C 1.05933 0.55354 0.44670
 N406 N 0.95102 0.52755 0.47393
 N407 N 0.93232 0.54533 0.46928
 N408 N 0.96932 0.47373 0.45427
 N409 N 0.96427 0.45592 0.43657
 N410 N 0.95013 0.47409 0.47279
 N411 N 0.93162 0.45653 0.46828
 N412 N 0.97024 0.52724 0.45543
 N413 N 0.96507 0.54481 0.43770
 Mn414 Mn 0.94995 0.50044 0.50167
 Mn415 Mn 0.99956 0.49969 0.45434
 Cl416 Cl 0.99899 0.49907 0.50127
 C417 C 0.94148 0.55614 0.44675
 C418 C 0.94075 0.44522 0.44570
 N419 N 0.52777 -0.02899 0.45259
 N420 N 0.54671 -0.03473 0.43445
 N421 N 0.46937 -0.04430 0.47167
 N422 N 0.45009 -0.06106 0.46694
 N423 N 0.46988 -0.02678 0.45340
 N424 N 0.45095 -0.03129 0.43567
 N425 N 0.52720 -0.04648 0.47088
 N426 N 0.54575 -0.06449 0.46574
 C427 C 0.55795 -0.05685 0.44307
 C428 C 0.43856 -0.05262 0.44456
 N429 N 0.46943 -0.02710 0.54672
 N430 N 0.45147 -0.03234 0.56564
 N431 N 0.52689 -0.04682 0.52746
 N432 N 0.54430 -0.06556 0.53260
 N433 N 0.52726 -0.02936 0.54606
 N434 N 0.54495 -0.03578 0.56435
 N435 N 0.46911 -0.04468 0.52823
 N436 N 0.45097 -0.06231 0.53411
 Mn437 Mn 0.49815 -0.04576 0.49952
 C438 C 0.43982 -0.05419 0.55733
 C439 C 0.55570 -0.05828 0.55550
 N440 N 0.47165 0.02834 0.45403
 N441 N 0.45405 0.03495 0.43572
 N442 N 0.53016 0.04330 0.47204
 N443 N 0.54961 0.05999 0.46712
 N444 N 0.52942 0.02606 0.45322
 N445 N 0.54819 0.03074 0.43485
 N446 N 0.47227 0.04585 0.47259
 N447 N 0.45508 0.06475 0.46740
 Mn448 Mn 0.49966 -0.00035 0.45303
 C449 C 0.44357 0.05757 0.44450
 C450 C 0.56086 0.05179 0.44397
 N451 N 0.52894 0.02549 0.54677
 N452 N 0.54684 0.03028 0.56533
 N453 N 0.47185 0.04553 0.52929
 N454 N 0.45352 0.06367 0.53479
 N455 N 0.47111 0.02778 0.54730
 N456 N 0.45225 0.03338 0.56552
 N457 N 0.52968 0.04323 0.52875
 N458 N 0.54808 0.06055 0.53462
 Mn459 Mn 0.49917 -0.00078 0.54694
 Mn460 Mn 0.50101 0.04470 0.50066
 Cl461 Cl 0.49949 -0.00054 0.50003
 C462 C 0.55891 0.05204 0.55733
 C463 C 0.44125 0.05572 0.55733
 N464 N 0.54866 0.52831 0.03204
 N465 N 0.56686 0.54614 0.03688
 N466 N 0.52993 0.47531 0.05106
 N467 N 0.53457 0.45761 0.06879
 N468 N 0.54936 0.47477 0.03278
 N469 N 0.56770 0.45671 0.03754
 N470 N 0.52892 0.52881 0.05001
 N471 N 0.53311 0.54693 0.06751
 C472 C 0.55673 0.55775 0.05898
 C473 C 0.55814 0.44604 0.05999
 N474 N 0.45195 0.47448 0.03260
 N475 N 0.43322 0.45728 0.03843
 N476 N 0.46956 0.52875 0.04981
 N477 N 0.46311 0.54630 0.06770
 N478 N 0.45081 0.52804 0.03155
 N479 N 0.43112 0.54506 0.03656
 N480 N 0.47064 0.47535 0.05091
 N481 N 0.46508 0.45898 0.06969
 Mn482 Mn 0.49978 0.50209 0.05068
 C483 C 0.44189 0.44760 0.06154
 C484 C 0.43921 0.55653 0.05902
 N485 N 0.55082 0.47341 -0.02392
 N486 N 0.56967 0.45547 -0.02849
 N487 N 0.53147 0.52665 -0.04297
 N488 N 0.53716 0.54377 -0.06109
 N489 N 0.55010 0.52689 -0.02459
 N490 N 0.56893 0.54410 -0.02972
 N491 N 0.53208 0.47308 -0.04220
 N492 N 0.53764 0.45493 -0.05964
 Mn493 Mn 0.55002 0.50083 0.00409
 C494 C 0.56104 0.44394 -0.05076
 C495 C 0.56049 0.55469 -0.05241
 N496 N 0.45227 0.52677 -0.02521
 N497 N 0.43376 0.54464 -0.03037
 N498 N 0.47274 0.47299 -0.04251
 N499 N 0.46817 0.45501 -0.06014
 N500 N 0.45333 0.47323 -0.02420
 N501 N 0.43509 0.45545 -0.02886
 N502 N 0.47204 0.52649 -0.04316
 N503 N 0.46759 0.54413 -0.06094
 Mn504 Mn 0.45180 0.50061 0.00367
 Mn505 Mn 0.50208 0.49981 -0.04298
 Cl506 Cl 0.50090 0.50084 0.00386
 C507 C 0.44373 0.55544 -0.05265
 C508 C 0.44471 0.44406 -0.05123
 C509 C 1.19148 0.18266 0.14020
 C510 C 1.17679 0.16791 0.12243
 C511 C 1.15174 0.15694 0.13001
 C512 C 1.14173 0.16086 0.15589
 C513 C 1.15647 0.17551 0.17368
 C514 C 1.18159 0.18648 0.16610
 C515 C 1.13765 0.14019 0.11109
 C516 C 1.11046 0.13604 0.11212
 C517 C 1.09640 0.11730 0.09521
 C518 C 1.07068 0.10833 0.10368
 C519 C 1.05727 0.08952 0.08942
 C520 C 1.06925 0.07938 0.06624
 C521 C 1.09446 0.08898 0.05711
 C522 C 1.10791 0.10783 0.07138
 H523 H 1.21060 0.19109 0.13363
 H524 H 1.18504 0.16503 0.10268
 H525 H 1.12305 0.15194 0.16282
 H526 H 1.14860 0.17760 0.19364
 H527 H 1.15047 0.13080 0.09626
 H528 H 1.09789 0.14588 0.12688
 H529 H 1.06120 0.11544 0.12179
 H530 H 1.03774 0.08262 0.09684
 H531 H 1.10398 0.08170 0.03910
 H532 H 1.12720 0.11480 0.06359
 C533 C 1.19731 0.67271 0.64627
 C534 C 1.18260 0.65733 0.62907
 C535 C 1.15769 0.64639 0.63717
 C536 C 1.14805 0.65072 0.66311
 C537 C 1.16280 0.66601 0.68032
 C538 C 1.18758 0.67723 0.67211
 C539 C 1.14309 0.62964 0.61858
 C540 C 1.11583 0.62586 0.61999
 C541 C 1.10099 0.60788 0.60281
 C542 C 1.07503 0.59947 0.61130
 C543 C 1.06060 0.58177 0.59648
 C544 C 1.07174 0.57218 0.57269
 C545 C 1.09730 0.58113 0.56367
 C546 C 1.11179 0.59885 0.57852
 H547 H 1.21618 0.68126 0.63923
 H548 H 1.19059 0.65412 0.60928
 H549 H 1.12953 0.64181 0.67047
 H550 H 1.15509 0.66859 0.70028
 H551 H 1.15549 0.62025 0.60343
 H552 H 1.10368 0.63572 0.63505
 H553 H 1.06608 0.60626 0.62976
 H554 H 1.04084 0.57535 0.60386
 H555 H 1.10623 0.57424 0.54524
 H556 H 1.13126 0.60542 0.57074
 C557 C 0.69703 0.17588 0.64506
 C558 C 0.68285 0.16023 0.62770
 C559 C 0.65953 0.14694 0.63625
 C560 C 0.65028 0.15006 0.66248
 C561 C 0.66439 0.16579 0.67980
 C562 C 0.68795 0.17883 0.67131
 C563 C 0.64468 0.13097 0.61710
 C564 C 0.62917 0.11115 0.62423
 C565 C 0.61309 0.09566 0.60559
 C566 C 0.60414 0.07158 0.61359
 C567 C 0.58724 0.05706 0.59754
 C568 C 0.57874 0.06641 0.57318
 C569 C 0.58806 0.09027 0.56487
 C570 C 0.60498 0.10482 0.58092
 H571 H 0.71487 0.18600 0.63782
 H572 H 0.69018 0.15844 0.60752
 H573 H 0.63188 0.14082 0.66964
 H574 H 0.65695 0.16760 0.69993
 H575 H 0.64756 0.13528 0.59649
 H576 H 0.62857 0.10548 0.64464
 H577 H 0.60994 0.06411 0.63252
 H578 H 0.58035 0.03875 0.60449
 H579 H 0.58167 0.09802 0.54625
 H580 H 0.61074 0.12352 0.57426
 C581 C 0.69620 0.67796 0.14741
 C582 C 0.68117 0.66295 0.13018
 C583 C 0.65573 0.65293 0.13804
 C584 C 0.64572 0.65802 0.16372
 C585 C 0.66082 0.67296 0.18101
 C586 C 0.68629 0.68303 0.17309
 C587 C 0.64112 0.63617 0.11950
 C588 C 0.61379 0.63280 0.12044
 C589 C 0.59920 0.61463 0.10328
 C590 C 0.57324 0.60613 0.11160
 C591 C 0.55922 0.58803 0.09692
 C592 C 0.57081 0.57815 0.07343
 C593 C 0.59630 0.58729 0.06449
 C594 C 0.61036 0.60542 0.07920
 H595 H 0.71554 0.68572 0.14054
 H596 H 0.68941 0.65920 0.11057
 H597 H 0.62669 0.64990 0.17087
 H598 H 0.65288 0.67608 0.20082
 H599 H 0.65365 0.62627 0.10479
 H600 H 0.60146 0.64301 0.13511
 H601 H 0.56401 0.61307 0.12989
 H602 H 0.53949 0.58147 0.10421
 H603 H 0.60555 0.58021 0.04628
 H604 H 0.62982 0.61211 0.07151
 C605 C 0.84370 -0.20240 0.14742
 C606 C 0.85848 -0.18751 0.12954
 C607 C 0.85396 -0.16110 0.12875
 C608 C 0.83370 -0.14990 0.14537
 C609 C 0.81860 -0.16481 0.16284
 C610 C 0.82366 -0.19113 0.16421
 C611 C 0.87051 -0.14544 0.11060
 C612 C 0.87982 -0.12267 0.11802
 C613 C 0.89677 -0.10650 0.10080
 C614 C 0.91692 -0.09135 0.11221
 C615 C 0.93234 -0.07471 0.09686
 C616 C 0.92735 -0.07239 0.06989
 C617 C 0.90719 -0.08754 0.05835
 C618 C 0.89213 -0.10466 0.07366
 H619 H 0.84772 -0.22272 0.14800
 H620 H 0.87387 -0.19650 0.11674
 H621 H 0.82941 -0.12963 0.14475
 H622 H 0.80325 -0.15573 0.17562
 H623 H 0.87654 -0.15341 0.09162
 H624 H 0.87613 -0.11613 0.13806
 H625 H 0.92067 -0.09237 0.13311
 H626 H 0.94766 -0.06314 0.10628
 H627 H 0.90295 -0.08602 0.03759
 H628 H 0.87630 -0.11579 0.06448
 C629 C 0.85387 0.31781 0.68872
 C630 C 0.87061 0.33383 0.67381
 C631 C 0.86167 0.34370 0.64994
 C632 C 0.83535 0.33734 0.64129
 C633 C 0.81845 0.32140 0.65616
 C634 C 0.82711 0.31121 0.68047
 C635 C 0.87975 0.36157 0.63552
 C636 C 0.87789 0.36623 0.60969
 C637 C 0.89492 0.38527 0.59571
 C638 C 0.88510 0.39552 0.57220
 C639 C 0.89985 0.41423 0.55886
 C640 C 0.92489 0.42295 0.56866
 C641 C 0.93524 0.41215 0.59169
 C642 C 0.92049 0.39343 0.60504
 H643 H 0.86186 0.31208 0.70747
 H644 H 0.89065 0.33879 0.68119
 H645 H 0.82733 0.34495 0.62325
 H646 H 0.79902 0.31658 0.64757
 H647 H 0.89499 0.37131 0.64697
 H648 H 0.86267 0.35644 0.59826
 H649 H 0.86564 0.38939 0.56441
 H650 H 0.89146 0.42209 0.54104
 H651 H 0.95467 0.41829 0.59951
 H652 H 0.92938 0.38537 0.62249
 C653 C 0.34863 -0.19669 0.66438
 C654 C 0.36362 -0.18092 0.64755
 C655 C 0.35388 -0.15637 0.64169
 C656 C 0.32852 -0.14801 0.65271
 C657 C 0.31349 -0.16380 0.66945
 C658 C 0.32337 -0.18832 0.67547
 C659 C 0.37025 -0.14047 0.62341
 C660 C 0.36874 -0.11494 0.62315
 C661 C 0.38595 -0.09930 0.60537
 C662 C 0.39298 -0.07462 0.61334
 C663 C 0.41006 -0.05970 0.59751
 C664 C 0.42013 -0.06909 0.57321
 C665 C 0.41220 -0.09338 0.56473
 C666 C 0.39527 -0.10835 0.58062
 H667 H 0.35658 -0.21561 0.66833
 H668 H 0.38295 -0.18793 0.63912
 H669 H 0.31991 -0.12951 0.64811
 H670 H 0.29415 -0.15677 0.67780
 H671 H 0.38518 -0.15024 0.61073
 H672 H 0.35590 -0.10493 0.63758
 H673 H 0.38577 -0.06709 0.63217
 H674 H 0.41570 -0.04098 0.60447
 H675 H 0.41944 -0.10101 0.54596
 H676 H 0.38946 -0.12692 0.57340
 C677 C 0.34254 0.29925 0.15600
 C678 C 0.35765 0.31435 0.13855
 C679 C 0.35383 0.34087 0.13856
 C680 C 0.33413 0.35203 0.15583
 C681 C 0.31869 0.33692 0.17289
 C682 C 0.32284 0.31043 0.17323
 C683 C 0.37014 0.35655 0.12014
 C684 C 0.37940 0.37949 0.12710
 C685 C 0.39610 0.39552 0.10941
 C686 C 0.41640 0.41083 0.12036
 C687 C 0.43173 0.42718 0.10456
 C688 C 0.42653 0.42908 0.07757
 C689 C 0.40614 0.41383 0.06653
 C690 C 0.39117 0.39698 0.08229
 H691 H 0.34584 0.27881 0.15573
 H692 H 0.37257 0.30535 0.12526
 H693 H 0.33031 0.37239 0.15586
 H694 H 0.30358 0.34595 0.18598
 H695 H 0.37597 0.34845 0.10115
 H696 H 0.37597 0.38627 0.14709
 H697 H 0.42039 0.41013 0.14122
 H698 H 0.44721 0.43882 0.11363
 H699 H 0.40172 0.41502 0.04578
 H700 H 0.37522 0.38573 0.07345
 C701 C 0.80255 0.15944 -0.16181
 C702 C 0.81712 0.14431 -0.14423
 C703 C 0.84406 0.15048 -0.13727
 C704 C 0.85586 0.17268 -0.14760
 C705 C 0.84124 0.18787 -0.16514
 C706 C 0.81453 0.18127 -0.17263
 C707 C 0.85898 0.13340 -0.11916
 C708 C 0.88654 0.13141 -0.11866
 C709 C 0.90129 0.11267 -0.10223
 C710 C 0.92754 0.10406 -0.11050
 C711 C 0.94167 0.08557 -0.09623
 C712 C 0.92992 0.07551 -0.07321
 C713 C 0.90408 0.08475 -0.06436
 C714 C 0.88990 0.10319 -0.07868
 H715 H 0.78182 0.15413 -0.16681
 H716 H 0.80743 0.12750 -0.13631
 H717 H 0.87624 0.17854 -0.14209
 H718 H 0.85102 0.20457 -0.17317
 H719 H 0.84665 0.12065 -0.10737
 H720 H 0.89885 0.14237 -0.13229
 H721 H 0.93691 0.11124 -0.12839
 H722 H 0.96166 0.07894 -0.10341
 H723 H 0.89468 0.07754 -0.04650
 H724 H 0.87014 0.11002 -0.07116
 C725 C 0.85854 0.69227 0.32120
 C726 C 0.87569 0.67776 0.33722
 C727 C 0.86516 0.65734 0.35171
 C728 C 0.83707 0.65151 0.34956
 C729 C 0.81996 0.66597 0.33350
 C730 C 0.83050 0.68647 0.31909
 C731 C 0.88425 0.64181 0.36767
 C732 C 0.87589 0.62792 0.38827
 C733 C 0.89435 0.61109 0.40353
 C734 C 0.88538 0.60306 0.42846
 C735 C 0.90107 0.58575 0.44281
 C736 C 0.92605 0.57594 0.43244
 C737 C 0.93536 0.58424 0.40772
 C738 C 0.91965 0.60156 0.39332
 H739 H 0.86737 0.70769 0.31002
 H740 H 0.89730 0.68246 0.33824
 H741 H 0.82829 0.63545 0.35972
 H742 H 0.79841 0.66110 0.33240
 H743 H 0.90594 0.64257 0.36257
 H744 H 0.85457 0.62918 0.39477
 H745 H 0.86593 0.60995 0.43675
 H746 H 0.89335 0.57968 0.46182
 H747 H 0.95446 0.57685 0.39917
 H748 H 0.92703 0.60664 0.37392
 C749 C 0.30552 0.14654 0.31889
 C750 C 0.32024 0.12969 0.33465
 C751 C 0.34375 0.13753 0.34775
 C752 C 0.35258 0.16264 0.34444
 C753 C 0.33799 0.17959 0.32863
 C754 C 0.31395 0.17209 0.31526
 C755 C 0.35910 0.11875 0.36372
 C756 C 0.37527 0.12535 0.38370
 C757 C 0.39121 0.10677 0.39943
 C758 C 0.40013 0.11427 0.42437
 C759 C 0.41651 0.09801 0.43930
 C760 C 0.42454 0.07391 0.42949
 C761 C 0.41540 0.06619 0.40467
 C762 C 0.39897 0.08246 0.38973
 H763 H 0.28681 0.13926 0.31073
 H764 H 0.31293 0.11042 0.33691
 H765 H 0.37132 0.16915 0.35334
 H766 H 0.34698 0.19811 0.32606
 H767 H 0.35591 0.09880 0.35941
 H768 H 0.37631 0.14517 0.38953
 H769 H 0.39462 0.13291 0.43227
 H770 H 0.42329 0.10451 0.45834
 H771 H 0.42146 0.04779 0.39653
 H772 H 0.39322 0.07618 0.37032
 C773 C 0.30485 0.65863 -0.16062
 C774 C 0.31876 0.64391 -0.14220
 C775 C 0.34562 0.64996 -0.13487
 C776 C 0.35800 0.67165 -0.14576
 C777 C 0.34406 0.68640 -0.16417
 C778 C 0.31742 0.67992 -0.17200
 C779 C 0.35983 0.63324 -0.11588
 C780 C 0.38734 0.63117 -0.11448
 C781 C 0.40157 0.61260 -0.09740
 C782 C 0.42823 0.60431 -0.10469
 C783 C 0.44203 0.58602 -0.08990
 C784 C 0.42956 0.57581 -0.06729
 C785 C 0.40328 0.58471 -0.05938
 C786 C 0.38939 0.60297 -0.07426
 H787 H 0.28413 0.65344 -0.16581
 H788 H 0.30860 0.62752 -0.13391
 H789 H 0.37832 0.67746 -0.14003
 H790 H 0.35430 0.70269 -0.17258
 H791 H 0.34707 0.62077 -0.10419
 H792 H 0.40013 0.64188 -0.12792
 H793 H 0.43821 0.61159 -0.12224
 H794 H 0.46237 0.57967 -0.09638
 H795 H 0.39331 0.57735 -0.04187
 H796 H 0.36925 0.60951 -0.06749
 C797 C 1.16304 -0.16699 -0.19465
 C798 C 1.14552 -0.15134 -0.17940
 C799 C 1.14087 -0.15637 -0.15266
 C800 C 1.15354 -0.17793 -0.14159
 C801 C 1.17103 -0.19367 -0.15690
 C802 C 1.17614 -0.18823 -0.18353
 C803 C 1.12242 -0.13888 -0.13731
 C804 C 1.12340 -0.13597 -0.11112
 C805 C 1.10628 -0.11683 -0.09650
 C806 C 1.11604 -0.10675 -0.07284
 C807 C 1.10119 -0.08763 -0.05928
 C808 C 1.07615 -0.07838 -0.06906
 C809 C 1.06581 -0.08917 -0.09215
 C810 C 1.08064 -0.10827 -0.10569
 H811 H 1.16617 -0.16258 -0.21523
 H812 H 1.13577 -0.13504 -0.18850
 H813 H 1.14984 -0.18290 -0.12126
 H814 H 1.18086 -0.20990 -0.14780
 H815 H 1.10891 -0.12663 -0.14842
 H816 H 1.13872 -0.14637 -0.10017
 H817 H 1.13557 -0.11324 -0.06517
 H818 H 1.10954 -0.07979 -0.04140
 H819 H 1.04635 -0.08266 -0.09993
 H820 H 1.07189 -0.11626 -0.12328
 C821 C 1.16400 0.33589 0.30561
 C822 C 1.14596 0.35151 0.32036
 C823 C 1.13839 0.34513 0.34619
 C824 C 1.14871 0.32229 0.35678
 C825 C 1.16671 0.30659 0.34195
 C826 C 1.17473 0.31332 0.31628
 C827 C 1.11954 0.36264 0.36114
 C828 C 1.11842 0.36403 0.38748
 C829 C 1.10134 0.38321 0.40214
 C830 C 1.10970 0.39103 0.42716
 C831 C 1.09496 0.40992 0.44114
 C832 C 1.07132 0.42120 0.43048
 C833 C 1.06230 0.41276 0.40587
 C834 C 1.07712 0.39391 0.39182
 H835 H 1.16935 0.34135 0.28571
 H836 H 1.13809 0.36882 0.31161
 H837 H 1.14275 0.31631 0.37633
 H838 H 1.17463 0.28931 0.35071
 H839 H 1.10775 0.37619 0.34984
 H840 H 1.13213 0.35220 0.39883
 H841 H 1.12809 0.38291 0.43568
 H842 H 1.10228 0.41591 0.46016
 H843 H 1.04397 0.42092 0.39731
 H844 H 1.06946 0.38775 0.37301
 C845 C 0.67703 -0.15346 0.30253
 C846 C 0.66083 -0.13635 0.31747
 C847 C 0.65497 -0.14101 0.34409
 C848 C 0.66533 -0.16352 0.35538
 C849 C 0.68151 -0.18066 0.34039
 C850 C 0.68759 -0.17580 0.31382
 C851 C 0.63706 -0.12255 0.35889
 C852 C 0.63620 -0.12061 0.38521
 C853 C 0.61707 -0.10314 0.39983
 C854 C 0.60898 -0.10956 0.42551
 C855 C 0.59011 -0.09428 0.43968
 C856 C 0.57918 -0.07203 0.42857
 C857 C 0.58800 -0.06501 0.40325
 C858 C 0.60679 -0.08040 0.38898
 H859 H 0.68093 -0.14938 0.28198
 H860 H 0.65284 -0.11937 0.30818
 H861 H 0.66063 -0.16834 0.37556
 H862 H 0.68942 -0.19766 0.34968
 H863 H 0.62401 -0.11023 0.34739
 H864 H 0.64913 -0.13292 0.39682
 H865 H 0.61681 -0.12679 0.43443
 H866 H 0.58383 -0.10006 0.45924
 H867 H 0.58010 -0.04782 0.39432
 H868 H 0.61328 -0.07431 0.36961
 C869 C 0.66228 0.33726 -0.19369
 C870 C 0.64537 0.35304 -0.17793
 C871 C 0.64104 0.34771 -0.15120
 C872 C 0.65347 0.32577 -0.14066
 C873 C 0.67033 0.30991 -0.15648
 C874 C 0.67507 0.31558 -0.18313
 C875 C 0.62297 0.36516 -0.13535
 C876 C 0.62413 0.36752 -0.10909
 C877 C 0.60695 0.38621 -0.09386
 C878 C 0.61664 0.39561 -0.06987
 C879 C 0.60155 0.41407 -0.05556
 C880 C 0.57631 0.42332 -0.06488
 C881 C 0.56609 0.41324 -0.08837
 C882 C 0.58117 0.39482 -0.10267
 H883 H 0.66514 0.34189 -0.21425
 H884 H 0.63580 0.36962 -0.18663
 H885 H 0.65002 0.32058 -0.12036
 H886 H 0.67996 0.29338 -0.14777
 H887 H 0.60945 0.37771 -0.14609
 H888 H 0.63947 0.35682 -0.09847
 H889 H 0.63627 0.38906 -0.06248
 H890 H 0.60983 0.42138 -0.03741
 H891 H 0.54651 0.41977 -0.09585
 H892 H 0.57247 0.38733 -0.12052
 C893 C 1.15175 0.19874 -0.16758
 C894 C 1.13353 0.18340 -0.15346
 C895 C 1.14073 0.15827 -0.14743
 C896 C 1.16632 0.14847 -0.15632
 C897 C 1.18444 0.16362 -0.17069
 C898 C 1.17761 0.18914 -0.17665
 C899 C 1.12101 0.14245 -0.13250
 C900 C 1.12938 0.12432 -0.11598
 C901 C 1.11038 0.10797 -0.10087
 C902 C 1.11960 0.09742 -0.07735
 C903 C 1.10316 0.08062 -0.06320
 C904 C 1.07726 0.07364 -0.07252
 C905 C 1.06779 0.08433 -0.09595
 C906 C 1.08419 0.10142 -0.11002
 H907 H 1.14476 0.21777 -0.17230
 H908 H 1.11372 0.19125 -0.14715
 H909 H 1.17230 0.12894 -0.15249
 H910 H 1.20420 0.15528 -0.17625
 H911 H 1.09925 0.14678 -0.13419
 H912 H 1.15119 0.12196 -0.11240
 H913 H 1.13973 0.10206 -0.06997
 H914 H 1.11105 0.07265 -0.04523
 H915 H 1.04795 0.07917 -0.10361
 H916 H 1.07671 0.10874 -0.12842
 C917 C 1.14610 0.69624 0.33169
 C918 C 1.12859 0.68074 0.34643
 C919 C 1.13853 0.65816 0.35761
 C920 C 1.16638 0.65118 0.35342
 C921 C 1.18385 0.66662 0.33859
 C922 C 1.17391 0.68929 0.32752
 C923 C 1.11911 0.64183 0.37241
 C924 C 1.12720 0.62567 0.39111
 C925 C 1.10829 0.60857 0.40557
 C926 C 1.11673 0.59876 0.42973
 C927 C 1.10046 0.58138 0.44336
 C928 C 1.07545 0.57322 0.43298
 C929 C 1.06674 0.58320 0.40895
 C930 C 1.08302 0.60066 0.39530
 H931 H 1.13772 0.71337 0.32304
 H932 H 1.10718 0.68640 0.34909
 H933 H 1.17465 0.63354 0.36100
 H934 H 1.20518 0.66080 0.33577
 H935 H 1.09741 0.64405 0.36835
 H936 H 1.14856 0.62537 0.39684
 H937 H 1.13615 0.60439 0.43801
 H938 H 1.10774 0.57400 0.46183
 H939 H 1.04763 0.57710 0.40041
 H940 H 1.07611 0.60722 0.37641
 C941 C 0.65376 0.17764 0.32077
 C942 C 0.63771 0.16001 0.33433
 C943 C 0.65019 0.14070 0.34903
 C944 C 0.67910 0.13896 0.34950
 C945 C 0.69517 0.15631 0.33549
 C946 C 0.68262 0.17587 0.32112
 C947 C 0.63252 0.12229 0.36296
 C948 C 0.63911 0.11223 0.38616
 C949 C 0.62012 0.09549 0.40078
 C950 C 0.61769 0.09803 0.42818
 C951 C 0.59865 0.08355 0.44230
 C952 C 0.58227 0.06576 0.42930
 C953 C 0.58560 0.06236 0.40202
 C954 C 0.60421 0.07724 0.38782
 H955 H 0.64364 0.19238 0.30956
 H956 H 0.61548 0.16159 0.33354
 H957 H 0.68929 0.12392 0.36021
 H958 H 0.71740 0.15456 0.33599
 H959 H 0.61251 0.11844 0.35482
 H960 H 0.65770 0.11818 0.39581
 H961 H 0.62992 0.11183 0.43856
 H962 H 0.59658 0.08640 0.46336
 H963 H 0.57325 0.04872 0.39156
 H964 H 0.60615 0.07451 0.36675
 C965 C 0.64755 0.69853 -0.16580
 C966 C 0.62994 0.68344 -0.15066
 C967 C 0.63754 0.65850 -0.14414
 C968 C 0.66290 0.64866 -0.15358
 C969 C 0.68038 0.66355 -0.16898
 C970 C 0.67316 0.68887 -0.17546
 C971 C 0.61835 0.64287 -0.12829
 C972 C 0.62722 0.62485 -0.11183
 C973 C 0.60867 0.60847 -0.09615
 C974 C 0.61863 0.59775 -0.07297
 C975 C 0.60261 0.58086 -0.05843
 C976 C 0.57639 0.57397 -0.06700
 C977 C 0.56621 0.58484 -0.09007
 C978 C 0.58217 0.60198 -0.10453
 H979 H 0.64026 0.71740 -0.17079
 H980 H 0.61029 0.69133 -0.14394
 H981 H 0.66918 0.62928 -0.14942
 H982 H 0.70001 0.65518 -0.17492
 H983 H 0.59653 0.64717 -0.12940
 H984 H 0.64914 0.62250 -0.10886
 H985 H 0.63901 0.60230 -0.06618
 H986 H 0.61105 0.57275 -0.04075
 H987 H 0.54610 0.57977 -0.09718
 H988 H 0.57408 0.60939 -0.12265
 C989 C 0.84247 -0.16442 -0.19064
 C990 C 0.86139 -0.15001 -0.17677
 C991 C 0.86746 -0.15577 -0.15061
 C992 C 0.85488 -0.17695 -0.13886
 C993 C 0.83595 -0.19142 -0.15279
 C994 C 0.82928 -0.18511 -0.17873
 C995 C 0.88680 -0.13912 -0.13645
 C996 C 0.88683 -0.13652 -0.11020
 C997 C 0.90370 -0.11745 -0.09637
 C998 C 0.89445 -0.10835 -0.07170
 C999 C 0.90868 -0.08925 -0.05865
 C1000 C 0.93266 -0.07899 -0.06988
 C1001 C 0.94263 -0.08877 -0.09405
 C1002 C 0.92834 -0.10787 -0.10718
 H1003 H 0.83824 -0.15941 -0.21079
 H1004 H 0.87101 -0.13402 -0.18641
 H1005 H 0.85963 -0.18252 -0.11903
 H1006 H 0.82616 -0.20728 -0.14310
 H1007 H 0.89969 -0.12695 -0.14835
 H1008 H 0.87215 -0.14694 -0.09837
 H1009 H 0.87573 -0.11558 -0.06280
 H1010 H 0.90063 -0.08224 -0.03992
 H1011 H 0.96126 -0.08141 -0.10300
 H1012 H 0.93668 -0.11502 -0.12570
 C1013 C 0.83234 0.34145 0.31089
 C1014 C 0.85042 0.35673 0.32484
 C1015 C 0.85746 0.35076 0.35071
 C1016 C 0.84647 0.32872 0.36220
 C1017 C 0.82839 0.31339 0.34821
 C1018 C 0.82102 0.31966 0.32244
 C1019 C 0.87653 0.36778 0.36474
 C1020 C 0.87756 0.36955 0.39102
 C1021 C 0.89498 0.38814 0.40488
 C1022 C 0.88675 0.39644 0.43013
 C1023 C 0.90187 0.41472 0.44350
 C1024 C 0.92576 0.42489 0.43200
 C1025 C 0.93463 0.41597 0.40713
 C1026 C 0.91942 0.39773 0.39368
 H1027 H 0.82754 0.34651 0.29089
 H1028 H 0.85880 0.37342 0.31541
 H1029 H 0.85199 0.32299 0.38180
 H1030 H 0.82001 0.29673 0.35766
 H1031 H 0.88867 0.38058 0.35283
 H1032 H 0.86355 0.35853 0.40300
 H1033 H 0.86820 0.38917 0.43933
 H1034 H 0.89464 0.42109 0.46275
 H1035 H 0.95315 0.42329 0.39793
 H1036 H 0.92696 0.39114 0.37464
 C1037 C 0.31302 -0.14227 0.30951
 C1038 C 0.32864 -0.12496 0.32375
 C1039 C 0.33937 -0.13146 0.34813
 C1040 C 0.33457 -0.15593 0.35791
 C1041 C 0.31914 -0.17340 0.34370
 C1042 C 0.30787 -0.16715 0.31899
 C1043 C 0.35672 -0.11285 0.36208
 C1044 C 0.35960 -0.11268 0.38826
 C1045 C 0.37868 -0.09579 0.40249
 C1046 C 0.38668 -0.10291 0.42778
 C1047 C 0.40569 -0.08856 0.44159
 C1048 C 0.41699 -0.06657 0.43050
 C1049 C 0.40830 -0.05880 0.40562
 C1050 C 0.38928 -0.07323 0.39171
 H1051 H 0.30658 -0.13613 0.29035
 H1052 H 0.33253 -0.10637 0.31550
 H1053 H 0.34309 -0.16196 0.37638
 H1054 H 0.31540 -0.19140 0.35311
 H1055 H 0.36747 -0.09915 0.35010
 H1056 H 0.34833 -0.12628 0.39998
 H1057 H 0.37869 -0.12002 0.43668
 H1058 H 0.41184 -0.09494 0.46083
 H1059 H 0.41650 -0.04178 0.39672
 H1060 H 0.38302 -0.06654 0.37267
 C1061 C 0.33988 0.34231 -0.19003
 C1062 C 0.35785 0.35710 -0.17540
 C1063 C 0.36380 0.35083 -0.14933
 C1064 C 0.35192 0.32893 -0.13839
 C1065 C 0.33396 0.31410 -0.15307
 C1066 C 0.32758 0.32072 -0.17900
 C1067 C 0.38263 0.36744 -0.13450
 C1068 C 0.38263 0.36910 -0.10816
 C1069 C 0.39982 0.38738 -0.09357
 C1070 C 0.39079 0.39571 -0.06856
 C1071 C 0.40564 0.41380 -0.05461
 C1072 C 0.43004 0.42375 -0.06530
 C1073 C 0.43971 0.41474 -0.08989
 C1074 C 0.42479 0.39669 -0.10390
 H1075 H 0.33582 0.34765 -0.21012
 H1076 H 0.36695 0.37367 -0.18442
 H1077 H 0.35659 0.32298 -0.11865
 H1078 H 0.32479 0.29760 -0.14400
 H1079 H 0.39547 0.38009 -0.14590
 H1080 H 0.36797 0.35825 -0.09676
 H1081 H 0.37181 0.38864 -0.06002
 H1082 H 0.39779 0.42025 -0.03561
 H1083 H 0.45863 0.42188 -0.09847
 H1084 H 0.43295 0.39006 -0.12270
 C1085 C 1.14447 -0.17141 0.19315
 C1086 C 1.12746 -0.15642 0.17754
 C1087 C 1.13173 -0.15544 0.15019
 C1088 C 1.15311 -0.17046 0.13870
 C1089 C 1.17029 -0.18528 0.15439
 C1090 C 1.16623 -0.18577 0.18176
 C1091 C 1.11356 -0.13835 0.13481
 C1092 C 1.11849 -0.13180 0.10972
 C1093 C 1.10165 -0.11291 0.09526
 C1094 C 1.11308 -0.10216 0.07245
 C1095 C 1.09872 -0.08348 0.05870
 C1096 C 1.07254 -0.07512 0.06747
 C1097 C 1.06062 -0.08634 0.08979
 C1098 C 1.07491 -0.10518 0.10349
 H1099 H 1.14098 -0.17131 0.21424
 H1100 H 1.11113 -0.14522 0.18697
 H1101 H 1.15679 -0.17109 0.11771
 H1102 H 1.18663 -0.19656 0.14510
 H1103 H 1.09633 -0.12967 0.14542
 H1104 H 1.13668 -0.13911 0.09956
 H1105 H 1.13346 -0.10788 0.06547
 H1106 H 1.10836 -0.07527 0.04145
 H1107 H 1.04027 -0.08048 0.09675
 H1108 H 1.06478 -0.11355 0.12033
 C1109 C 1.15008 0.33224 0.69637
 C1110 C 1.13286 0.34713 0.68088
 C1111 C 1.13914 0.35097 0.65418
 C1112 C 1.16339 0.33984 0.64336
 C1113 C 1.18064 0.32494 0.65888
 C1114 C 1.17416 0.32095 0.68554
 C1115 C 1.12052 0.36755 0.63886
 C1116 C 1.11971 0.36757 0.61251
 C1117 C 1.10205 0.38539 0.59770
 C1118 C 1.11071 0.39281 0.57248
 C1119 C 1.09545 0.41068 0.55845
 C1120 C 1.07101 0.42124 0.56926
 C1121 C 1.06166 0.41300 0.59400
 C1122 C 1.07699 0.39522 0.60809
 H1123 H 1.14477 0.32987 0.71696
 H1124 H 1.11452 0.35572 0.68981
 H1125 H 1.16954 0.34289 0.62312
 H1126 H 1.19899 0.31640 0.64995
 H1127 H 1.10709 0.38041 0.65001
 H1128 H 1.13320 0.35500 0.60111
 H1129 H 1.12975 0.38528 0.56391
 H1130 H 1.10302 0.41654 0.53931
 H1131 H 1.04271 0.42061 0.60266
 H1132 H 1.06910 0.38921 0.62703
 C1133 C 0.69297 -0.14778 0.68131
 C1134 C 0.67866 -0.13058 0.66559
 C1135 C 0.65450 -0.13786 0.65303
 C1136 C 0.64450 -0.16259 0.65702
 C1137 C 0.65872 -0.17974 0.67286
 C1138 C 0.68316 -0.17255 0.68509
 C1139 C 0.63971 -0.11898 0.63681
 C1140 C 0.62365 -0.12562 0.61678
 C1141 C 0.60803 -0.10709 0.60082
 C1142 C 0.59928 -0.11471 0.57585
 C1143 C 0.58297 -0.09852 0.56080
 C1144 C 0.57483 -0.07443 0.57052
 C1145 C 0.58388 -0.06657 0.59532
 C1146 C 0.60025 -0.08275 0.61039
 H1147 H 0.71151 -0.14157 0.69083
 H1148 H 0.68658 -0.11155 0.66311
 H1149 H 0.62547 -0.16866 0.64835
 H1150 H 0.65071 -0.19872 0.67538
 H1151 H 0.64322 -0.09905 0.64093
 H1152 H 0.62242 -0.14550 0.61116
 H1153 H 0.60483 -0.13338 0.56808
 H1154 H 0.57626 -0.10512 0.54176
 H1155 H 0.57774 -0.04816 0.60338
 H1156 H 0.60589 -0.07640 0.62981
 C1157 C 0.64667 0.32652 0.19714
 C1158 C 0.62976 0.34248 0.18240
 C1159 C 0.63689 0.34856 0.15636
 C1160 C 0.66157 0.33841 0.14540
 C1161 C 0.67849 0.32246 0.16016
 C1162 C 0.67130 0.31640 0.18622
 C1163 C 0.61883 0.36650 0.14197
 C1164 C 0.61892 0.36862 0.11569
 C1165 C 0.60217 0.38780 0.10160
 C1166 C 0.61130 0.39569 0.07669
 C1167 C 0.59681 0.41438 0.06305
 C1168 C 0.57264 0.42540 0.07393
 C1169 C 0.56292 0.41696 0.09847
 C1170 C 0.57749 0.39831 0.11219
 H1171 H 0.64076 0.32257 0.21730
 H1172 H 0.61106 0.35024 0.19145
 H1173 H 0.66838 0.34313 0.12572
 H1174 H 0.69726 0.31485 0.15114
 H1175 H 0.60519 0.37859 0.15379
 H1176 H 0.63255 0.35663 0.10379
 H1177 H 0.63007 0.38773 0.06796
 H1178 H 0.60470 0.42038 0.04408
 H1179 H 0.54417 0.42494 0.10719
 H1180 H 0.56920 0.39211 0.13090
 C1181 C 0.84993 0.20098 0.16753
 C1182 C 0.86733 0.18621 0.15117
 C1183 C 0.86004 0.16143 0.14388
 C1184 C 0.83518 0.15148 0.15365
 C1185 C 0.81790 0.16614 0.17018
 C1186 C 0.82503 0.19109 0.17733
 C1187 C 0.87930 0.14598 0.12720
 C1188 C 0.87073 0.12775 0.11081
 C1189 C 0.88968 0.11117 0.09500
 C1190 C 0.87993 0.09981 0.07198
 C1191 C 0.89647 0.08262 0.05750
 C1192 C 0.92298 0.07614 0.06600
 C1193 C 0.93294 0.08769 0.08886
 C1194 C 0.91646 0.10506 0.10325
 H1195 H 0.85592 0.22021 0.17238
 H1196 H 0.88647 0.19421 0.14403
 H1197 H 0.82937 0.13212 0.14919
 H1198 H 0.79927 0.15768 0.17788
 H1199 H 0.90098 0.15043 0.12789
 H1200 H 0.84884 0.12517 0.10824
 H1201 H 0.85932 0.10406 0.06532
 H1202 H 0.88822 0.07395 0.03998
 H1203 H 0.95326 0.08293 0.09592
 H1204 H 0.92442 0.11290 0.12127
 C1205 C 0.80204 0.66125 0.66867
 C1206 C 0.81644 0.64529 0.65097
 C1207 C 0.84209 0.65241 0.64052
 C1208 C 0.85276 0.67624 0.64754
 C1209 C 0.83827 0.69229 0.66513
 C1210 C 0.81282 0.68491 0.67605
 C1211 C 0.85685 0.63468 0.62218
 C1212 C 0.88436 0.63387 0.61941
 C1213 C 0.89905 0.61469 0.60266
 C1214 C 0.92555 0.60661 0.60970
 C1215 C 0.93956 0.58772 0.59507
 C1216 C 0.92748 0.57682 0.57285
 C1217 C 0.90140 0.58557 0.56518
 C1218 C 0.88728 0.60432 0.57994
 H1219 H 0.78266 0.65484 0.67691
 H1220 H 0.80772 0.62709 0.64577
 H1221 H 0.87203 0.68274 0.63918
 H1222 H 0.84684 0.71064 0.66990
 H1223 H 0.84467 0.62058 0.61219
 H1224 H 0.89676 0.64620 0.63141
 H1225 H 0.93516 0.61451 0.62694
 H1226 H 0.95974 0.58148 0.60130
 H1227 H 0.89173 0.57766 0.54798
 H1228 H 0.86727 0.61071 0.57346
 C1229 C 0.34075 0.19849 0.66178
 C1230 C 0.35576 0.18300 0.64408
 C1231 C 0.34756 0.15797 0.63886
 C1232 C 0.32346 0.14895 0.65120
 C1233 C 0.30843 0.16446 0.66889
 C1234 C 0.31700 0.18934 0.67452
 C1235 C 0.36446 0.14213 0.62029
 C1236 C 0.36483 0.11658 0.62045
 C1237 C 0.38335 0.10093 0.60315
 C1238 C 0.39123 0.07652 0.61145
 C1239 C 0.40966 0.06160 0.59632
 C1240 C 0.42036 0.07073 0.57243
 C1241 C 0.41168 0.09474 0.56358
 C1242 C 0.39330 0.10969 0.57874
 H1243 H 0.34760 0.21772 0.66532
 H1244 H 0.37404 0.19053 0.63462
 H1245 H 0.31594 0.13007 0.64712
 H1246 H 0.29027 0.15683 0.67844
 H1247 H 0.37852 0.15204 0.60732
 H1248 H 0.35279 0.10662 0.63510
 H1249 H 0.38361 0.06921 0.63001
 H1250 H 0.41585 0.04309 0.60354
 H1251 H 0.41936 0.10212 0.54508
 H1252 H 0.38691 0.12799 0.57120
 C1253 C 0.34874 0.70013 0.17559
 C1254 C 0.36644 0.68494 0.15992
 C1255 C 0.35884 0.66032 0.15235
 C1256 C 0.33338 0.65091 0.16126
 C1257 C 0.31578 0.66600 0.17710
 C1258 C 0.32317 0.69085 0.18440
 C1259 C 0.37826 0.64458 0.13608
 C1260 C 0.36983 0.62661 0.11928
 C1261 C 0.38888 0.61018 0.10334
 C1262 C 0.37925 0.59918 0.08008
 C1263 C 0.39592 0.58234 0.06528
 C1264 C 0.42247 0.57583 0.07367
 C1265 C 0.43229 0.58698 0.09681
 C1266 C 0.41567 0.60400 0.11153
 H1267 H 0.35498 0.71925 0.18055
 H1268 H 0.38602 0.69255 0.15345
 H1269 H 0.32726 0.63169 0.15659
 H1270 H 0.29661 0.65799 0.18407
 H1271 H 0.39997 0.64878 0.13722
 H1272 H 0.34797 0.62429 0.11630
 H1273 H 0.35865 0.60349 0.07343
 H1274 H 0.38776 0.57397 0.04757
 H1275 H 0.45263 0.58219 0.10381
 H1276 H 0.42356 0.61156 0.12971
   
