data_POSCAR
  _audit_creation_date              2014-09-24
  _audit_creation_method            'ToBaCCo'
  _symmetry_space_group_name_H-M    'P1'
  _symmetry_Int_Tables_number       1
  _symmetry_cell_setting            triclinic
  loop_
  _symmetry_equiv_pos_as_xyz
 x,y,z
_cell_length_a 48.3262
_cell_length_b 48.2920
_cell_length_c 48.2728
_cell_angle_alpha 90.030200
_cell_angle_beta 89.964600
_cell_angle_gamma 89.972400
loop_
  _atom_site_label
  _atom_site_type_symbol
  _atom_site_fract_x
  _atom_site_fract_y
  _atom_site_fract_z
O1 O 0.87590 0.16360 0.80321
 O2 O 0.90584 0.12517 0.79496
 O3 O 0.80339 0.12364 0.83674
 O4 O 0.79339 0.09651 0.87273
 O5 O 0.83707 0.19695 0.87576
 O6 O 0.87568 0.20455 0.90595
 O7 O 0.87592 0.05323 0.91294
 O8 O 0.84349 0.04632 0.87597
 O9 O 0.94674 0.08653 0.87565
 O10 O 0.95534 0.12568 0.84418
 O11 O 0.91356 0.12391 0.94635
 O12 O 0.87404 0.15539 0.95498
 O13 O 0.87635 0.08656 0.94630
 O14 O 0.84471 0.12600 0.95489
 O15 O 0.94683 0.12392 0.91297
 O16 O 0.95506 0.15561 0.87316
 O17 O 0.91348 0.05321 0.87644
 O18 O 0.88007 0.04468 0.84467
 O19 O 0.87599 0.19691 0.83664
 O20 O 0.90632 0.20454 0.87516
 O21 O 0.80373 0.16362 0.87538
 O22 O 0.79739 0.12461 0.90744
 O23 O 0.83655 0.12509 0.80324
 O24 O 0.87663 0.09473 0.79457
 Zr25 Zr 0.87420 0.12600 0.82522
 O26 O 0.90001 0.10007 0.84891
 Zr27 Zr 0.82575 0.12595 0.87401
 O28 O 0.84949 0.09988 0.89974
 Zr29 Zr 0.87445 0.17459 0.87403
 O30 O 0.90028 0.15076 0.89982
 Zr31 Zr 0.87615 0.07550 0.87558
 O32 O 0.84982 0.09893 0.84933
 Zr33 Zr 0.92466 0.12413 0.87547
 O34 O 0.90111 0.15036 0.84940
 Zr35 Zr 0.87604 0.12414 0.92426
 O36 O 0.84996 0.15044 0.90076
 O37 O 0.84861 0.15177 0.84831
 O38 O 0.90202 0.09824 0.90153
 C39 C 0.87665 0.18892 0.81129
 C40 C 0.81129 0.12368 0.81136
 C41 C 0.81174 0.18896 0.87628
 C42 C 0.87621 0.06123 0.93827
 C43 C 0.93880 0.06118 0.87622
 C44 C 0.93887 0.12381 0.93832
 H45 H 0.91118 0.08836 0.83634
 H46 H 0.91172 0.16329 0.91125
 H47 H 0.83676 0.16362 0.83651
 H48 H 0.83705 0.08820 0.91103
 H49 H 0.83104 0.05113 0.86041
 H50 H 0.80026 0.07957 0.88195
 H51 H 0.95156 0.16885 0.88841
 H52 H 0.92094 0.19797 0.86237
 H53 H 0.86858 0.05073 0.82890
 H54 H 0.86042 0.08246 0.79700
 H55 H 0.88890 0.16893 0.95112
 H56 H 0.86299 0.19797 0.92064
 H57 H 0.92071 0.13750 0.80176
 H58 H 0.95098 0.11117 0.83039
 H59 H 0.80300 0.13925 0.92066
 H60 H 0.83130 0.11102 0.95102
 O61 O 0.83664 0.69625 0.37522
 O62 O 0.87497 0.70458 0.40524
 O63 O 0.87692 0.66283 0.30270
 O64 O 0.90422 0.62694 0.29276
 O65 O 0.80371 0.62365 0.33623
 O66 O 0.79604 0.59349 0.37488
 O67 O 0.94726 0.58677 0.37548
 O68 O 0.95416 0.62375 0.34298
 O69 O 0.91361 0.62411 0.44627
 O70 O 0.87434 0.65543 0.45477
 O71 O 0.87661 0.55329 0.41298
 O72 O 0.84528 0.54460 0.37334
 O73 O 0.91403 0.55339 0.37582
 O74 O 0.87477 0.54472 0.34407
 O75 O 0.87642 0.58667 0.44627
 O76 O 0.84457 0.62636 0.45445
 O77 O 0.94704 0.62336 0.41305
 O78 O 0.95564 0.65501 0.37959
 O79 O 0.80346 0.66277 0.37521
 O80 O 0.79583 0.62426 0.40552
 O81 O 0.83713 0.62410 0.30294
 O82 O 0.87622 0.59217 0.29667
 O83 O 0.87524 0.69631 0.33588
 O84 O 0.90542 0.70507 0.37603
 Zr85 Zr 0.87429 0.67434 0.37357
 O86 O 0.90019 0.65072 0.39945
 Zr87 Zr 0.87468 0.62557 0.32507
 O88 O 0.90071 0.59990 0.34889
 Zr89 Zr 0.82589 0.62545 0.37371
 O90 O 0.84968 0.59973 0.39963
 Zr91 Zr 0.92491 0.62410 0.37563
 O92 O 0.90151 0.65030 0.34922
 Zr93 Zr 0.87613 0.62414 0.42408
 O94 O 0.84992 0.65014 0.40044
 Zr95 Zr 0.87643 0.57535 0.37542
 O96 O 0.85019 0.59879 0.34924
 O97 O 0.84871 0.65120 0.34789
 O98 O 0.90216 0.59812 0.40149
 C99 C 0.81137 0.68812 0.37592
 C100 C 0.87677 0.68820 0.31061
 C101 C 0.81180 0.62313 0.31090
 C102 C 0.93932 0.56144 0.37575
 C103 C 0.93896 0.62362 0.43836
 C104 C 0.87662 0.56134 0.43831
 H105 H 0.91181 0.66332 0.41065
 H106 H 0.83715 0.58829 0.41105
 H107 H 0.83686 0.66297 0.33600
 H108 H 0.91245 0.58863 0.33647
 H109 H 0.94936 0.63931 0.33052
 H110 H 0.92113 0.61770 0.29965
 H111 H 0.83141 0.61108 0.45092
 H112 H 0.80232 0.63702 0.42019
 H113 H 0.94954 0.67081 0.36816
 H114 H 0.91777 0.70263 0.35986
 H115 H 0.83173 0.54840 0.38823
 H116 H 0.80270 0.57881 0.36219
 H117 H 0.86256 0.69781 0.42008
 H118 H 0.88881 0.66925 0.45044
 H119 H 0.86163 0.57890 0.30227
 H120 H 0.88976 0.54861 0.33067
 O121 O 0.37543 0.16257 0.30349
 O122 O 0.40556 0.12413 0.29546
 O123 O 0.30300 0.12248 0.33698
 O124 O 0.29308 0.09524 0.37294
 O125 O 0.33638 0.19587 0.37599
 O126 O 0.37490 0.20377 0.40610
 O127 O 0.37563 0.05240 0.41360
 O128 O 0.34321 0.04535 0.37655
 O129 O 0.44635 0.08593 0.37613
 O130 O 0.45492 0.12501 0.34477
 O131 O 0.41297 0.12331 0.44684
 O132 O 0.37328 0.15467 0.45533
 O133 O 0.37587 0.08580 0.44685
 O134 O 0.34408 0.12518 0.45526
 O135 O 0.44627 0.12335 0.41349
 O136 O 0.45443 0.15502 0.37365
 O137 O 0.41320 0.05248 0.37697
 O138 O 0.37983 0.04365 0.34539
 O139 O 0.37533 0.19595 0.33684
 O140 O 0.40563 0.20371 0.37543
 O141 O 0.30316 0.16243 0.37563
 O142 O 0.29681 0.12351 0.40764
 O143 O 0.33623 0.12395 0.30354
 O144 O 0.37636 0.09368 0.29501
 Zr145 Zr 0.37382 0.12500 0.32561
 O146 O 0.39962 0.09921 0.34943
 Zr147 Zr 0.32529 0.12485 0.37431
 O148 O 0.34903 0.09894 0.40019
 Zr149 Zr 0.37383 0.17368 0.37430
 O150 O 0.39966 0.15001 0.40022
 Zr151 Zr 0.37580 0.07460 0.37615
 O152 O 0.34949 0.09787 0.34974
 Zr153 Zr 0.42416 0.12342 0.37597
 O154 O 0.40060 0.14951 0.34976
 Zr155 Zr 0.37547 0.12334 0.42470
 O156 O 0.34938 0.14948 0.40104
 O157 O 0.34810 0.15072 0.34860
 O158 O 0.40159 0.09748 0.40207
 C159 C 0.37607 0.18791 0.31150
 C160 C 0.31096 0.12251 0.31161
 C161 C 0.31109 0.18778 0.37651
 C162 C 0.37584 0.06043 0.43894
 C163 C 0.43847 0.06058 0.37668
 C164 C 0.43829 0.12329 0.43883
 H165 H 0.41085 0.08751 0.33690
 H166 H 0.41103 0.16260 0.41164
 H167 H 0.33624 0.16251 0.33676
 H168 H 0.33661 0.08725 0.41149
 H169 H 0.33080 0.05007 0.36093
 H170 H 0.29990 0.07843 0.38242
 H171 H 0.45088 0.16826 0.38889
 H172 H 0.42024 0.19721 0.36259
 H173 H 0.36854 0.04972 0.32949
 H174 H 0.36021 0.08133 0.29750
 H175 H 0.38814 0.16822 0.45149
 H176 H 0.36232 0.19713 0.42085
 H177 H 0.42029 0.13670 0.30216
 H178 H 0.45052 0.11060 0.33088
 H179 H 0.30243 0.13809 0.42092
 H180 H 0.33075 0.11012 0.45143
 O181 O 0.12459 0.33629 0.30346
 O182 O 0.09474 0.37492 0.29538
 O183 O 0.19699 0.37590 0.33715
 O184 O 0.20731 0.40274 0.37316
 O185 O 0.16312 0.30267 0.37599
 O186 O 0.12464 0.29495 0.40602
 O187 O 0.12420 0.44661 0.41322
 O188 O 0.15666 0.45384 0.37706
 O189 O 0.05382 0.41322 0.37598
 O190 O 0.04500 0.37375 0.34482
 O191 O 0.08689 0.37598 0.44680
 O192 O 0.12618 0.34473 0.45562
 O193 O 0.12407 0.41336 0.44662
 O194 O 0.15588 0.37372 0.45505
 O195 O 0.05364 0.37605 0.41345
 O196 O 0.04532 0.34420 0.37386
 O197 O 0.08705 0.44644 0.37633
 O198 O 0.12510 0.45481 0.34432
 O199 O 0.12428 0.30293 0.33682
 O200 O 0.09380 0.29537 0.37554
 O201 O 0.19649 0.33580 0.37566
 O202 O 0.20290 0.37441 0.40808
 O203 O 0.16380 0.37522 0.30364
 O204 O 0.12532 0.40560 0.29567
 Zr205 Zr 0.12627 0.37376 0.32570
 O206 O 0.10033 0.39964 0.34930
 Zr207 Zr 0.17470 0.37354 0.37451
 O208 O 0.15102 0.39985 0.40009
 Zr209 Zr 0.12585 0.32513 0.37434
 O210 O 0.10014 0.34902 0.40025
 Zr211 Zr 0.12444 0.42423 0.37587
 O212 O 0.15072 0.40055 0.34995
 Zr213 Zr 0.07579 0.37561 0.37594
 O214 O 0.09928 0.34941 0.34977
 Zr215 Zr 0.12439 0.37570 0.42465
 O216 O 0.15032 0.34918 0.40118
 O217 O 0.15180 0.34789 0.34869
 O218 O 0.09847 0.40161 0.40189
 C219 C 0.12373 0.31095 0.31147
 C220 C 0.18906 0.37629 0.31177
 C221 C 0.18857 0.31039 0.37650
 C222 C 0.12400 0.43867 0.43857
 C223 C 0.06164 0.43865 0.37623
 C224 C 0.06159 0.37616 0.43878
 H225 H 0.08885 0.41092 0.33670
 H226 H 0.08871 0.33653 0.41172
 H227 H 0.16363 0.33607 0.33681
 H228 H 0.16344 0.41155 0.41139
 H229 H 0.17078 0.44777 0.36347
 H230 H 0.20122 0.41922 0.38369
 H231 H 0.04885 0.33097 0.38908
 H232 H 0.07933 0.30187 0.36256
 H233 H 0.11059 0.45030 0.33062
 H234 H 0.13803 0.42024 0.30230
 H235 H 0.11175 0.33084 0.45141
 H236 H 0.13708 0.30161 0.42088
 H237 H 0.07979 0.36263 0.30209
 H238 H 0.04909 0.38831 0.33102
 H239 H 0.19719 0.35966 0.42112
 H240 H 0.16908 0.38894 0.45141
 O241 O 0.62469 0.83622 0.30320
 O242 O 0.59481 0.87480 0.29507
 O243 O 0.69698 0.87591 0.33703
 O244 O 0.70703 0.90297 0.37302
 O245 O 0.66321 0.80269 0.37578
 O246 O 0.62473 0.79480 0.40573
 O247 O 0.62374 0.94643 0.41308
 O248 O 0.65625 0.95381 0.37700
 O249 O 0.55355 0.91284 0.37578
 O250 O 0.54484 0.87347 0.34456
 O251 O 0.58660 0.87568 0.44656
 O252 O 0.62608 0.84445 0.45532
 O253 O 0.62365 0.91315 0.44646
 O254 O 0.65556 0.87368 0.45496
 O255 O 0.55341 0.87564 0.41316
 O256 O 0.54538 0.84371 0.37341
 O257 O 0.58667 0.94617 0.37619
 O258 O 0.62471 0.95470 0.34420
 O259 O 0.62443 0.80285 0.33655
 O260 O 0.59392 0.79516 0.37520
 O261 O 0.69649 0.83591 0.37555
 O262 O 0.70276 0.87451 0.40795
 O263 O 0.66386 0.87520 0.30346
 O264 O 0.62528 0.90560 0.29552
 Zr265 Zr 0.62625 0.87370 0.32547
 O266 O 0.60016 0.89943 0.34908
 Zr267 Zr 0.67459 0.87359 0.37436
 O268 O 0.65076 0.89977 0.39995
 Zr269 Zr 0.62587 0.82502 0.37408
 O270 O 0.60004 0.84878 0.40000
 Zr271 Zr 0.62413 0.92409 0.37571
 O272 O 0.65057 0.90055 0.34979
 Zr273 Zr 0.57565 0.87531 0.37567
 O274 O 0.59928 0.84924 0.34948
 Zr275 Zr 0.62416 0.87551 0.42445
 O276 O 0.65024 0.84913 0.40097
 O277 O 0.65181 0.84788 0.34849
 O278 O 0.59820 0.90135 0.40167
 C279 C 0.62390 0.81088 0.31121
 C280 C 0.68912 0.87628 0.31162
 C281 C 0.68864 0.81048 0.37634
 C282 C 0.62350 0.93847 0.43843
 C283 C 0.56128 0.93829 0.37611
 C284 C 0.56131 0.87579 0.43851
 H285 H 0.58866 0.91070 0.33648
 H286 H 0.58862 0.83623 0.41143
 H287 H 0.66368 0.83609 0.33663
 H288 H 0.66311 0.91151 0.41128
 H289 H 0.67040 0.94782 0.36340
 H290 H 0.70091 0.91935 0.38370
 H291 H 0.54878 0.83060 0.38877
 H292 H 0.57946 0.80161 0.36220
 H293 H 0.61025 0.95014 0.33046
 H294 H 0.63801 0.92022 0.30217
 H295 H 0.61155 0.83063 0.45120
 H296 H 0.63709 0.80151 0.42064
 H297 H 0.57983 0.86253 0.30179
 H298 H 0.54899 0.88798 0.33072
 H299 H 0.69702 0.85980 0.42103
 H300 H 0.66877 0.88888 0.45128
 O301 O 0.62481 0.66280 0.19624
 O302 O 0.59475 0.62445 0.20446
 O303 O 0.69706 0.62268 0.16265
 O304 O 0.70695 0.59542 0.12665
 O305 O 0.66360 0.69605 0.12377
 O306 O 0.62496 0.70390 0.09370
 O307 O 0.62423 0.55258 0.08622
 O308 O 0.65677 0.54550 0.12312
 O309 O 0.55362 0.58614 0.12385
 O310 O 0.54522 0.62529 0.15538
 O311 O 0.58676 0.62348 0.05312
 O312 O 0.62646 0.65484 0.04454
 O313 O 0.62385 0.58595 0.05297
 O314 O 0.65559 0.62523 0.04442
 O315 O 0.55356 0.62356 0.08657
 O316 O 0.54550 0.65522 0.12641
 O317 O 0.58679 0.55267 0.12290
 O318 O 0.62027 0.54391 0.15447
 O319 O 0.62478 0.69609 0.16299
 O320 O 0.59442 0.70399 0.12456
 O321 O 0.69684 0.66259 0.12402
 O322 O 0.70309 0.62362 0.09194
 O323 O 0.66399 0.62425 0.19607
 O324 O 0.62395 0.59397 0.20479
 Zr325 Zr 0.62633 0.62523 0.17415
 O326 O 0.60044 0.59942 0.15045
 Zr327 Zr 0.67471 0.62502 0.12535
 O328 O 0.65088 0.59911 0.09955
 Zr329 Zr 0.62616 0.67386 0.12551
 O330 O 0.60023 0.65019 0.09969
 Zr331 Zr 0.62419 0.57479 0.12366
 O332 O 0.65060 0.59806 0.14998
 Zr333 Zr 0.57581 0.62364 0.12401
 O334 O 0.59946 0.64974 0.15012
 Zr335 Zr 0.62434 0.62350 0.07513
 O336 O 0.65054 0.64964 0.09869
 O337 O 0.65198 0.65092 0.15113
 O338 O 0.59832 0.59767 0.09783
 C339 C 0.62415 0.68825 0.18843
 C340 C 0.68935 0.62279 0.18815
 C341 C 0.68890 0.68795 0.12319
 C342 C 0.62390 0.56059 0.06089
 C343 C 0.56151 0.56078 0.12324
 C344 C 0.56147 0.62347 0.06121
 H345 H 0.58927 0.58775 0.16302
 H346 H 0.58882 0.66279 0.08831
 H347 H 0.66387 0.66271 0.16294
 H348 H 0.66326 0.58739 0.08820
 H349 H 0.66924 0.55021 0.13870
 H350 H 0.70010 0.57858 0.11725
 H351 H 0.54910 0.66854 0.11127
 H352 H 0.57982 0.69749 0.13740
 H353 H 0.63165 0.55000 0.17031
 H354 H 0.64013 0.58165 0.20229
 H355 H 0.61156 0.66836 0.04838
 H356 H 0.63758 0.69729 0.07895
 H357 H 0.57998 0.63700 0.19782
 H358 H 0.54960 0.61080 0.16917
 H359 H 0.69744 0.63820 0.07869
 H360 H 0.66900 0.61025 0.04827
 O361 O 0.37530 0.83743 0.69679
 O362 O 0.40518 0.87608 0.70469
 O363 O 0.30286 0.87698 0.66311
 O364 O 0.29263 0.90389 0.62708
 O365 O 0.33664 0.80355 0.62434
 O366 O 0.37514 0.79572 0.59429
 O367 O 0.37572 0.94725 0.58656
 O368 O 0.34337 0.95483 0.62268
 O369 O 0.44618 0.91389 0.62388
 O370 O 0.45485 0.87446 0.65521
 O371 O 0.41291 0.87649 0.55327
 O372 O 0.37349 0.84521 0.54465
 O373 O 0.37583 0.91390 0.55339
 O374 O 0.34399 0.87440 0.54502
 O375 O 0.44613 0.87655 0.58649
 O376 O 0.45457 0.84491 0.62614
 O377 O 0.41292 0.94728 0.62348
 O378 O 0.37484 0.95577 0.65552
 O379 O 0.37553 0.80393 0.66353
 O380 O 0.40596 0.79614 0.62485
 O381 O 0.30321 0.83681 0.62460
 O382 O 0.29690 0.87536 0.59213
 O383 O 0.33610 0.87640 0.69656
 O384 O 0.37462 0.90682 0.70431
 Zr385 Zr 0.37362 0.87483 0.67441
 O386 O 0.39958 0.90054 0.65066
 Zr387 Zr 0.32511 0.87452 0.62569
 O388 O 0.34883 0.90065 0.59997
 Zr389 Zr 0.37394 0.82597 0.62594
 O390 O 0.39966 0.84969 0.59990
 Zr391 Zr 0.37550 0.92510 0.62403
 O392 O 0.34919 0.90159 0.65009
 Zr393 Zr 0.42408 0.87634 0.62407
 O394 O 0.40057 0.85032 0.65038
 Zr395 Zr 0.37543 0.87634 0.57549
 O396 O 0.34946 0.85000 0.59907
 O397 O 0.34803 0.84891 0.65154
 O398 O 0.40142 0.90230 0.59807
 C399 C 0.37612 0.81205 0.68886
 C400 C 0.31081 0.87745 0.68848
 C401 C 0.31130 0.81150 0.62381
 C402 C 0.37591 0.93936 0.56113
 C403 C 0.43822 0.93924 0.62356
 C404 C 0.43833 0.87660 0.56105
 H405 H 0.41109 0.91185 0.66322
 H406 H 0.41107 0.83714 0.58844
 H407 H 0.33622 0.83716 0.66347
 H408 H 0.33644 0.91234 0.58863
 H409 H 0.32920 0.94886 0.63625
 H410 H 0.29867 0.92023 0.61632
 H411 H 0.45097 0.83161 0.61097
 H412 H 0.42048 0.80274 0.63772
 H413 H 0.38932 0.95125 0.66926
 H414 H 0.36184 0.92141 0.69769
 H415 H 0.38815 0.83149 0.54866
 H416 H 0.36276 0.80241 0.57939
 H417 H 0.42010 0.86369 0.69802
 H418 H 0.45080 0.88911 0.66896
 H419 H 0.30268 0.86066 0.57904
 H420 H 0.33081 0.88966 0.54863
 O421 O 0.87550 0.33694 0.69651
 O422 O 0.90533 0.37548 0.70467
 O423 O 0.80315 0.37663 0.66285
 O424 O 0.79289 0.40347 0.62683
 O425 O 0.83696 0.30320 0.62406
 O426 O 0.87553 0.29545 0.59402
 O427 O 0.87611 0.44694 0.58667
 O428 O 0.84374 0.45451 0.62271
 O429 O 0.94649 0.41353 0.62393
 O430 O 0.95507 0.37400 0.65532
 O431 O 0.91330 0.37630 0.55329
 O432 O 0.87394 0.34501 0.54451
 O433 O 0.87628 0.41365 0.55343
 O434 O 0.84443 0.37421 0.54489
 O435 O 0.94648 0.37628 0.58655
 O436 O 0.95492 0.34458 0.62609
 O437 O 0.91324 0.44692 0.62353
 O438 O 0.87508 0.45528 0.65569
 O439 O 0.87578 0.30358 0.66327
 O440 O 0.90619 0.29573 0.62469
 O441 O 0.80353 0.33647 0.62433
 O442 O 0.79730 0.37509 0.59186
 O443 O 0.83635 0.37595 0.69635
 O444 O 0.87489 0.40628 0.70427
 Zr445 Zr 0.87388 0.37438 0.67427
 O446 O 0.89989 0.40014 0.65067
 Zr447 Zr 0.82543 0.37416 0.62549
 O448 O 0.84919 0.40036 0.59989
 Zr449 Zr 0.87425 0.32563 0.62573
 O450 O 0.90002 0.34939 0.59981
 Zr451 Zr 0.87582 0.42474 0.62407
 O452 O 0.84946 0.40118 0.65000
 Zr453 Zr 0.92440 0.37598 0.62408
 O454 O 0.90085 0.34990 0.65027
 Zr455 Zr 0.87581 0.37607 0.57542
 O456 O 0.84980 0.34968 0.59887
 O457 O 0.84831 0.34851 0.65133
 O458 O 0.90176 0.40197 0.59811
 C459 C 0.87634 0.31148 0.68871
 C460 C 0.81108 0.37706 0.68823
 C461 C 0.81162 0.31116 0.62351
 C462 C 0.87637 0.43909 0.56123
 C463 C 0.93853 0.43888 0.62359
 C464 C 0.93871 0.37641 0.56111
 H465 H 0.91137 0.41142 0.66327
 H466 H 0.91144 0.33685 0.58834
 H467 H 0.83648 0.33674 0.66323
 H468 H 0.83681 0.41207 0.58856
 H469 H 0.82950 0.44850 0.63620
 H470 H 0.79899 0.41989 0.61624
 H471 H 0.95127 0.33124 0.61098
 H472 H 0.92074 0.30230 0.63753
 H473 H 0.88974 0.45090 0.66927
 H474 H 0.86217 0.42092 0.69765
 H475 H 0.88859 0.33128 0.54851
 H476 H 0.86313 0.30213 0.57913
 H477 H 0.92029 0.36315 0.69798
 H478 H 0.95108 0.38872 0.66900
 H479 H 0.80305 0.36035 0.57880
 H480 H 0.83125 0.38947 0.54850
 O481 O 0.80367 0.87523 0.16315
 O482 O 0.79540 0.90530 0.12471
 O483 O 0.83697 0.80281 0.12292
 O484 O 0.87281 0.79281 0.09556
 O485 O 0.87610 0.83631 0.19606
 O486 O 0.90619 0.87485 0.20388
 O487 O 0.91322 0.87544 0.05242
 O488 O 0.87611 0.84293 0.04556
 O489 O 0.87585 0.94615 0.08608
 O490 O 0.84469 0.95486 0.12520
 O491 O 0.94661 0.91293 0.12313
 O492 O 0.95524 0.87329 0.15453
 O493 O 0.94655 0.87577 0.08568
 O494 O 0.95510 0.84399 0.12504
 O495 O 0.91326 0.94622 0.12328
 O496 O 0.87353 0.95432 0.15524
 O497 O 0.87667 0.91301 0.05270
 O498 O 0.84515 0.87964 0.04388
 O499 O 0.83703 0.87520 0.19630
 O500 O 0.87554 0.90557 0.20394
 O501 O 0.87565 0.80309 0.16270
 O502 O 0.90752 0.79663 0.12363
 O503 O 0.80362 0.83594 0.12458
 O504 O 0.79484 0.87595 0.09432
 Zr505 Zr 0.82559 0.87360 0.12545
 O506 O 0.84924 0.89942 0.09951
 Zr507 Zr 0.87425 0.82514 0.12509
 O508 O 0.90000 0.84886 0.09904
 Zr509 Zr 0.87436 0.87375 0.17388
 O510 O 0.90016 0.89959 0.15009
 Zr511 Zr 0.87588 0.87560 0.07480
 O512 O 0.84960 0.84927 0.09819
 Zr513 Zr 0.87581 0.92403 0.12359
 O514 O 0.84974 0.90048 0.14983
 Zr515 Zr 0.92454 0.87538 0.12333
 O516 O 0.90103 0.84927 0.14960
 O517 O 0.84863 0.84794 0.15108
 O518 O 0.90183 0.90145 0.09755
 C519 C 0.81158 0.87588 0.18858
 C520 C 0.81151 0.81055 0.12311
 C521 C 0.87657 0.81088 0.18816
 C522 C 0.93856 0.87572 0.06034
 C523 C 0.87638 0.93842 0.06061
 C524 C 0.93858 0.93825 0.12308
 H525 H 0.83668 0.91062 0.08785
 H526 H 0.91159 0.91101 0.16263
 H527 H 0.83686 0.83607 0.16294
 H528 H 0.91125 0.83642 0.08729
 H529 H 0.86045 0.83059 0.05032
 H530 H 0.88203 0.79967 0.07862
 H531 H 0.88886 0.95087 0.16836
 H532 H 0.86266 0.92017 0.19752
 H533 H 0.82911 0.86869 0.05020
 H534 H 0.79734 0.85980 0.08195
 H535 H 0.95141 0.88815 0.16812
 H536 H 0.92090 0.86223 0.19720
 H537 H 0.80211 0.92007 0.13724
 H538 H 0.83071 0.95034 0.11095
 H539 H 0.92080 0.80223 0.13819
 H540 H 0.95120 0.83060 0.11003
 O541 O 0.37581 0.33600 0.19657
 O542 O 0.40598 0.37437 0.20462
 O543 O 0.30346 0.37615 0.16341
 O544 O 0.29322 0.40318 0.12745
 O545 O 0.33687 0.30273 0.12421
 O546 O 0.37541 0.29498 0.09396
 O547 O 0.37569 0.44640 0.08677
 O548 O 0.34333 0.45330 0.12399
 O549 O 0.44651 0.41293 0.12391
 O550 O 0.45524 0.37381 0.15525
 O551 O 0.41319 0.37567 0.05329
 O552 O 0.37365 0.34425 0.04476
 O553 O 0.37598 0.41307 0.05343
 O554 O 0.34424 0.37359 0.04506
 O555 O 0.44652 0.37560 0.08657
 O556 O 0.45485 0.34388 0.12626
 O557 O 0.41336 0.44625 0.12315
 O558 O 0.38008 0.45503 0.15491
 O559 O 0.37578 0.30274 0.16326
 O560 O 0.40612 0.29502 0.12464
 O561 O 0.30356 0.33612 0.12475
 O562 O 0.29711 0.37513 0.09273
 O563 O 0.33667 0.37458 0.19666
 O564 O 0.37669 0.40478 0.20528
 Zr565 Zr 0.37421 0.37360 0.17454
 O566 O 0.39991 0.39951 0.15075
 Zr567 Zr 0.32562 0.37374 0.12600
 O568 O 0.34925 0.39977 0.10013
 Zr569 Zr 0.37426 0.32502 0.12582
 O570 O 0.39999 0.34880 0.09987
 Zr571 Zr 0.37600 0.42410 0.12415
 O572 O 0.34977 0.40073 0.15056
 Zr573 Zr 0.42445 0.37538 0.12412
 O574 O 0.40102 0.34917 0.15031
 Zr575 Zr 0.37571 0.37547 0.07550
 O576 O 0.34972 0.34921 0.09916
 O577 O 0.34851 0.34788 0.15161
 O578 O 0.40178 0.40132 0.09811
 C579 C 0.37644 0.31055 0.18872
 C580 C 0.31128 0.37607 0.18886
 C581 C 0.31155 0.31077 0.12381
 C582 C 0.37590 0.43841 0.06142
 C583 C 0.43876 0.43838 0.12335
 C584 C 0.43850 0.37575 0.06125
 H585 H 0.41113 0.41121 0.16327
 H586 H 0.41139 0.33625 0.08840
 H587 H 0.33667 0.33608 0.16347
 H588 H 0.33677 0.41147 0.08889
 H589 H 0.33102 0.44855 0.13969
 H590 H 0.30010 0.42016 0.11833
 H591 H 0.45122 0.33057 0.11111
 H592 H 0.42070 0.30151 0.13749
 H593 H 0.36900 0.44884 0.17093
 H594 H 0.36056 0.41716 0.20284
 H595 H 0.38848 0.33066 0.04861
 H596 H 0.36278 0.30162 0.07925
 H597 H 0.42070 0.36180 0.19787
 H598 H 0.45088 0.38825 0.16912
 H599 H 0.30267 0.36050 0.07948
 H600 H 0.33091 0.38866 0.04891
 O601 O 0.37522 0.66394 0.80375
 O602 O 0.40516 0.62543 0.79553
 O603 O 0.30290 0.62409 0.83729
 O604 O 0.29263 0.59716 0.87327
 O605 O 0.33653 0.69746 0.87626
 O606 O 0.37503 0.70510 0.90639
 O607 O 0.37582 0.55354 0.91332
 O608 O 0.34354 0.54610 0.87723
 O609 O 0.44627 0.58711 0.87610
 O610 O 0.45478 0.62678 0.84485
 O611 O 0.41295 0.62412 0.94690
 O612 O 0.37357 0.65532 0.95581
 O613 O 0.37589 0.58672 0.94667
 O614 O 0.34401 0.62621 0.95527
 O615 O 0.44615 0.62427 0.91363
 O616 O 0.45461 0.65606 0.87422
 O617 O 0.41306 0.55371 0.87643
 O618 O 0.37492 0.54544 0.84426
 O619 O 0.37542 0.69721 0.83708
 O620 O 0.40580 0.70492 0.87573
 O621 O 0.30315 0.66419 0.87589
 O622 O 0.29696 0.62549 0.90831
 O623 O 0.33614 0.62489 0.80381
 O624 O 0.37473 0.59462 0.79581
 Zr625 Zr 0.37364 0.62642 0.82590
 O626 O 0.39964 0.60058 0.84944
 Zr627 Zr 0.32512 0.62648 0.87468
 O628 O 0.34889 0.60020 0.90021
 Zr629 Zr 0.37387 0.67503 0.87458
 O630 O 0.39964 0.65118 0.90044
 Zr631 Zr 0.37559 0.57589 0.87598
 O632 O 0.34923 0.59954 0.85011
 Zr633 Zr 0.42410 0.62466 0.87610
 O634 O 0.40055 0.65083 0.84999
 Zr635 Zr 0.37546 0.62440 0.92477
 O636 O 0.34944 0.65087 0.90138
 O637 O 0.34800 0.65221 0.84891
 O638 O 0.40148 0.59857 0.90201
 C639 C 0.37600 0.68939 0.81161
 C640 C 0.31086 0.62374 0.81191
 C641 C 0.31119 0.68951 0.87674
 C642 C 0.37599 0.56129 0.93880
 C643 C 0.43835 0.56176 0.87636
 C644 C 0.43837 0.62405 0.93907
 H645 H 0.41116 0.58934 0.83681
 H646 H 0.41103 0.66368 0.91194
 H647 H 0.33617 0.66400 0.83703
 H648 H 0.33652 0.58846 0.91150
 H649 H 0.32931 0.55217 0.86378
 H650 H 0.29874 0.58072 0.88383
 H651 H 0.45086 0.66940 0.88932
 H652 H 0.42035 0.69839 0.86283
 H653 H 0.38959 0.54987 0.83070
 H654 H 0.36204 0.57994 0.80240
 H655 H 0.38811 0.66915 0.95176
 H656 H 0.36260 0.69837 0.92124
 H657 H 0.42005 0.63780 0.80223
 H658 H 0.45084 0.61209 0.83113
 H659 H 0.30266 0.64022 0.92139
 H660 H 0.33085 0.61096 0.95162
 O661 O 0.12395 0.66380 0.69677
 O662 O 0.09386 0.62537 0.70479
 O663 O 0.19645 0.62370 0.66353
 O664 O 0.20661 0.59652 0.62759
 O665 O 0.16312 0.69695 0.62438
 O666 O 0.12469 0.70478 0.59412
 O667 O 0.12414 0.55348 0.58685
 O668 O 0.15649 0.54646 0.62397
 O669 O 0.05337 0.58689 0.62398
 O670 O 0.04460 0.62605 0.65536
 O671 O 0.08678 0.62406 0.55348
 O672 O 0.12633 0.65552 0.54495
 O673 O 0.12389 0.58673 0.55362
 O674 O 0.15566 0.62609 0.54516
 O675 O 0.05348 0.62411 0.58666
 O676 O 0.04504 0.65593 0.62637
 O677 O 0.08652 0.55357 0.62322
 O678 O 0.11976 0.54479 0.65499
 O679 O 0.12405 0.69711 0.66337
 O680 O 0.09385 0.70478 0.62471
 O681 O 0.19631 0.66361 0.62492
 O682 O 0.20285 0.62463 0.59290
 O683 O 0.16322 0.62523 0.69681
 O684 O 0.12318 0.59499 0.70540
 Zr685 Zr 0.12566 0.62620 0.67471
 O686 O 0.09994 0.60031 0.65089
 Zr687 Zr 0.17427 0.62601 0.62615
 O688 O 0.15066 0.60000 0.60025
 Zr689 Zr 0.12568 0.67476 0.62596
 O690 O 0.09993 0.65101 0.60002
 Zr691 Zr 0.12387 0.57571 0.62426
 O692 O 0.15010 0.59904 0.65069
 Zr693 Zr 0.07546 0.62443 0.62425
 O694 O 0.09889 0.65062 0.65046
 Zr695 Zr 0.12422 0.62432 0.57568
 O696 O 0.15024 0.65055 0.59931
 O697 O 0.15138 0.65190 0.65177
 O698 O 0.09812 0.59847 0.59824
 C699 C 0.12329 0.68913 0.68872
 C700 C 0.18862 0.62378 0.68899
 C701 C 0.18854 0.68907 0.62400
 C702 C 0.12392 0.56129 0.56141
 C703 C 0.06112 0.56143 0.62339
 C704 C 0.06134 0.62393 0.56123
 H705 H 0.08870 0.58862 0.66339
 H706 H 0.08854 0.66354 0.58855
 H707 H 0.16321 0.66372 0.66362
 H708 H 0.16312 0.58828 0.58899
 H709 H 0.16883 0.55118 0.63965
 H710 H 0.19978 0.57959 0.61833
 H711 H 0.04854 0.66909 0.61106
 H712 H 0.07915 0.69821 0.63739
 H713 H 0.13090 0.55094 0.67098
 H714 H 0.13932 0.58262 0.70293
 H715 H 0.11142 0.66905 0.54872
 H716 H 0.13732 0.69809 0.57941
 H717 H 0.07908 0.63782 0.69798
 H718 H 0.04887 0.61154 0.66917
 H719 H 0.19727 0.63922 0.57962
 H720 H 0.16899 0.61104 0.54902
 O721 O 0.12422 0.16295 0.19644
 O722 O 0.09409 0.12459 0.20447
 O723 O 0.19662 0.12287 0.16316
 O724 O 0.20679 0.09579 0.12713
 O725 O 0.16331 0.19624 0.12422
 O726 O 0.12488 0.20414 0.09397
 O727 O 0.12424 0.05280 0.08636
 O728 O 0.15663 0.04574 0.12348
 O729 O 0.05350 0.08625 0.12359
 O730 O 0.04478 0.12532 0.15504
 O731 O 0.08691 0.12364 0.05314
 O732 O 0.12649 0.15498 0.04465
 O733 O 0.12402 0.08619 0.05313
 O734 O 0.15584 0.12558 0.04483
 O735 O 0.05363 0.12358 0.08635
 O736 O 0.04526 0.15530 0.12614
 O737 O 0.08662 0.05290 0.12283
 O738 O 0.11991 0.04401 0.15449
 O739 O 0.12433 0.19626 0.16320
 O740 O 0.09410 0.20410 0.12462
 O741 O 0.19650 0.16290 0.12464
 O742 O 0.20302 0.12396 0.09252
 O743 O 0.16340 0.12437 0.19644
 O744 O 0.12333 0.09413 0.20497
 Zr745 Zr 0.12585 0.12539 0.17434
 O746 O 0.10011 0.09957 0.15049
 Zr747 Zr 0.17445 0.12528 0.12578
 O748 O 0.15080 0.09934 0.09984
 Zr749 Zr 0.12588 0.17404 0.12573
 O750 O 0.10011 0.15037 0.09974
 Zr751 Zr 0.12401 0.07500 0.12381
 O752 O 0.15026 0.09827 0.15027
 Zr753 Zr 0.07563 0.12376 0.12392
 O754 O 0.09908 0.14988 0.15018
 Zr755 Zr 0.12438 0.12372 0.07531
 O756 O 0.15042 0.14989 0.09900
 O757 O 0.15159 0.15112 0.15147
 O758 O 0.09827 0.09784 0.09784
 C759 C 0.12362 0.18841 0.18864
 C760 C 0.18879 0.12293 0.18862
 C761 C 0.18873 0.18836 0.12381
 C762 C 0.12403 0.06083 0.06103
 C763 C 0.06122 0.06079 0.12302
 C764 C 0.06148 0.12352 0.06092
 H765 H 0.08887 0.08786 0.16298
 H766 H 0.08874 0.16295 0.08831
 H767 H 0.16342 0.16291 0.16334
 H768 H 0.16326 0.08764 0.08856
 H769 H 0.16897 0.05044 0.13916
 H770 H 0.19993 0.07886 0.11789
 H771 H 0.04880 0.16852 0.11091
 H772 H 0.07943 0.19756 0.13736
 H773 H 0.13102 0.05016 0.17050
 H774 H 0.13949 0.08178 0.20250
 H775 H 0.11168 0.16858 0.04853
 H776 H 0.13753 0.19752 0.07925
 H777 H 0.07934 0.13711 0.19772
 H778 H 0.04912 0.11087 0.16888
 H779 H 0.19748 0.13862 0.07930
 H780 H 0.16919 0.11053 0.04867
 O781 O 0.69658 0.37637 0.83647
 O782 O 0.70471 0.40633 0.87495
 O783 O 0.66348 0.30378 0.87639
 O784 O 0.62758 0.29366 0.90364
 O785 O 0.62436 0.33733 0.80315
 O786 O 0.59409 0.37591 0.79552
 O787 O 0.58681 0.37616 0.94679
 O788 O 0.62388 0.34377 0.95379
 O789 O 0.62397 0.44700 0.91358
 O790 O 0.65528 0.45580 0.87444
 O791 O 0.55351 0.41370 0.87624
 O792 O 0.54510 0.37409 0.84462
 O793 O 0.55366 0.37649 0.91349
 O794 O 0.54513 0.34486 0.87413
 O795 O 0.58665 0.44700 0.87629
 O796 O 0.62638 0.45540 0.84450
 O797 O 0.62319 0.41378 0.94683
 O798 O 0.65489 0.38045 0.95553
 O799 O 0.66331 0.37638 0.80323
 O800 O 0.62480 0.40658 0.79548
 O801 O 0.62484 0.30397 0.83649
 O802 O 0.59288 0.29747 0.87551
 O803 O 0.69671 0.33700 0.87490
 O804 O 0.70520 0.37701 0.90535
 Zr805 Zr 0.67459 0.37461 0.87409
 O806 O 0.65081 0.40037 0.90003
 Zr807 Zr 0.62611 0.32601 0.87416
 O808 O 0.60023 0.34967 0.90020
 Zr809 Zr 0.62594 0.37474 0.82551
 O810 O 0.60003 0.40053 0.84930
 Zr811 Zr 0.62420 0.37642 0.92457
 O812 O 0.65060 0.35015 0.90120
 Zr813 Zr 0.62421 0.42495 0.87597
 O814 O 0.65039 0.40148 0.84973
 Zr815 Zr 0.57570 0.37620 0.87592
 O816 O 0.59931 0.35015 0.84966
 O817 O 0.65170 0.34894 0.84831
 O818 O 0.59821 0.40226 0.90186
 C819 C 0.68873 0.37709 0.81104
 C820 C 0.68891 0.31158 0.87628
 C821 C 0.62393 0.31199 0.81115
 C822 C 0.56141 0.37640 0.93894
 C823 C 0.62340 0.43921 0.93902
 C824 C 0.56124 0.43916 0.87641
 H825 H 0.66330 0.41158 0.91175
 H826 H 0.58857 0.41195 0.83678
 H827 H 0.66355 0.33713 0.83645
 H828 H 0.58897 0.33721 0.91189
 H829 H 0.63953 0.33140 0.94905
 H830 H 0.61827 0.30048 0.92056
 H831 H 0.61109 0.45194 0.83133
 H832 H 0.63740 0.42130 0.80213
 H833 H 0.67086 0.36930 0.94934
 H834 H 0.70278 0.36078 0.91762
 H835 H 0.54873 0.38917 0.83125
 H836 H 0.57942 0.36323 0.80213
 H837 H 0.69792 0.42118 0.86257
 H838 H 0.66913 0.45141 0.88886
 H839 H 0.57958 0.30313 0.86099
 H840 H 0.54905 0.33141 0.88906
 O841 O 0.12373 0.83731 0.80356
 O842 O 0.09362 0.87569 0.79545
 O843 O 0.19604 0.87739 0.83692
 O844 O 0.20599 0.90459 0.87294
 O845 O 0.16269 0.80407 0.87588
 O846 O 0.12413 0.79623 0.90609
 O847 O 0.12341 0.94748 0.91360
 O848 O 0.15579 0.95458 0.87653
 O849 O 0.05272 0.91412 0.87623
 O850 O 0.04416 0.87500 0.84474
 O851 O 0.08590 0.87674 0.94677
 O852 O 0.12555 0.84532 0.95527
 O853 O 0.12306 0.91417 0.94677
 O854 O 0.15471 0.87486 0.95532
 O855 O 0.05273 0.87671 0.91349
 O856 O 0.04450 0.84507 0.87368
 O857 O 0.08583 0.94745 0.87714
 O858 O 0.11916 0.95628 0.84547
 O859 O 0.12379 0.80403 0.83683
 O860 O 0.09350 0.79617 0.87533
 O861 O 0.19584 0.83743 0.87550
 O862 O 0.20221 0.87636 0.90758
 O863 O 0.16291 0.87589 0.80359
 O864 O 0.12285 0.90614 0.79499
 Zr865 Zr 0.12528 0.87489 0.82564
 O866 O 0.09943 0.90074 0.84942
 Zr867 Zr 0.17374 0.87503 0.87428
 O868 O 0.14996 0.90097 0.90017
 Zr869 Zr 0.12522 0.82628 0.87428
 O870 O 0.09931 0.84996 0.90018
 Zr871 Zr 0.12322 0.92530 0.87615
 O872 O 0.14959 0.90203 0.84974
 Zr873 Zr 0.07487 0.87658 0.87596
 O874 O 0.09846 0.85043 0.84978
 Zr875 Zr 0.12346 0.87662 0.92465
 O876 O 0.14964 0.85046 0.90104
 O877 O 0.15098 0.84917 0.84857
 O878 O 0.09739 0.90250 0.90208
 C879 C 0.12312 0.81186 0.81138
 C880 C 0.18828 0.87732 0.81144
 C881 C 0.18811 0.81196 0.87634
 C882 C 0.12315 0.93963 0.93903
 C883 C 0.06043 0.93959 0.87687
 C884 C 0.06048 0.87679 0.93894
 H885 H 0.08823 0.91245 0.83691
 H886 H 0.08790 0.83739 0.91160
 H887 H 0.16286 0.83737 0.83672
 H888 H 0.16237 0.91267 0.91148
 H889 H 0.16819 0.94987 0.86088
 H890 H 0.19910 0.92147 0.88227
 H891 H 0.04807 0.83179 0.88885
 H892 H 0.07882 0.80274 0.86263
 H893 H 0.13032 0.95013 0.82947
 H894 H 0.13898 0.91850 0.79750
 H895 H 0.11065 0.83181 0.95147
 H896 H 0.13678 0.80284 0.92080
 H897 H 0.07884 0.86320 0.80219
 H898 H 0.04849 0.88951 0.83096
 H899 H 0.19659 0.86178 0.92084
 H900 H 0.16817 0.88976 0.95138
 O901 O 0.69646 0.12420 0.66339
 O902 O 0.70450 0.09406 0.62497
 O903 O 0.66337 0.19670 0.62339
 O904 O 0.62749 0.20687 0.59618
 O905 O 0.62432 0.16345 0.69668
 O906 O 0.59404 0.12500 0.70455
 O907 O 0.58663 0.12430 0.55322
 O908 O 0.62371 0.15667 0.54611
 O909 O 0.62371 0.05352 0.58656
 O910 O 0.65505 0.04476 0.62568
 O911 O 0.55333 0.08707 0.62391
 O912 O 0.54491 0.12670 0.65541
 O913 O 0.55348 0.12414 0.58657
 O914 O 0.54508 0.15598 0.62593
 O915 O 0.58644 0.05371 0.62387
 O916 O 0.62611 0.04526 0.65564
 O917 O 0.62295 0.08667 0.55323
 O918 O 0.65471 0.11992 0.54440
 O919 O 0.66321 0.12438 0.69670
 O920 O 0.62464 0.09419 0.70453
 O921 O 0.62481 0.19664 0.66333
 O922 O 0.59283 0.20319 0.62438
 O923 O 0.69657 0.16342 0.62486
 O924 O 0.70506 0.12333 0.59452
 Zr925 Zr 0.67444 0.12586 0.62580
 O926 O 0.65062 0.10012 0.59994
 Zr927 Zr 0.62600 0.17456 0.62570
 O928 O 0.60009 0.15092 0.59973
 Zr929 Zr 0.62582 0.12597 0.67445
 O930 O 0.59986 0.10020 0.65076
 Zr931 Zr 0.62402 0.12407 0.57539
 O932 O 0.65047 0.15032 0.59868
 Zr933 Zr 0.62401 0.07566 0.62412
 O934 O 0.65024 0.09911 0.65027
 Zr935 Zr 0.57555 0.12451 0.62412
 O936 O 0.59919 0.15056 0.65031
 O937 O 0.65159 0.15165 0.65155
 O938 O 0.59803 0.09834 0.59821
 C939 C 0.68863 0.12362 0.68885
 C940 C 0.68880 0.18884 0.62347
 C941 C 0.62394 0.18888 0.68880
 C942 C 0.56122 0.12410 0.56110
 C943 C 0.62312 0.06125 0.56110
 C944 C 0.56104 0.06160 0.62375
 H945 H 0.66309 0.08885 0.58823
 H946 H 0.58840 0.08883 0.66332
 H947 H 0.66345 0.16348 0.66336
 H948 H 0.58884 0.16338 0.58803
 H949 H 0.63937 0.16902 0.55081
 H950 H 0.61818 0.20004 0.57928
 H951 H 0.61088 0.04882 0.66886
 H952 H 0.63730 0.07947 0.69794
 H953 H 0.67068 0.13108 0.55053
 H954 H 0.70263 0.13951 0.58219
 H955 H 0.54865 0.11177 0.66891
 H956 H 0.57936 0.13768 0.69793
 H957 H 0.69772 0.07929 0.63746
 H958 H 0.66889 0.04907 0.61121
 H959 H 0.57956 0.19763 0.63899
 H960 H 0.54894 0.16932 0.61087
 C961 C 0.37774 0.75241 0.74867
 C962 C 0.37754 0.72442 0.74119
 C963 C 0.37718 0.70390 0.76162
 C964 C 0.37704 0.79113 0.70992
 C965 C 0.37736 0.73937 0.79717
 C966 C 0.37772 0.75984 0.77669
 C967 C 0.37751 0.77350 0.72760
 C968 C 0.37699 0.71112 0.78990
 H969 H 0.37752 0.71844 0.71955
 H970 H 0.37690 0.68241 0.75523
 H971 H 0.37722 0.74572 0.81869
 H972 H 0.37784 0.78145 0.78271
 C973 C 0.37784 0.24760 0.25173
 C974 C 0.37810 0.24014 0.22372
 C975 C 0.37786 0.26058 0.20321
 C976 C 0.37700 0.20889 0.29049
 C977 C 0.37723 0.29609 0.23872
 C978 C 0.37747 0.27560 0.25918
 C979 C 0.37752 0.22653 0.27282
 C980 C 0.37733 0.28884 0.21045
 H981 H 0.37835 0.21852 0.21772
 H982 H 0.37793 0.25422 0.18169
 H983 H 0.37680 0.31759 0.24508
 H984 H 0.37723 0.28160 0.28080
 C985 C 0.62249 0.75119 0.25146
 C986 C 0.62219 0.75864 0.22346
 C987 C 0.62256 0.73820 0.20294
 C988 C 0.62307 0.78991 0.29020
 C989 C 0.62338 0.70270 0.23843
 C990 C 0.62302 0.72320 0.25890
 C991 C 0.62266 0.77226 0.27254
 C992 C 0.62324 0.70995 0.21018
 H993 H 0.62182 0.78026 0.21748
 H994 H 0.62243 0.74456 0.18144
 H995 H 0.62393 0.68121 0.24478
 H996 H 0.62330 0.71721 0.28053
 C997 C 0.12205 0.25130 0.25170
 C998 C 0.12217 0.25878 0.22371
 C999 C 0.12248 0.23836 0.20317
 C1000 C 0.12281 0.28998 0.29047
 C1001 C 0.12242 0.20282 0.23864
 C1002 C 0.12211 0.22330 0.25912
 C1003 C 0.12232 0.27234 0.27280
 C1004 C 0.12269 0.21010 0.21039
 H1005 H 0.12218 0.28041 0.21774
 H1006 H 0.12271 0.24473 0.18167
 H1007 H 0.12260 0.18131 0.24497
 H1008 H 0.12207 0.21729 0.28074
 C1009 C 0.12163 0.74889 0.74840
 C1010 C 0.12170 0.77688 0.74094
 C1011 C 0.12200 0.79738 0.76140
 C1012 C 0.12237 0.71014 0.70968
 C1013 C 0.12202 0.76190 0.79691
 C1014 C 0.12173 0.74145 0.77640
 C1015 C 0.12189 0.72781 0.72732
 C1016 C 0.12224 0.79015 0.78966
 H1017 H 0.12167 0.78286 0.71931
 H1018 H 0.12218 0.81888 0.75504
 H1019 H 0.12223 0.75554 0.81841
 H1020 H 0.12172 0.71983 0.78239
 C1021 C 0.87823 0.24863 0.75169
 C1022 C 0.87829 0.24115 0.72369
 C1023 C 0.87788 0.26156 0.70319
 C1024 C 0.87757 0.20992 0.79036
 C1025 C 0.87749 0.29710 0.73870
 C1026 C 0.87791 0.27662 0.75915
 C1027 C 0.87803 0.22758 0.77274
 C1028 C 0.87737 0.28981 0.71044
 H1029 H 0.87850 0.21952 0.71771
 H1030 H 0.87780 0.25518 0.68169
 H1031 H 0.87711 0.31860 0.74505
 H1032 H 0.87782 0.28262 0.78078
 C1033 C 0.75149 0.37898 0.74795
 C1034 C 0.72351 0.37928 0.74056
 C1035 C 0.70307 0.37888 0.76106
 C1036 C 0.79009 0.37814 0.70916
 C1037 C 0.73862 0.37803 0.79648
 C1038 C 0.75900 0.37843 0.77592
 C1039 C 0.77247 0.37870 0.72683
 C1040 C 0.71038 0.37815 0.78929
 H1041 H 0.71748 0.37966 0.71895
 H1042 H 0.68157 0.37899 0.75475
 H1043 H 0.74502 0.37744 0.81796
 H1044 H 0.78062 0.37813 0.78185
 C1045 C 0.25132 0.62195 0.75212
 C1046 C 0.25887 0.62187 0.72413
 C1047 C 0.23851 0.62226 0.70357
 C1048 C 0.28988 0.62271 0.79095
 C1049 C 0.20292 0.62267 0.73899
 C1050 C 0.22333 0.62228 0.75950
 C1051 C 0.27230 0.62219 0.77326
 C1052 C 0.21026 0.62276 0.71075
 H1053 H 0.28049 0.62167 0.71820
 H1054 H 0.24493 0.62235 0.68207
 H1055 H 0.18142 0.62305 0.74530
 H1056 H 0.21727 0.62239 0.78111
 C1057 C 0.25146 0.12098 0.25178
 C1058 C 0.25901 0.12057 0.22380
 C1059 C 0.23866 0.12101 0.20322
 C1060 C 0.29000 0.12159 0.29063
 C1061 C 0.20308 0.12214 0.23863
 C1062 C 0.22347 0.12170 0.25915
 C1063 C 0.27242 0.12115 0.27293
 C1064 C 0.21042 0.12188 0.21039
 H1065 H 0.28063 0.12007 0.21788
 H1066 H 0.24509 0.12082 0.18173
 H1067 H 0.18158 0.12283 0.24493
 H1068 H 0.21740 0.12208 0.28076
 C1069 C 0.75154 0.12202 0.75178
 C1070 C 0.75898 0.12200 0.72377
 C1071 C 0.73855 0.12232 0.70328
 C1072 C 0.79026 0.12276 0.79044
 C1073 C 0.70308 0.12253 0.73882
 C1074 C 0.72357 0.12221 0.75926
 C1075 C 0.77260 0.12228 0.77283
 C1076 C 0.71032 0.12267 0.71056
 H1077 H 0.78059 0.12190 0.71776
 H1078 H 0.74490 0.12244 0.68177
 H1079 H 0.68160 0.12282 0.74520
 H1080 H 0.71758 0.12227 0.78090
 C1081 C 0.74886 0.87777 0.25186
 C1082 C 0.77687 0.87754 0.25919
 C1083 C 0.79728 0.87710 0.23865
 C1084 C 0.71020 0.87721 0.29070
 C1085 C 0.76169 0.87722 0.20328
 C1086 C 0.74133 0.87766 0.22388
 C1087 C 0.72785 0.87763 0.27303
 C1088 C 0.78995 0.87686 0.21041
 H1089 H 0.78294 0.87756 0.28080
 H1090 H 0.81879 0.87681 0.24492
 H1091 H 0.75525 0.87702 0.18180
 H1092 H 0.71970 0.87777 0.21797
 C1093 C 0.75156 0.74759 0.37780
 C1094 C 0.75899 0.77558 0.37772
 C1095 C 0.73854 0.79605 0.37746
 C1096 C 0.79032 0.70900 0.37689
 C1097 C 0.70310 0.76053 0.37751
 C1098 C 0.72360 0.74011 0.37776
 C1099 C 0.77263 0.72657 0.37745
 C1100 C 0.71032 0.78878 0.37725
 H1101 H 0.78059 0.78158 0.37771
 H1102 H 0.74488 0.81755 0.37727
 H1103 H 0.68162 0.75416 0.37734
 H1104 H 0.71764 0.71848 0.37778
 C1105 C 0.75191 0.25155 0.62194
 C1106 C 0.75926 0.22354 0.62263
 C1107 C 0.73877 0.20313 0.62293
 C1108 C 0.79069 0.29015 0.62265
 C1109 C 0.70341 0.23874 0.62171
 C1110 C 0.72396 0.25910 0.62141
 C1111 C 0.77303 0.27254 0.62219
 C1112 C 0.71056 0.21048 0.62255
 H1113 H 0.78085 0.21747 0.62309
 H1114 H 0.74505 0.18161 0.62360
 H1115 H 0.68194 0.24517 0.62143
 H1116 H 0.71805 0.28074 0.62092
 C1117 C 0.74866 0.74755 0.12162
 C1118 C 0.74119 0.77553 0.12235
 C1119 C 0.76160 0.79603 0.12265
 C1120 C 0.70993 0.70887 0.12231
 C1121 C 0.79711 0.76057 0.12136
 C1122 C 0.77664 0.74012 0.12107
 C1123 C 0.72760 0.72648 0.12186
 C1124 C 0.78984 0.78881 0.12224
 H1125 H 0.71958 0.78151 0.12283
 H1126 H 0.75522 0.81752 0.12334
 H1127 H 0.81861 0.75423 0.12106
 H1128 H 0.78265 0.71850 0.12055
 C1129 C 0.25179 0.25117 0.12240
 C1130 C 0.25917 0.22316 0.12269
 C1131 C 0.23870 0.20271 0.12298
 C1132 C 0.29055 0.28981 0.12300
 C1133 C 0.20330 0.23830 0.12257
 C1134 C 0.22382 0.25869 0.12228
 C1135 C 0.27289 0.27220 0.12260
 C1136 C 0.21048 0.21003 0.12299
 H1137 H 0.28076 0.21711 0.12282
 H1138 H 0.24501 0.18120 0.12332
 H1139 H 0.18182 0.24471 0.12260
 H1140 H 0.21788 0.28033 0.12210
 C1141 C 0.25134 0.74919 0.87799
 C1142 C 0.25865 0.77722 0.87767
 C1143 C 0.23812 0.79764 0.87730
 C1144 C 0.29020 0.71055 0.87751
 C1145 C 0.20280 0.76202 0.87768
 C1146 C 0.22338 0.74165 0.87805
 C1147 C 0.27251 0.72817 0.87787
 C1148 C 0.20991 0.79030 0.87723
 H1149 H 0.28023 0.78330 0.87757
 H1150 H 0.24439 0.81916 0.87693
 H1151 H 0.18134 0.75558 0.87762
 H1152 H 0.21748 0.72000 0.87826
 C1153 C 0.25136 0.24735 0.37814
 C1154 C 0.25884 0.27532 0.37798
 C1155 C 0.23845 0.29584 0.37764
 C1156 C 0.29007 0.20868 0.37742
 C1157 C 0.20292 0.26040 0.37776
 C1158 C 0.22338 0.23993 0.37810
 C1159 C 0.27240 0.22629 0.37789
 C1160 C 0.21021 0.28863 0.37743
 H1161 H 0.28046 0.28128 0.37797
 H1162 H 0.24483 0.31733 0.37740
 H1163 H 0.18143 0.25408 0.37761
 H1164 H 0.21737 0.21832 0.37818
 C1165 C 0.50150 0.62329 1.00181
 C1166 C 0.50883 0.62394 0.97379
 C1167 C 0.48833 0.62413 0.95338
 C1168 C 0.54040 0.62336 1.04031
 C1169 C 0.45298 0.62296 0.98902
 C1170 C 0.47355 0.62276 1.00938
 C1171 C 0.52266 0.62330 1.02277
 C1172 C 0.46012 0.62370 0.96074
 H1173 H 0.53041 0.62434 0.96770
 H1174 H 0.49461 0.62468 0.93185
 H1175 H 0.43152 0.62255 0.99546
 H1176 H 0.46765 0.62224 1.03104
 C1177 C 0.49810 0.12325 0.49838
 C1178 C 0.49075 0.12343 0.52641
 C1179 C 0.51125 0.12368 0.54682
 C1180 C 0.45928 0.12322 0.45980
 C1181 C 0.54660 0.12350 0.51116
 C1182 C 0.52605 0.12325 0.49080
 C1183 C 0.47696 0.12320 0.47739
 C1184 C 0.53946 0.12378 0.53945
 H1185 H 0.46916 0.12342 0.53250
 H1186 H 0.50497 0.12383 0.56836
 H1187 H 0.56807 0.12349 0.50472
 H1188 H 0.53196 0.12309 0.46915
 C1189 C 0.50139 0.87668 0.49810
 C1190 C 0.47343 0.87726 0.49062
 C1191 C 0.45289 0.87731 0.51105
 C1192 C 0.54024 0.87612 0.45946
 C1193 C 0.48829 0.87629 0.54659
 C1194 C 0.50876 0.87624 0.52612
 C1195 C 0.52252 0.87640 0.47706
 C1196 C 0.46007 0.87676 0.53932
 H1197 H 0.46749 0.87763 0.46898
 H1198 H 0.43142 0.87773 0.50467
 H1199 H 0.49460 0.87588 0.56811
 H1200 H 0.53035 0.87580 0.53215
 C1201 C 1.00177 0.37689 0.49830
 C1202 C 0.97382 0.37749 0.49077
 C1203 C 0.95328 0.37739 0.51116
 C1204 C 1.04058 0.37649 0.45972
 C1205 C 0.98865 0.37622 0.54675
 C1206 C 1.00913 0.37631 0.52631
 C1207 C 1.02288 0.37672 0.47731
 C1208 C 0.96044 0.37669 0.53943
 H1209 H 0.96791 0.37796 0.46913
 H1210 H 0.93181 0.37784 0.50476
 H1211 H 0.99494 0.37570 0.56827
 H1212 H 1.03072 0.37585 0.53235
 C1213 C -0.00271 0.87669 1.00178
 C1214 C 0.02524 0.87672 1.00932
 C1215 C 0.04582 0.87684 0.98893
 C1216 C -0.04158 0.87603 1.04043
 C1217 C 0.01048 0.87700 0.95331
 C1218 C -0.01004 0.87689 0.97375
 C1219 C -0.02388 0.87634 1.02280
 C1220 C 0.03869 0.87691 0.96064
 H1221 H 0.03115 0.87659 1.03097
 H1222 H 0.06728 0.87681 0.99535
 H1223 H 0.00420 0.87711 0.93178
 H1224 H -0.03162 0.87689 0.96768
 C1225 C -0.00142 0.12321 -0.00204
 C1226 C -0.00886 0.12262 0.02596
 C1227 C 0.01156 0.12267 0.04645
 C1228 C -0.04014 0.12356 -0.04072
 C1229 C 0.04704 0.12382 0.01093
 C1230 C 0.02655 0.12378 -0.00951
 C1231 C -0.02248 0.12338 -0.02310
 C1232 C 0.03979 0.12333 0.03919
 H1233 H -0.03046 0.12216 0.03196
 H1234 H 0.00521 0.12221 0.06796
 H1235 H 0.06852 0.12431 0.00456
 H1236 H 0.03254 0.12423 -0.03114
 C1237 C 0.12313 1.00242 1.00223
 C1238 C 0.12303 1.00995 0.97425
 C1239 C 0.12295 0.98956 0.95367
 C1240 C 0.12374 1.04102 1.04110
 C1241 C 0.12297 0.95396 0.98907
 C1242 C 0.12305 0.97440 1.00959
 C1243 C 0.12345 1.02342 1.02338
 C1244 C 0.12300 0.96129 0.96083
 H1245 H 0.12306 1.03159 0.96833
 H1246 H 0.12290 0.99598 0.93218
 H1247 H 0.12295 0.93244 0.99536
 H1248 H 0.12310 0.96835 1.03120
 C1249 C 0.12341 0.49840 0.49832
 C1250 C 0.12344 0.52640 0.49091
 C1251 C 0.12356 0.54687 0.51140
 C1252 C 0.12373 0.45970 0.45954
 C1253 C 0.12352 0.51133 0.54685
 C1254 C 0.12340 0.49091 0.52631
 C1255 C 0.12354 0.47735 0.47721
 C1256 C 0.12367 0.53959 0.53965
 H1257 H 0.12343 0.53242 0.46929
 H1258 H 0.12361 0.56838 0.50507
 H1259 H 0.12353 0.50495 0.56836
 H1260 H 0.12336 0.46928 0.53227
 C1261 C 0.37641 0.49820 1.00171
 C1262 C 0.37596 0.49080 0.97369
 C1263 C 0.37590 0.51127 0.95321
 C1264 C 0.37608 0.45942 1.04042
 C1265 C 0.37685 0.54672 0.98877
 C1266 C 0.37691 0.52619 1.00920
 C1267 C 0.37625 0.47709 1.02277
 C1268 C 0.37628 0.53952 0.96049
 H1269 H 0.37559 0.46919 0.96765
 H1270 H 0.37548 0.50494 0.93169
 H1271 H 0.37721 0.56821 0.99517
 H1272 H 0.37730 0.53216 1.03083
 C1273 C 0.87710 0.50184 0.49814
 C1274 C 0.87760 0.47384 0.49075
 C1275 C 0.87743 0.45341 0.51125
 C1276 C 0.87684 0.54041 0.45933
 C1277 C 0.87637 0.48902 0.54667
 C1278 C 0.87653 0.50939 0.52612
 C1279 C 0.87700 0.52283 0.47702
 C1280 C 0.87674 0.46075 0.53948
 H1281 H 0.87806 0.46779 0.46914
 H1282 H 0.87780 0.43189 0.50494
 H1283 H 0.87587 0.49543 0.56816
 H1284 H 0.87616 0.53103 0.53205
 C1285 C 0.87675 1.00151 -0.00214
 C1286 C 0.87736 0.97355 -0.00969
 C1287 C 0.87731 0.95301 0.01070
 C1288 C 0.87641 1.04026 -0.04076
 C1289 C 0.87614 0.98841 0.04632
 C1290 C 0.87619 1.00890 0.02588
 C1291 C 0.87659 1.02260 -0.02314
 C1292 C 0.87665 0.96019 0.03897
 H1293 H 0.87781 0.96762 -0.03133
 H1294 H 0.87775 0.93152 0.00427
 H1295 H 0.87565 0.99471 0.06784
 H1296 H 0.87573 1.03051 0.03193
 C1297 C 0.62243 -0.00179 0.49816
 C1298 C 0.62179 0.02619 0.49070
 C1299 C 0.62189 0.04670 0.51114
 C1300 C 0.62306 -0.04052 0.45942
 C1301 C 0.62311 0.01125 0.54667
 C1302 C 0.62301 -0.00921 0.52617
 C1303 C 0.62272 -0.02287 0.47708
 C1304 C 0.62265 0.03949 0.53940
 H1305 H 0.62131 0.03216 0.46907
 H1306 H 0.62145 0.06820 0.50477
 H1307 H 0.62365 0.00493 0.56818
 H1308 H 0.62349 -0.03083 0.53217
 C1309 C 0.49826 1.00108 0.37699
 C1310 C 0.52621 1.00860 0.37712
 C1311 C 0.54673 0.98820 0.37685
 C1312 C 0.45951 1.03969 0.37692
 C1313 C 0.51133 0.95263 0.37641
 C1314 C 0.49086 0.97309 0.37667
 C1315 C 0.47718 1.02209 0.37701
 C1316 C 0.53954 0.95995 0.37645
 H1317 H 0.53214 1.03023 0.37737
 H1318 H 0.56820 0.99460 0.37693
 H1319 H 0.50503 0.93112 0.37613
 H1320 H 0.46927 0.96706 0.37657
 C1321 C -0.00181 -0.00202 0.12233
 C1322 C -0.00921 0.02599 0.12233
 C1323 C 0.01125 0.04645 0.12244
 C1324 C -0.04048 -0.04073 0.12277
 C1325 C 0.04666 0.01087 0.12244
 C1326 C 0.02615 -0.00953 0.12233
 C1327 C -0.02287 -0.02307 0.12253
 C1328 C 0.03947 0.03914 0.12259
 H1329 H -0.03081 0.03203 0.12231
 H1330 H 0.00494 0.06797 0.12249
 H1331 H 0.06814 0.00446 0.12251
 H1332 H 0.03211 -0.03116 0.12232
 C1333 C 0.50174 0.50123 0.12258
 C1334 C 0.50916 0.47323 0.12313
 C1335 C 0.48871 0.45277 0.12330
 C1336 C 0.54047 0.53988 0.12292
 C1337 C 0.45328 0.48831 0.12227
 C1338 C 0.47378 0.50872 0.12210
 C1339 C 0.52281 0.52227 0.12271
 C1340 C 0.46049 0.46006 0.12294
 H1341 H 0.53076 0.46722 0.12350
 H1342 H 0.49504 0.43126 0.12379
 H1343 H 0.43180 0.49470 0.12194
 H1344 H 0.46781 0.53035 0.12167
 C1345 C -0.00182 0.49855 0.62267
 C1346 C -0.00926 0.52654 0.62322
 C1347 C 0.01117 0.54703 0.62333
 C1348 C -0.04048 0.45984 0.62322
 C1349 C 0.04663 0.51150 0.62221
 C1350 C 0.02615 0.49108 0.62210
 C1351 C -0.02286 0.47748 0.62292
 C1352 C 0.03940 0.53975 0.62293
 H1353 H -0.03086 0.53254 0.62364
 H1354 H 0.00483 0.56853 0.62383
 H1355 H 0.06811 0.50513 0.62182
 H1356 H 0.03213 0.46945 0.62165
 C1357 C 0.49818 0.50209 0.87698
 C1358 C 0.52615 0.50956 0.87701
 C1359 C 0.54667 0.48913 0.87690
 C1360 C 0.45940 0.54079 0.87662
 C1361 C 0.51126 0.45359 0.87684
 C1362 C 0.49079 0.47408 0.87695
 C1363 C 0.47708 0.52315 0.87682
 C1364 C 0.53949 0.46086 0.87674
 H1365 H 0.53211 0.53119 0.87706
 H1366 H 0.56815 0.49551 0.87689
 H1367 H 0.50494 0.43208 0.87677
 H1368 H 0.46920 0.46806 0.87694
 C1369 C 0.62295 0.50213 1.00211
 C1370 C 0.62346 0.50961 0.97412
 C1371 C 0.62348 0.48918 0.95357
 C1372 C 0.62357 0.54077 1.04096
 C1373 C 0.62233 0.45366 0.98902
 C1374 C 0.62232 0.47413 1.00951
 C1375 C 0.62326 0.52316 1.02324
 C1376 C 0.62301 0.46093 0.96077
 H1377 H 0.62393 0.53123 0.96816
 H1378 H 0.62396 0.49556 0.93207
 H1379 H 0.62190 0.43215 0.99535
 H1380 H 0.62189 0.46811 1.03113
 C1381 C 0.37636 1.00206 0.49782
 C1382 C 0.37685 0.97403 0.49051
 C1383 C 0.37678 0.95363 0.51106
 C1384 C 0.37604 1.04061 0.45888
 C1385 C 0.37583 0.98930 0.54640
 C1386 C 0.37590 1.00964 0.52580
 C1387 C 0.37621 1.02303 0.47662
 C1388 C 0.37620 0.96101 0.53930
 H1389 H 0.37724 0.96792 0.46891
 H1390 H 0.37713 0.93210 0.50480
 H1391 H 0.37541 0.99576 0.56788
 H1392 H 0.37554 1.03129 0.53169
 C1393 C -0.00149 0.62313 0.49819
 C1394 C -0.00897 0.62319 0.52619
 C1395 C 0.01143 0.62339 0.54671
 C1396 C -0.04013 0.62336 0.45942
 C1397 C 0.04696 0.62338 0.51122
 C1398 C 0.02650 0.62318 0.49076
 C1399 C -0.02252 0.62321 0.47710
 C1400 C 0.03967 0.62356 0.53948
 H1401 H -0.03059 0.62314 0.53217
 H1402 H 0.00505 0.62346 0.56822
 H1403 H 0.06845 0.62344 0.50488
 H1404 H 0.03251 0.62312 0.46913
 C1405 C 0.49829 0.37655 1.00169
 C1406 C 0.49094 0.37658 0.97367
 C1407 C 0.51145 0.37660 0.95324
 C1408 C 0.45947 0.37605 1.04026
 C1409 C 0.54679 0.37665 0.98888
 C1410 C 0.52622 0.37664 1.00926
 C1411 C 0.47715 0.37631 1.02267
 C1412 C 0.53965 0.37656 0.96060
 H1413 H 0.46936 0.37654 0.96760
 H1414 H 0.50518 0.37658 0.93171
 H1415 H 0.56825 0.37670 0.99531
 H1416 H 0.53212 0.37665 1.03091
 C1417 C 0.49798 -0.00118 0.62301
 C1418 C 0.49059 0.02684 0.62307
 C1419 C 0.51107 0.04728 0.62326
 C1420 C 0.45922 -0.03981 0.62328
 C1421 C 0.54646 0.01168 0.62322
 C1422 C 0.52594 -0.00871 0.62303
 C1423 C 0.47688 -0.02220 0.62311
 C1424 C 0.53928 0.03995 0.62340
 H1425 H 0.46900 0.03289 0.62304
 H1426 H 0.50477 0.06880 0.62333
 H1427 H 0.56793 0.00526 0.62326
 H1428 H 0.53188 -0.03034 0.62297
 C1429 C -0.00111 0.50171 0.37638
 C1430 C 0.02686 0.50911 0.37663
 C1431 C 0.04729 0.48862 0.37664
 C1432 C -0.03970 0.54049 0.37598
 C1433 C 0.01175 0.45320 0.37623
 C1434 C -0.00863 0.47375 0.37622
 C1435 C -0.02210 0.52282 0.37618
 C1436 C 0.03998 0.46040 0.37639
 H1437 H 0.03289 0.53072 0.37677
 H1438 H 0.06879 0.49493 0.37679
 H1439 H 0.00535 0.43172 0.37606
 H1440 H -0.03025 0.46782 0.37604
 C1441 C -0.00261 1.00253 0.87734
 C1442 C 0.02535 1.00998 0.87804
 C1443 C 0.04586 0.98954 0.87802
 C1444 C -0.04133 1.04130 0.87665
 C1445 C 0.01044 0.95403 0.87674
 C1446 C -0.01002 0.97453 0.87677
 C1447 C -0.02369 1.02363 0.87701
 C1448 C 0.03867 0.96128 0.87727
 H1449 H 0.03132 1.03160 0.87852
 H1450 H 0.06733 0.99591 0.87850
 H1451 H 0.00412 0.93253 0.87621
 H1452 H -0.03161 0.96853 0.87624
 C1453 C 0.75228 0.62125 0.25107
 C1454 C 0.75971 0.62042 0.22307
 C1455 C 0.73928 0.62069 0.20257
 C1456 C 0.79090 0.62213 0.28985
 C1457 C 0.70385 0.62250 0.23810
 C1458 C 0.72433 0.62222 0.25854
 C1459 C 0.77332 0.62159 0.27215
 C1460 C 0.71107 0.62184 0.20983
 H1461 H 0.78131 0.61970 0.21706
 H1462 H 0.74561 0.62017 0.18105
 H1463 H 0.68238 0.62341 0.24449
 H1464 H 0.71835 0.62292 0.28017
 C1465 C 0.25115 0.87919 0.74832
 C1466 C 0.22318 0.87849 0.74093
 C1467 C 0.20272 0.87808 0.76143
 C1468 C 0.28980 0.87847 0.70948
 C1469 C 0.23821 0.87919 0.79688
 C1470 C 0.25862 0.87960 0.77632
 C1471 C 0.27219 0.87897 0.72718
 C1472 C 0.20998 0.87834 0.78969
 H1473 H 0.21716 0.87811 0.71932
 H1474 H 0.18124 0.87741 0.75510
 H1475 H 0.24458 0.87938 0.81838
 H1476 H 0.28023 0.88008 0.78228
 C1477 C 0.24863 0.37803 0.25204
 C1478 C 0.27660 0.37689 0.25939
 C1479 C 0.29699 0.37646 0.23887
 C1480 C 0.21006 0.37730 0.29084
 C1481 C 0.26145 0.37845 0.20349
 C1482 C 0.24110 0.37888 0.22407
 C1483 C 0.22766 0.37780 0.27317
 C1484 C 0.28967 0.37713 0.21064
 H1485 H 0.28263 0.37618 0.28099
 H1486 H 0.31848 0.37543 0.24515
 H1487 H 0.25505 0.37898 0.18201
 H1488 H 0.21949 0.37971 0.21817
 C1489 C 0.87832 0.74783 0.25093
 C1490 C 0.87796 0.74042 0.22291
 C1491 C 0.87759 0.76090 0.20247
 C1492 C 0.87766 0.70910 0.28958
 C1493 C 0.87806 0.79633 0.23808
 C1494 C 0.87844 0.77580 0.25847
 C1495 C 0.87811 0.72674 0.27194
 C1496 C 0.87755 0.78914 0.20981
 H1497 H 0.87783 0.71881 0.21687
 H1498 H 0.87718 0.75459 0.18095
 H1499 H 0.87802 0.81782 0.24450
 H1500 H 0.87867 0.78174 0.28011
 C1501 C 0.62250 0.25211 0.75156
 C1502 C 0.62281 0.25944 0.72353
 C1503 C 0.62310 0.23891 0.70310
 C1504 C 0.62312 0.29098 0.79017
 C1505 C 0.62267 0.20355 0.73874
 C1506 C 0.62238 0.22414 0.75912
 C1507 C 0.62271 0.27327 0.77256
 C1508 C 0.62311 0.21068 0.71046
 H1509 H 0.62295 0.28103 0.71745
 H1510 H 0.62346 0.24518 0.68157
 H1511 H 0.62269 0.18208 0.74518
 H1512 H 0.62219 0.21824 0.78077
 C1513 C 0.75198 0.24867 0.87786
 C1514 C 0.75936 0.27666 0.87681
 C1515 C 0.73889 0.29714 0.87649
 C1516 C 0.79075 0.20996 0.87717
 C1517 C 0.70349 0.26164 0.87839
 C1518 C 0.72402 0.24122 0.87871
 C1519 C 0.77308 0.22761 0.87762
 C1520 C 0.71066 0.28988 0.87719
 H1521 H 0.78095 0.28267 0.87610
 H1522 H 0.74520 0.31863 0.87554
 H1523 H 0.68202 0.25527 0.87894
 H1524 H 0.71807 0.21960 0.87948
 C1525 C 0.25162 0.75183 0.62241
 C1526 C 0.25899 0.72382 0.62313
 C1527 C 0.23851 0.70339 0.62347
 C1528 C 0.29037 0.79048 0.62301
 C1529 C 0.20313 0.73898 0.62223
 C1530 C 0.22367 0.75935 0.62190
 C1531 C 0.27273 0.77284 0.62260
 C1532 C 0.21029 0.71072 0.62310
 H1533 H 0.28058 0.71777 0.62358
 H1534 H 0.24481 0.68188 0.62416
 H1535 H 0.18166 0.74539 0.62194
 H1536 H 0.21774 0.78099 0.62138
   
