data_POSCAR
  _audit_creation_date              2014-09-24
  _audit_creation_method            'ToBaCCo'
  _symmetry_space_group_name_H-M    'P1'
  _symmetry_Int_Tables_number       1
  _symmetry_cell_setting            triclinic
  loop_
  _symmetry_equiv_pos_as_xyz
 x,y,z
_cell_length_a 96.0792
_cell_length_b 92.6431
_cell_length_c 93.0087
_cell_angle_alpha 89.808200
_cell_angle_beta 90.566400
_cell_angle_gamma 89.594100
loop_
  _atom_site_label
  _atom_site_type_symbol
  _atom_site_fract_x
  _atom_site_fract_y
  _atom_site_fract_z
C1 C 0.32416 0.45188 0.92684
 C2 C 0.31883 0.45796 0.91408
 C3 C 0.30717 0.45198 0.90714
 C4 C 0.30074 0.43987 0.91328
 C5 C 0.30615 0.43351 0.92587
 C6 C 0.31791 0.43952 0.93268
 C7 C 0.33590 0.45779 0.93356
 C8 C 0.34168 0.45165 0.94625
 C9 C 0.33526 0.43915 0.95191
 C10 C 0.32356 0.43303 0.94518
 C11 C 0.31757 0.42034 0.95060
 C12 C 0.30597 0.41410 0.94369
 C13 C 0.30016 0.42100 0.93152
 H14 H 0.32401 0.46716 0.90935
 H15 H 0.29161 0.43528 0.90818
 H16 H 0.34084 0.46683 0.92834
 H17 H 0.33898 0.43429 0.96183
 H18 H 0.32224 0.41507 0.95989
 H19 H 0.29104 0.41652 0.92629
 C20 C 0.43612 0.82486 0.42061
 C21 C 0.44304 0.83658 0.42682
 C22 C 0.43888 0.84240 0.44015
 C23 C 0.42733 0.83606 0.44705
 C24 C 0.42022 0.82436 0.44088
 C25 C 0.42467 0.81872 0.42762
 C26 C 0.44045 0.81929 0.40738
 C27 C 0.43366 0.80745 0.40111
 C28 C 0.42220 0.80138 0.40817
 C29 C 0.41763 0.80699 0.42133
 C30 C 0.40610 0.80105 0.42826
 C31 C 0.40153 0.80656 0.44150
 C32 C 0.40875 0.81817 0.44778
 H33 H 0.45136 0.84146 0.42078
 H34 H 0.42404 0.83979 0.45750
 H35 H 0.44908 0.82429 0.40190
 H36 H 0.41694 0.79217 0.40353
 H37 H 0.40052 0.79229 0.42316
 H38 H 0.40548 0.82237 0.45808
 C39 C 0.94507 0.93380 0.81944
 C40 C 0.95146 0.92105 0.81468
 C41 C 0.94607 0.91324 0.80283
 C42 C 0.93430 0.91903 0.79551
 C43 C 0.92788 0.93185 0.80012
 C44 C 0.93322 0.93917 0.81220
 C45 C 0.95023 0.94102 0.83161
 C46 C 0.94359 0.95358 0.83692
 C47 C 0.93178 0.95887 0.82935
 C48 C 0.92658 0.95176 0.81718
 C49 C 0.91461 0.95695 0.81009
 C50 C 0.90914 0.94973 0.79804
 C51 C 0.91594 0.93723 0.79306
 H52 H 0.96088 0.91751 0.82014
 H53 H 0.92947 0.91327 0.78671
 H54 H 0.95894 0.93620 0.83735
 H55 H 0.92672 0.96880 0.83258
 H56 H 0.90930 0.96638 0.81426
 H57 H 0.91192 0.93166 0.78369
 C58 C 0.44033 -0.07125 0.32252
 C59 C 0.44517 -0.08460 0.31734
 C60 C 0.43972 -0.09037 0.30449
 C61 C 0.42945 -0.08260 0.29683
 C62 C 0.42449 -0.06935 0.30188
 C63 C 0.43000 -0.06357 0.31470
 C64 C 0.44535 -0.06563 0.33558
 C65 C 0.44026 -0.05239 0.34087
 C66 C 0.43024 -0.04467 0.33275
 C67 C 0.42496 -0.05024 0.31983
 C68 C 0.41439 -0.04290 0.31219
 C69 C 0.40846 -0.04892 0.29968
 C70 C 0.41378 -0.06206 0.29450
 H71 H 0.45295 -0.09062 0.32343
 H72 H 0.42531 -0.08687 0.28684
 H73 H 0.45293 -0.07178 0.34181
 H74 H 0.42640 -0.03436 0.33657
 H75 H 0.41057 -0.03265 0.31618
 H76 H 0.40918 -0.06697 0.28505
 C77 C 0.83482 0.31263 0.33519
 C78 C 0.82920 0.30672 0.34769
 C79 C 0.81835 0.31375 0.35493
 C80 C 0.81267 0.32656 0.34907
 C81 C 0.81806 0.33248 0.33636
 C82 C 0.82932 0.32558 0.32950
 C83 C 0.84612 0.30591 0.32853
 C84 C 0.85248 0.31221 0.31651
 C85 C 0.84679 0.32504 0.31070
 C86 C 0.83519 0.33169 0.31707
 C87 C 0.82953 0.34449 0.31134
 C88 C 0.81817 0.35139 0.31796
 C89 C 0.81256 0.34533 0.33053
 H90 H 0.83344 0.29667 0.35191
 H91 H 0.80432 0.33211 0.35459
 H92 H 0.85010 0.29581 0.33288
 H93 H 0.85160 0.33009 0.30150
 H94 H 0.83388 0.34899 0.30162
 H95 H 0.80405 0.35073 0.33591
 C96 C -0.19295 0.81292 0.82100
 C97 C -0.19846 0.82603 0.81595
 C98 C -0.19150 0.83432 0.80550
 C99 C -0.17877 0.82888 0.80008
 C100 C -0.17311 0.81574 0.80510
 C101 C -0.18029 0.80770 0.81553
 C102 C -0.19981 0.80515 0.83174
 C103 C -0.19419 0.79214 0.83714
 C104 C -0.18174 0.78677 0.83132
 C105 C -0.17468 0.79455 0.82072
 C106 C -0.16187 0.78961 0.81558
 C107 C -0.15435 0.79776 0.80556
 C108 C -0.16015 0.81073 0.80020
 H109 H -0.20851 0.82942 0.81995
 H110 H -0.17281 0.83512 0.79249
 H111 H -0.20926 0.80956 0.83630
 H112 H -0.17739 0.77665 0.83522
 H113 H -0.15763 0.77947 0.81957
 H114 H -0.15439 0.81716 0.79257
 C115 C 0.92266 0.32515 0.44109
 C116 C 0.92982 0.33741 0.44575
 C117 C 0.94145 0.34267 0.43822
 C118 C 0.94560 0.33523 0.42570
 C119 C 0.93849 0.32293 0.42095
 C120 C 0.92701 0.31781 0.42870
 C121 C 0.91104 0.32028 0.44860
 C122 C 0.90360 0.30816 0.44388
 C123 C 0.90815 0.30067 0.43163
 C124 C 0.91982 0.30544 0.42399
 C125 C 0.92432 0.29815 0.41164
 C126 C 0.93577 0.30321 0.40377
 C127 C 0.94271 0.31569 0.40852
 H128 H 0.92576 0.34316 0.45493
 H129 H 0.95472 0.33856 0.41985
 H130 H 0.90779 0.32592 0.45821
 H131 H 0.90243 0.29136 0.42784
 H132 H 0.91895 0.28848 0.40822
 H133 H 0.95128 0.31998 0.40239
 C134 C 0.42370 0.44396 0.82614
 C135 C 0.42966 0.44832 0.83925
 C136 C 0.44194 0.44172 0.84454
 C137 C 0.44829 0.43078 0.83639
 C138 C 0.44240 0.42624 0.82333
 C139 C 0.43006 0.43285 0.81816
 C140 C 0.41133 0.45035 0.82101
 C141 C 0.40503 0.44565 0.80813
 C142 C 0.41152 0.43459 0.80022
 C143 C 0.42400 0.42820 0.80512
 C144 C 0.43035 0.41704 0.79732
 C145 C 0.44259 0.41025 0.80249
 C146 C 0.44853 0.41500 0.81552
 H147 H 0.42451 0.45658 0.84553
 H148 H 0.45787 0.42577 0.84020
 H149 H 0.40661 0.45902 0.82710
 H150 H 0.40669 0.43065 0.79044
 H151 H 0.42575 0.41367 0.78721
 H152 H 0.45775 0.40968 0.81983
 C153 C 0.83716 0.91566 0.93421
 C154 C 0.83082 0.90376 0.94075
 C155 C 0.81969 0.89633 0.93405
 C156 C 0.81467 0.90181 0.92070
 C157 C 0.82071 0.91398 0.91421
 C158 C 0.83211 0.92081 0.92093
 C159 C 0.84857 0.92241 0.94084
 C160 C 0.85558 0.93404 0.93421
 C161 C 0.85011 0.93923 0.92094
 C162 C 0.83845 0.93278 0.91438
 C163 C 0.83315 0.93805 0.90123
 C164 C 0.82169 0.93145 0.89443
 C165 C 0.81564 0.91930 0.90098
 H166 H 0.83454 0.90062 0.95133
 H167 H 0.80645 0.89638 0.91488
 H168 H 0.85168 0.91860 0.95139
 H169 H 0.85517 0.94784 0.91518
 H170 H 0.83784 0.94749 0.89642
 H171 H 0.80703 0.91389 0.89571
 C172 C 0.32762 0.82530 0.30766
 C173 C 0.32127 0.83814 0.30269
 C174 C 0.31003 0.84454 0.31017
 C175 C 0.30516 0.83742 0.32259
 C176 C 0.31140 0.82468 0.32765
 C177 C 0.32269 0.81860 0.32022
 C178 C 0.33897 0.81916 0.30038
 C179 C 0.34553 0.80650 0.30560
 C180 C 0.34049 0.80000 0.31819
 C181 C 0.32911 0.80587 0.32545
 C182 C 0.32414 0.79926 0.33796
 C183 C 0.31283 0.80524 0.34540
 C184 C 0.30654 0.81797 0.34015
 H185 H 0.32567 0.84339 0.29339
 H186 H 0.29613 0.84143 0.32822
 H187 H 0.34263 0.82421 0.29061
 H188 H 0.34561 0.79047 0.32257
 H189 H 0.32899 0.78937 0.34183
 H190 H 0.29802 0.82286 0.34598
 C191 C 0.82113 0.43165 0.45579
 C192 C 0.81525 0.41963 0.46263
 C193 C 0.80242 0.41396 0.45787
 C194 C 0.79539 0.42076 0.44630
 C195 C 0.80100 0.43291 0.43954
 C196 C 0.81395 0.43830 0.44424
 C197 C 0.83426 0.43686 0.46006
 C198 C 0.84049 0.44861 0.45282
 C199 C 0.83283 0.45535 0.44159
 C200 C 0.81981 0.45024 0.43721
 C201 C 0.81273 0.45676 0.42564
 C202 C 0.79985 0.45146 0.42084
 C203 C 0.79400 0.43954 0.42792
 H204 H 0.82070 0.41469 0.47165
 H205 H 0.78570 0.41637 0.44225
 H206 H 0.83984 0.43112 0.46849
 H207 H 0.83675 0.46491 0.43632
 H208 H 0.81752 0.46569 0.42005
 H209 H 0.78402 0.43542 0.42439
 C210 C 0.93107 0.83351 -0.08347
 C211 C 0.93673 0.84653 -0.07844
 C212 C 0.93135 0.85326 -0.06613
 C213 C 0.92030 0.84675 -0.05882
 C214 C 0.91445 0.83391 -0.06384
 C215 C 0.91983 0.82723 -0.07621
 C216 C 0.93640 0.82682 -0.09576
 C217 C 0.93079 0.81374 -0.10102
 C218 C 0.91940 0.80770 -0.09360
 C219 C 0.91389 0.81435 -0.08134
 C220 C 0.90247 0.80836 -0.07415
 C221 C 0.89693 0.81514 -0.06193
 C222 C 0.90317 0.82778 -0.05674
 H223 H 0.94517 0.85153 -0.08423
 H224 H 0.91624 0.85169 -0.04916
 H225 H 0.94458 0.83230 -0.10147
 H226 H 0.91502 0.79749 -0.09691
 H227 H 0.89768 0.79864 -0.07829
 H228 H 0.89918 0.83292 -0.04715
 C229 C 0.32367 0.32542 0.80465
 C230 C 0.31716 0.33668 0.79692
 C231 C 0.30525 0.34365 0.80236
 C232 C 0.29987 0.33910 0.81562
 C233 C 0.30620 0.32783 0.82339
 C234 C 0.31814 0.32095 0.81792
 C235 C 0.33576 0.31873 0.79944
 C236 C 0.34238 0.30752 0.80725
 C237 C 0.33660 0.30301 0.82037
 C238 C 0.32465 0.30973 0.82582
 C239 C 0.31924 0.30557 0.83917
 C240 C 0.30738 0.31249 0.84475
 C241 C 0.30087 0.32352 0.83668
 H242 H 0.32134 0.33999 0.78666
 H243 H 0.29093 0.34459 0.82012
 H244 H 0.34021 0.32253 0.78947
 H245 H 0.34140 0.29423 0.82639
 H246 H 0.32447 0.29719 0.84537
 H247 H 0.29158 0.32876 0.84073
 C248 C 0.16800 0.56109 0.57038
 C249 C 0.15662 0.55498 0.56305
 C250 C 0.15117 0.56151 0.55047
 C251 C 0.15762 0.57392 0.54502
 C252 C 0.16874 0.58030 0.55239
 C253 C 0.17392 0.57395 0.56515
 C254 C 0.17333 0.55476 0.58303
 C255 C 0.18434 0.56127 0.59070
 C256 C 0.18993 0.57427 0.58553
 C257 C 0.18485 0.58061 0.57282
 C258 C 0.19029 0.59371 0.56783
 C259 C 0.18503 0.60017 0.55518
 C260 C 0.17445 0.59320 0.54738
 H261 H 0.15170 0.54547 0.56745
 H262 H 0.15379 0.57884 0.53515
 H263 H 0.16895 0.54473 0.58687
 H264 H 0.19809 0.57964 0.59155
 H265 H 0.19835 0.59906 0.57402
 H266 H 0.17048 0.59795 0.53748
 C267 C 0.58232 0.69076 0.07568
 C268 C 0.59342 0.69750 0.06873
 C269 C 0.59861 0.69208 0.05570
 C270 C 0.59230 0.67982 0.04960
 C271 C 0.58134 0.67280 0.05659
 C272 C 0.57636 0.67825 0.06972
 C273 C 0.57722 0.69629 0.08861
 C274 C 0.56629 0.68944 0.09584
 C275 C 0.56053 0.67680 0.08995
 C276 C 0.56551 0.67115 0.07694
 C277 C 0.55996 0.65841 0.07115
 C278 C 0.56488 0.65280 0.05805
 C279 C 0.57542 0.66029 0.05076
 H280 H 0.59827 0.70678 0.07372
 H281 H 0.59596 0.67566 0.03943
 H282 H 0.58165 0.70610 0.09296
 H283 H 0.55228 0.67129 0.09557
 H284 H 0.55201 0.65272 0.07705
 H285 H 0.57912 0.65637 0.04051
 C286 C 0.67899 0.16320 0.67004
 C287 C 0.68496 0.16937 0.65774
 C288 C 0.67916 0.18186 0.65131
 C289 C 0.66706 0.18797 0.65731
 C290 C 0.66080 0.18176 0.66939
 C291 C 0.66688 0.16942 0.67586
 C292 C 0.68484 0.15075 0.67642
 C293 C 0.67888 0.14434 0.68876
 C294 C 0.66685 0.15098 0.69452
 C295 C 0.66079 0.16327 0.68811
 C296 C 0.64862 0.16941 0.69377
 C297 C 0.64215 0.18142 0.68713
 C298 C 0.64845 0.18761 0.67498
 H299 H 0.69405 0.16429 0.65309
 H300 H 0.66254 0.19770 0.65268
 H301 H 0.69371 0.14583 0.67125
 H302 H 0.66226 0.14694 0.70430
 H303 H 0.64415 0.16473 0.70335
 H304 H 0.64357 0.19675 0.66961
 C305 C 1.07366 0.05243 0.17321
 C306 C 1.08610 0.04553 0.17742
 C307 C 1.09367 0.05030 0.18949
 C308 C 1.08845 0.06194 0.19756
 C309 C 1.07599 0.06890 0.19353
 C310 C 1.06864 0.06419 0.18123
 C311 C 1.06636 0.04792 0.16090
 C312 C 1.05406 0.05509 0.15623
 C313 C 1.04919 0.06682 0.16450
 C314 C 1.05636 0.07139 0.17684
 C315 C 1.05150 0.08322 0.18472
 C316 C 1.05867 0.08797 0.19707
 C317 C 1.07091 0.08066 0.20144
 H318 H 1.08990 0.03643 0.17126
 H319 H 1.09429 0.06587 0.20676
 H320 H 1.07083 0.03928 0.15460
 H321 H 1.03951 0.07224 0.16172
 H322 H 1.04230 0.08897 0.18097
 H323 H 1.07649 0.08411 0.21099
 C324 C 0.06776 0.17382 1.07576
 C325 C 0.06254 0.16143 1.06899
 C326 C 0.06982 0.15459 1.05769
 C327 C 0.08259 0.16076 1.05336
 C328 C 0.08796 0.17311 1.06008
 C329 C 0.08051 0.17965 1.07132
 C330 C 0.06045 0.18035 1.08706
 C331 C 0.06580 0.19256 1.09416
 C332 C 0.07855 0.19830 1.08957
 C333 C 0.08587 0.19200 1.07819
 C334 C 0.09855 0.19781 1.07368
 C335 C 0.10615 0.19136 1.06250
 C336 C 0.10072 0.17899 1.05576
 H337 H 0.05308 0.15684 1.07317
 H338 H 0.08827 0.15637 1.04437
 H339 H 0.05053 0.17595 1.09025
 H340 H 0.08299 0.20751 1.09506
 H341 H 0.10242 0.20749 1.07881
 H342 H 0.10655 0.17373 1.04732
 C343 C 0.17754 0.68642 0.69999
 C344 C 0.16585 0.69384 0.70517
 C345 C 0.16130 0.70680 0.69864
 C346 C 0.16897 0.71253 0.68718
 C347 C 0.18046 0.70506 0.68169
 C348 C 0.18474 0.69192 0.68803
 C349 C 0.18190 0.67336 0.70629
 C350 C 0.19322 0.66557 0.70069
 C351 C 0.20017 0.67102 0.68858
 C352 C 0.19601 0.68412 0.68223
 C353 C 0.20266 0.68932 0.66989
 C354 C 0.19828 0.70233 0.66335
 C355 C 0.18740 0.71030 0.66960
 H356 H 0.15997 0.68920 0.71390
 H357 H 0.16576 0.72265 0.68225
 H358 H 0.17648 0.66928 0.71562
 H359 H 0.20865 0.66491 0.68392
 H360 H 0.21094 0.68300 0.66512
 H361 H 0.18412 0.72049 0.66487
 C362 C 1.18870 0.17848 0.17607
 C363 C 1.19378 0.16539 0.18183
 C364 C 1.18821 0.15952 0.19462
 C365 C 1.17779 0.16752 0.20173
 C366 C 1.17251 0.18043 0.19599
 C367 C 1.17791 0.18593 0.18310
 C368 C 1.19392 0.18402 0.16312
 C369 C 1.18852 0.19693 0.15718
 C370 C 1.17776 0.20423 0.16435
 C371 C 1.17232 0.19875 0.17714
 C372 C 1.16105 0.20565 0.18380
 C373 C 1.15538 0.19997 0.19648
 C374 C 1.16156 0.18765 0.20277
 H375 H 1.20152 0.15950 0.17579
 H376 H 1.17378 0.16390 0.21195
 H377 H 1.20200 0.17813 0.15753
 H378 H 1.17360 0.21426 0.16001
 H379 H 1.15635 0.21507 0.17875
 H380 H 1.15756 0.18339 0.21276
 C381 C 0.67808 1.06895 0.54517
 C382 C 0.66575 1.06295 0.53987
 C383 C 0.65876 1.05220 0.54763
 C384 C 0.66475 1.04688 0.56047
 C385 C 0.67735 1.05251 0.56571
 C386 C 0.68395 1.06370 0.55809
 C387 C 0.68428 1.08051 0.53798
 C388 C 0.69615 1.08744 0.54370
 C389 C 0.70227 1.08159 0.55637
 C390 C 0.69625 1.06987 0.56355
 C391 C 0.70205 1.06463 0.57644
 C392 C 0.69556 1.05351 0.58417
 C393 C 0.68318 1.04751 0.57870
 H394 H 0.66138 1.06694 0.52981
 H395 H 0.65940 1.03873 0.56665
 H396 H 0.67972 1.08401 0.52786
 H397 H 0.71116 1.08668 0.56141
 H398 H 0.71164 1.06926 0.58049
 H399 H 0.67788 1.03920 0.58472
 C400 C 0.55216 0.57130 0.18299
 C401 C 0.54534 0.56547 0.17095
 C402 C 0.54993 0.55241 0.16490
 C403 C 0.56126 0.54503 0.17127
 C404 C 0.56837 0.55089 0.18305
 C405 C 0.56380 0.56404 0.18900
 C406 C 0.54784 0.58451 0.18879
 C407 C 0.55489 0.59057 0.20063
 C408 C 0.56647 0.58320 0.20657
 C409 C 0.57109 0.57012 0.20071
 C410 C 0.58317 0.56326 0.20602
 C411 C 0.58805 0.55039 0.19978
 C412 C 0.58032 0.54407 0.18858
 H413 H 0.53675 0.57136 0.16601
 H414 H 0.56475 0.53483 0.16687
 H415 H 0.53918 0.59025 0.18380
 H416 H 0.57196 0.58766 0.21575
 H417 H 0.58911 0.56830 0.21459
 H418 H 0.58383 0.53400 0.18390
 C419 C 0.67285 0.69562 0.17337
 C420 C 0.66102 0.70286 0.17849
 C421 C 0.65321 0.69705 0.18982
 C422 C 0.65770 0.68407 0.19631
 C423 C 0.66966 0.67689 0.19150
 C424 C 0.67718 0.68256 0.17987
 C425 C 0.68023 0.70112 0.16167
 C426 C 0.69172 0.69358 0.15607
 C427 C 0.69609 0.68062 0.16275
 C428 C 0.68895 0.67510 0.17466
 C429 C 0.69322 0.66213 0.18131
 C430 C 0.68583 0.65651 0.19305
 C431 C 0.67405 0.66398 0.19803
 H432 H 0.65784 0.71298 0.17354
 H433 H 0.65168 0.67929 0.20487
 H434 H 0.67694 0.71127 0.15687
 H435 H 0.70484 0.67462 0.15848
 H436 H 0.70216 0.65632 0.17722
 H437 H 0.66837 0.65983 0.20715
 C438 C 0.17228 0.06252 1.07346
 C439 C 0.16009 0.05662 1.06738
 C440 C 0.15423 0.06235 1.05451
 C441 C 0.16147 0.07350 1.04746
 C442 C 0.17344 0.07956 1.05346
 C443 C 0.17879 0.07420 1.06656
 C444 C 0.17776 0.05730 1.08660
 C445 C 0.18956 0.06378 1.09312
 C446 C 0.19585 0.07545 1.08590
 C447 C 0.19056 0.08069 1.07284
 C448 C 0.19673 0.09260 1.06614
 C449 C 0.19134 0.09809 1.05311
 C450 C 0.17988 0.09124 1.04668
 H451 H 0.15482 0.04819 1.07324
 H452 H 0.15792 0.07753 1.03710
 H453 H 0.17234 0.04867 1.09199
 H454 H 0.20527 0.08028 1.09010
 H455 H 0.20541 0.09791 1.07137
 H456 H 0.17575 0.09519 1.03651
 C457 C 0.58818 0.16804 0.56068
 C458 C 0.60018 0.17506 0.55582
 C459 C 0.60485 0.18779 0.56251
 C460 C 0.59717 0.19354 0.57396
 C461 C 0.58543 0.18644 0.57914
 C462 C 0.58087 0.17365 0.57252
 C463 C 0.58346 0.15540 0.55401
 C464 C 0.57158 0.14824 0.55905
 C465 C 0.56453 0.15379 0.57106
 C466 C 0.56909 0.16644 0.57784
 C467 C 0.56220 0.17187 0.58998
 C468 C 0.56695 0.18449 0.59679
 C469 C 0.57837 0.19184 0.59106
 H470 H 0.60604 0.17041 0.54707
 H471 H 0.60038 0.20353 0.57897
 H472 H 0.58892 0.15126 0.54474
 H473 H 0.55558 0.14817 0.57525
 H474 H 0.55341 0.16611 0.59432
 H475 H 0.58190 0.20176 0.59603
 C476 C 0.07467 0.55543 0.67731
 C477 C 0.08741 0.54978 0.68217
 C478 C 0.09485 0.55645 0.69339
 C479 C 0.08892 0.56849 0.70032
 C480 C 0.07600 0.57416 0.69569
 C481 C 0.06899 0.56775 0.68395
 C482 C 0.06770 0.54913 0.66563
 C483 C 0.05535 0.55528 0.66005
 C484 C 0.04975 0.56760 0.66674
 C485 C 0.05641 0.57376 0.67871
 C486 C 0.05081 0.58602 0.68532
 C487 C 0.05745 0.59232 0.69730
 C488 C 0.07010 0.58631 0.70238
 H489 H 0.09169 0.54028 0.67701
 H490 H 0.09455 0.57373 0.70897
 H491 H 0.07202 0.53948 0.66081
 H492 H 0.04036 0.57261 0.66245
 H493 H 0.04133 0.59078 0.68097
 H494 H 0.07534 0.59098 0.71160
 C495 C 0.66498 0.58061 0.06587
 C496 C 0.65347 0.57465 0.05879
 C497 C 0.64677 0.56246 0.06438
 C498 C 0.65222 0.55580 0.07688
 C499 C 0.66391 0.56156 0.08398
 C500 C 0.67019 0.57415 0.07856
 C501 C 0.67115 0.59314 0.06054
 C502 C 0.68229 0.59964 0.06791
 C503 C 0.68752 0.59313 0.08056
 C504 C 0.68157 0.58038 0.08590
 C505 C 0.68665 0.57392 0.09858
 C506 C 0.68063 0.56122 0.10400
 C507 C 0.66926 0.55511 0.09656
 H508 H 0.64960 0.57966 0.04897
 H509 H 0.64711 0.54643 0.08134
 H510 H 0.66721 0.59789 0.05063
 H511 H 0.69602 0.59811 0.08641
 H512 H 0.69516 0.57896 0.10437
 H513 H 0.66459 0.54527 0.10051
 C514 C 0.06516 0.66756 0.57875
 C515 C 0.05849 0.67278 0.59106
 C516 C 0.06368 0.68484 0.59848
 C517 C 0.07566 0.69173 0.59331
 C518 C 0.08239 0.68668 0.58097
 C519 C 0.07715 0.67453 0.57367
 C520 C 0.06008 0.65540 0.57152
 C521 C 0.06670 0.65012 0.55914
 C522 C 0.07864 0.65722 0.55412
 C523 C 0.08396 0.66930 0.56135
 C524 C 0.09604 0.67616 0.55652
 C525 C 0.10138 0.68830 0.56374
 C526 C 0.09437 0.69353 0.57591
 H527 H 0.04916 0.66750 0.59479
 H528 H 0.07994 0.70086 0.59906
 H529 H 0.05108 0.64987 0.57574
 H530 H 0.08376 0.65342 0.54451
 H531 H 0.10144 0.67184 0.54729
 H532 H 0.09816 0.70302 0.58143
 C533 C 0.55991 1.07671 0.67595
 C534 C 0.55425 1.07174 0.66298
 C535 C 0.56023 1.05996 0.65556
 C536 C 0.57220 1.05324 0.66169
 C537 C 0.57802 1.05817 0.67470
 C538 C 0.57175 1.06985 0.68191
 C539 C 0.55399 1.08863 0.68293
 C540 C 0.55965 1.09375 0.69595
 C541 C 0.57124 1.08657 0.70203
 C542 C 0.57742 1.07484 0.69499
 C543 C 0.58944 1.06830 0.70068
 C544 C 0.59620 1.05707 0.69330
 C545 C 0.59027 1.05189 0.68041
 H546 H 0.54478 1.07684 0.65904
 H547 H 0.57748 1.04459 0.65611
 H548 H 0.54523 1.09420 0.67795
 H549 H 0.57558 1.09021 0.71217
 H550 H 0.59370 1.07214 0.71079
 H551 H 0.59541 1.04329 0.67459
 C552 C 0.42790 0.32194 0.94141
 C553 C 0.43439 0.33449 0.94647
 C554 C 0.44488 0.34142 0.93845
 C555 C 0.44878 0.33517 0.92522
 C556 C 0.44235 0.32267 0.92003
 C557 C 0.43187 0.31602 0.92813
 C558 C 0.41725 0.31541 0.94929
 C559 C 0.41036 0.30313 0.94399
 C560 C 0.41454 0.29723 0.93078
 C561 C 0.42525 0.30355 0.92286
 C562 C 0.42926 0.29772 0.90963
 C563 C 0.43968 0.30431 0.90141
 C564 C 0.44616 0.31681 0.90674
 H565 H 0.43061 0.33915 0.95635
 H566 H 0.45719 0.33965 0.91901
 H567 H 0.41431 0.31992 0.95957
 H568 H 0.40918 0.28795 0.92640
 H569 H 0.42430 0.28799 0.90576
 H570 H 0.45397 0.32220 0.90038
 C571 C 0.91530 0.43364 0.33179
 C572 C 0.92178 0.43874 0.34438
 C573 C 0.93349 0.43155 0.35052
 C574 C 0.93857 0.41909 0.34343
 C575 C 0.93212 0.41380 0.33094
 C576 C 0.92043 0.42108 0.32513
 C577 C 0.90366 0.44085 0.32583
 C578 C 0.89704 0.43560 0.31333
 C579 C 0.90221 0.42296 0.30690
 C580 C 0.91385 0.41576 0.31263
 C581 C 0.91897 0.40327 0.30603
 C582 C 0.93062 0.39592 0.31173
 C583 C 0.93718 0.40130 0.32418
 H584 H 0.91714 0.44797 0.34961
 H585 H 0.94789 0.41361 0.34722
 H586 H 0.89987 0.45065 0.33082
 H587 H 0.89703 0.41858 0.29749
 H588 H 0.91398 0.39936 0.29631
 H589 H 0.94607 0.39560 0.32876
 C590 C 0.32915 0.94799 0.42564
 C591 C 0.32416 0.95447 0.41293
 C592 C 0.31268 0.94868 0.40544
 C593 C 0.30617 0.93626 0.41090
 C594 C 0.31092 0.92976 0.42369
 C595 C 0.32240 0.93572 0.43110
 C596 C 0.34107 0.95331 0.43269
 C597 C 0.34646 0.94650 0.44524
 C598 C 0.33895 0.93480 0.45097
 C599 C 0.32729 0.92924 0.44388
 C600 C 0.32076 0.91694 0.44921
 C601 C 0.30974 0.91051 0.44163
 C602 C 0.30467 0.91713 0.42897
 H603 H 0.32921 0.96406 0.40889
 H604 H 0.29758 0.93146 0.40504
 H605 H 0.34653 0.96217 0.42773
 H606 H 0.34206 0.92988 0.46109
 H607 H 0.32454 0.91210 0.45915
 H608 H 0.29619 0.91224 0.42301
 O609 O 0.21572 0.52153 0.74692
 O610 O 0.22104 0.51770 0.77093
 O611 O 0.25134 0.54369 0.73062
 O612 O 0.27561 0.53863 0.72905
 O613 O 0.23400 0.50784 0.70750
 O614 O 0.23576 0.48243 0.71010
 O615 O 0.28964 0.50106 0.76380
 O616 O 0.28618 0.52569 0.76272
 O617 O 0.25590 0.48117 0.78039
 O618 O 0.23067 0.48211 0.77626
 O619 O 0.27254 0.46668 0.74250
 O620 O 0.27067 0.47372 0.71724
 O621 O 0.29014 0.48632 0.74428
 O622 O 0.28411 0.49053 0.71785
 O623 O 0.25595 0.46421 0.75956
 O624 O 0.22992 0.46928 0.75866
 O625 O 0.27180 0.49915 0.78223
 O626 O 0.26694 0.52563 0.77950
 O627 O 0.21551 0.50598 0.72799
 O628 O 0.22135 0.48016 0.72696
 O629 O 0.25043 0.52539 0.70846
 O630 O 0.27562 0.52345 0.71327
 O631 O 0.23454 0.54172 0.74757
 O632 O 0.23893 0.53365 0.77297
 Zr633 Zr 0.23623 0.52014 0.75478
 O634 O 0.24891 0.50602 0.76704
 Zr635 Zr 0.25984 0.52282 0.72896
 O636 O 0.27379 0.50946 0.74054
 Zr637 Zr 0.23587 0.49720 0.72736
 O638 O 0.24905 0.48239 0.73817
 Zr639 Zr 0.26979 0.51052 0.76267
 O640 O 0.25719 0.52564 0.75129
 Zr641 Zr 0.24611 0.48459 0.76037
 O642 O 0.23195 0.49848 0.74948
 Zr643 Zr 0.27002 0.48792 0.73501
 O644 O 0.25682 0.50138 0.72235
 O645 O 0.23903 0.51864 0.73272
 O646 O 0.26699 0.48901 0.75706
 C647 C 0.20961 0.51523 0.73632
 C648 C 0.24149 0.54896 0.73829
 C649 C 0.24049 0.51860 0.70207
 C650 C 0.29567 0.49179 0.75567
 C651 C 0.26566 0.48787 0.78706
 C652 C 0.26627 0.45942 0.75224
 H653 H 0.24690 0.50732 0.77737
 H654 H 0.24705 0.47249 0.73485
 H655 H 0.23276 0.52528 0.72733
 H656 H 0.28346 0.51238 0.73853
 H657 H 0.28190 0.53524 0.76074
 H658 H 0.27577 0.54287 0.73878
 H659 H 0.23179 0.46317 0.75019
 H660 H 0.21656 0.48031 0.73633
 H661 H 0.27496 0.52467 0.78624
 H662 H 0.23151 0.54115 0.77283
 H663 H 0.26206 0.46794 0.71734
 H664 H 0.24509 0.48294 0.70572
 H665 H 0.21766 0.50766 0.77026
 H666 H 0.23143 0.49035 0.78294
 H667 H 0.27431 0.51488 0.70709
 H668 H 0.29064 0.49832 0.72049
 O669 O 0.28636 0.00263 0.26672
 O670 O 0.28043 0.02692 0.26384
 O671 O 0.25140 -0.01671 0.28616
 O672 O 0.22728 -0.01782 0.28054
 O673 O 0.26981 -0.03677 0.24927
 O674 O 0.26943 -0.03221 0.22441
 O675 O 0.21224 0.01661 0.24570
 O676 O 0.21625 0.01831 0.26991
 O677 O 0.24712 0.03756 0.22753
 O678 O 0.27183 0.03379 0.22819
 O679 O 0.23163 -0.00071 0.20956
 O680 O 0.23419 -0.02626 0.21527
 O681 O 0.21333 -0.00076 0.22852
 O682 O 0.22027 -0.02719 0.23145
 O683 O 0.24680 0.01796 0.20922
 O684 O 0.27319 0.01686 0.21456
 O685 O 0.22990 0.03720 0.24407
 O686 O 0.23304 0.03177 0.27194
 O687 O 0.28807 -0.01508 0.24988
 O688 O 0.28291 -0.01454 0.22384
 O689 O 0.25330 -0.03739 0.26664
 O690 O 0.22809 -0.03352 0.26438
 O691 O 0.26732 0.00136 0.28580
 O692 O 0.26204 0.02705 0.27941
 Zr693 Zr 0.26581 0.00994 0.26480
 O694 O 0.25313 0.02265 0.25114
 Zr695 Zr 0.24325 -0.01709 0.26509
 O696 O 0.22919 -0.00528 0.25206
 Zr697 Zr 0.26795 -0.01603 0.24029
 O698 O 0.25470 -0.00484 0.22581
 Zr699 Zr 0.23233 0.01703 0.25460
 O700 O 0.24493 0.00517 0.26930
 Zr701 Zr 0.25673 0.01735 0.22953
 O702 O 0.27093 0.00621 0.24313
 Zr703 Zr 0.23374 -0.00923 0.23039
 O704 O 0.24708 -0.02215 0.24344
 O705 O 0.26397 -0.01218 0.26181
 O706 O 0.23579 0.01299 0.23293
 C707 C 0.29315 -0.00726 0.26010
 C708 C 0.26082 -0.00892 0.29214
 C709 C 0.26332 -0.04313 0.25948
 C710 C 0.20685 0.00915 0.23550
 C711 C 0.23669 0.04331 0.23389
 C712 C 0.23723 0.01021 0.20344
 H713 H 0.25485 0.03297 0.25310
 H714 H 0.25706 -0.00741 0.21582
 H715 H 0.27022 -0.01786 0.26821
 H716 H 0.21958 -0.00803 0.25452
 H717 H 0.21352 0.00828 0.27214
 H718 H 0.22684 -0.00812 0.28495
 H719 H 0.27100 0.00951 0.20720
 H720 H 0.28735 -0.00497 0.22485
 H721 H 0.23816 0.04041 0.26872
 H722 H 0.26940 0.02684 0.28697
 H723 H 0.24283 -0.02532 0.20966
 H724 H 0.26017 -0.03681 0.22388
 H725 H 0.28474 0.02646 0.25423
 H726 H 0.27150 0.03932 0.23726
 H727 H 0.22966 -0.03896 0.25539
 H728 H 0.21341 -0.02531 0.23909
 O729 O 0.53533 0.73262 0.24732
 O730 O 0.52996 0.73500 0.27178
 O731 O 0.49853 0.71485 0.22850
 O732 O 0.47384 0.72255 0.22802
 O733 O 0.51834 0.75069 0.20888
 O734 O 0.51784 0.77638 0.21353
 O735 O 0.46240 0.75704 0.26337
 O736 O 0.46470 0.73246 0.26075
 O737 O 0.49803 0.77239 0.28365
 O738 O 0.52346 0.76925 0.27966
 O739 O 0.48337 0.79234 0.24687
 O740 O 0.48548 0.78699 0.22037
 O741 O 0.46411 0.77447 0.24619
 O742 O 0.46935 0.77295 0.22021
 O743 O 0.50001 0.79145 0.26439
 O744 O 0.52501 0.78434 0.26412
 O745 O 0.47983 0.75687 0.28262
 O746 O 0.48321 0.73030 0.27872
 O747 O 0.53667 0.74991 0.22990
 O748 O 0.53296 0.77569 0.23020
 O749 O 0.50043 0.73475 0.20818
 O750 O 0.47600 0.73787 0.21209
 O751 O 0.51512 0.71415 0.24613
 O752 O 0.51117 0.71997 0.27182
 Zr753 Zr 0.51488 0.73497 0.25501
 O754 O 0.50299 0.74870 0.26812
 Zr755 Zr 0.49125 0.73641 0.22859
 O756 O 0.47838 0.75016 0.24064
 Zr757 Zr 0.51703 0.76008 0.22945
 O758 O 0.50530 0.77493 0.24153
 Zr759 Zr 0.48185 0.74659 0.26266
 O760 O 0.49356 0.73148 0.25062
 Zr761 Zr 0.50776 0.77026 0.26354
 O762 O 0.52082 0.75653 0.25150
 Zr763 Zr 0.48402 0.77176 0.23730
 O764 O 0.49586 0.75809 0.22381
 O765 O 0.51228 0.73861 0.23311
 O766 O 0.48659 0.76821 0.25923
 C767 C 0.54188 0.73947 0.23741
 C768 C 0.50800 0.70829 0.23598
 C769 C 0.51103 0.74094 0.20257
 C770 C 0.45755 0.76794 0.25628
 C771 C 0.48709 0.76657 0.28897
 C772 C 0.49027 0.79795 0.25735
 H773 H 0.50466 0.74625 0.27835
 H774 H 0.50821 0.78486 0.23920
 H775 H 0.51811 0.73202 0.22734
 H776 H 0.46853 0.74838 0.23806
 H777 H 0.46855 0.72278 0.25861
 H778 H 0.47468 0.71603 0.23643
 H779 H 0.52435 0.79073 0.25559
 H780 H 0.53721 0.77502 0.23992
 H781 H 0.47499 0.73136 0.28501
 H782 H 0.51827 0.71216 0.27136
 H783 H 0.49370 0.79308 0.22229
 H784 H 0.50873 0.77631 0.20848
 H785 H 0.53465 0.74447 0.27140
 H786 H 0.52142 0.76096 0.28601
 H787 H 0.47706 0.74750 0.20761
 H788 H 0.46317 0.76450 0.22100
 O789 O 0.04192 0.73826 0.75328
 O790 O 0.03588 0.74131 0.77740
 O791 O 0.00822 0.71419 0.73537
 O792 O -0.01715 0.71808 0.73446
 O793 O 0.02272 0.75147 0.71313
 O794 O 0.01987 0.77685 0.71634
 O795 O -0.03345 0.75373 0.76744
 O796 O -0.02825 0.72939 0.76645
 O797 O -0.00048 0.77505 0.78621
 O798 O 0.02490 0.77546 0.78256
 O799 O -0.01710 0.79017 0.74761
 O800 O -0.01433 0.78291 0.72192
 O801 O -0.03410 0.76940 0.74854
 O802 O -0.02821 0.76668 0.72281
 O803 O -0.00124 0.79254 0.76570
 O804 O 0.02481 0.78913 0.76563
 O805 O -0.01637 0.75701 0.78659
 O806 O -0.00974 0.73085 0.78444
 O807 O 0.04130 0.75407 0.73446
 O808 O 0.03433 0.77923 0.73315
 O809 O 0.00767 0.73264 0.71385
 O810 O -0.01713 0.73266 0.71759
 O811 O 0.02460 0.71701 0.75295
 O812 O 0.01911 0.72385 0.77822
 Zr813 Zr 0.02127 0.73814 0.76052
 O814 O 0.00763 0.75112 0.77256
 Zr815 Zr -0.00192 0.73445 0.73405
 O816 O -0.01661 0.74710 0.74507
 Zr817 Zr 0.02054 0.76155 0.73325
 O818 O 0.00675 0.77545 0.74405
 Zr819 Zr -0.01297 0.74573 0.76732
 O820 O 0.00067 0.73147 0.75639
 Zr821 Zr 0.00954 0.77278 0.76634
 O822 O 0.02441 0.76007 0.75550
 Zr823 Zr -0.01385 0.76900 0.74003
 O824 O -0.00009 0.75620 0.72769
 O825 O 0.01857 0.73990 0.73839
 O826 O -0.01110 0.76751 0.76218
 C827 C 0.04770 0.74512 0.74290
 C828 C 0.01848 0.70955 0.74315
 C829 C 0.01696 0.74028 0.70757
 C830 C -0.03972 0.76303 0.75932
 C831 C -0.01051 0.76816 0.79208
 C832 C -0.01134 0.79732 0.75786
 H833 H 0.00951 0.74969 0.78294
 H834 H 0.00836 0.78551 0.74097
 H835 H 0.02527 0.73387 0.73303
 H836 H -0.02609 0.74374 0.74264
 H837 H -0.02326 0.72018 0.76480
 H838 H -0.01561 0.71248 0.74341
 H839 H 0.02296 0.79512 0.75699
 H840 H 0.03855 0.77967 0.74289
 H841 H -0.01805 0.73126 0.79067
 H842 H 0.02713 0.71704 0.77835
 H843 H -0.00683 0.79007 0.72317
 H844 H 0.01073 0.77569 0.71149
 H845 H 0.03919 0.75136 0.77653
 H846 H 0.02420 0.76724 0.78932
 H847 H -0.01704 0.74189 0.71219
 H848 H -0.03330 0.75757 0.72432
 O849 O 0.00365 0.04005 0.01637
 O850 O -0.02024 0.03662 0.01280
 O851 O 0.01829 0.00055 0.03480
 O852 O 0.01761 -0.02465 0.02767
 O853 O 0.03978 0.01952 -0.00044
 O854 O 0.03571 0.01999 -0.02604
 O855 O -0.01721 -0.03379 -0.00845
 O856 O -0.01493 -0.03186 0.01634
 O857 O -0.03322 0.00357 -0.02523
 O858 O -0.02802 0.02958 -0.02222
 O859 O 0.00252 -0.01368 -0.04286
 O860 O 0.02728 -0.01414 -0.03633
 O861 O 0.00043 -0.03382 -0.02461
 O862 O 0.02619 -0.02999 -0.02141
 O863 O -0.01392 0.00408 -0.04293
 O864 O -0.01182 0.03039 -0.03607
 O865 O -0.03426 -0.01463 -0.00886
 O866 O -0.03087 -0.01128 0.01765
 O867 O 0.02110 0.04017 -0.00005
 O868 O 0.02050 0.03659 -0.02590
 O869 O 0.03867 0.00129 0.01594
 O870 O 0.03300 -0.02390 0.01256
 O871 O 0.00242 0.01888 0.03489
 O872 O -0.02259 0.01706 0.02765
 Zr873 Zr -0.00546 0.01956 0.01364
 O874 O -0.01865 0.00822 -0.00057
 Zr875 Zr 0.01834 -0.00680 0.01346
 O876 O 0.00603 -0.01932 -0.00042
 Zr877 Zr 0.01998 0.01995 -0.01031
 O878 O 0.00800 0.00844 -0.02545
 Zr879 Zr -0.01506 -0.01398 0.00209
 O880 O -0.00289 -0.00278 0.01748
 Zr881 Zr -0.01326 0.01250 -0.02195
 O882 O -0.00116 0.02531 -0.00780
 Zr883 Zr 0.01048 -0.01385 -0.02177
 O884 O 0.02396 -0.00232 -0.00790
 O885 O 0.01558 0.01527 0.01095
 O886 O -0.01063 -0.00961 -0.01933
 C887 C 0.01406 0.04603 0.01013
 C888 C 0.01154 0.01069 0.04112
 C889 C 0.04509 0.01165 0.00966
 C890 C -0.01030 -0.03953 -0.01874
 C891 C -0.03941 -0.00719 -0.01934
 C892 C -0.00711 -0.00616 -0.04903
 H893 H -0.02848 0.01069 0.00136
 H894 H 0.01082 0.01121 -0.03526
 H895 H 0.02145 0.02078 0.01776
 H896 H 0.00768 -0.02967 0.00163
 H897 H -0.01294 -0.02804 0.02606
 H898 H 0.00891 -0.02370 0.03319
 H899 H -0.00375 0.02873 -0.04240
 H900 H 0.01148 0.04176 -0.02533
 H901 H -0.03753 -0.01932 0.01648
 H902 H -0.02176 0.02422 0.03551
 H903 H 0.02714 -0.00486 -0.04162
 H904 H 0.04005 0.01026 -0.02579
 H905 H -0.01961 0.04099 0.00311
 H906 H -0.03424 0.02823 -0.01392
 H907 H 0.03812 -0.02270 0.00345
 H908 H 0.02401 -0.03689 -0.01363
 O909 O 0.03591 0.51548 0.49869
 O910 O 0.02852 0.51416 0.47452
 O911 O 0.00199 0.53489 0.52048
 O912 O -0.02272 0.52930 0.52254
 O913 O 0.02125 0.49693 0.53745
 O914 O 0.01930 0.47168 0.53206
 O915 O -0.03909 0.49624 0.48661
 O916 O -0.03555 0.52063 0.48984
 O917 O -0.00661 0.47890 0.46412
 O918 O 0.01904 0.48019 0.46588
 O919 O -0.01873 0.45926 0.50163
 O920 O -0.01474 0.46380 0.52754
 O921 O -0.03719 0.47881 0.50384
 O922 O -0.02936 0.47935 0.52943
 O923 O -0.00411 0.45962 0.48259
 O924 O 0.02157 0.46501 0.48143
 O925 O -0.02321 0.49634 0.46617
 O926 O -0.01828 0.52243 0.47099
 O927 O 0.03797 0.49719 0.51503
 O928 O 0.03268 0.47180 0.51432
 O929 O 0.00434 0.51402 0.53998
 O930 O -0.02067 0.51297 0.53737
 O931 O 0.01709 0.53516 0.50178
 O932 O 0.01050 0.53048 0.47621
 Zr933 Zr 0.01486 0.51468 0.49224
 O934 O 0.00125 0.50213 0.47960
 Zr935 Zr -0.00649 0.51397 0.52016
 O936 O -0.02108 0.50168 0.50860
 Zr937 Zr 0.01784 0.48854 0.51674
 O938 O 0.00422 0.47499 0.50531
 Zr939 Zr -0.01924 0.50558 0.48646
 O940 O -0.00581 0.51946 0.49816
 Zr941 Zr 0.00506 0.48011 0.48332
 O942 O 0.01986 0.49260 0.49462
 Zr943 Zr -0.01640 0.47965 0.51115
 O944 O -0.00261 0.49189 0.52404
 O945 O 0.01395 0.51043 0.51414
 O946 O -0.01551 0.48357 0.48916
 C947 C 0.04298 0.50772 0.50770
 C948 C 0.01117 0.54108 0.51264
 C949 C 0.01493 0.50678 0.54465
 C950 C -0.04407 0.48584 0.49413
 C951 C -0.01734 0.48589 0.45942
 C952 C -0.01324 0.45348 0.49048
 H953 H 0.00222 0.50474 0.46934
 H954 H 0.00676 0.46480 0.50721
 H955 H 0.02059 0.51635 0.51973
 H956 H -0.03056 0.50413 0.51189
 H957 H -0.03112 0.52992 0.49230
 H958 H -0.02253 0.53567 0.51399
 H959 H 0.02081 0.45797 0.48940
 H960 H 0.03616 0.47253 0.50437
 H961 H -0.02696 0.52216 0.46516
 H962 H 0.01803 0.53775 0.47640
 H963 H -0.00647 0.45775 0.52550
 H964 H 0.01066 0.47211 0.53776
 H965 H 0.03249 0.50428 0.47415
 H966 H 0.01723 0.48904 0.46016
 H967 H -0.01944 0.50333 0.54186
 H968 H -0.03549 0.48797 0.52894
 O969 O 0.54035 0.01094 0.50124
 O970 O 0.53582 0.00899 0.47665
 O971 O 0.50576 0.03522 0.51710
 O972 O 0.48271 0.03312 0.51876
 O973 O 0.51992 -0.00391 0.53890
 O974 O 0.51646 -0.02887 0.53445
 O975 O 0.46565 -0.00030 0.48106
 O976 O 0.47209 0.02352 0.48291
 O977 O 0.49933 -0.02285 0.46337
 O978 O 0.52383 -0.02533 0.46883
 O979 O 0.47984 -0.03870 0.50030
 O980 O 0.48075 -0.03372 0.52535
 O981 O 0.46387 -0.01725 0.49869
 O982 O 0.46940 -0.01508 0.52591
 O983 O 0.49630 -0.04138 0.48315
 O984 O 0.52277 -0.03919 0.48559
 O985 O 0.48364 -0.00438 0.46280
 O986 O 0.49115 0.02134 0.46647
 O987 O 0.53905 -0.00620 0.51880
 O988 O 0.53117 -0.03132 0.51794
 O989 O 0.50528 0.01547 0.53823
 O990 O 0.47946 0.01528 0.53227
 O991 O 0.52335 0.03262 0.50110
 O992 O 0.51926 0.02683 0.47510
 Zr993 Zr 0.52026 0.01183 0.49238
 O994 O 0.50706 -0.00014 0.47881
 Zr995 Zr 0.49609 0.01499 0.51751
 O996 O 0.48158 0.00394 0.50462
 Zr997 Zr 0.51804 -0.01291 0.51827
 O998 O 0.50414 -0.02556 0.50609
 Zr999 Zr 0.48643 0.00607 0.48274
 O1000 O 0.49968 0.01905 0.49552
 Zr1001 Zr 0.50798 -0.02218 0.48417
 O1002 O 0.52275 -0.01048 0.49638
 Zr1003 Zr 0.48358 -0.01821 0.50890
 O1004 O 0.49732 -0.00706 0.52287
 O1005 O 0.51663 0.00908 0.51418
 O1006 O 0.48736 -0.01598 0.48705
 C1007 C 0.54570 0.00335 0.51152
 C1008 C 0.51646 0.03993 0.51042
 C1009 C 0.51429 0.00727 0.54464
 C1010 C 0.45884 -0.00982 0.48810
 C1011 C 0.48976 -0.01531 0.45711
 C1012 C 0.48563 -0.04579 0.49013
 H1013 H 0.50955 0.00163 0.46867
 H1014 H 0.50521 -0.03582 0.50883
 H1015 H 0.52314 0.01476 0.52017
 H1016 H 0.47210 0.00763 0.50654
 H1017 H 0.47742 0.03217 0.48579
 H1018 H 0.47658 0.03275 0.51017
 H1019 H 0.51979 -0.04589 0.49325
 H1020 H 0.53621 -0.03102 0.50872
 H1021 H 0.48330 0.02148 0.45947
 H1022 H 0.52727 0.03350 0.47595
 H1023 H 0.48949 -0.03936 0.52620
 H1024 H 0.50721 -0.02753 0.53885
 H1025 H 0.53890 -0.00121 0.47727
 H1026 H 0.52468 -0.01624 0.46330
 H1027 H 0.48092 0.00700 0.53888
 H1028 H 0.46290 -0.00722 0.52307
 O1029 O 0.46021 0.49679 -0.01203
 O1030 O 0.46456 0.52158 -0.00896
 O1031 O 0.49484 0.48044 -0.03461
 O1032 O 0.52013 0.48145 -0.03073
 O1033 O 0.48132 0.45858 0.00290
 O1034 O 0.48383 0.46277 0.02816
 O1035 O 0.53452 0.51644 0.00449
 O1036 O 0.52976 0.51448 -0.01992
 O1037 O 0.50046 0.53392 0.02459
 O1038 O 0.47550 0.52891 0.02490
 O1039 O 0.51912 0.49665 0.04047
 O1040 O 0.51738 0.47037 0.03423
 O1041 O 0.53602 0.49752 0.02011
 O1042 O 0.53138 0.47151 0.01820
 O1043 O 0.50200 0.51352 0.04269
 O1044 O 0.47600 0.51204 0.03869
 O1045 O 0.51632 0.53474 0.00664
 O1046 O 0.51023 0.53128 -0.01945
 O1047 O 0.46173 0.47874 0.00462
 O1048 O 0.46837 0.47874 0.02974
 O1049 O 0.49649 0.45964 -0.01569
 O1050 O 0.52110 0.46496 -0.01558
 O1051 O 0.47822 0.49795 -0.03293
 O1052 O 0.48138 0.52361 -0.02608
 Zr1053 Zr 0.48034 0.50578 -0.01174
 O1054 O 0.49328 0.51899 0.00100
 Zr1055 Zr 0.50495 0.48051 -0.01443
 O1056 O 0.51895 0.49277 -0.00205
 Zr1057 Zr 0.48236 0.47916 0.01235
 O1058 O 0.49543 0.49116 0.02600
 Zr1059 Zr 0.51419 0.51484 -0.00398
 O1060 O 0.50122 0.50270 -0.01800
 Zr1061 Zr 0.49152 0.51329 0.02275
 O1062 O 0.47733 0.50119 0.01022
 Zr1063 Zr 0.51620 0.48808 0.01981
 O1064 O 0.50324 0.47456 0.00734
 O1065 O 0.48424 0.48383 -0.00936
 O1066 O 0.51237 0.51012 0.01780
 C1067 C 0.45499 0.48621 -0.00488
 C1068 C 0.48471 0.48799 -0.03983
 C1069 C 0.48746 0.45304 -0.00801
 C1070 C 0.54111 0.50866 0.01386
 C1071 C 0.51015 0.54025 0.01756
 C1072 C 0.51266 0.50651 0.04748
 H1073 H 0.49088 0.52926 -0.00073
 H1074 H 0.49391 0.48823 0.03609
 H1075 H 0.47796 0.47789 -0.01536
 H1076 H 0.52856 0.49079 -0.00523
 H1077 H 0.52505 0.51203 -0.02909
 H1078 H 0.51809 0.49020 -0.03653
 H1079 H 0.47822 0.50365 0.04494
 H1080 H 0.46356 0.48823 0.02978
 H1081 H 0.51812 0.53811 -0.01908
 H1082 H 0.47344 0.52308 -0.03297
 H1083 H 0.51004 0.47166 0.04150
 H1084 H 0.49318 0.45833 0.02717
 H1085 H 0.46113 0.52049 0.00098
 H1086 H 0.47548 0.53502 0.01616
 H1087 H 0.52106 0.45957 -0.00637
 H1088 H 0.53636 0.47293 0.00906
 O1089 O 0.77488 0.28698 0.51104
 O1090 O 0.77219 0.28019 0.53504
 O1091 O 0.79336 0.24994 0.49135
 O1092 O 0.78834 0.22701 0.48696
 O1093 O 0.75736 0.27153 0.47141
 O1094 O 0.73322 0.27122 0.47602
 O1095 O 0.75478 0.20988 0.52265
 O1096 O 0.77834 0.21400 0.52171
 O1097 O 0.73641 0.24446 0.54403
 O1098 O 0.73802 0.27071 0.54233
 O1099 O 0.71929 0.23148 0.50552
 O1100 O 0.72417 0.23396 0.48089
 O1101 O 0.73809 0.21193 0.50520
 O1102 O 0.74064 0.22034 0.47878
 O1103 O 0.71880 0.24707 0.52430
 O1104 O 0.72476 0.27383 0.52546
 O1105 O 0.75283 0.22671 0.54312
 O1106 O 0.77832 0.23187 0.54033
 O1107 O 0.75817 0.28950 0.49363
 O1108 O 0.73302 0.28467 0.49409
 O1109 O 0.77428 0.25428 0.47040
 O1110 O 0.77086 0.22734 0.47345
 O1111 O 0.79324 0.26672 0.50917
 O1112 O 0.78721 0.26080 0.53472
 Zr1113 Zr 0.77296 0.26543 0.51772
 O1114 O 0.75987 0.25200 0.52988
 Zr1115 Zr 0.77275 0.24287 0.48999
 O1116 O 0.76043 0.22813 0.50129
 Zr1117 Zr 0.74888 0.26890 0.49198
 O1118 O 0.73507 0.25499 0.50261
 Zr1119 Zr 0.76320 0.23058 0.52359
 O1120 O 0.77722 0.24382 0.51222
 Zr1121 Zr 0.73885 0.25618 0.52484
 O1122 O 0.75188 0.27112 0.51426
 Zr1123 Zr 0.73946 0.23334 0.49741
 O1124 O 0.75179 0.24746 0.48500
 O1125 O 0.76977 0.26426 0.49563
 O1126 O 0.74217 0.23465 0.51956
 C1127 C 0.76825 0.29439 0.50143
 C1128 C 0.79927 0.25963 0.49907
 C1129 C 0.76733 0.26496 0.46500
 C1130 C 0.74489 0.20472 0.51488
 C1131 C 0.74252 0.23314 0.54914
 C1132 C 0.71316 0.23753 0.51613
 H1133 H 0.76185 0.25320 0.54026
 H1134 H 0.72539 0.25771 0.50006
 H1135 H 0.77602 0.27075 0.49028
 H1136 H 0.76282 0.21821 0.49823
 H1137 H 0.78724 0.21878 0.51944
 H1138 H 0.78749 0.22011 0.49502
 H1139 H 0.71822 0.27287 0.51724
 H1140 H 0.73423 0.28902 0.50372
 H1141 H 0.77754 0.22306 0.54635
 H1142 H 0.79459 0.26823 0.53468
 H1143 H 0.72005 0.24377 0.48086
 H1144 H 0.73307 0.26203 0.47062
 H1145 H 0.76264 0.28426 0.53509
 H1146 H 0.74668 0.26945 0.54804
 H1147 H 0.76315 0.23059 0.46705
 H1148 H 0.74739 0.21245 0.48076
 O1149 O 0.79097 0.74604 -0.01509
 O1150 O 0.78755 0.72174 -0.00970
 O1151 O 0.75624 0.75770 -0.04181
 O1152 O 0.73294 0.75821 -0.04045
 O1153 O 0.76842 0.78462 -0.00600
 O1154 O 0.76436 0.78327 0.01927
 O1155 O 0.71707 0.72474 -0.00240
 O1156 O 0.72383 0.72405 -0.02638
 O1157 O 0.75070 0.71129 0.02283
 O1158 O 0.77544 0.71766 0.02422
 O1159 O 0.72952 0.74866 0.03311
 O1160 O 0.72973 0.77371 0.02472
 O1161 O 0.71393 0.74426 0.01201
 O1162 O 0.71788 0.77108 0.00664
 O1163 O 0.74721 0.73302 0.03825
 O1164 O 0.77330 0.73585 0.03609
 O1165 O 0.73538 0.70819 0.00432
 O1166 O 0.74343 0.70844 -0.02151
 O1167 O 0.78818 0.76583 -0.00088
 O1168 O 0.78012 0.76780 0.02408
 O1169 O 0.75398 0.78119 -0.02518
 O1170 O 0.72869 0.77436 -0.02481
 O1171 O 0.77416 0.74227 -0.03667
 O1172 O 0.77148 0.71720 -0.02745
 Zr1173 Zr 0.77128 0.73639 -0.01505
 O1174 O 0.75844 0.72389 -0.00179
 Zr1175 Zr 0.74591 0.76021 -0.02211
 O1176 O 0.73180 0.74832 -0.00961
 Zr1177 Zr 0.76721 0.76523 0.00574
 O1178 O 0.75378 0.75410 0.01968
 Zr1179 Zr 0.73778 0.72650 -0.00880
 O1180 O 0.75071 0.73797 -0.02304
 Zr1181 Zr 0.75883 0.73201 0.01924
 O1182 O 0.77315 0.74336 0.00642
 Zr1183 Zr 0.73317 0.75528 0.01182
 O1184 O 0.74637 0.76826 -0.00097
 O1185 O 0.76645 0.75830 -0.01541
 O1186 O 0.73820 0.73348 0.01241
 C1187 C 0.79548 0.75761 -0.00910
 C1188 C 0.76722 0.75054 -0.04530
 C1189 C 0.76270 0.78879 -0.01788
 C1190 C 0.70970 0.73248 0.00612
 C1191 C 0.74122 0.70416 0.01617
 C1192 C 0.73595 0.73975 0.04152
 H1193 H 0.76135 0.71364 -0.00216
 H1194 H 0.75460 0.75811 0.02948
 H1195 H 0.77275 0.76376 -0.02174
 H1196 H 0.72228 0.74941 -0.01362
 H1197 H 0.72924 0.72594 -0.03518
 H1198 H 0.72651 0.75018 -0.03847
 H1199 H 0.77025 0.74461 0.04126
 H1200 H 0.78567 0.75880 0.02506
 H1201 H 0.73590 0.70123 -0.02073
 H1202 H 0.77964 0.71742 -0.03390
 H1203 H 0.73786 0.77471 0.03123
 H1204 H 0.75486 0.78699 0.01723
 H1205 H 0.79031 0.72376 0.00037
 H1206 H 0.77598 0.71046 0.01641
 H1207 H 0.72931 0.78162 -0.01705
 H1208 H 0.71215 0.76734 -0.00139
 O1209 O 0.99654 0.20620 0.23158
 O1210 O 0.97277 0.21205 0.23222
 O1211 O 1.01533 0.24199 0.21077
 O1212 O 1.01465 0.26824 0.21507
 O1213 O 1.03300 0.22579 0.24953
 O1214 O 1.02740 0.22802 0.27449
 O1215 O 0.97862 0.28341 0.24785
 O1216 O 0.98278 0.27945 0.22352
 O1217 O 0.96013 0.24924 0.26591
 O1218 O 0.96370 0.22258 0.26559
 O1219 O 0.99543 0.26517 0.28524
 O1220 O 1.02081 0.26314 0.28047
 O1221 O 0.99557 0.28369 0.26515
 O1222 O 1.02092 0.27817 0.26478
 O1223 O 0.97810 0.24861 0.28536
 O1224 O 0.97879 0.22188 0.28095
 O1225 O 0.96064 0.26549 0.24758
 O1226 O 0.96597 0.25981 0.22191
 O1227 O 1.01312 0.20652 0.24928
 O1228 O 1.01136 0.21261 0.27448
 O1229 O 1.03412 0.24271 0.23180
 O1230 O 1.02945 0.26817 0.23130
 O1231 O 0.99830 0.22506 0.21107
 O1232 O 0.97305 0.23009 0.21533
 Zr1233 Zr 0.98883 0.22755 0.23128
 O1234 O 0.97557 0.24114 0.24316
 Zr1235 Zr 1.01404 0.25200 0.23110
 O1236 O 1.00177 0.26666 0.24278
 Zr1237 Zr 1.01269 0.22768 0.25744
 O1238 O 1.00059 0.24134 0.27036
 Zr1239 Zr 0.98059 0.26273 0.23889
 O1240 O 0.99289 0.24919 0.22564
 Zr1241 Zr 0.97945 0.23845 0.26524
 O1242 O 0.99153 0.22354 0.25346
 Zr1243 Zr 1.00459 0.26294 0.26490
 O1244 O 1.01809 0.24927 0.25325
 O1245 O 1.00988 0.23053 0.23550
 O1246 O 0.98349 0.26000 0.26095
 C1247 C 1.00619 0.20016 0.23925
 C1248 C 1.00847 0.23159 0.20500
 C1249 C 1.03948 0.23256 0.23958
 C1250 C 0.98536 0.28952 0.25816
 C1251 C 0.95474 0.25956 0.25840
 C1252 C 0.98513 0.25881 0.29122
 H1253 H 0.96576 0.23919 0.24056
 H1254 H 1.00266 0.23928 0.28059
 H1255 H 1.01588 0.22391 0.22996
 H1256 H 1.00414 0.27666 0.24002
 H1257 H 0.98557 0.27479 0.21443
 H1258 H 1.00675 0.26650 0.20841
 H1259 H 0.98672 0.22330 0.28765
 H1260 H 1.00212 0.20802 0.27359
 H1261 H 0.95971 0.26837 0.22170
 H1262 H 0.97389 0.22208 0.20832
 H1263 H 1.01934 0.25492 0.28708
 H1264 H 1.03225 0.23738 0.27381
 H1265 H 0.97249 0.20856 0.24228
 H1266 H 0.95779 0.22394 0.25692
 H1267 H 1.03352 0.26818 0.24112
 H1268 H 1.01986 0.28414 0.25600
 O1269 O 0.74706 1.02851 0.72396
 O1270 O 0.77104 1.02427 0.72506
 O1271 O 0.73001 0.99098 0.70465
 O1272 O 0.73098 0.96527 0.71010
 O1273 O 0.71222 1.00798 0.74290
 O1274 O 0.71881 1.00693 0.76832
 O1275 O 0.76870 0.95250 0.74155
 O1276 O 0.76427 0.95656 0.71749
 O1277 O 0.78692 0.98894 0.75891
 O1278 O 0.78142 1.01483 0.75904
 O1279 O 0.75253 0.97022 0.77948
 O1280 O 0.72870 0.97282 0.77652
 O1281 O 0.75360 0.95219 0.76024
 O1282 O 0.72790 0.95556 0.75699
 O1283 O 0.76950 0.98722 0.77876
 O1284 O 0.76664 1.01436 0.77457
 O1285 O 0.78600 0.97126 0.74203
 O1286 O 0.78040 0.97680 0.71614
 O1287 O 0.73117 1.02806 0.74198
 O1288 O 0.73418 1.02254 0.76752
 O1289 O 0.71150 0.99069 0.72561
 O1290 O 0.71716 0.96518 0.72667
 O1291 O 0.74618 1.00880 0.70428
 O1292 O 0.77166 1.00575 0.70884
 Zr1293 Zr 0.75596 1.00771 0.72462
 O1294 O 0.77014 0.99509 0.73673
 Zr1295 Zr 0.73183 0.98203 0.72546
 O1296 O 0.74520 0.96827 0.73723
 Zr1297 Zr 0.73280 1.00708 0.75091
 O1298 O 0.74587 0.99406 0.76398
 Zr1299 Zr 0.76600 0.97324 0.73291
 O1300 O 0.75264 0.98580 0.71957
 Zr1301 Zr 0.76673 0.99791 0.75881
 O1302 O 0.75369 1.01205 0.74670
 Zr1303 Zr 0.74286 0.97215 0.75924
 O1304 O 0.72826 0.98507 0.74759
 O1305 O 0.73518 1.00380 0.72906
 O1306 O 0.76362 0.97617 0.75491
 C1307 C 0.73740 1.03439 0.73151
 C1308 C 0.73639 1.00140 0.69842
 C1309 C 0.70588 1.00084 0.73300
 C1310 C 0.76325 0.94644 0.75257
 C1311 C 0.79229 0.97832 0.75198
 C1312 C 0.76309 0.97675 0.78492
 H1313 H 0.77977 0.99754 0.73402
 H1314 H 0.74391 0.99599 0.77422
 H1315 H 0.72883 1.00993 0.72321
 H1316 H 0.74315 0.95810 0.73483
 H1317 H 0.76156 0.96121 0.70828
 H1318 H 0.73914 0.96641 0.70382
 H1319 H 0.75954 1.01189 0.78178
 H1320 H 0.74322 1.02743 0.76637
 H1321 H 0.78701 0.96853 0.71613
 H1322 H 0.77026 1.01348 0.70156
 H1323 H 0.71944 0.97509 0.77232
 H1324 H 0.71318 0.99808 0.76736
 H1325 H 0.77107 1.02827 0.73491
 H1326 H 0.78643 1.01452 0.74981
 H1327 H 0.71288 0.96580 0.73629
 H1328 H 0.72911 0.94889 0.76528
 O1329 O 0.74469 0.54122 0.24197
 O1330 O 0.76826 0.53661 0.24455
 O1331 O 0.72861 0.50438 0.22023
 O1332 O 0.72914 0.48033 0.22322
 O1333 O 0.70752 0.51983 0.25760
 O1334 O 0.71192 0.51915 0.28248
 O1335 O 0.76451 0.46518 0.26077
 O1336 O 0.76237 0.46929 0.23597
 O1337 O 0.78006 0.50042 0.28067
 O1338 O 0.77546 0.52667 0.27965
 O1339 O 0.74476 0.48216 0.29609
 O1340 O 0.71924 0.48402 0.28901
 O1341 O 0.74679 0.46411 0.27681
 O1342 O 0.72311 0.46656 0.27314
 O1343 O 0.76070 0.50004 0.29815
 O1344 O 0.75887 0.52697 0.29307
 O1345 O 0.78160 0.48400 0.26264
 O1346 O 0.77825 0.48958 0.23643
 O1347 O 0.72667 0.54042 0.25772
 O1348 O 0.72760 0.53459 0.28355
 O1349 O 0.70861 0.50372 0.23927
 O1350 O 0.71524 0.47695 0.24039
 O1351 O 0.74491 0.52204 0.22153
 O1352 O 0.77003 0.51816 0.22840
 Zr1353 Zr 0.75306 0.52027 0.24269
 O1354 O 0.76603 0.50760 0.25616
 Zr1355 Zr 0.72889 0.49482 0.24071
 O1356 O 0.74117 0.48078 0.25350
 Zr1357 Zr 0.72756 0.51937 0.26666
 O1358 O 0.73921 0.50614 0.28084
 Zr1359 Zr 0.76237 0.48580 0.25165
 O1360 O 0.75025 0.49846 0.23714
 Zr1361 Zr 0.76042 0.51016 0.27779
 O1362 O 0.74872 0.52438 0.26450
 Zr1363 Zr 0.73666 0.48432 0.27520
 O1364 O 0.72324 0.49743 0.26237
 O1365 O 0.73190 0.51648 0.24509
 O1366 O 0.75775 0.48844 0.27328
 C1367 C 0.73424 0.54696 0.24838
 C1368 C 0.73533 0.51501 0.21482
 C1369 C 0.70210 0.51306 0.24694
 C1370 C 0.75764 0.45879 0.27069
 C1371 C 0.78642 0.49031 0.27391
 C1372 C 0.75414 0.48907 0.30309
 H1373 H 0.77590 0.51005 0.25453
 H1374 H 0.73633 0.50806 0.29082
 H1375 H 0.72600 0.52276 0.23890
 H1376 H 0.73939 0.47062 0.25080
 H1377 H 0.76016 0.47401 0.22664
 H1378 H 0.73670 0.47330 0.22523
 H1379 H 0.75087 0.52484 0.29933
 H1380 H 0.73636 0.54009 0.28276
 H1381 H 0.78496 0.48141 0.23704
 H1382 H 0.76929 0.52587 0.22101
 H1383 H 0.72076 0.49127 0.29664
 H1384 H 0.70813 0.50924 0.28255
 H1385 H 0.76819 0.53979 0.25470
 H1386 H 0.78188 0.52576 0.27145
 H1387 H 0.70721 0.47934 0.24655
 H1388 H 0.71513 0.46986 0.26718
 O1389 O 0.49226 0.27222 0.77736
 O1390 O 0.51569 0.27133 0.77196
 O1391 O 0.47247 0.28869 0.73938
 O1392 O 0.47316 0.28157 0.71396
 O1393 O 0.45589 0.25247 0.76001
 O1394 O 0.46157 0.22718 0.76028
 O1395 O 0.51008 0.24739 0.70325
 O1396 O 0.50554 0.27200 0.70419
 O1397 O 0.52883 0.23291 0.73902
 O1398 O 0.52544 0.23647 0.76539
 O1399 O 0.49376 0.21201 0.72511
 O1400 O 0.46868 0.21671 0.72588
 O1401 O 0.49370 0.22979 0.70457
 O1402 O 0.46787 0.23142 0.70967
 O1403 O 0.51113 0.21378 0.74175
 O1404 O 0.51051 0.22128 0.76773
 O1405 O 0.52811 0.24976 0.72119
 O1406 O 0.52210 0.27607 0.72373
 O1407 O 0.47613 0.25438 0.77905
 O1408 O 0.47789 0.22850 0.77556
 O1409 O 0.45427 0.26793 0.74099
 O1410 O 0.45883 0.26504 0.71563
 O1411 O 0.48988 0.29074 0.75599
 O1412 O 0.51524 0.28575 0.75204
 Zr1413 Zr 0.49965 0.27022 0.75624
 O1414 O 0.51311 0.25677 0.74444
 Zr1415 Zr 0.47426 0.26739 0.73181
 O1416 O 0.48681 0.25423 0.71876
 Zr1417 Zr 0.47623 0.24403 0.75891
 O1418 O 0.48849 0.22961 0.74693
 Zr1419 Zr 0.50793 0.25864 0.72257
 O1420 O 0.49531 0.27332 0.73418
 Zr1421 Zr 0.50958 0.23502 0.74950
 O1422 O 0.49736 0.24852 0.76272
 Zr1423 Zr 0.48439 0.23258 0.72486
 O1424 O 0.47067 0.24561 0.73699
 O1425 O 0.47867 0.26557 0.75361
 O1426 O 0.50542 0.23693 0.72766
 C1427 C 0.48302 0.26505 0.78427
 C1428 C 0.47938 0.29583 0.74885
 C1429 C 0.44920 0.26166 0.75212
 C1430 C 0.50382 0.23621 0.69830
 C1431 C 0.53416 0.23946 0.72819
 C1432 C 0.50418 0.20679 0.73221
 H1433 H 0.52288 0.25959 0.74621
 H1434 H 0.48660 0.21963 0.75010
 H1435 H 0.47270 0.27187 0.75955
 H1436 H 0.48440 0.25587 0.70851
 H1437 H 0.50227 0.28151 0.70765
 H1438 H 0.48100 0.28838 0.71494
 H1439 H 0.50280 0.21431 0.76688
 H1440 H 0.48713 0.22987 0.78015
 H1441 H 0.52849 0.27524 0.71546
 H1442 H 0.51421 0.29381 0.75895
 H1443 H 0.46958 0.21184 0.73532
 H1444 H 0.45659 0.22696 0.75091
 H1445 H 0.51671 0.26151 0.77607
 H1446 H 0.53142 0.24475 0.76292
 H1447 H 0.45475 0.25536 0.71700
 H1448 H 0.46943 0.23884 0.70220
 O1449 O 0.28511 0.75920 0.48574
 O1450 O 0.28232 0.73432 0.48910
 O1451 O 0.24897 0.77275 0.46248
 O1452 O 0.22397 0.77110 0.46654
 O1453 O 0.26241 0.79601 0.49951
 O1454 O 0.25993 0.79232 0.52496
 O1455 O 0.21223 0.73527 0.50091
 O1456 O 0.21725 0.73718 0.47689
 O1457 O 0.24737 0.72010 0.52265
 O1458 O 0.27214 0.72663 0.52306
 O1459 O 0.22704 0.75648 0.53790
 O1460 O 0.22626 0.78208 0.53127
 O1461 O 0.21026 0.75287 0.51781
 O1462 O 0.21287 0.78012 0.51433
 O1463 O 0.24485 0.74038 0.54040
 O1464 O 0.27068 0.74356 0.53671
 O1465 O 0.23128 0.71841 0.50465
 O1466 O 0.23759 0.72142 0.47863
 O1467 O 0.28284 0.77741 0.50198
 O1468 O 0.27632 0.77709 0.52723
 O1469 O 0.24662 0.79414 0.48121
 O1470 O 0.22245 0.78734 0.48142
 O1471 O 0.26709 0.75695 0.46489
 O1472 O 0.26539 0.73106 0.47198
 Zr1473 Zr 0.26558 0.74905 0.48606
 O1474 O 0.25362 0.73515 0.49886
 Zr1475 Zr 0.23944 0.77276 0.48277
 O1476 O 0.22633 0.75966 0.49512
 Zr1477 Zr 0.26230 0.77571 0.50964
 O1478 O 0.25001 0.76305 0.52336
 Zr1479 Zr 0.23254 0.73800 0.49342
 O1480 O 0.24455 0.75086 0.47944
 Zr1481 Zr 0.25519 0.74118 0.52055
 O1482 O 0.26857 0.75400 0.50797
 Zr1483 Zr 0.22900 0.76461 0.51695
 O1484 O 0.24110 0.77890 0.50450
 O1485 O 0.26038 0.77073 0.48801
 O1486 O 0.23420 0.74292 0.51518
 C1487 C 0.28982 0.77021 0.49262
 C1488 C 0.25966 0.76601 0.45759
 C1489 C 0.25577 0.80112 0.48853
 C1490 C 0.20562 0.74183 0.51093
 C1491 C 0.23775 0.71339 0.51575
 C1492 C 0.23397 0.74694 0.54507
 H1493 H 0.25660 0.72504 0.49734
 H1494 H 0.25143 0.76620 0.53340
 H1495 H 0.26623 0.77692 0.48188
 H1496 H 0.21658 0.76095 0.49183
 H1497 H 0.22204 0.73927 0.46776
 H1498 H 0.22592 0.76213 0.46117
 H1499 H 0.26803 0.75190 0.54273
 H1500 H 0.28181 0.76800 0.52732
 H1501 H 0.23005 0.71417 0.47897
 H1502 H 0.27312 0.73209 0.46507
 H1503 H 0.23464 0.78253 0.53750
 H1504 H 0.25044 0.79632 0.52353
 H1505 H 0.28564 0.73551 0.49913
 H1506 H 0.27227 0.72027 0.51454
 H1507 H 0.22210 0.79244 0.49074
 H1508 H 0.20672 0.77689 0.50639
 O1509 O 0.25854 0.27382 0.96703
 O1510 O 0.23447 0.27090 0.97031
 O1511 O 0.27268 0.29366 1.00570
 O1512 O 0.27093 0.28735 1.03123
 O1513 O 0.29453 0.25725 0.98909
 O1514 O 0.29065 0.23172 0.98969
 O1515 O 0.23665 0.25183 1.04124
 O1516 O 0.23849 0.27652 1.03810
 O1517 O 0.22113 0.23430 1.00333
 O1518 O 0.22724 0.23619 0.97781
 O1519 O 0.25629 0.21628 1.02281
 O1520 O 0.28152 0.22263 1.02314
 O1521 O 0.25437 0.23542 1.04213
 O1522 O 0.27975 0.23751 1.03885
 O1523 O 0.24032 0.21620 1.00463
 O1524 O 0.24335 0.22201 0.97818
 O1525 O 0.21980 0.25044 1.02161
 O1526 O 0.22286 0.27708 1.01736
 O1527 O 0.27555 0.25653 0.96776
 O1528 O 0.27611 0.23115 0.97293
 O1529 O 0.29282 0.27444 1.00642
 O1530 O 0.28671 0.27206 1.03148
 O1531 O 0.25730 0.29315 0.98697
 O1532 O 0.23225 0.28679 0.98906
 Zr1533 Zr 0.24919 0.27209 0.98735
 O1534 O 0.23581 0.25840 0.99883
 Zr1535 Zr 0.27238 0.27249 1.01409
 O1536 O 0.25991 0.25898 1.02675
 Zr1537 Zr 0.27475 0.24759 0.98857
 O1538 O 0.26252 0.23293 1.00018
 Zr1539 Zr 0.23886 0.26155 1.02096
 O1540 O 0.25118 0.27657 1.00950
 Zr1541 Zr 0.24140 0.23680 0.99537
 O1542 O 0.25375 0.25036 0.98251
 Zr1543 Zr 0.26452 0.23728 1.02226
 O1544 O 0.27817 0.25079 1.01072
 O1545 O 0.27017 0.26917 0.99216
 O1546 O 0.24348 0.23990 1.01740
 C1547 C 0.26856 0.26660 0.96133
 C1548 C 0.26630 0.29958 0.99496
 C1549 C 0.29957 0.26762 0.99665
 C1550 C 0.24366 0.24171 1.04753
 C1551 C 0.21476 0.24017 1.01392
 C1552 C 0.24671 0.21021 1.01529
 H1553 H 0.22602 0.26040 0.99602
 H1554 H 0.26537 0.22295 0.99785
 H1555 H 0.27614 0.27559 0.98639
 H1556 H 0.26139 0.26135 1.03701
 H1557 H 0.24063 0.28608 1.03393
 H1558 H 0.26245 0.29324 1.02949
 H1559 H 0.25095 0.21516 0.98063
 H1560 H 0.26702 0.23104 0.96783
 H1561 H 0.21603 0.27607 1.02522
 H1562 H 0.23313 0.29426 0.98147
 H1563 H 0.28091 0.21633 1.01460
 H1564 H 0.29459 0.23215 0.99955
 H1565 H 0.23554 0.26124 0.96594
 H1566 H 0.22105 0.24473 0.97851
 H1567 H 0.29187 0.26280 1.03083
 H1568 H 0.27814 0.24625 1.04470
 C1569 C 0.27802 0.37032 0.78870
 C1570 C 0.28618 0.38128 0.78243
 C1571 C 0.30073 0.37882 0.78154
 C1572 C 0.30685 0.36643 0.78773
 C1573 C 0.29868 0.35607 0.79463
 C1574 C 0.28419 0.35798 0.79467
 C1575 C 0.30918 0.38887 0.77475
 C1576 C 0.30355 0.40143 0.76887
 C1577 C 0.28921 0.40466 0.76990
 C1578 C 0.28044 0.39459 0.77711
 C1579 C 0.26636 0.39842 0.77931
 C1580 C 0.26103 0.41163 0.77472
 C1581 C 0.26935 0.42141 0.76740
 C1582 C 0.28344 0.41790 0.76447
 C1583 C 0.29118 0.42789 0.75629
 C1584 C 0.28540 0.44107 0.75198
 C1585 C 0.27173 0.44482 0.75563
 C1586 C 0.26370 0.43482 0.76317
 H1587 H 0.26683 0.37087 0.78908
 H1588 H 0.31806 0.36512 0.78758
 H1589 H 0.27755 0.34990 0.79942
 H1590 H 0.32030 0.38704 0.77401
 H1591 H 0.31088 0.40867 0.76405
 H1592 H 0.25926 0.39164 0.78509
 H1593 H 0.25025 0.41423 0.77697
 H1594 H 0.30171 0.42584 0.75296
 H1595 H 0.29184 0.44854 0.74606
 H1596 H 0.25303 0.43751 0.76585
 C1597 C 0.29063 -0.12022 0.31091
 C1598 C 0.29058 -0.11588 0.29635
 C1599 C 0.29772 -0.12478 0.28646
 C1600 C 0.30411 -0.13776 0.29100
 C1601 C 0.30379 -0.14222 0.30550
 C1602 C 0.29707 -0.13303 0.31534
 C1603 C 0.29843 -0.12074 0.27203
 C1604 C 0.29251 -0.10786 0.26722
 C1605 C 0.28535 -0.09855 0.27665
 C1606 C 0.28391 -0.10290 0.29134
 C1607 C 0.27572 -0.09423 0.30048
 C1608 C 0.26963 -0.08146 0.29565
 C1609 C 0.27157 -0.07666 0.28161
 C1610 C 0.27949 -0.08508 0.27189
 C1611 C 0.28148 -0.07945 0.25789
 C1612 C 0.27597 -0.06604 0.25387
 C1613 C 0.26816 -0.05781 0.26353
 C1614 C 0.26583 -0.06330 0.27734
 H1615 H 0.28611 -0.11377 0.31930
 H1616 H 0.30884 -0.14457 0.28295
 H1617 H 0.29719 -0.13528 0.32675
 H1618 H 0.30378 -0.12754 0.26436
 H1619 H 0.29355 -0.10565 0.25592
 H1620 H 0.27358 -0.09713 0.31145
 H1621 H 0.26348 -0.07515 0.30309
 H1622 H 0.28758 -0.08490 0.24989
 H1623 H 0.27796 -0.06205 0.24313
 H1624 H 0.25997 -0.05693 0.28497
 C1625 C 0.78813 0.86894 0.80509
 C1626 C 0.79038 0.87431 0.79108
 C1627 C 0.79941 0.86632 0.78210
 C1628 C 0.80551 0.85330 0.78692
 C1629 C 0.80282 0.84777 0.80074
 C1630 C 0.79417 0.85601 0.80975
 C1631 C 0.80223 0.87127 0.76827
 C1632 C 0.79637 0.88403 0.76311
 C1633 C 0.78724 0.89238 0.77157
 C1634 C 0.78404 0.88734 0.78572
 C1635 C 0.77448 0.89538 0.79399
 C1636 C 0.76846 0.90802 0.78879
 C1637 C 0.77169 0.91326 0.77519
 C1638 C 0.78113 0.90559 0.76635
 C1639 C 0.78415 0.91158 0.75271
 C1640 C 0.77813 0.92461 0.74819
 C1641 C 0.76884 0.93213 0.75701
 C1642 C 0.76559 0.92628 0.77047
 H1643 H 0.78191 0.87453 0.81289
 H1644 H 0.81183 0.84720 0.77948
 H1645 H 0.79237 0.85287 0.82078
 H1646 H 0.80911 0.86520 0.76132
 H1647 H 0.79912 0.88695 0.75231
 H1648 H 0.77126 0.89214 0.80455
 H1649 H 0.76121 0.91381 0.79556
 H1650 H 0.79127 0.90665 0.74531
 H1651 H 0.78091 0.92887 0.73776
 H1652 H 0.75855 0.93204 0.77749
 C1653 C 0.43927 0.87294 0.28675
 C1654 C 0.45356 0.86922 0.28615
 C1655 C 0.46319 0.87863 0.29288
 C1656 C 0.45866 0.89164 0.29910
 C1657 C 0.44452 0.89544 0.29896
 C1658 C 0.43489 0.88580 0.29303
 C1659 C 0.47732 0.87511 0.29324
 C1660 C 0.48214 0.86234 0.28723
 C1661 C 0.47301 0.85268 0.28024
 C1662 C 0.45856 0.85645 0.27924
 C1663 C 0.44965 0.84752 0.27108
 C1664 C 0.45452 0.83506 0.26456
 C1665 C 0.46839 0.83081 0.26611
 C1666 C 0.47785 0.83944 0.27407
 C1667 C 0.49166 0.83423 0.27581
 C1668 C 0.49576 0.82099 0.27003
 C1669 C 0.48636 0.81261 0.26212
 C1670 C 0.47277 0.81775 0.25997
 H1671 H 0.43116 0.86606 0.28265
 H1672 H 0.46620 0.89898 0.30373
 H1673 H 0.42385 0.88822 0.29323
 H1674 H 0.48475 0.88227 0.29832
 H1675 H 0.49321 0.86053 0.28791
 H1676 H 0.43882 0.85003 0.26923
 H1677 H 0.44728 0.82855 0.25842
 H1678 H 0.49944 0.83984 0.28200
 H1679 H 0.50631 0.81721 0.27194
 H1680 H 0.46537 0.81125 0.25404
 C1681 C -0.03465 0.87795 0.80492
 C1682 C -0.03598 0.87251 0.79081
 C1683 C -0.04369 0.88088 0.78073
 C1684 C -0.04936 0.89434 0.78461
 C1685 C -0.04788 0.89978 0.79870
 C1686 C -0.04045 0.89120 0.80873
 C1687 C -0.04576 0.87577 0.76678
 C1688 C -0.04063 0.86236 0.76267
 C1689 C -0.03290 0.85357 0.77232
 C1690 C -0.03013 0.85897 0.78647
 C1691 C -0.02143 0.85076 0.79575
 C1692 C -0.01599 0.83755 0.79158
 C1693 C -0.01909 0.83185 0.77810
 C1694 C -0.02768 0.83965 0.76828
 C1695 C -0.03081 0.83303 0.75491
 C1696 C -0.02550 0.81938 0.75151
 C1697 C -0.01681 0.81191 0.76120
 C1698 C -0.01366 0.81828 0.77447
 H1699 H -0.02955 0.87204 0.81349
 H1700 H -0.05457 0.90067 0.77634
 H1701 H -0.03959 0.89424 0.81992
 H1702 H -0.05158 0.88215 0.75895
 H1703 H -0.04270 0.85930 0.75170
 H1704 H -0.01836 0.85436 0.80630
 H1705 H -0.00935 0.83166 0.79909
 H1706 H -0.03755 0.83796 0.74696
 H1707 H -0.02821 0.81467 0.74122
 H1708 H -0.00715 0.81252 0.78220
 C1709 C -0.06662 -0.10949 -0.04969
 C1710 C -0.05212 -0.10702 -0.04886
 C1711 C -0.04314 -0.11752 -0.05494
 C1712 C -0.04854 -0.13034 -0.06071
 C1713 C -0.06291 -0.13288 -0.06082
 C1714 C -0.07186 -0.12218 -0.05555
 C1715 C -0.02882 -0.11523 -0.05511
 C1716 C -0.02315 -0.10270 -0.04946
 C1717 C -0.03160 -0.09204 -0.04301
 C1718 C -0.04627 -0.09449 -0.04230
 C1719 C -0.05458 -0.08454 -0.03467
 C1720 C -0.04885 -0.07246 -0.02826
 C1721 C -0.03471 -0.06958 -0.02942
 C1722 C -0.02586 -0.07916 -0.03699
 C1723 C -0.01168 -0.07528 -0.03834
 C1724 C -0.00660 -0.06254 -0.03230
 C1725 C -0.01539 -0.05335 -0.02458
 C1726 C -0.02942 -0.05701 -0.02313
 H1727 H -0.07425 -0.10175 -0.04612
 H1728 H -0.04149 -0.13851 -0.06482
 H1729 H -0.08303 -0.12360 -0.05600
 H1730 H -0.02189 -0.12322 -0.05973
 H1731 H -0.01199 -0.10188 -0.04993
 H1732 H -0.06557 -0.08599 -0.03307
 H1733 H -0.05561 -0.06523 -0.02240
 H1734 H -0.00431 -0.08165 -0.04429
 H1735 H 0.00425 -0.05986 -0.03372
 H1736 H -0.03639 -0.04981 -0.01744
 C1737 C -0.03766 0.37671 0.43808
 C1738 C -0.03802 0.38098 0.45266
 C1739 C -0.04519 0.37197 0.46238
 C1740 C -0.05155 0.35925 0.45764
 C1741 C -0.05140 0.35518 0.44305
 C1742 C -0.04419 0.36412 0.43342
 C1743 C -0.04610 0.37571 0.47684
 C1744 C -0.04054 0.38853 0.48184
 C1745 C -0.03360 0.39810 0.47255
 C1746 C -0.03179 0.39397 0.45786
 C1747 C -0.02375 0.40292 0.44890
 C1748 C -0.01815 0.41572 0.45393
 C1749 C -0.02053 0.42030 0.46795
 C1750 C -0.02834 0.41164 0.47748
 C1751 C -0.03085 0.41709 0.49144
 C1752 C -0.02579 0.43051 0.49567
 C1753 C -0.01798 0.43894 0.48623
 C1754 C -0.01528 0.43367 0.47242
 H1755 H -0.03282 0.38308 0.42985
 H1756 H -0.05632 0.35236 0.46559
 H1757 H -0.04410 0.36195 0.42201
 H1758 H -0.05140 0.36875 0.48438
 H1759 H -0.04170 0.39052 0.49316
 H1760 H -0.02140 0.40024 0.43793
 H1761 H -0.01203 0.42223 0.44667
 H1762 H -0.03701 0.41147 0.49925
 H1763 H -0.02811 0.43434 0.50638
 H1764 H -0.00940 0.44016 0.46493
 C1765 C 0.46697 -0.13080 0.44814
 C1766 C 0.46016 -0.12066 0.45700
 C1767 C 0.44627 -0.12364 0.46094
 C1768 C 0.43937 -0.13588 0.45559
 C1769 C 0.44604 -0.14561 0.44623
 C1770 C 0.46007 -0.14292 0.44290
 C1771 C 0.43919 -0.11427 0.47006
 C1772 C 0.44556 -0.10199 0.47540
 C1773 C 0.45932 -0.09837 0.47164
 C1774 C 0.46665 -0.10773 0.46206
 C1775 C 0.48008 -0.10366 0.45758
 C1776 C 0.48619 -0.09098 0.46232
 C1777 C 0.47932 -0.08190 0.47186
 C1778 C 0.46588 -0.08554 0.47686
 C1779 C 0.45958 -0.07613 0.48687
 C1780 C 0.46615 -0.06350 0.49130
 C1781 C 0.47923 -0.05972 0.48598
 C1782 C 0.48580 -0.06908 0.47632
 H1783 H 0.47773 -0.12986 0.44519
 H1784 H 0.42852 -0.13726 0.45825
 H1785 H 0.46610 -0.15043 0.43658
 H1786 H 0.42855 -0.11646 0.47311
 H1787 H 0.43923 -0.09534 0.48224
 H1788 H 0.48609 -0.10988 0.45008
 H1789 H 0.49645 -0.08825 0.45843
 H1790 H 0.44959 -0.07818 0.49159
 H1791 H 0.46078 -0.05655 0.49881
 H1792 H 0.49597 -0.06637 0.47219
 C1793 C 0.46293 0.37720 -0.06163
 C1794 C 0.46348 0.38077 -0.04687
 C1795 C 0.45753 0.37093 -0.03705
 C1796 C 0.45166 0.35794 -0.04187
 C1797 C 0.45116 0.35442 -0.05661
 C1798 C 0.45692 0.36437 -0.06634
 C1799 C 0.45742 0.37408 -0.02240
 C1800 C 0.46267 0.38701 -0.01728
 C1801 C 0.46853 0.39730 -0.02663
 C1802 C 0.46945 0.39387 -0.04159
 C1803 C 0.47643 0.40358 -0.05074
 C1804 C 0.48182 0.41644 -0.04560
 C1805 C 0.48030 0.42031 -0.03124
 C1806 C 0.47358 0.41088 -0.02153
 C1807 C 0.47188 0.41564 -0.00718
 C1808 C 0.47661 0.42915 -0.00279
 C1809 C 0.48333 0.43834 -0.01243
 C1810 C 0.48529 0.43375 -0.02661
 H1811 H 0.46665 0.38429 -0.06992
 H1812 H 0.44787 0.35045 -0.03390
 H1813 H 0.45627 0.36277 -0.07783
 H1814 H 0.45303 0.36652 -0.01479
 H1815 H 0.46218 0.38851 -0.00582
 H1816 H 0.47812 0.40145 -0.06196
 H1817 H 0.48705 0.42356 -0.05305
 H1818 H 0.46657 0.40939 0.00083
 H1819 H 0.47488 0.43246 0.00821
 H1820 H 0.49027 0.44087 -0.03425
 C1821 C 0.77652 0.38593 0.47067
 C1822 C 0.78523 0.37432 0.47505
 C1823 C 0.79981 0.37654 0.47486
 C1824 C 0.80532 0.38943 0.46939
 C1825 C 0.79656 0.40064 0.46450
 C1826 C 0.78211 0.39883 0.46557
 C1827 C 0.80886 0.36581 0.47993
 C1828 C 0.80378 0.35290 0.48530
 C1829 C 0.78937 0.34997 0.48535
 C1830 C 0.77999 0.36063 0.47962
 C1831 C 0.76579 0.35704 0.47812
 C1832 C 0.76090 0.34353 0.48207
 C1833 C 0.76983 0.33322 0.48818
 C1834 C 0.78409 0.33648 0.49039
 C1835 C 0.79249 0.32608 0.49759
 C1836 C 0.78711 0.31274 0.50161
 C1837 C 0.77325 0.30919 0.49851
 C1838 C 0.76460 0.31959 0.49196
 H1839 H 0.76534 0.38550 0.47129
 H1840 H 0.81651 0.39054 0.46864
 H1841 H 0.77502 0.40745 0.46247
 H1842 H 0.82002 0.36742 0.47980
 H1843 H 0.81151 0.34513 0.48879
 H1844 H 0.75823 0.36428 0.47331
 H1845 H 0.74998 0.34113 0.48037
 H1846 H 0.80322 0.32797 0.50044
 H1847 H 0.79399 0.30500 0.50684
 H1848 H 0.75378 0.31705 0.48977
 C1849 C 0.81624 0.86329 -0.04271
 C1850 C 0.80251 0.85872 -0.04560
 C1851 C 0.79476 0.86648 -0.05612
 C1852 C 0.80033 0.87887 -0.06273
 C1853 C 0.81392 0.88370 -0.05944
 C1854 C 0.82177 0.87539 -0.04949
 C1855 C 0.78144 0.86185 -0.05999
 C1856 C 0.77577 0.84950 -0.05388
 C1857 C 0.78303 0.84149 -0.04323
 C1858 C 0.79638 0.84656 -0.03860
 C1859 C 0.80303 0.83952 -0.02690
 C1860 C 0.79717 0.82758 -0.02033
 C1861 C 0.78463 0.82192 -0.02532
 C1862 C 0.77736 0.82869 -0.03687
 C1863 C 0.76488 0.82214 -0.04173
 C1864 C 0.75998 0.80943 -0.03541
 C1865 C 0.76720 0.80287 -0.02393
 C1866 C 0.77946 0.80935 -0.01887
 H1867 H 0.82321 0.85746 -0.03561
 H1868 H 0.79370 0.88490 -0.07008
 H1869 H 0.83258 0.87769 -0.04720
 H1870 H 0.77538 0.86773 -0.06800
 H1871 H 0.76545 0.84670 -0.05751
 H1872 H 0.81267 0.84323 -0.02225
 H1873 H 0.80262 0.82263 -0.01131
 H1874 H 0.75886 0.82633 -0.05067
 H1875 H 0.75055 0.80463 -0.03965
 H1876 H 0.78531 0.80432 -0.01014
 C1877 C 0.81863 0.29567 0.39149
 C1878 C 0.80433 0.29488 0.39486
 C1879 C 0.79468 0.30142 0.38516
 C1880 C 0.79923 0.30766 0.37223
 C1881 C 0.81341 0.30779 0.36882
 C1882 C 0.82302 0.30201 0.37874
 C1883 C 0.78054 0.30163 0.38837
 C1884 C 0.77573 0.29568 0.40111
 C1885 C 0.78489 0.28889 0.41105
 C1886 C 0.79935 0.28800 0.40758
 C1887 C 0.80831 0.27998 0.41677
 C1888 C 0.80345 0.27349 0.42918
 C1889 C 0.78957 0.27491 0.43312
 C1890 C 0.78008 0.28276 0.42424
 C1891 C 0.76624 0.28437 0.42913
 C1892 C 0.76210 0.27842 0.44221
 C1893 C 0.77150 0.27051 0.45078
 C1894 C 0.78519 0.26868 0.44607
 H1895 H 0.82674 0.29175 0.39860
 H1896 H 0.79168 0.31218 0.36470
 H1897 H 0.83409 0.30247 0.37668
 H1898 H 0.77309 0.30655 0.38100
 H1899 H 0.76465 0.29624 0.40268
 H1900 H 0.81915 0.27819 0.41449
 H1901 H 0.81073 0.26741 0.43588
 H1902 H 0.75844 0.29052 0.42333
 H1903 H 0.75148 0.28009 0.44567
 H1904 H 0.79262 0.26281 0.45277
 C1905 C 0.77852 0.77924 -0.13664
 C1906 C 0.78672 0.77384 -0.12506
 C1907 C 0.80133 0.77319 -0.12694
 C1908 C 0.80741 0.77877 -0.13942
 C1909 C 0.79919 0.78484 -0.15043
 C1910 C 0.78468 0.78464 -0.14907
 C1911 C 0.80989 0.76732 -0.11622
 C1912 C 0.80433 0.76226 -0.10348
 C1913 C 0.78992 0.76320 -0.10077
 C1914 C 0.78099 0.76930 -0.11165
 C1915 C 0.76674 0.77125 -0.10851
 C1916 C 0.76144 0.76764 -0.09515
 C1917 C 0.76998 0.76161 -0.08450
 C1918 C 0.78423 0.75883 -0.08729
 C1919 C 0.79223 0.75196 -0.07636
 C1920 C 0.78653 0.74888 -0.06298
 C1921 C 0.77268 0.75248 -0.06000
 C1922 C 0.76438 0.75858 -0.07093
 H1923 H 0.76731 0.77943 -0.13649
 H1924 H 0.81866 0.77888 -0.14025
 H1925 H 0.77802 0.78880 -0.15761
 H1926 H 0.82107 0.76674 -0.11764
 H1927 H 0.81176 0.75818 -0.09572
 H1928 H 0.75945 0.77608 -0.11598
 H1929 H 0.75051 0.76971 -0.09311
 H1930 H 0.80294 0.74879 -0.07775
 H1931 H 0.79317 0.74399 -0.05480
 H1932 H 0.75356 0.76116 -0.06884
 C1933 C 0.29792 0.47868 0.87744
 C1934 C 0.29353 0.46957 0.86609
 C1935 C 0.29303 0.45453 0.86889
 C1936 C 0.29743 0.44893 0.88222
 C1937 C 0.30207 0.45807 0.89322
 C1938 C 0.30208 0.47299 0.89073
 C1939 C 0.28820 0.44511 0.85835
 C1940 C 0.28359 0.45026 0.84510
 C1941 C 0.28394 0.46512 0.84172
 C1942 C 0.28952 0.47486 0.85217
 C1943 C 0.29120 0.48948 0.84824
 C1944 C 0.28726 0.49450 0.83471
 C1945 C 0.28114 0.48531 0.82468
 C1946 C 0.27916 0.47053 0.82810
 C1947 C 0.27227 0.46185 0.81780
 C1948 C 0.26786 0.46755 0.80462
 C1949 C 0.27022 0.48205 0.80116
 C1950 C 0.27692 0.49086 0.81125
 H1951 H 0.29801 0.49027 0.87651
 H1952 H 0.29747 0.43734 0.88392
 H1953 H 0.30523 0.48036 0.89915
 H1954 H 0.28788 0.43358 0.86039
 H1955 H 0.28017 0.44220 0.83757
 H1956 H 0.29592 0.49729 0.85527
 H1957 H 0.28887 0.50579 0.83214
 H1958 H 0.26983 0.45067 0.81967
 H1959 H 0.26267 0.46050 0.79703
 H1960 H 0.27863 0.50215 0.80875
 C1961 C 0.31265 -0.03284 0.36893
 C1962 C 0.29831 -0.03204 0.36535
 C1963 C 0.28877 -0.03795 0.37526
 C1964 C 0.29346 -0.04391 0.38836
 C1965 C 0.30771 -0.04458 0.39175
 C1966 C 0.31721 -0.03904 0.38186
 C1967 C 0.27457 -0.03801 0.37203
 C1968 C 0.26961 -0.03279 0.35893
 C1969 C 0.27868 -0.02695 0.34860
 C1970 C 0.29316 -0.02592 0.35216
 C1971 C 0.30198 -0.01869 0.34249
 C1972 C 0.29698 -0.01322 0.32951
 C1973 C 0.28309 -0.01501 0.32546
 C1974 C 0.27374 -0.02201 0.33486
 C1975 C 0.25993 -0.02418 0.32988
 C1976 C 0.25571 -0.01966 0.31617
 C1977 C 0.26498 -0.01261 0.30705
 C1978 C 0.27860 -0.01011 0.31187
 H1979 H 0.32067 -0.02917 0.36181
 H1980 H 0.28596 -0.04804 0.39594
 H1981 H 0.32830 -0.03975 0.38395
 H1982 H 0.26720 -0.04237 0.37963
 H1983 H 0.25850 -0.03321 0.35734
 H1984 H 0.31283 -0.01682 0.34476
 H1985 H 0.30415 -0.00778 0.32241
 H1986 H 0.25226 -0.02982 0.33608
 H1987 H 0.24515 -0.02182 0.31264
 H1988 H 0.28593 -0.00491 0.30477
 C1989 C -0.05629 -0.02539 -0.12872
 C1990 C -0.04235 -0.02680 -0.12390
 C1991 C -0.03307 -0.03472 -0.13265
 C1992 C -0.03764 -0.04083 -0.14566
 C1993 C -0.05161 -0.03958 -0.15029
 C1994 C -0.06078 -0.03162 -0.14157
 C1995 C -0.01924 -0.03665 -0.12836
 C1996 C -0.01450 -0.03141 -0.11526
 C1997 C -0.02341 -0.02381 -0.10593
 C1998 C -0.03741 -0.02094 -0.11058
 C1999 C -0.04597 -0.01232 -0.10177
 C2000 C -0.04129 -0.00724 -0.08858
 C2001 C -0.02797 -0.01065 -0.08352
 C2002 C -0.01881 -0.01899 -0.09208
 C2003 C -0.00555 -0.02251 -0.08619
 C2004 C -0.00172 -0.01807 -0.07240
 C2005 C -0.01084 -0.00986 -0.06403
 C2006 C -0.02388 -0.00601 -0.06977
 H2007 H -0.06419 -0.01993 -0.12260
 H2008 H -0.03005 -0.04627 -0.15228
 H2009 H -0.07175 -0.03074 -0.14412
 H2010 H -0.01202 -0.04252 -0.13511
 H2011 H -0.00367 -0.03340 -0.11285
 H2012 H -0.05640 -0.00915 -0.10480
 H2013 H -0.04829 -0.00076 -0.08215
 H2014 H 0.00197 -0.02905 -0.09173
 H2015 H 0.00842 -0.02124 -0.06822
 H2016 H -0.03111 0.00017 -0.06330
 C2017 C -0.04582 0.43197 0.38501
 C2018 C -0.04674 0.44655 0.38932
 C2019 C -0.05487 0.45602 0.38065
 C2020 C -0.06123 0.45112 0.36788
 C2021 C -0.06005 0.43659 0.36346
 C2022 C -0.05232 0.42715 0.37245
 C2023 C -0.05662 0.47040 0.38471
 C2024 C -0.05071 0.47556 0.39736
 C2025 C -0.04244 0.46659 0.40636
 C2026 C -0.04003 0.45198 0.40200
 C2027 C -0.03076 0.44338 0.41029
 C2028 C -0.02435 0.44870 0.42259
 C2029 C -0.02708 0.46267 0.42734
 C2030 C -0.03630 0.47180 0.41945
 C2031 C -0.03912 0.48567 0.42516
 C2032 C -0.03291 0.49025 0.43800
 C2033 C -0.02356 0.48128 0.44554
 C2034 C -0.02068 0.46750 0.44007
 H2035 H -0.04048 0.42384 0.39132
 H2036 H -0.06667 0.45896 0.36122
 H2037 H -0.05166 0.41571 0.37027
 H2038 H -0.06278 0.47775 0.37810
 H2039 H -0.05255 0.48680 0.39961
 H2040 H -0.02793 0.43252 0.40737
 H2041 H -0.01723 0.44172 0.42853
 H2042 H -0.04634 0.49315 0.42017
 H2043 H -0.03546 0.50088 0.44204
 H2044 H -0.01368 0.46032 0.44593
 C2045 C 0.43973 -0.03479 0.37768
 C2046 C 0.45374 -0.03607 0.38240
 C2047 C 0.46322 -0.04321 0.37319
 C2048 C 0.45886 -0.04833 0.35967
 C2049 C 0.44497 -0.04681 0.35510
 C2050 C 0.43548 -0.04010 0.36433
 C2051 C 0.47702 -0.04526 0.37751
 C2052 C 0.48162 -0.04070 0.39093
 C2053 C 0.47261 -0.03358 0.40055
 C2054 C 0.45858 -0.03073 0.39599
 C2055 C 0.44994 -0.02247 0.40506
 C2056 C 0.45466 -0.01752 0.41830
 C2057 C 0.46807 -0.02081 0.42321
 C2058 C 0.47720 -0.02903 0.41451
 C2059 C 0.49048 -0.03259 0.42030
 C2060 C 0.49448 -0.02804 0.43401
 C2061 C 0.48551 -0.01968 0.44242
 C2062 C 0.47232 -0.01603 0.43689
 H2063 H 0.43168 -0.03007 0.38418
 H2064 H 0.46635 -0.05344 0.35265
 H2065 H 0.42459 -0.03915 0.36134
 H2066 H 0.48436 -0.05062 0.37049
 H2067 H 0.49246 -0.04266 0.39332
 H2068 H 0.43948 -0.01935 0.40211
 H2069 H 0.44765 -0.01118 0.42485
 H2070 H 0.49792 -0.03918 0.41470
 H2071 H 0.50470 -0.03111 0.43804
 H2072 H 0.46520 -0.00978 0.44341
 C2073 C 0.45956 0.43929 -0.11881
 C2074 C 0.45966 0.45383 -0.11416
 C2075 C 0.45336 0.46433 -0.12331
 C2076 C 0.44779 0.46039 -0.13676
 C2077 C 0.44797 0.44596 -0.14128
 C2078 C 0.45379 0.43549 -0.13208
 C2079 C 0.45262 0.47871 -0.11899
 C2080 C 0.45771 0.48292 -0.10563
 C2081 C 0.46410 0.47291 -0.09611
 C2082 C 0.46557 0.45824 -0.10069
 C2083 C 0.47310 0.44853 -0.09178
 C2084 C 0.47864 0.45283 -0.07867
 C2085 C 0.47670 0.46688 -0.07373
 C2086 C 0.46925 0.47711 -0.08224
 C2087 C 0.46705 0.49102 -0.07635
 C2088 C 0.47215 0.49456 -0.06269
 C2089 C 0.47976 0.48448 -0.05452
 C2090 C 0.48205 0.47067 -0.06017
 H2091 H 0.46353 0.43052 -0.11231
 H2092 H 0.44337 0.46865 -0.14376
 H2093 H 0.45370 0.42419 -0.13502
 H2094 H 0.44790 0.48680 -0.12596
 H2095 H 0.45677 0.49424 -0.10321
 H2096 H 0.47520 0.43752 -0.09478
 H2097 H 0.48440 0.44500 -0.07223
 H2098 H 0.46112 0.49931 -0.08183
 H2099 H 0.47012 0.50526 -0.05851
 H2100 H 0.48768 0.46267 -0.05381
 C2101 C 0.43368 0.79135 0.36359
 C2102 C 0.44805 0.79058 0.36036
 C2103 C 0.45758 0.79563 0.37090
 C2104 C 0.45285 0.80078 0.38418
 C2105 C 0.43858 0.80148 0.38719
 C2106 C 0.42909 0.79673 0.37674
 C2107 C 0.47181 0.79561 0.36816
 C2108 C 0.47687 0.79100 0.35501
 C2109 C 0.46786 0.78592 0.34410
 C2110 C 0.45326 0.78520 0.34702
 C2111 C 0.44442 0.77893 0.33660
 C2112 C 0.44955 0.77383 0.32367
 C2113 C 0.46363 0.77502 0.32042
 C2114 C 0.47298 0.78130 0.33045
 C2115 C 0.48703 0.78289 0.32625
 C2116 C 0.49157 0.77814 0.31284
 C2117 C 0.48234 0.77154 0.30321
 C2118 C 0.46837 0.77004 0.30709
 H2119 H 0.42567 0.78823 0.35606
 H2120 H 0.46035 0.80423 0.39221
 H2121 H 0.41799 0.79744 0.37860
 H2122 H 0.47915 0.79935 0.37623
 H2123 H 0.48801 0.79126 0.35387
 H2124 H 0.43343 0.77749 0.33823
 H2125 H 0.44236 0.76900 0.31604
 H2126 H 0.49475 0.78802 0.33293
 H2127 H 0.50239 0.77958 0.31003
 H2128 H 0.46106 0.76523 0.29958
 C2129 C -0.06620 0.79135 0.86553
 C2130 C -0.05227 0.79368 0.86137
 C2131 C -0.04411 0.80291 0.87008
 C2132 C -0.04965 0.80923 0.88249
 C2133 C -0.06357 0.80695 0.88657
 C2134 C -0.07168 0.79782 0.87781
 C2135 C -0.03039 0.80584 0.86641
 C2136 C -0.02463 0.80015 0.85403
 C2137 C -0.03233 0.79103 0.84485
 C2138 C -0.04623 0.78734 0.84883
 C2139 C -0.05353 0.77732 0.84023
 C2140 C -0.04764 0.77139 0.82801
 C2141 C -0.03436 0.77536 0.82365
 C2142 C -0.02655 0.78536 0.83189
 C2143 C -0.01335 0.78944 0.82664
 C2144 C -0.00817 0.78372 0.81389
 C2145 C -0.01584 0.77368 0.80593
 C2146 C -0.02893 0.76949 0.81095
 H2147 H -0.07332 0.78488 0.85933
 H2148 H -0.04276 0.81557 0.88919
 H2149 H -0.08258 0.79607 0.87992
 H2150 H -0.02403 0.81278 0.87311
 H2151 H -0.01394 0.80293 0.85212
 H2152 H -0.06381 0.77361 0.84279
 H2153 H -0.05363 0.76369 0.82180
 H2154 H -0.00687 0.79728 0.83190
 H2155 H 0.00192 0.78727 0.81022
 H2156 H -0.03509 0.76190 0.80478
 C2157 C 0.37196 0.77907 0.29243
 C2158 C 0.38265 0.78786 0.28693
 C2159 C 0.38019 0.80296 0.28630
 C2160 C 0.36803 0.80898 0.29214
 C2161 C 0.35786 0.80015 0.29830
 C2162 C 0.35981 0.78513 0.29794
 C2163 C 0.38999 0.81201 0.28006
 C2164 C 0.40217 0.80641 0.27432
 C2165 C 0.40530 0.79151 0.27508
 C2166 C 0.39563 0.78218 0.28201
 C2167 C 0.39949 0.76761 0.28433
 C2168 C 0.41228 0.76228 0.27989
 C2169 C 0.42154 0.77106 0.27252
 C2170 C 0.41802 0.78569 0.26961
 C2171 C 0.42737 0.79384 0.26124
 C2172 C 0.43991 0.78789 0.25660
 C2173 C 0.44370 0.77370 0.26025
 C2174 C 0.43437 0.76530 0.26811
 H2175 H 0.37256 0.76745 0.29241
 H2176 H 0.36669 0.82060 0.29224
 H2177 H 0.35190 0.77797 0.30200
 H2178 H 0.38819 0.82357 0.27954
 H2179 H 0.40925 0.81418 0.26988
 H2180 H 0.39306 0.76015 0.29012
 H2181 H 0.41491 0.75110 0.28218
 H2182 H 0.42519 0.80478 0.25788
 H2183 H 0.44678 0.79455 0.25030
 H2184 H 0.43706 0.75421 0.27076
 C2185 C -0.11782 0.78213 0.80772
 C2186 C -0.11319 0.78306 0.79335
 C2187 C -0.12231 0.78953 0.78307
 C2188 C -0.13568 0.79427 0.78703
 C2189 C -0.14019 0.79292 0.80126
 C2190 C -0.13104 0.78698 0.81154
 C2191 C -0.11806 0.79124 0.76889
 C2192 C -0.10486 0.78689 0.76465
 C2193 C -0.09539 0.78034 0.77444
 C2194 C -0.09981 0.77797 0.78891
 C2195 C -0.09079 0.77039 0.79840
 C2196 C -0.07776 0.76566 0.79408
 C2197 C -0.07306 0.76845 0.78024
 C2198 C -0.08171 0.77591 0.77021
 C2199 C -0.07616 0.77883 0.75645
 C2200 C -0.06268 0.77448 0.75290
 C2201 C -0.05427 0.76697 0.76284
 C2202 C -0.05961 0.76390 0.77646
 H2203 H -0.11142 0.77798 0.81637
 H2204 H -0.14264 0.79886 0.77896
 H2205 H -0.13404 0.78623 0.82271
 H2206 H -0.12499 0.79612 0.76096
 H2207 H -0.10250 0.78858 0.75349
 H2208 H -0.09358 0.76764 0.80924
 H2209 H -0.07125 0.75983 0.80174
 H2210 H -0.08182 0.78474 0.74827
 H2211 H -0.05880 0.77709 0.74232
 H2212 H -0.05316 0.75828 0.78433
 C2213 C 0.86988 0.31002 0.46459
 C2214 C 0.86710 0.29534 0.46756
 C2215 C 0.87640 0.28483 0.46199
 C2216 C 0.88823 0.28901 0.45430
 C2217 C 0.89095 0.30363 0.45173
 C2218 C 0.88157 0.31402 0.45681
 C2219 C 0.87384 0.27019 0.46411
 C2220 C 0.86200 0.26567 0.47121
 C2221 C 0.85230 0.27568 0.47678
 C2222 C 0.85525 0.29074 0.47553
 C2223 C 0.84632 0.30069 0.48238
 C2224 C 0.83446 0.29619 0.48946
 C2225 C 0.83086 0.28165 0.48980
 C2226 C 0.83972 0.27115 0.48349
 C2227 C 0.83528 0.25661 0.48364
 C2228 C 0.82242 0.25284 0.48933
 C2229 C 0.81369 0.26331 0.49533
 C2230 C 0.81816 0.27763 0.49593
 H2231 H 0.86307 0.31868 0.46780
 H2232 H 0.89542 0.28086 0.45044
 H2233 H 0.88319 0.32538 0.45463
 H2234 H 0.88099 0.26211 0.46004
 H2235 H 0.86087 0.25417 0.47238
 H2236 H 0.84831 0.31212 0.48264
 H2237 H 0.82783 0.30424 0.49441
 H2238 H 0.84115 0.24796 0.47886
 H2239 H 0.81913 0.24169 0.48869
 H2240 H 0.81133 0.28582 0.50034
 C2241 C 0.86256 0.81381 -0.04244
 C2242 C 0.86086 0.79890 -0.03971
 C2243 C 0.87104 0.78926 -0.04518
 C2244 C 0.88274 0.79453 -0.05244
 C2245 C 0.88443 0.80938 -0.05466
 C2246 C 0.87412 0.81889 -0.04977
 C2247 C 0.86949 0.77441 -0.04339
 C2248 C 0.85786 0.76884 -0.03664
 C2249 C 0.84740 0.77796 -0.03106
 C2250 C 0.84926 0.79325 -0.03205
 C2251 C 0.83957 0.80238 -0.02519
 C2252 C 0.82801 0.79685 -0.01835
 C2253 C 0.82547 0.78207 -0.01825
 C2254 C 0.83511 0.77236 -0.02454
 C2255 C 0.83176 0.75750 -0.02448
 C2256 C 0.81919 0.75266 -0.01887
 C2257 C 0.80963 0.76238 -0.01292
 C2258 C 0.81305 0.77703 -0.01229
 H2259 H 0.85501 0.82183 -0.03936
 H2260 H 0.89062 0.78706 -0.05621
 H2261 H 0.87490 0.83038 -0.05176
 H2262 H 0.87728 0.76698 -0.04744
 H2263 H 0.85751 0.75726 -0.03573
 H2264 H 0.84073 0.81392 -0.02470
 H2265 H 0.82080 0.80429 -0.01333
 H2266 H 0.83833 0.74937 -0.02922
 H2267 H 0.81679 0.74127 -0.01955
 H2268 H 0.80565 0.78469 -0.00790
 C2269 C -0.11222 -0.06226 -0.04284
 C2270 C -0.10776 -0.04810 -0.04588
 C2271 C -0.11538 -0.04013 -0.05634
 C2272 C -0.12750 -0.04588 -0.06273
 C2273 C -0.13218 -0.05992 -0.05934
 C2274 C -0.12403 -0.06800 -0.04944
 C2275 C -0.11085 -0.02642 -0.06039
 C2276 C -0.09874 -0.02060 -0.05454
 C2277 C -0.09088 -0.02806 -0.04393
 C2278 C -0.09585 -0.04177 -0.03910
 C2279 C -0.08895 -0.04853 -0.02739
 C2280 C -0.07727 -0.04248 -0.02103
 C2281 C -0.07173 -0.02966 -0.02625
 C2282 C -0.07836 -0.02224 -0.03781
 C2283 C -0.07197 -0.00946 -0.04289
 C2284 C -0.05956 -0.00441 -0.03674
 C2285 C -0.05312 -0.01180 -0.02526
 C2286 C -0.05944 -0.02435 -0.02001
 H2287 H -0.10650 -0.06945 -0.03579
 H2288 H -0.13340 -0.03902 -0.07002
 H2289 H -0.12626 -0.07917 -0.04707
 H2290 H -0.11661 -0.02019 -0.06837
 H2291 H -0.09599 -0.00999 -0.05830
 H2292 H -0.09258 -0.05839 -0.02258
 H2293 H -0.07241 -0.04803 -0.01198
 H2294 H -0.07608 -0.00335 -0.05186
 H2295 H -0.05489 0.00521 -0.04116
 H2296 H -0.05459 -0.03030 -0.01122
 C2297 C -0.12445 0.46563 0.44942
 C2298 C -0.11874 0.46415 0.46339
 C2299 C -0.12666 0.45662 0.47372
 C2300 C -0.14004 0.45147 0.47026
 C2301 C -0.14588 0.45348 0.45642
 C2302 C -0.13764 0.46043 0.44606
 C2303 C -0.12124 0.45431 0.48751
 C2304 C -0.10800 0.45907 0.49123
 C2305 C -0.09970 0.46668 0.48134
 C2306 C -0.10537 0.46968 0.46735
 C2307 C -0.09759 0.47832 0.45785
 C2308 C -0.08454 0.48343 0.46165
 C2309 C -0.07859 0.48004 0.47495
 C2310 C -0.08600 0.47154 0.48499
 C2311 C -0.07922 0.46807 0.49816
 C2312 C -0.06575 0.47287 0.50115
 C2313 C -0.05859 0.48138 0.49122
 C2314 C -0.06515 0.48500 0.47818
 H2315 H -0.11886 0.47042 0.44066
 H2316 H -0.14601 0.44642 0.47868
 H2317 H -0.14102 0.46142 0.43498
 H2318 H -0.12725 0.44863 0.49552
 H2319 H -0.10469 0.45686 0.50211
 H2320 H -0.10142 0.48163 0.44743
 H2321 H -0.07898 0.49002 0.45398
 H2322 H -0.08387 0.46140 0.50628
 H2323 H -0.06091 0.46983 0.51129
 H2324 H -0.05964 0.49139 0.47030
 C2325 C 0.38003 -0.05538 0.46594
 C2326 C 0.38532 -0.04129 0.46451
 C2327 C 0.37748 -0.03128 0.45615
 C2328 C 0.36461 -0.03519 0.45000
 C2329 C 0.35929 -0.04923 0.45168
 C2330 C 0.36740 -0.05923 0.45967
 C2331 C 0.38256 -0.01740 0.45388
 C2332 C 0.39546 -0.01336 0.45933
 C2333 C 0.40373 -0.02301 0.46761
 C2334 C 0.39828 -0.03697 0.47077
 C2335 C 0.40588 -0.04611 0.48022
 C2336 C 0.41869 -0.04209 0.48581
 C2337 C 0.42455 -0.02890 0.48211
 C2338 C 0.41723 -0.01915 0.47293
 C2339 C 0.42393 -0.00613 0.46917
 C2340 C 0.43727 -0.00303 0.47430
 C2341 C 0.44437 -0.01269 0.48344
 C2342 C 0.43785 -0.02554 0.48742
 H2343 H 0.38563 -0.06393 0.47139
 H2344 H 0.35867 -0.02701 0.44426
 H2345 H 0.36447 -0.07044 0.46059
 H2346 H 0.37658 -0.00961 0.44761
 H2347 H 0.39857 -0.00245 0.45706
 H2348 H 0.40210 -0.05643 0.48376
 H2349 H 0.42417 -0.04950 0.49295
 H2350 H 0.41934 0.00173 0.46196
 H2351 H 0.44210 0.00695 0.47097
 H2352 H 0.44331 -0.03321 0.49431
 C2353 C 0.36951 0.47816 -0.04387
 C2354 C 0.37909 0.46959 -0.03595
 C2355 C 0.37534 0.45513 -0.03300
 C2356 C 0.36297 0.44933 -0.03866
 C2357 C 0.35379 0.45772 -0.04723
 C2358 C 0.35719 0.47236 -0.04933
 C2359 C 0.38407 0.44639 -0.02461
 C2360 C 0.39649 0.45164 -0.01906
 C2361 C 0.40091 0.46585 -0.02200
 C2362 C 0.39223 0.47486 -0.03089
 C2363 C 0.39721 0.48860 -0.03487
 C2364 C 0.41020 0.49340 -0.03036
 C2365 C 0.41864 0.48488 -0.02143
 C2366 C 0.41396 0.47116 -0.01678
 C2367 C 0.42262 0.46330 -0.00713
 C2368 C 0.43564 0.46846 -0.00301
 C2369 C 0.44056 0.48166 -0.00828
 C2370 C 0.43186 0.48994 -0.01731
 H2371 H 0.37106 0.48949 -0.04583
 H2372 H 0.36105 0.43798 -0.03689
 H2373 H 0.35016 0.47971 -0.05486
 H2374 H 0.38128 0.43531 -0.02229
 H2375 H 0.40265 0.44404 -0.01289
 H2376 H 0.39151 0.49578 -0.04194
 H2377 H 0.41370 0.50390 -0.03395
 H2378 H 0.41965 0.45313 -0.00248
 H2379 H 0.44201 0.46186 0.00412
 H2380 H 0.43543 0.50028 -0.02129
 C2381 C 0.36855 0.46172 0.80878
 C2382 C 0.36546 0.46401 0.79404
 C2383 C 0.37561 0.45973 0.78392
 C2384 C 0.38851 0.45403 0.78853
 C2385 C 0.39148 0.45200 0.80321
 C2386 C 0.38128 0.45579 0.81322
 C2387 C 0.37282 0.46108 0.76923
 C2388 C 0.36003 0.46628 0.76429
 C2389 C 0.34958 0.47075 0.77391
 C2390 C 0.35257 0.47015 0.78902
 C2391 C 0.34270 0.47596 0.79859
 C2392 C 0.33017 0.48174 0.79366
 C2393 C 0.32680 0.48170 0.77905
 C2394 C 0.33632 0.47602 0.76894
 C2395 C 0.33200 0.47561 0.75433
 C2396 C 0.31890 0.48080 0.75002
 C2397 C 0.30974 0.48674 0.76004
 C2398 C 0.31382 0.48720 0.77454
 H2399 H 0.36123 0.46400 0.81718
 H2400 H 0.39628 0.45123 0.78062
 H2401 H 0.38301 0.45391 0.82460
 H2402 H 0.38056 0.45790 0.76142
 H2403 H 0.35879 0.46702 0.75279
 H2404 H 0.34449 0.47655 0.81002
 H2405 H 0.32295 0.48614 0.80142
 H2406 H 0.33834 0.47101 0.74600
 H2407 H 0.31593 0.48015 0.73878
 H2408 H 0.30667 0.49146 0.78246
 C2409 C 0.38147 -0.03828 0.27140
 C2410 C 0.37055 -0.03258 0.27983
 C2411 C 0.37308 -0.03095 0.29478
 C2412 C 0.38556 -0.03591 0.30106
 C2413 C 0.39598 -0.04223 0.29269
 C2414 C 0.39394 -0.04298 0.27775
 C2415 C 0.36303 -0.02470 0.30351
 C2416 C 0.35044 -0.01998 0.29777
 C2417 C 0.34721 -0.02170 0.28303
 C2418 C 0.35723 -0.02855 0.27400
 C2419 C 0.35338 -0.03167 0.25965
 C2420 C 0.34019 -0.02824 0.25430
 C2421 C 0.33049 -0.02111 0.26283
 C2422 C 0.33405 -0.01729 0.27716
 C2423 C 0.32428 -0.00917 0.28505
 C2424 C 0.31128 -0.00573 0.27925
 C2425 C 0.30745 -0.01025 0.26541
 C2426 C 0.31719 -0.01783 0.25716
 H2427 H 0.38074 -0.03913 0.25987
 H2428 H 0.38689 -0.03531 0.31263
 H2429 H 0.40199 -0.04735 0.27092
 H2430 H 0.36490 -0.02346 0.31495
 H2431 H 0.34319 -0.01557 0.30536
 H2432 H 0.36017 -0.03731 0.25239
 H2433 H 0.33758 -0.03116 0.24333
 H2434 H 0.32639 -0.00509 0.29568
 H2435 H 0.30408 0.00031 0.28585
 H2436 H 0.31444 -0.02113 0.24633
 C2437 C 0.13135 0.54121 0.68980
 C2438 C 0.13599 0.53996 0.70423
 C2439 C 0.12695 0.54499 0.71513
 C2440 C 0.11360 0.55036 0.71163
 C2441 C 0.10904 0.55109 0.69728
 C2442 C 0.11816 0.54668 0.68645
 C2443 C 0.13127 0.54461 0.72948
 C2444 C 0.14447 0.53960 0.73329
 C2445 C 0.15385 0.53441 0.72287
 C2446 C 0.14933 0.53411 0.70816
 C2447 C 0.15819 0.52772 0.69791
 C2448 C 0.17120 0.52228 0.70175
 C2449 C 0.17605 0.52317 0.71588
 C2450 C 0.16754 0.52936 0.72665
 C2451 C 0.17324 0.53049 0.74070
 C2452 C 0.18675 0.52569 0.74382
 C2453 C 0.19501 0.51944 0.73316
 C2454 C 0.18950 0.51808 0.71923
 H2455 H 0.13774 0.53835 0.68078
 H2456 H 0.10667 0.55378 0.72012
 H2457 H 0.11515 0.54761 0.67523
 H2458 H 0.12441 0.54837 0.73788
 H2459 H 0.14689 0.53964 0.74462
 H2460 H 0.15526 0.52646 0.68679
 H2461 H 0.17761 0.51747 0.69350
 H2462 H 0.16772 0.53540 0.74946
 H2463 H 0.19078 0.52697 0.75466
 H2464 H 0.19589 0.51350 0.71082
 C2465 C 0.12958 0.03326 0.18639
 C2466 C 0.13362 0.03120 0.20094
 C2467 C 0.12406 0.03547 0.21167
 C2468 C 0.11100 0.04129 0.20788
 C2469 C 0.10722 0.04340 0.19344
 C2470 C 0.11664 0.03929 0.18276
 C2471 C 0.12762 0.03409 0.22617
 C2472 C 0.14071 0.02912 0.23033
 C2473 C 0.15075 0.02508 0.22009
 C2474 C 0.14691 0.02542 0.20519
 C2475 C 0.15646 0.01993 0.19509
 C2476 C 0.16954 0.01488 0.19930
 C2477 C 0.17378 0.01541 0.21367
 C2478 C 0.16450 0.02063 0.22427
 C2479 C 0.16956 0.02165 0.23857
 C2480 C 0.18318 0.01768 0.24211
 C2481 C 0.19221 0.01237 0.23164
 C2482 C 0.18739 0.01104 0.21745
 H2483 H 0.13632 0.03076 0.17754
 H2484 H 0.10376 0.04426 0.21626
 H2485 H 0.11417 0.04108 0.17151
 H2486 H 0.12029 0.03714 0.23442
 H2487 H 0.14254 0.02834 0.24175
 H2488 H 0.15406 0.01917 0.18379
 H2489 H 0.17652 0.01080 0.19116
 H2490 H 0.16344 0.02595 0.24722
 H2491 H 0.18670 0.01887 0.25315
 H2492 H 0.19443 0.00719 0.20924
 C2493 C 0.61845 0.71673 0.18840
 C2494 C 0.61415 0.71642 0.20291
 C2495 C 0.62309 0.70959 0.21310
 C2496 C 0.63598 0.70384 0.20890
 C2497 C 0.64004 0.70414 0.19445
 C2498 C 0.63111 0.71063 0.18429
 C2499 C 0.61905 0.70834 0.22741
 C2500 C 0.60608 0.71324 0.23178
 C2501 C 0.59675 0.72003 0.22204
 C2502 C 0.60115 0.72230 0.20756
 C2503 C 0.59251 0.73052 0.19824
 C2504 C 0.57975 0.73584 0.20272
 C2505 C 0.57492 0.73291 0.21648
 C2506 C 0.58322 0.72483 0.22634
 C2507 C 0.57746 0.72161 0.23994
 C2508 C 0.56412 0.72640 0.24357
 C2509 C 0.55616 0.73468 0.23387
 C2510 C 0.56169 0.73793 0.22037
 H2511 H 0.61206 0.72111 0.17985
 H2512 H 0.64281 0.69898 0.21693
 H2513 H 0.63369 0.71065 0.17299
 H2514 H 0.62589 0.70323 0.23528
 H2515 H 0.60379 0.71185 0.24301
 H2516 H 0.59547 0.73336 0.18747
 H2517 H 0.57351 0.74218 0.19522
 H2518 H 0.58281 0.71509 0.24788
 H2519 H 0.56002 0.72361 0.25402
 H2520 H 0.55552 0.74408 0.21264
 C2521 C 0.12632 0.72586 0.69643
 C2522 C 0.12192 0.72596 0.71090
 C2523 C 0.13091 0.71966 0.72139
 C2524 C 0.14390 0.71391 0.71747
 C2525 C 0.14805 0.71382 0.70305
 C2526 C 0.13908 0.71983 0.69263
 C2527 C 0.12678 0.71887 0.73570
 C2528 C 0.11366 0.72363 0.73977
 C2529 C 0.10422 0.72973 0.72969
 C2530 C 0.10873 0.73164 0.71519
 C2531 C 0.09993 0.73919 0.70548
 C2532 C 0.08683 0.74395 0.70951
 C2533 C 0.08186 0.74118 0.72326
 C2534 C 0.09043 0.73403 0.73358
 C2535 C 0.08462 0.73106 0.74721
 C2536 C 0.07090 0.73491 0.75029
 C2537 C 0.06253 0.74199 0.74003
 C2538 C 0.06819 0.74529 0.72660
 H2539 H 0.11993 0.72982 0.68768
 H2540 H 0.15074 0.70936 0.72568
 H2541 H 0.14173 0.71951 0.68135
 H2542 H 0.13366 0.71422 0.74381
 H2543 H 0.11130 0.72257 0.75102
 H2544 H 0.10295 0.74183 0.69468
 H2545 H 0.08039 0.74961 0.70164
 H2546 H 0.09023 0.72533 0.75556
 H2547 H 0.06678 0.73216 0.76075
 H2548 H 0.06177 0.75059 0.71848
 C2549 C 0.63862 0.20873 0.56414
 C2550 C 0.64255 0.20951 0.54956
 C2551 C 0.63418 0.20223 0.53930
 C2552 C 0.62187 0.19534 0.54347
 C2553 C 0.61791 0.19499 0.55795
 C2554 C 0.62660 0.20152 0.56821
 C2555 C 0.63820 0.20180 0.52493
 C2556 C 0.65061 0.20798 0.52061
 C2557 C 0.65928 0.21537 0.53044
 C2558 C 0.65472 0.21689 0.54494
 C2559 C 0.66230 0.22599 0.55426
 C2560 C 0.67443 0.23264 0.54984
 C2561 C 0.67978 0.23007 0.53621
 C2562 C 0.67230 0.22141 0.52628
 C2563 C 0.67842 0.21877 0.51276
 C2564 C 0.69145 0.22433 0.50941
 C2565 C 0.69881 0.23282 0.51930
 C2566 C 0.69274 0.23590 0.53258
 H2567 H 0.64487 0.21315 0.57272
 H2568 H 0.61533 0.19032 0.53538
 H2569 H 0.62423 0.20091 0.57955
 H2570 H 0.63181 0.19635 0.51699
 H2571 H 0.65297 0.20713 0.50934
 H2572 H 0.65888 0.22852 0.56496
 H2573 H 0.67982 0.23966 0.55729
 H2574 H 0.67367 0.21198 0.50474
 H2575 H 0.69587 0.22172 0.49906
 H2576 H 0.69834 0.24237 0.54038
 C2577 C 0.62488 0.72027 0.04415
 C2578 C 0.63543 0.71183 0.03771
 C2579 C 0.63305 0.69681 0.03629
 C2580 C 0.62105 0.69050 0.04202
 C2581 C 0.61091 0.69893 0.04887
 C2582 C 0.61286 0.71391 0.04956
 C2583 C 0.64275 0.68809 0.02934
 C2584 C 0.65473 0.69395 0.02357
 C2585 C 0.65773 0.70879 0.02490
 C2586 C 0.64820 0.71776 0.03259
 C2587 C 0.65200 0.73220 0.03537
 C2588 C 0.66462 0.73771 0.03072
 C2589 C 0.67373 0.72927 0.02268
 C2590 C 0.67020 0.71484 0.01925
 C2591 C 0.67931 0.70707 0.01021
 C2592 C 0.69174 0.71308 0.00557
 C2593 C 0.69568 0.72700 0.00980
 C2594 C 0.68646 0.73513 0.01818
 H2595 H 0.62547 0.73185 0.04495
 H2596 H 0.61980 0.67890 0.04142
 H2597 H 0.60503 0.72083 0.05430
 H2598 H 0.64103 0.67659 0.02829
 H2599 H 0.66176 0.68639 0.01860
 H2600 H 0.64566 0.73940 0.04163
 H2601 H 0.66723 0.74875 0.03340
 H2602 H 0.67704 0.69638 0.00635
 H2603 H 0.69843 0.70659 -0.00117
 H2604 H 0.68922 0.74601 0.02134
 C2605 C 0.12031 0.06235 0.03446
 C2606 C 0.11558 0.04809 0.03628
 C2607 C 0.12366 0.03873 0.04515
 C2608 C 0.13632 0.04341 0.05130
 C2609 C 0.14127 0.05749 0.04883
 C2610 C 0.13280 0.06688 0.04055
 C2611 C 0.11911 0.02471 0.04778
 C2612 C 0.10663 0.01980 0.04196
 C2613 C 0.09826 0.02867 0.03295
 C2614 C 0.10303 0.04292 0.02975
 C2615 C 0.09523 0.05147 0.01994
 C2616 C 0.08293 0.04656 0.01387
 C2617 C 0.07782 0.03299 0.01735
 C2618 C 0.08533 0.02380 0.02693
 C2619 C 0.07939 0.01023 0.03023
 C2620 C 0.06655 0.00616 0.02438
 C2621 C 0.05922 0.01535 0.01496
 C2622 C 0.06506 0.02868 0.01138
 H2623 H 0.11446 0.07049 0.02867
 H2624 H 0.14251 0.03575 0.05749
 H2625 H 0.13542 0.07813 0.03914
 H2626 H 0.12522 0.01745 0.05453
 H2627 H 0.10394 0.00884 0.04455
 H2628 H 0.09845 0.06201 0.01645
 H2629 H 0.07730 0.05355 0.00644
 H2630 H 0.08422 0.00264 0.03755
 H2631 H 0.06227 -0.00419 0.02741
 H2632 H 0.05944 0.03601 0.00424
 C2633 C 0.11631 0.56085 0.53105
 C2634 C 0.11346 0.54594 0.53000
 C2635 C 0.12319 0.53613 0.53623
 C2636 C 0.13557 0.54115 0.54261
 C2637 C 0.13831 0.55598 0.54340
 C2638 C 0.12845 0.56572 0.53769
 C2639 C 0.12045 0.52137 0.53621
 C2640 C 0.10797 0.51615 0.53070
 C2641 C 0.09787 0.52551 0.52455
 C2642 C 0.10104 0.54053 0.52343
 C2643 C 0.09178 0.54961 0.51569
 C2644 C 0.07935 0.54444 0.51009
 C2645 C 0.07550 0.53014 0.51227
 C2646 C 0.08469 0.52041 0.51948
 C2647 C 0.08003 0.50614 0.52181
 C2648 C 0.06670 0.50192 0.51751
 C2649 C 0.05764 0.51165 0.51057
 C2650 C 0.06227 0.52565 0.50765
 H2651 H 0.10914 0.56908 0.52733
 H2652 H 0.14307 0.53348 0.54699
 H2653 H 0.12995 0.57725 0.53862
 H2654 H 0.12790 0.51377 0.54082
 H2655 H 0.10666 0.50462 0.53118
 H2656 H 0.09396 0.56080 0.51351
 H2657 H 0.07254 0.55182 0.50427
 H2658 H 0.08617 0.49814 0.52747
 H2659 H 0.06338 0.49104 0.51993
 H2660 H 0.05530 0.53334 0.50243
 C2661 C 0.62247 0.05294 0.53149
 C2662 C 0.61837 0.03835 0.53227
 C2663 C 0.62756 0.02839 0.53911
 C2664 C 0.64075 0.03284 0.54400
 C2665 C 0.64484 0.04728 0.54263
 C2666 C 0.63543 0.05728 0.53662
 C2667 C 0.62353 0.01408 0.54105
 C2668 C 0.61042 0.00948 0.53662
 C2669 C 0.60099 0.01895 0.52957
 C2670 C 0.60533 0.03343 0.52677
 C2671 C 0.59666 0.04243 0.51824
 C2672 C 0.58389 0.03774 0.51318
 C2673 C 0.57909 0.02404 0.51665
 C2674 C 0.58743 0.01443 0.52499
 C2675 C 0.58167 0.00086 0.52864
 C2676 C 0.56823 -0.00288 0.52414
 C2677 C 0.56021 0.00665 0.51571
 C2678 C 0.56582 0.02002 0.51192
 H2679 H 0.61577 0.06139 0.52738
 H2680 H 0.64787 0.02500 0.54876
 H2681 H 0.63798 0.06863 0.53603
 H2682 H 0.63050 0.00638 0.54623
 H2683 H 0.60811 -0.00172 0.53852
 H2684 H 0.59964 0.05311 0.51489
 H2685 H 0.57762 0.04502 0.50662
 H2686 H 0.58711 -0.00691 0.53531
 H2687 H 0.56407 -0.01323 0.52735
 H2688 H 0.55964 0.02763 0.50563
 C2689 C 0.61193 0.56238 0.04489
 C2690 C 0.60918 0.54751 0.04316
 C2691 C 0.61887 0.53752 0.04922
 C2692 C 0.63109 0.54236 0.05606
 C2693 C 0.63380 0.55716 0.05734
 C2694 C 0.62398 0.56705 0.05187
 C2695 C 0.61630 0.52275 0.04845
 C2696 C 0.60413 0.51763 0.04214
 C2697 C 0.59414 0.52712 0.03598
 C2698 C 0.59703 0.54225 0.03593
 C2699 C 0.58779 0.55161 0.02846
 C2700 C 0.57578 0.54650 0.02190
 C2701 C 0.57230 0.53195 0.02274
 C2702 C 0.58138 0.52202 0.02981
 C2703 C 0.57708 0.50747 0.03076
 C2704 C 0.56425 0.50312 0.02518
 C2705 C 0.55531 0.51302 0.01828
 C2706 C 0.55956 0.52737 0.01683
 H2707 H 0.60482 0.57072 0.04132
 H2708 H 0.63857 0.53458 0.06027
 H2709 H 0.62550 0.57855 0.05315
 H2710 H 0.62369 0.51504 0.05295
 H2711 H 0.60301 0.50608 0.04200
 H2712 H 0.58968 0.56299 0.02722
 H2713 H 0.56901 0.55408 0.01632
 H2714 H 0.58313 0.49925 0.03621
 H2715 H 0.56120 0.49196 0.02650
 H2716 H 0.55266 0.53517 0.01168
 C2717 C 0.03248 0.05695 0.12250
 C2718 C 0.03348 0.04273 0.11714
 C2719 C 0.04136 0.03259 0.12530
 C2720 C 0.04786 0.03662 0.13825
 C2721 C 0.04698 0.05087 0.14344
 C2722 C 0.03905 0.06089 0.13532
 C2723 C 0.04283 0.01844 0.12048
 C2724 C 0.03717 0.01423 0.10740
 C2725 C 0.02962 0.02402 0.09859
 C2726 C 0.02725 0.03834 0.10381
 C2727 C 0.01880 0.04779 0.09551
 C2728 C 0.01348 0.04371 0.08223
 C2729 C 0.01643 0.03014 0.07659
 C2730 C 0.02446 0.02003 0.08469
 C2731 C 0.02735 0.00650 0.07829
 C2732 C 0.02279 0.00339 0.06437
 C2733 C 0.01507 0.01352 0.05636
 C2734 C 0.01167 0.02677 0.06268
 H2735 H 0.02705 0.06549 0.11686
 H2736 H 0.05331 0.02838 0.14442
 H2737 H 0.03843 0.07213 0.13833
 H2738 H 0.04867 0.01056 0.12679
 H2739 H 0.03887 0.00311 0.10454
 H2740 H 0.01601 0.05849 0.09899
 H2741 H 0.00720 0.05142 0.07617
 H2742 H 0.03349 -0.00178 0.08351
 H2743 H 0.02554 -0.00696 0.05978
 H2744 H 0.00580 0.03476 0.05655
 C2745 C 0.02783 0.54365 0.63288
 C2746 C 0.03593 0.53803 0.62153
 C2747 C 0.05057 0.53765 0.62347
 C2748 C 0.05675 0.54339 0.63590
 C2749 C 0.04862 0.54914 0.64696
 C2750 C 0.03409 0.54904 0.64536
 C2751 C 0.05905 0.53161 0.61298
 C2752 C 0.05333 0.52572 0.60060
 C2753 C 0.03883 0.52600 0.59800
 C2754 C 0.03003 0.53274 0.60838
 C2755 C 0.01573 0.53436 0.60506
 C2756 C 0.01020 0.52956 0.59210
 C2757 C 0.01856 0.52253 0.58211
 C2758 C 0.03290 0.52023 0.58510
 C2759 C 0.04072 0.51222 0.57502
 C2760 C 0.03471 0.50750 0.56219
 C2761 C 0.02075 0.51058 0.55890
 C2762 C 0.01267 0.51793 0.56903
 H2763 H 0.01662 0.54375 0.63262
 H2764 H 0.06800 0.54353 0.63682
 H2765 H 0.02749 0.55301 0.65386
 H2766 H 0.07026 0.53134 0.61440
 H2767 H 0.06067 0.52147 0.59299
 H2768 H 0.00857 0.53981 0.61208
 H2769 H -0.00078 0.53134 0.58988
 H2770 H 0.05147 0.50928 0.57677
 H2771 H 0.04117 0.50171 0.55463
 H2772 H 0.00177 0.52013 0.56671
 C2773 C 0.54046 0.06002 0.62063
 C2774 C 0.54139 0.04548 0.61621
 C2775 C 0.54936 0.03590 0.62495
 C2776 C 0.55568 0.04070 0.63777
 C2777 C 0.55431 0.05513 0.64234
 C2778 C 0.54673 0.06468 0.63335
 C2779 C 0.55092 0.02150 0.62092
 C2780 C 0.54492 0.01638 0.60830
 C2781 C 0.53688 0.02547 0.59919
 C2782 C 0.53483 0.04018 0.60339
 C2783 C 0.52617 0.04908 0.59470
 C2784 C 0.52012 0.04400 0.58212
 C2785 C 0.52245 0.02988 0.57758
 C2786 C 0.53082 0.02036 0.58602
 C2787 C 0.53294 0.00620 0.58073
 C2788 C 0.52726 0.00189 0.56756
 C2789 C 0.51915 0.01143 0.55922
 C2790 C 0.51661 0.02536 0.56446
 H2791 H 0.53517 0.06823 0.61440
 H2792 H 0.56113 0.03286 0.64445
 H2793 H 0.54599 0.07608 0.63574
 H2794 H 0.55695 0.01407 0.62757
 H2795 H 0.54668 0.00512 0.60609
 H2796 H 0.52370 0.06009 0.59738
 H2797 H 0.51364 0.05129 0.57578
 H2798 H 0.53921 -0.00176 0.58629
 H2799 H 0.52941 -0.00895 0.56381
 H2800 H 0.51047 0.03291 0.55807
 C2801 C 0.52322 0.54297 0.13614
 C2802 C 0.53157 0.53679 0.12526
 C2803 C 0.54605 0.53543 0.12804
 C2804 C 0.55187 0.54061 0.14086
 C2805 C 0.54350 0.54686 0.15145
 C2806 C 0.52913 0.54789 0.14899
 C2807 C 0.55474 0.52898 0.11800
 C2808 C 0.54940 0.52362 0.10523
 C2809 C 0.53508 0.52477 0.10182
 C2810 C 0.52609 0.53190 0.11178
 C2811 C 0.51204 0.53422 0.10776
 C2812 C 0.50691 0.52970 0.09453
 C2813 C 0.51543 0.52234 0.08493
 C2814 C 0.52954 0.51942 0.08857
 C2815 C 0.53751 0.51121 0.07878
 C2816 C 0.53188 0.50678 0.06567
 C2817 C 0.51815 0.51033 0.06185
 C2818 C 0.50993 0.51798 0.07162
 H2819 H 0.51207 0.54393 0.13520
 H2820 H 0.56304 0.53995 0.14249
 H2821 H 0.52237 0.55238 0.15711
 H2822 H 0.56584 0.52800 0.12006
 H2823 H 0.55690 0.51900 0.09803
 H2824 H 0.50477 0.53993 0.11444
 H2825 H 0.49612 0.53195 0.09180
 H2826 H 0.54809 0.50789 0.08093
 H2827 H 0.53845 0.50078 0.05837
 H2828 H 0.49920 0.52056 0.06886
 C2829 C 0.18590 0.54236 0.62697
 C2830 C 0.20025 0.54286 0.63058
 C2831 C 0.20926 0.54969 0.62073
 C2832 C 0.20409 0.55528 0.60767
 C2833 C 0.18984 0.55470 0.60426
 C2834 C 0.18084 0.54821 0.61407
 C2835 C 0.22338 0.55103 0.62399
 C2836 C 0.22878 0.54608 0.63701
 C2837 C 0.22028 0.53924 0.64723
 C2838 C 0.20589 0.53709 0.64371
 C2839 C 0.19769 0.52904 0.65332
 C2840 C 0.20319 0.52364 0.66609
 C2841 C 0.21698 0.52626 0.67000
 C2842 C 0.22571 0.53427 0.66078
 C2843 C 0.23944 0.53716 0.66568
 C2844 C 0.24425 0.53209 0.67902
 C2845 C 0.23564 0.52384 0.68783
 C2846 C 0.22202 0.52097 0.68320
 H2847 H 0.17821 0.53790 0.63403
 H2848 H 0.21122 0.56013 0.60013
 H2849 H 0.16975 0.54793 0.61196
 H2850 H 0.23034 0.55615 0.61644
 H2851 H 0.23981 0.54751 0.63861
 H2852 H 0.18698 0.52642 0.65113
 H2853 H 0.19650 0.51744 0.67308
 H2854 H 0.24662 0.54360 0.65963
 H2855 H 0.25477 0.53460 0.68242
 H2856 H 0.21515 0.51486 0.69008
 C2857 C 0.20853 0.06368 0.12845
 C2858 C 0.20789 0.04908 0.13276
 C2859 C 0.19999 0.03958 0.12406
 C2860 C 0.19369 0.04446 0.11118
 C2861 C 0.19506 0.05889 0.10656
 C2862 C 0.20230 0.06841 0.11569
 C2863 C 0.19854 0.02518 0.12816
 C2864 C 0.20468 0.01998 0.14075
 C2865 C 0.21281 0.02896 0.14971
 C2866 C 0.21472 0.04367 0.14544
 C2867 C 0.22361 0.05241 0.15383
 C2868 C 0.23005 0.04718 0.16620
 C2869 C 0.22787 0.03308 0.17084
 C2870 C 0.21920 0.02373 0.16273
 C2871 C 0.21714 0.00962 0.16818
 C2872 C 0.22330 0.00515 0.18113
 C2873 C 0.23181 0.01448 0.18907
 C2874 C 0.23418 0.02839 0.18371
 H2875 H 0.21354 0.07187 0.13480
 H2876 H 0.18834 0.03670 0.10447
 H2877 H 0.20285 0.07984 0.11333
 H2878 H 0.19254 0.01781 0.12156
 H2879 H 0.20305 0.00872 0.14302
 H2880 H 0.22606 0.06337 0.15100
 H2881 H 0.23675 0.05434 0.17230
 H2882 H 0.21057 0.00184 0.16292
 H2883 H 0.22120 -0.00564 0.18504
 H2884 H 0.24057 0.03581 0.18984
 C2885 C 0.68316 0.20177 0.61575
 C2886 C 0.69776 0.20202 0.61388
 C2887 C 0.70615 0.19470 0.62422
 C2888 C 0.70012 0.18830 0.63640
 C2889 C 0.68562 0.18850 0.63832
 C2890 C 0.67726 0.19508 0.62768
 C2891 C 0.72053 0.19381 0.62237
 C2892 C 0.72678 0.19980 0.61033
 C2893 C 0.71892 0.20744 0.59986
 C2894 C 0.70425 0.20909 0.60202
 C2895 C 0.69662 0.21809 0.59249
 C2896 C 0.70297 0.22490 0.58101
 C2897 C 0.71705 0.22270 0.57824
 C2898 C 0.72524 0.21377 0.58745
 C2899 C 0.73933 0.21139 0.58366
 C2900 C 0.74496 0.21773 0.57134
 C2901 C 0.73687 0.22684 0.56254
 C2902 C 0.72293 0.22932 0.56615
 H2903 H 0.67596 0.20630 0.60798
 H2904 H 0.70681 0.18331 0.64446
 H2905 H 0.66603 0.19493 0.62843
 H2906 H 0.72704 0.18825 0.63024
 H2907 H 0.73793 0.19865 0.60976
 H2908 H 0.68574 0.22050 0.59389
 H2909 H 0.69674 0.23187 0.57412
 H2910 H 0.74616 0.20435 0.58975
 H2911 H 0.75572 0.21548 0.56871
 H2912 H 0.71646 0.23610 0.55927
 C2913 C 0.71998 0.70303 0.12934
 C2914 C 0.71235 0.70956 0.11790
 C2915 C 0.69775 0.71100 0.11953
 C2916 C 0.69117 0.70565 0.13184
 C2917 C 0.69886 0.69911 0.14302
 C2918 C 0.71333 0.69793 0.14164
 C2919 C 0.68973 0.71774 0.10887
 C2920 C 0.69584 0.72325 0.09659
 C2921 C 0.71030 0.72201 0.09430
 C2922 C 0.71865 0.71473 0.10497
 C2923 C 0.73294 0.71257 0.10219
 C2924 C 0.73888 0.71731 0.08949
 C2925 C 0.73096 0.72466 0.07914
 C2926 C 0.71663 0.72744 0.08151
 C2927 C 0.70926 0.73550 0.07089
 C2928 C 0.71568 0.73991 0.05822
 C2929 C 0.72966 0.73649 0.05565
 C2930 C 0.73729 0.72905 0.06631
 H2931 H 0.73114 0.70189 0.12927
 H2932 H 0.67994 0.70647 0.13261
 H2933 H 0.71961 0.69323 0.15020
 H2934 H 0.67855 0.71883 0.11005
 H2935 H 0.68880 0.72813 0.08888
 H2936 H 0.73981 0.70687 0.10948
 H2937 H 0.74984 0.71516 0.08774
 H2938 H 0.69851 0.73863 0.07201
 H2939 H 0.70952 0.74569 0.05024
 H2940 H 0.74817 0.72649 0.06454
 C2941 C 0.56533 0.70817 0.13202
 C2942 C 0.55089 0.70938 0.13474
 C2943 C 0.54160 0.70295 0.12473
 C2944 C 0.54664 0.69628 0.11223
 C2945 C 0.56096 0.69567 0.10947
 C2946 C 0.57021 0.70145 0.11963
 C2947 C 0.52732 0.70332 0.12718
 C2948 C 0.52197 0.70977 0.13943
 C2949 C 0.53074 0.71643 0.14968
 C2950 C 0.54540 0.71662 0.14706
 C2951 C 0.55406 0.72428 0.15669
 C2952 C 0.54870 0.73111 0.16870
 C2953 C 0.53456 0.73043 0.17179
 C2954 C 0.52535 0.72302 0.16241
 C2955 C 0.51116 0.72228 0.16639
 C2956 C 0.50649 0.72844 0.17918
 C2957 C 0.51567 0.73575 0.18834
 C2958 C 0.52966 0.73690 0.18443
 H2959 H 0.57318 0.71211 0.13933
 H2960 H 0.53936 0.69186 0.10447
 H2961 H 0.58134 0.70075 0.11802
 H2962 H 0.52015 0.69847 0.11955
 H2963 H 0.51082 0.70960 0.14038
 H2964 H 0.56508 0.72546 0.15513
 H2965 H 0.55577 0.73685 0.17577
 H2966 H 0.50347 0.71663 0.16013
 H2967 H 0.49563 0.72731 0.18199
 H2968 H 0.53693 0.74230 0.19156
 C2969 C 0.04497 0.68513 0.63427
 C2970 C 0.04386 0.70005 0.63739
 C2971 C 0.04959 0.70989 0.62739
 C2972 C 0.05576 0.70492 0.61468
 C2973 C 0.05674 0.69010 0.61175
 C2974 C 0.05132 0.68031 0.62171
 C2975 C 0.04925 0.72467 0.63015
 C2976 C 0.04370 0.72995 0.64283
 C2977 C 0.03796 0.72063 0.65321
 C2978 C 0.03752 0.70550 0.65017
 C2979 C 0.03062 0.69635 0.65992
 C2980 C 0.02480 0.70167 0.67245
 C2981 C 0.02582 0.71624 0.67595
 C2982 C 0.03252 0.72594 0.66649
 C2983 C 0.03378 0.74050 0.67091
 C2984 C 0.02858 0.74513 0.68410
 C2985 C 0.02179 0.73552 0.69327
 C2986 C 0.02035 0.72110 0.68904
 H2987 H 0.04139 0.67686 0.64147
 H2988 H 0.05978 0.71265 0.60703
 H2989 H 0.05224 0.66879 0.61997
 H2990 H 0.05351 0.73226 0.62249
 H2991 H 0.04383 0.74150 0.64404
 H2992 H 0.02929 0.68497 0.65806
 H2993 H 0.01960 0.69422 0.67959
 H2994 H 0.03908 0.74853 0.66465
 H2995 H 0.02994 0.75631 0.68715
 H2996 H 0.01535 0.71349 0.69617
 C2997 C 0.55640 0.62825 0.21644
 C2998 C 0.54222 0.63244 0.21682
 C2999 C 0.53223 0.62255 0.21152
 C3000 C 0.53636 0.60883 0.20670
 C3001 C 0.55047 0.60483 0.20643
 C3002 C 0.56041 0.61474 0.21127
 C3003 C 0.51819 0.62644 0.21090
 C3004 C 0.51384 0.64015 0.21496
 C3005 C 0.52337 0.65041 0.22027
 C3006 C 0.53767 0.64621 0.22191
 C3007 C 0.54690 0.65582 0.22877
 C3008 C 0.54249 0.66931 0.23334
 C3009 C 0.52883 0.67392 0.23095
 C3010 C 0.51908 0.66467 0.22422
 C3011 C 0.50554 0.67025 0.22139
 C3012 C 0.50191 0.68434 0.22526
 C3013 C 0.51153 0.69323 0.23224
 C3014 C 0.52495 0.68789 0.23512
 H3015 H 0.56473 0.63533 0.21958
 H3016 H 0.52851 0.60128 0.20310
 H3017 H 0.57141 0.61223 0.21076
 H3018 H 0.51049 0.61889 0.20696
 H3019 H 0.50282 0.64227 0.21415
 H3020 H 0.55760 0.65309 0.23114
 H3021 H 0.54995 0.67631 0.23861
 H3022 H 0.49765 0.66416 0.21583
 H3023 H 0.49152 0.68829 0.22278
 H3024 H 0.53258 0.69481 0.24024
 C3025 C 0.03058 0.61936 0.71045
 C3026 C 0.03885 0.63097 0.71530
 C3027 C 0.05350 0.62904 0.71532
 C3028 C 0.05952 0.61644 0.70961
 C3029 C 0.05116 0.60531 0.70419
 C3030 C 0.03665 0.60679 0.70506
 C3031 C 0.06211 0.63977 0.72087
 C3032 C 0.05652 0.65240 0.72645
 C3033 C 0.04202 0.65506 0.72627
 C3034 C 0.03309 0.64437 0.72014
 C3035 C 0.01878 0.64767 0.71851
 C3036 C 0.01336 0.66090 0.72275
 C3037 C 0.02183 0.67122 0.72920
 C3038 C 0.03620 0.66829 0.73149
 C3039 C 0.04413 0.67876 0.73892
 C3040 C 0.03819 0.69186 0.74311
 C3041 C 0.02420 0.69504 0.74001
 C3042 C 0.01603 0.68457 0.73321
 H3043 H 0.01938 0.61953 0.71090
 H3044 H 0.07075 0.61551 0.70908
 H3045 H 0.02988 0.59816 0.70157
 H3046 H 0.07332 0.63837 0.72093
 H3047 H 0.06393 0.66018 0.73033
 H3048 H 0.01153 0.64043 0.71342
 H3049 H 0.00237 0.66307 0.72097
 H3050 H 0.05492 0.67713 0.74177
 H3051 H 0.04473 0.69972 0.74845
 H3052 H 0.00513 0.68683 0.73099
 C3053 C 0.06852 0.11935 0.03779
 C3054 C 0.05420 0.11593 0.03791
 C3055 C 0.04515 0.12567 0.04496
 C3056 C 0.05027 0.13841 0.05121
 C3057 C 0.06458 0.14181 0.05103
 C3058 C 0.07354 0.13193 0.04419
 C3059 C 0.03097 0.12266 0.04577
 C3060 C 0.02557 0.11003 0.04004
 C3061 C 0.03413 0.09991 0.03297
 C3062 C 0.04861 0.10314 0.03146
 C3063 C 0.05697 0.09358 0.02342
 C3064 C 0.05151 0.08114 0.01737
 C3065 C 0.03759 0.07754 0.01925
 C3066 C 0.02869 0.08674 0.02719
 C3067 C 0.01478 0.08218 0.02922
 C3068 C 0.01001 0.06913 0.02355
 C3069 C 0.01881 0.06024 0.01551
 C3070 C 0.03259 0.06461 0.01334
 H3071 H 0.07626 0.11233 0.03319
 H3072 H 0.04281 0.14585 0.05579
 H3073 H 0.08469 0.13339 0.04424
 H3074 H 0.02394 0.13011 0.05105
 H3075 H 0.01451 0.10865 0.04113
 H3076 H 0.06780 0.09552 0.02135
 H3077 H 0.05835 0.07417 0.01127
 H3078 H 0.00739 0.08825 0.03544
 H3079 H -0.00064 0.06596 0.02552
 H3080 H 0.03962 0.05769 0.00740
 C3081 C 0.06541 0.61453 0.53894
 C3082 C 0.05096 0.61170 0.53806
 C3083 C 0.04177 0.62185 0.54437
 C3084 C 0.04691 0.63447 0.55078
 C3085 C 0.06127 0.63708 0.55164
 C3086 C 0.07042 0.62694 0.54566
 C3087 C 0.02749 0.61930 0.54440
 C3088 C 0.02210 0.60661 0.53881
 C3089 C 0.03080 0.59606 0.53257
 C3090 C 0.04536 0.59900 0.53151
 C3091 C 0.05380 0.58925 0.52381
 C3092 C 0.04835 0.57673 0.51790
 C3093 C 0.03440 0.57320 0.51974
 C3094 C 0.02542 0.58271 0.52723
 C3095 C 0.01154 0.57822 0.52946
 C3096 C 0.00689 0.56486 0.52449
 C3097 C 0.01577 0.55566 0.51692
 C3098 C 0.02947 0.56001 0.51439
 H3099 H 0.07316 0.60713 0.53498
 H3100 H 0.03965 0.64226 0.55517
 H3101 H 0.08157 0.62839 0.54648
 H3102 H 0.02039 0.62709 0.54906
 H3103 H 0.01096 0.60552 0.53926
 H3104 H 0.06467 0.59113 0.52187
 H3105 H 0.05522 0.56959 0.51205
 H3106 H 0.00415 0.58451 0.53548
 H3107 H -0.00371 0.56167 0.52670
 H3108 H 0.03652 0.55281 0.50880
 C3109 C 0.57113 0.11194 0.54017
 C3110 C 0.55672 0.10950 0.53800
 C3111 C 0.54731 0.12016 0.54305
 C3112 C 0.55222 0.13274 0.54970
 C3113 C 0.56651 0.13498 0.55177
 C3114 C 0.57588 0.12445 0.54694
 C3115 C 0.53301 0.11822 0.54150
 C3116 C 0.52773 0.10572 0.53547
 C3117 C 0.53660 0.09461 0.53052
 C3118 C 0.55133 0.09678 0.53128
 C3119 C 0.56014 0.08619 0.52522
 C3120 C 0.55482 0.07368 0.51917
 C3121 C 0.54055 0.07103 0.51911
 C3122 C 0.53122 0.08141 0.52483
 C3123 C 0.51689 0.07790 0.52503
 C3124 C 0.51217 0.06465 0.51997
 C3125 C 0.52144 0.05447 0.51433
 C3126 C 0.53561 0.05785 0.51368
 H3127 H 0.57902 0.10428 0.53707
 H3128 H 0.54486 0.14088 0.55323
 H3129 H 0.58697 0.12574 0.54863
 H3130 H 0.52578 0.12642 0.54518
 H3131 H 0.51656 0.10520 0.53465
 H3132 H 0.57128 0.08732 0.52483
 H3133 H 0.56201 0.06585 0.51472
 H3134 H 0.50908 0.08492 0.52948
 H3135 H 0.50117 0.06227 0.52066
 H3136 H 0.54291 0.04992 0.50957
 C3137 C 0.56304 0.61664 0.03885
 C3138 C 0.54895 0.61265 0.04042
 C3139 C 0.54026 0.62190 0.04853
 C3140 C 0.54536 0.63501 0.05401
 C3141 C 0.55932 0.63897 0.05211
 C3142 C 0.56809 0.62947 0.04466
 C3143 C 0.52652 0.61798 0.05120
 C3144 C 0.52129 0.60490 0.04631
 C3145 C 0.52949 0.59538 0.03805
 C3146 C 0.54332 0.59967 0.03448
 C3147 C 0.55093 0.59105 0.02480
 C3148 C 0.54546 0.57840 0.01923
 C3149 C 0.53241 0.57353 0.02340
 C3150 C 0.52426 0.58184 0.03300
 C3151 C 0.51133 0.57606 0.03732
 C3152 C 0.50675 0.56270 0.03223
 C3153 C 0.51476 0.55468 0.02255
 C3154 C 0.52755 0.56029 0.01810
 H3155 H 0.57057 0.60984 0.03358
 H3156 H 0.53836 0.64216 0.05969
 H3157 H 0.57905 0.63180 0.04348
 H3158 H 0.51978 0.62501 0.05735
 H3159 H 0.51059 0.60274 0.04884
 H3160 H 0.56104 0.59405 0.02093
 H3161 H 0.55160 0.57227 0.01165
 H3162 H 0.50469 0.58139 0.04494
 H3163 H 0.49688 0.55862 0.03595
 H3164 H 0.53395 0.55415 0.01076
 C3165 C 0.69686 0.12293 0.52431
 C3166 C 0.71061 0.12767 0.52682
 C3167 C 0.71972 0.11827 0.53450
 C3168 C 0.71512 0.10481 0.53947
 C3169 C 0.70124 0.10038 0.53740
 C3170 C 0.69231 0.10966 0.52949
 C3171 C 0.73336 0.12244 0.53745
 C3172 C 0.73799 0.13606 0.53364
 C3173 C 0.72915 0.14606 0.52650
 C3174 C 0.71548 0.14154 0.52238
 C3175 C 0.70712 0.15107 0.51407
 C3176 C 0.71165 0.16481 0.51053
 C3177 C 0.72456 0.16972 0.51528
 C3178 C 0.73352 0.16045 0.52334
 C3179 C 0.74632 0.16615 0.52831
 C3180 C 0.74997 0.18039 0.52539
 C3181 C 0.74110 0.18947 0.51737
 C3182 C 0.72846 0.18398 0.51221
 H3183 H 0.68911 0.12947 0.51889
 H3184 H 0.72257 0.09777 0.54484
 H3185 H 0.68140 0.10727 0.52796
 H3186 H 0.74047 0.11521 0.54309
 H3187 H 0.74866 0.13836 0.53636
 H3188 H 0.69700 0.14821 0.50996
 H3189 H 0.70482 0.17178 0.50421
 H3190 H 0.75360 0.16007 0.53482
 H3191 H 0.75980 0.18431 0.52955
 H3192 H 0.72143 0.19094 0.50612
 C3193 C 0.68460 0.63632 0.05009
 C3194 C 0.69911 0.63867 0.04948
 C3195 C 0.70801 0.62845 0.05636
 C3196 C 0.70254 0.61586 0.06256
 C3197 C 0.68816 0.61334 0.06233
 C3198 C 0.67929 0.62390 0.05640
 C3199 C 0.72234 0.63077 0.05687
 C3200 C 0.72806 0.64305 0.05075
 C3201 C 0.71969 0.65333 0.04341
 C3202 C 0.70503 0.65082 0.04234
 C3203 C 0.69682 0.66024 0.03376
 C3204 C 0.70264 0.67190 0.02670
 C3205 C 0.71677 0.67486 0.02816
 C3206 C 0.72549 0.66586 0.03677
 C3207 C 0.73961 0.66995 0.03849
 C3208 C 0.74477 0.68229 0.03175
 C3209 C 0.73614 0.69077 0.02289
 C3210 C 0.72217 0.68695 0.02113
 H3211 H 0.67704 0.64397 0.04599
 H3212 H 0.70953 0.60785 0.06723
 H3213 H 0.66810 0.62257 0.05663
 H3214 H 0.72921 0.62302 0.06212
 H3215 H 0.73922 0.64392 0.05151
 H3216 H 0.68587 0.65864 0.03185
 H3217 H 0.69594 0.67874 0.02010
 H3218 H 0.74683 0.66407 0.04528
 H3219 H 0.75556 0.68520 0.03345
 H3220 H 0.71534 0.69370 0.01460
 C3221 C 0.19180 0.62837 0.71780
 C3222 C 0.20604 0.62446 0.71902
 C3223 C 0.21599 0.63453 0.71411
 C3224 C 0.21177 0.64796 0.70850
 C3225 C 0.19763 0.65160 0.70725
 C3226 C 0.18772 0.64167 0.71199
 C3227 C 0.23013 0.63111 0.71464
 C3228 C 0.23467 0.61765 0.71939
 C3229 C 0.22519 0.60708 0.72405
 C3230 C 0.21072 0.61080 0.72455
 C3231 C 0.20144 0.60075 0.73060
 C3232 C 0.20599 0.58727 0.73531
 C3233 C 0.21988 0.58311 0.73393
 C3234 C 0.22970 0.59291 0.72823
 C3235 C 0.24354 0.58791 0.72647
 C3236 C 0.24734 0.57379 0.73006
 C3237 C 0.23760 0.56421 0.73571
 C3238 C 0.22393 0.56903 0.73787
 H3239 H 0.18351 0.62124 0.72082
 H3240 H 0.21955 0.65560 0.70503
 H3241 H 0.17671 0.64405 0.71089
 H3242 H 0.23780 0.63885 0.71110
 H3243 H 0.24577 0.61595 0.71947
 H3244 H 0.19054 0.60306 0.73203
 H3245 H 0.19847 0.57989 0.73980
 H3246 H 0.25159 0.59443 0.72185
 H3247 H 0.25796 0.57031 0.72824
 H3248 H 0.21627 0.56160 0.74203
 C3249 C 0.18786 0.12400 0.21400
 C3250 C 0.20132 0.11841 0.21147
 C3251 C 0.21028 0.12671 0.20276
 C3252 C 0.20599 0.14021 0.19726
 C3253 C 0.19264 0.14585 0.20009
 C3254 C 0.18367 0.13735 0.20846
 C3255 C 0.22356 0.12157 0.19960
 C3256 C 0.22811 0.10822 0.20465
 C3257 C 0.21957 0.09947 0.21331
 C3258 C 0.20610 0.10482 0.21711
 C3259 C 0.19794 0.09651 0.22656
 C3260 C 0.20259 0.08327 0.23182
 C3261 C 0.21545 0.07765 0.22780
 C3262 C 0.22411 0.08560 0.21842
 C3263 C 0.23690 0.07921 0.21438
 C3264 C 0.24089 0.06566 0.21955
 C3265 C 0.23237 0.05791 0.22893
 C3266 C 0.21966 0.06403 0.23307
 H3267 H 0.18013 0.11820 0.21995
 H3268 H 0.21340 0.14647 0.19122
 H3269 H 0.17300 0.14058 0.21033
 H3270 H 0.23053 0.12790 0.19303
 H3271 H 0.23853 0.10521 0.20172
 H3272 H 0.18793 0.10002 0.23033
 H3273 H 0.19595 0.07730 0.23905
 H3274 H 0.24400 0.08422 0.20705
 H3275 H 0.25075 0.06122 0.21607
 H3276 H 0.21288 0.05809 0.24019
 C3277 C 0.68192 1.10955 0.70949
 C3278 C 0.69610 1.10575 0.70793
 C3279 C 0.70443 1.11500 0.69952
 C3280 C 0.69881 1.12770 0.69338
 C3281 C 0.68467 1.13154 0.69510
 C3282 C 0.67639 1.12208 0.70324
 C3283 C 0.71839 1.11155 0.69724
 C3284 C 0.72422 1.09892 0.70278
 C3285 C 0.71634 1.08925 0.71113
 C3286 C 0.70219 1.09299 0.71419
 C3287 C 0.69467 1.08394 0.72353
 C3288 C 0.70053 1.07141 0.72923
 C3289 C 0.71402 1.06719 0.72573
 C3290 C 0.72215 1.07599 0.71660
 C3291 C 0.73564 1.07093 0.71307
 C3292 C 0.74067 1.05769 0.71823
 C3293 C 0.73257 1.04905 0.72723
 C3294 C 0.71931 1.05403 0.73110
 H3295 H 0.67466 1.10285 0.71514
 H3296 H 0.70577 1.13478 0.68767
 H3297 H 0.66532 1.12384 0.70435
 H3298 H 0.72489 1.11863 0.69092
 H3299 H 0.73506 1.09716 0.70049
 H3300 H 0.68421 1.08636 0.72686
 H3301 H 0.69432 1.06483 0.73634
 H3302 H 0.74245 1.07671 0.70599
 H3303 H 0.75092 1.05410 0.71498
 H3304 H 0.71282 1.04736 0.73787
 C3305 C 0.68437 0.62028 0.21205
 C3306 C 0.69854 0.61734 0.21529
 C3307 C 0.70856 0.62730 0.21031
 C3308 C 0.70441 0.63994 0.20298
 C3309 C 0.69030 0.64285 0.20022
 C3310 C 0.68039 0.63280 0.20467
 C3311 C 0.72269 0.62467 0.21272
 C3312 C 0.72719 0.61217 0.21967
 C3313 C 0.71767 0.60185 0.22477
 C3314 C 0.70309 0.60476 0.22306
 C3315 C 0.69357 0.59510 0.22931
 C3316 C 0.69805 0.58268 0.23640
 C3317 C 0.71216 0.57921 0.23735
 C3318 C 0.72221 0.58870 0.23155
 C3319 C 0.73636 0.58438 0.23238
 C3320 C 0.74024 0.57109 0.23834
 C3321 C 0.73025 0.56175 0.24392
 C3322 C 0.71625 0.56604 0.24371
 H3323 H 0.67610 0.61303 0.21483
 H3324 H 0.71218 0.64764 0.19963
 H3325 H 0.66944 0.63457 0.20234
 H3326 H 0.73040 0.63230 0.20906
 H3327 H 0.73828 0.61106 0.22111
 H3328 H 0.68249 0.59694 0.22912
 H3329 H 0.69033 0.57555 0.24093
 H3330 H 0.74468 0.59071 0.22802
 H3331 H 0.75113 0.56797 0.23832
 H3332 H 0.70841 0.55875 0.24777
 C3333 C 0.55761 0.12972 0.71527
 C3334 C 0.54324 0.13312 0.71456
 C3335 C 0.53431 0.12316 0.70762
 C3336 C 0.53959 0.11014 0.70213
 C3337 C 0.55389 0.10700 0.70279
 C3338 C 0.56280 0.11695 0.70941
 C3339 C 0.52018 0.12634 0.70593
 C3340 C 0.51479 0.13951 0.71038
 C3341 C 0.52329 0.14990 0.71714
 C3342 C 0.53755 0.14627 0.72003
 C3343 C 0.54558 0.15583 0.72843
 C3344 C 0.54013 0.16888 0.73313
 C3345 C 0.52665 0.17313 0.72929
 C3346 C 0.51802 0.16376 0.72119
 C3347 C 0.50463 0.16887 0.71711
 C3348 C 0.50011 0.18269 0.72088
 C3349 C 0.50867 0.19184 0.72896
 C3350 C 0.52187 0.18686 0.73331
 H3351 H 0.56522 0.13696 0.71975
 H3352 H 0.53252 0.10252 0.69718
 H3353 H 0.57394 0.11512 0.70970
 H3354 H 0.51326 0.11870 0.70079
 H3355 H 0.50379 0.14112 0.70863
 H3356 H 0.55608 0.15338 0.73185
 H3357 H 0.54665 0.17584 0.73962
 H3358 H 0.49757 0.16267 0.71056
 H3359 H 0.48988 0.18626 0.71731
 H3360 H 0.52866 0.19388 0.73945
 C3361 C 1.05835 0.12361 0.21710
 C3362 C 1.04395 0.12684 0.21802
 C3363 C 1.03447 0.11670 0.21223
 C3364 C 1.03930 0.10379 0.20613
 C3365 C 1.05361 0.10092 0.20496
 C3366 C 1.06304 0.11094 0.21061
 C3367 C 1.02021 0.11961 0.21225
 C3368 C 1.01514 0.13272 0.21722
 C3369 C 1.02416 0.14333 0.22278
 C3370 C 1.03870 0.13998 0.22398
 C3371 C 1.04747 0.14985 0.23113
 C3372 C 1.04238 0.16289 0.23625
 C3373 C 1.02847 0.16679 0.23414
 C3374 C 1.01915 0.15717 0.22726
 C3375 C 1.00532 0.16204 0.22470
 C3376 C 1.00105 0.17588 0.22878
 C3377 C 1.01028 0.18518 0.23577
 C3378 C 1.02393 0.18046 0.23859
 H3379 H 1.06629 0.13093 0.22073
 H3380 H 1.03185 0.09606 0.20203
 H3381 H 1.07415 0.10925 0.20958
 H3382 H 1.01289 0.11181 0.20802
 H3383 H 1.00400 0.13413 0.21682
 H3384 H 1.05833 0.14769 0.23320
 H3385 H 1.04952 0.17016 0.24163
 H3386 H 0.99770 0.15566 0.21908
 H3387 H 0.99049 0.17934 0.22635
 H3388 H 1.03126 0.18770 0.24372
 C3389 C 0.18528 0.63800 0.53974
 C3390 C 0.19956 0.64161 0.54016
 C3391 C 0.20897 0.63149 0.54644
 C3392 C 0.20425 0.61802 0.55128
 C3393 C 0.19011 0.61446 0.55031
 C3394 C 0.18070 0.62469 0.54474
 C3395 C 0.22304 0.63484 0.54780
 C3396 C 0.22803 0.64810 0.54322
 C3397 C 0.21913 0.65846 0.53668
 C3398 C 0.20476 0.65495 0.53470
 C3399 C 0.19611 0.66469 0.52699
 C3400 C 0.20120 0.67757 0.52166
 C3401 C 0.21502 0.68141 0.52400
 C3402 C 0.22417 0.67210 0.53176
 C3403 C 0.23793 0.67697 0.53437
 C3404 C 0.24237 0.69034 0.52921
 C3405 C 0.23334 0.69917 0.52113
 C3406 C 0.21968 0.69463 0.51862
 H3407 H 0.17730 0.64531 0.53592
 H3408 H 0.21164 0.61022 0.55564
 H3409 H 0.16965 0.62248 0.54437
 H3410 H 0.23030 0.62715 0.55257
 H3411 H 0.23904 0.64975 0.54458
 H3412 H 0.18536 0.66252 0.52449
 H3413 H 0.19419 0.68465 0.51570
 H3414 H 0.24542 0.67087 0.54062
 H3415 H 0.25293 0.69375 0.53146
 H3416 H 0.21250 0.70158 0.51270
 C3417 C 0.19319 0.13455 1.03472
 C3418 C 0.20756 0.13774 1.03534
 C3419 C 0.21657 0.12754 1.04208
 C3420 C 0.21135 0.11447 1.04742
 C3421 C 0.19707 0.11148 1.04669
 C3422 C 0.18809 0.12171 1.04036
 C3423 C 0.23071 0.13052 1.04366
 C3424 C 0.23607 0.14365 1.03916
 C3425 C 0.22751 0.15420 1.03248
 C3426 C 0.21319 0.15087 1.02987
 C3427 C 0.20499 0.16069 1.02175
 C3428 C 0.21037 0.17364 1.01692
 C3429 C 0.22402 0.17747 1.02021
 C3430 C 0.23280 0.16793 1.02814
 C3431 C 0.24637 0.17274 1.03172
 C3432 C 0.25095 0.18638 1.02748
 C3433 C 0.24227 0.19556 1.01939
 C3434 C 0.22884 0.19096 1.01573
 H3435 H 0.18551 0.14197 1.03045
 H3436 H 0.21845 0.10665 1.05224
 H3437 H 0.17696 0.12000 1.04009
 H3438 H 0.23768 0.12272 1.04871
 H3439 H 0.24709 0.14509 1.04080
 H3440 H 0.19438 0.15854 1.01862
 H3441 H 0.20367 0.18085 1.01072
 H3442 H 0.25356 0.16642 1.03814
 H3443 H 0.26132 0.18977 1.03057
 H3444 H 0.22191 0.19811 1.00974
 C3445 C 0.22442 0.71005 0.63391
 C3446 C 0.21598 0.71643 0.62300
 C3447 C 0.20164 0.71837 0.62592
 C3448 C 0.19602 0.71362 0.63893
 C3449 C 0.20448 0.70726 0.64960
 C3450 C 0.21873 0.70559 0.64696
 C3451 C 0.19289 0.72502 0.61583
 C3452 C 0.19807 0.73013 0.60294
 C3453 C 0.21226 0.72852 0.59947
 C3454 C 0.22125 0.72104 0.60939
 C3455 C 0.23509 0.71814 0.60523
 C3456 C 0.24003 0.72254 0.59194
 C3457 C 0.23155 0.73037 0.58242
 C3458 C 0.21766 0.73380 0.58620
 C3459 C 0.20978 0.74252 0.57657
 C3460 C 0.21527 0.74702 0.56351
 C3461 C 0.22875 0.74297 0.55948
 C3462 C 0.23690 0.73474 0.56909
 H3463 H 0.23550 0.70864 0.63285
 H3464 H 0.18493 0.71476 0.64068
 H3465 H 0.22558 0.70098 0.65510
 H3466 H 0.18188 0.72640 0.61796
 H3467 H 0.19052 0.73493 0.59571
 H3468 H 0.24230 0.71209 0.61187
 H3469 H 0.25066 0.71986 0.58912
 H3470 H 0.19941 0.74628 0.57887
 H3471 H 0.20878 0.75357 0.55644
 H3472 H 0.24744 0.73174 0.56622
 C3473 C 0.18974 0.21551 1.12081
 C3474 C 0.20410 0.21530 1.11760
 C3475 C 0.21319 0.20802 1.12734
 C3476 C 0.20811 0.20206 1.14017
 C3477 C 0.19390 0.20280 1.14340
 C3478 C 0.18478 0.20934 1.13344
 C3479 C 0.22732 0.20676 1.12427
 C3480 C 0.23263 0.21230 1.11158
 C3481 C 0.22404 0.21975 1.10158
 C3482 C 0.20968 0.22184 1.10497
 C3483 C 0.20144 0.23069 1.09583
 C3484 C 0.20688 0.23681 1.08349
 C3485 C 0.22057 0.23405 1.07950
 C3486 C 0.22936 0.22540 1.08840
 C3487 C 0.24302 0.22253 1.08355
 C3488 C 0.24766 0.22803 1.07046
 C3489 C 0.23896 0.23667 1.06180
 C3490 C 0.22546 0.23978 1.06651
 H3491 H 0.18200 0.22005 1.11362
 H3492 H 0.21531 0.19702 1.14774
 H3493 H 0.17368 0.20960 1.13533
 H3494 H 0.23435 0.20127 1.13170
 H3495 H 0.24366 0.21089 1.11010
 H3496 H 0.19079 0.23345 1.09815
 H3497 H 0.20021 0.24366 1.07690
 H3498 H 0.25026 0.21571 1.08937
 H3499 H 0.25812 0.22536 1.06707
 H3500 H 0.21856 0.24632 1.05984
 C3501 C 0.68181 0.54186 0.14008
 C3502 C 0.69619 0.54167 0.14357
 C3503 C 0.70537 0.54844 0.13385
 C3504 C 0.70032 0.55452 0.12092
 C3505 C 0.68603 0.55449 0.11756
 C3506 C 0.67688 0.54820 0.12737
 C3507 C 0.71956 0.54919 0.13709
 C3508 C 0.72484 0.54368 0.14995
 C3509 C 0.71617 0.53680 0.16000
 C3510 C 0.70171 0.53524 0.15645
 C3511 C 0.69330 0.52709 0.16578
 C3512 C 0.69866 0.52110 0.17836
 C3513 C 0.71251 0.52322 0.18236
 C3514 C 0.72147 0.53123 0.17338
 C3515 C 0.73526 0.53361 0.17840
 C3516 C 0.73984 0.52819 0.19170
 C3517 C 0.73097 0.52004 0.20033
 C3518 C 0.71735 0.51751 0.19549
 H3519 H 0.67402 0.53759 0.14714
 H3520 H 0.70758 0.55925 0.11344
 H3521 H 0.66576 0.54839 0.12536
 H3522 H 0.72665 0.55429 0.12966
 H3523 H 0.73591 0.54469 0.15157
 H3524 H 0.68253 0.52483 0.16349
 H3525 H 0.69179 0.51490 0.18516
 H3526 H 0.74263 0.53997 0.17252
 H3527 H 0.75036 0.53046 0.19529
 H3528 H 0.71026 0.51151 0.20222
 C3529 C 0.71295 1.05390 0.62094
 C3530 C 0.71293 1.03916 0.62500
 C3531 C 0.70665 1.02923 0.61540
 C3532 C 0.70121 1.03389 0.60209
 C3533 C 0.70150 1.04851 0.59817
 C3534 C 0.70730 1.05844 0.60780
 C3535 C 0.70578 1.01468 0.61915
 C3536 C 0.71068 1.00977 0.63239
 C3537 C 0.71701 1.01921 0.64235
 C3538 C 0.71867 1.03402 0.63832
 C3539 C 0.72621 1.04316 0.64765
 C3540 C 0.73150 1.03818 0.66068
 C3541 C 0.72929 1.02401 0.66512
 C3542 C 0.72190 1.01432 0.65613
 C3543 C 0.71947 1.00023 0.66149
 C3544 C 0.72427 0.99602 0.67511
 C3545 C 0.73178 1.00560 0.68378
 C3546 C 0.73432 1.01956 0.67864
 H3547 H 0.71689 1.06230 0.62782
 H3548 H 0.69679 1.02607 0.59473
 H3549 H 0.70728 1.06986 0.60531
 H3550 H 0.70107 1.00701 0.61182
 H3551 H 0.70963 0.99837 0.63437
 H3552 H 0.72851 1.05421 0.64504
 H3553 H 0.73724 1.04559 0.66747
 H3554 H 0.71358 0.99231 0.65562
 H3555 H 0.72207 0.98521 0.67888
 H3556 H 0.73989 1.02716 0.68537
 C3557 C 0.56298 0.20147 0.63342
 C3558 C 0.54839 0.20272 0.63486
 C3559 C 0.53989 0.19651 0.62401
 C3560 C 0.54590 0.19031 0.61172
 C3561 C 0.56040 0.18996 0.61013
 C3562 C 0.56882 0.19523 0.62128
 C3563 C 0.52545 0.19668 0.62538
 C3564 C 0.51920 0.20285 0.63733
 C3565 C 0.52719 0.20953 0.64824
 C3566 C 0.54200 0.20986 0.64672
 C3567 C 0.54992 0.21770 0.65685
 C3568 C 0.54369 0.22471 0.66826
 C3569 C 0.52937 0.22398 0.67024
 C3570 C 0.52088 0.21618 0.66046
 C3571 C 0.50648 0.21523 0.66352
 C3572 C 0.50086 0.22185 0.67567
 C3573 C 0.50931 0.22986 0.68497
 C3574 C 0.52354 0.23091 0.68212
 H3575 H 0.57023 0.20502 0.64156
 H3576 H 0.53928 0.18611 0.60323
 H3577 H 0.58005 0.19454 0.62062
 H3578 H 0.51887 0.19195 0.61714
 H3579 H 0.50800 0.20263 0.63747
 H3580 H 0.56101 0.21904 0.65605
 H3581 H 0.55020 0.23069 0.67571
 H3582 H 0.49935 0.20911 0.65697
 H3583 H 0.48986 0.22070 0.67782
 H3584 H 0.53025 0.23674 0.68952
 C3585 C 1.05216 0.22034 0.12069
 C3586 C 1.04513 0.21175 0.13090
 C3587 C 1.04429 0.19673 0.12821
 C3588 C 1.05098 0.19058 0.11630
 C3589 C 1.05829 0.19918 0.10652
 C3590 C 1.05854 0.21415 0.10875
 C3591 C 1.03688 0.18785 0.13748
 C3592 C 1.03017 0.19352 0.14937
 C3593 C 1.03094 0.20835 0.15275
 C3594 C 1.03892 0.21753 0.14362
 C3595 C 1.04082 0.23204 0.14776
 C3596 C 1.03514 0.23742 0.16036
 C3597 C 1.02700 0.22874 0.16914
 C3598 C 1.02441 0.21421 0.16525
 C3599 C 1.01539 0.20614 0.17409
 C3600 C 1.00988 0.21201 0.18663
 C3601 C 1.01315 0.22610 0.19087
 C3602 C 1.02157 0.23448 0.18192
 H3603 H 1.05270 0.23192 0.12147
 H3604 H 1.05070 0.17898 0.11485
 H3605 H 1.06363 0.22120 0.10116
 H3606 H 1.03620 0.17635 0.13550
 H3607 H 1.02485 0.18585 0.15603
 H3608 H 1.04712 0.23945 0.14175
 H3609 H 1.03716 0.24855 0.16325
 H3610 H 1.01229 0.19527 0.17159
 H3611 H 1.00332 0.20530 0.19325
 H3612 H 1.02399 0.24548 0.18496
 C3613 C 0.60615 0.18286 0.70376
 C3614 C 0.60286 0.19777 0.70358
 C3615 C 0.61259 0.20724 0.69725
 C3616 C 0.62539 0.20196 0.69212
 C3617 C 0.62864 0.18715 0.69267
 C3618 C 0.61873 0.17771 0.69835
 C3619 C 0.60950 0.22194 0.69605
 C3620 C 0.59687 0.22746 0.70079
 C3621 C 0.58690 0.21854 0.70737
 C3622 C 0.59019 0.20355 0.70928
 C3623 C 0.58089 0.19490 0.71714
 C3624 C 0.56867 0.20058 0.72268
 C3625 C 0.56499 0.21498 0.72034
 C3626 C 0.57388 0.22414 0.71241
 C3627 C 0.56921 0.23845 0.70971
 C3628 C 0.55643 0.24342 0.71490
 C3629 C 0.54795 0.23443 0.72313
 C3630 C 0.55236 0.22021 0.72582
 H3631 H 0.59907 0.17481 0.70764
 H3632 H 0.63288 0.20947 0.68779
 H3633 H 0.62058 0.16617 0.69843
 H3634 H 0.61690 0.22926 0.69125
 H3635 H 0.59538 0.23894 0.69952
 H3636 H 0.58295 0.18372 0.71961
 H3637 H 0.56195 0.19356 0.72878
 H3638 H 0.57501 0.24597 0.70330
 H3639 H 0.55318 0.25439 0.71246
 H3640 H 0.54573 0.21303 0.73187
 C3641 C 1.12692 0.22653 0.20697
 C3642 C 1.11654 0.21731 0.21249
 C3643 C 1.11970 0.20237 0.21347
 C3644 C 1.13232 0.19693 0.20831
 C3645 C 1.14235 0.20612 0.20252
 C3646 C 1.13960 0.22099 0.20211
 C3647 C 1.11020 0.19283 0.21943
 C3648 C 1.09756 0.19776 0.22457
 C3649 C 1.09374 0.21247 0.22360
 C3650 C 1.10317 0.22233 0.21701
 C3651 C 1.09871 0.23672 0.21470
 C3652 C 1.08550 0.24132 0.21866
 C3653 C 1.07639 0.23195 0.22550
 C3654 C 1.08054 0.21753 0.22851
 C3655 C 1.07128 0.20875 0.23634
 C3656 C 1.05818 0.21384 0.24021
 C3657 C 1.05382 0.22780 0.23643
 C3658 C 1.06306 0.23689 0.22924
 H3659 H 1.12567 0.23809 0.20647
 H3660 H 1.13414 0.18537 0.20851
 H3661 H 1.14728 0.22842 0.19805
 H3662 H 1.11257 0.18139 0.22015
 H3663 H 1.09077 0.18960 0.22875
 H3664 H 1.10502 0.24460 0.20934
 H3665 H 1.08241 0.25237 0.21635
 H3666 H 1.07387 0.19794 0.23980
 H3667 H 1.05132 0.20664 0.24594
 H3668 H 1.05986 0.24782 0.22653
 C3669 C 0.13594 0.70801 0.56420
 C3670 C 0.13898 0.70950 0.54942
 C3671 C 0.12960 0.70328 0.53939
 C3672 C 0.11735 0.69657 0.54406
 C3673 C 0.11435 0.69543 0.55876
 C3674 C 0.12389 0.70107 0.56873
 C3675 C 0.13247 0.70376 0.52473
 C3676 C 0.14461 0.71001 0.51975
 C3677 C 0.15426 0.71645 0.52927
 C3678 C 0.15110 0.71673 0.54428
 C3679 C 0.15998 0.72448 0.55361
 C3680 C 0.17174 0.73139 0.54855
 C3681 C 0.17536 0.73056 0.53410
 C3682 C 0.16684 0.72287 0.52427
 C3683 C 0.17148 0.72167 0.50990
 C3684 C 0.18392 0.72799 0.50555
 C3685 C 0.19203 0.73591 0.51525
 C3686 C 0.18761 0.73723 0.52949
 H3687 H 0.14282 0.71175 0.57259
 H3688 H 0.11009 0.69234 0.53617
 H3689 H 0.12218 0.69993 0.58016
 H3690 H 0.12530 0.69909 0.51699
 H3691 H 0.14595 0.70999 0.50827
 H3692 H 0.15792 0.72577 0.56489
 H3693 H 0.17819 0.73729 0.55611
 H3694 H 0.16598 0.71555 0.50186
 H3695 H 0.18723 0.72662 0.49454
 H3696 H 0.19402 0.74302 0.53717
 C3697 C 0.14132 0.20989 1.06425
 C3698 C 0.14539 0.21038 1.04967
 C3699 C 0.13657 0.20368 1.03940
 C3700 C 0.12385 0.19756 1.04358
 C3701 C 0.11977 0.19756 1.05804
 C3702 C 0.12880 0.20357 1.06830
 C3703 C 0.14045 0.20315 1.02500
 C3704 C 0.15301 0.20892 1.02054
 C3705 C 0.16209 0.21590 1.03029
 C3706 C 0.15795 0.21711 1.04498
 C3707 C 0.16630 0.22532 1.05443
 C3708 C 0.17846 0.23180 1.04981
 C3709 C 0.18302 0.23011 1.03574
 C3710 C 0.17504 0.22196 1.02579
 C3711 C 0.18053 0.22005 1.01183
 C3712 C 0.19326 0.22609 1.00798
 C3713 C 0.20092 0.23440 1.01778
 C3714 C 0.19564 0.23642 1.03164
 H3715 H 0.14772 0.21401 1.07286
 H3716 H 0.11702 0.19299 1.03547
 H3717 H 0.12628 0.20327 1.07961
 H3718 H 0.13375 0.19808 1.01708
 H3719 H 0.15514 0.20810 1.00922
 H3720 H 0.16353 0.22731 1.06544
 H3721 H 0.18443 0.23813 1.05742
 H3722 H 0.17544 0.21362 1.00374
 H3723 H 0.19715 0.22420 0.99725
 H3724 H 0.20157 0.24258 1.03942
 C3725 C 0.62381 0.53309 0.19774
 C3726 C 0.62829 0.53285 0.21228
 C3727 C 0.61907 0.53849 0.22272
 C3728 C 0.60588 0.54384 0.21868
 C3729 C 0.60166 0.54402 0.20422
 C3730 C 0.61077 0.53861 0.19384
 C3731 C 0.62310 0.53893 0.23713
 C3732 C 0.63628 0.53437 0.24143
 C3733 C 0.64597 0.52894 0.23145
 C3734 C 0.64169 0.52756 0.21674
 C3735 C 0.65091 0.52089 0.20702
 C3736 C 0.66406 0.51625 0.21134
 C3737 C 0.66869 0.51829 0.22543
 C3738 C 0.65977 0.52475 0.23568
 C3739 C 0.66521 0.52709 0.24967
 C3740 C 0.67883 0.52314 0.25325
 C3741 C 0.68751 0.51661 0.24312
 C3742 C 0.68231 0.51409 0.22925
 H3743 H 0.63026 0.52951 0.18903
 H3744 H 0.59890 0.54793 0.22682
 H3745 H 0.60797 0.53898 0.18254
 H3746 H 0.61605 0.54306 0.24519
 H3747 H 0.63848 0.53504 0.25278
 H3748 H 0.64819 0.51885 0.19596
 H3749 H 0.67078 0.51121 0.20349
 H3750 H 0.65938 0.53232 0.25803
 H3751 H 0.68260 0.52526 0.26405
 H3752 H 0.68902 0.50924 0.22126
 C3753 C 0.63206 1.05571 0.71058
 C3754 C 0.63542 1.04083 0.71044
 C3755 C 0.62582 1.03135 0.70377
 C3756 C 0.61306 1.03660 0.69822
 C3757 C 0.60973 1.05135 0.69888
 C3758 C 0.61949 1.06081 0.70488
 C3759 C 0.62900 1.01669 0.70265
 C3760 C 0.64165 1.01123 0.70772
 C3761 C 0.65154 1.02021 0.71450
 C3762 C 0.64809 1.03513 0.71643
 C3763 C 0.65730 1.04381 0.72451
 C3764 C 0.66974 1.03832 0.72995
 C3765 C 0.67368 1.02408 0.72736
 C3766 C 0.66471 1.01478 0.71955
 C3767 C 0.66953 1.00057 0.71682
 C3768 C 0.68270 0.99595 0.72150
 C3769 C 0.69144 1.00521 0.72923
 C3770 C 0.68674 1.01919 0.73231
 H3771 H 0.63905 1.06379 0.71468
 H3772 H 0.60565 1.02915 0.69354
 H3773 H 0.61749 1.07233 0.70504
 H3774 H 0.62169 1.00935 0.69763
 H3775 H 0.64323 0.99979 0.70643
 H3776 H 0.65505 1.05489 0.72712
 H3777 H 0.67646 1.04540 0.73608
 H3778 H 0.66359 0.99289 0.71068
 H3779 H 0.68612 0.98512 0.71888
 H3780 H 0.69350 1.02656 0.73808
 C3781 C 0.87074 0.44961 0.28588
 C3782 C 0.86003 0.45529 0.29457
 C3783 C 0.86232 0.45548 0.30965
 C3784 C 0.87441 0.44923 0.31571
 C3785 C 0.88464 0.44305 0.30696
 C3786 C 0.88280 0.44366 0.29199
 C3787 C 0.85248 0.46175 0.31864
 C3788 C 0.84043 0.46801 0.31300
 C3789 C 0.83751 0.46785 0.29809
 C3790 C 0.84721 0.46087 0.28880
 C3791 C 0.84358 0.45926 0.27414
 C3792 C 0.83105 0.46454 0.26866
 C3793 C 0.82179 0.47199 0.27743
 C3794 C 0.82501 0.47406 0.29220
 C3795 C 0.81560 0.48237 0.30042
 C3796 C 0.80333 0.48787 0.29433
 C3797 C 0.79994 0.48526 0.27989
 C3798 C 0.80927 0.47735 0.27148
 H3799 H 0.87025 0.44984 0.27430
 H3800 H 0.87567 0.44889 0.32730
 H3801 H 0.89075 0.43953 0.28490
 H3802 H 0.85414 0.46190 0.33018
 H3803 H 0.83333 0.47247 0.32073
 H3804 H 0.85003 0.45349 0.26666
 H3805 H 0.82862 0.46284 0.25739
 H3806 H 0.81748 0.48501 0.31153
 H3807 H 0.79633 0.49397 0.30110
 H3808 H 0.80683 0.47541 0.26025
 C3809 C 0.88033 0.97475 0.78474
 C3810 C 0.86984 0.96500 0.78039
 C3811 C 0.87310 0.95006 0.78076
 C3812 C 0.88595 0.94517 0.78629
 C3813 C 0.89598 0.95496 0.79118
 C3814 C 0.89314 0.96978 0.79001
 C3815 C 0.86345 0.94001 0.77584
 C3816 C 0.85060 0.94444 0.77045
 C3817 C 0.84668 0.95916 0.77017
 C3818 C 0.85627 0.96956 0.77569
 C3819 C 0.85182 0.98407 0.77682
 C3820 C 0.83852 0.98833 0.77258
 C3821 C 0.82925 0.97844 0.76665
 C3822 C 0.83330 0.96379 0.76499
 C3823 C 0.82378 0.95439 0.75813
 C3824 C 0.81066 0.95925 0.75369
 C3825 C 0.80651 0.97357 0.75598
 C3826 C 0.81590 0.98314 0.76240
 H3827 H 0.87905 0.98630 0.78402
 H3828 H 0.88795 0.93367 0.78714
 H3829 H 0.90087 0.97763 0.79321
 H3830 H 0.86588 0.92857 0.77612
 H3831 H 0.84373 0.93594 0.76706
 H3832 H 0.85823 0.99237 0.78146
 H3833 H 0.83548 0.99953 0.77390
 H3834 H 0.82620 0.94327 0.75583
 H3835 H 0.80361 0.95165 0.74868
 H3836 H 0.81284 0.99431 0.76400
 C3837 C 0.37842 0.29040 0.80688
 C3838 C 0.38078 0.28813 0.79206
 C3839 C 0.37028 0.29275 0.78222
 C3840 C 0.35773 0.29874 0.78720
 C3841 C 0.35551 0.30079 0.80195
 C3842 C 0.36607 0.29666 0.81167
 C3843 C 0.37239 0.29148 0.76747
 C3844 C 0.38487 0.28612 0.76218
 C3845 C 0.39566 0.28138 0.77151
 C3846 C 0.39330 0.28176 0.78668
 C3847 C 0.40342 0.27556 0.79595
 C3848 C 0.41569 0.26975 0.79068
 C3849 C 0.41856 0.27017 0.77603
 C3850 C 0.40869 0.27612 0.76620
 C3851 C 0.41248 0.27691 0.75153
 C3852 C 0.42548 0.27200 0.74693
 C3853 C 0.43505 0.26592 0.75669
 C3854 C 0.43141 0.26489 0.77121
 H3855 H 0.38609 0.28789 0.81505
 H3856 H 0.34968 0.30179 0.77951
 H3857 H 0.36493 0.29854 0.82308
 H3858 H 0.36437 0.29489 0.75988
 H3859 H 0.38561 0.28549 0.75065
 H3860 H 0.40204 0.27471 0.80740
 H3861 H 0.42315 0.26508 0.79822
 H3862 H 0.40583 0.28170 0.74340
 H3863 H 0.42811 0.27306 0.73567
 H3864 H 0.43885 0.26049 0.77893
 C3865 C 0.88679 0.29196 0.31445
 C3866 C 0.88930 0.29138 0.29952
 C3867 C 0.87996 0.29889 0.29021
 C3868 C 0.86796 0.30562 0.29569
 C3869 C 0.86530 0.30551 0.31051
 C3870 C 0.87508 0.29896 0.31979
 C3871 C 0.88265 0.29960 0.27551
 C3872 C 0.89457 0.29326 0.26986
 C3873 C 0.90400 0.28539 0.27867
 C3874 C 0.90090 0.28385 0.29360
 C3875 C 0.90924 0.27446 0.30207
 C3876 C 0.92061 0.26734 0.29633
 C3877 C 0.92441 0.26959 0.28209
 C3878 C 0.91629 0.27876 0.27304
 C3879 C 0.92103 0.28113 0.25886
 C3880 C 0.93330 0.27466 0.25400
 C3881 C 0.94113 0.26546 0.26299
 C3882 C 0.93647 0.26285 0.27697
 H3883 H 0.89390 0.28747 0.32233
 H3884 H 0.86061 0.31076 0.28836
 H3885 H 0.87376 0.29932 0.33133
 H3886 H 0.87556 0.30531 0.26831
 H3887 H 0.89587 0.29431 0.25842
 H3888 H 0.90696 0.27200 0.31312
 H3889 H 0.92662 0.26011 0.30318
 H3890 H 0.91578 0.28832 0.25144
 H3891 H 0.93676 0.27702 0.24320
 H3892 H 0.94255 0.25597 0.28413
 C3893 C 0.37453 0.77951 0.45375
 C3894 C 0.36443 0.78835 0.46045
 C3895 C 0.36733 0.80329 0.46169
 C3896 C 0.37943 0.80912 0.45566
 C3897 C 0.38907 0.80028 0.44856
 C3898 C 0.38659 0.78540 0.44796
 C3899 C 0.35807 0.81239 0.46878
 C3900 C 0.34594 0.80704 0.47474
 C3901 C 0.34237 0.79233 0.47353
 C3902 C 0.35159 0.78291 0.46594
 C3903 C 0.34747 0.76848 0.46366
 C3904 C 0.33482 0.76341 0.46862
 C3905 C 0.32590 0.77233 0.47635
 C3906 C 0.32967 0.78681 0.47926
 C3907 C 0.32050 0.79516 0.48775
 C3908 C 0.30788 0.78955 0.49247
 C3909 C 0.30388 0.77548 0.48890
 C3910 C 0.31308 0.76687 0.48100
 H3911 H 0.37355 0.76797 0.45297
 H3912 H 0.38116 0.82065 0.45621
 H3913 H 0.39405 0.77819 0.44301
 H3914 H 0.36022 0.82382 0.46976
 H3915 H 0.33933 0.81489 0.47985
 H3916 H 0.35359 0.76089 0.45763
 H3917 H 0.33200 0.75233 0.46635
 H3918 H 0.32276 0.80604 0.49102
 H3919 H 0.30107 0.79645 0.49867
 H3920 H 0.31022 0.75589 0.47833
 C3921 C 0.38445 0.27595 0.95825
 C3922 C 0.37434 0.28486 0.96485
 C3923 C 0.37704 0.29986 0.96555
 C3924 C 0.38884 0.30569 0.95895
 C3925 C 0.39842 0.29679 0.95186
 C3926 C 0.39624 0.28184 0.95191
 C3927 C 0.36784 0.30906 0.97259
 C3928 C 0.35589 0.30375 0.97891
 C3929 C 0.35243 0.28898 0.97809
 C3930 C 0.36165 0.27943 0.97066
 C3931 C 0.35761 0.26493 0.96876
 C3932 C 0.34494 0.25995 0.97376
 C3933 C 0.33595 0.26906 0.98120
 C3934 C 0.33975 0.28357 0.98392
 C3935 C 0.33059 0.29207 0.99226
 C3936 C 0.31785 0.28666 0.99682
 C3937 C 0.31377 0.27262 0.99327
 C3938 C 0.32303 0.26378 0.98570
 H3939 H 0.38365 0.26436 0.95791
 H3940 H 0.39031 0.31728 0.95900
 H3941 H 0.40370 0.27461 0.94699
 H3942 H 0.36987 0.32054 0.97319
 H3943 H 0.34927 0.31167 0.98389
 H3944 H 0.36377 0.25722 0.96291
 H3945 H 0.34212 0.24883 0.97170
 H3946 H 0.33293 0.30295 0.99548
 H3947 H 0.31097 0.29370 1.00279
 H3948 H 0.32009 0.25280 0.98313
 C3949 C 0.78826 0.47898 0.39283
 C3950 C 0.78243 0.47023 0.38190
 C3951 C 0.78125 0.45524 0.38476
 C3952 C 0.78660 0.44926 0.39757
 C3953 C 0.79299 0.45800 0.40795
 C3954 C 0.79344 0.47293 0.40558
 C3955 C 0.77499 0.44621 0.37470
 C3956 C 0.76985 0.45166 0.36179
 C3957 C 0.77107 0.46643 0.35823
 C3958 C 0.77781 0.47580 0.36828
 C3959 C 0.78016 0.49027 0.36417
 C3960 C 0.77604 0.49545 0.35075
 C3961 C 0.76910 0.48658 0.34101
 C3962 C 0.76619 0.47205 0.34473
 C3963 C 0.75848 0.46374 0.33475
 C3964 C 0.75442 0.46944 0.32148
 C3965 C 0.75784 0.48360 0.31760
 C3966 C 0.76512 0.49216 0.32749
 H3967 H 0.78890 0.49055 0.39193
 H3968 H 0.78620 0.43769 0.39923
 H3969 H 0.79789 0.48002 0.41361
 H3970 H 0.77407 0.43474 0.37682
 H3971 H 0.76539 0.44385 0.35459
 H3972 H 0.78561 0.49781 0.37094
 H3973 H 0.77830 0.50656 0.34799
 H3974 H 0.75527 0.45284 0.33689
 H3975 H 0.74874 0.46257 0.31409
 H3976 H 0.76766 0.50319 0.32468
 C3977 C 0.81981 0.94875 0.85727
 C3978 C 0.80532 0.94931 0.85433
 C3979 C 0.79633 0.94325 0.86470
 C3980 C 0.80168 0.93750 0.87766
 C3981 C 0.81606 0.93731 0.88054
 C3982 C 0.82502 0.94285 0.87010
 C3983 C 0.78202 0.94297 0.86213
 C3984 C 0.77636 0.94838 0.84939
 C3985 C 0.78481 0.95461 0.83872
 C3986 C 0.79948 0.95551 0.84144
 C3987 C 0.80776 0.96282 0.83132
 C3988 C 0.80202 0.96878 0.81886
 C3989 C 0.78786 0.96747 0.81577
 C3990 C 0.77905 0.96019 0.82552
 C3991 C 0.76489 0.95858 0.82148
 C3992 C 0.75976 0.96410 0.80845
 C3993 C 0.76845 0.97157 0.79904
 C3994 C 0.78250 0.97328 0.80284
 H3995 H 0.82745 0.95254 0.84978
 H3996 H 0.79457 0.93336 0.88563
 H3997 H 0.83619 0.94248 0.87176
 H3998 H 0.77507 0.93842 0.87004
 H3999 H 0.76520 0.94782 0.84839
 H4000 H 0.81876 0.96443 0.83286
 H4001 H 0.80881 0.97436 0.81148
 H4002 H 0.75754 0.95280 0.82796
 H4003 H 0.74889 0.96247 0.80572
 H4004 H 0.78941 0.97875 0.79549
 C4005 C 0.31246 0.78685 0.38186
 C4006 C 0.29808 0.78641 0.38503
 C4007 C 0.28864 0.79219 0.37468
 C4008 C 0.29348 0.79790 0.36168
 C4009 C 0.30775 0.79840 0.35880
 C4010 C 0.31716 0.79277 0.36899
 C4011 C 0.27440 0.79245 0.37739
 C4012 C 0.26929 0.78762 0.39043
 C4013 C 0.27825 0.78207 0.40125
 C4014 C 0.29280 0.78081 0.39824
 C4015 C 0.30155 0.77397 0.40851
 C4016 C 0.29643 0.76913 0.42155
 C4017 C 0.28248 0.77114 0.42501
 C4018 C 0.27316 0.77769 0.41498
 C4019 C 0.25923 0.77998 0.41933
 C4020 C 0.25484 0.77597 0.43302
 C4021 C 0.26409 0.76942 0.44280
 C4022 C 0.27786 0.76686 0.43863
 H4023 H 0.32041 0.78313 0.38925
 H4024 H 0.28607 0.80207 0.35380
 H4025 H 0.32826 0.79328 0.36719
 H4026 H 0.26712 0.79668 0.36942
 H4027 H 0.25816 0.78819 0.39159
 H4028 H 0.31245 0.77197 0.40673
 H4029 H 0.30356 0.76399 0.42912
 H4030 H 0.25154 0.78525 0.41260
 H4031 H 0.24416 0.77813 0.43599
 H4032 H 0.28518 0.76200 0.44621
 C4033 C 0.29151 0.31538 0.88183
 C4034 C 0.29101 0.30082 0.88644
 C4035 C 0.29647 0.29015 0.87710
 C4036 C 0.30166 0.29397 0.86356
 C4037 C 0.30188 0.30843 0.85909
 C4038 C 0.29686 0.31906 0.86843
 C4039 C 0.29674 0.27571 0.88131
 C4040 C 0.29203 0.27157 0.89475
 C4041 C 0.28656 0.28174 0.90450
 C4042 C 0.28551 0.29652 0.90004
 C4043 C 0.27882 0.30644 0.90923
 C4044 C 0.27373 0.30221 0.92250
 C4045 C 0.27535 0.28803 0.92732
 C4046 C 0.28194 0.27761 0.91850
 C4047 C 0.28391 0.26355 0.92421
 C4048 C 0.27943 0.26005 0.93799
 C4049 C 0.27270 0.27032 0.94652
 C4050 C 0.27058 0.28427 0.94106
 H4051 H 0.28815 0.32425 0.88844
 H4052 H 0.30544 0.28562 0.85642
 H4053 H 0.29727 0.33036 0.86547
 H4054 H 0.30078 0.26749 0.87417
 H4055 H 0.29254 0.26018 0.89705
 H4056 H 0.27707 0.31757 0.90635
 H4057 H 0.26864 0.31020 0.92916
 H4058 H 0.28923 0.25509 0.91851
 H4059 H 0.28128 0.24920 0.94201
 H4060 H 0.26561 0.29237 0.94770
 C4061 C 0.43700 0.28705 0.86454
 C4062 C 0.45094 0.28724 0.85972
 C4063 C 0.46109 0.29347 0.86890
 C4064 C 0.45744 0.29868 0.88252
 C4065 C 0.44360 0.29833 0.88716
 C4066 C 0.43345 0.29255 0.87797
 C4067 C 0.47485 0.29457 0.86443
 C4068 C 0.47874 0.28999 0.85085
 C4069 C 0.46904 0.28373 0.84127
 C4070 C 0.45506 0.28174 0.84604
 C4071 C 0.44575 0.27409 0.83710
 C4072 C 0.44978 0.26897 0.82376
 C4073 C 0.46311 0.27157 0.81862
 C4074 C 0.47289 0.27917 0.82716
 C4075 C 0.48604 0.28214 0.82107
 C4076 C 0.48930 0.27753 0.80722
 C4077 C 0.47970 0.26968 0.79904
 C4078 C 0.46663 0.26670 0.80485
 H4079 H 0.42851 0.28313 0.85802
 H4080 H 0.46545 0.30301 0.88954
 H4081 H 0.42260 0.29252 0.88102
 H4082 H 0.48269 0.29922 0.87145
 H4083 H 0.48959 0.29118 0.84830
 H4084 H 0.43530 0.27151 0.84026
 H4085 H 0.44230 0.26306 0.81732
 H4086 H 0.49390 0.28833 0.82656
 H4087 H 0.49943 0.28010 0.80292
 H4088 H 0.45901 0.26089 0.79848
 C4089 C 0.93501 0.28319 0.36814
 C4090 C 0.94923 0.28281 0.36429
 C4091 C 0.95895 0.28920 0.37385
 C4092 C 0.95457 0.29521 0.38688
 C4093 C 0.94041 0.29573 0.39046
 C4094 C 0.93072 0.28961 0.38095
 C4095 C 0.97299 0.28979 0.37028
 C4096 C 0.97758 0.28472 0.35711
 C4097 C 0.96832 0.27840 0.34713
 C4098 C 0.95408 0.27669 0.35113
 C4099 C 0.94523 0.26874 0.34195
 C4100 C 0.94997 0.26318 0.32903
 C4101 C 0.96351 0.26573 0.32447
 C4102 C 0.97286 0.27353 0.33335
 C4103 C 0.98627 0.27643 0.32790
 C4104 C 0.99020 0.27161 0.31432
 C4105 C 0.98102 0.26362 0.30574
 C4106 C 0.96770 0.26065 0.31097
 H4107 H 0.92687 0.27913 0.36124
 H4108 H 0.96226 0.29965 0.39420
 H4109 H 0.91969 0.29014 0.38317
 H4110 H 0.98050 0.29452 0.37762
 H4111 H 0.98859 0.28558 0.35522
 H4112 H 0.93463 0.26627 0.34465
 H4113 H 0.94286 0.25696 0.32244
 H4114 H 0.99383 0.28277 0.33366
 H4115 H 1.00052 0.27417 0.31051
 H4116 H 0.96041 0.25467 0.30435
 C4117 C 0.46935 0.38367 0.78816
 C4118 C 0.46097 0.37297 0.78164
 C4119 C 0.44640 0.37548 0.78106
 C4120 C 0.44052 0.38766 0.78768
 C4121 C 0.44892 0.39785 0.79466
 C4122 C 0.46340 0.39586 0.79450
 C4123 C 0.43771 0.36572 0.77407
 C4124 C 0.44311 0.35343 0.76764
 C4125 C 0.45748 0.35015 0.76831
 C4126 C 0.46651 0.35988 0.77577
 C4127 C 0.48064 0.35592 0.77761
 C4128 C 0.48577 0.34289 0.77247
 C4129 C 0.47718 0.33344 0.76492
 C4130 C 0.46303 0.33715 0.76228
 C4131 C 0.45500 0.32760 0.75380
 C4132 C 0.46055 0.31453 0.74902
 C4133 C 0.47426 0.31049 0.75248
 C4134 C 0.48261 0.32016 0.76021
 H4135 H 0.48055 0.38305 0.78839
 H4136 H 0.42930 0.38896 0.78771
 H4137 H 0.47024 0.40378 0.79930
 H4138 H 0.42656 0.36759 0.77357
 H4139 H 0.43560 0.34639 0.76270
 H4140 H 0.48795 0.36244 0.78352
 H4141 H 0.49660 0.34015 0.77449
 H4142 H 0.44441 0.32989 0.75061
 H4143 H 0.45387 0.30737 0.74294
 H4144 H 0.49332 0.31727 0.76273
 C4145 C 0.93127 0.36021 0.29192
 C4146 C 0.94567 0.35768 0.28993
 C4147 C 0.95509 0.36783 0.29587
 C4148 C 0.95016 0.38018 0.30299
 C4149 C 0.93586 0.38265 0.30458
 C4150 C 0.92651 0.37246 0.29910
 C4151 C 0.96939 0.36565 0.29466
 C4152 C 0.97465 0.35344 0.28795
 C4153 C 0.96575 0.34295 0.28192
 C4154 C 0.95103 0.34537 0.28246
 C4155 C 0.94218 0.33551 0.27538
 C4156 C 0.94744 0.32342 0.26848
 C4157 C 0.96169 0.32048 0.26854
 C4158 C 0.97108 0.33013 0.27532
 C4159 C 0.98538 0.32628 0.27557
 C4160 C 0.99002 0.31335 0.26958
 C4161 C 0.98067 0.30393 0.26290
 C4162 C 0.96654 0.30770 0.26218
 H4163 H 0.92338 0.35283 0.28830
 H4164 H 0.95751 0.38801 0.30713
 H4165 H 0.91541 0.37389 0.30049
 H4166 H 0.97664 0.37342 0.29907
 H4167 H 0.98582 0.35270 0.28743
 H4168 H 0.93106 0.33693 0.27476
 H4169 H 0.94022 0.31612 0.26325
 H4170 H 0.99322 0.33273 0.28077
 H4171 H 1.00098 0.31059 0.27037
 H4172 H 0.95919 0.30029 0.25731
 C4173 C 0.30857 0.87333 0.45827
 C4174 C 0.29415 0.87063 0.45919
 C4175 C 0.28485 0.88075 0.45275
 C4176 C 0.28988 0.89366 0.44678
 C4177 C 0.30419 0.89654 0.44682
 C4178 C 0.31343 0.88603 0.45219
 C4179 C 0.27059 0.87796 0.45244
 C4180 C 0.26537 0.86526 0.45824
 C4181 C 0.27420 0.85505 0.46510
 C4182 C 0.28874 0.85813 0.46613
 C4183 C 0.29737 0.84888 0.47444
 C4184 C 0.29213 0.83667 0.48102
 C4185 C 0.27819 0.83301 0.47934
 C4186 C 0.26900 0.84198 0.47122
 C4187 C 0.25511 0.83724 0.46929
 C4188 C 0.25067 0.82414 0.47514
 C4189 C 0.25981 0.81555 0.48335
 C4190 C 0.27349 0.82018 0.48555
 H4191 H 0.31639 0.86572 0.46190
 H4192 H 0.28263 0.90161 0.44243
 H4193 H 0.32458 0.88764 0.45171
 H4194 H 0.26339 0.88563 0.44754
 H4195 H 0.25424 0.86397 0.45760
 H4196 H 0.30822 0.85102 0.47647
 H4197 H 0.29915 0.82990 0.48732
 H4198 H 0.24757 0.84313 0.46289
 H4199 H 0.24009 0.82065 0.47314
 H4200 H 0.28074 0.81342 0.49159
 C4201 C 0.29015 0.37670 0.94302
 C4202 C 0.28913 0.37312 0.95777
 C4203 C 0.29429 0.38321 0.96791
 C4204 C 0.29958 0.39657 0.96336
 C4205 C 0.30024 0.40005 0.94868
 C4206 C 0.29563 0.38986 0.93863
 C4207 C 0.29420 0.37988 0.98255
 C4208 C 0.28943 0.36660 0.98737
 C4209 C 0.28417 0.35619 0.97771
 C4210 C 0.28346 0.35978 0.96274
 C4211 C 0.27691 0.35002 0.95325
 C4212 C 0.27174 0.33696 0.95808
 C4213 C 0.27310 0.33292 0.97247
 C4214 C 0.27943 0.34237 0.98251
 C4215 C 0.28106 0.33739 0.99687
 C4216 C 0.27659 0.32365 1.00094
 C4217 C 0.27018 0.31450 0.99097
 C4218 C 0.26833 0.31931 0.97678
 H4219 H 0.28716 0.36941 0.93456
 H4220 H 0.30311 0.40431 0.97129
 H4221 H 0.29648 0.39194 0.92721
 H4222 H 0.29805 0.38756 0.99038
 H4223 H 0.28971 0.36494 0.99883
 H4224 H 0.27531 0.35230 0.94199
 H4225 H 0.26679 0.32982 0.95038
 H4226 H 0.28612 0.34364 1.00511
 H4227 H 0.27827 0.32014 1.01195
 H4228 H 0.26363 0.31221 0.96888
 C4229 C 0.81550 0.38809 0.29984
 C4230 C 0.80095 0.39063 0.29920
 C4231 C 0.79218 0.38010 0.30540
 C4232 C 0.79782 0.36740 0.31145
 C4233 C 0.81224 0.36494 0.31174
 C4234 C 0.82098 0.37549 0.30600
 C4235 C 0.77781 0.38226 0.30552
 C4236 C 0.77187 0.39475 0.29982
 C4237 C 0.78010 0.40557 0.29347
 C4238 C 0.79484 0.40327 0.29277
 C4239 C 0.80294 0.41356 0.28546
 C4240 C 0.79697 0.42582 0.27933
 C4241 C 0.78273 0.42850 0.28041
 C4242 C 0.77407 0.41855 0.28764
 C4243 C 0.75977 0.42219 0.28893
 C4244 C 0.75442 0.43508 0.28323
 C4245 C 0.76302 0.44469 0.27590
 C4246 C 0.77716 0.44125 0.27446
 H4247 H 0.82299 0.39570 0.29593
 H4248 H 0.79091 0.35930 0.31578
 H4249 H 0.83218 0.37410 0.30642
 H4250 H 0.77105 0.37422 0.31018
 H4251 H 0.76070 0.39545 0.30029
 H4252 H 0.81399 0.41235 0.28401
 H4253 H 0.80363 0.43339 0.27380
 H4254 H 0.75250 0.41552 0.29460
 H4255 H 0.74348 0.43758 0.28466
 H4256 H 0.78401 0.44877 0.26911
   
