data_POSCAR
  _audit_creation_date              2014-09-24
  _audit_creation_method            'ToBaCCo'
  _symmetry_space_group_name_H-M    'P1'
  _symmetry_Int_Tables_number       1
  _symmetry_cell_setting            triclinic
  loop_
  _symmetry_equiv_pos_as_xyz
 x,y,z
_cell_length_a 56.2202
_cell_length_b 56.2201
_cell_length_c 56.2208
_cell_angle_alpha 90.000700
_cell_angle_beta 90.001000
_cell_angle_gamma 89.999000
loop_
  _atom_site_label
  _atom_site_type_symbol
  _atom_site_fract_x
  _atom_site_fract_y
  _atom_site_fract_z
N1 N 0.34933 1.34931 0.34925
 N2 N 0.34930 0.84932 0.84935
 N3 N 0.84935 1.34931 0.84925
 N4 N 0.84926 0.84931 0.34931
 N5 N 0.65070 0.65068 0.34932
 N6 N 0.65067 0.15067 0.84935
 N7 N 1.15070 0.65070 0.84931
 N8 N 1.15066 0.15063 0.34937
 N9 N 0.65071 1.34930 0.65066
 N10 N 0.65065 0.84929 1.15069
 N11 N 1.15072 1.34929 1.15071
 N12 N 1.15067 0.84933 0.65072
 N13 N 0.34934 0.65066 0.65066
 N14 N 0.34926 0.15078 1.15070
 N15 N 0.84934 0.65068 1.15072
 N16 N 0.84923 0.15071 0.65073
 N17 N 1.34938 0.34937 0.65065
 N18 N 1.34932 0.84930 1.15068
 N19 N 0.84939 0.34935 1.15067
 N20 N 0.84928 0.84930 0.65072
 N21 N 0.65071 0.65068 0.65066
 N22 N 0.65067 1.15070 1.15067
 N23 N 0.15071 0.65071 1.15070
 N24 N 0.15069 1.15067 0.65069
 N25 N 1.34932 0.65068 0.34930
 N26 N 1.34926 1.15074 0.84932
 N27 N 0.84935 0.65068 0.84927
 N28 N 0.84924 1.15067 0.34931
 N29 N 0.65071 0.34927 0.34928
 N30 N 0.65065 0.84934 0.84934
 N31 N 0.15071 0.34929 0.84928
 N32 N 0.15064 0.84936 0.34935
 O33 O 1.08603 1.02294 1.11851
 O34 O 1.11370 1.02289 1.14632
 C35 C 1.09437 1.03103 1.13789
 C36 C 1.08171 1.05047 1.15039
 C37 C 1.08962 1.05860 1.17265
 H38 H 1.10472 1.05022 1.18124
 O39 O 0.91397 0.97685 1.11848
 O40 O 0.88631 0.97685 1.14629
 C41 C 0.90564 0.96873 1.13785
 C42 C 0.91831 0.94927 1.15030
 C43 C 0.91040 0.94111 1.17256
 H44 H 0.89532 0.94948 1.18118
 O45 O 1.02340 1.11834 1.08611
 O46 O 1.02348 1.14613 1.11380
 C47 C 1.03156 1.13770 1.09444
 C48 C 1.05100 1.15016 1.08174
 C49 C 1.05917 1.17241 1.08964
 H50 H 1.05083 1.18102 1.10474
 O51 O 0.97658 0.88151 1.08588
 O52 O 0.97651 0.85368 1.11352
 C53 C 0.96843 0.86215 1.09418
 C54 C 0.94898 0.84971 1.08148
 C55 C 0.94080 0.82745 1.08936
 H56 H 0.94915 0.81882 1.10444
 O57 O 1.11859 1.08574 1.02327
 O58 O 1.14644 1.11336 1.02332
 C59 C 1.13798 1.09402 1.03140
 C60 C 1.15044 1.08130 1.05082
 C61 C 1.17270 1.08918 1.05900
 H62 H 1.18131 1.10429 1.05067
 O63 O 0.88131 0.91419 1.02316
 O64 O 0.85345 0.88658 1.02318
 C65 C 0.86192 0.90590 1.03129
 C66 C 0.84948 0.91861 1.05073
 C67 C 0.82722 0.91074 1.05893
 H68 H 0.81858 0.89565 1.05059
 O69 O 0.97695 1.08582 1.11865
 O70 O 0.97697 1.11345 1.14651
 C71 C 0.96884 1.09413 1.13803
 C72 C 0.94936 1.08147 1.15047
 C73 C 0.94118 1.08936 1.17273
 H74 H 0.94955 1.10442 1.18137
 O75 O 1.02305 0.91398 1.11847
 O76 O 1.02303 0.88631 1.14627
 C77 C 1.03116 0.90564 1.13783
 C78 C 1.05064 0.91828 1.15029
 C79 C 1.05878 0.91037 1.17256
 H80 H 1.05038 0.89530 1.18117
 O81 O 1.11852 0.97651 1.08589
 O82 O 1.14635 0.97641 1.11353
 C83 C 1.13788 0.96835 1.09419
 C84 C 1.15029 0.94889 1.08147
 C85 C 1.17256 0.94068 1.08933
 H86 H 1.18121 0.94901 1.10441
 O87 O 0.88149 1.02333 1.08594
 O88 O 0.85366 1.02339 1.11359
 C89 C 0.86213 1.03149 1.09426
 C90 C 0.84972 1.05097 1.08158
 C91 C 0.82745 1.05917 1.08946
 H92 H 0.81880 1.05081 1.10452
 O93 O 0.91432 1.11867 1.02334
 O94 O 0.88672 1.14654 1.02340
 C95 C 0.90604 1.13805 1.03149
 C96 C 0.91875 1.15045 1.05095
 C97 C 0.91090 1.17272 1.05916
 H98 H 0.89583 1.18138 1.05081
 O99 O 1.08569 0.88130 1.02312
 O100 O 1.11329 0.85343 1.02312
 C101 C 1.09397 0.86191 1.03124
 C102 C 1.08127 0.84947 1.05069
 C103 C 1.08914 0.82721 1.05888
 H104 H 1.10423 0.81857 1.05054
 O105 O 0.91406 1.02324 1.11851
 O106 O 0.88639 1.02330 1.14632
 C107 C 0.90576 1.03137 1.13789
 C108 C 0.91849 1.05076 1.15039
 C109 C 0.91059 1.05893 1.17265
 H110 H 0.89547 1.05060 1.18124
 O111 O 1.08596 0.97655 1.11847
 O112 O 1.11363 0.97644 1.14628
 C113 C 1.09426 0.96839 1.13784
 C114 C 1.08152 0.94898 1.15029
 C115 C 1.08939 0.94078 1.17256
 H116 H 1.10451 0.94909 1.18117
 O117 O 1.02298 0.88142 1.08589
 O118 O 1.02297 0.85359 1.11354
 C119 C 1.03108 0.86203 1.09419
 C120 C 1.05049 0.84954 1.08150
 C121 C 1.05865 0.82728 1.08941
 H122 H 1.05030 0.81869 1.10452
 O123 O 0.97701 1.11843 1.08612
 O124 O 0.97703 1.14621 1.11381
 C125 C 0.96892 1.13781 1.09445
 C126 C 0.94952 1.15033 1.08177
 C127 C 0.94139 1.17259 1.08969
 H128 H 0.94975 1.18117 1.10481
 O129 O 0.88168 1.08616 1.02330
 O130 O 0.85392 1.11388 1.02336
 C131 C 0.86232 1.09451 1.03143
 C132 C 0.84982 1.08181 1.05084
 C133 C 0.82755 1.08973 1.05899
 H134 H 0.81897 1.10484 1.05065
 O135 O 1.11833 0.91380 1.02313
 O136 O 1.14609 0.88609 1.02313
 C137 C 1.13769 0.90544 1.03124
 C138 C 1.15020 0.91810 1.05067
 C139 C 1.17246 0.91018 1.05881
 H140 H 1.18104 0.89507 1.05044
 O141 O 0.97664 0.91405 1.11849
 O142 O 0.97656 0.88637 1.14629
 C143 C 0.96849 0.90573 1.13786
 C144 C 0.94906 0.91844 1.15032
 C145 C 0.94087 0.91056 1.17258
 H146 H 0.94920 0.89546 1.18120
 O147 O 1.02336 1.08574 1.11865
 O148 O 1.02344 1.11337 1.14650
 C149 C 1.03151 1.09402 1.13803
 C150 C 1.05095 1.08129 1.15046
 C151 C 1.05915 1.08914 1.17272
 H152 H 1.05082 1.10423 1.18137
 O153 O 0.88141 0.97693 1.08590
 O154 O 0.85359 0.97693 1.11356
 C155 C 0.86202 0.96883 1.09421
 C156 C 0.84953 0.94940 1.08152
 C157 C 0.82727 0.94125 1.08943
 H158 H 0.81867 0.94961 1.10453
 O159 O 1.11859 1.02292 1.08593
 O160 O 1.14643 1.02288 1.11358
 C161 C 1.13798 1.03102 1.09425
 C162 C 1.15044 1.05047 1.08158
 C163 C 1.17271 1.05864 1.08948
 H164 H 1.18132 1.05028 1.10457
 O165 O 0.91384 0.88159 1.02314
 O166 O 0.88615 0.85380 1.02316
 C167 C 0.90550 0.86222 1.03126
 C168 C 0.91818 0.84974 1.05070
 C169 C 0.91028 0.82747 1.05886
 H170 H 0.89518 0.81887 1.05051
 O171 O 1.08608 1.11837 1.02331
 O172 O 1.11377 1.14615 1.02336
 C173 C 1.09442 1.13772 1.03145
 C174 C 1.08175 1.15018 1.05092
 C175 C 1.08965 1.17244 1.05910
 H176 H 1.10474 1.18106 1.05074
 Cu177 Cu 1.09951 0.99974 1.09943
 Cu178 Cu 1.13282 0.99965 1.13271
 Cu179 Cu 0.90050 1.00009 1.09944
 Cu180 Cu 0.86720 1.00012 1.13273
 Cu181 Cu 1.00018 1.09931 1.09961
 Cu182 Cu 1.00024 1.13257 1.13295
 Cu183 Cu 0.99981 0.90051 1.09941
 Cu184 Cu 0.99976 0.86720 1.13269
 C185 C 1.06220 1.06179 1.13955
 H186 H 1.05620 1.05583 1.12224
 C187 C 1.07836 1.07781 1.18378
 C188 C 0.93780 0.93796 1.13944
 H189 H 0.94380 0.94394 1.12214
 C190 C 0.92167 0.92188 1.18366
 C191 C 1.06226 1.13930 1.06222
 H192 H 1.05627 1.12199 1.05623
 C193 C 1.07838 1.18352 1.07833
 C194 C 0.93769 0.86059 1.06199
 H195 H 0.94368 0.87791 1.05601
 C196 C 0.92158 0.81637 1.07807
 C197 C 1.13957 1.06178 1.06208
 H198 H 1.12226 1.05580 1.05609
 C199 C 1.18379 1.07787 1.07821
 C200 C 0.86037 0.93811 1.06201
 H201 H 0.87769 0.94407 1.05601
 C202 C 0.81615 0.92204 1.07815
 C203 C 0.93804 1.06201 1.13956
 H204 H 0.94402 1.05603 1.12225
 C205 C 0.92192 1.07810 1.18378
 C206 C 1.06198 0.93775 1.13942
 H207 H 1.05602 0.94375 1.12211
 C208 C 1.07803 0.92160 1.18365
 C209 C 1.13938 0.93762 1.06198
 H210 H 1.12207 0.94363 1.05603
 C211 C 1.18360 0.92145 1.07801
 C212 C 0.86063 1.06227 1.06211
 H213 H 0.87794 1.05627 1.05615
 C214 C 0.81641 1.07842 1.07817
 C215 C 0.93822 1.13952 1.06224
 H216 H 0.94417 1.12220 1.05623
 C217 C 0.92220 1.18375 1.07840
 C218 C 1.06178 0.86037 1.06197
 H219 H 1.05581 0.87768 1.05598
 C220 C 1.07785 0.81615 1.07812
 O221 O 1.08590 0.97675 0.88150
 O222 O 1.11356 0.97668 0.85369
 C223 C 1.09420 0.96862 0.86212
 C224 C 1.08147 0.94921 0.84965
 C225 C 1.08934 0.94103 0.82738
 H226 H 1.10447 0.94934 0.81878
 O227 O 0.91405 1.02345 0.88158
 O228 O 0.88638 1.02355 0.85378
 C229 C 0.90575 1.03160 0.86222
 C230 C 0.91847 1.05102 0.84975
 C231 C 0.91058 1.05920 0.82749
 H232 H 0.89547 1.05087 0.81889
 O233 O 0.97699 1.11862 0.91412
 O234 O 0.97699 1.14645 0.88647
 C235 C 0.96889 1.13801 0.90582
 C236 C 0.94948 1.15050 0.91853
 C237 C 0.94131 1.17276 0.91063
 H238 H 0.94964 1.18136 0.89552
 O239 O 1.02295 0.88154 0.91397
 O240 O 1.02293 0.85375 0.88628
 C241 C 1.03104 0.86216 0.90563
 C242 C 1.05046 0.84964 0.91831
 C243 C 1.05860 0.82738 0.91038
 H244 H 1.05024 0.81881 0.89526
 O245 O 1.11831 0.91385 0.97674
 O246 O 1.14607 0.88613 0.97668
 C247 C 1.13766 0.90550 0.96860
 C248 C 1.15016 0.91820 0.94919
 C249 C 1.17242 0.91029 0.94104
 H250 H 1.18101 0.89517 0.94938
 O251 O 0.88167 1.08620 0.97691
 O252 O 0.85391 1.11392 0.97691
 C253 C 0.86231 1.09456 0.96880
 C254 C 0.84981 1.08190 0.94937
 C255 C 0.82755 1.08983 0.94123
 H256 H 0.81897 1.10493 0.94960
 O257 O 1.02332 1.08598 0.88153
 O258 O 1.02340 1.11365 0.85372
 C259 C 1.03147 1.09429 0.86216
 C260 C 1.05089 1.08157 0.84970
 C261 C 1.05908 1.08944 0.82743
 H262 H 1.05076 1.10455 0.81882
 O263 O 0.97660 0.91422 0.88144
 O264 O 0.97652 0.88659 0.85359
 C265 C 0.96845 0.90594 0.86206
 C266 C 0.94902 0.91867 0.84962
 C267 C 0.94081 0.91080 0.82736
 H268 H 0.94913 0.89570 0.81873
 O269 O 1.11854 1.02307 0.91410
 O270 O 1.14637 1.02308 0.88645
 C271 C 1.13793 1.03118 0.90579
 C272 C 1.15040 1.05061 0.91849
 C273 C 1.17266 1.05879 0.91060
 H274 H 1.18127 1.05045 0.89549
 O275 O 0.88141 0.97708 0.91413
 O276 O 0.85358 0.97712 0.88648
 C277 C 0.86202 0.96899 0.90581
 C278 C 0.84954 0.94955 0.91847
 C279 C 0.82727 0.94141 0.91056
 H280 H 0.81867 0.94979 0.89547
 O281 O 1.08606 1.11841 0.97690
 O282 O 1.11376 1.14619 0.97690
 C283 C 1.09441 1.13777 0.96879
 C284 C 1.08174 1.15027 0.94935
 C285 C 1.08967 1.17252 0.94120
 H286 H 1.10477 1.18112 0.94958
 O287 O 0.91383 0.88161 0.97674
 O288 O 0.88614 0.85383 0.97669
 C289 C 0.90549 0.86226 0.96860
 C290 C 0.91817 0.84980 0.94914
 C291 C 0.91028 0.82754 0.94097
 H292 H 0.89519 0.81892 0.94932
 O293 O 0.91396 0.97705 0.88154
 O294 O 0.88629 0.97710 0.85373
 C295 C 0.90562 0.96896 0.86216
 C296 C 0.91828 0.94951 0.84967
 C297 C 0.91035 0.94136 0.82741
 H298 H 0.89526 0.94974 0.81882
 O299 O 1.08597 1.02315 0.88154
 O300 O 1.11363 1.02314 0.85372
 C301 C 1.09430 1.03126 0.86217
 C302 C 1.08164 1.05073 0.84971
 C303 C 1.08954 1.05888 0.82745
 H304 H 1.10462 1.05051 0.81883
 O305 O 0.97655 0.88163 0.91399
 O306 O 0.97648 0.85384 0.88630
 C307 C 0.96840 0.86228 0.90566
 C308 C 0.94896 0.84982 0.91835
 C309 C 0.94079 0.82756 0.91045
 H310 H 0.94914 0.81894 0.89536
 O311 O 1.02338 1.11854 0.91411
 O312 O 1.02345 1.14637 0.88647
 C313 C 1.03153 1.13790 0.90581
 C314 C 1.05099 1.15033 0.91852
 C315 C 1.05920 1.17259 0.91066
 H316 H 1.05087 1.18123 0.89556
 O317 O 0.88132 0.91424 0.97677
 O318 O 0.85346 0.88662 0.97671
 C319 C 0.86193 0.90596 0.96864
 C320 C 0.84949 0.91870 0.94921
 C321 C 0.82723 0.91084 0.94101
 H322 H 0.81860 0.89574 0.94932
 O323 O 1.11858 1.08578 0.97687
 O324 O 1.14644 1.11340 0.97686
 C325 C 1.13797 1.09408 0.96875
 C326 C 1.15042 1.08139 0.94930
 C327 C 1.17267 1.08928 0.94112
 H328 H 1.18129 1.10437 0.94948
 O329 O 1.02301 0.91416 0.88145
 O330 O 1.02298 0.88653 0.85360
 C331 C 1.03112 0.90585 0.86207
 C332 C 1.05059 0.91850 0.84962
 C333 C 1.05875 0.91060 0.82736
 H334 H 1.05036 0.89554 0.81873
 O335 O 0.97692 1.08606 0.88153
 O336 O 0.97693 1.11373 0.85372
 C337 C 0.96880 1.09440 0.86216
 C338 C 0.94932 1.08175 0.84972
 C339 C 0.94115 1.08965 0.82745
 H340 H 0.94952 1.10473 0.81883
 O341 O 0.88149 1.02348 0.91416
 O342 O 0.85366 1.02359 0.88651
 C343 C 0.86213 1.03166 0.90586
 C344 C 0.84971 1.05112 0.91857
 C345 C 0.82745 1.05933 0.91071
 H346 H 0.81880 1.05099 0.89563
 O347 O 1.11847 0.97667 0.91408
 O348 O 1.14629 0.97661 0.88643
 C349 C 1.13783 0.96851 0.90576
 C350 C 1.15024 0.94903 0.91844
 C351 C 1.17251 0.94084 0.91057
 H352 H 1.18116 0.94920 0.89550
 O353 O 1.08568 0.88133 0.97671
 O354 O 1.11328 0.85345 0.97666
 C355 C 1.09396 0.86195 0.96857
 C356 C 1.08124 0.84954 0.94910
 C357 C 1.08910 0.82728 0.94089
 H358 H 1.10418 0.81862 0.94922
 O359 O 0.91432 1.11870 0.97693
 O360 O 0.88671 1.14657 0.97693
 C361 C 0.90604 1.13809 0.96881
 C362 C 0.91873 1.15054 0.94936
 C363 C 0.91085 1.17280 0.94119
 H364 H 0.89577 1.18143 0.94955
 Cu365 Cu 1.09945 0.99991 0.90058
 Cu366 Cu 1.13275 0.99987 0.86729
 Cu367 Cu 0.90050 1.00026 0.90062
 Cu368 Cu 0.86719 1.00035 0.86734
 Cu369 Cu 1.09955 1.09931 1.00009
 Cu370 Cu 1.13289 1.13256 1.00011
 Cu371 Cu 1.09923 0.90034 0.99993
 Cu372 Cu 1.13246 0.86698 0.99989
 Cu373 Cu 0.90076 1.09966 1.00012
 Cu374 Cu 0.86754 1.13303 1.00015
 Cu375 Cu 0.90035 0.90067 0.99996
 Cu376 Cu 0.86701 0.86742 0.99993
 Cu377 Cu 1.00015 1.09953 0.90059
 Cu378 Cu 1.00020 1.13284 0.86731
 Cu379 Cu 0.99978 0.90066 0.90048
 Cu380 Cu 0.99972 0.86739 0.86715
 C381 C 1.06192 0.93797 0.86050
 H382 H 1.05595 0.94396 0.87781
 C383 C 1.07800 0.92185 0.81628
 C384 C 0.93801 1.06227 0.86060
 H385 H 0.94399 1.05628 0.87791
 C386 C 0.92190 1.07839 0.81638
 C387 C 0.93821 1.13965 0.93806
 H388 H 0.94419 1.12233 0.94404
 C389 C 0.92211 1.18387 0.92195
 C390 C 1.06176 0.86046 0.93784
 H391 H 1.05580 0.87777 0.94385
 C392 C 1.07780 0.81624 0.92165
 C393 C 1.13933 0.93773 0.93791
 H394 H 1.12202 0.94373 0.94388
 C395 C 1.18356 0.92159 0.92185
 C396 C 0.86063 1.06238 0.93806
 H397 H 0.87794 1.05637 0.94402
 C398 C 0.81641 1.07856 0.92203
 C399 C 1.06215 1.06205 0.86057
 H400 H 1.05615 1.05607 0.87788
 C401 C 1.07828 1.07812 0.81635
 C402 C 0.93778 0.93818 0.86051
 H403 H 0.94378 0.94415 0.87782
 C404 C 0.92160 0.92214 0.81630
 C405 C 1.13954 1.06189 0.93801
 H406 H 1.12223 1.05590 0.94400
 C407 C 1.18376 1.07800 0.92190
 C408 C 0.86038 0.93822 0.93796
 H409 H 0.87770 0.94417 0.94397
 C410 C 0.81616 0.92218 0.92180
 C411 C 1.06224 1.13943 0.93803
 H412 H 1.05623 1.12212 0.94400
 C413 C 1.07841 1.18365 0.92198
 C414 C 0.93767 0.86068 0.93786
 H415 H 0.94365 0.87799 0.94384
 C416 C 0.92158 0.81645 0.92175
 O417 O 1.08606 0.52290 0.61849
 O418 O 1.11372 0.52285 0.64629
 C419 C 1.09439 0.53099 0.63786
 C420 C 1.08175 0.55045 0.65035
 C421 C 1.08968 0.55859 0.67261
 H422 H 1.10476 0.55020 0.68121
 O423 O 0.91406 0.47685 0.61846
 O424 O 0.88641 0.47685 0.64628
 C425 C 0.90574 0.46872 0.63783
 C426 C 0.91840 0.44925 0.65026
 C427 C 0.91052 0.44107 0.67253
 H428 H 0.89544 0.44944 0.68116
 O429 O 1.02350 0.61839 0.58606
 O430 O 1.02359 0.64617 0.61375
 C431 C 1.03166 0.63774 0.59439
 C432 C 1.05112 0.65018 0.58170
 C433 C 1.05931 0.67244 0.58957
 H434 H 1.05097 0.68107 0.60467
 O435 O 0.97663 0.38143 0.58579
 O436 O 0.97656 0.35360 0.61343
 C437 C 0.96847 0.36207 0.59409
 C438 C 0.94901 0.34964 0.58140
 C439 C 0.94081 0.32739 0.58929
 H440 H 0.94917 0.31876 0.60437
 O441 O 1.11870 0.58569 0.52325
 O442 O 1.14657 0.61330 0.52329
 C443 C 1.13809 0.59396 0.53138
 C444 C 1.15053 0.58123 0.55080
 C445 C 1.17280 0.58909 0.55900
 H446 H 1.18143 0.60419 0.55068
 O447 O 0.88136 0.41420 0.52314
 O448 O 0.85349 0.38659 0.52316
 C449 C 0.86197 0.40591 0.53126
 C450 C 0.84954 0.41862 0.55072
 C451 C 0.82728 0.41075 0.55892
 H452 H 0.81864 0.39567 0.55058
 O453 O 0.97704 0.58587 0.61859
 O454 O 0.97707 0.61348 0.64645
 C455 C 0.96893 0.59417 0.63798
 C456 C 0.94946 0.58150 0.65041
 C457 C 0.94128 0.58939 0.67268
 H458 H 0.94965 0.60446 0.68131
 O459 O 1.02310 0.41390 0.61838
 O460 O 1.02308 0.38622 0.64618
 C461 C 1.03121 0.40556 0.63774
 C462 C 1.05067 0.41820 0.65022
 C463 C 1.05882 0.41028 0.67248
 H464 H 1.05043 0.39520 0.68108
 O465 O 1.11853 0.47647 0.58585
 O466 O 1.14636 0.47636 0.61350
 C467 C 1.13789 0.46830 0.59415
 C468 C 1.15031 0.44885 0.58143
 C469 C 1.17257 0.44064 0.58929
 H470 H 1.18122 0.44897 0.60437
 O471 O 0.88157 0.52334 0.58594
 O472 O 0.85376 0.52340 0.61360
 C473 C 0.86221 0.53150 0.59427
 C474 C 0.84980 0.55099 0.58160
 C475 C 0.82753 0.55918 0.58948
 H476 H 0.81889 0.55082 0.60454
 O477 O 0.91436 0.61870 0.52334
 O478 O 0.88676 0.64658 0.52340
 C479 C 0.90609 0.63808 0.53149
 C480 C 0.91880 0.65049 0.55095
 C481 C 0.91095 0.67275 0.55917
 H482 H 0.89586 0.68140 0.55084
 O483 O 1.08576 0.38126 0.52304
 O484 O 1.11337 0.35339 0.52303
 C485 C 1.09404 0.36187 0.53115
 C486 C 1.08134 0.34942 0.55059
 C487 C 1.08921 0.32716 0.55878
 H488 H 1.10430 0.31853 0.55044
 O489 O 0.91417 0.52325 0.61849
 O490 O 0.88651 0.52331 0.64631
 C491 C 0.90587 0.53137 0.63787
 C492 C 0.91860 0.55077 0.65035
 C493 C 0.91071 0.55894 0.67262
 H494 H 0.89559 0.55061 0.68121
 O495 O 1.08596 0.47650 0.61844
 O496 O 1.11363 0.47639 0.64625
 C497 C 1.09427 0.46834 0.63780
 C498 C 1.08153 0.44892 0.65025
 C499 C 1.08940 0.44072 0.67251
 H500 H 1.10451 0.44903 0.68113
 O501 O 1.02303 0.38136 0.58577
 O502 O 1.02302 0.35353 0.61341
 C503 C 1.03113 0.36197 0.59408
 C504 C 1.05055 0.34948 0.58138
 C505 C 1.05870 0.32722 0.58929
 H506 H 1.05034 0.31862 0.60439
 O507 O 0.97710 0.61848 0.58607
 O508 O 0.97713 0.64626 0.61377
 C509 C 0.96901 0.63786 0.59441
 C510 C 0.94959 0.65038 0.58174
 C511 C 0.94145 0.67264 0.58968
 H512 H 0.94982 0.68121 0.60479
 O513 O 0.88173 0.58619 0.52331
 O514 O 0.85397 0.61390 0.52338
 C515 C 0.86237 0.59453 0.53145
 C516 C 0.84988 0.58183 0.55086
 C517 C 0.82762 0.58974 0.55902
 H518 H 0.81904 0.60486 0.55068
 O519 O 1.11838 0.41378 0.52306
 O520 O 1.14615 0.38608 0.52305
 C521 C 1.13774 0.40543 0.53117
 C522 C 1.15023 0.41808 0.55061
 C523 C 1.17250 0.41016 0.55875
 H524 H 1.18109 0.39507 0.55037
 O525 O 0.97669 0.41400 0.61837
 O526 O 0.97662 0.38632 0.64617
 C527 C 0.96856 0.40569 0.63774
 C528 C 0.94915 0.41841 0.65021
 C529 C 0.94098 0.41051 0.67248
 H530 H 0.94931 0.39540 0.68107
 O531 O 1.02344 0.58577 0.61859
 O532 O 1.02354 0.61340 0.64644
 C533 C 1.03160 0.59405 0.63797
 C534 C 1.05102 0.58130 0.65040
 C535 C 1.05923 0.58916 0.67267
 H536 H 1.05092 0.60427 0.68130
 O537 O 0.88149 0.47694 0.58588
 O538 O 0.85369 0.47694 0.61355
 C539 C 0.86211 0.46883 0.59420
 C540 C 0.84961 0.44941 0.58151
 C541 C 0.82735 0.44127 0.58942
 H542 H 0.81876 0.44963 0.60453
 O543 O 1.11861 0.52287 0.58590
 O544 O 1.14644 0.52282 0.61355
 C545 C 1.13800 0.53095 0.59422
 C546 C 1.15049 0.55039 0.58155
 C547 C 1.17275 0.55853 0.58947
 H548 H 1.18135 0.55016 0.60456
 O549 O 0.91385 0.38155 0.52309
 O550 O 0.88615 0.35378 0.52311
 C551 C 0.90551 0.36219 0.53121
 C552 C 0.91819 0.34970 0.55064
 C553 C 0.91028 0.32744 0.55881
 H554 H 0.89516 0.31885 0.55047
 O555 O 1.08619 0.61832 0.52328
 O556 O 1.11390 0.64609 0.52333
 C557 C 1.09454 0.63768 0.53142
 C558 C 1.08188 0.65015 0.55088
 C559 C 1.08979 0.67241 0.55904
 H560 H 1.10488 0.68101 0.55067
 Cu561 Cu 1.09952 0.49969 0.59940
 Cu562 Cu 1.13283 0.49959 0.63268
 Cu563 Cu 0.90059 0.50009 0.59942
 Cu564 Cu 0.86730 0.50013 0.63272
 Cu565 Cu 1.00027 0.59936 0.59956
 Cu566 Cu 1.00034 0.63261 0.63290
 Cu567 Cu 0.99987 0.40045 0.59930
 Cu568 Cu 0.99981 0.36713 0.63258
 C569 C 1.06226 0.56178 0.63951
 H570 H 1.05625 0.55583 0.62220
 C571 C 1.07844 0.57782 0.68373
 C572 C 0.93788 0.43794 0.63937
 H573 H 0.94386 0.44392 0.62206
 C574 C 0.92179 0.42182 0.68359
 C575 C 1.06238 0.63929 0.56218
 H576 H 1.05638 0.62199 0.55621
 C577 C 1.07852 0.68351 0.57826
 C578 C 0.93772 0.36053 0.56191
 H579 H 0.94372 0.37784 0.55593
 C580 C 0.92158 0.31632 0.57801
 C581 C 1.13964 0.56172 0.56205
 H582 H 1.12233 0.55576 0.55605
 C583 C 1.18387 0.57776 0.57821
 C584 C 0.86045 0.43812 0.56199
 H585 H 0.87776 0.44408 0.55599
 C586 C 0.81622 0.42206 0.57815
 C587 C 0.93814 0.56203 0.63951
 H588 H 0.94412 0.55605 0.62220
 C589 C 0.92203 0.57812 0.68374
 C590 C 1.06201 0.43768 0.63936
 H591 H 1.05604 0.44369 0.62205
 C592 C 1.07806 0.42152 0.68359
 C593 C 1.13940 0.43759 0.56193
 H594 H 1.12209 0.44360 0.55598
 C595 C 1.18363 0.42142 0.57796
 C596 C 0.86071 0.56229 0.56213
 H597 H 0.87802 0.55629 0.55615
 C598 C 0.81648 0.57843 0.57820
 C599 C 0.93829 0.63957 0.56221
 H600 H 0.94425 0.62226 0.55620
 C601 C 0.92226 0.68378 0.57841
 C602 C 1.06184 0.36032 0.56187
 H603 H 1.05587 0.37763 0.55587
 C604 C 1.07791 0.31610 0.57801
 O605 O 1.08587 0.47673 0.38147
 O606 O 1.11352 0.47668 0.35365
 C607 C 1.09416 0.46861 0.36209
 C608 C 1.08144 0.44921 0.34960
 C609 C 1.08933 0.44104 0.32734
 H610 H 1.10444 0.44936 0.31875
 O611 O 0.91408 0.52347 0.38161
 O612 O 0.88641 0.52358 0.35380
 C613 C 0.90578 0.53162 0.36224
 C614 C 0.91851 0.55104 0.34978
 C615 C 0.91063 0.55922 0.32752
 H616 H 0.89552 0.55089 0.31891
 O617 O 0.97704 0.61864 0.41416
 O618 O 0.97705 0.64647 0.38651
 C619 C 0.96894 0.63803 0.40585
 C620 C 0.94953 0.65053 0.41856
 C621 C 0.94137 0.67279 0.41065
 H622 H 0.94971 0.68138 0.39554
 O623 O 1.02297 0.38152 0.41393
 O624 O 1.02293 0.35374 0.38623
 C625 C 1.03105 0.36215 0.40558
 C626 C 1.05048 0.34963 0.41825
 C627 C 1.05861 0.32737 0.41033
 H628 H 1.05023 0.31879 0.39522
 O629 O 1.11838 0.41381 0.47666
 O630 O 1.14615 0.38610 0.47659
 C631 C 1.13774 0.40547 0.46852
 C632 C 1.15022 0.41818 0.44910
 C633 C 1.17248 0.41028 0.44092
 H634 H 1.18108 0.39517 0.44925
 O635 O 0.88171 0.58624 0.47692
 O636 O 0.85395 0.61395 0.47692
 C637 C 0.86235 0.59460 0.46881
 C638 C 0.84984 0.58193 0.44938
 C639 C 0.82758 0.58986 0.44124
 H640 H 0.81900 0.60497 0.44961
 O641 O 1.02336 0.58600 0.38154
 O642 O 1.02343 0.61367 0.35374
 C643 C 1.03149 0.59431 0.36217
 C644 C 1.05090 0.58158 0.34970
 C645 C 1.05909 0.58946 0.32743
 H646 H 1.05077 0.60458 0.31882
 O647 O 0.97661 0.41422 0.38142
 O648 O 0.97651 0.38659 0.35357
 C649 C 0.96845 0.40594 0.36204
 C650 C 0.94902 0.41868 0.34961
 C651 C 0.94082 0.41083 0.32735
 H652 H 0.94913 0.39573 0.31871
 O653 O 1.11854 0.52305 0.41407
 O654 O 1.14634 0.52305 0.38640
 C655 C 1.13792 0.53114 0.40575
 C656 C 1.15042 0.55055 0.41845
 C657 C 1.17269 0.55870 0.41054
 H658 H 1.18127 0.55035 0.39543
 O659 O 0.88142 0.47709 0.41413
 O660 O 0.85359 0.47715 0.38648
 C661 C 0.86203 0.46901 0.40581
 C662 C 0.84954 0.44956 0.41847
 C663 C 0.82728 0.44142 0.41054
 H664 H 0.81868 0.44981 0.39545
 O665 O 1.08618 0.61836 0.47688
 O666 O 1.11389 0.64613 0.47687
 C667 C 1.09452 0.63773 0.46877
 C668 C 1.08185 0.65023 0.44934
 C669 C 1.08977 0.67249 0.44120
 H670 H 1.10488 0.68107 0.44957
 O671 O 0.91384 0.38161 0.47670
 O672 O 0.88614 0.35383 0.47665
 C673 C 0.90550 0.36226 0.46855
 C674 C 0.91817 0.34980 0.44910
 C675 C 0.91027 0.32754 0.44092
 H676 H 0.89518 0.31892 0.44927
 O677 O 0.91398 0.47707 0.38155
 O678 O 0.88631 0.47712 0.35374
 C679 C 0.90564 0.46898 0.36217
 C680 C 0.91829 0.44953 0.34968
 C681 C 0.91036 0.44140 0.32741
 H682 H 0.89527 0.44979 0.31882
 O683 O 1.08596 0.52313 0.38150
 O684 O 1.11361 0.52313 0.35368
 C685 C 1.09428 0.53126 0.36213
 C686 C 1.08163 0.55073 0.34968
 C687 C 1.08953 0.55889 0.32742
 H688 H 1.10460 0.55050 0.31880
 O689 O 0.97656 0.38160 0.41394
 O690 O 0.97647 0.35381 0.38625
 C691 C 0.96840 0.36225 0.40561
 C692 C 0.94895 0.34980 0.41830
 C693 C 0.94078 0.32754 0.41041
 H694 H 0.94913 0.31892 0.39531
 O695 O 1.02343 0.61854 0.41414
 O696 O 1.02351 0.64638 0.38651
 C697 C 1.03160 0.63790 0.40584
 C698 C 1.05106 0.65031 0.41854
 C699 C 1.05927 0.67258 0.41068
 H700 H 1.05093 0.68123 0.39560
 O701 O 0.88133 0.41423 0.47674
 O702 O 0.85346 0.38663 0.47669
 C703 C 0.86194 0.40596 0.46861
 C704 C 0.84950 0.41871 0.44919
 C705 C 0.82724 0.41084 0.44098
 H706 H 0.81861 0.39573 0.44929
 O707 O 1.11869 0.58574 0.47685
 O708 O 1.14656 0.61334 0.47683
 C709 C 1.13808 0.59402 0.46872
 C710 C 1.15050 0.58132 0.44926
 C711 C 1.17277 0.58919 0.44106
 H712 H 1.18141 0.60427 0.44941
 O713 O 1.02301 0.41412 0.38138
 O714 O 1.02298 0.38650 0.35353
 C715 C 1.03112 0.40581 0.36200
 C716 C 1.05058 0.41848 0.34955
 C717 C 1.05876 0.41058 0.32729
 H718 H 1.05039 0.39551 0.31866
 O719 O 0.97696 0.58608 0.38157
 O720 O 0.97697 0.61375 0.35377
 C721 C 0.96883 0.59442 0.36221
 C722 C 0.94936 0.58177 0.34976
 C723 C 0.94119 0.58967 0.32749
 H724 H 0.94957 0.60474 0.31887
 O725 O 0.88151 0.52350 0.41418
 O726 O 0.85368 0.52362 0.38653
 C727 C 0.86215 0.53168 0.40588
 C728 C 0.84974 0.55114 0.41859
 C729 C 0.82748 0.55936 0.41073
 H730 H 0.81883 0.55102 0.39565
 O731 O 1.11846 0.47664 0.41402
 O732 O 1.14627 0.47659 0.38636
 C733 C 1.13781 0.46849 0.40570
 C734 C 1.15025 0.44902 0.41836
 C735 C 1.17251 0.44085 0.41047
 H736 H 1.18114 0.44922 0.39540
 O737 O 1.08573 0.38132 0.47663
 O738 O 1.11334 0.35345 0.47657
 C739 C 1.09401 0.36194 0.46848
 C740 C 1.08128 0.34953 0.44903
 C741 C 1.08913 0.32726 0.44082
 H742 H 1.10421 0.31861 0.44915
 O743 O 0.91434 0.61875 0.47693
 O744 O 0.88674 0.64662 0.47693
 C745 C 0.90606 0.63814 0.46882
 C746 C 0.91876 0.65058 0.44937
 C747 C 0.91088 0.67285 0.44117
 H748 H 0.89579 0.68148 0.44952
 Cu749 Cu 1.09944 0.49989 0.40054
 Cu750 Cu 1.13272 0.49986 0.36723
 Cu751 Cu 0.90052 0.50027 0.40064
 Cu752 Cu 0.86721 0.50038 0.36735
 Cu753 Cu 1.09966 0.59926 0.50006
 Cu754 Cu 1.13302 0.63250 0.50008
 Cu755 Cu 1.09930 0.40032 0.49985
 Cu756 Cu 1.13253 0.36696 0.49981
 Cu757 Cu 0.90081 0.59970 0.50012
 Cu758 Cu 0.86757 0.63306 0.50016
 Cu759 Cu 0.90037 0.40066 0.49992
 Cu760 Cu 0.86702 0.36743 0.49990
 Cu761 Cu 1.00019 0.59954 0.40062
 Cu762 Cu 1.00024 0.63286 0.36734
 Cu763 Cu 0.99979 0.40063 0.40044
 Cu764 Cu 0.99972 0.36738 0.36710
 C765 C 1.06190 0.43795 0.36045
 H766 H 1.05592 0.44393 0.37776
 C767 C 1.07801 0.42185 0.31622
 C768 C 0.93804 0.56229 0.36064
 H769 H 0.94401 0.55630 0.37795
 C770 C 0.92195 0.57841 0.31641
 C771 C 0.93825 0.63969 0.43808
 H772 H 0.94422 0.62238 0.44408
 C773 C 0.92217 0.68391 0.42194
 C774 C 1.06179 0.36045 0.43777
 H775 H 1.05584 0.37777 0.44378
 C776 C 1.07781 0.31622 0.42159
 C777 C 1.13937 0.43771 0.43784
 H778 H 1.12206 0.44369 0.44383
 C779 C 1.18359 0.42160 0.42173
 C780 C 0.86066 0.56241 0.43808
 H781 H 0.87797 0.55640 0.44403
 C782 C 0.81644 0.57859 0.42204
 C783 C 1.06215 0.56205 0.36056
 H784 H 1.05616 0.55608 0.37787
 C785 C 1.07828 0.57813 0.31633
 C786 C 0.93778 0.43820 0.36051
 H787 H 0.94379 0.44415 0.37783
 C788 C 0.92161 0.42217 0.31629
 C789 C 1.13960 0.56184 0.43798
 H790 H 1.12228 0.55588 0.44397
 C791 C 1.18382 0.57790 0.42183
 C792 C 0.86039 0.43823 0.43796
 H793 H 0.87770 0.44419 0.44396
 C794 C 0.81617 0.42219 0.42178
 C795 C 1.06233 0.63940 0.43804
 H796 H 1.05633 0.62209 0.44400
 C797 C 1.07850 0.68363 0.42200
 C798 C 0.93768 0.36066 0.43781
 H799 H 0.94367 0.37797 0.44379
 C800 C 0.92156 0.31645 0.42170
 O801 O 0.58602 1.02291 0.61852
 O802 O 0.61369 1.02285 0.64632
 C803 C 0.59436 1.03100 0.63789
 C804 C 0.58172 1.05046 0.65038
 C805 C 0.58964 1.05859 0.67264
 H806 H 0.60473 1.05020 0.68124
 O807 O 0.41402 0.97692 0.61853
 O808 O 0.38636 0.97694 0.64634
 C809 C 0.40568 0.96880 0.63789
 C810 C 0.41833 0.94933 0.65035
 C811 C 0.41042 0.94117 0.67261
 H812 H 0.39535 0.94955 0.68122
 O813 O 0.52346 1.11838 0.58609
 O814 O 0.52357 1.14618 0.61376
 C815 C 0.53163 1.13774 0.59440
 C816 C 0.55108 1.15017 0.58169
 C817 C 0.55928 1.17243 0.58956
 H818 H 0.55096 1.18106 0.60466
 O819 O 0.47652 0.88150 0.58589
 O820 O 0.47643 0.85366 0.61353
 C821 C 0.46835 0.86214 0.59419
 C822 C 0.44889 0.84973 0.58149
 C823 C 0.44068 0.82746 0.58935
 H824 H 0.44903 0.81881 0.60442
 O825 O 0.61861 1.08565 0.52323
 O826 O 0.64648 1.11325 0.52327
 C827 C 0.63800 1.09392 0.53135
 C828 C 0.65045 1.08120 0.55079
 C829 C 0.67271 1.08908 0.55897
 H830 H 0.68133 1.10418 0.55064
 O831 O 0.38127 0.91432 0.52319
 O832 O 0.35339 0.88672 0.52321
 C833 C 0.36188 0.90604 0.53132
 C834 C 0.34946 0.91874 0.55077
 C835 C 0.32719 0.91088 0.55897
 H836 H 0.31855 0.89580 0.55063
 O837 O 0.47701 1.08590 0.61865
 O838 O 0.47705 1.11353 0.64650
 C839 C 0.46890 1.09422 0.63803
 C840 C 0.44943 1.08156 0.65048
 C841 C 0.44125 1.08946 0.67274
 H842 H 0.44963 1.10453 0.68137
 O843 O 0.52301 0.91394 0.61847
 O844 O 0.52298 0.88627 0.64627
 C845 C 0.53112 0.90560 0.63783
 C846 C 0.55060 0.91824 0.65029
 C847 C 0.55875 0.91032 0.67255
 H848 H 0.55035 0.89525 0.68117
 O849 O 0.61847 0.97646 0.58589
 O850 O 0.64631 0.97635 0.61353
 C851 C 0.63783 0.96829 0.59419
 C852 C 0.65024 0.94883 0.58147
 C853 C 0.67250 0.94061 0.58932
 H854 H 0.68116 0.94894 0.60441
 O855 O 0.38155 1.02342 0.58599
 O856 O 0.35373 1.02350 0.61364
 C857 C 0.36220 1.03158 0.59431
 C858 C 0.34979 1.05106 0.58162
 C859 C 0.32752 1.05926 0.58949
 H860 H 0.31887 1.05090 0.60456
 O861 O 0.41437 1.11871 0.52332
 O862 O 0.38677 1.14659 0.52338
 C863 C 0.40610 1.13809 0.53147
 C864 C 0.41881 1.15050 0.55093
 C865 C 0.41096 1.17276 0.55914
 H866 H 0.39589 1.18143 0.55080
 O867 O 0.58562 0.88126 0.52312
 O868 O 0.61322 0.85338 0.52312
 C869 C 0.59390 0.86186 0.53123
 C870 C 0.58120 0.84943 0.55068
 C871 C 0.58907 0.82717 0.55888
 H872 H 0.60416 0.81853 0.55054
 O873 O 0.41412 1.02332 0.61856
 O874 O 0.38646 1.02340 0.64638
 C875 C 0.40583 1.03145 0.63794
 C876 C 0.41856 1.05085 0.65042
 C877 C 0.41067 1.05902 0.67268
 H878 H 0.39555 1.05070 0.68128
 O879 O 0.58592 0.97651 0.61848
 O880 O 0.61359 0.97639 0.64628
 C881 C 0.59422 0.96835 0.63784
 C882 C 0.58148 0.94893 0.65030
 C883 C 0.58935 0.94073 0.67256
 H884 H 0.60447 0.94904 0.68118
 O885 O 0.52292 0.88139 0.58589
 O886 O 0.52290 0.85355 0.61353
 C887 C 0.53101 0.86199 0.59419
 C888 C 0.55042 0.84950 0.58149
 C889 C 0.55858 0.82723 0.58940
 H890 H 0.55023 0.81865 0.60451
 O891 O 0.47707 1.11848 0.58609
 O892 O 0.47712 1.14627 0.61377
 C893 C 0.46899 1.13786 0.59442
 C894 C 0.44958 1.15038 0.58174
 C895 C 0.44145 1.17265 0.58966
 H896 H 0.44981 1.18122 0.60478
 O897 O 0.38173 1.08621 0.52330
 O898 O 0.35397 1.11393 0.52336
 C899 C 0.36237 1.09456 0.53143
 C900 C 0.34988 1.08187 0.55085
 C901 C 0.32761 1.08979 0.55900
 H902 H 0.31903 1.10490 0.55064
 O903 O 0.61827 0.91375 0.52312
 O904 O 0.64603 0.88603 0.52312
 C905 C 0.63763 0.90539 0.53123
 C906 C 0.65014 0.91805 0.55067
 C907 C 0.67240 0.91011 0.55880
 H908 H 0.68098 0.89501 0.55043
 O909 O 0.47660 0.91404 0.61850
 O910 O 0.47651 0.88636 0.64630
 C911 C 0.46846 0.90573 0.63786
 C912 C 0.44905 0.91846 0.65033
 C913 C 0.44086 0.91058 0.67260
 H914 H 0.44917 0.89546 0.68121
 O915 O 0.52341 1.08578 0.61862
 O916 O 0.52352 1.11342 0.64646
 C917 C 0.53157 1.09406 0.63800
 C918 C 0.55099 1.08132 0.65043
 C919 C 0.55920 1.08917 0.67270
 H920 H 0.55089 1.10428 0.68133
 O921 O 0.38144 0.97701 0.58596
 O922 O 0.35362 0.97704 0.61362
 C923 C 0.36205 0.96893 0.59427
 C924 C 0.34954 0.94952 0.58158
 C925 C 0.32728 0.94138 0.58949
 H926 H 0.31870 0.94973 0.60460
 O927 O 0.61857 1.02287 0.58593
 O928 O 0.64640 1.02282 0.61357
 C929 C 0.63796 1.03095 0.59424
 C930 C 0.65043 1.05039 0.58156
 C931 C 0.67270 1.05856 0.58947
 H932 H 0.68130 1.05021 0.60456
 O933 O 0.41377 0.88168 0.52316
 O934 O 0.38606 0.85392 0.52318
 C935 C 0.40542 0.86232 0.53128
 C936 C 0.41809 0.84982 0.55070
 C937 C 0.41018 0.82755 0.55884
 H938 H 0.39507 0.81897 0.55047
 O939 O 0.58611 1.11830 0.52326
 O940 O 0.61383 1.14606 0.52329
 C941 C 0.59447 1.13765 0.53139
 C942 C 0.58182 1.15013 0.55085
 C943 C 0.58974 1.17239 0.55900
 H944 H 0.60482 1.18099 0.55061
 Cu945 Cu 0.59947 0.99969 0.59943
 Cu946 Cu 0.63279 0.99959 0.63271
 Cu947 Cu 0.40055 1.00016 0.59949
 Cu948 Cu 0.36726 1.00022 0.63278
 Cu949 Cu 0.50023 1.09936 0.59959
 Cu950 Cu 0.50032 1.13264 0.63291
 Cu951 Cu 0.49977 0.90049 0.59942
 Cu952 Cu 0.49970 0.86717 0.63269
 C953 C 0.56223 1.06179 0.63954
 H954 H 0.55622 1.05584 0.62223
 C955 C 0.57840 1.07782 0.68376
 C956 C 0.43781 0.93800 0.63947
 H957 H 0.44380 0.94397 0.62216
 C958 C 0.42167 0.92192 0.68369
 C959 C 0.56232 1.13928 0.56217
 H960 H 0.55632 1.12197 0.55621
 C961 C 0.57849 1.18350 0.57822
 C962 C 0.43761 0.86064 0.56200
 H963 H 0.44362 0.87795 0.55605
 C964 C 0.42145 0.81641 0.57803
 C965 C 0.63958 1.06169 0.56205
 H966 H 0.62227 1.05572 0.55606
 C967 C 0.68379 1.07779 0.57819
 C968 C 0.36037 0.93823 0.56205
 H969 H 0.37768 0.94419 0.55605
 C970 C 0.31614 0.92218 0.57821
 C971 C 0.43810 1.06209 0.63958
 H972 H 0.44409 1.05611 0.62227
 C973 C 0.42200 1.07820 0.68380
 C974 C 0.56194 0.93771 0.63943
 H975 H 0.55598 0.94371 0.62212
 C976 C 0.57800 0.92155 0.68365
 C977 C 0.63932 0.93757 0.56198
 H978 H 0.62201 0.94358 0.55602
 C979 C 0.68354 0.92138 0.57801
 C980 C 0.36070 1.06234 0.56214
 H981 H 0.37801 1.05634 0.55618
 C982 C 0.31647 1.07850 0.57819
 C983 C 0.43829 1.13957 0.56221
 H984 H 0.44424 1.12226 0.55620
 C985 C 0.42227 1.18380 0.57838
 C986 C 0.56171 0.86033 0.56197
 H987 H 0.55574 0.87764 0.55597
 C988 C 0.57778 0.81611 0.57811
 O989 O 0.58582 0.97667 0.38145
 O990 O 0.61348 0.97658 0.35363
 C991 C 0.59412 0.96853 0.36208
 C992 C 0.58138 0.94912 0.34961
 C993 C 0.58926 0.94092 0.32735
 H994 H 0.60438 0.94923 0.31874
 O995 O 0.41406 1.02347 0.38153
 O996 O 0.38638 1.02358 0.35373
 C997 C 0.40575 1.03163 0.36217
 C998 C 0.41848 1.05104 0.34970
 C999 C 0.41059 1.05923 0.32744
 H1000 H 0.39547 1.05090 0.31884
 O1001 O 0.47701 1.11862 0.41408
 O1002 O 0.47703 1.14645 0.38644
 C1003 C 0.46892 1.13801 0.40578
 C1004 C 0.44951 1.15051 0.41849
 C1005 C 0.44134 1.17277 0.41060
 H1006 H 0.44967 1.18136 0.39548
 O1007 O 0.52287 0.88148 0.41398
 O1008 O 0.52283 0.85368 0.38630
 C1009 C 0.53095 0.86209 0.40565
 C1010 C 0.55037 0.84958 0.41832
 C1011 C 0.55851 0.82732 0.41039
 H1012 H 0.55015 0.81875 0.39528
 O1013 O 0.61824 0.91379 0.47672
 O1014 O 0.64600 0.88607 0.47667
 C1015 C 0.63760 0.90544 0.46859
 C1016 C 0.65009 0.91812 0.44916
 C1017 C 0.67235 0.91021 0.44101
 H1018 H 0.68094 0.89510 0.44937
 O1019 O 0.38171 1.08624 0.47691
 O1020 O 0.35396 1.11396 0.47691
 C1021 C 0.36235 1.09460 0.46880
 C1022 C 0.34985 1.08194 0.44936
 C1023 C 0.32758 1.08987 0.44123
 H1024 H 0.31900 1.10497 0.44961
 O1025 O 0.52333 1.08596 0.38149
 O1026 O 0.52342 1.11363 0.35368
 C1027 C 0.53148 1.09426 0.36212
 C1028 C 0.55089 1.08153 0.34966
 C1029 C 0.55909 1.08941 0.32740
 H1030 H 0.55078 1.10452 0.31878
 O1031 O 0.47653 0.91418 0.38145
 O1032 O 0.47642 0.88654 0.35361
 C1033 C 0.46838 0.90589 0.36207
 C1034 C 0.44896 0.91864 0.34963
 C1035 C 0.44075 0.91078 0.32737
 H1036 H 0.44906 0.89567 0.31874
 O1037 O 0.61850 1.02298 0.41404
 O1038 O 0.64632 1.02297 0.38638
 C1039 C 0.63789 1.03107 0.40573
 C1040 C 0.65037 1.05049 0.41843
 C1041 C 0.67264 1.05866 0.41053
 H1042 H 0.68124 1.05032 0.39542
 O1043 O 0.38140 0.97713 0.41410
 O1044 O 0.35356 0.97719 0.38645
 C1045 C 0.36200 0.96906 0.40579
 C1046 C 0.34950 0.94963 0.41846
 C1047 C 0.32724 0.94149 0.41055
 H1048 H 0.31865 0.94987 0.39545
 O1049 O 0.58610 1.11833 0.47685
 O1050 O 0.61382 1.14609 0.47684
 C1051 C 0.59446 1.13769 0.46874
 C1052 C 0.58180 1.15020 0.44930
 C1053 C 0.58973 1.17246 0.44116
 H1054 H 0.60483 1.18104 0.44954
 O1055 O 0.41376 0.88170 0.47676
 O1056 O 0.38604 0.85394 0.47672
 C1057 C 0.40540 0.86235 0.46863
 C1058 C 0.41807 0.84987 0.44918
 C1059 C 0.41015 0.82761 0.44103
 H1060 H 0.39505 0.81901 0.44940
 O1061 O 0.41396 0.97707 0.38151
 O1062 O 0.38628 0.97713 0.35371
 C1063 C 0.40561 0.96898 0.36214
 C1064 C 0.41825 0.94951 0.34966
 C1065 C 0.41032 0.94137 0.32740
 H1066 H 0.39524 0.94976 0.31880
 O1067 O 0.58592 1.02307 0.38148
 O1068 O 0.61358 1.02304 0.35366
 C1069 C 0.59425 1.03118 0.36211
 C1070 C 0.58161 1.05066 0.34965
 C1071 C 0.58952 1.05882 0.32739
 H1072 H 0.60459 1.05043 0.31878
 O1073 O 0.47647 0.88159 0.41400
 O1074 O 0.47637 0.85379 0.38633
 C1075 C 0.46830 0.86224 0.40568
 C1076 C 0.44884 0.84981 0.41838
 C1077 C 0.44064 0.82755 0.41051
 H1078 H 0.44898 0.81891 0.39542
 O1079 O 0.52340 1.11851 0.41407
 O1080 O 0.52349 1.14635 0.38644
 C1081 C 0.53157 1.13787 0.40577
 C1082 C 0.55103 1.15029 0.41849
 C1083 C 0.55925 1.17255 0.41063
 H1084 H 0.55092 1.18119 0.39554
 O1085 O 0.38126 0.91435 0.47679
 O1086 O 0.35338 0.88675 0.47675
 C1087 C 0.36187 0.90608 0.46866
 C1088 C 0.34944 0.91881 0.44923
 C1089 C 0.32717 0.91096 0.44103
 H1090 H 0.31853 0.89586 0.44935
 O1091 O 0.61859 1.08568 0.47682
 O1092 O 0.64647 1.11328 0.47681
 C1093 C 0.63798 1.09396 0.46870
 C1094 C 0.65041 1.08126 0.44925
 C1095 C 0.67268 1.08914 0.44107
 H1096 H 0.68131 1.10422 0.44942
 O1097 O 0.52294 0.91408 0.38144
 O1098 O 0.52289 0.88644 0.35360
 C1099 C 0.53104 0.90576 0.36206
 C1100 C 0.55051 0.91841 0.34960
 C1101 C 0.55867 0.91049 0.32734
 H1102 H 0.55028 0.89542 0.31873
 O1103 O 0.47693 1.08607 0.38149
 O1104 O 0.47695 1.11374 0.35368
 C1105 C 0.46882 1.09441 0.36212
 C1106 C 0.44934 1.08176 0.34967
 C1107 C 0.44116 1.08967 0.32741
 H1108 H 0.44954 1.10475 0.31879
 O1109 O 0.38152 1.02353 0.41413
 O1110 O 0.35368 1.02365 0.38649
 C1111 C 0.36216 1.03171 0.40584
 C1112 C 0.34975 1.05117 0.41855
 C1113 C 0.32748 1.05938 0.41070
 H1114 H 0.31883 1.05105 0.39562
 O1115 O 0.61839 0.97658 0.41402
 O1116 O 0.64622 0.97650 0.38637
 C1117 C 0.63775 0.96841 0.40571
 C1118 C 0.65017 0.94894 0.41840
 C1119 C 0.67243 0.94074 0.41053
 H1120 H 0.68108 0.94910 0.39545
 O1121 O 0.58561 0.88128 0.47671
 O1122 O 0.61321 0.85340 0.47665
 C1123 C 0.59389 0.86189 0.46856
 C1124 C 0.58117 0.84948 0.44911
 C1125 C 0.58903 0.82722 0.44089
 H1126 H 0.60411 0.81857 0.44922
 O1127 O 0.41436 1.11873 0.47691
 O1128 O 0.38677 1.14661 0.47691
 C1129 C 0.40608 1.13812 0.46880
 C1130 C 0.41878 1.15056 0.44934
 C1131 C 0.41089 1.17282 0.44116
 H1132 H 0.39581 1.18145 0.44952
 Cu1133 Cu 0.59939 0.99983 0.40052
 Cu1134 Cu 0.63269 0.99977 0.36722
 Cu1135 Cu 0.40051 1.00030 0.40059
 Cu1136 Cu 0.36719 1.00039 0.36731
 Cu1137 Cu 0.59957 1.09923 0.50004
 Cu1138 Cu 0.63294 1.13245 0.50005
 Cu1139 Cu 0.59917 0.90029 0.49992
 Cu1140 Cu 0.63240 0.86692 0.49989
 Cu1141 Cu 0.40081 1.09970 0.50011
 Cu1142 Cu 0.36759 1.13307 0.50014
 Cu1143 Cu 0.40029 0.90078 0.49998
 Cu1144 Cu 0.36692 0.86755 0.49996
 Cu1145 Cu 0.50016 1.09952 0.40055
 Cu1146 Cu 0.50023 1.13283 0.36727
 Cu1147 Cu 0.49971 0.90060 0.40049
 Cu1148 Cu 0.49962 0.86733 0.36717
 C1149 C 0.56184 0.93788 0.36047
 H1150 H 0.55587 0.94388 0.37778
 C1151 C 0.57791 0.92173 0.31625
 C1152 C 0.43802 1.06228 0.36055
 H1153 H 0.44400 1.05629 0.37786
 C1154 C 0.42191 1.07842 0.31634
 C1155 C 0.43825 1.13966 0.43803
 H1156 H 0.44423 1.12235 0.44402
 C1157 C 0.42215 1.18389 0.42191
 C1158 C 0.56167 0.86040 0.43785
 H1159 H 0.55572 0.87771 0.44386
 C1160 C 0.57771 0.81618 0.42166
 C1161 C 0.63926 0.93765 0.43788
 H1162 H 0.62195 0.94365 0.44384
 C1163 C 0.68349 0.92150 0.42182
 C1164 C 0.36067 1.06243 0.43805
 H1165 H 0.37798 1.05642 0.44400
 C1166 C 0.31644 1.07860 0.42203
 C1167 C 0.56213 1.06199 0.36052
 H1168 H 0.55613 1.05602 0.37783
 C1169 C 0.57828 1.07807 0.31630
 C1170 C 0.43773 0.93817 0.36051
 H1171 H 0.44374 0.94413 0.37782
 C1172 C 0.42155 0.92213 0.31629
 C1173 C 0.63953 1.06177 0.43795
 H1174 H 0.62222 1.05580 0.44394
 C1175 C 0.68375 1.07786 0.42183
 C1176 C 0.36034 0.93831 0.43797
 H1177 H 0.37765 0.94427 0.44397
 C1178 C 0.31611 0.92228 0.42181
 C1179 C 0.56228 1.13938 0.43799
 H1180 H 0.55627 1.12207 0.44395
 C1181 C 0.57847 1.18359 0.42195
 C1182 C 0.43758 0.86071 0.43788
 H1183 H 0.44358 0.87802 0.44385
 C1184 C 0.42142 0.81648 0.42182
 O1185 O 0.47663 0.41426 0.88139
 O1186 O 0.47653 0.38663 0.85355
 C1187 C 0.46847 0.40598 0.86202
 C1188 C 0.44904 0.41872 0.84958
 C1189 C 0.44084 0.41086 0.82732
 H1190 H 0.44916 0.39576 0.81868
 O1191 O 0.52337 0.58600 0.88152
 O1192 O 0.52344 0.61368 0.85373
 C1193 C 0.53151 0.59431 0.86215
 C1194 C 0.55092 0.58159 0.84968
 C1195 C 0.55910 0.58947 0.82741
 H1196 H 0.55078 0.60459 0.81881
 O1197 O 0.38142 0.47713 0.91407
 O1198 O 0.35360 0.47718 0.88642
 C1199 C 0.36203 0.46904 0.90575
 C1200 C 0.34955 0.44960 0.91842
 C1201 C 0.32729 0.44145 0.91049
 H1202 H 0.31869 0.44982 0.89540
 O1203 O 0.61859 0.52306 0.91401
 O1204 O 0.64640 0.52307 0.88634
 C1205 C 0.63797 0.53116 0.90570
 C1206 C 0.65046 0.55058 0.91840
 C1207 C 0.67272 0.55875 0.91050
 H1208 H 0.68132 0.55042 0.89539
 O1209 O 0.41386 0.38169 0.97669
 O1210 O 0.38616 0.35391 0.97664
 C1211 C 0.40551 0.36233 0.96855
 C1212 C 0.41819 0.34987 0.94910
 C1213 C 0.41029 0.32761 0.94093
 H1214 H 0.39520 0.31899 0.94928
 O1215 O 0.58617 0.61835 0.97686
 O1216 O 0.61387 0.64612 0.97686
 C1217 C 0.59451 0.63772 0.96876
 C1218 C 0.58184 0.65022 0.94933
 C1219 C 0.58976 0.67249 0.94120
 H1220 H 0.60486 0.68107 0.94957
 O1221 O 0.41407 0.52350 0.88153
 O1222 O 0.38640 0.52361 0.85372
 C1223 C 0.40577 0.53166 0.86217
 C1224 C 0.41850 0.55107 0.84971
 C1225 C 0.41064 0.55927 0.82745
 H1226 H 0.39553 0.55096 0.81883
 O1227 O 0.58593 0.47675 0.88141
 O1228 O 0.61358 0.47669 0.85358
 C1229 C 0.59422 0.46862 0.86203
 C1230 C 0.58148 0.44922 0.84955
 C1231 C 0.58936 0.44102 0.82729
 H1232 H 0.60448 0.44933 0.81868
 O1233 O 0.52299 0.38157 0.91391
 O1234 O 0.52295 0.35378 0.88623
 C1235 C 0.53107 0.36219 0.90558
 C1236 C 0.55049 0.34968 0.91825
 C1237 C 0.55862 0.32741 0.91032
 H1238 H 0.55025 0.31883 0.89522
 O1239 O 0.47704 0.61862 0.91414
 O1240 O 0.47705 0.64646 0.88651
 C1241 C 0.46894 0.63801 0.90585
 C1242 C 0.44953 0.65050 0.91855
 C1243 C 0.44137 0.67276 0.91065
 H1244 H 0.44971 0.68135 0.89554
 O1245 O 0.38169 0.58622 0.97690
 O1246 O 0.35393 0.61394 0.97691
 C1247 C 0.36233 0.59458 0.96880
 C1248 C 0.34983 0.58193 0.94935
 C1249 C 0.32757 0.58986 0.94122
 H1250 H 0.31899 0.60496 0.94959
 O1251 O 0.61841 0.41385 0.97665
 O1252 O 0.64617 0.38613 0.97658
 C1253 C 0.63776 0.40551 0.96851
 C1254 C 0.65024 0.41820 0.94908
 C1255 C 0.67251 0.41030 0.94091
 H1256 H 0.68111 0.39519 0.94924
 O1257 O 0.47697 0.58607 0.88155
 O1258 O 0.47698 0.61375 0.85375
 C1259 C 0.46885 0.59442 0.86219
 C1260 C 0.44938 0.58178 0.84972
 C1261 C 0.44123 0.58969 0.82746
 H1262 H 0.44963 0.60476 0.81884
 O1263 O 0.52304 0.41417 0.88137
 O1264 O 0.52299 0.38654 0.85353
 C1265 C 0.53114 0.40586 0.86199
 C1266 C 0.55061 0.41851 0.84954
 C1267 C 0.55876 0.41060 0.82728
 H1268 H 0.55037 0.39553 0.81866
 O1269 O 0.61849 0.47666 0.91399
 O1270 O 0.64630 0.47661 0.88633
 C1271 C 0.63785 0.46851 0.90566
 C1272 C 0.65028 0.44904 0.91834
 C1273 C 0.67254 0.44086 0.91045
 H1274 H 0.68117 0.44923 0.89537
 O1275 O 0.38151 0.52353 0.91412
 O1276 O 0.35368 0.52365 0.88648
 C1277 C 0.36215 0.53171 0.90582
 C1278 C 0.34974 0.55116 0.91854
 C1279 C 0.32748 0.55938 0.91068
 H1280 H 0.31883 0.55105 0.89560
 O1281 O 0.41433 0.61872 0.97692
 O1282 O 0.38673 0.64660 0.97693
 C1283 C 0.40605 0.63812 0.96881
 C1284 C 0.41875 0.65056 0.94936
 C1285 C 0.41088 0.67282 0.94117
 H1286 H 0.39579 0.68145 0.94952
 O1287 O 0.58576 0.38136 0.97663
 O1288 O 0.61335 0.35348 0.97656
 C1289 C 0.59402 0.36198 0.96848
 C1290 C 0.58130 0.34957 0.94903
 C1291 C 0.58914 0.32730 0.94082
 H1292 H 0.60422 0.31865 0.94915
 O1293 O 0.58599 0.52314 0.88147
 O1294 O 0.61364 0.52314 0.85364
 C1295 C 0.59431 0.53127 0.86210
 C1296 C 0.58165 0.55074 0.84966
 C1297 C 0.58955 0.55890 0.82739
 H1298 H 0.60462 0.55052 0.81877
 O1299 O 0.41399 0.47710 0.88150
 O1300 O 0.38632 0.47715 0.85369
 C1301 C 0.40565 0.46901 0.86212
 C1302 C 0.41830 0.44956 0.84964
 C1303 C 0.41038 0.44142 0.82737
 H1304 H 0.39530 0.44980 0.81878
 O1305 O 0.52343 0.61853 0.91413
 O1306 O 0.52351 0.64638 0.88650
 C1307 C 0.53159 0.63790 0.90583
 C1308 C 0.55105 0.65031 0.91854
 C1309 C 0.55925 0.67258 0.91069
 H1310 H 0.55091 0.68123 0.89561
 O1311 O 0.47659 0.38166 0.91394
 O1312 O 0.47649 0.35387 0.88626
 C1313 C 0.46842 0.36231 0.90561
 C1314 C 0.44898 0.34986 0.91831
 C1315 C 0.44080 0.32760 0.91042
 H1316 H 0.44915 0.31898 0.89533
 O1317 O 0.61868 0.58572 0.97682
 O1318 O 0.64654 0.61333 0.97681
 C1319 C 0.63806 0.59401 0.96870
 C1320 C 0.65050 0.58133 0.94924
 C1321 C 0.67276 0.58921 0.94106
 H1322 H 0.68139 0.60429 0.94942
 O1323 O 0.38133 0.41431 0.97673
 O1324 O 0.35348 0.38669 0.97667
 C1325 C 0.36195 0.40603 0.96859
 C1326 C 0.34951 0.41876 0.94916
 C1327 C 0.32725 0.41089 0.94096
 H1328 H 0.31862 0.39578 0.94927
 Cu1329 Cu 0.49982 0.40069 0.90043
 Cu1330 Cu 0.49973 0.36742 0.86710
 Cu1331 Cu 0.50020 0.59953 0.90060
 Cu1332 Cu 0.50025 0.63286 0.86734
 Cu1333 Cu 0.40052 0.50031 0.90058
 Cu1334 Cu 0.36721 0.50041 0.86729
 Cu1335 Cu 0.59948 0.49990 0.90049
 Cu1336 Cu 0.63277 0.49987 0.86719
 C1337 C 0.43780 0.43823 0.86048
 H1338 H 0.44381 0.44419 0.87779
 C1339 C 0.42163 0.42220 0.81625
 C1340 C 0.56217 0.56206 0.86054
 H1341 H 0.55619 0.55608 0.87785
 C1342 C 0.57829 0.57814 0.81631
 C1343 C 0.36039 0.43828 0.93792
 H1344 H 0.37770 0.44424 0.94392
 C1345 C 0.31618 0.42222 0.92174
 C1346 C 0.63961 0.56184 0.93793
 H1347 H 0.62230 0.55586 0.94392
 C1348 C 0.68383 0.57794 0.92182
 C1349 C 0.43770 0.36073 0.93781
 H1350 H 0.44369 0.37804 0.94379
 C1351 C 0.42159 0.31651 0.92171
 C1352 C 0.56232 0.63940 0.93803
 H1353 H 0.55632 0.62209 0.94398
 C1354 C 0.57848 0.68363 0.92200
 C1355 C 0.43804 0.56230 0.86059
 H1356 H 0.44400 0.55631 0.87790
 C1357 C 0.42199 0.57845 0.81636
 C1358 C 0.56194 0.43798 0.86041
 H1359 H 0.55597 0.44398 0.87772
 C1360 C 0.57802 0.42184 0.81619
 C1361 C 0.56181 0.36050 0.93776
 H1362 H 0.55586 0.37781 0.94377
 C1363 C 0.57782 0.31626 0.92159
 C1364 C 0.43824 0.63966 0.93807
 H1365 H 0.44421 0.62235 0.94407
 C1366 C 0.42217 0.68388 0.92194
 C1367 C 0.36065 0.56242 0.93804
 H1368 H 0.37796 0.55640 0.94400
 C1369 C 0.31643 0.57860 0.92201
 C1370 C 0.63939 0.43773 0.93782
 H1371 H 0.62209 0.44372 0.94380
 C1372 C 0.68362 0.42162 0.92171
 O1373 O 0.52312 0.41396 1.11839
 O1374 O 0.52310 0.38628 1.14618
 C1375 C 0.53123 0.40561 1.13775
 C1376 C 0.55071 0.41825 1.15022
 C1377 C 0.55885 0.41032 1.17248
 H1378 H 0.55045 0.39525 1.18109
 O1379 O 0.47703 0.58583 1.11860
 O1380 O 0.47707 0.61346 1.14644
 C1381 C 0.46893 0.59414 1.13798
 C1382 C 0.44945 0.58149 1.15043
 C1383 C 0.44129 0.58940 1.17269
 H1384 H 0.44968 0.60446 1.18131
 O1385 O 0.38155 0.52336 1.08596
 O1386 O 0.35373 0.52342 1.11362
 C1387 C 0.36219 0.53152 1.09429
 C1388 C 0.34977 0.55100 1.08161
 C1389 C 0.32751 0.55920 1.08949
 H1390 H 0.31887 0.55084 1.10456
 O1391 O 0.61857 0.47649 1.08585
 O1392 O 0.64640 0.47638 1.11349
 C1393 C 0.63793 0.46832 1.09414
 C1394 C 0.65035 0.44887 1.08142
 C1395 C 0.67262 0.44066 1.08927
 H1396 H 0.68126 0.44899 1.10436
 O1397 O 0.58578 0.38131 1.02303
 O1398 O 0.61338 0.35343 1.02303
 C1399 C 0.59406 0.36192 1.03114
 C1400 C 0.58135 0.34948 1.05059
 C1401 C 0.58922 0.32722 1.05878
 H1402 H 0.60431 0.31858 1.05044
 O1403 O 0.41435 0.61867 1.02333
 O1404 O 0.38675 0.64655 1.02339
 C1405 C 0.40608 0.63805 1.03148
 C1406 C 0.41880 0.65046 1.05094
 C1407 C 0.41094 0.67272 1.05916
 H1408 H 0.39587 0.68138 1.05083
 O1409 O 0.41404 0.47687 1.11848
 O1410 O 0.38639 0.47686 1.14631
 C1411 C 0.40572 0.46874 1.13785
 C1412 C 0.41839 0.44927 1.15028
 C1413 C 0.41051 0.44108 1.17254
 H1414 H 0.39543 0.44944 1.18118
 O1415 O 0.58610 0.52292 1.11848
 O1416 O 0.61377 0.52287 1.14628
 C1417 C 0.59444 0.53101 1.13785
 C1418 C 0.58178 0.55046 1.15034
 C1419 C 0.58971 0.55860 1.17261
 H1420 H 0.60480 0.55022 1.18120
 O1421 O 0.47665 0.38151 1.08579
 O1422 O 0.47658 0.35367 1.11342
 C1423 C 0.46849 0.36215 1.09409
 C1424 C 0.44903 0.34973 1.08140
 C1425 C 0.44083 0.32747 1.08928
 H1426 H 0.44919 0.31883 1.10436
 O1427 O 0.52349 0.61835 1.08605
 O1428 O 0.52358 0.64614 1.11373
 C1429 C 0.53165 0.63770 1.09437
 C1430 C 0.55109 0.65014 1.08167
 C1431 C 0.55928 0.67241 1.08955
 H1432 H 0.55095 0.68104 1.10464
 O1433 O 0.38136 0.41428 1.02313
 O1434 O 0.35350 0.38666 1.02314
 C1435 C 0.36198 0.40598 1.03125
 C1436 C 0.34954 0.41867 1.05071
 C1437 C 0.32728 0.41079 1.05889
 H1438 H 0.31865 0.39570 1.05053
 O1439 O 0.61870 0.58567 1.02322
 O1440 O 0.64656 0.61329 1.02327
 C1441 C 0.63809 0.59396 1.03135
 C1442 C 0.65055 0.58123 1.05078
 C1443 C 0.67281 0.58911 1.05896
 H1444 H 0.68142 0.60422 1.05062
 O1445 O 0.52344 0.58575 1.11859
 O1446 O 0.52354 0.61338 1.14644
 C1447 C 0.53160 0.59403 1.13797
 C1448 C 0.55103 0.58130 1.15040
 C1449 C 0.55924 0.58916 1.17267
 H1450 H 0.55092 0.60426 1.18130
 O1451 O 0.47671 0.41406 1.11839
 O1452 O 0.47664 0.38638 1.14618
 C1453 C 0.46857 0.40574 1.13775
 C1454 C 0.44915 0.41845 1.15023
 C1455 C 0.44099 0.41055 1.17249
 H1456 H 0.44933 0.39544 1.18109
 O1457 O 0.61867 0.52289 1.08591
 O1458 O 0.64650 0.52285 1.11355
 C1459 C 0.63806 0.53098 1.09422
 C1460 C 0.65053 0.55042 1.08154
 C1461 C 0.67280 0.55859 1.08945
 H1462 H 0.68141 0.55023 1.10454
 O1463 O 0.38145 0.47696 1.08593
 O1464 O 0.35364 0.47695 1.11359
 C1465 C 0.36207 0.46885 1.09424
 C1466 C 0.34958 0.44943 1.08154
 C1467 C 0.32732 0.44126 1.08944
 H1468 H 0.31872 0.44959 1.10455
 O1469 O 0.58618 0.61829 1.02326
 O1470 O 0.61388 0.64607 1.02331
 C1471 C 0.59452 0.63765 1.03140
 C1472 C 0.58186 0.65011 1.05086
 C1473 C 0.58976 0.67238 1.05901
 H1474 H 0.60485 0.68098 1.05064
 O1475 O 0.41386 0.38164 1.02309
 O1476 O 0.38617 0.35386 1.02310
 C1477 C 0.40552 0.36227 1.03120
 C1478 C 0.41821 0.34978 1.05063
 C1479 C 0.41030 0.32752 1.05880
 H1480 H 0.39518 0.31893 1.05045
 O1481 O 0.58602 0.47653 1.11844
 O1482 O 0.61369 0.47641 1.14625
 C1483 C 0.59432 0.46837 1.13780
 C1484 C 0.58158 0.44895 1.15025
 C1485 C 0.58945 0.44074 1.17251
 H1486 H 0.60456 0.44904 1.18113
 O1487 O 0.41412 0.52327 1.11853
 O1488 O 0.38647 0.52333 1.14636
 C1489 C 0.40582 0.53139 1.13792
 C1490 C 0.41857 0.55079 1.15040
 C1491 C 0.41069 0.55898 1.17266
 H1492 H 0.39556 0.55068 1.18126
 O1493 O 0.47709 0.61844 1.08607
 O1494 O 0.47713 0.64623 1.11376
 C1495 C 0.46900 0.63782 1.09441
 C1496 C 0.44959 0.65034 1.08173
 C1497 C 0.44145 0.67260 1.08967
 H1498 H 0.44982 0.68117 1.10478
 O1499 O 0.52305 0.38143 1.08578
 O1500 O 0.52303 0.35359 1.11342
 C1501 C 0.53114 0.36203 1.09408
 C1502 C 0.55056 0.34954 1.08138
 C1503 C 0.55871 0.32728 1.08929
 H1504 H 0.55036 0.31869 1.10440
 O1505 O 0.61841 0.41382 1.02305
 O1506 O 0.64617 0.38611 1.02304
 C1507 C 0.63777 0.40546 1.03116
 C1508 C 0.65027 0.41811 1.05060
 C1509 C 0.67253 0.41019 1.05873
 H1510 H 0.68112 0.39509 1.05035
 O1511 O 0.38171 0.58617 1.02330
 O1512 O 0.35395 0.61389 1.02337
 C1513 C 0.36235 0.59452 1.03144
 C1514 C 0.34986 0.58183 1.05086
 C1515 C 0.32760 0.58974 1.05902
 H1516 H 0.31901 0.60486 1.05067
 Cu1517 Cu 0.49989 0.40052 1.09932
 Cu1518 Cu 0.49983 0.36719 1.13258
 Cu1519 Cu 0.50026 0.59932 1.09956
 Cu1520 Cu 0.50034 0.63259 1.13289
 Cu1521 Cu 0.40038 0.40075 0.99991
 Cu1522 Cu 0.36703 0.36750 0.99989
 Cu1523 Cu 0.59932 0.40036 0.99984
 Cu1524 Cu 0.63255 0.36699 0.99980
 Cu1525 Cu 0.40079 0.59967 1.00011
 Cu1526 Cu 0.36756 0.63304 1.00015
 Cu1527 Cu 0.59966 0.59924 1.00004
 Cu1528 Cu 0.63301 0.63249 1.00006
 Cu1529 Cu 0.40056 0.50011 1.09945
 Cu1530 Cu 0.36727 0.50014 1.13276
 Cu1531 Cu 0.59957 0.49972 1.09940
 Cu1532 Cu 0.63288 0.49962 1.13268
 C1533 C 0.56205 0.43772 1.13937
 H1534 H 0.55609 0.44373 1.12206
 C1535 C 0.57810 0.42155 1.18359
 C1536 C 0.43811 0.56202 1.13954
 H1537 H 0.44409 0.55603 1.12223
 C1538 C 0.42203 0.57816 1.18377
 C1539 C 0.36068 0.56229 1.06213
 H1540 H 0.37799 0.55629 1.05616
 C1541 C 0.31646 0.57845 1.07821
 C1542 C 0.63944 0.43762 1.06192
 H1543 H 0.62213 0.44363 1.05597
 C1544 C 0.68367 0.42144 1.07795
 C1545 C 0.56186 0.36038 1.06187
 H1546 H 0.55589 0.37769 1.05587
 C1547 C 0.57792 0.31615 1.07801
 C1548 C 0.43828 0.63953 1.06221
 H1549 H 0.44424 0.62222 1.05619
 C1550 C 0.42226 0.68375 1.07840
 C1551 C 0.43788 0.43797 1.13939
 H1552 H 0.44386 0.44396 1.12208
 C1553 C 0.42179 0.42185 1.18361
 C1554 C 0.56228 0.56179 1.13951
 H1555 H 0.55627 0.55583 1.12219
 C1556 C 0.57845 0.57783 1.18373
 C1557 C 0.43774 0.36062 1.06191
 H1558 H 0.44374 0.37793 1.05593
 C1559 C 0.42159 0.31641 1.07800
 C1560 C 0.56236 0.63926 1.06216
 H1561 H 0.55636 0.62195 1.05619
 C1562 C 0.57849 0.68349 1.07823
 C1563 C 0.36043 0.43816 1.06201
 H1564 H 0.37773 0.44414 1.05602
 C1565 C 0.31621 0.42206 1.07813
 C1566 C 0.63967 0.56172 1.06204
 H1567 H 0.62236 0.55575 1.05605
 C1568 C 0.68389 0.57781 1.07817
 C1569 C 1.10651 1.12781 1.30470
 C1570 C 1.12159 1.12029 1.28637
 C1571 C 1.14626 1.12247 1.28895
 C1572 C 1.15582 1.13226 1.30970
 C1573 C 1.14081 1.13999 1.32815
 C1574 C 1.11605 1.13760 1.32548
 C1575 C 1.11181 1.11073 1.26473
 C1576 C 1.10382 1.10291 1.24644
 C1577 C 1.09471 1.09396 1.22483
 C1578 C 1.08714 1.08650 1.20621
 H1579 H 1.08739 1.12621 1.30289
 H1580 H 1.15809 1.11679 1.27484
 H1581 H 1.17493 1.13413 1.31125
 H1582 H 1.10417 1.14332 1.33952
 C1583 C 1.10656 0.62789 0.80463
 C1584 C 1.12165 0.62037 0.78630
 C1585 C 1.14632 0.62256 0.78888
 C1586 C 1.15587 0.63235 0.80964
 C1587 C 1.14085 0.64008 0.82808
 C1588 C 1.11610 0.63769 0.82541
 C1589 C 1.11188 0.61079 0.76466
 C1590 C 1.10390 0.60295 0.74638
 C1591 C 1.09479 0.59399 0.72477
 C1592 C 1.08722 0.58652 0.70616
 H1593 H 1.08745 0.62629 0.80281
 H1594 H 1.15816 0.61687 0.77478
 H1595 H 1.17498 0.63422 0.81119
 H1596 H 1.10421 0.64340 0.83943
 C1597 C 0.60653 1.12786 0.80467
 C1598 C 0.62162 1.12033 0.78634
 C1599 C 0.64629 1.12252 0.78893
 C1600 C 0.65585 1.13231 0.80968
 C1601 C 0.64082 1.14004 0.82812
 C1602 C 0.61607 1.13765 0.82545
 C1603 C 0.61185 1.11076 0.76471
 C1604 C 0.60387 1.10293 0.74641
 C1605 C 0.59476 1.09398 0.72481
 C1606 C 0.58719 1.08651 0.70619
 H1607 H 0.58742 1.12626 0.80285
 H1608 H 0.65813 1.11683 0.77482
 H1609 H 0.67495 1.13418 0.81124
 H1610 H 0.60418 1.14337 0.83948
 C1611 C 0.60657 0.62787 1.30464
 C1612 C 0.62167 0.62035 1.28631
 C1613 C 0.64633 0.62255 1.28889
 C1614 C 0.65588 0.63233 1.30965
 C1615 C 0.64086 0.64005 1.32810
 C1616 C 0.61611 0.63766 1.32542
 C1617 C 0.61189 0.61078 1.26467
 C1618 C 0.60391 0.60295 1.24638
 C1619 C 0.59480 0.59399 1.22477
 C1620 C 0.58723 0.58653 1.20615
 H1621 H 0.58746 0.62626 1.30282
 H1622 H 0.65817 0.61686 1.27479
 H1623 H 0.67498 0.63421 1.31121
 H1624 H 0.60422 0.64337 1.33945
 C1625 C 0.89347 0.87199 1.30463
 C1626 C 0.87840 0.87947 1.28627
 C1627 C 0.85373 0.87730 1.28882
 C1628 C 0.84415 0.86757 1.30959
 C1629 C 0.85914 0.85988 1.32807
 C1630 C 0.88390 0.86225 1.32543
 C1631 C 0.88821 0.88899 1.26462
 C1632 C 0.89621 0.89678 1.24632
 C1633 C 0.90533 0.90571 1.22471
 C1634 C 0.91290 0.91317 1.20609
 H1635 H 0.91259 0.87358 1.30284
 H1636 H 0.84192 0.88295 1.27469
 H1637 H 0.82504 0.86571 1.31113
 H1638 H 0.89577 0.85657 1.33949
 C1639 C 0.87183 0.39358 0.80454
 C1640 C 0.87941 0.37854 0.78620
 C1641 C 0.87736 0.35386 0.78878
 C1642 C 0.86766 0.34424 0.80954
 C1643 C 0.85988 0.35922 0.82801
 C1644 C 0.86213 0.38398 0.82534
 C1645 C 0.88891 0.38836 0.76455
 C1646 C 0.89669 0.39638 0.74625
 C1647 C 0.90562 0.40550 0.72464
 C1648 C 0.91308 0.41307 0.70602
 H1649 H 0.87333 0.41271 0.80273
 H1650 H 0.88309 0.34205 0.77466
 H1651 H 0.86589 0.32513 0.81110
 H1652 H 0.85638 0.39584 0.83938
 C1653 C 0.39349 0.87199 0.80465
 C1654 C 0.37842 0.87948 0.78630
 C1655 C 0.35375 0.87732 0.78886
 C1656 C 0.34418 0.86759 0.80963
 C1657 C 0.35917 0.85989 0.82811
 C1658 C 0.38393 0.86226 0.82545
 C1659 C 0.38822 0.88901 0.76465
 C1660 C 0.39622 0.89681 0.74635
 C1661 C 0.40533 0.90575 0.72474
 C1662 C 0.41290 0.91321 0.70612
 H1663 H 0.41261 0.87358 0.80285
 H1664 H 0.34193 0.88299 0.77473
 H1665 H 0.32507 0.86573 0.81117
 H1666 H 0.39580 0.85656 0.83950
 C1667 C 0.37181 0.39358 1.30454
 C1668 C 0.37939 0.37854 1.28620
 C1669 C 0.37733 0.35386 1.28877
 C1670 C 0.36763 0.34425 1.30954
 C1671 C 0.35985 0.35922 1.32800
 C1672 C 0.36211 0.38399 1.32533
 C1673 C 0.38889 0.38837 1.26456
 C1674 C 0.39669 0.39638 1.24626
 C1675 C 0.40561 0.40551 1.22465
 C1676 C 0.41308 0.41309 1.20604
 H1677 H 0.37331 0.41271 1.30273
 H1678 H 0.38306 0.34206 1.27466
 H1679 H 0.36586 0.32514 1.31109
 H1680 H 0.35635 0.39584 1.33938
 C1681 C 0.89357 1.12830 0.69542
 C1682 C 0.87855 1.12075 0.71379
 C1683 C 0.85386 1.12279 0.71124
 C1684 C 0.84422 1.13246 0.69047
 C1685 C 0.85917 1.14021 0.67198
 C1686 C 0.88394 1.13797 0.67462
 C1687 C 0.88840 1.11127 0.73543
 C1688 C 0.89643 1.10349 0.75373
 C1689 C 0.90557 1.09458 0.77534
 C1690 C 0.91315 1.08711 0.79395
 H1691 H 0.91269 1.12680 0.69721
 H1692 H 0.84208 1.11708 0.72538
 H1693 H 0.82511 1.13423 0.68894
 H1694 H 0.89578 1.14370 0.66055
 C1695 C 0.85396 0.62277 0.21124
 C1696 C 0.87864 0.62073 0.21380
 C1697 C 0.89366 0.62828 0.19543
 C1698 C 0.88405 0.63795 0.17463
 C1699 C 0.85928 0.64019 0.17197
 C1700 C 0.84432 0.63244 0.19046
 C1701 C 0.88848 0.61126 0.23544
 C1702 C 0.89651 0.60349 0.25374
 C1703 C 0.90564 0.59458 0.27536
 C1704 C 0.91321 0.58713 0.29398
 H1705 H 0.84217 0.61706 0.22537
 H1706 H 0.91279 0.62679 0.19723
 H1707 H 0.89588 0.64369 0.16056
 H1708 H 0.82521 0.63420 0.18892
 C1709 C 0.39359 1.12836 0.19539
 C1710 C 0.37857 1.12081 0.21376
 C1711 C 0.35389 1.12286 0.21121
 C1712 C 0.34425 1.13253 0.19044
 C1713 C 0.35920 1.14028 0.17195
 C1714 C 0.38397 1.13804 0.17459
 C1715 C 0.38842 1.11132 0.23540
 C1716 C 0.39645 1.10354 0.25369
 C1717 C 0.40559 1.09461 0.27530
 C1718 C 0.41316 1.08715 0.29391
 H1719 H 0.41272 1.12686 0.19718
 H1720 H 0.34210 1.11714 0.22534
 H1721 H 0.32513 1.13430 0.18891
 H1722 H 0.39580 1.14377 0.16053
 C1723 C 0.37738 0.64629 0.71114
 C1724 C 0.37956 0.62163 0.71372
 C1725 C 0.37208 0.60653 0.69538
 C1726 C 0.36232 0.61607 0.67459
 C1727 C 0.35993 0.64082 0.67191
 C1728 C 0.36763 0.65584 0.69037
 C1729 C 0.38910 0.61186 0.73538
 C1730 C 0.39691 0.60388 0.75368
 C1731 C 0.40584 0.59478 0.77530
 C1732 C 0.41330 0.58721 0.79393
 H1733 H 0.38304 0.65813 0.72525
 H1734 H 0.37368 0.58742 0.69720
 H1735 H 0.35663 0.60418 0.66055
 H1736 H 0.36576 0.67495 0.68880
 C1737 C 1.12262 0.85385 0.71118
 C1738 C 1.12045 0.87852 0.71371
 C1739 C 1.12795 0.89357 0.69534
 C1740 C 1.13770 0.88399 0.67457
 C1741 C 1.14008 0.85923 0.67194
 C1742 C 1.13237 0.84425 0.69043
 C1743 C 1.11092 0.88835 0.73535
 C1744 C 1.10311 0.89636 0.75364
 C1745 C 1.09418 0.90550 0.77524
 C1746 C 1.08671 0.91308 0.79385
 H1747 H 1.11696 0.84205 0.72532
 H1748 H 1.12635 0.91269 0.69712
 H1749 H 1.14339 0.89584 0.66050
 H1750 H 1.13424 0.82514 0.68891
 C1751 C 1.10638 0.37181 0.19533
 C1752 C 1.12140 0.37940 0.21369
 C1753 C 1.14608 0.37735 0.21115
 C1754 C 1.15573 0.36763 0.19040
 C1755 C 1.14078 0.35984 0.17193
 C1756 C 1.11601 0.36209 0.17456
 C1757 C 1.11154 0.38891 0.23531
 C1758 C 1.10350 0.39671 0.25360
 C1759 C 1.09435 0.40565 0.27519
 C1760 C 1.08677 0.41312 0.29380
 H1761 H 1.08725 0.37331 0.19712
 H1762 H 1.15786 0.38309 0.22528
 H1763 H 1.17484 0.36586 0.18888
 H1764 H 1.10418 0.35632 0.16050
 C1765 C 0.62259 0.85378 0.21115
 C1766 C 0.62042 0.87845 0.21370
 C1767 C 0.62792 0.89351 0.19534
 C1768 C 0.63768 0.88394 0.17456
 C1769 C 0.64006 0.85918 0.17192
 C1770 C 0.63235 0.84419 0.19040
 C1771 C 0.61087 0.88826 0.23533
 C1772 C 0.60305 0.89626 0.25361
 C1773 C 0.59410 0.90539 0.27522
 C1774 C 0.58662 0.91296 0.29383
 H1775 H 0.61692 0.84197 0.22528
 H1776 H 0.62633 0.91263 0.19713
 H1777 H 0.64338 0.89580 0.16050
 H1778 H 0.63421 0.82508 0.18887
 C1779 C 0.62800 0.39355 0.69528
 C1780 C 0.62049 0.37850 0.71365
 C1781 C 0.62265 0.35383 0.71111
 C1782 C 0.63240 0.34422 0.69036
 C1783 C 0.64012 0.35920 0.67188
 C1784 C 0.63775 0.38396 0.67450
 C1785 C 0.61095 0.38833 0.73527
 C1786 C 0.60314 0.39634 0.75356
 C1787 C 0.59419 0.40548 0.77516
 C1788 C 0.58673 0.41306 0.79377
 H1789 H 0.62641 0.41267 0.69706
 H1790 H 0.61697 0.34203 0.72525
 H1791 H 0.63426 0.32511 0.68884
 H1792 H 0.64346 0.39581 0.66044
 C1793 C 1.30469 1.10637 1.12820
 C1794 C 1.28629 1.12136 1.12064
 C1795 C 1.28879 1.14604 1.12271
 C1796 C 1.30953 1.15572 1.13241
 C1797 C 1.32805 1.14080 1.14017
 C1798 C 1.32546 1.11603 1.13790
 C1799 C 1.26468 1.11146 1.11114
 C1800 C 1.24640 1.10340 1.10335
 C1801 C 1.22481 1.09423 1.09442
 C1802 C 1.20621 1.08664 1.08695
 H1803 H 1.30294 1.08724 1.12668
 H1804 H 1.27463 1.15780 1.11700
 H1805 H 1.31102 1.17483 1.13419
 H1806 H 1.33955 1.10422 1.14364
 C1807 C 1.28895 0.62246 0.64618
 C1808 C 1.28639 0.62031 0.62151
 C1809 C 1.30472 0.62788 0.60645
 C1810 C 1.32549 0.63768 0.61602
 C1811 C 1.32814 0.64003 0.64078
 C1812 C 1.30969 0.63225 0.65577
 C1813 C 1.26477 0.61074 0.61171
 C1814 C 1.24649 0.60290 0.60370
 C1815 C 1.22490 0.59394 0.59457
 C1816 C 1.20629 0.58646 0.58699
 H1817 H 1.27485 0.61673 0.65800
 H1818 H 1.30292 0.62631 0.58733
 H1819 H 1.33952 0.64343 0.60416
 H1820 H 1.31123 0.63409 0.67488
 C1821 C 0.78877 1.14596 0.62273
 C1822 C 0.78628 1.12127 0.62066
 C1823 C 0.80467 1.10629 0.62822
 C1824 C 0.82544 1.11595 0.63793
 C1825 C 0.82802 1.14073 0.64020
 C1826 C 0.80950 1.15564 0.63244
 C1827 C 0.76467 1.11138 0.61115
 C1828 C 0.74639 1.10332 0.60336
 C1829 C 0.72481 1.09414 0.59441
 C1830 C 0.70621 1.08655 0.58693
 H1831 H 0.77461 1.15772 0.61701
 H1832 H 0.80293 1.08716 0.62671
 H1833 H 0.83952 1.10414 0.64367
 H1834 H 0.81099 1.17476 0.63422
 C1835 C 0.80478 0.60628 1.12820
 C1836 C 0.78639 0.62127 1.12065
 C1837 C 0.78888 0.64595 1.12272
 C1838 C 0.80961 0.65563 1.13243
 C1839 C 0.82813 0.64071 1.14019
 C1840 C 0.82555 0.61593 1.13791
 C1841 C 0.76478 0.61138 1.11113
 C1842 C 0.74650 0.60332 1.10333
 C1843 C 0.72491 0.59416 1.09439
 C1844 C 0.70631 0.58657 1.08691
 H1845 H 0.80304 0.58715 1.12668
 H1846 H 0.77472 0.65771 1.11701
 H1847 H 0.81110 0.67474 1.13422
 H1848 H 0.83963 0.60412 1.14365
 C1849 C 1.30453 0.89349 0.87192
 C1850 C 1.28621 0.87840 0.87947
 C1851 C 1.28883 0.85373 0.87738
 C1852 C 1.30961 0.84417 0.86766
 C1853 C 1.32805 0.85918 0.85990
 C1854 C 1.32534 0.88394 0.86220
 C1855 C 1.26455 0.88818 0.88899
 C1856 C 1.24624 0.89617 0.89678
 C1857 C 1.22462 0.90527 0.90570
 C1858 C 1.20599 0.91283 0.91316
 H1859 H 1.30269 0.91261 0.87346
 H1860 H 1.27473 0.84190 0.88309
 H1861 H 1.31119 0.82506 0.86586
 H1862 H 1.33936 0.89583 0.85646
 C1863 C 1.30461 0.37181 0.39350
 C1864 C 1.28623 0.37929 0.37845
 C1865 C 1.28879 0.37718 0.35378
 C1866 C 1.30957 0.36750 0.34417
 C1867 C 1.32807 0.35982 0.35915
 C1868 C 1.32542 0.36213 0.38391
 C1869 C 1.26457 0.38877 0.38828
 C1870 C 1.24627 0.39654 0.39629
 C1871 C 1.22465 0.40544 0.40541
 C1872 C 1.20602 0.41289 0.41298
 H1873 H 1.30281 0.37336 0.41262
 H1874 H 1.27465 0.38284 0.34198
 H1875 H 1.31111 0.36568 0.32506
 H1876 H 1.33949 0.35644 0.39577
 C1877 C 0.78878 0.85369 0.37734
 C1878 C 0.78615 0.87836 0.37943
 C1879 C 0.80446 0.89345 0.37188
 C1880 C 0.82528 0.88392 0.36215
 C1881 C 0.82800 0.85916 0.35986
 C1882 C 0.80957 0.84413 0.36761
 C1883 C 0.76449 0.88813 0.38895
 C1884 C 0.74618 0.89610 0.39675
 C1885 C 0.72455 0.90519 0.40567
 C1886 C 0.70592 0.91275 0.41313
 H1887 H 0.77469 0.84185 0.38305
 H1888 H 0.80261 0.91257 0.37341
 H1889 H 0.83929 0.89581 0.35642
 H1890 H 0.81116 0.82503 0.36582
 C1891 C 0.78882 0.37718 0.85378
 C1892 C 0.78626 0.37930 0.87845
 C1893 C 0.80464 0.37183 0.89350
 C1894 C 0.82545 0.36215 0.88391
 C1895 C 0.82810 0.35982 0.85915
 C1896 C 0.80960 0.36750 0.84417
 C1897 C 0.76460 0.38878 0.88827
 C1898 C 0.74630 0.39655 0.89628
 C1899 C 0.72468 0.40546 0.90541
 C1900 C 0.70605 0.41291 0.91297
 H1901 H 0.77467 0.38284 0.84197
 H1902 H 0.80285 0.37338 0.91262
 H1903 H 0.83952 0.35646 0.89577
 H1904 H 0.81114 0.36568 0.82507
 C1905 C 0.71105 0.87746 1.14616
 C1906 C 0.71361 0.87955 1.12148
 C1907 C 0.69528 0.87196 1.10644
 C1908 C 0.67451 0.86220 1.11603
 C1909 C 0.67186 0.85990 1.14079
 C1910 C 0.69031 0.86770 1.15577
 C1911 C 0.73524 0.88910 1.11166
 C1912 C 0.75352 0.89692 1.10364
 C1913 C 0.77512 0.90586 1.09451
 C1914 C 0.79373 0.91333 1.08692
 H1915 H 0.72516 0.88320 1.15796
 H1916 H 0.69708 0.87349 1.08731
 H1917 H 0.66047 0.85643 1.10417
 H1918 H 0.68877 0.86590 1.17488
 C1919 C 0.69536 0.37196 0.60642
 C1920 C 0.71369 0.37955 0.62147
 C1921 C 0.71112 0.37745 0.64614
 C1922 C 0.69038 0.36768 0.65574
 C1923 C 0.67193 0.35989 0.64076
 C1924 C 0.67459 0.36219 0.61600
 C1925 C 0.73531 0.38910 0.61165
 C1926 C 0.75360 0.39693 0.60364
 C1927 C 0.77519 0.40588 0.59451
 C1928 C 0.79380 0.41335 0.58693
 H1929 H 0.69716 0.37349 0.58729
 H1930 H 0.72523 0.38319 0.65795
 H1931 H 0.68883 0.36588 0.67485
 H1932 H 0.66055 0.35642 0.60414
 C1933 C 0.19530 0.87202 0.60648
 C1934 C 0.21363 0.87962 0.62153
 C1935 C 0.21106 0.87752 0.64620
 C1936 C 0.19033 0.86774 0.65581
 C1937 C 0.17188 0.85994 0.64082
 C1938 C 0.17454 0.86224 0.61606
 C1939 C 0.23524 0.88919 0.61171
 C1940 C 0.25352 0.89703 0.60370
 C1941 C 0.27512 0.90599 0.59457
 C1942 C 0.29372 0.91347 0.58699
 H1943 H 0.19711 0.87356 0.58735
 H1944 H 0.22517 0.88327 0.65801
 H1945 H 0.18878 0.86594 0.67492
 H1946 H 0.16051 0.85646 0.60420
 C1947 C 0.21119 0.35395 1.12272
 C1948 C 0.21369 0.37863 1.12059
 C1949 C 0.19529 0.39364 1.12811
 C1950 C 0.17453 0.38400 1.13783
 C1951 C 0.17193 0.35924 1.14015
 C1952 C 0.19045 0.34430 1.13243
 C1953 C 0.23531 0.38850 1.11108
 C1954 C 0.25359 0.39655 1.10328
 C1955 C 0.27518 0.40571 1.09434
 C1956 C 0.29379 0.41329 1.08687
 H1957 H 0.22535 0.34218 1.11703
 H1958 H 0.19705 0.41277 1.12655
 H1959 H 0.16044 0.39583 1.14354
 H1960 H 0.18896 0.32519 1.13426
 C1961 C 0.71113 1.14636 0.87744
 C1962 C 0.71375 1.12169 0.87960
 C1963 C 0.69545 1.10658 0.87207
 C1964 C 0.67464 1.11609 0.86231
 C1965 C 0.67192 1.14084 0.85995
 C1966 C 0.69035 1.15589 0.86768
 C1967 C 0.73541 1.11195 0.88914
 C1968 C 0.75372 1.10398 0.89695
 C1969 C 0.77535 1.09489 0.90589
 C1970 C 0.79397 1.08733 0.91334
 H1971 H 0.72521 1.15821 0.88313
 H1972 H 0.69730 1.08746 0.87365
 H1973 H 0.66063 1.10419 0.85659
 H1974 H 0.68876 1.17499 0.86583
 C1975 C 0.71115 0.64638 0.37743
 C1976 C 0.71379 0.62172 0.37958
 C1977 C 0.69549 0.60660 0.37204
 C1978 C 0.67469 0.61611 0.36228
 C1979 C 0.67196 0.64086 0.35992
 C1980 C 0.69037 0.65591 0.36767
 C1981 C 0.73545 0.61198 0.38913
 C1982 C 0.75376 0.60402 0.39695
 C1983 C 0.77538 0.59493 0.40589
 C1984 C 0.79400 0.58737 0.41335
 H1985 H 0.72523 0.65824 0.38313
 H1986 H 0.69735 0.58749 0.37362
 H1987 H 0.66068 0.60420 0.35655
 H1988 H 0.68877 0.67501 0.36582
 C1989 C 0.19546 1.10657 0.37209
 C1990 C 0.21376 1.12169 0.37961
 C1991 C 0.21112 1.14635 0.37744
 C1992 C 0.19034 1.15587 0.36768
 C1993 C 0.17192 1.14082 0.35996
 C1994 C 0.17465 1.11607 0.36233
 C1995 C 0.23543 1.11196 0.38916
 C1996 C 0.25374 1.10400 0.39697
 C1997 C 0.27537 1.09492 0.40590
 C1998 C 0.29400 1.08737 0.41335
 H1999 H 0.19732 1.08745 0.37368
 H2000 H 0.22521 1.15821 0.38313
 H2001 H 0.18874 1.17497 0.36583
 H2002 H 0.16064 1.10415 0.35662
 C2003 C 0.19548 0.60662 0.87203
 C2004 C 0.21378 0.62174 0.87956
 C2005 C 0.21115 0.64640 0.87741
 C2006 C 0.19037 0.65593 0.86764
 C2007 C 0.17195 0.64088 0.85991
 C2008 C 0.17467 0.61613 0.86226
 C2009 C 0.23544 0.61199 0.88911
 C2010 C 0.25375 0.60403 0.89693
 C2011 C 0.27537 0.59494 0.90587
 C2012 C 0.29400 0.58738 0.91332
 H2013 H 0.19733 0.58751 0.87361
 H2014 H 0.22524 0.65826 0.88310
 H2015 H 0.18878 0.67503 0.86579
 H2016 H 0.16066 0.60422 0.85654
 C2017 C 1.12825 1.30452 1.10648
 C2018 C 1.12074 1.28616 1.12154
 C2019 C 1.12284 1.28875 1.14622
 C2020 C 1.13252 1.30954 1.15581
 C2021 C 1.14022 1.32802 1.14082
 C2022 C 1.13793 1.32534 1.11606
 C2023 C 1.11125 1.26450 1.11174
 C2024 C 1.10347 1.24620 1.10374
 C2025 C 1.09455 1.22457 1.09463
 C2026 C 1.08709 1.20595 1.08708
 H2027 H 1.12671 1.30270 1.08736
 H2028 H 1.11716 1.27462 1.15803
 H2029 H 1.13432 1.31110 1.17492
 H2030 H 1.14363 1.33939 1.10419
 C2031 C 1.14632 0.78883 0.62274
 C2032 C 1.12165 0.78620 0.62063
 C2033 C 1.10655 0.80452 0.62815
 C2034 C 1.11608 0.82534 0.63786
 C2035 C 1.14083 0.82806 0.64018
 C2036 C 1.15586 0.80962 0.63246
 C2037 C 1.11189 0.76453 0.61112
 C2038 C 1.10392 0.74621 0.60333
 C2039 C 1.09483 0.72458 0.59441
 C2040 C 1.08728 0.70595 0.58696
 H2041 H 1.15816 0.77473 0.61705
 H2042 H 1.08743 0.80266 0.62660
 H2043 H 1.10418 0.83936 0.64358
 H2044 H 1.17497 0.81122 0.63427
 C2045 C 0.64633 1.28879 0.62268
 C2046 C 0.62166 1.28618 0.62056
 C2047 C 0.60657 1.30451 0.62808
 C2048 C 0.61611 1.32532 0.63779
 C2049 C 0.64086 1.32803 0.64012
 C2050 C 0.65588 1.30958 0.63240
 C2051 C 0.61189 1.26451 0.61106
 C2052 C 0.60391 1.24620 0.60327
 C2053 C 0.59481 1.22457 0.59435
 C2054 C 0.58725 1.20594 0.58691
 H2055 H 0.65817 1.27469 0.61700
 H2056 H 0.58745 1.30266 0.62653
 H2057 H 0.60422 1.33935 0.64350
 H2058 H 0.67499 1.31117 0.63422
 C2059 C 0.64628 0.78879 1.12271
 C2060 C 0.62162 0.78617 1.12059
 C2061 C 0.60652 0.80449 1.12810
 C2062 C 0.61605 0.82531 1.13782
 C2063 C 0.64080 0.82803 1.14015
 C2064 C 0.65583 0.80958 1.13243
 C2065 C 0.61185 0.76450 1.11108
 C2066 C 0.60388 0.74619 1.10329
 C2067 C 0.59479 0.72456 1.09437
 C2068 C 0.58724 0.70593 1.08692
 H2069 H 0.65813 0.77469 1.11702
 H2070 H 0.58740 0.80265 1.12655
 H2071 H 0.60415 0.83934 1.14353
 H2072 H 0.67494 0.81117 1.13425
 C2073 C 0.89371 1.30475 0.87187
 C2074 C 0.87870 1.28637 0.87942
 C2075 C 0.85402 1.28887 0.87731
 C2076 C 0.84437 1.30960 0.86757
 C2077 C 0.85931 1.32810 0.85982
 C2078 C 0.88407 1.32551 0.86213
 C2079 C 0.88857 1.26476 0.88896
 C2080 C 0.89661 1.24648 0.89678
 C2081 C 0.90577 1.22490 0.90573
 C2082 C 0.91335 1.20629 0.91321
 H2083 H 0.91284 1.30299 0.87342
 H2084 H 0.84225 1.27472 0.88303
 H2085 H 0.82526 1.31110 0.86576
 H2086 H 0.89590 1.33958 0.85639
 C2087 C 0.87745 0.78892 0.35389
 C2088 C 0.87957 0.78639 0.37856
 C2089 C 0.87199 0.80473 0.39360
 C2090 C 0.86220 0.82549 0.38399
 C2091 C 0.85988 0.82811 0.35923
 C2092 C 0.86767 0.80965 0.34427
 C2093 C 0.88914 0.76478 0.38840
 C2094 C 0.89698 0.74651 0.39643
 C2095 C 0.90595 0.72492 0.40557
 C2096 C 0.91344 0.70632 0.41316
 H2097 H 0.88319 0.77480 0.34209
 H2098 H 0.87354 0.80295 0.41272
 H2099 H 0.85644 0.83953 0.39584
 H2100 H 0.86585 0.81117 0.32516
 C2101 C 0.39370 1.30476 0.37186
 C2102 C 0.37870 1.28637 0.37941
 C2103 C 0.35402 1.28886 0.37730
 C2104 C 0.34436 1.30959 0.36756
 C2105 C 0.35929 1.32810 0.35981
 C2106 C 0.38406 1.32552 0.36212
 C2107 C 0.38858 1.26476 0.38894
 C2108 C 0.39663 1.24649 0.39674
 C2109 C 0.40580 1.22490 0.40569
 C2110 C 0.41339 1.20630 0.41317
 H2111 H 0.41283 1.30301 0.37340
 H2112 H 0.34226 1.27471 0.38301
 H2113 H 0.32525 1.31108 0.36575
 H2114 H 0.39588 1.33960 0.35639
 C2115 C 0.37747 0.78892 0.85391
 C2116 C 0.37959 0.78638 0.87858
 C2117 C 0.37201 0.80473 0.89362
 C2118 C 0.36224 0.82549 0.88402
 C2119 C 0.35991 0.82812 0.85926
 C2120 C 0.36769 0.80965 0.84429
 C2121 C 0.38916 0.76477 0.88841
 C2122 C 0.39699 0.74649 0.89643
 C2123 C 0.40596 0.72490 0.90557
 C2124 C 0.41344 0.70630 0.91316
 H2125 H 0.38319 0.77480 0.84211
 H2126 H 0.37357 0.80294 0.91275
 H2127 H 0.35648 0.83953 0.89587
 H2128 H 0.36587 0.81118 0.82518
 C2129 C 1.12792 0.69538 0.89347
 C2130 C 1.12035 0.71369 0.87839
 C2131 C 1.12248 0.71109 0.85372
 C2132 C 1.13228 0.69035 0.84415
 C2133 C 1.14006 0.67192 0.85917
 C2134 C 1.13772 0.67460 0.88392
 C2135 C 1.11077 0.73532 0.88817
 C2136 C 1.10293 0.75360 0.89616
 C2137 C 1.09397 0.77521 0.90528
 C2138 C 1.08650 0.79382 0.91286
 H2139 H 1.12636 0.69720 0.91259
 H2140 H 1.11675 0.72518 0.84188
 H2141 H 1.13411 0.68878 0.82505
 H2142 H 1.14348 0.66059 0.89581
 C2143 C 1.12246 0.21102 0.35373
 C2144 C 1.12032 0.21363 0.37840
 C2145 C 1.12789 0.19533 0.39350
 C2146 C 1.13769 0.17455 0.38396
 C2147 C 1.14003 0.17185 0.35921
 C2148 C 1.13225 0.19027 0.34418
 C2149 C 1.11075 0.23527 0.38817
 C2150 C 1.10291 0.25356 0.39615
 C2151 C 1.09396 0.27517 0.40525
 C2152 C 1.08649 0.29379 0.41282
 H2153 H 1.11673 0.22511 0.34189
 H2154 H 1.12633 0.19717 0.41262
 H2155 H 1.14345 0.16054 0.39586
 H2156 H 1.13409 0.18869 0.32508
 C2157 C 0.62790 0.69534 0.39348
 C2158 C 0.62032 0.71365 0.37840
 C2159 C 0.62247 0.71106 0.35373
 C2160 C 0.63227 0.69032 0.34417
 C2161 C 0.64006 0.67189 0.35918
 C2162 C 0.63771 0.67457 0.38394
 C2163 C 0.61072 0.73527 0.38818
 C2164 C 0.60288 0.75356 0.39617
 C2165 C 0.59390 0.77515 0.40529
 C2166 C 0.58642 0.79376 0.41287
 H2167 H 0.62633 0.69716 0.41260
 H2168 H 0.61673 0.72515 0.34190
 H2169 H 0.63411 0.68876 0.32506
 H2170 H 0.64347 0.66056 0.39582
 C2171 C 0.62790 0.19537 0.89348
 C2172 C 0.62033 0.21367 0.87839
 C2173 C 0.62247 0.21107 0.85372
 C2174 C 0.63227 0.19031 0.84417
 C2175 C 0.64004 0.17189 0.85919
 C2176 C 0.63770 0.17459 0.88395
 C2177 C 0.61076 0.23531 0.88816
 C2178 C 0.60293 0.25360 0.89613
 C2179 C 0.59397 0.27521 0.90524
 C2180 C 0.58651 0.29383 0.91281
 H2181 H 0.62634 0.19721 0.91260
 H2182 H 0.61675 0.22515 0.84188
 H2183 H 0.63410 0.18874 0.82506
 H2184 H 0.64345 0.16058 0.89584
 C2185 C 0.87180 0.69535 1.10639
 C2186 C 0.87928 0.71375 1.12141
 C2187 C 0.87719 0.71122 1.14609
 C2188 C 0.86753 0.69045 1.15573
 C2189 C 0.85984 0.67193 1.14078
 C2190 C 0.86214 0.67455 1.11602
 C2191 C 0.88875 0.73540 1.11155
 C2192 C 0.89651 0.75370 1.10352
 C2193 C 0.90541 0.77531 1.09438
 C2194 C 0.91286 0.79393 1.08681
 H2195 H 0.87334 0.69712 1.08727
 H2196 H 0.88285 0.72539 1.15787
 H2197 H 0.86572 0.68894 1.17484
 H2198 H 0.85645 0.66046 1.10419
 C2199 C 0.87169 0.19535 0.60638
 C2200 C 0.87920 0.21375 0.62139
 C2201 C 0.87710 0.21124 0.64607
 C2202 C 0.86743 0.19047 0.65572
 C2203 C 0.85973 0.17195 0.64078
 C2204 C 0.86202 0.17456 0.61601
 C2205 C 0.88868 0.23539 0.61153
 C2206 C 0.89645 0.25368 0.60349
 C2207 C 0.90537 0.27529 0.59434
 C2208 C 0.91284 0.29390 0.58676
 H2209 H 0.87323 0.19712 0.58725
 H2210 H 0.88278 0.22540 0.65785
 H2211 H 0.86563 0.18896 0.67483
 H2212 H 0.85632 0.16047 0.60419
 C2213 C 0.39344 0.69545 0.62800
 C2214 C 0.37833 0.71375 0.62045
 C2215 C 0.35367 0.71112 0.62257
 C2216 C 0.34413 0.69034 0.63232
 C2217 C 0.35917 0.67192 0.64008
 C2218 C 0.38392 0.67465 0.63776
 C2219 C 0.38809 0.73541 0.61091
 C2220 C 0.39605 0.75372 0.60310
 C2221 C 0.40514 0.77535 0.59417
 C2222 C 0.41269 0.79397 0.58672
 H2223 H 0.41256 0.69731 0.62645
 H2224 H 0.34182 0.72520 0.61686
 H2225 H 0.32503 0.68874 0.63414
 H2226 H 0.39583 0.66064 0.64350
 C2227 C 0.37713 0.21131 1.14605
 C2228 C 0.37922 0.21383 1.12137
 C2229 C 0.37172 0.19543 1.10636
 C2230 C 0.36205 0.17464 1.11598
 C2231 C 0.35976 0.17202 1.14075
 C2232 C 0.36746 0.19054 1.15569
 C2233 C 0.38870 0.23547 1.11151
 C2234 C 0.39648 0.25376 1.10347
 C2235 C 0.40539 0.27537 1.09432
 C2236 C 0.41286 0.29398 1.08674
 H2237 H 0.38281 0.22547 1.15783
 H2238 H 0.37325 0.19720 1.08723
 H2239 H 0.35635 0.16055 1.10416
 H2240 H 0.36566 0.18903 1.17481
 C2241 C 1.14621 1.12268 0.71118
 C2242 C 1.12154 1.12052 0.71374
 C2243 C 1.10648 1.12800 0.69537
 C2244 C 1.11605 1.13773 0.67458
 C2245 C 1.14081 1.14010 0.67193
 C2246 C 1.15580 1.13241 0.69042
 C2247 C 1.11174 1.11100 0.73538
 C2248 C 1.10374 1.10320 0.75368
 C2249 C 1.09462 1.09428 0.77530
 C2250 C 1.08705 1.08682 0.79392
 H2251 H 1.15803 1.11702 0.72531
 H2252 H 1.08736 1.12641 0.69717
 H2253 H 1.10418 1.14342 0.66052
 H2254 H 1.17491 1.13427 0.68888
 C2255 C 1.14622 0.62270 0.21118
 C2256 C 1.12155 0.62055 0.21374
 C2257 C 1.10649 0.62804 0.19537
 C2258 C 1.11607 0.63777 0.17458
 C2259 C 1.14083 0.64013 0.17194
 C2260 C 1.15581 0.63244 0.19042
 C2261 C 1.11174 0.61102 0.23538
 C2262 C 1.10374 0.60323 0.25368
 C2263 C 1.09461 0.59430 0.27529
 C2264 C 1.08704 0.58684 0.29390
 H2265 H 1.15804 0.61704 0.22532
 H2266 H 1.08737 0.62645 0.19716
 H2267 H 1.10420 0.64347 0.16052
 H2268 H 1.17492 0.63429 0.18889
 C2269 C 0.60647 1.12803 0.19536
 C2270 C 0.62153 1.12053 0.21372
 C2271 C 0.64620 1.12269 0.21116
 C2272 C 0.65579 1.13243 0.19039
 C2273 C 0.64079 1.14013 0.17191
 C2274 C 0.61603 1.13777 0.17457
 C2275 C 0.61173 1.11099 0.23536
 C2276 C 0.60374 1.10318 0.25365
 C2277 C 0.59462 1.09424 0.27526
 C2278 C 0.58705 1.08677 0.29388
 H2279 H 0.58735 1.12644 0.19716
 H2280 H 0.65802 1.11702 0.22528
 H2281 H 0.67489 1.13429 0.18885
 H2282 H 0.60416 1.14346 0.16051
 C2283 C 0.64622 0.62270 0.71115
 C2284 C 0.62155 0.62053 0.71370
 C2285 C 0.60650 0.62801 0.69533
 C2286 C 0.61607 0.63774 0.67454
 C2287 C 0.64083 0.64011 0.67190
 C2288 C 0.65582 0.63242 0.69039
 C2289 C 0.61174 0.61102 0.73535
 C2290 C 0.60374 0.60323 0.75364
 C2291 C 0.59461 0.59431 0.77526
 C2292 C 0.58704 0.58685 0.79388
 H2293 H 0.65804 0.61704 0.72529
 H2294 H 0.58737 0.62643 0.69712
 H2295 H 0.60421 0.64343 0.66047
 H2296 H 0.67492 0.63428 0.68885
 C2297 C 0.89343 0.87211 0.69539
 C2298 C 0.87835 0.87962 0.71372
 C2299 C 0.85368 0.87744 0.71115
 C2300 C 0.84412 0.86765 0.69040
 C2301 C 0.85913 0.85993 0.67194
 C2302 C 0.88389 0.86232 0.67461
 C2303 C 0.88813 0.88919 0.73536
 C2304 C 0.89612 0.89701 0.75365
 C2305 C 0.90524 0.90597 0.77526
 C2306 C 0.91281 0.91343 0.79387
 H2307 H 0.91255 0.87371 0.69720
 H2308 H 0.84185 0.88312 0.72526
 H2309 H 0.82502 0.86578 0.68884
 H2310 H 0.89577 0.85661 0.66058
 C2311 C 0.85375 0.37749 0.21110
 C2312 C 0.87842 0.37967 0.21369
 C2313 C 0.89351 0.37215 0.19537
 C2314 C 0.88398 0.36236 0.17458
 C2315 C 0.85923 0.35997 0.17190
 C2316 C 0.84420 0.36770 0.19034
 C2317 C 0.88818 0.38924 0.23533
 C2318 C 0.89616 0.39707 0.25363
 C2319 C 0.90526 0.40602 0.27524
 C2320 C 0.91283 0.41349 0.29386
 H2321 H 0.84191 0.38318 0.22520
 H2322 H 0.91263 0.37375 0.19719
 H2323 H 0.89587 0.35664 0.16056
 H2324 H 0.82510 0.36584 0.18877
 C2325 C 0.35369 0.87743 0.21111
 C2326 C 0.37835 0.87961 0.21370
 C2327 C 0.39345 0.87209 0.19538
 C2328 C 0.38391 0.86230 0.17460
 C2329 C 0.35916 0.85992 0.17191
 C2330 C 0.34414 0.86764 0.19036
 C2331 C 0.38812 0.88918 0.23535
 C2332 C 0.39610 0.89701 0.25364
 C2333 C 0.40520 0.90597 0.27525
 C2334 C 0.41277 0.91343 0.29387
 H2335 H 0.34185 0.88312 0.22522
 H2336 H 0.41256 0.87369 0.19720
 H2337 H 0.39581 0.85659 0.16057
 H2338 H 0.32504 0.86577 0.18879
 C2339 C 0.39351 0.37217 0.69534
 C2340 C 0.37842 0.37969 0.71366
 C2341 C 0.35376 0.37751 0.71108
 C2342 C 0.34420 0.36772 0.69032
 C2343 C 0.35923 0.35999 0.67188
 C2344 C 0.38398 0.36238 0.67455
 C2345 C 0.38820 0.38926 0.73530
 C2346 C 0.39618 0.39708 0.75360
 C2347 C 0.40529 0.40604 0.77521
 C2348 C 0.41286 0.41350 0.79382
 H2349 H 0.41263 0.37377 0.69715
 H2350 H 0.34192 0.38319 0.72518
 H2351 H 0.32510 0.36585 0.68877
 H2352 H 0.39587 0.35667 0.66052
 C2353 C 1.12792 0.89350 1.30463
 C2354 C 1.12043 0.87841 1.28629
 C2355 C 1.12261 0.85374 1.28888
 C2356 C 1.13236 0.84419 1.30965
 C2357 C 1.14005 0.85921 1.32811
 C2358 C 1.13766 0.88396 1.32543
 C2359 C 1.11090 0.88818 1.26463
 C2360 C 1.10310 0.89617 1.24633
 C2361 C 1.09417 0.90527 1.22471
 C2362 C 1.08672 0.91284 1.20608
 H2363 H 1.12632 0.91262 1.30281
 H2364 H 1.11695 0.84191 1.27476
 H2365 H 1.13423 0.82508 1.31121
 H2366 H 1.14335 0.89585 1.33947
 C2367 C 1.12266 0.35367 0.78881
 C2368 C 1.12049 0.37833 0.78622
 C2369 C 1.12800 0.39343 0.80455
 C2370 C 1.13775 0.38389 0.82535
 C2371 C 1.14012 0.35914 0.82804
 C2372 C 1.13241 0.34411 0.80958
 C2373 C 1.11095 0.38810 0.76456
 C2374 C 1.10314 0.39608 0.74626
 C2375 C 1.09421 0.40519 0.72464
 C2376 C 1.08675 0.41275 0.70602
 H2377 H 1.11699 0.34183 0.77470
 H2378 H 1.12641 0.41254 0.80272
 H2379 H 1.14345 0.39578 0.83938
 H2380 H 1.13427 0.32501 0.81115
 C2381 C 0.62793 0.89347 0.80461
 C2382 C 0.62044 0.87838 0.78628
 C2383 C 0.62261 0.85371 0.78887
 C2384 C 0.63236 0.84416 0.80965
 C2385 C 0.64007 0.85918 0.82810
 C2386 C 0.63769 0.88394 0.82541
 C2387 C 0.61090 0.88814 0.76463
 C2388 C 0.60309 0.89612 0.74632
 C2389 C 0.59415 0.90522 0.72470
 C2390 C 0.58669 0.91278 0.70608
 H2391 H 0.62634 0.91259 0.80279
 H2392 H 0.61694 0.84187 0.77476
 H2393 H 0.63422 0.82506 0.81121
 H2394 H 0.64339 0.89583 0.83945
 C2395 C 0.62800 0.39342 1.30455
 C2396 C 0.62051 0.37833 1.28622
 C2397 C 0.62267 0.35366 1.28880
 C2398 C 0.63242 0.34410 1.30958
 C2399 C 0.64012 0.35912 1.32803
 C2400 C 0.63775 0.38388 1.32535
 C2401 C 0.61097 0.38811 1.26456
 C2402 C 0.60317 0.39609 1.24626
 C2403 C 0.59424 0.40520 1.22464
 C2404 C 0.58679 0.41277 1.20602
 H2405 H 0.62641 0.41254 1.30273
 H2406 H 0.61700 0.34183 1.27469
 H2407 H 0.63428 0.32500 1.31114
 H2408 H 0.64345 0.39576 1.33939
 C2409 C 0.85387 1.12262 1.28886
 C2410 C 0.87855 1.12056 1.28632
 C2411 C 0.89357 1.12814 1.30468
 C2412 C 0.88395 1.13786 1.32545
 C2413 C 0.85918 1.14012 1.32809
 C2414 C 0.84423 1.13234 1.30961
 C2415 C 0.88840 1.11104 1.26470
 C2416 C 0.89643 1.10323 1.24641
 C2417 C 0.90557 1.09429 1.22481
 C2418 C 0.91315 1.08682 1.20620
 H2419 H 0.84208 1.11688 1.27474
 H2420 H 0.91270 1.12663 1.30289
 H2421 H 0.89578 1.14362 1.33951
 H2422 H 0.82511 1.13411 1.31114
 C2423 C 0.89368 0.62816 0.80464
 C2424 C 0.87866 0.62058 0.78628
 C2425 C 0.85397 0.62264 0.78882
 C2426 C 0.84434 0.63236 0.80957
 C2427 C 0.85928 0.64014 0.82805
 C2428 C 0.88405 0.63788 0.82541
 C2429 C 0.88851 0.61106 0.76465
 C2430 C 0.89654 0.60326 0.74637
 C2431 C 0.90569 0.59432 0.72477
 C2432 C 0.91326 0.58685 0.70616
 H2433 H 0.91281 0.62666 0.80285
 H2434 H 0.84219 0.61690 0.77469
 H2435 H 0.82522 0.63413 0.81110
 H2436 H 0.89589 0.64364 0.83947
 C2437 C 0.39361 1.12822 0.80470
 C2438 C 0.37859 1.12064 0.78634
 C2439 C 0.35391 1.12269 0.78887
 C2440 C 0.34426 1.13241 0.80962
 C2441 C 0.35921 1.14019 0.82810
 C2442 C 0.38398 1.13794 0.82548
 C2443 C 0.38846 1.11113 0.76471
 C2444 C 0.39650 1.10334 0.74643
 C2445 C 0.40565 1.09440 0.72483
 C2446 C 0.41323 1.08693 0.70623
 H2447 H 0.41274 1.12672 0.80293
 H2448 H 0.34213 1.11696 0.77474
 H2449 H 0.32515 1.13418 0.81114
 H2450 H 0.39581 1.14370 0.83954
 C2451 C 0.37738 0.64616 1.28885
 C2452 C 0.37955 0.62148 1.28632
 C2453 C 0.37205 0.60644 1.30468
 C2454 C 0.36229 0.61602 1.32546
 C2455 C 0.35992 0.64078 1.32808
 C2456 C 0.36763 0.65576 1.30960
 C2457 C 0.38910 0.61166 1.26469
 C2458 C 0.39691 0.60365 1.24640
 C2459 C 0.40585 0.59451 1.22480
 C2460 C 0.41332 0.58693 1.20619
 H2461 H 0.38306 0.65796 1.27472
 H2462 H 0.37364 0.58731 1.30290
 H2463 H 0.35659 0.60416 1.33952
 H2464 H 0.36577 0.67487 1.31112
 C2465 C 1.14631 1.28886 0.87741
 C2466 C 1.12164 1.28625 0.87952
 C2467 C 1.10655 1.30456 0.87195
 C2468 C 1.11610 1.32535 0.86219
 C2469 C 1.14085 1.32806 0.85988
 C2470 C 1.15587 1.30962 0.86765
 C2471 C 1.11186 1.26460 0.88907
 C2472 C 1.10388 1.24631 0.89688
 C2473 C 1.09476 1.22469 0.90582
 C2474 C 1.08719 1.20608 0.91328
 H2475 H 1.15815 1.27477 0.88313
 H2476 H 1.08743 1.30272 0.87350
 H2477 H 1.10421 1.33937 0.85644
 H2478 H 1.17498 1.31120 0.86583
 C2479 C 1.10653 0.80457 0.37200
 C2480 C 1.12164 0.78628 0.37956
 C2481 C 1.14630 0.78891 0.37745
 C2482 C 1.15584 0.80969 0.36770
 C2483 C 1.14081 0.82811 0.35994
 C2484 C 1.11605 0.82538 0.36225
 C2485 C 1.11188 0.76462 0.38910
 C2486 C 1.10391 0.74631 0.39691
 C2487 C 1.09482 0.72469 0.40585
 C2488 C 1.08727 0.70606 0.41331
 H2489 H 1.08741 0.80272 0.37355
 H2490 H 1.15815 0.77483 0.38317
 H2491 H 1.17495 0.81129 0.36588
 H2492 H 1.10415 0.83939 0.35651
 C2493 C 0.64634 1.28883 0.37739
 C2494 C 0.62167 1.28621 0.37950
 C2495 C 0.60658 1.30452 0.37194
 C2496 C 0.61611 1.32531 0.36218
 C2497 C 0.64086 1.32803 0.35987
 C2498 C 0.65589 1.30960 0.36763
 C2499 C 0.61190 1.26456 0.38905
 C2500 C 0.60392 1.24626 0.39686
 C2501 C 0.59482 1.22464 0.40580
 C2502 C 0.58725 1.20602 0.41326
 H2503 H 0.65818 1.27475 0.38311
 H2504 H 0.58746 1.30267 0.37348
 H2505 H 0.60422 1.33933 0.35643
 H2506 H 0.67500 1.31119 0.36582
 C2507 C 0.60653 0.80458 0.87201
 C2508 C 0.62163 0.78627 0.87957
 C2509 C 0.64630 0.78890 0.87745
 C2510 C 0.65585 0.80967 0.86769
 C2511 C 0.64081 0.82809 0.85993
 C2512 C 0.61606 0.82538 0.86226
 C2513 C 0.61187 0.76462 0.88911
 C2514 C 0.60390 0.74631 0.89693
 C2515 C 0.59481 0.72469 0.90586
 C2516 C 0.58725 0.70607 0.91332
 H2517 H 0.58741 0.80273 0.87357
 H2518 H 0.65815 0.77481 0.88317
 H2519 H 0.67495 0.81126 0.86587
 H2520 H 0.60416 0.83939 0.85651
 C2521 C 0.87757 1.28895 1.14629
 C2522 C 0.87972 1.28635 1.12162
 C2523 C 0.87216 1.30466 1.10653
 C2524 C 0.86237 1.32544 1.11607
 C2525 C 0.86002 1.32813 1.14082
 C2526 C 0.86779 1.30970 1.15584
 C2527 C 0.88929 1.26471 1.11184
 C2528 C 0.89711 1.24641 1.10386
 C2529 C 0.90606 1.22480 1.09475
 C2530 C 0.91352 1.20618 1.08718
 H2531 H 0.88329 1.27485 1.15812
 H2532 H 0.87373 1.30283 1.08741
 H2533 H 0.85662 1.33946 1.10418
 H2534 H 0.86594 1.31127 1.17495
 C2535 C 0.87208 0.80463 0.60657
 C2536 C 0.87966 0.78632 0.62166
 C2537 C 0.87751 0.78891 0.64632
 C2538 C 0.86770 0.80966 0.65588
 C2539 C 0.85992 0.82808 0.64087
 C2540 C 0.86227 0.82540 0.61611
 C2541 C 0.88925 0.76469 0.61188
 C2542 C 0.89710 0.74641 0.60389
 C2543 C 0.90607 0.72481 0.59478
 C2544 C 0.91355 0.70620 0.58720
 H2545 H 0.87365 0.80280 0.58745
 H2546 H 0.88324 0.77483 0.65816
 H2547 H 0.86586 0.81122 0.67499
 H2548 H 0.85651 0.83941 0.60423
 C2549 C 0.37216 1.30468 0.60651
 C2550 C 0.37973 1.28637 0.62160
 C2551 C 0.37759 1.28897 0.64626
 C2552 C 0.36779 1.30972 0.65582
 C2553 C 0.36001 1.32815 0.64080
 C2554 C 0.36236 1.32546 0.61605
 C2555 C 0.38931 1.26474 0.61182
 C2556 C 0.39714 1.24645 0.60384
 C2557 C 0.40610 1.22484 0.59473
 C2558 C 0.41357 1.20623 0.58716
 H2559 H 0.37373 1.30285 0.58739
 H2560 H 0.38331 1.27488 0.65810
 H2561 H 0.36595 1.31129 0.67493
 H2562 H 0.35661 1.33947 0.60416
 C2563 C 0.37211 0.80461 1.10654
 C2564 C 0.37968 0.78631 1.12163
 C2565 C 0.37753 0.78890 1.14630
 C2566 C 0.36773 0.80965 1.15585
 C2567 C 0.35995 0.82807 1.14083
 C2568 C 0.36231 0.82539 1.11608
 C2569 C 0.38927 0.76467 1.11186
 C2570 C 0.39711 0.74639 1.10387
 C2571 C 0.40608 0.72479 1.09476
 C2572 C 0.41356 0.70617 1.08719
 H2573 H 0.37369 0.80279 1.08742
 H2574 H 0.38325 0.77481 1.15813
 H2575 H 0.36588 0.81121 1.17496
 H2576 H 0.35656 0.83940 1.10419
 C2577 C 0.87722 0.71122 0.85380
 C2578 C 0.87931 0.71379 0.87848
 C2579 C 0.87180 0.69543 0.89353
 C2580 C 0.86213 0.67461 0.88394
 C2581 C 0.85985 0.67194 0.85917
 C2582 C 0.86756 0.69043 0.84420
 C2583 C 0.88877 0.73545 0.88830
 C2584 C 0.89653 0.75376 0.89631
 C2585 C 0.90543 0.77539 0.90543
 C2586 C 0.91288 0.79402 0.91300
 H2587 H 0.88290 0.72535 0.84200
 H2588 H 0.87333 0.69724 0.91265
 H2589 H 0.85643 0.66055 0.89579
 H2590 H 0.86576 0.68888 0.82509
 C2591 C 0.87712 0.21120 0.35381
 C2592 C 0.87921 0.21379 0.37848
 C2593 C 0.87170 0.19543 0.39354
 C2594 C 0.86203 0.17462 0.38397
 C2595 C 0.85974 0.17194 0.35920
 C2596 C 0.86745 0.19042 0.34421
 C2597 C 0.88870 0.23545 0.38829
 C2598 C 0.89647 0.25376 0.39629
 C2599 C 0.90539 0.27538 0.40540
 C2600 C 0.91285 0.29401 0.41295
 H2601 H 0.88280 0.22533 0.34199
 H2602 H 0.87324 0.19725 0.41266
 H2603 H 0.85632 0.16056 0.39583
 H2604 H 0.86565 0.18886 0.32511
 C2605 C 0.35365 0.71118 0.37729
 C2606 C 0.37832 0.71381 0.37942
 C2607 C 0.39342 0.69549 0.37190
 C2608 C 0.38390 0.67467 0.36217
 C2609 C 0.35915 0.67195 0.35984
 C2610 C 0.34411 0.69039 0.36756
 C2611 C 0.38807 0.73548 0.38894
 C2612 C 0.39603 0.75379 0.39674
 C2613 C 0.40512 0.77542 0.40567
 C2614 C 0.41266 0.79405 0.41313
 H2615 H 0.34180 0.72527 0.38297
 H2616 H 0.41254 0.69735 0.37346
 H2617 H 0.39580 0.66065 0.35646
 H2618 H 0.32501 0.68879 0.36574
 C2619 C 0.37173 0.19550 0.89355
 C2620 C 0.37924 0.21386 0.87850
 C2621 C 0.37715 0.21128 0.85382
 C2622 C 0.36747 0.19049 0.84423
 C2623 C 0.35976 0.17201 0.85921
 C2624 C 0.36205 0.17469 0.88398
 C2625 C 0.38872 0.23552 0.88831
 C2626 C 0.39650 0.25383 0.89631
 C2627 C 0.40541 0.27545 0.90541
 C2628 C 0.41287 0.29408 0.91297
 H2629 H 0.37326 0.19732 0.91268
 H2630 H 0.38283 0.22540 0.84201
 H2631 H 0.36567 0.18893 0.82512
 H2632 H 0.35634 0.16063 0.89584
 C2633 C 1.12801 0.69531 1.10643
 C2634 C 1.12043 0.71365 1.12147
 C2635 C 1.12255 0.71111 1.14615
 C2636 C 1.13232 0.69038 1.15576
 C2637 C 1.14011 0.67191 1.14079
 C2638 C 1.13779 0.67455 1.11603
 C2639 C 1.11086 0.73527 1.11165
 C2640 C 1.10303 0.75354 1.10363
 C2641 C 1.09406 0.77513 1.09449
 C2642 C 1.08657 0.79374 1.08690
 H2643 H 1.12647 0.69710 1.08731
 H2644 H 1.11681 0.72523 1.15795
 H2645 H 1.13414 0.68885 1.17487
 H2646 H 1.14355 0.66051 1.10418
 C2647 C 1.12252 0.21106 0.64610
 C2648 C 1.12041 0.21359 0.62142
 C2649 C 1.12799 0.19524 0.60639
 C2650 C 1.13776 0.17448 0.61600
 C2651 C 1.14007 0.17186 0.64077
 C2652 C 1.13229 0.19033 0.65572
 C2653 C 1.11086 0.23521 0.61157
 C2654 C 1.10305 0.25348 0.60354
 C2655 C 1.09410 0.27507 0.59438
 C2656 C 1.08662 0.29368 0.58679
 H2657 H 1.11679 0.22519 0.65789
 H2658 H 1.12645 0.19702 0.58726
 H2659 H 1.14353 0.16043 0.60416
 H2660 H 1.13410 0.18882 0.67484
 C2661 C 0.62800 0.69529 0.60640
 C2662 C 0.62041 0.71362 0.62144
 C2663 C 0.62253 0.71108 0.64612
 C2664 C 0.63232 0.69035 0.65573
 C2665 C 0.64011 0.67189 0.64075
 C2666 C 0.63779 0.67453 0.61599
 C2667 C 0.61083 0.73523 0.61162
 C2668 C 0.60298 0.75351 0.60361
 C2669 C 0.59400 0.77509 0.59447
 C2670 C 0.58650 0.79369 0.58689
 H2671 H 0.62645 0.69708 0.58728
 H2672 H 0.61679 0.72519 0.65792
 H2673 H 0.63414 0.68882 0.67484
 H2674 H 0.64355 0.66049 0.60414
 C2675 C 0.62799 0.19529 1.10638
 C2676 C 0.62041 0.21364 1.12141
 C2677 C 0.62252 0.21110 1.14609
 C2678 C 0.63228 0.19037 1.15571
 C2679 C 0.64006 0.17190 1.14075
 C2680 C 0.63775 0.17453 1.11599
 C2681 C 0.61086 0.23526 1.11157
 C2682 C 0.60305 0.25354 1.10354
 C2683 C 0.59410 0.27513 1.09439
 C2684 C 0.58663 0.29373 1.08679
 H2685 H 0.62645 0.19707 1.08725
 H2686 H 0.61679 0.22523 1.15788
 H2687 H 0.63409 0.18885 1.17482
 H2688 H 0.64351 0.16048 1.10414
 C2689 C 1.28878 1.14609 0.87730
 C2690 C 1.28628 1.12141 0.87943
 C2691 C 1.30467 1.10640 0.87191
 C2692 C 1.32544 1.11603 0.86219
 C2693 C 1.32804 1.14080 0.85987
 C2694 C 1.30952 1.15574 0.86758
 C2695 C 1.26466 1.11155 0.88894
 C2696 C 1.24638 1.10351 0.89675
 C2697 C 1.22478 1.09435 0.90569
 C2698 C 1.20618 1.08677 0.91316
 H2699 H 1.27462 1.15787 0.88299
 H2700 H 1.30292 1.08727 0.87347
 H2701 H 1.33953 1.10420 0.85648
 H2702 H 1.31102 1.17485 0.86576
 C2703 C 1.30468 0.62800 0.39355
 C2704 C 1.28635 0.62041 0.37850
 C2705 C 1.28892 0.62250 0.35382
 C2706 C 1.30966 0.63227 0.34422
 C2707 C 1.32811 0.64007 0.35920
 C2708 C 1.32545 0.63777 0.38396
 C2709 C 1.26473 0.61085 0.38832
 C2710 C 1.24645 0.60303 0.39633
 C2711 C 1.22485 0.59408 0.40546
 C2712 C 1.20624 0.58661 0.41305
 H2713 H 1.30288 0.62647 0.41267
 H2714 H 1.27481 0.61676 0.34201
 H2715 H 1.31120 0.63407 0.32511
 H2716 H 1.33948 0.64354 0.39582
 C2717 C 0.78877 1.14598 0.37729
 C2718 C 0.78627 1.12130 0.37941
 C2719 C 0.80468 1.10630 0.37190
 C2720 C 0.82545 1.11594 0.36219
 C2721 C 0.82803 1.14071 0.35987
 C2722 C 0.80951 1.15564 0.36758
 C2723 C 0.76465 1.11143 0.38891
 C2724 C 0.74637 1.10338 0.39670
 C2725 C 0.72478 1.09421 0.40563
 C2726 C 0.70617 1.08662 0.41310
 H2727 H 0.77460 1.15775 0.38298
 H2728 H 0.80293 1.08717 0.37345
 H2729 H 0.83953 1.10412 0.35647
 H2730 H 0.81100 1.17476 0.36576
 C2731 C 0.80476 0.60634 0.87186
 C2732 C 0.78636 0.62135 0.87937
 C2733 C 0.78886 0.64603 0.87725
 C2734 C 0.80961 0.65568 0.86753
 C2735 C 0.82813 0.64074 0.85982
 C2736 C 0.82553 0.61597 0.86214
 C2737 C 0.76474 0.61148 0.88888
 C2738 C 0.74646 0.60344 0.89668
 C2739 C 0.72486 0.59429 0.90561
 C2740 C 0.70625 0.58671 0.91309
 H2741 H 0.80300 0.58721 0.87341
 H2742 H 0.77471 0.65780 0.88293
 H2743 H 0.81111 0.67479 0.86571
 H2744 H 0.83962 0.60414 0.85643
 C2745 C 1.28888 0.85362 1.12257
 C2746 C 1.28625 0.87829 1.12043
 C2747 C 1.30456 0.89339 1.12796
 C2748 C 1.32536 0.88388 1.13773
 C2749 C 1.32808 0.85912 1.14008
 C2750 C 1.30965 0.84409 1.13233
 C2751 C 1.26459 0.88804 1.11088
 C2752 C 1.24629 0.89601 1.10308
 C2753 C 1.22466 0.90511 1.09414
 C2754 C 1.20604 0.91267 1.08669
 H2755 H 1.27479 0.84177 1.11687
 H2756 H 1.30271 0.91251 1.12639
 H2757 H 1.33937 0.89578 1.14346
 H2758 H 1.31124 0.82498 1.13418
 C2759 C 1.28893 0.35366 0.62255
 C2760 C 1.28629 0.37832 0.62040
 C2761 C 1.30459 0.39344 0.62793
 C2762 C 1.32540 0.38393 0.63769
 C2763 C 1.32813 0.35918 0.64005
 C2764 C 1.30971 0.34414 0.63232
 C2765 C 1.26463 0.38806 0.61085
 C2766 C 1.24632 0.39602 0.60303
 C2767 C 1.22470 0.40511 0.59410
 C2768 C 1.20607 0.41266 0.58664
 H2769 H 1.27484 0.34180 0.61686
 H2770 H 1.30274 0.41256 0.62635
 H2771 H 1.33941 0.39584 0.64342
 H2772 H 1.31130 0.32503 0.63417
 C2773 C 0.80449 0.89337 0.62800
 C2774 C 0.78619 0.87825 0.62047
 C2775 C 0.78883 0.85359 0.62262
 C2776 C 0.80961 0.84407 0.63238
 C2777 C 0.82803 0.85912 0.64012
 C2778 C 0.82530 0.88387 0.63777
 C2779 C 0.76453 0.88800 0.61091
 C2780 C 0.74622 0.89596 0.60309
 C2781 C 0.72460 0.90504 0.59415
 C2782 C 0.70598 0.91260 0.58669
 H2783 H 0.80263 0.91249 0.62643
 H2784 H 0.77475 0.84173 0.61692
 H2785 H 0.81121 0.82497 0.63423
 H2786 H 0.83930 0.89578 0.64350
 C2787 C 0.80462 0.39343 1.12793
 C2788 C 0.78632 0.37832 1.12040
 C2789 C 0.78894 0.35366 1.12256
 C2790 C 0.80972 0.34413 1.13233
 C2791 C 0.82814 0.35917 1.14006
 C2792 C 0.82542 0.38392 1.13770
 C2793 C 0.76466 0.38807 1.11084
 C2794 C 0.74635 0.39603 1.10303
 C2795 C 0.72473 0.40512 1.09408
 C2796 C 0.70610 0.41267 1.08663
 H2797 H 0.80277 0.41255 1.12635
 H2798 H 0.77486 0.34180 1.11686
 H2799 H 0.81131 0.32503 1.13418
 H2800 H 0.83943 0.39583 1.14343
 C2801 C 0.69544 1.10653 1.12810
 C2802 C 0.71376 1.12162 1.12056
 C2803 C 0.71115 1.14629 1.12266
 C2804 C 0.69037 1.15585 1.13238
 C2805 C 0.67193 1.14084 1.14012
 C2806 C 0.67463 1.11608 1.13782
 C2807 C 0.73542 1.11184 1.11104
 C2808 C 0.75373 1.10385 1.10325
 C2809 C 0.77535 1.09475 1.09432
 C2810 C 0.79398 1.08719 1.08687
 H2811 H 0.69728 1.08741 1.12656
 H2812 H 0.72525 1.15812 1.11695
 H2813 H 0.68879 1.17496 1.13418
 H2814 H 0.66061 1.10420 1.14355
 C2815 C 0.71120 0.64628 0.62265
 C2816 C 0.71382 0.62161 0.62056
 C2817 C 0.69550 0.60652 0.62811
 C2818 C 0.67469 0.61607 0.63782
 C2819 C 0.67197 0.64083 0.64011
 C2820 C 0.69041 0.65584 0.63237
 C2821 C 0.73548 0.61183 0.61106
 C2822 C 0.75380 0.60385 0.60327
 C2823 C 0.77542 0.59475 0.59435
 C2824 C 0.79405 0.58719 0.58690
 H2825 H 0.72530 0.65812 0.61695
 H2826 H 0.69734 0.58740 0.62658
 H2827 H 0.66066 0.60418 0.64355
 H2828 H 0.68883 0.67495 0.63416
 C2829 C 0.19549 1.10653 0.62813
 C2830 C 0.21380 1.12163 0.62058
 C2831 C 0.21117 1.14630 0.62268
 C2832 C 0.19039 1.15585 0.63240
 C2833 C 0.17196 1.14082 0.64015
 C2834 C 0.17468 1.11606 0.63785
 C2835 C 0.23547 1.11186 0.61106
 C2836 C 0.25378 1.10389 0.60326
 C2837 C 0.27541 1.09480 0.59433
 C2838 C 0.29403 1.08725 0.58688
 H2839 H 0.19735 1.08741 0.62659
 H2840 H 0.22527 1.15814 0.61698
 H2841 H 0.18879 1.17495 0.63421
 H2842 H 0.16066 1.10417 0.64358
 C2843 C 0.19549 0.60655 1.12813
 C2844 C 0.21381 0.62163 1.12059
 C2845 C 0.21119 0.64630 1.12269
 C2846 C 0.19041 0.65587 1.13241
 C2847 C 0.17197 0.64085 1.14015
 C2848 C 0.17468 0.61609 1.13785
 C2849 C 0.23547 0.61185 1.11108
 C2850 C 0.25378 0.60387 1.10328
 C2851 C 0.27540 0.59477 1.09436
 C2852 C 0.29403 0.58721 1.08690
 H2853 H 0.19733 0.58743 1.12660
 H2854 H 0.22529 0.65814 1.11698
 H2855 H 0.18883 0.67497 1.13421
 H2856 H 0.16065 0.60421 1.14358
 C2857 C 0.71105 0.87752 0.85383
 C2858 C 0.71361 0.87966 0.87850
 C2859 C 0.69528 0.87211 0.89356
 C2860 C 0.67451 0.86232 0.88399
 C2861 C 0.67186 0.85997 0.85923
 C2862 C 0.69032 0.86773 0.84424
 C2863 C 0.73524 0.88923 0.88830
 C2864 C 0.75352 0.89706 0.89631
 C2865 C 0.77512 0.90601 0.90544
 C2866 C 0.79373 0.91348 0.91302
 H2867 H 0.72517 0.88323 0.84201
 H2868 H 0.69708 0.87368 0.91268
 H2869 H 0.66048 0.85658 0.89585
 H2870 H 0.68878 0.86589 0.82513
 C2871 C 0.69532 0.37205 0.39350
 C2872 C 0.71366 0.37961 0.37844
 C2873 C 0.71110 0.37746 0.35377
 C2874 C 0.69037 0.36767 0.34418
 C2875 C 0.67192 0.35990 0.35917
 C2876 C 0.67456 0.36226 0.38393
 C2877 C 0.73528 0.38919 0.38825
 C2878 C 0.75355 0.39703 0.39626
 C2879 C 0.77514 0.40600 0.40540
 C2880 C 0.79375 0.41348 0.41299
 H2881 H 0.69712 0.37363 0.41262
 H2882 H 0.72522 0.38318 0.34196
 H2883 H 0.68884 0.36582 0.32507
 H2884 H 0.66052 0.35651 0.39579
 C2885 C 0.19526 0.87214 0.39357
 C2886 C 0.21359 0.87971 0.37851
 C2887 C 0.21103 0.87757 0.35384
 C2888 C 0.19030 0.86777 0.34425
 C2889 C 0.17185 0.85999 0.35924
 C2890 C 0.17450 0.86234 0.38400
 C2891 C 0.23521 0.88929 0.38831
 C2892 C 0.25348 0.89713 0.39632
 C2893 C 0.27508 0.90610 0.40545
 C2894 C 0.29369 0.91358 0.41303
 H2895 H 0.19705 0.87372 0.41269
 H2896 H 0.22514 0.88329 0.34202
 H2897 H 0.18876 0.86593 0.32514
 H2898 H 0.16046 0.85659 0.39586
 C2899 C 0.21111 0.37747 0.85376
 C2900 C 0.21367 0.37963 0.87843
 C2901 C 0.19533 0.37207 0.89349
 C2902 C 0.17457 0.36227 0.88392
 C2903 C 0.17192 0.35992 0.85916
 C2904 C 0.19037 0.36768 0.84417
 C2905 C 0.23529 0.38921 0.88824
 C2906 C 0.25356 0.39705 0.89624
 C2907 C 0.27516 0.40602 0.90537
 C2908 C 0.29376 0.41350 0.91296
 H2909 H 0.22522 0.38319 0.84194
 H2910 H 0.19713 0.37365 0.91261
 H2911 H 0.16053 0.35653 0.89579
 H2912 H 0.18883 0.36583 0.82507
   
