data_POSCAR
  _audit_creation_date              2014-09-24
  _audit_creation_method            'ToBaCCo'
  _symmetry_space_group_name_H-M    'P1'
  _symmetry_Int_Tables_number       1
  _symmetry_cell_setting            triclinic
  loop_
  _symmetry_equiv_pos_as_xyz
 x,y,z
_cell_length_a 32.0805
_cell_length_b 31.3914
_cell_length_c 29.3918
_cell_angle_alpha 90.022900
_cell_angle_beta 90.024000
_cell_angle_gamma 91.664100
loop_
  _atom_site_label
  _atom_site_type_symbol
  _atom_site_fract_x
  _atom_site_fract_y
  _atom_site_fract_z
Zr1 Zr -0.06791 0.01939 0.01488
 O2 O -0.12783 -0.00565 -0.00286
 O3 O -0.08427 0.06929 0.05872
 O4 O -0.10009 -0.00921 0.06997
 O5 O -0.05544 0.08062 -0.08336
 O6 O -0.05543 -0.05847 0.09708
 O7 O -0.10155 0.05917 -0.02813
 O8 O -0.02111 0.09679 0.08171
 O9 O -0.02297 0.01488 0.06605
 O10 O -0.02244 0.06630 -0.00035
 O11 O -0.04711 -0.04332 0.01054
 O12 O -0.04715 0.00642 -0.05181
 Zr13 Zr 0.06906 -0.01445 -0.01928
 Zr14 Zr 0.00001 -0.04682 0.05961
 Zr15 Zr 0.00087 0.05182 -0.06454
 Zr16 Zr 0.02352 0.06013 0.04887
 O17 O -0.01014 0.04136 -0.13470
 O18 O 0.03441 0.05455 0.11976
 O19 O 0.04859 0.04876 -0.01580
 O20 O 0.04745 -0.00092 0.04667
 O21 O 0.02363 -0.06174 -0.00474
 O22 O 0.02381 -0.00961 -0.07005
 C23 C -0.06112 0.09621 0.08096
 C24 C -0.09200 0.07898 -0.06514
 C25 C -0.09098 -0.04039 0.09621
 O26 O 0.01442 -0.03706 0.12913
 O27 O 0.05430 -0.08021 0.07575
 O28 O 0.10142 -0.05735 0.02216
 C29 C 0.09097 -0.07890 0.05793
 O30 O -0.08670 -0.06446 -0.07059
 Zr31 Zr -0.02263 -0.05471 -0.05396
 O32 O 0.08514 -0.06497 -0.06239
 O33 O -0.01470 -0.11295 0.06020
 O34 O -0.03950 -0.11847 -0.03646
 O35 O -0.02978 -0.05256 -0.12567
 O36 O 0.02190 -0.09511 -0.08111
 C37 C 0.06191 -0.09394 -0.08142
 O38 O 0.12900 0.00889 0.00053
 O39 O 0.01192 0.11862 -0.06649
 O40 O 0.10231 0.01699 -0.07219
 O41 O 0.05763 0.06683 -0.09816
 O42 O 0.03605 0.12501 0.03235
 O43 O 0.08762 0.07612 0.05972
 C44 C 0.09333 0.04906 -0.09742
 H45 H -0.03349 0.09541 -0.00084
 H46 H 0.07000 -0.00203 0.06958
 H47 H 0.03523 -0.01468 -0.10081
 H48 H -0.07016 -0.06434 0.01596
 H49 H 0.03639 0.08378 0.13250
 H50 H 0.00974 -0.06489 0.14448
 H51 H -0.01125 -0.12277 0.09199
 H52 H -0.04186 -0.13504 -0.06510
 H53 H 0.03858 0.14112 0.06128
 H54 H 0.00774 0.12766 -0.09842
 H55 H -0.00561 0.06923 -0.14998
 H56 H -0.03248 -0.08239 -0.13657
 H57 H 0.09032 0.09752 0.08439
 H58 H 0.14990 -0.00856 -0.01526
 H59 H -0.14885 0.01195 0.01255
 H60 H -0.09013 -0.08971 -0.09059
 Zr61 Zr 0.56955 0.48534 0.48091
 O62 O 0.62936 0.50897 0.50085
 O63 O 0.58560 0.43442 0.43840
 O64 O 0.60168 0.44263 0.52280
 O65 O 0.55885 0.56556 0.40092
 O66 O 0.55440 0.42042 0.57650
 O67 O 0.60313 0.51567 0.42764
 O68 O 0.52234 0.40430 0.41963
 O69 O 0.52399 0.43827 0.49571
 O70 O 0.52447 0.48985 0.42990
 O71 O 0.54779 0.49956 0.54660
 O72 O 0.54926 0.54867 0.48358
 Zr73 Zr 0.43257 0.51976 0.51406
 Zr74 Zr 0.50027 0.45384 0.55980
 Zr75 Zr 0.50175 0.55143 0.43457
 Zr76 Zr 0.47788 0.44501 0.44623
 O77 O 0.51304 0.61816 0.43214
 O78 O 0.46082 0.38143 0.46426
 O79 O 0.45359 0.50622 0.44761
 O80 O 0.45329 0.45698 0.51051
 O81 O 0.47735 0.51563 0.56546
 O82 O 0.47814 0.56650 0.49853
 C83 C 0.56234 0.40541 0.41949
 C84 C 0.59443 0.54746 0.40192
 C85 C 0.59110 0.42140 0.55874
 O86 O 0.48544 0.38774 0.56102
 O87 O 0.44478 0.44254 0.59715
 O88 O 0.40018 0.49147 0.56922
 C89 C 0.40922 0.46053 0.59585
 O90 O 0.58801 0.57678 0.55887
 Zr91 Zr 0.52392 0.56069 0.54802
 O92 O 0.41606 0.56991 0.55748
 O93 O 0.51448 0.46428 0.62925
 O94 O 0.53478 0.55579 0.61897
 O95 O 0.53639 0.62545 0.53089
 O96 O 0.47917 0.59750 0.58052
 C97 C 0.43914 0.59687 0.57973
 O98 O 0.37261 0.49477 0.49642
 O99 O 0.49097 0.54054 0.36444
 O100 O 0.39912 0.55896 0.47023
 O101 O 0.44546 0.58006 0.41507
 O102 O 0.47092 0.44651 0.37449
 O103 O 0.41382 0.43537 0.42954
 C104 C 0.40876 0.57838 0.43302
 H105 H 0.53594 0.48444 0.39923
 H106 H 0.43019 0.43603 0.51603
 H107 H 0.46707 0.59560 0.49773
 H108 H 0.57029 0.49859 0.56959
 H109 H 0.45844 0.36465 0.43575
 H110 H 0.48880 0.37818 0.59291
 H111 H 0.50977 0.43660 0.64490
 H112 H 0.53674 0.58513 0.63140
 H113 H 0.46808 0.41659 0.36390
 H114 H 0.49574 0.56828 0.34896
 H115 H 0.50915 0.62693 0.40008
 H116 H 0.53877 0.64181 0.55968
 H117 H 0.41032 0.40994 0.40981
 H118 H 0.35163 0.51255 0.51162
 H119 H 0.65037 0.49131 0.48553
 H120 H 0.59065 0.59854 0.58318
 Zr121 Zr 0.56920 -0.01796 0.51520
 O122 O 0.62892 0.00705 0.49674
 O123 O 0.58622 -0.06774 0.55899
 O124 O 0.60192 0.01104 0.56983
 O125 O 0.55571 -0.07933 0.41687
 O126 O 0.55733 0.06007 0.59761
 O127 O 0.60236 -0.05772 0.47156
 O128 O 0.52332 -0.09529 0.58261
 O129 O 0.52476 -0.01341 0.56688
 O130 O 0.52362 -0.06491 0.50043
 O131 O 0.54818 0.04474 0.51118
 O132 O 0.54764 -0.00500 0.44877
 Zr133 Zr 0.43174 0.01589 0.48270
 Zr134 Zr 0.50155 0.04826 0.56080
 Zr135 Zr 0.49953 -0.05047 0.43650
 Zr136 Zr 0.47819 -0.05876 0.55021
 O137 O 0.50993 -0.04011 0.36624
 O138 O 0.46799 -0.05316 0.62122
 O139 O 0.45234 -0.04735 0.48584
 O140 O 0.45407 0.00229 0.54835
 O141 O 0.47728 0.06322 0.49674
 O142 O 0.47650 0.01098 0.43142
 C143 C 0.56336 -0.09465 0.58155
 C144 C 0.59251 -0.07761 0.43463
 C145 C 0.59295 0.04219 0.59624
 O146 O 0.48791 0.03839 0.63046
 O147 O 0.44740 0.08166 0.57780
 O148 O 0.39985 0.05893 0.52457
 C149 C 0.41057 0.08049 0.56030
 O150 O 0.58694 0.06609 0.42975
 Zr151 Zr 0.52304 0.05612 0.44698
 O152 O 0.41510 0.06633 0.43968
 O153 O 0.51620 0.11441 0.56125
 O154 O 0.53986 0.11994 0.46439
 O155 O 0.52964 0.05388 0.37522
 O156 O 0.47816 0.09632 0.42008
 C157 C 0.43815 0.09517 0.42019
 O158 O 0.37214 -0.00768 0.50330
 O159 O 0.48825 -0.11722 0.43479
 O160 O 0.39794 -0.01526 0.43000
 O161 O 0.44230 -0.06509 0.40328
 O162 O 0.46562 -0.12366 0.53375
 O163 O 0.41425 -0.07494 0.56184
 C164 C 0.40664 -0.04717 0.40442
 H165 H 0.53472 -0.09400 0.49983
 H166 H 0.43175 0.00340 0.57151
 H167 H 0.46481 0.01606 0.40078
 H168 H 0.57125 0.06581 0.51632
 H169 H 0.46626 -0.08238 0.63397
 H170 H 0.49275 0.06619 0.64584
 H171 H 0.51307 0.12426 0.59308
 H172 H 0.54186 0.13652 0.43574
 H173 H 0.46357 -0.13979 0.56269
 H174 H 0.49203 -0.12632 0.40281
 H175 H 0.50509 -0.06797 0.35100
 H176 H 0.53219 0.08370 0.36427
 H177 H 0.41190 -0.09638 0.58647
 H178 H 0.35100 0.00979 0.48793
 H179 H 0.65008 -0.01053 0.51193
 H180 H 0.59012 0.09138 0.40980
 Zr181 Zr -0.06860 0.51620 -0.02180
 O182 O -0.12860 0.49364 -0.00137
 O183 O -0.08416 0.56543 -0.06721
 O184 O -0.10030 0.56037 0.01895
 O185 O -0.06023 0.43163 -0.09642
 O186 O -0.05287 0.58313 0.07234
 O187 O -0.10210 0.48553 -0.07484
 O188 O -0.02074 0.59678 -0.08186
 O189 O -0.02259 0.56316 -0.00845
 O190 O -0.02373 0.50912 -0.07254
 O191 O -0.04672 0.50359 0.04434
 O192 O -0.04918 0.45259 -0.01635
 Zr193 Zr 0.06811 0.48133 0.01239
 Zr194 Zr 0.00116 0.54928 0.05610
 Zr195 Zr -0.00201 0.44718 -0.06530
 Zr196 Zr 0.02319 0.55416 -0.05774
 O197 O -0.01406 0.38051 -0.06533
 O198 O 0.04401 0.61751 -0.04330
 O199 O 0.04656 0.49265 -0.05433
 O200 O 0.04796 0.54418 0.00686
 O201 O 0.02369 0.48749 0.06384
 O202 O 0.02221 0.43428 -0.00104
 C203 C -0.06069 0.59523 -0.08447
 C204 C -0.09487 0.45156 -0.09781
 C205 C -0.08964 0.58201 0.05468
 O206 O 0.01629 0.61530 0.05433
 O207 O 0.05681 0.56138 0.09305
 O208 O 0.10074 0.51110 0.06672
 C209 C 0.09213 0.54289 0.09242
 O210 O -0.08729 0.42700 0.06099
 Zr211 Zr -0.02333 0.44229 0.04828
 O212 O 0.08448 0.43139 0.05623
 O213 O -0.01262 0.54135 0.12601
 O214 O -0.03350 0.44982 0.11909
 O215 O -0.03670 0.37729 0.03294
 O216 O 0.02139 0.40604 0.08180
 C217 C 0.06139 0.40570 0.08006
 O218 O 0.12922 0.50432 -0.00339
 O219 O 0.00841 0.45561 -0.13582
 O220 O 0.10133 0.44435 -0.03399
 O221 O 0.05327 0.41550 -0.08321
 O222 O 0.02738 0.55182 -0.12972
 O223 O 0.08725 0.56018 -0.07582
 C224 C 0.09094 0.42106 -0.06846
 H225 H -0.03522 0.51370 -0.10337
 H226 H 0.07131 0.56501 0.01160
 H227 H 0.03310 0.40509 -0.00100
 H228 H -0.06915 0.50539 0.06730
 H229 H 0.04646 0.63289 -0.07267
 H230 H 0.01316 0.62607 0.08581
 H231 H -0.00764 0.56951 0.14058
 H232 H -0.03531 0.42097 0.13276
 H233 H 0.03070 0.58161 -0.14056
 H234 H 0.00236 0.42760 -0.15026
 H235 H -0.01125 0.37069 -0.09721
 H236 H -0.03836 0.36151 0.06212
 H237 H 0.09128 0.58359 -0.09810
 H238 H 0.14927 0.48550 0.01195
 H239 H -0.14940 0.51105 -0.01737
 H240 H -0.08958 0.40551 0.08559
 Zr241 Zr 0.07305 0.49445 0.49752
 O242 O 0.11519 0.45246 0.52812
 O243 O 0.11181 0.52892 0.45371
 O244 O 0.09901 0.45628 0.44643
 O245 O 0.07408 0.57088 0.58283
 O246 O 0.04279 0.42560 0.40998
 O247 O 0.11549 0.52847 0.54001
 O248 O 0.06664 0.57186 0.41659
 O249 O 0.03530 0.50031 0.43993
 O250 O 0.04647 0.55444 0.50139
 O251 O 0.03063 0.44230 0.49965
 O252 O 0.04157 0.49508 0.56033
 Zr253 Zr -0.06964 0.51041 0.50828
 Zr254 Zr -0.00916 0.45044 0.44392
 Zr255 Zr 0.01257 0.55443 0.56177
 Zr256 Zr 0.00739 0.55910 0.44551
 O257 O 0.01758 0.54687 0.63307
 O258 O 0.00133 0.55125 0.37414
 O259 O -0.02745 0.56313 0.50598
 O260 O -0.03782 0.50968 0.44599
 O261 O -0.04384 0.44997 0.50410
 O262 O -0.03107 0.50413 0.56524
 C263 C 0.10301 0.55695 0.42394
 C264 C 0.10995 0.55743 0.57039
 C265 C 0.08222 0.43276 0.41513
 O266 O -0.01740 0.45838 0.37302
 O267 O -0.07046 0.43041 0.42647
 O268 O -0.11207 0.47407 0.46744
 C269 C -0.10640 0.44386 0.43841
 O270 O 0.04927 0.41511 0.58624
 Zr271 Zr -0.00397 0.44532 0.55974
 O272 O -0.10844 0.47506 0.55094
 O273 O -0.01309 0.38311 0.44715
 O274 O -0.01346 0.37953 0.54559
 O275 O -0.00297 0.44853 0.63181
 O276 O -0.06421 0.42834 0.58386
 C277 C -0.10034 0.44424 0.57757
 O278 O -0.11193 0.55150 0.47654
 O279 O 0.01975 0.62147 0.55705
 O280 O -0.09573 0.55044 0.55785
 O281 O -0.03946 0.58281 0.59276
 O282 O 0.02112 0.62508 0.45436
 O283 O -0.04457 0.59504 0.42520
 C284 C -0.07897 0.57522 0.58818
 H285 H 0.06721 0.57840 0.50087
 H286 H -0.05728 0.51311 0.42017
 H287 H -0.04581 0.50476 0.59477
 H288 H 0.04530 0.41503 0.49784
 H289 H 0.01234 0.57778 0.35968
 H290 H -0.02092 0.42944 0.35984
 H291 H -0.01809 0.37281 0.41568
 H292 H -0.02229 0.36556 0.57438
 H293 H 0.02826 0.63699 0.42403
 H294 H 0.02483 0.63207 0.58839
 H295 H 0.02131 0.57585 0.64611
 H296 H -0.01268 0.42032 0.64345
 H297 H -0.03652 0.61358 0.39921
 H298 H -0.13998 0.54404 0.48885
 H299 H 0.14315 0.45947 0.51530
 H300 H 0.04028 0.38921 0.60323
 Zr301 Zr 0.43054 0.01032 0.00796
 O302 O 0.38830 0.05126 -0.02409
 O303 O 0.39164 -0.02507 0.05057
 O304 O 0.38828 -0.02606 -0.03296
 O305 O 0.46031 0.08300 0.09232
 O306 O 0.43002 -0.06972 -0.07377
 O307 O 0.40423 0.05055 0.05715
 O308 O 0.43580 -0.07178 0.08361
 O309 O 0.45641 -0.05010 0.00397
 O310 O 0.46886 0.00415 0.06513
 O311 O 0.46259 0.00954 -0.05420
 O312 O 0.47271 0.06305 0.00575
 Zr313 Zr 0.57323 -0.00556 -0.00215
 Zr314 Zr 0.49129 -0.04969 -0.05608
 Zr315 Zr 0.51249 0.05448 0.06176
 Zr316 Zr 0.49606 -0.05464 0.05981
 O317 O 0.51978 0.12151 0.05702
 O318 O 0.48679 -0.12048 0.04578
 O319 O 0.54155 -0.00484 0.06053
 O320 O 0.53086 -0.05773 -0.00014
 O321 O 0.53575 0.00021 -0.05996
 O322 O 0.54662 0.05442 0.00153
 C323 C 0.39967 -0.05593 0.07719
 C324 C 0.42082 0.07546 0.08746
 C325 C 0.39404 -0.05627 -0.06196
 O326 O 0.48734 -0.11702 -0.05276
 O327 O 0.54344 -0.07456 -0.08968
 O328 O 0.59946 -0.04374 -0.05301
 C329 C 0.58285 -0.06736 -0.08432
 O330 O 0.45587 0.09478 -0.07532
 Zr331 Zr 0.50778 0.05899 -0.05457
 O332 O 0.61220 0.02899 -0.04568
 O333 O 0.48332 -0.04187 -0.12703
 O334 O 0.50219 0.05095 -0.12596
 O335 O 0.52125 0.12501 -0.04573
 O336 O 0.56721 0.07198 -0.08301
 C337 C 0.60357 0.05714 -0.07539
 O338 O 0.61526 -0.04754 0.02868
 O339 O 0.51713 0.04701 0.13309
 O340 O 0.61549 0.02841 0.04049
 O341 O 0.57395 0.07088 0.08308
 O342 O 0.49672 -0.05130 0.13188
 O343 O 0.54927 -0.08468 0.08661
 C344 C 0.60986 0.05739 0.07080
 H345 H 0.45396 0.00485 0.09455
 H346 H 0.54555 -0.08500 -0.00184
 H347 H 0.56734 0.07840 0.00111
 H348 H 0.44324 0.01293 -0.08011
 H349 H 0.47793 -0.13443 0.07457
 H350 H 0.48248 -0.12734 -0.08424
 H351 H 0.47989 -0.07083 -0.14017
 H352 H 0.51326 0.07746 -0.14040
 H353 H 0.48705 -0.07953 0.14352
 H354 H 0.52084 0.07600 0.14610
 H355 H 0.52474 0.13212 0.08837
 H356 H 0.52850 0.13692 -0.07603
 H357 H 0.54028 -0.11053 0.10368
 H358 H 0.64328 -0.04053 0.01602
 H359 H 0.36022 0.04382 -0.01188
 H360 H 0.46400 0.11320 -0.10137
 Zr361 Zr 0.42824 0.50740 -0.00224
 O362 O 0.38643 0.54960 0.02860
 O363 O 0.38918 0.47329 -0.04602
 O364 O 0.40230 0.54579 -0.05322
 O365 O 0.42715 0.43090 0.08300
 O366 O 0.45861 0.57567 -0.09014
 O367 O 0.38579 0.47349 0.04031
 O368 O 0.43393 0.42989 -0.08317
 O369 O 0.46578 0.50127 -0.05993
 O370 O 0.45453 0.44725 0.00153
 O371 O 0.47092 0.55932 -0.00026
 O372 O 0.45990 0.50657 0.06048
 Zr373 Zr 0.57084 0.49064 0.00808
 Zr374 Zr 0.51051 0.55090 -0.05610
 Zr375 Zr 0.48865 0.44708 0.06181
 Zr376 Zr 0.49338 0.44232 -0.05448
 O377 O 0.48391 0.45473 0.13312
 O378 O 0.49921 0.45014 -0.12586
 O379 O 0.52840 0.43814 0.00588
 O380 O 0.53886 0.49149 -0.05413
 O381 O 0.54530 0.55121 0.00400
 O382 O 0.53254 0.49718 0.06518
 C383 C 0.39771 0.44516 -0.07578
 C384 C 0.39130 0.44447 0.07063
 C385 C 0.41916 0.56893 -0.08478
 O386 O 0.51878 0.54288 -0.12698
 O387 O 0.57186 0.57081 -0.07345
 O388 O 0.61333 0.52681 -0.03275
 C389 C 0.60775 0.55718 -0.06158
 O390 O 0.45259 0.58641 0.08654
 Zr391 Zr 0.50564 0.55612 0.05975
 O392 O 0.60993 0.52595 0.05055
 O393 O 0.51453 0.61823 -0.05293
 O394 O 0.51513 0.62191 0.04568
 O395 O 0.50512 0.55294 0.13183
 O396 O 0.56604 0.57306 0.08337
 C397 C 0.60208 0.55703 0.07695
 O398 O 0.61282 0.44936 -0.02385
 O399 O 0.48113 0.38006 0.05711
 O400 O 0.59693 0.45047 0.05744
 O401 O 0.54068 0.41844 0.09261
 O402 O 0.47932 0.37642 -0.04562
 O403 O 0.54504 0.40605 -0.07498
 C404 C 0.58021 0.42578 0.08783
 H405 H 0.43367 0.42340 0.00104
 H406 H 0.55823 0.48796 -0.07999
 H407 H 0.54743 0.49650 0.09463
 H408 H 0.45638 0.58667 -0.00204
 H409 H 0.48797 0.42368 -0.14030
 H410 H 0.52237 0.57180 -0.14017
 H411 H 0.51952 0.62846 -0.08440
 H412 H 0.52408 0.63586 0.07446
 H413 H 0.47199 0.36454 -0.07593
 H414 H 0.47615 0.36951 0.08846
 H415 H 0.48010 0.42577 0.14617
 H416 H 0.51496 0.58114 0.14340
 H417 H 0.53681 0.38759 -0.10099
 H418 H 0.64095 0.45669 -0.01165
 H419 H 0.35840 0.54273 0.01586
 H420 H 0.46170 0.61222 0.10364
 Zr421 Zr 0.07093 -0.00866 0.50783
 O422 O 0.11319 -0.04964 0.47586
 O423 O 0.10988 0.02715 0.55002
 O424 O 0.11295 0.02762 0.46659
 O425 O 0.04162 -0.08123 0.59239
 O426 O 0.07096 0.07108 0.42585
 O427 O 0.09750 -0.04860 0.55712
 O428 O 0.06570 0.07397 0.58284
 O429 O 0.04485 0.05165 0.50379
 O430 O 0.03281 -0.00242 0.56512
 O431 O 0.03867 -0.00817 0.44577
 O432 O 0.02890 -0.06152 0.50589
 Zr433 Zr -0.07187 0.00674 0.49814
 Zr434 Zr 0.00981 0.05098 0.44385
 Zr435 Zr -0.01071 -0.05289 0.56200
 Zr436 Zr 0.00536 0.05625 0.55972
 O437 O -0.01783 -0.11996 0.55748
 O438 O 0.01401 0.12214 0.54563
 O439 O -0.03998 0.00632 0.56072
 O440 O -0.02963 0.05905 0.49988
 O441 O -0.03454 0.00094 0.44024
 O442 O -0.04504 -0.05313 0.50188
 C443 C 0.10187 0.05829 0.57630
 C444 C 0.08107 -0.07355 0.58745
 C445 C 0.10702 0.05773 0.43754
 O446 O 0.01373 0.11831 0.44709
 O447 O -0.04246 0.07579 0.41047
 O448 O -0.09830 0.04465 0.44712
 C449 C -0.08182 0.06839 0.41583
 O450 O 0.04556 -0.09347 0.42491
 Zr451 Zr -0.00638 -0.05773 0.44567
 O452 O -0.11089 -0.02804 0.45488
 O453 O 0.01742 0.04295 0.37289
 O454 O -0.00100 -0.04993 0.37425
 O455 O -0.01970 -0.12376 0.45467
 O456 O -0.06586 -0.07087 0.41740
 C457 C -0.10224 -0.05614 0.42512
 O458 O -0.11396 0.04867 0.52894
 O459 O -0.01509 -0.04514 0.63332
 O460 O -0.11387 -0.02734 0.54101
 O461 O -0.07202 -0.06954 0.58355
 O462 O 0.00530 0.05308 0.63181
 O463 O -0.04791 0.08597 0.58679
 C464 C -0.10803 -0.05625 0.57134
 H465 H 0.04786 -0.00294 0.59447
 H466 H -0.04442 0.08626 0.49817
 H467 H -0.06568 -0.07717 0.50156
 H468 H 0.05794 -0.01158 0.41980
 H469 H 0.02292 0.13620 0.57436
 H470 H 0.01843 0.12859 0.41558
 H471 H 0.02081 0.07188 0.35967
 H472 H -0.01205 -0.07651 0.35990
 H473 H 0.01493 0.08138 0.64331
 H474 H -0.01866 -0.07410 0.64644
 H475 H -0.02260 -0.13049 0.58888
 H476 H -0.02704 -0.13575 0.42441
 H477 H -0.03897 0.11177 0.60402
 H478 H -0.14197 0.04151 0.51634
 H479 H 0.14129 -0.04204 0.48796
 H480 H 0.03740 -0.11200 0.39893
 Zr481 Zr 0.77010 0.18125 0.23449
 O482 O 0.74876 0.11899 0.25260
 O483 O 0.81807 0.16672 0.18853
 O484 O 0.74056 0.14743 0.18064
 O485 O 0.83227 0.19564 0.33114
 O486 O 0.69037 0.19187 0.15566
 O487 O 0.81176 0.14828 0.27587
 O488 O 0.84187 0.23230 0.16516
 O489 O 0.76246 0.22727 0.18397
 O490 O 0.81486 0.22929 0.24846
 O491 O 0.70821 0.20043 0.24144
 O492 O 0.75888 0.20178 0.30181
 Zr493 Zr 0.73326 0.31993 0.27114
 Zr494 Zr 0.70155 0.24863 0.19293
 Zr495 Zr 0.80198 0.25235 0.31337
 Zr496 Zr 0.80563 0.27626 0.19995
 O497 O 0.79447 0.24074 0.38385
 O498 O 0.79750 0.28774 0.12944
 O499 O 0.79571 0.30118 0.26520
 O500 O 0.74518 0.29861 0.20459
 O501 O 0.68817 0.27191 0.25801
 O502 O 0.74130 0.27365 0.32129
 C503 C 0.84282 0.19146 0.16552
 C504 C 0.83166 0.15840 0.31252
 C505 C 0.70881 0.15595 0.15574
 O506 O 0.70860 0.26360 0.12316
 O507 O 0.66676 0.30296 0.17796
 O508 O 0.68857 0.35145 0.23151
 C509 C 0.66696 0.34026 0.19619
 O510 O 0.69126 0.15886 0.32266
 Zr511 Zr 0.69835 0.22468 0.30651
 O512 O 0.68477 0.33416 0.31641
 O513 O 0.63725 0.23174 0.19480
 O514 O 0.63585 0.20578 0.29127
 O515 O 0.70345 0.21669 0.37794
 O516 O 0.65854 0.26845 0.33621
 C517 C 0.65821 0.30928 0.33674
 O518 O 0.75311 0.38206 0.25095
 O519 O 0.86704 0.26571 0.31281
 O520 O 0.76478 0.35490 0.32299
 O521 O 0.81577 0.31078 0.34685
 O522 O 0.86923 0.29107 0.21425
 O523 O 0.81879 0.34228 0.18924
 C524 C 0.79728 0.34672 0.34699
 H525 H 0.84373 0.21902 0.24778
 H526 H 0.74260 0.32168 0.18192
 H527 H 0.73700 0.28497 0.35234
 H528 H 0.68818 0.17627 0.23672
 H529 H 0.82561 0.29091 0.11565
 H530 H 0.68104 0.25809 0.10874
 H531 H 0.62647 0.23496 0.16341
 H532 H 0.62070 0.20253 0.32050
 H533 H 0.88398 0.29443 0.18478
 H534 H 0.87706 0.26172 0.34437
 H535 H 0.82209 0.24629 0.39808
 H536 H 0.67479 0.21283 0.39012
 H537 H 0.83892 0.34592 0.16391
 H538 H 0.73572 0.40261 0.26754
 H539 H 0.76630 0.09841 0.23624
 H540 H 0.66729 0.15442 0.34351
 Zr541 Zr 0.73266 0.81989 0.73599
 O542 O 0.75444 0.88193 0.75443
 O543 O 0.68465 0.83479 0.69005
 O544 O 0.76208 0.85361 0.68204
 O545 O 0.67062 0.80575 0.83263
 O546 O 0.81191 0.80892 0.65670
 O547 O 0.69097 0.85294 0.77720
 O548 O 0.66043 0.76930 0.66685
 O549 O 0.73984 0.77383 0.68538
 O550 O 0.68780 0.77205 0.75014
 O551 O 0.79452 0.80039 0.74261
 O552 O 0.74425 0.79928 0.80325
 Zr553 Zr 0.76907 0.68097 0.77259
 Zr554 Zr 0.80067 0.75218 0.69405
 Zr555 Zr 0.70090 0.74899 0.81501
 Zr556 Zr 0.69656 0.72504 0.70156
 O557 O 0.70902 0.76087 0.88536
 O558 O 0.70442 0.71341 0.63104
 O559 O 0.70670 0.70009 0.76678
 O560 O 0.75692 0.70237 0.70605
 O561 O 0.81431 0.72872 0.75896
 O562 O 0.76152 0.72734 0.82274
 C563 C 0.65969 0.81017 0.66708
 C564 C 0.67102 0.84288 0.81381
 C565 C 0.79363 0.84494 0.65691
 O566 O 0.79335 0.73712 0.62431
 O567 O 0.83513 0.69771 0.67895
 O568 O 0.81391 0.64951 0.73304
 C569 C 0.83515 0.66053 0.69741
 O570 O 0.81092 0.84152 0.82512
 Zr571 Zr 0.80474 0.77593 0.80754
 O572 O 0.81640 0.66631 0.81945
 O573 O 0.86502 0.76889 0.69581
 O574 O 0.86665 0.79710 0.79262
 O575 O 0.80139 0.78150 0.87937
 O576 O 0.84648 0.73164 0.83313
 C577 C 0.84519 0.69083 0.83661
 O578 O 0.74933 0.61891 0.75196
 O579 O 0.63579 0.73587 0.81494
 O580 O 0.73694 0.64595 0.82386
 O581 O 0.68678 0.69066 0.84850
 O582 O 0.63296 0.71061 0.71616
 O583 O 0.68295 0.65910 0.69078
 C584 C 0.70475 0.65444 0.84815
 H585 H 0.65896 0.78241 0.74951
 H586 H 0.75933 0.67924 0.68341
 H587 H 0.76586 0.71590 0.85372
 H588 H 0.81458 0.82450 0.73780
 H589 H 0.67626 0.71053 0.61730
 H590 H 0.82085 0.74262 0.60979
 H591 H 0.87572 0.76556 0.66441
 H592 H 0.88190 0.79978 0.82187
 H593 H 0.61802 0.70746 0.68677
 H594 H 0.62598 0.73998 0.84656
 H595 H 0.68151 0.75538 0.89985
 H596 H 0.83040 0.78462 0.89075
 H597 H 0.66261 0.65562 0.66560
 H598 H 0.76657 0.59831 0.76867
 H599 H 0.73705 0.90270 0.73814
 H600 H 0.83398 0.84576 0.84721
 Zr601 Zr 0.24578 0.32711 0.75104
 O602 O 0.20739 0.37195 0.71912
 O603 O 0.28010 0.36623 0.79498
 O604 O 0.20898 0.35487 0.80153
 O605 O 0.32418 0.32477 0.67021
 O606 O 0.16787 0.30058 0.82968
 O607 O 0.28170 0.36879 0.70972
 O608 O 0.31729 0.31859 0.83595
 O609 O 0.24628 0.28911 0.80932
 O610 O 0.30336 0.29760 0.75112
 O611 O 0.19317 0.28620 0.74520
 O612 O 0.24867 0.29457 0.68851
 Zr613 Zr 0.25609 0.18109 0.74243
 Zr614 Zr 0.19576 0.24586 0.80185
 Zr615 Zr 0.30540 0.26252 0.69112
 Zr616 Zr 0.30286 0.25820 0.80774
 O617 O 0.30229 0.26667 0.61936
 O618 O 0.29083 0.25396 0.87854
 O619 O 0.30904 0.22198 0.74794
 O620 O 0.25269 0.21432 0.80420
 O621 O 0.19782 0.20973 0.74214
 O622 O 0.25480 0.21989 0.68460
 C623 C 0.30572 0.35648 0.82639
 C624 C 0.31119 0.36194 0.68116
 C625 C 0.17995 0.34009 0.82786
 O626 O 0.19883 0.24101 0.87353
 O627 O 0.17478 0.18372 0.82036
 O628 O 0.21768 0.13951 0.78170
 C629 C 0.18763 0.14647 0.80963
 O630 O 0.17331 0.30567 0.65639
 Zr631 Zr 0.19829 0.25009 0.68583
 O632 O 0.22210 0.14227 0.69827
 O633 O 0.13033 0.24106 0.79317
 O634 O 0.13286 0.24387 0.69504
 O635 O 0.20572 0.24975 0.61414
 O636 O 0.18021 0.18894 0.66176
 C637 C 0.19364 0.15141 0.66977
 O638 O 0.29285 0.13660 0.77715
 O639 O 0.37075 0.26799 0.70007
 O640 O 0.29697 0.15227 0.69618
 O641 O 0.33322 0.20788 0.66310
 O642 O 0.36837 0.26848 0.80339
 O643 O 0.33375 0.20349 0.83150
 C644 C 0.32387 0.16785 0.66766
 H645 H 0.32759 0.31779 0.75267
 H646 H 0.25386 0.19475 0.83055
 H647 H 0.25653 0.20429 0.65545
 H648 H 0.16716 0.30242 0.74466
 H649 H 0.31643 0.26412 0.89454
 H650 H 0.16969 0.23788 0.88445
 H651 H 0.11807 0.23723 0.82390
 H652 H 0.12066 0.23515 0.66537
 H653 H 0.37864 0.27532 0.83443
 H654 H 0.38292 0.27256 0.66942
 H655 H 0.33141 0.26955 0.60831
 H656 H 0.17844 0.24098 0.60072
 H657 H 0.35055 0.21110 0.85874
 H658 H 0.28536 0.10807 0.76458
 H659 H 0.21469 0.40012 0.73269
 H660 H 0.14868 0.29758 0.63765
 Zr661 Zr 0.25427 0.67597 0.25074
 O662 O 0.29304 0.63167 0.21850
 O663 O 0.21997 0.63685 0.29464
 O664 O 0.29209 0.64768 0.30011
 O665 O 0.17761 0.67844 0.16759
 O666 O 0.32646 0.70346 0.33505
 O667 O 0.21886 0.63432 0.20853
 O668 O 0.18078 0.68406 0.33390
 O669 O 0.25163 0.71394 0.30911
 O670 O 0.19650 0.70518 0.24923
 O671 O 0.30658 0.71756 0.24724
 O672 O 0.25287 0.70884 0.18838
 Zr673 Zr 0.24333 0.82234 0.24245
 Zr674 Zr 0.30177 0.75780 0.30382
 Zr675 Zr 0.19590 0.74053 0.18936
 Zr676 Zr 0.19500 0.74456 0.30584
 O677 O 0.20104 0.73667 0.11773
 O678 O 0.20504 0.74919 0.37700
 O679 O 0.19049 0.78099 0.24603
 O680 O 0.24479 0.78904 0.30424
 O681 O 0.30159 0.79392 0.24411
 O682 O 0.24639 0.78355 0.18466
 C683 C 0.19347 0.64638 0.32522
 C684 C 0.19012 0.64123 0.17900
 C685 C 0.31753 0.66351 0.32992
 O686 O 0.29643 0.76463 0.37518
 O687 O 0.32322 0.81970 0.32216
 O688 O 0.28095 0.86399 0.28286
 C689 C 0.31074 0.85696 0.31118
 O690 O 0.32957 0.69841 0.15935
 Zr691 Zr 0.30302 0.75367 0.18775
 O692 O 0.27830 0.86134 0.19933
 O693 O 0.36752 0.76068 0.29792
 O694 O 0.36810 0.76048 0.19932
 O695 O 0.29746 0.75394 0.11584
 O696 O 0.32139 0.81488 0.16425
 C697 C 0.30755 0.85233 0.17175
 O698 O 0.20559 0.86668 0.27607
 O699 O 0.13035 0.73471 0.19619
 O700 O 0.20347 0.85091 0.19506
 O701 O 0.16845 0.79503 0.16087
 O702 O 0.12978 0.73334 0.29907
 O703 O 0.16256 0.79874 0.32838
 C704 C 0.17737 0.83508 0.16582
 H705 H 0.17240 0.68478 0.25009
 H706 H 0.24281 0.80866 0.33048
 H707 H 0.24534 0.79917 0.15549
 H708 H 0.33277 0.70163 0.24777
 H709 H 0.17914 0.73871 0.39219
 H710 H 0.32520 0.76736 0.38733
 H711 H 0.37876 0.76491 0.32906
 H712 H 0.38114 0.76924 0.17010
 H713 H 0.11870 0.72617 0.32969
 H714 H 0.11898 0.73040 0.16512
 H715 H 0.17224 0.73385 0.10566
 H716 H 0.32500 0.76297 0.10328
 H717 H 0.14508 0.79088 0.35501
 H718 H 0.21344 0.89525 0.26387
 H719 H 0.28552 0.60321 0.23120
 H720 H 0.35438 0.70684 0.14107
 Zr721 Zr 0.23348 0.82006 0.77088
 O722 O 0.25350 0.88215 0.75073
 O723 O 0.18492 0.83450 0.81599
 O724 O 0.18899 0.85170 0.73112
 O725 O 0.31591 0.81073 0.84666
 O726 O 0.16713 0.80323 0.67757
 O727 O 0.26504 0.85497 0.82275
 O728 O 0.15846 0.76885 0.83567
 O729 O 0.18832 0.77212 0.75765
 O730 O 0.24135 0.77378 0.82106
 O731 O 0.24543 0.79871 0.70434
 O732 O 0.29589 0.80119 0.76505
 Zr733 Zr 0.27022 0.68131 0.73424
 Zr734 Zr 0.20176 0.74878 0.69261
 Zr735 Zr 0.30199 0.75234 0.81322
 Zr736 Zr 0.19834 0.72491 0.80619
 O737 O 0.36708 0.76555 0.81286
 O738 O 0.13586 0.70604 0.79079
 O739 O 0.25885 0.70183 0.80155
 O740 O 0.20833 0.70060 0.74114
 O741 O 0.26267 0.72736 0.68372
 O742 O 0.31496 0.72933 0.74830
 C743 C 0.15819 0.80970 0.83618
 C744 C 0.29751 0.84671 0.84676
 C745 C 0.16744 0.84056 0.69575
 O746 O 0.13743 0.73201 0.69439
 O747 O 0.19053 0.69199 0.65534
 O748 O 0.24063 0.64747 0.68040
 C749 C 0.20892 0.65604 0.65545
 O750 O 0.31910 0.84234 0.68922
 Zr751 Zr 0.30586 0.77632 0.69979
 O752 O 0.31817 0.66678 0.68816
 O753 O 0.20891 0.76369 0.62283
 O754 O 0.29783 0.78789 0.62929
 O755 O 0.36946 0.79101 0.71418
 O756 O 0.34207 0.73238 0.66497
 C757 C 0.34297 0.69154 0.66520
 O758 O 0.24887 0.61911 0.75253
 O759 O 0.29428 0.74071 0.88366
 O760 O 0.31218 0.64843 0.77536
 O761 O 0.33219 0.69560 0.83100
 O762 O 0.20331 0.71700 0.87764
 O763 O 0.19103 0.65912 0.82245
 C764 C 0.33198 0.65850 0.81210
 H765 H 0.23702 0.78514 0.85208
 H766 H 0.18828 0.67645 0.73640
 H767 H 0.34384 0.71906 0.74762
 H768 H 0.24294 0.82179 0.68166
 H769 H 0.12061 0.70293 0.81998
 H770 H 0.12670 0.73528 0.66299
 H771 H 0.18134 0.75824 0.60839
 H772 H 0.32595 0.79108 0.61555
 H773 H 0.17461 0.71335 0.88978
 H774 H 0.32187 0.74622 0.89798
 H775 H 0.37701 0.76153 0.84445
 H776 H 0.38424 0.79444 0.68473
 H777 H 0.16707 0.65480 0.84333
 H778 H 0.26636 0.59849 0.73617
 H779 H 0.23615 0.90275 0.76729
 H780 H 0.33925 0.84600 0.66391
 Zr781 Zr 0.26736 0.18142 0.27015
 O782 O 0.24724 0.11951 0.24945
 O783 O 0.31566 0.16662 0.31559
 O784 O 0.31206 0.14995 0.23054
 O785 O 0.18486 0.19068 0.34582
 O786 O 0.33397 0.19851 0.17716
 O787 O 0.23563 0.14639 0.32174
 O788 O 0.34208 0.23217 0.33576
 O789 O 0.31264 0.22931 0.25728
 O790 O 0.25944 0.22755 0.32051
 O791 O 0.25553 0.20306 0.20368
 O792 O 0.20498 0.20046 0.26415
 Zr793 Zr 0.23094 0.32041 0.23404
 Zr794 Zr 0.29932 0.25293 0.19230
 Zr795 Zr 0.19886 0.24914 0.31257
 Zr796 Zr 0.30260 0.27637 0.30602
 O797 O 0.13378 0.23590 0.31190
 O798 O 0.36519 0.29486 0.29081
 O799 O 0.24214 0.29958 0.30128
 O800 O 0.29277 0.30095 0.24105
 O801 O 0.23848 0.27455 0.18329
 O802 O 0.18607 0.27245 0.24775
 C803 C 0.34227 0.19130 0.33620
 C804 C 0.20320 0.15466 0.34580
 C805 C 0.33371 0.16117 0.19530
 O806 O 0.36366 0.26968 0.19427
 O807 O 0.31069 0.30983 0.15529
 O808 O 0.26059 0.35433 0.18037
 C809 C 0.29233 0.34580 0.15546
 O810 O 0.18186 0.15974 0.18762
 Zr811 Zr 0.19515 0.22566 0.19899
 O812 O 0.18294 0.33533 0.18811
 O813 O 0.29229 0.23815 0.12246
 O814 O 0.20333 0.21472 0.12839
 O815 O 0.13158 0.21072 0.21323
 O816 O 0.15875 0.26990 0.16466
 C817 C 0.15791 0.31075 0.16517
 O818 O 0.25253 0.38247 0.25263
 O819 O 0.20641 0.26063 0.38307
 O820 O 0.18918 0.35330 0.27536
 O821 O 0.16864 0.30585 0.33046
 O822 O 0.29743 0.28430 0.37744
 O823 O 0.31020 0.34208 0.32251
 C824 C 0.16918 0.34309 0.31190
 H825 H 0.26366 0.21612 0.35151
 H826 H 0.31288 0.32507 0.23646
 H827 H 0.15721 0.28277 0.24711
 H828 H 0.25807 0.18006 0.18090
 H829 H 0.38043 0.29778 0.32004
 H830 H 0.37444 0.26645 0.16289
 H831 H 0.31987 0.24369 0.10810
 H832 H 0.17523 0.21179 0.11451
 H833 H 0.32610 0.28783 0.38974
 H834 H 0.17879 0.25508 0.39728
 H835 H 0.12375 0.23989 0.34346
 H836 H 0.11676 0.20759 0.18376
 H837 H 0.33428 0.34626 0.34329
 H838 H 0.23510 0.40322 0.23637
 H839 H 0.26448 0.09878 0.26596
 H840 H 0.16182 0.15635 0.16216
 Zr841 Zr 0.75851 0.67869 0.24176
 O842 O 0.79647 0.63426 0.27490
 O843 O 0.72384 0.63995 0.19816
 O844 O 0.72086 0.63647 0.28149
 O845 O 0.83316 0.70726 0.16032
 O846 O 0.67824 0.68023 0.32106
 O847 O 0.79848 0.65083 0.19379
 O848 O 0.68047 0.68650 0.16363
 O849 O 0.70009 0.70684 0.24371
 O850 O 0.75526 0.71807 0.18449
 O851 O 0.75668 0.71135 0.30397
 O852 O 0.81113 0.72026 0.24603
 Zr853 Zr 0.74666 0.82488 0.25195
 Zr854 Zr 0.69955 0.74237 0.30386
 Zr855 Zr 0.80553 0.76126 0.18986
 Zr856 Zr 0.69846 0.74760 0.18784
 O857 O 0.87106 0.76715 0.19696
 O858 O 0.63340 0.74029 0.19924
 O859 O 0.74838 0.79267 0.18917
 O860 O 0.69457 0.78311 0.24776
 O861 O 0.74947 0.78637 0.30984
 O862 O 0.80460 0.79598 0.25019
 C863 C 0.69453 0.64906 0.17072
 C864 C 0.82443 0.66710 0.16463
 C865 C 0.69085 0.64315 0.30966
 O866 O 0.63381 0.73939 0.29783
 O867 O 0.67466 0.79626 0.33597
 O868 O 0.70861 0.85255 0.30159
 C869 C 0.68332 0.83632 0.33131
 O870 O 0.83893 0.70182 0.32826
 Zr871 Zr 0.80626 0.75605 0.30630
 O872 O 0.78060 0.86370 0.29646
 O873 O 0.70485 0.73459 0.37510
 O874 O 0.79613 0.75058 0.37737
 O875 O 0.87144 0.76773 0.29987
 O876 O 0.82009 0.81633 0.33515
 C877 C 0.80715 0.85400 0.32695
 O878 O 0.70775 0.86925 0.22004
 O879 O 0.80046 0.76614 0.11829
 O880 O 0.78204 0.86717 0.21056
 O881 O 0.82362 0.82370 0.16920
 O882 O 0.70399 0.74806 0.11594
 O883 O 0.67172 0.80299 0.15999
 C884 C 0.81095 0.86070 0.18114
 H885 H 0.75638 0.70281 0.15509
 H886 H 0.66829 0.79890 0.24845
 H887 H 0.82861 0.81646 0.25143
 H888 H 0.75870 0.69146 0.32996
 H889 H 0.62044 0.73173 0.16990
 H890 H 0.62256 0.73473 0.32889
 H891 H 0.67607 0.73160 0.38716
 H892 H 0.82193 0.76108 0.39275
 H893 H 0.67650 0.73898 0.10327
 H894 H 0.82926 0.76930 0.10633
 H895 H 0.88247 0.77200 0.16600
 H896 H 0.88241 0.77463 0.33062
 H897 H 0.64683 0.79463 0.14177
 H898 H 0.71504 0.89763 0.23313
 H899 H 0.78877 0.60579 0.26230
 H900 H 0.85638 0.70952 0.35499
 Zr901 Zr 0.74352 0.32308 0.74346
 O902 O 0.70555 0.36758 0.77653
 O903 O 0.77847 0.36202 0.70023
 O904 O 0.78037 0.36482 0.78456
 O905 O 0.66825 0.29526 0.66249
 O906 O 0.82589 0.32124 0.82001
 O907 O 0.70343 0.35134 0.69610
 O908 O 0.82115 0.31544 0.66468
 O909 O 0.80193 0.29492 0.74450
 O910 O 0.74629 0.28405 0.68582
 O911 O 0.74577 0.29013 0.80540
 O912 O 0.69084 0.28163 0.74776
 Zr913 Zr 0.75504 0.17694 0.75245
 Zr914 Zr 0.80292 0.25917 0.80437
 Zr915 Zr 0.69593 0.24094 0.69122
 Zr916 Zr 0.80302 0.25430 0.68845
 O917 O 0.63046 0.23501 0.69870
 O918 O 0.86819 0.26113 0.69941
 O919 O 0.75298 0.20940 0.68988
 O920 O 0.80728 0.21853 0.74809
 O921 O 0.75287 0.21527 0.81054
 O922 O 0.69717 0.20593 0.75130
 C923 C 0.80748 0.35292 0.67238
 C924 C 0.67720 0.33535 0.66709
 C925 C 0.81183 0.35832 0.81085
 O926 O 0.86867 0.26058 0.79818
 O927 O 0.82704 0.20508 0.83659
 O928 O 0.79286 0.14900 0.80197
 C929 C 0.81805 0.16510 0.83185
 O930 O 0.66385 0.29986 0.83035
 Zr931 Zr 0.69606 0.24556 0.80775
 O932 O 0.72109 0.13788 0.79670
 O933 O 0.79839 0.26800 0.87554
 O934 O 0.70681 0.25036 0.87877
 O935 O 0.63079 0.23427 0.80184
 O936 O 0.68207 0.18513 0.83613
 C937 C 0.69473 0.14744 0.82743
 O938 O 0.79389 0.13265 0.72028
 O939 O 0.70045 0.23665 0.61956
 O940 O 0.71964 0.13492 0.71077
 O941 O 0.67776 0.17860 0.67007
 O942 O 0.79696 0.25444 0.61658
 O943 O 0.82922 0.19895 0.65986
 C944 C 0.69062 0.14152 0.68153
 H945 H 0.74503 0.29954 0.65659
 H946 H 0.83347 0.20258 0.74851
 H947 H 0.67313 0.18548 0.75249
 H948 H 0.74399 0.30984 0.83159
 H949 H 0.88099 0.26984 0.67005
 H950 H 0.88013 0.26554 0.82911
 H951 H 0.82732 0.27068 0.88725
 H952 H 0.68103 0.24000 0.89427
 H953 H 0.82443 0.26340 0.60379
 H954 H 0.67155 0.23358 0.60782
 H955 H 0.61886 0.23043 0.66778
 H956 H 0.62002 0.22736 0.83265
 H957 H 0.85403 0.20729 0.64153
 H958 H 0.78659 0.10423 0.73323
 H959 H 0.71346 0.39612 0.76426
 H960 H 0.64675 0.29216 0.85731
 N961 N 0.18626 0.40177 0.87548
 N962 N 0.16231 0.42230 0.90764
 C963 C 0.12396 0.40364 0.90754
 C964 C 0.12323 0.36923 0.87726
 C965 C 0.16313 0.36921 0.85814
 H966 H 0.09715 0.34778 0.86956
 H967 H 0.21758 0.40913 0.86887
 H968 H 0.17216 0.44953 0.92556
 N969 N 0.31044 0.60593 0.38637
 N970 N 0.33411 0.58461 0.41445
 C971 C 0.37407 0.59796 0.40891
 C972 C 0.37595 0.62981 0.37605
 C973 C 0.33467 0.63363 0.36270
 H974 H 0.40318 0.64721 0.36346
 H975 H 0.27808 0.60211 0.38421
 H976 H 0.32297 0.56078 0.43648
 N977 N 0.79040 0.91385 0.61452
 N978 N 0.81639 0.94005 0.59250
 C979 C 0.85465 0.92338 0.59244
 C980 C 0.85269 0.88438 0.61474
 C981 C 0.81133 0.87950 0.62815
 H982 H 0.87796 0.86308 0.62121
 H983 H 0.75897 0.91970 0.62037
 H984 H 0.80808 0.96917 0.57847
 N985 N 0.71169 0.08687 0.11357
 N986 N 0.68550 0.06072 0.09171
 C987 C 0.64733 0.07758 0.09175
 C988 C 0.64953 0.11662 0.11393
 C989 C 0.69095 0.12136 0.12716
 H990 H 0.62439 0.13808 0.12041
 H991 H 0.74312 0.08090 0.11933
 H992 H 0.69363 0.03152 0.07772
 N993 N 0.84684 0.08233 0.32454
 N994 N 0.86858 0.05881 0.35252
 C995 C 0.89001 0.08464 0.38117
 C996 C 0.88169 0.12678 0.37114
 C997 C 0.85377 0.12374 0.33497
 H998 H 0.89355 0.15524 0.38809
 H999 H 0.82705 0.06996 0.29926
 H1000 H 0.86910 0.02558 0.35153
 N1001 N 0.31600 0.43885 0.65986
 N1002 N 0.34205 0.46501 0.63797
 C1003 C 0.37561 0.44320 0.62508
 C1004 C 0.37046 0.40109 0.63883
 C1005 C 0.33206 0.39965 0.66053
 H1006 H 0.39104 0.37499 0.63262
 H1007 H 0.28732 0.44765 0.67320
 H1008 H 0.33653 0.49707 0.63148
 N1009 N 0.65413 0.91874 0.82438
 N1010 N 0.63175 0.94220 0.85180
 C1011 C 0.61097 0.91639 0.88097
 C1012 C 0.62043 0.87434 0.87194
 C1013 C 0.64829 0.87740 0.83574
 H1014 H 0.60936 0.84594 0.88957
 H1015 H 0.67359 0.93111 0.79883
 H1016 H 0.63049 0.97537 0.85018
 N1017 N 0.18515 0.56432 0.15730
 N1018 N 0.15919 0.53834 0.13499
 C1019 C 0.12592 0.56035 0.12154
 C1020 C 0.13123 0.60245 0.13540
 C1021 C 0.16938 0.60365 0.15775
 H1022 H 0.11081 0.62865 0.12907
 H1023 H 0.21354 0.55529 0.17119
 H1024 H 0.16449 0.50618 0.12876
 N1025 N 0.30643 0.92461 0.13923
 N1026 N 0.33047 0.94858 0.11277
 C1027 C 0.36502 0.92692 0.10331
 C1028 C 0.36311 0.88759 0.12381
 C1029 C 0.32544 0.88748 0.14604
 H1030 H 0.38583 0.86277 0.12278
 H1031 H 0.27756 0.93354 0.15193
 H1032 H 0.32349 0.97931 0.10211
 N1033 N 0.58805 0.30591 0.37072
 N1034 N 0.56255 0.33142 0.39179
 C1035 C 0.58186 0.36975 0.39694
 C1036 C 0.62136 0.36900 0.37801
 C1037 C 0.62379 0.32777 0.36161
 H1038 H 0.64461 0.39463 0.37610
 H1039 H 0.58066 0.27428 0.36218
 H1040 H 0.53256 0.32246 0.40267
 N1041 N 0.91471 0.69456 0.86668
 N1042 N 0.94206 0.66678 0.88687
 C1043 C 0.92134 0.62935 0.89352
 C1044 C 0.88095 0.63170 0.87645
 C1045 C 0.87837 0.67302 0.85954
 H1046 H 0.85691 0.60676 0.87610
 H1047 H 0.92253 0.72582 0.85706
 H1048 H 0.97261 0.67494 0.89651
 N1049 N 0.19520 0.07898 0.63770
 N1050 N 0.17121 0.05457 0.61162
 C1051 C 0.13664 0.07604 0.60178
 C1052 C 0.13852 0.11572 0.62152
 C1053 C 0.17618 0.11621 0.64380
 H1054 H 0.11566 0.14041 0.62027
 H1055 H 0.22394 0.07016 0.65088
 H1056 H 0.17814 0.02363 0.60166
 N1057 N 0.15235 0.41895 0.32275
 N1058 N 0.13039 0.44239 0.35059
 C1059 C 0.11007 0.41657 0.38014
 C1060 C 0.11936 0.37452 0.37084
 C1061 C 0.14666 0.37760 0.33414
 H1062 H 0.10852 0.34611 0.38860
 H1063 H 0.17141 0.43134 0.29686
 H1064 H 0.12901 0.47555 0.34896
 N1065 N 0.35088 0.58296 0.82117
 N1066 N 0.37291 0.55950 0.84894
 C1067 C 0.39144 0.58508 0.88007
 C1068 C 0.38097 0.62699 0.87184
 C1069 C 0.35483 0.62408 0.83411
 H1070 H 0.39043 0.65520 0.89081
 H1071 H 0.33306 0.57072 0.79416
 H1072 H 0.37560 0.52653 0.84617
 N1073 N 0.68625 0.06455 0.66015
 N1074 N 0.66034 0.03824 0.63822
 C1075 C 0.62668 0.05986 0.62521
 C1076 C 0.63166 0.10202 0.63891
 C1077 C 0.67004 0.10369 0.66072
 H1078 H 0.61093 0.12799 0.63271
 H1079 H 0.71492 0.05590 0.67364
 H1080 H 0.66595 0.00617 0.63189
 N1081 N 0.81608 0.93790 0.16083
 N1082 N 0.84217 0.96410 0.13904
 C1083 C 0.87547 0.94218 0.12552
 C1084 C 0.87008 0.89996 0.13874
 C1085 C 0.83182 0.89856 0.16078
 H1086 H 0.89040 0.87377 0.13199
 H1087 H 0.78759 0.94677 0.17458
 H1088 H 0.83687 0.99630 0.13306
 N1089 N 0.80985 0.10934 0.89014
 N1090 N 0.83325 0.08768 0.91819
 C1091 C 0.87349 0.09942 0.91141
 C1092 C 0.87587 0.13051 0.87780
 C1093 C 0.83460 0.13559 0.86528
 H1094 H 0.90343 0.14651 0.86407
 H1095 H 0.77737 0.10665 0.88869
 H1096 H 0.82173 0.06469 0.94098
 N1097 N 0.21182 0.58700 0.61312
 N1098 N 0.18566 0.56087 0.59119
 C1099 C 0.14746 0.57768 0.59126
 C1100 C 0.14963 0.61669 0.61354
 C1101 C 0.19105 0.62145 0.62680
 H1102 H 0.12447 0.63809 0.62010
 H1103 H 0.24325 0.58105 0.61886
 H1104 H 0.19381 0.53169 0.57716
 N1105 N 0.69081 0.89243 0.38949
 N1106 N 0.66726 0.91405 0.41744
 C1107 C 0.62705 0.90206 0.41077
 C1108 C 0.62492 0.87076 0.37722
 C1109 C 0.66630 0.86585 0.36469
 H1110 H 0.59746 0.85447 0.36361
 H1111 H 0.72328 0.89534 0.38809
 H1112 H 0.67870 0.93717 0.44016
 N1113 N 0.28946 0.41494 0.11337
 N1114 N 0.31562 0.44110 0.09151
 C1115 C 0.35379 0.42425 0.09150
 C1116 C 0.35161 0.38520 0.11367
 C1117 C 0.31021 0.38045 0.12694
 H1118 H 0.37677 0.36375 0.12013
 H1119 H 0.25804 0.42091 0.11914
 H1120 H 0.30747 0.47030 0.07755
 N1121 N 0.69585 0.57694 0.13787
 N1122 N 0.67161 0.55279 0.11177
 C1123 C 0.63689 0.57431 0.10268
 C1124 C 0.63887 0.61370 0.12302
 C1125 C 0.67676 0.61400 0.14481
 H1126 H 0.61601 0.63841 0.12229
 H1127 H 0.72485 0.56813 0.15032
 H1128 H 0.67856 0.52204 0.10115
 N1129 N 0.08767 0.80665 0.86941
 N1130 N 0.06208 0.83222 0.89028
 C1131 C 0.08147 0.87048 0.89579
 C1132 C 0.12116 0.86958 0.87727
 C1133 C 0.12361 0.82835 0.86077
 H1134 H 0.14456 0.89508 0.87577
 H1135 H 0.08023 0.77506 0.86071
 H1136 H 0.03198 0.82333 0.90085
 N1137 N 0.41238 0.19438 0.37049
 N1138 N 0.43776 0.16897 0.39188
 C1139 C 0.41844 0.13068 0.39727
 C1140 C 0.37895 0.13141 0.37807
 C1141 C 0.37660 0.17259 0.36131
 H1142 H 0.35566 0.10582 0.37624
 H1143 H 0.41987 0.22595 0.36179
 H1144 H 0.46773 0.17798 0.40283
 N1145 N 0.80646 0.42516 0.63976
 N1146 N 0.83055 0.44902 0.61326
 C1147 C 0.86505 0.42726 0.60385
 C1148 C 0.86307 0.38799 0.62441
 C1149 C 0.82539 0.38801 0.64663
 H1150 H 0.88572 0.36310 0.62341
 H1151 H 0.77759 0.43415 0.65241
 H1152 H 0.82362 0.47973 0.60251
 N1153 N 0.81444 0.61188 0.10568
 N1154 N 0.83635 0.59150 0.07506
 C1155 C 0.87678 0.60372 0.07902
 C1156 C 0.88067 0.63400 0.11368
 C1157 C 0.84016 0.63793 0.12977
 H1158 H 0.90884 0.64981 0.12616
 H1159 H 0.78217 0.60834 0.10956
 H1160 H 0.82381 0.56850 0.05286
 N1161 N 0.68708 0.39126 0.60912
 N1162 N 0.66507 0.41210 0.57898
 C1163 C 0.62468 0.39979 0.58296
 C1164 C 0.62087 0.36902 0.61703
 C1165 C 0.66142 0.36486 0.63279
 H1166 H 0.59275 0.35297 0.62927
 H1167 H 0.71937 0.39472 0.61292
 H1168 H 0.67753 0.43536 0.55707
 N1169 N 0.20718 0.08650 0.38965
 N1170 N 0.18214 0.06138 0.41423
 C1171 C 0.14400 0.07824 0.41562
 C1172 C 0.14506 0.11622 0.39120
 C1173 C 0.18577 0.12028 0.37527
 H1174 H 0.11960 0.13734 0.38498
 H1175 H 0.23839 0.08039 0.38279
 H1176 H 0.19094 0.03270 0.42890
 N1177 N 0.29364 0.91487 0.89070
 N1178 N 0.31879 0.94003 0.91514
 C1179 C 0.35694 0.92318 0.91636
 C1180 C 0.35577 0.88517 0.89198
 C1181 C 0.31499 0.88107 0.87625
 H1182 H 0.38122 0.86406 0.88563
 H1183 H 0.26240 0.92098 0.88395
 H1184 H 0.31006 0.96874 0.92982
 N1185 N 0.15280 0.91607 0.67937
 N1186 N 0.13183 0.93821 0.64939
 C1187 C 0.10919 0.91120 0.62303
 C1188 C 0.11594 0.86963 0.63688
 C1189 C 0.14430 0.87427 0.67268
 H1190 H 0.10330 0.84041 0.62215
 H1191 H 0.17368 0.92952 0.70298
 H1192 H 0.13284 0.97144 0.64728
 N1193 N 0.68557 0.56653 0.33288
 N1194 N 0.66053 0.54161 0.35763
 C1195 C 0.62784 0.56422 0.37166
 C1196 C 0.63248 0.60559 0.35531
 C1197 C 0.66972 0.60578 0.33108
 H1198 H 0.61242 0.63211 0.36151
 H1199 H 0.71362 0.55698 0.31861
 H1200 H 0.66607 0.50973 0.36505
 N1201 N 0.34952 0.08575 0.17975
 N1202 N 0.37079 0.06363 0.15002
 C1203 C 0.39284 0.09069 0.12318
 C1204 C 0.38537 0.13229 0.13646
 C1205 C 0.35723 0.12759 0.17244
 H1206 H 0.39740 0.16152 0.12124
 H1207 H 0.32900 0.07223 0.20365
 H1208 H 0.37032 0.03038 0.14834
 N1209 N 0.81424 0.43251 0.83402
 N1210 N 0.83984 0.45839 0.86151
 C1211 C 0.87298 0.43565 0.87404
 C1212 C 0.86885 0.39472 0.85581
 C1213 C 0.83132 0.39385 0.83162
 H1214 H 0.88962 0.36855 0.86085
 H1215 H 0.78568 0.44146 0.82048
 H1216 H 0.83386 0.48993 0.87007
 N1217 N 0.69610 0.07511 0.86050
 N1218 N 0.67216 0.05138 0.88739
 C1219 C 0.63796 0.07341 0.89737
 C1220 C 0.64016 0.11279 0.87705
 C1221 C 0.67755 0.11258 0.85426
 H1222 H 0.61772 0.13787 0.87846
 H1223 H 0.72450 0.06573 0.84697
 H1224 H 0.67894 0.02059 0.89799
 N1225 N 0.41290 0.69519 0.63088
 N1226 N 0.43860 0.66999 0.60970
 C1227 C 0.41948 0.63167 0.60387
 C1228 C 0.37978 0.63212 0.62256
 C1229 C 0.37710 0.67323 0.63948
 H1230 H 0.35655 0.60645 0.62389
 H1231 H 0.42023 0.72671 0.63996
 H1232 H 0.46857 0.67924 0.59898
 N1233 N 0.08706 0.30794 0.13295
 N1234 N 0.06129 0.33326 0.11200
 C1235 C 0.08092 0.37111 0.10479
 C1236 C 0.12108 0.37020 0.12238
 C1237 C 0.12347 0.32934 0.14006
 H1238 H 0.14483 0.39541 0.12241
 H1239 H 0.07941 0.27673 0.14287
 H1240 H 0.03094 0.32437 0.10227
 N1241 N 0.80527 0.92591 0.36096
 N1242 N 0.82902 0.94947 0.38823
 C1243 C 0.86338 0.92758 0.39789
 C1244 C 0.86148 0.88845 0.37700
 C1245 C 0.82411 0.88868 0.35419
 H1246 H 0.88412 0.86354 0.37802
 H1247 H 0.77682 0.93525 0.34750
 H1248 H 0.82202 0.98008 0.39926
 N1249 N 0.85068 0.58509 0.68144
 N1250 N 0.87151 0.56308 0.65122
 C1251 C 0.89332 0.59024 0.62426
 C1252 C 0.88619 0.63176 0.63799
 C1253 C 0.85847 0.62695 0.67433
 H1254 H 0.89813 0.66105 0.62281
 H1255 H 0.83035 0.57150 0.70549
 H1256 H 0.87093 0.52984 0.64931
 N1257 N 0.65142 0.41568 0.18031
 N1258 N 0.63028 0.43774 0.15039
 C1259 C 0.60808 0.41063 0.12371
 C1260 C 0.61532 0.36907 0.13727
 C1261 C 0.64349 0.37383 0.17325
 H1262 H 0.60318 0.33980 0.12219
 H1263 H 0.67205 0.42925 0.20410
 H1264 H 0.63098 0.47098 0.14844
 N1265 N 0.31554 0.93331 0.33534
 N1266 N 0.34037 0.95825 0.36034
 C1267 C 0.37317 0.93578 0.37432
 C1268 C 0.36881 0.89445 0.35767
 C1269 C 0.33162 0.89417 0.33329
 H1270 H 0.38909 0.86806 0.36361
 H1271 H 0.28751 0.94281 0.32096
 H1272 H 0.33469 0.99009 0.36786
 N1273 N 0.18385 0.07009 0.83337
 N1274 N 0.15947 0.04469 0.85829
 C1275 C 0.12645 0.06665 0.87254
 C1276 C 0.13016 0.10811 0.85615
 C1277 C 0.16722 0.10901 0.83163
 H1278 H 0.10955 0.13418 0.86235
 H1279 H 0.21195 0.06106 0.81881
 H1280 H 0.16561 0.01291 0.86558
 N1281 N 0.18709 0.89143 0.10828
 N1282 N 0.16500 0.91222 0.07817
 C1283 C 0.12469 0.89958 0.08198
 C1284 C 0.12100 0.86866 0.11588
 C1285 C 0.16154 0.86476 0.13174
 H1286 H 0.09297 0.85234 0.12796
 H1287 H 0.21935 0.89509 0.11217
 H1288 H 0.17735 0.93568 0.05642
 N1289 N 0.79323 0.41484 0.39104
 N1290 N 0.81831 0.44002 0.41554
 C1291 C 0.85649 0.42325 0.41678
 C1292 C 0.85541 0.38526 0.39235
 C1293 C 0.81466 0.38109 0.37656
 H1294 H 0.88091 0.36422 0.38597
 H1295 H 0.76199 0.42089 0.38425
 H1296 H 0.80952 0.46871 0.43022
 N1297 N 0.31443 0.11145 0.61001
 N1298 N 0.33656 0.09025 0.58028
 C1299 C 0.37699 0.10233 0.58451
 C1300 C 0.38068 0.13339 0.61841
 C1301 C 0.33999 0.13793 0.63378
 H1302 H 0.40877 0.14947 0.63072
 H1303 H 0.28210 0.10827 0.61341
 H1304 H 0.32410 0.06697 0.55836
 N1305 N 0.70830 0.58602 0.89159
 N1306 N 0.68304 0.56076 0.91574
 C1307 C 0.64495 0.57775 0.91702
 C1308 C 0.64630 0.61596 0.89302
 C1309 C 0.68710 0.62002 0.87741
 H1310 H 0.62093 0.63720 0.88678
 H1311 H 0.73951 0.57983 0.88482
 H1312 H 0.69164 0.53190 0.93015
 N1313 N 0.30671 0.42987 0.85705
 N1314 N 0.33077 0.45313 0.88430
 C1315 C 0.36340 0.42967 0.89646
 C1316 C 0.36001 0.38984 0.87729
 C1317 C 0.32353 0.39127 0.85289
 H1318 H 0.38116 0.36374 0.88039
 H1319 H 0.27960 0.44046 0.84162
 H1320 H 0.32525 0.48460 0.89350
 N1321 N 0.91282 0.19486 0.13141
 N1322 N 0.93854 0.16944 0.11057
 C1323 C 0.91933 0.13113 0.10494
 C1324 C 0.87956 0.13183 0.12337
 C1325 C 0.87693 0.17305 0.13995
 H1326 H 0.85625 0.10623 0.12476
 H1327 H 0.92020 0.22641 0.14032
 H1328 H 0.96856 0.17854 0.09991
 N1329 N 0.58971 0.80691 0.63263
 N1330 N 0.56405 0.83219 0.61148
 C1331 C 0.58319 0.87051 0.60566
 C1332 C 0.62295 0.86991 0.62439
 C1333 C 0.62558 0.82873 0.64130
 H1334 H 0.64623 0.89553 0.62577
 H1335 H 0.58230 0.77540 0.64166
 H1336 H 0.53406 0.82300 0.60076
 N1337 N 0.19472 0.57403 0.35826
 N1338 N 0.17108 0.55061 0.38574
 C1339 C 0.13716 0.57289 0.39617
 C1340 C 0.13923 0.61212 0.37552
 C1341 C 0.17627 0.61156 0.35209
 H1342 H 0.11699 0.63736 0.37721
 H1343 H 0.22287 0.56441 0.34432
 H1344 H 0.17786 0.51985 0.39644
   
