data_POSCAR
  _audit_creation_date              2014-09-24
  _audit_creation_method            'ToBaCCo'
  _symmetry_space_group_name_H-M    'P1'
  _symmetry_Int_Tables_number       1
  _symmetry_cell_setting            triclinic
  loop_
  _symmetry_equiv_pos_as_xyz
 x,y,z
_cell_length_a 79.6942
_cell_length_b 79.6574
_cell_length_c 80.0629
_cell_angle_alpha 89.970000
_cell_angle_beta 89.974700
_cell_angle_gamma 89.946800
loop_
  _atom_site_label
  _atom_site_type_symbol
  _atom_site_fract_x
  _atom_site_fract_y
  _atom_site_fract_z
N1 N 0.35857 0.31226 0.32433
 N2 N 0.35848 0.32402 0.31282
 C3 C 0.37151 0.32152 0.30240
 C4 C 0.38023 0.30735 0.30759
 C5 C 0.37157 0.30184 0.32158
 H6 H 0.37432 0.32934 0.29176
 H7 H 0.37435 0.29096 0.32916
 Cu8 Cu 0.34112 0.34126 0.31282
 Cu9 Cu 0.34162 0.31107 0.34189
 Cu10 Cu 0.31068 0.34164 0.34161
 N11 N 0.32369 0.35841 0.31254
 N12 N 0.31183 0.35845 0.32394
 C13 C 0.30132 0.37135 0.32106
 C14 C 0.30688 0.38000 0.30709
 C15 C 0.32116 0.37139 0.30205
 H16 H 0.29039 0.37409 0.32856
 H17 H 0.32906 0.37425 0.29148
 N18 N 0.31162 0.32360 0.35847
 N19 N 0.32340 0.31196 0.35859
 C20 C 0.32066 0.30153 0.37155
 C21 C 0.30644 0.30681 0.38005
 C22 C 0.30109 0.32087 0.37134
 H23 H 0.32846 0.29085 0.37454
 H24 H 0.29035 0.32863 0.37420
 H25 H 0.32273 0.32277 0.32849
 H26 H 0.33598 0.33632 0.34224
 N27 N 0.35917 0.81250 -0.17645
 N28 N 0.35898 0.82422 -0.18799
 C29 C 0.37190 0.82166 -0.19855
 C30 C 0.38071 0.80749 -0.19339
 C31 C 0.37213 0.80207 -0.17926
 H32 H 0.37455 0.82950 -0.20924
 H33 H 0.37487 0.79123 -0.17162
 Cu34 Cu 0.34151 0.84136 -0.18815
 Cu35 Cu 0.34234 0.81131 -0.15881
 Cu36 Cu 0.31126 0.84170 -0.15901
 N37 N 0.32412 0.85858 -0.18807
 N38 N 0.31225 0.85852 -0.17668
 C39 C 0.30170 0.87140 -0.17953
 C40 C 0.30723 0.88018 -0.19350
 C41 C 0.32156 0.87157 -0.19855
 H42 H 0.29076 0.87398 -0.17198
 H43 H 0.32954 0.87443 -0.20907
 N44 N 0.31236 0.82368 -0.14212
 N45 N 0.32424 0.81214 -0.14200
 C46 C 0.32167 0.80175 -0.12897
 C47 C 0.30744 0.80694 -0.12041
 C48 C 0.30192 0.82092 -0.12917
 H49 H 0.32965 0.79124 -0.12589
 H50 H 0.29108 0.82855 -0.12635
 H51 H 0.32331 0.82280 -0.17220
 H52 H 0.33657 0.83648 -0.15864
 N53 N 0.85803 0.31262 -0.17621
 N54 N 0.85794 0.32440 -0.18769
 C55 C 0.87082 0.32177 -0.19827
 C56 C 0.87951 0.30757 -0.19314
 C57 C 0.87095 0.30213 -0.17907
 H58 H 0.87367 0.32965 -0.20887
 H59 H 0.87380 0.29131 -0.17145
 Cu60 Cu 0.84097 0.34201 -0.18762
 Cu61 Cu 0.84138 0.31165 -0.15844
 Cu62 Cu 0.81058 0.34229 -0.15846
 N63 N 0.82330 0.35892 -0.18766
 N64 N 0.81151 0.35897 -0.17621
 C65 C 0.80103 0.37191 -0.17904
 C66 C 0.80647 0.38054 -0.19312
 C67 C 0.82070 0.37182 -0.19821
 H68 H 0.79027 0.37472 -0.17133
 H69 H 0.82867 0.37463 -0.20875
 N70 N 0.81171 0.32435 -0.14150
 N71 N 0.82347 0.31269 -0.14147
 C72 C 0.82083 0.30227 -0.12848
 C73 C 0.80672 0.30758 -0.11983
 C74 C 0.80129 0.32163 -0.12852
 H75 H 0.82866 0.29160 -0.12556
 H76 H 0.79049 0.32931 -0.12567
 H77 H 0.82263 0.32360 -0.17175
 H78 H 0.83598 0.33704 -0.15800
 N79 N 0.85836 0.81247 0.32367
 N80 N 0.85825 0.82423 0.31217
 C81 C 0.87110 0.82158 0.30156
 C82 C 0.87981 0.80740 0.30671
 C83 C 0.87128 0.80198 0.32081
 H84 H 0.87393 0.82945 0.29094
 H85 H 0.87415 0.79118 0.32845
 Cu86 Cu 0.84124 0.84180 0.31219
 Cu87 Cu 0.84169 0.81149 0.34143
 Cu88 Cu 0.81084 0.84207 0.34133
 N89 N 0.82355 0.85867 0.31211
 N90 N 0.81175 0.85873 0.32356
 C91 C 0.80124 0.87164 0.32069
 C92 C 0.80668 0.88025 0.30659
 C93 C 0.82092 0.87153 0.30151
 H94 H 0.79047 0.87445 0.32839
 H95 H 0.82890 0.87433 0.29098
 N96 N 0.81199 0.82418 0.35835
 N97 N 0.82377 0.81255 0.35840
 C98 C 0.82113 0.80213 0.37140
 C99 C 0.80699 0.80743 0.38002
 C100 C 0.80155 0.82147 0.37131
 H101 H 0.82892 0.79142 0.37430
 H102 H 0.79069 0.82908 0.37409
 H103 H 0.82285 0.82329 0.32803
 H104 H 0.83613 0.83674 0.34179
 N105 N 0.64170 0.68857 0.32424
 N106 N 0.64176 0.67678 0.31277
 C107 C 0.62883 0.67938 0.30228
 C108 C 0.62014 0.69357 0.30741
 C109 C 0.62873 0.69903 0.32145
 H110 H 0.62604 0.67151 0.29168
 H111 H 0.62581 0.70981 0.32912
 Cu112 Cu 0.65883 0.65924 0.31248
 Cu113 Cu 0.65850 0.68952 0.34181
 Cu114 Cu 0.68902 0.65872 0.34190
 N115 N 0.67621 0.64202 0.31286
 N116 N 0.68796 0.64188 0.32436
 C117 C 0.69834 0.62883 0.32160
 C118 C 0.69286 0.62027 0.30754
 C119 C 0.67875 0.62907 0.30237
 H120 H 0.70908 0.62586 0.32928
 H121 H 0.67092 0.62634 0.29173
 N122 N 0.68814 0.67678 0.35872
 N123 N 0.67649 0.68854 0.35867
 C124 C 0.67922 0.69903 0.37157
 C125 C 0.69329 0.69366 0.38024
 C126 C 0.69858 0.67949 0.37166
 H127 H 0.67149 0.70978 0.37446
 H128 H 0.70929 0.67172 0.37460
 H129 H 0.67730 0.67757 0.32852
 H130 H 0.66376 0.66420 0.34211
 N131 N 0.64156 0.18784 -0.17558
 N132 N 0.64149 0.17591 -0.18690
 C133 C 0.62850 0.17845 -0.19737
 C134 C 0.61993 0.19277 -0.19235
 C135 C 0.62866 0.19835 -0.17844
 H136 H 0.62561 0.17054 -0.20793
 H137 H 0.62594 0.20930 -0.17095
 Cu138 Cu 0.65874 0.15856 -0.18685
 Cu139 Cu 0.65850 0.18904 -0.15807
 Cu140 Cu 0.68927 0.15829 -0.15811
 N141 N 0.67603 0.14126 -0.18691
 N142 N 0.68800 0.14133 -0.17564
 C143 C 0.69847 0.12839 -0.17851
 C144 C 0.69282 0.11959 -0.19240
 C145 C 0.67848 0.12824 -0.19735
 H146 H 0.70942 0.12576 -0.17101
 H147 H 0.67044 0.12540 -0.20783
 N148 N 0.68841 0.17648 -0.14138
 N149 N 0.67667 0.18817 -0.14136
 C150 C 0.67939 0.19868 -0.12848
 C151 C 0.69354 0.19340 -0.11988
 C152 C 0.69890 0.17926 -0.12848
 H153 H 0.67156 0.20933 -0.12553
 H154 H 0.70964 0.17153 -0.12558
 H155 H 0.67729 0.17706 -0.17130
 H156 H 0.66402 0.16375 -0.15740
 N157 N 0.14168 0.68843 -0.17604
 N158 N 0.14184 0.67675 -0.18761
 C159 C 0.12888 0.67935 -0.19810
 C160 C 0.12013 0.69346 -0.19285
 C161 C 0.12870 0.69886 -0.17878
 H162 H 0.12608 0.67159 -0.20879
 H163 H 0.12587 0.70967 -0.17115
 Cu164 Cu 0.15908 0.65939 -0.18767
 Cu165 Cu 0.15842 0.68943 -0.15835
 Cu166 Cu 0.18891 0.65851 -0.15815
 N167 N 0.17620 0.64193 -0.18739
 N168 N 0.18779 0.64168 -0.17574
 C169 C 0.19810 0.62857 -0.17839
 C170 C 0.19270 0.62002 -0.19247
 C171 C 0.17873 0.62891 -0.19782
 H172 H 0.20885 0.62567 -0.17070
 H173 H 0.17103 0.62619 -0.20858
 N174 N 0.18796 0.67658 -0.14139
 N175 N 0.17634 0.68836 -0.14147
 C176 C 0.17913 0.69893 -0.12865
 C177 C 0.19323 0.69357 -0.12000
 C178 C 0.19846 0.67933 -0.12850
 H179 H 0.17145 0.70974 -0.12587
 H180 H 0.20920 0.67158 -0.12565
 H181 H 0.17734 0.67748 -0.17160
 H182 H 0.16354 0.66396 -0.15819
 N183 N 0.14143 0.18808 0.32453
 N184 N 0.14146 0.17628 0.31307
 C185 C 0.12846 0.17883 0.30263
 C186 C 0.11981 0.19304 0.30776
 C187 C 0.12848 0.19856 0.32173
 H188 H 0.12566 0.17102 0.29198
 H189 H 0.12573 0.20947 0.32926
 Cu190 Cu 0.15876 0.15899 0.31298
 Cu191 Cu 0.15838 0.18921 0.34205
 Cu192 Cu 0.18916 0.15849 0.34184
 N193 N 0.17606 0.14171 0.31286
 N194 N 0.18794 0.14166 0.32424
 C195 C 0.19840 0.12872 0.32136
 C196 C 0.19280 0.12007 0.30741
 C197 C 0.17855 0.12873 0.30238
 H198 H 0.20934 0.12597 0.32883
 H199 H 0.17067 0.12593 0.29179
 N200 N 0.18831 0.17655 0.35864
 N201 N 0.17658 0.18824 0.35874
 C202 C 0.17936 0.19868 0.37167
 C203 C 0.19355 0.19335 0.38018
 C204 C 0.19885 0.17925 0.37151
 H205 H 0.17161 0.20940 0.37463
 H206 H 0.20955 0.17144 0.37438
 H207 H 0.17723 0.17740 0.32868
 H208 H 0.16389 0.16393 0.34242
 N209 N 0.64140 0.31183 0.67573
 N210 N 0.64139 0.32368 0.68713
 C211 C 0.62838 0.32116 0.69758
 C212 C 0.61979 0.30689 0.69252
 C213 C 0.62850 0.30133 0.67858
 H214 H 0.62552 0.32903 0.70818
 H215 H 0.62582 0.29037 0.67110
 Cu216 Cu 0.65859 0.34105 0.68706
 Cu217 Cu 0.65831 0.31069 0.65816
 Cu218 Cu 0.68888 0.34155 0.65804
 N219 N 0.67580 0.35841 0.68703
 N220 N 0.68762 0.35849 0.67558
 C221 C 0.69804 0.37146 0.67841
 C222 C 0.69245 0.38012 0.69238
 C223 C 0.67826 0.37142 0.69748
 H224 H 0.70897 0.37421 0.67091
 H225 H 0.67042 0.37419 0.70812
 N226 N 0.68805 0.32337 0.64132
 N227 N 0.67641 0.31161 0.64138
 C228 C 0.67919 0.30108 0.62852
 C229 C 0.69328 0.30642 0.61987
 C230 C 0.69854 0.32062 0.62840
 H231 H 0.67144 0.29036 0.62564
 H232 H 0.70922 0.32840 0.62545
 H233 H 0.67714 0.32267 0.67135
 H234 H 0.66364 0.33600 0.65763
 N235 N 0.64171 0.81184 1.17586
 N236 N 0.64188 0.82350 1.18745
 C237 C 0.62890 0.82094 1.19793
 C238 C 0.62012 0.80688 1.19265
 C239 C 0.62868 0.80147 1.17856
 H240 H 0.62617 0.82867 1.20866
 H241 H 0.62571 0.79080 1.17080
 Cu242 Cu 0.65923 0.84070 1.18782
 Cu243 Cu 0.65851 0.81082 1.15824
 Cu244 Cu 0.68911 0.84159 1.15820
 N245 N 0.67631 0.85816 1.18741
 N246 N 0.68798 0.85838 1.17581
 C247 C 0.69830 0.87145 1.17854
 C248 C 0.69285 0.87997 1.19264
 C249 C 0.67882 0.87112 1.19790
 H250 H 0.70900 0.87443 1.17082
 H251 H 0.67107 0.87381 1.20864
 N252 N 0.68819 0.82355 1.14137
 N253 N 0.67652 0.81182 1.14140
 C254 C 0.67928 0.80133 1.12850
 C255 C 0.69338 0.80666 1.11987
 C256 C 0.69867 0.82082 1.12845
 H257 H 0.67155 0.79059 1.12563
 H258 H 0.70940 0.82855 1.12556
 H259 H 0.67752 0.82256 1.17136
 H260 H 0.66383 0.83616 1.15813
 N261 N 0.14175 0.31184 1.17593
 N262 N 0.14176 0.32371 1.18730
 C263 C 0.12882 0.32118 1.19782
 C264 C 0.12019 0.30694 1.19278
 C265 C 0.12883 0.30137 1.17881
 H266 H 0.12586 0.32925 1.20824
 H267 H 0.12596 0.29053 1.17123
 Cu268 Cu 0.15856 0.34147 1.18714
 Cu269 Cu 0.15849 0.31081 1.15827
 Cu270 Cu 0.18911 0.34158 1.15811
 N271 N 0.17623 0.35835 1.18713
 N272 N 0.18806 0.35837 1.17571
 C273 C 0.19851 0.37133 1.17851
 C274 C 0.19296 0.37999 1.19249
 C275 C 0.17876 0.37132 1.19760
 H276 H 0.20934 0.37418 1.17092
 H277 H 0.17072 0.37429 1.20804
 N278 N 0.18815 0.32350 1.14131
 N279 N 0.17648 0.31177 1.14138
 C280 C 0.17918 0.30129 1.12846
 C281 C 0.19326 0.30661 1.11979
 C282 C 0.19857 0.32077 1.12834
 H283 H 0.17141 0.29058 1.12557
 H284 H 0.20926 0.32853 1.12537
 H285 H 0.17725 0.32288 1.17155
 H286 H 0.16395 0.33605 1.15759
 N287 N 0.14141 0.81200 0.67544
 N288 N 0.14137 0.82390 0.68679
 C289 C 0.12839 0.82137 0.69727
 C290 C 0.11981 0.80709 0.69225
 C291 C 0.12852 0.80150 0.67832
 H292 H 0.12554 0.82925 0.70787
 H293 H 0.12586 0.79051 0.67088
 Cu294 Cu 0.15860 0.84121 0.68682
 Cu295 Cu 0.15835 0.81082 0.65792
 Cu296 Cu 0.18895 0.84164 0.65782
 N297 N 0.17577 0.85858 0.68667
 N298 N 0.18765 0.85860 0.67530
 C299 C 0.19809 0.87154 0.67816
 C300 C 0.19248 0.88021 0.69210
 C301 C 0.17825 0.87157 0.69715
 H302 H 0.20910 0.87420 0.67075
 H303 H 0.17037 0.87438 0.70775
 N304 N 0.18814 0.82345 0.64115
 N305 N 0.17648 0.81171 0.64119
 C306 C 0.17927 0.80119 0.62832
 C307 C 0.19339 0.80652 0.61971
 C308 C 0.19864 0.82070 0.62825
 H309 H 0.17152 0.79048 0.62541
 H310 H 0.20933 0.82849 0.62533
 H311 H 0.17717 0.82279 0.67118
 H312 H 0.16372 0.83612 0.65740
 N313 N 0.35839 0.68784 0.67635
 N314 N 0.35825 0.67610 0.68788
 C315 C 0.37115 0.67869 0.69844
 C316 C 0.37989 0.69283 0.69325
 C317 C 0.37135 0.69826 0.67916
 H318 H 0.37399 0.67081 0.70904
 H319 H 0.37423 0.70905 0.67150
 Cu320 Cu 0.34132 0.65848 0.68780
 Cu321 Cu 0.34177 0.68876 0.65856
 Cu322 Cu 0.31110 0.65813 0.65851
 N323 N 0.32370 0.64155 0.68780
 N324 N 0.31197 0.64146 0.67629
 C325 C 0.30153 0.62850 0.67907
 C326 C 0.30694 0.61991 0.69315
 C327 C 0.32109 0.62862 0.69833
 H328 H 0.29080 0.62559 0.67136
 H329 H 0.32893 0.62579 0.70897
 N330 N 0.31221 0.67604 0.64154
 N331 N 0.32391 0.68773 0.64155
 C332 C 0.32128 0.69816 0.62856
 C333 C 0.30720 0.69282 0.61989
 C334 C 0.30183 0.67873 0.62854
 H335 H 0.32908 0.70883 0.62563
 H336 H 0.29111 0.67099 0.62563
 H337 H 0.32303 0.67683 0.67173
 H338 H 0.33648 0.66339 0.65811
 N339 N 0.35866 0.18771 1.17611
 N340 N 0.35853 0.17597 1.18763
 C341 C 0.37149 0.17850 1.19812
 C342 C 0.38025 0.19261 1.19292
 C343 C 0.37168 0.19808 1.17887
 H344 H 0.37426 0.17068 1.20878
 H345 H 0.37460 0.20884 1.17119
 Cu346 Cu 0.34120 0.15875 1.18789
 Cu347 Cu 0.34188 0.18878 1.15846
 Cu348 Cu 0.31124 0.15800 1.15840
 N349 N 0.32407 0.14134 1.18756
 N350 N 0.31236 0.14120 1.17603
 C351 C 0.30202 0.12815 1.17877
 C352 C 0.30747 0.11957 1.19283
 C353 C 0.32155 0.12836 1.19805
 H354 H 0.29125 0.12525 1.17111
 H355 H 0.32935 0.12559 1.20872
 N356 N 0.31221 0.17607 1.14159
 N357 N 0.32387 0.18780 1.14161
 C358 C 0.32111 0.19831 1.12872
 C359 C 0.30702 0.19297 1.12010
 C360 C 0.30173 0.17881 1.12868
 H361 H 0.32883 0.20906 1.12586
 H362 H 0.29099 0.17109 1.12581
 H363 H 0.32289 0.17697 1.17158
 H364 H 0.33653 0.16344 1.15823
 N365 N 0.85850 0.68784 1.17634
 N366 N 0.85838 0.67608 1.18784
 C367 C 0.87126 0.67867 1.19841
 C368 C 0.87998 0.69282 1.19326
 C369 C 0.87144 0.69828 1.17918
 H370 H 0.87411 0.67077 1.20900
 H371 H 0.87434 0.70907 1.17153
 Cu372 Cu 0.84144 0.65851 1.18775
 Cu373 Cu 0.84188 0.68883 1.15855
 Cu374 Cu 0.81114 0.65822 1.15854
 N375 N 0.82382 0.64161 1.18777
 N376 N 0.81205 0.64157 1.17629
 C377 C 0.80157 0.62865 1.17911
 C378 C 0.80701 0.62005 1.19316
 C379 C 0.82121 0.62869 1.19829
 H380 H 0.79082 0.62576 1.17143
 H381 H 0.82910 0.62579 1.20886
 N382 N 0.81226 0.67614 1.14159
 N383 N 0.82398 0.68781 1.14158
 C384 C 0.82134 0.69823 1.12858
 C385 C 0.80724 0.69289 1.11993
 C386 C 0.80186 0.67882 1.12860
 H387 H 0.82915 0.70890 1.12564
 H388 H 0.79112 0.67110 1.12573
 H389 H 0.82312 0.67690 1.17177
 H390 H 0.83653 0.66346 1.15808
 N391 N 0.85835 0.18767 0.67617
 N392 N 0.85808 0.17606 0.68782
 C393 C 0.87100 0.17862 0.69834
 C394 C 0.87986 0.19263 0.69304
 C395 C 0.87138 0.19802 0.67890
 H396 H 0.87359 0.17096 0.70917
 H397 H 0.87426 0.20883 0.67128
 Cu398 Cu 0.84068 0.15894 0.68818
 Cu399 Cu 0.84167 0.18871 0.65845
 Cu400 Cu 0.81096 0.15806 0.65840
 N401 N 0.82358 0.14153 0.68773
 N402 N 0.81197 0.14132 0.67609
 C403 C 0.80160 0.12829 0.67880
 C404 C 0.80697 0.11977 0.69292
 C405 C 0.82101 0.12857 0.69821
 H406 H 0.79084 0.12540 0.67113
 H407 H 0.82866 0.12592 0.70901
 N408 N 0.81202 0.17605 0.64150
 N409 N 0.82373 0.18774 0.64149
 C410 C 0.82107 0.19816 0.62850
 C411 C 0.80696 0.19284 0.61986
 C412 C 0.80161 0.17873 0.62851
 H413 H 0.82891 0.20879 0.62551
 H414 H 0.79093 0.17095 0.62558
 H415 H 0.82261 0.17708 0.67139
 H416 H 0.83633 0.16336 0.65836
 N417 N 0.31188 0.35846 0.67615
 N418 N 0.32349 0.35823 0.68779
 C419 C 0.32088 0.37117 0.69830
 C420 C 0.30685 0.38000 0.69299
 C421 C 0.30150 0.37150 0.67885
 H422 H 0.32858 0.37386 0.70905
 H423 H 0.29083 0.37449 0.67108
 Cu424 Cu 0.34068 0.34086 0.68818
 Cu425 Cu 0.31093 0.34168 0.65850
 Cu426 Cu 0.34167 0.31099 0.65863
 N427 N 0.35808 0.32370 0.68797
 N428 N 0.35837 0.31206 0.67636
 C429 C 0.37142 0.30171 0.67914
 C430 C 0.37986 0.30711 0.69329
 C431 C 0.37098 0.32114 0.69854
 H432 H 0.37439 0.29098 0.67145
 H433 H 0.37367 0.32892 0.70925
 N434 N 0.32374 0.31196 0.64169
 N435 N 0.31202 0.32366 0.64165
 C436 C 0.30161 0.32094 0.62868
 C437 C 0.30698 0.30682 0.62009
 C438 C 0.32108 0.30149 0.62875
 H439 H 0.29086 0.32867 0.62577
 H440 H 0.32889 0.29080 0.62585
 H441 H 0.32256 0.32267 0.67170
 H442 H 0.33623 0.33632 0.65849
 N443 N 0.31202 0.85880 0.17579
 N444 N 0.32389 0.85877 0.18717
 C445 C 0.32132 0.87168 0.19772
 C446 C 0.30706 0.88031 0.19269
 C447 C 0.30150 0.87168 0.17871
 H448 H 0.32918 0.87447 0.20836
 H449 H 0.29053 0.87439 0.17125
 Cu450 Cu 0.34117 0.84149 0.18737
 Cu451 Cu 0.31097 0.84201 0.15817
 Cu452 Cu 0.34192 0.81148 0.15796
 N453 N 0.35864 0.82442 0.18702
 N454 N 0.35879 0.81265 0.17553
 C455 C 0.37177 0.80223 0.17840
 C456 C 0.38032 0.80775 0.19245
 C457 C 0.37155 0.82189 0.19758
 H458 H 0.37454 0.79129 0.17091
 H459 H 0.37428 0.82972 0.20825
 N460 N 0.32380 0.81240 0.14120
 N461 N 0.31200 0.82402 0.14131
 C462 C 0.30150 0.82130 0.12842
 C463 C 0.30690 0.80727 0.11970
 C464 C 0.32111 0.80199 0.12823
 H465 H 0.29075 0.82904 0.12556
 H466 H 0.32893 0.79132 0.12525
 H467 H 0.32293 0.82304 0.17133
 H468 H 0.33629 0.83668 0.15781
 N469 N 0.81210 0.35892 0.17603
 N470 N 0.82384 0.35872 0.18754
 C471 C 0.82123 0.37154 0.19819
 C472 C 0.80715 0.38039 0.19302
 C473 C 0.80172 0.37192 0.17888
 H474 H 0.82897 0.37417 0.20894
 H475 H 0.79101 0.37494 0.17118
 Cu476 Cu 0.84105 0.34141 0.18749
 Cu477 Cu 0.81105 0.34223 0.15826
 Cu478 Cu 0.84194 0.31134 0.15834
 N479 N 0.85837 0.32420 0.18766
 N480 N 0.85859 0.31245 0.17616
 C481 C 0.87156 0.30205 0.17907
 C482 C 0.87999 0.30748 0.19323
 C483 C 0.87115 0.32158 0.19837
 H484 H 0.87451 0.29127 0.17144
 H485 H 0.87380 0.32937 0.20908
 N486 N 0.82396 0.31249 0.14136
 N487 N 0.81224 0.32421 0.14133
 C488 C 0.80181 0.32150 0.12839
 C489 C 0.80715 0.30737 0.11980
 C490 C 0.82125 0.30202 0.12843
 H491 H 0.79103 0.32919 0.12553
 H492 H 0.82898 0.29127 0.12555
 H493 H 0.82273 0.32307 0.17104
 H494 H 0.83615 0.33645 0.15763
 N495 N 0.81189 0.85892 0.67610
 N496 N 0.82362 0.85882 0.68762
 C497 C 0.82100 0.87173 0.69815
 C498 C 0.80683 0.88043 0.69298
 C499 C 0.80142 0.87188 0.67890
 H500 H 0.82892 0.87460 0.70871
 H501 H 0.79072 0.87485 0.67115
 Cu502 Cu 0.84129 0.84193 0.68763
 Cu503 Cu 0.81103 0.84226 0.65833
 Cu504 Cu 0.84168 0.81161 0.65841
 N505 N 0.85815 0.82423 0.68774
 N506 N 0.85828 0.81250 0.67621
 C507 C 0.87124 0.80204 0.67901
 C508 C 0.87978 0.80745 0.69310
 C509 C 0.87105 0.82161 0.69829
 H510 H 0.87418 0.79130 0.67131
 H511 H 0.87396 0.82957 0.70881
 N512 N 0.82386 0.81268 0.64135
 N513 N 0.81214 0.82437 0.64133
 C514 C 0.80169 0.82163 0.62839
 C515 C 0.80707 0.80752 0.61977
 C516 C 0.82117 0.80219 0.62843
 H517 H 0.79085 0.82927 0.62557
 H518 H 0.82888 0.79140 0.62561
 H519 H 0.82293 0.82355 0.67160
 H520 H 0.83634 0.83695 0.65794
 N521 N 0.68770 0.64135 0.67552
 N522 N 0.67588 0.64143 0.68697
 C523 C 0.67835 0.62840 0.69741
 C524 C 0.69254 0.61969 0.69230
 C525 C 0.69812 0.62835 0.67833
 H526 H 0.67052 0.62563 0.70806
 H527 H 0.70907 0.62562 0.67084
 Cu528 Cu 0.65868 0.65883 0.68704
 Cu529 Cu 0.68896 0.65832 0.65801
 Cu530 Cu 0.65839 0.68925 0.65817
 N531 N 0.64148 0.67623 0.68713
 N532 N 0.64149 0.68811 0.67574
 C533 C 0.62860 0.69864 0.67862
 C534 C 0.61990 0.69307 0.69256
 C535 C 0.62849 0.67876 0.69760
 H536 H 0.62592 0.70963 0.67116
 H537 H 0.62564 0.67089 0.70820
 N538 N 0.67649 0.68831 0.64138
 N539 N 0.68813 0.67653 0.64131
 C540 C 0.69862 0.67928 0.62840
 C541 C 0.69338 0.69351 0.61988
 C542 C 0.67928 0.69886 0.62853
 H543 H 0.70930 0.67148 0.62545
 H544 H 0.67154 0.70961 0.62566
 H545 H 0.67723 0.67720 0.67135
 H546 H 0.66373 0.66393 0.65762
 N547 N 0.68790 0.14121 0.17565
 N548 N 0.67605 0.14125 0.18706
 C549 C 0.67858 0.12829 0.19758
 C550 C 0.69278 0.11959 0.19249
 C551 C 0.69833 0.12823 0.17849
 H552 H 0.67070 0.12550 0.20819
 H553 H 0.70920 0.12541 0.17093
 Cu554 Cu 0.65860 0.15839 0.18713
 Cu555 Cu 0.68902 0.15808 0.15809
 Cu556 Cu 0.65839 0.18899 0.15830
 N557 N 0.64161 0.17599 0.18727
 N558 N 0.64161 0.18791 0.17594
 C559 C 0.62871 0.19840 0.17887
 C560 C 0.62007 0.19282 0.19284
 C561 C 0.62869 0.17853 0.19783
 H562 H 0.62592 0.20932 0.17135
 H563 H 0.62585 0.17057 0.20838
 N564 N 0.67641 0.18801 0.14142
 N565 N 0.68807 0.17624 0.14133
 C566 C 0.69847 0.17896 0.12835
 C567 C 0.69317 0.19315 0.11982
 C568 C 0.67910 0.19850 0.12851
 H569 H 0.70913 0.17114 0.12534
 H570 H 0.67132 0.20921 0.12560
 H571 H 0.67724 0.17694 0.17141
 H572 H 0.66387 0.16378 0.15757
 N573 N 0.18774 0.64158 0.17565
 N574 N 0.17589 0.64169 0.18706
 C575 C 0.17835 0.62874 0.19760
 C576 C 0.19252 0.61998 0.19251
 C577 C 0.19809 0.62854 0.17849
 H578 H 0.17040 0.62590 0.20816
 H579 H 0.20888 0.62560 0.17088
 Cu580 Cu 0.15870 0.65904 0.18698
 Cu581 Cu 0.18902 0.65837 0.15795
 Cu582 Cu 0.15840 0.68927 0.15783
 N583 N 0.14151 0.67640 0.18690
 N584 N 0.14153 0.68823 0.17546
 C585 C 0.12856 0.69869 0.17824
 C586 C 0.11991 0.69321 0.19225
 C587 C 0.12855 0.67898 0.19739
 H588 H 0.12565 0.70944 0.17054
 H589 H 0.12566 0.67111 0.20799
 N590 N 0.17655 0.68821 0.14106
 N591 N 0.18821 0.67645 0.14111
 C592 C 0.19871 0.67910 0.12818
 C593 C 0.19346 0.69323 0.11952
 C594 C 0.17933 0.69864 0.12810
 H595 H 0.20935 0.67122 0.12525
 H596 H 0.17162 0.70939 0.12517
 H597 H 0.17719 0.67730 0.17100
 H598 H 0.16375 0.66392 0.15737
 N599 N 0.18751 0.14121 0.67588
 N600 N 0.17562 0.14114 0.68725
 C601 C 0.17825 0.12817 0.69776
 C602 C 0.19260 0.11967 0.69275
 C603 C 0.19805 0.12833 0.67873
 H604 H 0.17038 0.12520 0.70835
 H605 H 0.20872 0.12540 0.67094
 Cu606 Cu 0.15822 0.15835 0.68735
 Cu607 Cu 0.18863 0.15806 0.65829
 Cu608 Cu 0.15808 0.18899 0.65852
 N609 N 0.14121 0.17596 0.68749
 N610 N 0.14136 0.18793 0.67621
 C611 C 0.12859 0.19857 0.67916
 C612 C 0.11993 0.19309 0.69316
 C613 C 0.12831 0.17863 0.69806
 H614 H 0.12571 0.20930 0.67143
 H615 H 0.12526 0.17070 0.70857
 N616 N 0.17603 0.18796 0.64160
 N617 N 0.18766 0.17618 0.64150
 C618 C 0.19813 0.17895 0.62857
 C619 C 0.19283 0.19314 0.62001
 C620 C 0.17879 0.19852 0.62874
 H621 H 0.20894 0.17127 0.62575
 H622 H 0.17114 0.20938 0.62603
 H623 H 0.17679 0.17676 0.67190
 H624 H 0.16328 0.16353 0.65796
 N625 N 0.31200 0.64149 0.32339
 N626 N 0.32356 0.64182 0.31170
 C627 C 0.32091 0.62902 0.30104
 C628 C 0.30691 0.62015 0.30633
 C629 C 0.30164 0.62847 0.32061
 H630 H 0.32860 0.62640 0.29024
 H631 H 0.29115 0.62528 0.32856
 Cu632 Cu 0.34065 0.65923 0.31164
 Cu633 Cu 0.31110 0.65804 0.34134
 Cu634 Cu 0.34174 0.68886 0.34123
 N635 N 0.35798 0.67642 0.31161
 N636 N 0.35824 0.68802 0.32326
 C637 C 0.37122 0.69842 0.32047
 C638 C 0.37959 0.69315 0.30621
 C639 C 0.37077 0.67910 0.30095
 H640 H 0.37437 0.70893 0.32840
 H641 H 0.37346 0.67137 0.29020
 N642 N 0.32398 0.68760 0.35836
 N643 N 0.31231 0.67586 0.35842
 C644 C 0.30201 0.67845 0.37151
 C645 C 0.30739 0.69253 0.38016
 C646 C 0.32139 0.69795 0.37141
 H647 H 0.29132 0.67068 0.37445
 H648 H 0.32915 0.70866 0.37430
 H649 H 0.32266 0.67714 0.32832
 H650 H 0.33650 0.66342 0.34139
 N651 N 0.31174 0.14121 0.82374
 N652 N 0.32331 0.14149 0.81205
 C653 C 0.32070 0.12861 0.80148
 C654 C 0.30671 0.11974 0.80682
 C655 C 0.30138 0.12817 0.82101
 H656 H 0.32844 0.12591 0.79075
 H657 H 0.29078 0.12511 0.82885
 Cu658 Cu 0.34082 0.15852 0.81203
 Cu659 Cu 0.31092 0.15777 0.84162
 Cu660 Cu 0.34165 0.18842 0.84157
 N661 N 0.35789 0.17600 0.81198
 N662 N 0.35820 0.18755 0.82367
 C663 C 0.37125 0.19789 0.82094
 C664 C 0.37967 0.19258 0.80673
 C665 C 0.37076 0.17861 0.80139
 H666 H 0.37427 0.20854 0.82873
 H667 H 0.37351 0.17083 0.79070
 N668 N 0.32384 0.18728 0.85865
 N669 N 0.31213 0.17559 0.85867
 C670 C 0.30174 0.17826 0.87167
 C671 C 0.30711 0.19234 0.88032
 C672 C 0.32120 0.19768 0.87165
 H673 H 0.29098 0.17055 0.87455
 H674 H 0.32898 0.20838 0.87455
 H675 H 0.32270 0.17667 0.82855
 H676 H 0.33631 0.16304 0.84182
 N677 N 0.81227 0.64112 0.82407
 N678 N 0.82403 0.64121 0.81256
 C679 C 0.82146 0.62827 0.80205
 C680 C 0.80730 0.61957 0.80722
 C681 C 0.80182 0.62818 0.82126
 H682 H 0.82926 0.62548 0.79137
 H683 H 0.79097 0.62539 0.82885
 Cu684 Cu 0.84126 0.65852 0.81238
 Cu685 Cu 0.81120 0.65795 0.84171
 Cu686 Cu 0.84190 0.68865 0.84160
 N687 N 0.85857 0.67577 0.81241
 N688 N 0.85867 0.68753 0.82391
 C689 C 0.87160 0.69798 0.82105
 C690 C 0.88018 0.69251 0.80700
 C691 C 0.87148 0.67835 0.80185
 H692 H 0.87434 0.70889 0.82857
 H693 H 0.87431 0.67051 0.79121
 N694 N 0.82391 0.68770 0.85849
 N695 N 0.81220 0.67600 0.85853
 C696 C 0.80180 0.67870 0.87152
 C697 C 0.80716 0.69281 0.88013
 C698 C 0.82125 0.69814 0.87146
 H699 H 0.79110 0.67094 0.87446
 H700 H 0.82907 0.70880 0.87438
 H701 H 0.82292 0.67691 0.82836
 H702 H 0.83646 0.66340 0.84189
 N703 N 0.81226 0.14111 0.32386
 N704 N 0.82387 0.14134 0.31222
 C705 C 0.82130 0.12841 0.30170
 C706 C 0.80728 0.11957 0.30701
 C707 C 0.80191 0.12806 0.32115
 H708 H 0.82902 0.12573 0.29094
 H709 H 0.79125 0.12506 0.32894
 Cu710 Cu 0.84102 0.15874 0.31183
 Cu711 Cu 0.81124 0.15785 0.34154
 Cu712 Cu 0.84190 0.18856 0.34146
 N713 N 0.85838 0.17591 0.31210
 N714 N 0.85862 0.18753 0.32373
 C715 C 0.87163 0.19790 0.32098
 C716 C 0.88011 0.19254 0.30682
 C717 C 0.87128 0.17851 0.30154
 H718 H 0.87455 0.20863 0.32868
 H719 H 0.87400 0.17077 0.29080
 N720 N 0.82394 0.18756 0.35840
 N721 N 0.81225 0.17585 0.35842
 C722 C 0.80186 0.17850 0.37143
 C723 C 0.80719 0.19261 0.38006
 C724 C 0.82128 0.19796 0.37139
 H725 H 0.79119 0.17070 0.37439
 H726 H 0.82911 0.20861 0.37436
 H727 H 0.82288 0.17687 0.32841
 H728 H 0.83659 0.16319 0.34157
 N729 N 0.68763 0.35876 0.32440
 N730 N 0.67582 0.35872 0.31295
 C731 C 0.67831 0.37175 0.30251
 C732 C 0.69247 0.38044 0.30767
 C733 C 0.69803 0.37175 0.32163
 H734 H 0.67046 0.37458 0.29189
 H735 H 0.70897 0.37445 0.32913
 Cu736 Cu 0.65859 0.34140 0.31295
 Cu737 Cu 0.68886 0.34181 0.34193
 Cu738 Cu 0.65827 0.31096 0.34178
 N739 N 0.64139 0.32403 0.31281
 N740 N 0.64139 0.31215 0.32420
 C741 C 0.62847 0.30168 0.32138
 C742 C 0.61977 0.30727 0.30744
 C743 C 0.62839 0.32153 0.30236
 H744 H 0.62582 0.29070 0.32884
 H745 H 0.62552 0.32944 0.29179
 N746 N 0.67636 0.31185 0.35855
 N747 N 0.68800 0.32361 0.35862
 C748 C 0.69850 0.32082 0.37152
 C749 C 0.69325 0.30661 0.38003
 C750 C 0.67915 0.30129 0.37140
 H751 H 0.70918 0.32860 0.37445
 H752 H 0.67141 0.29055 0.37427
 H753 H 0.67710 0.32296 0.32859
 H754 H 0.66359 0.33627 0.34236
 N755 N 0.68775 0.85852 0.82437
 N756 N 0.67614 0.85827 0.81273
 C757 C 0.67867 0.87126 0.80224
 C758 C 0.69266 0.88014 0.80757
 C759 C 0.69805 0.87162 0.82169
 H760 H 0.67097 0.87393 0.79147
 H761 H 0.70870 0.87462 0.82947
 Cu762 Cu 0.65907 0.84078 0.81233
 Cu763 Cu 0.68887 0.84173 0.84199
 Cu764 Cu 0.65837 0.81087 0.84190
 N765 N 0.64176 0.82353 0.81265
 N766 N 0.64161 0.81186 0.82425
 C767 C 0.62861 0.80145 0.82154
 C768 C 0.62004 0.80684 0.80744
 C769 C 0.62880 0.82093 0.80216
 H770 H 0.62566 0.79076 0.82931
 H771 H 0.62605 0.82867 0.79143
 N772 N 0.67634 0.81192 0.85879
 N773 N 0.68796 0.82369 0.85883
 C774 C 0.69842 0.82098 0.87177
 C775 C 0.69317 0.80679 0.88034
 C776 C 0.67910 0.80142 0.87169
 H777 H 0.70912 0.82876 0.87466
 H778 H 0.67141 0.79065 0.87455
 H779 H 0.67736 0.82266 0.82880
 H780 H 0.66359 0.83622 0.84201
 N781 N 0.18742 0.35844 0.82451
 N782 N 0.17572 0.35829 0.81296
 C783 C 0.17825 0.37129 0.80250
 C784 C 0.19235 0.38005 0.80771
 C785 C 0.19779 0.37147 0.82178
 H786 H 0.17053 0.37398 0.79174
 H787 H 0.20856 0.37436 0.82945
 Cu788 Cu 0.15866 0.34079 0.81252
 Cu789 Cu 0.18862 0.34153 0.84203
 Cu790 Cu 0.15810 0.31069 0.84194
 N791 N 0.14132 0.32355 0.81287
 N792 N 0.14125 0.31179 0.82438
 C793 C 0.12830 0.30133 0.82162
 C794 C 0.11969 0.30678 0.80759
 C795 C 0.12835 0.32098 0.80241
 H796 H 0.12545 0.29053 0.82928
 H797 H 0.12558 0.32874 0.79170
 N798 N 0.17614 0.31164 0.85875
 N799 N 0.18777 0.32340 0.85880
 C800 C 0.19824 0.32068 0.87173
 C801 C 0.19299 0.30648 0.88030
 C802 C 0.17891 0.30113 0.87165
 H803 H 0.20891 0.32849 0.87466
 H804 H 0.17116 0.29040 0.87455
 H805 H 0.17706 0.32254 0.82880
 H806 H 0.16338 0.33602 0.84215
 N807 N 0.18778 0.85849 0.32423
 N808 N 0.17617 0.85824 0.31260
 C809 C 0.17870 0.87121 0.30210
 C810 C 0.19269 0.88009 0.30741
 C811 C 0.19808 0.87158 0.32154
 H812 H 0.17100 0.87388 0.29132
 H813 H 0.20871 0.87461 0.32934
 Cu814 Cu 0.15912 0.84073 0.31214
 Cu815 Cu 0.18889 0.84167 0.34185
 Cu816 Cu 0.15839 0.81080 0.34173
 N817 N 0.14180 0.82348 0.31249
 N818 N 0.14163 0.81180 0.32407
 C819 C 0.12863 0.80141 0.32134
 C820 C 0.12009 0.80682 0.30724
 C821 C 0.12886 0.82091 0.30199
 H822 H 0.12564 0.79073 0.32912
 H823 H 0.12612 0.82866 0.29126
 N824 N 0.17635 0.81183 0.35862
 N825 N 0.18797 0.82360 0.35867
 C826 C 0.19843 0.82089 0.37161
 C827 C 0.19318 0.80671 0.38017
 C828 C 0.17912 0.80133 0.37152
 H829 H 0.20913 0.82867 0.37450
 H830 H 0.17142 0.79055 0.37437
 H831 H 0.17738 0.82261 0.32864
 H832 H 0.16361 0.83616 0.34185
 C833 C 0.25636 1.01542 0.24414
 C834 C 0.24346 1.01548 0.25631
 C835 C 0.23718 1.00010 0.26218
 C836 C 0.24341 0.98467 0.25637
 C837 C 0.25633 0.98462 0.24421
 C838 C 0.26261 1.00000 0.23836
 H839 H 0.27224 0.99997 0.22879
 H840 H 0.22754 1.00014 0.27174
 C841 C 0.25618 0.51533 0.74428
 C842 C 0.24328 0.51535 0.75648
 C843 C 0.23703 0.49995 0.76234
 C844 C 0.24324 0.48452 0.75649
 C845 C 0.25614 0.48451 0.74430
 C846 C 0.26239 0.49991 0.73845
 H847 H 0.27198 0.49989 0.72884
 H848 H 0.22743 0.49997 0.77195
 C849 C 0.75666 -0.01574 0.25583
 C850 C 0.74364 -0.01572 0.24379
 C851 C 0.73737 -0.00031 0.23798
 C852 C 0.74368 0.01509 0.24375
 C853 C 0.75668 0.01507 0.25583
 C854 C 0.76298 -0.00036 0.26160
 H855 H 0.77268 -0.00040 0.27109
 H856 H 0.72769 -0.00031 0.22848
 C857 C 0.75638 0.48442 0.75590
 C858 C 0.74344 0.48442 0.74377
 C859 C 0.73722 0.49985 0.73792
 C860 C 0.74350 0.51526 0.74371
 C861 C 0.75644 0.51524 0.75585
 C862 C 0.76268 0.49982 0.76168
 H863 H 0.77234 0.49979 0.77122
 H864 H 0.72758 0.49986 0.72836
 C865 C 0.25611 0.48453 0.25582
 C866 C 0.24337 0.48458 0.24349
 C867 C 0.23722 0.50000 0.23758
 C868 C 0.24340 0.51539 0.24350
 C869 C 0.25614 0.51535 0.25585
 C870 C 0.26228 0.49992 0.26176
 H871 H 0.27205 0.49988 0.27118
 H872 H 0.22744 0.50002 0.22817
 C873 C 0.75613 1.01570 0.74451
 C874 C 0.74318 1.01572 0.75664
 C875 C 0.73693 1.00030 0.76247
 C876 C 0.74321 0.98489 0.75666
 C877 C 0.75618 0.98489 0.74452
 C878 C 0.76241 1.00030 0.73869
 H879 H 0.77203 1.00032 0.72911
 H880 H 0.72730 1.00030 0.77204
 C881 C 0.75643 0.51558 0.24435
 C882 C 0.74349 0.51561 0.25648
 C883 C 0.73725 0.50022 0.26235
 C884 C 0.74349 0.48480 0.25652
 C885 C 0.75637 0.48479 0.24433
 C886 C 0.76268 0.50018 0.23853
 H887 H 0.77233 0.50018 0.22898
 H888 H 0.72764 0.50023 0.27194
 C889 C 0.25657 -0.01588 0.75586
 C890 C 0.24357 -0.01587 0.74379
 C891 C 0.23724 -0.00047 0.73798
 C892 C 0.24348 0.01495 0.74376
 C893 C 0.25647 0.01496 0.75585
 C894 C 0.26281 -0.00046 0.76164
 H895 H 0.27248 -0.00045 0.77116
 H896 H 0.22756 -0.00051 0.72847
 C897 C 0.24393 0.25591 1.01538
 C898 C 0.25632 0.24314 1.01538
 C899 C 0.26224 0.23692 1.00005
 C900 C 0.25626 0.24307 0.98472
 C901 C 0.24389 0.25587 0.98472
 C902 C 0.23797 0.26207 1.00005
 H903 H 0.22822 0.27158 1.00005
 H904 H 0.27198 0.22742 1.00005
 C905 C 0.24420 0.75612 0.51520
 C906 C 0.25658 0.74333 0.51521
 C907 C 0.26251 0.73714 0.49987
 C908 C 0.25656 0.74331 0.48454
 C909 C 0.24420 0.75611 0.48454
 C910 C 0.23827 0.76231 0.49987
 H911 H 0.22853 0.77182 0.49987
 H912 H 0.27225 0.72763 0.49987
 C913 C 0.25677 0.75664 -0.01564
 C914 C 0.24418 0.74408 -0.01564
 C915 C 0.23809 0.73803 -0.00031
 C916 C 0.24412 0.74408 0.01503
 C917 C 0.25667 0.75668 0.01504
 C918 C 0.26276 0.76272 -0.00029
 H919 H 0.27237 0.77235 -0.00028
 H920 H 0.22848 0.72841 -0.00032
 C921 C 0.25624 0.25640 0.48492
 C922 C 0.24371 0.24377 0.48493
 C923 C 0.23764 0.23773 0.50027
 C924 C 0.24366 0.24382 0.51559
 C925 C 0.25623 0.25640 0.51559
 C926 C 0.26228 0.26247 0.50025
 H927 H 0.27187 0.27210 0.50025
 H928 H 0.22805 0.22809 0.50028
 C929 C 0.74411 0.75614 1.01537
 C930 C 0.75647 0.74334 1.01537
 C931 C 0.76241 0.73715 1.00004
 C932 C 0.75649 0.74335 0.98471
 C933 C 0.74413 0.75615 0.98471
 C934 C 0.73819 0.76233 1.00004
 H935 H 0.72845 0.77185 1.00004
 H936 H 0.77214 0.72762 1.00005
 C937 C 0.74384 0.25591 0.51520
 C938 C 0.75620 0.24312 0.51520
 C939 C 0.76215 0.23692 0.49988
 C940 C 0.75625 0.24311 0.48454
 C941 C 0.74389 0.25592 0.48453
 C942 C 0.73793 0.26210 0.49986
 H943 H 0.72819 0.27161 0.49985
 H944 H 0.77188 0.22738 0.49989
 C945 C 0.75615 0.25689 -0.01524
 C946 C 0.74384 0.24405 -0.01523
 C947 C 0.73795 0.23785 0.00012
 C948 C 0.74388 0.24404 0.01546
 C949 C 0.75620 0.25686 0.01544
 C950 C 0.76208 0.26308 0.00009
 H951 H 0.77176 0.27264 0.00007
 H952 H 0.72824 0.22833 0.00013
 C953 C 0.75634 0.75695 0.48464
 C954 C 0.74399 0.74416 0.48466
 C955 C 0.73807 0.73796 0.49999
 C956 C 0.74401 0.74413 0.51532
 C957 C 0.75636 0.75692 0.51530
 C958 C 0.76228 0.76312 0.49996
 H959 H 0.77200 0.77263 0.49994
 H960 H 0.72835 0.72845 0.49999
 C961 C 1.01549 0.24390 0.25628
 C962 C 1.01549 0.25659 0.24387
 C963 C 1.00009 0.26270 0.23790
 C964 C 0.98469 0.25653 0.24381
 C965 C 0.98468 0.24385 0.25625
 C966 C 1.00009 0.23777 0.26224
 H967 H 1.00010 0.22806 0.27173
 H968 H 1.00008 0.27245 0.22845
 C969 C 0.51540 0.24353 0.75644
 C970 C 0.51538 0.25616 0.74397
 C971 C 0.49996 0.26225 0.73800
 C972 C 0.48456 0.25614 0.74398
 C973 C 0.48458 0.24347 0.75642
 C974 C 0.50000 0.23740 0.76242
 H975 H 0.50001 0.22770 0.77192
 H976 H 0.49994 0.27195 0.72850
 C977 C -0.01575 0.25633 0.75645
 C978 C -0.01575 0.24365 0.74403
 C979 C -0.00033 0.23754 0.73805
 C980 C 0.01508 0.24359 0.74404
 C981 C 0.01508 0.25627 0.75647
 C982 C -0.00033 0.26238 0.76245
 H983 H -0.00032 0.27205 0.77197
 H984 H -0.00034 0.22789 0.72850
 C985 C 0.48461 0.25630 0.25632
 C986 C 0.48463 0.24344 0.24410
 C987 C 0.50004 0.23721 0.23824
 C988 C 0.51544 0.24346 0.24406
 C989 C 0.51543 0.25632 0.25628
 C990 C 0.50002 0.26253 0.26216
 H991 H 0.50000 0.27213 0.27176
 H992 H 0.50005 0.22761 0.22865
 C993 C 1.01536 0.74387 0.75619
 C994 C 1.01536 0.75649 0.74371
 C995 C 0.99995 0.76257 0.73770
 C996 C 0.98454 0.75649 0.74369
 C997 C 0.98455 0.74384 0.75615
 C998 C 0.99996 0.73776 0.76216
 H999 H 0.99996 0.72808 0.77169
 H1000 H 0.99996 0.77225 0.72818
 C1001 C 0.51542 0.74388 0.25617
 C1002 C 0.51541 0.75654 0.24373
 C1003 C 0.50002 0.76263 0.23772
 C1004 C 0.48462 0.75650 0.24365
 C1005 C 0.48461 0.74382 0.25609
 C1006 C 0.50002 0.73775 0.26211
 H1007 H 0.50002 0.72803 0.27160
 H1008 H 0.50002 0.77233 0.22821
 C1009 C -0.01538 0.75642 0.25622
 C1010 C -0.01536 0.74374 0.24381
 C1011 C 0.00006 0.73763 0.23784
 C1012 C 0.01546 0.74374 0.24381
 C1013 C 0.01543 0.75641 0.25623
 C1014 C 0.00002 0.76253 0.26219
 H1015 H 0.00000 0.77224 0.27167
 H1016 H 0.00008 0.72794 0.22835
 C1017 C 0.48453 0.75643 0.75639
 C1018 C 0.48455 0.74384 0.74388
 C1019 C 0.49998 0.73776 0.73791
 C1020 C 0.51538 0.74380 0.74397
 C1021 C 0.51534 0.75637 0.75650
 C1022 C 0.49991 0.76244 0.76248
 H1023 H 0.49987 0.77205 0.77206
 H1024 H 0.50001 0.72811 0.72836
 C1025 C 0.42415 0.28503 0.28497
 C1026 C 0.41720 0.29991 0.27849
 C1027 C 0.40302 0.30715 0.28583
 C1028 C 0.39531 0.29964 0.29976
 C1029 C 0.40219 0.28469 0.30614
 C1030 C 0.41645 0.27753 0.29889
 C1031 C 0.43954 0.27754 0.27748
 C1032 C 0.44168 0.26001 0.27675
 C1033 C 0.45629 0.25304 0.26999
 C1034 C 0.46893 0.26344 0.26346
 C1035 C 0.46680 0.28092 0.26418
 C1036 C 0.45236 0.28790 0.27121
 H1037 H 0.39818 0.31866 0.28052
 H1038 H 0.39667 0.27846 0.31680
 H1039 H 0.45771 0.23952 0.26987
 H1040 H 0.47638 0.28921 0.25929
 H1041 H 0.42162 0.26625 0.30443
 H1042 H 0.43201 0.25165 0.28132
 H1043 H 0.42267 0.30595 0.26766
 H1044 H 0.45139 0.30143 0.27196
 C1045 C 0.42395 0.78550 0.78438
 C1046 C 0.41657 0.79992 0.77742
 C1047 C 0.40228 0.80710 0.78464
 C1048 C 0.39499 0.80012 0.79912
 C1049 C 0.40235 0.78553 0.80590
 C1050 C 0.41657 0.77834 0.79862
 C1051 C 0.43944 0.77808 0.77706
 C1052 C 0.44183 0.77751 0.75966
 C1053 C 0.45646 0.77056 0.75288
 C1054 C 0.46886 0.76377 0.76336
 C1055 C 0.46653 0.76440 0.78072
 C1056 C 0.45203 0.77150 0.78750
 H1057 H 0.39715 0.81822 0.77881
 H1058 H 0.39727 0.77949 0.81688
 H1059 H 0.45809 0.77049 0.73946
 H1060 H 0.47595 0.75933 0.78907
 H1061 H 0.42177 0.76707 0.80416
 H1062 H 0.43231 0.78228 0.75126
 H1063 H 0.42206 0.80593 0.76658
 H1064 H 0.45077 0.77201 0.80095
 C1065 C -0.07634 0.28544 0.78452
 C1066 C -0.08303 0.27901 0.79947
 C1067 C -0.09727 0.28620 0.80670
 C1068 C -0.10536 0.29991 0.79909
 C1069 C -0.09880 0.30622 0.78404
 C1070 C -0.08445 0.29912 0.77687
 C1071 C -0.06085 0.27803 0.77715
 C1072 C -0.05876 0.27687 0.75973
 C1073 C -0.04411 0.26997 0.75293
 C1074 C -0.03142 0.26371 0.76341
 C1075 C -0.03349 0.26490 0.78078
 C1076 C -0.04795 0.27206 0.78756
 H1077 H -0.10183 0.28096 0.81830
 H1078 H -0.10467 0.31670 0.77774
 H1079 H -0.04272 0.26949 0.73949
 H1080 H -0.02388 0.26023 0.78914
 H1081 H -0.07957 0.30454 0.76546
 H1082 H -0.06851 0.28114 0.75132
 H1083 H -0.07733 0.26830 0.80557
 H1084 H -0.04891 0.27308 0.80101
 C1085 C -0.07597 0.78539 0.28440
 C1086 C -0.08410 0.79905 0.27675
 C1087 C -0.09846 0.80613 0.28392
 C1088 C -0.10502 0.79979 0.29897
 C1089 C -0.09690 0.78610 0.30658
 C1090 C -0.08264 0.77895 0.29934
 C1091 C -0.06049 0.77799 0.27701
 C1092 C -0.04756 0.77203 0.28741
 C1093 C -0.03309 0.76491 0.28061
 C1094 C -0.03105 0.76374 0.26323
 C1095 C -0.04377 0.76997 0.25278
 C1096 C -0.05842 0.77683 0.25959
 H1097 H -0.10437 0.81657 0.27759
 H1098 H -0.10147 0.78082 0.31815
 H1099 H -0.02345 0.76029 0.28896
 H1100 H -0.04238 0.76951 0.23933
 H1101 H -0.07693 0.76822 0.30542
 H1102 H -0.04852 0.77303 0.30086
 H1103 H -0.07925 0.80446 0.26532
 H1104 H -0.06819 0.78106 0.25120
 C1105 C 0.57596 0.71557 0.28502
 C1106 C 0.58285 0.70062 0.27865
 C1107 C 0.59714 0.69349 0.28589
 C1108 C 0.60501 0.70120 0.29961
 C1109 C 0.59822 0.71626 0.30584
 C1110 C 0.58385 0.72330 0.29869
 C1111 C 0.56050 0.72295 0.27756
 C1112 C 0.55833 0.74047 0.27661
 C1113 C 0.54369 0.74732 0.26979
 C1114 C 0.53109 0.73682 0.26341
 C1115 C 0.53321 0.71935 0.26442
 C1116 C 0.54767 0.71249 0.27151
 H1117 H 0.60191 0.68190 0.28072
 H1118 H 0.60387 0.72266 0.31631
 H1119 H 0.54222 0.76083 0.26951
 H1120 H 0.52361 0.71097 0.25973
 H1121 H 0.57879 0.73469 0.30408
 H1122 H 0.56797 0.74892 0.28104
 H1123 H 0.57728 0.69446 0.26795
 H1124 H 0.54865 0.69898 0.27247
 C1125 C 0.57597 0.21508 0.78514
 C1126 C 0.58393 0.22280 0.79878
 C1127 C 0.59822 0.21565 0.80597
 C1128 C 0.60487 0.20050 0.79981
 C1129 C 0.59693 0.19280 0.78614
 C1130 C 0.58272 0.20004 0.77885
 C1131 C 0.56052 0.22252 0.77771
 C1132 C 0.54763 0.21210 0.77172
 C1133 C 0.53316 0.21899 0.76467
 C1134 C 0.53108 0.23646 0.76366
 C1135 C 0.54376 0.24693 0.76996
 C1136 C 0.55840 0.24004 0.77673
 H1137 H 0.60392 0.22203 0.81644
 H1138 H 0.60156 0.18112 0.78104
 H1139 H 0.52354 0.21063 0.75998
 H1140 H 0.54235 0.26045 0.76964
 H1141 H 0.57709 0.19385 0.76820
 H1142 H 0.54856 0.19858 0.77270
 H1143 H 0.57895 0.23424 0.80415
 H1144 H 0.56810 0.24846 0.78109
 C1145 C 1.07593 0.71553 0.78492
 C1146 C 1.08281 0.70059 0.77851
 C1147 C 1.09709 0.69344 0.78571
 C1148 C 1.10500 0.70113 0.79941
 C1149 C 1.09820 0.71614 0.80573
 C1150 C 1.08383 0.72321 0.79861
 C1151 C 1.06049 0.72295 0.77749
 C1152 C 1.05834 0.74047 0.77653
 C1153 C 1.04368 0.74733 0.76976
 C1154 C 1.03105 0.73683 0.76342
 C1155 C 1.03320 0.71937 0.76435
 C1156 C 1.04767 0.71251 0.77139
 H1157 H 1.10181 0.68183 0.78053
 H1158 H 1.10385 0.72247 0.81625
 H1159 H 1.04220 0.76085 0.76947
 H1160 H 1.02362 0.71098 0.75964
 H1161 H 1.07875 0.73458 0.80405
 H1162 H 1.06803 0.74891 0.78089
 H1163 H 1.07726 0.69444 0.76780
 H1164 H 1.04870 0.69899 0.77226
 C1165 C 1.07593 0.21536 0.28510
 C1166 C 1.08275 0.20036 0.27879
 C1167 C 1.09692 0.19312 0.28614
 C1168 C 1.10477 0.20078 0.29989
 C1169 C 1.09804 0.21588 0.30609
 C1170 C 1.08378 0.22303 0.29884
 C1171 C 1.06053 0.22280 0.27761
 C1172 C 1.05841 0.24033 0.27668
 C1173 C 1.04381 0.24724 0.26986
 C1174 C 1.03116 0.23679 0.26347
 C1175 C 1.03325 0.21932 0.26440
 C1176 C 1.04767 0.21240 0.27151
 H1177 H 1.10161 0.18148 0.28100
 H1178 H 1.10367 0.22222 0.31662
 H1179 H 1.04240 0.26076 0.26958
 H1180 H 1.02365 0.21098 0.25963
 H1181 H 1.07872 0.23441 0.30424
 H1182 H 1.06809 0.24874 0.28114
 H1183 H 1.07718 0.19419 0.26810
 H1184 H 1.04860 0.19888 0.27245
 C1185 C 0.57584 0.28463 0.71510
 C1186 C 0.58257 0.29969 0.72134
 C1187 C 0.59678 0.30690 0.71404
 C1188 C 0.60475 0.29916 0.70039
 C1189 C 0.59813 0.28400 0.69427
 C1190 C 0.58384 0.27687 0.70148
 C1191 C 0.56042 0.27720 0.72256
 C1192 C 0.55835 0.25967 0.72359
 C1193 C 0.54374 0.25277 0.73041
 C1194 C 0.53104 0.26324 0.73672
 C1195 C 0.53307 0.28071 0.73568
 C1196 C 0.54750 0.28761 0.72857
 H1197 H 0.60139 0.31859 0.71911
 H1198 H 0.60386 0.27759 0.68383
 H1199 H 0.54238 0.23925 0.73076
 H1200 H 0.52343 0.28906 0.74038
 H1201 H 0.57886 0.26544 0.69612
 H1202 H 0.56807 0.25125 0.71921
 H1203 H 0.57690 0.30593 0.73196
 H1204 H 0.54839 0.30113 0.72756
 C1205 C 0.57591 0.78488 0.21491
 C1206 C 0.58274 0.79983 0.22128
 C1207 C 0.59702 0.80697 0.21406
 C1208 C 0.60495 0.79926 0.20037
 C1209 C 0.59819 0.78423 0.19409
 C1210 C 0.58383 0.77717 0.20122
 C1211 C 0.56047 0.77748 0.22236
 C1212 C 0.55835 0.75996 0.22333
 C1213 C 0.54372 0.75310 0.23014
 C1214 C 0.53108 0.76360 0.23650
 C1215 C 0.53316 0.78107 0.23549
 C1216 C 0.54761 0.78793 0.22841
 H1217 H 0.60174 0.81857 0.21925
 H1218 H 0.60389 0.77784 0.18361
 H1219 H 0.54229 0.73959 0.23044
 H1220 H 0.52354 0.78944 0.24019
 H1221 H 0.57879 0.76578 0.19582
 H1222 H 0.56803 0.75152 0.21892
 H1223 H 0.57716 0.80598 0.23199
 H1224 H 0.54858 0.80145 0.22747
 C1225 C 1.07599 0.28493 0.21508
 C1226 C 1.08399 0.27717 0.20148
 C1227 C 1.09834 0.28423 0.19435
 C1228 C 1.10502 0.29935 0.20053
 C1229 C 1.09708 0.30706 0.21422
 C1230 C 1.08280 0.29991 0.22144
 C1231 C 1.06053 0.27755 0.22248
 C1232 C 1.04765 0.28800 0.22850
 C1233 C 1.03321 0.28113 0.23561
 C1234 C 1.03115 0.26366 0.23664
 C1235 C 1.04378 0.25317 0.23024
 C1236 C 1.05840 0.26003 0.22343
 H1237 H 1.10410 0.27778 0.18395
 H1238 H 1.10180 0.31867 0.21940
 H1239 H 1.02358 0.28950 0.24029
 H1240 H 1.04234 0.23965 0.23051
 H1241 H 1.07715 0.30609 0.23210
 H1242 H 1.04859 0.30151 0.22751
 H1243 H 1.07900 0.26576 0.19608
 H1244 H 1.06808 0.25158 0.21902
 C1245 C 1.07588 0.78490 0.71489
 C1246 C 1.08385 0.77713 0.70126
 C1247 C 1.09814 0.78422 0.69404
 C1248 C 1.10478 0.79938 0.70014
 C1249 C 1.09684 0.80713 0.71381
 C1250 C 1.08263 0.79995 0.72113
 C1251 C 1.06045 0.77749 0.72237
 C1252 C 1.04754 0.78792 0.72838
 C1253 C 1.03310 0.78103 0.73548
 C1254 C 1.03105 0.76356 0.73650
 C1255 C 1.04375 0.75308 0.73020
 C1256 C 1.05837 0.75997 0.72340
 H1257 H 1.10386 0.77780 0.68360
 H1258 H 1.10148 0.81882 0.71887
 H1259 H 1.02346 0.78938 0.74017
 H1260 H 1.04238 0.73957 0.73055
 H1261 H 1.07699 0.80620 0.73175
 H1262 H 1.04844 0.80144 0.72738
 H1263 H 1.07885 0.76570 0.69591
 H1264 H 1.06809 0.75155 0.71903
 C1265 C 0.42402 0.71490 0.71561
 C1266 C 0.41738 0.72129 0.70063
 C1267 C 0.40315 0.71412 0.69339
 C1268 C 0.39501 0.70047 0.70103
 C1269 C 0.40152 0.69419 0.71612
 C1270 C 0.41586 0.70127 0.72329
 C1271 C 0.43949 0.72230 0.72299
 C1272 C 0.44151 0.72349 0.74041
 C1273 C 0.45613 0.73035 0.74725
 C1274 C 0.46887 0.73658 0.73683
 C1275 C 0.46689 0.73538 0.71945
 C1276 C 0.45245 0.72824 0.71261
 H1277 H 0.39865 0.71932 0.68175
 H1278 H 0.39563 0.68373 0.72243
 H1279 H 0.45749 0.73077 0.76070
 H1280 H 0.47656 0.73998 0.71111
 H1281 H 0.42072 0.69584 0.73471
 H1282 H 0.43173 0.71926 0.74879
 H1283 H 0.42314 0.73194 0.69449
 H1284 H 0.45154 0.72721 0.69916
 C1285 C 0.42425 0.21482 0.21538
 C1286 C 0.41732 0.19995 0.22189
 C1287 C 0.40312 0.19272 0.21461
 C1288 C 0.39537 0.20025 0.20071
 C1289 C 0.40225 0.21518 0.19429
 C1290 C 0.41652 0.22232 0.20148
 C1291 C 0.43963 0.22229 0.22285
 C1292 C 0.44176 0.23982 0.22359
 C1293 C 0.45636 0.24675 0.23037
 C1294 C 0.46897 0.23632 0.23693
 C1295 C 0.46686 0.21884 0.23616
 C1296 C 0.45245 0.21191 0.22909
 H1297 H 0.39830 0.18121 0.21993
 H1298 H 0.39671 0.22141 0.18364
 H1299 H 0.45781 0.26027 0.23049
 H1300 H 0.47644 0.21052 0.24102
 H1301 H 0.42164 0.23362 0.19596
 H1302 H 0.43211 0.24821 0.21901
 H1303 H 0.42277 0.19395 0.23276
 H1304 H 0.45148 0.19838 0.22831
 C1305 C -0.07587 0.71478 0.21561
 C1306 C -0.08253 0.72125 0.20068
 C1307 C -0.09677 0.71412 0.19343
 C1308 C -0.10488 0.70042 0.20101
 C1309 C -0.09835 0.69407 0.21606
 C1310 C -0.08400 0.70112 0.22325
 C1311 C -0.06039 0.72214 0.22300
 C1312 C -0.05834 0.72328 0.24043
 C1313 C -0.04372 0.73016 0.24725
 C1314 C -0.03101 0.73641 0.23680
 C1315 C -0.03303 0.73524 0.21942
 C1316 C -0.04746 0.72809 0.21261
 H1317 H -0.10131 0.71940 0.18184
 H1318 H -0.10424 0.68360 0.22235
 H1319 H -0.04236 0.73063 0.26069
 H1320 H -0.02339 0.73989 0.21107
 H1321 H -0.07913 0.69565 0.23464
 H1322 H -0.06810 0.71900 0.24882
 H1323 H -0.07680 0.73195 0.19460
 H1324 H -0.04838 0.72705 0.19916
 C1325 C -0.07618 0.21476 0.71561
 C1326 C -0.08277 0.22119 0.70062
 C1327 C -0.09698 0.21404 0.69333
 C1328 C -0.10511 0.20034 0.70090
 C1329 C -0.09861 0.19400 0.71597
 C1330 C -0.08430 0.20107 0.72320
 C1331 C -0.06074 0.22212 0.72307
 C1332 C -0.05876 0.22325 0.74051
 C1333 C -0.04418 0.23014 0.74740
 C1334 C -0.03142 0.23638 0.73700
 C1335 C -0.03337 0.23523 0.71962
 C1336 C -0.04777 0.22807 0.71274
 H1337 H -0.10145 0.21924 0.68168
 H1338 H -0.10445 0.18347 0.72219
 H1339 H -0.04289 0.23064 0.76085
 H1340 H -0.02371 0.23991 0.71132
 H1341 H -0.07941 0.19556 0.73456
 H1342 H -0.06855 0.21895 0.74885
 H1343 H -0.07699 0.23184 0.69450
 H1344 H -0.04862 0.22703 0.69929
 C1345 C 0.28462 0.42394 0.28445
 C1346 C 0.29971 0.41721 0.27823
 C1347 C 0.30693 0.40302 0.28557
 C1348 C 0.29917 0.39505 0.29922
 C1349 C 0.28399 0.40169 0.30532
 C1350 C 0.27686 0.41597 0.29808
 C1351 C 0.27719 0.43937 0.27699
 C1352 C 0.25967 0.44146 0.27600
 C1353 C 0.25277 0.45611 0.26925
 C1354 C 0.26322 0.46882 0.26295
 C1355 C 0.28068 0.46676 0.26394
 C1356 C 0.28759 0.45230 0.27100
 H1357 H 0.31862 0.39838 0.28050
 H1358 H 0.27755 0.39595 0.31574
 H1359 H 0.23925 0.45750 0.26895
 H1360 H 0.28902 0.47641 0.25926
 H1361 H 0.26541 0.42096 0.30342
 H1362 H 0.25126 0.43174 0.28036
 H1363 H 0.30596 0.42287 0.26762
 H1364 H 0.30110 0.45139 0.27198
 C1365 C 0.28530 -0.07649 0.78434
 C1366 C 0.27805 -0.08396 0.79850
 C1367 C 0.28518 -0.09826 0.80572
 C1368 C 0.29990 -0.10549 0.79907
 C1369 C 0.30707 -0.09800 0.78478
 C1370 C 0.29986 -0.08374 0.77753
 C1371 C 0.27785 -0.06106 0.77688
 C1372 C 0.28821 -0.04832 0.77043
 C1373 C 0.28124 -0.03381 0.76348
 C1374 C 0.26376 -0.03159 0.76297
 C1375 C 0.25338 -0.04417 0.76964
 C1376 C 0.26034 -0.05881 0.77636
 H1377 H 0.27906 -0.10347 0.81660
 H1378 H 0.31830 -0.10300 0.77907
 H1379 H 0.28952 -0.02429 0.75845
 H1380 H 0.23988 -0.04268 0.76966
 H1381 H 0.30569 -0.07844 0.76650
 H1382 H 0.30173 -0.04942 0.77100
 H1383 H 0.26702 -0.07854 0.80426
 H1384 H 0.25199 -0.06842 0.78107
 C1385 C 0.78478 0.42395 0.78474
 C1386 C 0.79902 0.41636 0.77766
 C1387 C 0.80618 0.40211 0.78494
 C1388 C 0.79923 0.39492 0.79948
 C1389 C 0.78487 0.40254 0.80645
 C1390 C 0.77780 0.41685 0.79921
 C1391 C 0.77738 0.43934 0.77720
 C1392 C 0.75989 0.44178 0.77693
 C1393 C 0.75301 0.45641 0.77009
 C1394 C 0.76346 0.46874 0.76310
 C1395 C 0.78091 0.46633 0.76341
 C1396 C 0.78780 0.45184 0.77043
 H1397 H 0.81716 0.39682 0.77900
 H1398 H 0.77901 0.39767 0.81762
 H1399 H 0.73953 0.45810 0.77029
 H1400 H 0.78923 0.47572 0.75820
 H1401 H 0.76698 0.42253 0.80514
 H1402 H 0.75150 0.43235 0.78192
 H1403 H 0.80459 0.42134 0.76636
 H1404 H 0.80132 0.45057 0.77079
 C1405 C 0.78507 -0.07629 0.28449
 C1406 C 0.79931 -0.08388 0.27743
 C1407 C 0.80646 -0.09814 0.28470
 C1408 C 0.79948 -0.10534 0.29922
 C1409 C 0.78511 -0.09771 0.30618
 C1410 C 0.77806 -0.08340 0.29895
 C1411 C 0.77768 -0.06089 0.27696
 C1412 C 0.76019 -0.05845 0.27669
 C1413 C 0.75331 -0.04381 0.26989
 C1414 C 0.76376 -0.03145 0.26294
 C1415 C 0.78120 -0.03386 0.26323
 C1416 C 0.78809 -0.04837 0.27022
 H1417 H 0.81743 -0.10344 0.27876
 H1418 H 0.77922 -0.10261 0.31732
 H1419 H 0.73983 -0.04211 0.27012
 H1420 H 0.78952 -0.02445 0.25806
 H1421 H 0.76722 -0.07775 0.30486
 H1422 H 0.75180 -0.06789 0.28167
 H1423 H 0.80486 -0.07890 0.26611
 H1424 H 0.80161 -0.04963 0.27061
 C1425 C 0.28479 0.57584 0.71560
 C1426 C 0.29956 0.58287 0.72218
 C1427 C 0.30674 0.59712 0.71491
 C1428 C 0.29927 0.60481 0.70095
 C1429 C 0.28440 0.59787 0.69449
 C1430 C 0.27730 0.58355 0.70168
 C1431 C 0.27735 0.56042 0.72307
 C1432 C 0.25984 0.55824 0.72378
 C1433 C 0.25291 0.54362 0.73055
 C1434 C 0.26332 0.53101 0.73711
 C1435 C 0.28080 0.53315 0.73640
 C1436 C 0.28773 0.54761 0.72937
 H1437 H 0.31818 0.60201 0.72028
 H1438 H 0.27820 0.60338 0.68380
 H1439 H 0.23940 0.54217 0.73065
 H1440 H 0.28911 0.52357 0.74129
 H1441 H 0.26608 0.57835 0.69610
 H1442 H 0.25145 0.56788 0.71918
 H1443 H 0.30556 0.57742 0.73303
 H1444 H 0.30126 0.54862 0.72864
 C1445 C 0.28514 1.07567 0.21537
 C1446 C 0.29957 1.08301 0.22234
 C1447 C 0.30685 1.09718 0.21503
 C1448 C 0.29980 1.10447 0.20064
 C1449 C 0.28533 1.09713 0.19373
 C1450 C 0.27813 1.08290 0.20098
 C1451 C 0.27762 1.06035 0.22289
 C1452 C 0.26011 1.05808 0.22324
 C1453 C 0.25314 1.04351 0.23008
 C1454 C 0.26352 1.03106 0.23697
 C1455 C 0.28098 1.03330 0.23660
 C1456 C 0.28796 1.04771 0.22955
 H1457 H 0.31798 1.10238 0.22075
 H1458 H 0.27951 1.10225 0.18266
 H1459 H 0.23964 1.04197 0.22996
 H1460 H 0.28924 1.02383 0.24178
 H1461 H 0.26718 1.07742 0.19512
 H1462 H 0.25177 1.06761 0.21832
 H1463 H 0.30517 1.07791 0.23357
 H1464 H 0.30149 1.04882 0.22909
 C1465 C 0.78490 0.57602 0.21561
 C1466 C 0.79923 0.58349 0.22263
 C1467 C 0.80640 0.59772 0.21536
 C1468 C 0.79936 0.60493 0.20093
 C1469 C 0.78494 0.59753 0.19401
 C1470 C 0.77783 0.58324 0.20123
 C1471 C 0.77750 0.56063 0.22312
 C1472 C 0.76001 0.55825 0.22345
 C1473 C 0.75312 0.54363 0.23024
 C1474 C 0.76356 0.53124 0.23716
 C1475 C 0.78102 0.53356 0.23678
 C1476 C 0.78792 0.54805 0.22979
 H1477 H 0.81746 0.60301 0.22112
 H1478 H 0.77911 0.60263 0.18293
 H1479 H 0.73964 0.54199 0.23007
 H1480 H 0.78933 0.52411 0.24190
 H1481 H 0.76695 0.57768 0.19534
 H1482 H 0.75163 0.56774 0.21853
 H1483 H 0.80487 0.57841 0.23386
 H1484 H 0.80144 0.54926 0.22936
 C1485 C 0.78473 1.07594 0.71561
 C1486 C 0.79910 1.08338 0.72256
 C1487 C 0.80627 1.09758 0.71524
 C1488 C 0.79923 1.10476 0.70080
 C1489 C 0.78480 1.09735 0.69390
 C1490 C 0.77768 1.08309 0.70118
 C1491 C 0.77731 1.06063 0.72321
 C1492 C 0.75981 1.05834 0.72359
 C1493 C 0.75287 1.04378 0.73045
 C1494 C 0.76327 1.03136 0.73738
 C1495 C 0.78074 1.03363 0.73702
 C1496 C 0.78769 1.04807 0.72997
 H1497 H 0.81739 1.10281 0.72093
 H1498 H 0.77901 1.10237 0.68276
 H1499 H 0.73939 1.04218 0.73027
 H1500 H 0.78902 1.02417 0.74216
 H1501 H 0.76682 1.07747 0.69527
 H1502 H 0.75147 1.06785 0.71866
 H1503 H 0.80479 1.07828 0.73375
 H1504 H 0.80121 1.04924 0.72957
 C1505 C 0.71486 0.57615 0.28503
 C1506 C 0.72242 0.58384 0.29891
 C1507 C 0.71536 0.59817 0.30610
 C1508 C 0.70046 0.60514 0.29971
 C1509 C 0.69291 0.59746 0.28579
 C1510 C 0.70006 0.58319 0.27851
 C1511 C 0.72230 0.56075 0.27753
 C1512 C 0.71192 0.54795 0.27128
 C1513 C 0.71885 0.53347 0.26429
 C1514 C 0.73633 0.53132 0.26355
 C1515 C 0.74674 0.54394 0.27006
 C1516 C 0.73982 0.55858 0.27678
 H1517 H 0.72163 0.60367 0.31674
 H1518 H 0.68145 0.60239 0.28047
 H1519 H 0.71054 0.52388 0.25947
 H1520 H 0.76025 0.54245 0.26998
 H1521 H 0.69404 0.57777 0.26765
 H1522 H 0.69839 0.54897 0.27205
 H1523 H 0.73369 0.57865 0.30441
 H1524 H 0.74821 0.56822 0.28133
 C1525 C 0.71459 1.07627 0.78531
 C1526 C 0.69995 1.08348 0.77864
 C1527 C 0.69276 1.09770 0.78598
 C1528 C 0.70007 1.10523 0.80016
 C1529 C 0.71482 1.09798 0.80671
 C1530 C 0.72193 1.08371 0.79942
 C1531 C 0.72202 1.06088 0.77776
 C1532 C 0.73953 1.05864 0.77712
 C1533 C 0.74645 1.04400 0.77037
 C1534 C 0.73603 1.03143 0.76376
 C1535 C 0.71856 1.03365 0.76441
 C1536 C 0.71163 1.04815 0.77140
 H1537 H 0.68144 1.10266 0.78041
 H1538 H 0.72098 1.10314 0.81758
 H1539 H 0.75995 1.04248 0.77035
 H1540 H 0.71024 1.02411 0.75950
 H1541 H 0.73304 1.07832 0.80506
 H1542 H 0.74792 1.06824 0.78178
 H1543 H 0.69408 1.07821 0.76764
 H1544 H 0.69811 1.04924 0.77206
 C1545 C 0.21473 0.57585 0.78518
 C1546 C 0.19997 0.58293 0.77859
 C1547 C 0.19281 0.59719 0.78586
 C1548 C 0.20031 0.60486 0.79979
 C1549 C 0.21513 0.59783 0.80630
 C1550 C 0.22221 0.58349 0.79912
 C1551 C 0.22218 0.56046 0.77767
 C1552 C 0.23970 0.55826 0.77692
 C1553 C 0.24661 0.54362 0.77014
 C1554 C 0.23617 0.53105 0.76360
 C1555 C 0.21870 0.53325 0.76429
 C1556 C 0.21179 0.54772 0.77132
 H1557 H 0.18136 0.60209 0.78051
 H1558 H 0.22129 0.60327 0.81703
 H1559 H 0.26012 0.54210 0.77004
 H1560 H 0.21037 0.52371 0.75941
 H1561 H 0.23343 0.57825 0.80468
 H1562 H 0.24811 0.56790 0.78147
 H1563 H 0.19399 0.57757 0.76769
 H1564 H 0.19827 0.54879 0.77201
 C1565 C 0.21496 1.07611 0.28478
 C1566 C 0.22255 1.08385 0.29862
 C1567 C 0.21545 1.09814 0.30584
 C1568 C 0.20048 1.10501 0.29953
 C1569 C 0.19289 1.09728 0.28567
 C1570 C 0.20008 1.08306 0.27835
 C1571 C 0.22238 1.06068 0.27732
 C1572 C 0.21198 1.04785 0.27117
 C1573 C 0.21890 1.03336 0.26418
 C1574 C 0.23636 1.03121 0.26340
 C1575 C 0.24681 1.04385 0.26982
 C1576 C 0.23990 1.05851 0.27652
 H1577 H 0.22174 1.10368 0.31645
 H1578 H 0.18135 1.10211 0.28043
 H1579 H 0.21057 1.02377 0.25938
 H1580 H 0.26032 1.04239 0.26968
 H1581 H 0.19397 1.07756 0.26758
 H1582 H 0.19846 1.04885 0.27198
 H1583 H 0.23384 1.07868 0.30411
 H1584 H 0.24830 1.06819 0.28098
 C1585 C 0.71470 0.42397 0.71514
 C1586 C 0.69976 0.41708 0.72152
 C1587 C 0.69254 0.40291 0.71415
 C1588 C 0.70014 0.39515 0.70029
 C1589 C 0.71516 0.40196 0.69402
 C1590 C 0.72229 0.41621 0.70130
 C1591 C 0.72217 0.43933 0.72268
 C1592 C 0.73970 0.44140 0.72350
 C1593 C 0.74666 0.45602 0.73024
 C1594 C 0.73627 0.46872 0.73669
 C1595 C 0.71879 0.46665 0.73590
 C1596 C 0.71182 0.45220 0.72888
 H1597 H 0.68097 0.39813 0.71935
 H1598 H 0.72145 0.39642 0.68341
 H1599 H 0.76017 0.45741 0.73037
 H1600 H 0.71049 0.47629 0.74069
 H1601 H 0.73362 0.42132 0.69584
 H1602 H 0.74806 0.43170 0.71900
 H1603 H 0.69365 0.42258 0.73229
 H1604 H 0.69830 0.45128 0.72807
 C1605 C 0.71494 -0.07604 0.21514
 C1606 C 0.70053 -0.08344 0.22209
 C1607 C 0.69334 -0.09765 0.21479
 C1608 C 0.70046 -0.10491 0.20042
 C1609 C 0.71493 -0.09753 0.19354
 C1610 C 0.72204 -0.08326 0.20078
 C1611 C 0.72242 -0.06073 0.22271
 C1612 C 0.73992 -0.05845 0.22309
 C1613 C 0.74687 -0.04386 0.22987
 C1614 C 0.73648 -0.03139 0.23672
 C1615 C 0.71902 -0.03366 0.23638
 C1616 C 0.71206 -0.04811 0.22938
 H1617 H 0.68222 -0.10288 0.22049
 H1618 H 0.72081 -0.10264 0.18250
 H1619 H 0.76036 -0.04228 0.22970
 H1620 H 0.71073 -0.02419 0.24151
 H1621 H 0.73298 -0.07775 0.19494
 H1622 H 0.74828 -0.06798 0.21820
 H1623 H 0.69487 -0.07835 0.23330
 H1624 H 0.69853 -0.04926 0.22894
 C1625 C 0.21501 0.42415 0.21476
 C1626 C 0.22229 0.41667 0.20062
 C1627 C 0.21520 0.40235 0.19348
 C1628 C 0.20056 0.39517 0.20021
 C1629 C 0.19332 0.40262 0.21442
 C1630 C 0.20049 0.41688 0.22163
 C1631 C 0.22240 0.43958 0.22217
 C1632 C 0.21196 0.45225 0.22864
 C1633 C 0.21884 0.46671 0.23569
 C1634 C 0.23630 0.46894 0.23627
 C1635 C 0.24677 0.45649 0.22952
 C1636 C 0.23990 0.44188 0.22269
 H1637 H 0.22125 0.39703 0.18262
 H1638 H 0.18211 0.39749 0.22006
 H1639 H 0.21051 0.47620 0.24070
 H1640 H 0.26026 0.45806 0.22952
 H1641 H 0.19469 0.42217 0.23268
 H1642 H 0.19844 0.45113 0.22804
 H1643 H 0.23333 0.42205 0.19484
 H1644 H 0.24831 0.43235 0.21792
 C1645 C 0.21481 -0.07610 0.71498
 C1646 C 0.20031 -0.08344 0.72183
 C1647 C 0.19307 -0.09757 0.71442
 C1648 C 0.20019 -0.10480 0.70004
 C1649 C 0.21476 -0.09751 0.69330
 C1650 C 0.22194 -0.08333 0.70064
 C1651 C 0.22230 -0.06080 0.72256
 C1652 C 0.23982 -0.05855 0.72296
 C1653 C 0.24680 -0.04401 0.72982
 C1654 C 0.23642 -0.03154 0.73670
 C1655 C 0.21896 -0.03377 0.73632
 C1656 C 0.21197 -0.04816 0.72924
 H1657 H 0.18187 -0.10274 0.72003
 H1658 H 0.22065 -0.10261 0.68225
 H1659 H 0.26030 -0.04248 0.72971
 H1660 H 0.21070 -0.02429 0.74149
 H1661 H 0.23290 -0.07783 0.69483
 H1662 H 0.24816 -0.06807 0.71804
 H1663 H 0.19458 -0.07832 0.73299
 H1664 H 0.19844 -0.04923 0.72876
 C1665 C 0.28436 0.28501 0.42435
 C1666 C 0.29933 0.27853 0.41763
 C1667 C 0.30646 0.28558 0.40331
 C1668 C 0.29875 0.29922 0.39521
 C1669 C 0.28368 0.30559 0.40184
 C1670 C 0.27662 0.29863 0.41625
 C1671 C 0.27701 0.27772 0.43986
 C1672 C 0.25951 0.27668 0.44203
 C1673 C 0.25271 0.26995 0.45668
 C1674 C 0.26325 0.26371 0.46930
 C1675 C 0.28070 0.26478 0.46718
 C1676 C 0.28750 0.27180 0.45270
 H1677 H 0.31808 0.28031 0.39871
 H1678 H 0.27728 0.31602 0.39600
 H1679 H 0.23921 0.26955 0.45813
 H1680 H 0.28912 0.26014 0.47674
 H1681 H 0.26523 0.30413 0.42119
 H1682 H 0.25103 0.28092 0.43234
 H1683 H 0.30552 0.26788 0.42335
 H1684 H 0.30101 0.27275 0.45167
 C1685 C 0.28554 0.78484 -0.07612
 C1686 C 0.29923 0.77715 -0.08415
 C1687 C 0.30625 0.78424 -0.09852
 C1688 C 0.29987 0.79929 -0.10520
 C1689 C 0.28618 0.80698 -0.09715
 C1690 C 0.27906 0.79981 -0.08288
 C1691 C 0.27818 0.77746 -0.06066
 C1692 C 0.27218 0.78794 -0.04784
 C1693 C 0.26513 0.78112 -0.03339
 C1694 C 0.26410 0.76366 -0.03125
 C1695 C 0.27039 0.75313 -0.04386
 C1696 C 0.27717 0.75995 -0.05849
 H1697 H 0.31672 0.77787 -0.10432
 H1698 H 0.28091 0.81859 -0.10177
 H1699 H 0.26043 0.78953 -0.02385
 H1700 H 0.27002 0.73962 -0.04241
 H1701 H 0.26836 0.80596 -0.07721
 H1702 H 0.27311 0.80145 -0.04886
 H1703 H 0.30472 0.76576 -0.07918
 H1704 H 0.28147 0.75148 -0.06815
 C1705 C 0.78473 0.28541 -0.07562
 C1706 C 0.79864 0.27792 -0.08343
 C1707 C 0.80568 0.28503 -0.09778
 C1708 C 0.79910 0.29991 -0.10464
 C1709 C 0.78519 0.30740 -0.09679
 C1710 C 0.77806 0.30021 -0.08253
 C1711 C 0.77733 0.27798 -0.06021
 C1712 C 0.77109 0.28838 -0.04745
 C1713 C 0.76409 0.28147 -0.03302
 C1714 C 0.76335 0.26400 -0.03086
 C1715 C 0.76983 0.25355 -0.04344
 C1716 C 0.77656 0.26045 -0.05804
 H1717 H 0.81635 0.27881 -0.10339
 H1718 H 0.77974 0.31888 -0.10156
 H1719 H 0.75923 0.28981 -0.02349
 H1720 H 0.76966 0.24004 -0.04199
 H1721 H 0.76720 0.30621 -0.07699
 H1722 H 0.77180 0.30191 -0.04849
 H1723 H 0.80429 0.26668 -0.07830
 H1724 H 0.78105 0.25205 -0.06767
 C1725 C 0.78497 0.78532 0.42422
 C1726 C 0.79888 0.77780 0.41641
 C1727 C 0.80593 0.78488 0.40206
 C1728 C 0.79935 0.79975 0.39518
 C1729 C 0.78544 0.80727 0.40302
 C1730 C 0.77831 0.80011 0.41728
 C1731 C 0.77760 0.77793 0.43965
 C1732 C 0.77139 0.78838 0.45239
 C1733 C 0.76438 0.78151 0.46684
 C1734 C 0.76358 0.76403 0.46902
 C1735 C 0.77006 0.75355 0.45646
 C1736 C 0.77681 0.76042 0.44186
 H1737 H 0.81661 0.77867 0.39647
 H1738 H 0.78002 0.81876 0.39825
 H1739 H 0.75953 0.78987 0.47635
 H1740 H 0.76987 0.74005 0.45793
 H1741 H 0.76747 0.80614 0.42282
 H1742 H 0.77212 0.80190 0.45132
 H1743 H 0.80454 0.76657 0.42156
 H1744 H 0.78127 0.75200 0.43223
 C1745 C 0.71524 0.28428 0.57566
 C1746 C 0.72190 0.29907 0.58256
 C1747 C 0.71480 0.30623 0.59684
 C1748 C 0.70093 0.29872 0.60472
 C1749 C 0.69438 0.28383 0.59791
 C1750 C 0.70139 0.27674 0.58353
 C1751 C 0.72259 0.27688 0.56021
 C1752 C 0.72339 0.25936 0.55800
 C1753 C 0.73013 0.25250 0.54338
 C1754 C 0.73658 0.26298 0.53081
 C1755 C 0.73575 0.28045 0.53298
 C1756 C 0.72875 0.28732 0.54744
 H1757 H 0.72024 0.31769 0.60162
 H1758 H 0.68376 0.27758 0.60356
 H1759 H 0.73034 0.23899 0.54191
 H1760 H 0.74057 0.28882 0.52346
 H1761 H 0.69576 0.26549 0.57845
 H1762 H 0.71895 0.25093 0.56763
 H1763 H 0.73273 0.30509 0.57700
 H1764 H 0.72799 0.30084 0.54850
 C1765 C 0.71548 0.78449 1.07577
 C1766 C 0.72214 0.79926 1.08270
 C1767 C 0.71499 0.80644 1.09695
 C1768 C 0.70107 0.79895 1.10477
 C1769 C 0.69453 0.78406 1.09793
 C1770 C 0.70158 0.77697 1.08358
 C1771 C 0.72286 0.77710 1.06034
 C1772 C 0.72366 0.75959 1.05814
 C1773 C 0.73040 0.75272 1.04352
 C1774 C 0.73686 0.76321 1.03097
 C1775 C 0.73606 0.78068 1.03314
 C1776 C 0.72905 0.78755 1.04759
 H1777 H 0.72042 0.81789 1.10174
 H1778 H 0.68387 0.77784 1.10353
 H1779 H 0.73059 0.73922 1.04204
 H1780 H 0.74090 0.78904 1.02363
 H1781 H 0.69594 0.76574 1.07845
 H1782 H 0.71921 0.75115 1.06777
 H1783 H 0.73299 0.80527 1.07718
 H1784 H 0.72831 0.80107 1.04866
 C1785 C 0.21538 0.28431 1.07577
 C1786 C 0.22204 0.29911 1.08266
 C1787 C 0.21485 0.30635 1.09685
 C1788 C 0.20092 0.29889 1.10468
 C1789 C 0.19438 0.28398 1.09788
 C1790 C 0.20148 0.27683 1.08359
 C1791 C 0.22276 0.27690 1.06036
 C1792 C 0.22356 0.25938 1.05818
 C1793 C 0.23027 0.25251 1.04355
 C1794 C 0.23670 0.26299 1.03098
 C1795 C 0.23590 0.28046 1.03314
 C1796 C 0.22893 0.28734 1.04759
 H1797 H 0.22028 0.31782 1.10160
 H1798 H 0.18372 0.27779 1.10349
 H1799 H 0.23047 0.23900 1.04209
 H1800 H 0.24073 0.28882 1.02361
 H1801 H 0.19586 0.26556 1.07851
 H1802 H 0.21912 0.25096 1.06782
 H1803 H 0.23292 0.30508 1.07714
 H1804 H 0.22819 0.30086 1.04865
 C1805 C 0.21546 0.78443 0.57557
 C1806 C 0.22210 0.79922 0.58250
 C1807 C 0.21496 0.80637 0.59676
 C1808 C 0.20107 0.79884 0.60459
 C1809 C 0.19454 0.78395 0.59775
 C1810 C 0.20159 0.77688 0.58339
 C1811 C 0.22286 0.77705 0.56015
 C1812 C 0.22371 0.75954 0.55796
 C1813 C 0.23049 0.75268 0.54336
 C1814 C 0.23694 0.76318 0.53081
 C1815 C 0.23609 0.78065 0.53297
 C1816 C 0.22905 0.78750 0.54741
 H1817 H 0.22039 0.81782 0.60155
 H1818 H 0.18391 0.77770 0.60337
 H1819 H 0.23072 0.73918 0.54189
 H1820 H 0.24093 0.78903 0.52347
 H1821 H 0.19598 0.76563 0.57828
 H1822 H 0.21927 0.75110 0.56759
 H1823 H 0.23294 0.80524 0.57698
 H1824 H 0.22827 0.80103 0.54847
 C1825 C 0.28521 0.71494 0.57566
 C1826 C 0.29911 0.72244 0.58347
 C1827 C 0.30616 0.71533 0.59782
 C1828 C 0.29960 0.70046 0.60470
 C1829 C 0.28570 0.69297 0.59686
 C1830 C 0.27855 0.70015 0.58260
 C1831 C 0.27782 0.72235 0.56022
 C1832 C 0.27162 0.71192 0.54748
 C1833 C 0.26463 0.71879 0.53302
 C1834 C 0.26383 0.73625 0.53082
 C1835 C 0.27029 0.74674 0.54337
 C1836 C 0.27702 0.73987 0.55799
 H1837 H 0.31680 0.72155 0.60344
 H1838 H 0.28025 0.68151 0.60167
 H1839 H 0.25979 0.71042 0.52351
 H1840 H 0.27009 0.76024 0.54186
 H1841 H 0.26769 0.69416 0.57711
 H1842 H 0.27236 0.69839 0.54855
 H1843 H 0.30474 0.73368 0.57835
 H1844 H 0.28146 0.74831 0.56761
 C1845 C 0.28501 0.21498 1.07587
 C1846 C 0.29889 0.22253 1.08366
 C1847 C 0.30593 0.21549 1.09805
 C1848 C 0.29936 0.20063 1.10496
 C1849 C 0.28549 0.19309 1.09714
 C1850 C 0.27836 0.20021 1.08284
 C1851 C 0.27764 0.22232 1.06041
 C1852 C 0.27147 0.21183 1.04770
 C1853 C 0.26445 0.21865 1.03323
 C1854 C 0.26361 0.23611 1.03100
 C1855 C 0.27008 0.24664 1.04350
 C1856 C 0.27683 0.23982 1.05814
 H1857 H 0.31658 0.22172 1.10364
 H1858 H 0.28006 0.18164 1.10195
 H1859 H 0.25963 0.21025 1.02375
 H1860 H 0.26987 0.26014 1.04198
 H1861 H 0.26754 0.19417 1.07734
 H1862 H 0.27221 0.19831 1.04882
 H1863 H 0.30454 0.23374 1.07850
 H1864 H 0.28127 0.24829 1.06773
 C1865 C 0.78516 0.71500 1.07575
 C1866 C 0.79908 0.72249 1.08351
 C1867 C 0.80616 0.71540 1.09785
 C1868 C 0.79960 0.70054 1.10476
 C1869 C 0.78566 0.69307 1.09698
 C1870 C 0.77848 0.70024 1.08274
 C1871 C 0.77774 0.72239 1.06034
 C1872 C 0.77151 0.71194 1.04762
 C1873 C 0.76449 0.71881 1.03318
 C1874 C 0.76371 0.73627 1.03098
 C1875 C 0.77020 0.74676 1.04350
 C1876 C 0.77695 0.73991 1.05811
 H1877 H 0.81684 0.72161 1.10342
 H1878 H 0.78021 0.68162 1.10180
 H1879 H 0.75964 0.71044 1.02368
 H1880 H 0.77002 0.76027 1.04199
 H1881 H 0.76760 0.69426 1.07727
 H1882 H 0.77225 0.69842 1.04871
 H1883 H 0.80472 0.73372 1.07835
 H1884 H 0.78143 0.74834 1.06771
 C1885 C 0.78492 0.21483 0.57558
 C1886 C 0.79882 0.22236 0.58335
 C1887 C 0.80587 0.21532 0.59774
 C1888 C 0.79932 0.20046 0.60465
 C1889 C 0.78541 0.19294 0.59685
 C1890 C 0.77827 0.20007 0.58257
 C1891 C 0.77750 0.22221 0.56017
 C1892 C 0.77129 0.21175 0.54745
 C1893 C 0.76425 0.21860 0.53301
 C1894 C 0.76344 0.23606 0.53081
 C1895 C 0.76991 0.24657 0.54333
 C1896 C 0.77667 0.23973 0.55794
 H1897 H 0.81648 0.22159 0.60334
 H1898 H 0.77995 0.18152 0.60169
 H1899 H 0.75941 0.21022 0.52352
 H1900 H 0.76969 0.26008 0.54182
 H1901 H 0.76739 0.19407 0.57709
 H1902 H 0.77204 0.19823 0.54854
 H1903 H 0.80443 0.23360 0.57819
 H1904 H 0.78111 0.24818 0.56754
 C1905 C 0.71537 0.71584 0.42431
 C1906 C 0.72201 0.70103 0.41742
 C1907 C 0.71485 0.69383 0.40319
 C1908 C 0.70095 0.70135 0.39536
 C1909 C 0.69441 0.71626 0.40218
 C1910 C 0.70148 0.72337 0.41649
 C1911 C 0.72274 0.72323 0.43972
 C1912 C 0.72355 0.74075 0.44191
 C1913 C 0.73029 0.74760 0.45652
 C1914 C 0.73675 0.73710 0.46907
 C1915 C 0.73593 0.71964 0.46691
 C1916 C 0.72891 0.71278 0.45248
 H1917 H 0.72027 0.68234 0.39844
 H1918 H 0.68375 0.72249 0.39657
 H1919 H 0.73049 0.76111 0.45800
 H1920 H 0.74075 0.71127 0.47644
 H1921 H 0.69585 0.73464 0.42159
 H1922 H 0.71911 0.74919 0.43229
 H1923 H 0.73286 0.69500 0.42294
 H1924 H 0.72815 0.69926 0.45144
 C1925 C 0.71536 0.21557 -0.07566
 C1926 C 0.72208 0.20078 -0.08255
 C1927 C 0.71502 0.19360 -0.09684
 C1928 C 0.70114 0.20109 -0.10473
 C1929 C 0.69453 0.21598 -0.09791
 C1930 C 0.70150 0.22308 -0.08354
 C1931 C 0.72268 0.22300 -0.06022
 C1932 C 0.72342 0.24051 -0.05803
 C1933 C 0.73012 0.24741 -0.04342
 C1934 C 0.73661 0.23695 -0.03084
 C1935 C 0.73584 0.21947 -0.03300
 C1936 C 0.72887 0.21258 -0.04744
 H1937 H 0.72049 0.18214 -0.10160
 H1938 H 0.68390 0.22220 -0.10357
 H1939 H 0.73027 0.26092 -0.04196
 H1940 H 0.74068 0.21112 -0.02347
 H1941 H 0.69582 0.23432 -0.07846
 H1942 H 0.71896 0.24893 -0.06767
 H1943 H 0.73291 0.19477 -0.07699
 H1944 H 0.72816 0.19905 -0.04849
 C1945 C 0.21540 0.71579 -0.07597
 C1946 C 0.22179 0.70078 -0.08267
 C1947 C 0.21462 0.69360 -0.09690
 C1948 C 0.20095 0.70132 -0.10493
 C1949 C 0.19465 0.71643 -0.09832
 C1950 C 0.20173 0.72352 -0.08398
 C1951 C 0.22280 0.72318 -0.06055
 C1952 C 0.22387 0.74069 -0.05847
 C1953 C 0.23067 0.74754 -0.04388
 C1954 C 0.23692 0.73704 -0.03124
 C1955 C 0.23585 0.71957 -0.03329
 C1956 C 0.22877 0.71272 -0.04769
 H1957 H 0.21985 0.68195 -0.10148
 H1958 H 0.18419 0.72283 -0.10410
 H1959 H 0.23109 0.76105 -0.04251
 H1960 H 0.24055 0.71119 -0.02371
 H1961 H 0.19626 0.73492 -0.07901
 H1962 H 0.21960 0.74913 -0.06817
 H1963 H 0.23244 0.69458 -0.07697
 H1964 H 0.22779 0.69920 -0.04864
 C1965 C 0.21566 0.21515 0.42442
 C1966 C 0.20072 0.22167 0.41768
 C1967 C 0.19358 0.21461 0.40338
 C1968 C 0.20126 0.20093 0.39532
 C1969 C 0.21631 0.19453 0.40196
 C1970 C 0.22338 0.20150 0.41635
 C1971 C 0.22300 0.22244 0.43990
 C1972 C 0.24050 0.22346 0.44208
 C1973 C 0.24728 0.23019 0.45673
 C1974 C 0.23673 0.23645 0.46933
 C1975 C 0.21928 0.23540 0.46719
 C1976 C 0.21250 0.22839 0.45273
 H1977 H 0.18198 0.21991 0.39877
 H1978 H 0.22269 0.18407 0.39614
 H1979 H 0.26078 0.23059 0.45818
 H1980 H 0.21085 0.24007 0.47674
 H1981 H 0.23475 0.19597 0.42131
 H1982 H 0.24898 0.21919 0.43241
 H1983 H 0.19455 0.23234 0.42337
 H1984 H 0.19899 0.22745 0.45170
 C1985 C 0.28471 0.42406 0.71547
 C1986 C 0.27725 0.41644 0.70150
 C1987 C 0.28437 0.40214 0.69428
 C1988 C 0.29921 0.39514 0.70076
 C1989 C 0.30667 0.40277 0.71474
 C1990 C 0.29948 0.41699 0.72204
 C1991 C 0.27726 0.43944 0.72300
 C1992 C 0.25974 0.44164 0.72373
 C1993 C 0.25283 0.45627 0.73053
 C1994 C 0.26326 0.46882 0.73712
 C1995 C 0.28073 0.46665 0.73639
 C1996 C 0.28765 0.45219 0.72933
 H1997 H 0.27818 0.39668 0.68358
 H1998 H 0.31810 0.39784 0.72012
 H1999 H 0.23932 0.45778 0.73060
 H2000 H 0.28906 0.47620 0.74127
 H2001 H 0.30545 0.42236 0.73295
 H2002 H 0.25135 0.43204 0.71911
 H2003 H 0.26603 0.42167 0.69594
 H2004 H 0.30117 0.45115 0.72860
 C2005 C 0.28478 0.92411 0.21548
 C2006 C 0.27727 0.91646 0.20155
 C2007 C 0.28441 0.90221 0.19427
 C2008 C 0.29935 0.89532 0.20062
 C2009 C 0.30683 0.90293 0.21460
 C2010 C 0.29961 0.91710 0.22197
 C2011 C 0.27738 0.93953 0.22297
 C2012 C 0.25987 0.94173 0.22373
 C2013 C 0.25297 0.95637 0.23050
 C2014 C 0.26342 0.96894 0.23703
 C2015 C 0.28089 0.96677 0.23626
 C2016 C 0.28779 0.95231 0.22920
 H2017 H 0.27818 0.89673 0.18360
 H2018 H 0.31831 0.89805 0.21992
 H2019 H 0.23947 0.95784 0.23066
 H2020 H 0.28922 0.97631 0.24116
 H2021 H 0.30567 0.92255 0.23279
 H2022 H 0.25147 0.93211 0.21916
 H2023 H 0.26604 0.92171 0.19599
 H2024 H 0.30131 0.95129 0.22840
 C2025 C 0.78497 0.42443 0.21546
 C2026 C 0.79972 0.41739 0.22210
 C2027 C 0.80697 0.40317 0.21481
 C2028 C 0.79954 0.39553 0.20081
 C2029 C 0.78473 0.40254 0.19428
 C2030 C 0.77757 0.41682 0.20147
 C2031 C 0.77748 0.43981 0.22294
 C2032 C 0.75996 0.44201 0.22361
 C2033 C 0.75302 0.45659 0.23046
 C2034 C 0.76345 0.46911 0.23713
 C2035 C 0.78092 0.46695 0.23643
 C2036 C 0.78785 0.45256 0.22929
 H2037 H 0.81842 0.39827 0.22019
 H2038 H 0.77859 0.39711 0.18353
 H2039 H 0.73951 0.45808 0.23055
 H2040 H 0.78922 0.47647 0.24140
 H2041 H 0.76637 0.42205 0.19585
 H2042 H 0.75158 0.43243 0.21890
 H2043 H 0.80563 0.42278 0.23303
 H2044 H 0.80137 0.45157 0.22851
 C2045 C 0.78476 0.92448 0.71558
 C2046 C 0.79955 0.91739 0.72209
 C2047 C 0.80673 0.90320 0.71472
 C2048 C 0.79923 0.89560 0.70074
 C2049 C 0.78436 0.90261 0.69433
 C2050 C 0.77725 0.91688 0.70163
 C2051 C 0.77732 0.93984 0.72318
 C2052 C 0.75981 0.94204 0.72392
 C2053 C 0.75289 0.95665 0.73075
 C2054 C 0.76332 0.96921 0.73735
 C2055 C 0.78080 0.96703 0.73661
 C2056 C 0.78771 0.95257 0.72954
 H2057 H 0.81815 0.89823 0.72007
 H2058 H 0.77812 0.89716 0.68364
 H2059 H 0.73939 0.95816 0.73082
 H2060 H 0.78913 0.97658 0.74147
 H2061 H 0.76597 0.92209 0.69616
 H2062 H 0.75141 0.93245 0.71928
 H2063 H 0.80552 0.92270 0.73302
 H2064 H 0.80124 0.95153 0.72879
 C2065 C 0.71481 0.57576 0.71501
 C2066 C 0.69993 0.58273 0.72147
 C2067 C 0.69271 0.59693 0.71412
 C2068 C 0.70024 0.60463 0.70020
 C2069 C 0.71520 0.59775 0.69386
 C2070 C 0.72234 0.58348 0.70112
 C2071 C 0.72228 0.56036 0.72252
 C2072 C 0.73980 0.55821 0.72326
 C2073 C 0.74676 0.54359 0.73003
 C2074 C 0.73636 0.53096 0.73656
 C2075 C 0.71888 0.53309 0.73584
 C2076 C 0.71192 0.54754 0.72880
 H2077 H 0.68118 0.60176 0.71939
 H2078 H 0.72144 0.60325 0.68319
 H2079 H 0.76027 0.54215 0.73014
 H2080 H 0.71059 0.52352 0.74074
 H2081 H 0.73361 0.57830 0.69559
 H2082 H 0.74818 0.56786 0.71869
 H2083 H 0.69387 0.57726 0.73229
 H2084 H 0.69840 0.54852 0.72804
 C2085 C 0.71499 0.07553 0.21499
 C2086 C 0.70022 0.08257 0.22159
 C2087 C 0.69301 0.09682 0.21433
 C2088 C 0.70046 0.10449 0.20034
 C2089 C 0.71535 0.09755 0.19389
 C2090 C 0.72246 0.08323 0.20106
 C2091 C 0.72246 0.06010 0.22243
 C2092 C 0.73998 0.05791 0.22308
 C2093 C 0.74693 0.04332 0.22992
 C2094 C 0.73653 0.03076 0.23658
 C2095 C 0.71906 0.03290 0.23587
 C2096 C 0.71210 0.04731 0.22875
 H2097 H 0.68158 0.10173 0.21972
 H2098 H 0.72155 0.10305 0.18320
 H2099 H 0.76044 0.04186 0.22998
 H2100 H 0.71077 0.02335 0.24083
 H2101 H 0.73366 0.07800 0.19543
 H2102 H 0.74835 0.06751 0.21839
 H2103 H 0.69422 0.07710 0.23244
 H2104 H 0.69857 0.04829 0.22799
 C2105 C 0.21454 0.57592 0.21512
 C2106 C 0.22109 0.58258 0.20022
 C2107 C 0.21392 0.59677 0.19287
 C2108 C 0.20011 0.60483 0.20032
 C2109 C 0.19367 0.59829 0.21533
 C2110 C 0.20076 0.58399 0.22261
 C2111 C 0.22190 0.56045 0.22256
 C2112 C 0.22297 0.55841 0.23999
 C2113 C 0.22982 0.54378 0.24686
 C2114 C 0.23612 0.53106 0.23646
 C2115 C 0.23498 0.53305 0.21907
 C2116 C 0.22788 0.54750 0.21221
 H2117 H 0.21928 0.60134 0.18133
 H2118 H 0.18313 0.60415 0.22153
 H2119 H 0.23023 0.54241 0.26031
 H2120 H 0.23963 0.52337 0.21076
 H2121 H 0.19523 0.57912 0.23397
 H2122 H 0.21866 0.56819 0.24834
 H2123 H 0.23187 0.57688 0.19425
 H2124 H 0.22691 0.54842 0.19875
 C2125 C 0.21459 0.07535 0.71496
 C2126 C 0.19976 0.08235 0.72149
 C2127 C 0.19259 0.09663 0.71427
 C2128 C 0.20019 0.10446 0.70045
 C2129 C 0.21504 0.09748 0.69396
 C2130 C 0.22214 0.08313 0.70111
 C2131 C 0.22218 0.06005 0.72256
 C2132 C 0.23971 0.05791 0.72330
 C2133 C 0.24668 0.04327 0.73004
 C2134 C 0.23629 0.03064 0.73661
 C2135 C 0.21881 0.03278 0.73588
 C2136 C 0.21185 0.04726 0.72889
 H2137 H 0.18110 0.10146 0.71961
 H2138 H 0.22125 0.10302 0.68328
 H2139 H 0.26019 0.04175 0.73005
 H2140 H 0.21048 0.02318 0.74065
 H2141 H 0.23358 0.07814 0.69577
 H2142 H 0.24810 0.06754 0.71868
 H2143 H 0.19385 0.07708 0.73250
 H2144 H 0.19833 0.04827 0.72813
 C2145 C 0.28517 0.57586 0.28403
 C2146 C 0.27878 0.58243 0.29904
 C2147 C 0.28586 0.59670 0.30628
 C2148 C 0.29942 0.60494 0.29860
 C2149 C 0.30572 0.59848 0.28349
 C2150 C 0.29871 0.58410 0.27632
 C2151 C 0.27780 0.56037 0.27664
 C2152 C 0.27654 0.55837 0.25922
 C2153 C 0.26968 0.54373 0.25241
 C2154 C 0.26350 0.53099 0.26286
 C2155 C 0.26481 0.53295 0.28024
 C2156 C 0.27195 0.54740 0.28704
 H2157 H 0.28063 0.60118 0.31791
 H2158 H 0.31609 0.60447 0.27714
 H2159 H 0.26917 0.54238 0.23897
 H2160 H 0.26028 0.52326 0.28859
 H2161 H 0.30409 0.57933 0.26484
 H2162 H 0.28070 0.56817 0.25083
 H2163 H 0.26814 0.57664 0.30517
 H2164 H 0.27305 0.54830 0.30048
 C2165 C 0.28484 0.07549 0.78456
 C2166 C 0.29952 0.08264 0.77789
 C2167 C 0.30662 0.09693 0.78511
 C2168 C 0.29915 0.10456 0.79911
 C2169 C 0.28440 0.09746 0.80569
 C2170 C 0.27738 0.08310 0.79854
 C2171 C 0.27745 0.06008 0.77708
 C2172 C 0.25995 0.05782 0.77643
 C2173 C 0.25308 0.04318 0.76965
 C2174 C 0.26355 0.03065 0.76301
 C2175 C 0.28102 0.03289 0.76367
 C2176 C 0.28789 0.04737 0.77070
 H2177 H 0.31800 0.10191 0.77968
 H2178 H 0.27822 0.10289 0.81643
 H2179 H 0.23959 0.04162 0.76964
 H2180 H 0.28938 0.02337 0.75876
 H2181 H 0.26622 0.07780 0.80418
 H2182 H 0.25152 0.06739 0.78109
 H2183 H 0.30549 0.07729 0.76697
 H2184 H 0.30140 0.04847 0.77137
 C2185 C 0.78506 0.57569 0.78456
 C2186 C 0.77753 0.58338 0.79848
 C2187 C 0.78466 0.59765 0.80572
 C2188 C 0.79960 0.60453 0.79935
 C2189 C 0.80708 0.59688 0.78538
 C2190 C 0.79988 0.58269 0.77805
 C2191 C 0.77762 0.56029 0.77707
 C2192 C 0.78800 0.54748 0.77077
 C2193 C 0.78106 0.53304 0.76373
 C2194 C 0.76358 0.53091 0.76301
 C2195 C 0.75317 0.54352 0.76959
 C2196 C 0.76011 0.55812 0.77637
 H2197 H 0.77842 0.60316 0.81639
 H2198 H 0.81855 0.60175 0.78005
 H2199 H 0.78936 0.52346 0.75881
 H2200 H 0.73967 0.54209 0.76949
 H2201 H 0.80594 0.57724 0.76722
 H2202 H 0.80153 0.54846 0.77150
 H2203 H 0.76630 0.57818 0.80404
 H2204 H 0.75173 0.56777 0.78097
 C2205 C 0.78524 0.07551 0.28454
 C2206 C 0.79999 0.08259 0.27795
 C2207 C 0.80714 0.09683 0.28523
 C2208 C 0.79966 0.10445 0.29922
 C2209 C 0.78484 0.09744 0.30572
 C2210 C 0.77776 0.08314 0.29851
 C2211 C 0.77781 0.06013 0.27702
 C2212 C 0.76030 0.05794 0.27636
 C2213 C 0.75338 0.04332 0.26960
 C2214 C 0.76381 0.03074 0.26299
 C2215 C 0.78127 0.03291 0.26363
 C2216 C 0.78820 0.04737 0.27065
 H2217 H 0.81856 0.10177 0.27985
 H2218 H 0.77864 0.10289 0.31644
 H2219 H 0.73988 0.04183 0.26957
 H2220 H 0.78959 0.02336 0.25871
 H2221 H 0.76657 0.07788 0.30410
 H2222 H 0.75190 0.06755 0.28101
 H2223 H 0.80599 0.07721 0.26706
 H2224 H 0.80172 0.04841 0.27133
 C2225 C 0.71478 0.42434 0.28508
 C2226 C 0.72227 0.41661 0.29899
 C2227 C 0.71513 0.40234 0.30620
 C2228 C 0.70020 0.39548 0.29980
 C2229 C 0.69271 0.40320 0.28587
 C2230 C 0.69994 0.41740 0.27856
 C2231 C 0.72226 0.43972 0.27760
 C2232 C 0.71191 0.45256 0.27134
 C2233 C 0.71888 0.46701 0.26434
 C2234 C 0.73635 0.46912 0.26365
 C2235 C 0.74675 0.45646 0.27016
 C2236 C 0.73979 0.44184 0.27688
 H2237 H 0.72133 0.39683 0.31689
 H2238 H 0.68121 0.39838 0.28056
 H2239 H 0.71060 0.47661 0.25944
 H2240 H 0.76026 0.45788 0.27005
 H2241 H 0.69392 0.42289 0.26774
 H2242 H 0.69839 0.45160 0.27206
 H2243 H 0.73352 0.42178 0.30455
 H2244 H 0.74815 0.43215 0.28143
 C2245 C 0.71467 0.92433 0.78526
 C2246 C 0.72215 0.91664 0.79919
 C2247 C 0.71508 0.90229 0.80635
 C2248 C 0.70026 0.89531 0.79984
 C2249 C 0.69277 0.90300 0.78589
 C2250 C 0.69993 0.91727 0.77865
 C2251 C 0.72210 0.93975 0.77780
 C2252 C 0.71170 0.95254 0.77150
 C2253 C 0.71861 0.96703 0.76451
 C2254 C 0.73609 0.96920 0.76381
 C2255 C 0.74652 0.95660 0.77037
 C2256 C 0.73961 0.94195 0.77711
 H2257 H 0.72128 0.89680 0.81704
 H2258 H 0.68135 0.89808 0.78051
 H2259 H 0.71028 0.97660 0.75964
 H2260 H 0.76002 0.95809 0.77031
 H2261 H 0.69395 0.92269 0.76776
 H2262 H 0.69818 0.95150 0.77222
 H2263 H 0.73336 0.92185 0.80478
 H2264 H 0.74802 0.93232 0.78170
 C2265 C 0.21450 0.42412 0.78524
 C2266 C 0.19968 0.41713 0.77872
 C2267 C 0.19251 0.40288 0.78599
 C2268 C 0.20003 0.39515 0.79990
 C2269 C 0.21492 0.40207 0.80633
 C2270 C 0.22202 0.41638 0.79913
 C2271 C 0.22198 0.43948 0.77770
 C2272 C 0.23951 0.44158 0.77693
 C2273 C 0.24646 0.45620 0.77017
 C2274 C 0.23607 0.46885 0.76364
 C2275 C 0.21859 0.46675 0.76437
 C2276 C 0.21163 0.45229 0.77138
 H2277 H 0.18102 0.39803 0.78069
 H2278 H 0.22114 0.39657 0.81700
 H2279 H 0.25997 0.45764 0.77009
 H2280 H 0.21029 0.47636 0.75953
 H2281 H 0.23329 0.42155 0.80466
 H2282 H 0.24788 0.43190 0.78148
 H2283 H 0.19367 0.42258 0.76787
 H2284 H 0.19811 0.45131 0.77210
 C2285 C 0.21474 0.92425 0.28506
 C2286 C 0.19999 0.91721 0.27846
 C2287 C 0.19281 0.90295 0.28570
 C2288 C 0.20028 0.89526 0.29967
 C2289 C 0.21510 0.90225 0.30619
 C2290 C 0.22220 0.91657 0.29902
 C2291 C 0.22222 0.93963 0.27757
 C2292 C 0.23974 0.94178 0.27688
 C2293 C 0.24668 0.95640 0.27012
 C2294 C 0.23626 0.96901 0.26355
 C2295 C 0.21879 0.96688 0.26424
 C2296 C 0.21185 0.95243 0.27126
 H2297 H 0.18140 0.89804 0.28030
 H2298 H 0.22129 0.89676 0.31688
 H2299 H 0.26019 0.95785 0.27002
 H2300 H 0.21049 0.97646 0.25933
 H2301 H 0.23342 0.92177 0.30459
 H2302 H 0.24812 0.93213 0.28148
 H2303 H 0.19405 0.92263 0.26755
 H2304 H 0.19833 0.95142 0.27197
 C2305 C 0.42404 0.28512 0.71569
 C2306 C 0.41595 0.29884 0.72327
 C2307 C 0.40160 0.30592 0.71608
 C2308 C 0.39502 0.29952 0.70107
 C2309 C 0.40311 0.28578 0.69354
 C2310 C 0.41735 0.27862 0.70080
 C2311 C 0.43950 0.27770 0.72310
 C2312 C 0.45242 0.27169 0.71273
 C2313 C 0.46687 0.26456 0.71956
 C2314 C 0.46889 0.26343 0.73695
 C2315 C 0.45618 0.26973 0.74737
 C2316 C 0.44155 0.27659 0.74053
 H2317 H 0.39575 0.31644 0.72232
 H2318 H 0.39855 0.28047 0.68198
 H2319 H 0.47651 0.25990 0.71123
 H2320 H 0.45757 0.26932 0.76082
 H2321 H 0.42305 0.26788 0.69476
 H2322 H 0.45148 0.27267 0.69928
 H2323 H 0.42084 0.30432 0.73464
 H2324 H 0.43178 0.28089 0.74890
 C2325 C 0.42418 0.78550 0.21521
 C2326 C 0.41611 0.79927 0.22273
 C2327 C 0.40183 0.80641 0.21544
 C2328 C 0.39535 0.80006 0.20037
 C2329 C 0.40338 0.78623 0.19294
 C2330 C 0.41754 0.77902 0.20029
 C2331 C 0.43963 0.77808 0.22264
 C2332 C 0.44164 0.77698 0.24006
 C2333 C 0.45624 0.77010 0.24695
 C2334 C 0.46898 0.76380 0.23657
 C2335 C 0.46702 0.76494 0.21917
 C2336 C 0.45259 0.77207 0.21229
 H2337 H 0.39598 0.81695 0.22166
 H2338 H 0.39884 0.78092 0.18137
 H2339 H 0.45758 0.76968 0.26040
 H2340 H 0.47670 0.76027 0.21088
 H2341 H 0.42327 0.76829 0.19426
 H2342 H 0.43185 0.78128 0.24840
 H2343 H 0.42101 0.80481 0.23407
 H2344 H 0.45170 0.77305 0.19884
 C2345 C 0.92420 0.28541 0.21550
 C2346 C 0.91751 0.27900 0.20058
 C2347 C 0.90325 0.28618 0.19339
 C2348 C 0.89515 0.29988 0.20100
 C2349 C 0.90176 0.30623 0.21602
 C2350 C 0.91614 0.29912 0.22315
 C2351 C 0.93964 0.27793 0.22287
 C2352 C 0.94164 0.27677 0.24029
 C2353 C 0.95630 0.27001 0.24715
 C2354 C 0.96905 0.26379 0.23674
 C2355 C 0.96706 0.26490 0.21935
 C2356 C 0.95259 0.27195 0.21249
 H2357 H 0.89868 0.28091 0.18183
 H2358 H 0.89591 0.31671 0.22233
 H2359 H 0.95766 0.26959 0.26059
 H2360 H 0.97676 0.26029 0.21105
 H2361 H 0.92109 0.30456 0.23452
 H2362 H 0.93181 0.28094 0.24865
 H2363 H 0.92321 0.26831 0.19447
 H2364 H 0.95165 0.27287 0.19904
 C2365 C 0.92398 0.78549 0.71546
 C2366 C 0.91732 0.77898 0.70055
 C2367 C 0.90310 0.78615 0.69325
 C2368 C 0.89499 0.79988 0.70078
 C2369 C 0.90154 0.80627 0.71580
 C2370 C 0.91585 0.79919 0.72303
 C2371 C 0.93946 0.77814 0.72289
 C2372 C 0.94154 0.77704 0.74031
 C2373 C 0.95617 0.77014 0.74714
 C2374 C 0.96887 0.76383 0.73669
 C2375 C 0.96683 0.76500 0.71931
 C2376 C 0.95238 0.77215 0.71250
 H2377 H 0.89856 0.78084 0.68167
 H2378 H 0.89567 0.81679 0.72203
 H2379 H 0.95757 0.76973 0.76058
 H2380 H 0.97646 0.76036 0.71095
 H2381 H 0.92069 0.80465 0.73443
 H2382 H 0.93178 0.78133 0.74870
 H2383 H 0.92302 0.76821 0.69456
 H2384 H 0.95142 0.77314 0.69905
 C2385 C 0.57590 0.28496 0.28486
 C2386 C 0.58369 0.27739 0.29869
 C2387 C 0.59797 0.28453 0.30589
 C2388 C 0.60476 0.29953 0.29956
 C2389 C 0.59698 0.30710 0.28570
 C2390 C 0.58278 0.29987 0.27840
 C2391 C 0.56050 0.27750 0.27741
 C2392 C 0.54763 0.28787 0.27123
 C2393 C 0.53319 0.28092 0.26421
 C2394 C 0.53111 0.26345 0.26343
 C2395 C 0.54377 0.25302 0.26988
 C2396 C 0.55839 0.25997 0.27662
 H2397 H 0.60352 0.27826 0.31651
 H2398 H 0.60175 0.31866 0.28045
 H2399 H 0.52358 0.28923 0.25939
 H2400 H 0.54237 0.23950 0.26971
 H2401 H 0.57726 0.30596 0.26763
 H2402 H 0.54857 0.30140 0.27204
 H2403 H 0.57859 0.26608 0.30419
 H2404 H 0.56807 0.25158 0.28113
 C2405 C 0.57584 0.78477 0.78524
 C2406 C 0.58382 0.77704 0.79889
 C2407 C 0.59818 0.78412 0.80600
 C2408 C 0.60489 0.79919 0.79974
 C2409 C 0.59692 0.80691 0.78608
 C2410 C 0.58264 0.79976 0.77888
 C2411 C 0.56040 0.77735 0.77782
 C2412 C 0.54750 0.78778 0.77181
 C2413 C 0.53304 0.78090 0.76477
 C2414 C 0.53099 0.76343 0.76376
 C2415 C 0.54367 0.75295 0.77008
 C2416 C 0.55830 0.75983 0.77685
 H2417 H 0.60391 0.77772 0.81645
 H2418 H 0.60160 0.81854 0.78090
 H2419 H 0.52340 0.78926 0.76010
 H2420 H 0.54227 0.73943 0.76977
 H2421 H 0.57701 0.80594 0.76821
 H2422 H 0.54844 0.80130 0.77275
 H2423 H 0.57881 0.76563 0.80429
 H2424 H 0.56801 0.75140 0.78122
 C2425 C 0.07556 0.28469 0.78530
 C2426 C 0.08353 0.27695 0.79894
 C2427 C 0.09788 0.28401 0.80606
 C2428 C 0.10460 0.29909 0.79981
 C2429 C 0.09665 0.30682 0.78615
 C2430 C 0.08237 0.29968 0.77894
 C2431 C 0.06014 0.27729 0.77783
 C2432 C 0.04727 0.28772 0.77176
 C2433 C 0.03282 0.28084 0.76469
 C2434 C 0.03075 0.26336 0.76368
 C2435 C 0.04340 0.25289 0.77006
 C2436 C 0.05803 0.25976 0.77685
 H2437 H 0.10357 0.27763 0.81655
 H2438 H 0.10132 0.31846 0.78101
 H2439 H 0.02319 0.28923 0.76004
 H2440 H 0.04195 0.23938 0.76984
 H2441 H 0.07676 0.30587 0.76827
 H2442 H 0.04823 0.30124 0.77270
 H2443 H 0.07852 0.26554 0.80434
 H2444 H 0.06772 0.25133 0.78126
 C2445 C 0.07590 0.78481 0.28499
 C2446 C 0.08383 0.77709 0.29866
 C2447 C 0.09818 0.78416 0.30579
 C2448 C 0.10493 0.79921 0.29952
 C2449 C 0.09699 0.80693 0.28583
 C2450 C 0.08273 0.79978 0.27861
 C2451 C 0.06048 0.77739 0.27754
 C2452 C 0.04761 0.78783 0.27148
 C2453 C 0.03317 0.78095 0.26441
 C2454 C 0.03109 0.76348 0.26345
 C2455 C 0.04375 0.75300 0.26982
 C2456 C 0.05837 0.75987 0.27660
 H2457 H 0.10388 0.77776 0.31626
 H2458 H 0.10170 0.81854 0.28065
 H2459 H 0.02356 0.78932 0.25969
 H2460 H 0.04232 0.73948 0.26954
 H2461 H 0.07714 0.80593 0.26791
 H2462 H 0.04856 0.80135 0.27242
 H2463 H 0.07881 0.76569 0.30406
 H2464 H 0.06806 0.75144 0.28101
 C2465 C 0.57596 0.71536 0.71520
 C2466 C 0.58395 0.72314 0.70159
 C2467 C 0.59825 0.71601 0.69437
 C2468 C 0.60487 0.70081 0.70045
 C2469 C 0.59690 0.69305 0.71409
 C2470 C 0.58269 0.70026 0.72142
 C2471 C 0.56051 0.72278 0.72266
 C2472 C 0.54759 0.71236 0.72862
 C2473 C 0.53313 0.71925 0.73570
 C2474 C 0.53108 0.73673 0.73676
 C2475 C 0.54378 0.74720 0.73050
 C2476 C 0.55842 0.74031 0.72371
 H2477 H 0.60397 0.72243 0.68393
 H2478 H 0.60151 0.68133 0.71914
 H2479 H 0.52348 0.71090 0.74034
 H2480 H 0.54240 0.76072 0.73087
 H2481 H 0.57702 0.69400 0.73202
 H2482 H 0.54850 0.69885 0.72759
 H2483 H 0.57897 0.73459 0.69625
 H2484 H 0.56814 0.74873 0.71938
 C2485 C 0.57595 0.21497 0.21529
 C2486 C 0.58373 0.22252 0.20144
 C2487 C 0.59808 0.21544 0.19430
 C2488 C 0.60498 0.20050 0.20070
 C2489 C 0.59725 0.19298 0.21462
 C2490 C 0.58297 0.20015 0.22185
 C2491 C 0.56049 0.22239 0.22269
 C2492 C 0.54768 0.21198 0.22891
 C2493 C 0.53325 0.21890 0.23602
 C2494 C 0.53111 0.23638 0.23682
 C2495 C 0.54367 0.24682 0.23024
 C2496 C 0.55828 0.23991 0.22342
 H2497 H 0.60363 0.22171 0.18368
 H2498 H 0.60213 0.18151 0.21997
 H2499 H 0.52371 0.21058 0.24093
 H2500 H 0.54222 0.26034 0.23040
 H2501 H 0.57745 0.19410 0.23265
 H2502 H 0.54867 0.19846 0.22809
 H2503 H 0.57853 0.23375 0.19585
 H2504 H 0.56788 0.24832 0.21880
 C2505 C 0.07596 0.71540 0.21486
 C2506 C 0.08381 0.72312 0.20113
 C2507 C 0.09807 0.71598 0.19385
 C2508 C 0.10480 0.70087 0.20003
 C2509 C 0.09694 0.69318 0.21377
 C2510 C 0.08278 0.70039 0.22114
 C2511 C 0.06055 0.72279 0.22240
 C2512 C 0.04771 0.71234 0.22847
 C2513 C 0.03326 0.71920 0.23560
 C2514 C 0.03114 0.73667 0.23658
 C2515 C 0.04378 0.74716 0.23021
 C2516 C 0.05840 0.74030 0.22337
 H2517 H 0.10374 0.72237 0.18335
 H2518 H 0.10165 0.68154 0.21892
 H2519 H 0.02368 0.71082 0.24037
 H2520 H 0.04235 0.76067 0.23052
 H2521 H 0.07725 0.69421 0.23185
 H2522 H 0.04868 0.69882 0.22750
 H2523 H 0.07877 0.73455 0.19579
 H2524 H 0.06806 0.74874 0.21894
 C2525 C 0.07558 0.21504 0.71523
 C2526 C 0.08358 0.22280 0.70163
 C2527 C 0.09797 0.21574 0.69454
 C2528 C 0.10475 0.20071 0.70085
 C2529 C 0.09671 0.19292 0.71443
 C2530 C 0.08241 0.20005 0.72161
 C2531 C 0.06021 0.22253 0.72276
 C2532 C 0.04735 0.21212 0.72880
 C2533 C 0.03286 0.21899 0.73583
 C2534 C 0.03076 0.23647 0.73683
 C2535 C 0.04341 0.24695 0.73048
 C2536 C 0.05808 0.24007 0.72373
 H2537 H 0.10367 0.22210 0.68405
 H2538 H 0.10138 0.18128 0.71962
 H2539 H 0.02324 0.21059 0.74043
 H2540 H 0.04191 0.26046 0.73070
 H2541 H 0.07697 0.19399 0.73245
 H2542 H 0.04834 0.19860 0.72781
 H2543 H 0.07871 0.23436 0.69642
 H2544 H 0.06775 0.24852 0.71931
 C2545 C 0.42399 0.71483 0.28406
 C2546 C 0.41577 0.70128 0.27634
 C2547 C 0.40134 0.69431 0.28346
 C2548 C 0.39482 0.70064 0.29853
 C2549 C 0.40303 0.71420 0.30621
 C2550 C 0.41734 0.72126 0.29902
 C2551 C 0.43952 0.72217 0.27673
 C2552 C 0.45243 0.72803 0.28717
 C2553 C 0.46690 0.73517 0.28042
 C2554 C 0.46895 0.73646 0.26305
 C2555 C 0.45628 0.73025 0.25255
 C2556 C 0.44161 0.72340 0.25931
 H2557 H 0.39538 0.68394 0.27710
 H2558 H 0.39849 0.71945 0.31781
 H2559 H 0.47654 0.73972 0.28881
 H2560 H 0.45772 0.73074 0.23912
 H2561 H 0.42311 0.73190 0.30515
 H2562 H 0.45146 0.72695 0.30061
 H2563 H 0.42060 0.69588 0.26490
 H2564 H 0.43186 0.71923 0.25088
 C2565 C 0.42402 0.21442 0.78455
 C2566 C 0.41585 0.20083 0.77686
 C2567 C 0.40144 0.19382 0.78397
 C2568 C 0.39487 0.20014 0.79903
 C2569 C 0.40303 0.21376 0.80668
 C2570 C 0.41734 0.22085 0.79950
 C2571 C 0.43952 0.22180 0.77718
 C2572 C 0.45242 0.22775 0.78759
 C2573 C 0.46687 0.23490 0.78079
 C2574 C 0.46891 0.23612 0.76342
 C2575 C 0.45623 0.22988 0.75295
 C2576 C 0.44159 0.22300 0.75976
 H2577 H 0.39554 0.18339 0.77764
 H2578 H 0.39849 0.21900 0.81829
 H2579 H 0.47650 0.23951 0.78916
 H2580 H 0.45764 0.23034 0.73951
 H2581 H 0.42309 0.23150 0.80563
 H2582 H 0.45146 0.22672 0.80103
 H2583 H 0.42073 0.19539 0.76546
 H2584 H 0.43183 0.21878 0.75136
 C2585 C 0.92409 0.71480 0.78441
 C2586 C 0.91738 0.72128 0.79932
 C2587 C 0.90319 0.71406 0.80661
 C2588 C 0.89522 0.70024 0.79914
 C2589 C 0.90177 0.69391 0.78408
 C2590 C 0.91607 0.70105 0.77685
 C2591 C 0.93955 0.72223 0.77702
 C2592 C 0.94162 0.72333 0.75959
 C2593 C 0.95623 0.73021 0.75275
 C2594 C 0.96890 0.73654 0.76318
 C2595 C 0.96687 0.73542 0.78056
 C2596 C 0.95243 0.72827 0.78740
 H2597 H 0.89861 0.71936 0.81818
 H2598 H 0.89597 0.68336 0.77786
 H2599 H 0.95762 0.73063 0.73931
 H2600 H 0.97649 0.74011 0.78889
 H2601 H 0.92101 0.69553 0.76552
 H2602 H 0.93186 0.71903 0.75122
 H2603 H 0.92307 0.73200 0.80538
 H2604 H 0.95148 0.72732 0.80085
 C2605 C 0.92421 0.21467 0.28444
 C2606 C 0.91613 0.20099 0.27681
 C2607 C 0.90179 0.19389 0.28399
 C2608 C 0.89523 0.20020 0.29905
 C2609 C 0.90330 0.21390 0.30664
 C2610 C 0.91753 0.22109 0.29939
 C2611 C 0.93966 0.22212 0.27704
 C2612 C 0.95256 0.22810 0.28744
 C2613 C 0.96697 0.23532 0.28063
 C2614 C 0.96901 0.23651 0.26325
 C2615 C 0.95632 0.23025 0.25280
 C2616 C 0.94171 0.22331 0.25962
 H2617 H 0.89595 0.18340 0.27771
 H2618 H 0.89875 0.21914 0.31824
 H2619 H 0.97658 0.23999 0.28899
 H2620 H 0.95769 0.23076 0.23936
 H2621 H 0.92323 0.23178 0.30549
 H2622 H 0.95162 0.22706 0.30088
 H2623 H 0.92103 0.19555 0.26542
 H2624 H 0.93197 0.21904 0.25123
 C2625 C 0.28497 0.28465 0.57596
 C2626 C 0.27847 0.29960 0.58273
 C2627 C 0.28560 0.30677 0.59697
 C2628 C 0.29934 0.29912 0.60496
 C2629 C 0.30571 0.28406 0.59831
 C2630 C 0.29867 0.27697 0.58396
 C2631 C 0.27760 0.27727 0.56053
 C2632 C 0.27660 0.25976 0.55840
 C2633 C 0.26982 0.25292 0.54380
 C2634 C 0.26351 0.26343 0.53119
 C2635 C 0.26451 0.28089 0.53329
 C2636 C 0.27157 0.28773 0.54771
 H2637 H 0.28031 0.31837 0.60160
 H2638 H 0.31620 0.27770 0.60407
 H2639 H 0.26946 0.23940 0.54239
 H2640 H 0.25978 0.28928 0.52373
 H2641 H 0.30419 0.26560 0.57897
 H2642 H 0.28093 0.25130 0.56808
 H2643 H 0.26776 0.30574 0.57708
 H2644 H 0.27249 0.30125 0.54869
 C2645 C 0.28479 0.78536 0.07551
 C2646 C 0.27704 0.79898 0.08358
 C2647 C 0.28412 0.80600 0.09795
 C2648 C 0.29922 0.79967 0.10456
 C2649 C 0.30695 0.78603 0.09647
 C2650 C 0.29978 0.77892 0.08221
 C2651 C 0.27743 0.77802 0.06005
 C2652 C 0.28791 0.77207 0.04722
 C2653 C 0.28111 0.76503 0.03277
 C2654 C 0.26366 0.76396 0.03066
 C2655 C 0.25312 0.77020 0.04328
 C2656 C 0.25992 0.77696 0.05791
 H2657 H 0.27772 0.81644 0.10377
 H2658 H 0.31859 0.78081 0.10105
 H2659 H 0.28953 0.76038 0.02321
 H2660 H 0.23962 0.76982 0.04184
 H2661 H 0.30597 0.76826 0.07651
 H2662 H 0.30142 0.77305 0.04821
 H2663 H 0.26562 0.80445 0.07866
 H2664 H 0.25145 0.78121 0.06759
 C2665 C 0.78501 0.28522 0.07576
 C2666 C 0.77835 0.30001 0.08271
 C2667 C 0.78551 0.30717 0.09694
 C2668 C 0.79945 0.29967 0.10472
 C2669 C 0.80601 0.28480 0.09786
 C2670 C 0.79894 0.27770 0.08354
 C2671 C 0.77760 0.27783 0.06036
 C2672 C 0.77681 0.26031 0.05816
 C2673 C 0.77000 0.25345 0.04359
 C2674 C 0.76347 0.26394 0.03105
 C2675 C 0.76426 0.28141 0.03323
 C2676 C 0.77132 0.28827 0.04765
 H2677 H 0.78006 0.31863 0.10174
 H2678 H 0.81669 0.27858 0.10344
 H2679 H 0.76980 0.23994 0.04212
 H2680 H 0.75937 0.28979 0.02375
 H2681 H 0.80459 0.26647 0.07842
 H2682 H 0.78132 0.25188 0.06777
 H2683 H 0.76748 0.30603 0.07722
 H2684 H 0.77205 0.30180 0.04872
 C2685 C 0.78502 0.78533 0.57565
 C2686 C 0.77836 0.80012 0.58257
 C2687 C 0.78551 0.80731 0.59681
 C2688 C 0.79943 0.79982 0.60464
 C2689 C 0.80603 0.78495 0.59777
 C2690 C 0.79896 0.77784 0.58344
 C2691 C 0.77763 0.77792 0.56023
 C2692 C 0.77684 0.76040 0.55805
 C2693 C 0.77010 0.75352 0.54344
 C2694 C 0.76361 0.76399 0.53089
 C2695 C 0.76438 0.78146 0.53305
 C2696 C 0.77139 0.78834 0.54748
 H2697 H 0.78008 0.81879 0.60157
 H2698 H 0.81672 0.77876 0.60334
 H2699 H 0.76991 0.74001 0.54197
 H2700 H 0.75949 0.78981 0.52353
 H2701 H 0.80465 0.76663 0.57829
 H2702 H 0.78129 0.75197 0.56768
 H2703 H 0.76751 0.80615 0.57706
 H2704 H 0.77211 0.80187 0.54852
 C2705 C 0.28526 0.71476 0.42424
 C2706 C 0.27866 0.69993 0.41737
 C2707 C 0.28586 0.69271 0.40317
 C2708 C 0.29976 0.70020 0.39532
 C2709 C 0.30626 0.71513 0.40212
 C2710 C 0.29915 0.72227 0.41642
 C2711 C 0.27783 0.72220 0.43962
 C2712 C 0.27700 0.73973 0.44175
 C2713 C 0.27024 0.74664 0.45634
 C2714 C 0.26378 0.73619 0.46893
 C2715 C 0.26460 0.71872 0.46682
 C2716 C 0.27162 0.71180 0.45240
 H2717 H 0.28045 0.68122 0.39841
 H2718 H 0.31690 0.72137 0.39649
 H2719 H 0.27004 0.76015 0.45777
 H2720 H 0.25977 0.71038 0.47636
 H2721 H 0.30474 0.73356 0.42149
 H2722 H 0.28145 0.74813 0.43210
 H2723 H 0.26781 0.69393 0.42289
 H2724 H 0.27240 0.69827 0.45139
 C2725 C 0.28497 0.21455 0.92441
 C2726 C 0.27833 0.19975 0.91749
 C2727 C 0.28551 0.19255 0.90327
 C2728 C 0.29945 0.20003 0.89545
 C2729 C 0.30598 0.21492 0.90229
 C2730 C 0.29889 0.22204 0.91661
 C2731 C 0.27754 0.22198 0.93979
 C2732 C 0.27673 0.23950 0.94194
 C2733 C 0.26995 0.24641 0.95653
 C2734 C 0.26348 0.23596 0.96911
 C2735 C 0.26428 0.21849 0.96698
 C2736 C 0.27131 0.21158 0.95256
 H2737 H 0.28007 0.18110 0.89847
 H2738 H 0.31664 0.22114 0.89668
 H2739 H 0.26975 0.25992 0.95796
 H2740 H 0.25942 0.21015 0.97652
 H2741 H 0.30451 0.23329 0.92171
 H2742 H 0.28121 0.24791 0.93230
 H2743 H 0.26746 0.19377 0.92299
 H2744 H 0.27207 0.19805 0.95154
 C2745 C 0.78516 0.71496 0.92432
 C2746 C 0.79906 0.72245 0.91650
 C2747 C 0.80611 0.71535 0.90215
 C2748 C 0.79954 0.70048 0.89531
 C2749 C 0.78562 0.69300 0.90314
 C2750 C 0.77848 0.70018 0.91739
 C2751 C 0.77777 0.72237 0.93974
 C2752 C 0.77155 0.71193 0.95249
 C2753 C 0.76454 0.71880 0.96693
 C2754 C 0.76374 0.73627 0.96910
 C2755 C 0.77022 0.74675 0.95655
 C2756 C 0.77697 0.73989 0.94194
 H2757 H 0.81677 0.72155 0.89654
 H2758 H 0.78017 0.68155 0.89835
 H2759 H 0.75970 0.71044 0.97644
 H2760 H 0.77002 0.76026 0.95803
 H2761 H 0.76761 0.69420 0.92290
 H2762 H 0.77230 0.69841 0.95142
 H2763 H 0.80469 0.73370 0.92161
 H2764 H 0.78143 0.74832 0.93232
 C2765 C 0.78505 0.21474 0.42421
 C2766 C 0.79894 0.22226 0.41641
 C2767 C 0.80604 0.21517 0.40207
 C2768 C 0.79952 0.20028 0.39522
 C2769 C 0.78559 0.19279 0.40302
 C2770 C 0.77841 0.19996 0.41726
 C2771 C 0.77762 0.22213 0.43962
 C2772 C 0.77137 0.21169 0.45235
 C2773 C 0.76432 0.21856 0.46678
 C2774 C 0.76352 0.23603 0.46895
 C2775 C 0.77001 0.24651 0.45641
 C2776 C 0.77680 0.23965 0.44181
 H2777 H 0.81666 0.22143 0.39645
 H2778 H 0.78014 0.18135 0.39821
 H2779 H 0.75946 0.21020 0.47628
 H2780 H 0.76980 0.26002 0.45788
 H2781 H 0.76753 0.19397 0.42275
 H2782 H 0.77212 0.19817 0.45129
 H2783 H 0.80454 0.23352 0.42152
 H2784 H 0.78127 0.24808 0.43219
 C2785 C 0.71531 0.28438 0.42414
 C2786 C 0.70146 0.27684 0.41628
 C2787 C 0.69441 0.28395 0.40194
 C2788 C 0.70092 0.29888 0.39514
 C2789 C 0.71480 0.30639 0.40299
 C2790 C 0.72193 0.29920 0.41724
 C2791 C 0.72269 0.27696 0.43955
 C2792 C 0.72884 0.28738 0.45232
 C2793 C 0.73584 0.28049 0.46677
 C2794 C 0.73668 0.26302 0.46892
 C2795 C 0.73025 0.25255 0.45634
 C2796 C 0.72352 0.25944 0.44173
 H2797 H 0.68379 0.27771 0.39630
 H2798 H 0.72021 0.31788 0.39824
 H2799 H 0.74064 0.28884 0.47630
 H2800 H 0.73046 0.23904 0.45780
 H2801 H 0.73276 0.30522 0.42278
 H2802 H 0.72806 0.30091 0.45129
 H2803 H 0.69585 0.26556 0.42136
 H2804 H 0.71909 0.25102 0.43209
 C2805 C 0.71539 0.78459 0.92439
 C2806 C 0.70151 0.77704 0.91658
 C2807 C 0.69441 0.78415 0.90226
 C2808 C 0.70089 0.79908 0.89543
 C2809 C 0.71478 0.80660 0.90325
 C2810 C 0.72198 0.79941 0.91747
 C2811 C 0.72282 0.77718 0.93979
 C2812 C 0.72902 0.78760 0.95254
 C2813 C 0.73606 0.78072 0.96696
 C2814 C 0.73690 0.76325 0.96911
 C2815 C 0.73046 0.75278 0.95655
 C2816 C 0.72369 0.75966 0.94196
 H2817 H 0.68377 0.77790 0.89666
 H2818 H 0.72017 0.81809 0.89847
 H2819 H 0.74088 0.78907 0.97649
 H2820 H 0.73069 0.73926 0.95801
 H2821 H 0.73281 0.80545 0.92298
 H2822 H 0.72824 0.80113 0.95150
 H2823 H 0.69592 0.76577 0.92170
 H2824 H 0.71926 0.75123 0.93232
 C2825 C 0.21518 0.28425 0.92436
 C2826 C 0.22179 0.29906 0.91744
 C2827 C 0.21461 0.30627 0.90322
 C2828 C 0.20070 0.29877 0.89541
 C2829 C 0.19420 0.28384 0.90223
 C2830 C 0.20130 0.27672 0.91655
 C2831 C 0.22259 0.27685 0.93978
 C2832 C 0.22343 0.25933 0.94197
 C2833 C 0.23019 0.25246 0.95658
 C2834 C 0.23664 0.26294 0.96912
 C2835 C 0.23581 0.28041 0.96695
 C2836 C 0.22878 0.28729 0.95252
 H2837 H 0.22002 0.31774 0.89844
 H2838 H 0.18358 0.27759 0.89662
 H2839 H 0.23041 0.23895 0.95805
 H2840 H 0.24065 0.28878 0.97646
 H2841 H 0.19570 0.26546 0.92167
 H2842 H 0.21899 0.25090 0.93235
 H2843 H 0.23264 0.30507 0.92295
 H2844 H 0.22801 0.30081 0.95146
 C2845 C 0.21540 0.78451 0.42423
 C2846 C 0.22199 0.79933 0.41731
 C2847 C 0.21480 0.80652 0.40308
 C2848 C 0.20090 0.79899 0.39527
 C2849 C 0.19443 0.78406 0.40209
 C2850 C 0.20153 0.77696 0.41642
 C2851 C 0.22283 0.77711 0.43963
 C2852 C 0.22369 0.75959 0.44181
 C2853 C 0.23048 0.75272 0.45640
 C2854 C 0.23694 0.76320 0.46894
 C2855 C 0.23609 0.78067 0.46679
 C2856 C 0.22903 0.78755 0.45237
 H2857 H 0.22018 0.81801 0.39831
 H2858 H 0.18379 0.77781 0.39649
 H2859 H 0.23071 0.73921 0.45787
 H2860 H 0.24092 0.78903 0.47630
 H2861 H 0.19594 0.76569 0.42153
 H2862 H 0.21923 0.75116 0.43220
 H2863 H 0.23282 0.80537 0.42282
 H2864 H 0.22824 0.80107 0.45133
 C2865 C 0.71541 0.71570 0.57574
 C2866 C 0.70156 0.72326 0.58362
 C2867 C 0.69452 0.71616 0.59797
 C2868 C 0.70104 0.70122 0.60476
 C2869 C 0.71490 0.69368 0.59688
 C2870 C 0.72203 0.70086 0.58262
 C2871 C 0.72278 0.72311 0.56032
 C2872 C 0.72894 0.71269 0.54754
 C2873 C 0.73595 0.71957 0.53310
 C2874 C 0.73678 0.73704 0.53094
 C2875 C 0.73035 0.74751 0.54353
 C2876 C 0.72362 0.74063 0.55814
 H2877 H 0.68391 0.72242 0.60363
 H2878 H 0.72032 0.68218 0.60163
 H2879 H 0.74077 0.71120 0.52357
 H2880 H 0.73058 0.76102 0.54208
 H2881 H 0.73285 0.69482 0.57706
 H2882 H 0.72817 0.69916 0.54858
 H2883 H 0.69595 0.73455 0.57855
 H2884 H 0.71920 0.74905 0.56779
 C2885 C 0.71529 0.21550 0.07584
 C2886 C 0.70141 0.22302 0.08370
 C2887 C 0.69431 0.21584 0.09798
 C2888 C 0.70081 0.20087 0.10472
 C2889 C 0.71471 0.19337 0.09686
 C2890 C 0.72190 0.20064 0.08268
 C2891 C 0.72268 0.22296 0.06045
 C2892 C 0.72885 0.21255 0.04766
 C2893 C 0.73584 0.21945 0.03322
 C2894 C 0.73667 0.23693 0.03108
 C2895 C 0.73022 0.24738 0.04368
 C2896 C 0.72349 0.24048 0.05829
 H2897 H 0.68368 0.22207 0.10363
 H2898 H 0.72011 0.18186 0.10158
 H2899 H 0.74064 0.21110 0.02367
 H2900 H 0.73040 0.26089 0.04222
 H2901 H 0.73276 0.19463 0.07716
 H2902 H 0.72808 0.19902 0.04868
 H2903 H 0.69583 0.23435 0.07869
 H2904 H 0.71905 0.24889 0.06794
 C2905 C 0.21573 0.71524 0.07538
 C2906 C 0.20076 0.72172 0.08211
 C2907 C 0.19355 0.71458 0.09634
 C2908 C 0.20119 0.70085 0.10438
 C2909 C 0.21626 0.69448 0.09775
 C2910 C 0.22339 0.70153 0.08341
 C2911 C 0.22316 0.72263 0.05996
 C2912 C 0.24067 0.72364 0.05786
 C2913 C 0.24753 0.73045 0.04326
 C2914 C 0.23705 0.73677 0.03063
 C2915 C 0.21959 0.73574 0.03271
 C2916 C 0.21273 0.72866 0.04713
 H2917 H 0.18193 0.71986 0.10094
 H2918 H 0.22260 0.68399 0.10354
 H2919 H 0.26104 0.73082 0.04186
 H2920 H 0.21121 0.74045 0.02314
 H2921 H 0.23479 0.69604 0.07847
 H2922 H 0.24910 0.71931 0.06754
 H2923 H 0.19463 0.73244 0.07644
 H2924 H 0.19921 0.72773 0.04810
 C2925 C 0.21499 0.21551 0.57598
 C2926 C 0.20131 0.22320 0.58400
 C2927 C 0.19423 0.21606 0.59833
 C2928 C 0.20054 0.20093 0.60493
 C2929 C 0.21424 0.19326 0.59687
 C2930 C 0.22141 0.20050 0.58266
 C2931 C 0.22233 0.22290 0.56054
 C2932 C 0.22832 0.21245 0.54769
 C2933 C 0.23537 0.21931 0.53327
 C2934 C 0.23639 0.23678 0.53120
 C2935 C 0.23011 0.24727 0.54384
 C2936 C 0.22335 0.24041 0.55844
 H2937 H 0.18373 0.22242 0.60409
 H2938 H 0.21944 0.18158 0.60139
 H2939 H 0.24008 0.21093 0.52370
 H2940 H 0.23049 0.26079 0.54246
 H2941 H 0.23203 0.19430 0.57689
 H2942 H 0.22739 0.19893 0.54865
 H2943 H 0.19578 0.23456 0.57899
 H2944 H 0.21907 0.24884 0.56815
   
