data_POSCAR
  _audit_creation_date              2014-09-24
  _audit_creation_method            'ToBaCCo'
  _symmetry_space_group_name_H-M    'P1'
  _symmetry_Int_Tables_number       1
  _symmetry_cell_setting            triclinic
  loop_
  _symmetry_equiv_pos_as_xyz
 x,y,z
_cell_length_a 51.0735
_cell_length_b 51.0726
_cell_length_c 50.4714
_cell_angle_alpha 89.976200
_cell_angle_beta 90.027300
_cell_angle_gamma 89.696600
loop_
  _atom_site_label
  _atom_site_type_symbol
  _atom_site_fract_x
  _atom_site_fract_y
  _atom_site_fract_z
C1 C 0.18902 0.22356 0.21628
 C2 C 0.20429 0.23146 0.19465
 C3 C 0.22638 0.21727 0.18770
 C4 C 0.23333 0.19479 0.20212
 C5 C 0.21811 0.18686 0.22327
 C6 C 0.19581 0.20134 0.23041
 C7 C 0.16679 0.23381 0.22775
 N8 N 0.15987 0.21827 0.24843
 C9 C 0.17748 0.19830 0.25013
 C10 C 0.22932 0.16443 0.23336
 N11 N 0.25098 0.15849 0.21886
 C12 C 0.25355 0.17704 0.19970
 C13 C 0.23729 0.22939 0.16601
 N14 N 0.22218 0.25041 0.15951
 C15 C 0.20196 0.25182 0.17694
 H16 H 0.15630 0.25119 0.22140
 H17 H 0.17724 0.18295 0.26492
 H18 H 0.22231 0.15345 0.25025
 H19 H 0.26874 0.17741 0.18476
 H20 H 0.25460 0.22306 0.15538
 H21 H 0.18672 0.26663 0.17678
 C22 C 0.68955 0.72440 0.71677
 C23 C 0.70472 0.73215 0.69502
 C24 C 0.72614 0.71731 0.68741
 C25 C 0.73279 0.69458 0.70154
 C26 C 0.71775 0.68685 0.72289
 C27 C 0.69592 0.70181 0.73052
 C28 C 0.66769 0.73503 0.72862
 N29 N 0.66055 0.71934 0.74909
 C30 C 0.67770 0.69894 0.75037
 C31 C 0.72877 0.66424 0.73280
 N32 N 0.75019 0.65806 0.71803
 C33 C 0.75272 0.67655 0.69881
 C34 C 0.73691 0.72926 0.66558
 N35 N 0.72252 0.75098 0.65969
 C36 C 0.70281 0.75288 0.67770
 H37 H 0.65751 0.75269 0.72257
 H38 H 0.67713 0.68333 0.76487
 H39 H 0.72194 0.65340 0.74986
 H40 H 0.76780 0.67682 0.68377
 H41 H 0.75407 0.72264 0.65488
 H42 H 0.68777 0.76789 0.67789
 C43 C 0.31343 0.77602 0.71639
 C44 C 0.29754 0.76742 0.69551
 C45 C 0.27513 0.78127 0.68889
 C46 C 0.26850 0.80411 0.70286
 C47 C 0.28443 0.81286 0.72304
 C48 C 0.30701 0.79867 0.72997
 C49 C 0.33589 0.76604 0.72769
 N50 N 0.34328 0.78212 0.74775
 C51 C 0.32580 0.80222 0.74918
 C52 C 0.27347 0.83556 0.73271
 N53 N 0.25099 0.84093 0.71905
 C54 C 0.24797 0.82151 0.70072
 C55 C 0.26373 0.76860 0.66780
 N56 N 0.27884 0.74759 0.66131
 C57 C 0.29953 0.74669 0.67823
 H58 H 0.34608 0.74835 0.72176
 H59 H 0.32633 0.81790 0.76360
 H60 H 0.28121 0.84674 0.74909
 H61 H 0.23247 0.82023 0.68619
 H62 H 0.24615 0.77467 0.65743
 H63 H 0.31497 0.73209 0.67789
 C64 C 0.81361 0.28009 0.21495
 C65 C 0.79864 0.27265 0.19294
 C66 C 0.77570 0.28593 0.18697
 C67 C 0.76764 0.30708 0.20276
 C68 C 0.78246 0.31441 0.22443
 C69 C 0.80547 0.30062 0.23071
 C70 C 0.83651 0.27050 0.22560
 N71 N 0.84254 0.28451 0.24779
 C72 C 0.82342 0.30305 0.25086
 C73 C 0.77036 0.33580 0.23569
 N74 N 0.74857 0.34172 0.22135
 C75 C 0.74672 0.32411 0.20123
 C76 C 0.76507 0.27419 0.16493
 N77 N 0.78109 0.25423 0.15734
 C78 C 0.80170 0.25321 0.17433
 H79 H 0.84727 0.25384 0.21800
 H80 H 0.82261 0.31779 0.26621
 H81 H 0.77702 0.34629 0.25304
 H82 H 0.73171 0.32413 0.18609
 H83 H 0.74709 0.27985 0.15504
 H84 H 0.81752 0.23904 0.17352
 C85 C 0.81411 0.72176 0.28412
 C86 C 0.79975 0.72940 0.30652
 C87 C 0.77734 0.71595 0.31348
 C88 C 0.76919 0.69450 0.29830
 C89 C 0.78326 0.68712 0.27608
 C90 C 0.80585 0.70095 0.26891
 C91 C 0.83655 0.73128 0.27269
 N92 N 0.84230 0.71688 0.25064
 C93 C 0.82334 0.69824 0.24837
 C94 C 0.77093 0.66569 0.26534
 N95 N 0.74990 0.65976 0.28065
 C96 C 0.74868 0.67733 0.30083
 C97 C 0.76715 0.72794 0.33563
 N98 N 0.78290 0.74825 0.34234
 C99 C 0.80296 0.74921 0.32469
 H100 H 0.84725 0.74805 0.27985
 H101 H 0.82234 0.68320 0.23335
 H102 H 0.77719 0.65482 0.24803
 H103 H 0.73393 0.67762 0.31622
 H104 H 0.74961 0.72226 0.34615
 H105 H 0.81842 0.76362 0.32473
 C106 C 0.31549 0.21912 -0.21466
 C107 C 0.30028 0.22746 -0.19311
 C108 C 0.27749 0.21437 -0.18673
 C109 C 0.26984 0.19250 -0.20160
 C110 C 0.28502 0.18414 -0.22260
 C111 C 0.30781 0.19779 -0.22943
 C112 C 0.33815 0.22850 -0.22576
 N113 N 0.34443 0.21363 -0.24734
 C114 C 0.32578 0.19469 -0.24949
 C115 C 0.27337 0.16217 -0.23287
 N116 N 0.25126 0.15683 -0.21872
 C117 C 0.24902 0.17563 -0.19962
 C118 C 0.26667 0.22688 -0.16516
 N119 N 0.28244 0.24711 -0.15824
 C120 C 0.30305 0.24758 -0.17524
 H121 H 0.34845 0.24569 -0.21902
 H122 H 0.32523 0.17935 -0.26423
 H123 H 0.28050 0.15134 -0.24982
 H124 H 0.23404 0.17664 -0.18452
 H125 H 0.24884 0.22143 -0.15501
 H126 H 0.31877 0.26171 -0.17483
 C127 C 0.68399 0.27931 -0.21482
 C128 C 0.69923 0.27113 -0.19321
 C129 C 0.72158 0.28475 -0.18649
 C130 C 0.72902 0.30671 -0.20133
 C131 C 0.71393 0.31482 -0.22251
 C132 C 0.69139 0.30083 -0.22949
 C133 C 0.66146 0.26969 -0.22601
 N134 N 0.65496 0.28463 -0.24748
 C135 C 0.67340 0.30379 -0.24957
 C136 C 0.72553 0.33680 -0.23285
 N137 N 0.74755 0.34232 -0.21860
 C138 C 0.74970 0.32370 -0.19930
 C139 C 0.73243 0.27250 -0.16480
 N140 N 0.71723 0.25172 -0.15820
 C141 C 0.69688 0.25076 -0.17554
 H142 H 0.65133 0.25238 -0.21932
 H143 H 0.67370 0.31926 -0.26419
 H144 H 0.71851 0.34744 -0.24999
 H145 H 0.76461 0.32280 -0.18411
 H146 H 0.75028 0.27814 -0.15481
 H147 H 0.68126 0.23652 -0.17516
 C148 C 0.18416 0.77904 0.28324
 C149 C 0.19929 0.77090 0.30495
 C150 C 0.22137 0.78478 0.31201
 C151 C 0.22868 0.80693 0.29741
 C152 C 0.21367 0.81510 0.27621
 C153 C 0.19129 0.80098 0.26896
 C154 C 0.16190 0.76917 0.27170
 N155 N 0.15531 0.78452 0.25068
 C156 C 0.17323 0.80407 0.24893
 C157 C 0.22527 0.83718 0.26604
 N158 N 0.24724 0.84266 0.28041
 C159 C 0.24927 0.82399 0.29967
 C160 C 0.23204 0.77265 0.33387
 N161 N 0.21696 0.75173 0.34030
 C162 C 0.19690 0.75052 0.32261
 H163 H 0.15164 0.75172 0.27788
 H164 H 0.17311 0.81956 0.23430
 H165 H 0.21834 0.84782 0.24888
 H166 H 0.26413 0.82298 0.31491
 H167 H 0.24962 0.77857 0.34419
 H168 H 0.18135 0.73621 0.32284
 C169 C 0.46962 0.43678 0.46604
 C170 C 0.47738 0.45189 0.44424
 C171 C 0.46270 0.47346 0.43673
 C172 C 0.44015 0.48032 0.45101
 C173 C 0.43248 0.46543 0.47250
 C174 C 0.44736 0.44351 0.48010
 C175 C 0.48011 0.41479 0.47778
 N176 N 0.46478 0.40796 0.49868
 C177 C 0.44469 0.42550 0.50020
 C178 C 0.41005 0.47670 0.48254
 N179 N 0.40394 0.49811 0.46769
 C180 C 0.42230 0.50041 0.44834
 C181 C 0.47472 0.48431 0.41498
 N182 N 0.49639 0.46986 0.40910
 C183 C 0.49813 0.44999 0.42697
 H184 H 0.49785 0.40478 0.47174
 H185 H 0.42904 0.42505 0.51464
 H186 H 0.39926 0.47003 0.49969
 H187 H 0.42256 0.51543 0.43321
 H188 H 0.46831 0.50165 0.40443
 H189 H 0.51317 0.43498 0.42719
 C190 C -0.03035 -0.06584 0.96356
 C191 C -0.02190 -0.05031 0.94233
 C192 C -0.03488 -0.02719 0.93639
 C193 C -0.05674 -0.01952 0.95139
 C194 C -0.06518 -0.03499 0.97207
 C195 C -0.05168 -0.05813 0.97842
 C196 C -0.02113 -0.08887 0.97428
 N197 N -0.03612 -0.09536 0.99566
 C198 C -0.05497 -0.07646 0.99808
 C199 C -0.08703 -0.02318 0.98264
 N200 N -0.09228 -0.00069 0.96896
 C201 C -0.07350 0.00160 0.94985
 C202 C -0.02227 -0.01609 0.91510
 N203 N -0.00209 -0.03201 0.90790
 C204 C -0.00175 -0.05300 0.92445
 H205 H -0.00398 -0.09932 0.96737
 H206 H -0.07039 -0.07592 1.01273
 H207 H -0.09784 -0.03051 0.99947
 H208 H -0.07239 0.01688 0.93507
 H209 H -0.02760 0.00204 0.90532
 H210 H 0.01232 -0.06891 0.92372
 C211 C 1.02889 0.56249 0.96534
 C212 C 1.02067 0.54703 0.94397
 C213 C 1.03467 0.52481 0.93712
 C214 C 1.05710 0.51774 0.95158
 C215 C 1.06525 0.53309 0.97248
 C216 C 1.05086 0.55547 0.97960
 C217 C 1.01896 0.58495 0.97658
 N218 N 1.03418 0.59179 0.99770
 C219 C 1.05381 0.57363 0.99948
 C220 C 1.08772 0.52191 0.98246
 N221 N 1.09352 0.49987 0.96829
 C222 C 1.07458 0.49728 0.94939
 C223 C 1.02232 0.51379 0.91564
 N224 N 1.00111 0.52876 0.90930
 C225 C 1.00000 0.54913 0.92661
 H226 H 1.00127 0.59481 0.97017
 H227 H 1.06959 0.57360 1.01376
 H228 H 1.09850 0.52920 0.99933
 H229 H 1.07379 0.48221 0.93437
 H230 H 1.02823 0.49601 0.90557
 H231 H 0.98549 0.56465 0.92636
 C232 C 0.52690 0.06169 0.46721
 C233 C 0.51848 0.04588 0.44620
 C234 C 0.53304 0.02418 0.43888
 C235 C 0.55618 0.01793 0.45252
 C236 C 0.56470 0.03370 0.47292
 C237 C 0.54995 0.05576 0.48037
 C238 C 0.51646 0.08372 0.47890
 N239 N 0.53268 0.09138 0.49875
 C240 C 0.55328 0.07445 0.49972
 C241 C 0.58767 0.02303 0.48232
 N242 N 0.59337 0.00085 0.46831
 C243 C 0.57397 -0.00220 0.44997
 C244 C 0.52058 0.01288 0.41763
 N245 N 0.49883 0.02725 0.41178
 C246 C 0.49738 0.04742 0.42931
 H247 H 0.49845 0.09353 0.47330
 H248 H 0.56922 0.07537 0.51383
 H249 H 0.59874 0.03065 0.49884
 H250 H 0.57285 -0.01752 0.43524
 H251 H 0.52697 -0.00452 0.40719
 H252 H 0.48253 0.06262 0.42932
 C253 C -0.02588 0.06424 0.53393
 C254 C -0.01788 0.04896 0.55558
 C255 C -0.03180 0.02680 0.56242
 C256 C -0.05410 0.01981 0.54789
 C257 C -0.06216 0.03504 0.52673
 C258 C -0.04795 0.05741 0.51969
 C259 C -0.01579 0.08643 0.52245
 N260 N -0.03129 0.09331 0.50166
 C261 C -0.05107 0.07571 0.49990
 C262 C -0.08434 0.02371 0.51646
 N263 N -0.08996 0.00195 0.53088
 C264 C -0.07150 -0.00054 0.55015
 C265 C -0.01960 0.01585 0.58411
 N266 N 0.00119 0.03099 0.59073
 C267 C 0.00239 0.05128 0.57337
 H268 H 0.00149 0.09689 0.52881
 H269 H -0.06631 0.07591 0.48498
 H270 H -0.09534 0.03067 0.49952
 H271 H -0.07093 -0.01578 0.56504
 H272 H -0.02571 -0.00154 0.59466
 H273 H 0.01700 0.06656 0.57362
 C274 C 0.47267 0.56517 0.03365
 C275 C 0.48030 0.55031 0.05575
 C276 C 0.46709 0.52756 0.06198
 C277 C 0.44587 0.51954 0.04638
 C278 C 0.43836 0.53422 0.02461
 C279 C 0.45205 0.55707 0.01807
 C280 C 0.48208 0.58795 0.02282
 N281 N 0.46790 0.59394 0.00068
 C282 C 0.44943 0.57492 -0.00219
 C283 C 0.41696 0.52213 0.01357
 N284 N 0.41125 0.50048 0.02813
 C285 C 0.42897 0.49873 0.04818
 C286 C 0.47892 0.51703 0.08407
 N287 N 0.49894 0.53288 0.09143
 C288 C 0.49986 0.55333 0.07423
 H289 H 0.49874 0.59866 0.03026
 H290 H 0.43460 0.57414 -0.01746
 H291 H 0.40633 0.52866 -0.00379
 H292 H 0.42913 0.48383 0.06344
 H293 H 0.47325 0.49923 0.09416
 H294 H 0.51402 0.56901 0.07481
 C295 C 0.52946 -0.06318 0.03528
 C296 C 0.52176 -0.04862 0.05751
 C297 C 0.53587 -0.02682 0.06502
 C298 C 0.55786 -0.01922 0.05030
 C299 C 0.56545 -0.03359 0.02837
 C300 C 0.55111 -0.05570 0.02075
 C301 C 0.51942 -0.08521 0.02347
 N302 N 0.53441 -0.09132 0.00206
 C303 C 0.55385 -0.07330 0.00028
 C304 C 0.58736 -0.02181 0.01806
 N305 N 0.59327 -0.00060 0.03316
 C306 C 0.57525 0.00110 0.05293
 C307 C 0.52394 -0.01662 0.08721
 N308 N 0.50290 -0.03168 0.09332
 C309 C 0.50149 -0.05131 0.07519
 H310 H 0.50221 -0.09578 0.02981
 H311 H 0.56909 -0.07315 -0.01461
 H312 H 0.59799 -0.02806 0.00060
 H313 H 0.57499 0.01581 0.06837
 H314 H 0.52996 0.00073 0.09785
 H315 H 0.48698 -0.06668 0.07503
 C316 C 1.02678 0.43591 0.53348
 C317 C 1.01852 0.45098 0.55516
 C318 C 1.03168 0.47369 0.56168
 C319 C 1.05351 0.48143 0.54681
 C320 C 1.06187 0.46637 0.52574
 C321 C 1.04828 0.44359 0.51884
 C322 C 1.01735 0.41335 0.52216
 N323 N 1.03253 0.40719 0.50089
 C324 C 1.05156 0.42560 0.49883
 C325 C 1.08373 0.47818 0.51542
 N326 N 1.08899 0.50029 0.52960
 C327 C 1.07029 0.50231 0.54882
 C328 C 1.01941 0.48428 0.58348
 N329 N 0.99927 0.46843 0.59045
 C330 C 0.99858 0.44802 0.57322
 H331 H 1.00026 0.40262 0.52855
 H332 H 1.06676 0.42591 0.48389
 H333 H 1.09448 0.47117 0.49837
 H334 H 1.06922 0.51724 0.56396
 H335 H 1.02504 0.50194 0.59383
 H336 H 0.98453 0.43223 0.57371
 C337 C 0.41484 0.01076 0.21627
 H338 H 0.41516 0.02861 0.22779
 C339 C 0.43244 0.00735 0.19538
 H340 H 0.44602 0.02288 0.19070
 C341 C 0.39653 -0.03105 0.20840
 H342 H 0.38293 -0.04622 0.21387
 C343 C 0.41378 -0.03528 0.18736
 H344 H 0.41315 -0.05372 0.17681
 N345 N 0.39709 -0.00813 0.22211
 C346 C 0.33453 0.03404 0.26296
 H347 H 0.33324 0.02253 0.28091
 C348 C 0.31773 0.05536 0.25917
 H349 H 0.30375 0.06035 0.27449
 C350 C 0.35452 0.04147 0.22129
 H351 H 0.36850 0.03570 0.20633
 C352 C 0.33812 0.06297 0.21669
 H353 H 0.33972 0.07355 0.19818
 Zn354 Zn 0.37420 -0.00184 0.25097
 N355 N 0.35266 0.02771 0.24429
 C356 C 0.39436 0.02661 0.29499
 N357 N 0.39540 0.00377 0.28117
 C358 C 0.41257 -0.01558 0.28785
 C359 C 0.42932 -0.01255 0.30947
 C360 C 0.41075 0.03046 0.31679
 C361 C 0.33546 -0.03784 0.23653
 C362 C 0.31825 -0.05875 0.23978
 C363 C 0.33388 -0.06377 0.28468
 C364 C 0.35102 -0.04298 0.28044
 N365 N 0.35172 -0.03068 0.25656
 H366 H 0.38109 0.04203 0.28897
 H367 H 0.41318 -0.03342 0.27631
 H368 H 0.44259 -0.02833 0.31467
 H369 H 0.40990 0.04890 0.32733
 H370 H 0.33606 -0.02740 0.21788
 H371 H 0.30605 -0.06455 0.22327
 H372 H 0.33336 -0.07292 0.30401
 H373 H 0.36344 -0.03645 0.29643
 C374 C 0.31944 0.07019 0.23580
 C375 C 0.43196 -0.01588 0.18051
 C376 C 0.31728 -0.07208 0.26414
 C377 C 0.42856 0.01073 0.32426
 C378 C 0.08598 -0.01219 0.71597
 H379 H 0.08425 -0.02931 0.72846
 C380 C 0.06872 -0.00852 0.69481
 H381 H 0.05355 -0.02285 0.69143
 C382 C 0.10719 0.02779 0.70623
 H383 H 0.12186 0.04217 0.71094
 C384 C 0.09062 0.03205 0.68465
 H385 H 0.09338 0.04939 0.67266
 N386 N 0.10484 0.00578 0.72119
 C387 C 0.16625 -0.03666 0.76358
 H388 H 0.16696 -0.02564 0.78187
 C389 C 0.18312 -0.05792 0.75982
 H390 H 0.19635 -0.06341 0.77565
 C391 C 0.14771 -0.04288 0.72104
 H392 H 0.13415 -0.03670 0.70581
 C393 C 0.16447 -0.06406 0.71630
 H394 H 0.16362 -0.07383 0.69729
 Zn395 Zn 0.12679 -0.00050 0.75084
 N396 N 0.14871 -0.02983 0.74449
 C397 C 0.10661 -0.02872 0.79506
 N398 N 0.10467 -0.00647 0.78036
 C399 C 0.08594 0.01183 0.78556
 C400 C 0.06830 0.00820 0.80636
 C401 C 0.08960 -0.03298 0.81625
 C402 C 0.16633 0.03497 0.73801
 C403 C 0.18313 0.05614 0.74150
 C404 C 0.16468 0.06280 0.78504
 C405 C 0.14790 0.04174 0.78052
 N406 N 0.14883 0.02850 0.75717
 H407 H 0.12122 -0.04333 0.79036
 H408 H 0.08454 0.02914 0.77327
 H409 H 0.05321 0.02279 0.80970
 H410 H 0.09193 -0.05058 0.82798
 H411 H 0.16699 0.02380 0.71981
 H412 H 0.19623 0.06139 0.72553
 H413 H 0.16390 0.07270 0.80398
 H414 H 0.13437 0.03582 0.79581
 C415 C 0.18242 -0.07199 0.73589
 C416 C 0.07094 0.01382 0.67869
 C417 C 0.18252 0.07043 0.76530
 C418 C 0.06997 -0.01446 0.82210
 C419 C 0.58302 0.49048 0.21729
 H420 H 0.58044 0.47402 0.23051
 C421 C 0.56585 0.49420 0.19608
 H422 H 0.54991 0.48058 0.19333
 C423 C 0.60639 0.52876 0.20571
 H424 H 0.62206 0.54232 0.20966
 C425 C 0.58981 0.53311 0.18412
 H426 H 0.59333 0.54978 0.17139
 N427 N 0.60283 0.50762 0.22166
 C428 C 0.66444 0.46628 0.26458
 H429 H 0.66594 0.47833 0.28213
 C430 C 0.68120 0.44484 0.26128
 H431 H 0.69534 0.44032 0.27661
 C432 C 0.64391 0.45755 0.22343
 H433 H 0.62959 0.46278 0.20857
 C434 C 0.66031 0.43597 0.21930
 H435 H 0.65848 0.42487 0.20112
 Zn436 Zn 0.62442 0.50170 0.25154
 N437 N 0.64611 0.47206 0.24591
 C438 C 0.60388 0.47363 0.29538
 N439 N 0.60210 0.49608 0.28097
 C440 C 0.58349 0.51444 0.28638
 C441 C 0.56613 0.51090 0.30743
 C442 C 0.58689 0.46926 0.31657
 C443 C 0.66648 0.53470 0.24008
 C444 C 0.68367 0.55561 0.24349
 C445 C 0.65950 0.56825 0.28259
 C446 C 0.64296 0.54693 0.27860
 N447 N 0.64651 0.53084 0.25742
 H448 H 0.61823 0.45887 0.29034
 H449 H 0.58216 0.53189 0.27428
 H450 H 0.55177 0.52599 0.31169
 H451 H 0.58843 0.45111 0.32756
 H452 H 0.66912 0.52137 0.22363
 H453 H 0.69969 0.55797 0.22967
 H454 H 0.65584 0.58114 0.29921
 H455 H 0.62727 0.54338 0.29243
 C456 C 0.67925 0.42933 0.23838
 C457 C 0.56912 0.51575 0.17908
 C458 C 0.68026 0.57285 0.26493
 C459 C 0.56772 0.48807 0.32289
 C460 C 0.91508 0.50962 0.71657
 H461 H 0.91682 0.52664 0.72919
 C462 C 0.93235 0.50612 0.69542
 H463 H 0.94755 0.52045 0.69218
 C464 C 0.89373 0.46982 0.70637
 H465 H 0.87897 0.45547 0.71089
 C466 C 0.91037 0.46570 0.68483
 H467 H 0.90762 0.44848 0.67267
 N468 N 0.89607 0.49173 0.72149
 C469 C 0.83424 0.53420 0.76293
 H470 H 0.83288 0.52269 0.78087
 C471 C 0.81738 0.55545 0.75901
 H472 H 0.80330 0.56042 0.77426
 C473 C 0.85443 0.54165 0.72136
 H474 H 0.86858 0.53594 0.70653
 C475 C 0.83796 0.56307 0.71663
 H476 H 0.83964 0.57362 0.69811
 Zn477 Zn 0.87382 0.49820 0.75082
 N478 N 0.85243 0.52786 0.74433
 C479 C 0.89481 0.52687 0.79417
 N480 N 0.89561 0.50387 0.78060
 C481 C 0.91294 0.48464 0.78715
 C482 C 0.93013 0.48795 0.80839
 C483 C 0.91166 0.53101 0.81555
 C484 C 0.83412 0.46290 0.73741
 C485 C 0.81700 0.44196 0.74086
 C486 C 0.83425 0.43599 0.78503
 C487 C 0.85132 0.45679 0.78056
 N488 N 0.85121 0.46954 0.75690
 H489 H 0.88139 0.54220 0.78825
 H490 H 0.91338 0.46668 0.77580
 H491 H 0.94352 0.47224 0.81351
 H492 H 0.91099 0.54959 0.82585
 H493 H 0.83403 0.47374 0.71899
 H494 H 0.80422 0.43654 0.72468
 H495 H 0.83441 0.42647 0.80419
 H496 H 0.86439 0.46292 0.79617
 C497 C 0.81912 0.57023 0.73560
 C498 C 0.93004 0.48399 0.67905
 C499 C 0.81690 0.42811 0.76494
 C500 C 0.92965 0.51141 0.82291
 C501 C 0.21685 0.41589 0.01206
 H502 H 0.22814 0.41681 0.03017
 C503 C 0.19550 0.43269 0.00842
 H504 H 0.19024 0.44603 0.02422
 C505 C 0.20998 0.39687 -0.03014
 H506 H 0.21592 0.38312 -0.04528
 C507 C 0.18877 0.41362 -0.03481
 H508 H 0.17879 0.41259 -0.05369
 N509 N 0.22335 0.39809 -0.00687
 C510 C 0.26461 0.33489 0.03407
 H511 H 0.28146 0.33276 0.02125
 C512 C 0.26111 0.31765 0.05525
 H513 H 0.27530 0.30213 0.05834
 C514 C 0.22510 0.35700 0.04457
 H515 H 0.21081 0.37200 0.04016
 C516 C 0.22101 0.34045 0.06617
 H517 H 0.20391 0.34356 0.07845
 Zn518 Zn 0.25257 0.37594 -0.00067
 N519 N 0.24679 0.35417 0.02920
 C520 C 0.29663 0.39560 0.02734
 N521 N 0.28196 0.39767 0.00494
 C522 C 0.28732 0.41604 -0.01378
 C523 C 0.30853 0.43288 -0.01064
 C524 C 0.31801 0.41210 0.03132
 C525 C 0.24024 0.33465 -0.03470
 C526 C 0.24368 0.31700 -0.05555
 C527 C 0.28393 0.33896 -0.06683
 C528 C 0.27988 0.35599 -0.04558
 N529 N 0.25819 0.35369 -0.03015
 H530 H 0.29171 0.38130 0.04227
 H531 H 0.27511 0.41748 -0.03125
 H532 H 0.31273 0.44701 -0.02604
 H533 H 0.32925 0.41035 0.04942
 H534 H 0.22336 0.33303 -0.02188
 H535 H 0.22941 0.30167 -0.05839
 H536 H 0.30106 0.34154 -0.07915
 H537 H 0.29415 0.37095 -0.04146
 C538 C 0.23908 0.32032 0.07175
 C539 C 0.18107 0.43175 -0.01529
 C540 C 0.26577 0.31900 -0.07202
 C541 C 0.32424 0.43103 0.01214
 C542 C 0.71509 0.08513 -0.01152
 H543 H 0.72656 0.08395 -0.02949
 C544 C 0.69418 0.06807 -0.00762
 H545 H 0.68946 0.05402 -0.02293
 C546 C 0.70733 0.10515 0.03011
 H547 H 0.71279 0.11935 0.04495
 C548 C 0.68627 0.08843 0.03485
 H549 H 0.67575 0.08995 0.05340
 N550 N 0.72111 0.10334 0.00713
 C551 C 0.76281 0.16410 -0.03604
 H552 H 0.78085 0.16468 -0.02481
 C553 C 0.75904 0.18122 -0.05727
 H554 H 0.77449 0.19469 -0.06252
 C555 C 0.72085 0.14566 -0.04274
 H556 H 0.70579 0.13216 -0.03668
 C557 C 0.71624 0.16247 -0.06410
 H558 H 0.69758 0.16167 -0.07425
 Zn559 Zn 0.75026 0.12505 0.00047
 N560 N 0.74394 0.14663 -0.02935
 C561 C 0.79212 0.10304 -0.02937
 N562 N 0.77944 0.10281 -0.00568
 C563 C 0.78656 0.08585 0.01383
 C564 C 0.80781 0.06891 0.01031
 C565 C 0.81327 0.08619 -0.03388
 C566 C 0.73819 0.16650 0.03440
 C567 C 0.74176 0.18439 0.05498
 C568 C 0.78283 0.16309 0.06536
 C569 C 0.77863 0.14582 0.04437
 N570 N 0.75642 0.14760 0.02958
 H571 H 0.78565 0.11601 -0.04499
 H572 H 0.77580 0.08567 0.03229
 H573 H 0.81354 0.05617 0.02646
 H574 H 0.82274 0.08642 -0.05306
 H575 H 0.72093 0.16778 0.02202
 H576 H 0.72720 0.19955 0.05807
 H577 H 0.80036 0.16084 0.07722
 H578 H 0.79322 0.13112 0.03993
 C579 C 0.73547 0.18058 -0.07161
 C580 C 0.67945 0.06957 0.01583
 C581 C 0.76431 0.18280 0.07090
 C582 C 0.82154 0.06890 -0.01383
 C583 C 0.20954 0.58674 0.48574
 H584 H 0.22033 0.58664 0.46730
 C585 C 0.18827 0.57003 0.48907
 H586 H 0.18256 0.55752 0.47278
 C587 C 0.20390 0.60363 0.52908
 H588 H 0.21033 0.61647 0.54476
 C589 C 0.18273 0.58696 0.53341
 H590 H 0.17322 0.58713 0.55256
 N591 N 0.21670 0.60333 0.50547
 C592 C 0.25956 0.66487 0.46432
 H593 H 0.27751 0.66504 0.47569
 C594 C 0.25631 0.68215 0.44310
 H595 H 0.27206 0.69535 0.43804
 C596 C 0.21734 0.64726 0.45708
 H597 H 0.20194 0.63406 0.46290
 C598 C 0.21326 0.66419 0.43574
 H599 H 0.19472 0.66374 0.42536
 Zn600 Zn 0.24622 0.62475 0.49968
 N601 N 0.24038 0.64758 0.47061
 C602 C 0.28897 0.60385 0.47008
 N603 N 0.27496 0.60212 0.49292
 C604 C 0.28047 0.58340 0.51131
 C605 C 0.30132 0.56603 0.50749
 C606 C 0.30997 0.58685 0.46544
 C607 C 0.23499 0.66502 0.53535
 C608 C 0.23879 0.68168 0.55692
 C609 C 0.27888 0.65840 0.56692
 C610 C 0.27448 0.64240 0.54495
 N611 N 0.25268 0.64580 0.52983
 H612 H 0.28382 0.61826 0.45529
 H613 H 0.26872 0.58215 0.52909
 H614 H 0.30574 0.55169 0.52267
 H615 H 0.32077 0.58844 0.44706
 H616 H 0.21800 0.66751 0.52277
 H617 H 0.22472 0.69719 0.56052
 H618 H 0.29606 0.65489 0.57899
 H619 H 0.28854 0.62733 0.54007
 C620 C 0.23296 0.68184 0.42838
 C621 C 0.17456 0.56988 0.51321
 C622 C 0.26097 0.67847 0.57315
 C623 C 0.31649 0.56771 0.48436
 C624 C 0.71580 0.91604 0.51285
 H625 H 0.72665 0.91653 0.53125
 C626 C 0.69454 0.93293 0.50907
 H627 H 0.68890 0.94598 0.52499
 C628 C 0.70995 0.89796 0.47006
 H629 H 0.71627 0.88456 0.45475
 C630 C 0.68878 0.91475 0.46529
 H631 H 0.67917 0.91410 0.44619
 N632 N 0.72282 0.89875 0.49362
 C633 C 0.76530 0.83702 0.53558
 H634 H 0.78303 0.83621 0.52388
 C635 C 0.76206 0.81991 0.55690
 H636 H 0.77760 0.80621 0.56173
 C637 C 0.72359 0.85600 0.54343
 H638 H 0.70838 0.86966 0.53780
 C639 C 0.71954 0.83927 0.56492
 H640 H 0.70120 0.84034 0.57562
 Zn641 Zn 0.75221 0.87691 0.49991
 N642 N 0.74635 0.85484 0.52949
 C643 C 0.79527 0.89736 0.52893
 N644 N 0.78123 0.89901 0.50607
 C645 C 0.78691 0.91727 0.48734
 C646 C 0.80788 0.93434 0.49090
 C647 C 0.81641 0.91402 0.53329
 C648 C 0.74054 0.83572 0.46576
 C649 C 0.74417 0.81808 0.44495
 C650 C 0.78431 0.84029 0.43379
 C651 C 0.78008 0.85731 0.45504
 N652 N 0.75834 0.85488 0.47037
 H653 H 0.79001 0.88329 0.54395
 H654 H 0.77515 0.91846 0.46954
 H655 H 0.81238 0.94839 0.47552
 H656 H 0.82722 0.91254 0.55169
 H657 H 0.72362 0.83400 0.47852
 H658 H 0.73001 0.80265 0.44210
 H659 H 0.80146 0.84299 0.42152
 H660 H 0.79423 0.87237 0.45923
 C661 C 0.73896 0.82097 0.57195
 C662 C 0.68068 0.93249 0.48500
 C663 C 0.76628 0.82023 0.42853
 C664 C 0.82303 0.93276 0.51409
 C665 C 0.01109 0.21687 0.41583
 H666 H 0.02788 0.22951 0.41800
 C667 C 0.00727 0.19629 0.43360
 H668 H 0.02117 0.19348 0.44956
 C669 C -0.02796 0.20618 0.39304
 H670 H -0.04191 0.21029 0.37752
 C671 C -0.03236 0.18518 0.41015
 H672 H -0.04937 0.17302 0.40699
 N673 N -0.00630 0.22130 0.39590
 C674 C 0.03427 0.26070 0.33150
 H675 H 0.02137 0.27735 0.32876
 C676 C 0.05535 0.25681 0.31435
 H677 H 0.05828 0.27047 0.29823
 C678 C 0.04525 0.22221 0.35534
 H679 H 0.04113 0.20866 0.37121
 C680 C 0.06676 0.21772 0.33883
 H681 H 0.07924 0.20095 0.34262
 Zn682 Zn 0.00027 0.25021 0.37332
 N683 N 0.02968 0.24356 0.35156
 C684 C 0.02940 0.29300 0.39358
 N685 N 0.00661 0.27946 0.39530
 C686 C -0.01186 0.28569 0.41366
 C687 C -0.00792 0.30653 0.43107
 C688 C 0.03416 0.31399 0.41062
 C689 C -0.03568 0.23821 0.33301
 C690 C -0.05674 0.24240 0.31586
 C691 C -0.06208 0.28567 0.33443
 C692 C -0.04116 0.28049 0.35149
 N693 N -0.02865 0.25694 0.35074
 H694 H 0.04406 0.28740 0.37922
 H695 H -0.02969 0.27439 0.41476
 H696 H -0.02304 0.31141 0.44529
 H697 H 0.05256 0.32433 0.40919
 H698 H -0.02500 0.21987 0.33238
 H699 H -0.06246 0.22684 0.30254
 H700 H -0.07141 0.30474 0.33512
 H701 H -0.03475 0.29549 0.36506
 C702 C 0.07207 0.23513 0.31794
 C703 C -0.01463 0.17996 0.43083
 C704 C -0.07034 0.26642 0.31642
 C705 C 0.01536 0.32098 0.42970
 C706 C -0.01335 0.71085 0.08564
 H707 H -0.03241 0.72018 0.08630
 C708 C -0.00899 0.68980 0.06857
 H709 H -0.02505 0.68275 0.05659
 C710 C 0.03047 0.70870 0.10091
 H711 H 0.04593 0.71649 0.11316
 C712 C 0.03581 0.68780 0.08385
 H713 H 0.05546 0.67979 0.08321
 N714 N 0.00613 0.71961 0.10163
 C715 C -0.03871 0.76174 0.16169
 H716 H -0.02934 0.78066 0.16062
 C717 C -0.05965 0.75792 0.17900
 H718 H -0.06653 0.77422 0.19084
 C719 C -0.04114 0.71773 0.14714
 H720 H -0.03350 0.70195 0.13514
 C721 C -0.06200 0.71297 0.16435
 H722 H -0.07018 0.69349 0.16530
 Zn723 Zn -0.00138 0.74885 0.12336
 N724 N -0.03017 0.74191 0.14589
 C725 C -0.03331 0.78814 0.09940
 N726 N -0.00900 0.77718 0.10036
 C727 C 0.01036 0.78532 0.08387
 C728 C 0.00599 0.80597 0.06628
 C729 C -0.03864 0.80866 0.08188
 C730 C 0.03514 0.73772 0.16290
 C731 C 0.05590 0.74213 0.18030
 C732 C 0.06029 0.78562 0.16204
 C733 C 0.03938 0.78039 0.14502
 N734 N 0.02748 0.75662 0.14553
 H735 H -0.04875 0.78076 0.11192
 H736 H 0.02937 0.77589 0.08464
 H737 H 0.02199 0.81263 0.05400
 H738 H -0.05823 0.81683 0.08122
 H739 H 0.02509 0.71912 0.16313
 H740 H 0.06196 0.72666 0.19366
 H741 H 0.06938 0.80472 0.16152
 H742 H 0.03250 0.79549 0.13172
 C743 C -0.07164 0.73326 0.18051
 C744 C 0.01591 0.67798 0.06740
 C745 C 0.06882 0.76633 0.17997
 C746 C -0.01879 0.81803 0.06513
 C747 C 0.48852 0.21501 0.58403
 H748 H 0.47081 0.22665 0.58269
 C749 C 0.49254 0.19417 0.56659
 H750 H 0.47787 0.19020 0.55166
 C751 C 0.52952 0.20704 0.60450
 H752 H 0.54412 0.21232 0.61898
 C753 C 0.53419 0.18579 0.58771
 H754 H 0.55209 0.17461 0.59010
 N755 N 0.50679 0.22091 0.60265
 C756 C 0.46244 0.26134 0.66414
 H757 H 0.47213 0.28013 0.66413
 C758 C 0.44173 0.25679 0.68153
 H759 H 0.43528 0.27248 0.69440
 C760 C 0.45910 0.21835 0.64694
 H761 H 0.46626 0.20328 0.63374
 C762 C 0.43854 0.21281 0.66427
 H763 H 0.43019 0.19338 0.66421
 Zn764 Zn 0.49939 0.24982 0.62500
 N765 N 0.47047 0.24236 0.64707
 C766 C 0.46846 0.29122 0.60325
 N767 N 0.49211 0.27886 0.60276
 C768 C 0.51114 0.28625 0.58551
 C769 C 0.50699 0.30726 0.56829
 C770 C 0.46348 0.31236 0.58639
 C771 C 0.53581 0.23806 0.66473
 C772 C 0.55657 0.24238 0.68214
 C773 C 0.56005 0.28642 0.66509
 C774 C 0.53946 0.28111 0.64771
 N775 N 0.52802 0.25712 0.64761
 H776 H 0.45327 0.28457 0.61647
 H777 H 0.52964 0.27583 0.58527
 H778 H 0.52258 0.31314 0.55506
 H779 H 0.44446 0.32181 0.58691
 H780 H 0.52597 0.21935 0.66467
 H781 H 0.56292 0.22657 0.69493
 H782 H 0.56852 0.30580 0.66512
 H783 H 0.53239 0.29633 0.63465
 C784 C 0.42950 0.23219 0.68188
 C785 C 0.51555 0.17904 0.56839
 C786 C 0.56905 0.26685 0.68252
 C787 C 0.48292 0.32068 0.56864
 C788 C 0.51342 0.71533 0.91528
 H789 H 0.53164 0.72602 0.91612
 C790 C 0.50928 0.69429 0.93241
 H791 H 0.52476 0.68862 0.94591
 C792 C 0.47145 0.70974 0.89621
 H793 H 0.45661 0.71607 0.88233
 C794 C 0.46631 0.68884 0.91326
 H795 H 0.44737 0.67948 0.91231
 N796 N 0.49482 0.72233 0.89733
 C797 C 0.53582 0.76243 0.83339
 H798 H 0.52342 0.77955 0.83137
 C799 C 0.55677 0.75861 0.81603
 H800 H 0.56009 0.77282 0.80050
 C801 C 0.54562 0.72264 0.85548
 H802 H 0.54103 0.70843 0.87056
 C803 C 0.56696 0.71821 0.83877
 H804 H 0.57889 0.70089 0.84181
 Zn805 Zn 0.50154 0.75131 0.87497
 N806 N 0.53076 0.74466 0.85277
 C807 C 0.53068 0.79427 0.89497
 N808 N 0.50805 0.78050 0.89704
 C809 C 0.48987 0.78651 0.91577
 C810 C 0.49385 0.80746 0.93305
 C811 C 0.53548 0.81535 0.91188
 C812 C 0.46757 0.73992 0.83329
 C813 C 0.44677 0.74363 0.81571
 C814 C 0.43614 0.78398 0.83832
 C815 C 0.45735 0.77964 0.85527
 N816 N 0.47239 0.75774 0.85266
 H817 H 0.54518 0.78881 0.88039
 H818 H 0.47221 0.77500 0.91724
 H819 H 0.47890 0.81219 0.94750
 H820 H 0.55375 0.82586 0.91013
 H821 H 0.48008 0.72286 0.83142
 H822 H 0.44368 0.72940 0.80015
 H823 H 0.42408 0.80122 0.84123
 H824 H 0.46169 0.79380 0.87050
 C825 C 0.57283 0.73631 0.81866
 C826 C 0.48542 0.68068 0.93160
 C827 C 0.43059 0.76586 0.81813
 C828 C 0.51692 0.82221 0.93124
 C829 C 0.13012 0.24794 0.27272
 C830 C 0.13789 0.22245 0.26578
 C831 C 0.12399 0.20113 0.27610
 C832 C 0.10258 0.20521 0.29288
 C833 C 0.09481 0.23073 0.29999
 C834 C 0.10894 0.25204 0.28976
 H835 H 0.14077 0.26470 0.26535
 H836 H 0.12939 0.18130 0.27077
 H837 H 0.09189 0.18834 0.29992
 H838 H 0.10390 0.27193 0.29520
 C839 C 0.63142 0.74904 0.77409
 C840 C 0.63859 0.72359 0.76643
 C841 C 0.62402 0.70233 0.77591
 C842 C 0.60259 0.70645 0.79262
 C843 C 0.59546 0.73192 0.80056
 C844 C 0.61022 0.75317 0.79111
 H845 H 0.64257 0.76572 0.76732
 H846 H 0.62894 0.68255 0.76996
 H847 H 0.59140 0.68965 0.79900
 H848 H 0.60569 0.77300 0.79719
 C849 C 0.37255 0.75269 0.77295
 C850 C 0.36529 0.77807 0.76510
 C851 C 0.37963 0.79945 0.77466
 C852 C 0.40092 0.79551 0.79164
 C853 C 0.40812 0.77010 0.79976
 C854 C 0.39359 0.74874 0.79022
 H855 H 0.36155 0.73591 0.76618
 H856 H 0.37460 0.81919 0.76863
 H857 H 0.41193 0.81239 0.79812
 H858 H 0.39817 0.72895 0.79643
 C859 C -0.11478 0.26502 0.25596
 C860 C -0.13634 0.28043 0.26418
 C861 C -0.13555 0.29132 0.28987
 C862 C -0.11433 0.28666 0.30672
 C863 C -0.09293 0.27136 0.29838
 C864 C -0.09339 0.26075 0.27271
 H865 H -0.11380 0.25676 0.23629
 H866 H -0.15168 0.30272 0.29763
 H867 H -0.11498 0.29468 0.32656
 H868 H -0.07700 0.24941 0.26531
 C869 C -0.13577 0.70822 0.20881
 C870 C -0.13685 0.72058 0.23384
 C871 C -0.11578 0.73697 0.24097
 C872 C -0.09468 0.74084 0.22384
 C873 C -0.09394 0.72872 0.19889
 C874 C -0.11473 0.71235 0.19162
 H875 H -0.15144 0.69591 0.20183
 H876 H -0.11493 0.74644 0.26007
 H877 H -0.07870 0.75310 0.23037
 H878 H -0.11505 0.70306 0.17235
 C879 C 0.38630 0.23379 0.74318
 C880 C 0.36523 0.21751 0.73587
 C881 C 0.36610 0.20567 0.71060
 C882 C 0.38681 0.21043 0.69319
 C883 C 0.40759 0.22681 0.70056
 C884 C 0.40717 0.23818 0.72590
 H885 H 0.38727 0.24275 0.76254
 H886 H 0.35036 0.19346 0.70355
 H887 H 0.38618 0.20170 0.67367
 H888 H 0.42317 0.25030 0.73260
 C889 C 0.63295 0.29278 0.71067
 C890 C 0.63405 0.28078 0.73586
 C891 C 0.61304 0.26448 0.74328
 C892 C 0.59194 0.26031 0.72621
 C893 C 0.59123 0.27192 0.70098
 C894 C 0.61202 0.28822 0.69347
 H895 H 0.64866 0.30497 0.70354
 H896 H 0.61228 0.25537 0.76258
 H897 H 0.57596 0.24821 0.73303
 H898 H 0.61247 0.29708 0.67399
 C899 C 0.13429 0.78927 0.20670
 C900 C 0.13343 0.78043 0.23308
 C901 C 0.11097 0.76723 0.24190
 C902 C 0.09000 0.76277 0.22472
 C903 C 0.09095 0.77144 0.19832
 C904 C 0.11328 0.78485 0.18953
 H905 H 0.15142 0.79913 0.19912
 H906 H 0.10944 0.76059 0.26219
 H907 H 0.07288 0.75278 0.23221
 H908 H 0.11474 0.79146 0.16920
 C909 C 0.25865 0.11320 0.23455
 C910 C 0.26813 0.13634 0.22301
 C911 C 0.29464 0.13749 0.21562
 C912 C 0.31126 0.11604 0.21972
 C913 C 0.30177 0.09295 0.23133
 C914 C 0.27527 0.09177 0.23867
 H915 H 0.23826 0.11149 0.24004
 H916 H 0.30267 0.15514 0.20708
 H917 H 0.33167 0.11769 0.21422
 H918 H 0.26726 0.07410 0.24724
 C919 C 0.75805 0.61289 0.73397
 C920 C 0.76742 0.63598 0.72225
 C921 C 0.79392 0.63722 0.71486
 C922 C 0.81066 0.61590 0.71915
 C923 C 0.80130 0.59284 0.73094
 C924 C 0.77479 0.59157 0.73826
 H925 H 0.73767 0.61113 0.73949
 H926 H 0.80186 0.65485 0.70619
 H927 H 0.83107 0.61764 0.71366
 H928 H 0.76688 0.57392 0.74697
 C929 C 0.78948 0.36318 0.78881
 C930 C 0.76429 0.36289 0.77728
 C931 C 0.75684 0.38451 0.76148
 C932 C 0.77373 0.40562 0.75769
 C933 C 0.79881 0.40568 0.76913
 C934 C 0.80649 0.38411 0.78461
 H935 H 0.79668 0.34692 0.80047
 H936 H 0.73760 0.38583 0.75267
 H937 H 0.76685 0.42214 0.74614
 H938 H 0.82589 0.38311 0.79321
 C939 C 0.28914 -0.13655 0.28828
 C940 C 0.26414 -0.13688 0.27631
 C941 C 0.25710 -0.11545 0.26005
 C942 C 0.27420 -0.09450 0.25623
 C943 C 0.29904 -0.09439 0.26818
 C944 C 0.30631 -0.11576 0.28412
 H945 H 0.29608 -0.15265 0.30031
 H946 H 0.23805 -0.11416 0.25083
 H947 H 0.26767 -0.07813 0.24426
 H948 H 0.32553 -0.11669 0.29313
 C949 C 0.24257 -0.11615 0.73793
 C950 C 0.23451 -0.13807 0.72300
 C951 C 0.20895 -0.13768 0.71231
 C952 C 0.19214 -0.11643 0.71661
 C953 C 0.20035 -0.09466 0.73137
 C954 C 0.22584 -0.09477 0.74185
 H955 H 0.26209 -0.11485 0.74603
 H956 H 0.20133 -0.15408 0.70129
 H957 H 0.17245 -0.11733 0.70871
 H958 H 0.23312 -0.07810 0.75278
 C959 C 0.70459 0.36204 0.21867
 C960 C 0.73109 0.36348 0.22601
 C961 C 0.74034 0.38666 0.23764
 C962 C 0.72354 0.40795 0.24170
 C963 C 0.69704 0.40656 0.23430
 C964 C 0.68775 0.38332 0.22280
 H965 H 0.69679 0.34434 0.21003
 H966 H 0.76073 0.38856 0.24308
 H967 H 0.73143 0.42571 0.25017
 H968 H 0.66736 0.38146 0.21728
 C969 C 0.72190 0.62469 0.29846
 C970 C 0.73241 0.63811 0.27668
 C971 C 0.72574 0.62998 0.25099
 C972 C 0.70873 0.60895 0.24716
 C973 C 0.69827 0.59535 0.26895
 C974 C 0.70517 0.60346 0.29466
 H975 H 0.72707 0.63030 0.31846
 H976 H 0.73334 0.64021 0.23388
 H977 H 0.70350 0.60362 0.22710
 H978 H 0.69799 0.59316 0.31191
 C979 C 0.24242 0.11425 0.76211
 C980 C 0.23465 0.13612 0.77736
 C981 C 0.20933 0.13589 0.78859
 C982 C 0.19247 0.11480 0.78453
 C983 C 0.20045 0.09300 0.76953
 C984 C 0.22570 0.09299 0.75850
 H985 H 0.26178 0.11285 0.75361
 H986 H 0.20196 0.15232 0.79986
 H987 H 0.17296 0.11584 0.79283
 H988 H 0.23286 0.07630 0.74740
 C989 C 0.25196 0.27498 0.13023
 C990 C 0.22647 0.26783 0.13756
 C991 C 0.20519 0.27786 0.12311
 C992 C 0.20929 0.29464 0.10167
 C993 C 0.23478 0.30213 0.09441
 C994 C 0.25607 0.29210 0.10902
 H995 H 0.26866 0.26772 0.14127
 H996 H 0.18538 0.27230 0.12812
 H997 H 0.19244 0.30142 0.09056
 H998 H 0.27594 0.29777 0.10437
 C999 C 0.73903 0.75966 0.61447
 C1000 C 0.72699 0.76860 0.63785
 C1001 C 0.71914 0.79498 0.63944
 C1002 C 0.72311 0.81196 0.61812
 C1003 C 0.73502 0.80298 0.59471
 C1004 C 0.74299 0.77665 0.59315
 H1005 H 0.74491 0.73938 0.61242
 H1006 H 0.71023 0.80259 0.65730
 H1007 H 0.71714 0.83224 0.62009
 H1008 H 0.75185 0.76903 0.57524
 C1009 C 0.80008 0.77609 0.37824
 C1010 C 0.77875 0.76610 0.36400
 C1011 C 0.75331 0.77394 0.37104
 C1012 C 0.74928 0.79162 0.39179
 C1013 C 0.77059 0.80157 0.40624
 C1014 C 0.79605 0.79347 0.39924
 H1015 H 0.81985 0.77007 0.37339
 H1016 H 0.73657 0.76681 0.36010
 H1017 H 0.72944 0.79777 0.39620
 H1018 H 0.81291 0.80025 0.41022
 C1019 C 0.29949 0.27463 -0.12206
 C1020 C 0.27820 0.26492 -0.13657
 C1021 C 0.25276 0.27294 -0.12970
 C1022 C 0.24871 0.29056 -0.10889
 C1023 C 0.27001 0.30029 -0.09425
 C1024 C 0.29545 0.29196 -0.10103
 H1025 H 0.31926 0.26842 -0.12670
 H1026 H 0.23605 0.26599 -0.14081
 H1027 H 0.22891 0.29687 -0.10457
 H1028 H 0.31228 0.29853 -0.08988
 C1029 C 0.71340 0.20776 -0.13804
 C1030 C 0.72186 0.23386 -0.13655
 C1031 C 0.73487 0.24228 -0.11357
 C1032 C 0.73928 0.22501 -0.09254
 C1033 C 0.73085 0.19890 -0.09402
 C1034 C 0.71787 0.19047 -0.11703
 H1035 H 0.70370 0.20057 -0.15563
 H1036 H 0.74123 0.26236 -0.11163
 H1037 H 0.74892 0.23225 -0.07491
 H1038 H 0.71149 0.17037 -0.11897
 C1039 C 0.21260 0.70810 0.36105
 C1040 C 0.22122 0.73416 0.36227
 C1041 C 0.23391 0.74282 0.38535
 C1042 C 0.23779 0.72586 0.40676
 C1043 C 0.22907 0.69984 0.40557
 C1044 C 0.21650 0.69114 0.38244
 H1045 H 0.20316 0.70069 0.34341
 H1046 H 0.24041 0.76287 0.38710
 H1047 H 0.24718 0.73328 0.42445
 H1048 H 0.20995 0.67108 0.38073
 C1049 C 0.24879 0.72283 0.63249
 C1050 C 0.27434 0.73002 0.63953
 C1051 C 0.29547 0.72009 0.62480
 C1052 C 0.29113 0.70350 0.60326
 C1053 C 0.26556 0.69612 0.59617
 C1054 C 0.24444 0.70592 0.61117
 H1055 H 0.23221 0.73000 0.64375
 H1056 H 0.31533 0.72568 0.62958
 H1057 H 0.30785 0.69686 0.59188
 H1058 H 0.22453 0.70030 0.60667
 C1059 C 0.75141 0.22861 0.12891
 C1060 C 0.77680 0.23680 0.13541
 C1061 C 0.79802 0.22744 0.12044
 C1062 C 0.79395 0.21021 0.09936
 C1063 C 0.76857 0.20162 0.09301
 C1064 C 0.74735 0.21107 0.10807
 H1065 H 0.73477 0.23528 0.14039
 H1066 H 0.81774 0.23377 0.12483
 H1067 H 0.81071 0.20386 0.08788
 H1068 H 0.72760 0.20456 0.10410
 C1069 C 0.46017 0.38670 0.54249
 C1070 C 0.46915 0.38602 0.51617
 C1071 C 0.48257 0.36360 0.50723
 C1072 C 0.48698 0.34242 0.52422
 C1073 C 0.47808 0.34314 0.55055
 C1074 C 0.46457 0.36550 0.55947
 H1075 H 0.45014 0.40380 0.55013
 H1076 H 0.48934 0.36224 0.48697
 H1077 H 0.49706 0.32530 0.51661
 H1078 H 0.45781 0.36681 0.57976
 C1079 C -0.04487 0.88213 0.03708
 C1080 C -0.03247 0.88346 0.01210
 C1081 C -0.01591 0.86245 0.00475
 C1082 C -0.01181 0.84119 0.02171
 C1083 C -0.02383 0.84028 0.04671
 C1084 C -0.04046 0.86100 0.05412
 H1085 H -0.05730 0.89776 0.04421
 H1086 H -0.00646 0.86184 -0.01438
 H1087 H 0.00061 0.82527 0.01503
 H1088 H -0.04965 0.86125 0.07344
 C1089 C 0.01299 0.63337 0.00721
 C1090 C 0.03018 0.61277 0.01429
 C1091 C 0.04292 0.61435 0.03908
 C1092 C 0.03827 0.63536 0.05621
 C1093 C 0.02107 0.65571 0.04904
 C1094 C 0.00869 0.65452 0.02422
 H1095 H 0.00325 0.63379 -0.01178
 H1096 H 0.05584 0.59898 0.04597
 H1097 H 0.04779 0.63532 0.07538
 H1098 H -0.00414 0.67017 0.01767
 C1099 C 0.50309 0.11977 0.52468
 C1100 C 0.52845 0.11333 0.51609
 C1101 C 0.54958 0.12855 0.52474
 C1102 C 0.54542 0.14997 0.54148
 C1103 C 0.52004 0.15639 0.55031
 C1104 C 0.49894 0.14091 0.54174
 H1105 H 0.48653 0.10808 0.51859
 H1106 H 0.56927 0.12414 0.51812
 H1107 H 0.56209 0.16169 0.54718
 H1108 H 0.47922 0.14484 0.54854
 C1109 C -0.04848 0.12926 0.47391
 C1110 C -0.02713 0.11513 0.48417
 C1111 C -0.00167 0.12246 0.47697
 C1112 C 0.00238 0.14337 0.45961
 C1113 C -0.01895 0.15768 0.44935
 C1114 C -0.04445 0.15042 0.45685
 H1115 H -0.06829 0.12419 0.47946
 H1116 H 0.01509 0.11162 0.48432
 H1117 H 0.02225 0.14800 0.45390
 H1118 H -0.06134 0.16128 0.44983
 C1119 C 0.48695 0.63657 0.99233
 C1120 C 0.47177 0.61499 0.98419
 C1121 C 0.46087 0.61568 0.95848
 C1122 C 0.46539 0.63681 0.94151
 C1123 C 0.48052 0.65821 0.94977
 C1124 C 0.49104 0.65787 0.97549
 H1125 H 0.49516 0.63763 1.01203
 H1126 H 0.44961 0.59952 0.95080
 H1127 H 0.45741 0.63605 0.92166
 H1128 H 0.50221 0.67428 0.98286
 C1129 C 0.51855 0.86383 0.99352
 C1130 C 0.53029 0.88695 0.98436
 C1131 C 0.53779 0.88855 0.95762
 C1132 C 0.53349 0.86757 0.94040
 C1133 C 0.52165 0.84448 0.94954
 C1134 C 0.51432 0.84284 0.97633
 H1135 H 0.51298 0.86181 1.01409
 H1136 H 0.54652 0.90623 0.94987
 H1137 H 0.53901 0.86962 0.91980
 H1138 H 0.50561 0.82515 0.98413
 C1139 C 0.01674 0.36232 0.49217
 C1140 C 0.02859 0.38544 0.48316
 C1141 C 0.03624 0.38710 0.45646
 C1142 C 0.03201 0.36620 0.43916
 C1143 C 0.02006 0.34312 0.44815
 C1144 C 0.01254 0.34140 0.47488
 H1145 H 0.01100 0.36027 0.51270
 H1146 H 0.04501 0.40478 0.44878
 H1147 H 0.03767 0.36829 0.41859
 H1148 H 0.00369 0.32372 0.48253
 C1149 C 0.35874 0.50629 0.48334
 C1150 C 0.38200 0.51550 0.47185
 C1151 C 0.38352 0.54200 0.46450
 C1152 C 0.36229 0.55888 0.46854
 C1153 C 0.33901 0.54968 0.48000
 C1154 C 0.33748 0.52317 0.48734
 H1155 H 0.35681 0.48591 0.48884
 H1156 H 0.40129 0.54981 0.45603
 H1157 H 0.36427 0.57929 0.46309
 H1158 H 0.31968 0.51538 0.49583
 C1159 C 0.88670 0.04152 -0.03792
 C1160 C 0.88710 0.01618 -0.02670
 C1161 C 0.86549 0.00867 -0.01103
 C1162 C 0.84433 0.02564 -0.00703
 C1163 C 0.84413 0.05084 -0.01817
 C1164 C 0.86566 0.05858 -0.03355
 H1165 H 0.90291 0.04874 -0.04950
 H1166 H 0.86420 -0.01065 -0.00246
 H1167 H 0.82784 0.01872 0.00442
 H1168 H 0.86650 0.07806 -0.04196
 C1169 C 0.63806 0.00804 0.01689
 C1170 C 0.61489 0.01697 0.02896
 C1171 C 0.61317 0.04332 0.03682
 C1172 C 0.63409 0.06037 0.03260
 C1173 C 0.65724 0.05144 0.02047
 C1174 C 0.65899 0.02506 0.01272
 H1175 H 0.64019 -0.01224 0.01104
 H1176 H 0.59545 0.05091 0.04580
 H1177 H 0.63195 0.08067 0.03843
 H1178 H 0.67672 0.01744 0.00377
 C1179 C 0.10971 0.54230 0.53711
 C1180 C 0.10949 0.51713 0.52553
 C1181 C 0.13113 0.50978 0.50974
 C1182 C 0.15215 0.52675 0.50595
 C1183 C 0.15214 0.55180 0.51740
 C1184 C 0.13059 0.55938 0.53294
 H1185 H 0.09346 0.54939 0.54882
 H1186 H 0.13255 0.49057 0.50091
 H1187 H 0.16868 0.51994 0.49439
 H1188 H 0.12960 0.57874 0.54160
 C1189 C 0.11517 0.45805 -0.03875
 C1190 C 0.11458 0.48347 -0.02778
 C1191 C 0.13638 0.49152 -0.01269
 C1192 C 0.15791 0.47494 -0.00894
 C1193 C 0.15824 0.44956 -0.01966
 C1194 C 0.13652 0.44133 -0.03453
 H1195 H 0.09882 0.45047 -0.04989
 H1196 H 0.13749 0.51099 -0.00441
 H1197 H 0.17452 0.48229 0.00205
 H1198 H 0.13571 0.42172 -0.04259
 C1199 C 0.61509 0.95906 0.46115
 C1200 C 0.61450 0.98449 0.47214
 C1201 C 0.63628 0.99248 0.48731
 C1202 C 0.65771 0.97579 0.49122
 C1203 C 0.65800 0.95042 0.48047
 C1204 C 0.63639 0.94229 0.46543
 H1205 H 0.59881 0.95146 0.44993
 H1206 H 0.63740 1.01191 0.49565
 H1207 H 0.67427 0.98301 0.50238
 H1208 H 0.63561 0.92269 0.45731
 C1209 C 0.88997 0.95808 0.53384
 C1210 C 0.88827 0.98460 0.52656
 C1211 C 0.86493 0.99391 0.51505
 C1212 C 0.84380 0.97712 0.51097
 C1213 C 0.84550 0.95061 0.51830
 C1214 C 0.86884 0.94129 0.52976
 H1215 H 0.90779 0.95018 0.54232
 H1216 H 0.86282 1.01431 0.50962
 H1217 H 0.82594 0.98499 0.50248
 H1218 H 0.87091 0.92087 0.53522
 C1219 C 0.36627 0.49216 0.01219
 C1220 C 0.38963 0.48297 0.02371
 C1221 C 0.39140 0.45652 0.03122
 C1222 C 0.37026 0.43966 0.02737
 C1223 C 0.34683 0.44888 0.01600
 C1224 C 0.34511 0.47533 0.00842
 H1225 H 0.36412 0.51251 0.00661
 H1226 H 0.40926 0.44877 0.03978
 H1227 H 0.37240 0.41931 0.03301
 H1228 H 0.32720 0.48317 0.00003
 C1229 C 0.50555 0.48657 0.36408
 C1230 C 0.51430 0.47468 0.38761
 C1231 C 0.54080 0.46745 0.38978
 C1232 C 0.55814 0.47194 0.36888
 C1233 C 0.54936 0.48369 0.34527
 C1234 C 0.52286 0.49099 0.34314
 H1235 H 0.48518 0.49199 0.36165
 H1236 H 0.54823 0.45866 0.40781
 H1237 H 0.57851 0.46650 0.37133
 H1238 H 0.51538 0.49968 0.32507
 C1239 C 0.02526 -0.04863 0.87126
 C1240 C 0.01579 -0.02755 0.88636
 C1241 C 0.02409 -0.00211 0.88020
 C1242 C 0.04175 0.00215 0.85950
 C1243 C 0.05123 -0.01893 0.84425
 C1244 C 0.04262 -0.04437 0.85033
 H1245 H 0.01884 -0.06838 0.87536
 H1246 H 0.01731 0.01442 0.89178
 H1247 H 0.04828 0.02193 0.85575
 H1248 H 0.04898 -0.06102 0.83869
 C1249 C 0.02626 0.00116 0.61978
 C1250 C 0.01860 0.02664 0.61270
 C1251 C 0.02809 0.04786 0.62743
 C1252 C 0.04481 0.04370 0.64894
 C1253 C 0.05281 0.01820 0.65596
 C1254 C 0.04334 -0.00302 0.64103
 H1255 H 0.01940 -0.01548 0.60851
 H1256 H 0.02212 0.06767 0.62259
 H1257 H 0.05115 0.06049 0.66029
 H1258 H 0.04942 -0.02288 0.64547
 C1259 C 0.52367 0.50307 0.12087
 C1260 C 0.51641 0.52859 0.11342
 C1261 C 0.52655 0.54986 0.12766
 C1262 C 0.54353 0.54571 0.14899
 C1263 C 0.55097 0.52017 0.15642
 C1264 C 0.54086 0.49891 0.14203
 H1265 H 0.51645 0.48635 0.10998
 H1266 H 0.52097 0.56971 0.12257
 H1267 H 0.55049 0.56253 0.15992
 H1268 H 0.54653 0.47902 0.14685
 C1269 C 0.49365 -0.01536 0.13853
 C1270 C 0.48513 -0.02758 0.11514
 C1271 C 0.45897 -0.03584 0.11342
 C1272 C 0.44176 -0.03202 0.13459
 C1273 C 0.45030 -0.01987 0.15801
 C1274 C 0.47644 -0.01156 0.15973
 H1275 H 0.51376 -0.00915 0.14065
 H1276 H 0.45166 -0.04489 0.09553
 H1277 H 0.42163 -0.03823 0.13246
 H1278 H 0.48373 -0.00251 0.17765
 C1279 C 0.97287 0.45087 0.62723
 C1280 C 0.98196 0.47234 0.61258
 C1281 C 0.97399 0.49766 0.61989
 C1282 C 0.95707 0.50144 0.64132
 C1283 C 0.94802 0.47998 0.65616
 C1284 C 0.95625 0.45464 0.64889
 H1285 H 0.97906 0.43118 0.62222
 H1286 H 0.98048 0.51450 0.60869
 H1287 H 0.95077 0.52118 0.64597
 H1288 H 0.95017 0.43769 0.66014
 C1289 C 0.95698 0.53267 0.88944
 C1290 C 0.98312 0.52407 0.88781
 C1291 C 0.99146 0.51104 0.86476
 C1292 C 0.97411 0.50685 0.84378
 C1293 C 0.94800 0.51556 0.84536
 C1294 C 0.93962 0.52845 0.86847
 H1295 H 0.94982 0.54237 0.90708
 H1296 H 1.01155 0.50454 0.86270
 H1297 H 0.98130 0.49723 0.82608
 H1298 H 0.91953 0.53501 0.87049
 C1299 C 0.45480 0.03093 0.39157
 C1300 C 0.48105 0.02261 0.39009
 C1301 C 0.48977 0.01008 0.36690
 C1302 C 0.47272 0.00612 0.34564
 C1303 C 0.44653 0.01459 0.34705
 C1304 C 0.43775 0.02698 0.37029
 H1305 H 0.44736 0.04027 0.40929
 H1306 H 0.50994 0.00385 0.36490
 H1307 H 0.48020 -0.00309 0.32785
 H1308 H 0.41758 0.03336 0.37214
   
