data_POSCAR
  _audit_creation_date              2014-09-24
  _audit_creation_method            'ToBaCCo'
  _symmetry_space_group_name_H-M    'P1'
  _symmetry_Int_Tables_number       1
  _symmetry_cell_setting            triclinic
  loop_
  _symmetry_equiv_pos_as_xyz
 x,y,z
_cell_length_a 59.6579
_cell_length_b 59.8081
_cell_length_c 59.6199
_cell_angle_alpha 90.149300
_cell_angle_beta 90.065500
_cell_angle_gamma 90.138700
loop_
  _atom_site_label
  _atom_site_type_symbol
  _atom_site_fract_x
  _atom_site_fract_y
  _atom_site_fract_z
N1 N 0.17272 0.22511 0.23057
 N2 N 0.17857 0.20712 0.24177
 C3 C 0.16432 0.20423 0.25906
 C4 C 0.14887 0.22131 0.25851
 C5 C 0.15457 0.23428 0.24032
 H6 H 0.16505 0.19077 0.27111
 H7 H 0.14612 0.24920 0.23461
 Cu8 Cu 0.20420 0.18921 0.23266
 Cu9 Cu 0.18895 0.23526 0.20418
 Cu10 Cu 0.23536 0.20436 0.18816
 N11 N 0.23061 0.17238 0.22374
 N12 N 0.24276 0.17843 0.20636
 C13 C 0.25993 0.16405 0.20391
 C14 C 0.25835 0.14827 0.22062
 C15 C 0.23967 0.15392 0.23294
 H16 H 0.27257 0.16497 0.19095
 H17 H 0.23322 0.14523 0.24745
 N18 N 0.22520 0.23110 0.17185
 N19 N 0.20750 0.24287 0.17795
 C20 C 0.20480 0.25995 0.16350
 C21 C 0.22156 0.25875 0.14770
 C22 C 0.23422 0.24038 0.15336
 H23 H 0.19164 0.27232 0.16433
 H24 H 0.24885 0.23427 0.14460
 H25 H 0.20136 0.20438 0.19480
 H26 H 0.21947 0.22184 0.21352
 N27 N 0.67351 0.72556 0.73132
 N28 N 0.67985 0.70800 0.74295
 C29 C 0.66561 0.70508 0.76024
 C30 C 0.64968 0.72170 0.75926
 C31 C 0.65507 0.73442 0.74081
 H32 H 0.66668 0.69192 0.77259
 H33 H 0.64623 0.74897 0.73474
 Cu34 Cu 0.70608 0.69075 0.73432
 Cu35 Cu 0.68953 0.73559 0.70475
 Cu36 Cu 0.73594 0.70470 0.68862
 N37 N 0.73188 0.67330 0.72482
 N38 N 0.74353 0.67891 0.70696
 C39 C 0.76038 0.66423 0.70415
 C40 C 0.75911 0.64870 0.72113
 C41 C 0.74093 0.65482 0.73397
 H42 H 0.77261 0.66478 0.69079
 H43 H 0.73481 0.64642 0.74880
 N44 N 0.72560 0.73133 0.67223
 N45 N 0.70790 0.74309 0.67837
 C46 C 0.70511 0.76011 0.66388
 C47 C 0.72180 0.75890 0.64802
 C48 C 0.73452 0.74057 0.65367
 H49 H 0.69194 0.77248 0.66475
 H50 H 0.74914 0.73448 0.64488
 H51 H 0.70211 0.70457 0.69609
 H52 H 0.72045 0.72290 0.71369
 N53 N 0.32672 0.77598 0.73110
 N54 N 0.32070 0.79383 0.74252
 C55 C 0.33498 0.79677 0.75983
 C56 C 0.35061 0.77986 0.75906
 C57 C 0.34500 0.76695 0.74073
 H58 H 0.33413 0.81012 0.77206
 H59 H 0.35355 0.75213 0.73486
 Cu60 Cu 0.29477 0.81136 0.73360
 Cu61 Cu 0.31049 0.76576 0.70463
 Cu62 Cu 0.26420 0.79679 0.68844
 N63 N 0.26878 0.82864 0.72437
 N64 N 0.25687 0.82280 0.70669
 C65 C 0.23990 0.83737 0.70403
 C66 C 0.24140 0.85305 0.72093
 C67 C 0.25979 0.84716 0.73358
 H68 H 0.22745 0.83660 0.69085
 H69 H 0.26606 0.85570 0.74833
 N70 N 0.27431 0.76993 0.67215
 N71 N 0.29194 0.75811 0.67833
 C72 C 0.29458 0.74093 0.66391
 C73 C 0.27784 0.74212 0.64805
 C74 C 0.26527 0.76058 0.65363
 H75 H 0.30767 0.72850 0.66480
 H76 H 0.25069 0.76671 0.64482
 H77 H 0.29810 0.79671 0.69555
 H78 H 0.27980 0.77897 0.71363
 N79 N 0.82741 0.27430 0.23173
 N80 N 0.82112 0.29185 0.24348
 C81 C 0.83542 0.29476 0.26078
 C82 C 0.85131 0.27812 0.25964
 C83 C 0.84588 0.26541 0.24112
 H84 H 0.83437 0.30790 0.27323
 H85 H 0.85466 0.25083 0.23497
 Cu86 Cu 0.79486 0.30912 0.23501
 Cu87 Cu 0.81123 0.26426 0.20516
 Cu88 Cu 0.76480 0.29521 0.18927
 N89 N 0.76905 0.32660 0.22562
 N90 N 0.75734 0.32102 0.20773
 C91 C 0.74049 0.33571 0.20504
 C92 C 0.74181 0.35121 0.22211
 C93 C 0.76003 0.34507 0.23490
 H94 H 0.72820 0.33516 0.19170
 H95 H 0.76617 0.35344 0.24980
 N96 N 0.77501 0.26855 0.17274
 N97 N 0.79271 0.25676 0.17879
 C98 C 0.79537 0.23968 0.16425
 C99 C 0.77858 0.24090 0.14845
 C100 C 0.76595 0.25928 0.15419
 H101 H 0.80849 0.22727 0.16505
 H102 H 0.75129 0.26538 0.14548
 H103 H 0.79866 0.29531 0.19669
 H104 H 0.78036 0.27700 0.21422
 N105 N 0.82672 0.72604 0.26798
 N106 N 0.82041 0.70846 0.25624
 C107 C 0.83468 0.70562 0.23896
 C108 C 0.85060 0.72231 0.24007
 C109 C 0.84518 0.73500 0.25859
 H110 H 0.83364 0.69245 0.22654
 H111 H 0.85400 0.74959 0.26475
 Cu112 Cu 0.79418 0.69103 0.26470
 Cu113 Cu 0.81063 0.73598 0.29457
 Cu114 Cu 0.76434 0.70472 0.31054
 N115 N 0.76846 0.67338 0.27417
 N116 N 0.75685 0.67885 0.29210
 C117 C 0.74007 0.66402 0.29486
 C118 C 0.74135 0.64853 0.27778
 C119 C 0.75946 0.65483 0.26492
 H120 H 0.72787 0.66444 0.30827
 H121 H 0.76556 0.64650 0.25001
 N122 N 0.77456 0.73145 0.32705
 N123 N 0.79220 0.74336 0.32096
 C124 C 0.79489 0.76046 0.33549
 C125 C 0.77817 0.75912 0.35133
 C126 C 0.76557 0.74065 0.34561
 H127 H 0.80798 0.77296 0.33466
 H128 H 0.75096 0.73444 0.35436
 H129 H 0.79817 0.70483 0.30301
 H130 H 0.77975 0.72305 0.28556
 N131 N 0.32832 0.22546 -0.23172
 N132 N 0.32207 0.20773 -0.24328
 C133 C 0.33636 0.20473 -0.26053
 C134 C 0.35221 0.22149 -0.25956
 C135 C 0.34675 0.23438 -0.24119
 H136 H 0.33535 0.19143 -0.27282
 H137 H 0.35550 0.24909 -0.23519
 Cu138 Cu 0.29587 0.19033 -0.23468
 Cu139 Cu 0.31215 0.23565 -0.20527
 Cu140 Cu 0.26587 0.20446 -0.18909
 N141 N 0.27015 0.17274 -0.22511
 N142 N 0.25847 0.17840 -0.20728
 C143 C 0.24166 0.16361 -0.20445
 C144 C 0.24299 0.14796 -0.22138
 C145 C 0.26116 0.15412 -0.23423
 H146 H 0.22937 0.16420 -0.19114
 H147 H 0.26728 0.14568 -0.24906
 N148 N 0.27601 0.23138 -0.17283
 N149 N 0.29364 0.24326 -0.17899
 C150 C 0.29628 0.26048 -0.16459
 C151 C 0.27954 0.25925 -0.14877
 C152 C 0.26697 0.24072 -0.15435
 H153 H 0.30938 0.27298 -0.16548
 H154 H 0.25237 0.23455 -0.14556
 H155 H 0.29974 0.20457 -0.19651
 H156 H 0.28133 0.22256 -0.21422
 N157 N 0.67306 0.27437 -0.23113
 N158 N 0.67894 0.29243 -0.24226
 C159 C 0.66465 0.29538 -0.25953
 C160 C 0.64917 0.27826 -0.25901
 C161 C 0.65485 0.26520 -0.24089
 H162 H 0.66539 0.30890 -0.27152
 H163 H 0.64638 0.25024 -0.23522
 Cu164 Cu 0.70466 0.31032 -0.23305
 Cu165 Cu 0.68935 0.26412 -0.20481
 Cu166 Cu 0.73584 0.29508 -0.18860
 N167 N 0.73110 0.32723 -0.22402
 N168 N 0.74324 0.32114 -0.20664
 C169 C 0.76041 0.33559 -0.20407
 C170 C 0.75884 0.35145 -0.22070
 C171 C 0.74016 0.34578 -0.23310
 H172 H 0.77305 0.33467 -0.19108
 H173 H 0.73371 0.35452 -0.24758
 N174 N 0.72568 0.26819 -0.17246
 N175 N 0.70795 0.25640 -0.17864
 C176 C 0.70525 0.23923 -0.16429
 C177 C 0.72205 0.24039 -0.14848
 C178 C 0.73472 0.25883 -0.15402
 H179 H 0.69205 0.22684 -0.16518
 H180 H 0.74936 0.26496 -0.14521
 H181 H 0.70184 0.29498 -0.19527
 H182 H 0.71988 0.27766 -0.21404
 N183 N 0.17365 0.77486 0.26886
 N184 N 0.17945 0.79291 0.25770
 C185 C 0.16530 0.79560 0.24028
 C186 C 0.14994 0.77837 0.24074
 C187 C 0.15559 0.76550 0.25900
 H188 H 0.16602 0.80907 0.22823
 H189 H 0.14715 0.75054 0.26471
 Cu190 Cu 0.20476 0.81131 0.26704
 Cu191 Cu 0.18982 0.76489 0.29534
 Cu192 Cu 0.23599 0.79619 0.31161
 N193 N 0.23127 0.82814 0.27605
 N194 N 0.24337 0.82217 0.29350
 C195 C 0.26052 0.83663 0.29605
 C196 C 0.25899 0.85235 0.27929
 C197 C 0.24036 0.84661 0.26684
 H198 H 0.27310 0.83581 0.30911
 H199 H 0.23396 0.85522 0.25225
 N200 N 0.22593 0.76937 0.32785
 N201 N 0.20830 0.75745 0.32166
 C202 C 0.20564 0.74033 0.33608
 C203 C 0.22237 0.74168 0.35196
 C204 C 0.23496 0.76015 0.34637
 H205 H 0.19254 0.72784 0.33518
 H206 H 0.24955 0.76639 0.35518
 H207 H 0.20206 0.79581 0.30476
 H208 H 0.22027 0.77868 0.28592
 N209 N 0.47519 0.42214 0.48226
 N210 N 0.45766 0.42857 0.49397
 C211 C 0.45464 0.41433 0.51120
 C212 C 0.47115 0.39830 0.51007
 C213 C 0.48392 0.40363 0.49161
 H214 H 0.44149 0.41548 0.52361
 H215 H 0.49844 0.39473 0.48547
 Cu216 Cu 0.44055 0.45491 0.48553
 Cu217 Cu 0.48543 0.43820 0.45583
 Cu218 Cu 0.45479 0.48470 0.43989
 N219 N 0.42319 0.48071 0.47602
 N220 N 0.42888 0.49231 0.45818
 C221 C 0.41423 0.50916 0.45538
 C222 C 0.39862 0.50795 0.47235
 C223 C 0.40467 0.48981 0.48517
 H224 H 0.41486 0.52137 0.44204
 H225 H 0.39620 0.48375 0.50000
 N226 N 0.48153 0.47435 0.42354
 N227 N 0.49318 0.45660 0.42960
 C228 C 0.51036 0.45384 0.41522
 C229 C 0.50936 0.47063 0.39950
 C230 C 0.49100 0.48335 0.40513
 H231 H 0.52271 0.44066 0.41607
 H232 H 0.48505 0.49805 0.39646
 H233 H 0.47288 0.46909 0.46492
 H234 H 0.45439 0.45094 0.44727
 N235 N -0.02457 -0.07766 0.98100
 N236 N -0.04199 -0.07127 0.99289
 C237 C -0.04487 -0.08558 1.01008
 C238 C -0.02838 -0.10162 1.00875
 C239 C -0.01577 -0.09621 0.99019
 H240 H -0.05793 -0.08450 1.02259
 H241 H -0.00133 -0.10512 0.98387
 Cu242 Cu -0.05926 -0.04495 0.98469
 Cu243 Cu -0.01467 -0.06156 0.95446
 Cu244 Cu -0.04573 -0.01525 0.93875
 N245 N -0.07681 -0.01923 0.97532
 N246 N -0.07143 -0.00770 0.95734
 C247 C -0.08620 0.00907 0.95466
 C248 C -0.10155 0.00789 0.97185
 C249 C -0.09524 -0.01017 0.98469
 H250 H -0.08582 0.02121 0.94125
 H251 H -0.10347 -0.01619 0.99966
 N252 N -0.01915 -0.02552 0.92211
 N253 N -0.00729 -0.04315 0.92813
 C254 C 0.00976 -0.04583 0.91356
 C255 C 0.00844 -0.02914 0.89777
 C256 C -0.00996 -0.01654 0.90355
 H257 H 0.02223 -0.05889 0.91435
 H258 H -0.01612 -0.00193 0.89487
 H259 H -0.02726 -0.03067 0.96361
 H260 H -0.04589 -0.04898 0.94627
 N261 N 1.02483 0.57726 0.98163
 N262 N 1.04250 0.57104 0.99325
 C263 C 1.04572 0.58559 1.01026
 C264 C 1.02919 0.60161 1.00909
 C265 C 1.01620 0.59593 0.99082
 H266 H 1.05902 0.58467 1.02256
 H267 H 1.00161 0.60472 0.98471
 Cu268 Cu 1.05956 0.54459 0.98497
 Cu269 Cu 1.01430 0.56072 0.95549
 Cu270 Cu 1.04489 0.51406 0.93975
 N271 N 1.07688 0.51868 0.97555
 N272 N 1.07104 0.50682 0.95786
 C273 C 1.08574 0.48999 0.95507
 C274 C 1.10152 0.49149 0.97189
 C275 C 1.09553 0.50978 0.98462
 H276 H 1.08502 0.47761 0.94183
 H277 H 1.10413 0.51607 0.99933
 N278 N 1.01793 0.52406 0.92355
 N279 N 1.00628 0.54186 0.92955
 C280 C 0.98899 0.54441 0.91522
 C281 C 0.98991 0.52744 0.89962
 C282 C 1.00835 0.51483 0.90524
 H283 H 0.97669 0.55764 0.91597
 H284 H 1.01434 0.50011 0.89657
 H285 H 1.02705 0.52998 0.96478
 H286 H 1.04529 0.54792 0.94679
 N287 N 0.52365 0.07684 0.48277
 N288 N 0.54187 0.07116 0.49382
 C289 C 0.54492 0.08552 0.51103
 C290 C 0.52771 0.10085 0.51058
 C291 C 0.51451 0.09498 0.49253
 H292 H 0.55860 0.08498 0.52292
 H293 H 0.49948 0.10333 0.48688
 Cu294 Cu 0.55982 0.04566 0.48450
 Cu295 Cu 0.51324 0.06048 0.45648
 Cu296 Cu 0.54446 0.01447 0.44000
 N297 N 0.57691 0.01951 0.47534
 N298 N 0.57079 0.00740 0.45791
 C299 C 0.58533 -0.00959 0.45526
 C300 C 0.60128 -0.00795 0.47191
 C301 C 0.59556 0.01060 0.48439
 H302 H 0.58436 -0.02220 0.44226
 H303 H 0.60432 0.01702 0.49895
 N304 N 0.51729 0.02431 0.42404
 N305 N 0.50539 0.04184 0.43033
 C306 C 0.48806 0.04438 0.41606
 C307 C 0.48921 0.02767 0.40018
 C308 C 0.50782 0.01523 0.40560
 H309 H 0.47559 0.05744 0.41701
 H310 H 0.51402 0.00076 0.39667
 H311 H 0.52708 0.03012 0.46551
 H312 H 0.54420 0.04837 0.44676
 N313 N -0.02426 0.07738 0.51843
 N314 N -0.04186 0.07098 0.50673
 C315 C -0.04475 0.08511 0.48940
 C316 C -0.02806 0.10104 0.49042
 C317 C -0.01532 0.09576 0.50894
 H318 H -0.05797 0.08400 0.47703
 H319 H -0.00074 0.10466 0.51508
 Cu320 Cu -0.05935 0.04489 0.51536
 Cu321 Cu -0.01434 0.06153 0.54513
 Cu322 Cu -0.04578 0.01555 0.56146
 N323 N -0.07707 0.01932 0.52500
 N324 N -0.07166 0.00792 0.54305
 C325 C -0.08651 -0.00882 0.54588
 C326 C -0.10194 -0.00774 0.52872
 C327 C -0.09559 0.01021 0.51574
 H328 H -0.08611 -0.02089 0.55935
 H329 H -0.10384 0.01611 0.50072
 N330 N -0.01901 0.02587 0.57790
 N331 N -0.00700 0.04337 0.57166
 C332 C 0.01015 0.04611 0.58614
 C333 C 0.00874 0.02959 0.60212
 C334 C -0.00982 0.01703 0.59652
 H335 H 0.02276 0.05909 0.58518
 H336 H -0.01607 0.00254 0.60536
 H337 H -0.02732 0.03064 0.53637
 H338 H -0.04561 0.04922 0.55365
 N339 N 0.47568 0.57837 0.01944
 N340 N 0.45812 0.57198 0.00766
 C341 C 0.45521 0.58625 -0.00955
 C342 C 0.47182 0.60226 -0.00835
 C343 C 0.48454 0.59688 0.01015
 H344 H 0.44209 0.58512 -0.02203
 H345 H 0.49913 0.60574 0.01632
 Cu346 Cu 0.44085 0.54564 0.01597
 Cu347 Cu 0.48584 0.56219 0.04583
 Cu348 Cu 0.45489 0.51566 0.06151
 N349 N 0.42334 0.51981 0.02531
 N350 N 0.42894 0.50815 0.04313
 C351 C 0.41420 0.49128 0.04580
 C352 C 0.39865 0.49254 0.02877
 C353 C 0.40480 0.51073 0.01603
 H354 H 0.41476 0.47902 0.05909
 H355 H 0.39642 0.51682 0.00117
 N356 N 0.48169 0.52592 0.07797
 N357 N 0.49346 0.54367 0.07200
 C358 C 0.51068 0.54631 0.08643
 C359 C 0.50957 0.52945 0.10206
 C360 C 0.49111 0.51680 0.09634
 H361 H 0.52314 0.55945 0.08565
 H362 H 0.48507 0.50207 0.10492
 H363 H 0.47310 0.53133 0.03659
 H364 H 0.45473 0.54944 0.05427
 N365 N 0.52368 -0.07772 0.01837
 N366 N 0.54166 -0.07185 0.00703
 C367 C 0.54457 -0.08628 -0.01011
 C368 C 0.52753 -0.10185 -0.00933
 C369 C 0.51455 -0.09604 0.00885
 H370 H 0.55803 -0.08559 -0.02222
 H371 H 0.49965 -0.10453 0.01472
 Cu372 Cu 0.55940 -0.04593 0.01589
 Cu373 Cu 0.51344 -0.06127 0.04462
 Cu374 Cu 0.54478 -0.01501 0.06072
 N375 N 0.57686 -0.01995 0.02509
 N376 N 0.57101 -0.00791 0.04263
 C377 C 0.58570 0.00902 0.04526
 C378 C 0.60148 0.00742 0.02849
 C379 C 0.59550 -0.01105 0.01596
 H380 H 0.58494 0.02158 0.05833
 H381 H 0.60406 -0.01741 0.00131
 N382 N 0.51770 -0.02489 0.07685
 N383 N 0.50577 -0.04252 0.07071
 C384 C 0.48848 -0.04502 0.08502
 C385 C 0.48968 -0.02818 0.10075
 C386 C 0.50829 -0.01570 0.09522
 H387 H 0.47597 -0.05811 0.08415
 H388 H 0.51448 -0.00109 0.10399
 H389 H 0.52694 -0.03073 0.03548
 H390 H 0.54452 -0.04888 0.05386
 N391 N 1.02438 0.42288 0.51756
 N392 N 1.04202 0.42921 0.50595
 C393 C 1.04500 0.41491 0.48870
 C394 C 1.02833 0.39896 0.48969
 C395 C 1.01553 0.40438 0.50811
 H396 H 1.05824 0.41597 0.47637
 H397 H 1.00091 0.39555 0.51416
 Cu398 Cu 1.05936 0.45546 0.51456
 Cu399 Cu 1.01418 0.43905 0.54400
 Cu400 Cu 1.04518 0.48551 0.56014
 N401 N 1.07691 0.48123 0.52416
 N402 N 1.07124 0.49293 0.54198
 C403 C 1.08602 0.50975 0.54485
 C404 C 1.10169 0.50840 0.52795
 C405 C 1.09554 0.49022 0.51508
 H406 H 1.08544 0.52203 0.55818
 H407 H 1.10401 0.48407 0.50028
 N408 N 1.01829 0.47533 0.57637
 N409 N 1.00651 0.45759 0.57025
 C410 C 0.98927 0.45494 0.58460
 C411 C 0.99037 0.47180 0.60033
 C412 C 1.00884 0.48443 0.59476
 H413 H 0.97683 0.44179 0.58372
 H414 H 1.01490 0.49913 0.60348
 H415 H 1.02704 0.46986 0.53502
 H416 H 1.04528 0.45171 0.55274
 Si417 Si 0.37410 -0.00000 0.25007
 Si418 Si 0.12581 -0.00007 0.75008
 Si419 Si 0.62549 0.49923 0.25077
 Si420 Si 0.87466 0.50010 0.74954
 Si421 Si 0.25026 0.37567 -0.00017
 Si422 Si 0.74997 0.12404 -0.00011
 Si423 Si 0.25048 0.62467 0.49976
 Si424 Si 0.74951 0.87565 0.49991
 Si425 Si -0.00028 0.24948 0.37427
 Si426 Si 0.00032 0.75038 0.12508
 Si427 Si 0.50057 0.25027 0.62611
 Si428 Si 0.49983 0.74945 0.87414
 C429 C 0.05909 0.23830 0.33010
 C430 C 0.06486 0.25475 0.31407
 C431 C 0.08345 0.25129 0.29958
 C432 C 0.09615 0.23139 0.30121
 C433 C 0.09046 0.21500 0.31735
 C434 C 0.07187 0.21846 0.33184
 C435 C 0.06649 0.20183 0.34782
 C436 C 0.07914 0.18234 0.34944
 C437 C 0.09731 0.17895 0.33528
 C438 C 0.10298 0.19503 0.31938
 C439 C 0.08888 0.26798 0.28368
 C440 C 0.07630 0.28752 0.28213
 C441 C 0.05812 0.29090 0.29628
 C442 C 0.05238 0.27476 0.31209
 C443 C 0.11495 0.22774 0.28619
 C444 C 0.13047 0.22477 0.27361
 C445 C 0.03994 0.24175 0.34468
 C446 C 0.02394 0.24475 0.35662
 H447 H 0.05251 0.20370 0.35921
 H448 H 0.07483 0.16980 0.36177
 H449 H 0.10708 0.16378 0.33661
 H450 H 0.11727 0.19164 0.30874
 H451 H 0.10287 0.26613 0.27230
 H452 H 0.08070 0.30012 0.26988
 H453 H 0.04840 0.30611 0.29501
 H454 H 0.03810 0.27816 0.32273
 C455 C 0.55961 0.73843 0.83051
 C456 C 0.56529 0.71648 0.82366
 C457 C 0.58395 0.71299 0.80927
 C458 C 0.59681 0.73146 0.80183
 C459 C 0.59123 0.75339 0.80883
 C460 C 0.57258 0.75689 0.82323
 C461 C 0.56730 0.77896 0.82999
 C462 C 0.58009 0.79707 0.82274
 C463 C 0.59833 0.79366 0.80866
 C464 C 0.60391 0.77211 0.80173
 C465 C 0.58929 0.69089 0.80262
 C466 C 0.57656 0.67278 0.80997
 C467 C 0.55831 0.67620 0.82403
 C468 C 0.55266 0.69776 0.83085
 C469 C 0.61564 0.72793 0.78683
 C470 C 0.63121 0.72505 0.77429
 C471 C 0.54032 0.74203 0.84486
 C472 C 0.52421 0.74501 0.85664
 H473 H 0.55328 0.78246 0.84094
 H474 H 0.57583 0.81384 0.82808
 H475 H 0.60821 0.80779 0.80308
 H476 H 0.61825 0.77031 0.79079
 H477 H 0.60334 0.68738 0.79171
 H478 H 0.58088 0.65599 0.80472
 H479 H 0.54847 0.66207 0.82969
 H480 H 0.53833 0.69957 0.84180
 C481 C 0.44024 0.76120 0.83045
 C482 C 0.43002 0.78254 0.83007
 C483 C 0.41143 0.78649 0.81569
 C484 C 0.40320 0.76907 0.80177
 C485 C 0.41333 0.74769 0.80229
 C486 C 0.43190 0.74374 0.81669
 C487 C 0.44175 0.72223 0.81694
 C488 C 0.43350 0.70510 0.80333
 C489 C 0.41536 0.70897 0.78922
 C490 C 0.40533 0.72998 0.78864
 C491 C 0.40149 0.80795 0.81559
 C492 C 0.40968 0.82503 0.82930
 C493 C 0.42787 0.82117 0.84336
 C494 C 0.43799 0.80020 0.84380
 C495 C 0.38446 0.77316 0.78679
 C496 C 0.36897 0.77633 0.77420
 C497 C 0.45948 0.75729 0.84479
 C498 C 0.47555 0.75409 0.85658
 H499 H 0.45589 0.71840 0.82764
 H500 H 0.44123 0.68875 0.80373
 H501 H 0.40902 0.69561 0.77868
 H502 H 0.39125 0.73215 0.77740
 H503 H 0.38730 0.81175 0.80495
 H504 H 0.40187 0.84134 0.82902
 H505 H 0.43417 0.83448 0.85398
 H506 H 0.45208 0.79801 0.85503
 C507 C -0.05985 0.26079 0.33034
 C508 C -0.06665 0.24383 0.31517
 C509 C -0.08521 0.24746 0.30068
 C510 C -0.09688 0.26805 0.30145
 C511 C -0.09018 0.28495 0.31675
 C512 C -0.07161 0.28131 0.33125
 C513 C -0.06523 0.29845 0.34640
 C514 C -0.07687 0.31860 0.34721
 C515 C -0.09501 0.32217 0.33302
 C516 C -0.10166 0.30560 0.31793
 C517 C -0.09168 0.23026 0.28563
 C518 C -0.08014 0.21004 0.28494
 C519 C -0.06199 0.20649 0.29910
 C520 C -0.05524 0.22312 0.31407
 C521 C -0.11567 0.27184 0.28645
 C522 C -0.13122 0.27486 0.27389
 C523 C -0.04064 0.25720 0.34484
 C524 C -0.02460 0.25415 0.35671
 H525 H -0.05123 0.29645 0.35778
 H526 H -0.07181 0.33151 0.35892
 H527 H -0.10399 0.33786 0.33372
 H528 H -0.11588 0.30915 0.30725
 H529 H -0.10570 0.23223 0.27428
 H530 H -0.08532 0.19706 0.27334
 H531 H -0.05308 0.19075 0.29850
 H532 H -0.04103 0.21956 0.32476
 C533 C -0.05943 0.73924 0.16872
 C534 C -0.06902 0.75757 0.18029
 C535 C -0.08763 0.75410 0.19475
 C536 C -0.09656 0.73232 0.19751
 C537 C -0.08710 0.71403 0.18576
 C538 C -0.06848 0.71750 0.17133
 C539 C -0.05927 0.69896 0.15979
 C540 C -0.06823 0.67759 0.16243
 C541 C -0.08645 0.67419 0.17653
 C542 C -0.09584 0.69213 0.18812
 C543 C -0.09688 0.77267 0.20620
 C544 C -0.08803 0.79406 0.20341
 C545 C -0.06985 0.79747 0.18926
 C546 C -0.06038 0.77949 0.17779
 C547 C -0.11536 0.72872 0.21253
 C548 C -0.13092 0.72577 0.22507
 C549 C -0.04014 0.74273 0.15434
 C550 C -0.02404 0.74571 0.14254
 H551 H -0.04510 0.70077 0.14862
 H552 H -0.06100 0.66360 0.15347
 H553 H -0.09336 0.65756 0.17852
 H554 H -0.11001 0.68865 0.19889
 H555 H -0.11104 0.77087 0.21738
 H556 H -0.09532 0.80808 0.21229
 H557 H -0.06304 0.81412 0.18714
 H558 H -0.04626 0.78299 0.16696
 C559 C 0.44092 0.23865 0.66968
 C560 C 0.43388 0.21656 0.67451
 C561 C 0.41531 0.21291 0.68897
 C562 C 0.40390 0.23137 0.69849
 C563 C 0.41081 0.25346 0.69345
 C564 C 0.42936 0.25711 0.67898
 C565 C 0.43596 0.27934 0.67416
 C566 C 0.42454 0.29746 0.68339
 C567 C 0.40641 0.29389 0.69757
 C568 C 0.39955 0.27219 0.70261
 C569 C 0.40859 0.19068 0.69358
 C570 C 0.41988 0.17258 0.68415
 C571 C 0.43803 0.17615 0.67000
 C572 C 0.44503 0.19786 0.66518
 C573 C 0.38517 0.22766 0.71358
 C574 C 0.36966 0.22471 0.72618
 C575 C 0.46020 0.24238 0.65537
 C576 C 0.47629 0.24552 0.64361
 H577 H 0.44995 0.28297 0.66320
 H578 H 0.42980 0.31435 0.67950
 H579 H 0.39760 0.30802 0.70470
 H580 H 0.38535 0.27028 0.71371
 H581 H 0.39455 0.18705 0.70447
 H582 H 0.41451 0.15568 0.68784
 H583 H 0.44674 0.16204 0.66270
 H584 H 0.45923 0.19979 0.65405
 C585 C 0.56013 0.26132 0.67025
 C586 C 0.57254 0.28149 0.66898
 C587 C 0.59118 0.28500 0.68346
 C588 C 0.59727 0.26832 0.69913
 C589 C 0.58492 0.24811 0.70032
 C590 C 0.56630 0.24460 0.68583
 C591 C 0.55418 0.22428 0.68736
 C592 C 0.56030 0.20789 0.70275
 C593 C 0.57851 0.21132 0.71691
 C594 C 0.59074 0.23116 0.71579
 C595 C 0.60332 0.30530 0.68189
 C596 C 0.59721 0.32166 0.66646
 C597 C 0.57899 0.31823 0.65231
 C598 C 0.56673 0.29841 0.65348
 C599 C 0.61612 0.27201 0.71413
 C600 C 0.63170 0.27499 0.72671
 C601 C 0.54092 0.25785 0.65568
 C602 C 0.52488 0.25489 0.64374
 H603 H 0.53988 0.22083 0.67670
 H604 H 0.55085 0.19245 0.70369
 H605 H 0.58320 0.19853 0.72883
 H606 H 0.60478 0.23304 0.72715
 H607 H 0.61762 0.30873 0.69254
 H608 H 0.60668 0.33709 0.66549
 H609 H 0.57431 0.33100 0.64036
 H610 H 0.55269 0.29651 0.64212
 C611 C 0.05993 0.76161 0.16909
 C612 C 0.07285 0.74313 0.17624
 C613 C 0.09150 0.74654 0.19072
 C614 C 0.09713 0.76843 0.19793
 C615 C 0.08433 0.78694 0.19058
 C616 C 0.06567 0.78352 0.17612
 C617 C 0.05312 0.80227 0.16901
 C618 C 0.05887 0.82379 0.17595
 C619 C 0.07712 0.82715 0.19008
 C620 C 0.08975 0.80899 0.19738
 C621 C 0.10416 0.72780 0.19766
 C622 C 0.09858 0.70630 0.19046
 C623 C 0.08035 0.70297 0.17629
 C624 C 0.06756 0.72110 0.16922
 C625 C 0.11596 0.77190 0.21301
 C626 C 0.13152 0.77483 0.22562
 C627 C 0.04064 0.75808 0.15464
 C628 C 0.02457 0.75508 0.14275
 H629 H 0.03878 0.80051 0.15800
 H630 H 0.04911 0.83795 0.17031
 H631 H 0.08153 0.84391 0.19541
 H632 H 0.10381 0.81245 0.20836
 H633 H 0.11849 0.72955 0.20867
 H634 H 0.10847 0.69216 0.19590
 H635 H 0.07610 0.68624 0.17073
 H636 H 0.05355 0.71765 0.15819
 C637 C 0.32939 0.05858 0.23843
 C638 C 0.33802 0.07885 0.22974
 C639 C 0.32345 0.09727 0.22612
 C640 C 0.30034 0.09528 0.23118
 C641 C 0.29171 0.07497 0.23981
 C642 C 0.30629 0.05656 0.24345
 C643 C 0.29728 0.03642 0.25209
 C644 C 0.27453 0.03452 0.25699
 C645 C 0.26027 0.05251 0.25341
 C646 C 0.26867 0.07254 0.24493
 C647 C 0.33247 0.11737 0.21744
 C648 C 0.35521 0.11921 0.21245
 C649 C 0.36944 0.10118 0.21595
 C650 C 0.36104 0.08119 0.22450
 C651 C 0.28545 0.11409 0.22746
 C652 C 0.27308 0.12970 0.22436
 C653 C 0.34424 0.03978 0.24217
 C654 C 0.35637 0.02403 0.24531
 H655 H 0.30770 0.02196 0.25516
 H656 H 0.26794 0.01901 0.26361
 H657 H 0.24261 0.05095 0.25724
 H658 H 0.25692 0.08607 0.24245
 H659 H 0.32206 0.13185 0.21442
 H660 H 0.36182 0.13471 0.20581
 H661 H 0.38709 0.10269 0.21202
 H662 H 0.37277 0.06764 0.22693
 C663 C 0.82998 0.55875 0.73820
 C664 C 0.80647 0.55545 0.73832
 C665 C 0.79190 0.57388 0.73481
 C666 C 0.80093 0.59550 0.73120
 C667 C 0.82445 0.59877 0.73105
 C668 C 0.83902 0.58034 0.73456
 C669 C 0.86247 0.58401 0.73434
 C670 C 0.87128 0.60530 0.73075
 C671 C 0.85703 0.62333 0.72732
 C672 C 0.83388 0.62021 0.72745
 C673 C 0.76845 0.57017 0.73500
 C674 C 0.75967 0.54886 0.73857
 C675 C 0.77392 0.53084 0.74201
 C676 C 0.79707 0.53399 0.74190
 C677 C 0.78604 0.61434 0.72765
 C678 C 0.77372 0.63001 0.72469
 C679 C 0.84483 0.53993 0.74185
 C680 C 0.85696 0.52417 0.74490
 H681 H 0.87423 0.57051 0.73692
 H682 H 0.88925 0.60781 0.73063
 H683 H 0.86396 0.63984 0.72454
 H684 H 0.82349 0.63475 0.72470
 H685 H 0.75668 0.58366 0.73241
 H686 H 0.74169 0.54632 0.73867
 H687 H 0.76701 0.51433 0.74480
 H688 H 0.80746 0.51945 0.74465
 C689 C 0.82984 0.44150 0.76159
 C690 C 0.83750 0.42279 0.77388
 C691 C 0.82293 0.40433 0.77759
 C692 C 0.80077 0.40473 0.76904
 C693 C 0.79305 0.42356 0.75694
 C694 C 0.80764 0.44200 0.75321
 C695 C 0.79955 0.46066 0.74110
 C696 C 0.77766 0.46109 0.73292
 C697 C 0.76340 0.44305 0.73657
 C698 C 0.77092 0.42446 0.74842
 C699 C 0.83097 0.38580 0.78991
 C700 C 0.85275 0.38555 0.79838
 C701 C 0.86698 0.40363 0.79480
 C702 C 0.85953 0.42208 0.78269
 C703 C 0.78592 0.38581 0.77269
 C704 C 0.77357 0.37012 0.77571
 C705 C 0.84474 0.46028 0.75764
 C706 C 0.85690 0.47603 0.75436
 H707 H 0.81000 0.47510 0.73783
 H708 H 0.77175 0.47548 0.72370
 H709 H 0.74641 0.44347 0.73019
 H710 H 0.75919 0.41085 0.75083
 H711 H 0.82053 0.37135 0.79315
 H712 H 0.85862 0.37125 0.80779
 H713 H 0.88387 0.40338 0.80145
 H714 H 0.87121 0.43575 0.78036
 C715 C 0.32935 -0.05867 0.26210
 C716 C 0.33807 -0.07917 0.27002
 C717 C 0.32347 -0.09763 0.27361
 C718 C 0.30022 -0.09544 0.26931
 C719 C 0.29149 -0.07488 0.26150
 C720 C 0.30610 -0.05644 0.25788
 C721 C 0.29700 -0.03605 0.25003
 C722 C 0.27412 -0.03396 0.24585
 C723 C 0.25983 -0.05199 0.24941
 C724 C 0.26831 -0.07225 0.25715
 C725 C 0.33258 -0.11800 0.28146
 C726 C 0.35547 -0.12006 0.28566
 C727 C 0.36974 -0.10199 0.28219
 C728 C 0.36123 -0.08174 0.27448
 C729 C 0.28530 -0.11432 0.27288
 C730 C 0.27293 -0.12999 0.27587
 C731 C 0.34425 -0.03987 0.25822
 C732 C 0.35639 -0.02410 0.25496
 H733 H 0.30744 -0.02155 0.24701
 H734 H 0.26746 -0.01828 0.23979
 H735 H 0.24206 -0.05028 0.24614
 H736 H 0.25653 -0.08579 0.25966
 H737 H 0.32215 -0.13252 0.28443
 H738 H 0.36216 -0.13576 0.29163
 H739 H 0.38750 -0.10367 0.28549
 H740 H 0.37300 -0.06816 0.27205
 C741 C 0.17067 -0.05858 0.73840
 C742 C 0.19374 -0.05461 0.73446
 C743 C 0.20848 -0.07292 0.73094
 C744 C 0.20004 -0.09507 0.73131
 C745 C 0.17696 -0.09902 0.73526
 C746 C 0.16224 -0.08071 0.73883
 C747 C 0.13925 -0.08506 0.74278
 C748 C 0.13103 -0.10689 0.74318
 C749 C 0.14543 -0.12479 0.73967
 C750 C 0.16814 -0.12101 0.73575
 C751 C 0.23148 -0.06855 0.72709
 C752 C 0.23968 -0.04672 0.72669
 C753 C 0.22526 -0.02881 0.73009
 C754 C 0.20254 -0.03261 0.73395
 C755 C 0.21506 -0.11378 0.72759
 C756 C 0.22747 -0.12936 0.72447
 C757 C 0.15567 -0.03987 0.74210
 C758 C 0.14348 -0.02415 0.74523
 H759 H 0.12739 -0.07168 0.74560
 H760 H 0.11340 -0.10992 0.74624
 H761 H 0.13897 -0.14172 0.74000
 H762 H 0.17867 -0.13548 0.73312
 H763 H 0.24336 -0.08193 0.72435
 H764 H 0.25733 -0.04368 0.72372
 H765 H 0.23170 -0.01188 0.72970
 H766 H 0.19199 -0.01814 0.73649
 C767 C 0.67037 0.44068 0.23956
 C768 C 0.66153 0.41888 0.23671
 C769 C 0.67625 0.40055 0.23320
 C770 C 0.69972 0.40414 0.23261
 C771 C 0.70855 0.42596 0.23551
 C772 C 0.69383 0.44429 0.23898
 C773 C 0.70304 0.46596 0.24180
 C774 C 0.72613 0.46942 0.24122
 C775 C 0.74053 0.45149 0.23785
 C776 C 0.73194 0.42997 0.23502
 C777 C 0.66702 0.37890 0.23036
 C778 C 0.64391 0.37546 0.23098
 C779 C 0.62953 0.39339 0.23443
 C780 C 0.63814 0.41489 0.23727
 C781 C 0.71474 0.38541 0.22894
 C782 C 0.72714 0.36982 0.22586
 C783 C 0.65538 0.45942 0.24312
 C784 C 0.64319 0.47515 0.24612
 H785 H 0.69253 0.48045 0.24446
 H786 H 0.73289 0.48611 0.24337
 H787 H 0.75846 0.45426 0.23742
 H788 H 0.74382 0.41657 0.23245
 H789 H 0.67752 0.36442 0.22764
 H790 H 0.63714 0.35879 0.22878
 H791 H 0.61159 0.39063 0.23490
 H792 H 0.62628 0.42830 0.23990
 C793 C 0.67044 0.55812 0.26105
 C794 C 0.66247 0.58013 0.25766
 C795 C 0.67708 0.59865 0.26097
 C796 C 0.69960 0.59504 0.26756
 C797 C 0.70762 0.57301 0.27073
 C798 C 0.69299 0.55449 0.26747
 C799 C 0.70138 0.53261 0.27074
 C800 C 0.72359 0.52912 0.27703
 C801 C 0.73791 0.54723 0.28020
 C802 C 0.73011 0.56895 0.27713
 C803 C 0.66871 0.62051 0.25754
 C804 C 0.64657 0.62395 0.25097
 C805 C 0.63230 0.60583 0.24767
 C806 C 0.64006 0.58413 0.25097
 C807 C 0.71448 0.61398 0.27112
 C808 C 0.72677 0.62974 0.27413
 C809 C 0.65550 0.53921 0.25784
 C810 C 0.64330 0.52338 0.25512
 H811 H 0.69090 0.51798 0.26847
 H812 H 0.72973 0.51228 0.27946
 H813 H 0.75516 0.54443 0.28508
 H814 H 0.74188 0.58249 0.27979
 H815 H 0.67917 0.63514 0.25987
 H816 H 0.64045 0.64078 0.24840
 H817 H 0.61512 0.60859 0.24253
 H818 H 0.62833 0.57057 0.24819
 C819 C 0.17111 0.05836 0.76162
 C820 C 0.19434 0.05448 0.76449
 C821 C 0.20920 0.07280 0.76786
 C822 C 0.20072 0.09489 0.76841
 C823 C 0.17748 0.09876 0.76555
 C824 C 0.16263 0.08044 0.76213
 C825 C 0.13948 0.08471 0.75929
 C826 C 0.13121 0.10648 0.75981
 C827 C 0.14572 0.12440 0.76316
 C828 C 0.16860 0.12069 0.76600
 C829 C 0.23236 0.06851 0.77062
 C830 C 0.24060 0.04673 0.77013
 C831 C 0.22607 0.02880 0.76689
 C832 C 0.20319 0.03253 0.76408
 C833 C 0.21585 0.11363 0.77198
 C834 C 0.22830 0.12926 0.77499
 C835 C 0.15600 0.03965 0.75801
 C836 C 0.14369 0.02395 0.75493
 H837 H 0.12753 0.07132 0.75664
 H838 H 0.11346 0.10945 0.75761
 H839 H 0.13922 0.14128 0.76355
 H840 H 0.17921 0.13518 0.76855
 H841 H 0.24432 0.08190 0.77320
 H842 H 0.25836 0.04374 0.77228
 H843 H 0.23255 0.01192 0.76659
 H844 H 0.19256 0.01805 0.76162
 C845 C 0.23877 0.33058 0.05832
 C846 C 0.23711 0.30726 0.05445
 C847 C 0.23351 0.29249 0.07275
 C848 C 0.23162 0.30113 0.09481
 C849 C 0.23328 0.32445 0.09866
 C850 C 0.23686 0.33922 0.08036
 C851 C 0.23847 0.36246 0.08462
 C852 C 0.23659 0.37089 0.10635
 C853 C 0.23309 0.35645 0.12425
 C854 C 0.23144 0.33349 0.12055
 C855 C 0.23188 0.26926 0.06847
 C856 C 0.23381 0.26084 0.04674
 C857 C 0.23739 0.27527 0.02885
 C858 C 0.23902 0.29823 0.03256
 C859 C 0.22804 0.28604 0.11354
 C860 C 0.22508 0.27357 0.12911
 C861 C 0.24248 0.34562 0.03961
 C862 C 0.24557 0.35788 0.02391
 H863 H 0.24119 0.37436 0.07124
 H864 H 0.23787 0.38871 0.10931
 H865 H 0.23165 0.36308 0.14109
 H866 H 0.22871 0.32294 0.13501
 H867 H 0.22911 0.25736 0.08183
 H868 H 0.23255 0.24302 0.04376
 H869 H 0.23895 0.26864 0.01202
 H870 H 0.24180 0.30878 0.01810
 C871 C 0.73835 0.83064 0.55848
 C872 C 0.73705 0.83926 0.58057
 C873 C 0.73364 0.82452 0.59892
 C874 C 0.73153 0.80123 0.59506
 C875 C 0.73281 0.79261 0.57295
 C876 C 0.73625 0.80736 0.55461
 C877 C 0.73755 0.79834 0.53266
 C878 C 0.73550 0.77542 0.52895
 C879 C 0.73208 0.76100 0.54688
 C880 C 0.73074 0.76940 0.56866
 C881 C 0.73243 0.83354 0.62086
 C882 C 0.73454 0.85646 0.62456
 C883 C 0.73788 0.87087 0.60662
 C884 C 0.73913 0.86247 0.58484
 C885 C 0.72808 0.78617 0.61381
 C886 C 0.72523 0.77370 0.62941
 C887 C 0.74190 0.84566 0.53974
 C888 C 0.74490 0.85789 0.52401
 H889 H 0.74018 0.80887 0.51816
 H890 H 0.73659 0.76880 0.51207
 H891 H 0.73048 0.74321 0.54390
 H892 H 0.72808 0.75752 0.58206
 H893 H 0.72985 0.82300 0.63536
 H894 H 0.73358 0.86307 0.64145
 H895 H 0.73951 0.88867 0.60958
 H896 H 0.74175 0.87435 0.57142
 C897 C 0.76087 0.83080 0.44106
 C898 C 0.75115 0.80918 0.44117
 C899 C 0.75476 0.79443 0.42280
 C900 C 0.76803 0.80141 0.40441
 C901 C 0.77777 0.82303 0.40433
 C902 C 0.77419 0.83776 0.42272
 C903 C 0.78414 0.85927 0.42229
 C904 C 0.79723 0.86604 0.40419
 C905 C 0.80072 0.85165 0.38619
 C906 C 0.79114 0.83037 0.38617
 C907 C 0.74490 0.77288 0.42331
 C908 C 0.73182 0.76611 0.44143
 C909 C 0.72826 0.78055 0.45937
 C910 C 0.73778 0.80184 0.45935
 C911 C 0.77163 0.78639 0.38559
 C912 C 0.77462 0.77393 0.36996
 C913 C 0.75724 0.84578 0.45988
 C914 C 0.75418 0.85798 0.47569
 H915 H 0.78191 0.87106 0.43591
 H916 H 0.80472 0.88255 0.40413
 H917 H 0.81090 0.85699 0.37217
 H918 H 0.79435 0.81978 0.37179
 H919 H 0.74719 0.76105 0.40974
 H920 H 0.72440 0.74958 0.44153
 H921 H 0.71803 0.77523 0.47337
 H922 H 0.73452 0.81246 0.47370
 C923 C 0.26188 0.33092 -0.05907
 C924 C 0.25245 0.30917 -0.05890
 C925 C 0.25615 0.29446 -0.07729
 C926 C 0.26922 0.30161 -0.09575
 C927 C 0.27867 0.32336 -0.09590
 C928 C 0.27500 0.33805 -0.07749
 C929 C 0.28464 0.35969 -0.07799
 C930 C 0.29754 0.36663 -0.09617
 C931 C 0.30111 0.35228 -0.11418
 C932 C 0.29182 0.33088 -0.11414
 C933 C 0.24659 0.27279 -0.07672
 C934 C 0.23371 0.26585 -0.05852
 C935 C 0.23005 0.28024 -0.04056
 C936 C 0.23929 0.30166 -0.04064
 C937 C 0.27293 0.28661 -0.11458
 C938 C 0.27597 0.27414 -0.13020
 C939 C 0.25816 0.34586 -0.04022
 C940 C 0.25503 0.35801 -0.02440
 H941 H 0.28234 0.37145 -0.06436
 H942 H 0.30479 0.38324 -0.09628
 H943 H 0.31113 0.35776 -0.12827
 H944 H 0.29509 0.32032 -0.12853
 H945 H 0.24895 0.26099 -0.09029
 H946 H 0.22651 0.24922 -0.05836
 H947 H 0.21998 0.27480 -0.02650
 H948 H 0.23598 0.31224 -0.02627
 C949 C 0.73877 0.16878 -0.05888
 C950 C 0.73746 0.16009 -0.08096
 C951 C 0.73399 0.17478 -0.09934
 C952 C 0.73186 0.19806 -0.09554
 C953 C 0.73314 0.20674 -0.07344
 C954 C 0.73663 0.19205 -0.05506
 C955 C 0.73793 0.20112 -0.03313
 C956 C 0.73584 0.22404 -0.02947
 C957 C 0.73238 0.23839 -0.04744
 C958 C 0.73103 0.22993 -0.06920
 C959 C 0.73276 0.16570 -0.12126
 C960 C 0.73489 0.14278 -0.12491
 C961 C 0.73828 0.12843 -0.10693
 C962 C 0.73956 0.13689 -0.08517
 C963 C 0.72838 0.21307 -0.11433
 C964 C 0.72550 0.22554 -0.12992
 C965 C 0.74236 0.15382 -0.04010
 C966 C 0.74538 0.14166 -0.02431
 H967 H 0.74060 0.19064 -0.01861
 H968 H 0.73693 0.23070 -0.01261
 H969 H 0.73074 0.25618 -0.04450
 H970 H 0.72834 0.24177 -0.08263
 H971 H 0.73014 0.17619 -0.13579
 H972 H 0.73391 0.13613 -0.14179
 H973 H 0.73993 0.11064 -0.10986
 H974 H 0.74221 0.12506 -0.07173
 C975 C 0.23946 0.66970 0.44118
 C976 C 0.23441 0.66105 0.41963
 C977 C 0.23086 0.67587 0.40138
 C978 C 0.23239 0.69927 0.40479
 C979 C 0.23741 0.70793 0.42636
 C980 C 0.24099 0.69310 0.44460
 C981 C 0.24607 0.70214 0.46599
 C982 C 0.24755 0.72517 0.46927
 C983 C 0.24398 0.73967 0.45145
 C984 C 0.23897 0.73125 0.43020
 C985 C 0.22582 0.66682 0.38000
 C986 C 0.22434 0.64379 0.37674
 C987 C 0.22781 0.62929 0.39458
 C988 C 0.23279 0.63773 0.41582
 C989 C 0.22886 0.71440 0.38611
 C990 C 0.22591 0.72688 0.37054
 C991 C 0.24301 0.65460 0.45986
 C992 C 0.24597 0.64235 0.47558
 H993 H 0.24899 0.69154 0.48038
 H994 H 0.25151 0.73179 0.48572
 H995 H 0.24512 0.75755 0.45409
 H996 H 0.23635 0.74320 0.41686
 H997 H 0.22297 0.67742 0.36559
 H998 H 0.22046 0.63715 0.36027
 H999 H 0.22664 0.61141 0.39196
 H1000 H 0.23536 0.62579 0.42918
 C1001 C 0.26123 0.66989 0.55852
 C1002 C 0.27217 0.66228 0.57813
 C1003 C 0.27554 0.67712 0.59649
 C1004 C 0.26795 0.69950 0.59511
 C1005 C 0.25702 0.70712 0.57547
 C1006 C 0.25363 0.69226 0.55713
 C1007 C 0.24261 0.70023 0.53769
 C1008 C 0.23517 0.72226 0.53641
 C1009 C 0.23853 0.73680 0.55433
 C1010 C 0.24932 0.72941 0.57368
 C1011 C 0.28651 0.66913 0.61593
 C1012 C 0.29396 0.64710 0.61719
 C1013 C 0.29068 0.63259 0.59923
 C1014 C 0.27992 0.64000 0.57988
 C1015 C 0.27141 0.71467 0.61387
 C1016 C 0.27431 0.72722 0.62946
 C1017 C 0.25784 0.65479 0.53972
 C1018 C 0.25497 0.64249 0.52394
 H1019 H 0.23959 0.68956 0.52331
 H1020 H 0.22672 0.72806 0.52145
 H1021 H 0.23273 0.75390 0.55325
 H1022 H 0.25153 0.74134 0.58718
 H1023 H 0.28946 0.67978 0.63034
 H1024 H 0.30232 0.64126 0.63219
 H1025 H 0.29650 0.61549 0.60029
 H1026 H 0.27776 0.62809 0.56634
 C1027 C 0.76117 0.16909 0.05870
 C1028 C 0.77441 0.16217 0.07713
 C1029 C 0.77798 0.17692 0.09552
 C1030 C 0.76833 0.19853 0.09537
 C1031 C 0.75513 0.20547 0.07691
 C1032 C 0.75152 0.19070 0.05853
 C1033 C 0.73823 0.19800 0.04027
 C1034 C 0.72878 0.21928 0.04019
 C1035 C 0.73234 0.23374 0.05814
 C1036 C 0.74535 0.22700 0.07633
 C1037 C 0.79127 0.16961 0.11376
 C1038 C 0.80077 0.14834 0.11381
 C1039 C 0.79728 0.13393 0.09581
 C1040 C 0.78427 0.14067 0.07763
 C1041 C 0.77196 0.21359 0.11418
 C1042 C 0.77497 0.22607 0.12982
 C1043 C 0.75757 0.15409 0.03987
 C1044 C 0.75455 0.14185 0.02407
 H1045 H 0.73498 0.18737 0.02592
 H1046 H 0.71861 0.22457 0.02613
 H1047 H 0.72498 0.25026 0.05798
 H1048 H 0.74763 0.23884 0.08990
 H1049 H 0.79447 0.18022 0.12815
 H1050 H 0.81089 0.14302 0.12789
 H1051 H 0.80470 0.11743 0.09592
 H1052 H 0.78204 0.12886 0.06402
 C1053 C 0.48859 0.30881 0.58145
 C1054 C 0.49438 0.30710 0.55849
 C1055 C 0.49061 0.32547 0.54390
 C1056 C 0.48105 0.34544 0.55237
 C1057 C 0.47512 0.34708 0.57531
 C1058 C 0.47890 0.32870 0.58989
 C1059 C 0.47278 0.33070 0.61275
 C1060 C 0.46321 0.35031 0.62096
 C1061 C 0.45954 0.36829 0.60670
 C1062 C 0.46541 0.36679 0.58413
 C1063 C 0.49653 0.32336 0.52101
 C1064 C 0.50584 0.30365 0.51275
 C1065 C 0.50949 0.28567 0.52701
 C1066 C 0.50388 0.28728 0.54963
 C1067 C 0.47738 0.36426 0.53748
 C1068 C 0.47446 0.37983 0.52503
 C1069 C 0.49253 0.29007 0.59632
 C1070 C 0.49578 0.27433 0.60844
 H1071 H 0.47530 0.31716 0.62448
 H1072 H 0.45860 0.35154 0.63848
 H1073 H 0.45210 0.38348 0.61317
 H1074 H 0.46221 0.38122 0.57370
 H1075 H 0.49400 0.33688 0.50925
 H1076 H 0.51023 0.30231 0.49519
 H1077 H 0.51670 0.27038 0.52050
 H1078 H 0.50705 0.27284 0.56005
 C1079 C -0.01127 0.80887 0.08021
 C1080 C -0.00608 0.80681 0.05713
 C1081 C -0.00974 0.82514 0.04246
 C1082 C -0.01855 0.84543 0.05098
 C1083 C -0.02382 0.84744 0.07405
 C1084 C -0.02017 0.82910 0.08871
 C1085 C -0.02559 0.83148 0.11170
 C1086 C -0.03437 0.85143 0.11998
 C1087 C -0.03791 0.86938 0.10565
 C1088 C -0.03273 0.86750 0.08294
 C1089 C -0.00444 0.82268 0.01945
 C1090 C 0.00422 0.80267 0.01117
 C1091 C 0.00782 0.78476 0.02552
 C1092 C 0.00276 0.78670 0.04825
 C1093 C -0.02212 0.86422 0.03602
 C1094 C -0.02501 0.87982 0.02359
 C1095 C -0.00750 0.79013 0.09515
 C1096 C -0.00437 0.77442 0.10733
 H1097 H -0.02314 0.81798 0.12350
 H1098 H -0.03843 0.85296 0.13761
 H1099 H -0.04473 0.88484 0.11217
 H1100 H -0.03580 0.88192 0.07246
 H1101 H -0.00695 0.83614 0.00763
 H1102 H 0.00818 0.80108 -0.00647
 H1103 H 0.01460 0.76927 0.01902
 H1104 H 0.00586 0.77229 0.05874
 C1105 C 0.01238 0.69173 0.08028
 C1106 C 0.02028 0.67123 0.08904
 C1107 C 0.02398 0.65278 0.07444
 C1108 C 0.01979 0.65496 0.05116
 C1109 C 0.01206 0.67554 0.04238
 C1110 C 0.00833 0.69397 0.05699
 C1111 C 0.00057 0.71437 0.04784
 C1112 C -0.00337 0.71650 0.02491
 C1113 C 0.00031 0.69848 0.01061
 C1114 C 0.00792 0.67820 0.01915
 C1115 C 0.03187 0.63245 0.08359
 C1116 C 0.03601 0.63041 0.10650
 C1117 C 0.03241 0.64847 0.12077
 C1118 C 0.02463 0.66868 0.11224
 C1119 C 0.02327 0.63603 0.03627
 C1120 C 0.02604 0.62031 0.02389
 C1121 C 0.00844 0.71053 0.09517
 C1122 C 0.00517 0.72629 0.10733
 H1123 H -0.00254 0.72886 0.05827
 H1124 H -0.00932 0.73220 0.01820
 H1125 H -0.00276 0.70023 -0.00719
 H1126 H 0.01054 0.66467 0.00736
 H1127 H 0.03494 0.61794 0.07316
 H1128 H 0.04205 0.61474 0.11322
 H1129 H 0.03567 0.64681 0.13856
 H1130 H 0.02209 0.68225 0.12400
 C1131 C 0.51136 0.19120 0.58157
 C1132 C 0.50487 0.16954 0.58858
 C1133 C 0.50831 0.15090 0.57416
 C1134 C 0.51815 0.15406 0.55279
 C1135 C 0.52456 0.17576 0.54576
 C1136 C 0.52115 0.19438 0.56020
 C1137 C 0.52767 0.21592 0.55281
 C1138 C 0.53732 0.21896 0.53176
 C1139 C 0.54065 0.20075 0.51763
 C1140 C 0.53438 0.17936 0.52446
 C1141 C 0.50173 0.12939 0.58155
 C1142 C 0.49198 0.12640 0.60257
 C1143 C 0.48855 0.14464 0.61664
 C1144 C 0.49490 0.16600 0.60982
 C1145 C 0.52158 0.13506 0.53798
 C1146 C 0.52440 0.11939 0.52555
 C1147 C 0.50792 0.21022 0.59630
 C1148 C 0.50505 0.22612 0.60837
 H1149 H 0.52541 0.23061 0.56318
 H1150 H 0.54225 0.23553 0.52639
 H1151 H 0.54815 0.20319 0.50129
 H1152 H 0.53731 0.16573 0.51287
 H1153 H 0.50403 0.11470 0.57119
 H1154 H 0.48704 0.10984 0.60795
 H1155 H 0.48095 0.14224 0.63294
 H1156 H 0.49189 0.17967 0.62136
 C1157 C -0.01182 0.19045 0.41855
 C1158 C -0.02958 0.19091 0.43427
 C1159 C -0.03300 0.17248 0.44889
 C1160 C -0.01864 0.15369 0.44769
 C1161 C -0.00098 0.15317 0.43184
 C1162 C 0.00243 0.17161 0.41721
 C1163 C 0.02019 0.17070 0.40150
 C1164 C 0.03416 0.15211 0.40028
 C1165 C 0.03084 0.13410 0.41459
 C1166 C 0.01351 0.13453 0.43022
 C1167 C -0.05085 0.17333 0.46449
 C1168 C -0.06493 0.19186 0.46560
 C1169 C -0.06159 0.20988 0.45131
 C1170 C -0.04414 0.20951 0.43580
 C1171 C -0.02198 0.13497 0.46280
 C1172 C -0.02474 0.11947 0.47539
 C1173 C -0.00809 0.20946 0.40392
 C1174 C -0.00498 0.22536 0.39195
 H1175 H 0.02344 0.18430 0.39001
 H1176 H 0.04763 0.15166 0.38815
 H1177 H 0.04176 0.11970 0.41357
 H1178 H 0.01159 0.12012 0.44098
 H1179 H -0.05414 0.15972 0.47595
 H1180 H -0.07851 0.19223 0.47763
 H1181 H -0.07257 0.22423 0.45224
 H1182 H -0.04223 0.22393 0.42503
 C1183 C 0.48885 0.69098 0.91915
 C1184 C 0.49501 0.69304 0.94201
 C1185 C 0.49150 0.67484 0.95689
 C1186 C 0.48184 0.65471 0.94882
 C1187 C 0.47569 0.65267 0.92595
 C1188 C 0.47922 0.67086 0.91107
 C1189 C 0.47294 0.66845 0.88829
 C1190 C 0.46344 0.64862 0.88043
 C1191 C 0.45998 0.63082 0.89497
 C1192 C 0.46601 0.63273 0.91749
 C1193 C 0.49778 0.67730 0.97967
 C1194 C 0.50725 0.69716 0.98752
 C1195 C 0.51068 0.71496 0.97297
 C1196 C 0.50467 0.71302 0.95046
 C1197 C 0.47824 0.63611 0.96402
 C1198 C 0.47528 0.62067 0.97663
 C1199 C 0.49233 0.70963 0.90404
 C1200 C 0.49528 0.72533 0.89180
 H1201 H 0.47530 0.68183 0.87633
 H1202 H 0.45872 0.64706 0.86295
 H1203 H 0.45258 0.61545 0.88879
 H1204 H 0.46298 0.61842 0.92816
 H1205 H 0.49544 0.66393 0.99165
 H1206 H 0.51194 0.69875 1.00500
 H1207 H 0.51802 0.73036 0.97914
 H1208 H 0.50767 0.72733 0.93979
 C1209 C 0.51032 0.80816 0.91928
 C1210 C 0.50196 0.82949 0.91343
 C1211 C 0.50549 0.84799 0.92802
 C1212 C 0.51733 0.84503 0.94841
 C1213 C 0.52547 0.82362 0.95437
 C1214 C 0.52193 0.80512 0.93977
 C1215 C 0.53011 0.78385 0.94613
 C1216 C 0.54151 0.78096 0.96632
 C1217 C 0.54504 0.79906 0.98057
 C1218 C 0.53716 0.82019 0.97475
 C1219 C 0.49698 0.86916 0.92181
 C1220 C 0.48525 0.87195 0.90178
 C1221 C 0.48176 0.85384 0.88753
 C1222 C 0.48999 0.83281 0.89319
 C1223 C 0.52100 0.86394 0.96331
 C1224 C 0.52402 0.87959 0.97575
 C1225 C 0.50697 0.78932 0.90429
 C1226 C 0.50418 0.77353 0.89203
 H1227 H 0.52777 0.76925 0.93563
 H1228 H 0.54764 0.76458 0.97093
 H1229 H 0.55392 0.79673 0.99623
 H1230 H 0.54029 0.83374 0.98640
 H1231 H 0.49925 0.88375 0.93235
 H1232 H 0.47883 0.88825 0.89730
 H1233 H 0.47261 0.85607 0.87201
 H1234 H 0.48683 0.81923 0.88158
 C1235 C 0.01162 0.30891 0.41824
 C1236 C 0.02812 0.30775 0.43528
 C1237 C 0.03171 0.32634 0.44976
 C1238 C 0.01876 0.34597 0.44712
 C1239 C 0.00236 0.34718 0.42998
 C1240 C -0.00122 0.32859 0.41548
 C1241 C -0.01770 0.33019 0.39846
 C1242 C -0.03028 0.34961 0.39583
 C1243 C -0.02680 0.36777 0.41002
 C1244 C -0.01070 0.36666 0.42693
 C1245 C 0.04830 0.32478 0.46668
 C1246 C 0.06098 0.30541 0.46921
 C1247 C 0.05747 0.28723 0.45506
 C1248 C 0.04125 0.28829 0.43826
 C1249 C 0.02220 0.36483 0.46213
 C1250 C 0.02502 0.38043 0.47468
 C1251 C 0.00772 0.28978 0.40371
 C1252 C 0.00452 0.27377 0.39183
 H1253 H -0.02101 0.31651 0.38701
 H1254 H -0.04277 0.35059 0.38270
 H1255 H -0.03663 0.38282 0.40790
 H1256 H -0.00861 0.38123 0.43753
 H1257 H 0.05165 0.33847 0.47810
 H1258 H 0.07360 0.30451 0.48224
 H1259 H 0.06737 0.27223 0.45709
 H1260 H 0.03916 0.27372 0.42766
 C1261 C 0.30912 0.57965 0.48910
 C1262 C 0.33020 0.58823 0.48240
 C1263 C 0.34853 0.57346 0.47904
 C1264 C 0.34566 0.55019 0.48238
 C1265 C 0.32456 0.54161 0.48909
 C1266 C 0.30624 0.55639 0.49247
 C1267 C 0.28532 0.54744 0.49922
 C1268 C 0.28258 0.52454 0.50252
 C1269 C 0.30048 0.51009 0.49917
 C1270 C 0.32127 0.51843 0.49254
 C1271 C 0.36945 0.58243 0.47236
 C1272 C 0.37218 0.60534 0.46908
 C1273 C 0.35425 0.61978 0.47235
 C1274 C 0.33346 0.61142 0.47893
 C1275 C 0.36439 0.53510 0.47889
 C1276 C 0.37998 0.52267 0.47594
 C1277 C 0.29037 0.59470 0.49248
 C1278 C 0.27463 0.60694 0.49533
 H1279 H 0.27090 0.55801 0.50204
 H1280 H 0.26648 0.51799 0.50773
 H1281 H 0.29826 0.49231 0.50175
 H1282 H 0.33469 0.50652 0.49017
 H1283 H 0.38390 0.57188 0.46960
 H1284 H 0.38830 0.61192 0.46396
 H1285 H 0.35646 0.63756 0.46977
 H1286 H 0.32002 0.62331 0.48127
 C1287 C 0.80874 0.07921 -0.01093
 C1288 C 0.80502 0.05585 -0.01220
 C1289 C 0.82340 0.04114 -0.01555
 C1290 C 0.84538 0.04989 -0.01768
 C1291 C 0.84908 0.07326 -0.01640
 C1292 C 0.83070 0.08796 -0.01300
 C1293 C 0.83481 0.11125 -0.01174
 C1294 C 0.85647 0.11978 -0.01382
 C1295 C 0.87443 0.10541 -0.01717
 C1296 C 0.87088 0.08240 -0.01846
 C1297 C 0.81928 0.01785 -0.01671
 C1298 C 0.79761 0.00933 -0.01467
 C1299 C 0.77963 0.02372 -0.01146
 C1300 C 0.78319 0.04672 -0.01020
 C1301 C 0.86415 0.03489 -0.02131
 C1302 C 0.87978 0.02252 -0.02439
 C1303 C 0.78995 0.09419 -0.00749
 C1304 C 0.77416 0.10637 -0.00459
 H1305 H 0.82137 0.12310 -0.00916
 H1306 H 0.85931 0.13764 -0.01282
 H1307 H 0.89122 0.11212 -0.01877
 H1308 H 0.88540 0.07190 -0.02108
 H1309 H 0.83272 0.00598 -0.01920
 H1310 H 0.79476 -0.00853 -0.01561
 H1311 H 0.76283 0.01703 -0.00996
 H1312 H 0.76867 0.05723 -0.00770
 C1313 C 0.69125 0.07897 0.01095
 C1314 C 0.66903 0.08695 0.00880
 C1315 C 0.65065 0.07221 0.01231
 C1316 C 0.65460 0.04955 0.01791
 C1317 C 0.67683 0.04155 0.01996
 C1318 C 0.69521 0.05631 0.01650
 C1319 C 0.71728 0.04794 0.01870
 C1320 C 0.72109 0.02563 0.02416
 C1321 C 0.70312 0.01119 0.02748
 C1322 C 0.68121 0.01896 0.02544
 C1323 C 0.62859 0.08059 0.01009
 C1324 C 0.62480 0.10288 0.00454
 C1325 C 0.64278 0.11728 0.00108
 C1326 C 0.66468 0.10951 0.00317
 C1327 C 0.63580 0.03453 0.02162
 C1328 C 0.62016 0.02211 0.02474
 C1329 C 0.71004 0.09400 0.00739
 C1330 C 0.72581 0.10625 0.00443
 H1331 H 0.73181 0.05853 0.01628
 H1332 H 0.73807 0.01953 0.02583
 H1333 H 0.70617 -0.00613 0.03170
 H1334 H 0.66779 0.00709 0.02820
 H1335 H 0.61406 0.07003 0.01261
 H1336 H 0.60782 0.10901 0.00290
 H1337 H 0.63975 0.13458 -0.00324
 H1338 H 0.67811 0.12135 0.00032
 C1339 C 0.19166 0.57976 0.51088
 C1340 C 0.19350 0.55691 0.50491
 C1341 C 0.17511 0.54219 0.50846
 C1342 C 0.15498 0.55042 0.51792
 C1343 C 0.15317 0.57327 0.52392
 C1344 C 0.17157 0.58798 0.52040
 C1345 C 0.16938 0.61075 0.52655
 C1346 C 0.14956 0.61875 0.53592
 C1347 C 0.13156 0.60437 0.53936
 C1348 C 0.13325 0.58188 0.53346
 C1349 C 0.17737 0.51940 0.50241
 C1350 C 0.19721 0.51140 0.49309
 C1351 C 0.21518 0.52580 0.48958
 C1352 C 0.21345 0.54831 0.49540
 C1353 C 0.13614 0.53542 0.52145
 C1354 C 0.12044 0.52304 0.52440
 C1355 C 0.21048 0.59475 0.50730
 C1356 C 0.22627 0.60695 0.50430
 H1357 H 0.18292 0.62258 0.52421
 H1358 H 0.14817 0.63621 0.54054
 H1359 H 0.11621 0.61068 0.54665
 H1360 H 0.11879 0.57135 0.53648
 H1361 H 0.16385 0.50755 0.50480
 H1362 H 0.19864 0.49392 0.48855
 H1363 H 0.23054 0.51951 0.48228
 H1364 H 0.22788 0.55885 0.49233
 C1365 C 0.19147 0.42037 -0.01136
 C1366 C 0.16927 0.41210 -0.00985
 C1367 C 0.15086 0.42676 -0.01324
 C1368 C 0.15477 0.44961 -0.01809
 C1369 C 0.17698 0.45788 -0.01956
 C1370 C 0.19539 0.44321 -0.01621
 C1371 C 0.21745 0.45185 -0.01783
 C1372 C 0.22121 0.47434 -0.02260
 C1373 C 0.20321 0.48869 -0.02582
 C1374 C 0.18132 0.48065 -0.02434
 C1375 C 0.12882 0.41810 -0.01167
 C1376 C 0.12507 0.39561 -0.00686
 C1377 C 0.14307 0.38128 -0.00353
 C1378 C 0.16496 0.38934 -0.00500
 C1379 C 0.13594 0.46457 -0.02160
 C1380 C 0.12026 0.47690 -0.02455
 C1381 C 0.21029 0.40545 -0.00780
 C1382 C 0.22607 0.39330 -0.00481
 H1383 H 0.23199 0.44134 -0.01547
 H1384 H 0.23818 0.48065 -0.02383
 H1385 H 0.20623 0.50616 -0.02950
 H1386 H 0.16787 0.49247 -0.02699
 H1387 H 0.11427 0.42858 -0.01412
 H1388 H 0.10810 0.38927 -0.00571
 H1389 H 0.14007 0.36383 0.00020
 H1390 H 0.17841 0.37755 -0.00228
 C1391 C 0.69085 0.92053 0.48886
 C1392 C 0.69487 0.94326 0.48357
 C1393 C 0.67652 0.95800 0.48021
 C1394 C 0.65428 0.94992 0.48211
 C1395 C 0.65027 0.92718 0.48738
 C1396 C 0.66862 0.91245 0.49079
 C1397 C 0.66421 0.88981 0.49610
 C1398 C 0.64230 0.88193 0.49796
 C1399 C 0.62435 0.89632 0.49460
 C1400 C 0.62819 0.91870 0.48937
 C1401 C 0.68096 0.98066 0.47499
 C1402 C 0.70289 0.98851 0.47309
 C1403 C 0.72082 0.97408 0.47631
 C1404 C 0.71696 0.95170 0.48152
 C1405 C 0.63552 0.96494 0.47855
 C1406 C 0.61991 0.97736 0.47555
 C1407 C 0.70960 0.90553 0.49239
 C1408 C 0.72535 0.89333 0.49535
 H1409 H 0.67762 0.87797 0.49886
 H1410 H 0.63923 0.86456 0.50203
 H1411 H 0.60736 0.89011 0.49605
 H1412 H 0.61369 0.92924 0.48691
 H1413 H 0.66756 0.99253 0.47232
 H1414 H 0.70597 1.00589 0.46906
 H1415 H 0.73782 0.98025 0.47475
 H1416 H 0.73147 0.94113 0.48387
 C1417 C 0.80823 0.92069 0.51128
 C1418 C 0.80453 0.94403 0.51276
 C1419 C 0.82293 0.95878 0.51623
 C1420 C 0.84490 0.95010 0.51828
 C1421 C 0.84858 0.92676 0.51681
 C1422 C 0.83019 0.91201 0.51327
 C1423 C 0.83427 0.88875 0.51182
 C1424 C 0.85592 0.88029 0.51382
 C1425 C 0.87391 0.89470 0.51729
 C1426 C 0.87039 0.91769 0.51878
 C1427 C 0.81883 0.98205 0.51759
 C1428 C 0.79716 0.99049 0.51563
 C1429 C 0.77916 0.97606 0.51231
 C1430 C 0.78270 0.95308 0.51086
 C1431 C 0.86370 0.96515 0.52195
 C1432 C 0.87935 0.97757 0.52502
 C1433 C 0.78943 0.90567 0.50766
 C1434 C 0.77366 0.89343 0.50461
 H1435 H 0.82082 0.87687 0.50914
 H1436 H 0.85875 0.86245 0.51267
 H1437 H 0.89070 0.88805 0.51884
 H1438 H 0.88492 0.92822 0.52149
 H1439 H 0.83228 0.99395 0.52018
 H1440 H 0.79432 1.00833 0.51673
 H1441 H 0.76236 0.98270 0.51087
 H1442 H 0.76816 0.94254 0.50826
 C1443 C 0.30893 0.42081 0.01116
 C1444 C 0.30515 0.44411 0.01306
 C1445 C 0.32353 0.45889 0.01654
 C1446 C 0.34557 0.45029 0.01817
 C1447 C 0.34934 0.42699 0.01623
 C1448 C 0.33096 0.41221 0.01270
 C1449 C 0.33514 0.38900 0.01078
 C1450 C 0.35686 0.38061 0.01231
 C1451 C 0.37482 0.39505 0.01580
 C1452 C 0.37121 0.41799 0.01775
 C1453 C 0.31934 0.48211 0.01834
 C1454 C 0.29761 0.49048 0.01678
 C1455 C 0.27964 0.47602 0.01342
 C1456 C 0.28327 0.45309 0.01155
 C1457 C 0.36434 0.46536 0.02188
 C1458 C 0.37997 0.47781 0.02500
 C1459 C 0.29015 0.40575 0.00758
 C1460 C 0.27439 0.39348 0.00456
 H1461 H 0.32170 0.37710 0.00806
 H1462 H 0.35976 0.36281 0.01080
 H1463 H 0.39166 0.38846 0.01698
 H1464 H 0.38572 0.42854 0.02044
 H1465 H 0.33277 0.49403 0.02097
 H1466 H 0.29471 0.50829 0.01820
 H1467 H 0.26279 0.48261 0.01228
 H1468 H 0.26874 0.44252 0.00895
 C1469 C 0.58153 0.48775 0.31022
 C1470 C 0.57172 0.46644 0.31354
 C1471 C 0.55703 0.46288 0.33195
 C1472 C 0.55226 0.48065 0.34693
 C1473 C 0.56222 0.50191 0.34371
 C1474 C 0.57691 0.50547 0.32530
 C1475 C 0.58667 0.52687 0.32240
 C1476 C 0.58204 0.54426 0.33727
 C1477 C 0.56767 0.54079 0.35527
 C1478 C 0.55782 0.51990 0.35853
 C1479 C 0.54739 0.44144 0.33490
 C1480 C 0.55214 0.42401 0.32010
 C1481 C 0.56651 0.42750 0.30210
 C1482 C 0.57623 0.44843 0.29877
 C1483 C 0.53705 0.47709 0.36559
 C1484 C 0.52440 0.47415 0.38107
 C1485 C 0.59610 0.49152 0.29112
 C1486 C 0.60800 0.49464 0.27512
 H1487 H 0.59797 0.53038 0.30866
 H1488 H 0.58966 0.56052 0.33482
 H1489 H 0.56413 0.55436 0.36678
 H1490 H 0.54676 0.51802 0.37277
 H1491 H 0.53612 0.43790 0.34866
 H1492 H 0.54462 0.40772 0.32261
 H1493 H 0.57015 0.41391 0.29065
 H1494 H 0.58732 0.45031 0.28454
 C1495 C 0.08057 -0.01180 0.80849
 C1496 C 0.08851 -0.02201 0.82835
 C1497 C 0.07365 -0.02561 0.84662
 C1498 C 0.05093 -0.01902 0.84489
 C1499 C 0.04297 -0.00891 0.82497
 C1500 C 0.05784 -0.00527 0.80672
 C1501 C 0.04950 0.00491 0.78699
 C1502 C 0.02712 0.01128 0.78533
 C1503 C 0.01257 0.00768 0.80315
 C1504 C 0.02031 -0.00228 0.82279
 C1505 C 0.08199 -0.03583 0.86631
 C1506 C 0.10435 -0.04233 0.86790
 C1507 C 0.11887 -0.03882 0.85003
 C1508 C 0.11113 -0.02878 0.83044
 C1509 C 0.03579 -0.02259 0.86360
 C1510 C 0.02328 -0.02556 0.87918
 C1511 C 0.09571 -0.00806 0.78983
 C1512 C 0.10801 -0.00490 0.77415
 H1513 H 0.06017 0.00807 0.77267
 H1514 H 0.02104 0.01908 0.77013
 H1515 H -0.00482 0.01264 0.80177
 H1516 H 0.00835 -0.00473 0.83620
 H1517 H 0.07134 -0.03893 0.88066
 H1518 H 0.11044 -0.05013 0.88309
 H1519 H 0.13622 -0.04391 0.85135
 H1520 H 0.12306 -0.02640 0.81699
 C1521 C 0.08075 0.01196 0.69153
 C1522 C 0.08942 0.01870 0.67051
 C1523 C 0.07463 0.02242 0.65220
 C1524 C 0.05125 0.01941 0.65504
 C1525 C 0.04257 0.01277 0.67610
 C1526 C 0.05737 0.00901 0.69440
 C1527 C 0.04832 0.00231 0.71528
 C1528 C 0.02531 -0.00056 0.71802
 C1529 C 0.01083 0.00316 0.70014
 C1530 C 0.01927 0.00974 0.67938
 C1531 C 0.08369 0.02912 0.63134
 C1532 C 0.10671 0.03208 0.62865
 C1533 C 0.12117 0.02845 0.64656
 C1534 C 0.11272 0.02183 0.66729
 C1535 C 0.03615 0.02308 0.63629
 C1536 C 0.02363 0.02607 0.62070
 C1537 C 0.09582 0.00809 0.71023
 C1538 C 0.10807 0.00484 0.72595
 H1539 H 0.05890 -0.00079 0.72969
 H1540 H 0.01867 -0.00573 0.73408
 H1541 H -0.00704 0.00092 0.70235
 H1542 H 0.00733 0.01242 0.66598
 H1543 H 0.07312 0.03216 0.61691
 H1544 H 0.11336 0.03722 0.61257
 H1545 H 0.13904 0.03078 0.64439
 H1546 H 0.12463 0.01921 0.68073
 C1547 C 0.58121 0.51086 0.19156
 C1548 C 0.58065 0.53218 0.18131
 C1549 C 0.56611 0.53604 0.16281
 C1550 C 0.55221 0.51856 0.15472
 C1551 C 0.55284 0.49722 0.16493
 C1552 C 0.56740 0.49336 0.18340
 C1553 C 0.56773 0.47190 0.19336
 C1554 C 0.55406 0.45474 0.18530
 C1555 C 0.53982 0.45851 0.16725
 C1556 C 0.53914 0.47947 0.15711
 C1557 C 0.56583 0.55749 0.15284
 C1558 C 0.57950 0.57465 0.16093
 C1559 C 0.59369 0.57088 0.17903
 C1560 C 0.59433 0.54992 0.18917
 C1561 C 0.53716 0.52254 0.13599
 C1562 C 0.52460 0.52574 0.12049
 C1563 C 0.59580 0.50701 0.21063
 C1564 C 0.60778 0.50384 0.22657
 H1565 H 0.57853 0.46814 0.20744
 H1566 H 0.55452 0.43843 0.19312
 H1567 H 0.52922 0.44513 0.16105
 H1568 H 0.52779 0.48158 0.14311
 H1569 H 0.55508 0.56123 0.13872
 H1570 H 0.57908 0.59095 0.15310
 H1571 H 0.60427 0.58426 0.18526
 H1572 H 0.60566 0.54781 0.20319
 C1573 C 0.41805 -0.01122 0.19053
 C1574 C 0.42846 0.00731 0.18007
 C1575 C 0.44304 0.00388 0.16154
 C1576 C 0.44709 -0.01806 0.15357
 C1577 C 0.43653 -0.03658 0.16393
 C1578 C 0.42197 -0.03315 0.18247
 C1579 C 0.41164 -0.05192 0.19258
 C1580 C 0.41557 -0.07347 0.18458
 C1581 C 0.42980 -0.07683 0.16645
 C1582 C 0.44021 -0.05866 0.15617
 C1583 C 0.45330 0.02267 0.15140
 C1584 C 0.44925 0.04423 0.15931
 C1585 C 0.43497 0.04758 0.17741
 C1586 C 0.42465 0.02940 0.18774
 C1587 C 0.46218 -0.02159 0.13480
 C1588 C 0.47474 -0.02456 0.11925
 C1589 C 0.40353 -0.00773 0.20973
 C1590 C 0.39165 -0.00474 0.22577
 H1591 H 0.40042 -0.05015 0.20672
 H1592 H 0.40752 -0.08763 0.19250
 H1593 H 0.43279 -0.09360 0.16029
 H1594 H 0.45113 -0.06213 0.14212
 H1595 H 0.46454 0.02091 0.13727
 H1596 H 0.45723 0.05840 0.15135
 H1597 H 0.43186 0.06436 0.18349
 H1598 H 0.41367 0.03287 0.20175
 C1599 C 0.91864 0.48900 0.68999
 C1600 C 0.93130 0.50707 0.68133
 C1601 C 0.94588 0.50358 0.66281
 C1602 C 0.94769 0.48206 0.65305
 C1603 C 0.93488 0.46403 0.66160
 C1604 C 0.92032 0.46751 0.68012
 C1605 C 0.90771 0.44923 0.68840
 C1606 C 0.90944 0.42811 0.67865
 C1607 C 0.92368 0.42470 0.66053
 C1608 C 0.93630 0.44239 0.65204
 C1609 C 0.95841 0.52189 0.65449
 C1610 C 0.95657 0.54304 0.66417
 C1611 C 0.94230 0.54645 0.68227
 C1612 C 0.92978 0.52873 0.69082
 C1613 C 0.96279 0.47843 0.63430
 C1614 C 0.97536 0.47541 0.61878
 C1615 C 0.90411 0.49247 0.70918
 C1616 C 0.89221 0.49544 0.72522
 H1617 H 0.89639 0.45106 0.70245
 H1618 H 0.89967 0.41432 0.68518
 H1619 H 0.92497 0.40826 0.65301
 H1620 H 0.94714 0.43890 0.63792
 H1621 H 0.96973 0.52008 0.64044
 H1622 H 0.96627 0.55686 0.65759
 H1623 H 0.94092 0.56292 0.68972
 H1624 H 0.91890 0.53223 0.70491
 C1625 C 0.91855 0.51117 0.80926
 C1626 C 0.92802 0.53252 0.81336
 C1627 C 0.94250 0.53581 0.83204
 C1628 C 0.94742 0.51771 0.84650
 C1629 C 0.93780 0.49640 0.84248
 C1630 C 0.92331 0.49312 0.82381
 C1631 C 0.91389 0.47167 0.82012
 C1632 C 0.91866 0.45396 0.83447
 C1633 C 0.93284 0.45715 0.85272
 C1634 C 0.94236 0.47809 0.85676
 C1635 C 0.95179 0.55730 0.83578
 C1636 C 0.94691 0.57504 0.82148
 C1637 C 0.93275 0.57182 0.80322
 C1638 C 0.92337 0.55085 0.79912
 C1639 C 0.96244 0.52102 0.86542
 C1640 C 0.97496 0.52389 0.88105
 C1641 C 0.90412 0.50772 0.78995
 C1642 C 0.89226 0.50476 0.77385
 H1643 H 0.90274 0.46836 0.80616
 H1644 H 0.91130 0.43767 0.83141
 H1645 H 0.93650 0.44333 0.86382
 H1646 H 0.95328 0.47975 0.87118
 H1647 H 0.96289 0.56064 0.84977
 H1648 H 0.95416 0.59137 0.82460
 H1649 H 0.92900 0.58566 0.79217
 H1650 H 0.91244 0.54918 0.78471
 C1651 C 0.41804 0.01132 0.30971
 C1652 C 0.42570 0.03311 0.31507
 C1653 C 0.44016 0.03646 0.33375
 C1654 C 0.44685 0.01799 0.34697
 C1655 C 0.43906 -0.00378 0.34169
 C1656 C 0.42459 -0.00712 0.32301
 C1657 C 0.41701 -0.02904 0.31806
 C1658 C 0.42354 -0.04714 0.33118
 C1659 C 0.43770 -0.04387 0.34944
 C1660 C 0.44542 -0.02248 0.35471
 C1661 C 0.44762 0.05840 0.33877
 C1662 C 0.44099 0.07651 0.32570
 C1663 C 0.42686 0.07323 0.30742
 C1664 C 0.41925 0.05181 0.30208
 C1665 C 0.46183 0.02138 0.36590
 C1666 C 0.47431 0.02422 0.38157
 C1667 C 0.40359 0.00783 0.29042
 C1668 C 0.39172 0.00480 0.27435
 H1669 H 0.40596 -0.03243 0.30404
 H1670 H 0.41757 -0.06378 0.32716
 H1671 H 0.44272 -0.05799 0.35958
 H1672 H 0.45640 -0.02079 0.36908
 H1673 H 0.45862 0.06180 0.35282
 H1674 H 0.44684 0.09318 0.32977
 H1675 H 0.42175 0.08735 0.29732
 H1676 H 0.40828 0.05011 0.28772
   
