data_POSCAR
  _audit_creation_date              2014-09-24
  _audit_creation_method            'ToBaCCo'
  _symmetry_space_group_name_H-M    'P1'
  _symmetry_Int_Tables_number       1
  _symmetry_cell_setting            triclinic
  loop_
  _symmetry_equiv_pos_as_xyz
 x,y,z
_cell_length_a 36.1077
_cell_length_b 37.5443
_cell_length_c 30.1867
_cell_angle_alpha 89.890800
_cell_angle_beta 89.031400
_cell_angle_gamma 89.903900
loop_
  _atom_site_label
  _atom_site_type_symbol
  _atom_site_fract_x
  _atom_site_fract_y
  _atom_site_fract_z
C1 C 0.32014 -0.04530 0.24009
 C2 C 0.34137 -0.01400 0.23324
 C3 C 0.36937 -0.01362 0.20032
 C4 C 0.37800 -0.04444 0.17644
 C5 C 0.35695 -0.07493 0.18350
 C6 C 0.32768 -0.07628 0.21484
 C7 C 0.34359 0.01306 0.26869
 C8 C 0.37387 0.01056 0.29682
 C9 C 0.37848 0.03310 0.33380
 C10 C 0.35200 0.06083 0.33829
 C11 C 0.32787 0.06938 0.30312
 C12 C 0.32145 0.04375 0.27023
 H13 H 0.30066 -0.04652 0.26774
 H14 H 0.38664 0.00978 0.19606
 H15 H 0.39522 -0.00746 0.28582
 H16 H 0.30220 0.04910 0.24389
 H17 H 0.36390 -0.09822 0.16479
 H18 H 0.35323 0.07938 0.36552
 C19 C 0.18339 -0.04671 0.70795
 C20 C 0.16325 -0.01747 0.72523
 C21 C 0.13532 -0.02352 0.75679
 C22 C 0.12700 -0.05768 0.77202
 C23 C 0.14670 -0.08680 0.75496
 C24 C 0.17566 -0.08164 0.72376
 C25 C 0.16616 0.01973 0.70908
 C26 C 0.13821 0.03004 0.68004
 C27 C 0.12138 0.06396 0.68241
 C28 C 0.13871 0.08959 0.70938
 C29 C 0.16991 0.08110 0.73612
 C30 C 0.18295 0.04572 0.73591
 H31 H 0.20521 -0.04238 0.68350
 H32 H 0.11971 -0.00104 0.76998
 H33 H 0.12562 0.00943 0.66016
 H34 H 0.20335 0.03762 0.75984
 H35 H 0.14065 -0.11323 0.76750
 H36 H 0.12596 0.11533 0.71318
 C37 C 0.68482 0.47475 0.24422
 C38 C 0.66642 0.50394 0.26461
 C39 C 0.64176 0.49786 0.30063
 C40 C 0.63278 0.46319 0.31412
 C41 C 0.65230 0.43508 0.29456
 C42 C 0.67725 0.43985 0.25859
 C43 C 0.66055 0.53653 0.23811
 C44 C 0.62511 0.54165 0.22162
 C45 C 0.61908 0.56234 0.18376
 C46 C 0.64729 0.58675 0.17209
 C47 C 0.67999 0.58867 0.19695
 C48 C 0.68831 0.56101 0.22674
 H49 H 0.70140 0.47887 0.21441
 H50 H 0.62581 0.51995 0.31409
 H51 H 0.60257 0.52794 0.23798
 H52 H 0.71452 0.56046 0.24366
 H53 H 0.64510 0.40837 0.30451
 H54 H 0.64325 0.60614 0.14643
 C55 C 0.81560 0.44103 0.75596
 C56 C 0.83401 0.47228 0.74192
 C57 C 0.86137 0.47008 0.70867
 C58 C 0.87095 0.43743 0.68920
 C59 C 0.85198 0.40659 0.70264
 C60 C 0.82413 0.40816 0.73576
 C61 C 0.83137 0.50592 0.76715
 C62 C 0.84810 0.50588 0.80866
 C63 C 0.85993 0.53773 0.82753
 C64 C 0.84986 0.57010 0.80796
 C65 C 0.83184 0.57130 0.76687
 C66 C 0.82296 0.53879 0.74621
 H67 H 0.79467 0.44234 0.78204
 H68 H 0.87644 0.49390 0.69893
 H69 H 0.85701 0.48077 0.82288
 H70 H 0.81176 0.53896 0.71315
 H71 H 0.85816 0.38147 0.68691
 H72 H 0.85797 0.59465 0.82399
 C73 C 0.22657 0.37695 1.06848
 C74 C 0.23489 0.39979 1.03288
 C75 C 0.25904 0.42834 1.03850
 C76 C 0.27640 0.43377 1.07904
 C77 C 0.26782 0.41111 1.11474
 C78 C 0.24315 0.38198 1.10995
 C79 C 0.22076 0.39228 0.98851
 C80 C 0.18572 0.40442 0.97754
 C81 C 0.17116 0.39894 0.93524
 C82 C 0.19216 0.37892 0.90437
 C83 C 0.22802 0.36612 0.91521
 C84 C 0.24240 0.37405 0.95700
 H85 H 0.20997 0.35352 1.06236
 H86 H 0.26680 0.44462 1.01012
 H87 H 0.16923 0.41783 1.00269
 H88 H 0.27037 0.36614 0.96507
 H89 H 0.28259 0.41466 1.14539
 H90 H 0.18067 0.37306 0.87227
 C91 C 0.77529 0.11463 1.06577
 C92 C 0.75787 0.09386 1.03377
 C93 C 0.72640 0.07426 1.04471
 C94 C 0.70979 0.07745 1.08653
 C95 C 0.72560 0.10014 1.11791
 C96 C 0.75882 0.11884 1.10792
 C97 C 0.76961 0.09593 0.98733
 C98 C 0.80169 0.07806 0.97406
 C99 C 0.81428 0.07990 0.93015
 C100 C 0.79471 0.10038 0.89981
 C101 C 0.76064 0.11676 0.91203
 C102 C 0.74845 0.11482 0.95626
 H103 H 0.79881 0.13098 1.05599
 H104 H 0.71282 0.05892 1.01923
 H105 H 0.81740 0.06322 0.99827
 H106 H 0.72263 0.12739 0.96635
 H107 H 0.71066 0.10536 1.14868
 H108 H 0.80565 0.10293 0.86630
 C109 C 0.25323 0.61481 0.53500
 C110 C 0.23149 0.59142 0.51007
 C111 C 0.20053 0.57551 0.52907
 C112 C 0.18859 0.58436 0.57180
 C113 C 0.20954 0.60865 0.59687
 C114 C 0.24257 0.62387 0.57873
 C115 C 0.24053 0.58274 0.46383
 C116 C 0.26056 0.55156 0.45470
 C117 C 0.27656 0.54619 0.41259
 C118 C 0.26388 0.56744 0.37763
 C119 C 0.24501 0.60020 0.38632
 C120 C 0.23273 0.60708 0.42982
 H121 H 0.27845 0.62564 0.52048
 H122 H 0.18407 0.55757 0.50924
 H123 H 0.26986 0.53550 0.48220
 H124 H 0.21944 0.63218 0.43789
 H125 H 0.19999 0.61607 0.62979
 H126 H 0.27454 0.56171 0.34468
 C127 C 0.74198 0.86776 0.54321
 C128 C 0.75689 0.88752 0.50758
 C129 C 0.78242 0.91430 0.51505
 C130 C 0.79562 0.92107 0.55741
 C131 C 0.78307 0.89954 0.59247
 C132 C 0.75478 0.87373 0.58636
 C133 C 0.74279 0.88506 0.46268
 C134 C 0.71205 0.90549 0.45268
 C135 C 0.69903 0.90757 0.40944
 C136 C 0.71886 0.89034 0.37502
 C137 C 0.75156 0.87106 0.38461
 C138 C 0.76311 0.86835 0.42870
 H139 H 0.72040 0.84841 0.53738
 H140 H 0.79222 0.93029 0.48720
 H141 H 0.69689 0.91868 0.47939
 H142 H 0.78818 0.85386 0.43642
 H143 H 0.79618 0.90221 0.62430
 H144 H 0.70816 0.89047 0.34176
 C145 C -0.04554 0.25635 0.38014
 C146 C -0.01936 0.24932 0.41261
 C147 C -0.02666 0.22423 0.44547
 C148 C -0.05890 0.20380 0.44451
 C149 C -0.08600 0.21173 0.41317
 C150 C -0.07990 0.23856 0.38084
 C151 C 0.01586 0.26832 0.41339
 C152 C 0.01962 0.29543 0.44416
 C153 C 0.05142 0.31628 0.44403
 C154 C 0.08204 0.30648 0.41755
 C155 C 0.07899 0.27850 0.38667
 C156 C 0.04494 0.26044 0.38363
 H157 H -0.03843 0.27480 0.35369
 H158 H -0.00516 0.21774 0.46892
 H159 H -0.00410 0.30309 0.46459
 H160 H 0.04087 0.24059 0.35818
 H161 H -0.11071 0.19538 0.41238
 H162 H 0.10654 0.32312 0.41745
 C163 C -0.05117 0.76306 0.11516
 C164 C -0.01526 0.76366 0.09770
 C165 C -0.00542 0.78773 0.06427
 C166 C -0.03155 0.81140 0.04812
 C167 C -0.06736 0.81144 0.06602
 C168 C -0.07770 0.78661 0.09863
 C169 C 0.01034 0.73500 0.10660
 C170 C 0.00414 0.70287 0.08481
 C171 C 0.03378 0.68042 0.07331
 C172 C 0.06840 0.68811 0.09227
 C173 C 0.07417 0.71940 0.11684
 C174 C 0.04499 0.74303 0.12352
 H175 H -0.05886 0.74296 0.13947
 H176 H 0.02236 0.78744 0.04997
 H177 H -0.02370 0.69704 0.07423
 H178 H 0.04985 0.76876 0.13860
 H179 H -0.08706 0.83135 0.05512
 H180 H 0.09230 0.67161 0.08543
 C181 C 0.45570 0.24988 0.62497
 C182 C 0.48657 0.25008 0.59594
 C183 C 0.48579 0.26918 0.55632
 C184 C 0.45347 0.28601 0.54350
 C185 C 0.42106 0.28047 0.56861
 C186 C 0.42241 0.26635 0.61223
 C187 C 0.51859 0.22746 0.60339
 C188 C 0.52035 0.19540 0.57997
 C189 C 0.55189 0.17412 0.58158
 C190 C 0.58117 0.18445 0.60759
 C191 C 0.58081 0.21774 0.62894
 C192 C 0.54915 0.23926 0.62744
 H193 H 0.45792 0.23670 0.65670
 H194 H 0.51095 0.27238 0.53654
 H195 H 0.49681 0.18670 0.56093
 H196 H 0.54892 0.26532 0.64280
 H197 H 0.39567 0.29088 0.55528
 H198 H 0.60493 0.16687 0.61025
 C199 C 0.46532 0.74639 0.86427
 C200 C 0.49299 0.74449 0.89570
 C201 C 0.49250 0.71786 0.92830
 C202 C 0.46522 0.69129 0.92769
 C203 C 0.43848 0.69233 0.89395
 C204 C 0.43724 0.72115 0.86408
 C205 C 0.52390 0.76899 0.89160
 C206 C 0.52537 0.79943 0.91783
 C207 C 0.55509 0.82298 0.91300
 C208 C 0.58370 0.81550 0.88218
 C209 C 0.58211 0.78446 0.85606
 C210 C 0.55162 0.76194 0.86013
 H211 H 0.46499 0.76838 0.84091
 H212 H 0.51467 0.71654 0.95205
 H213 H 0.50316 0.80509 0.94142
 H214 H 0.55086 0.73740 0.84124
 H215 H 0.41668 0.67250 0.89340
 H216 H 0.60775 0.83267 0.88007
 C217 C -0.30782 0.58492 1.03040
 C218 C -0.27840 0.60899 1.03916
 C219 C -0.28687 0.64135 1.06007
 C220 C -0.32351 0.65146 1.06925
 C221 C -0.35236 0.62835 1.05901
 C222 C -0.34536 0.59429 1.04101
 C223 C -0.24043 0.60625 1.01841
 C224 C -0.23286 0.62869 0.98215
 C225 C -0.19647 0.63469 0.96636
 C226 C -0.16732 0.61561 0.98538
 C227 C -0.17378 0.59153 1.02059
 C228 C -0.21052 0.58799 1.03808
 H229 H -0.30185 0.56030 1.01303
 H230 H -0.26473 0.65997 1.06685
 H231 H -0.25554 0.64342 0.96763
 H232 H -0.21572 0.57141 1.06688
 H233 H -0.38055 0.63689 1.06590
 H234 H -0.13963 0.61817 0.97126
 C235 C -0.30760 0.41749 0.52920
 C236 C -0.27390 0.39888 0.52180
 C237 C -0.27414 0.36743 0.49704
 C238 C -0.30681 0.35433 0.47940
 C239 C -0.34043 0.36905 0.49369
 C240 C -0.34151 0.40319 0.51338
 C241 C -0.23763 0.40844 0.54100
 C242 C -0.22677 0.38612 0.57547
 C243 C -0.19068 0.37206 0.57628
 C244 C -0.16315 0.38979 0.55148
 C245 C -0.17181 0.41878 0.52325
 C246 C -0.20980 0.42527 0.51498
 H247 H -0.30748 0.44250 0.54702
 H248 H -0.24802 0.35507 0.48741
 H249 H -0.24843 0.37263 0.59405
 H250 H -0.21767 0.44120 0.48670
 H251 H -0.36551 0.35638 0.48325
 H252 H -0.13534 0.37963 0.55150
 C253 C 0.21810 -0.07735 -0.03281
 C254 C 0.25034 -0.09522 -0.04734
 C255 C 0.24785 -0.12057 -0.08119
 C256 C 0.21425 -0.12637 -0.10270
 C257 C 0.18446 -0.10343 -0.09359
 C258 C 0.18480 -0.08083 -0.05624
 C259 C 0.28440 -0.09469 -0.02104
 C260 C 0.28501 -0.11529 0.01743
 C261 C 0.31868 -0.12737 0.03552
 C262 C 0.35138 -0.11169 0.01815
 C263 C 0.35077 -0.08494 -0.01521
 C264 C 0.31735 -0.07959 -0.03760
 H265 H 0.21873 -0.06239 -0.00221
 H266 H 0.27149 -0.13750 -0.08879
 H267 H 0.25860 -0.12422 0.03084
 H268 H 0.31692 -0.06412 -0.06791
 H269 H 0.15903 -0.10679 -0.11169
 H270 H 0.37772 -0.12198 0.02776
 C271 C 0.20280 1.05930 0.52319
 C272 C 0.23309 1.07825 0.53965
 C273 C 0.22672 1.10606 0.56982
 C274 C 0.19069 1.11656 0.58204
 C275 C 0.16119 1.09644 0.56758
 C276 C 0.16685 1.06862 0.53700
 C277 C 0.26675 1.08158 0.51218
 C278 C 0.26744 1.11111 0.48453
 C279 C 0.29816 1.12021 0.45806
 C280 C 0.33064 1.10001 0.46372
 C281 C 0.33137 1.07107 0.49440
 C282 C 0.29880 1.06121 0.51752
 H283 H 0.20682 1.04040 0.49645
 H284 H 0.24996 1.12206 0.58038
 H285 H 0.24368 1.12877 0.48637
 H286 H 0.29921 1.03995 0.54182
 H287 H 0.13338 1.10371 0.57778
 H288 H 0.35568 1.10726 0.44561
 C289 C 0.15258 0.49211 0.19639
 C290 C 0.17481 0.51162 0.22537
 C291 C 0.19757 0.53888 0.20896
 C292 C 0.19631 0.54902 0.16410
 C293 C 0.17322 0.52989 0.13566
 C294 C 0.15150 0.50075 0.15127
 C295 C 0.17470 0.50176 0.27258
 C296 C 0.19509 0.47193 0.28423
 C297 C 0.18600 0.45200 0.32220
 C298 C 0.15862 0.46578 0.35180
 C299 C 0.14102 0.49897 0.34336
 C300 C 0.14919 0.51654 0.30299
 H301 H 0.13589 0.47034 0.20926
 H302 H 0.21369 0.55442 0.23193
 H303 H 0.21573 0.46214 0.26073
 H304 H 0.13489 0.54093 0.29447
 H305 H 0.16963 0.53990 0.10233
 H306 H 0.15014 0.45045 0.38063
 C307 C -0.12774 1.01357 0.18462
 C308 C -0.15084 1.00437 0.22014
 C309 C -0.17903 0.97977 0.21484
 C310 C -0.18444 0.96220 0.17434
 C311 C -0.15932 0.97084 0.13878
 C312 C -0.12999 0.99593 0.14381
 C313 C -0.14847 1.02398 0.26177
 C314 C -0.17217 1.05269 0.26820
 C315 C -0.16808 1.07665 0.30374
 C316 C -0.14040 1.06774 0.33512
 C317 C -0.12046 1.03505 0.33257
 C318 C -0.12394 1.01395 0.29467
 H319 H -0.10868 1.03553 0.18882
 H320 H -0.19574 0.97390 0.24384
 H321 H -0.19422 1.05521 0.24468
 H322 H -0.10887 0.98909 0.29142
 H323 H -0.16209 0.95789 0.10715
 H324 H -0.13379 1.08569 0.36176
 C325 C 0.35095 0.50571 -0.30699
 C326 C 0.33264 0.49150 -0.26942
 C327 C 0.31175 0.46039 -0.27263
 C328 C 0.30880 0.44299 -0.31314
 C329 C 0.32700 0.45691 -0.35047
 C330 C 0.34771 0.48901 -0.34837
 C331 C 0.33506 0.50915 -0.22643
 C332 C 0.31828 0.54237 -0.22042
 C333 C 0.32183 0.56083 -0.18046
 C334 C 0.34287 0.54540 -0.14668
 C335 C 0.35978 0.51160 -0.15225
 C336 C 0.35451 0.49312 -0.19188
 H337 H 0.36672 0.53009 -0.30399
 H338 H 0.29847 0.44920 -0.24328
 H339 H 0.30396 0.55467 -0.24785
 H340 H 0.36593 0.46663 -0.19624
 H341 H 0.32643 0.44150 -0.38079
 H342 H 0.34724 0.56040 -0.11655
 C343 C 0.65710 -0.02468 -0.29591
 C344 C 0.68299 -0.00836 -0.26815
 C345 C 0.70450 0.01973 -0.28467
 C346 C 0.69993 0.03316 -0.32763
 C347 C 0.67489 0.01581 -0.35573
 C348 C 0.65187 -0.01227 -0.33960
 C349 C 0.68467 -0.01787 -0.22037
 C350 C 0.69560 -0.05196 -0.20768
 C351 C 0.69457 -0.06305 -0.16313
 C352 C 0.67818 -0.04030 -0.13143
 C353 C 0.66485 -0.00622 -0.14399
 C354 C 0.67158 0.00578 -0.18773
 H355 H 0.64047 -0.04650 -0.28306
 H356 H 0.72228 0.03365 -0.26242
 H357 H 0.70214 -0.07112 -0.23304
 H358 H 0.66301 0.03232 -0.19741
 H359 H 0.66971 0.02737 -0.38798
 H360 H 0.67301 -0.05024 -0.09819
 C361 C -0.01624 0.20525 0.91579
 C362 C -0.01443 0.23535 0.88935
 C363 C -0.03726 0.23890 0.85297
 C364 C -0.06674 0.21537 0.84671
 C365 C -0.06796 0.18407 0.87290
 C366 C -0.04049 0.17799 0.90490
 C367 C 0.01348 0.26208 0.89703
 C368 C 0.04349 0.26464 0.86793
 C369 C 0.06785 0.29322 0.87075
 C370 C 0.06094 0.32044 0.90179
 C371 C 0.03024 0.31763 0.93104
 C372 C 0.00751 0.28763 0.92963
 H373 H 0.00454 0.20111 0.94085
 H374 H -0.03208 0.26057 0.82995
 H375 H 0.04830 0.24391 0.84347
 H376 H -0.01730 0.28633 0.95036
 H377 H -0.08749 0.16310 0.86561
 H378 H 0.07883 0.34354 0.90274
 C379 C 0.51122 0.21505 0.11111
 C380 C 0.51455 0.24637 0.13597
 C381 C 0.54575 0.25184 0.16144
 C382 C 0.57346 0.22625 0.16368
 C383 C 0.57124 0.19544 0.13763
 C384 C 0.54010 0.18962 0.11072
 C385 C 0.48331 0.27031 0.14481
 C386 C 0.46547 0.26665 0.18581
 C387 C 0.44178 0.29303 0.20211
 C388 C 0.43837 0.32470 0.17792
 C389 C 0.45433 0.32857 0.13474
 C390 C 0.47692 0.30049 0.11857
 H391 H 0.48574 0.20979 0.09385
 H392 H 0.54749 0.27553 0.18189
 H393 H 0.47022 0.24286 0.20543
 H394 H 0.49089 0.30225 0.08671
 H395 H 0.59328 0.17585 0.13889
 H396 H 0.42260 0.34584 0.19320
 C397 C 0.01309 0.71830 0.57864
 C398 C 0.02144 0.74981 0.60083
 C399 C 0.05508 0.75334 0.62242
 C400 C 0.07954 0.72472 0.62446
 C401 C 0.07166 0.69315 0.60179
 C402 C 0.03815 0.68982 0.57914
 C403 C -0.00797 0.77423 0.61410
 C404 C -0.02754 0.76655 0.65316
 C405 C -0.04915 0.79258 0.67435
 C406 C -0.04904 0.82706 0.65610
 C407 C -0.03359 0.83392 0.61329
 C408 C -0.01230 0.80698 0.59299
 H409 H -0.01427 0.71463 0.56510
 H410 H 0.06059 0.77720 0.64145
 H411 H -0.02473 0.74038 0.66810
 H412 H 0.00173 0.81122 0.56151
 H413 H 0.08998 0.67039 0.60472
 H414 H -0.06330 0.84788 0.67403
 C415 C 0.49228 0.68732 0.38709
 C416 C 0.49001 0.72125 0.36845
 C417 C 0.46347 0.72918 0.33703
 C418 C 0.43676 0.70418 0.32637
 C419 C 0.43704 0.67089 0.34727
 C420 C 0.46614 0.66157 0.37598
 C421 C 0.51749 0.74802 0.37742
 C422 C 0.54957 0.74786 0.35142
 C423 C 0.57262 0.77737 0.35093
 C424 C 0.56466 0.80643 0.37814
 C425 C 0.53235 0.80664 0.40492
 C426 C 0.50842 0.77742 0.40386
 H427 H 0.51481 0.68085 0.40898
 H428 H 0.46274 0.75545 0.32198
 H429 H 0.55561 0.72550 0.32971
 H430 H 0.48195 0.77837 0.42134
 H431 H 0.41518 0.65203 0.34044
 H432 H 0.58277 0.82939 0.37705
 B433 B -0.02900 0.01013 0.99129
 B434 B -0.04189 0.00746 0.93744
 B435 B -0.00435 0.03188 0.95004
 B436 B 0.01795 0.01161 0.99167
 B437 B -0.00504 -0.02651 1.00420
 B438 B -0.04258 -0.02908 0.97042
 B439 B 0.02003 -0.03151 0.91837
 B440 B 0.03338 -0.02770 0.97144
 B441 B -0.00445 -0.05287 0.95907
 B442 B -0.02681 -0.03208 0.91736
 B443 B -0.00367 0.00547 0.90472
 B444 B 0.03346 0.00830 0.93872
 B445 B 0.44173 0.49096 0.49322
 B446 B 0.42922 0.48539 0.44124
 B447 B 0.46330 0.51373 0.44844
 B448 B 0.48832 0.49969 0.49263
 B449 B 0.47141 0.45963 0.50872
 B450 B 0.43457 0.44988 0.47609
 B451 B 0.49678 0.45238 0.42347
 B452 B 0.50953 0.46142 0.47627
 B453 B 0.47547 0.43042 0.46604
 B454 B 0.44930 0.44583 0.42314
 B455 B 0.46757 0.48463 0.40768
 B456 B 0.50420 0.49450 0.43949
 B457 B 0.54305 0.96825 0.52411
 B458 B 0.56170 0.97348 0.47242
 B459 B 0.52161 0.95074 0.47882
 B460 B 0.49513 0.97024 0.51821
 B461 B 0.51912 1.00478 0.53679
 B462 B 0.56063 1.00775 0.50884
 B463 B 0.50506 1.01774 0.44899
 B464 B 0.48469 1.01200 0.49893
 B465 B 0.52491 1.03470 0.49711
 B466 B 0.55162 1.01612 0.45539
 B467 B 0.52840 0.98027 0.43696
 B468 B 0.48701 0.97766 0.46372
 B469 B 0.03162 0.47961 1.02471
 B470 B 0.03308 0.47713 0.96876
 B471 B -0.00131 0.45565 0.99584
 B472 B -0.01441 0.47944 1.04069
 B473 B 0.01006 0.51745 1.04097
 B474 B 0.04014 0.51608 0.99604
 B475 B -0.02926 0.51766 0.96455
 B476 B -0.03335 0.51769 1.02086
 B477 B 0.00139 0.54112 0.99486
 B478 B 0.01614 0.51651 0.94964
 B479 B -0.00965 0.47896 0.94886
 B480 B -0.03936 0.48001 0.99308
 B481 B 0.03551 0.52416 0.48734
 B482 B 0.04692 0.51592 0.54097
 B483 B 0.00989 0.54199 0.53054
 B484 B -0.01176 0.52642 0.48564
 B485 B 0.01120 0.48986 0.46845
 B486 B 0.04793 0.48293 0.50243
 B487 B -0.01573 0.47608 0.55212
 B488 B -0.02831 0.48562 0.49949
 B489 B 0.00883 0.45894 0.50808
 B490 B 0.03115 0.47447 0.55359
 B491 B 0.00807 0.51113 0.57170
 B492 B -0.02846 0.51806 0.53766
 B493 B 0.55950 0.02578 -0.00876
 B494 B 0.56527 0.01730 0.04602
 B495 B 0.53019 0.04417 0.03036
 B496 B 0.51315 0.02791 -0.01776
 B497 B 0.53762 -0.00900 -0.03107
 B498 B 0.57029 -0.01553 0.00846
 B499 B 0.50148 -0.02155 0.04776
 B500 B 0.49545 -0.01305 -0.00610
 B501 B 0.53160 -0.03976 0.00883
 B502 B 0.54762 -0.02353 0.05718
 B503 B 0.52305 0.01332 0.07078
 B504 B 0.49109 0.02049 0.03123
 B505 B 0.44395 0.49409 0.00906
 B506 B 0.42290 0.50652 0.05742
 B507 B 0.45728 0.47639 0.05910
 B508 B 0.48976 0.48702 0.01964
 B509 B 0.47558 0.52458 -0.00529
 B510 B 0.43375 0.53713 0.01804
 B511 B 0.48626 0.54040 0.08163
 B512 B 0.50771 0.52691 0.03439
 B513 B 0.47278 0.55791 0.03223
 B514 B 0.44050 0.54702 0.07182
 B515 B 0.45499 0.50915 0.09666
 B516 B 0.49624 0.49688 0.07387
 B517 B -0.04935 1.00411 0.50133
 B518 B -0.07168 1.01245 0.55029
 B519 B -0.03546 0.98484 0.55063
 B520 B -0.00373 0.99913 0.51259
 B521 B -0.02033 1.03667 0.49044
 B522 B -0.06275 1.04546 0.51400
 B523 B -0.01053 1.04935 0.57854
 B524 B 0.01143 1.03923 0.53055
 B525 B -0.02529 1.06787 0.52919
 B526 B -0.05690 1.05333 0.56857
 B527 B -0.03996 1.01550 0.59094
 B528 B 0.00180 1.00664 0.56733
 B529 B 0.76820 0.23503 0.23068
 B530 B 0.76330 0.21845 0.28384
 B531 B 0.79313 0.25244 0.27264
 B532 B 0.77378 0.27999 0.23444
 B533 B 0.73262 0.26267 0.22243
 B534 B 0.72634 0.22410 0.25217
 B535 B 0.72998 0.28023 0.30968
 B536 B 0.73359 0.29627 0.25823
 B537 B 0.70488 0.26125 0.26741
 B538 B 0.72440 0.23520 0.30656
 B539 B 0.76625 0.25310 0.31914
 B540 B 0.77208 0.29043 0.28896
 B541 B 0.75192 0.78256 0.74559
 B542 B 0.75187 0.79330 0.79979
 B543 B 0.72790 0.75674 0.78509
 B544 B 0.75097 0.73687 0.74228
 B545 B 0.79052 0.75961 0.73229
 B546 B 0.79160 0.79484 0.76804
 B547 B 0.79371 0.73388 0.81699
 B548 B 0.79194 0.72203 0.76360
 B549 B 0.81699 0.75866 0.77760
 B550 B 0.79345 0.77919 0.82040
 B551 B 0.75457 0.75600 0.83057
 B552 B 0.75341 0.72121 0.79444
 B553 B 0.26537 0.28432 0.76610
 B554 B 0.24816 0.29815 0.71683
 B555 B 0.27909 0.26472 0.71676
 B556 B 0.27095 0.23895 0.76326
 B557 B 0.23443 0.25734 0.79014
 B558 B 0.22038 0.29404 0.76144
 B559 B 0.21103 0.23496 0.70904
 B560 B 0.22708 0.22147 0.75777
 B561 B 0.19744 0.25587 0.75864
 B562 B 0.20521 0.28010 0.71152
 B563 B 0.24196 0.26192 0.68414
 B564 B 0.25668 0.22617 0.71317
 B565 B 0.24590 0.70805 0.23612
 B566 B 0.25629 0.69498 0.18533
 B567 B 0.22536 0.72689 0.18839
 B568 B 0.23500 0.75317 0.23215
 B569 B 0.27480 0.73937 0.25347
 B570 B 0.28976 0.70372 0.22361
 B571 B 0.29047 0.75913 0.16785
 B572 B 0.27511 0.77470 0.21757
 B573 B 0.30883 0.74297 0.21586
 B574 B 0.29867 0.71474 0.17159
 B575 B 0.25904 0.72981 0.15020
 B576 B 0.24474 0.76635 0.17847
 B577 B 0.28686 0.71795 0.71274
 B578 B 0.27318 0.70177 0.76262
 B579 B 0.30029 0.73842 0.76255
 B580 B 0.28924 0.76323 0.71781
 B581 B 0.25305 0.74399 0.69285
 B582 B 0.24263 0.70512 0.72037
 B583 B 0.22974 0.76053 0.77639
 B584 B 0.24558 0.77807 0.72743
 B585 B 0.21663 0.74190 0.72841
 B586 B 0.22833 0.71533 0.77182
 B587 B 0.26375 0.73523 0.79709
 B588 B 0.27373 0.77396 0.76985
 B589 B 0.25060 0.28215 0.25923
 B590 B 0.24743 0.30251 0.31051
 B591 B 0.22076 0.26636 0.29839
 B592 B 0.24624 0.23748 0.26677
 B593 B 0.28796 0.25579 0.25898
 B594 B 0.28866 0.29634 0.28567
 B595 B 0.27888 0.24427 0.34828
 B596 B 0.28279 0.22415 0.29871
 B597 B 0.30922 0.26085 0.30786
 B598 B 0.28374 0.28870 0.34071
 B599 B 0.24091 0.27044 0.34821
 B600 B 0.24074 0.23070 0.32150
 B601 B 0.76898 0.79757 0.23367
 B602 B 0.74531 0.82342 0.19765
 B603 B 0.77476 0.79155 0.17820
 B604 B 0.77251 0.75592 0.21174
 B605 B 0.74116 0.76462 0.25143
 B606 B 0.72429 0.80672 0.24386
 B607 B 0.70476 0.76595 0.17354
 B608 B 0.72956 0.73944 0.20754
 B609 B 0.70002 0.77067 0.22903
 B610 B 0.70151 0.80734 0.19522
 B611 B 0.73304 0.79830 0.15470
 B612 B 0.74974 0.75657 0.16230
 B613 B 0.74898 0.19685 0.75132
 B614 B 0.75777 0.18026 0.70086
 B615 B 0.72728 0.21281 0.70358
 B616 B 0.73911 0.24088 0.74460
 B617 B 0.78063 0.22784 0.76481
 B618 B 0.79258 0.18949 0.73744
 B619 B 0.79170 0.24324 0.67710
 B620 B 0.77791 0.26109 0.72701
 B621 B 0.81238 0.22906 0.72332
 B622 B 0.79981 0.19868 0.68341
 B623 B 0.75992 0.21320 0.66318
 B624 B 0.74686 0.25057 0.68972
 C625 C 0.45850 1.06163 0.40575
 C626 C 0.42429 1.06166 0.38381
 C627 C 0.41139 1.03121 0.36065
 C628 C 0.43661 1.00185 0.35888
 C629 C 0.47388 1.00730 0.37015
 C630 C 0.48251 1.03221 0.40418
 C631 C 0.50047 0.98600 0.34832
 N632 N 0.48971 0.95536 0.32855
 N633 N 0.45431 0.94536 0.32919
 C634 C 0.42738 0.96711 0.34565
 H635 H 0.46715 1.08596 0.42052
 H636 H 0.40907 1.08640 0.38443
 H637 H 0.52965 0.99250 0.34919
 H638 H 0.39892 0.95812 0.34545
 C639 C -0.09605 0.51627 0.93375
 C640 C -0.12201 0.51922 0.90058
 C641 C -0.11343 0.53675 0.86100
 C642 C -0.07738 0.55129 0.85484
 C643 C -0.05168 0.55076 0.88996
 C644 C -0.06020 0.53104 0.92950
 C645 C -0.01827 0.56970 0.88334
 N646 N -0.00938 0.58351 0.84307
 N647 N -0.03158 0.57981 0.80874
 C648 C -0.06498 0.56381 0.81321
 H649 H -0.10415 0.50042 0.96201
 H650 H -0.14901 0.50716 0.90572
 H651 H 0.00057 0.57478 0.90969
 H652 H -0.08105 0.55986 0.78395
 C653 C 0.08523 -0.03418 0.88064
 C654 C 0.11098 -0.04158 0.84780
 C655 C 0.10123 -0.06063 0.81043
 C656 C 0.06566 -0.07608 0.80867
 C657 C 0.03961 -0.07067 0.84429
 C658 C 0.04868 -0.04774 0.88040
 C659 C 0.00546 -0.08803 0.84146
 N660 N -0.00278 -0.10759 0.80527
 N661 N 0.02094 -0.11127 0.77139
 C662 C 0.05489 -0.09609 0.77181
 H663 H 0.09473 -0.01615 0.90568
 H664 H 0.13821 -0.02959 0.84990
 H665 H -0.01444 -0.08707 0.86776
 H666 H 0.07316 -0.10005 0.74352
 C667 C 0.53115 0.46475 0.34772
 C668 C 0.56499 0.47176 0.32652
 C669 C 0.59782 0.45564 0.34038
 C670 C 0.59479 0.42867 0.37324
 C671 C 0.55993 0.42079 0.39390
 C672 C 0.52845 0.44229 0.38550
 C673 C 0.55767 0.39051 0.42075
 N674 N 0.58756 0.36935 0.42603
 N675 N 0.62055 0.37829 0.40935
 C676 C 0.62548 0.40848 0.38574
 H677 H 0.50761 0.47968 0.33608
 H678 H 0.56538 0.49026 0.29893
 H679 H 0.53262 0.38296 0.43687
 H680 H 0.65315 0.41575 0.37583
 C681 C 0.53619 0.58489 0.11047
 C682 C 0.57001 0.58761 0.13248
 C683 C 0.58258 0.55970 0.15998
 C684 C 0.55769 0.53076 0.16737
 C685 C 0.52014 0.53546 0.15768
 C686 C 0.51100 0.55748 0.12100
 C687 C 0.49441 0.51400 0.18082
 N688 N 0.50614 0.48388 0.20116
 N689 N 0.54181 0.47478 0.20052
 C690 C 0.56800 0.49682 0.18302
 H691 H 0.53114 0.60290 0.08329
 H692 H 0.58683 0.61064 0.12548
 H693 H 0.46516 0.52020 0.18119
 H694 H 0.59657 0.48811 0.18265
 C695 C 0.02581 1.03771 0.65155
 C696 C 0.06000 1.03939 0.67183
 C697 C 0.08459 1.06809 0.66500
 C698 C 0.06946 1.09874 0.64315
 C699 C 0.03373 1.09654 0.62287
 C700 C 0.01455 1.06367 0.62069
 C701 C 0.01718 1.12793 0.60826
 N702 N 0.03644 1.15886 0.60808
 N703 N 0.07113 1.16028 0.62215
 C704 C 0.08835 1.13131 0.63917
 H705 H 0.01015 1.01346 0.65671
 H706 H 0.06749 1.01709 0.69273
 H707 H -0.01096 1.12797 0.59734
 H708 H 0.11662 1.13422 0.64865
 C709 C -0.08188 0.46880 0.58636
 C710 C -0.10915 0.45866 0.61631
 C711 C -0.10097 0.43756 0.65253
 C712 C -0.06454 0.42403 0.65646
 C713 C -0.03610 0.43377 0.62475
 C714 C -0.04480 0.45674 0.58800
 C715 C -0.00005 0.42146 0.63322
 N716 N 0.00669 0.40040 0.66874
 N717 N -0.01996 0.39100 0.69732
 C718 C -0.05524 0.40232 0.69258
 H719 H -0.09034 0.48923 0.56400
 H720 H -0.13655 0.47020 0.61322
 H721 H 0.02331 0.42847 0.61318
 H722 H -0.07563 0.39427 0.71720
 C723 C 0.43185 -0.02268 0.07339
 C724 C 0.40363 -0.02586 0.10463
 C725 C 0.40889 -0.04478 0.14339
 C726 C 0.44266 -0.06349 0.14905
 C727 C 0.47168 -0.06088 0.11629
 C728 C 0.46742 -0.03823 0.07867
 C729 C 0.50368 -0.08125 0.12268
 N730 N 0.50730 -0.10134 0.15974
 N731 N 0.48089 -0.10259 0.19100
 C732 C 0.44871 -0.08434 0.18695
 H733 H 0.42565 -0.00503 0.04647
 H734 H 0.37768 -0.01209 0.09913
 H735 H 0.52518 -0.08247 0.09796
 H736 H 0.42814 -0.08642 0.21328
 C737 C 0.37355 0.45661 0.04910
 C738 C 0.33991 0.43980 0.05323
 C739 C 0.31144 0.45435 0.07862
 C740 C 0.31798 0.48615 0.10237
 C741 C 0.35271 0.50451 0.09726
 C742 C 0.38106 0.49025 0.06843
 C743 C 0.35780 0.53520 0.12307
 N744 N 0.33087 0.54619 0.15182
 N745 N 0.29879 0.52903 0.15622
 C746 C 0.29121 0.49971 0.13199
 H747 H 0.39385 0.44240 0.02934
 H748 H 0.33620 0.41461 0.03635
 H749 H 0.38300 0.55019 0.12214
 H750 H 0.26462 0.48687 0.13670
 C751 C -0.11436 0.95927 0.53128
 C752 C -0.14447 0.93748 0.53299
 C753 C -0.17417 0.94445 0.56126
 C754 C -0.17234 0.97460 0.58977
 C755 C -0.14127 0.99850 0.58667
 C756 C -0.11154 0.99122 0.55611
 C757 C -0.14056 1.02747 0.61598
 N758 N -0.16831 1.03206 0.64625
 N759 N -0.19724 1.01016 0.64864
 C760 C -0.20056 0.98208 0.62092
 H761 H -0.09245 0.94923 0.51012
 H762 H -0.14388 0.91378 0.51241
 H763 H -0.11812 1.04622 0.61596
 H764 H -0.22507 0.96579 0.62381
 C765 C -0.08714 0.06046 0.94494
 C766 C -0.11986 0.07878 0.94191
 C767 C -0.14910 0.06447 0.91911
 C768 C -0.14327 0.03332 0.89348
 C769 C -0.10789 0.01591 0.89336
 C770 C -0.07963 0.02845 0.92224
 C771 C -0.10317 -0.01351 0.86502
 N772 N -0.13199 -0.02573 0.84113
 N773 N -0.16530 -0.01052 0.84327
 C774 C -0.17193 0.01855 0.86871
 H775 H -0.07031 0.06948 0.97104
 H776 H -0.12386 0.10231 0.96230
 H777 H -0.07693 -0.02638 0.86003
 H778 H -0.19939 0.03005 0.86903
 C779 C 0.36418 0.48885 0.40147
 C780 C 0.32803 0.50179 0.39450
 C781 C 0.31637 0.53454 0.41212
 C782 C 0.34218 0.55560 0.43497
 C783 C 0.37691 0.54114 0.44746
 C784 C 0.38920 0.50650 0.42955
 C785 C 0.39626 0.56229 0.47883
 N786 N 0.38495 0.59526 0.49075
 N787 N 0.35440 0.60949 0.47511
 C788 C 0.33277 0.59085 0.44786
 H789 H 0.37176 0.46334 0.38726
 H790 H 0.30875 0.48566 0.37619
 H791 H 0.42072 0.55469 0.49489
 H792 H 0.30807 0.60398 0.43726
 C793 C 0.09163 0.56998 0.54760
 C794 C 0.12282 0.58874 0.55950
 C795 C 0.15050 0.57239 0.58362
 C796 C 0.14311 0.53866 0.60271
 C797 C 0.10893 0.52056 0.59430
 C798 C 0.08349 0.53531 0.56306
 C799 C 0.10268 0.48834 0.61708
 N800 N 0.12893 0.47470 0.64394
 N801 N 0.16120 0.49093 0.64987
 C802 C 0.16927 0.52235 0.62992
 H803 H 0.07653 0.58174 0.52129
 H804 H 0.12818 0.61408 0.54330
 H805 H 0.07708 0.47416 0.61550
 H806 H 0.19561 0.53487 0.63640
 C807 C 0.61164 0.06918 0.05691
 C808 C 0.64507 0.08425 0.06791
 C809 C 0.67122 0.06479 0.09098
 C810 C 0.66148 0.03115 0.10849
 C811 C 0.62567 0.01655 0.10049
 C812 C 0.60118 0.03457 0.07086
 C813 C 0.61662 -0.01550 0.12244
 N814 N 0.64224 -0.03272 0.14694
 N815 N 0.67628 -0.01998 0.15178
 C816 C 0.68676 0.01144 0.13349
 H817 H 0.59578 0.08414 0.03332
 H818 H 0.65228 0.10996 0.05378
 H819 H 0.58929 -0.02649 0.12259
 H820 H 0.71448 0.02109 0.13929
 C821 C 0.62270 0.97258 0.42334
 C822 C 0.65397 0.95700 0.40308
 C823 C 0.66031 0.92029 0.40601
 C824 C 0.63359 0.89897 0.42761
 C825 C 0.60611 0.91509 0.45504
 C826 C 0.59829 0.95269 0.45088
 C827 C 0.59086 0.89309 0.48844
 N828 N 0.59772 0.85757 0.48929
 N829 N 0.62000 0.84213 0.45962
 C830 C 0.63820 0.86170 0.42867
 H831 H 0.61915 1.00102 0.41941
 H832 H 0.67466 0.97404 0.38764
 H833 H 0.57377 0.90339 0.51447
 H834 H 0.65757 0.84838 0.40648
 C835 C 0.07714 0.42215 0.97139
 C836 C 0.10709 0.40095 0.96080
 C837 C 0.13224 0.41133 0.92809
 C838 C 0.12164 0.43930 0.89901
 C839 C 0.08719 0.45803 0.90627
 C840 C 0.06552 0.45125 0.94558
 C841 C 0.07740 0.48413 0.87524
 N842 N 0.10078 0.49214 0.84101
 N843 N 0.13336 0.47591 0.83562
 C844 C 0.14468 0.44994 0.86360
 H845 H 0.06673 0.41793 1.00411
 H846 H 0.11417 0.37981 0.98373
 H847 H 0.05122 0.49778 0.87704
 H848 H 0.17128 0.43752 0.85747
 C849 C 0.03142 0.39392 0.51776
 C850 C 0.04554 0.36158 0.50266
 C851 C 0.04583 0.35343 0.45768
 C852 C 0.03048 0.37761 0.42710
 C853 C 0.01301 0.40921 0.44248
 C854 C 0.01524 0.41874 0.48893
 C855 C -0.00713 0.42878 0.41048
 N856 N -0.00635 0.41949 0.36719
 N857 N 0.01229 0.39123 0.35285
 C858 C 0.03042 0.36988 0.38124
 H859 H 0.03390 0.39945 0.55247
 H860 H 0.05600 0.34251 0.52639
 H861 H -0.02506 0.45052 0.41857
 H862 H 0.04422 0.34691 0.36737
 C863 C 0.52873 -0.08450 -0.05691
 C864 C 0.53501 -0.11546 -0.08037
 C865 C 0.55406 -0.14352 -0.06166
 C866 C 0.56858 -0.13987 -0.01877
 C867 C 0.56309 -0.10753 0.00561
 C868 C 0.54038 -0.07961 -0.01252
 C869 C 0.58173 -0.10477 0.04615
 N870 N 0.60170 -0.13252 0.06195
 N871 N 0.60511 -0.16300 0.03992
 C872 C 0.58930 -0.16759 0.00005
 H873 H 0.51352 -0.06426 -0.07449
 H874 H 0.52403 -0.11781 -0.11345
 H875 H 0.58184 -0.08107 0.06553
 H876 H 0.59359 -0.19264 -0.01696
 C877 C 0.01100 -0.10502 1.01051
 C878 C 0.00617 -0.13726 1.03112
 C879 C -0.02048 -0.16069 1.01672
 C880 C -0.04093 -0.15283 0.97856
 C881 C -0.03728 -0.11895 0.95770
 C882 C -0.00940 -0.09457 0.97297
 C883 C -0.06357 -0.11093 0.92493
 N884 N -0.08825 -0.13576 0.91174
 N885 N -0.08924 -0.16827 0.92914
 C886 C -0.06632 -0.17766 0.96207
 H887 H 0.02977 -0.08726 1.02694
 H888 H 0.02127 -0.14253 1.06121
 H889 H -0.06608 -0.08552 0.90962
 H890 H -0.06827 -0.20435 0.97544
 C891 C 0.46828 0.38252 0.52804
 C892 C 0.46131 0.34955 0.54587
 C893 C 0.45752 0.31990 0.51917
 C894 C 0.46126 0.32359 0.47279
 C895 C 0.46794 0.35797 0.45363
 C896 C 0.47240 0.38846 0.48179
 C897 C 0.47082 0.35986 0.40714
 N898 N 0.46849 0.32985 0.38238
 N899 N 0.46238 0.29802 0.40054
 C900 C 0.45847 0.29392 0.44494
 H901 H 0.47078 0.40329 0.55243
 H902 H 0.45962 0.34706 0.58166
 H903 H 0.47631 0.38449 0.39003
 H904 H 0.45336 0.26753 0.45816
 C905 C 0.55461 1.09753 0.50168
 C906 C 0.56230 1.13034 0.52110
 C907 C 0.55032 1.13772 0.56436
 C908 C 0.53116 1.11203 0.58930
 C909 C 0.51848 1.08083 0.56844
 C910 C 0.53208 1.07224 0.52357
 C911 C 0.49115 1.06144 0.59325
 N912 N 0.48315 1.06926 0.63613
 N913 N 0.49892 1.09636 0.65653
 C914 C 0.52237 1.11823 0.63447
 H915 H 0.56500 1.09257 0.46838
 H916 H 0.57722 1.15033 0.50207
 H917 H 0.47437 1.04092 0.57991
 H918 H 0.53345 1.14062 0.65236
 C919 C 0.04417 0.58960 1.02854
 C920 C 0.05146 0.62107 1.04964
 C921 C 0.02888 0.65083 1.04438
 C922 C 0.00076 0.64861 1.01163
 C923 C -0.01019 0.61468 0.99480
 C924 C 0.01131 0.58360 1.00428
 C925 C -0.04274 0.61374 0.97028
 N926 N -0.05930 0.64426 0.95696
 N927 N -0.04571 0.67601 0.96724
 C928 C -0.01602 0.67922 0.99373
 H929 H 0.06373 0.56888 1.03649
 H930 H 0.07366 0.62013 1.07314
 H931 H -0.05591 0.58932 0.96289
 H932 H -0.00567 0.70565 1.00035
 C933 C 0.47366 0.59799 -0.03885
 C934 C 0.46966 0.62852 -0.06356
 C935 C 0.46725 0.66166 -0.04360
 C936 C 0.46741 0.66351 0.00359
 C937 C 0.46915 0.63147 0.02964
 C938 C 0.47354 0.59766 0.00835
 C939 C 0.46506 0.63478 0.07586
 N940 N 0.46101 0.66731 0.09472
 N941 N 0.45997 0.69696 0.07058
 C942 C 0.46274 0.69617 0.02579
 H943 H 0.47655 0.57437 -0.05884
 H944 H 0.47002 0.62611 -0.09940
 H945 H 0.46479 0.61205 0.09748
 H946 H 0.46030 0.72104 0.00800
 C947 C -0.05347 1.13165 0.52646
 C948 C -0.06457 1.16304 0.50588
 C949 C -0.05596 1.16934 0.46133
 C950 C -0.03480 1.14411 0.43708
 C951 C -0.01935 1.11431 0.45898
 C952 C -0.03015 1.10677 0.50480
 C953 C 0.00694 1.09421 0.43372
 N954 N 0.01344 1.10098 0.39025
 N955 N -0.00356 1.12726 0.36942
 C956 C -0.02719 1.14912 0.39128
 H957 H -0.06376 1.12686 0.55979
 H958 H -0.08020 1.18256 0.52491
 H959 H 0.02395 1.07388 0.44749
 H960 H -0.03945 1.17043 0.37251
 C961 C 0.78910 0.67119 0.85513
 C962 C 0.78909 0.64885 0.89144
 C963 C 0.80921 0.65697 0.92899
 C964 C 0.83250 0.68764 0.92769
 C965 C 0.83131 0.71156 0.89053
 C966 C 0.80700 0.70479 0.85482
 C967 C 0.85501 0.74108 0.89040
 N968 N 0.87768 0.74690 0.92495
 N969 N 0.87780 0.72547 0.96011
 C970 C 0.85564 0.69646 0.96301
 H971 H 0.77243 0.66205 0.82814
 H972 H 0.77262 0.62473 0.89021
 H973 H 0.85685 0.75876 0.86250
 H974 H 0.85656 0.68066 0.99288
 C975 C 0.31812 0.21127 0.41108
 C976 C 0.32420 0.17712 0.42975
 C977 C 0.29556 0.15136 0.43109
 C978 C 0.26067 0.16180 0.41429
 C979 C 0.25350 0.19797 0.40762
 C980 C 0.28335 0.22058 0.39422
 C981 C 0.21628 0.20910 0.41148
 N982 N 0.18876 0.18463 0.40963
 N983 N 0.19621 0.15005 0.40550
 C984 C 0.23150 0.13775 0.40668
 H985 H 0.34076 0.23006 0.40902
 H986 H 0.35090 0.17139 0.44395
 H987 H 0.20891 0.23687 0.41439
 H988 H 0.23632 0.10931 0.40527
 C989 C 0.69692 0.28622 0.38687
 C990 C 0.68786 0.30250 0.42734
 C991 C 0.69625 0.33823 0.43451
 C992 C 0.71247 0.35843 0.39977
 C993 C 0.72603 0.34138 0.36079
 C994 C 0.71670 0.30431 0.35281
 C995 C 0.74962 0.36261 0.33350
 N996 N 0.75382 0.39794 0.34065
 N997 N 0.73737 0.41421 0.37452
 C998 C 0.71715 0.39563 0.40445
 H999 H 0.69008 0.25837 0.38357
 H1000 H 0.67518 0.28681 0.45363
 H1001 H 0.76612 0.35275 0.30712
 H1002 H 0.70454 0.41030 0.43147
 C1003 C 0.19146 0.81630 0.80147
 C1004 C 0.19320 0.84573 0.82960
 C1005 C 0.20879 0.84272 0.87165
 C1006 C 0.21515 0.80787 0.88856
 C1007 C 0.21217 0.77806 0.85994
 C1008 C 0.20674 0.78350 0.81373
 C1009 C 0.21377 0.74378 0.87879
 N1010 N 0.22012 0.73971 0.92262
 N1011 N 0.22417 0.76760 0.94920
 C1012 C 0.22166 0.80144 0.93385
 H1013 H 0.18040 0.81995 0.76904
 H1014 H 0.18509 0.87154 0.81722
 H1015 H 0.20887 0.72020 0.85940
 H1016 H 0.22329 0.82278 0.95766
 C1017 C 0.28268 0.79160 0.09223
 C1018 C 0.28897 0.81857 0.06204
 C1019 C 0.31818 0.84309 0.06623
 C1020 C 0.34555 0.83446 0.09880
 C1021 C 0.34094 0.80339 0.12619
 C1022 C 0.30672 0.78475 0.12749
 C1023 C 0.37126 0.79157 0.15034
 N1024 N 0.40196 0.81199 0.15330
 N1025 N 0.40413 0.84355 0.13342
 C1026 C 0.37684 0.85566 0.10698
 H1027 H 0.25750 0.77665 0.08757
 H1028 H 0.26985 0.81979 0.03485
 H1029 H 0.37092 0.76609 0.16609
 H1030 H 0.37924 0.88265 0.09532
 C1031 C 0.78068 0.27883 0.60497
 C1032 C 0.78458 0.31106 0.58336
 C1033 C 0.81372 0.33448 0.59319
 C1034 C 0.84459 0.31965 0.61593
 C1035 C 0.84181 0.28431 0.63326
 C1036 C 0.80689 0.26749 0.63584
 C1037 C 0.87422 0.26674 0.64570
 N1038 N 0.90652 0.28506 0.64720
 N1039 N 0.90819 0.31955 0.63685
 C1040 C 0.87824 0.33759 0.62190
 H1041 H 0.75502 0.26458 0.60016
 H1042 H 0.76270 0.31873 0.56117
 H1043 H 0.87394 0.23879 0.65434
 H1044 H 0.88132 0.36560 0.61541
 C1045 C 0.21212 0.16944 0.67880
 C1046 C 0.20506 0.14121 0.65230
 C1047 C 0.18565 0.14598 0.61422
 C1048 C 0.16758 0.17930 0.60712
 C1049 C 0.17071 0.20755 0.63913
 C1050 C 0.19451 0.20328 0.67601
 C1051 C 0.15133 0.23926 0.63146
 N1052 N 0.13137 0.24309 0.59405
 N1053 N 0.12958 0.21741 0.56373
 C1054 C 0.14719 0.18577 0.56889
 H1055 H 0.23572 0.16420 0.69844
 H1056 H 0.21959 0.11638 0.65854
 H1057 H 0.15154 0.26091 0.65485
 H1058 H 0.14492 0.16587 0.54333
 C1059 C 0.65325 0.72067 0.15519
 C1060 C 0.65079 0.68945 0.13024
 C1061 C 0.66890 0.68699 0.08886
 C1062 C 0.68173 0.71869 0.06853
 C1063 C 0.68207 0.75054 0.09334
 C1064 C 0.67514 0.74902 0.13975
 C1065 C 0.68979 0.78255 0.07094
 N1066 N 0.70008 0.78197 0.02753
 N1067 N 0.70252 0.75156 0.00502
 C1068 C 0.69369 0.71986 0.02405
 H1069 H 0.64252 0.72052 0.18876
 H1070 H 0.63783 0.66638 0.14518
 H1071 H 0.68708 0.80799 0.08741
 H1072 H 0.69492 0.69609 0.00393
 C1073 C 0.25460 0.63176 0.14531
 C1074 C 0.24151 0.59688 0.13856
 C1075 C 0.20622 0.58670 0.15378
 C1076 C 0.18267 0.61264 0.17161
 C1077 C 0.19764 0.64498 0.18743
 C1078 C 0.23526 0.65600 0.17313
 C1079 C 0.17362 0.66321 0.21771
 N1080 N 0.13779 0.65364 0.22426
 N1081 N 0.12337 0.62571 0.20430
 C1082 C 0.14465 0.60484 0.17817
 H1083 H 0.28178 0.63866 0.13224
 H1084 H 0.25921 0.57769 0.12206
 H1085 H 0.18099 0.68602 0.23577
 H1086 H 0.13182 0.58182 0.16357
 C1087 C 0.75770 0.11736 0.66118
 C1088 C 0.74462 0.08284 0.65209
 C1089 C 0.70926 0.07176 0.66616
 C1090 C 0.68580 0.09671 0.68698
 C1091 C 0.70016 0.12968 0.70234
 C1092 C 0.73737 0.14134 0.68821
 C1093 C 0.67640 0.14789 0.73279
 N1094 N 0.64116 0.13726 0.74108
 N1095 N 0.62724 0.10842 0.72261
 C1096 C 0.64838 0.08773 0.69601
 H1097 H 0.78520 0.12449 0.64938
 H1098 H 0.76258 0.06442 0.63474
 H1099 H 0.68393 0.17085 0.75054
 H1100 H 0.63568 0.06419 0.68268
 C1101 C 0.77454 0.15289 0.26335
 C1102 C 0.79417 0.12142 0.26548
 C1103 C 0.80970 0.10875 0.30519
 C1104 C 0.80120 0.12915 0.34415
 C1105 C 0.78531 0.16425 0.34040
 C1106 C 0.77463 0.17755 0.29775
 C1107 C 0.77841 0.18314 0.38005
 N1108 N 0.78512 0.16794 0.41982
 N1109 N 0.79735 0.13468 0.42320
 C1110 C 0.80464 0.11460 0.38694
 H1111 H 0.76073 0.15842 0.23283
 H1112 H 0.79802 0.10845 0.23395
 H1113 H 0.76555 0.20877 0.38100
 H1114 H 0.81101 0.08687 0.39224
 C1115 C 0.26362 0.64001 0.80180
 C1116 C 0.27456 0.60653 0.81740
 C1117 C 0.31211 0.59714 0.82014
 C1118 C 0.33904 0.62227 0.80664
 C1119 C 0.32793 0.65325 0.78325
 C1120 C 0.28941 0.66410 0.78322
 C1121 C 0.35554 0.66879 0.75609
 N1122 N 0.39158 0.65910 0.75897
 N1123 N 0.40234 0.63364 0.78638
 C1124 C 0.37728 0.61480 0.81031
 H1125 H 0.23427 0.64587 0.80160
 H1126 H 0.25337 0.58728 0.82634
 H1127 H 0.34932 0.68779 0.73126
 H1128 H 0.38760 0.59348 0.83061
 C1129 C 0.29974 0.34622 0.70909
 C1130 C 0.31418 0.37981 0.70264
 C1131 C 0.29250 0.40697 0.68599
 C1132 C 0.25617 0.39938 0.67200
 C1133 C 0.24109 0.36438 0.67766
 C1134 C 0.26248 0.33742 0.69914
 C1135 C 0.20554 0.35822 0.66093
 N1136 N 0.18633 0.38507 0.64179
 N1137 N 0.20012 0.41779 0.63794
 C1138 C 0.23436 0.42588 0.65246
 H1139 H 0.31786 0.32781 0.72568
 H1140 H 0.34225 0.38510 0.71301
 H1141 H 0.19297 0.33243 0.66107
 H1142 H 0.24443 0.45281 0.64809
 C1143 C 0.77794 0.87258 0.14990
 C1144 C 0.79566 0.90501 0.14357
 C1145 C 0.78889 0.93374 0.17213
 C1146 C 0.75741 0.93029 0.20153
 C1147 C 0.74121 0.89604 0.21025
 C1148 C 0.75451 0.86555 0.18667
 C1149 C 0.71122 0.89439 0.24060
 N1150 N 0.69736 0.92457 0.25905
 N1151 N 0.71103 0.95648 0.24899
 C1152 C 0.74000 0.96038 0.22036
 H1153 H 0.78471 0.85243 0.12628
 H1154 H 0.81707 0.90564 0.11820
 H1155 H 0.69717 0.87002 0.24852
 H1156 H 0.74865 0.98710 0.21165
 C1157 C 0.74846 0.85148 0.84927
 C1158 C 0.73576 0.88605 0.85984
 C1159 C 0.70125 0.89819 0.84541
 C1160 C 0.67848 0.87417 0.82330
 C1161 C 0.69414 0.84302 0.80406
 C1162 C 0.72965 0.82960 0.81873
 C1163 C 0.67472 0.82974 0.76778
 N1164 N 0.64047 0.84182 0.75756
 N1165 N 0.62397 0.86759 0.78055
 C1166 C 0.64188 0.88416 0.81344
 H1167 H 0.77535 0.84366 0.86126
 H1168 H 0.75394 0.90407 0.87703
 H1169 H 0.68585 0.81011 0.74668
 H1170 H 0.62844 0.90641 0.82990
 C1171 C 0.22060 0.36280 0.28250
 C1172 C 0.20365 0.39566 0.28523
 C1173 C 0.20151 0.41476 0.32486
 C1174 C 0.21569 0.39832 0.36337
 C1175 C 0.22918 0.36216 0.36173
 C1176 C 0.23185 0.34356 0.31975
 C1177 C 0.24006 0.34706 0.40241
 N1178 N 0.23994 0.36676 0.43999
 N1179 N 0.22965 0.40076 0.44041
 C1180 C 0.21779 0.41722 0.40339
 H1181 H 0.22224 0.35214 0.25014
 H1182 H 0.19256 0.40650 0.25490
 H1183 H 0.24887 0.32007 0.40587
 H1184 H 0.21074 0.44512 0.40564
 C1185 C 0.13181 0.28190 0.77341
 C1186 C 0.10305 0.29494 0.80015
 C1187 C 0.10301 0.28968 0.84597
 C1188 C 0.13178 0.27015 0.86539
 C1189 C 0.15931 0.25369 0.83828
 C1190 C 0.16082 0.26143 0.79106
 C1191 C 0.18343 0.22981 0.86024
 N1192 N 0.18215 0.22589 0.90484
 N1193 N 0.15776 0.24336 0.92994
 C1194 C 0.13244 0.26517 0.91177
 H1195 H 0.13121 0.28797 0.73834
 H1196 H 0.08010 0.30859 0.78484
 H1197 H 0.20322 0.21350 0.84348
 H1198 H 0.11293 0.27823 0.93387
 C1199 C 0.63104 0.77879 0.24781
 C1200 C 0.60170 0.78404 0.27739
 C1201 C 0.60562 0.77653 0.32237
 C1202 C 0.63860 0.76164 0.33799
 C1203 C 0.66751 0.75303 0.30766
 C1204 C 0.66483 0.76449 0.26195
 C1205 C 0.69676 0.73201 0.32465
 N1206 N 0.69872 0.72476 0.36853
 N1207 N 0.67293 0.73592 0.39716
 C1208 C 0.64277 0.75384 0.38336
 H1209 H 0.62744 0.78700 0.21372
 H1210 H 0.57573 0.79431 0.26517
 H1211 H 0.71714 0.71913 0.30397
 H1212 H 0.62215 0.76150 0.40795
 C1213 C 0.65478 0.27387 0.20809
 C1214 C 0.62723 0.26214 0.18070
 C1215 C 0.60474 0.23376 0.19300
 C1216 C 0.60825 0.21874 0.23579
 C1217 C 0.63645 0.23107 0.26457
 C1218 C 0.66231 0.25733 0.24937
 C1219 C 0.63697 0.21711 0.30775
 N1220 N 0.61235 0.19165 0.32041
 N1221 N 0.58688 0.17939 0.29297
 C1222 C 0.58387 0.19218 0.25118
 H1223 H 0.67227 0.29461 0.19444
 H1224 H 0.62362 0.27530 0.14905
 H1225 H 0.65546 0.22717 0.33224
 H1226 H 0.56230 0.18167 0.23050
 C1227 C 0.17742 0.73665 0.65716
 C1228 C 0.14613 0.73104 0.63260
 C1229 C 0.11191 0.72746 0.65323
 C1230 C 0.10902 0.72885 0.70008
 C1231 C 0.14132 0.73403 0.72595
 C1232 C 0.17653 0.73879 0.70425
 C1233 C 0.13667 0.73346 0.77235
 N1234 N 0.10260 0.72902 0.79108
 N1235 N 0.07258 0.72468 0.76676
 C1236 C 0.07464 0.72428 0.72196
 H1237 H 0.20250 0.73943 0.63754
 H1238 H 0.14863 0.73017 0.59677
 H1239 H 0.15938 0.73585 0.79434
 H1240 H 0.04942 0.71995 0.70391
 C1241 C 0.87186 0.74526 0.72360
 C1242 C 0.90377 0.75230 0.69964
 C1243 C 0.92492 0.78254 0.70794
 C1244 C 0.91556 0.80337 0.74584
 C1245 C 0.88328 0.79514 0.77232
 C1246 C 0.86009 0.76566 0.76058
 C1247 C 0.87544 0.81762 0.80864
 N1248 N 0.89814 0.84511 0.81819
 N1249 N 0.92873 0.85166 0.79456
 C1250 C 0.93848 0.83145 0.75922
 H1251 H 0.85504 0.72432 0.71027
 H1252 H 0.90919 0.73589 0.67072
 H1253 H 0.85220 0.81388 0.83046
 H1254 H 0.96440 0.83722 0.74228
 C1255 C 0.36682 0.24295 0.26022
 C1256 C 0.39669 0.25160 0.23369
 C1257 C 0.41532 0.28371 0.23875
 C1258 C 0.40568 0.30572 0.27539
 C1259 C 0.37557 0.29592 0.30441
 C1260 C 0.35354 0.26534 0.29471
 C1261 C 0.36827 0.31773 0.34132
 N1262 N 0.38778 0.34816 0.34707
 N1263 N 0.41497 0.35775 0.31922
 C1264 C 0.42506 0.33723 0.28415
 H1265 H 0.35165 0.21974 0.24984
 H1266 H 0.40300 0.23411 0.20603
 H1267 H 0.34813 0.31050 0.36643
 H1268 H 0.44847 0.34552 0.26388
 C1269 C 0.37543 0.71888 0.22825
 C1270 C 0.40383 0.70643 0.25495
 C1271 C 0.40539 0.71601 0.29946
 C1272 C 0.37912 0.73976 0.31752
 C1273 C 0.35071 0.75392 0.29059
 C1274 C 0.34759 0.74214 0.24455
 C1275 C 0.32614 0.77821 0.31223
 N1276 N 0.32942 0.78644 0.35561
 N1277 N 0.35557 0.77223 0.38031
 C1278 C 0.38034 0.74909 0.36289
 H1279 H 0.37422 0.70841 0.19491
 H1280 H 0.42448 0.68856 0.24092
 H1281 H 0.30368 0.79091 0.29660
 H1282 H 0.40057 0.73804 0.38504
 C1283 C 0.87327 0.19794 0.74743
 C1284 C 0.89808 0.19351 0.78189
 C1285 C 0.90686 0.22192 0.80984
 C1286 C 0.89390 0.25653 0.79820
 C1287 C 0.87153 0.26102 0.76033
 C1288 C 0.85546 0.23091 0.73987
 C1289 C 0.86869 0.29536 0.74262
 N1290 N 0.88383 0.32349 0.76377
 N1291 N 0.89936 0.31981 0.80312
 C1292 C 0.90300 0.28739 0.82220
 H1293 H 0.86550 0.17431 0.72933
 H1294 H 0.90977 0.16730 0.78729
 H1295 H 0.85292 0.30069 0.71367
 H1296 H 0.91414 0.28626 0.85511
 C1297 C 0.60809 0.95443 0.55881
 C1298 C 0.63405 0.96342 0.59020
 C1299 C 0.62363 0.97365 0.63293
 C1300 C 0.58514 0.97132 0.64484
 C1301 C 0.55834 0.96138 0.61224
 C1302 C 0.56929 0.95610 0.56682
 C1303 C 0.52102 0.95909 0.62597
 N1304 N 0.51070 0.96801 0.66784
 N1305 N 0.53510 0.97933 0.69712
 C1306 C 0.57170 0.98168 0.68700
 H1307 H 0.61980 0.95078 0.52657
 H1308 H 0.66303 0.96374 0.58007
 H1309 H 0.49981 0.95029 0.60397
 H1310 H 0.58953 0.99233 0.71198
 C1311 C 0.06149 0.46802 1.10167
 C1312 C 0.08867 0.47475 1.13337
 C1313 C 0.12549 0.48196 1.12060
 C1314 C 0.13542 0.47765 1.07587
 C1315 C 0.10766 0.47899 1.04308
 C1316 C 0.06876 0.47266 1.05587
 C1317 C 0.12120 0.48965 1.00055
 N1318 N 0.15800 0.49096 0.99091
 N1319 N 0.18328 0.48358 1.02095
 C1320 C 0.17311 0.47641 1.06318
 H1321 H 0.03341 0.46361 1.11362
 H1322 H 0.08016 0.47655 1.16785
 H1323 H 0.10431 0.49866 0.97450
 H1324 H 0.19454 0.47182 1.08722
 C1325 C -0.09490 0.01304 1.02882
 C1326 C -0.11803 0.00585 1.06499
 C1327 C -0.10462 0.00458 1.10826
 C1328 C -0.06636 0.01365 1.11410
 C1329 C -0.04400 0.02532 1.07720
 C1330 C -0.05687 0.02132 1.03307
 C1331 C -0.00854 0.03877 1.08593
 N1332 N 0.00569 0.03592 1.12699
 N1333 N -0.01316 0.02046 1.15997
 C1334 C -0.04825 0.00868 1.15475
 H1335 H -0.10699 0.00833 0.99701
 H1336 H -0.14687 0.00054 1.05835
 H1337 H 0.00791 0.05195 1.06078
 H1338 H -0.06113 -0.00518 1.18229
 C1339 C 0.42445 0.51279 0.57361
 C1340 C 0.40289 0.51324 0.61284
 C1341 C 0.36571 0.50220 0.61267
 C1342 C 0.34923 0.49703 0.57143
 C1343 C 0.37162 0.48847 0.53413
 C1344 C 0.41077 0.49838 0.53381
 C1345 C 0.35293 0.46857 0.50135
 N1346 N 0.31541 0.46674 0.50101
 N1347 N 0.29459 0.48148 0.53265
 C1348 C 0.31035 0.49679 0.56801
 H1349 H 0.45322 0.52062 0.57563
 H1350 H 0.41640 0.51923 0.64369
 H1351 H 0.36646 0.45363 0.47594
 H1352 H 0.29265 0.50668 0.59460
 C1353 C 0.38210 0.49349 -0.03546
 C1354 C 0.36263 0.49753 -0.07379
 C1355 C 0.38042 0.49562 -0.11467
 C1356 C 0.41734 0.48207 -0.11656
 C1357 C 0.43585 0.47287 -0.07641
 C1358 C 0.41959 0.48198 -0.03448
 C1359 C 0.47085 0.45670 -0.08000
 N1360 N 0.48747 0.45271 -0.12029
 N1361 N 0.47148 0.46382 -0.15726
 C1362 C 0.43719 0.47861 -0.15676
 H1363 H 0.36784 0.50496 -0.00757
 H1364 H 0.33428 0.50704 -0.07112
 H1365 H 0.48479 0.44646 -0.05137
 H1366 H 0.42609 0.48755 -0.18780
 C1367 C -0.10800 1.00633 0.45058
 C1368 C -0.12284 1.01832 0.41124
 C1369 C -0.10156 1.02022 0.37247
 C1370 C -0.06529 1.00531 0.37282
 C1371 C -0.05073 0.99088 0.41299
 C1372 C -0.07055 0.99501 0.45407
 C1373 C -0.01602 0.97402 0.41079
 N1374 N 0.00389 0.97390 0.37230
 N1375 N -0.00859 0.98944 0.33577
 C1376 C -0.04234 1.00528 0.33478
 H1377 H -0.12536 1.01142 0.47914
 H1378 H -0.15114 1.02803 0.41180
 H1379 H -0.00494 0.96020 0.43901
 H1380 H -0.05072 1.01785 0.30432
 C1381 C 0.10320 0.52981 0.45463
 C1382 C 0.12701 0.51910 0.42025
 C1383 C 0.11452 0.51497 0.37702
 C1384 C 0.07779 0.52639 0.36782
 C1385 C 0.05424 0.53985 0.40270
 C1386 C 0.06516 0.53727 0.44794
 C1387 C 0.01954 0.55370 0.39111
 N1388 N 0.00787 0.55149 0.34878
 N1389 N 0.02855 0.53636 0.31711
 C1390 C 0.06287 0.52350 0.32523
 H1391 H 0.11426 0.52680 0.48722
 H1392 H 0.15515 0.51166 0.42825
 H1393 H 0.00180 0.56679 0.41512
 H1394 H 0.07783 0.51086 0.29828
 C1395 C 0.62874 0.03088 -0.03542
 C1396 C 0.65285 0.01896 -0.06886
 C1397 C 0.64088 0.01482 -0.11240
 C1398 C 0.60536 0.02871 -0.12329
 C1399 C 0.58276 0.04474 -0.08962
 C1400 C 0.59154 0.04027 -0.04407
 C1401 C 0.55047 0.06239 -0.10249
 N1402 N 0.53905 0.06065 -0.14492
 N1403 N 0.55794 0.04228 -0.17543
 C1404 C 0.59033 0.02587 -0.16601
 H1405 H 0.63829 0.02692 -0.00223
 H1406 H 0.68010 0.00967 -0.05967
 H1407 H 0.53455 0.07777 -0.07915
 H1408 H 0.60329 0.01053 -0.19208
 C1409 C 0.56011 0.56970 0.00405
 C1410 C 0.59413 0.58693 0.00793
 C1411 C 0.62343 0.57214 0.03192
 C1412 C 0.61819 0.53726 0.04954
 C1413 C 0.58328 0.51928 0.04476
 C1414 C 0.55215 0.53733 0.02562
 C1415 C 0.58133 0.48365 0.05924
 N1416 N 0.60987 0.46871 0.08119
 N1417 N 0.64073 0.48666 0.08928
 C1418 C 0.64583 0.52035 0.07436
 H1419 H 0.53954 0.58322 -0.01475
 H1420 H 0.59730 0.61287 -0.00749
 H1421 H 0.55825 0.46678 0.05187
 H1422 H 0.67145 0.53345 0.08228
 C1423 C 0.08052 1.01852 0.52988
 C1424 C 0.11881 1.02310 0.52858
 C1425 C 0.13380 1.05537 0.51454
 C1426 C 0.11027 1.08138 0.49712
 C1427 C 0.07249 1.08058 0.50937
 C1428 C 0.05585 1.04749 0.52289
 C1429 C 0.05489 1.11376 0.51082
 N1430 N 0.07055 1.14293 0.49164
 N1431 N 0.10432 1.14172 0.47349
 C1432 C 0.12510 1.11183 0.47627
 H1433 H 0.07067 0.99255 0.54009
 H1434 H 0.13652 1.00245 0.54175
 H1435 H 0.03003 1.11730 0.52876
 H1436 H 0.15366 1.11243 0.46485
 C1437 C 0.08251 -0.07852 0.96708
 C1438 C 0.11830 -0.09044 0.95998
 C1439 C 0.14845 -0.06713 0.96165
 C1440 C 0.14217 -0.03256 0.97942
 C1441 C 0.10576 -0.02251 0.99424
 C1442 C 0.07455 -0.04402 0.98289
 C1443 C 0.10223 0.00944 1.01818
 N1444 N 0.13150 0.03177 1.02157
 N1445 N 0.16423 0.02424 1.00294
 C1446 C 0.17047 -0.00700 0.98168
 H1447 H 0.06139 -0.09577 0.95457
 H1448 H 0.12185 -0.11762 0.94866
 H1449 H 0.07714 0.01634 1.03584
 H1450 H 0.19738 -0.01120 0.96651
 C1451 C 0.55661 0.41950 0.51740
 C1452 C 0.59160 0.40521 0.52544
 C1453 C 0.62433 0.42263 0.51211
 C1454 C 0.62062 0.45714 0.49265
 C1455 C 0.58457 0.47277 0.48722
 C1456 C 0.55159 0.45202 0.49517
 C1457 C 0.58346 0.50882 0.47415
 N1458 N 0.61473 0.52585 0.46080
 N1459 N 0.64747 0.50967 0.46033
 C1460 C 0.65147 0.47599 0.47552
 H1461 H 0.53346 0.40356 0.52727
 H1462 H 0.59298 0.37927 0.54118
 H1463 H 0.55866 0.52452 0.47618
 H1464 H 0.67877 0.46451 0.47343
 C1465 C -0.07462 0.43338 0.48236
 C1466 C -0.10938 0.41798 0.48691
 C1467 C -0.14034 0.43820 0.49984
 C1468 C -0.13725 0.47597 0.49573
 C1469 C -0.10235 0.49168 0.48312
 C1470 C -0.06924 0.47049 0.48342
 C1471 C -0.10168 0.52849 0.47459
 N1472 N -0.13220 0.54865 0.48253
 N1473 N -0.16346 0.53456 0.49849
 C1474 C -0.16691 0.49910 0.50581
 H1475 H -0.05211 0.41495 0.48176
 H1476 H -0.11092 0.38920 0.48551
 H1477 H -0.07767 0.54146 0.46066
 H1478 H -0.19280 0.48986 0.51958
 C1479 C 0.45240 -0.06787 -0.02061
 C1480 C 0.41890 -0.08473 -0.02610
 C1481 C 0.38602 -0.06529 -0.02748
 C1482 C 0.38906 -0.02768 -0.03452
 C1483 C 0.42497 -0.01131 -0.03862
 C1484 C 0.45740 -0.03089 -0.02673
 C1485 C 0.42646 0.02480 -0.05078
 N1486 N 0.39489 0.04410 -0.05394
 N1487 N 0.36182 0.02979 -0.04566
 C1488 C 0.35786 -0.00519 -0.03557
 H1489 H 0.47304 -0.08469 -0.00654
 H1490 H 0.41864 -0.11347 -0.02339
 H1491 H 0.45215 0.03786 -0.05879
 H1492 H 0.33033 -0.01452 -0.02799
 C1493 C 0.41214 1.00700 0.50321
 C1494 C 0.37557 1.01951 0.50119
 C1495 C 0.36769 1.05567 0.50699
 C1496 C 0.39651 1.07863 0.51831
 C1497 C 0.43362 1.06805 0.51023
 C1498 C 0.44277 1.03052 0.50550
 C1499 C 0.45818 1.09658 0.50361
 N1500 N 0.44928 1.13025 0.51613
 N1501 N 0.41590 1.13823 0.53232
 C1502 C 0.38886 1.11346 0.53333
 H1503 H 0.41634 0.97861 0.49950
 H1504 H 0.35352 1.00103 0.49384
 H1505 H 0.48277 1.09361 0.48475
 H1506 H 0.36129 1.12134 0.54411
 C1507 C -0.07433 0.57099 1.05118
 C1508 C -0.10827 0.58893 1.04710
 C1509 C -0.14111 0.57055 1.03717
 C1510 C -0.14009 0.53277 1.03899
 C1511 C -0.10580 0.51488 1.04650
 C1512 C -0.07160 0.53423 1.04406
 C1513 C -0.10716 0.47800 1.05486
 N1514 N -0.13922 0.45982 1.05014
 N1515 N -0.17026 0.47605 1.03816
 C1516 C -0.17174 0.51177 1.03206
 H1517 H -0.04978 0.58640 1.05700
 H1518 H -0.10837 0.61776 1.04866
 H1519 H -0.08327 0.46344 1.06581
 H1520 H -0.19771 0.52303 1.02197
 C1521 C 0.01626 0.60907 0.51103
 C1522 C 0.02611 0.64364 0.52270
 C1523 C 0.02493 0.65420 0.56701
 C1524 C 0.00903 0.63148 0.59939
 C1525 C -0.00230 0.59673 0.58745
 C1526 C 0.00634 0.58383 0.54367
 C1527 C -0.02290 0.57733 0.61965
 N1528 N -0.02806 0.59035 0.66115
 N1529 N -0.01490 0.62190 0.67291
 C1530 C 0.00328 0.64299 0.64345
 H1531 H 0.02052 0.60115 0.47690
 H1532 H 0.03643 0.66168 0.49733
 H1533 H -0.03705 0.55304 0.61238
 H1534 H 0.01227 0.66886 0.65461
 C1535 C 0.53640 0.09057 0.09423
 C1536 C 0.54033 0.12405 0.11269
 C1537 C 0.53568 0.15481 0.08753
 C1538 C 0.52470 0.15124 0.04279
 C1539 C 0.51803 0.11670 0.02456
 C1540 C 0.52731 0.08544 0.04918
 C1541 C 0.50092 0.11537 -0.01681
 N1542 N 0.49579 0.14555 -0.04067
 N1543 N 0.50579 0.17731 -0.02552
 C1544 C 0.52004 0.18119 0.01539
 H1545 H 0.54221 0.06853 0.11612
 H1546 H 0.54747 0.12582 0.14735
 H1547 H 0.48979 0.09118 -0.02973
 H1548 H 0.52742 0.20766 0.02611
 C1549 C -0.01218 0.09848 0.97253
 C1550 C -0.02673 0.13152 0.96059
 C1551 C -0.02810 0.14176 0.91596
 C1552 C -0.00883 0.12113 0.88376
 C1553 C 0.00693 0.08816 0.89620
 C1554 C -0.00079 0.07423 0.93971
 C1555 C 0.03127 0.07167 0.86517
 N1556 N 0.03575 0.08508 0.82378
 N1557 N 0.01877 0.11474 0.81132
 C1558 C -0.00292 0.13343 0.83989
 H1559 H -0.01506 0.09015 1.00671
 H1560 H -0.03807 0.14877 0.98617
 H1561 H 0.04843 0.04937 0.87337
 H1562 H -0.01420 0.15818 0.82803
 C1563 C 0.47592 0.58206 0.45231
 C1564 C 0.47709 0.61698 0.43636
 C1565 C 0.47011 0.62435 0.39178
 C1566 C 0.46407 0.59598 0.36262
 C1567 C 0.45480 0.56203 0.37971
 C1568 C 0.46267 0.55394 0.42605
 C1569 C 0.43814 0.53873 0.34865
 N1570 N 0.43871 0.54612 0.30469
 N1571 N 0.45345 0.57593 0.28877
 C1572 C 0.46632 0.60110 0.31632
 H1573 H 0.48331 0.57739 0.48647
 H1574 H 0.48329 0.63835 0.45910
 H1575 H 0.42397 0.51485 0.35743
 H1576 H 0.47769 0.62521 0.30190
 C1577 C 0.51826 0.90350 0.41680
 C1578 C 0.52052 0.86992 0.39924
 C1579 C 0.52099 0.84020 0.42652
 C1580 C 0.51348 0.84425 0.47247
 C1581 C 0.50947 0.87915 0.49076
 C1582 C 0.51537 0.90964 0.46285
 C1583 C 0.50263 0.88179 0.53662
 N1584 N 0.50050 0.85206 0.56211
 N1585 N 0.50511 0.81969 0.54505
 C1586 C 0.51184 0.81477 0.50122
 H1587 H 0.52135 0.92447 0.39290
 H1588 H 0.52456 0.86730 0.36371
 H1589 H 0.49923 0.90686 0.55282
 H1590 H 0.51601 0.78790 0.48950
 C1591 C 0.00940 0.38847 1.01664
 C1592 C 0.02254 0.35686 0.99720
 C1593 C 0.01478 0.34933 0.95277
 C1594 C -0.01243 0.36946 0.93094
 C1595 C -0.02749 0.39963 0.95212
 C1596 C -0.00964 0.41319 0.99061
 C1597 C -0.05989 0.41451 0.93403
 N1598 N -0.07248 0.40304 0.89450
 N1599 N -0.05556 0.37702 0.87221
 C1600 C -0.02596 0.35981 0.88901
 H1601 H 0.01958 0.39608 1.04883
 H1602 H 0.04078 0.33964 1.01569
 H1603 H -0.07631 0.43410 0.95132
 H1604 H -0.01399 0.33823 0.86988
 C1605 C 0.47797 0.40960 0.06260
 C1606 C 0.47802 0.37483 0.07952
 C1607 C 0.44990 0.36294 0.10894
 C1608 C 0.42097 0.38719 0.11893
 C1609 C 0.42700 0.42406 0.11273
 C1610 C 0.45317 0.43566 0.07906
 C1611 C 0.40618 0.44652 0.14127
 N1612 N 0.37555 0.43394 0.16272
 N1613 N 0.36524 0.40008 0.15921
 C1614 C 0.38673 0.37626 0.13711
 H1615 H 0.49937 0.41650 0.03859
 H1616 H 0.50090 0.35783 0.06990
 H1617 H 0.41275 0.47393 0.14648
 H1618 H 0.37825 0.34862 0.13637
 C1619 C -0.01160 0.91925 0.54944
 C1620 C -0.01039 0.88377 0.56347
 C1621 C -0.03840 0.86959 0.59132
 C1622 C -0.06823 0.89214 0.60310
 C1623 C -0.06345 0.92930 0.60021
 C1624 C -0.03754 0.94339 0.56771
 C1625 C -0.08497 0.94940 0.63076
 N1626 N -0.11486 0.93457 0.65148
 N1627 N -0.12404 0.90073 0.64497
 C1628 C -0.10198 0.87904 0.62040
 H1629 H 0.00963 0.92814 0.52624
 H1630 H 0.01312 0.86796 0.55282
 H1631 H -0.07950 0.97662 0.63843
 H1632 H -0.10950 0.85128 0.61717
 C1633 C 0.27754 0.31773 0.19213
 C1634 C 0.27556 0.34377 0.16002
 C1635 C 0.24170 0.35476 0.14276
 C1636 C 0.20916 0.33572 0.15647
 C1637 C 0.21167 0.30759 0.18852
 C1638 C 0.24561 0.30128 0.21057
 C1639 C 0.17993 0.28731 0.19759
 N1640 N 0.14704 0.29675 0.18002
 N1641 N 0.14388 0.32507 0.15373
 C1642 C 0.17368 0.34500 0.14165
 H1643 H 0.30509 0.31187 0.20365
 H1644 H 0.30146 0.35509 0.14810
 H1645 H 0.18128 0.26333 0.21708
 H1646 H 0.16915 0.36810 0.12104
 C1647 C 0.73474 0.79565 0.66311
 C1648 C 0.73588 0.81604 0.62403
 C1649 C 0.74018 0.85312 0.62568
 C1650 C 0.73882 0.86958 0.66738
 C1651 C 0.74720 0.84944 0.70567
 C1652 C 0.74275 0.81082 0.70475
 C1653 C 0.76253 0.86971 0.74053
 N1654 N 0.76293 0.90581 0.73921
 N1655 N 0.74846 0.92391 0.70587
 C1656 C 0.73488 0.90677 0.67053
 H1657 H 0.73160 0.76711 0.65984
 H1658 H 0.73556 0.80244 0.59245
 H1659 H 0.77619 0.85863 0.76809
 H1660 H 0.72452 0.92236 0.64316
 C1661 C 0.29753 0.65438 0.67702
 C1662 C 0.27950 0.63315 0.64627
 C1663 C 0.26675 0.64726 0.60657
 C1664 C 0.27821 0.68246 0.59516
 C1665 C 0.29789 0.70356 0.62651
 C1666 C 0.30155 0.69173 0.67124
 C1667 C 0.31048 0.73732 0.61328
 N1668 N 0.30231 0.75003 0.57253
 N1669 N 0.28227 0.73125 0.54424
 C1670 C 0.26967 0.69813 0.55428
 H1671 H 0.30261 0.64142 0.70770
 H1672 H 0.27362 0.60565 0.65484
 H1673 H 0.32658 0.75364 0.63528
 H1674 H 0.25309 0.68457 0.53017
 C1675 C 0.74589 0.20711 0.15644
 C1676 C 0.74072 0.17612 0.13310
 C1677 C 0.76748 0.14944 0.13244
 C1678 C 0.80244 0.15691 0.15137
 C1679 C 0.80715 0.18873 0.17679
 C1680 C 0.77650 0.21179 0.18488
 C1681 C 0.84246 0.19647 0.19214
 N1682 N 0.87048 0.17272 0.18623
 N1683 N 0.86548 0.14190 0.16536
 C1684 C 0.83241 0.13317 0.14769
 H1685 H 0.72276 0.22532 0.15530
 H1686 H 0.71507 0.17299 0.11527
 H1687 H 0.84832 0.22194 0.20662
 H1688 H 0.82988 0.10792 0.13082
 C1689 C 0.72894 0.18781 0.83459
 C1690 C 0.73127 0.16984 0.87542
 C1691 C 0.73790 0.13307 0.87640
 C1692 C 0.73657 0.11439 0.83650
 C1693 C 0.74698 0.13267 0.79744
 C1694 C 0.73962 0.17076 0.79447
 C1695 C 0.76838 0.11188 0.76731
 N1696 N 0.76988 0.07590 0.77112
 N1697 N 0.75298 0.05877 0.80426
 C1698 C 0.73581 0.07697 0.83714
 H1699 H 0.72385 0.21623 0.83522
 H1700 H 0.73083 0.18504 0.90587
 H1701 H 0.78585 0.12291 0.74206
 H1702 H 0.72551 0.06256 0.86592
 C1703 C 0.21571 0.67745 0.30951
 C1704 C 0.21535 0.65305 0.34545
 C1705 C 0.24521 0.62933 0.35184
 C1706 C 0.27537 0.63190 0.32231
 C1707 C 0.26983 0.64603 0.27997
 C1708 C 0.24193 0.67448 0.27424
 C1709 C 0.29459 0.63182 0.24713
 N1710 N 0.32672 0.61574 0.25840
 N1711 N 0.33539 0.61080 0.30045
 C1712 C 0.31086 0.61910 0.33299
 H1713 H 0.19473 0.69806 0.30876
 H1714 H 0.19232 0.65348 0.36885
 H1715 H 0.29111 0.63532 0.21278
 H1716 H 0.31840 0.61380 0.36652
 C1717 C 0.79034 0.79591 0.31488
 C1718 C 0.77606 0.81480 0.35127
 C1719 C 0.77246 0.85191 0.34911
 C1720 C 0.79070 0.86969 0.31383
 C1721 C 0.80249 0.85006 0.27595
 C1722 C 0.79465 0.81325 0.27337
 C1723 C 0.82464 0.86719 0.24406
 N1724 N 0.83487 0.90151 0.25034
 N1725 N 0.82311 0.92008 0.28545
 C1726 C 0.80037 0.90568 0.31676
 H1727 H 0.78992 0.76711 0.31689
 H1728 H 0.76591 0.80026 0.38002
 H1729 H 0.83489 0.85341 0.21512
 H1730 H 0.79212 0.92172 0.34500
 C1731 C 0.26974 0.34758 0.80371
 C1732 C 0.25561 0.36518 0.84052
 C1733 C 0.25147 0.34781 0.88091
 C1734 C 0.26915 0.31416 0.88602
 C1735 C 0.28673 0.29752 0.84857
 C1736 C 0.28111 0.31129 0.80509
 C1737 C 0.30617 0.26565 0.85530
 N1738 N 0.30597 0.25016 0.89590
 N1739 N 0.28752 0.26439 0.93013
 C1740 C 0.26882 0.29561 0.92649
 H1741 H 0.26367 0.36161 0.77406
 H1742 H 0.24420 0.39169 0.83614
 H1743 H 0.32145 0.25305 0.82848
 H1744 H 0.25392 0.30540 0.95527
 C1745 C 0.79826 0.31616 0.77578
 C1746 C 0.81024 0.35179 0.77787
 C1747 C 0.80140 0.37580 0.74408
 C1748 C 0.77253 0.36682 0.71557
 C1749 C 0.75846 0.33154 0.71563
 C1750 C 0.77813 0.30411 0.73926
 C1751 C 0.72359 0.32676 0.69585
 N1752 N 0.70750 0.35367 0.67308
 N1753 N 0.72322 0.38554 0.66932
 C1754 C 0.75545 0.39297 0.68949
 H1755 H 0.80865 0.29733 0.79979
 H1756 H 0.82945 0.35952 0.80326
 H1757 H 0.70689 0.30353 0.70154
 H1758 H 0.76619 0.41979 0.68707
 C1759 C 0.32238 0.82633 0.22781
 C1760 C 0.33505 0.86092 0.22739
 C1761 C 0.31105 0.88996 0.22363
 C1762 C 0.27226 0.88292 0.22462
 C1763 C 0.25894 0.84675 0.22697
 C1764 C 0.28463 0.81738 0.22643
 C1765 C 0.22028 0.84181 0.22862
 N1766 N 0.19702 0.87004 0.22573
 N1767 N 0.20948 0.90316 0.22118
 C1768 C 0.24616 0.91052 0.22019
 H1769 H 0.34363 0.80653 0.22821
 H1770 H 0.36477 0.86488 0.22859
 H1771 H 0.20779 0.81616 0.23268
 H1772 H 0.25434 0.93788 0.21540
 C1773 C 0.20223 0.82506 0.68900
 C1774 C 0.18451 0.85828 0.68999
 C1775 C 0.19972 0.88715 0.71269
 C1776 C 0.23566 0.88350 0.73007
 C1777 C 0.25470 0.85026 0.72688
 C1778 C 0.23550 0.81909 0.71158
 C1779 C 0.29220 0.84998 0.73945
 N1780 N 0.30752 0.87892 0.75859
 N1781 N 0.28833 0.90869 0.76539
 C1782 C 0.25297 0.91197 0.75185
 H1783 H 0.18769 0.80346 0.67392
 H1784 H 0.15726 0.86069 0.67578
 H1785 H 0.31029 0.82785 0.73298
 H1786 H 0.23907 0.93700 0.75792
 C1787 C 0.74013 0.36313 0.23064
 C1788 C 0.72797 0.39894 0.22910
 C1789 C 0.69012 0.40688 0.23438
 C1790 C 0.66555 0.37790 0.23426
 C1791 C 0.67795 0.34602 0.25347
 C1792 C 0.71620 0.33596 0.24709
 C1793 C 0.65143 0.32828 0.28030
 N1794 N 0.61478 0.33556 0.27603
 N1795 N 0.60300 0.36141 0.24949
 C1796 C 0.62739 0.38313 0.22827
 H1797 H 0.76933 0.35769 0.22537
 H1798 H 0.74817 0.42017 0.22697
 H1799 H 0.65879 0.30849 0.30415
 H1800 H 0.61722 0.40648 0.21117
 C1801 C 0.69213 0.68298 0.23230
 C1802 C 0.67983 0.64824 0.22886
 C1803 C 0.69805 0.62380 0.20170
 C1804 C 0.73129 0.63387 0.18020
 C1805 C 0.74487 0.66956 0.18426
 C1806 C 0.72342 0.69575 0.20890
 C1807 C 0.77953 0.67672 0.16365
 N1808 N 0.79771 0.65117 0.14018
 N1809 N 0.78409 0.61854 0.13569
 C1810 C 0.75146 0.60905 0.15482
 H1811 H 0.67448 0.70005 0.25129
 H1812 H 0.65451 0.64072 0.24629
 H1813 H 0.79369 0.70152 0.16667
 H1814 H 0.74172 0.58207 0.15035
 C1815 C 0.23573 0.15242 0.77670
 C1816 C 0.22373 0.11703 0.76833
 C1817 C 0.18560 0.10910 0.76695
 C1818 C 0.16172 0.13537 0.78343
 C1819 C 0.17129 0.17116 0.77477
 C1820 C 0.21036 0.18128 0.77306
 C1821 C 0.14064 0.19219 0.76251
 N1822 N 0.10558 0.18253 0.77426
 N1823 N 0.09841 0.15124 0.79319
 C1824 C 0.12557 0.12673 0.79748
 H1825 H 0.26521 0.15767 0.77598
 H1826 H 0.24400 0.09704 0.75897
 H1827 H 0.14310 0.21442 0.74064
 H1828 H 0.11847 0.09988 0.80763
 C1829 C 0.27243 0.15525 0.28736
 C1830 C 0.28153 0.11880 0.28860
 C1831 C 0.31796 0.10774 0.29597
 C1832 C 0.34543 0.13409 0.30023
 C1833 C 0.33512 0.16986 0.30871
 C1834 C 0.29833 0.18219 0.29795
 C1835 C 0.36253 0.19055 0.32882
 N1836 N 0.39833 0.17969 0.32990
 N1837 N 0.40876 0.14837 0.31364
 C1838 C 0.38345 0.12525 0.29830
 H1839 H 0.24406 0.16210 0.28015
 H1840 H 0.25996 0.09922 0.28404
 H1841 H 0.35661 0.21551 0.34306
 H1842 H 0.39308 0.09983 0.28585
 C1843 C 0.78244 0.65618 0.73611
 C1844 C 0.79032 0.61943 0.73660
 C1845 C 0.82599 0.60726 0.74598
 C1846 C 0.85405 0.63296 0.74960
 C1847 C 0.84460 0.66820 0.76171
 C1848 C 0.80820 0.68170 0.75171
 C1849 C 0.87200 0.68654 0.78536
 N1850 N 0.90752 0.67462 0.78536
 N1851 N 0.91726 0.64435 0.76553
 C1852 C 0.89144 0.62299 0.74754
 H1853 H 0.75435 0.66394 0.72868
 H1854 H 0.76800 0.60057 0.73246
 H1855 H 0.86623 0.71009 0.80382
 H1856 H 0.89972 0.59786 0.73300
 C1857 C 0.84540 0.79103 0.17860
 C1858 C 0.88044 0.78707 0.16065
 C1859 C 0.88598 0.78608 0.11494
 C1860 C 0.85513 0.78705 0.08663
 C1861 C 0.81911 0.79303 0.10450
 C1862 C 0.81397 0.79473 0.15197
 C1863 C 0.79028 0.79677 0.07352
 N1864 N 0.79660 0.79135 0.02970
 N1865 N 0.82987 0.78254 0.01394
 C1866 C 0.85921 0.78001 0.04090
 H1867 H 0.84336 0.79027 0.21429
 H1868 H 0.90363 0.78596 0.18299
 H1869 H 0.76312 0.80549 0.08214
 H1870 H 0.88541 0.77186 0.02647
 C1871 C 0.34784 0.24422 0.70055
 C1872 C 0.38167 0.24390 0.67661
 C1873 C 0.38918 0.26942 0.64327
 C1874 C 0.36182 0.29564 0.63624
 C1875 C 0.32494 0.28864 0.64930
 C1876 C 0.31821 0.26628 0.68767
 C1877 C 0.29780 0.30554 0.62314
 N1878 N 0.30693 0.33437 0.59805
 N1879 N 0.34154 0.34632 0.59552
 C1880 C 0.36941 0.32815 0.61471
 H1881 H 0.34423 0.22557 0.72767
 H1882 H 0.40165 0.22346 0.68440
 H1883 H 0.26938 0.29768 0.62281
 H1884 H 0.39742 0.33787 0.61073
 C1885 C 0.37305 0.74262 0.76961
 C1886 C 0.40502 0.73465 0.79341
 C1887 C 0.40325 0.72959 0.83954
 C1888 C 0.37077 0.73973 0.86286
 C1889 C 0.33916 0.75023 0.83891
 C1890 C 0.33843 0.74431 0.79131
 C1891 C 0.31154 0.76899 0.86364
 N1892 N 0.31282 0.77123 0.90832
 N1893 N 0.34081 0.75779 0.93076
 C1894 C 0.37003 0.74262 0.90964
 H1895 H 0.37492 0.74367 0.73378
 H1896 H 0.43094 0.73073 0.77550
 H1897 H 0.29004 0.78422 0.84883
 H1898 H 0.39291 0.73467 0.92989
 C1899 C 0.85141 0.21699 0.29537
 C1900 C 0.87871 0.21387 0.32687
 C1901 C 0.89413 0.24404 0.34687
 C1902 C 0.88409 0.27826 0.33024
 C1903 C 0.85784 0.28088 0.29573
 C1904 C 0.83721 0.25025 0.28310
 C1905 C 0.85250 0.31442 0.27594
 N1906 N 0.86814 0.34385 0.29348
 N1907 N 0.88899 0.34196 0.32932
 C1908 C 0.89707 0.31034 0.34864
 H1909 H 0.84040 0.19272 0.28220
 H1910 H 0.88768 0.18727 0.33577
 H1911 H 0.83624 0.31750 0.24654
 H1912 H 0.91307 0.31088 0.37849
 C1913 C 0.15680 0.29832 0.30571
 C1914 C 0.12482 0.30150 0.33174
 C1915 C 0.10983 0.27199 0.35423
 C1916 C 0.12428 0.23773 0.34411
 C1917 C 0.15529 0.23465 0.31468
 C1918 C 0.17548 0.26578 0.30159
 C1919 C 0.16481 0.20042 0.29936
 N1920 N 0.14753 0.17131 0.31637
 N1921 N 0.12127 0.17411 0.34764
 C1922 C 0.10942 0.20627 0.36256
 H1923 H 0.16751 0.32193 0.29046
 H1924 H 0.11257 0.32768 0.33584
 H1925 H 0.18521 0.19659 0.27333
 H1926 H 0.08853 0.20665 0.38852
 C1927 C 0.65501 0.75556 0.77161
 C1928 C 0.62096 0.76716 0.78984
 C1929 C 0.61611 0.76948 0.83605
 C1930 C 0.64114 0.75132 0.86324
 C1931 C 0.67394 0.73738 0.84418
 C1932 C 0.68452 0.74810 0.79981
 C1933 C 0.69291 0.71148 0.86935
 N1934 N 0.68267 0.70461 0.91186
 N1935 N 0.65402 0.72103 0.93103
 C1936 C 0.63296 0.74428 0.90830
 H1937 H 0.65962 0.75736 0.73613
 H1938 H 0.59956 0.77672 0.76808
 H1939 H 0.71433 0.69494 0.85556
 H1940 H 0.60905 0.75549 0.92518
 C1941 C 0.65639 0.22607 0.70972
 C1942 C 0.62121 0.23157 0.69228
 C1943 C 0.61628 0.23014 0.64650
 C1944 C 0.64724 0.22562 0.61845
 C1945 C 0.67920 0.20997 0.63576
 C1946 C 0.68586 0.21316 0.68271
 C1947 C 0.70164 0.19104 0.60481
 N1948 N 0.69671 0.19494 0.56061
 N1949 N 0.66944 0.21479 0.54475
 C1950 C 0.64424 0.23013 0.57231
 H1951 H 0.65999 0.22987 0.74494
 H1952 H 0.59769 0.23554 0.71447
 H1953 H 0.72253 0.17249 0.61462
 H1954 H 0.62082 0.24396 0.55831
 C1955 C 0.15442 0.73845 0.19086
 C1956 C 0.11845 0.73774 0.17492
 C1957 C 0.11202 0.72865 0.13090
 C1958 C 0.14228 0.72333 0.10185
 C1959 C 0.17775 0.71670 0.11914
 C1960 C 0.18461 0.72547 0.16521
 C1961 C 0.20358 0.70111 0.08882
 N1962 N 0.19655 0.69960 0.04488
 N1963 N 0.16482 0.71117 0.02854
 C1964 C 0.13738 0.72300 0.05563
 H1965 H 0.15811 0.74662 0.22488
 H1966 H 0.09550 0.74334 0.19742
 H1967 H 0.22887 0.68886 0.09836
 H1968 H 0.11156 0.73134 0.04108
   
