data_POSCAR
  _audit_creation_date              2014-09-24
  _audit_creation_method            'ToBaCCo'
  _symmetry_space_group_name_H-M    'P1'
  _symmetry_Int_Tables_number       1
  _symmetry_cell_setting            triclinic
  loop_
  _symmetry_equiv_pos_as_xyz
 x,y,z
_cell_length_a 48.3386
_cell_length_b 47.9963
_cell_length_c 38.6614
_cell_angle_alpha 89.992200
_cell_angle_beta 90.001300
_cell_angle_gamma 90.070700
loop_
  _atom_site_label
  _atom_site_type_symbol
  _atom_site_fract_x
  _atom_site_fract_y
  _atom_site_fract_z
C1 C -0.00364 -0.00490 0.11231
 C2 C 0.00097 0.00393 -0.11209
 C3 C -0.06657 -0.04875 0.04988
 C4 C -0.06517 0.04743 0.05212
 C5 C -0.06418 -0.04759 -0.05414
 C6 C 0.06375 -0.04694 -0.05330
 C7 C 0.06400 0.04682 -0.05033
 C8 C 0.05850 -0.04888 0.05728
 C9 C -0.06377 0.04838 -0.05242
 C10 C 0.06156 0.04491 0.05735
 O11 O -0.03849 -0.05181 -0.06171
 O12 O -0.07221 -0.02827 -0.03300
 O13 O -0.03795 0.05326 -0.05865
 O14 O -0.07204 0.02864 -0.03212
 O15 O 0.03590 0.04928 0.06482
 O16 O 0.06947 0.02602 0.03552
 O17 O 0.00105 0.02614 -0.09472
 O18 O 0.00017 -0.02016 -0.09884
 O19 O -0.00277 0.01938 0.09882
 O20 O -0.00438 -0.02723 0.09473
 O21 O 0.03855 -0.05108 -0.06205
 O22 O 0.07100 -0.02894 -0.03048
 O23 O -0.04123 -0.05382 0.05760
 O24 O -0.07380 -0.02883 0.02908
 O25 O 0.03256 -0.05246 0.06202
 O26 O 0.06854 -0.03054 0.03583
 O27 O 0.03885 0.05232 -0.05785
 O28 O 0.07107 0.02736 -0.02919
 O29 O -0.00114 0.07436 0.05555
 O30 O 0.00118 0.07757 -0.04341
 O31 O -0.00010 -0.07529 -0.05523
 O32 O -0.00277 -0.07840 0.04424
 O33 O -0.02575 -0.03550 -0.00253
 O34 O -0.02482 0.03487 0.00192
 O35 O 0.02116 -0.03568 -0.00050
 O36 O -0.02826 -0.00131 0.04450
 O37 O -0.07281 0.02840 0.03030
 O38 O -0.03975 0.05131 0.06094
 O39 O 0.02315 -0.00239 0.04694
 O40 O 0.02543 0.00059 -0.04369
 O41 O 0.02206 0.03365 0.00331
 O42 O -0.02603 0.00102 -0.04486
 Zr43 Zr -0.00199 0.03187 0.04687
 Zr44 Zr -0.00064 -0.03288 -0.04586
 Zr45 Zr -0.05010 -0.00006 -0.00090
 Zr46 Zr -0.00355 -0.03530 0.04240
 Zr47 Zr -0.00025 0.03448 -0.04158
 Zr48 Zr 0.04718 -0.00144 0.00244
 H49 H 0.03159 -0.05300 -0.00048
 H50 H -0.04089 -0.00174 0.06403
 H51 H 0.03285 0.05073 0.00396
 H52 H -0.03784 0.00160 -0.06516
 H53 H 0.00128 0.08264 0.03266
 H54 H -0.00868 0.08380 -0.02270
 H55 H -0.01102 -0.08449 0.02240
 H56 H 0.00096 -0.08392 -0.03238
 C57 C 0.24908 0.24826 0.13751
 C58 C 0.25045 0.24672 0.36179
 C59 C 0.18728 0.29909 0.19837
 C60 C 0.18291 0.20381 0.19972
 C61 C 0.19072 0.30027 0.30453
 C62 C 0.31597 0.29342 0.30225
 C63 C 0.31042 0.20036 0.30592
 C64 C 0.31469 0.29295 0.19530
 C65 C 0.18446 0.20298 0.30281
 C66 C 0.30915 0.19684 0.19706
 O67 O 0.21672 0.30207 0.31035
 O68 O 0.17999 0.28193 0.28365
 O69 O 0.20989 0.19708 0.30927
 O70 O 0.17719 0.22349 0.28284
 O71 O 0.28319 0.19492 0.19012
 O72 O 0.31937 0.21571 0.21755
 O73 O 0.24814 0.22412 0.34517
 O74 O 0.25249 0.27056 0.34723
 O75 O 0.24756 0.22542 0.15403
 O76 O 0.25033 0.27200 0.15250
 O77 O 0.29075 0.29845 0.31071
 O78 O 0.32269 0.27388 0.28043
 O79 O 0.21302 0.30241 0.19011
 O80 O 0.17895 0.28050 0.22022
 O81 O 0.28921 0.29882 0.18832
 O82 O 0.32180 0.27310 0.21639
 O83 O 0.28452 0.19745 0.31214
 O84 O 0.32009 0.21757 0.28289
 O85 O 0.24497 0.17267 0.19937
 O86 O 0.24675 0.17205 0.29873
 O87 O 0.25522 0.32427 0.30145
 O88 O 0.25322 0.32523 0.20045
 O89 O 0.22808 0.28498 0.25070
 O90 O 0.22343 0.21501 0.25025
 O91 O 0.27452 0.28171 0.24942
 O92 O 0.22312 0.25029 0.20601
 O93 O 0.17627 0.22374 0.22087
 O94 O 0.20813 0.19833 0.19141
 O95 O 0.27493 0.24734 0.20404
 O96 O 0.27619 0.24669 0.29488
 O97 O 0.27081 0.21285 0.24951
 O98 O 0.22442 0.24996 0.29538
 Zr99 Zr 0.24689 0.21540 0.20606
 Zr100 Zr 0.25242 0.28163 0.29449
 Zr101 Zr 0.20058 0.25159 0.25142
 Zr102 Zr 0.25063 0.28241 0.20535
 Zr103 Zr 0.24781 0.21495 0.29342
 Zr104 Zr 0.29857 0.24594 0.24914
 H105 H 0.28583 0.29845 0.24934
 H106 H 0.21082 0.25068 0.18616
 H107 H 0.28041 0.19508 0.25004
 H108 H 0.21249 0.25045 0.31559
 H109 H 0.23944 0.16529 0.22190
 H110 H 0.25095 0.16463 0.27583
 H111 H 0.24722 0.33251 0.22284
 H112 H 0.25614 0.33202 0.27811
 C113 C 0.49917 -0.00571 0.11287
 C114 C 0.49994 0.00453 -0.11063
 C115 C 0.56421 0.04545 0.05507
 C116 C 0.56211 -0.05287 0.05082
 C117 C 0.56494 0.04754 -0.04986
 C118 C 0.43737 0.04796 -0.05142
 C119 C 0.43613 -0.04617 -0.05412
 C120 C 0.43755 0.04706 0.05480
 C121 C 0.56395 -0.04780 -0.05344
 C122 C 0.43577 -0.04893 0.05208
 O123 O 0.53972 0.05306 -0.05686
 O124 O 0.57232 0.02779 -0.02940
 O125 O 0.53858 -0.05208 -0.06125
 O126 O 0.57178 -0.02923 -0.03173
 O127 O 0.46134 -0.05463 0.05834
 O128 O 0.42830 -0.02829 0.03254
 O129 O 0.49967 -0.01983 -0.09734
 O130 O 0.50047 0.02680 -0.09296
 O131 O 0.49877 -0.02794 0.09514
 O132 O 0.50010 0.01860 0.09961
 O133 O 0.46310 0.05290 -0.05806
 O134 O 0.42937 0.02845 -0.03053
 O135 O 0.53868 0.04979 0.06320
 O136 O 0.57169 0.02619 0.03351
 O137 O 0.46299 0.04934 0.06418
 O138 O 0.42908 0.02884 0.03236
 O139 O 0.46166 -0.05028 -0.06255
 O140 O 0.42862 -0.02748 -0.03173
 O141 O 0.49794 -0.07889 0.04748
 O142 O 0.49878 -0.07505 -0.05511
 O143 O 0.49997 0.07775 -0.04202
 O144 O 0.50076 0.07345 0.05779
 O145 O 0.52438 0.03406 0.00365
 O146 O 0.52308 -0.03628 -0.00114
 O147 O 0.47767 0.03410 0.00337
 O148 O 0.52553 -0.00301 0.04620
 O149 O 0.57131 -0.03269 0.03211
 O150 O 0.53655 -0.05689 0.05668
 O151 O 0.47381 -0.00204 0.04672
 O152 O 0.47429 0.00142 -0.04435
 O153 O 0.47638 -0.03505 -0.00142
 O154 O 0.52575 0.00059 -0.04327
 Zr155 Zr 0.49919 -0.03599 0.04283
 Zr156 Zr 0.50086 0.03467 -0.04067
 Zr157 Zr 0.54872 -0.00162 0.00153
 Zr158 Zr 0.50064 0.03113 0.04781
 Zr159 Zr 0.49986 -0.03273 -0.04558
 Zr160 Zr 0.45147 -0.00007 0.00106
 H161 H 0.46753 0.05157 0.00363
 H162 H 0.53773 -0.00405 0.06611
 H163 H 0.46565 -0.05216 -0.00210
 H164 H 0.53794 0.00112 -0.06320
 H165 H 0.49730 -0.08584 0.02375
 H166 H 0.50178 -0.08370 -0.03253
 H167 H 0.49900 0.08227 0.03511
 H168 H 0.50876 0.08363 -0.02042
 C169 C 0.75233 0.25590 0.13868
 C170 C 0.75070 0.24583 0.36216
 C171 C 0.68890 0.30039 0.19866
 C172 C 0.68744 0.20451 0.19705
 C173 C 0.68979 0.30094 0.30192
 C174 C 0.81509 0.29549 0.30596
 C175 C 0.81220 0.19926 0.30317
 C176 C 0.81537 0.29677 0.19901
 C177 C 0.68625 0.20333 0.30151
 C178 C 0.81478 0.20424 0.19648
 O179 O 0.71536 0.30325 0.31028
 O180 O 0.68054 0.28183 0.28109
 O181 O 0.71170 0.19781 0.30840
 O182 O 0.67901 0.22353 0.28107
 O183 O 0.78926 0.20108 0.18726
 O184 O 0.82256 0.22208 0.21957
 O185 O 0.74998 0.22358 0.34453
 O186 O 0.75143 0.27016 0.34883
 O187 O 0.75142 0.23159 0.15208
 O188 O 0.75284 0.27820 0.15631
 O189 O 0.78950 0.30019 0.31384
 O190 O 0.82268 0.27640 0.28399
 O191 O 0.71469 0.30519 0.19216
 O192 O 0.68066 0.28075 0.21914
 O193 O 0.78987 0.30275 0.19196
 O194 O 0.82272 0.27707 0.22024
 O195 O 0.78654 0.19586 0.30886
 O196 O 0.82199 0.21889 0.28391
 O197 O 0.75133 0.17654 0.19407
 O198 O 0.74897 0.17275 0.29407
 O199 O 0.75363 0.32509 0.30749
 O200 O 0.75404 0.32920 0.20779
 O201 O 0.72865 0.28638 0.25272
 O202 O 0.72664 0.21632 0.24780
 O203 O 0.77541 0.28495 0.25292
 O204 O 0.72607 0.25299 0.20579
 O205 O 0.67988 0.22380 0.21857
 O206 O 0.71296 0.20022 0.18877
 O207 O 0.77766 0.25200 0.20575
 O208 O 0.77693 0.24833 0.29665
 O209 O 0.77343 0.21583 0.24870
 O210 O 0.72526 0.25019 0.29518
 Zr211 Zr 0.75104 0.21888 0.20396
 Zr212 Zr 0.75215 0.28284 0.29700
 Zr213 Zr 0.70257 0.25199 0.25034
 Zr214 Zr 0.75220 0.28614 0.20864
 Zr215 Zr 0.74964 0.21583 0.29228
 Zr216 Zr 0.80004 0.24950 0.25170
 H217 H 0.78638 0.30194 0.25346
 H218 H 0.71404 0.25371 0.18570
 H219 H 0.78346 0.19831 0.24807
 H220 H 0.71290 0.25004 0.31499
 H221 H 0.75219 0.16769 0.21680
 H222 H 0.74111 0.16702 0.27187
 H223 H 0.74539 0.33501 0.22950
 H224 H 0.75581 0.33410 0.28495
 C225 C -0.00059 0.49506 0.11139
 C226 C 0.00051 0.50507 -0.11318
 C227 C -0.06369 0.45032 0.05072
 C228 C -0.06435 0.54637 0.05302
 C229 C -0.06341 0.45211 -0.05357
 C230 C 0.06380 0.45549 -0.05528
 C231 C 0.06223 0.54874 -0.05273
 C232 C 0.06337 0.45307 0.05213
 C233 C -0.06475 0.54784 -0.05177
 C234 C 0.06224 0.54722 0.05482
 O235 O -0.03782 0.44855 -0.06212
 O236 O -0.07133 0.47097 -0.03181
 O237 O -0.03922 0.55333 -0.05866
 O238 O -0.07216 0.52787 -0.03116
 O239 O 0.03665 0.55069 0.06327
 O240 O 0.07011 0.52878 0.03234
 O241 O -0.00017 0.52723 -0.09573
 O242 O 0.00047 0.48093 -0.09997
 O243 O -0.00090 0.51938 0.09797
 O244 O -0.00035 0.47271 0.09388
 O245 O 0.03832 0.45063 -0.06328
 O246 O 0.07106 0.47427 -0.03301
 O247 O -0.03801 0.44545 0.05760
 O248 O -0.07150 0.47024 0.03024
 O249 O 0.03782 0.44743 0.05892
 O250 O 0.07075 0.47278 0.03116
 O251 O 0.03657 0.55374 -0.05951
 O252 O 0.07007 0.52930 -0.03167
 O253 O -0.00104 0.57460 0.05557
 O254 O -0.00080 0.57852 -0.04432
 O255 O 0.00078 0.42558 -0.05671
 O256 O 0.00133 0.42156 0.04309
 O257 O -0.02378 0.46452 -0.00267
 O258 O -0.02467 0.53497 0.00187
 O259 O 0.02292 0.46568 -0.00241
 O260 O -0.02608 0.49814 0.04429
 O261 O -0.07190 0.52730 0.03128
 O262 O -0.03891 0.55064 0.06142
 O263 O 0.02522 0.49867 0.04526
 O264 O 0.02523 0.50214 -0.04572
 O265 O 0.02196 0.53518 0.00179
 O266 O -0.02604 0.50127 -0.04518
 Zr267 Zr -0.00097 0.53220 0.04617
 Zr268 Zr -0.00008 0.46797 -0.04698
 Zr269 Zr -0.04902 0.49942 -0.00040
 Zr270 Zr -0.00032 0.46462 0.04166
 Zr271 Zr -0.00113 0.53539 -0.04252
 Zr272 Zr 0.04773 0.50084 -0.00016
 H273 H 0.03382 0.44868 -0.00286
 H274 H -0.03837 0.49741 0.06415
 H275 H 0.03232 0.55254 0.00227
 H276 H -0.03820 0.50159 -0.06515
 H277 H -0.00025 0.58322 0.03270
 H278 H -0.00952 0.58447 -0.02272
 H279 H -0.00741 0.41549 0.02153
 H280 H 0.00265 0.41682 -0.03400
 C281 C 0.25083 0.75550 0.13790
 C282 C 0.25017 0.74453 0.36076
 C283 C 0.19213 0.80472 0.19763
 C284 C 0.18319 0.70793 0.19653
 C285 C 0.19178 0.80176 0.30519
 C286 C 0.31723 0.79192 0.30452
 C287 C 0.30826 0.69764 0.30372
 C288 C 0.31737 0.79415 0.19795
 C289 C 0.18305 0.70592 0.29963
 C290 C 0.30940 0.70071 0.19197
 O291 O 0.21776 0.80237 0.31192
 O292 O 0.18084 0.78483 0.28276
 O293 O 0.20819 0.69919 0.30638
 O294 O 0.17653 0.72685 0.27979
 O295 O 0.28346 0.70024 0.18473
 O296 O 0.31994 0.71669 0.21575
 O297 O 0.24724 0.72256 0.34291
 O298 O 0.25294 0.76875 0.34756
 O299 O 0.24774 0.73138 0.15122
 O300 O 0.25349 0.77757 0.15569
 O301 O 0.29201 0.79726 0.31284
 O302 O 0.32385 0.77250 0.28244
 O303 O 0.21826 0.80647 0.19241
 O304 O 0.18096 0.78616 0.21782
 O305 O 0.29219 0.80073 0.19097
 O306 O 0.32388 0.77369 0.21854
 O307 O 0.28211 0.69570 0.30865
 O308 O 0.31938 0.71546 0.28246
 O309 O 0.24447 0.67665 0.19377
 O310 O 0.24455 0.67236 0.29036
 O311 O 0.25683 0.82390 0.30537
 O312 O 0.25843 0.82808 0.20700
 O313 O 0.22978 0.78740 0.25199
 O314 O 0.22298 0.71804 0.24678
 O315 O 0.27681 0.78236 0.25186
 O316 O 0.22466 0.75459 0.20501
 O317 O 0.17664 0.72793 0.21772
 O318 O 0.20839 0.70229 0.18828
 O319 O 0.27657 0.74972 0.20441
 O320 O 0.27612 0.74590 0.29462
 O321 O 0.27046 0.71395 0.24695
 O322 O 0.22433 0.75104 0.29373
 Zr323 Zr 0.24718 0.71900 0.20313
 Zr324 Zr 0.25342 0.78164 0.29578
 Zr325 Zr 0.20092 0.75512 0.24942
 Zr326 Zr 0.25368 0.78522 0.20815
 Zr327 Zr 0.24667 0.71543 0.29044
 Zr328 Zr 0.29959 0.74583 0.24961
 H329 H 0.28847 0.79884 0.25239
 H330 H 0.21274 0.75615 0.18489
 H331 H 0.27949 0.69586 0.24628
 H332 H 0.21234 0.75117 0.31388
 H333 H 0.24886 0.66772 0.21580
 H334 H 0.23448 0.66757 0.26921
 H335 H 0.24960 0.83480 0.22819
 H336 H 0.26000 0.83244 0.28277
 C337 C 0.50254 0.49462 0.11131
 C338 C 0.49953 0.50595 -0.11206
 C339 C 0.56585 0.54721 0.05184
 C340 C 0.56580 0.45190 0.04920
 C341 C 0.56331 0.54913 -0.05235
 C342 C 0.43678 0.54843 -0.05045
 C343 C 0.43669 0.45484 -0.05345
 C344 C 0.44009 0.54546 0.05939
 C345 C 0.56397 0.45409 -0.05540
 C346 C 0.43867 0.45168 0.05318
 O347 O 0.53750 0.55452 -0.05862
 O348 O 0.57146 0.52907 -0.03228
 O349 O 0.53824 0.44965 -0.06259
 O350 O 0.57208 0.47321 -0.03419
 O351 O 0.46446 0.44631 0.05906
 O352 O 0.43069 0.47182 0.03313
 O353 O 0.49985 0.48158 -0.09874
 O354 O 0.49955 0.52823 -0.09433
 O355 O 0.50213 0.47236 0.09365
 O356 O 0.50328 0.51898 0.09806
 O357 O 0.46227 0.55368 -0.05803
 O358 O 0.42952 0.52900 -0.02903
 O359 O 0.54054 0.55089 0.06116
 O360 O 0.57316 0.52850 0.02952
 O361 O 0.46591 0.54819 0.06610
 O362 O 0.43069 0.52840 0.03599
 O363 O 0.46206 0.45093 -0.06266
 O364 O 0.42948 0.47331 -0.03064
 O365 O 0.50139 0.42155 0.04189
 O366 O 0.49984 0.42638 -0.05719
 O367 O 0.49913 0.57923 -0.04291
 O368 O 0.50213 0.57435 0.05578
 O369 O 0.52522 0.53572 0.00149
 O370 O 0.52497 0.46525 -0.00348
 O371 O 0.47843 0.53523 0.00307
 O372 O 0.52787 0.49830 0.04369
 O373 O 0.57309 0.47168 0.02828
 O374 O 0.54034 0.44659 0.05676
 O375 O 0.47655 0.49842 0.04601
 O376 O 0.47452 0.50250 -0.04460
 O377 O 0.47811 0.46598 -0.00191
 O378 O 0.52592 0.50235 -0.04558
 Zr379 Zr 0.50213 0.46464 0.04138
 Zr380 Zr 0.50051 0.53613 -0.04195
 Zr381 Zr 0.54983 0.50049 -0.00157
 Zr382 Zr 0.50275 0.53195 0.04633
 Zr383 Zr 0.50042 0.46866 -0.04690
 Zr384 Zr 0.45272 0.50073 0.00165
 H385 H 0.46783 0.55241 0.00432
 H386 H 0.54039 0.49778 0.06331
 H387 H 0.46753 0.44876 -0.00227
 H388 H 0.53779 0.50300 -0.06582
 H389 H 0.51019 0.41602 0.02017
 H390 H 0.49753 0.41743 -0.03465
 H391 H 0.49903 0.58296 0.03320
 H392 H 0.50894 0.58514 -0.02201
 C393 C 0.75227 0.75502 0.13808
 C394 C 0.74883 0.74509 0.36143
 C395 C 0.69135 0.80364 0.19910
 C396 C 0.68627 0.70579 0.19530
 C397 C 0.68956 0.80155 0.30122
 C398 C 0.81521 0.79393 0.30682
 C399 C 0.80911 0.69811 0.30402
 C400 C 0.81690 0.79470 0.19919
 C401 C 0.68387 0.70443 0.29933
 C402 C 0.81375 0.70165 0.19770
 O403 O 0.71515 0.80320 0.30979
 O404 O 0.68004 0.78297 0.27984
 O405 O 0.70905 0.69838 0.30673
 O406 O 0.67721 0.72484 0.27883
 O407 O 0.78834 0.69966 0.18737
 O408 O 0.82166 0.71907 0.22121
 O409 O 0.74742 0.72291 0.34372
 O410 O 0.75038 0.76938 0.34821
 O411 O 0.75098 0.73073 0.15142
 O412 O 0.75325 0.77723 0.15589
 O413 O 0.78971 0.79889 0.31420
 O414 O 0.82265 0.77461 0.28521
 O415 O 0.71742 0.80656 0.19388
 O416 O 0.68093 0.78362 0.21760
 O417 O 0.79173 0.80083 0.19176
 O418 O 0.82360 0.77501 0.22066
 O419 O 0.78302 0.69537 0.30892
 O420 O 0.81976 0.71742 0.28448
 O421 O 0.74934 0.67591 0.19375
 O422 O 0.74552 0.67235 0.29281
 O423 O 0.75399 0.82431 0.30704
 O424 O 0.75766 0.82783 0.20568
 O425 O 0.72896 0.78645 0.25172
 O426 O 0.72497 0.71676 0.24659
 O427 O 0.77569 0.78350 0.25305
 O428 O 0.72594 0.75309 0.20464
 O429 O 0.67878 0.72549 0.21628
 O430 O 0.71178 0.70065 0.18782
 O431 O 0.77788 0.75042 0.20574
 O432 O 0.77551 0.74704 0.29659
 O433 O 0.77186 0.71462 0.24853
 O434 O 0.72381 0.75033 0.29392
 Zr435 Zr 0.75014 0.71827 0.20335
 Zr436 Zr 0.75167 0.78212 0.29648
 Zr437 Zr 0.70163 0.75306 0.24863
 Zr438 Zr 0.75336 0.78500 0.20839
 Zr439 Zr 0.74735 0.71540 0.29142
 Zr440 Zr 0.79942 0.74767 0.25216
 H441 H 0.78699 0.80025 0.25364
 H442 H 0.71411 0.75448 0.18442
 H443 H 0.78137 0.69680 0.24822
 H444 H 0.71132 0.75041 0.31360
 H445 H 0.75105 0.66711 0.21644
 H446 H 0.73765 0.66696 0.27049
 H447 H 0.75204 0.83458 0.22847
 H448 H 0.75602 0.83332 0.28450
 C449 C -0.00159 0.00616 0.38927
 C450 C -0.00048 -0.00666 0.61207
 C451 C -0.05984 0.05533 0.45202
 C452 C -0.06800 -0.04263 0.44817
 C453 C -0.05902 0.05121 0.55711
 C454 C 0.06646 0.04083 0.55555
 C455 C 0.05728 -0.05400 0.55263
 C456 C 0.06552 0.04398 0.44868
 C457 C -0.06752 -0.04475 0.55001
 C458 C 0.05771 -0.04901 0.44204
 O459 O -0.03303 0.05160 0.56378
 O460 O -0.07015 0.03425 0.53486
 O461 O -0.04225 -0.05209 0.55607
 O462 O -0.07424 -0.02325 0.53131
 O463 O 0.03174 -0.04938 0.43509
 O464 O 0.06846 -0.03322 0.46582
 O465 O -0.00348 -0.02854 0.59402
 O466 O 0.00223 0.01761 0.59908
 O467 O -0.00431 -0.01808 0.40235
 O468 O 0.00097 0.02812 0.40726
 O469 O 0.04131 0.04615 0.56423
 O470 O 0.07286 0.02166 0.53309
 O471 O -0.03382 0.05746 0.44607
 O472 O -0.07057 0.03581 0.47110
 O473 O 0.04029 0.05088 0.44249
 O474 O 0.07221 0.02332 0.46888
 O475 O 0.03120 -0.05595 0.55802
 O476 O 0.06824 -0.03549 0.53213
 O477 O -0.00680 -0.07312 0.44367
 O478 O -0.00652 -0.07851 0.54213
 O479 O 0.00602 0.07281 0.55806
 O480 O 0.00665 0.07812 0.45842
 O481 O -0.02151 0.03675 0.50410
 O482 O -0.02819 -0.03251 0.49797
 O483 O 0.02546 0.03199 0.50322
 O484 O -0.02709 0.00457 0.45659
 O485 O -0.07462 -0.02275 0.46953
 O486 O -0.04286 -0.04801 0.43967
 O487 O 0.02487 -0.00013 0.45538
 O488 O 0.02520 -0.00500 0.54565
 O489 O 0.01911 -0.03642 0.49756
 O490 O -0.02664 0.00011 0.54551
 Zr491 Zr -0.00436 -0.03090 0.45407
 Zr492 Zr 0.00250 0.03073 0.54747
 Zr493 Zr -0.05031 0.00449 0.50138
 Zr494 Zr 0.00184 0.03528 0.45982
 Zr495 Zr -0.00426 -0.03545 0.54145
 Zr496 Zr 0.04822 -0.00454 0.50026
 H497 H 0.03717 0.04844 0.50386
 H498 H -0.03925 0.00638 0.43672
 H499 H 0.02811 -0.05451 0.49637
 H500 H -0.03855 0.00009 0.56574
 H501 H -0.00250 -0.08242 0.46550
 H502 H -0.01455 -0.08359 0.51978
 H503 H -0.00027 0.08469 0.48073
 H504 H 0.00813 0.08177 0.53551
 C505 C 0.25095 0.24692 0.86339
 C506 C 0.24879 0.25485 0.63912
 C507 C 0.18689 0.20131 0.80365
 C508 C 0.18701 0.29743 0.80484
 C509 C 0.18566 0.20225 0.69888
 C510 C 0.31144 0.20468 0.69217
 C511 C 0.31244 0.29800 0.69705
 C512 C 0.31398 0.20217 0.80207
 C513 C 0.18537 0.29813 0.70034
 C514 C 0.31432 0.29591 0.80431
 O515 O 0.21103 0.19869 0.68979
 O516 O 0.17819 0.22120 0.72095
 O517 O 0.21088 0.30336 0.69297
 O518 O 0.17797 0.27845 0.72139
 O519 O 0.28892 0.29987 0.81335
 O520 O 0.32155 0.27739 0.78154
 O521 O 0.24896 0.27722 0.65659
 O522 O 0.24835 0.23056 0.65273
 O523 O 0.25072 0.27091 0.84916
 O524 O 0.25096 0.22421 0.84629
 O525 O 0.28566 0.20122 0.68568
 O526 O 0.32048 0.22223 0.71523
 O527 O 0.21260 0.19627 0.81016
 O528 O 0.17893 0.22115 0.78324
 O529 O 0.28846 0.19727 0.80983
 O530 O 0.32137 0.22143 0.78046
 O531 O 0.28670 0.30335 0.69094
 O532 O 0.32037 0.27819 0.71760
 O533 O 0.25144 0.32510 0.80556
 O534 O 0.24962 0.32839 0.70761
 O535 O 0.24873 0.17541 0.69611
 O536 O 0.25122 0.17208 0.79702
 O537 O 0.22601 0.21483 0.74984
 O538 O 0.22602 0.28522 0.75342
 O539 O 0.27258 0.21520 0.74860
 O540 O 0.22487 0.24884 0.79625
 O541 O 0.17895 0.27791 0.78404
 O542 O 0.21272 0.30195 0.81204
 O543 O 0.27639 0.24867 0.79574
 O544 O 0.27470 0.25152 0.70490
 O545 O 0.27297 0.28455 0.75217
 O546 O 0.22335 0.25157 0.70678
 Zr547 Zr 0.25049 0.28256 0.79701
 Zr548 Zr 0.24862 0.21792 0.70485
 Zr549 Zr 0.20115 0.24990 0.75197
 Zr550 Zr 0.25028 0.21508 0.79373
 Zr551 Zr 0.24901 0.28531 0.70875
 Zr552 Zr 0.29830 0.24971 0.74952
 H553 H 0.28321 0.19802 0.74765
 H554 H 0.21289 0.24843 0.81641
 H555 H 0.28366 0.30170 0.75238
 H556 H 0.21090 0.25188 0.68707
 H557 H 0.25566 0.33340 0.78308
 H558 H 0.24072 0.33409 0.72921
 H559 H 0.24427 0.16558 0.77468
 H560 H 0.25152 0.16699 0.71886
 C561 C 0.50053 0.00486 0.38923
 C562 C 0.50047 -0.00560 0.61230
 C563 C 0.56034 -0.05190 0.44768
 C564 C 0.56630 0.04565 0.44934
 C565 C 0.56104 -0.05161 0.55189
 C566 C 0.43523 -0.04575 0.55302
 C567 C 0.44000 0.04731 0.55856
 C568 C 0.43460 -0.04410 0.44628
 C569 C 0.56621 0.04372 0.55346
 C570 C 0.44051 0.04929 0.44526
 O571 O 0.53509 -0.05538 0.55875
 O572 O 0.57018 -0.03249 0.53099
 O573 O 0.54092 0.04861 0.56192
 O574 O 0.57328 0.02427 0.53187
 O575 O 0.46652 0.05244 0.43991
 O576 O 0.43050 0.03162 0.46756
 O577 O 0.50257 0.01862 0.59886
 O578 O 0.49873 -0.02783 0.59468
 O579 O 0.50259 0.02705 0.40686
 O580 O 0.49871 -0.01941 0.40260
 O581 O 0.46062 -0.05202 0.55953
 O582 O 0.42810 -0.02555 0.53247
 O583 O 0.53451 -0.05351 0.44023
 O584 O 0.57051 -0.03322 0.46842
 O585 O 0.45993 -0.04880 0.43779
 O586 O 0.42762 -0.02492 0.46846
 O587 O 0.46589 0.04879 0.56589
 O588 O 0.43021 0.03098 0.53464
 O589 O 0.50307 0.07767 0.45932
 O590 O 0.50420 0.07363 0.55581
 O591 O 0.49621 -0.07877 0.54323
 O592 O 0.49547 -0.07442 0.44428
 O593 O 0.52233 -0.03679 0.49812
 O594 O 0.52652 0.03305 0.50291
 O595 O 0.47533 -0.03353 0.49872
 O596 O 0.52624 -0.00045 0.45589
 O597 O 0.57333 0.02511 0.46943
 O598 O 0.54092 0.05176 0.44274
 O599 O 0.47455 0.00284 0.45565
 O600 O 0.47472 -0.00089 0.54586
 O601 O 0.47917 0.03541 0.50299
 O602 O 0.52639 -0.00363 0.54492
 Zr603 Zr 0.50279 0.03455 0.45918
 Zr604 Zr 0.49888 -0.03574 0.54239
 Zr605 Zr 0.54958 -0.00321 0.50014
 Zr606 Zr 0.49834 -0.03221 0.45444
 Zr607 Zr 0.50261 0.03114 0.54688
 Zr608 Zr 0.45143 0.00241 0.50083
 H609 H 0.46409 -0.05031 0.49827
 H610 H 0.53836 -0.00058 0.43586
 H611 H 0.46940 0.05311 0.50359
 H612 H 0.53849 -0.00466 0.56494
 H613 H 0.51366 0.08284 0.47993
 H614 H 0.49962 0.08238 0.53371
 H615 H 0.49357 -0.08327 0.46695
 H616 H 0.50529 -0.08491 0.52193
 C617 C 0.75085 0.24470 0.86144
 C618 C 0.74773 0.25551 0.63814
 C619 C 0.68606 0.20116 0.80227
 C620 C 0.68672 0.29681 0.80448
 C621 C 0.68429 0.20303 0.69764
 C622 C 0.80964 0.20415 0.69045
 C623 C 0.81168 0.29771 0.69578
 C624 C 0.81306 0.20152 0.80011
 C625 C 0.68460 0.29832 0.70007
 C626 C 0.81408 0.29461 0.80296
 O627 O 0.70954 0.19938 0.68827
 O628 O 0.67702 0.22178 0.71999
 O629 O 0.71008 0.30355 0.69257
 O630 O 0.67719 0.27865 0.72104
 O631 O 0.78876 0.29859 0.81235
 O632 O 0.82110 0.27635 0.77982
 O633 O 0.74818 0.27778 0.65575
 O634 O 0.74690 0.23116 0.65144
 O635 O 0.75064 0.26902 0.84803
 O636 O 0.75054 0.22237 0.84382
 O637 O 0.78381 0.20172 0.68391
 O638 O 0.81939 0.22119 0.71360
 O639 O 0.71176 0.19584 0.80842
 O640 O 0.67810 0.22116 0.78211
 O641 O 0.78754 0.19647 0.80770
 O642 O 0.82047 0.22079 0.77858
 O643 O 0.78595 0.30338 0.69008
 O644 O 0.81959 0.27761 0.71588
 O645 O 0.75197 0.32398 0.80594
 O646 O 0.74904 0.32855 0.70724
 O647 O 0.74716 0.17587 0.69364
 O648 O 0.75025 0.17119 0.79313
 O649 O 0.72478 0.21463 0.74811
 O650 O 0.72550 0.28508 0.75284
 O651 O 0.77154 0.21481 0.74647
 O652 O 0.72435 0.24818 0.79500
 O653 O 0.67850 0.27758 0.78348
 O654 O 0.71249 0.30117 0.81163
 O655 O 0.77577 0.24765 0.79397
 O656 O 0.77362 0.25155 0.70340
 O657 O 0.77244 0.28412 0.75117
 O658 O 0.72229 0.25200 0.70570
 Zr659 Zr 0.75016 0.28168 0.79616
 Zr660 Zr 0.74720 0.21826 0.70324
 Zr661 Zr 0.70041 0.24993 0.75104
 Zr662 Zr 0.74943 0.21426 0.79149
 Zr663 Zr 0.74825 0.28547 0.70798
 Zr664 Zr 0.79751 0.24911 0.74772
 H665 H 0.78197 0.19753 0.74535
 H666 H 0.71249 0.24767 0.81526
 H667 H 0.78321 0.30123 0.75153
 H668 H 0.70978 0.25248 0.68605
 H669 H 0.75274 0.33270 0.78311
 H670 H 0.74002 0.33415 0.72879
 H671 H 0.74138 0.16524 0.77161
 H672 H 0.75045 0.16718 0.71612
 C673 C -0.00182 0.50611 0.38776
 C674 C 0.00272 0.49392 0.61076
 C675 C -0.06078 0.55418 0.45196
 C676 C -0.06675 0.45632 0.44786
 C677 C -0.05820 0.54993 0.55722
 C678 C 0.06747 0.54285 0.55203
 C679 C 0.06265 0.44960 0.54956
 C680 C 0.06468 0.54629 0.44517
 C681 C -0.06459 0.45404 0.55153
 C682 C 0.05870 0.45225 0.43940
 O683 O -0.03214 0.55109 0.56333
 O684 O -0.06907 0.53274 0.53503
 O685 O -0.03908 0.44749 0.55718
 O686 O -0.07190 0.47493 0.53223
 O687 O 0.03268 0.45113 0.43319
 O688 O 0.06950 0.46881 0.46237
 O689 O 0.00070 0.47178 0.59298
 O690 O 0.00427 0.51823 0.59750
 O691 O -0.00373 0.48184 0.40101
 O692 O 0.00007 0.52824 0.40555
 O693 O 0.04241 0.54738 0.56167
 O694 O 0.07388 0.52420 0.52895
 O695 O -0.03504 0.55695 0.44483
 O696 O -0.07045 0.53446 0.47163
 O697 O 0.03916 0.55261 0.43975
 O698 O 0.07215 0.52575 0.46500
 O699 O 0.03690 0.44542 0.55696
 O700 O 0.07085 0.46845 0.52790
 O701 O -0.00525 0.42681 0.44329
 O702 O -0.00122 0.42140 0.54046
 O703 O 0.00640 0.57345 0.55620
 O704 O 0.00466 0.57874 0.45592
 O705 O -0.02116 0.53665 0.50299
 O706 O -0.02581 0.46698 0.49770
 O707 O 0.02567 0.53341 0.50075
 O708 O -0.02672 0.50414 0.45568
 O709 O -0.07326 0.47591 0.46970
 O710 O -0.04165 0.45144 0.43873
 O711 O 0.02503 0.50093 0.45273
 O712 O 0.02756 0.49633 0.54318
 O713 O 0.02141 0.46453 0.49557
 O714 O -0.02417 0.49957 0.54457
 Zr715 Zr -0.00326 0.46918 0.45282
 Zr716 Zr 0.00369 0.53127 0.54578
 Zr717 Zr -0.04888 0.50344 0.50120
 Zr718 Zr 0.00134 0.53579 0.45794
 Zr719 Zr -0.00066 0.46451 0.54054
 Zr720 Zr 0.04919 0.49758 0.49681
 H721 H 0.03697 0.55016 0.50113
 H722 H -0.03926 0.50558 0.43613
 H723 H 0.03106 0.44679 0.49434
 H724 H -0.03577 0.49942 0.56507
 H725 H -0.00050 0.41788 0.46523
 H726 H -0.01190 0.41628 0.51990
 H727 H -0.00110 0.58515 0.47881
 H728 H 0.00753 0.58246 0.53358
 C729 C 0.24990 0.74477 0.86088
 C730 C 0.25104 0.75447 0.63747
 C731 C 0.18486 0.70310 0.79969
 C732 C 0.18772 0.79853 0.80243
 C733 C 0.18526 0.70429 0.69541
 C734 C 0.31068 0.70039 0.69417
 C735 C 0.31542 0.79584 0.69728
 C736 C 0.31204 0.70036 0.80205
 C737 C 0.19002 0.80195 0.69802
 C738 C 0.31505 0.79392 0.80390
 O739 O 0.21065 0.69973 0.68730
 O740 O 0.17789 0.72378 0.71680
 O741 O 0.21595 0.80499 0.69268
 O742 O 0.17980 0.78221 0.71732
 O743 O 0.28961 0.79849 0.81236
 O744 O 0.32223 0.77501 0.78155
 O745 O 0.25207 0.77672 0.65511
 O746 O 0.24942 0.73023 0.65089
 O747 O 0.25086 0.76906 0.84745
 O748 O 0.24885 0.72248 0.84330
 O749 O 0.28500 0.69900 0.68627
 O750 O 0.32054 0.71831 0.71633
 O751 O 0.21027 0.69723 0.80672
 O752 O 0.17775 0.72329 0.77917
 O753 O 0.28619 0.69589 0.80868
 O754 O 0.32042 0.71937 0.78079
 O755 O 0.29003 0.80183 0.69069
 O756 O 0.32255 0.77561 0.71768
 O757 O 0.25296 0.82407 0.80544
 O758 O 0.25478 0.82753 0.70420
 O759 O 0.24703 0.67548 0.69342
 O760 O 0.24845 0.67148 0.79256
 O761 O 0.22486 0.71566 0.74690
 O762 O 0.22786 0.78572 0.75114
 O763 O 0.27177 0.71430 0.74700
 O764 O 0.22428 0.74916 0.79335
 O765 O 0.17945 0.77993 0.78055
 O766 O 0.21346 0.80187 0.81066
 O767 O 0.27590 0.74715 0.79437
 O768 O 0.27635 0.75011 0.70351
 O769 O 0.27471 0.78332 0.75148
 O770 O 0.22458 0.75248 0.70409
 Zr771 Zr 0.25107 0.78181 0.79559
 Zr772 Zr 0.24851 0.71789 0.70287
 Zr773 Zr 0.20120 0.75171 0.74847
 Zr774 Zr 0.24868 0.71457 0.79104
 Zr775 Zr 0.25201 0.78460 0.70741
 Zr776 Zr 0.29890 0.74778 0.74889
 H777 H 0.28157 0.69663 0.74676
 H778 H 0.21207 0.74899 0.81330
 H779 H 0.28578 0.80023 0.75185
 H780 H 0.21254 0.75353 0.68402
 H781 H 0.25294 0.83283 0.78264
 H782 H 0.24945 0.83421 0.72712
 H783 H 0.23920 0.66581 0.77118
 H784 H 0.25044 0.66667 0.71582
 C785 C 0.50066 0.50485 0.38742
 C786 C 0.50112 0.49509 0.61057
 C787 C 0.56040 0.44828 0.44599
 C788 C 0.56637 0.54606 0.44682
 C789 C 0.56293 0.44908 0.54967
 C790 C 0.43574 0.45484 0.55200
 C791 C 0.44162 0.54985 0.55519
 C792 C 0.43464 0.45646 0.44502
 C793 C 0.56705 0.54431 0.55089
 C794 C 0.44106 0.55024 0.44453
 O795 O 0.53710 0.44502 0.55680
 O796 O 0.57148 0.46819 0.52868
 O797 O 0.54184 0.54907 0.55965
 O798 O 0.57397 0.52493 0.52914
 O799 O 0.46703 0.55293 0.43898
 O800 O 0.43080 0.53251 0.46659
 O801 O 0.50306 0.51923 0.59692
 O802 O 0.49964 0.47275 0.59312
 O803 O 0.50251 0.52708 0.40496
 O804 O 0.49900 0.48061 0.40090
 O805 O 0.46120 0.44836 0.55813
 O806 O 0.42863 0.47525 0.53169
 O807 O 0.53450 0.44654 0.43904
 O808 O 0.57080 0.46723 0.46616
 O809 O 0.45992 0.45166 0.43638
 O810 O 0.42783 0.47566 0.46728
 O811 O 0.46749 0.55066 0.56232
 O812 O 0.43106 0.53260 0.53275
 O813 O 0.50360 0.57784 0.45657
 O814 O 0.50535 0.57387 0.55453
 O815 O 0.49712 0.42171 0.54172
 O816 O 0.49526 0.42590 0.44285
 O817 O 0.52272 0.46376 0.49631
 O818 O 0.52714 0.53362 0.50070
 O819 O 0.47571 0.46703 0.49738
 O820 O 0.52648 0.49977 0.45373
 O821 O 0.57359 0.52558 0.46684
 O822 O 0.54099 0.55204 0.44039
 O823 O 0.47469 0.50320 0.45410
 O824 O 0.47545 0.49968 0.54444
 O825 O 0.47996 0.53571 0.50120
 O826 O 0.52722 0.49680 0.54291
 Zr827 Zr 0.50317 0.53471 0.45723
 Zr828 Zr 0.49967 0.46472 0.54084
 Zr829 Zr 0.55001 0.49733 0.49782
 Zr830 Zr 0.49844 0.46812 0.45286
 Zr831 Zr 0.50357 0.53151 0.54487
 Zr832 Zr 0.45182 0.50301 0.49956
 H833 H 0.46437 0.45031 0.49703
 H834 H 0.53853 0.49958 0.43363
 H835 H 0.47054 0.55360 0.50155
 H836 H 0.53939 0.49591 0.56286
 H837 H 0.51401 0.58326 0.47722
 H838 H 0.50325 0.58276 0.53194
 H839 H 0.49324 0.41712 0.46554
 H840 H 0.50595 0.41568 0.52022
 C841 C 0.74940 0.74501 0.86021
 C842 C 0.74889 0.75553 0.63698
 C843 C 0.68417 0.70255 0.79936
 C844 C 0.68641 0.79797 0.80270
 C845 C 0.68385 0.70474 0.69482
 C846 C 0.80948 0.70354 0.69002
 C847 C 0.81296 0.79758 0.69608
 C848 C 0.81141 0.70078 0.80001
 C849 C 0.68705 0.80098 0.69653
 C850 C 0.81379 0.79409 0.80299
 O851 O 0.70918 0.70061 0.68610
 O852 O 0.67647 0.72379 0.71674
 O853 O 0.71297 0.80442 0.69080
 O854 O 0.67752 0.78170 0.71711
 O855 O 0.78839 0.79856 0.81173
 O856 O 0.82088 0.77550 0.78025
 O857 O 0.75011 0.77774 0.65466
 O858 O 0.74724 0.73122 0.65021
 O859 O 0.74989 0.76933 0.84685
 O860 O 0.74854 0.72276 0.84247
 O861 O 0.78365 0.70144 0.68309
 O862 O 0.81920 0.72040 0.71346
 O863 O 0.70972 0.69671 0.80580
 O864 O 0.67678 0.72285 0.77914
 O865 O 0.78566 0.69611 0.80688
 O866 O 0.81949 0.71998 0.77877
 O867 O 0.78742 0.80317 0.68958
 O868 O 0.82043 0.77738 0.71643
 O869 O 0.75123 0.82436 0.80447
 O870 O 0.75132 0.82855 0.70596
 O871 O 0.74699 0.67600 0.69357
 O872 O 0.74662 0.67167 0.79300
 O873 O 0.72372 0.71581 0.74622
 O874 O 0.72595 0.78598 0.75095
 O875 O 0.77080 0.71477 0.74565
 O876 O 0.72324 0.74909 0.79288
 O877 O 0.67807 0.77940 0.78088
 O878 O 0.71217 0.80166 0.81051
 O879 O 0.77483 0.74754 0.79322
 O880 O 0.77435 0.75119 0.70264
 O881 O 0.77296 0.78396 0.75061
 O882 O 0.72281 0.75289 0.70381
 Zr883 Zr 0.74975 0.78200 0.79497
 Zr884 Zr 0.74705 0.71856 0.70201
 Zr885 Zr 0.69974 0.75165 0.74831
 Zr886 Zr 0.74789 0.71470 0.79009
 Zr887 Zr 0.74971 0.78548 0.70692
 Zr888 Zr 0.79747 0.74862 0.74747
 H889 H 0.78098 0.69733 0.74460
 H890 H 0.71119 0.74868 0.81296
 H891 H 0.78394 0.80092 0.75108
 H892 H 0.71068 0.75377 0.68382
 H893 H 0.75470 0.83292 0.78195
 H894 H 0.74277 0.83442 0.72770
 H895 H 0.75220 0.66509 0.77015
 H896 H 0.74144 0.66782 0.71567
 C897 C -0.00413 -0.00920 0.15025
 C898 C -0.00277 0.01067 0.17640
 C899 C -0.00309 0.00493 0.21442
 C900 C -0.00101 0.02697 0.23733
 C901 C -0.00114 0.02301 0.27286
 C902 C -0.00342 -0.00330 0.28719
 C903 C -0.00558 -0.02533 0.26428
 C904 C -0.00545 -0.02137 0.22876
 C905 C -0.00374 -0.00903 0.32519
 C906 C -0.00146 0.01073 0.35139
 H907 H -0.00120 0.03179 0.16879
 H908 H 0.00075 0.04754 0.22794
 H909 H 0.00052 0.04078 0.28857
 H910 H -0.00741 -0.04589 0.27369
 H911 H -0.00725 -0.03914 0.21306
 H912 H -0.00587 -0.03011 0.33279
 H913 H -0.00544 -0.03030 0.15788
 H914 H 0.00076 0.03178 0.34388
 C915 C 0.24915 0.24582 1.10264
 C916 C 0.25080 0.26707 1.07796
 C917 C 0.25105 0.26422 1.03913
 C918 C 0.25480 0.28804 1.01962
 C919 C 0.25520 0.28760 0.98388
 C920 C 0.25173 0.26334 0.96514
 C921 C 0.24805 0.23916 0.98433
 C922 C 0.24758 0.23961 1.02062
 C923 C 0.25167 0.26544 0.92631
 C924 C 0.25077 0.24399 0.90187
 H925 H 0.25244 0.28768 1.08750
 H926 H 0.25745 0.30748 1.03190
 H927 H 0.25832 0.30669 0.97094
 H928 H 0.24536 0.21991 0.97175
 H929 H 0.24427 0.22067 1.03369
 H930 H 0.25264 0.28592 0.91624
 H931 H 0.24795 0.22526 1.09288
 H932 H 0.24995 0.22332 0.91126
 C933 C 0.08403 0.06285 0.07390
 C934 C 0.08035 0.08598 0.09636
 C935 C 0.10205 0.10529 0.11272
 C936 C 0.09362 0.12615 0.13555
 C937 C 0.11234 0.14488 0.15131
 C938 C 0.14077 0.14400 0.14521
 C939 C 0.14916 0.12316 0.12234
 C940 C 0.13046 0.10443 0.10662
 C941 C 0.16263 0.16324 0.16138
 C942 C 0.15962 0.18622 0.18426
 H943 H 0.05938 0.09052 0.10261
 H944 H 0.07221 0.12804 0.14141
 H945 H 0.10424 0.15994 0.16833
 H946 H 0.17055 0.12126 0.11642
 H947 H 0.13858 0.08940 0.08958
 H948 H 0.18347 0.15874 0.15441
 H949 H 0.10479 0.05787 0.06723
 H950 H 0.13908 0.19149 0.19162
 C951 C 0.33791 0.31004 0.17855
 C952 C 0.33515 0.33456 0.15805
 C953 C 0.35735 0.35317 0.14115
 C954 C 0.34931 0.37723 0.12337
 C955 C 0.36837 0.39532 0.10700
 C956 C 0.39687 0.39060 0.10725
 C957 C 0.40492 0.36654 0.12506
 C958 C 0.38585 0.34843 0.14144
 C959 C 0.41902 0.40931 0.09030
 C960 C 0.41595 0.43391 0.06999
 H961 H 0.31434 0.34115 0.15419
 H962 H 0.32791 0.38226 0.12208
 H963 H 0.36045 0.41306 0.09428
 H964 H 0.42632 0.36153 0.12642
 H965 H 0.39373 0.33070 0.15421
 H966 H 0.43987 0.40281 0.09400
 H967 H 0.35847 0.30319 0.18347
 H968 H 0.39525 0.44050 0.06537
 C969 C 0.32606 0.17250 0.18361
 C970 C 0.34992 0.17159 0.16246
 C971 C 0.36283 0.14588 0.14549
 C972 C 0.38471 0.14881 0.12223
 C973 C 0.39747 0.12599 0.10585
 C974 C 0.38943 0.09871 0.11218
 C975 C 0.36769 0.09570 0.13559
 C976 C 0.35458 0.11854 0.15149
 C977 C 0.40457 0.07320 0.09830
 C978 C 0.41829 0.07015 0.06637
 H979 H 0.35928 0.19104 0.15674
 H980 H 0.39231 0.16900 0.11676
 H981 H 0.41427 0.12984 0.08906
 H982 H 0.36067 0.07543 0.14177
 H983 H 0.33823 0.11442 0.16881
 H984 H 0.40422 0.05519 0.11398
 H985 H 0.31592 0.15311 0.18696
 H986 H 0.41731 0.08760 0.04978
 C987 C 0.16481 0.31712 0.18202
 C988 C 0.16797 0.33976 0.15881
 C989 C 0.14568 0.35818 0.14220
 C990 C 0.15356 0.38026 0.12089
 C991 C 0.13426 0.39796 0.10453
 C992 C 0.10574 0.39469 0.10832
 C993 C 0.09785 0.37264 0.12969
 C994 C 0.11715 0.35497 0.14609
 C995 C 0.08343 0.41279 0.09126
 C996 C 0.08639 0.43602 0.06886
 H997 H 0.18882 0.34462 0.15229
 H998 H 0.17499 0.38396 0.11675
 H999 H 0.14198 0.41417 0.08889
 H1000 H 0.07642 0.36893 0.13381
 H1001 H 0.10940 0.33876 0.16171
 H1002 H 0.06259 0.40715 0.09680
 H1003 H 0.14412 0.31227 0.18924
 H1004 H 0.10701 0.44202 0.06273
 C1005 C 0.32850 0.18404 0.33078
 C1006 C 0.35011 0.16457 0.32546
 C1007 C 0.36285 0.14460 0.35181
 C1008 C 0.38727 0.13009 0.34446
 C1009 C 0.39940 0.11074 0.36716
 C1010 C 0.38762 0.10452 0.39880
 C1011 C 0.36317 0.11901 0.40612
 C1012 C 0.35107 0.13839 0.38344
 C1013 C 0.40025 0.08436 0.42506
 C1014 C 0.42285 0.06596 0.42024
 H1015 H 0.35820 0.16332 0.30025
 H1016 H 0.39744 0.13376 0.32091
 H1017 H 0.41815 0.10101 0.35978
 H1018 H 0.35298 0.11532 0.42965
 H1019 H 0.33229 0.14811 0.39075
 H1020 H 0.39129 0.08469 0.44986
 H1021 H 0.32052 0.18438 0.35611
 H1022 H 0.43178 0.06668 0.39542
 C1023 C 0.17484 0.32178 0.32546
 C1024 C 0.14693 0.33046 0.32796
 C1025 C 0.13583 0.35391 0.35094
 C1026 C 0.10752 0.36009 0.35180
 C1027 C 0.09622 0.38137 0.37241
 C1028 C 0.11272 0.39785 0.39358
 C1029 C 0.14099 0.39165 0.39279
 C1030 C 0.15230 0.37048 0.37208
 C1031 C 0.10154 0.42060 0.41743
 C1032 C 0.07469 0.43223 0.41657
 H1033 H 0.13222 0.31984 0.31253
 H1034 H 0.09367 0.34833 0.33651
 H1035 H 0.07446 0.38435 0.37190
 H1036 H 0.15479 0.40328 0.40830
 H1037 H 0.17402 0.36743 0.37300
 H1038 H 0.11538 0.42833 0.43631
 H1039 H 0.18846 0.33320 0.34155
 H1040 H 0.06203 0.42418 0.39664
 C1041 C 0.16174 0.18522 0.31926
 C1042 C 0.16559 0.16155 0.34092
 C1043 C 0.14427 0.14232 0.35823
 C1044 C 0.15339 0.12026 0.37889
 C1045 C 0.13510 0.10171 0.39570
 C1046 C 0.10642 0.10397 0.39292
 C1047 C 0.09731 0.12602 0.37224
 C1048 C 0.11560 0.14456 0.35543
 C1049 C 0.08502 0.08490 0.41037
 C1050 C 0.08860 0.06113 0.43198
 H1051 H 0.18667 0.15642 0.34582
 H1052 H 0.17502 0.11724 0.38219
 H1053 H 0.14373 0.08567 0.41090
 H1054 H 0.07568 0.12907 0.36895
 H1055 H 0.10695 0.16059 0.34025
 H1056 H 0.06399 0.09030 0.40561
 H1057 H 0.14095 0.19093 0.31368
 H1058 H 0.10930 0.05500 0.43737
 C1059 C 0.33896 0.31152 0.31799
 C1060 C 0.33542 0.33475 0.34066
 C1061 C 0.35666 0.35477 0.35711
 C1062 C 0.34749 0.37574 0.37945
 C1063 C 0.36552 0.39514 0.39539
 C1064 C 0.39408 0.39495 0.39008
 C1065 C 0.40326 0.37393 0.36779
 C1066 C 0.38522 0.35454 0.35185
 C1067 C 0.41530 0.41504 0.40652
 C1068 C 0.41172 0.43837 0.42906
 H1069 H 0.31442 0.33894 0.34719
 H1070 H 0.32597 0.37722 0.38480
 H1071 H 0.35677 0.41018 0.41194
 H1072 H 0.42479 0.37239 0.36250
 H1073 H 0.39397 0.33945 0.33535
 H1074 H 0.43631 0.41081 0.40009
 H1075 H 0.35963 0.30665 0.31078
 H1076 H 0.39102 0.44328 0.43611
 C1077 C 0.49862 -0.01013 0.15070
 C1078 C 0.49976 0.00973 0.17684
 C1079 C 0.49944 0.00389 0.21476
 C1080 C 0.50107 0.02589 0.23774
 C1081 C 0.50091 0.02182 0.27321
 C1082 C 0.49910 -0.00459 0.28738
 C1083 C 0.49745 -0.02659 0.26441
 C1084 C 0.49761 -0.02251 0.22894
 C1085 C 0.49880 -0.01047 0.32529
 C1086 C 0.50066 0.00931 0.35142
 H1087 H 0.50111 0.03088 0.16928
 H1088 H 0.50249 0.04651 0.22843
 H1089 H 0.50223 0.03958 0.28899
 H1090 H 0.49604 -0.04721 0.27372
 H1091 H 0.49629 -0.04027 0.21317
 H1092 H 0.49704 -0.03159 0.33285
 H1093 H 0.49729 -0.03126 0.15824
 H1094 H 0.50245 0.03041 0.34390
 C1095 C 0.75260 0.26029 1.10073
 C1096 C 0.75172 0.24046 1.07446
 C1097 C 0.75180 0.24628 1.03644
 C1098 C 0.75166 0.22417 1.01348
 C1099 C 0.75148 0.22814 0.97796
 C1100 C 0.75140 0.25455 0.96361
 C1101 C 0.75162 0.27667 0.98655
 C1102 C 0.75184 0.27270 1.02210
 C1103 C 0.75110 0.26028 0.92557
 C1104 C 0.75115 0.24036 0.89938
 H1105 H 0.75090 0.21927 1.08200
 H1106 H 0.75169 0.20352 1.02286
 H1107 H 0.75137 0.21029 0.96225
 H1108 H 0.75161 0.29731 0.97715
 H1109 H 0.75198 0.29055 1.03781
 H1110 H 0.75080 0.28146 0.91795
 H1111 H 0.75352 0.28143 1.09318
 H1112 H 0.75124 0.21921 0.90699
 C1113 C 0.58709 0.06353 0.07096
 C1114 C 0.58411 0.08629 0.09429
 C1115 C 0.60618 0.10559 0.11025
 C1116 C 0.59831 0.12587 0.13422
 C1117 C 0.61730 0.14457 0.14963
 C1118 C 0.64553 0.14431 0.14212
 C1119 C 0.65339 0.12406 0.11814
 C1120 C 0.63441 0.10536 0.10273
 C1121 C 0.66761 0.16361 0.15801
 C1122 C 0.66462 0.18631 0.18139
 H1123 H 0.56333 0.09047 0.10178
 H1124 H 0.57712 0.12734 0.14127
 H1125 H 0.60959 0.15914 0.16754
 H1126 H 0.67458 0.12266 0.11104
 H1127 H 0.64213 0.09085 0.08477
 H1128 H 0.68838 0.15945 0.15045
 H1129 H 0.60769 0.05868 0.06338
 H1130 H 0.64405 0.19098 0.18925
 C1131 C -0.16195 0.31341 0.18221
 C1132 C -0.16596 0.33608 0.16001
 C1133 C -0.14430 0.35396 0.14257
 C1134 C -0.15260 0.37729 0.12377
 C1135 C -0.13372 0.39495 0.10646
 C1136 C -0.10520 0.39036 0.10674
 C1137 C -0.09694 0.36686 0.12548
 C1138 C -0.11582 0.34922 0.14283
 C1139 C -0.08321 0.40878 0.08911
 C1140 C -0.08642 0.43255 0.06743
 H1141 H -0.18715 0.34141 0.15538
 H1142 H -0.17404 0.38213 0.12238
 H1143 H -0.14178 0.41226 0.09302
 H1144 H -0.07552 0.36193 0.12678
 H1145 H -0.10782 0.33182 0.15620
 H1146 H -0.06230 0.40279 0.09356
 H1147 H -0.14201 0.30688 0.18915
 H1148 H -0.10716 0.43858 0.06193
 C1149 C 0.91233 0.06562 0.06789
 C1150 C 0.91589 0.08892 0.09000
 C1151 C 0.89356 0.10751 0.10557
 C1152 C 0.88931 0.10870 0.14094
 C1153 C 0.87154 0.12840 0.15644
 C1154 C 0.85731 0.14845 0.13761
 C1155 C 0.86188 0.14745 0.10234
 C1156 C 0.87974 0.12790 0.08693
 C1157 C 0.83528 0.16785 0.15236
 C1158 C 0.83719 0.18560 0.18141
 H1159 H 0.93664 0.09403 0.09664
 H1160 H 0.89974 0.09414 0.15668
 H1161 H 0.86847 0.12737 0.18319
 H1162 H 0.85182 0.16226 0.08658
 H1163 H 0.88317 0.12928 0.06027
 H1164 H 0.81657 0.16933 0.13804
 H1165 H 0.89151 0.06024 0.06184
 H1166 H 0.85674 0.18603 0.19406
 C1167 C 0.66644 0.31791 0.18172
 C1168 C 0.66985 0.34058 0.15869
 C1169 C 0.64771 0.35855 0.14125
 C1170 C 0.65572 0.38019 0.11937
 C1171 C 0.63650 0.39757 0.10244
 C1172 C 0.60799 0.39438 0.10630
 C1173 C 0.59999 0.37277 0.12822
 C1174 C 0.61920 0.35539 0.14512
 C1175 C 0.58577 0.41228 0.08897
 C1176 C 0.58882 0.43475 0.06556
 H1177 H 0.69076 0.34575 0.15286
 H1178 H 0.67717 0.38379 0.11523
 H1179 H 0.64426 0.41351 0.08641
 H1180 H 0.57853 0.36921 0.13241
 H1181 H 0.61139 0.33950 0.16117
 H1182 H 0.56493 0.40715 0.09520
 H1183 H 0.64569 0.31254 0.18806
 H1184 H 0.60942 0.44017 0.05861
 C1185 C -0.17146 0.17745 0.31563
 C1186 C -0.14906 0.17673 0.33996
 C1187 C -0.13637 0.15103 0.35892
 C1188 C -0.11176 0.15357 0.37781
 C1189 C -0.09989 0.13131 0.39621
 C1190 C -0.11206 0.10504 0.39718
 C1191 C -0.13660 0.10246 0.37841
 C1192 C -0.14840 0.12469 0.35988
 C1193 C -0.10007 0.07989 0.41617
 C1194 C -0.07639 0.07942 0.43755
 H1195 H -0.14029 0.19600 0.34739
 H1196 H -0.10141 0.17302 0.37830
 H1197 H -0.08110 0.13502 0.40943
 H1198 H -0.14702 0.08305 0.37808
 H1199 H -0.16725 0.12105 0.34677
 H1200 H -0.11021 0.06054 0.41223
 H1201 H -0.17921 0.15682 0.31149
 H1202 H -0.06598 0.09876 0.44000
 C1203 C 0.67192 0.32490 0.31418
 C1204 C 0.65105 0.32554 0.33970
 C1205 C 0.63810 0.35119 0.35654
 C1206 C 0.61420 0.34858 0.37652
 C1207 C 0.60203 0.37117 0.39396
 C1208 C 0.61324 0.39786 0.39275
 C1209 C 0.63714 0.40047 0.37272
 C1210 C 0.64921 0.37790 0.35509
 C1211 C 0.60099 0.42330 0.41096
 C1212 C 0.57708 0.42406 0.43199
 H1213 H 0.64375 0.30590 0.34831
 H1214 H 0.60461 0.32883 0.37873
 H1215 H 0.58383 0.36737 0.40832
 H1216 H 0.64684 0.42018 0.37068
 H1217 H 0.66752 0.38155 0.34086
 H1218 H 0.61107 0.44262 0.40661
 H1219 H 0.67936 0.34467 0.30637
 H1220 H 0.56660 0.40477 0.43457
 C1221 C 0.66345 0.18565 0.31810
 C1222 C 0.66705 0.16242 0.34060
 C1223 C 0.64554 0.14340 0.35806
 C1224 C 0.65443 0.12162 0.37933
 C1225 C 0.63598 0.10327 0.39626
 C1226 C 0.60731 0.10547 0.39306
 C1227 C 0.59842 0.12724 0.37179
 C1228 C 0.61687 0.14557 0.35485
 C1229 C 0.58576 0.08655 0.41058
 C1230 C 0.58927 0.06314 0.43280
 H1231 H 0.68807 0.15750 0.34613
 H1232 H 0.67603 0.11862 0.38301
 H1233 H 0.64447 0.08741 0.41184
 H1234 H 0.57682 0.13022 0.36810
 H1235 H 0.60836 0.16141 0.33924
 H1236 H 0.56475 0.09171 0.40532
 H1237 H 0.64270 0.19115 0.31199
 H1238 H 0.60999 0.05739 0.43870
 C1239 C -0.16261 0.31329 0.32204
 C1240 C -0.16708 0.33603 0.34418
 C1241 C -0.14596 0.35548 0.36036
 C1242 C -0.11724 0.35292 0.35821
 C1243 C -0.09895 0.37194 0.37437
 C1244 C -0.10802 0.39479 0.39382
 C1245 C -0.13674 0.39730 0.39590
 C1246 C -0.15503 0.37825 0.37976
 C1247 C -0.08656 0.41458 0.41035
 C1248 C -0.08990 0.43830 0.43232
 H1249 H -0.18837 0.34017 0.34985
 H1250 H -0.10854 0.33619 0.34421
 H1251 H -0.07731 0.36861 0.37157
 H1252 H -0.14540 0.41403 0.40989
 H1253 H -0.17667 0.38157 0.38256
 H1254 H -0.06555 0.40963 0.40473
 H1255 H -0.14259 0.30777 0.31423
 H1256 H -0.11055 0.44368 0.43909
 C1257 C -0.00081 0.49075 0.14921
 C1258 C -0.00138 0.51072 0.17522
 C1259 C -0.00167 0.50495 0.21315
 C1260 C -0.00184 0.52706 0.23606
 C1261 C -0.00208 0.52304 0.27155
 C1262 C -0.00220 0.49660 0.28580
 C1263 C -0.00208 0.47450 0.26286
 C1264 C -0.00182 0.47852 0.22739
 C1265 C -0.00255 0.49076 0.32373
 C1266 C -0.00191 0.51062 0.34991
 H1267 H -0.00158 0.53188 0.16754
 H1268 H -0.00181 0.54771 0.22668
 H1269 H -0.00223 0.54087 0.28729
 H1270 H -0.00218 0.45384 0.27220
 H1271 H -0.00178 0.46068 0.21166
 H1272 H -0.00315 0.46957 0.33127
 H1273 H -0.00059 0.46961 0.15685
 H1274 H -0.00104 0.53177 0.34238
 C1275 C 0.25130 0.75986 1.09998
 C1276 C 0.24876 0.74012 1.07377
 C1277 C 0.24941 0.74590 1.03576
 C1278 C 0.24782 0.72390 1.01273
 C1279 C 0.24830 0.72796 0.97721
 C1280 C 0.25025 0.75435 0.96300
 C1281 C 0.25182 0.77634 0.98604
 C1282 C 0.25138 0.77228 1.02154
 C1283 C 0.25058 0.76021 0.92501
 C1284 C 0.24966 0.74039 0.89878
 H1285 H 0.24628 0.71906 1.08132
 H1286 H 0.24618 0.70329 1.02201
 H1287 H 0.24708 0.71021 0.96140
 H1288 H 0.25340 0.79696 0.97677
 H1289 H 0.25249 0.79004 1.03734
 H1290 H 0.25157 0.78139 0.91747
 H1291 H 0.25401 0.78084 1.09240
 H1292 H 0.24860 0.71924 0.90630
 C1293 C 0.08460 0.56568 0.07102
 C1294 C 0.08089 0.58850 0.09410
 C1295 C 0.10244 0.60826 0.11023
 C1296 C 0.09397 0.62891 0.13340
 C1297 C 0.11257 0.64792 0.14898
 C1298 C 0.14096 0.64756 0.14243
 C1299 C 0.14939 0.62691 0.11928
 C1300 C 0.13081 0.60794 0.10371
 C1301 C 0.16280 0.66700 0.15851
 C1302 C 0.15984 0.69028 0.18107
 H1303 H 0.05995 0.59244 0.10110
 H1304 H 0.07261 0.63042 0.13969
 H1305 H 0.10445 0.66276 0.16629
 H1306 H 0.17074 0.62536 0.11302
 H1307 H 0.13899 0.59311 0.08646
 H1308 H 0.18365 0.66238 0.15171
 H1309 H 0.10533 0.56134 0.06357
 H1310 H 0.13929 0.69564 0.18830
 C1311 C 0.41533 0.93386 0.06453
 C1312 C 0.41737 0.91476 0.09372
 C1313 C 0.39611 0.89374 0.10959
 C1314 C 0.40394 0.87688 0.13720
 C1315 C 0.38589 0.85729 0.15259
 C1316 C 0.35871 0.85347 0.14158
 C1317 C 0.35095 0.87039 0.11393
 C1318 C 0.36910 0.88969 0.09823
 C1319 C 0.33727 0.83385 0.15799
 C1320 C 0.34056 0.81169 0.18212
 H1321 H 0.43406 0.91942 0.11151
 H1322 H 0.42434 0.87875 0.14705
 H1323 H 0.39338 0.84546 0.17345
 H1324 H 0.33049 0.86867 0.10420
 H1325 H 0.36165 0.90156 0.07738
 H1326 H 0.31649 0.83706 0.14973
 H1327 H 0.41972 0.91214 0.06452
 H1328 H 0.36111 0.80715 0.19011
 C1329 C 0.32612 0.68167 0.16845
 C1330 C 0.35081 0.66602 0.17254
 C1331 C 0.36283 0.64429 0.14768
 C1332 C 0.38861 0.63193 0.15395
 C1333 C 0.40041 0.61149 0.13244
 C1334 C 0.38707 0.60208 0.10301
 C1335 C 0.36134 0.61449 0.09664
 C1336 C 0.34946 0.63481 0.11827
 C1337 C 0.39961 0.58107 0.07766
 C1338 C 0.42195 0.56251 0.08354
 H1339 H 0.36204 0.66922 0.19559
 H1340 H 0.40014 0.63819 0.17568
 H1341 H 0.42026 0.60357 0.13873
 H1342 H 0.34997 0.60844 0.07471
 H1343 H 0.32972 0.64284 0.11171
 H1344 H 0.39072 0.58074 0.05281
 H1345 H 0.31534 0.67740 0.14535
 H1346 H 0.43043 0.56372 0.10860
 C1347 C 0.07526 0.93224 0.08070
 C1348 C 0.10235 0.92121 0.08006
 C1349 C 0.11384 0.89912 0.10457
 C1350 C 0.14226 0.89368 0.10618
 C1351 C 0.15371 0.87302 0.12754
 C1352 C 0.13724 0.85626 0.14844
 C1353 C 0.10883 0.86165 0.14671
 C1354 C 0.09740 0.88242 0.12553
 C1355 C 0.14837 0.83301 0.17157
 C1356 C 0.17656 0.82666 0.17720
 H1357 H 0.11600 0.92873 0.06086
 H1358 H 0.15604 0.90544 0.09080
 H1359 H 0.17549 0.87033 0.12711
 H1360 H 0.09501 0.84964 0.16175
 H1361 H 0.07557 0.88478 0.12538
 H1362 H 0.13345 0.82060 0.18448
 H1363 H 0.06286 0.92422 0.10092
 H1364 H 0.19044 0.83996 0.16391
 C1365 C 0.32395 0.67703 0.32611
 C1366 C 0.35176 0.66807 0.32856
 C1367 C 0.36296 0.64554 0.35277
 C1368 C 0.39108 0.63857 0.35264
 C1369 C 0.40252 0.61808 0.37426
 C1370 C 0.38637 0.60320 0.39752
 C1371 C 0.35829 0.61026 0.39782
 C1372 C 0.34682 0.63066 0.37608
 C1373 C 0.39784 0.58133 0.42238
 C1374 C 0.42443 0.56914 0.42100
 H1375 H 0.36631 0.67765 0.31191
 H1376 H 0.40468 0.64910 0.33574
 H1377 H 0.42415 0.61445 0.37283
 H1378 H 0.34477 0.59993 0.41499
 H1379 H 0.32527 0.63453 0.37796
 H1380 H 0.38457 0.57492 0.44257
 H1381 H 0.31032 0.66655 0.34314
 H1382 H 0.43656 0.57604 0.39995
 C1383 C 0.17592 -0.17737 0.32707
 C1384 C 0.14830 -0.16761 0.32798
 C1385 C 0.13669 -0.14503 0.35183
 C1386 C 0.10862 -0.13789 0.35079
 C1387 C 0.09683 -0.11732 0.37202
 C1388 C 0.11256 -0.10248 0.39575
 C1389 C 0.14062 -0.10963 0.39684
 C1390 C 0.15244 -0.13015 0.37554
 C1391 C 0.10077 -0.08038 0.42012
 C1392 C 0.07388 -0.06877 0.41902
 H1393 H 0.13415 -0.17669 0.31039
 H1394 H 0.09534 -0.14833 0.33343
 H1395 H 0.07527 -0.11351 0.36983
 H1396 H 0.15387 -0.09928 0.41431
 H1397 H 0.17395 -0.13406 0.37798
 H1398 H 0.11418 -0.07322 0.43978
 H1399 H 0.18914 -0.16758 0.34517
 H1400 H 0.06146 -0.07638 0.39861
 C1401 C 0.15992 0.68854 0.31583
 C1402 C 0.16355 0.66471 0.33732
 C1403 C 0.14224 0.64548 0.35462
 C1404 C 0.15145 0.62326 0.37495
 C1405 C 0.13325 0.60463 0.39175
 C1406 C 0.10456 0.60696 0.38930
 C1407 C 0.09535 0.62918 0.36898
 C1408 C 0.11356 0.64781 0.35215
 C1409 C 0.08332 0.58774 0.40682
 C1410 C 0.08727 0.56383 0.42807
 H1411 H 0.18460 0.65939 0.34212
 H1412 H 0.17310 0.62016 0.37799
 H1413 H 0.14197 0.58849 0.40668
 H1414 H 0.07370 0.63231 0.36598
 H1415 H 0.10486 0.66399 0.33724
 H1416 H 0.06222 0.59311 0.40247
 H1417 H 0.13922 0.69461 0.31033
 H1418 H 0.10809 0.55780 0.43291
 C1419 C 0.34023 -0.19030 0.32061
 C1420 C 0.33651 -0.16644 0.34219
 C1421 C 0.35761 -0.14633 0.35869
 C1422 C 0.34809 -0.12378 0.37832
 C1423 C 0.36599 -0.10441 0.39446
 C1424 C 0.39474 -0.10619 0.39201
 C1425 C 0.40427 -0.12873 0.37237
 C1426 C 0.38635 -0.14812 0.35624
 C1427 C 0.41575 -0.08597 0.40849
 C1428 C 0.41184 -0.06225 0.43023
 H1429 H 0.31542 -0.16164 0.34753
 H1430 H 0.32639 -0.12096 0.38127
 H1431 H 0.35699 -0.08804 0.40876
 H1432 H 0.42596 -0.13153 0.36938
 H1433 H 0.39533 -0.16448 0.34189
 H1434 H 0.43687 -0.09051 0.40298
 H1435 H 0.36097 -0.19573 0.31430
 H1436 H 0.39105 -0.05715 0.43667
 C1437 C 0.50224 0.49015 0.14907
 C1438 C 0.50206 0.51003 0.17516
 C1439 C 0.50160 0.50410 0.21302
 C1440 C 0.50161 0.52612 0.23605
 C1441 C 0.50117 0.52196 0.27149
 C1442 C 0.50069 0.49545 0.28555
 C1443 C 0.50070 0.47344 0.26251
 C1444 C 0.50116 0.47761 0.22708
 C1445 C 0.50012 0.48946 0.32342
 C1446 C 0.50080 0.50926 0.34960
 H1447 H 0.50221 0.53122 0.16761
 H1448 H 0.50196 0.54680 0.22678
 H1449 H 0.50116 0.53974 0.28731
 H1450 H 0.50038 0.45275 0.27173
 H1451 H 0.50116 0.45983 0.21125
 H1452 H 0.49927 0.46826 0.33088
 H1453 H 0.50192 0.46899 0.15658
 H1454 H 0.50179 0.53041 0.34210
 C1455 C 0.75251 0.75945 1.10008
 C1456 C 0.75043 0.73975 1.07368
 C1457 C 0.75053 0.74567 1.03562
 C1458 C 0.74898 0.72373 1.01246
 C1459 C 0.74908 0.72788 0.97692
 C1460 C 0.75058 0.75432 0.96273
 C1461 C 0.75212 0.77626 0.98590
 C1462 C 0.75205 0.77209 1.02144
 C1463 C 0.75049 0.76028 0.92467
 C1464 C 0.74950 0.74055 0.89822
 H1465 H 0.74863 0.71861 1.08114
 H1466 H 0.74768 0.70308 1.02169
 H1467 H 0.74795 0.71016 0.96105
 H1468 H 0.75342 0.79692 0.97672
 H1469 H 0.75315 0.78982 1.03731
 H1470 H 0.75125 0.78150 0.91727
 H1471 H 0.75429 0.78055 1.09257
 H1472 H 0.74873 0.71938 0.90568
 C1473 C 0.58854 0.56544 0.06734
 C1474 C 0.58508 0.58763 0.09120
 C1475 C 0.60669 0.60713 0.10729
 C1476 C 0.59831 0.62710 0.13131
 C1477 C 0.61690 0.64593 0.14704
 C1478 C 0.64516 0.64599 0.13981
 C1479 C 0.65352 0.62603 0.11577
 C1480 C 0.63493 0.60724 0.10001
 C1481 C 0.66688 0.66520 0.15622
 C1482 C 0.66346 0.68799 0.17923
 H1483 H 0.56425 0.59116 0.09897
 H1484 H 0.57704 0.62817 0.13816
 H1485 H 0.60886 0.66027 0.16502
 H1486 H 0.67479 0.62492 0.10896
 H1487 H 0.64297 0.59288 0.08206
 H1488 H 0.68779 0.66093 0.14934
 H1489 H 0.60911 0.56131 0.05906
 H1490 H 0.64278 0.69298 0.18632
 C1491 C 0.91088 0.93329 0.06602
 C1492 C 0.91512 0.91054 0.08885
 C1493 C 0.89411 0.89125 0.10626
 C1494 C 0.90350 0.86990 0.12780
 C1495 C 0.88541 0.85149 0.14499
 C1496 C 0.85678 0.85325 0.14165
 C1497 C 0.84740 0.87447 0.11997
 C1498 C 0.86547 0.89288 0.10279
 C1499 C 0.83571 0.83440 0.15952
 C1500 C 0.83977 0.81159 0.18227
 H1501 H 0.93624 0.90633 0.09473
 H1502 H 0.92515 0.86734 0.13151
 H1503 H 0.89413 0.83596 0.16088
 H1504 H 0.82574 0.87696 0.11620
 H1505 H 0.85671 0.90835 0.08685
 H1506 H 0.81459 0.83913 0.15425
 H1507 H 0.89006 0.93813 0.05946
 H1508 H 0.86053 0.80607 0.18830
 C1509 C 0.91307 0.56442 0.06879
 C1510 C 0.91642 0.58664 0.09259
 C1511 C 0.89413 0.60582 0.10711
 C1512 C 0.88668 0.60524 0.14170
 C1513 C 0.86910 0.62544 0.15668
 C1514 C 0.85827 0.64769 0.13809
 C1515 C 0.86619 0.64842 0.10372
 C1516 C 0.88382 0.62840 0.08890
 C1517 C 0.83701 0.66860 0.15157
 C1518 C 0.83556 0.68147 0.18431
 H1519 H 0.93696 0.59051 0.10120
 H1520 H 0.89452 0.58901 0.15725
 H1521 H 0.86367 0.62320 0.18272
 H1522 H 0.85905 0.66502 0.08825
 H1523 H 0.88993 0.63111 0.06314
 H1524 H 0.82231 0.67589 0.13338
 H1525 H 0.89240 0.55994 0.06107
 H1526 H 0.85205 0.67675 0.20143
 C1527 C 0.57964 0.92569 0.06171
 C1528 C 0.59820 0.92454 0.09064
 C1529 C 0.61246 0.89887 0.10773
 C1530 C 0.63433 0.90251 0.13097
 C1531 C 0.64714 0.88022 0.14832
 C1532 C 0.63867 0.85277 0.14385
 C1533 C 0.61681 0.84911 0.12076
 C1534 C 0.60414 0.87139 0.10321
 C1535 C 0.65163 0.82758 0.16179
 C1536 C 0.67410 0.82750 0.18517
 H1537 H 0.60294 0.94368 0.10271
 H1538 H 0.64172 0.92289 0.13578
 H1539 H 0.66362 0.88486 0.16525
 H1540 H 0.60921 0.82876 0.11625
 H1541 H 0.58743 0.86690 0.08657
 H1542 H 0.64340 0.80780 0.15524
 H1543 H 0.57568 0.90515 0.05224
 H1544 H 0.68303 0.84728 0.18996
 C1545 C -0.17452 0.67466 0.32049
 C1546 C -0.14872 0.67364 0.33762
 C1547 C -0.13689 0.64882 0.35749
 C1548 C -0.11221 0.65150 0.37598
 C1549 C -0.10040 0.62943 0.39478
 C1550 C -0.11254 0.60316 0.39601
 C1551 C -0.13712 0.60043 0.37739
 C1552 C -0.14904 0.62254 0.35884
 C1553 C -0.09998 0.57796 0.41420
 C1554 C -0.07845 0.57794 0.43882
 H1555 H -0.13685 0.69225 0.33782
 H1556 H -0.10171 0.67086 0.37590
 H1557 H -0.08146 0.63308 0.40772
 H1558 H -0.14739 0.58093 0.37704
 H1559 H -0.16769 0.61857 0.34543
 H1560 H -0.10807 0.55819 0.40733
 H1561 H -0.18645 0.65618 0.32266
 H1562 H -0.07030 0.59785 0.44485
 C1563 C 0.67207 -0.17436 0.31409
 C1564 C 0.65075 -0.17378 0.33911
 C1565 C 0.63793 -0.14825 0.35649
 C1566 C 0.61430 -0.15111 0.37693
 C1567 C 0.60212 -0.12868 0.39469
 C1568 C 0.61294 -0.10186 0.39325
 C1569 C 0.63656 -0.09896 0.37276
 C1570 C 0.64871 -0.12140 0.35490
 C1571 C 0.60042 -0.07652 0.41145
 C1572 C 0.57728 -0.07605 0.43385
 H1573 H 0.64301 -0.19345 0.34699
 H1574 H 0.60491 -0.17095 0.37925
 H1575 H 0.58413 -0.13268 0.40939
 H1576 H 0.64597 -0.07912 0.37050
 H1577 H 0.66676 -0.11749 0.34026
 H1578 H 0.60970 -0.05697 0.40610
 H1579 H 0.68014 -0.15460 0.30725
 H1580 H 0.56761 -0.09560 0.43781
 C1581 C 0.66087 0.68697 0.31554
 C1582 C 0.66466 0.66377 0.33794
 C1583 C 0.64346 0.64459 0.35540
 C1584 C 0.65279 0.62296 0.37657
 C1585 C 0.63468 0.60440 0.39358
 C1586 C 0.60601 0.60624 0.39051
 C1587 C 0.59667 0.62788 0.36935
 C1588 C 0.61478 0.64644 0.35231
 C1589 C 0.58491 0.58705 0.40813
 C1590 C 0.58901 0.56367 0.43013
 H1591 H 0.68573 0.65899 0.34341
 H1592 H 0.67444 0.62028 0.38011
 H1593 H 0.64346 0.58869 0.40915
 H1594 H 0.57501 0.63056 0.36586
 H1595 H 0.60602 0.66216 0.33676
 H1596 H 0.56378 0.59193 0.40316
 H1597 H 0.64013 0.69247 0.30937
 H1598 H 0.60984 0.55811 0.43571
 C1599 C -0.16226 -0.18816 0.32344
 C1600 C -0.16639 -0.16420 0.34456
 C1601 C -0.14536 -0.14423 0.36118
 C1602 C -0.15486 -0.12122 0.37993
 C1603 C -0.13690 -0.10198 0.39614
 C1604 C -0.10818 -0.10444 0.39459
 C1605 C -0.09868 -0.12745 0.37582
 C1606 C -0.11663 -0.14669 0.35964
 C1607 C -0.08712 -0.08438 0.41098
 C1608 C -0.09097 -0.06059 0.43253
 H1609 H -0.18754 -0.15928 0.34929
 H1610 H -0.17655 -0.11791 0.38211
 H1611 H -0.14581 -0.08516 0.40972
 H1612 H -0.07699 -0.13073 0.37359
 H1613 H -0.10771 -0.16348 0.34602
 H1614 H -0.06603 -0.08910 0.40561
 H1615 H -0.14140 -0.19364 0.31784
 H1616 H -0.11171 -0.05524 0.43892
 C1617 C 0.00166 0.00785 0.85287
 C1618 C 0.00053 -0.01179 0.82579
 C1619 C 0.00091 -0.00604 0.78700
 C1620 C -0.00101 -0.02808 0.76386
 C1621 C -0.00075 -0.02401 0.72834
 C1622 C 0.00144 0.00237 0.71416
 C1623 C 0.00344 0.02432 0.73718
 C1624 C 0.00314 0.02026 0.77268
 C1625 C 0.00182 0.00828 0.67621
 C1626 C -0.00060 -0.01136 0.64990
 H1627 H -0.00106 -0.03306 0.83241
 H1628 H -0.00273 -0.04869 0.77314
 H1629 H -0.00225 -0.04173 0.71253
 H1630 H 0.00525 0.04492 0.72789
 H1631 H 0.00471 0.03799 0.78845
 H1632 H 0.00402 0.02939 0.66875
 H1633 H 0.00302 0.02884 0.84373
 H1634 H -0.00298 -0.03242 0.65730
 C1635 C 0.25042 0.24282 0.39979
 C1636 C 0.25107 0.26250 0.42617
 C1637 C 0.25056 0.25611 0.46407
 C1638 C 0.25054 0.27779 0.48762
 C1639 C 0.25011 0.27314 0.52304
 C1640 C 0.24970 0.24645 0.53665
 C1641 C 0.24973 0.22479 0.51309
 C1642 C 0.25014 0.22943 0.47770
 C1643 C 0.24929 0.23993 0.57452
 C1644 C 0.24896 0.25940 0.60118
 H1645 H 0.25181 0.28375 0.41893
 H1646 H 0.25083 0.29860 0.47881
 H1647 H 0.25012 0.29070 0.53923
 H1648 H 0.24943 0.20396 0.52186
 H1649 H 0.25017 0.21184 0.46157
 H1650 H 0.24924 0.21862 0.58154
 H1651 H 0.24940 0.22170 0.40741
 H1652 H 0.24892 0.28063 0.59390
 C1653 C 0.08969 0.05832 0.57158
 C1654 C 0.08638 0.08142 0.59443
 C1655 C 0.10782 0.10113 0.61094
 C1656 C 0.09894 0.12155 0.63418
 C1657 C 0.11715 0.14075 0.65008
 C1658 C 0.14556 0.14092 0.64374
 C1659 C 0.15445 0.12047 0.62054
 C1660 C 0.13624 0.10125 0.60467
 C1661 C 0.16686 0.16097 0.65986
 C1662 C 0.16316 0.18355 0.68333
 H1663 H 0.06544 0.08573 0.60109
 H1664 H 0.07753 0.12277 0.64024
 H1665 H 0.10866 0.15538 0.66738
 H1666 H 0.17586 0.11930 0.61447
 H1667 H 0.14472 0.08664 0.58733
 H1668 H 0.18776 0.15749 0.65235
 H1669 H 0.11030 0.05322 0.56434
 H1670 H 0.14249 0.18759 0.69128
 C1671 C 0.33515 0.31537 0.67986
 C1672 C 0.33200 0.33956 0.65894
 C1673 C 0.35408 0.35798 0.64158
 C1674 C 0.34597 0.38187 0.62354
 C1675 C 0.36496 0.39976 0.60676
 C1676 C 0.39342 0.39492 0.60682
 C1677 C 0.40155 0.37100 0.62483
 C1678 C 0.38255 0.35312 0.64161
 C1679 C 0.41550 0.41333 0.58942
 C1680 C 0.41259 0.43783 0.56893
 H1681 H 0.31112 0.34593 0.65508
 H1682 H 0.32457 0.38692 0.62236
 H1683 H 0.35703 0.41740 0.59386
 H1684 H 0.42294 0.36592 0.62599
 H1685 H 0.39048 0.33544 0.65446
 H1686 H 0.43632 0.40664 0.59294
 H1687 H 0.35583 0.30880 0.68461
 H1688 H 0.39200 0.44477 0.56437
 C1689 C 0.33054 0.18892 0.66772
 C1690 C 0.34858 0.16606 0.67380
 C1691 C 0.36230 0.14629 0.64780
 C1692 C 0.38397 0.12873 0.65784
 C1693 C 0.39659 0.10913 0.63580
 C1694 C 0.38805 0.10558 0.60203
 C1695 C 0.36636 0.12317 0.59195
 C1696 C 0.35382 0.14289 0.61398
 C1697 C 0.40122 0.08497 0.57650
 C1698 C 0.42186 0.06446 0.58277
 H1699 H 0.35314 0.16191 0.69988
 H1700 H 0.39151 0.13010 0.68319
 H1701 H 0.41310 0.09696 0.64544
 H1702 H 0.35869 0.12169 0.56667
 H1703 H 0.33720 0.15503 0.60452
 H1704 H 0.39440 0.08673 0.55077
 H1705 H 0.32577 0.19247 0.64155
 H1706 H 0.42908 0.06380 0.60843
 C1707 C 0.16246 0.31527 0.68356
 C1708 C 0.16564 0.33783 0.66021
 C1709 C 0.14349 0.35580 0.64271
 C1710 C 0.15153 0.37742 0.62079
 C1711 C 0.13235 0.39478 0.60374
 C1712 C 0.10382 0.39166 0.60753
 C1713 C 0.09577 0.37005 0.62945
 C1714 C 0.11496 0.35268 0.64649
 C1715 C 0.08170 0.40970 0.59012
 C1716 C 0.08510 0.43204 0.56654
 H1717 H 0.18652 0.34295 0.65410
 H1718 H 0.17299 0.38104 0.61673
 H1719 H 0.14019 0.41065 0.58767
 H1720 H 0.07431 0.36648 0.63354
 H1721 H 0.10714 0.33683 0.66260
 H1722 H 0.06079 0.40484 0.59639
 H1723 H 0.14179 0.30976 0.69009
 H1724 H 0.10583 0.43704 0.55973
 C1725 C 0.41477 0.06549 0.93173
 C1726 C 0.41804 0.08878 0.90951
 C1727 C 0.39586 0.10700 0.89236
 C1728 C 0.40386 0.12931 0.87146
 C1729 C 0.38464 0.14698 0.85491
 C1730 C 0.35610 0.14350 0.85815
 C1731 C 0.34811 0.12116 0.87901
 C1732 C 0.36732 0.10346 0.89552
 C1733 C 0.33390 0.16184 0.84125
 C1734 C 0.33694 0.18481 0.81845
 H1735 H 0.43894 0.09441 0.90424
 H1736 H 0.42531 0.13321 0.86781
 H1737 H 0.39244 0.16339 0.83965
 H1738 H 0.32666 0.11722 0.88265
 H1739 H 0.35952 0.08701 0.91071
 H1740 H 0.31303 0.15656 0.84720
 H1741 H 0.39405 0.05981 0.93774
 H1742 H 0.35756 0.19031 0.81168
 C1743 C 0.08684 0.43880 0.92756
 C1744 C 0.08410 0.41333 0.90917
 C1745 C 0.10627 0.39528 0.89177
 C1746 C 0.09925 0.36881 0.87952
 C1747 C 0.11835 0.35117 0.86269
 C1748 C 0.14571 0.35898 0.85681
 C1749 C 0.15275 0.38548 0.86901
 C1750 C 0.13362 0.40313 0.88588
 C1751 C 0.16773 0.34075 0.83942
 C1752 C 0.16450 0.31504 0.82172
 H1753 H 0.06360 0.40523 0.90818
 H1754 H 0.07869 0.36156 0.88321
 H1755 H 0.11162 0.33125 0.85468
 H1756 H 0.17332 0.39270 0.86527
 H1757 H 0.14032 0.42305 0.89392
 H1758 H 0.18831 0.34871 0.83998
 H1759 H 0.10729 0.44668 0.93068
 H1760 H 0.14390 0.30744 0.81921
 C1761 C 0.08546 0.06259 0.93457
 C1762 C 0.08331 0.08654 0.91221
 C1763 C 0.10585 0.10539 0.89470
 C1764 C 0.09778 0.12859 0.87511
 C1765 C 0.11689 0.14628 0.85828
 C1766 C 0.14541 0.14200 0.85984
 C1767 C 0.15351 0.11895 0.87943
 C1768 C 0.13440 0.10126 0.89627
 C1769 C 0.16753 0.16026 0.84250
 C1770 C 0.16426 0.18376 0.82057
 H1771 H 0.06284 0.09310 0.90670
 H1772 H 0.07634 0.13319 0.87279
 H1773 H 0.10900 0.16332 0.84417
 H1774 H 0.17496 0.11443 0.88179
 H1775 H 0.14229 0.08428 0.91046
 H1776 H 0.18844 0.15442 0.84736
 H1777 H 0.10675 0.05729 0.93969
 H1778 H 0.14353 0.18973 0.81504
 C1779 C 0.41383 0.43679 0.93088
 C1780 C 0.41693 0.41427 0.90729
 C1781 C 0.39498 0.39487 0.89146
 C1782 C 0.40231 0.37691 0.86465
 C1783 C 0.38354 0.35780 0.84964
 C1784 C 0.35613 0.35534 0.86040
 C1785 C 0.34884 0.37325 0.88729
 C1786 C 0.36758 0.39242 0.90223
 C1787 C 0.33420 0.33588 0.84459
 C1788 C 0.33720 0.31399 0.82008
 H1789 H 0.43768 0.41041 0.89940
 H1790 H 0.42284 0.37774 0.85495
 H1791 H 0.39071 0.34514 0.82937
 H1792 H 0.32836 0.37235 0.89711
 H1793 H 0.36042 0.40507 0.92252
 H1794 H 0.31354 0.33921 0.85319
 H1795 H 0.39328 0.44139 0.93886
 H1796 H 0.35771 0.31008 0.81138
 C1797 C 0.49992 0.00899 0.85151
 C1798 C 0.50000 -0.01090 0.82532
 C1799 C 0.50040 -0.00504 0.78733
 C1800 C 0.50012 -0.02704 0.76420
 C1801 C 0.50061 -0.02286 0.72870
 C1802 C 0.50136 0.00364 0.71459
 C1803 C 0.50173 0.02561 0.73775
 C1804 C 0.50117 0.02143 0.77323
 C1805 C 0.50189 0.00963 0.67661
 C1806 C 0.50011 -0.01003 0.65023
 H1807 H 0.49983 -0.03207 0.83295
 H1808 H 0.49950 -0.04773 0.77340
 H1809 H 0.50048 -0.04061 0.71281
 H1810 H 0.50241 0.04631 0.72861
 H1811 H 0.50135 0.03917 0.78912
 H1812 H 0.50361 0.03078 0.66919
 H1813 H 0.50000 0.03017 0.84402
 H1814 H 0.49816 -0.03114 0.65764
 C1815 C 0.75039 0.24134 0.39994
 C1816 C 0.75054 0.26115 0.42611
 C1817 C 0.75005 0.25511 0.46394
 C1818 C 0.74986 0.27707 0.48704
 C1819 C 0.74935 0.27282 0.52245
 C1820 C 0.74904 0.24628 0.53641
 C1821 C 0.74927 0.22433 0.51331
 C1822 C 0.74978 0.22857 0.47790
 C1823 C 0.74850 0.24022 0.57422
 C1824 C 0.74806 0.26002 0.60038
 H1825 H 0.75096 0.28236 0.41867
 H1826 H 0.75007 0.29779 0.47788
 H1827 H 0.74919 0.29057 0.53833
 H1828 H 0.74902 0.20362 0.52250
 H1829 H 0.74997 0.21082 0.46204
 H1830 H 0.74853 0.21900 0.58165
 H1831 H 0.74985 0.22017 0.40741
 H1832 H 0.74823 0.28120 0.59292
 C1833 C 0.58898 0.06163 0.56925
 C1834 C 0.58520 0.08411 0.59261
 C1835 C 0.60653 0.10363 0.60906
 C1836 C 0.59783 0.12340 0.63314
 C1837 C 0.61615 0.14231 0.64911
 C1838 C 0.64438 0.14279 0.64190
 C1839 C 0.65309 0.12300 0.61783
 C1840 C 0.63477 0.10405 0.60188
 C1841 C 0.66563 0.16255 0.65814
 C1842 C 0.66177 0.18464 0.68207
 H1843 H 0.56425 0.08784 0.59978
 H1844 H 0.57652 0.12429 0.63982
 H1845 H 0.60792 0.15646 0.66717
 H1846 H 0.67439 0.12213 0.61110
 H1847 H 0.64297 0.08990 0.58379
 H1848 H 0.68652 0.15936 0.65036
 H1849 H 0.60967 0.05715 0.56173
 H1850 H 0.64112 0.18851 0.69023
 C1851 C -0.16563 0.31508 0.67866
 C1852 C -0.16878 0.33945 0.65815
 C1853 C -0.14662 0.35769 0.64079
 C1854 C -0.15456 0.38163 0.62278
 C1855 C -0.13542 0.39934 0.60603
 C1856 C -0.10700 0.39424 0.60613
 C1857 C -0.09907 0.37027 0.62411
 C1858 C -0.11820 0.35257 0.64087
 C1859 C -0.08479 0.41246 0.58881
 C1860 C -0.08767 0.43692 0.56833
 H1861 H -0.18962 0.34610 0.65462
 H1862 H -0.17592 0.38685 0.62160
 H1863 H -0.14319 0.41705 0.59312
 H1864 H -0.07771 0.36501 0.62527
 H1865 H -0.11042 0.33485 0.65375
 H1866 H -0.06400 0.40572 0.59244
 H1867 H -0.14495 0.30840 0.68316
 H1868 H -0.10825 0.44392 0.56386
 C1869 C 0.92538 0.07241 0.57881
 C1870 C 0.89803 0.08294 0.57932
 C1871 C 0.88689 0.10597 0.60289
 C1872 C 0.85885 0.11330 0.60228
 C1873 C 0.84756 0.13442 0.62312
 C1874 C 0.86378 0.14952 0.64606
 C1875 C 0.89177 0.14215 0.64680
 C1876 C 0.90310 0.12118 0.62580
 C1877 C 0.85230 0.17162 0.67054
 C1878 C 0.82681 0.18572 0.66701
 H1879 H 0.88376 0.07418 0.56165
 H1880 H 0.84517 0.10252 0.58572
 H1881 H 0.82597 0.13832 0.62153
 H1882 H 0.90533 0.15274 0.66370
 H1883 H 0.92463 0.11719 0.62783
 H1884 H 0.86465 0.17663 0.69217
 H1885 H 0.93869 0.08193 0.59702
 H1886 H 0.81571 0.18020 0.64451
 C1887 C 0.66172 0.31542 0.68354
 C1888 C 0.66504 0.33773 0.66003
 C1889 C 0.64298 0.35563 0.64260
 C1890 C 0.65111 0.37708 0.62055
 C1891 C 0.63198 0.39441 0.60353
 C1892 C 0.60347 0.39132 0.60748
 C1893 C 0.59534 0.36990 0.62955
 C1894 C 0.61448 0.35257 0.64657
 C1895 C 0.58146 0.40926 0.59006
 C1896 C 0.58516 0.43141 0.56650
 H1897 H 0.68594 0.34267 0.65379
 H1898 H 0.67258 0.38056 0.61636
 H1899 H 0.63983 0.41020 0.58737
 H1900 H 0.57387 0.36646 0.63372
 H1901 H 0.60664 0.33680 0.66278
 H1902 H 0.56051 0.40455 0.59626
 H1903 H 0.64106 0.31008 0.69033
 H1904 H 0.60593 0.43625 0.55971
 C1905 C 0.91374 0.06591 0.93058
 C1906 C 0.91710 0.08903 0.90818
 C1907 C 0.89492 0.10707 0.89087
 C1908 C 0.90291 0.12927 0.86982
 C1909 C 0.88369 0.14681 0.85312
 C1910 C 0.85516 0.14328 0.85642
 C1911 C 0.84717 0.12102 0.87734
 C1912 C 0.86639 0.10346 0.89400
 C1913 C 0.83294 0.16147 0.83947
 C1914 C 0.83601 0.18435 0.81664
 H1915 H 0.93801 0.09461 0.90289
 H1916 H 0.92437 0.13317 0.86618
 H1917 H 0.89147 0.16314 0.83772
 H1918 H 0.82571 0.11705 0.88090
 H1919 H 0.85857 0.08708 0.90929
 H1920 H 0.81208 0.15619 0.84545
 H1921 H 0.89299 0.06022 0.93642
 H1922 H 0.85663 0.18995 0.81001
 C1923 C 0.58650 0.43689 0.92734
 C1924 C 0.58331 0.41152 0.90906
 C1925 C 0.60543 0.39361 0.89158
 C1926 C 0.59841 0.36733 0.87883
 C1927 C 0.61764 0.34982 0.86206
 C1928 C 0.64509 0.35764 0.85682
 C1929 C 0.65206 0.38401 0.86940
 C1930 C 0.63282 0.40151 0.88617
 C1931 C 0.66729 0.33959 0.83968
 C1932 C 0.66420 0.31416 0.82148
 H1933 H 0.56274 0.40355 0.90820
 H1934 H 0.57775 0.36018 0.88201
 H1935 H 0.61091 0.33003 0.85357
 H1936 H 0.67265 0.39128 0.86600
 H1937 H 0.63949 0.42137 0.89446
 H1938 H 0.68789 0.34743 0.84088
 H1939 H 0.60710 0.44443 0.93016
 H1940 H 0.64362 0.30661 0.81846
 C1941 C 0.58619 0.06340 0.93496
 C1942 C 0.58368 0.08707 0.91238
 C1943 C 0.60603 0.10579 0.89458
 C1944 C 0.59773 0.12880 0.87488
 C1945 C 0.61666 0.14643 0.85777
 C1946 C 0.64518 0.14221 0.85911
 C1947 C 0.65351 0.11934 0.87885
 C1948 C 0.63458 0.10172 0.89600
 C1949 C 0.66707 0.16032 0.84129
 C1950 C 0.66351 0.18376 0.81940
 H1951 H 0.56313 0.09339 0.90687
 H1952 H 0.57626 0.13327 0.87269
 H1953 H 0.60863 0.16336 0.84358
 H1954 H 0.67499 0.11491 0.88109
 H1955 H 0.64259 0.08483 0.91025
 H1956 H 0.68802 0.15446 0.84572
 H1957 H 0.60754 0.05828 0.94002
 H1958 H 0.64274 0.18977 0.81413
 C1959 C 0.91410 0.43357 0.93096
 C1960 C 0.91730 0.41158 0.90676
 C1961 C 0.89539 0.39210 0.89112
 C1962 C 0.90352 0.37129 0.86807
 C1963 C 0.88463 0.35252 0.85274
 C1964 C 0.85624 0.35340 0.85931
 C1965 C 0.84813 0.37421 0.88241
 C1966 C 0.86703 0.39300 0.89768
 C1967 C 0.83425 0.33399 0.84364
 C1968 C 0.83707 0.31242 0.81873
 H1969 H 0.93800 0.40821 0.89837
 H1970 H 0.92484 0.36950 0.86168
 H1971 H 0.89262 0.33737 0.83577
 H1972 H 0.82681 0.37605 0.88882
 H1973 H 0.85912 0.40823 0.91461
 H1974 H 0.81364 0.33719 0.85251
 H1975 H 0.89360 0.43730 0.93981
 H1976 H 0.85743 0.30881 0.80938
 C1977 C 0.00119 0.50913 0.85175
 C1978 C 0.00180 0.48954 0.82455
 C1979 C 0.00235 0.49531 0.78574
 C1980 C 0.00268 0.47316 0.76266
 C1981 C 0.00308 0.47716 0.72713
 C1982 C 0.00316 0.50357 0.71284
 C1983 C 0.00296 0.52568 0.73578
 C1984 C 0.00254 0.52169 0.77132
 C1985 C 0.00350 0.50934 0.67484
 C1986 C 0.00293 0.48945 0.64865
 H1987 H 0.00180 0.46821 0.83112
 H1988 H 0.00261 0.45250 0.77200
 H1989 H 0.00335 0.45932 0.71139
 H1990 H 0.00308 0.54633 0.72641
 H1991 H 0.00236 0.53952 0.78704
 H1992 H 0.00399 0.53052 0.66724
 H1993 H 0.00128 0.53019 0.84264
 H1994 H 0.00214 0.46830 0.65620
 C1995 C 0.24993 0.73993 0.39860
 C1996 C 0.25223 0.75956 0.42492
 C1997 C 0.25168 0.75359 0.46284
 C1998 C 0.25375 0.77550 0.48593
 C1999 C 0.25336 0.77135 0.52139
 C2000 C 0.25089 0.74497 0.53549
 C2001 C 0.24885 0.72306 0.51241
 C2002 C 0.24923 0.72720 0.47693
 C2003 C 0.25035 0.73906 0.57341
 C2004 C 0.25167 0.75885 0.59961
 H2005 H 0.25451 0.78066 0.41750
 H2006 H 0.25568 0.79610 0.47671
 H2007 H 0.25506 0.78903 0.53724
 H2008 H 0.24693 0.70246 0.52166
 H2009 H 0.24760 0.70951 0.46108
 H2010 H 0.24874 0.71791 0.58093
 H2011 H 0.24759 0.71886 0.40601
 H2012 H 0.25324 0.77997 0.59208
 C2013 C 0.09055 0.56062 0.56771
 C2014 C 0.08700 0.58337 0.59093
 C2015 C 0.10824 0.60325 0.60729
 C2016 C 0.09919 0.62355 0.63055
 C2017 C 0.11724 0.64286 0.64641
 C2018 C 0.14563 0.64317 0.64007
 C2019 C 0.15471 0.62284 0.61685
 C2020 C 0.13664 0.60353 0.60097
 C2021 C 0.16673 0.66316 0.65648
 C2022 C 0.16273 0.68595 0.67948
 H2023 H 0.06606 0.58724 0.59796
 H2024 H 0.07779 0.62456 0.63671
 H2025 H 0.10868 0.65742 0.66374
 H2026 H 0.17613 0.62182 0.61078
 H2027 H 0.14521 0.58893 0.58368
 H2028 H 0.18775 0.65946 0.64964
 H2029 H 0.11116 0.55606 0.55991
 H2030 H 0.14195 0.69041 0.68666
 C2031 C 0.41232 0.93699 0.56969
 C2032 C 0.41594 0.91338 0.59141
 C2033 C 0.39440 0.89434 0.60846
 C2034 C 0.40326 0.87219 0.62911
 C2035 C 0.38475 0.85367 0.64552
 C2036 C 0.35613 0.85612 0.64237
 C2037 C 0.34726 0.87825 0.62171
 C2038 C 0.36576 0.89676 0.60529
 C2039 C 0.33460 0.83707 0.65941
 C2040 C 0.33826 0.81334 0.68090
 H2041 H 0.43696 0.90811 0.59645
 H2042 H 0.42485 0.86905 0.63268
 H2043 H 0.39318 0.83749 0.66065
 H2044 H 0.32567 0.88135 0.61810
 H2045 H 0.35733 0.91290 0.59009
 H2046 H 0.31357 0.84241 0.65452
 H2047 H 0.39160 0.94294 0.56409
 H2048 H 0.35898 0.80742 0.68653
 C2049 C 0.32688 0.67653 0.67814
 C2050 C 0.35337 0.67415 0.66290
 C2051 C 0.36433 0.64906 0.64259
 C2052 C 0.39210 0.64785 0.63250
 C2053 C 0.40316 0.62566 0.61321
 C2054 C 0.38695 0.60329 0.60240
 C2055 C 0.35910 0.60462 0.61219
 C2056 C 0.34809 0.62671 0.63177
 C2057 C 0.39776 0.57902 0.58049
 C2058 C 0.42592 0.57237 0.57476
 H2059 H 0.36684 0.69152 0.66523
 H2060 H 0.40564 0.66429 0.63940
 H2061 H 0.42441 0.62659 0.60646
 H2062 H 0.34543 0.58844 0.60473
 H2063 H 0.32668 0.62614 0.63776
 H2064 H 0.38268 0.56562 0.56949
 H2065 H 0.31421 0.65867 0.67477
 H2066 H 0.43980 0.58584 0.58788
 C2067 C 0.07297 0.92343 0.57190
 C2068 C 0.10095 0.91909 0.58106
 C2069 C 0.11212 0.89521 0.60322
 C2070 C 0.14025 0.89388 0.61161
 C2071 C 0.15163 0.87250 0.63195
 C2072 C 0.13543 0.85097 0.64512
 C2073 C 0.10735 0.85220 0.63657
 C2074 C 0.09595 0.87364 0.61637
 C2075 C 0.14677 0.82666 0.66634
 C2076 C 0.17353 0.82500 0.68088
 H2077 H 0.11557 0.93403 0.57240
 H2078 H 0.15387 0.90945 0.60233
 H2079 H 0.17325 0.87294 0.63665
 H2080 H 0.09381 0.83644 0.64555
 H2081 H 0.07442 0.87286 0.61122
 H2082 H 0.13340 0.80939 0.67008
 H2083 H 0.05921 0.90826 0.58201
 H2084 H 0.18595 0.84288 0.67636
 C2085 C 0.41365 0.56547 0.93311
 C2086 C 0.41644 0.58853 0.91044
 C2087 C 0.39398 0.60645 0.89346
 C2088 C 0.40166 0.62864 0.87220
 C2089 C 0.38219 0.64596 0.85560
 C2090 C 0.35372 0.64226 0.85921
 C2091 C 0.34603 0.62010 0.88048
 C2092 C 0.36550 0.60276 0.89707
 C2093 C 0.33132 0.66022 0.84217
 C2094 C 0.33451 0.68298 0.81923
 H2095 H 0.43724 0.59413 0.90458
 H2096 H 0.42306 0.63275 0.86832
 H2097 H 0.38976 0.66226 0.83998
 H2098 H 0.32462 0.61604 0.88436
 H2099 H 0.35795 0.58647 0.91270
 H2100 H 0.31047 0.65491 0.84812
 H2101 H 0.39308 0.55956 0.93960
 H2102 H 0.35522 0.68844 0.81284
 C2103 C 0.08516 0.93745 0.93128
 C2104 C 0.08315 0.91368 0.90869
 C2105 C 0.10593 0.89493 0.89156
 C2106 C 0.09841 0.87005 0.87506
 C2107 C 0.11776 0.85240 0.85859
 C2108 C 0.14597 0.85851 0.85729
 C2109 C 0.15350 0.88339 0.87355
 C2110 C 0.13414 0.90102 0.89008
 C2111 C 0.16834 0.83996 0.84096
 C2112 C 0.16521 0.81662 0.81874
 H2113 H 0.06272 0.90680 0.90343
 H2114 H 0.07722 0.86405 0.87517
 H2115 H 0.11043 0.83375 0.84738
 H2116 H 0.17466 0.88946 0.87330
 H2117 H 0.14145 0.91966 0.90129
 H2118 H 0.18919 0.84553 0.84657
 H2119 H 0.10646 0.94262 0.93670
 H2120 H 0.14450 0.81151 0.81184
 C2121 C 0.08490 0.56615 0.93031
 C2122 C 0.08155 0.58953 0.90825
 C2123 C 0.10356 0.60785 0.89089
 C2124 C 0.09535 0.63087 0.87133
 C2125 C 0.11436 0.64848 0.85428
 C2126 C 0.14288 0.64422 0.85569
 C2127 C 0.15109 0.62124 0.87532
 C2128 C 0.13209 0.60363 0.89239
 C2129 C 0.16492 0.66239 0.83816
 C2130 C 0.16177 0.68600 0.81634
 H2131 H 0.06062 0.59519 0.90327
 H2132 H 0.07389 0.63544 0.86919
 H2133 H 0.10641 0.66545 0.84010
 H2134 H 0.17255 0.61672 0.87756
 H2135 H 0.14006 0.58671 0.90664
 H2136 H 0.18580 0.65640 0.84283
 H2137 H 0.10562 0.56033 0.93610
 H2138 H 0.14113 0.69229 0.81086
 C2139 C 0.41343 0.93580 0.92976
 C2140 C 0.41684 0.91273 0.90709
 C2141 C 0.39505 0.89332 0.89098
 C2142 C 0.40322 0.87347 0.86669
 C2143 C 0.38460 0.85437 0.85145
 C2144 C 0.35646 0.85388 0.85942
 C2145 C 0.34829 0.87372 0.88374
 C2146 C 0.36691 0.89286 0.89892
 C2147 C 0.33471 0.83429 0.84353
 C2148 C 0.33794 0.81187 0.81982
 H2149 H 0.43775 0.90825 0.90041
 H2150 H 0.42436 0.87273 0.85922
 H2151 H 0.39253 0.84010 0.83334
 H2152 H 0.32717 0.87443 0.89131
 H2153 H 0.35899 0.90712 0.91706
 H2154 H 0.31392 0.83814 0.85126
 H2155 H 0.39271 0.94069 0.93677
 H2156 H 0.35851 0.80766 0.81162
 C2157 C 0.49945 0.51044 0.84997
 C2158 C 0.50027 0.49066 0.82361
 C2159 C 0.50054 0.49655 0.78558
 C2160 C 0.50071 0.47451 0.76253
 C2161 C 0.50104 0.47858 0.72701
 C2162 C 0.50124 0.50502 0.71276
 C2163 C 0.50116 0.52708 0.73580
 C2164 C 0.50078 0.52301 0.77134
 C2165 C 0.50169 0.51082 0.67473
 C2166 C 0.50075 0.49091 0.64854
 H2167 H 0.50073 0.46946 0.83108
 H2168 H 0.50058 0.45383 0.77180
 H2169 H 0.50122 0.46077 0.71123
 H2170 H 0.50138 0.54775 0.72650
 H2171 H 0.50074 0.54080 0.78714
 H2172 H 0.50267 0.53199 0.66713
 H2173 H 0.49896 0.53162 0.84247
 H2174 H 0.49946 0.46982 0.65620
 C2175 C 0.74828 0.74063 0.39916
 C2176 C 0.74977 0.76048 0.42520
 C2177 C 0.74923 0.75461 0.46302
 C2178 C 0.75082 0.77661 0.48599
 C2179 C 0.75051 0.77249 0.52141
 C2180 C 0.74855 0.74606 0.53548
 C2181 C 0.74698 0.72408 0.51252
 C2182 C 0.74728 0.72819 0.47711
 C2183 C 0.74807 0.74015 0.57327
 C2184 C 0.74926 0.76001 0.59929
 H2185 H 0.75147 0.78160 0.41763
 H2186 H 0.75233 0.79723 0.47672
 H2187 H 0.75187 0.79023 0.53721
 H2188 H 0.74552 0.70346 0.52182
 H2189 H 0.74598 0.71044 0.46132
 H2190 H 0.74664 0.71901 0.58084
 H2191 H 0.74659 0.71953 0.40668
 H2192 H 0.75051 0.78115 0.59177
 C2193 C 0.58983 0.56232 0.56650
 C2194 C 0.58595 0.58480 0.58987
 C2195 C 0.60708 0.60453 0.60639
 C2196 C 0.59804 0.62445 0.63010
 C2197 C 0.61610 0.64364 0.64605
 C2198 C 0.64441 0.64414 0.63931
 C2199 C 0.65346 0.62417 0.61567
 C2200 C 0.63540 0.60498 0.59971
 C2201 C 0.66547 0.66399 0.65573
 C2202 C 0.66138 0.68650 0.67897
 H2203 H 0.56497 0.58845 0.59692
 H2204 H 0.57668 0.62523 0.63651
 H2205 H 0.60760 0.65795 0.66374
 H2206 H 0.67483 0.62337 0.60931
 H2207 H 0.64390 0.59064 0.58207
 H2208 H 0.68649 0.66043 0.64873
 H2209 H 0.61051 0.55792 0.55884
 H2210 H 0.64062 0.69076 0.68642
 C2211 C 0.90951 0.93711 0.56393
 C2212 C 0.91226 0.91813 0.59218
 C2213 C 0.89103 0.89758 0.60751
 C2214 C 0.89883 0.88055 0.63484
 C2215 C 0.88069 0.86107 0.65023
 C2216 C 0.85342 0.85751 0.63942
 C2217 C 0.84565 0.87466 0.61196
 C2218 C 0.86391 0.89390 0.59628
 C2219 C 0.83203 0.83780 0.65582
 C2220 C 0.83561 0.81577 0.68007
 H2221 H 0.92974 0.92219 0.60880
 H2222 H 0.91930 0.88217 0.64455
 H2223 H 0.88818 0.84911 0.67097
 H2224 H 0.82512 0.87319 0.60240
 H2225 H 0.85646 0.90597 0.57559
 H2226 H 0.81124 0.84076 0.64752
 H2227 H 0.91377 0.91580 0.56157
 H2228 H 0.85627 0.81165 0.68801
 C2229 C 0.92560 0.56999 0.58005
 C2230 C 0.89906 0.58254 0.57834
 C2231 C 0.88741 0.60503 0.60245
 C2232 C 0.86012 0.61449 0.59897
 C2233 C 0.84850 0.63535 0.62000
 C2234 C 0.86357 0.64809 0.64609
 C2235 C 0.89082 0.63861 0.64965
 C2236 C 0.90249 0.61787 0.62850
 C2237 C 0.85161 0.66989 0.67080
 C2238 C 0.82688 0.68529 0.66643
 H2239 H 0.88592 0.57608 0.55805
 H2240 H 0.84728 0.60564 0.57987
 H2241 H 0.82751 0.64097 0.61595
 H2242 H 0.90354 0.64734 0.66895
 H2243 H 0.92340 0.61219 0.63283
 H2244 H 0.86298 0.67351 0.69364
 H2245 H 0.93797 0.57735 0.60063
 H2246 H 0.81643 0.68097 0.64309
 C2247 C 0.58199 0.93012 0.56929
 C2248 C 0.57529 0.90895 0.59251
 C2249 C 0.59410 0.88923 0.61160
 C2250 C 0.62308 0.88803 0.61029
 C2251 C 0.63859 0.86836 0.62973
 C2252 C 0.62584 0.84894 0.65145
 C2253 C 0.59704 0.85051 0.65232
 C2254 C 0.58177 0.86985 0.63318
 C2255 C 0.64064 0.82692 0.67359
 C2256 C 0.66941 0.82162 0.67604
 H2257 H 0.55357 0.90659 0.59724
 H2258 H 0.63400 0.90211 0.59443
 H2259 H 0.66049 0.86857 0.62758
 H2260 H 0.58580 0.83654 0.66808
 H2261 H 0.55983 0.86949 0.63547
 H2262 H 0.62762 0.81419 0.68894
 H2263 H 0.60253 0.93444 0.56254
 H2264 H 0.68167 0.83491 0.66039
 C2265 C 0.91228 0.56500 0.93148
 C2266 C 0.91530 0.58823 0.90902
 C2267 C 0.89305 0.60624 0.89164
 C2268 C 0.90097 0.62845 0.87054
 C2269 C 0.88169 0.64593 0.85375
 C2270 C 0.85316 0.64235 0.85699
 C2271 C 0.84525 0.62009 0.87800
 C2272 C 0.86452 0.60260 0.89476
 C2273 C 0.83089 0.66049 0.83988
 C2274 C 0.83404 0.68335 0.81698
 H2275 H 0.93616 0.59395 0.90367
 H2276 H 0.92241 0.63246 0.86689
 H2277 H 0.88945 0.66224 0.83829
 H2278 H 0.82381 0.61605 0.88156
 H2279 H 0.85677 0.58624 0.91013
 H2280 H 0.81002 0.65521 0.84580
 H2281 H 0.89163 0.55897 0.93739
 H2282 H 0.85473 0.68886 0.81059
 C2283 C 0.58498 0.93634 0.93100
 C2284 C 0.58256 0.91177 0.91001
 C2285 C 0.60524 0.89338 0.89247
 C2286 C 0.59791 0.86791 0.87737
 C2287 C 0.61720 0.85058 0.86043
 C2288 C 0.64507 0.85763 0.85740
 C2289 C 0.65241 0.88306 0.87235
 C2290 C 0.63311 0.90042 0.88925
 C2291 C 0.66730 0.83964 0.84025
 C2292 C 0.66397 0.81543 0.81976
 H2293 H 0.56221 0.90390 0.90671
 H2294 H 0.57694 0.86132 0.87888
 H2295 H 0.61014 0.83151 0.85007
 H2296 H 0.67334 0.88975 0.87065
 H2297 H 0.64014 0.91959 0.89932
 H2298 H 0.68811 0.84644 0.84358
 H2299 H 0.60635 0.94200 0.93500
 H2300 H 0.64324 0.80901 0.81493
 C2301 C 0.58554 0.56638 0.93084
 C2302 C 0.58133 0.58923 0.90905
 C2303 C 0.60301 0.60722 0.89182
 C2304 C 0.59479 0.63052 0.87292
 C2305 C 0.61373 0.64808 0.85554
 C2306 C 0.64223 0.64344 0.85594
 C2307 C 0.65045 0.62011 0.87499
 C2308 C 0.63153 0.60258 0.89241
 C2309 C 0.66426 0.66157 0.83804
 C2310 C 0.66119 0.68536 0.81635
 H2311 H 0.56011 0.59442 0.90440
 H2312 H 0.57337 0.63543 0.87152
 H2313 H 0.60574 0.66531 0.84188
 H2314 H 0.67187 0.61520 0.87643
 H2315 H 0.63954 0.58537 0.90611
 H2316 H 0.68514 0.65536 0.84230
 H2317 H 0.60560 0.55990 0.93730
 H2318 H 0.64053 0.69185 0.81129
 C2319 C 0.91334 0.93416 0.92980
 C2320 C 0.91680 0.91119 0.90710
 C2321 C 0.89486 0.89204 0.89099
 C2322 C 0.90251 0.87342 0.86508
 C2323 C 0.88369 0.85466 0.84959
 C2324 C 0.85591 0.85316 0.85912
 C2325 C 0.84829 0.87171 0.88520
 C2326 C 0.86710 0.89054 0.90060
 C2327 C 0.83394 0.83398 0.84295
 C2328 C 0.83687 0.81166 0.81903
 H2329 H 0.93767 0.90689 0.90005
 H2330 H 0.92340 0.87342 0.85655
 H2331 H 0.89115 0.84153 0.82994
 H2332 H 0.82749 0.87159 0.89403
 H2333 H 0.85970 0.90361 0.92038
 H2334 H 0.81320 0.83793 0.85078
 H2335 H 0.89258 0.93915 0.93651
 H2336 H 0.85738 0.80706 0.81087
   
