data_POSCAR
  _audit_creation_date              2014-09-24
  _audit_creation_method            'ToBaCCo'
  _symmetry_space_group_name_H-M    'P1'
  _symmetry_Int_Tables_number       1
  _symmetry_cell_setting            triclinic
  loop_
  _symmetry_equiv_pos_as_xyz
 x,y,z
_cell_length_a 40.9309
_cell_length_b 40.9642
_cell_length_c 40.9636
_cell_angle_alpha 90.034300
_cell_angle_beta 89.996500
_cell_angle_gamma 89.964300
loop_
  _atom_site_label
  _atom_site_type_symbol
  _atom_site_fract_x
  _atom_site_fract_y
  _atom_site_fract_z
O1 O 0.87059 0.17220 0.79354
 O2 O 0.90465 0.12768 0.78021
 O3 O 0.78644 0.12362 0.83368
 O4 O 0.77574 0.08979 0.87469
 O5 O 0.82646 0.20814 0.88214
 O6 O 0.87206 0.21702 0.91593
 O7 O 0.86958 0.03741 0.91629
 O8 O 0.84221 0.02614 0.87075
 O9 O 0.95792 0.08142 0.86830
 O10 O 0.96915 0.12957 0.84185
 O11 O 0.91928 0.12116 0.95994
 O12 O 0.87067 0.15406 0.97270
 O13 O 0.88025 0.07320 0.95688
 O14 O 0.83921 0.11663 0.97189
 O15 O 0.95763 0.11927 0.91981
 O16 O 0.96352 0.16445 0.87514
 O17 O 0.92062 0.04201 0.87874
 O18 O 0.87601 0.03452 0.83296
 O19 O 0.87108 0.21002 0.83433
 O20 O 0.90849 0.21731 0.88039
 O21 O 0.78762 0.16851 0.88258
 O22 O 0.78146 0.11902 0.91678
 O23 O 0.82459 0.12580 0.79331
 O24 O 0.87088 0.09030 0.78208
 Zr25 Zr 0.86959 0.12726 0.81814
 O26 O 0.90204 0.09683 0.84373
 Zr27 Zr 0.81392 0.12441 0.87702
 O28 O 0.84312 0.09235 0.90463
 Zr29 Zr 0.87069 0.18223 0.87784
 O30 O 0.90201 0.15331 0.90685
 Zr31 Zr 0.87495 0.06586 0.87425
 O32 O 0.84198 0.09415 0.84617
 Zr33 Zr 0.93092 0.12431 0.87603
 O34 O 0.90179 0.15545 0.84677
 Zr35 Zr 0.87481 0.11955 0.93447
 O36 O 0.84315 0.15191 0.90908
 O37 O 0.83965 0.15628 0.84723
 O38 O 0.90578 0.09140 0.90557
 C39 C 0.87140 0.20169 0.80401
 C40 C 0.79495 0.12442 0.80351
 C41 C 0.79662 0.19858 0.88430
 C42 C 0.87621 0.04389 0.94612
 C43 C 0.94993 0.05141 0.87233
 C44 C 0.94891 0.11956 0.94994
 H45 H 0.91552 0.08471 0.82777
 H46 H 0.91538 0.16769 0.92089
 H47 H 0.82509 0.17063 0.83437
 H48 H 0.82863 0.07788 0.91738
 H49 H 0.82230 0.03460 0.85996
 H50 H 0.78531 0.06853 0.88092
 H51 H 0.96427 0.17404 0.89730
 H52 H 0.92443 0.21165 0.86311
 H53 H 0.89881 0.03271 0.82514
 H54 H 0.85505 0.07336 0.78889
 H55 H 0.88661 0.17165 0.96829
 H56 H 0.85881 0.20792 0.93397
 H57 H 0.92187 0.14334 0.78674
 H58 H 0.95989 0.12345 0.82043
 H59 H 0.79128 0.13117 0.93517
 H60 H 0.82623 0.09656 0.96839
 O61 O 0.82773 0.70525 0.38004
 O62 O 0.87460 0.71441 0.41305
 O63 O 0.87287 0.66814 0.29126
 O64 O 0.90297 0.62589 0.27641
 O65 O 0.78745 0.62170 0.33280
 O66 O 0.78019 0.58378 0.37730
 O67 O 0.95940 0.57802 0.36931
 O68 O 0.96563 0.62283 0.33358
 O69 O 0.92272 0.61723 0.45672
 O70 O 0.87638 0.65496 0.46969
 O71 O 0.87533 0.53572 0.41772
 O72 O 0.84267 0.52376 0.37325
 O73 O 0.92113 0.53804 0.37397
 O74 O 0.87230 0.53002 0.33445
 O75 O 0.87885 0.57407 0.45772
 O76 O 0.84211 0.62001 0.47056
 O77 O 0.96038 0.61993 0.41609
 O78 O 0.96837 0.65872 0.37275
 O79 O 0.78897 0.66555 0.38225
 O80 O 0.78062 0.61715 0.41382
 O81 O 0.82522 0.62238 0.29205
 O82 O 0.87094 0.58448 0.28242
 O83 O 0.87107 0.70668 0.33138
 O84 O 0.90913 0.71541 0.37526
 Zr85 Zr 0.87197 0.67958 0.37505
 O86 O 0.90409 0.65143 0.40364
 Zr87 Zr 0.87040 0.62346 0.31644
 O88 O 0.90291 0.59309 0.34234
 Zr89 Zr 0.81533 0.62162 0.37599
 O90 O 0.84507 0.59071 0.40432
 Zr91 Zr 0.93242 0.62143 0.37314
 O92 O 0.90282 0.65228 0.34419
 Zr93 Zr 0.87733 0.61881 0.43270
 O94 O 0.84484 0.64992 0.40716
 Zr95 Zr 0.87605 0.56301 0.37410
 O96 O 0.84304 0.59092 0.34545
 O97 O 0.84067 0.65296 0.34528
 O98 O 0.90752 0.58944 0.40402
 C99 C 0.79802 0.69563 0.38326
 C100 C 0.87241 0.69787 0.30128
 C101 C 0.79569 0.62175 0.30254
 C102 C 0.95075 0.54798 0.37106
 C103 C 0.95232 0.61757 0.44627
 C104 C 0.87669 0.54444 0.44784
 H105 H 0.91776 0.66601 0.41713
 H106 H 0.83079 0.57669 0.41779
 H107 H 0.82606 0.66732 0.33248
 H108 H 0.91623 0.58034 0.32676
 H109 H 0.95736 0.63941 0.31804
 H110 H 0.92333 0.61467 0.28298
 H111 H 0.82721 0.60124 0.46748
 H112 H 0.79087 0.62696 0.43332
 H113 H 0.96240 0.67523 0.38932
 H114 H 0.92558 0.70838 0.35898
 H115 H 0.82137 0.53288 0.37997
 H116 H 0.78527 0.56877 0.35903
 H117 H 0.86178 0.70541 0.43145
 H118 H 0.89484 0.67006 0.46592
 H119 H 0.85333 0.56921 0.28879
 H120 H 0.89280 0.53122 0.32171
 O121 O 0.37384 0.16741 0.28735
 O122 O 0.40646 0.12051 0.27623
 O123 O 0.28783 0.12289 0.33099
 O124 O 0.27953 0.08756 0.37239
 O125 O 0.32919 0.20726 0.37516
 O126 O 0.37675 0.21689 0.40783
 O127 O 0.37311 0.03855 0.41732
 O128 O 0.33717 0.03023 0.36959
 O129 O 0.45908 0.07743 0.36940
 O130 O 0.46617 0.12467 0.33035
 O131 O 0.42459 0.12018 0.45371
 O132 O 0.37915 0.15851 0.46637
 O133 O 0.38043 0.07739 0.45611
 O134 O 0.34385 0.12455 0.46794
 O135 O 0.46145 0.12427 0.41271
 O136 O 0.47047 0.15729 0.36618
 O137 O 0.42013 0.03799 0.37271
 O138 O 0.38005 0.02568 0.33882
 O139 O 0.37206 0.20720 0.32594
 O140 O 0.41094 0.21685 0.36938
 O141 O 0.29037 0.16761 0.37859
 O142 O 0.28380 0.12105 0.41359
 O143 O 0.32542 0.12303 0.28998
 O144 O 0.36989 0.08642 0.27781
 Zr145 Zr 0.37107 0.12356 0.31370
 O146 O 0.40275 0.09314 0.34024
 Zr147 Zr 0.31649 0.12362 0.37365
 O148 O 0.34590 0.09319 0.40287
 Zr149 Zr 0.37354 0.18129 0.37060
 O150 O 0.40561 0.15336 0.39969
 Zr151 Zr 0.37594 0.06425 0.37296
 O152 O 0.34368 0.09190 0.34339
 Zr153 Zr 0.43310 0.12185 0.37000
 O154 O 0.40392 0.15270 0.34046
 Zr155 Zr 0.37891 0.12172 0.43004
 O156 O 0.34660 0.15256 0.40371
 O157 O 0.34193 0.15401 0.34203
 O158 O 0.40820 0.09094 0.40202
 C159 C 0.37264 0.19748 0.29602
 C160 C 0.29593 0.12275 0.30069
 C161 C 0.29950 0.19758 0.37865
 C162 C 0.37545 0.04769 0.44725
 C163 C 0.44993 0.04749 0.37056
 C164 C 0.45408 0.12156 0.44301
 H165 H 0.41543 0.07947 0.32491
 H166 H 0.41975 0.16824 0.41237
 H167 H 0.32740 0.16818 0.32901
 H168 H 0.33140 0.07993 0.41686
 H169 H 0.32289 0.03703 0.35127
 H170 H 0.28821 0.06802 0.38359
 H171 H 0.46372 0.17627 0.37950
 H172 H 0.42660 0.20984 0.35233
 H173 H 0.38012 0.03577 0.31695
 H174 H 0.35269 0.07076 0.28443
 H175 H 0.39695 0.17397 0.46118
 H176 H 0.36372 0.20854 0.42638
 H177 H 0.42483 0.13470 0.28296
 H178 H 0.46304 0.10508 0.31656
 H179 H 0.29278 0.13545 0.43076
 H180 H 0.32852 0.10608 0.46524
 O181 O 0.12805 0.32633 0.29256
 O182 O 0.09306 0.37240 0.28144
 O183 O 0.21154 0.37492 0.33565
 O184 O 0.22351 0.40314 0.37998
 O185 O 0.16805 0.28714 0.38153
 O186 O 0.12071 0.27953 0.41413
 O187 O 0.12490 0.45848 0.42045
 O188 O 0.16553 0.46439 0.37792
 O189 O 0.04226 0.42059 0.37352
 O190 O 0.03271 0.37400 0.33590
 O191 O 0.07567 0.37767 0.45841
 O192 O 0.12056 0.33902 0.47166
 O193 O 0.12073 0.41978 0.46006
 O194 O 0.15641 0.37250 0.47257
 O195 O 0.03859 0.37496 0.41742
 O196 O 0.02977 0.33987 0.37022
 O197 O 0.08234 0.45907 0.37401
 O198 O 0.12684 0.46872 0.34072
 O199 O 0.12408 0.28808 0.33256
 O200 O 0.08632 0.28017 0.37681
 O201 O 0.20832 0.32543 0.38033
 O202 O 0.21467 0.37103 0.41977
 O203 O 0.17459 0.37077 0.29446
 O204 O 0.13053 0.40737 0.28188
 Zr205 Zr 0.12913 0.37087 0.31835
 O206 O 0.09818 0.40265 0.34434
 Zr207 Zr 0.18348 0.37057 0.37852
 O208 O 0.15485 0.40251 0.40706
 Zr209 Zr 0.12477 0.31461 0.37654
 O210 O 0.09352 0.34386 0.40505
 Zr211 Zr 0.12564 0.43158 0.37667
 O212 O 0.15721 0.40250 0.34773
 Zr213 Zr 0.06698 0.37546 0.37461
 O214 O 0.09537 0.34332 0.34566
 Zr215 Zr 0.12130 0.37516 0.43473
 O216 O 0.15269 0.34294 0.40903
 O217 O 0.15739 0.34026 0.34733
 O218 O 0.09277 0.40610 0.40611
 C219 C 0.12618 0.29660 0.30244
 C220 C 0.20396 0.37314 0.30525
 C221 C 0.19822 0.29577 0.38203
 C222 C 0.12245 0.44952 0.45039
 C223 C 0.05226 0.45030 0.37311
 C224 C 0.04613 0.37719 0.44773
 H225 H 0.08580 0.41619 0.32869
 H226 H 0.07905 0.32958 0.41802
 H227 H 0.17178 0.32597 0.33415
 H228 H 0.16927 0.41607 0.42088
 H229 H 0.18125 0.45711 0.36102
 H230 H 0.21537 0.42395 0.38913
 H231 H 0.03394 0.32287 0.38685
 H232 H 0.07029 0.28753 0.36027
 H233 H 0.11834 0.45925 0.32026
 H234 H 0.14714 0.42351 0.28883
 H235 H 0.10233 0.32390 0.46689
 H236 H 0.13351 0.28803 0.43278
 H237 H 0.07533 0.35756 0.28849
 H238 H 0.03839 0.39147 0.32025
 H239 H 0.20731 0.35326 0.43440
 H240 H 0.17310 0.38944 0.46837
 O241 O 0.63165 0.82450 0.29355
 O242 O 0.59715 0.86964 0.27896
 O243 O 0.71288 0.87806 0.33598
 O244 O 0.72627 0.90263 0.38112
 O245 O 0.66889 0.78887 0.38360
 O246 O 0.62139 0.78230 0.41598
 O247 O 0.62572 0.96230 0.41498
 O248 O 0.66410 0.96833 0.37363
 O249 O 0.54279 0.92084 0.36770
 O250 O 0.53202 0.87525 0.33576
 O251 O 0.57643 0.88217 0.45660
 O252 O 0.62101 0.84580 0.47246
 O253 O 0.62049 0.92540 0.45617
 O254 O 0.65745 0.87858 0.47091
 O255 O 0.53954 0.87934 0.41530
 O256 O 0.53384 0.83822 0.36818
 O257 O 0.58223 0.95980 0.37121
 O258 O 0.62970 0.96584 0.33268
 O259 O 0.62370 0.78864 0.33479
 O260 O 0.58753 0.78198 0.38025
 O261 O 0.70926 0.82696 0.38204
 O262 O 0.71406 0.87538 0.42090
 O263 O 0.67775 0.86894 0.29429
 O264 O 0.63368 0.90596 0.28026
 Zr265 Zr 0.63168 0.87015 0.31734
 O266 O 0.59958 0.90251 0.34139
 Zr267 Zr 0.68463 0.87228 0.37850
 O268 O 0.65558 0.90572 0.40466
 Zr269 Zr 0.62587 0.81647 0.37770
 O270 O 0.59448 0.84676 0.40487
 Zr271 Zr 0.62632 0.93316 0.37272
 O272 O 0.65895 0.90299 0.34615
 Zr273 Zr 0.56819 0.87659 0.37258
 O274 O 0.59717 0.84380 0.34501
 Zr275 Zr 0.62202 0.87947 0.43327
 O276 O 0.65343 0.84587 0.40955
 O277 O 0.65929 0.84066 0.34804
 O278 O 0.59349 0.90869 0.40294
 C279 C 0.62749 0.79536 0.30448
 C280 C 0.70674 0.87340 0.30561
 C281 C 0.69911 0.79731 0.38467
 C282 C 0.62258 0.95468 0.44520
 C283 C 0.55232 0.95064 0.36865
 C284 C 0.54706 0.88175 0.44565
 H285 H 0.58706 0.91500 0.32500
 H286 H 0.57997 0.83302 0.41839
 H287 H 0.67383 0.82589 0.33557
 H288 H 0.66987 0.92007 0.41781
 H289 H 0.68224 0.95935 0.36038
 H290 H 0.71807 0.92520 0.38372
 H291 H 0.53351 0.82616 0.38909
 H292 H 0.57122 0.78838 0.36360
 H293 H 0.61059 0.96246 0.31831
 H294 H 0.64859 0.92324 0.28822
 H295 H 0.60331 0.82994 0.46815
 H296 H 0.63083 0.79295 0.43548
 H297 H 0.57964 0.85435 0.28559
 H298 H 0.54215 0.88382 0.31561
 H299 H 0.70814 0.85667 0.43500
 H300 H 0.67267 0.89697 0.46727
 O301 O 0.61996 0.66354 0.21163
 O302 O 0.58461 0.61574 0.21674
 O303 O 0.70726 0.62051 0.17208
 O304 O 0.72057 0.59070 0.12801
 O305 O 0.66815 0.70888 0.13139
 O306 O 0.62404 0.71942 0.09395
 O307 O 0.62944 0.54201 0.07532
 O308 O 0.66283 0.53146 0.12374
 O309 O 0.54052 0.57735 0.11843
 O310 O 0.53087 0.62286 0.16086
 O311 O 0.58055 0.62691 0.03960
 O312 O 0.62651 0.66416 0.03232
 O313 O 0.62315 0.58273 0.03833
 O314 O 0.66235 0.63007 0.03218
 O315 O 0.54051 0.62631 0.07810
 O316 O 0.52644 0.65533 0.12455
 O317 O 0.58020 0.53863 0.11543
 O318 O 0.61783 0.52516 0.15266
 O319 O 0.61991 0.70517 0.17553
 O320 O 0.58664 0.71763 0.12834
 O321 O 0.70754 0.66973 0.12891
 O322 O 0.71681 0.62597 0.08918
 O323 O 0.66703 0.62108 0.21049
 O324 O 0.62334 0.58261 0.21743
 Zr325 Zr 0.62346 0.62121 0.18316
 O326 O 0.59421 0.59183 0.15285
 Zr327 Zr 0.68208 0.62515 0.12747
 O328 O 0.65540 0.59596 0.09459
 Zr329 Zr 0.62410 0.68206 0.12954
 O330 O 0.59473 0.65536 0.09685
 Zr331 Zr 0.62378 0.56522 0.12063
 O332 O 0.65345 0.59145 0.15391
 Zr333 Zr 0.56570 0.62190 0.12263
 O334 O 0.59210 0.65157 0.15579
 Zr335 Zr 0.62412 0.62574 0.06675
 O336 O 0.65390 0.65553 0.09699
 O337 O 0.65393 0.65349 0.15870
 O338 O 0.59339 0.59323 0.09087
 C339 C 0.61845 0.69397 0.20490
 C340 C 0.69720 0.62064 0.20182
 C341 C 0.69821 0.69963 0.13100
 C342 C 0.62762 0.55257 0.04587
 C343 C 0.55015 0.54766 0.11536
 C344 C 0.55047 0.62751 0.04838
 H345 H 0.58064 0.57713 0.16635
 H346 H 0.58125 0.67085 0.08416
 H347 H 0.66715 0.66696 0.17372
 H348 H 0.67091 0.58344 0.08098
 H349 H 0.67571 0.53700 0.14345
 H350 H 0.71240 0.57083 0.11700
 H351 H 0.53541 0.67677 0.11816
 H352 H 0.56986 0.71072 0.14432
 H353 H 0.61678 0.53423 0.17496
 H354 H 0.64134 0.56766 0.21127
 H355 H 0.61018 0.68076 0.03877
 H356 H 0.64008 0.71287 0.07707
 H357 H 0.56807 0.63243 0.21104
 H358 H 0.53195 0.60169 0.17243
 H359 H 0.70989 0.64335 0.07388
 H360 H 0.67670 0.61077 0.03442
 O361 O 0.37463 0.83058 0.70743
 O362 O 0.41087 0.87589 0.71644
 O363 O 0.29000 0.87993 0.66881
 O364 O 0.27587 0.90779 0.62434
 O365 O 0.32851 0.79033 0.62511
 O366 O 0.37238 0.78206 0.58579
 O367 O 0.37374 0.95973 0.57716
 O368 O 0.33674 0.96864 0.62074
 O369 O 0.45814 0.92019 0.62261
 O370 O 0.47086 0.87408 0.65403
 O371 O 0.41686 0.87773 0.53709
 O372 O 0.37009 0.83766 0.52967
 O373 O 0.37048 0.92020 0.53832
 O374 O 0.33775 0.87325 0.52712
 O375 O 0.45688 0.87917 0.57538
 O376 O 0.46647 0.83763 0.62187
 O377 O 0.41910 0.95965 0.62000
 O378 O 0.37544 0.97017 0.65807
 O379 O 0.37752 0.79122 0.66827
 O380 O 0.40852 0.78004 0.62087
 O381 O 0.28947 0.82981 0.62545
 O382 O 0.28071 0.87467 0.58593
 O383 O 0.32953 0.87688 0.70774
 O384 O 0.37556 0.91260 0.71579
 Zr385 Zr 0.37337 0.87458 0.68092
 O386 O 0.40364 0.90452 0.65229
 Zr387 Zr 0.31516 0.87426 0.62452
 O388 O 0.34259 0.90473 0.59363
 Zr389 Zr 0.37257 0.81689 0.62392
 O390 O 0.40266 0.84466 0.59249
 Zr391 Zr 0.37477 0.93366 0.62131
 O392 O 0.34415 0.90621 0.65268
 Zr393 Zr 0.43193 0.87614 0.62028
 O394 O 0.40475 0.84562 0.65206
 Zr395 Zr 0.37336 0.87594 0.56429
 O396 O 0.34296 0.84513 0.59269
 O397 O 0.34260 0.84410 0.65468
 O398 O 0.40467 0.90671 0.59007
 C399 C 0.37739 0.80072 0.69823
 C400 C 0.29964 0.87993 0.69864
 C401 C 0.29858 0.79981 0.62596
 C402 C 0.37125 0.95027 0.54737
 C403 C 0.44895 0.95018 0.62193
 C404 C 0.44693 0.87975 0.54565
 H405 H 0.41762 0.91754 0.66703
 H406 H 0.41604 0.82999 0.57877
 H407 H 0.32904 0.83063 0.66946
 H408 H 0.32745 0.91821 0.58049
 H409 H 0.32078 0.96199 0.63766
 H410 H 0.28420 0.92847 0.61514
 H411 H 0.46624 0.82637 0.60049
 H412 H 0.42878 0.78976 0.62964
 H413 H 0.39204 0.96410 0.67451
 H414 H 0.36002 0.92961 0.70844
 H415 H 0.38983 0.82389 0.53181
 H416 H 0.35558 0.78919 0.56994
 H417 H 0.42660 0.85841 0.71077
 H418 H 0.46174 0.88090 0.67527
 H419 H 0.28472 0.85497 0.57249
 H420 H 0.31737 0.88202 0.53655
 O421 O 0.87376 0.33046 0.71227
 O422 O 0.91228 0.37474 0.72030
 O423 O 0.79092 0.38057 0.67389
 O424 O 0.77658 0.40794 0.62837
 O425 O 0.82791 0.29016 0.62979
 O426 O 0.87210 0.27994 0.59215
 O427 O 0.87628 0.45784 0.58007
 O428 O 0.83838 0.46803 0.62309
 O429 O 0.95913 0.41830 0.62616
 O430 O 0.97170 0.37256 0.65756
 O431 O 0.91684 0.37425 0.54135
 O432 O 0.86863 0.33513 0.53494
 O433 O 0.87062 0.41779 0.54198
 O434 O 0.83756 0.37203 0.53152
 O435 O 0.95720 0.37684 0.57921
 O436 O 0.96591 0.33501 0.62613
 O437 O 0.92041 0.45807 0.62345
 O438 O 0.87675 0.46954 0.66109
 O439 O 0.87499 0.29041 0.67367
 O440 O 0.90953 0.28011 0.62732
 O441 O 0.78922 0.33005 0.63094
 O442 O 0.78118 0.37425 0.59064
 O443 O 0.83088 0.37869 0.71242
 O444 O 0.87805 0.41251 0.71988
 Zr445 Zr 0.87427 0.37436 0.68530
 O446 O 0.90464 0.40355 0.65603
 Zr447 Zr 0.81559 0.37410 0.62926
 O448 O 0.84320 0.40374 0.59778
 Zr449 Zr 0.87242 0.31597 0.62912
 O450 O 0.90251 0.34291 0.59705
 Zr451 Zr 0.87594 0.43258 0.62478
 O452 O 0.84522 0.40604 0.65681
 Zr453 Zr 0.93241 0.37441 0.62425
 O454 O 0.90508 0.34467 0.65672
 Zr455 Zr 0.87332 0.37405 0.56866
 O456 O 0.84285 0.34407 0.59773
 O457 O 0.84296 0.34414 0.65948
 O458 O 0.90525 0.40478 0.59376
 C459 C 0.87453 0.30033 0.70343
 C460 C 0.80090 0.38167 0.70364
 C461 C 0.79807 0.29997 0.63097
 C462 C 0.87306 0.44787 0.55051
 C463 C 0.95015 0.44837 0.62540
 C464 C 0.94702 0.37669 0.54954
 H465 H 0.91883 0.41659 0.67056
 H466 H 0.91553 0.32788 0.58338
 H467 H 0.82890 0.33126 0.67421
 H468 H 0.82823 0.41732 0.58457
 H469 H 0.82228 0.46204 0.64012
 H470 H 0.78515 0.42845 0.61902
 H471 H 0.96545 0.32366 0.60481
 H472 H 0.92734 0.28789 0.64170
 H473 H 0.89356 0.46375 0.67742
 H474 H 0.86308 0.43001 0.71249
 H475 H 0.88842 0.32135 0.53662
 H476 H 0.85614 0.28725 0.57553
 H477 H 0.92701 0.35632 0.71495
 H478 H 0.96255 0.37853 0.67905
 H479 H 0.78564 0.35477 0.57701
 H480 H 0.81783 0.38284 0.54025
 O481 O 0.79660 0.87231 0.17558
 O482 O 0.78543 0.90901 0.13000
 O483 O 0.83118 0.78685 0.12808
 O484 O 0.87148 0.77229 0.09517
 O485 O 0.87944 0.82843 0.21110
 O486 O 0.92008 0.87170 0.21639
 O487 O 0.91970 0.87256 0.03871
 O488 O 0.87773 0.83002 0.03283
 O489 O 0.88241 0.95204 0.07518
 O490 O 0.84788 0.96774 0.11841
 O491 O 0.96419 0.91232 0.11807
 O492 O 0.97712 0.87017 0.15259
 O493 O 0.96016 0.86339 0.07540
 O494 O 0.97023 0.83020 0.12664
 O495 O 0.92619 0.95286 0.11917
 O496 O 0.87855 0.96407 0.15825
 O497 O 0.87085 0.91195 0.03916
 O498 O 0.83839 0.86632 0.03142
 O499 O 0.83841 0.87958 0.21087
 O500 O 0.88751 0.90926 0.21765
 O501 O 0.87849 0.78764 0.17334
 O502 O 0.91440 0.77710 0.12647
 O503 O 0.79277 0.82688 0.13096
 O504 O 0.78231 0.87203 0.09410
 Zr505 Zr 0.82000 0.87063 0.12939
 O506 O 0.84706 0.89920 0.09617
 Zr507 Zr 0.87607 0.81188 0.12807
 O508 O 0.90542 0.83766 0.09457
 Zr509 Zr 0.88066 0.87163 0.18298
 O510 O 0.91048 0.89982 0.15219
 Zr511 Zr 0.87627 0.86913 0.06654
 O512 O 0.84607 0.84002 0.09696
 Zr513 Zr 0.88113 0.92831 0.12102
 O514 O 0.85102 0.90294 0.15482
 Zr515 Zr 0.93666 0.86899 0.12065
 O516 O 0.90988 0.84046 0.15442
 O517 O 0.84827 0.84098 0.15889
 O518 O 0.90952 0.89949 0.09018
 C519 C 0.80798 0.87615 0.20471
 C520 C 0.80143 0.79668 0.13034
 C521 C 0.87902 0.79814 0.20286
 C522 C 0.94985 0.86740 0.04608
 C523 C 0.87727 0.94174 0.04589
 C524 C 0.95577 0.94255 0.11850
 H525 H 0.83173 0.91263 0.08323
 H526 H 0.92516 0.91321 0.16590
 H527 H 0.83442 0.82804 0.17371
 H528 H 0.91758 0.82212 0.08062
 H529 H 0.86204 0.81344 0.04080
 H530 H 0.88399 0.77780 0.07527
 H531 H 0.89894 0.96264 0.17115
 H532 H 0.87424 0.92801 0.21015
 H533 H 0.81964 0.87886 0.04005
 H534 H 0.78700 0.85438 0.07825
 H535 H 0.96825 0.87470 0.17454
 H536 H 0.93364 0.85229 0.21144
 H537 H 0.79342 0.92526 0.14602
 H538 H 0.82621 0.95839 0.11343
 H539 H 0.92966 0.78233 0.14449
 H540 H 0.96408 0.81298 0.11094
 O541 O 0.37573 0.32920 0.20721
 O542 O 0.41389 0.37425 0.21469
 O543 O 0.28991 0.37781 0.17250
 O544 O 0.27802 0.41312 0.13187
 O545 O 0.32468 0.29264 0.12299
 O546 O 0.36889 0.28286 0.08513
 O547 O 0.37091 0.46063 0.07902
 O548 O 0.33662 0.46896 0.12742
 O549 O 0.45748 0.41931 0.11728
 O550 O 0.46604 0.37139 0.15742
 O551 O 0.41430 0.37745 0.03729
 O552 O 0.36624 0.34062 0.02910
 O553 O 0.37121 0.42184 0.03928
 O554 O 0.33277 0.37684 0.03016
 O555 O 0.45491 0.37359 0.07503
 O556 O 0.46821 0.34030 0.11915
 O557 O 0.41919 0.45944 0.11893
 O558 O 0.38134 0.47203 0.15755
 O559 O 0.37246 0.29078 0.16725
 O560 O 0.40564 0.28032 0.11993
 O561 O 0.28663 0.33300 0.12642
 O562 O 0.27835 0.37914 0.08988
 O563 O 0.33115 0.37553 0.20968
 O564 O 0.37771 0.40994 0.21846
 Zr565 Zr 0.37420 0.37389 0.18165
 O566 O 0.40381 0.40448 0.15277
 Zr567 Zr 0.31411 0.37642 0.12713
 O568 O 0.34139 0.40653 0.09557
 Zr569 Zr 0.36987 0.31745 0.12345
 O570 O 0.39992 0.34510 0.09238
 Zr571 Zr 0.37467 0.43426 0.12290
 O572 O 0.34484 0.40689 0.15517
 Zr573 Zr 0.43057 0.37559 0.12000
 O574 O 0.40363 0.34449 0.15130
 Zr575 Zr 0.37092 0.37749 0.06505
 O576 O 0.34033 0.34720 0.09378
 O577 O 0.34184 0.34488 0.15548
 O578 O 0.40329 0.40712 0.09074
 C579 C 0.37381 0.29942 0.19740
 C580 C 0.30071 0.37627 0.20195
 C581 C 0.29499 0.30278 0.12511
 C582 C 0.37039 0.45162 0.04897
 C583 C 0.44884 0.44945 0.11656
 C584 C 0.44449 0.37505 0.04554
 H585 H 0.41825 0.41769 0.16690
 H586 H 0.41261 0.33003 0.07842
 H587 H 0.32816 0.33102 0.16974
 H588 H 0.32628 0.42060 0.08307
 H589 H 0.32344 0.46272 0.14672
 H590 H 0.28523 0.43207 0.11879
 H591 H 0.45821 0.31982 0.11128
 H592 H 0.42282 0.28558 0.13611
 H593 H 0.38595 0.46144 0.17869
 H594 H 0.36100 0.42671 0.21346
 H595 H 0.38445 0.32502 0.03204
 H596 H 0.35293 0.29102 0.06891
 H597 H 0.42953 0.35752 0.20694
 H598 H 0.46638 0.39214 0.16981
 H599 H 0.28424 0.36255 0.07331
 H600 H 0.31695 0.39408 0.03621
 O601 O 0.37671 0.67224 0.79036
 O602 O 0.40736 0.62430 0.77939
 O603 O 0.28908 0.62644 0.83165
 O604 O 0.27718 0.59500 0.87397
 O605 O 0.32977 0.71291 0.87445
 O606 O 0.37543 0.72210 0.91050
 O607 O 0.37474 0.54294 0.92037
 O608 O 0.33569 0.53540 0.87655
 O609 O 0.45839 0.58157 0.87556
 O610 O 0.46795 0.62771 0.83751
 O611 O 0.42093 0.62711 0.95857
 O612 O 0.37787 0.66099 0.97179
 O613 O 0.37354 0.58233 0.95948
 O614 O 0.33944 0.63348 0.96901
 O615 O 0.45960 0.62638 0.91874
 O616 O 0.46874 0.66268 0.87193
 O617 O 0.41890 0.54256 0.87473
 O618 O 0.37666 0.53095 0.84147
 O619 O 0.37525 0.71195 0.82923
 O620 O 0.41197 0.72061 0.87450
 O621 O 0.29060 0.67372 0.87832
 O622 O 0.28196 0.62642 0.91402
 O623 O 0.32702 0.62985 0.79130
 O624 O 0.37065 0.59059 0.78128
 Zr625 Zr 0.37189 0.62828 0.81660
 O626 O 0.40274 0.59776 0.84422
 Zr627 Zr 0.31597 0.62906 0.87517
 O628 O 0.34406 0.59817 0.90518
 Zr629 Zr 0.37366 0.68602 0.87358
 O630 O 0.40419 0.65782 0.90386
 Zr631 Zr 0.37490 0.56907 0.87628
 O632 O 0.34350 0.59684 0.84578
 Zr633 Zr 0.43249 0.62598 0.87513
 O634 O 0.40448 0.65685 0.84439
 Zr635 Zr 0.37612 0.62667 0.93336
 O636 O 0.34518 0.65804 0.90607
 O637 O 0.34245 0.65915 0.84405
 O638 O 0.40625 0.59551 0.90657
 C639 C 0.37729 0.70229 0.79945
 C640 C 0.29735 0.62853 0.80149
 C641 C 0.29995 0.70362 0.87725
 C642 C 0.37320 0.55232 0.95022
 C643 C 0.44889 0.55175 0.87448
 C644 C 0.45074 0.62742 0.94876
 H645 H 0.41575 0.58406 0.82919
 H646 H 0.41775 0.67265 0.91722
 H647 H 0.32862 0.67344 0.83031
 H648 H 0.32915 0.58480 0.91865
 H649 H 0.32113 0.54121 0.85811
 H650 H 0.28548 0.57445 0.88353
 H651 H 0.46429 0.67899 0.88918
 H652 H 0.42849 0.71305 0.85853
 H653 H 0.37843 0.54144 0.81987
 H654 H 0.35177 0.57645 0.78663
 H655 H 0.38221 0.68239 0.96160
 H656 H 0.35790 0.71688 0.92633
 H657 H 0.42759 0.63379 0.78848
 H658 H 0.46467 0.60853 0.82319
 H659 H 0.28768 0.64393 0.92960
 H660 H 0.32165 0.61815 0.96377
 O661 O 0.11900 0.67251 0.70773
 O662 O 0.08210 0.62699 0.71632
 O663 O 0.20590 0.62715 0.67400
 O664 O 0.21974 0.59221 0.63395
 O665 O 0.16703 0.71016 0.62442
 O666 O 0.12344 0.71722 0.58542
 O667 O 0.12185 0.53923 0.58139
 O668 O 0.16265 0.53275 0.62493
 O669 O 0.03968 0.57825 0.62258
 O670 O 0.02719 0.62589 0.65602
 O671 O 0.08256 0.62112 0.53850
 O672 O 0.12961 0.65848 0.53008
 O673 O 0.12763 0.57747 0.54162
 O674 O 0.16383 0.62392 0.53201
 O675 O 0.04161 0.61875 0.57582
 O676 O 0.02868 0.65926 0.62000
 O677 O 0.07937 0.53960 0.62691
 O678 O 0.12307 0.52925 0.66110
 O679 O 0.11773 0.71061 0.66728
 O680 O 0.08557 0.71815 0.61960
 O681 O 0.20695 0.67166 0.62807
 O682 O 0.21721 0.62585 0.59111
 O683 O 0.16475 0.62583 0.71107
 O684 O 0.11769 0.59243 0.72093
 Zr685 Zr 0.12166 0.62738 0.68311
 O686 O 0.09323 0.59558 0.65466
 Zr687 Zr 0.18169 0.62683 0.62872
 O688 O 0.15578 0.59478 0.59768
 Zr689 Zr 0.12325 0.68317 0.62419
 O690 O 0.09480 0.65378 0.59309
 Zr691 Zr 0.12328 0.56624 0.62516
 O692 O 0.15225 0.59520 0.65697
 Zr693 Zr 0.06526 0.62268 0.62121
 O694 O 0.09090 0.65491 0.65242
 Zr695 Zr 0.12550 0.62225 0.56667
 O696 O 0.15433 0.65443 0.59505
 O697 O 0.15257 0.65755 0.65672
 O698 O 0.09388 0.59183 0.59254
 C699 C 0.11717 0.70208 0.69743
 C700 C 0.19514 0.62687 0.70350
 C701 C 0.19713 0.70146 0.62659
 C702 C 0.12421 0.54790 0.55135
 C703 C 0.04930 0.54859 0.62563
 C704 C 0.05229 0.61865 0.54634
 H705 H 0.07960 0.58236 0.66955
 H706 H 0.08170 0.66786 0.57854
 H707 H 0.16550 0.67203 0.67111
 H708 H 0.17111 0.58083 0.58529
 H709 H 0.17792 0.53981 0.64232
 H710 H 0.21471 0.57356 0.61945
 H711 H 0.03237 0.67293 0.60045
 H712 H 0.06674 0.70955 0.63205
 H713 H 0.11716 0.53998 0.68182
 H714 H 0.13521 0.57612 0.71749
 H715 H 0.11145 0.67414 0.53311
 H716 H 0.14022 0.70971 0.56972
 H717 H 0.06593 0.64299 0.70812
 H718 H 0.03234 0.61046 0.67386
 H719 H 0.21092 0.64273 0.57500
 H720 H 0.18050 0.60774 0.53863
 O721 O 0.12012 0.16466 0.21068
 O722 O 0.08772 0.11656 0.21800
 O723 O 0.20880 0.12563 0.16885
 O724 O 0.22173 0.09474 0.12555
 O725 O 0.16392 0.21056 0.12617
 O726 O 0.11694 0.21881 0.09239
 O727 O 0.13078 0.04125 0.07567
 O728 O 0.16743 0.03371 0.12309
 O729 O 0.04223 0.07334 0.12075
 O730 O 0.03027 0.11775 0.16099
 O731 O 0.07826 0.12194 0.03995
 O732 O 0.12209 0.16264 0.03102
 O733 O 0.12403 0.08121 0.03799
 O734 O 0.15944 0.13048 0.03013
 O735 O 0.03912 0.11951 0.07931
 O736 O 0.02681 0.15295 0.12667
 O737 O 0.08381 0.03647 0.11912
 O738 O 0.12499 0.02493 0.15314
 O739 O 0.12062 0.20581 0.17366
 O740 O 0.08136 0.21445 0.12955
 O741 O 0.20543 0.17359 0.12579
 O742 O 0.21545 0.13024 0.08574
 O743 O 0.16954 0.12200 0.20809
 O744 O 0.12552 0.08359 0.21710
 Zr745 Zr 0.12487 0.12197 0.18256
 O746 O 0.09636 0.09089 0.15337
 Zr747 Zr 0.18200 0.12781 0.12510
 O748 O 0.15590 0.09676 0.09342
 Zr749 Zr 0.12128 0.18171 0.12795
 O750 O 0.09248 0.15317 0.09613
 Zr751 Zr 0.12641 0.06512 0.12082
 O752 O 0.15554 0.09332 0.15289
 Zr753 Zr 0.06563 0.11896 0.12328
 O754 O 0.09146 0.15018 0.15549
 Zr755 Zr 0.12257 0.12451 0.06588
 O756 O 0.15151 0.15624 0.09496
 O757 O 0.15326 0.15505 0.15672
 O758 O 0.09401 0.09106 0.09136
 C759 C 0.12076 0.19506 0.20324
 C760 C 0.19943 0.12357 0.19870
 C761 C 0.19443 0.20300 0.12617
 C762 C 0.12896 0.05124 0.04600
 C763 C 0.05337 0.04407 0.11976
 C764 C 0.04843 0.12014 0.04940
 H765 H 0.08398 0.07583 0.16757
 H766 H 0.07807 0.16764 0.08328
 H767 H 0.16660 0.16908 0.17110
 H768 H 0.17152 0.08464 0.07957
 H769 H 0.18119 0.04089 0.14166
 H770 H 0.21510 0.07536 0.11278
 H771 H 0.03216 0.17160 0.11232
 H772 H 0.06589 0.20573 0.14595
 H773 H 0.12345 0.03410 0.17536
 H774 H 0.14418 0.06926 0.21147
 H775 H 0.10351 0.17720 0.03621
 H776 H 0.13121 0.21227 0.07400
 H777 H 0.06938 0.13066 0.21097
 H778 H 0.03506 0.09872 0.17505
 H779 H 0.20748 0.14751 0.07083
 H780 H 0.17569 0.11286 0.03318
 O781 O 0.70838 0.37534 0.83194
 O782 O 0.71731 0.41049 0.87715
 O783 O 0.66635 0.29079 0.88154
 O784 O 0.62040 0.27968 0.91075
 O785 O 0.62703 0.32729 0.79176
 O786 O 0.58792 0.37111 0.78088
 O787 O 0.57535 0.37921 0.95820
 O788 O 0.61989 0.34133 0.96869
 O789 O 0.62386 0.46214 0.91718
 O790 O 0.65985 0.46974 0.87077
 O791 O 0.53885 0.42213 0.87160
 O792 O 0.52723 0.37719 0.83876
 O793 O 0.53713 0.37926 0.91790
 O794 O 0.52969 0.33971 0.87070
 O795 O 0.57852 0.46082 0.87462
 O796 O 0.62571 0.46843 0.83559
 O797 O 0.62200 0.42436 0.95777
 O798 O 0.65356 0.38160 0.97269
 O799 O 0.67006 0.37773 0.79185
 O800 O 0.62245 0.40633 0.77783
 O801 O 0.62027 0.29076 0.83256
 O802 O 0.58312 0.28454 0.87832
 O803 O 0.70644 0.32900 0.87874
 O804 O 0.71657 0.37603 0.91296
 Zr805 Zr 0.68112 0.37371 0.87540
 O806 O 0.65295 0.40557 0.90418
 Zr807 Zr 0.62276 0.31770 0.87598
 O808 O 0.59213 0.34714 0.90495
 Zr809 Zr 0.62526 0.37252 0.81656
 O810 O 0.59456 0.40462 0.84282
 Zr811 Zr 0.62029 0.37905 0.93339
 O812 O 0.65145 0.34665 0.90758
 Zr813 Zr 0.62255 0.43414 0.87416
 O814 O 0.65363 0.40482 0.84492
 Zr815 Zr 0.56446 0.37778 0.87448
 O816 O 0.59240 0.34544 0.84519
 O817 O 0.65463 0.34266 0.84526
 O818 O 0.59058 0.40914 0.90503
 C819 C 0.69978 0.37852 0.80196
 C820 C 0.69656 0.29942 0.88220
 C821 C 0.62361 0.29791 0.80233
 C822 C 0.54570 0.37872 0.94800
 C823 C 0.62420 0.45393 0.94739
 C824 C 0.54853 0.45190 0.87252
 H825 H 0.66794 0.41889 0.91762
 H826 H 0.58152 0.41776 0.82733
 H827 H 0.66920 0.32833 0.83229
 H828 H 0.57831 0.33289 0.91863
 H829 H 0.63771 0.32594 0.96304
 H830 H 0.61258 0.28939 0.93141
 H831 H 0.60528 0.46730 0.82272
 H832 H 0.62694 0.42790 0.78761
 H833 H 0.67553 0.37947 0.96303
 H834 H 0.71154 0.35842 0.92872
 H835 H 0.53742 0.38402 0.81801
 H836 H 0.57303 0.35305 0.78692
 H837 H 0.71039 0.42770 0.86166
 H838 H 0.67629 0.46479 0.88776
 H839 H 0.56772 0.29051 0.86068
 H840 H 0.53107 0.32640 0.89080
 O841 O 0.12076 0.83237 0.78696
 O842 O 0.08545 0.87946 0.77958
 O843 O 0.20798 0.87760 0.82679
 O844 O 0.21984 0.90945 0.86921
 O845 O 0.16766 0.79157 0.87356
 O846 O 0.11954 0.78018 0.90463
 O847 O 0.12461 0.96166 0.91747
 O848 O 0.16183 0.96984 0.87725
 O849 O 0.04009 0.92374 0.87374
 O850 O 0.02923 0.87774 0.83607
 O851 O 0.07801 0.87584 0.95617
 O852 O 0.12267 0.84346 0.96893
 O853 O 0.12468 0.92208 0.95629
 O854 O 0.15958 0.87179 0.96572
 O855 O 0.03871 0.87774 0.91704
 O856 O 0.02831 0.84293 0.87031
 O857 O 0.07998 0.96238 0.87298
 O858 O 0.12425 0.97040 0.83587
 O859 O 0.12217 0.79257 0.82566
 O860 O 0.08451 0.78453 0.87073
 O861 O 0.20747 0.83009 0.86985
 O862 O 0.21646 0.87312 0.90912
 O863 O 0.16870 0.87935 0.78750
 O864 O 0.12539 0.91101 0.77525
 Zr865 Zr 0.12436 0.87634 0.81346
 O866 O 0.09468 0.90725 0.84197
 Zr867 Zr 0.18180 0.87446 0.87069
 O868 O 0.15459 0.90541 0.90161
 Zr869 Zr 0.12362 0.81826 0.87008
 O870 O 0.09391 0.84660 0.90110
 Zr871 Zr 0.12362 0.93523 0.87367
 O872 O 0.15384 0.90719 0.84238
 Zr873 Zr 0.06530 0.87891 0.87312
 O874 O 0.09242 0.84776 0.84178
 Zr875 Zr 0.12254 0.87750 0.93029
 O876 O 0.15273 0.84586 0.90225
 O877 O 0.15432 0.84493 0.83977
 O878 O 0.09225 0.90906 0.90426
 C879 C 0.12007 0.80236 0.79599
 C880 C 0.19866 0.87981 0.79696
 C881 C 0.19777 0.80050 0.87277
 C882 C 0.12595 0.95217 0.94728
 C883 C 0.04986 0.95352 0.87265
 C884 C 0.04800 0.87553 0.94687
 H885 H 0.08161 0.92135 0.82739
 H886 H 0.08056 0.83166 0.91454
 H887 H 0.16808 0.83110 0.82546
 H888 H 0.16965 0.91849 0.91519
 H889 H 0.17921 0.96260 0.86209
 H890 H 0.21425 0.92722 0.88459
 H891 H 0.03386 0.82552 0.88610
 H892 H 0.06863 0.79188 0.85404
 H893 H 0.14128 0.96360 0.82010
 H894 H 0.11611 0.93153 0.78394
 H895 H 0.11887 0.82190 0.95889
 H896 H 0.13431 0.78571 0.92286
 H897 H 0.06824 0.86444 0.78735
 H898 H 0.03339 0.89615 0.82101
 H899 H 0.21122 0.85403 0.92300
 H900 H 0.17918 0.88282 0.95714
 O901 O 0.70752 0.12319 0.67243
 O902 O 0.71917 0.08999 0.62627
 O903 O 0.66766 0.20964 0.62970
 O904 O 0.62694 0.22276 0.59584
 O905 O 0.61899 0.16516 0.71058
 O906 O 0.58463 0.11786 0.71656
 O907 O 0.58345 0.12629 0.53764
 O908 O 0.62529 0.16485 0.53203
 O909 O 0.62224 0.04234 0.57523
 O910 O 0.66334 0.03221 0.62246
 O911 O 0.54046 0.07836 0.61958
 O912 O 0.52775 0.12364 0.65500
 O913 O 0.54259 0.12070 0.57467
 O914 O 0.53022 0.15979 0.62146
 O915 O 0.58011 0.03949 0.62176
 O916 O 0.62571 0.02628 0.65339
 O917 O 0.62892 0.08293 0.53801
 O918 O 0.66531 0.12972 0.53218
 O919 O 0.66683 0.12306 0.71035
 O920 O 0.62246 0.08381 0.71673
 O921 O 0.61872 0.20638 0.67406
 O922 O 0.58364 0.21529 0.62627
 O923 O 0.70774 0.17099 0.62955
 O924 O 0.71885 0.12737 0.59104
 Zr925 Zr 0.68249 0.12630 0.62770
 O926 O 0.65645 0.09647 0.59490
 Zr927 Zr 0.62383 0.18276 0.62833
 O928 O 0.59575 0.15566 0.59465
 Zr929 Zr 0.62330 0.12260 0.68267
 O930 O 0.59432 0.09330 0.65219
 Zr931 Zr 0.62619 0.12597 0.56596
 O932 O 0.65474 0.15637 0.59648
 Zr933 Zr 0.62424 0.06608 0.62074
 O934 O 0.65365 0.09271 0.65405
 Zr935 Zr 0.56622 0.12263 0.62052
 O936 O 0.59198 0.15209 0.65445
 O937 O 0.65360 0.15482 0.65824
 O938 O 0.59478 0.09376 0.58988
 C939 C 0.69715 0.12307 0.70201
 C940 C 0.69783 0.20076 0.63035
 C941 C 0.61719 0.19549 0.70355
 C942 C 0.55324 0.12244 0.54514
 C943 C 0.62504 0.05285 0.54586
 C944 C 0.55002 0.04859 0.62123
 H945 H 0.67198 0.08359 0.58166
 H946 H 0.58078 0.07918 0.66632
 H947 H 0.66646 0.16865 0.67326
 H948 H 0.58276 0.17052 0.58077
 H949 H 0.63969 0.18214 0.54087
 H950 H 0.61551 0.21641 0.57555
 H951 H 0.61966 0.03514 0.67498
 H952 H 0.64154 0.06973 0.71191
 H953 H 0.68152 0.11257 0.53731
 H954 H 0.71235 0.14454 0.57532
 H955 H 0.53323 0.10775 0.67233
 H956 H 0.56749 0.13349 0.70974
 H957 H 0.71056 0.07113 0.63867
 H958 H 0.67508 0.03307 0.60136
 H959 H 0.56716 0.20716 0.64197
 H960 H 0.53294 0.17345 0.60174
 C961 C 0.40534 0.75245 0.72554
 C962 C 0.37957 0.77557 0.72406
 C963 C 0.35520 0.77513 0.74808
 C964 C 0.35523 0.75153 0.77255
 C965 C 0.37963 0.72758 0.77380
 C966 C 0.40537 0.72827 0.75061
 C967 C 0.43181 0.75358 0.70346
 C968 C 0.45732 0.73112 0.70556
 C969 C 0.45735 0.70756 0.73001
 C970 C 0.43187 0.70628 0.75255
 H971 H 0.43348 0.77221 0.68493
 H972 H 0.47743 0.73233 0.68845
 H973 H 0.47749 0.69052 0.73184
 H974 H 0.43357 0.68848 0.77188
 H975 H 0.33557 0.79288 0.74751
 H976 H 0.33561 0.75153 0.79031
 C977 C 0.35155 0.21978 0.24145
 C978 C 0.37159 0.22262 0.26982
 C979 C 0.39063 0.25081 0.27393
 C980 C 0.39107 0.27537 0.25038
 C981 C 0.37150 0.27327 0.22242
 C982 C 0.35018 0.24613 0.21874
 C983 C 0.33191 0.19199 0.23535
 C984 C 0.31124 0.19050 0.20838
 C985 C 0.30778 0.21737 0.18815
 C986 C 0.32655 0.24512 0.19358
 H987 H 0.33141 0.17124 0.25127
 H988 H 0.29673 0.16887 0.20401
 H989 H 0.29024 0.21682 0.16839
 H990 H 0.32163 0.26594 0.17839
 H991 H 0.40600 0.25350 0.29530
 H992 H 0.40701 0.29617 0.25397
 C993 C 0.62901 0.73437 0.28948
 C994 C 0.62612 0.76789 0.28050
 C995 C 0.61918 0.77552 0.24788
 C996 C 0.61563 0.75129 0.22443
 C997 C 0.61697 0.71801 0.23261
 C998 C 0.62089 0.70947 0.26633
 C999 C 0.64117 0.72466 0.32039
 C1000 C 0.64042 0.69215 0.33012
 C1001 C 0.62753 0.66864 0.30949
 C1002 C 0.61776 0.67705 0.27804
 H1003 H 0.65283 0.74146 0.33694
 H1004 H 0.64950 0.68527 0.35397
 H1005 H 0.62557 0.64360 0.31768
 H1006 H 0.60670 0.65780 0.26409
 H1007 H 0.61675 0.80068 0.24012
 H1008 H 0.61190 0.75896 0.19941
 C1009 C 0.14494 0.24091 0.28222
 C1010 C 0.12701 0.27024 0.27756
 C1011 C 0.10868 0.27420 0.24901
 C1012 C 0.10698 0.24950 0.22569
 C1013 C 0.12288 0.21948 0.23027
 C1014 C 0.14195 0.21482 0.25922
 C1015 C 0.16680 0.23741 0.30876
 C1016 C 0.18299 0.20814 0.31448
 C1017 C 0.17865 0.18208 0.29339
 C1018 C 0.15912 0.18550 0.26576
 H1019 H 0.17233 0.25736 0.32496
 H1020 H 0.19928 0.20579 0.33517
 H1021 H 0.19145 0.15937 0.29782
 H1022 H 0.15872 0.16484 0.24982
 H1023 H 0.09515 0.29656 0.24484
 H1024 H 0.09258 0.25380 0.20391
 C1025 C 0.08762 0.74684 0.72827
 C1026 C 0.11605 0.72816 0.72211
 C1027 C 0.14454 0.73436 0.73989
 C1028 C 0.14524 0.75832 0.76396
 C1029 C 0.11757 0.77722 0.77046
 C1030 C 0.08835 0.77158 0.75275
 C1031 C 0.05834 0.74112 0.71105
 C1032 C 0.03039 0.75943 0.71777
 C1033 C 0.03102 0.78345 0.74184
 C1034 C 0.05963 0.78945 0.75934
 H1035 H 0.05675 0.72237 0.69250
 H1036 H 0.00806 0.75480 0.70439
 H1037 H 0.00916 0.79737 0.74713
 H1038 H 0.05895 0.80785 0.77825
 H1039 H 0.16673 0.72105 0.73452
 H1040 H 0.16776 0.76255 0.77721
 C1041 C 0.84290 0.24613 0.77238
 C1042 C 0.87131 0.22770 0.77917
 C1043 C 0.89957 0.23269 0.76052
 C1044 C 0.90027 0.25630 0.73595
 C1045 C 0.87267 0.27535 0.72929
 C1046 C 0.84351 0.27002 0.74715
 C1047 C 0.81360 0.24089 0.78971
 C1048 C 0.78586 0.25934 0.78288
 C1049 C 0.78625 0.28215 0.75792
 C1050 C 0.81463 0.28737 0.73995
 H1051 H 0.81190 0.22268 0.80871
 H1052 H 0.76393 0.25618 0.79704
 H1053 H 0.76448 0.29608 0.75276
 H1054 H 0.81368 0.30521 0.72064
 H1055 H 0.92128 0.21826 0.76512
 H1056 H 0.92256 0.25985 0.72213
 C1057 C 0.74932 0.40709 0.72757
 C1058 C 0.77606 0.38514 0.72972
 C1059 C 0.77899 0.36522 0.75731
 C1060 C 0.75422 0.36366 0.78049
 C1061 C 0.72610 0.38291 0.77749
 C1062 C 0.72429 0.40618 0.75181
 C1063 C 0.74784 0.43119 0.70296
 C1064 C 0.72203 0.45334 0.70174
 C1065 C 0.69780 0.45267 0.72551
 C1066 C 0.69913 0.42973 0.75058
 H1067 H 0.76714 0.43408 0.68526
 H1068 H 0.72130 0.47170 0.68275
 H1069 H 0.67830 0.47052 0.72497
 H1070 H 0.68104 0.43159 0.76958
 H1071 H 0.80021 0.34982 0.76044
 H1072 H 0.75673 0.34662 0.80057
 C1073 C 0.24202 0.64899 0.78213
 C1074 C 0.27079 0.63025 0.77702
 C1075 C 0.27406 0.61207 0.74832
 C1076 C 0.24917 0.61135 0.72524
 C1077 C 0.21970 0.62816 0.73025
 C1078 C 0.21568 0.64696 0.75937
 C1079 C 0.23933 0.67076 0.80882
 C1080 C 0.21054 0.68769 0.81493
 C1081 C 0.18415 0.68417 0.79406
 C1082 C 0.18680 0.66475 0.76623
 H1083 H 0.25960 0.67567 0.82479
 H1084 H 0.20879 0.70382 0.83581
 H1085 H 0.16171 0.69726 0.79900
 H1086 H 0.16589 0.66460 0.75049
 H1087 H 0.29598 0.59791 0.74386
 H1088 H 0.25284 0.59697 0.70333
 C1089 C 0.25754 0.15427 0.26450
 C1090 C 0.26973 0.12412 0.27621
 C1091 C 0.25886 0.09487 0.26233
 C1092 C 0.23607 0.09510 0.23705
 C1093 C 0.22453 0.12462 0.22430
 C1094 C 0.23568 0.15457 0.23750
 C1095 C 0.26692 0.18422 0.27876
 C1096 C 0.25627 0.21379 0.26570
 C1097 C 0.23602 0.21407 0.23852
 C1098 C 0.22567 0.18486 0.22445
 H1099 H 0.28285 0.18503 0.29972
 H1100 H 0.26414 0.23666 0.27628
 H1101 H 0.22832 0.23710 0.22843
 H1102 H 0.20979 0.18626 0.20345
 H1103 H 0.26818 0.07171 0.27108
 H1104 H 0.22756 0.07210 0.22713
 C1105 C 0.74577 0.15056 0.77680
 C1106 C 0.76888 0.12484 0.77869
 C1107 C 0.76851 0.10003 0.75514
 C1108 C 0.74502 0.09972 0.73051
 C1109 C 0.72178 0.12469 0.72824
 C1110 C 0.72285 0.15108 0.75062
 C1111 C 0.74559 0.17644 0.79962
 C1112 C 0.72427 0.20267 0.79596
 C1113 C 0.70421 0.20462 0.76868
 C1114 C 0.70280 0.17883 0.74659
 H1115 H 0.76210 0.17705 0.82016
 H1116 H 0.72384 0.22198 0.81398
 H1117 H 0.68955 0.22617 0.76470
 H1118 H 0.68646 0.18124 0.72605
 H1119 H 0.78636 0.08050 0.75610
 H1120 H 0.74491 0.07980 0.71310
 C1121 C 0.76702 0.86342 0.28957
 C1122 C 0.73458 0.87377 0.28184
 C1123 C 0.72801 0.88464 0.25007
 C1124 C 0.75218 0.88557 0.22623
 C1125 C 0.78444 0.87608 0.23286
 C1126 C 0.79231 0.86525 0.26529
 C1127 C 0.77480 0.84988 0.32044
 C1128 C 0.80625 0.83970 0.32804
 C1129 C 0.83087 0.84234 0.30514
 C1130 C 0.82417 0.85470 0.27426
 H1131 H 0.75698 0.84587 0.33917
 H1132 H 0.81143 0.82930 0.35177
 H1133 H 0.85527 0.83402 0.31106
 H1134 H 0.84459 0.85427 0.25801
 H1135 H 0.70368 0.89268 0.24344
 H1136 H 0.74542 0.89402 0.20210
 C1137 C 0.74670 0.71999 0.40977
 C1138 C 0.77255 0.72132 0.38664
 C1139 C 0.77455 0.74825 0.36577
 C1140 C 0.75050 0.77219 0.36554
 C1141 C 0.72412 0.77109 0.38720
 C1142 C 0.72242 0.74515 0.41017
 C1143 C 0.74532 0.69523 0.43365
 C1144 C 0.72036 0.69460 0.45677
 C1145 C 0.69679 0.71905 0.45718
 C1146 C 0.69799 0.74432 0.43445
 H1147 H 0.76398 0.67679 0.43543
 H1148 H 0.71970 0.67541 0.47492
 H1149 H 0.67786 0.71880 0.47563
 H1150 H 0.68020 0.76356 0.43679
 H1151 H 0.79467 0.75051 0.34888
 H1152 H 0.75214 0.79135 0.34758
 C1153 C 0.74643 0.27645 0.65632
 C1154 C 0.77219 0.27493 0.63305
 C1155 C 0.77358 0.24873 0.61115
 C1156 C 0.74936 0.22495 0.61089
 C1157 C 0.72305 0.22642 0.63269
 C1158 C 0.72186 0.25174 0.65635
 C1159 C 0.74508 0.30123 0.68034
 C1160 C 0.72002 0.30199 0.70333
 C1161 C 0.69671 0.27740 0.70394
 C1162 C 0.69761 0.25236 0.68092
 H1163 H 0.76361 0.31983 0.68230
 H1164 H 0.71924 0.32129 0.72140
 H1165 H 0.67814 0.27749 0.72268
 H1166 H 0.67956 0.23329 0.68313
 H1167 H 0.79325 0.24706 0.59352
 H1168 H 0.75087 0.20545 0.59306
 C1169 C 0.75148 0.72090 0.15484
 C1170 C 0.72407 0.72486 0.13391
 C1171 C 0.72185 0.75288 0.11447
 C1172 C 0.74691 0.77594 0.11412
 C1173 C 0.77529 0.77160 0.13284
 C1174 C 0.77755 0.74400 0.15387
 C1175 C 0.75306 0.69501 0.17759
 C1176 C 0.78031 0.69069 0.19745
 C1177 C 0.80613 0.71251 0.19578
 C1178 C 0.80458 0.73923 0.17482
 H1179 H 0.73306 0.67828 0.18088
 H1180 H 0.78129 0.67048 0.21442
 H1181 H 0.82723 0.70904 0.21129
 H1182 H 0.82455 0.75618 0.17591
 H1183 H 0.70091 0.75653 0.09871
 H1184 H 0.74451 0.79699 0.09829
 C1185 C 0.24319 0.27947 0.15067
 C1186 C 0.26871 0.27791 0.12712
 C1187 C 0.26953 0.25175 0.10514
 C1188 C 0.24521 0.22799 0.10531
 C1189 C 0.21890 0.22971 0.12714
 C1190 C 0.21772 0.25563 0.15025
 C1191 C 0.24316 0.30331 0.17565
 C1192 C 0.21783 0.30504 0.19828
 C1193 C 0.19244 0.28260 0.19715
 C1194 C 0.19266 0.25772 0.17393
 H1195 H 0.26301 0.32030 0.17858
 H1196 H 0.21817 0.32355 0.21714
 H1197 H 0.17314 0.28371 0.21516
 H1198 H 0.17351 0.23983 0.17555
 H1199 H 0.28908 0.24984 0.08741
 H1200 H 0.24675 0.20817 0.08784
 C1201 C 0.25394 0.73357 0.90565
 C1202 C 0.27435 0.72891 0.87811
 C1203 C 0.26957 0.74796 0.85015
 C1204 C 0.24440 0.77083 0.84878
 C1205 C 0.22327 0.77522 0.87531
 C1206 C 0.22821 0.75696 0.90427
 C1207 C 0.25930 0.71632 0.93497
 C1208 C 0.23946 0.72158 0.96214
 C1209 C 0.21436 0.74448 0.96083
 C1210 C 0.20890 0.76227 0.93233
 H1211 H 0.27928 0.69926 0.93740
 H1212 H 0.24389 0.70818 0.98447
 H1213 H 0.19933 0.74881 0.98214
 H1214 H 0.18991 0.78056 0.93273
 H1215 H 0.28507 0.74461 0.82896
 H1216 H 0.24117 0.78503 0.82670
 C1217 C 0.25617 0.22816 0.41094
 C1218 C 0.27373 0.22263 0.38161
 C1219 C 0.26574 0.24051 0.35372
 C1220 C 0.24055 0.26336 0.35423
 C1221 C 0.22323 0.26981 0.38295
 C1222 C 0.23074 0.25204 0.41163
 C1223 C 0.26381 0.21103 0.43979
 C1224 C 0.24658 0.21701 0.46858
 C1225 C 0.22172 0.24024 0.46922
 C1226 C 0.21387 0.25776 0.44110
 H1227 H 0.28332 0.19324 0.44042
 H1228 H 0.25269 0.20368 0.49055
 H1229 H 0.20856 0.24484 0.49168
 H1230 H 0.19462 0.27582 0.44265
 H1231 H 0.27907 0.23654 0.33129
 H1232 H 0.23436 0.27602 0.33190
 C1233 C 0.50252 0.65561 1.02128
 C1234 C 0.52553 0.62977 1.02249
 C1235 C 0.52475 0.60535 0.99857
 C1236 C 0.50064 0.60526 0.97456
 C1237 C 0.47665 0.62962 0.97375
 C1238 C 0.47799 0.65563 0.99660
 C1239 C 0.50411 0.68211 1.04328
 C1240 C 0.48184 0.70779 1.04133
 C1241 C 0.45807 0.70796 1.01708
 C1242 C 0.45632 0.68238 0.99469
 H1243 H 0.52297 0.68368 1.06163
 H1244 H 0.48342 0.72794 1.05836
 H1245 H 0.44123 0.72827 1.01527
 H1246 H 0.43846 0.68426 0.97543
 H1247 H 0.54240 0.58565 0.99907
 H1248 H 0.50021 0.58556 0.95695
 C1249 C 0.51171 0.10485 0.46220
 C1250 C 0.48102 0.12056 0.46756
 C1251 C 0.47502 0.13505 0.49805
 C1252 C 0.49849 0.13504 0.52262
 C1253 C 0.52897 0.12023 0.51804
 C1254 C 0.53542 0.10409 0.48786
 C1255 C 0.51925 0.08874 0.43253
 C1256 C 0.54877 0.07241 0.42815
 C1257 C 0.57109 0.07070 0.45343
 C1258 C 0.56439 0.08599 0.48297
 H1259 H 0.50266 0.08751 0.41237
 H1260 H 0.55396 0.06030 0.40523
 H1261 H 0.59356 0.05707 0.45032
 H1262 H 0.58179 0.08242 0.50204
 H1263 H 0.45193 0.14709 0.50285
 H1264 H 0.49285 0.14727 0.54541
 C1265 C 0.49250 0.90356 0.46699
 C1266 C 0.52041 0.88312 0.47012
 C1267 C 0.52388 0.86378 0.49812
 C1268 C 0.50005 0.86340 0.52228
 C1269 C 0.47192 0.88263 0.51958
 C1270 C 0.46840 0.90375 0.49223
 C1271 C 0.48860 0.92496 0.44020
 C1272 C 0.46164 0.94564 0.43807
 C1273 C 0.43874 0.94648 0.46306
 C1274 C 0.44226 0.92616 0.49006
 H1275 H 0.50647 0.92664 0.42101
 H1276 H 0.45879 0.96156 0.41722
 H1277 H 0.41836 0.96327 0.46170
 H1278 H 0.42481 0.92891 0.50948
 H1279 H 0.54510 0.84821 0.50107
 H1280 H 0.50338 0.84743 0.54309
 C1281 C 0.98946 0.39596 0.46784
 C1282 C 1.01934 0.37854 0.47238
 C1283 C 1.02478 0.36263 0.50224
 C1284 C 1.00136 0.36269 0.52686
 C1285 C 0.97175 0.37933 0.52304
 C1286 C 0.96626 0.39739 0.49390
 C1287 C 0.98229 0.41307 0.43870
 C1288 C 0.95376 0.43135 0.43546
 C1289 C 0.93240 0.43434 0.46152
 C1290 C 0.93879 0.41801 0.49056
 H1291 H 0.99840 0.41332 0.41808
 H1292 H 0.94864 0.44401 0.41285
 H1293 H 0.91092 0.44962 0.45932
 H1294 H 0.92248 0.42257 0.51054
 H1295 H 1.04726 0.34927 0.50639
 H1296 H 1.00629 0.34908 0.54900
 C1297 C -0.00168 0.84262 1.01920
 C1298 C -0.02688 0.86659 1.02077
 C1299 C -0.02784 0.89107 0.99682
 C1300 C -0.00359 0.89348 0.97304
 C1301 C 0.02239 0.87128 0.97210
 C1302 C 0.02284 0.84486 0.99452
 C1303 C -0.00182 0.81492 1.03982
 C1304 C 0.02216 0.79092 1.03722
 C1305 C 0.04607 0.79323 1.01329
 C1306 C 0.04613 0.81954 0.99179
 H1307 H -0.02115 0.81068 1.05715
 H1308 H 0.02162 0.76994 1.05327
 H1309 H 0.06414 0.77409 1.01079
 H1310 H 0.06379 0.81911 0.97233
 H1311 H -0.04616 0.91002 0.99789
 H1312 H -0.00462 0.91347 0.95576
 C1313 C -0.00773 0.08909 -0.01831
 C1314 C -0.02534 0.11811 -0.02504
 C1315 C -0.01912 0.14632 -0.00678
 C1316 C 0.00481 0.14647 0.01740
 C1317 C 0.02304 0.11836 0.02404
 C1318 C 0.01665 0.08922 0.00653
 C1319 C -0.01440 0.05972 -0.03510
 C1320 C 0.00256 0.03115 -0.02748
 C1321 C 0.02635 0.03129 -0.00319
 C1322 C 0.03343 0.05999 0.01371
 H1323 H -0.03296 0.05851 -0.05387
 H1324 H -0.00294 0.00871 -0.04026
 H1325 H 0.03929 0.00900 0.00269
 H1326 H 0.05185 0.05899 0.03265
 H1327 H -0.03278 0.16850 -0.01147
 H1328 H 0.00932 0.16877 0.03091
 C1329 C 0.15295 1.00000 1.02362
 C1330 C 0.13213 1.02783 1.02092
 C1331 C 0.11355 1.03166 0.99234
 C1332 C 0.11175 1.00687 0.96910
 C1333 C 0.12957 0.97786 0.97273
 C1334 C 0.15172 0.97503 0.99931
 C1335 C 0.17731 0.99791 1.04812
 C1336 C 0.19833 0.97126 1.04991
 C1337 C 0.19679 0.94683 1.02651
 C1338 C 0.17432 0.94903 1.00111
 H1339 H 0.18179 1.01753 1.06505
 H1340 H 0.21671 0.97015 1.06888
 H1341 H 0.21389 0.92668 1.02734
 H1342 H 0.17606 0.93100 0.98221
 H1343 H 0.09859 1.05319 0.98876
 H1344 H 0.09566 1.01015 0.94835
 C1345 C 0.09281 0.48035 0.49474
 C1346 C 0.12115 0.47510 0.47563
 C1347 C 0.14899 0.49415 0.48104
 C1348 C 0.14952 0.51750 0.50582
 C1349 C 0.12232 0.52228 0.52601
 C1350 C 0.09338 0.50404 0.52025
 C1351 C 0.06348 0.46345 0.48809
 C1352 C 0.03531 0.46981 0.50604
 C1353 C 0.03579 0.49296 0.53087
 C1354 C 0.06447 0.50989 0.53815
 H1355 H 0.06181 0.44585 0.46848
 H1356 H 0.01287 0.45703 0.50042
 H1357 H 0.01360 0.49804 0.54415
 H1358 H 0.06353 0.52815 0.55719
 H1359 H 0.17065 0.49057 0.46627
 H1360 H 0.17150 0.53176 0.50951
 C1361 C 0.34435 0.50167 1.02351
 C1362 C 0.36894 0.47730 1.02374
 C1363 C 0.39271 0.47709 0.99915
 C1364 C 0.39357 0.50147 0.97549
 C1365 C 0.37045 0.52667 0.97549
 C1366 C 0.34486 0.52628 0.99892
 C1367 C 0.31838 0.50129 1.04625
 C1368 C 0.29364 0.52464 1.04491
 C1369 C 0.29379 0.54823 1.02053
 C1370 C 0.31886 0.54885 0.99752
 H1371 H 0.31640 0.48261 1.06473
 H1372 H 0.27387 0.52398 1.06245
 H1373 H 0.27408 0.56581 1.01908
 H1374 H 0.31706 0.56637 0.97806
 H1375 H 0.41135 0.45837 0.99881
 H1376 H 0.41286 0.50102 0.95738
 C1377 C 0.84693 0.49834 0.47635
 C1378 C 0.87464 0.51890 0.47317
 C1379 C 0.90000 0.51667 0.49601
 C1380 C 0.89880 0.49385 0.52120
 C1381 C 0.87216 0.47264 0.52434
 C1382 C 0.84570 0.47503 0.50214
 C1383 C 0.81976 0.50133 0.45531
 C1384 C 0.79241 0.48144 0.45909
 C1385 C 0.79122 0.45871 0.48425
 C1386 C 0.81738 0.45569 0.50581
 H1387 H 0.81903 0.51940 0.43621
 H1388 H 0.77181 0.48405 0.44272
 H1389 H 0.76970 0.44369 0.48741
 H1390 H 0.81481 0.43869 0.52575
 H1391 H 0.92107 0.53258 0.49416
 H1392 H 0.91913 0.49229 0.53803
 C1393 C 0.88644 0.98331 -0.03900
 C1394 C 0.87815 1.01612 -0.03015
 C1395 C 0.87102 1.02293 0.00262
 C1396 C 0.87109 0.99859 0.02625
 C1397 C 0.87807 0.96598 0.01846
 C1398 C 0.88600 0.95804 -0.01472
 C1399 C 0.89628 0.97491 -0.07116
 C1400 C 0.90441 0.94312 -0.07966
 C1401 C 0.90341 0.91869 -0.05650
 C1402 C 0.89460 0.92591 -0.02455
 H1403 H 0.89912 0.99232 -0.09039
 H1404 H 0.91201 0.93752 -0.10436
 H1405 H 0.91019 0.89401 -0.06313
 H1406 H 0.89595 0.90559 -0.00827
 H1407 H 0.86471 1.04749 0.01018
 H1408 H 0.86499 1.00547 0.05106
 C1409 C 0.59266 -0.01290 0.48811
 C1410 C 0.62108 -0.01872 0.46931
 C1411 C 0.64904 0.00023 0.47449
 C1412 C 0.64976 0.02372 0.49913
 C1413 C 0.62258 0.02872 0.51926
 C1414 C 0.59338 0.01102 0.51334
 C1415 C 0.56322 -0.02968 0.48169
 C1416 C 0.53504 -0.02270 0.49944
 C1417 C 0.53563 0.00080 0.52388
 C1418 C 0.56447 0.01744 0.53108
 H1419 H 0.56149 -0.04765 0.46241
 H1420 H 0.51248 -0.03526 0.49401
 H1421 H 0.51343 0.00635 0.53697
 H1422 H 0.56364 0.03595 0.54989
 H1423 H 0.67078 -0.00383 0.45995
 H1424 H 0.67196 0.03756 0.50305
 C1425 C 0.48159 1.00433 0.33972
 C1426 C 0.47559 1.02227 0.36870
 C1427 C 0.49499 1.01672 0.39625
 C1428 C 0.52056 0.99427 0.39537
 C1429 C 0.52680 0.97600 0.36718
 C1430 C 0.50731 0.98086 0.33901
 C1431 C 0.46281 1.00943 0.31128
 C1432 C 0.46902 0.99162 0.28293
 C1433 C 0.49411 0.96867 0.28225
 C1434 C 0.51322 0.96334 0.30992
 H1435 H 0.44331 1.02722 0.31066
 H1436 H 0.45439 0.99576 0.26131
 H1437 H 0.49893 0.95507 0.26010
 H1438 H 0.53281 0.94569 0.30820
 H1439 H 0.48994 1.02948 0.41883
 H1440 H 0.53498 0.99041 0.41721
 C1441 C 0.00332 -0.02986 0.14655
 C1442 C -0.01816 -0.03266 0.11952
 C1443 C -0.01612 -0.01011 0.09392
 C1444 C 0.00732 0.01454 0.09433
 C1445 C 0.02940 0.01727 0.12029
 C1446 C 0.02732 -0.00472 0.14691
 C1447 C 0.00054 -0.05059 0.17395
 C1448 C 0.02132 -0.04715 0.20068
 C1449 C 0.04479 -0.02264 0.20099
 C1450 C 0.04762 -0.00138 0.17460
 H1451 H -0.01808 -0.06912 0.17534
 H1452 H 0.01886 -0.06328 0.22145
 H1453 H 0.06056 -0.01975 0.22202
 H1454 H 0.06533 0.01802 0.17647
 H1455 H -0.03285 -0.01163 0.07347
 H1456 H 0.00828 0.03164 0.07419
 C1457 C 0.49780 0.52512 0.09068
 C1458 C 0.52484 0.52210 0.11218
 C1459 C 0.52738 0.49449 0.13215
 C1460 C 0.50286 0.47097 0.13259
 C1461 C 0.47494 0.47426 0.11308
 C1462 C 0.47265 0.50103 0.09112
 C1463 C 0.49568 0.55099 0.06797
 C1464 C 0.46895 0.55385 0.04714
 C1465 C 0.44445 0.53044 0.04757
 C1466 C 0.44653 0.50393 0.06878
 H1467 H 0.51486 0.56883 0.06555
 H1468 H 0.46744 0.57407 0.03023
 H1469 H 0.42398 0.53262 0.03104
 H1470 H 0.42786 0.48555 0.06692
 H1471 H 0.54804 0.49164 0.14845
 H1472 H 0.50525 0.45048 0.14915
 C1473 C -0.00098 0.47465 0.65301
 C1474 C -0.02436 0.47377 0.62743
 C1475 C -0.02447 0.49857 0.60394
 C1476 C -0.00083 0.52296 0.60427
 C1477 C 0.02387 0.52314 0.62789
 C1478 C 0.02330 0.49957 0.65326
 C1479 C -0.00217 0.45233 0.67926
 C1480 C 0.02039 0.45400 0.70468
 C1481 C 0.04398 0.47839 0.70498
 C1482 C 0.04521 0.50123 0.67982
 H1483 H -0.02101 0.43405 0.68099
 H1484 H 0.01910 0.43670 0.72461
 H1485 H 0.06098 0.48004 0.72515
 H1486 H 0.06272 0.52074 0.68204
 H1487 H -0.04271 0.49873 0.58479
 H1488 H -0.00127 0.54140 0.58530
 C1489 C 0.47654 0.50484 0.84514
 C1490 C 0.47431 0.52627 0.87226
 C1491 C 0.49719 0.52386 0.89755
 C1492 C 0.52138 0.49991 0.89696
 C1493 C 0.52336 0.47766 0.87106
 C1494 C 0.50123 0.48031 0.84456
 C1495 C 0.45549 0.50798 0.81800
 C1496 C 0.45826 0.48710 0.79126
 C1497 C 0.48233 0.46312 0.79072
 C1498 C 0.50384 0.45987 0.81690
 H1499 H 0.43721 0.52694 0.81684
 H1500 H 0.44193 0.48983 0.77066
 H1501 H 0.48466 0.44727 0.76970
 H1502 H 0.52285 0.44169 0.81490
 H1503 H 0.49595 0.54031 0.91820
 H1504 H 0.53830 0.49828 0.91723
 C1505 C 0.65282 0.50288 1.02188
 C1506 C 0.63050 0.52960 1.02047
 C1507 C 0.61022 0.53277 0.99297
 C1508 C 0.60866 0.50820 0.96944
 C1509 C 0.62825 0.48027 0.97188
 C1510 C 0.65199 0.47846 0.99706
 C1511 C 0.67799 0.50139 1.04560
 C1512 C 0.70071 0.47606 1.04562
 C1513 C 0.69991 0.45247 1.02131
 C1514 C 0.67629 0.45398 0.99691
 H1515 H 0.68157 0.52046 1.06340
 H1516 H 0.71974 0.47540 1.06396
 H1517 H 0.71831 0.43348 1.02075
 H1518 H 0.67831 0.43678 0.97713
 H1519 H 0.59374 0.55335 0.99070
 H1520 H 0.59132 0.51061 0.94961
 C1521 C 0.34840 0.99822 0.47001
 C1522 C 0.37183 1.02399 0.47190
 C1523 C 0.39140 1.02647 0.49997
 C1524 C 0.39057 1.00257 0.52411
 C1525 C 0.36945 0.97580 0.52173
 C1526 C 0.34714 0.97419 0.49523
 C1527 C 0.32399 0.99750 0.44549
 C1528 C 0.30047 0.97298 0.44465
 C1529 C 0.29958 0.94948 0.46899
 C1530 C 0.32212 0.95046 0.49439
 H1531 H 0.32148 1.01662 0.42766
 H1532 H 0.28213 0.97289 0.42561
 H1533 H 0.28060 0.93108 0.46884
 H1534 H 0.31865 0.93338 0.51402
 H1535 H 0.40882 1.04622 0.50255
 H1536 H 0.40724 1.00463 0.54454
 C1537 C 0.00735 0.59634 0.46684
 C1538 C -0.02128 0.61564 0.47095
 C1539 C -0.02526 0.63374 0.49967
 C1540 C -0.00126 0.63403 0.52363
 C1541 C 0.02774 0.61626 0.51984
 C1542 C 0.03208 0.59673 0.49141
 C1543 C 0.01155 0.57570 0.43950
 C1544 C 0.03979 0.55713 0.43559
 C1545 C 0.06382 0.55754 0.45941
 C1546 C 0.05982 0.57660 0.48726
 H1547 H -0.00699 0.57302 0.42118
 H1548 H 0.04287 0.54198 0.41417
 H1549 H 0.08545 0.54261 0.45655
 H1550 H 0.07843 0.57468 0.50554
 H1551 H -0.04699 0.64841 0.50340
 H1552 H -0.00518 0.64888 0.54518
 C1553 C 0.49153 0.34723 1.01694
 C1554 C 0.46921 0.37358 1.01946
 C1555 C 0.47149 0.39981 0.99770
 C1556 C 0.49629 0.40098 0.97444
 C1557 C 0.51962 0.37606 0.97256
 C1558 C 0.51708 0.34855 0.99342
 C1559 C 0.48840 0.31911 1.03663
 C1560 C 0.51038 0.29327 1.03378
 C1561 C 0.53550 0.29464 1.01098
 C1562 C 0.53875 0.32181 0.99077
 H1563 H 0.46859 0.31648 1.05382
 H1564 H 0.50765 0.27190 1.04907
 H1565 H 0.55230 0.27435 1.00861
 H1566 H 0.55802 0.32130 0.97280
 H1567 H 0.45450 0.41997 0.99935
 H1568 H 0.49774 0.42184 0.95826
 C1569 C 0.49837 -0.02422 0.64910
 C1570 C 0.47455 -0.02449 0.62392
 C1571 C 0.47485 0.00016 0.60027
 C1572 C 0.49922 0.02388 0.60020
 C1573 C 0.52439 0.02330 0.62333
 C1574 C 0.52355 -0.00020 0.64875
 C1575 C 0.49682 -0.04630 0.67553
 C1576 C 0.51994 -0.04539 0.70048
 C1577 C 0.54450 -0.02199 0.70012
 C1578 C 0.54611 0.00067 0.67482
 H1579 H 0.47725 -0.06375 0.67778
 H1580 H 0.51837 -0.06251 0.72054
 H1581 H 0.56200 -0.02094 0.71991
 H1582 H 0.56451 0.01938 0.67654
 H1583 H 0.45640 0.00071 0.58133
 H1584 H 0.49884 0.04251 0.58143
 C1585 C -0.00421 0.51764 0.34151
 C1586 C -0.02320 0.52317 0.36990
 C1587 C -0.01664 0.50541 0.39832
 C1588 C 0.00866 0.48267 0.39913
 C1589 C 0.02727 0.47614 0.37125
 C1590 C 0.02110 0.49372 0.34212
 C1591 C -0.01027 0.53484 0.31227
 C1592 C 0.00825 0.52869 0.28436
 C1593 C 0.03288 0.50524 0.28493
 C1594 C 0.03926 0.48778 0.31344
 H1595 H -0.02946 0.55293 0.31064
 H1596 H 0.00333 0.54206 0.26210
 H1597 H 0.04704 0.50047 0.26312
 H1598 H 0.05838 0.46958 0.31276
 H1599 H -0.03068 0.50980 0.42032
 H1600 H 0.01401 0.47030 0.42184
 C1601 C 0.00008 1.02859 0.84625
 C1602 C -0.02542 1.02748 0.87000
 C1603 C -0.02616 1.00130 0.89209
 C1604 C -0.00164 0.97780 0.89251
 C1605 C 0.02449 0.97923 0.87060
 C1606 C 0.02506 1.00418 0.84654
 C1607 C -0.00017 1.05148 0.82035
 C1608 C 0.02422 1.05151 0.79664
 C1609 C 0.04865 1.02801 0.79724
 C1610 C 0.04879 1.00422 0.82148
 H1611 H -0.01981 1.06866 0.81705
 H1612 H 0.02358 1.06930 0.77711
 H1613 H 0.06704 1.02761 0.77825
 H1614 H 0.06694 0.98527 0.81952
 H1615 H -0.04477 1.00005 0.91072
 H1616 H -0.00272 0.95865 0.91072
 C1617 C 0.74616 0.64782 0.27654
 C1618 C 0.76948 0.62229 0.27792
 C1619 C 0.76925 0.59781 0.25402
 C1620 C 0.74563 0.59758 0.22953
 C1621 C 0.72199 0.62219 0.22790
 C1622 C 0.72281 0.64824 0.25076
 C1623 C 0.74637 0.67376 0.29932
 C1624 C 0.72485 0.69988 0.29613
 C1625 C 0.70396 0.70152 0.26950
 C1626 C 0.70229 0.67574 0.24740
 H1627 H 0.76347 0.67465 0.31935
 H1628 H 0.72505 0.71943 0.31391
 H1629 H 0.68913 0.72300 0.26582
 H1630 H 0.68558 0.67815 0.22719
 H1631 H 0.78733 0.57849 0.25456
 H1632 H 0.74571 0.57796 0.21179
 C1633 C 0.25070 0.90788 0.72447
 C1634 C 0.27439 0.88258 0.72421
 C1635 C 0.27355 0.85848 0.74841
 C1636 C 0.24896 0.85826 0.77186
 C1637 C 0.22445 0.88213 0.77187
 C1638 C 0.22553 0.90768 0.74855
 C1639 C 0.25217 0.93409 0.70212
 C1640 C 0.22912 0.95913 0.70307
 C1641 C 0.20462 0.95897 0.72661
 C1642 C 0.20295 0.93375 0.74937
 H1643 H 0.27150 0.93596 0.68425
 H1644 H 0.23058 0.97905 0.68577
 H1645 H 0.18712 0.97877 0.72756
 H1646 H 0.18433 0.93535 0.76798
 H1647 H 0.29158 0.83911 0.74859
 H1648 H 0.24866 0.83883 0.78980
 C1649 C 0.25874 0.35352 0.28258
 C1650 C 0.23051 0.37369 0.28060
 C1651 C 0.22584 0.39315 0.25281
 C1652 C 0.24870 0.39367 0.22764
 C1653 C 0.27655 0.37389 0.22883
 C1654 C 0.28087 0.35236 0.25570
 C1655 C 0.26512 0.33351 0.30997
 C1656 C 0.29185 0.31244 0.31047
 C1657 C 0.31153 0.30924 0.28315
 C1658 C 0.30590 0.32861 0.25585
 H1659 H 0.24982 0.33351 0.33128
 H1660 H 0.29686 0.29789 0.33190
 H1661 H 0.33115 0.29157 0.28311
 H1662 H 0.32079 0.32411 0.23471
 H1663 H 0.20437 0.40850 0.25073
 H1664 H 0.24463 0.40979 0.20708
 C1665 C 0.84497 0.74336 0.27003
 C1666 C 0.87277 0.72380 0.27642
 C1667 C 0.90151 0.72881 0.25860
 C1668 C 0.90333 0.75337 0.23511
 C1669 C 0.87647 0.77359 0.22896
 C1670 C 0.84684 0.76849 0.24613
 C1671 C 0.81496 0.73772 0.28598
 C1672 C 0.78765 0.75684 0.27897
 C1673 C 0.78935 0.78112 0.25545
 C1674 C 0.81856 0.78690 0.23907
 H1675 H 0.81229 0.71838 0.30372
 H1676 H 0.76501 0.75293 0.29180
 H1677 H 0.76794 0.79563 0.24989
 H1678 H 0.81862 0.80585 0.22089
 H1679 H 0.92278 0.71369 0.26305
 H1680 H 0.92586 0.75665 0.22162
 C1681 C 0.62841 0.23728 0.78730
 C1682 C 0.62293 0.27046 0.77831
 C1683 C 0.61389 0.27740 0.74607
 C1684 C 0.61109 0.25275 0.72285
 C1685 C 0.61513 0.21970 0.73111
 C1686 C 0.62093 0.21171 0.76471
 C1687 C 0.64235 0.22866 0.81779
 C1688 C 0.64387 0.19631 0.82792
 C1689 C 0.63167 0.17184 0.80802
 C1690 C 0.62029 0.17927 0.77686
 H1691 H 0.65368 0.24634 0.83365
 H1692 H 0.65425 0.19028 0.85146
 H1693 H 0.63155 0.14682 0.81652
 H1694 H 0.60995 0.15914 0.76364
 H1695 H 0.60943 0.30232 0.73843
 H1696 H 0.60584 0.25989 0.69794
 C1697 C 0.74326 0.22169 0.90798
 C1698 C 0.77096 0.22430 0.88719
 C1699 C 0.77471 0.25263 0.86841
 C1700 C 0.75052 0.27648 0.86733
 C1701 C 0.72196 0.27363 0.88595
 C1702 C 0.71885 0.24675 0.90771
 C1703 C 0.74014 0.19583 0.93051
 C1704 C 0.71362 0.19414 0.95175
 C1705 C 0.69023 0.21872 0.95184
 C1706 C 0.69304 0.24503 0.93051
 H1707 H 0.75863 0.17733 0.93293
 H1708 H 0.71172 0.17413 0.96889
 H1709 H 0.67022 0.21782 0.96910
 H1710 H 0.67556 0.26451 0.93316
 H1711 H 0.79637 0.25610 0.85374
 H1712 H 0.75399 0.29720 0.85126
 C1713 C 0.24580 0.77811 0.65027
 C1714 C 0.27278 0.77468 0.62868
 C1715 C 0.27487 0.74705 0.60868
 C1716 C 0.25020 0.72368 0.60863
 C1717 C 0.22237 0.72732 0.62822
 C1718 C 0.22006 0.75465 0.64959
 C1719 C 0.24436 0.80373 0.67343
 C1720 C 0.21730 0.80765 0.69360
 C1721 C 0.19173 0.78550 0.69214
 C1722 C 0.19338 0.75876 0.67114
 H1723 H 0.26426 0.82060 0.67681
 H1724 H 0.21633 0.82777 0.71072
 H1725 H 0.17075 0.78882 0.70781
 H1726 H 0.17373 0.74140 0.67249
 H1727 H 0.29549 0.74386 0.59240
 H1728 H 0.25256 0.70280 0.59253
   
