data_POSCAR
  _audit_creation_date              2014-09-24
  _audit_creation_method            'ToBaCCo'
  _symmetry_space_group_name_H-M    'P1'
  _symmetry_Int_Tables_number       1
  _symmetry_cell_setting            triclinic
  loop_
  _symmetry_equiv_pos_as_xyz
 x,y,z
_cell_length_a 78.1660
_cell_length_b 78.3384
_cell_length_c 78.3598
_cell_angle_alpha 89.982600
_cell_angle_beta 89.982700
_cell_angle_gamma 89.936100
loop_
  _atom_site_label
  _atom_site_type_symbol
  _atom_site_fract_x
  _atom_site_fract_y
  _atom_site_fract_z
N1 N 0.35872 0.31146 0.32328
 N2 N 0.35936 0.32416 0.31232
 C3 C 0.37302 0.32202 0.30204
 C4 C 0.38121 0.30711 0.30674
 C5 C 0.37180 0.30070 0.32020
 H6 H 0.37662 0.33047 0.29174
 H7 H 0.37446 0.28920 0.32738
 Cu8 Cu 0.34182 0.34179 0.31221
 Cu9 Cu 0.34152 0.31020 0.34125
 Cu10 Cu 0.31079 0.34215 0.34185
 N11 N 0.32439 0.35953 0.31250
 N12 N 0.31189 0.35917 0.32374
 C13 C 0.30105 0.37217 0.32059
 C14 C 0.30723 0.38124 0.30680
 C15 C 0.32208 0.37296 0.30200
 H16 H 0.28964 0.37495 0.32789
 H17 H 0.33033 0.37629 0.29144
 N18 N 0.31182 0.32384 0.35904
 N19 N 0.32314 0.31132 0.35845
 C20 C 0.32022 0.30056 0.37155
 C21 C 0.30658 0.30675 0.38089
 C22 C 0.30158 0.32151 0.37267
 H23 H 0.32761 0.28922 0.37431
 H24 H 0.29114 0.32982 0.37630
 H25 H 0.32273 0.32304 0.32810
 H26 H 0.33670 0.33614 0.34232
 N27 N 0.35925 0.81180 -0.17703
 N28 N 0.36030 0.82486 -0.18755
 C29 C 0.37390 0.82263 -0.19791
 C30 C 0.38168 0.80732 -0.19365
 C31 C 0.37202 0.80078 -0.18040
 H32 H 0.37775 0.83132 -0.20793
 H33 H 0.37424 0.78896 -0.17361
 Cu34 Cu 0.34301 0.84276 -0.18695
 Cu35 Cu 0.34179 0.81026 -0.15922
 Cu36 Cu 0.31091 0.84216 -0.15879
 N37 N 0.32545 0.86041 -0.18725
 N38 N 0.31225 0.85933 -0.17688
 C39 C 0.30107 0.87189 -0.18057
 C40 C 0.30779 0.88157 -0.19374
 C41 C 0.32332 0.87398 -0.19762
 H42 H 0.28904 0.87394 -0.17406
 H43 H 0.33216 0.87785 -0.20751
 N44 N 0.31185 0.82371 -0.14162
 N45 N 0.32318 0.81120 -0.14220
 C46 C 0.32025 0.80042 -0.12912
 C47 C 0.30662 0.80659 -0.11976
 C48 C 0.30163 0.82139 -0.12796
 H49 H 0.32770 0.78912 -0.12632
 H50 H 0.29125 0.82975 -0.12427
 H51 H 0.32338 0.82341 -0.17261
 H52 H 0.33668 0.83600 -0.15739
 N53 N 0.85835 0.31225 -0.17676
 N54 N 0.85923 0.32514 -0.18747
 C55 C 0.87289 0.32296 -0.19776
 C56 C 0.88082 0.30785 -0.19330
 C57 C 0.87127 0.30134 -0.17999
 H58 H 0.87664 0.33152 -0.20792
 H59 H 0.87372 0.28967 -0.17302
 Cu60 Cu 0.84189 0.34295 -0.18749
 Cu61 Cu 0.84103 0.31093 -0.15891
 Cu62 Cu 0.81041 0.34298 -0.15829
 N63 N 0.82440 0.36063 -0.18727
 N64 N 0.81167 0.36009 -0.17631
 C65 C 0.80077 0.37299 -0.17962
 C66 C 0.80716 0.38224 -0.19323
 C67 C 0.82220 0.37410 -0.19775
 H68 H 0.78916 0.37557 -0.17256
 H69 H 0.83065 0.37752 -0.20813
 N70 N 0.81133 0.32456 -0.14118
 N71 N 0.82258 0.31199 -0.14181
 C72 C 0.81959 0.30117 -0.12878
 C73 C 0.80598 0.30738 -0.11943
 C74 C 0.80107 0.32222 -0.12756
 H75 H 0.82696 0.28981 -0.12604
 H76 H 0.79069 0.33058 -0.12388
 H77 H 0.82245 0.32405 -0.17217
 H78 H 0.83622 0.33686 -0.15755
 N79 N 0.85911 0.81260 0.32393
 N80 N 0.85857 0.82412 0.31172
 C81 C 0.87156 0.82127 0.30076
 C82 C 0.88080 0.80741 0.30659
 C83 C 0.87262 0.80225 0.32133
 H84 H 0.87424 0.82877 0.28949
 H85 H 0.87609 0.79158 0.32938
 Cu86 Cu 0.84109 0.84180 0.31159
 Cu87 Cu 0.84182 0.81134 0.34183
 Cu88 Cu 0.81039 0.84256 0.34163
 N89 N 0.82377 0.85965 0.31200
 N90 N 0.81134 0.85940 0.32331
 C91 C 0.80055 0.87244 0.32018
 C92 C 0.80673 0.88150 0.30634
 C93 C 0.82153 0.87310 0.30150
 H94 H 0.78919 0.87526 0.32754
 H95 H 0.82981 0.87637 0.29094
 N96 N 0.81163 0.82448 0.35909
 N97 N 0.82327 0.81225 0.35882
 C98 C 0.82035 0.80150 0.37193
 C99 C 0.80641 0.80743 0.38099
 C100 C 0.80123 0.82203 0.37258
 H101 H 0.82793 0.79032 0.37488
 H102 H 0.79054 0.83012 0.37596
 H103 H 0.82249 0.82322 0.32823
 H104 H 0.83626 0.83712 0.34190
 N105 N 0.64150 0.68881 0.32364
 N106 N 0.64059 0.67591 0.31293
 C107 C 0.62693 0.67811 0.30268
 C108 C 0.61905 0.69327 0.30711
 C109 C 0.62861 0.69976 0.32041
 H110 H 0.62315 0.66955 0.29254
 H111 H 0.62622 0.71145 0.32735
 Cu112 Cu 0.65807 0.65822 0.31280
 Cu113 Cu 0.65886 0.69015 0.34143
 Cu114 Cu 0.68941 0.65807 0.34210
 N115 N 0.67543 0.64042 0.31310
 N116 N 0.68810 0.64090 0.32413
 C117 C 0.69897 0.62796 0.32087
 C118 C 0.69264 0.61880 0.30722
 C119 C 0.67767 0.62697 0.30262
 H120 H 0.71055 0.62533 0.32795
 H121 H 0.66931 0.62358 0.29217
 N122 N 0.68856 0.67653 0.35913
 N123 N 0.67733 0.68913 0.35848
 C124 C 0.68035 0.69997 0.37148
 C125 C 0.69394 0.69374 0.38085
 C126 C 0.69882 0.67887 0.37274
 H127 H 0.67299 0.71134 0.37421
 H128 H 0.70916 0.67048 0.37645
 H129 H 0.67749 0.67706 0.32809
 H130 H 0.66361 0.66420 0.34267
 N131 N 0.64170 0.18867 -0.17655
 N132 N 0.64073 0.17574 -0.18720
 C133 C 0.62709 0.17798 -0.19748
 C134 C 0.61926 0.19319 -0.19309
 C135 C 0.62886 0.19966 -0.17981
 H136 H 0.62321 0.16936 -0.20753
 H137 H 0.62646 0.21134 -0.17284
 Cu138 Cu 0.65771 0.15751 -0.18692
 Cu139 Cu 0.65896 0.18994 -0.15869
 Cu140 Cu 0.68968 0.15810 -0.15819
 N141 N 0.67555 0.14013 -0.18687
 N142 N 0.68857 0.14106 -0.17629
 C143 C 0.69965 0.12834 -0.17975
 C144 C 0.69303 0.11871 -0.19298
 C145 C 0.67768 0.12648 -0.19713
 H146 H 0.71151 0.12610 -0.17299
 H147 H 0.66890 0.12264 -0.20708
 N148 N 0.68866 0.17640 -0.14097
 N149 N 0.67736 0.18892 -0.14158
 C150 C 0.68032 0.19975 -0.12855
 C151 C 0.69396 0.19359 -0.11921
 C152 C 0.69891 0.17876 -0.12735
 H153 H 0.67293 0.21110 -0.12583
 H154 H 0.70933 0.17043 -0.12369
 H155 H 0.67724 0.17670 -0.17219
 H156 H 0.66372 0.16398 -0.15714
 N157 N 0.14137 0.68870 -0.17665
 N158 N 0.14044 0.67578 -0.18732
 C159 C 0.12676 0.67795 -0.19755
 C160 C 0.11889 0.69312 -0.19315
 C161 C 0.12848 0.69964 -0.17988
 H162 H 0.12296 0.66937 -0.20767
 H163 H 0.12610 0.71135 -0.17297
 Cu164 Cu 0.15792 0.65807 -0.18745
 Cu165 Cu 0.15872 0.69007 -0.15885
 Cu166 Cu 0.18916 0.65795 -0.15800
 N167 N 0.17524 0.64021 -0.18698
 N168 N 0.18786 0.64071 -0.17589
 C169 C 0.19870 0.62772 -0.17902
 C170 C 0.19241 0.61848 -0.19264
 C171 C 0.17748 0.62668 -0.19736
 H172 H 0.21024 0.62510 -0.17188
 H173 H 0.16915 0.62324 -0.20782
 N174 N 0.18835 0.67647 -0.14103
 N175 N 0.17716 0.68910 -0.14177
 C176 C 0.18020 0.70000 -0.12883
 C177 C 0.19376 0.69379 -0.11941
 C178 C 0.19860 0.67886 -0.12743
 H179 H 0.17287 0.71141 -0.12618
 H180 H 0.20892 0.67046 -0.12367
 H181 H 0.17733 0.67688 -0.17213
 H182 H 0.16334 0.66407 -0.15758
 N183 N 0.14067 0.18791 0.32441
 N184 N 0.14017 0.17542 0.31320
 C185 C 0.12662 0.17776 0.30284
 C186 C 0.11838 0.19258 0.30773
 C187 C 0.12763 0.19872 0.32141
 H188 H 0.12317 0.16955 0.29229
 H189 H 0.12500 0.21017 0.32867
 Cu190 Cu 0.15797 0.15806 0.31266
 Cu191 Cu 0.15794 0.18911 0.34229
 Cu192 Cu 0.18992 0.15852 0.34142
 N193 N 0.17560 0.14053 0.31279
 N194 N 0.18853 0.14130 0.32351
 C195 C 0.19943 0.12840 0.32020
 C196 C 0.19285 0.11896 0.30685
 C197 C 0.17771 0.12693 0.30249
 H198 H 0.21114 0.12590 0.32712
 H199 H 0.16910 0.12326 0.29233
 N200 N 0.18898 0.17686 0.35859
 N201 N 0.17648 0.18819 0.35925
 C202 C 0.17890 0.19839 0.37287
 C203 C 0.19370 0.19333 0.38103
 C204 C 0.19981 0.17971 0.37165
 H205 H 0.17058 0.20879 0.37657
 H206 H 0.21114 0.17225 0.37438
 H207 H 0.17686 0.17727 0.32817
 H208 H 0.16387 0.16334 0.34260
 N209 N 0.64148 0.31118 0.67676
 N210 N 0.64056 0.32405 0.68749
 C211 C 0.62690 0.32184 0.69776
 C212 C 0.61903 0.30669 0.69331
 C213 C 0.62861 0.30023 0.67999
 H214 H 0.62307 0.33042 0.70787
 H215 H 0.62619 0.28858 0.67299
 Cu216 Cu 0.65771 0.34206 0.68734
 Cu217 Cu 0.65877 0.30993 0.65888
 Cu218 Cu 0.68928 0.34200 0.65820
 N219 N 0.67540 0.35955 0.68732
 N220 N 0.68804 0.35909 0.67625
 C221 C 0.69889 0.37203 0.67951
 C222 C 0.69258 0.38119 0.69320
 C223 C 0.67764 0.37299 0.69782
 H224 H 0.71042 0.37471 0.67237
 H225 H 0.66924 0.37641 0.70824
 N226 N 0.68840 0.32359 0.64108
 N227 N 0.67719 0.31100 0.64173
 C228 C 0.68023 0.30016 0.62873
 C229 C 0.69383 0.30637 0.61936
 C230 C 0.69867 0.32124 0.62747
 H231 H 0.67291 0.28877 0.62603
 H232 H 0.70903 0.32960 0.62379
 H233 H 0.67726 0.32315 0.67216
 H234 H 0.66348 0.33590 0.65743
 N235 N 0.64176 0.81123 1.17715
 N236 N 0.64117 0.82387 1.18818
 C237 C 0.62752 0.82173 1.19847
 C238 C 0.61936 0.80683 1.19376
 C239 C 0.62872 0.80046 1.18024
 H240 H 0.62384 0.83023 1.20870
 H241 H 0.62601 0.78903 1.17299
 Cu242 Cu 0.65856 0.84158 1.18802
 Cu243 Cu 0.65877 0.81018 1.15894
 Cu244 Cu 0.68856 0.84296 1.15744
 N245 N 0.67593 0.85932 1.18786
 N246 N 0.68736 0.86001 1.17555
 C247 C 0.69766 0.87351 1.17816
 C248 C 0.69248 0.88162 1.19293
 C249 C 0.67866 0.87232 1.19879
 H250 H 0.70832 0.87702 1.17009
 H251 H 0.67118 0.87491 1.21010
 N252 N 0.68772 0.82441 1.14049
 N253 N 0.67688 0.81152 1.14149
 C254 C 0.68007 0.80056 1.12862
 C255 C 0.69339 0.80699 1.11901
 C256 C 0.69791 0.82211 1.12682
 H257 H 0.67307 0.78891 1.12621
 H258 H 0.70807 0.83064 1.12294
 H259 H 0.67776 0.82351 1.17152
 H260 H 0.66298 0.83625 1.15779
 N261 N 0.14078 0.31221 1.17596
 N262 N 0.14121 0.32379 1.18809
 C263 C 0.12804 0.32112 1.19887
 C264 C 0.11882 0.30727 1.19301
 C265 C 0.12721 0.30194 1.17844
 H266 H 0.12516 0.32879 1.20998
 H267 H 0.12377 0.29129 1.17037
 Cu268 Cu 0.15853 0.34161 1.18800
 Cu269 Cu 0.15808 0.31096 1.15807
 Cu270 Cu 0.18934 0.34229 1.15812
 N271 N 0.17608 0.35921 1.18794
 N272 N 0.18831 0.35916 1.17640
 C273 C 0.19894 0.37233 1.17936
 C274 C 0.19295 0.38120 1.19336
 C275 C 0.17839 0.37261 1.19848
 H276 H 0.21010 0.37539 1.17178
 H277 H 0.17024 0.37583 1.20915
 N278 N 0.18821 0.32412 1.14078
 N279 N 0.17664 0.31186 1.14110
 C280 C 0.17966 0.30103 1.12809
 C281 C 0.19360 0.30694 1.11905
 C282 C 0.19869 0.32161 1.12737
 H283 H 0.17215 0.28981 1.12520
 H284 H 0.20937 0.32968 1.12398
 H285 H 0.17724 0.32311 1.17152
 H286 H 0.16346 0.33686 1.15771
 N287 N 0.14150 0.81155 0.67637
 N288 N 0.14062 0.82444 0.68710
 C289 C 0.12695 0.82231 0.69736
 C290 C 0.11902 0.80720 0.69292
 C291 C 0.12857 0.80068 0.67960
 H292 H 0.12315 0.83091 0.70748
 H293 H 0.12611 0.78903 0.67261
 Cu294 Cu 0.15808 0.84209 0.68710
 Cu295 Cu 0.15885 0.81019 0.65853
 Cu296 Cu 0.18938 0.84230 0.65777
 N297 N 0.17551 0.85979 0.68696
 N298 N 0.18801 0.85947 0.67573
 C299 C 0.19875 0.87252 0.67884
 C300 C 0.19257 0.88155 0.69266
 C301 C 0.17779 0.87319 0.69750
 H302 H 0.21015 0.87533 0.67154
 H303 H 0.16954 0.87650 0.70809
 N304 N 0.18856 0.82378 0.64078
 N305 N 0.17734 0.81120 0.64144
 C306 C 0.18040 0.80035 0.62845
 C307 C 0.19401 0.80656 0.61910
 C308 C 0.19885 0.82142 0.62720
 H309 H 0.17307 0.78898 0.62572
 H310 H 0.20920 0.82979 0.62351
 H311 H 0.17754 0.82334 0.67164
 H312 H 0.16364 0.83618 0.65712
 N313 N 0.35916 0.68756 0.67598
 N314 N 0.35861 0.67603 0.68817
 C315 C 0.37163 0.67879 0.69910
 C316 C 0.38093 0.69260 0.69326
 C317 C 0.37273 0.69782 0.67855
 H318 H 0.37434 0.67123 0.71033
 H319 H 0.37624 0.70846 0.67048
 Cu320 Cu 0.34126 0.65822 0.68818
 Cu321 Cu 0.34194 0.68881 0.65804
 Cu322 Cu 0.31054 0.65758 0.65815
 N323 N 0.32376 0.64056 0.68789
 N324 N 0.31142 0.64077 0.67648
 C325 C 0.30064 0.62773 0.67957
 C326 C 0.30670 0.61874 0.69349
 C327 C 0.32142 0.62715 0.69843
 H328 H 0.28937 0.62482 0.67213
 H329 H 0.32961 0.62386 0.70905
 N330 N 0.31182 0.67566 0.64070
 N331 N 0.32342 0.68790 0.64100
 C332 C 0.32049 0.69869 0.62792
 C333 C 0.30657 0.69278 0.61886
 C334 C 0.30142 0.67816 0.62722
 H335 H 0.32803 0.70988 0.62503
 H336 H 0.29073 0.67009 0.62383
 H337 H 0.32264 0.67685 0.67152
 H338 H 0.33642 0.66301 0.65780
 N339 N 0.35947 0.18749 1.17614
 N340 N 0.35906 0.17580 1.18819
 C341 C 0.37224 0.17838 1.19897
 C342 C 0.38143 0.19230 1.19325
 C343 C 0.37302 0.19776 1.17873
 H344 H 0.37510 0.17063 1.21003
 H345 H 0.37643 0.20850 1.17076
 Cu346 Cu 0.34166 0.15807 1.18823
 Cu347 Cu 0.34216 0.18876 1.15826
 Cu348 Cu 0.31088 0.15739 1.15829
 N349 N 0.32415 0.14046 1.18805
 N350 N 0.31191 0.14052 1.17654
 C351 C 0.30127 0.12736 1.17954
 C352 C 0.30727 0.11850 1.19355
 C353 C 0.32184 0.12708 1.19862
 H354 H 0.29009 0.12432 1.17200
 H355 H 0.32998 0.12388 1.20931
 N356 N 0.31203 0.17558 1.14097
 N357 N 0.32359 0.18786 1.14128
 C358 C 0.32057 0.19867 1.12824
 C359 C 0.30665 0.19272 1.11920
 C360 C 0.30157 0.17806 1.12754
 H361 H 0.32808 0.20988 1.12533
 H362 H 0.29091 0.16996 1.12415
 H363 H 0.32290 0.17661 1.17164
 H364 H 0.33670 0.16288 1.15788
 N365 N 0.85909 0.68763 1.17602
 N366 N 0.85851 0.67616 1.18828
 C367 C 0.87156 0.67891 1.19917
 C368 C 0.88084 0.69269 1.19328
 C369 C 0.87265 0.69788 1.17855
 H370 H 0.87430 0.67135 1.21040
 H371 H 0.87616 0.70850 1.17046
 Cu372 Cu 0.84110 0.65846 1.18819
 Cu373 Cu 0.84181 0.68889 1.15808
 Cu374 Cu 0.81047 0.65757 1.15820
 N375 N 0.82370 0.64075 1.18811
 N376 N 0.81152 0.64074 1.17653
 C377 C 0.80091 0.62754 1.17951
 C378 C 0.80690 0.61873 1.19355
 C379 C 0.82142 0.62736 1.19867
 H380 H 0.78977 0.62446 1.17195
 H381 H 0.82954 0.62419 1.20938
 N382 N 0.81164 0.67572 1.14083
 N383 N 0.82323 0.68797 1.14110
 C384 C 0.82024 0.69876 1.12804
 C385 C 0.80629 0.69283 1.11902
 C386 C 0.80118 0.67820 1.12740
 H387 H 0.82776 0.70996 1.12511
 H388 H 0.79050 0.67012 1.12404
 H389 H 0.82245 0.67691 1.17150
 H390 H 0.83629 0.66305 1.15786
 N391 N 0.85907 0.18763 0.67619
 N392 N 0.85869 0.17593 0.68822
 C393 C 0.87177 0.17863 0.69908
 C394 C 0.88090 0.19260 0.69339
 C395 C 0.87253 0.19800 0.67883
 H396 H 0.87462 0.17091 0.71017
 H397 H 0.87593 0.20875 0.67086
 Cu398 Cu 0.84153 0.15797 0.68811
 Cu399 Cu 0.84185 0.18880 0.65824
 Cu400 Cu 0.81062 0.15746 0.65825
 N401 N 0.82380 0.14057 0.68807
 N402 N 0.81156 0.14067 0.67656
 C403 C 0.80083 0.12758 0.67959
 C404 C 0.80678 0.11874 0.69363
 C405 C 0.82138 0.12727 0.69870
 H406 H 0.78966 0.12456 0.67204
 H407 H 0.82948 0.12407 0.70942
 N408 N 0.81183 0.17555 0.64085
 N409 N 0.82338 0.18783 0.64117
 C410 C 0.82041 0.19861 0.62809
 C411 C 0.80651 0.19264 0.61903
 C412 C 0.80142 0.17800 0.62738
 H413 H 0.82791 0.20983 0.62519
 H414 H 0.79075 0.16990 0.62400
 H415 H 0.82271 0.17657 0.67179
 H416 H 0.83646 0.16290 0.65783
 N417 N 0.31226 0.35968 0.67583
 N418 N 0.32322 0.35851 0.68851
 C419 C 0.32034 0.37135 0.69959
 C420 C 0.30700 0.38113 0.69340
 C421 C 0.30217 0.37340 0.67831
 H422 H 0.32753 0.37362 0.71115
 H423 H 0.29195 0.37737 0.66990
 Cu424 Cu 0.34067 0.34081 0.68878
 Cu425 Cu 0.31141 0.34295 0.65743
 Cu426 Cu 0.34198 0.31084 0.65814
 N427 N 0.35802 0.32301 0.68883
 N428 N 0.35887 0.31177 0.67640
 C429 C 0.37252 0.30159 0.67892
 C430 C 0.38047 0.30658 0.69383
 C431 C 0.37095 0.32017 0.69985
 H432 H 0.37630 0.29121 0.67064
 H433 H 0.37351 0.32760 0.71119
 N434 N 0.32382 0.31214 0.64076
 N435 N 0.31260 0.32474 0.64010
 C436 C 0.30226 0.32233 0.62657
 C437 C 0.30707 0.30739 0.61853
 C438 C 0.32071 0.30122 0.62785
 H439 H 0.29176 0.33059 0.62299
 H440 H 0.32791 0.28971 0.62528
 H441 H 0.32237 0.32307 0.67101
 H442 H 0.33707 0.33671 0.65814
 N443 N 0.31234 0.85986 0.17573
 N444 N 0.32521 0.86055 0.18653
 C445 C 0.32292 0.87392 0.19710
 C446 C 0.30775 0.88186 0.19275
 C447 C 0.30133 0.87261 0.17920
 H448 H 0.33140 0.87744 0.20742
 H449 H 0.28959 0.87507 0.17232
 Cu450 Cu 0.34278 0.84302 0.18617
 Cu451 Cu 0.31091 0.84266 0.15777
 Cu452 Cu 0.34160 0.81055 0.15847
 N453 N 0.36003 0.82519 0.18677
 N454 N 0.35898 0.81208 0.17633
 C455 C 0.37173 0.80106 0.17981
 C456 C 0.38134 0.80772 0.19299
 C457 C 0.37362 0.82303 0.19713
 H458 H 0.37400 0.78921 0.17310
 H459 H 0.37747 0.83174 0.20712
 N460 N 0.32306 0.81157 0.14141
 N461 N 0.31177 0.82412 0.14078
 C462 C 0.30156 0.82181 0.12713
 C463 C 0.30654 0.80703 0.11895
 C464 C 0.32013 0.80081 0.12833
 H465 H 0.29120 0.83019 0.12342
 H466 H 0.32756 0.78949 0.12555
 H467 H 0.32311 0.82383 0.17172
 H468 H 0.33661 0.83633 0.15656
 N469 N 0.81192 0.35940 0.17638
 N470 N 0.82428 0.35954 0.18777
 C471 C 0.82203 0.37297 0.19827
 C472 C 0.80735 0.38146 0.19333
 C473 C 0.80121 0.37251 0.17945
 H474 H 0.83023 0.37619 0.20890
 H475 H 0.78991 0.37545 0.17205
 Cu476 Cu 0.84152 0.34163 0.18825
 Cu477 Cu 0.81090 0.34258 0.15810
 Cu478 Cu 0.84218 0.31124 0.15793
 N479 N 0.85899 0.32395 0.18800
 N480 N 0.85948 0.31245 0.17579
 C481 C 0.87300 0.30210 0.17831
 C482 C 0.88123 0.30725 0.19301
 C483 C 0.87202 0.32110 0.19890
 H484 H 0.87644 0.29144 0.17024
 H485 H 0.87475 0.32860 0.21015
 N486 N 0.82362 0.31220 0.14098
 N487 N 0.81204 0.32448 0.14070
 C488 C 0.80162 0.32206 0.12724
 C489 C 0.80673 0.30743 0.11886
 C490 C 0.82064 0.30144 0.12790
 H491 H 0.79095 0.33019 0.12386
 H492 H 0.82817 0.29023 0.12497
 H493 H 0.82288 0.32319 0.17152
 H494 H 0.83676 0.33708 0.15792
 N495 N 0.81187 0.85970 0.67629
 N496 N 0.82420 0.85985 0.68770
 C497 C 0.82190 0.87327 0.69824
 C498 C 0.80723 0.88178 0.69327
 C499 C 0.80115 0.87281 0.67937
 H500 H 0.83008 0.87650 0.70890
 H501 H 0.78987 0.87574 0.67193
 Cu502 Cu 0.84173 0.84221 0.68780
 Cu503 Cu 0.81088 0.84283 0.65798
 Cu504 Cu 0.84214 0.81136 0.65800
 N505 N 0.85899 0.82432 0.68793
 N506 N 0.85938 0.81260 0.67593
 C507 C 0.87283 0.80221 0.67861
 C508 C 0.88120 0.80762 0.69315
 C509 C 0.87209 0.82163 0.69880
 H510 H 0.87620 0.79141 0.67069
 H511 H 0.87492 0.82932 0.70991
 N512 N 0.82364 0.81234 0.64096
 N513 N 0.81210 0.82466 0.64060
 C514 C 0.80170 0.82220 0.62712
 C515 C 0.80679 0.80751 0.61882
 C516 C 0.82068 0.80153 0.62792
 H517 H 0.79105 0.83032 0.62369
 H518 H 0.82817 0.79028 0.62507
 H519 H 0.82292 0.82353 0.67143
 H520 H 0.83670 0.83716 0.65754
 N521 N 0.68788 0.64055 0.67602
 N522 N 0.67499 0.63986 0.68681
 C523 C 0.67725 0.62647 0.69738
 C524 C 0.69244 0.61851 0.69304
 C525 C 0.69888 0.62778 0.67950
 H526 H 0.66875 0.62295 0.70768
 H527 H 0.71062 0.62532 0.67263
 Cu528 Cu 0.65743 0.65745 0.68642
 Cu529 Cu 0.68936 0.65779 0.65806
 Cu530 Cu 0.65876 0.68997 0.65878
 N531 N 0.64018 0.67535 0.68701
 N532 N 0.64132 0.68847 0.67659
 C533 C 0.62863 0.69957 0.68007
 C534 C 0.61896 0.69296 0.69324
 C535 C 0.62658 0.67757 0.69736
 H536 H 0.62644 0.71144 0.67337
 H537 H 0.62266 0.66886 0.70732
 N538 N 0.67733 0.68898 0.64175
 N539 N 0.68856 0.67638 0.64108
 C540 C 0.69882 0.67873 0.62747
 C541 C 0.69395 0.69361 0.61937
 C542 C 0.68036 0.69983 0.62875
 H543 H 0.70915 0.67032 0.62374
 H544 H 0.67300 0.71120 0.62602
 H545 H 0.67721 0.67658 0.67203
 H546 H 0.66371 0.66416 0.65684
 N547 N 0.68828 0.14041 0.17572
 N548 N 0.67562 0.13988 0.18678
 C549 C 0.67793 0.12643 0.19727
 C550 C 0.69291 0.11829 0.19260
 C551 C 0.69918 0.12750 0.17894
 H552 H 0.66961 0.12300 0.20774
 H553 H 0.71074 0.12489 0.17181
 Cu554 Cu 0.65818 0.15760 0.18685
 Cu555 Cu 0.68959 0.15759 0.15774
 Cu556 Cu 0.65903 0.18971 0.15856
 N557 N 0.64079 0.17538 0.18712
 N558 N 0.64171 0.18832 0.17645
 C559 C 0.62888 0.19929 0.17976
 C560 C 0.61934 0.19279 0.19309
 C561 C 0.62719 0.17759 0.19745
 H562 H 0.62648 0.21100 0.17285
 H563 H 0.62342 0.16902 0.20759
 N564 N 0.67746 0.18869 0.14142
 N565 N 0.68868 0.17609 0.14072
 C566 C 0.69894 0.17848 0.12711
 C567 C 0.69407 0.19338 0.11906
 C568 C 0.68048 0.19958 0.12845
 H569 H 0.70930 0.17011 0.12338
 H570 H 0.67315 0.21098 0.12579
 H571 H 0.67766 0.17649 0.17175
 H572 H 0.66385 0.16378 0.15703
 N573 N 0.18815 0.64106 0.17604
 N574 N 0.17526 0.64031 0.18680
 C575 C 0.17730 0.62663 0.19704
 C576 C 0.19236 0.61855 0.19253
 C577 C 0.19895 0.62804 0.17922
 H578 H 0.16871 0.62296 0.20721
 H579 H 0.21063 0.62552 0.17225
 Cu580 Cu 0.15769 0.65790 0.18697
 Cu581 Cu 0.18964 0.65837 0.15821
 Cu582 Cu 0.15784 0.68917 0.15757
 N583 N 0.13996 0.67534 0.18652
 N584 N 0.14057 0.68797 0.17547
 C585 C 0.12764 0.69888 0.17863
 C586 C 0.11833 0.69263 0.19223
 C587 C 0.12641 0.67765 0.19691
 H588 H 0.12510 0.71043 0.17151
 H589 H 0.12288 0.66933 0.20734
 N590 N 0.17636 0.68824 0.14056
 N591 N 0.18879 0.67683 0.14113
 C592 C 0.19962 0.67969 0.12805
 C593 C 0.19358 0.69340 0.11875
 C594 C 0.17882 0.69851 0.12698
 H595 H 0.21089 0.67217 0.12526
 H596 H 0.17056 0.70898 0.12334
 H597 H 0.17675 0.67708 0.17157
 H598 H 0.16368 0.66334 0.15706
 N599 N 0.18761 0.14027 0.67586
 N600 N 0.17473 0.13956 0.68666
 C601 C 0.17699 0.12612 0.69718
 C602 C 0.19216 0.11814 0.69281
 C603 C 0.19859 0.12747 0.67929
 H604 H 0.16849 0.12259 0.70748
 H605 H 0.21033 0.12502 0.67240
 Cu606 Cu 0.15717 0.15719 0.68632
 Cu607 Cu 0.18907 0.15759 0.65793
 Cu608 Cu 0.15850 0.18981 0.65876
 N609 N 0.13993 0.17512 0.68696
 N610 N 0.14108 0.18827 0.67657
 C611 C 0.12840 0.19937 0.68009
 C612 C 0.11873 0.19274 0.69325
 C613 C 0.12634 0.17733 0.69732
 H614 H 0.12620 0.21126 0.67342
 H615 H 0.12241 0.16860 0.70726
 N616 N 0.17705 0.18885 0.64172
 N617 N 0.18827 0.17624 0.64099
 C618 C 0.19851 0.17864 0.62737
 C619 C 0.19366 0.19357 0.61935
 C620 C 0.18008 0.19976 0.62876
 H621 H 0.20883 0.17025 0.62359
 H622 H 0.17272 0.21114 0.62609
 H623 H 0.17693 0.17638 0.67195
 H624 H 0.16341 0.16401 0.65674
 N625 N 0.31264 0.63984 0.32419
 N626 N 0.32398 0.64064 0.31180
 C627 C 0.32113 0.62778 0.30075
 C628 C 0.30741 0.61838 0.30666
 C629 C 0.30233 0.62634 0.32155
 H630 H 0.32851 0.62531 0.28934
 H631 H 0.29179 0.62271 0.32970
 Cu632 Cu 0.34139 0.65835 0.31166
 Cu633 Cu 0.31156 0.65673 0.34243
 Cu634 Cu 0.34208 0.68886 0.34168
 N635 N 0.35881 0.67607 0.31153
 N636 N 0.35917 0.68777 0.32357
 C637 C 0.37261 0.69817 0.32089
 C638 C 0.38098 0.69279 0.30633
 C639 C 0.37188 0.67879 0.30066
 H640 H 0.37599 0.70890 0.32887
 H641 H 0.37474 0.67109 0.28955
 N642 N 0.32378 0.68767 0.35895
 N643 N 0.31258 0.67507 0.35962
 C644 C 0.30225 0.67747 0.37317
 C645 C 0.30704 0.69239 0.38121
 C646 C 0.32067 0.69857 0.37188
 H647 H 0.29182 0.66918 0.37680
 H648 H 0.32789 0.71004 0.37450
 H649 H 0.32265 0.67641 0.32869
 H650 H 0.33713 0.66302 0.34210
 N651 N 0.31151 0.14051 0.82361
 N652 N 0.32385 0.14037 0.81221
 C653 C 0.32159 0.12698 0.80167
 C654 C 0.30691 0.11851 0.80660
 C655 C 0.30079 0.12743 0.82052
 H656 H 0.32980 0.12375 0.79104
 H657 H 0.28952 0.12447 0.82795
 Cu658 Cu 0.34115 0.15819 0.81183
 Cu659 Cu 0.31052 0.15729 0.84194
 Cu660 Cu 0.34186 0.18856 0.84211
 N661 N 0.35862 0.17584 0.81197
 N662 N 0.35915 0.18733 0.82420
 C663 C 0.37269 0.19762 0.82165
 C664 C 0.38089 0.19247 0.80691
 C665 C 0.37163 0.17866 0.80104
 H666 H 0.37617 0.20825 0.82974
 H667 H 0.37434 0.17115 0.78978
 N668 N 0.32330 0.18762 0.85910
 N669 N 0.31171 0.17536 0.85938
 C670 C 0.30128 0.17782 0.87285
 C671 C 0.30641 0.19243 0.88124
 C672 C 0.32033 0.19838 0.87218
 H673 H 0.29060 0.16973 0.87623
 H674 H 0.32785 0.20957 0.87510
 H675 H 0.32253 0.17665 0.82861
 H676 H 0.33639 0.16273 0.84220
 N677 N 0.81200 0.64067 0.82389
 N678 N 0.82444 0.64043 0.81259
 C679 C 0.82222 0.62697 0.80210
 C680 C 0.80749 0.61855 0.80697
 C681 C 0.80130 0.62758 0.82079
 H682 H 0.83049 0.62369 0.79153
 H683 H 0.78995 0.62471 0.82815
 Cu684 Cu 0.84189 0.65813 0.81240
 Cu685 Cu 0.81084 0.65770 0.84200
 Cu686 Cu 0.84136 0.68982 0.84129
 N687 N 0.85925 0.67591 0.81237
 N688 N 0.85857 0.68861 0.82332
 C689 C 0.87164 0.69937 0.82024
 C690 C 0.88108 0.69295 0.80680
 C691 C 0.87293 0.67804 0.80211
 H692 H 0.87428 0.71084 0.82744
 H693 H 0.87660 0.66954 0.79186
 N694 N 0.82299 0.68868 0.85850
 N695 N 0.81179 0.67608 0.85916
 C696 C 0.80150 0.67843 0.87276
 C697 C 0.80633 0.69331 0.88085
 C698 C 0.81993 0.69952 0.87150
 H699 H 0.79112 0.67009 0.87642
 H700 H 0.82720 0.71094 0.87418
 H701 H 0.82265 0.67679 0.82829
 H702 H 0.83667 0.66383 0.84253
 N703 N 0.81174 0.14058 0.32349
 N704 N 0.82413 0.14038 0.31213
 C705 C 0.82180 0.12703 0.30155
 C706 C 0.80707 0.11862 0.30645
 C707 C 0.80096 0.12757 0.32035
 H708 H 0.82999 0.12378 0.29090
 H709 H 0.78966 0.12465 0.32776
 Cu710 Cu 0.84159 0.15805 0.31180
 Cu711 Cu 0.81077 0.15735 0.34181
 Cu712 Cu 0.84205 0.18863 0.34195
 N713 N 0.85884 0.17592 0.31184
 N714 N 0.85931 0.18746 0.32402
 C715 C 0.87275 0.19785 0.32140
 C716 C 0.88095 0.19272 0.30665
 C717 C 0.87178 0.17883 0.30084
 H718 H 0.87619 0.20852 0.32945
 H719 H 0.87450 0.17133 0.28958
 N720 N 0.82354 0.18765 0.35899
 N721 N 0.81197 0.17538 0.35927
 C722 C 0.80154 0.17782 0.37275
 C723 C 0.80665 0.19245 0.38113
 C724 C 0.82056 0.19840 0.37207
 H725 H 0.79087 0.16972 0.37612
 H726 H 0.82806 0.20962 0.37498
 H727 H 0.82282 0.17661 0.32834
 H728 H 0.83661 0.16281 0.34214
 N729 N 0.68816 0.35921 0.32395
 N730 N 0.67557 0.35967 0.31283
 C731 C 0.67786 0.37311 0.30235
 C732 C 0.69276 0.38131 0.30706
 C733 C 0.69901 0.37216 0.32076
 H734 H 0.66950 0.37657 0.29191
 H735 H 0.71048 0.37487 0.32799
 Cu736 Cu 0.65774 0.34235 0.31278
 Cu737 Cu 0.68935 0.34216 0.34199
 Cu738 Cu 0.65892 0.31011 0.34120
 N739 N 0.64078 0.32417 0.31253
 N740 N 0.64169 0.31129 0.32326
 C741 C 0.62883 0.30034 0.32001
 C742 C 0.61929 0.30680 0.30665
 C743 C 0.62717 0.32194 0.30222
 H744 H 0.62639 0.28870 0.32702
 H745 H 0.62335 0.33054 0.29212
 N746 N 0.67725 0.31118 0.35841
 N747 N 0.68843 0.32378 0.35910
 C748 C 0.69870 0.32143 0.37271
 C749 C 0.69387 0.30654 0.38079
 C750 C 0.68030 0.30032 0.37140
 H751 H 0.70905 0.32979 0.37640
 H752 H 0.67302 0.28890 0.37407
 H753 H 0.67735 0.32350 0.32786
 H754 H 0.66353 0.33619 0.34269
 N755 N 0.68692 0.86033 0.82489
 N756 N 0.67562 0.85954 0.81248
 C757 C 0.67843 0.87249 0.80151
 C758 C 0.69208 0.88193 0.80750
 C759 C 0.69715 0.87391 0.82236
 H760 H 0.67110 0.87497 0.79008
 H761 H 0.70771 0.87750 0.83051
 Cu762 Cu 0.65834 0.84171 0.81198
 Cu763 Cu 0.68819 0.84318 0.84285
 Cu764 Cu 0.65854 0.81037 0.84132
 N765 N 0.64081 0.82410 0.81222
 N766 N 0.64146 0.81142 0.82321
 C767 C 0.62845 0.80061 0.82011
 C768 C 0.61905 0.80698 0.80662
 C769 C 0.62717 0.82192 0.80194
 H770 H 0.62582 0.78914 0.82732
 H771 H 0.62351 0.83039 0.79166
 N772 N 0.67668 0.81168 0.85872
 N773 N 0.68748 0.82458 0.85974
 C774 C 0.69769 0.82227 0.87340
 C775 C 0.69318 0.80714 0.88120
 C776 C 0.67988 0.80070 0.87159
 H777 H 0.70781 0.83082 0.87729
 H778 H 0.67288 0.78906 0.87400
 H779 H 0.67754 0.82370 0.82860
 H780 H 0.66265 0.83645 0.84227
 N781 N 0.18763 0.35912 0.82431
 N782 N 0.17528 0.35932 0.81292
 C783 C 0.17751 0.37280 0.80246
 C784 C 0.19213 0.38133 0.80750
 C785 C 0.19826 0.37230 0.82134
 H786 H 0.16931 0.37607 0.79184
 H787 H 0.20954 0.37521 0.82878
 Cu788 Cu 0.15791 0.34154 0.81278
 Cu789 Cu 0.18884 0.34204 0.84241
 Cu790 Cu 0.15839 0.30984 0.84158
 N791 N 0.14051 0.32380 0.81264
 N792 N 0.14120 0.31107 0.82357
 C793 C 0.12818 0.30027 0.82045
 C794 C 0.11876 0.30669 0.80700
 C795 C 0.12687 0.32165 0.80236
 H796 H 0.12555 0.28877 0.82761
 H797 H 0.12319 0.33017 0.79213
 N798 N 0.17674 0.31097 0.85881
 N799 N 0.18790 0.32360 0.85952
 C800 C 0.19817 0.32123 0.87311
 C801 C 0.19338 0.30631 0.88116
 C802 C 0.17982 0.30008 0.87178
 H803 H 0.20853 0.32959 0.87681
 H804 H 0.17257 0.28864 0.87443
 H805 H 0.17718 0.32296 0.82865
 H806 H 0.16307 0.33587 0.84289
 N807 N 0.18770 0.85946 0.32383
 N808 N 0.17482 0.86016 0.31303
 C809 C 0.17708 0.87354 0.30247
 C810 C 0.19225 0.88147 0.30683
 C811 C 0.19868 0.87221 0.32037
 H812 H 0.16859 0.87708 0.29216
 H813 H 0.21042 0.87466 0.32725
 Cu814 Cu 0.15730 0.84257 0.31340
 Cu815 Cu 0.18922 0.84225 0.34178
 Cu816 Cu 0.15869 0.81008 0.34106
 N817 N 0.14007 0.82468 0.31283
 N818 N 0.14125 0.81156 0.32325
 C819 C 0.12859 0.80046 0.31977
 C820 C 0.11889 0.80706 0.30661
 C821 C 0.12647 0.82246 0.30250
 H822 H 0.12643 0.78859 0.32647
 H823 H 0.12252 0.83117 0.29253
 N824 N 0.17726 0.81108 0.35810
 N825 N 0.18846 0.82368 0.35876
 C826 C 0.19872 0.82135 0.37237
 C827 C 0.19389 0.80648 0.38048
 C828 C 0.18031 0.80025 0.37112
 H829 H 0.20903 0.82976 0.37609
 H830 H 0.17297 0.78888 0.37386
 H831 H 0.17714 0.82349 0.32781
 H832 H 0.16360 0.83592 0.34299
 C833 C 0.25712 1.01556 0.24486
 C834 C 0.24258 1.01558 0.25559
 C835 C 0.23544 0.99996 0.26065
 C836 C 0.24264 0.98436 0.25554
 C837 C 0.25717 0.98438 0.24479
 C838 C 0.26433 0.99999 0.23977
 H839 H 0.27519 1.00004 0.23114
 H840 H 0.22460 0.99994 0.26929
 C841 C 0.25661 0.51541 0.74448
 C842 C 0.24277 0.51543 0.75612
 C843 C 0.23617 0.49981 0.76191
 C844 C 0.24322 0.48421 0.75665
 C845 C 0.25692 0.48420 0.74488
 C846 C 0.26341 0.49978 0.73894
 H847 H 0.27372 0.49972 0.72967
 H848 H 0.22574 0.49980 0.77105
 C849 C 0.75683 -0.01587 0.25609
 C850 C 0.74304 -0.01584 0.24448
 C851 C 0.73648 -0.00029 0.23856
 C852 C 0.74330 0.01533 0.24403
 C853 C 0.75722 0.01532 0.25557
 C854 C 0.76392 -0.00030 0.26130
 H855 H 0.77439 -0.00034 0.27037
 H856 H 0.72613 -0.00038 0.22934
 C857 C 0.75729 0.48431 0.75535
 C858 C 0.74274 0.48431 0.74464
 C859 C 0.73559 0.49995 0.73958
 C860 C 0.74278 0.51556 0.74466
 C861 C 0.75731 0.51553 0.75542
 C862 C 0.76448 0.49989 0.76044
 H863 H 0.77533 0.49984 0.76907
 H864 H 0.72475 0.49998 0.73094
 C865 C 0.25686 0.48445 0.25576
 C866 C 0.24293 0.48443 0.24425
 C867 C 0.23617 0.50000 0.23852
 C868 C 0.24319 0.51563 0.24369
 C869 C 0.25702 0.51564 0.25530
 C870 C 0.26364 0.50010 0.26121
 H871 H 0.27400 0.50021 0.27041
 H872 H 0.22569 0.49993 0.22945
 C873 C 0.75653 1.01587 0.74495
 C874 C 0.74257 1.01590 0.75643
 C875 C 0.73575 1.00026 0.76189
 C876 C 0.74235 0.98469 0.75599
 C877 C 0.75618 0.98469 0.74436
 C878 C 0.76325 1.00029 0.73921
 H879 H 0.77375 1.00033 0.73016
 H880 H 0.72537 1.00018 0.77108
 C881 C 0.75716 0.51562 0.24499
 C882 C 0.74261 0.51564 0.25570
 C883 C 0.73547 0.50002 0.26077
 C884 C 0.74268 0.48441 0.25569
 C885 C 0.75723 0.48443 0.24496
 C886 C 0.76439 0.50004 0.23993
 H887 H 0.77526 0.50009 0.23131
 H888 H 0.72462 0.50000 0.26941
 C889 C 0.25757 -0.01601 0.75536
 C890 C 0.24300 -0.01602 0.74467
 C891 C 0.23576 -0.00044 0.73955
 C892 C 0.24288 0.01521 0.74451
 C893 C 0.25741 0.01525 0.75527
 C894 C 0.26467 -0.00035 0.76038
 H895 H 0.27551 -0.00030 0.76901
 H896 H 0.22490 -0.00053 0.73093
 C897 C 0.24462 0.25683 1.01582
 C898 C 0.25544 0.24236 1.01584
 C899 C 0.26055 0.23519 1.00025
 C900 C 0.25543 0.24231 0.98464
 C901 C 0.24457 0.25676 0.98462
 C902 C 0.23948 0.26394 1.00021
 H903 H 0.23076 0.27472 1.00021
 H904 H 0.26926 0.22440 1.00026
 C905 C 0.24475 0.75712 0.51540
 C906 C 0.25563 0.74268 0.51542
 C907 C 0.26075 0.73553 0.49983
 C908 C 0.25562 0.74263 0.48421
 C909 C 0.24474 0.75706 0.48418
 C910 C 0.23961 0.76422 0.49978
 H911 H 0.23087 0.77498 0.49977
 H912 H 0.26948 0.72475 0.49986
 C913 C 0.25618 0.75709 -0.01583
 C914 C 0.24442 0.74337 -0.01581
 C915 C 0.23881 0.73663 -0.00019
 C916 C 0.24474 0.74311 0.01537
 C917 C 0.25656 0.75674 0.01539
 C918 C 0.26193 0.76371 -0.00021
 H919 H 0.27114 0.77405 -0.00019
 H920 H 0.22946 0.72640 -0.00013
 C921 C 0.25634 0.25654 0.48443
 C922 C 0.24455 0.24289 0.48448
 C923 C 0.23861 0.23644 0.50006
 C924 C 0.24418 0.24323 0.51565
 C925 C 0.25587 0.25700 0.51562
 C926 C 0.26164 0.26358 0.49999
 H927 H 0.27082 0.27396 0.49995
 H928 H 0.22930 0.22617 0.50002
 C929 C 0.74447 0.75717 1.01566
 C930 C 0.75533 0.74272 1.01564
 C931 C 0.76046 0.73562 1.00003
 C932 C 0.75534 0.74278 0.98443
 C933 C 0.74444 0.75720 0.98445
 C934 C 0.73932 0.76431 1.00007
 H935 H 0.73058 0.77507 1.00009
 H936 H 0.76920 0.72485 1.00002
 C937 C 0.74454 0.25677 0.51564
 C938 C 0.75541 0.24233 0.51564
 C939 C 0.76056 0.23521 0.50004
 C940 C 0.75546 0.24236 0.48443
 C941 C 0.74458 0.25680 0.48442
 C942 C 0.73943 0.26392 0.50003
 H943 H 0.73071 0.27470 0.50003
 H944 H 0.76929 0.22444 0.50004
 C945 C 0.75553 0.25778 -0.01567
 C946 C 0.74466 0.24337 -0.01567
 C947 C 0.73957 0.23622 -0.00006
 C948 C 0.74473 0.24332 0.01555
 C949 C 0.75560 0.25774 0.01553
 C950 C 0.76069 0.26489 -0.00007
 H951 H 0.76941 0.27564 -0.00008
 H952 H 0.73086 0.22545 -0.00005
 C953 C 0.75551 0.75763 0.48447
 C954 C 0.74464 0.74322 0.48448
 C955 C 0.73952 0.73608 0.50009
 C956 C 0.74465 0.74319 0.51569
 C957 C 0.75552 0.75761 0.51568
 C958 C 0.76064 0.76474 0.50007
 H959 H 0.76936 0.77550 0.50007
 H960 H 0.73079 0.72533 0.50009
 C961 C 1.01564 0.24447 0.25727
 C962 C 1.01567 0.25641 0.24376
 C963 C 1.00006 0.26174 0.23675
 C964 C 0.98440 0.25590 0.24327
 C965 C 0.98438 0.24410 0.25693
 C966 C 1.00002 0.23849 0.26367
 H967 H 1.00007 0.22911 0.27386
 H968 H 1.00009 0.27098 0.22643
 C969 C 0.51553 0.24338 0.75650
 C970 C 0.51551 0.25635 0.74395
 C971 C 0.49984 0.26244 0.73769
 C972 C 0.48421 0.25611 0.74380
 C973 C 0.48423 0.24348 0.75667
 C974 C 0.49990 0.23723 0.76277
 H975 H 0.49992 0.22742 0.77255
 H976 H 0.49980 0.27226 0.72792
 C977 C -0.01598 0.25653 0.75630
 C978 C -0.01597 0.24274 0.74469
 C979 C -0.00037 0.23618 0.73880
 C980 C 0.01529 0.24296 0.74428
 C981 C 0.01531 0.25679 0.75589
 C982 C -0.00033 0.26349 0.76159
 H983 H -0.00032 0.27390 0.77072
 H984 H -0.00046 0.22587 0.72955
 C985 C 0.48454 0.25622 0.25622
 C986 C 0.48457 0.24244 0.24459
 C987 C 0.50018 0.23593 0.23868
 C988 C 0.51583 0.24275 0.24415
 C989 C 0.51584 0.25660 0.25573
 C990 C 0.50018 0.26324 0.26147
 H991 H 0.50017 0.27366 0.27058
 H992 H 0.50011 0.22562 0.22943
 C993 C 1.01565 0.74345 0.75569
 C994 C 1.01562 0.75728 0.74409
 C995 C 0.99995 0.76409 0.73861
 C996 C 0.98437 0.75755 0.74453
 C997 C 0.98436 0.74380 0.75619
 C998 C 1.00002 0.73679 0.76144
 H999 H 1.00004 0.72639 0.77058
 H1000 H 0.99985 0.77439 0.72935
 C1001 C 0.51561 0.74325 0.25603
 C1002 C 0.51566 0.75708 0.24444
 C1003 C 0.50005 0.76376 0.23866
 C1004 C 0.48439 0.75677 0.24390
 C1005 C 0.48437 0.74301 0.25555
 C1006 C 0.49994 0.73645 0.26149
 H1007 H 0.49983 0.72614 0.27073
 H1008 H 0.50009 0.77416 0.22952
 C1009 C -0.01586 0.75632 0.25632
 C1010 C -0.01586 0.74365 0.24350
 C1011 C -0.00022 0.73733 0.23740
 C1012 C 0.01544 0.74346 0.24363
 C1013 C 0.01545 0.75646 0.25614
 C1014 C -0.00021 0.76261 0.26240
 H1015 H -0.00021 0.77245 0.27213
 H1016 H -0.00022 0.72750 0.22765
 C1017 C 0.48415 0.75646 0.75634
 C1018 C 0.48417 0.74295 0.74440
 C1019 C 0.49983 0.73653 0.73847
 C1020 C 0.51547 0.74326 0.74411
 C1021 C 0.51543 0.75697 0.75585
 C1022 C 0.49975 0.76350 0.76167
 H1023 H 0.49967 0.77385 0.77085
 H1024 H 0.49983 0.72630 0.72915
 C1025 C 0.42496 0.28558 0.28483
 N1026 N 0.42114 0.30230 0.28226
 N1027 N 0.40715 0.30916 0.28918
 C1028 C 0.39659 0.29959 0.29905
 N1029 N 0.40048 0.28291 0.30172
 N1030 N 0.41436 0.27601 0.29467
 C1031 C 0.44027 0.27795 0.27712
 N1032 N 0.44242 0.26075 0.27702
 N1033 N 0.45634 0.25379 0.27008
 C1034 C 0.46862 0.26377 0.26300
 N1035 N 0.46654 0.28099 0.26326
 N1036 N 0.45256 0.28794 0.27009
 C1037 C 0.42461 0.78585 0.78492
 N1038 N 0.41911 0.80150 0.77986
 N1039 N 0.40513 0.80844 0.78672
 C1040 C 0.39620 0.80004 0.79900
 N1041 N 0.40176 0.78441 0.80408
 N1042 N 0.41566 0.77742 0.79713
 C1043 C 0.43997 0.77815 0.77732
 N1044 N 0.44412 0.76164 0.78063
 N1045 N 0.45803 0.75463 0.77371
 C1046 C 0.46825 0.76387 0.76320
 N1047 N 0.46426 0.78044 0.76009
 N1048 N 0.45030 0.78743 0.76693
 C1049 C -0.07557 0.28611 0.78471
 N1050 N -0.07917 0.30291 0.78237
 N1051 N -0.09312 0.30984 0.78929
 C1052 C -0.10387 0.30024 0.79894
 N1053 N -0.10021 0.28348 0.80136
 N1054 N -0.08636 0.27652 0.79431
 C1055 C -0.06027 0.27843 0.77703
 N1056 N -0.05831 0.26121 0.77668
 N1057 N -0.04438 0.25421 0.76980
 C1058 C -0.03190 0.26416 0.76303
 N1059 N -0.03379 0.28139 0.76355
 N1060 N -0.04777 0.28839 0.77032
 C1061 C -0.07569 0.78547 0.28463
 N1062 N -0.07928 0.78311 0.30141
 N1063 N -0.09320 0.79003 0.30836
 C1064 C -0.10393 0.79975 0.29883
 N1065 N -0.10031 0.80222 0.28206
 N1066 N -0.08648 0.79513 0.27505
 C1067 C -0.06030 0.77780 0.27711
 N1068 N -0.05849 0.77642 0.25992
 N1069 N -0.04448 0.76936 0.25324
 C1070 C -0.03176 0.76351 0.26352
 N1071 N -0.03353 0.76505 0.28068
 N1072 N -0.04759 0.77195 0.28735
 C1073 C 0.57549 0.71487 0.28499
 N1074 N 0.57907 0.69805 0.28286
 N1075 N 0.59302 0.69119 0.28981
 C1076 C 0.60379 0.70088 0.29931
 N1077 N 0.60019 0.71770 0.30150
 N1078 N 0.58632 0.72459 0.29440
 C1079 C 0.56007 0.72234 0.27735
 N1080 N 0.55809 0.73953 0.27632
 N1081 N 0.54405 0.74623 0.26935
 C1082 C 0.53148 0.73597 0.26321
 N1083 N 0.53341 0.71879 0.26442
 N1084 N 0.54748 0.71210 0.27127
 C1085 C 0.57549 0.21485 0.78518
 N1086 N 0.57898 0.19799 0.78310
 N1087 N 0.59299 0.19111 0.78992
 C1088 C 0.60392 0.20081 0.79924
 N1089 N 0.60039 0.21764 0.80141
 N1090 N 0.58647 0.22456 0.79443
 C1091 C 0.56005 0.22237 0.77762
 N1092 N 0.55824 0.23957 0.77633
 N1093 N 0.54419 0.24632 0.76940
 C1094 C 0.53144 0.23610 0.76359
 N1095 N 0.53321 0.21892 0.76505
 N1096 N 0.54729 0.21218 0.77183
 C1097 C 1.07546 0.71482 0.78453
 N1098 N 1.07898 0.69797 0.78247
 N1099 N 1.09288 0.69108 0.78951
 C1100 C 1.10365 0.70076 0.79902
 N1101 N 1.10009 0.71759 0.80116
 N1102 N 1.08629 0.72452 0.79397
 C1103 C 1.06011 0.72233 0.77679
 N1104 N 1.05820 0.73953 0.77577
 N1105 N 1.04419 0.74629 0.76880
 C1106 C 1.03158 0.73608 0.76265
 N1107 N 1.03345 0.71890 0.76383
 N1108 N 1.04751 0.71214 0.77066
 C1109 C 1.07502 0.21475 0.28574
 N1110 N 1.07913 0.19824 0.28241
 N1111 N 1.09301 0.19118 0.28934
 C1112 C 1.10317 0.20035 0.29996
 N1113 N 1.09903 0.21683 0.30335
 N1114 N 1.08524 0.22393 0.29631
 C1115 C 1.05975 0.22255 0.27812
 N1116 N 1.05689 0.23959 0.27956
 N1117 N 1.04298 0.24666 0.27272
 C1118 C 1.03148 0.23696 0.26414
 N1119 N 1.03424 0.21989 0.26287
 N1120 N 1.04818 0.21283 0.26964
 C1121 C 0.57535 0.28500 0.71517
 N1122 N 0.57879 0.30186 0.71724
 N1123 N 0.59277 0.30875 0.71038
 C1124 C 0.60371 0.29907 0.70103
 N1125 N 0.60023 0.28223 0.69888
 N1126 N 0.58635 0.27529 0.70590
 C1127 C 0.55993 0.27745 0.72276
 N1128 N 0.55820 0.26025 0.72409
 N1129 N 0.54419 0.25347 0.73103
 C1130 C 0.53138 0.26367 0.73683
 N1131 N 0.53306 0.28085 0.73533
 N1132 N 0.54712 0.28762 0.72853
 C1133 C 0.57560 0.78551 0.21575
 N1134 N 0.57933 0.80227 0.21805
 N1135 N 0.59332 0.80905 0.21112
 C1136 C 0.60398 0.79935 0.20146
 N1137 N 0.60020 0.78261 0.19907
 N1138 N 0.58630 0.77579 0.20616
 C1139 C 0.56019 0.77807 0.22342
 N1140 N 0.55820 0.76087 0.22433
 N1141 N 0.54417 0.75416 0.23126
 C1142 C 0.53160 0.76440 0.23748
 N1143 N 0.53353 0.78159 0.23640
 N1144 N 0.54762 0.78830 0.22961
 C1145 C 1.07506 0.28561 0.21471
 N1146 N 1.07940 0.28218 0.19829
 N1147 N 1.09336 0.28907 0.19139
 C1148 C 1.10340 0.29976 0.20062
 N1149 N 1.09900 0.30330 0.21700
 N1150 N 1.08512 0.29629 0.22395
 C1151 C 1.05978 0.27783 0.22234
 N1152 N 1.05683 0.27900 0.23938
 N1153 N 1.04297 0.27190 0.24627
 C1154 C 1.03158 0.26335 0.23639
 N1155 N 1.03442 0.26238 0.21933
 N1156 N 1.04833 0.26938 0.21245
 C1157 C 1.07546 0.78566 0.71510
 N1158 N 1.07900 0.80249 0.71720
 N1159 N 1.09294 0.80933 0.71022
 C1160 C 1.10373 0.79963 0.70072
 N1161 N 1.10016 0.78281 0.69856
 N1162 N 1.08632 0.77592 0.70570
 C1163 C 1.06006 0.77819 0.72277
 N1164 N 1.05813 0.76100 0.72383
 N1165 N 1.04410 0.75430 0.73081
 C1166 C 1.03149 0.76456 0.73692
 N1167 N 1.03337 0.78174 0.73568
 N1168 N 1.04744 0.78843 0.72884
 C1169 C 0.42459 0.71422 0.71522
 N1170 N 0.42089 0.71686 0.69850
 N1171 N 0.40694 0.71002 0.69153
 C1172 C 0.39629 0.70013 0.70098
 N1173 N 0.40005 0.69738 0.71767
 N1174 N 0.41390 0.70437 0.72469
 C1175 C 0.43991 0.72186 0.72289
 N1176 N 0.44188 0.72239 0.74010
 N1177 N 0.45581 0.72933 0.74702
 C1178 C 0.46830 0.73596 0.73697
 N1179 N 0.46640 0.73527 0.71976
 N1180 N 0.45242 0.72846 0.71285
 C1181 C 0.42519 0.21364 0.21527
 N1182 N 0.41550 0.20231 0.22411
 N1183 N 0.40160 0.19544 0.21707
 C1184 C 0.39683 0.19975 0.20097
 N1185 N 0.40650 0.21110 0.19214
 N1186 N 0.42047 0.21787 0.19914
 C1187 C 0.44051 0.22124 0.22300
 N1188 N 0.45119 0.23108 0.21353
 N1189 N 0.46511 0.23796 0.22050
 C1190 C 0.46874 0.23543 0.23724
 N1191 N 0.45817 0.22546 0.24669
 N1192 N 0.44427 0.21852 0.23971
 C1193 C -0.07565 0.71457 0.21519
 N1194 N -0.07925 0.71696 0.19842
 N1195 N -0.09316 0.71005 0.19148
 C1196 C -0.10386 0.70030 0.20101
 N1197 N -0.10021 0.69780 0.21777
 N1198 N -0.08640 0.70489 0.22477
 C1199 C -0.06028 0.72224 0.22271
 N1200 N -0.05846 0.72358 0.23990
 N1201 N -0.04446 0.73062 0.24658
 C1202 C -0.03176 0.73649 0.23630
 N1203 N -0.03353 0.73498 0.21914
 N1204 N -0.04758 0.72810 0.21247
 C1205 C -0.07527 0.21384 0.71536
 N1206 N -0.08003 0.21813 0.69925
 N1207 N -0.09402 0.21139 0.69227
 C1208 C -0.10370 0.20004 0.70111
 N1209 N -0.09889 0.19568 0.71717
 N1210 N -0.08496 0.20250 0.72420
 C1211 C -0.05995 0.22144 0.72309
 N1212 N -0.05613 0.21863 0.73976
 N1213 N -0.04226 0.22561 0.74676
 C1214 C -0.03179 0.23572 0.73735
 N1215 N -0.03548 0.23834 0.72064
 N1216 N -0.04937 0.23141 0.71365
 C1217 C 0.28551 0.42460 0.28445
 N1218 N 0.30237 0.42102 0.28228
 N1219 N 0.30926 0.40712 0.28929
 C1220 C 0.29958 0.39642 0.29889
 N1221 N 0.28273 0.40003 0.30112
 N1222 N 0.27580 0.41383 0.29395
 C1223 C 0.27800 0.43999 0.27681
 N1224 N 0.26077 0.44172 0.27539
 N1225 N 0.25401 0.45575 0.26848
 C1226 C 0.26424 0.46857 0.26283
 N1227 N 0.28145 0.46688 0.26443
 N1228 N 0.28821 0.45281 0.27119
 C1229 C 0.28633 -0.07600 0.78393
 N1230 N 0.30250 -0.08091 0.77990
 N1231 N 0.30938 -0.09478 0.78699
 C1232 C 0.30046 -0.10411 0.79858
 N1233 N 0.28430 -0.09914 0.80264
 N1234 N 0.27732 -0.08541 0.79536
 C1235 C 0.27883 -0.06060 0.77624
 N1236 N 0.26159 -0.05860 0.77536
 N1237 N 0.25482 -0.04457 0.76848
 C1238 C 0.26503 -0.03196 0.76232
 N1239 N 0.28227 -0.03389 0.76340
 N1240 N 0.28904 -0.04800 0.77011
 C1241 C 0.78592 0.42476 0.78451
 N1242 N 0.80173 0.41930 0.77985
 N1243 N 0.80857 0.40543 0.78697
 C1244 C 0.79994 0.39664 0.79919
 N1245 N 0.78416 0.40218 0.80391
 N1246 N 0.77723 0.41592 0.79662
 C1247 C 0.77842 0.44004 0.77667
 N1248 N 0.76128 0.44280 0.77725
 N1249 N 0.75451 0.45673 0.77018
 C1250 C 0.76465 0.46844 0.76238
 N1251 N 0.78180 0.46576 0.76197
 N1252 N 0.78855 0.45174 0.76887
 C1253 C 0.78562 -0.07572 0.28445
 N1254 N 0.80118 -0.08150 0.27935
 N1255 N 0.80798 -0.09545 0.28635
 C1256 C 0.79956 -0.10401 0.29888
 N1257 N 0.78403 -0.09816 0.30403
 N1258 N 0.77715 -0.08434 0.29687
 C1259 C 0.77810 -0.06036 0.27677
 N1260 N 0.76113 -0.05707 0.27843
 N1261 N 0.75429 -0.04307 0.27158
 C1262 C 0.76420 -0.03181 0.26290
 N1263 N 0.78121 -0.03498 0.26141
 N1264 N 0.78802 -0.04908 0.26811
 C1265 C 0.28510 0.57519 0.71557
 N1266 N 0.30184 0.57903 0.71814
 N1267 N 0.30869 0.59297 0.71121
 C1268 C 0.29910 0.60348 0.70130
 N1269 N 0.28238 0.59961 0.69866
 N1270 N 0.27548 0.58577 0.70575
 C1271 C 0.27761 0.55980 0.72321
 N1272 N 0.26037 0.55778 0.72408
 N1273 N 0.25364 0.54379 0.73105
 C1274 C 0.26391 0.53128 0.73734
 N1275 N 0.28113 0.53323 0.73628
 N1276 N 0.28786 0.54728 0.72946
 C1277 C 0.28572 1.07509 0.21586
 N1278 N 0.30200 1.07978 0.21961
 N1279 N 0.30885 1.09366 0.21257
 C1280 C 0.29971 1.10326 0.20139
 N1281 N 0.28345 1.09853 0.19756
 N1282 N 0.27655 1.08473 0.20473
 C1283 C 0.27821 1.05980 0.22361
 N1284 N 0.26107 1.05706 0.22301
 N1285 N 0.25431 1.04312 0.23003
 C1286 C 0.26445 1.03140 0.23784
 N1287 N 0.28160 1.03407 0.23828
 N1288 N 0.28834 1.04807 0.23141
 C1289 C 0.78552 0.57525 0.21590
 N1290 N 0.80178 0.58001 0.21964
 N1291 N 0.80857 0.59391 0.21259
 C1292 C 0.79939 0.60346 0.20140
 N1293 N 0.78315 0.59866 0.19759
 N1294 N 0.77630 0.58485 0.20477
 C1295 C 0.77808 0.55992 0.22367
 N1296 N 0.76095 0.55715 0.22314
 N1297 N 0.75425 0.54319 0.23018
 C1298 C 0.76445 0.53148 0.23792
 N1299 N 0.78159 0.53418 0.23829
 N1300 N 0.78827 0.54821 0.23140
 C1301 C 0.78526 1.07527 0.71586
 N1302 N 0.80156 1.07993 0.71958
 N1303 N 0.80839 1.09384 0.71257
 C1304 C 0.79922 1.10347 0.70144
 N1305 N 0.78297 1.09875 0.69763
 N1306 N 0.77607 1.08494 0.70478
 C1307 C 0.77773 1.06001 0.72366
 N1308 N 0.76055 1.05746 0.72332
 N1309 N 0.75374 1.04357 0.73039
 C1310 C 0.76388 1.03172 0.73799
 N1311 N 0.78106 1.03420 0.73819
 N1312 N 0.78785 1.04816 0.73127
 C1313 C 0.71415 0.57554 0.28448
 N1314 N 0.72393 0.58621 0.29402
 N1315 N 0.71708 0.59997 0.30132
 C1316 C 0.70024 0.60366 0.29918
 N1317 N 0.69049 0.59307 0.28953
 N1318 N 0.69730 0.57921 0.28240
 C1319 C 0.72158 0.56017 0.27673
 N1320 N 0.71130 0.54753 0.27083
 N1321 N 0.71800 0.53344 0.26403
 C1322 C 0.73522 0.53157 0.26267
 N1323 N 0.74549 0.54422 0.26861
 N1324 N 0.73880 0.55825 0.27554
 C1325 C 0.71423 1.07600 0.78503
 N1326 N 0.69816 1.08107 0.78085
 N1327 N 0.69135 1.09502 0.78785
 C1328 C 0.70026 1.10427 0.79951
 N1329 N 0.71631 1.09912 0.80375
 N1330 N 0.72322 1.08532 0.79655
 C1331 C 0.72165 1.06055 0.77740
 N1332 N 0.73888 1.05858 0.77625
 N1333 N 0.74556 1.04451 0.76936
 C1334 C 0.73526 1.03184 0.76350
 N1335 N 0.71804 1.03376 0.76485
 N1336 N 0.71136 1.04791 0.77155
 C1337 C 0.21411 0.57517 0.78492
 N1338 N 0.19728 0.57884 0.78266
 N1339 N 0.19040 0.59271 0.78971
 C1340 C 0.20005 0.60330 0.79945
 N1341 N 0.21686 0.59959 0.80179
 N1342 N 0.22379 0.58582 0.79457
 C1343 C 0.22162 0.55983 0.77719
 N1344 N 0.23886 0.55790 0.77617
 N1345 N 0.24562 0.54391 0.76921
 C1346 C 0.23539 0.53132 0.76309
 N1347 N 0.21816 0.53320 0.76426
 N1348 N 0.21140 0.54725 0.77108
 C1349 C 0.21421 1.07555 0.28428
 N1350 N 0.22408 1.08634 0.29359
 N1351 N 0.21726 1.10015 0.30085
 C1352 C 0.20038 1.10375 0.29890
 N1353 N 0.19055 1.09303 0.28949
 N1354 N 0.19732 1.07913 0.28240
 C1355 C 0.22161 1.06016 0.27656
 N1356 N 0.21132 1.04747 0.27077
 N1357 N 0.21800 1.03337 0.26400
 C1358 C 0.23521 1.03152 0.26255
 N1359 N 0.24550 1.04421 0.26838
 N1360 N 0.23882 1.05826 0.27528
 C1361 C 0.71410 0.42455 0.71572
 N1362 N 0.69725 0.42092 0.71785
 N1363 N 0.69043 0.40704 0.71078
 C1364 C 0.70016 0.39639 0.70115
 N1365 N 0.71699 0.40006 0.69895
 N1366 N 0.72386 0.41384 0.70618
 C1367 C 0.72158 0.43990 0.72349
 N1368 N 0.73881 0.44171 0.72474
 N1369 N 0.74555 0.45568 0.73172
 C1370 C 0.73531 0.46838 0.73768
 N1371 N 0.71809 0.46661 0.73627
 N1372 N 0.71135 0.45259 0.72942
 C1373 C 0.71438 -0.07515 0.21525
 N1374 N 0.71883 -0.08000 0.19921
 N1375 N 0.71188 -0.09380 0.19213
 C1376 C 0.70014 -0.10319 0.20078
 N1377 N 0.69565 -0.09832 0.21679
 N1378 N 0.70268 -0.08457 0.22392
 C1379 C 0.72203 -0.05991 0.22300
 N1380 N 0.71936 -0.05620 0.23972
 N1381 N 0.72626 -0.04230 0.24669
 C1382 C 0.73608 -0.03166 0.23717
 N1383 N 0.73862 -0.03528 0.22043
 N1384 N 0.73180 -0.04921 0.21349
 C1385 C 0.21443 0.42470 0.21557
 N1386 N 0.22364 0.41500 0.20453
 N1387 N 0.21676 0.40119 0.19739
 C1388 C 0.20048 0.39648 0.20116
 N1389 N 0.19129 0.40614 0.21225
 N1390 N 0.19811 0.42005 0.21926
 C1391 C 0.22191 0.44003 0.22328
 N1392 N 0.21173 0.45192 0.23077
 N1393 N 0.21846 0.46597 0.23755
 C1394 C 0.23563 0.46854 0.23732
 N1395 N 0.24582 0.45665 0.22984
 N1396 N 0.23907 0.44267 0.22290
 C1397 C 0.21430 -0.07531 0.71530
 N1398 N 0.19790 -0.07981 0.71880
 N1399 N 0.19100 -0.09360 0.71165
 C1400 C 0.20020 -0.10329 0.70060
 N1401 N 0.21657 -0.09875 0.69702
 N1402 N 0.22353 -0.08505 0.70430
 C1403 C 0.22185 -0.06011 0.72320
 N1404 N 0.23902 -0.05751 0.72282
 N1405 N 0.24581 -0.04365 0.72995
 C1406 C 0.23566 -0.03187 0.73766
 N1407 N 0.21849 -0.03440 0.73789
 N1408 N 0.21172 -0.04833 0.73090
 C1409 C 0.28510 0.28544 0.42485
 N1410 N 0.29530 0.27595 0.41452
 N1411 N 0.30223 0.28277 0.40056
 C1412 C 0.29907 0.29928 0.39635
 N1413 N 0.28883 0.30876 0.40665
 N1414 N 0.28203 0.30199 0.42069
 C1415 C 0.27745 0.27790 0.44021
 N1416 N 0.26965 0.28793 0.45201
 N1417 N 0.26277 0.28108 0.46598
 C1418 C 0.26323 0.26394 0.46853
 N1419 N 0.27113 0.25394 0.45679
 N1420 N 0.27810 0.26079 0.44287
 C1421 C 0.28515 0.78532 -0.07571
 N1422 N 0.29471 0.77560 -0.08644
 N1423 N 0.30165 0.78240 -0.10042
 C1424 C 0.29913 0.79912 -0.10426
 N1425 N 0.28952 0.80882 -0.09356
 N1426 N 0.28275 0.80207 -0.07950
 C1427 C 0.27753 0.77791 -0.06026
 N1428 N 0.27142 0.78818 -0.04772
 N1429 N 0.26454 0.78153 -0.03366
 C1430 C 0.26329 0.76435 -0.03172
 N1431 N 0.26945 0.75406 -0.04426
 N1432 N 0.27646 0.76072 -0.05827
 C1433 C 0.78443 0.28611 -0.07549
 N1434 N 0.78190 0.30282 -0.07934
 N1435 N 0.78870 0.30957 -0.09339
 C1436 C 0.79843 0.29990 -0.10399
 N1437 N 0.80106 0.28322 -0.10009
 N1438 N 0.79410 0.27642 -0.08613
 C1439 C 0.77681 0.27870 -0.06006
 N1440 N 0.77610 0.26152 -0.05792
 N1441 N 0.76911 0.25484 -0.04393
 C1442 C 0.76260 0.26510 -0.03155
 N1443 N 0.76349 0.28228 -0.03362
 N1444 N 0.77036 0.28896 -0.04767
 C1445 C 0.78453 0.78601 0.42471
 N1446 N 0.79451 0.77641 0.41425
 N1447 N 0.80157 0.78326 0.40036
 C1448 C 0.79875 0.79988 0.39634
 N1449 N 0.78871 0.80945 0.40676
 N1450 N 0.78181 0.80266 0.42074
 C1451 C 0.77685 0.77857 0.44010
 N1452 N 0.77026 0.78881 0.45243
 N1453 N 0.76337 0.78213 0.46647
 C1454 C 0.76259 0.76495 0.46859
 N1455 N 0.76923 0.75470 0.45627
 N1456 N 0.77625 0.76139 0.44229
 C1457 C 0.71555 0.28505 0.57550
 N1458 N 0.71800 0.30177 0.57933
 N1459 N 0.71115 0.30853 0.59335
 C1460 C 0.70143 0.29886 0.60396
 N1461 N 0.69889 0.28216 0.60008
 N1462 N 0.70590 0.27536 0.58615
 C1463 C 0.72321 0.27765 0.56007
 N1464 N 0.72398 0.26046 0.55793
 N1465 N 0.73099 0.25380 0.54393
 C1466 C 0.73744 0.26408 0.53153
 N1467 N 0.73649 0.28126 0.53361
 N1468 N 0.72961 0.28791 0.54767
 C1469 C 0.71542 0.78556 1.07538
 N1470 N 0.71758 0.80237 1.07901
 N1471 N 0.71062 0.80916 1.09296
 C1472 C 0.70109 0.79944 1.10369
 N1473 N 0.69885 0.78266 1.10002
 N1474 N 0.70596 0.77582 1.08616
 C1475 C 0.72315 0.77813 1.06002
 N1476 N 0.72403 0.76094 1.05798
 N1477 N 0.73105 0.75425 1.04400
 C1478 C 0.73742 0.76450 1.03154
 N1479 N 0.73637 0.78168 1.03353
 N1480 N 0.72947 0.78837 1.04756
 C1481 C 0.21564 0.28539 1.07549
 N1482 N 0.21829 0.30206 1.07938
 N1483 N 0.21134 0.30889 1.09332
 C1484 C 0.20133 0.29935 1.10376
 N1485 N 0.19858 0.28270 1.09982
 N1486 N 0.20569 0.27582 1.08597
 C1487 C 0.22335 0.27791 1.06014
 N1488 N 0.22398 0.26073 1.05802
 N1489 N 0.23099 0.25399 1.04406
 C1490 C 0.23758 0.26420 1.03169
 N1491 N 0.23679 0.28139 1.03375
 N1492 N 0.22991 0.28812 1.04777
 C1493 C 0.21573 0.78539 0.57520
 N1494 N 0.20609 0.77565 0.58582
 N1495 N 0.19907 0.78242 0.59977
 C1496 C 0.20160 0.79911 0.60367
 N1497 N 0.21130 0.80881 0.59309
 N1498 N 0.21817 0.80210 0.57905
 C1499 C 0.22341 0.77800 0.55978
 N1500 N 0.22980 0.78827 0.54738
 N1501 N 0.23669 0.78162 0.53333
 C1502 C 0.23766 0.76443 0.53127
 N1503 N 0.23121 0.75416 0.54366
 N1504 N 0.22420 0.76082 0.55766
 C1505 C 0.28465 0.71429 0.57519
 N1506 N 0.29463 0.72386 0.58565
 N1507 N 0.30170 0.71699 0.59952
 C1508 C 0.29889 0.70036 0.60352
 N1509 N 0.28886 0.69083 0.59311
 N1510 N 0.28195 0.69764 0.57914
 C1511 C 0.27696 0.72174 0.55980
 N1512 N 0.27035 0.71151 0.54750
 N1513 N 0.26346 0.71819 0.53346
 C1514 C 0.26271 0.73537 0.53131
 N1515 N 0.26936 0.74562 0.54361
 N1516 N 0.27638 0.73893 0.55759
 C1517 C 0.28456 0.21406 1.07556
 N1518 N 0.29449 0.22370 1.08600
 N1519 N 0.30163 0.21688 1.09987
 C1520 C 0.29893 0.20024 1.10388
 N1521 N 0.28893 0.19064 1.09349
 N1522 N 0.28196 0.19740 1.07953
 C1523 C 0.27681 0.22147 1.06020
 N1524 N 0.27026 0.21121 1.04788
 N1525 N 0.26335 0.21787 1.03385
 C1526 C 0.26252 0.23505 1.03172
 N1527 N 0.26911 0.24532 1.04403
 N1528 N 0.27615 0.23865 1.05801
 C1529 C 0.78430 0.71426 1.07537
 N1530 N 0.79428 0.72385 1.08580
 N1531 N 0.80137 0.71701 1.09968
 C1532 C 0.79857 0.70038 1.10370
 N1533 N 0.78852 0.69083 1.09332
 N1534 N 0.78159 0.69762 1.07935
 C1535 C 0.77661 0.72171 1.05999
 N1536 N 0.76997 0.71148 1.04768
 N1537 N 0.76310 0.71819 1.03364
 C1538 C 0.76240 0.73537 1.03150
 N1539 N 0.76908 0.74560 1.04380
 N1540 N 0.77607 0.73889 1.05778
 C1541 C 0.78449 0.21402 0.57537
 N1542 N 0.79443 0.22363 0.58581
 N1543 N 0.80154 0.21681 0.59969
 C1544 C 0.79880 0.20018 0.60371
 N1545 N 0.78878 0.19059 0.59332
 N1546 N 0.78183 0.19736 0.57935
 C1547 C 0.77677 0.22143 0.55999
 N1548 N 0.77018 0.21117 0.54769
 N1549 N 0.76328 0.21784 0.53365
 C1550 C 0.76250 0.23502 0.53151
 N1551 N 0.76913 0.24528 0.54380
 N1552 N 0.77616 0.23861 0.55778
 C1553 C 0.71561 0.71498 0.42471
 N1554 N 0.71807 0.69826 0.42088
 N1555 N 0.71122 0.69152 0.40686
 C1556 C 0.70151 0.70121 0.39626
 N1557 N 0.69895 0.71791 0.40014
 N1558 N 0.70595 0.72470 0.41407
 C1559 C 0.72328 0.72237 0.44011
 N1560 N 0.72406 0.73956 0.44223
 N1561 N 0.73108 0.74621 0.45622
 C1562 C 0.73755 0.73592 0.46860
 N1563 N 0.73659 0.71875 0.46655
 N1564 N 0.72969 0.71210 0.45251
 C1565 C 0.71561 0.21502 -0.07540
 N1566 N 0.71815 0.19831 -0.07922
 N1567 N 0.71132 0.19151 -0.09322
 C1568 C 0.70152 0.20113 -0.10381
 N1569 N 0.69888 0.21782 -0.09995
 N1570 N 0.70587 0.22467 -0.08603
 C1571 C 0.72327 0.22246 -0.06001
 N1572 N 0.72395 0.23965 -0.05787
 N1573 N 0.73098 0.24633 -0.04389
 C1574 C 0.73755 0.23606 -0.03154
 N1575 N 0.73668 0.21888 -0.03362
 N1576 N 0.72978 0.21221 -0.04764
 C1577 C 0.21534 0.71521 -0.07557
 N1578 N 0.21769 0.69844 -0.07927
 N1579 N 0.21089 0.69165 -0.09329
 C1580 C 0.20132 0.70133 -0.10402
 N1581 N 0.19886 0.71808 -0.10027
 N1582 N 0.20582 0.72492 -0.08634
 C1583 C 0.22295 0.72263 -0.06015
 N1584 N 0.22403 0.73982 -0.05817
 N1585 N 0.23106 0.74646 -0.04418
 C1586 C 0.23722 0.73616 -0.03166
 N1587 N 0.23596 0.71898 -0.03358
 N1588 N 0.22907 0.71234 -0.04762
 C1589 C 0.21529 0.21438 0.42506
 N1590 N 0.19894 0.21816 0.42057
 N1591 N 0.19207 0.21149 0.40652
 C1592 C 0.20126 0.20071 0.39651
 N1593 N 0.21757 0.19685 0.40105
 N1594 N 0.22448 0.20361 0.41504
 C1595 C 0.22294 0.22187 0.44043
 N1596 N 0.23984 0.21971 0.44383
 N1597 N 0.24682 0.22657 0.45774
 C1598 C 0.23716 0.23590 0.46869
 N1599 N 0.22022 0.23788 0.46542
 N1600 N 0.21325 0.23107 0.45149
 C1601 C 0.28572 0.42487 0.71546
 N1602 N 0.28264 0.42099 0.69886
 N1603 N 0.28939 0.40703 0.69185
 C1604 C 0.29957 0.39651 0.70115
 N1605 N 0.30274 0.40044 0.71773
 N1606 N 0.29588 0.41433 0.72478
 C1607 C 0.27812 0.44017 0.72321
 N1608 N 0.27910 0.44285 0.74030
 N1609 N 0.27214 0.45673 0.74729
 C1610 C 0.26391 0.46838 0.73745
 N1611 N 0.26311 0.46580 0.72034
 N1612 N 0.26999 0.45190 0.71336
 C1613 C 0.28597 0.92502 0.21535
 N1614 N 0.30281 0.92139 0.21758
 N1615 N 0.30972 0.90755 0.21050
 C1616 C 0.30007 0.89694 0.20078
 N1617 N 0.28325 0.90060 0.19848
 N1618 N 0.27630 0.91435 0.20572
 C1619 C 0.27842 0.94028 0.22318
 N1620 N 0.26118 0.94227 0.22399
 N1621 N 0.25439 0.95615 0.23113
 C1622 C 0.26459 0.96855 0.23768
 N1623 N 0.28182 0.96662 0.23668
 N1624 N 0.28861 0.95269 0.22967
 C1625 C 0.78588 0.42490 0.21569
 N1626 N 0.80260 0.42095 0.21828
 N1627 N 0.80941 0.40704 0.21124
 C1628 C 0.79980 0.39670 0.20120
 N1629 N 0.78311 0.40069 0.19853
 N1630 N 0.77625 0.41450 0.20573
 C1631 C 0.77839 0.44021 0.22349
 N1632 N 0.76117 0.44233 0.22415
 N1633 N 0.75441 0.45625 0.23123
 C1634 C 0.76463 0.46857 0.23789
 N1635 N 0.78186 0.46652 0.23705
 N1636 N 0.78862 0.45254 0.23010
 C1637 C 0.78569 0.92548 0.71521
 N1638 N 0.80220 0.92116 0.71848
 N1639 N 0.80905 0.90719 0.71156
 C1640 C 0.79969 0.89712 0.70101
 N1641 N 0.78323 0.90151 0.69765
 N1642 N 0.77633 0.91538 0.70468
 C1643 C 0.77801 0.94074 0.72299
 N1644 N 0.76088 0.94348 0.72204
 N1645 N 0.75388 0.95728 0.72912
 C1646 C 0.76373 0.96883 0.73746
 N1647 N 0.78089 0.96621 0.73822
 N1648 N 0.78789 0.95236 0.73123
 C1649 C 0.71414 0.57525 0.71561
 N1650 N 0.69730 0.57889 0.71780
 N1651 N 0.69042 0.59276 0.71074
 C1652 C 0.70010 0.60340 0.70108
 N1653 N 0.71694 0.59975 0.69884
 N1654 N 0.72386 0.58597 0.70605
 C1655 C 0.72165 0.55991 0.72336
 N1656 N 0.73888 0.55789 0.72422
 N1657 N 0.74563 0.54393 0.73125
 C1658 C 0.73539 0.53146 0.73763
 N1659 N 0.71816 0.53342 0.73658
 N1660 N 0.71142 0.54743 0.72968
 C1661 C 0.71466 0.07489 0.21481
 N1662 N 0.69783 0.07855 0.21713
 N1663 N 0.69094 0.09246 0.21016
 C1664 C 0.70057 0.10310 0.20046
 N1665 N 0.71738 0.09940 0.19806
 N1666 N 0.72432 0.08559 0.20519
 C1667 C 0.72219 0.05956 0.22254
 N1668 N 0.73943 0.05766 0.22360
 N1669 N 0.74620 0.04373 0.23067
 C1670 C 0.73596 0.03117 0.23688
 N1671 N 0.71873 0.03302 0.23564
 N1672 N 0.71198 0.04700 0.22871
 C1673 C 0.21386 0.57497 0.21468
 N1674 N 0.22349 0.58550 0.20484
 N1675 N 0.21660 0.59934 0.19772
 C1676 C 0.19988 0.60323 0.20031
 N1677 N 0.19026 0.59274 0.21021
 N1678 N 0.19711 0.57881 0.21720
 C1679 C 0.22148 0.55971 0.22247
 N1680 N 0.21145 0.54759 0.22975
 N1681 N 0.21840 0.53368 0.23668
 C1682 C 0.23564 0.53149 0.23680
 N1683 N 0.24564 0.54357 0.22944
 N1684 N 0.23870 0.55743 0.22241
 C1685 C 0.21395 0.07477 0.71523
 N1686 N 0.19709 0.07838 0.71744
 N1687 N 0.19019 0.09227 0.71043
 C1688 C 0.19984 0.10297 0.70080
 N1689 N 0.21668 0.09933 0.69852
 N1690 N 0.22363 0.08553 0.70569
 C1691 C 0.22152 0.05943 0.72299
 N1692 N 0.23877 0.05750 0.72391
 N1693 N 0.24558 0.04359 0.73099
 C1694 C 0.23541 0.03107 0.73739
 N1695 N 0.21817 0.03293 0.73628
 N1696 N 0.21136 0.04690 0.72932
 C1697 C 0.28586 0.57488 0.28456
 N1698 N 0.28203 0.57929 0.30087
 N1699 N 0.28885 0.59319 0.30788
 C1700 C 0.29984 0.60312 0.29887
 N1701 N 0.30373 0.59867 0.28258
 N1702 N 0.29682 0.58483 0.27553
 C1703 C 0.27824 0.55961 0.27684
 N1704 N 0.28056 0.55610 0.26003
 N1705 N 0.27360 0.54224 0.25305
 C1706 C 0.26400 0.53145 0.26263
 N1707 N 0.26187 0.53483 0.27948
 N1708 N 0.26877 0.54871 0.28644
 C1709 C 0.28560 0.07507 0.78418
 N1710 N 0.30229 0.07907 0.78158
 N1711 N 0.30905 0.09298 0.78863
 C1712 C 0.29941 0.10328 0.79871
 N1713 N 0.28273 0.09925 0.80139
 N1714 N 0.27592 0.08544 0.79418
 C1715 C 0.27822 0.05971 0.77644
 N1716 N 0.26101 0.05746 0.77587
 N1717 N 0.25436 0.04345 0.76888
 C1718 C 0.26469 0.03116 0.76227
 N1719 N 0.28190 0.03335 0.76302
 N1720 N 0.28854 0.04741 0.76987
 C1721 C 0.78600 0.57506 0.78467
 N1722 N 0.77637 0.58554 0.79458
 N1723 N 0.78324 0.59935 0.80175
 C1724 C 0.79995 0.60328 0.79912
 N1725 N 0.80956 0.59286 0.78913
 N1726 N 0.80274 0.57895 0.78212
 C1727 C 0.77850 0.55975 0.77688
 N1728 N 0.78871 0.54736 0.77030
 N1729 N 0.78195 0.53340 0.76336
 C1730 C 0.76471 0.53139 0.76250
 N1731 N 0.75449 0.54377 0.76912
 N1732 N 0.76126 0.55768 0.77620
 C1733 C 0.78570 0.07506 0.28435
 N1734 N 0.80243 0.07894 0.28181
 N1735 N 0.80921 0.09290 0.28875
 C1736 C 0.79955 0.10337 0.29863
 N1737 N 0.78284 0.09944 0.30126
 N1738 N 0.77601 0.08558 0.29416
 C1739 C 0.77825 0.05969 0.27668
 N1740 N 0.76102 0.05770 0.27579
 N1741 N 0.75429 0.04372 0.26882
 C1742 C 0.76456 0.03121 0.26255
 N1743 N 0.78179 0.03314 0.26361
 N1744 N 0.78851 0.04718 0.27044
 C1745 C 0.71419 0.42477 0.28475
 N1746 N 0.72389 0.41422 0.29452
 N1747 N 0.71704 0.40040 0.30170
 C1748 C 0.70030 0.39655 0.29921
 N1749 N 0.69062 0.40704 0.28937
 N1750 N 0.69742 0.42095 0.28234
 C1751 C 0.72164 0.44009 0.27697
 N1752 N 0.71138 0.45249 0.27052
 N1753 N 0.71809 0.46651 0.26361
 C1754 C 0.73532 0.46852 0.26270
 N1755 N 0.74558 0.45612 0.26918
 N1756 N 0.73886 0.44216 0.27621
 C1757 C 0.71378 0.92531 0.78528
 N1758 N 0.71724 0.92117 0.80175
 N1759 N 0.71038 0.90730 0.80880
 C1760 C 0.69970 0.89715 0.79969
 N1761 N 0.69618 0.90132 0.78324
 N1762 N 0.70315 0.91512 0.77614
 C1763 C 0.72137 0.94059 0.77755
 N1764 N 0.71978 0.94364 0.76056
 N1765 N 0.72665 0.95755 0.75359
 C1766 C 0.73541 0.96886 0.76336
 N1767 N 0.73683 0.96591 0.78036
 N1768 N 0.73002 0.95198 0.78732
 C1769 C 0.21374 0.42496 0.78556
 N1770 N 0.19730 0.42057 0.78209
 N1771 N 0.19041 0.40663 0.78901
 C1772 C 0.19968 0.39667 0.79977
 N1773 N 0.21607 0.40112 0.80332
 N1774 N 0.22300 0.41496 0.79629
 C1775 C 0.22143 0.44022 0.77782
 N1776 N 0.23847 0.44320 0.77930
 N1777 N 0.24548 0.45703 0.77229
 C1778 C 0.23571 0.46835 0.76351
 N1779 N 0.21863 0.46549 0.76222
 N1780 N 0.21163 0.45161 0.76914
 C1781 C 0.21400 0.92469 0.28438
 N1782 N 0.22368 0.91396 0.29397
 N1783 N 0.21674 0.90019 0.30114
 C1784 C 0.19992 0.89656 0.29882
 N1785 N 0.19027 0.90722 0.28914
 N1786 N 0.19717 0.92108 0.28211
 C1787 C 0.22151 0.94002 0.27669
 N1788 N 0.21128 0.95249 0.27031
 N1789 N 0.21803 0.96651 0.26346
 C1790 C 0.23526 0.96847 0.26252
 N1791 N 0.24550 0.95601 0.26895
 N1792 N 0.23874 0.94204 0.27593
 C1793 C 0.42429 0.28505 0.71554
 N1794 N 0.41340 0.29450 0.72520
 N1795 N 0.39948 0.30149 0.71827
 C1796 C 0.39588 0.29911 0.70149
 N1797 N 0.40673 0.28961 0.69186
 N1798 N 0.42073 0.28279 0.69874
 C1799 C 0.43971 0.27743 0.72302
 N1800 N 0.45243 0.27162 0.71277
 N1801 N 0.46651 0.26477 0.71943
 C1802 C 0.46830 0.26325 0.73659
 N1803 N 0.45557 0.26906 0.74688
 N1804 N 0.44153 0.27606 0.74020
 C1805 C 0.42486 0.78607 0.21516
 N1806 N 0.42135 0.80292 0.21726
 N1807 N 0.40741 0.80981 0.21030
 C1808 C 0.39658 0.80012 0.20085
 N1809 N 0.40013 0.78330 0.19868
 N1810 N 0.41398 0.77638 0.20578
 C1811 C 0.44016 0.77845 0.22286
 N1812 N 0.44209 0.76124 0.22344
 N1813 N 0.45601 0.75431 0.23040
 C1814 C 0.46850 0.76433 0.23704
 N1815 N 0.46664 0.78155 0.23628
 N1816 N 0.45268 0.78849 0.22943
 C1817 C 0.92470 0.28512 0.21482
 N1818 N 0.91406 0.29493 0.22439
 N1819 N 0.90025 0.30210 0.21743
 C1820 C 0.89650 0.29954 0.20070
 N1821 N 0.90710 0.28967 0.19117
 N1822 N 0.92100 0.28267 0.19807
 C1823 C 0.94004 0.27735 0.22232
 N1824 N 0.95261 0.27116 0.21210
 N1825 N 0.96663 0.26422 0.21880
 C1826 C 0.96850 0.26298 0.23597
 N1827 N 0.95592 0.26918 0.24622
 N1828 N 0.94195 0.27627 0.23951
 C1829 C 0.92502 0.78632 0.71512
 N1830 N 0.92029 0.78207 0.69900
 N1831 N 0.90629 0.78881 0.69202
 C1832 C 0.89658 0.80013 0.70087
 N1833 N 0.90135 0.80445 0.71695
 N1834 N 0.91528 0.79762 0.72397
 C1835 C 0.94035 0.77875 0.72285
 N1836 N 0.94408 0.78150 0.73955
 N1837 N 0.95796 0.77455 0.74658
 C1838 C 0.96854 0.76454 0.73716
 N1839 N 0.96494 0.76198 0.72042
 N1840 N 0.95104 0.76888 0.71341
 C1841 C 0.57562 0.28528 0.28460
 N1842 N 0.58647 0.27556 0.29403
 N1843 N 0.60034 0.28243 0.30112
 C1844 C 0.60396 0.29923 0.29890
 N1845 N 0.59315 0.30894 0.28942
 N1846 N 0.57919 0.30211 0.28248
 C1847 C 0.56025 0.27777 0.27689
 N1848 N 0.54759 0.28795 0.27078
 N1849 N 0.53356 0.28118 0.26394
 C1850 C 0.53176 0.26399 0.26271
 N1851 N 0.54442 0.25380 0.26884
 N1852 N 0.55840 0.26057 0.27582
 C1853 C 0.57532 0.78552 0.78463
 N1854 N 0.58607 0.77583 0.79420
 N1855 N 0.59995 0.78269 0.80128
 C1856 C 0.60369 0.79944 0.79889
 N1857 N 0.59300 0.80911 0.78924
 N1858 N 0.57902 0.80230 0.78232
 C1859 C 0.55991 0.77804 0.77697
 N1860 N 0.54730 0.78825 0.77081
 N1861 N 0.53323 0.78152 0.76400
 C1862 C 0.53134 0.76433 0.76288
 N1863 N 0.54394 0.75411 0.76908
 N1864 N 0.55796 0.76084 0.77602
 C1865 C 0.07506 0.28530 0.78493
 N1866 N 0.08579 0.27559 0.79450
 N1867 N 0.09966 0.28243 0.80161
 C1868 C 0.10339 0.29919 0.79927
 N1869 N 0.09271 0.30889 0.78965
 N1870 N 0.07874 0.30209 0.78268
 C1871 C 0.05970 0.27782 0.77718
 N1872 N 0.04714 0.28804 0.77095
 N1873 N 0.03311 0.28131 0.76406
 C1874 C 0.03123 0.26412 0.76291
 N1875 N 0.04379 0.25389 0.76917
 N1876 N 0.05777 0.26063 0.77620
 C1877 C 0.07539 0.78516 0.28464
 N1878 N 0.08657 0.77544 0.29367
 N1879 N 0.10042 0.78243 0.30069
 C1880 C 0.10368 0.79935 0.29877
 N1881 N 0.09257 0.80904 0.28965
 N1882 N 0.07862 0.80209 0.28279
 C1883 C 0.05996 0.77759 0.27711
 N1884 N 0.04704 0.78774 0.27156
 N1885 N 0.03296 0.78096 0.26483
 C1886 C 0.03136 0.76378 0.26319
 N1887 N 0.04427 0.75360 0.26878
 N1888 N 0.05831 0.76039 0.27565
 C1889 C 0.57540 0.71474 0.71529
 N1890 N 0.58644 0.72447 0.70611
 N1891 N 0.60031 0.71752 0.69906
 C1892 C 0.60373 0.70064 0.70109
 N1893 N 0.59276 0.69094 0.71036
 N1894 N 0.57880 0.69785 0.71726
 C1895 C 0.55997 0.72226 0.72289
 N1896 N 0.54728 0.71206 0.72883
 N1897 N 0.53321 0.71878 0.73565
 C1898 C 0.53138 0.73597 0.73700
 N1899 N 0.54406 0.74620 0.73100
 N1900 N 0.55809 0.73946 0.72405
 C1901 C 0.57567 0.21436 0.21507
 N1902 N 0.58654 0.22409 0.20570
 N1903 N 0.60044 0.21720 0.19864
 C1904 C 0.60405 0.20039 0.20087
 N1905 N 0.59324 0.19069 0.21031
 N1906 N 0.57925 0.19754 0.21721
 C1907 C 0.56025 0.22184 0.22271
 N1908 N 0.54766 0.21160 0.22881
 N1909 N 0.53361 0.21830 0.23570
 C1910 C 0.53171 0.23548 0.23697
 N1911 N 0.54429 0.24573 0.23081
 N1912 N 0.55830 0.23903 0.22379
 C1913 C 0.07513 0.71466 0.21469
 N1914 N 0.08593 0.72424 0.20509
 N1915 N 0.09967 0.71721 0.19788
 C1916 C 0.10320 0.70039 0.20016
 N1917 N 0.09247 0.69083 0.20985
 N1918 N 0.07863 0.69782 0.21691
 C1919 C 0.05980 0.72226 0.22240
 N1920 N 0.04709 0.71212 0.22839
 N1921 N 0.03306 0.71893 0.23522
 C1922 C 0.03131 0.73612 0.23653
 N1923 N 0.04402 0.74628 0.23052
 N1924 N 0.05801 0.73947 0.22354
 C1925 C 0.07516 0.21448 0.71532
 N1926 N 0.08621 0.22422 0.70618
 N1927 N 0.10009 0.21729 0.69912
 C1928 C 0.10351 0.20041 0.70112
 N1929 N 0.09253 0.19069 0.71036
 N1930 N 0.07856 0.19759 0.71726
 C1931 C 0.05973 0.22198 0.72292
 N1932 N 0.04704 0.21177 0.72885
 N1933 N 0.03298 0.21849 0.73571
 C1934 C 0.03118 0.23567 0.73711
 N1935 N 0.04384 0.24590 0.73111
 N1936 N 0.05786 0.23918 0.72412
 C1937 C 0.42483 0.71421 0.28455
 N1938 N 0.41528 0.70278 0.27569
 N1939 N 0.40133 0.69590 0.28265
 C1940 C 0.39638 0.70030 0.29866
 N1941 N 0.40591 0.71176 0.30750
 N1942 N 0.41991 0.71855 0.30059
 C1943 C 0.44021 0.72180 0.27691
 N1944 N 0.45063 0.73194 0.28634
 N1945 N 0.46458 0.73883 0.27944
 C1946 C 0.46851 0.73599 0.26281
 N1947 N 0.45820 0.72571 0.25342
 N1948 N 0.44427 0.71877 0.26033
 C1949 C 0.42440 0.21442 0.78502
 N1950 N 0.41368 0.20473 0.77544
 N1951 N 0.39986 0.19762 0.78243
 C1952 C 0.39618 0.20013 0.79918
 N1953 N 0.40684 0.20989 0.80872
 N1954 N 0.42076 0.21682 0.80179
 C1955 C 0.43979 0.22210 0.77750
 N1956 N 0.45246 0.22802 0.78774
 N1957 N 0.46652 0.23488 0.78106
 C1958 C 0.46834 0.23631 0.76389
 N1959 N 0.45567 0.23039 0.75362
 N1960 N 0.44165 0.22337 0.76032
 C1961 C 0.92485 0.71445 0.78494
 N1962 N 0.91421 0.72403 0.79473
 N1963 N 0.90033 0.71714 0.80178
 C1964 C 0.89649 0.70045 0.79915
 N1965 N 0.90710 0.69087 0.78932
 N1966 N 0.92108 0.69773 0.78241
 C1967 C 0.94014 0.72209 0.77720
 N1968 N 0.95248 0.71208 0.77022
 N1969 N 0.96643 0.71903 0.76337
 C1970 C 0.96845 0.73625 0.76300
 N1971 N 0.95613 0.74624 0.77004
 N1972 N 0.94223 0.73929 0.77701
 C1973 C 0.92456 0.21469 0.28496
 N1974 N 0.91393 0.20494 0.27534
 N1975 N 0.90006 0.19783 0.28225
 C1976 C 0.89626 0.20039 0.29897
 N1977 N 0.90685 0.21020 0.30855
 N1978 N 0.92080 0.21713 0.30169
 C1979 C 0.93996 0.22242 0.27753
 N1980 N 0.95246 0.22857 0.28784
 N1981 N 0.96650 0.23555 0.28124
 C1982 C 0.96847 0.23687 0.26408
 N1983 N 0.95597 0.23070 0.25375
 N1984 N 0.94197 0.22358 0.26035
 C1985 C 0.28487 0.28562 0.57519
 N1986 N 0.28255 0.30241 0.57879
 N1987 N 0.28953 0.30931 0.59267
 C1988 C 0.29926 0.29972 0.60334
 N1989 N 0.30168 0.28294 0.59970
 N1990 N 0.29453 0.27599 0.58591
 C1991 C 0.27716 0.27810 0.55988
 N1992 N 0.27616 0.26090 0.55798
 N1993 N 0.26914 0.25415 0.54404
 C1994 C 0.26292 0.26436 0.53147
 N1995 N 0.26408 0.28154 0.53331
 N1996 N 0.27096 0.28829 0.54730
 C1997 C 0.28523 0.78576 0.07492
 N1998 N 0.28224 0.80234 0.07900
 N1999 N 0.28899 0.80911 0.09306
 C2000 C 0.29911 0.79959 0.10345
 N2001 N 0.30220 0.78305 0.09930
 N2002 N 0.29532 0.77623 0.08533
 C2003 C 0.27760 0.77820 0.05957
 N2004 N 0.27810 0.76107 0.05703
 N2005 N 0.27115 0.75419 0.04313
 C2006 C 0.26342 0.76419 0.03126
 N2007 N 0.26311 0.78135 0.03369
 N2008 N 0.26997 0.78822 0.04765
 C2009 C 0.78476 0.28606 0.07520
 N2010 N 0.78207 0.30271 0.07916
 N2011 N 0.78900 0.30949 0.09313
 C2012 C 0.79903 0.29990 0.10353
 N2013 N 0.80181 0.28327 0.09952
 N2014 N 0.79472 0.27644 0.08565
 C2015 C 0.77704 0.27863 0.05984
 N2016 N 0.77644 0.26145 0.05765
 N2017 N 0.76938 0.25478 0.04369
 C2018 C 0.76271 0.26504 0.03140
 N2019 N 0.76349 0.28222 0.03352
 N2020 N 0.77041 0.28889 0.04753
 C2021 C 0.78475 0.78598 0.57528
 N2022 N 0.78211 0.80265 0.57917
 N2023 N 0.78907 0.80948 0.59310
 C2024 C 0.79908 0.79992 0.60353
 N2025 N 0.80182 0.78326 0.59960
 N2026 N 0.79470 0.77638 0.58576
 C2027 C 0.77700 0.77853 0.55994
 N2028 N 0.77636 0.76134 0.55779
 N2029 N 0.76928 0.75466 0.54385
 C2030 C 0.76263 0.76491 0.53154
 N2031 N 0.76344 0.78209 0.53363
 N2032 N 0.77039 0.78877 0.54763
 C2033 C 0.28489 0.71404 0.42468
 N2034 N 0.28249 0.69729 0.42097
 N2035 N 0.28948 0.69042 0.40707
 C2036 C 0.29928 0.70002 0.39647
 N2037 N 0.30178 0.71675 0.40023
 N2038 N 0.29464 0.72366 0.41405
 C2039 C 0.27712 0.72154 0.44000
 N2040 N 0.27635 0.73874 0.44204
 N2041 N 0.26926 0.74548 0.45596
 C2042 C 0.26272 0.73526 0.46836
 N2043 N 0.26367 0.71807 0.46638
 N2044 N 0.27063 0.71134 0.45240
 C2045 C 0.28451 0.21387 0.92494
 N2046 N 0.28181 0.19722 0.92099
 N2047 N 0.28871 0.19043 0.90701
 C2048 C 0.29872 0.19999 0.89658
 N2049 N 0.30151 0.21661 0.90057
 N2050 N 0.29446 0.22346 0.91446
 C2051 C 0.27682 0.22133 0.94032
 N2052 N 0.27620 0.23851 0.94248
 N2053 N 0.26916 0.24521 0.95645
 C2054 C 0.26252 0.23498 0.96877
 N2055 N 0.26332 0.21779 0.96668
 N2056 N 0.27023 0.21110 0.95265
 C2057 C 0.78451 0.71460 0.92466
 N2058 N 0.79419 0.72430 0.91405
 N2059 N 0.80124 0.71750 0.90012
 C2060 C 0.79869 0.70081 0.89623
 N2061 N 0.78894 0.69114 0.90681
 N2062 N 0.78206 0.69789 0.92082
 C2063 C 0.77682 0.72199 0.94007
 N2064 N 0.77034 0.71170 0.95241
 N2065 N 0.76341 0.71834 0.96645
 C2066 C 0.76247 0.73551 0.96856
 N2067 N 0.76900 0.74581 0.95622
 N2068 N 0.77606 0.73917 0.94224
 C2069 C 0.78462 0.21394 0.42475
 N2070 N 0.79459 0.22352 0.41428
 N2071 N 0.80169 0.21665 0.40042
 C2072 C 0.79892 0.20002 0.39644
 N2073 N 0.78888 0.19047 0.40685
 N2074 N 0.78194 0.19728 0.42081
 C2075 C 0.77691 0.22139 0.44012
 N2076 N 0.77029 0.21116 0.45244
 N2077 N 0.76337 0.21785 0.46646
 C2078 C 0.76257 0.23503 0.46857
 N2079 N 0.76924 0.24528 0.45626
 N2080 N 0.77630 0.23858 0.44230
 C2081 C 0.71562 0.28517 0.42461
 N2082 N 0.70600 0.27547 0.41394
 N2083 N 0.69898 0.28230 0.40002
 C2084 C 0.70149 0.29901 0.39618
 N2085 N 0.71118 0.30868 0.40680
 N2086 N 0.71804 0.30190 0.42082
 C2087 C 0.72327 0.27774 0.44003
 N2088 N 0.72964 0.28799 0.45245
 N2089 N 0.73652 0.28131 0.46650
 C2090 C 0.73751 0.26412 0.46854
 N2091 N 0.73109 0.25387 0.45612
 N2092 N 0.72408 0.26055 0.44213
 C2093 C 0.71517 0.78566 0.92485
 N2094 N 0.70570 0.77593 0.91408
 N2095 N 0.69860 0.78279 0.90021
 C2096 C 0.70088 0.79957 0.89653
 N2097 N 0.71041 0.80928 0.90726
 N2098 N 0.71735 0.80246 0.92121
 C2099 C 0.72293 0.77820 0.94019
 N2100 N 0.72929 0.78843 0.95263
 N2101 N 0.73625 0.78173 0.96663
 C2102 C 0.73733 0.76454 0.96859
 N2103 N 0.73091 0.75430 0.95616
 N2104 N 0.72383 0.76101 0.94222
 C2105 C 0.21531 0.28497 0.92490
 N2106 N 0.20567 0.27526 0.91427
 N2107 N 0.19859 0.28207 0.90037
 C2108 C 0.20105 0.29879 0.89653
 N2109 N 0.21074 0.30847 0.90712
 N2110 N 0.21767 0.30171 0.92110
 C2111 C 0.22305 0.27758 0.94028
 N2112 N 0.22945 0.28786 0.95266
 N2113 N 0.23641 0.28122 0.96668
 C2114 C 0.23744 0.26404 0.96874
 N2115 N 0.23099 0.25375 0.95637
 N2116 N 0.22390 0.26040 0.94240
 C2117 C 0.21558 0.78530 0.42441
 N2118 N 0.21799 0.80202 0.42056
 N2119 N 0.21113 0.80874 0.40652
 C2120 C 0.20145 0.79903 0.39593
 N2121 N 0.19893 0.78234 0.39983
 N2122 N 0.20595 0.77557 0.41378
 C2123 C 0.22328 0.77791 0.43981
 N2124 N 0.22410 0.76072 0.44195
 N2125 N 0.23116 0.75407 0.45593
 C2126 C 0.23763 0.76435 0.46830
 N2127 N 0.23664 0.78153 0.46622
 N2128 N 0.22970 0.78818 0.45219
 C2129 C 0.71560 0.71487 0.57547
 N2130 N 0.70596 0.72459 0.58613
 N2131 N 0.69896 0.71779 0.60007
 C2132 C 0.70150 0.70109 0.60394
 N2133 N 0.71118 0.69139 0.59331
 N2134 N 0.71803 0.69814 0.57928
 C2135 C 0.72327 0.72229 0.56006
 N2136 N 0.72965 0.71203 0.54764
 N2137 N 0.73656 0.71870 0.53360
 C2138 C 0.73756 0.73588 0.53158
 N2139 N 0.73114 0.74615 0.54399
 N2140 N 0.72410 0.73947 0.55798
 C2141 C 0.71581 0.21486 0.07530
 N2142 N 0.70615 0.22453 0.08599
 N2143 N 0.69913 0.21766 0.09989
 C2144 C 0.70167 0.20094 0.10369
 N2145 N 0.71139 0.19130 0.09305
 N2146 N 0.71826 0.19811 0.07906
 C2147 C 0.72347 0.22232 0.05992
 N2148 N 0.72987 0.21209 0.04748
 N2149 N 0.73674 0.21879 0.03344
 C2150 C 0.73769 0.23597 0.03143
 N2151 N 0.73125 0.24621 0.04386
 N2152 N 0.72425 0.23951 0.05785
 C2153 C 0.21529 0.71456 0.07478
 N2154 N 0.19896 0.71840 0.07929
 N2155 N 0.19205 0.71170 0.09332
 C2156 C 0.20118 0.70082 0.10328
 N2157 N 0.21747 0.69691 0.09872
 N2158 N 0.22442 0.70370 0.08476
 C2159 C 0.22300 0.72208 0.05942
 N2160 N 0.23990 0.71987 0.05601
 N2161 N 0.24691 0.72675 0.04212
 C2162 C 0.23730 0.73615 0.03119
 N2163 N 0.22037 0.73818 0.03446
 N2164 N 0.21336 0.73136 0.04838
 C2165 C 0.21519 0.21503 0.57548
 N2166 N 0.20568 0.22473 0.58627
 N2167 N 0.19872 0.21787 0.60020
 C2168 C 0.20119 0.20112 0.60394
 N2169 N 0.21075 0.19145 0.59319
 N2170 N 0.21755 0.19826 0.57917
 C2171 C 0.22279 0.22247 0.56006
 N2172 N 0.22889 0.21219 0.54751
 N2173 N 0.23576 0.21884 0.53346
 C2174 C 0.23701 0.23602 0.53153
 N2175 N 0.23086 0.24631 0.54406
 N2176 N 0.22385 0.23965 0.55806
   
