data_POSCAR
  _audit_creation_date              2014-09-24
  _audit_creation_method            'ToBaCCo'
  _symmetry_space_group_name_H-M    'P1'
  _symmetry_Int_Tables_number       1
  _symmetry_cell_setting            triclinic
  loop_
  _symmetry_equiv_pos_as_xyz
 x,y,z
_cell_length_a 96.4447
_cell_length_b 97.3222
_cell_length_c 98.5264
_cell_angle_alpha 90.078300
_cell_angle_beta 90.288000
_cell_angle_gamma 89.565600
loop_
  _atom_site_label
  _atom_site_type_symbol
  _atom_site_fract_x
  _atom_site_fract_y
  _atom_site_fract_z
N1 N 0.35645 0.31796 0.33296
 N2 N 0.35710 0.32609 0.32236
 C3 C 0.36806 0.32237 0.31473
 C4 C 0.37459 0.31132 0.32097
 C5 C 0.36698 0.30883 0.33250
 H6 H 0.37104 0.32731 0.30539
 H7 H 0.36890 0.30085 0.33991
 Cu8 Cu 0.34351 0.34069 0.31959
 Cu9 Cu 0.34181 0.31946 0.34633
 Cu10 Cu 0.31756 0.34558 0.34195
 N11 N 0.33015 0.35559 0.31753
 N12 N 0.31999 0.35743 0.32621
 C13 C 0.31231 0.36836 0.32230
 C14 C 0.31803 0.37363 0.31056
 C15 C 0.32931 0.36531 0.30785
 H16 H 0.30332 0.37217 0.32766
 H17 H 0.33636 0.36631 0.29941
 N18 N 0.31699 0.33245 0.35721
 N19 N 0.32627 0.32254 0.35879
 C20 C 0.32308 0.31517 0.36985
 C21 C 0.31120 0.32067 0.37554
 C22 C 0.30764 0.33165 0.36731
 H23 H 0.32899 0.30644 0.37348
 H24 H 0.29881 0.33843 0.36856
 H25 H 0.32701 0.32846 0.33375
 H26 H 0.33823 0.34037 0.34375
 N27 N 0.35602 0.81832 -0.16996
 N28 N 0.35615 0.82778 -0.17947
 C29 C 0.36726 0.82564 -0.18749
 C30 C 0.37440 0.81421 -0.18268
 C31 C 0.36697 0.80985 -0.17158
 H32 H 0.36996 0.83199 -0.19607
 H33 H 0.36943 0.80120 -0.16511
 Cu34 Cu 0.34188 0.84208 -0.18031
 Cu35 Cu 0.34188 0.81766 -0.15598
 Cu36 Cu 0.31692 0.84330 -0.15655
 N37 N 0.32795 0.85674 -0.18009
 N38 N 0.31826 0.85703 -0.17074
 C39 C 0.31016 0.86816 -0.17261
 C40 C 0.31497 0.87529 -0.18368
 C41 C 0.32631 0.86778 -0.18826
 H42 H 0.30146 0.87099 -0.16627
 H43 H 0.33295 0.87022 -0.19671
 N44 N 0.31721 0.82856 -0.14294
 N45 N 0.32671 0.81874 -0.14270
 C46 C 0.32428 0.81041 -0.13207
 C47 C 0.31268 0.81529 -0.12533
 C48 C 0.30850 0.82677 -0.13247
 H49 H 0.33060 0.80163 -0.12930
 H50 H 0.29982 0.83341 -0.13006
 H51 H 0.32660 0.82747 -0.16703
 H52 H 0.33792 0.83850 -0.15615
 N53 N 0.85641 0.31424 -0.16878
 N54 N 0.85648 0.32437 -0.17759
 C55 C 0.86702 0.32232 -0.18634
 C56 C 0.87376 0.31023 -0.18274
 C57 C 0.86675 0.30542 -0.17161
 H58 H 0.86958 0.32908 -0.19465
 H59 H 0.86915 0.29620 -0.16591
 Cu60 Cu 0.84271 0.33911 -0.17662
 Cu61 Cu 0.84324 0.31319 -0.15407
 Cu62 Cu 0.81803 0.33853 -0.15237
 N63 N 0.82802 0.35294 -0.17583
 N64 N 0.81852 0.35267 -0.16629
 C65 C 0.80979 0.36337 -0.16798
 C66 C 0.81396 0.37072 -0.17919
 C67 C 0.82558 0.36383 -0.18397
 H68 H 0.80102 0.36567 -0.16154
 H69 H 0.83184 0.36653 -0.19262
 N70 N 0.81933 0.32332 -0.13923
 N71 N 0.82909 0.31377 -0.13987
 C72 C 0.82739 0.30485 -0.12962
 C73 C 0.81602 0.30890 -0.12221
 C74 C 0.81109 0.32066 -0.12854
 H75 H 0.83387 0.29594 -0.12769
 H76 H 0.80222 0.32680 -0.12561
 H77 H 0.82751 0.32377 -0.16417
 H78 H 0.83891 0.33408 -0.15267
 N79 N 0.85606 0.81268 0.32912
 N80 N 0.85625 0.82334 0.32095
 C81 C 0.86746 0.82229 0.31284
 C82 C 0.87454 0.81030 0.31619
 C83 C 0.86702 0.80452 0.32654
 H84 H 0.87011 0.82954 0.30499
 H85 H 0.86925 0.79492 0.33165
 Cu86 Cu 0.84153 0.83721 0.32146
 Cu87 Cu 0.84128 0.80956 0.34194
 Cu88 Cu 0.81852 0.83661 0.34729
 N89 N 0.82770 0.85172 0.32395
 N90 N 0.81905 0.85156 0.33422
 C91 C 0.81078 0.86274 0.33359
 C92 C 0.81437 0.87030 0.32232
 C93 C 0.82521 0.86304 0.31641
 H94 H 0.80258 0.86511 0.34069
 H95 H 0.83085 0.86574 0.30736
 N96 N 0.81951 0.82040 0.35925
 N97 N 0.82811 0.81005 0.35704
 C98 C 0.82625 0.80041 0.36662
 C99 C 0.81590 0.80482 0.37522
 C100 C 0.81182 0.81755 0.37028
 H101 H 0.83194 0.79082 0.36729
 H102 H 0.80381 0.82419 0.37432
 H103 H 0.82564 0.82231 0.33394
 H104 H 0.83904 0.83042 0.34508
 N105 N 0.64145 0.68793 0.32696
 N106 N 0.64014 0.67760 0.31845
 C107 C 0.62892 0.67986 0.31051
 C108 C 0.62294 0.69225 0.31436
 C109 C 0.63114 0.69704 0.32481
 H110 H 0.62547 0.67309 0.30249
 H111 H 0.62982 0.70660 0.33028
 Cu112 Cu 0.65353 0.66251 0.31851
 Cu113 Cu 0.65680 0.68928 0.33965
 Cu114 Cu 0.67938 0.66151 0.34178
 N115 N 0.66757 0.64804 0.31843
 N116 N 0.67757 0.64763 0.32755
 C117 C 0.68574 0.63662 0.32513
 C118 C 0.68055 0.62978 0.31390
 C119 C 0.66902 0.63728 0.30994
 H120 H 0.69474 0.63381 0.33113
 H121 H 0.66224 0.63503 0.30147
 N122 N 0.67944 0.67683 0.35498
 N123 N 0.67088 0.68743 0.35396
 C124 C 0.67344 0.69626 0.36416
 C125 C 0.68414 0.69106 0.37194
 C126 C 0.68775 0.67870 0.36587
 H127 H 0.66794 0.70583 0.36585
 H128 H 0.69587 0.67168 0.36907
 H129 H 0.67114 0.67639 0.32973
 H130 H 0.65896 0.66818 0.34196
 N131 N 0.64597 0.18052 -0.17096
 N132 N 0.64783 0.17145 -0.18071
 C133 C 0.63765 0.17289 -0.19000
 C134 C 0.62893 0.18336 -0.18588
 C135 C 0.63448 0.18802 -0.17373
 H136 H 0.63661 0.16681 -0.19914
 H137 H 0.63061 0.19631 -0.16747
 Cu138 Cu 0.66319 0.15846 -0.18037
 Cu139 Cu 0.65895 0.18224 -0.15572
 Cu140 Cu 0.68891 0.16232 -0.15790
 N141 N 0.67873 0.14562 -0.17969
 N142 N 0.68872 0.14721 -0.17073
 C143 C 0.69834 0.13731 -0.17246
 C144 C 0.69419 0.12905 -0.18310
 C145 C 0.68166 0.13459 -0.18749
 H146 H 0.70776 0.13629 -0.16651
 H147 H 0.67523 0.13100 -0.19576
 N148 N 0.68520 0.17502 -0.14288
 N149 N 0.67375 0.18245 -0.14172
 C150 C 0.67433 0.18956 -0.12994
 C151 C 0.68671 0.18629 -0.12347
 C152 C 0.69326 0.17708 -0.13192
 H153 H 0.66629 0.19641 -0.12629
 H154 H 0.70311 0.17202 -0.13005
 H155 H 0.67504 0.17625 -0.16735
 H156 H 0.66741 0.16260 -0.15642
 N157 N 0.14245 0.67918 -0.17254
 N158 N 0.14364 0.66988 -0.18215
 C159 C 0.13269 0.67086 -0.19061
 C160 C 0.12423 0.68141 -0.18612
 C161 C 0.13071 0.68648 -0.17460
 H162 H 0.13098 0.66438 -0.19939
 H163 H 0.12712 0.69471 -0.16810
 Cu164 Cu 0.15933 0.65736 -0.18265
 Cu165 Cu 0.15614 0.68093 -0.15804
 Cu166 Cu 0.18148 0.65550 -0.15619
 N167 N 0.17158 0.64172 -0.18015
 N168 N 0.18038 0.64100 -0.16993
 C169 C 0.18746 0.62903 -0.17071
 C170 C 0.18273 0.62193 -0.18200
 C171 C 0.17265 0.63025 -0.18769
 H172 H 0.19522 0.62566 -0.16346
 H173 H 0.16649 0.62806 -0.19663
 N174 N 0.18059 0.67117 -0.14340
 N175 N 0.17093 0.68084 -0.14419
 C176 C 0.17312 0.69016 -0.13432
 C177 C 0.18464 0.68619 -0.12694
 C178 C 0.18917 0.67411 -0.13296
 H179 H 0.16685 0.69925 -0.13263
 H180 H 0.19810 0.66799 -0.13006
 H181 H 0.17306 0.67146 -0.16727
 H182 H 0.16068 0.66001 -0.15821
 N183 N 0.14388 0.18763 0.32924
 N184 N 0.14260 0.17787 0.32013
 C185 C 0.13120 0.18041 0.31253
 C186 C 0.12511 0.19244 0.31720
 C187 C 0.13342 0.19673 0.32779
 H188 H 0.12779 0.17414 0.30411
 H189 H 0.13211 0.20595 0.33380
 Cu190 Cu 0.15632 0.16320 0.31858
 Cu191 Cu 0.15950 0.18839 0.34163
 Cu192 Cu 0.18042 0.15932 0.34346
 N193 N 0.16895 0.14756 0.31916
 N194 N 0.17813 0.14585 0.32895
 C195 C 0.18526 0.13409 0.32671
 C196 C 0.18023 0.12819 0.31488
 C197 C 0.16992 0.13699 0.31041
 H198 H 0.19354 0.13024 0.33312
 H199 H 0.16359 0.13572 0.30141
 N200 N 0.18116 0.17434 0.35698
 N201 N 0.17325 0.18543 0.35604
 C202 C 0.17621 0.19395 0.36638
 C203 C 0.18653 0.18807 0.37417
 C204 C 0.18948 0.17560 0.36797
 H205 H 0.17129 0.20381 0.36811
 H206 H 0.19719 0.16812 0.37110
 H207 H 0.17388 0.17540 0.33196
 H208 H 0.16035 0.16716 0.34266
 N209 N 0.64307 0.31929 0.66862
 N210 N 0.64362 0.32953 0.67734
 C211 C 0.63331 0.32823 0.68637
 C212 C 0.62586 0.31663 0.68317
 C213 C 0.63231 0.31115 0.67183
 H214 H 0.63125 0.33523 0.69466
 H215 H 0.62935 0.30205 0.66625
 Cu216 Cu 0.65765 0.34369 0.67633
 Cu217 Cu 0.65609 0.31766 0.65353
 Cu218 Cu 0.67926 0.34447 0.64986
 N219 N 0.67270 0.35687 0.67545
 N220 N 0.68118 0.35697 0.66507
 C221 C 0.69037 0.36716 0.66667
 C222 C 0.68751 0.37383 0.67870
 C223 C 0.67622 0.36706 0.68407
 H224 H 0.69841 0.36969 0.65951
 H225 H 0.67087 0.36945 0.69340
 N226 N 0.67866 0.32866 0.63754
 N227 N 0.67006 0.31827 0.63887
 C228 C 0.67241 0.30921 0.62871
 C229 C 0.68305 0.31423 0.62075
 C230 C 0.68673 0.32649 0.62667
 H231 H 0.66674 0.29980 0.62714
 H232 H 0.69473 0.33336 0.62321
 H233 H 0.67202 0.32887 0.66223
 H234 H 0.65854 0.33822 0.65208
 N235 N 0.64221 0.81469 1.17166
 N236 N 0.64162 0.82529 1.17994
 C237 C 0.63092 0.82356 1.18855
 C238 C 0.62459 0.81120 1.18541
 C239 C 0.63203 0.80590 1.17469
 H240 H 0.62806 0.83065 1.19653
 H241 H 0.63020 0.79627 1.16951
 Cu242 Cu 0.65517 0.84004 1.17859
 Cu243 Cu 0.65628 0.81263 1.15779
 Cu244 Cu 0.67759 0.84048 1.15240
 N245 N 0.66895 0.85451 1.17675
 N246 N 0.67744 0.85464 1.16634
 C247 C 0.68586 0.86553 1.16740
 C248 C 0.68253 0.87264 1.17905
 C249 C 0.67172 0.86540 1.18480
 H250 H 0.69397 0.86804 1.16029
 H251 H 0.66635 0.86781 1.19411
 N252 N 0.67632 0.82493 1.13966
 N253 N 0.66841 0.81419 1.14191
 C254 C 0.66992 0.80519 1.13163
 C255 C 0.67929 0.81046 1.12252
 C256 C 0.68316 0.82302 1.12790
 H257 H 0.66456 0.79550 1.13076
 H258 H 0.69042 0.83019 1.12362
 H259 H 0.67142 0.82582 1.16568
 H260 H 0.65741 0.83358 1.15486
 N261 N 0.14126 0.32195 1.17479
 N262 N 0.14290 0.33190 1.18368
 C263 C 0.13269 0.33125 1.19294
 C264 C 0.12426 0.32031 1.18971
 C265 C 0.12997 0.31463 1.17810
 H266 H 0.13145 0.33816 1.20145
 H267 H 0.12623 0.30587 1.17246
 Cu268 Cu 0.15831 0.34462 1.18230
 Cu269 Cu 0.15392 0.31920 1.15963
 Cu270 Cu 0.18150 0.34175 1.15715
 N271 N 0.17364 0.35739 1.18073
 N272 N 0.18277 0.35608 1.17095
 C273 C 0.19234 0.36600 1.17222
 C274 C 0.18902 0.37399 1.18334
 C275 C 0.17707 0.36826 1.18854
 H276 H 0.20104 0.36740 1.16550
 H277 H 0.17135 0.37168 1.19732
 N278 N 0.17841 0.32662 1.14418
 N279 N 0.16785 0.31812 1.14505
 C280 C 0.16846 0.30912 1.13466
 C281 C 0.17993 0.31209 1.12691
 C282 C 0.18603 0.32323 1.13323
 H283 H 0.16112 0.30098 1.13281
 H284 H 0.19523 0.32857 1.13003
 H285 H 0.17106 0.32771 1.16891
 H286 H 0.16024 0.33940 1.15817
 N287 N 0.14013 0.82141 0.67472
 N288 N 0.14175 0.83165 0.68330
 C289 C 0.13157 0.83126 0.69259
 C290 C 0.12312 0.82025 0.68966
 C291 C 0.12884 0.81420 0.67824
 H292 H 0.13030 0.83847 0.70086
 H293 H 0.12511 0.80528 0.67285
 Cu294 Cu 0.15707 0.84440 0.68149
 Cu295 Cu 0.15259 0.81836 0.65946
 Cu296 Cu 0.17750 0.84326 0.65408
 N297 N 0.17219 0.85731 0.67920
 N298 N 0.18024 0.85668 0.66849
 C299 C 0.18974 0.86669 0.66926
 C300 C 0.18755 0.87401 0.68108
 C301 C 0.17631 0.86779 0.68717
 H302 H 0.19761 0.86861 0.66173
 H303 H 0.17146 0.87069 0.69663
 N304 N 0.17550 0.82695 0.64243
 N305 N 0.16614 0.81737 0.64456
 C306 C 0.16746 0.80758 0.63497
 C307 C 0.17818 0.81114 0.62647
 C308 C 0.18307 0.82347 0.63149
 H309 H 0.16106 0.79854 0.63413
 H310 H 0.19147 0.82950 0.62748
 H311 H 0.16982 0.82856 0.66706
 H312 H 0.15660 0.83876 0.65736
 N313 N 0.35477 0.67811 0.67253
 N314 N 0.35560 0.66856 0.68193
 C315 C 0.36604 0.67154 0.69049
 C316 C 0.37214 0.68353 0.68625
 C317 C 0.36475 0.68749 0.67480
 H318 H 0.36900 0.66552 0.69927
 H319 H 0.36632 0.69659 0.66872
 Cu320 Cu 0.34287 0.65324 0.68246
 Cu321 Cu 0.34055 0.67769 0.65838
 Cu322 Cu 0.31730 0.65058 0.65935
 N323 N 0.32955 0.63843 0.68305
 N324 N 0.31958 0.63733 0.67398
 C325 C 0.31187 0.62623 0.67689
 C326 C 0.31735 0.62012 0.68843
 C327 C 0.32851 0.62812 0.69205
 H328 H 0.30290 0.62299 0.67113
 H329 H 0.33532 0.62649 0.70065
 N330 N 0.31665 0.66502 0.64537
 N331 N 0.32540 0.67539 0.64501
 C332 C 0.32200 0.68360 0.63447
 C333 C 0.31061 0.67807 0.62791
 C334 C 0.30751 0.66635 0.63508
 H335 H 0.32736 0.69292 0.63183
 H336 H 0.29908 0.65939 0.63298
 H337 H 0.32618 0.66698 0.66958
 H338 H 0.33785 0.65666 0.65838
 N339 N 0.35686 0.17929 1.17288
 N340 N 0.35791 0.16816 1.18035
 C341 C 0.36871 0.16940 1.18893
 C342 C 0.37481 0.18194 1.18669
 C343 C 0.36706 0.18802 1.17642
 H344 H 0.37203 0.16165 1.19613
 H345 H 0.36886 0.19784 1.17165
 Cu346 Cu 0.34536 0.15298 1.17805
 Cu347 Cu 0.34291 0.18098 1.15855
 Cu348 Cu 0.32040 0.15341 1.15435
 N349 N 0.32945 0.14112 1.17929
 N350 N 0.31974 0.14091 1.16989
 C351 C 0.31051 0.13105 1.17299
 C352 C 0.31471 0.12497 1.18508
 C353 C 0.32668 0.13166 1.18877
 H354 H 0.30154 0.12849 1.16689
 H355 H 0.33310 0.12955 1.19758
 N356 N 0.32000 0.16987 1.14258
 N357 N 0.32824 0.18049 1.14454
 C358 C 0.32561 0.18997 1.13493
 C359 C 0.31532 0.18513 1.12649
 C360 C 0.31193 0.17235 1.13161
 H361 H 0.33109 0.19955 1.13382
 H362 H 0.30432 0.16531 1.12758
 H363 H 0.32839 0.16785 1.16713
 H364 H 0.34074 0.16042 1.15461
 N365 N 0.85719 0.68174 1.17120
 N366 N 0.85574 0.67160 1.17988
 C367 C 0.86587 0.67234 1.18930
 C368 C 0.87406 0.68352 1.18639
 C369 C 0.86826 0.68926 1.17482
 H370 H 0.86728 0.66528 1.19769
 H371 H 0.87182 0.69819 1.16938
 Cu372 Cu 0.84063 0.65863 1.17791
 Cu373 Cu 0.84475 0.68435 1.15578
 Cu374 Cu 0.81799 0.66098 1.15198
 N375 N 0.82557 0.64563 1.17586
 N376 N 0.81674 0.64658 1.16567
 C377 C 0.80731 0.63651 1.16675
 C378 C 0.81039 0.62887 1.17820
 C379 C 0.82204 0.63496 1.18375
 H380 H 0.79874 0.63493 1.15983
 H381 H 0.82752 0.63189 1.19287
 N382 N 0.82102 0.67633 1.13927
 N383 N 0.83113 0.68528 1.14083
 C384 C 0.83040 0.69456 1.13074
 C385 C 0.81938 0.69130 1.12241
 C386 C 0.81362 0.67968 1.12809
 H387 H 0.83742 0.70307 1.12945
 H388 H 0.80472 0.67409 1.12442
 H389 H 0.82759 0.67518 1.16430
 H390 H 0.83908 0.66397 1.15381
 N391 N 0.85525 0.18030 0.66581
 N392 N 0.85454 0.17251 0.67668
 C393 C 0.86545 0.17525 0.68484
 C394 C 0.87333 0.18531 0.67870
 C395 C 0.86657 0.18823 0.66668
 H396 H 0.86735 0.17048 0.69458
 H397 H 0.86948 0.19589 0.65931
 Cu398 Cu 0.83932 0.15970 0.67919
 Cu399 Cu 0.84092 0.18068 0.65187
 Cu400 Cu 0.81220 0.16050 0.65761
 N401 N 0.82503 0.14561 0.67947
 N402 N 0.81456 0.14602 0.67088
 C403 C 0.80604 0.13548 0.67334
 C404 C 0.81139 0.12800 0.68403
 C405 C 0.82349 0.13469 0.68773
 H406 H 0.79652 0.13349 0.66785
 H407 H 0.83054 0.13192 0.69586
 N408 N 0.81400 0.17238 0.64168
 N409 N 0.82509 0.17980 0.63922
 C410 C 0.82321 0.18655 0.62740
 C411 C 0.81032 0.18312 0.62223
 C412 C 0.80481 0.17411 0.63151
 H413 H 0.83063 0.19345 0.62295
 H414 H 0.79485 0.16912 0.63082
 H415 H 0.82570 0.17565 0.66505
 H416 H 0.83340 0.16104 0.65522
 N417 N 0.31508 0.35549 0.66882
 N418 N 0.32479 0.35624 0.67818
 C419 C 0.32322 0.36810 0.68512
 C420 C 0.31188 0.37507 0.67975
 C421 C 0.30700 0.36679 0.66944
 H422 H 0.32972 0.37126 0.69351
 H423 H 0.29804 0.36869 0.66304
 Cu424 Cu 0.33801 0.34129 0.68079
 Cu425 Cu 0.31303 0.33950 0.65726
 Cu426 Cu 0.34184 0.31798 0.65559
 N427 N 0.35389 0.32899 0.68001
 N428 N 0.35552 0.32003 0.67012
 C429 C 0.36737 0.31290 0.67225
 C430 C 0.37344 0.31771 0.68411
 C431 C 0.36463 0.32791 0.68871
 H432 H 0.37119 0.30479 0.66572
 H433 H 0.36596 0.33406 0.69776
 N434 N 0.32657 0.31756 0.64210
 N435 N 0.31552 0.32560 0.64306
 C436 C 0.30675 0.32277 0.63282
 C437 C 0.31245 0.31245 0.62503
 C438 C 0.32504 0.30933 0.63117
 H439 H 0.29688 0.32784 0.63112
 H440 H 0.33242 0.30155 0.62804
 H441 H 0.32547 0.32453 0.66676
 H442 H 0.33432 0.33799 0.65659
 N443 N 0.31293 0.85932 0.16847
 N444 N 0.32217 0.85860 0.17831
 C445 C 0.32127 0.87013 0.18590
 C446 C 0.31092 0.87841 0.18041
 C447 C 0.30592 0.87125 0.16939
 H448 H 0.32765 0.87229 0.19469
 H449 H 0.29761 0.87442 0.16265
 Cu450 Cu 0.33442 0.84263 0.18012
 Cu451 Cu 0.30992 0.84449 0.15568
 Cu452 Cu 0.33429 0.81841 0.15557
 N453 N 0.34952 0.82929 0.17824
 N454 N 0.34946 0.82007 0.16847
 C455 C 0.36089 0.81216 0.16950
 C456 C 0.36856 0.81661 0.18048
 C457 C 0.36108 0.82755 0.18584
 H458 H 0.36341 0.80368 0.16283
 H459 H 0.36377 0.83373 0.19457
 N460 N 0.31971 0.82010 0.14160
 N461 N 0.31037 0.83008 0.14171
 C462 C 0.30179 0.82852 0.13101
 C463 C 0.30590 0.81703 0.12384
 C464 C 0.31732 0.81191 0.13081
 H465 H 0.29313 0.83522 0.12859
 H466 H 0.32338 0.80289 0.12830
 H467 H 0.31889 0.82836 0.16615
 H468 H 0.33071 0.83931 0.15592
 N469 N 0.81665 0.36143 0.17238
 N470 N 0.82544 0.35986 0.18251
 C471 C 0.82488 0.37110 0.19052
 C472 C 0.81520 0.38013 0.18502
 C473 C 0.81024 0.37368 0.17353
 H474 H 0.83108 0.37258 0.19957
 H475 H 0.80239 0.37756 0.16663
 Cu476 Cu 0.83690 0.34336 0.18407
 Cu477 Cu 0.81345 0.34714 0.15901
 Cu478 Cu 0.83611 0.31953 0.15918
 N479 N 0.85179 0.32992 0.18178
 N480 N 0.85149 0.32082 0.17191
 C481 C 0.86292 0.31286 0.17263
 C482 C 0.87082 0.31717 0.18352
 C483 C 0.86348 0.32806 0.18914
 H484 H 0.86529 0.30448 0.16579
 H485 H 0.86636 0.33416 0.19786
 N486 N 0.82178 0.32216 0.14506
 N487 N 0.81329 0.33285 0.14489
 C488 C 0.80483 0.33187 0.13403
 C489 C 0.80809 0.31998 0.12709
 C490 C 0.81892 0.31405 0.13432
 H491 H 0.79674 0.33916 0.13141
 H492 H 0.82431 0.30457 0.13199
 H493 H 0.82097 0.33027 0.16941
 H494 H 0.83388 0.34048 0.15975
 N495 N 0.81328 0.85685 0.67210
 N496 N 0.82390 0.85667 0.68050
 C497 C 0.82361 0.86820 0.68812
 C498 C 0.81214 0.87591 0.68420
 C499 C 0.80587 0.86842 0.67403
 H500 H 0.83111 0.87071 0.69590
 H501 H 0.79651 0.87113 0.66853
 Cu502 Cu 0.83677 0.84118 0.68089
 Cu503 Cu 0.80935 0.84183 0.65979
 Cu504 Cu 0.83664 0.81924 0.65428
 N505 N 0.85182 0.82816 0.67785
 N506 N 0.85185 0.81986 0.66730
 C507 C 0.86333 0.81193 0.66775
 C508 C 0.87087 0.81541 0.67917
 C509 C 0.86329 0.82579 0.68536
 H510 H 0.86588 0.80399 0.66047
 H511 H 0.86584 0.83115 0.69465
 N512 N 0.82012 0.82016 0.64244
 N513 N 0.80965 0.82863 0.64474
 C514 C 0.79980 0.82665 0.63523
 C515 C 0.80422 0.81639 0.62659
 C516 C 0.81716 0.81247 0.63143
 H517 H 0.79008 0.83223 0.63464
 H518 H 0.82387 0.80456 0.62735
 H519 H 0.82187 0.82590 0.66742
 H520 H 0.83035 0.83947 0.65706
 N521 N 0.68069 0.64077 0.67335
 N522 N 0.67137 0.64220 0.68293
 C523 C 0.67231 0.63144 0.69147
 C524 C 0.68281 0.62287 0.68704
 C525 C 0.68793 0.62907 0.67548
 H526 H 0.66585 0.62992 0.70027
 H527 H 0.69622 0.62538 0.66907
 Cu528 Cu 0.65891 0.65794 0.68353
 Cu529 Cu 0.68270 0.65425 0.65897
 Cu530 Cu 0.65894 0.68118 0.65809
 N531 N 0.64478 0.67212 0.68195
 N532 N 0.64470 0.68125 0.67213
 C533 C 0.63361 0.68965 0.67367
 C534 C 0.62643 0.68545 0.68507
 C535 C 0.63379 0.67434 0.69002
 H536 H 0.63091 0.69802 0.66693
 H537 H 0.63119 0.66823 0.69879
 N538 N 0.67418 0.67918 0.64484
 N539 N 0.68314 0.66885 0.64521
 C540 C 0.69229 0.67030 0.63506
 C541 C 0.68898 0.68205 0.62794
 C542 C 0.67743 0.68748 0.63438
 H543 H 0.70084 0.66338 0.63300
 H544 H 0.67189 0.69680 0.63174
 H545 H 0.67427 0.67116 0.66897
 H546 H 0.66193 0.66021 0.65913
 N547 N 0.68326 0.14060 0.17286
 N548 N 0.67375 0.14195 0.18229
 C549 C 0.67377 0.13067 0.19014
 C550 C 0.68390 0.12179 0.18547
 C551 C 0.68977 0.12840 0.17447
 H552 H 0.66698 0.12905 0.19868
 H553 H 0.69808 0.12466 0.16810
 Cu554 Cu 0.66225 0.15831 0.18375
 Cu555 Cu 0.68646 0.15497 0.15943
 Cu556 Cu 0.65964 0.17874 0.15656
 N557 N 0.64700 0.17125 0.18175
 N558 N 0.64596 0.17907 0.17093
 C559 C 0.63440 0.18679 0.17179
 C560 C 0.62781 0.18363 0.18375
 C561 C 0.63607 0.17371 0.18989
 H562 H 0.63095 0.19412 0.16424
 H563 H 0.63424 0.16854 0.19942
 N564 N 0.67450 0.17696 0.14313
 N565 N 0.68488 0.16809 0.14416
 C566 C 0.69326 0.16959 0.13333
 C567 C 0.68779 0.17993 0.12522
 C568 C 0.67599 0.18433 0.13173
 H569 H 0.70250 0.16354 0.13144
 H570 H 0.66899 0.19235 0.12831
 H571 H 0.67624 0.17176 0.16785
 H572 H 0.66562 0.15831 0.15935
 N573 N 0.18603 0.64624 0.16889
 N574 N 0.17816 0.64615 0.17973
 C575 C 0.18116 0.63489 0.18714
 C576 C 0.19151 0.62758 0.18054
 C577 C 0.19433 0.63507 0.16901
 H578 H 0.17629 0.63237 0.19667
 H579 H 0.20206 0.63270 0.16143
 Cu580 Cu 0.16501 0.66092 0.18336
 Cu581 Cu 0.18562 0.66133 0.15601
 Cu582 Cu 0.15894 0.68501 0.15959
 N583 N 0.14848 0.67245 0.18375
 N584 N 0.14607 0.68178 0.17438
 C585 C 0.13423 0.68853 0.17734
 C586 C 0.12894 0.68307 0.18920
 C587 C 0.13822 0.67287 0.19295
 H588 H 0.12997 0.69689 0.17139
 H589 H 0.13764 0.66640 0.20184
 N590 N 0.17144 0.68474 0.14379
 N591 N 0.18163 0.67570 0.14249
 C592 C 0.18841 0.67817 0.13085
 C593 C 0.18222 0.68934 0.12454
 C594 C 0.17148 0.69320 0.13297
 H595 H 0.19719 0.67226 0.12729
 H596 H 0.16429 0.70164 0.13136
 H597 H 0.17676 0.67662 0.16766
 H598 H 0.16466 0.66458 0.15900
 N599 N 0.18662 0.14322 0.66935
 N600 N 0.17631 0.14202 0.67794
 C601 C 0.17916 0.13164 0.68658
 C602 C 0.19192 0.12606 0.68315
 C603 C 0.19635 0.13367 0.67221
 H604 H 0.17244 0.12841 0.69470
 H605 H 0.20586 0.13218 0.66662
 Cu606 Cu 0.16016 0.15409 0.67714
 Cu607 Cu 0.18639 0.15646 0.65460
 Cu608 Cu 0.15663 0.17625 0.65117
 N609 N 0.14605 0.16852 0.67719
 N610 N 0.14475 0.17708 0.66695
 C611 C 0.13377 0.18538 0.66906
 C612 C 0.12790 0.18192 0.68130
 C613 C 0.13593 0.17116 0.68625
 H614 H 0.13012 0.19315 0.66204
 H615 H 0.13427 0.16541 0.69547
 N616 N 0.17237 0.17752 0.63872
 N617 N 0.18390 0.17029 0.64020
 C618 C 0.19268 0.17357 0.63013
 C619 C 0.18633 0.18337 0.62200
 C620 C 0.17351 0.18563 0.62774
 H621 H 0.20281 0.16898 0.62870
 H622 H 0.16557 0.19265 0.62413
 H623 H 0.17290 0.17053 0.66356
 H624 H 0.16540 0.15653 0.65287
 N625 N 0.31649 0.64599 0.32967
 N626 N 0.32630 0.64469 0.32052
 C627 C 0.32308 0.63420 0.31213
 C628 C 0.31061 0.62867 0.31635
 C629 C 0.30678 0.63639 0.32747
 H630 H 0.32934 0.63084 0.30366
 H631 H 0.29762 0.63502 0.33359
 Cu632 Cu 0.34230 0.65689 0.32041
 Cu633 Cu 0.31707 0.65957 0.34414
 Cu634 Cu 0.34681 0.67899 0.34631
 N635 N 0.35631 0.67131 0.31979
 N636 N 0.35779 0.67991 0.32998
 C637 C 0.36819 0.68857 0.32735
 C638 C 0.37359 0.68532 0.31484
 C639 C 0.36585 0.67427 0.31024
 H640 H 0.37170 0.69657 0.33416
 H641 H 0.36714 0.66874 0.30080
 N642 N 0.33153 0.68073 0.35921
 N643 N 0.31993 0.67371 0.35819
 C644 C 0.31130 0.67770 0.36819
 C645 C 0.31784 0.68777 0.37577
 C646 C 0.33060 0.68942 0.36979
 H647 H 0.30104 0.67363 0.36978
 H648 H 0.33854 0.69661 0.37282
 H649 H 0.33001 0.67339 0.33454
 H650 H 0.33800 0.65927 0.34488
 N651 N 0.32161 0.14129 0.82901
 N652 N 0.33265 0.14105 0.82125
 C653 C 0.33172 0.13049 0.81248
 C654 C 0.31947 0.12371 0.81488
 C655 C 0.31327 0.13082 0.82546
 H656 H 0.33946 0.12781 0.80500
 H657 H 0.30355 0.12848 0.83034
 Cu658 Cu 0.34746 0.15419 0.82359
 Cu659 Cu 0.31929 0.15494 0.84335
 Cu660 Cu 0.34347 0.18119 0.84462
 N661 N 0.35940 0.17005 0.82259
 N662 N 0.35795 0.18066 0.83076
 C663 C 0.36796 0.18986 0.82802
 C664 C 0.37603 0.18463 0.81758
 C665 C 0.37029 0.17211 0.81441
 H666 H 0.36943 0.19942 0.83342
 H667 H 0.37395 0.16491 0.80683
 N668 N 0.32800 0.17968 0.85765
 N669 N 0.31881 0.16969 0.85709
 C670 C 0.30994 0.17110 0.86750
 C671 C 0.31369 0.18247 0.87500
 C672 C 0.32519 0.18770 0.86849
 H673 H 0.30152 0.16420 0.86971
 H674 H 0.33124 0.19648 0.87157
 H675 H 0.33012 0.16979 0.83276
 H676 H 0.33986 0.16039 0.84636
 N677 N 0.81248 0.64324 0.82751
 N678 N 0.82344 0.64075 0.82000
 C679 C 0.82129 0.62926 0.81268
 C680 C 0.80825 0.62434 0.81582
 C681 C 0.80296 0.63348 0.82522
 H682 H 0.82856 0.62501 0.80546
 H683 H 0.79285 0.63315 0.82992
 Cu684 Cu 0.83904 0.65323 0.81994
 Cu685 Cu 0.81114 0.65934 0.83909
 Cu686 Cu 0.84206 0.67636 0.84505
 N687 N 0.85223 0.66815 0.81894
 N688 N 0.85358 0.67714 0.82883
 C689 C 0.86370 0.68602 0.82563
 C690 C 0.86886 0.68240 0.81300
 C691 C 0.86134 0.67105 0.80908
 H692 H 0.86695 0.69446 0.83202
 H693 H 0.86247 0.66530 0.79974
 N694 N 0.82577 0.67831 0.85691
 N695 N 0.81390 0.67214 0.85430
 C696 C 0.80478 0.67534 0.86409
 C697 C 0.81114 0.68396 0.87326
 C698 C 0.82447 0.68569 0.86843
 H699 H 0.79434 0.67140 0.86470
 H700 H 0.83265 0.69170 0.87298
 H701 H 0.82700 0.67188 0.83173
 H702 H 0.83175 0.65743 0.84333
 N703 N 0.81956 0.13718 0.32837
 N704 N 0.83060 0.13720 0.32060
 C705 C 0.82993 0.12662 0.31184
 C706 C 0.81788 0.11952 0.31427
 C707 C 0.81150 0.12648 0.32486
 H708 H 0.83764 0.12425 0.30423
 H709 H 0.80173 0.12405 0.32958
 Cu710 Cu 0.84479 0.15099 0.32257
 Cu711 Cu 0.81659 0.15124 0.34226
 Cu712 Cu 0.83964 0.17854 0.34253
 N713 N 0.85593 0.16731 0.32079
 N714 N 0.85410 0.17808 0.32866
 C715 C 0.86316 0.18790 0.32504
 C716 C 0.87097 0.18293 0.31430
 C717 C 0.86608 0.16988 0.31187
 H718 H 0.86380 0.19795 0.32969
 H719 H 0.86957 0.16284 0.30408
 N720 N 0.82423 0.17688 0.35561
 N721 N 0.81548 0.16650 0.35546
 C722 C 0.80621 0.16827 0.36549
 C723 C 0.80923 0.18029 0.37228
 C724 C 0.82073 0.18552 0.36577
 H725 H 0.79782 0.16134 0.36774
 H726 H 0.82613 0.19491 0.36820
 H727 H 0.82675 0.16612 0.33118
 H728 H 0.83685 0.15766 0.34511
 N729 N 0.68080 0.36376 0.32556
 N730 N 0.66954 0.36476 0.31806
 C731 C 0.67093 0.37515 0.30921
 C732 C 0.68373 0.38103 0.31130
 C733 C 0.68977 0.37356 0.32178
 H734 H 0.66326 0.37815 0.30171
 H735 H 0.69990 0.37504 0.32625
 Cu736 Cu 0.65434 0.35216 0.32022
 Cu737 Cu 0.68283 0.34981 0.33964
 Cu738 Cu 0.65572 0.32666 0.34296
 N739 N 0.64252 0.33628 0.31862
 N740 N 0.64285 0.32631 0.32759
 C741 C 0.63321 0.31692 0.32424
 C742 C 0.62665 0.32130 0.31243
 C743 C 0.63285 0.33356 0.30916
 H744 H 0.63117 0.30768 0.32995
 H745 H 0.63037 0.34010 0.30061
 N746 N 0.67239 0.32631 0.35470
 N747 N 0.68273 0.33501 0.35331
 C748 C 0.69250 0.33215 0.36270
 C749 C 0.68816 0.32115 0.37034
 C750 C 0.67535 0.31765 0.36500
 H751 H 0.70209 0.33770 0.36401
 H752 H 0.66869 0.30944 0.36832
 H753 H 0.66994 0.33544 0.33046
 H754 H 0.66217 0.34703 0.34346
 N755 N 0.68070 0.85885 0.82317
 N756 N 0.67053 0.85824 0.81428
 C757 C 0.67225 0.86816 0.80493
 C758 C 0.68412 0.87531 0.80812
 C759 C 0.68926 0.86915 0.81979
 H760 H 0.66540 0.87008 0.79641
 H761 H 0.69846 0.87193 0.82544
 Cu762 Cu 0.65611 0.84455 0.81587
 Cu763 Cu 0.68195 0.84626 0.83851
 Cu764 Cu 0.65612 0.82165 0.84136
 N765 N 0.64173 0.83085 0.81739
 N766 N 0.64169 0.82180 0.82728
 C767 C 0.63048 0.81368 0.82586
 C768 C 0.62319 0.81800 0.81446
 C769 C 0.63058 0.82887 0.80940
 H770 H 0.62774 0.80547 0.83271
 H771 H 0.62791 0.83495 0.80058
 N772 N 0.67166 0.82331 0.85447
 N773 N 0.68143 0.83267 0.85329
 C774 C 0.69044 0.83132 0.86368
 C775 C 0.68620 0.82066 0.87180
 C776 C 0.67424 0.81577 0.86570
 H777 H 0.69945 0.83766 0.86532
 H778 H 0.66787 0.80742 0.86921
 H779 H 0.67142 0.83006 0.82958
 H780 H 0.66092 0.84218 0.84005
 N781 N 0.17840 0.35481 0.83511
 N782 N 0.17107 0.35431 0.82383
 C783 C 0.17417 0.36527 0.81609
 C784 C 0.18396 0.37302 0.82299
 C785 C 0.18632 0.36611 0.83500
 H786 H 0.16968 0.36740 0.80624
 H787 H 0.19340 0.36903 0.84304
 Cu788 Cu 0.15822 0.33931 0.82055
 Cu789 Cu 0.17713 0.34087 0.84919
 Cu790 Cu 0.16195 0.31050 0.83873
 N791 N 0.14461 0.32463 0.81939
 N792 N 0.14631 0.31331 0.82650
 C793 C 0.13584 0.30469 0.82381
 C794 C 0.12705 0.31091 0.81456
 C795 C 0.13290 0.32360 0.81192
 H796 H 0.13464 0.29466 0.82835
 H797 H 0.12894 0.33149 0.80519
 N798 N 0.17376 0.31181 0.85495
 N799 N 0.17919 0.32346 0.85921
 C800 C 0.18640 0.32108 0.87073
 C801 C 0.18535 0.30725 0.87385
 C802 C 0.17726 0.30172 0.86366
 H803 H 0.19205 0.32882 0.87629
 H804 H 0.17409 0.29112 0.86271
 H805 H 0.17540 0.32681 0.83419
 H806 H 0.15907 0.33042 0.84368
 N807 N 0.18197 0.85942 0.33404
 N808 N 0.17360 0.85827 0.32353
 C809 C 0.17597 0.86878 0.31492
 C810 C 0.18639 0.87682 0.32044
 C811 C 0.18991 0.87057 0.33252
 H812 H 0.17045 0.87051 0.30549
 H813 H 0.19762 0.87401 0.33975
 Cu814 Cu 0.16032 0.84325 0.32256
 Cu815 Cu 0.18177 0.84684 0.34926
 Cu816 Cu 0.16055 0.81848 0.34659
 N817 N 0.14665 0.82858 0.32258
 N818 N 0.14695 0.81892 0.33190
 C819 C 0.13631 0.81031 0.32979
 C820 C 0.12896 0.81475 0.31856
 C821 C 0.13579 0.82639 0.31419
 H822 H 0.13390 0.80158 0.33613
 H823 H 0.13291 0.83293 0.30576
 N824 N 0.17490 0.82030 0.36079
 N825 N 0.18282 0.83125 0.36183
 C826 C 0.19143 0.82970 0.37249
 C827 C 0.18877 0.81726 0.37855
 C828 C 0.17821 0.81151 0.37090
 H829 H 0.19911 0.83709 0.37569
 H830 H 0.17327 0.80173 0.37259
 H831 H 0.17569 0.83027 0.33747
 H832 H 0.16151 0.83928 0.34697
 C833 C 0.24146 1.00171 0.25559
 C834 C 0.25111 1.00174 0.24552
 C835 C 0.25517 1.01467 0.23856
 C836 C 0.25815 0.98884 0.24102
 C837 C 0.23474 0.98875 0.26003
 C838 C 0.23713 1.01463 0.26260
 C839 C 0.24507 1.02380 0.23346
 C840 C 0.24897 1.03562 0.22644
 C841 C 0.26303 1.03852 0.22427
 C842 C 0.27312 1.02921 0.22915
 C843 C 0.26922 1.01747 0.23627
 C844 C 0.25962 0.98599 0.22713
 C845 C 0.26701 0.97441 0.22279
 C846 C 0.27306 0.96533 0.23229
 C847 C 0.27163 0.96825 0.24618
 C848 C 0.26429 0.97988 0.25051
 C849 C 0.23349 0.98576 0.27389
 C850 C 0.22671 0.97389 0.27814
 C851 C 0.22107 0.96470 0.26857
 C852 C 0.22213 0.96785 0.25471
 C853 C 0.22887 0.97975 0.25048
 C854 C 0.24706 1.02386 0.26761
 C855 C 0.24294 1.03577 0.27449
 C856 C 0.22884 1.03867 0.27667
 C857 C 0.21891 1.02924 0.27189
 C858 C 0.22304 1.01740 0.26490
 H859 H 0.23415 1.02169 0.23477
 H860 H 0.24097 1.04249 0.22264
 H861 H 0.28404 1.03068 0.22730
 H862 H 0.27719 1.01046 0.23990
 H863 H 0.25516 0.99287 0.21962
 H864 H 0.26817 0.97290 0.21199
 H865 H 0.26363 0.98204 0.26127
 H866 H 0.23771 0.99267 0.28145
 H867 H 0.22569 0.97219 0.28892
 H868 H 0.21770 0.96108 0.24713
 H869 H 0.22936 0.98202 0.23973
 H870 H 0.25802 1.02178 0.26632
 H871 H 0.25084 1.04271 0.27819
 H872 H 0.20796 1.03073 0.27366
 H873 H 0.21520 1.01034 0.26132
 H874 H 0.27630 0.96155 0.25372
 C875 C 0.24364 0.49698 0.75933
 C876 C 0.25302 0.49701 0.74902
 C877 C 0.25734 0.50999 0.74232
 C878 C 0.25952 0.48406 0.74398
 C879 C 0.23681 0.48409 0.76378
 C880 C 0.23964 0.50989 0.76649
 C881 C 0.24744 0.51957 0.73767
 C882 C 0.25159 0.53146 0.73093
 C883 C 0.26569 0.53397 0.72854
 C884 C 0.27557 0.52420 0.73296
 C885 C 0.27143 0.51240 0.73982
 C886 C 0.26024 0.48147 0.72999
 C887 C 0.26722 0.46987 0.72510
 C888 C 0.27362 0.46057 0.73414
 C889 C 0.27292 0.46321 0.74814
 C890 C 0.26595 0.47484 0.75302
 C891 C 0.23595 0.48088 0.77763
 C892 C 0.22914 0.46902 0.78188
 C893 C 0.22305 0.46010 0.77233
 C894 C 0.22373 0.46348 0.75850
 C895 C 0.23051 0.47534 0.75426
 C896 C 0.24978 0.51870 0.77180
 C897 C 0.24593 0.53075 0.77858
 C898 C 0.23189 0.53413 0.78039
 C899 C 0.22173 0.52530 0.77502
 C900 C 0.22559 0.51326 0.76823
 H901 H 0.23648 0.51774 0.73908
 H902 H 0.24373 0.53869 0.72748
 H903 H 0.28648 0.52538 0.73092
 H904 H 0.27924 0.50505 0.74308
 H905 H 0.25554 0.48857 0.72283
 H906 H 0.26789 0.46854 0.71423
 H907 H 0.26583 0.47679 0.76384
 H908 H 0.24053 0.48759 0.78517
 H909 H 0.22844 0.46713 0.79266
 H910 H 0.21896 0.45691 0.75094
 H911 H 0.23070 0.47779 0.74355
 H912 H 0.26069 0.51622 0.77075
 H913 H 0.25395 0.53740 0.78253
 H914 H 0.21081 0.52774 0.77574
 H915 H 0.21760 0.50666 0.76413
 H916 H 0.27788 0.45631 0.75532
 C917 C 0.74362 -0.00499 0.24489
 C918 C 0.75322 -0.00497 0.25511
 C919 C 0.75978 -0.01796 0.26006
 C920 C 0.75763 0.00804 0.26178
 C921 C 0.73953 0.00788 0.23770
 C922 C 0.73674 -0.01789 0.24042
 C923 C 0.76029 -0.02068 0.27400
 C924 C 0.76681 -0.03242 0.27909
 C925 C 0.77378 -0.04278 0.26991
 C926 C 0.77271 -0.03902 0.25522
 C927 C 0.76602 -0.02706 0.25086
 C928 C 0.74775 0.01749 0.26664
 C929 C 0.75194 0.02950 0.27320
 C930 C 0.76607 0.03232 0.27514
 C931 C 0.77596 0.02270 0.27051
 C932 C 0.77176 0.01070 0.26389
 C933 C 0.74963 0.01662 0.23231
 C934 C 0.74572 0.02845 0.22518
 C935 C 0.73166 0.03178 0.22324
 C936 C 0.72155 0.02288 0.22845
 C937 C 0.72547 0.01107 0.23561
 C938 C 0.73577 -0.02107 0.22656
 C939 C 0.72873 -0.03279 0.22222
 C940 C 0.72252 -0.04161 0.23170
 C941 C 0.72337 -0.03831 0.24556
 C942 C 0.73040 -0.02657 0.24988
 H943 H 0.75553 -0.01358 0.28108
 H944 H 0.76691 -0.03404 0.28994
 H945 H 0.77739 -0.04573 0.24773
 H946 H 0.76586 -0.02478 0.24011
 H947 H 0.73678 0.01549 0.26547
 H948 H 0.74409 0.03662 0.27682
 H949 H 0.77956 0.00346 0.26042
 H950 H 0.76055 0.01420 0.23349
 H951 H 0.75373 0.03501 0.22114
 H952 H 0.71061 0.02476 0.22680
 H953 H 0.71750 0.00436 0.23948
 H954 H 0.74040 -0.01440 0.21907
 H955 H 0.72792 -0.03462 0.21143
 H956 H 0.71853 -0.04480 0.25306
 H957 H 0.73070 -0.02414 0.26061
 H958 H 0.78693 0.02415 0.27220
 C959 C 0.74767 0.49703 0.74277
 C960 C 0.75851 0.49644 0.75168
 C961 C 0.76438 0.48315 0.75651
 C962 C 0.76514 0.50908 0.75706
 C963 C 0.74315 0.51020 0.73648
 C964 C 0.73990 0.48453 0.73871
 C965 C 0.76551 0.48077 0.77046
 C966 C 0.77143 0.46874 0.77552
 C967 C 0.77707 0.45768 0.76628
 C968 C 0.77539 0.46111 0.75154
 C969 C 0.76932 0.47340 0.74721
 C970 C 0.75722 0.51940 0.76337
 C971 C 0.76361 0.53107 0.76870
 C972 C 0.77809 0.53260 0.76785
 C973 C 0.78599 0.52212 0.76177
 C974 C 0.77958 0.51049 0.75641
 C975 C 0.75257 0.51840 0.72939
 C976 C 0.74815 0.53067 0.72336
 C977 C 0.73422 0.53488 0.72413
 C978 C 0.72481 0.52665 0.73130
 C979 C 0.72923 0.51437 0.73730
 C980 C 0.73766 0.48171 0.72491
 C981 C 0.73032 0.47008 0.72092
 C982 C 0.72510 0.46095 0.73069
 C983 C 0.72697 0.46401 0.74450
 C984 C 0.73429 0.47570 0.74849
 H985 H 0.76173 0.48840 0.77758
 H986 H 0.77206 0.46744 0.78640
 H987 H 0.77911 0.45388 0.74400
 H988 H 0.76862 0.47543 0.73642
 H989 H 0.74610 0.51832 0.76435
 H990 H 0.75719 0.53863 0.77375
 H991 H 0.78590 0.50257 0.75172
 H992 H 0.76332 0.51526 0.72847
 H993 H 0.75562 0.53683 0.71795
 H994 H 0.71409 0.52969 0.73255
 H995 H 0.72182 0.50819 0.74276
 H996 H 0.74166 0.48853 0.71721
 H997 H 0.72858 0.46844 0.71019
 H998 H 0.72286 0.45729 0.75222
 H999 H 0.73554 0.47789 0.75920
 H1000 H 0.79716 0.52296 0.76112
 C1001 C 0.24447 0.50083 0.24643
 C1002 C 0.25555 0.50143 0.25505
 C1003 C 0.26160 0.48889 0.26137
 C1004 C 0.26201 0.51466 0.25906
 C1005 C 0.23820 0.51338 0.24037
 C1006 C 0.23787 0.48761 0.24260
 C1007 C 0.26247 0.48807 0.27555
 C1008 C 0.26774 0.47628 0.28179
 C1009 C 0.27232 0.46504 0.27402
 C1010 C 0.27169 0.46597 0.25975
 C1011 C 0.26647 0.47785 0.25350
 C1012 C 0.25430 0.52508 0.26545
 C1013 C 0.26076 0.53718 0.26976
 C1014 C 0.27512 0.53901 0.26782
 C1015 C 0.28274 0.52848 0.26148
 C1016 C 0.27627 0.51644 0.25717
 C1017 C 0.24602 0.52244 0.23247
 C1018 C 0.23977 0.53406 0.22666
 C1019 C 0.22554 0.53677 0.22864
 C1020 C 0.21776 0.52753 0.23637
 C1021 C 0.22401 0.51597 0.24216
 C1022 C 0.23640 0.48425 0.22882
 C1023 C 0.23010 0.47200 0.22489
 C1024 C 0.22519 0.46275 0.23471
 C1025 C 0.22636 0.46630 0.24850
 C1026 C 0.23260 0.47863 0.25242
 H1027 H 0.25883 0.49651 0.28181
 H1028 H 0.26811 0.47591 0.29278
 H1029 H 0.27504 0.45763 0.25329
 H1030 H 0.26610 0.47839 0.24252
 H1031 H 0.24334 0.52375 0.26732
 H1032 H 0.25448 0.54480 0.27485
 H1033 H 0.28243 0.50846 0.25239
 H1034 H 0.25692 0.52042 0.23069
 H1035 H 0.24611 0.54066 0.22049
 H1036 H 0.20679 0.52929 0.23798
 H1037 H 0.21777 0.50904 0.24813
 H1038 H 0.24017 0.49116 0.22108
 H1039 H 0.22891 0.47001 0.21416
 H1040 H 0.22246 0.45950 0.25626
 H1041 H 0.23329 0.48118 0.26310
 H1042 H 0.29379 0.52953 0.25993
 C1043 C 0.75214 1.00196 0.76004
 C1044 C 0.76363 1.00192 0.75206
 C1045 C 0.76977 1.01480 0.74681
 C1046 C 0.77067 0.98898 0.74786
 C1047 C 0.74621 0.98911 0.76558
 C1048 C 0.74494 1.01489 0.76398
 C1049 C 0.76206 1.02395 0.73869
 C1050 C 0.76828 1.03571 0.73338
 C1051 C 0.78236 1.03847 0.73606
 C1052 C 0.79002 1.02919 0.74405
 C1053 C 0.78380 1.01749 0.74937
 C1054 C 0.77267 0.98644 0.73400
 C1055 C 0.77928 0.97444 0.72967
 C1056 C 0.78393 0.96460 0.73915
 C1057 C 0.78231 0.96735 0.75306
 C1058 C 0.77577 0.97947 0.75739
 C1059 C 0.74466 0.98781 0.77966
 C1060 C 0.73912 0.97589 0.78519
 C1061 C 0.73493 0.96500 0.77680
 C1062 C 0.73635 0.96637 0.76263
 C1063 C 0.74185 0.97838 0.75708
 C1064 C 0.75190 1.02536 0.77099
 C1065 C 0.74477 1.03724 0.77501
 C1066 C 0.73051 1.03879 0.77215
 C1067 C 0.72358 1.02818 0.76533
 C1068 C 0.73072 1.01636 0.76128
 H1069 H 0.75131 1.02185 0.73628
 H1070 H 0.76212 1.04233 0.72689
 H1071 H 0.80089 1.03099 0.74618
 H1072 H 0.78995 1.01048 0.75550
 H1073 H 0.76906 0.99378 0.72649
 H1074 H 0.78089 0.97307 0.71890
 H1075 H 0.77467 0.98141 0.76816
 H1076 H 0.74789 0.99601 0.78639
 H1077 H 0.73815 0.97517 0.79612
 H1078 H 0.73333 0.95830 0.75572
 H1079 H 0.74275 0.97929 0.74617
 H1080 H 0.76278 1.02423 0.77353
 H1081 H 0.75039 1.04493 0.78067
 H1082 H 0.71259 1.02904 0.76314
 H1083 H 0.72513 1.00832 0.75602
 H1084 H 0.78601 0.96007 0.76057
 C1085 C 0.75160 0.50608 0.26046
 C1086 C 0.76168 0.50501 0.25087
 C1087 C 0.76744 0.51729 0.24402
 C1088 C 0.76768 0.49150 0.24682
 C1089 C 0.74517 0.49374 0.26656
 C1090 C 0.74665 0.51960 0.26560
 C1091 C 0.75879 0.52673 0.23723
 C1092 C 0.76444 0.53810 0.23063
 C1093 C 0.77890 0.54016 0.23064
 C1094 C 0.78747 0.53055 0.23729
 C1095 C 0.78182 0.51924 0.24388
 C1096 C 0.76790 0.48776 0.23307
 C1097 C 0.77388 0.47532 0.22901
 C1098 C 0.77997 0.46643 0.23864
 C1099 C 0.77959 0.47012 0.25242
 C1100 C 0.77363 0.48260 0.25647
 C1101 C 0.74517 0.49217 0.28070
 C1102 C 0.73934 0.48055 0.28660
 C1103 C 0.73336 0.47027 0.27851
 C1104 C 0.73305 0.47203 0.26432
 C1105 C 0.73889 0.48369 0.25842
 C1106 C 0.75591 0.52909 0.27130
 C1107 C 0.75101 0.54154 0.27657
 C1108 C 0.73676 0.54467 0.27645
 C1109 C 0.72753 0.53520 0.27056
 C1110 C 0.73244 0.52276 0.26530
 H1111 H 0.74768 0.52523 0.23694
 H1112 H 0.75741 0.54503 0.22546
 H1113 H 0.79862 0.53181 0.23743
 H1114 H 0.78868 0.51202 0.24897
 H1115 H 0.76332 0.49446 0.22548
 H1116 H 0.77349 0.47264 0.21836
 H1117 H 0.77377 0.48538 0.26712
 H1118 H 0.74987 0.49986 0.28717
 H1119 H 0.73962 0.47954 0.29755
 H1120 H 0.72823 0.46463 0.25767
 H1121 H 0.73849 0.48489 0.24750
 H1122 H 0.76690 0.52676 0.27181
 H1123 H 0.75835 0.54867 0.28097
 H1124 H 0.71655 0.53735 0.26980
 H1125 H 0.72514 0.51558 0.26091
 H1126 H 0.78412 0.46342 0.26004
 C1127 C 0.24409 -0.00120 0.74737
 C1128 C 0.25516 -0.00043 0.75600
 C1129 C 0.26360 -0.01275 0.75969
 C1130 C 0.25927 0.01283 0.76234
 C1131 C 0.23711 0.01139 0.74207
 C1132 C 0.23836 -0.01459 0.74279
 C1133 C 0.26666 -0.01545 0.77337
 C1134 C 0.27457 -0.02694 0.77703
 C1135 C 0.27955 -0.03607 0.76705
 C1136 C 0.27686 -0.03312 0.75333
 C1137 C 0.26900 -0.02156 0.74968
 C1138 C 0.24964 0.02078 0.76962
 C1139 C 0.25364 0.03313 0.77568
 C1140 C 0.26740 0.03764 0.77481
 C1141 C 0.27703 0.02967 0.76746
 C1142 C 0.27301 0.01734 0.76138
 C1143 C 0.24472 0.02164 0.73549
 C1144 C 0.23806 0.03335 0.73038
 C1145 C 0.22361 0.03501 0.73172
 C1146 C 0.21601 0.02459 0.73804
 C1147 C 0.22268 0.01290 0.74317
 C1148 C 0.23575 -0.01686 0.72895
 C1149 C 0.22992 -0.02918 0.72452
 C1150 C 0.22664 -0.03957 0.73389
 C1151 C 0.22907 -0.03718 0.74776
 C1152 C 0.23482 -0.02481 0.75218
 H1153 H 0.26284 -0.00866 0.78126
 H1154 H 0.27689 -0.02845 0.78766
 H1155 H 0.28075 -0.03984 0.74543
 H1156 H 0.26712 -0.01947 0.73903
 H1157 H 0.23903 0.01738 0.77067
 H1158 H 0.24601 0.03909 0.78123
 H1159 H 0.28058 0.01137 0.75578
 H1160 H 0.25581 0.02047 0.73418
 H1161 H 0.24426 0.04084 0.72513
 H1162 H 0.20486 0.02553 0.73906
 H1163 H 0.21660 0.00505 0.74808
 H1164 H 0.23817 -0.00902 0.72155
 H1165 H 0.22777 -0.03032 0.71381
 H1166 H 0.22644 -0.04489 0.75521
 H1167 H 0.23638 -0.02314 0.76295
 H1168 H 0.28761 0.03299 0.76614
 C1169 C 0.25724 0.24434 1.00051
 C1170 C 0.24829 0.25524 1.00126
 C1171 C 0.24341 0.26079 1.01450
 C1172 C 0.24294 0.26225 0.98887
 C1173 C 0.26382 0.24028 0.98745
 C1174 C 0.26101 0.23606 1.01270
 C1175 C 0.22916 0.26221 1.01678
 C1176 C 0.22408 0.26779 1.02881
 C1177 C 0.23361 0.27274 1.03995
 C1178 C 0.24863 0.27082 1.03660
 C1179 C 0.25296 0.26512 1.02433
 C1180 C 0.23650 0.25478 0.97843
 C1181 C 0.23119 0.26152 0.96699
 C1182 C 0.23217 0.27589 0.96583
 C1183 C 0.23837 0.28334 0.97642
 C1184 C 0.24373 0.27659 0.98781
 C1185 C 0.27118 0.24985 0.97971
 C1186 C 0.27735 0.24592 0.96748
 C1187 C 0.27650 0.23230 0.96285
 C1188 C 0.26910 0.22271 0.97064
 C1189 C 0.26295 0.22666 0.98287
 C1190 C 0.27499 0.23319 1.01560
 C1191 C 0.27869 0.22553 1.02707
 C1192 C 0.26845 0.22067 1.03596
 C1193 C 0.25445 0.22316 1.03277
 C1194 C 0.25075 0.23072 1.02124
 H1195 H 0.22183 0.25892 1.00910
 H1196 H 0.21297 0.26867 1.03006
 H1197 H 0.25638 0.27406 1.04388
 H1198 H 0.26398 0.26422 1.02239
 H1199 H 0.23541 0.24374 0.97923
 H1200 H 0.22602 0.25545 0.95931
 H1201 H 0.24853 0.28257 0.99581
 H1202 H 0.27217 0.26037 0.98315
 H1203 H 0.28293 0.25352 0.96168
 H1204 H 0.26778 0.21223 0.96727
 H1205 H 0.25729 0.21912 0.98868
 H1206 H 0.28307 0.23697 1.00903
 H1207 H 0.28956 0.22338 1.02877
 H1208 H 0.24633 0.21934 1.03930
 H1209 H 0.23987 0.23243 1.01898
 H1210 H 0.23911 0.29443 0.97585
 C1211 C 0.25570 0.74152 0.50200
 C1212 C 0.24533 0.75113 0.50199
 C1213 C 0.24078 0.75809 0.51465
 C1214 C 0.23800 0.75530 0.48931
 C1215 C 0.26088 0.73523 0.48923
 C1216 C 0.26236 0.73670 0.51479
 C1217 C 0.22682 0.75749 0.51833
 C1218 C 0.22195 0.76392 0.53000
 C1219 C 0.23138 0.77197 0.53925
 C1220 C 0.24609 0.77221 0.53441
 C1221 C 0.25022 0.76550 0.52258
 C1222 C 0.23160 0.74557 0.48085
 C1223 C 0.22486 0.74974 0.46893
 C1224 C 0.22434 0.76368 0.46527
 C1225 C 0.23034 0.77343 0.47404
 C1226 C 0.23711 0.76926 0.48591
 C1227 C 0.26566 0.74337 0.47850
 C1228 C 0.27023 0.73728 0.46645
 C1229 C 0.27033 0.72286 0.46499
 C1230 C 0.26578 0.71479 0.47588
 C1231 C 0.26115 0.72089 0.48788
 C1232 C 0.27683 0.73707 0.51613
 C1233 C 0.28327 0.73244 0.52801
 C1234 C 0.27542 0.72724 0.53879
 C1235 C 0.26087 0.72681 0.53738
 C1236 C 0.25444 0.73139 0.52545
 H1237 H 0.21956 0.75182 0.51208
 H1238 H 0.21105 0.76309 0.53237
 H1239 H 0.25373 0.77779 0.54026
 H1240 H 0.26097 0.76613 0.51952
 H1241 H 0.23184 0.73477 0.48347
 H1242 H 0.22011 0.74205 0.46249
 H1243 H 0.24174 0.77695 0.49243
 H1244 H 0.26577 0.75446 0.47945
 H1245 H 0.27356 0.74399 0.45842
 H1246 H 0.26574 0.70369 0.47510
 H1247 H 0.25758 0.71441 0.49606
 H1248 H 0.28314 0.74105 0.50798
 H1249 H 0.29447 0.73291 0.52875
 H1250 H 0.25429 0.72298 0.54533
 H1251 H 0.24327 0.73075 0.52452
 H1252 H 0.22967 0.78432 0.47197
 C1253 C 0.25008 0.73795 -0.00113
 C1254 C 0.26006 0.74773 -0.00212
 C1255 C 0.26572 0.75206 -0.01541
 C1256 C 0.26598 0.75458 0.01005
 C1257 C 0.24503 0.73306 0.01222
 C1258 C 0.24384 0.73143 -0.01333
 C1259 C 0.27202 0.74257 -0.02422
 C1260 C 0.27759 0.74695 -0.03655
 C1261 C 0.27713 0.76090 -0.04020
 C1262 C 0.27065 0.77034 -0.03139
 C1263 C 0.26513 0.76596 -0.01908
 C1264 C 0.28038 0.75443 0.01211
 C1265 C 0.28617 0.76077 0.02349
 C1266 C 0.27770 0.76739 0.03306
 C1267 C 0.26327 0.76785 0.03081
 C1268 C 0.25748 0.76152 0.01938
 C1269 C 0.23084 0.73382 0.01517
 C1270 C 0.22585 0.72920 0.02763
 C1271 C 0.23499 0.72348 0.03733
 C1272 C 0.24920 0.72274 0.03431
 C1273 C 0.25417 0.72739 0.02185
 C1274 C 0.23743 0.73935 -0.02351
 C1275 C 0.23174 0.73303 -0.03499
 C1276 C 0.23231 0.71863 -0.03644
 C1277 C 0.23839 0.71076 -0.02604
 C1278 C 0.24409 0.71709 -0.01461
 H1279 H 0.27272 0.73181 -0.02149
 H1280 H 0.28243 0.73945 -0.04317
 H1281 H 0.26958 0.78108 -0.03398
 H1282 H 0.26025 0.77342 -0.01243
 H1283 H 0.28713 0.74926 0.00495
 H1284 H 0.29731 0.76038 0.02489
 H1285 H 0.24637 0.76207 0.01777
 H1286 H 0.22363 0.73818 0.00785
 H1287 H 0.21489 0.73032 0.02954
 H1288 H 0.25648 0.71841 0.04157
 H1289 H 0.26514 0.72652 0.01968
 H1290 H 0.23678 0.75042 -0.02252
 H1291 H 0.22672 0.73946 -0.04251
 H1292 H 0.23886 0.69966 -0.02682
 H1293 H 0.24887 0.71078 -0.00680
 H1294 H 0.25639 0.77325 0.03764
 C1295 C 0.25496 0.23651 0.49944
 C1296 C 0.26416 0.24701 0.49839
 C1297 C 0.26852 0.25248 0.48505
 C1298 C 0.27060 0.25348 0.51052
 C1299 C 0.25069 0.23097 0.51279
 C1300 C 0.24869 0.22985 0.48731
 C1301 C 0.27496 0.24401 0.47539
 C1302 C 0.27912 0.24943 0.46294
 C1303 C 0.27709 0.26343 0.45998
 C1304 C 0.27056 0.27187 0.46970
 C1305 C 0.26644 0.26644 0.48214
 C1306 C 0.28510 0.25398 0.51156
 C1307 C 0.29142 0.25988 0.52290
 C1308 C 0.28340 0.26536 0.53347
 C1309 C 0.26884 0.26522 0.53226
 C1310 C 0.26251 0.25936 0.52085
 C1311 C 0.23663 0.23114 0.51626
 C1312 C 0.23229 0.22586 0.52868
 C1313 C 0.24196 0.22003 0.53779
 C1314 C 0.25608 0.21996 0.53431
 C1315 C 0.26041 0.22530 0.52187
 C1316 C 0.24129 0.23750 0.47757
 C1317 C 0.23552 0.23100 0.46622
 C1318 C 0.23698 0.21669 0.46448
 C1319 C 0.24403 0.20905 0.47445
 C1320 C 0.24985 0.21557 0.48573
 H1321 H 0.27681 0.23323 0.47752
 H1322 H 0.28409 0.24269 0.45565
 H1323 H 0.26842 0.28260 0.46779
 H1324 H 0.26145 0.27311 0.48948
 H1325 H 0.29153 0.24964 0.50364
 H1326 H 0.30264 0.26001 0.52350
 H1327 H 0.25130 0.25945 0.52005
 H1328 H 0.22900 0.23555 0.50940
 H1329 H 0.22141 0.22662 0.53114
 H1330 H 0.26374 0.21562 0.54118
 H1331 H 0.27131 0.22496 0.51930
 H1332 H 0.23992 0.24849 0.47879
 H1333 H 0.22969 0.23718 0.45905
 H1334 H 0.24517 0.19802 0.47344
 H1335 H 0.25540 0.20946 0.49320
 H1336 H 0.26229 0.26981 0.53992
 C1337 C 0.75538 0.74877 0.99711
 C1338 C 0.74505 0.75843 0.99681
 C1339 C 0.74012 0.76522 1.00947
 C1340 C 0.73814 0.76261 0.98389
 C1341 C 0.76252 0.74414 0.98452
 C1342 C 0.75995 0.74227 1.01008
 C1343 C 0.72588 0.76619 1.01218
 C1344 C 0.72117 0.77265 1.02398
 C1345 C 0.73066 0.77821 1.03338
 C1346 C 0.74488 0.77748 1.03048
 C1347 C 0.74957 0.77111 1.01863
 C1348 C 0.73306 0.75271 0.97478
 C1349 C 0.72623 0.75673 0.96287
 C1350 C 0.72421 0.77070 0.95984
 C1351 C 0.72903 0.78060 0.96915
 C1352 C 0.73595 0.77657 0.98101
 C1353 C 0.76772 0.75368 0.97519
 C1354 C 0.77470 0.74921 0.96358
 C1355 C 0.77679 0.73513 0.96111
 C1356 C 0.77189 0.72560 0.97068
 C1357 C 0.76479 0.73008 0.98220
 C1358 C 0.77412 0.74114 1.01321
 C1359 C 0.77852 0.73469 1.02516
 C1360 C 0.76878 0.72928 1.03429
 C1361 C 0.75462 0.73023 1.03099
 C1362 C 0.75025 0.73659 1.01900
 H1363 H 0.71839 0.76190 1.00516
 H1364 H 0.71010 0.77340 1.02551
 H1365 H 0.75242 0.78183 1.03741
 H1366 H 0.76059 0.77080 1.01658
 H1367 H 0.73426 0.74186 0.97696
 H1368 H 0.72247 0.74887 0.95601
 H1369 H 0.73955 0.78439 0.98800
 H1370 H 0.76648 0.76461 0.97695
 H1371 H 0.77853 0.75679 0.95651
 H1372 H 0.77367 0.71469 0.96955
 H1373 H 0.76110 0.72253 0.98938
 H1374 H 0.78180 0.74523 1.00636
 H1375 H 0.78954 0.73380 1.02698
 H1376 H 0.74689 0.72598 1.03770
 H1377 H 0.73928 0.73699 1.01662
 H1378 H 0.72729 0.79146 0.96755
 C1379 C 0.75369 0.24479 0.49680
 C1380 C 0.74149 0.25197 0.49692
 C1381 C 0.73410 0.25534 0.50977
 C1382 C 0.73498 0.25711 0.48416
 C1383 C 0.76037 0.24038 0.48390
 C1384 C 0.76100 0.24079 0.50953
 C1385 C 0.73072 0.24511 0.51922
 C1386 C 0.72373 0.24853 0.53119
 C1387 C 0.71990 0.26221 0.53392
 C1388 C 0.72291 0.27236 0.52421
 C1389 C 0.72995 0.26895 0.51232
 C1390 C 0.72116 0.25385 0.48130
 C1391 C 0.71450 0.25868 0.46967
 C1392 C 0.72163 0.26766 0.45960
 C1393 C 0.73645 0.27071 0.46350
 C1394 C 0.74243 0.26556 0.47536
 C1395 C 0.77430 0.24359 0.48153
 C1396 C 0.78092 0.23898 0.46978
 C1397 C 0.77378 0.23105 0.46013
 C1398 C 0.75981 0.22774 0.46258
 C1399 C 0.75319 0.23236 0.47436
 C1400 C 0.76445 0.25058 0.51945
 C1401 C 0.77136 0.24657 0.53134
 C1402 C 0.77503 0.23275 0.53348
 C1403 C 0.77200 0.22306 0.52328
 C1404 C 0.76502 0.22706 0.51148
 H1405 H 0.73348 0.23448 0.51731
 H1406 H 0.72135 0.24047 0.53837
 H1407 H 0.71965 0.28292 0.52557
 H1408 H 0.73221 0.27697 0.50507
 H1409 H 0.71544 0.24740 0.48822
 H1410 H 0.70380 0.25587 0.46787
 H1411 H 0.75302 0.26830 0.47777
 H1412 H 0.78007 0.24964 0.48883
 H1413 H 0.79169 0.24159 0.46824
 H1414 H 0.75401 0.22130 0.45569
 H1415 H 0.74255 0.22945 0.47618
 H1416 H 0.76180 0.26131 0.51798
 H1417 H 0.77378 0.25428 0.53891
 H1418 H 0.77514 0.21242 0.52422
 H1419 H 0.76271 0.21939 0.50383
 H1420 H 0.74263 0.27720 0.45703
 C1421 C 0.74430 0.24333 0.00269
 C1422 C 0.75393 0.25353 0.00275
 C1423 C 0.75816 0.26056 -0.00995
 C1424 C 0.76079 0.25820 0.01548
 C1425 C 0.74128 0.23511 0.01503
 C1426 C 0.73621 0.23980 -0.00974
 C1427 C 0.76258 0.25301 -0.02130
 C1428 C 0.76653 0.25973 -0.03317
 C1429 C 0.76649 0.27421 -0.03380
 C1430 C 0.76217 0.28170 -0.02237
 C1431 C 0.75809 0.27496 -0.01056
 C1432 C 0.77529 0.25898 0.01613
 C1433 C 0.78187 0.26365 0.02790
 C1434 C 0.77410 0.26778 0.03923
 C1435 C 0.75954 0.26691 0.03860
 C1436 C 0.75296 0.26230 0.02678
 C1437 C 0.72750 0.23333 0.01905
 C1438 C 0.72436 0.22529 0.03032
 C1439 C 0.73500 0.21890 0.03795
 C1440 C 0.74879 0.22053 0.03376
 C1441 C 0.75191 0.22849 0.02237
 C1442 C 0.72880 0.24988 -0.01701
 C1443 C 0.72111 0.24631 -0.02855
 C1444 C 0.72056 0.23259 -0.03297
 C1445 C 0.72767 0.22246 -0.02539
 C1446 C 0.73544 0.22606 -0.01396
 H1447 H 0.76295 0.24189 -0.02097
 H1448 H 0.76948 0.25345 -0.04172
 H1449 H 0.76199 0.29283 -0.02254
 H1450 H 0.75479 0.28098 -0.00189
 H1451 H 0.78153 0.25591 0.00752
 H1452 H 0.79309 0.26414 0.02812
 H1453 H 0.74174 0.26195 0.02644
 H1454 H 0.71912 0.23815 0.01341
 H1455 H 0.71354 0.22406 0.03273
 H1456 H 0.75719 0.21561 0.03929
 H1457 H 0.76261 0.22940 0.01924
 H1458 H 0.72892 0.26050 -0.01372
 H1459 H 0.71559 0.25429 -0.03405
 H1460 H 0.72712 0.21170 -0.02801
 H1461 H 0.74087 0.21809 -0.00836
 H1462 H 0.75313 0.26963 0.04717
 C1463 C 0.74264 0.74124 0.50076
 C1464 C 0.75231 0.75136 0.50072
 C1465 C 0.75746 0.75762 0.48799
 C1466 C 0.75841 0.75690 0.51342
 C1467 C 0.73632 0.73619 0.51351
 C1468 C 0.73772 0.73466 0.48805
 C1469 C 0.76443 0.74985 0.47810
 C1470 C 0.76958 0.75622 0.46643
 C1471 C 0.76788 0.77050 0.46455
 C1472 C 0.76105 0.77818 0.47458
 C1473 C 0.75589 0.77183 0.48615
 C1474 C 0.77281 0.75614 0.51524
 C1475 C 0.77899 0.76165 0.52682
 C1476 C 0.77092 0.76802 0.53686
 C1477 C 0.75644 0.76892 0.53497
 C1478 C 0.75025 0.76343 0.52330
 C1479 C 0.72191 0.73720 0.51507
 C1480 C 0.71559 0.73256 0.52689
 C1481 C 0.72352 0.72678 0.53745
 C1482 C 0.73799 0.72553 0.53579
 C1483 C 0.74431 0.73016 0.52389
 C1484 C 0.73130 0.74228 0.47765
 C1485 C 0.72689 0.73576 0.46574
 C1486 C 0.72874 0.72147 0.46410
 C1487 C 0.73480 0.71388 0.47470
 C1488 C 0.73926 0.72041 0.48654
 H1489 H 0.76606 0.73892 0.47951
 H1490 H 0.77513 0.74997 0.45917
 H1491 H 0.75968 0.78919 0.47346
 H1492 H 0.75066 0.77802 0.49374
 H1493 H 0.77929 0.75126 0.50766
 H1494 H 0.79016 0.76091 0.52796
 H1495 H 0.73915 0.76443 0.52189
 H1496 H 0.71555 0.74172 0.50713
 H1497 H 0.70444 0.73357 0.52782
 H1498 H 0.74447 0.72078 0.54346
 H1499 H 0.75542 0.72899 0.52274
 H1500 H 0.72966 0.75324 0.47880
 H1501 H 0.72180 0.74190 0.45802
 H1502 H 0.73620 0.70287 0.47377
 H1503 H 0.74406 0.71434 0.49451
 H1504 H 0.74988 0.77412 0.54224
 C1505 C 0.99719 0.25941 0.24742
 C1506 C 0.99685 0.24948 0.25715
 C1507 C 1.00960 0.24224 0.26182
 C1508 C 0.98372 0.24531 0.26376
 C1509 C 0.98450 0.26706 0.24315
 C1510 C 1.01026 0.26316 0.24042
 C1511 C 1.01025 0.22785 0.26127
 C1512 C 1.02204 0.22084 0.26587
 C1513 C 1.03341 0.22805 0.27114
 C1514 C 1.03265 0.24250 0.27190
 C1515 C 1.02083 0.24951 0.26729
 C1516 C 0.97272 0.24011 0.25604
 C1517 C 0.96048 0.23583 0.26214
 C1518 C 0.95849 0.23645 0.27734
 C1519 C 0.97078 0.24215 0.28467
 C1520 C 0.98269 0.24620 0.27789
 C1521 C 0.97627 0.27417 0.25260
 C1522 C 0.96443 0.28137 0.24832
 C1523 C 0.96065 0.28169 0.23454
 C1524 C 0.96918 0.27490 0.22506
 C1525 C 0.98095 0.26765 0.22935
 C1526 C 1.01438 0.27694 0.24015
 C1527 C 1.02646 0.28077 0.23343
 C1528 C 1.03472 0.27084 0.22685
 C1529 C 1.03040 0.25708 0.22687
 C1530 C 1.01828 0.25326 0.23358
 H1531 H 1.00163 0.22205 0.25720
 H1532 H 1.02228 0.20972 0.26528
 H1533 H 1.04093 0.24846 0.27632
 H1534 H 1.02036 0.26060 0.26814
 H1535 H 0.97368 0.23926 0.24512
 H1536 H 0.95226 0.23187 0.25577
 H1537 H 0.99128 0.25018 0.28379
 H1538 H 0.97904 0.27418 0.26326
 H1539 H 0.95818 0.28667 0.25581
 H1540 H 0.96704 0.27531 0.21429
 H1541 H 0.98731 0.26247 0.22187
 H1542 H 1.00819 0.28477 0.24514
 H1543 H 1.02907 0.29155 0.23320
 H1544 H 1.03645 0.24926 0.22171
 H1545 H 1.01510 0.24262 0.23336
 H1546 H 0.97046 0.24305 0.29562
 C1547 C 0.50042 0.25507 0.74250
 C1548 C 0.50041 0.24872 0.75481
 C1549 C 0.51352 0.24444 0.76160
 C1550 C 0.48741 0.24529 0.76204
 C1551 C 0.48738 0.25888 0.73524
 C1552 C 0.51358 0.25875 0.73568
 C1553 C 0.52210 0.23450 0.75564
 C1554 C 0.53409 0.22983 0.76214
 C1555 C 0.53845 0.23518 0.77588
 C1556 C 0.52877 0.24595 0.78130
 C1557 C 0.51688 0.25004 0.77426
 C1558 C 0.48505 0.23162 0.76564
 C1559 C 0.47316 0.22777 0.77253
 C1560 C 0.46219 0.23805 0.77663
 C1561 C 0.46564 0.25245 0.77246
 C1562 C 0.47781 0.25556 0.76554
 C1563 C 0.48555 0.27240 0.73062
 C1564 C 0.47346 0.27627 0.72373
 C1565 C 0.46284 0.26670 0.72139
 C1566 C 0.46487 0.25305 0.72567
 C1567 C 0.47705 0.24916 0.73248
 C1568 C 0.52307 0.26767 0.74188
 C1569 C 0.53522 0.27139 0.73516
 C1570 C 0.53799 0.26637 0.72202
 C1571 C 0.52853 0.25733 0.71595
 C1572 C 0.51639 0.25364 0.72267
 H1573 H 0.51934 0.23016 0.74588
 H1574 H 0.54037 0.22209 0.75717
 H1575 H 0.53096 0.25055 0.79108
 H1576 H 0.51016 0.25774 0.77877
 H1577 H 0.49252 0.22373 0.76293
 H1578 H 0.47186 0.21703 0.77492
 H1579 H 0.47982 0.26615 0.76291
 H1580 H 0.49350 0.28000 0.73238
 H1581 H 0.47264 0.28672 0.72011
 H1582 H 0.45699 0.24540 0.72379
 H1583 H 0.47842 0.23856 0.73557
 H1584 H 0.52102 0.27182 0.75188
 H1585 H 0.54242 0.27807 0.74035
 H1586 H 0.53045 0.25325 0.70590
 H1587 H 0.50917 0.24675 0.71773
 H1588 H 0.45847 0.26070 0.77491
 C1589 C 0.00161 0.24336 0.74351
 C1590 C 0.00138 0.25577 0.74991
 C1591 C -0.01189 0.26247 0.75375
 C1592 C 0.01423 0.26310 0.75399
 C1593 C 0.01476 0.23603 0.74038
 C1594 C -0.01138 0.23650 0.73907
 C1595 C -0.01520 0.27540 0.74841
 C1596 C -0.02724 0.28238 0.75217
 C1597 C -0.03709 0.27659 0.76239
 C1598 C -0.03278 0.26257 0.76741
 C1599 C -0.02066 0.25615 0.76307
 C1600 C 0.02476 0.26596 0.74463
 C1601 C 0.03667 0.27299 0.74877
 C1602 C 0.03823 0.27738 0.76228
 C1603 C 0.02742 0.27492 0.77149
 C1604 C 0.01562 0.26781 0.76739
 C1605 C 0.02415 0.23248 0.75071
 C1606 C 0.03648 0.22549 0.74787
 C1607 C 0.04030 0.22127 0.73369
 C1608 C 0.02950 0.22539 0.72335
 C1609 C 0.01745 0.23236 0.72693
 C1610 C -0.01414 0.22318 0.74361
 C1611 C -0.02601 0.21621 0.73952
 C1612 C -0.03642 0.22244 0.72999
 C1613 C -0.03262 0.23678 0.72560
 C1614 C -0.02053 0.24311 0.73009
 H1615 H -0.00830 0.28017 0.74122
 H1616 H -0.02937 0.29241 0.74785
 H1617 H -0.03920 0.25731 0.77469
 H1618 H -0.01792 0.24617 0.76721
 H1619 H 0.02374 0.26280 0.73414
 H1620 H 0.04472 0.27496 0.74140
 H1621 H 0.00752 0.26596 0.77473
 H1622 H 0.02188 0.23516 0.76114
 H1623 H 0.04349 0.22301 0.75615
 H1624 H 0.03107 0.22299 0.71275
 H1625 H 0.01011 0.23509 0.71901
 H1626 H -0.00697 0.21811 0.75050
 H1627 H -0.02773 0.20593 0.74332
 H1628 H -0.03934 0.24233 0.71868
 H1629 H -0.01820 0.25331 0.72641
 H1630 H 0.02786 0.27862 0.78182
 C1631 C 0.50149 0.24395 0.24919
 C1632 C 0.50174 0.25346 0.25934
 C1633 C 0.48893 0.26037 0.26424
 C1634 C 0.51492 0.25764 0.26592
 C1635 C 0.51422 0.23644 0.24497
 C1636 C 0.48854 0.24054 0.24173
 C1637 C 0.48827 0.27476 0.26468
 C1638 C 0.47627 0.28144 0.26911
 C1639 C 0.46472 0.27389 0.27332
 C1640 C 0.46542 0.25942 0.27292
 C1641 C 0.47748 0.25275 0.26856
 C1642 C 0.52573 0.26317 0.25824
 C1643 C 0.53802 0.26726 0.26456
 C1644 C 0.53962 0.26604 0.27872
 C1645 C 0.52883 0.26038 0.28634
 C1646 C 0.51652 0.25633 0.28001
 C1647 C 0.52188 0.22870 0.25439
 C1648 C 0.53385 0.22160 0.25062
 C1649 C 0.53908 0.22168 0.23631
 C1650 C 0.53010 0.23013 0.22688
 C1651 C 0.51829 0.23698 0.23139
 C1652 C 0.48434 0.22684 0.24114
 C1653 C 0.47236 0.22301 0.23426
 C1654 C 0.46329 0.23332 0.22699
 C1655 C 0.46867 0.24772 0.22804
 C1656 C 0.48083 0.25079 0.23509
 H1657 H 0.49701 0.28083 0.26142
 H1658 H 0.47601 0.29257 0.26926
 H1659 H 0.45669 0.25317 0.27575
 H1660 H 0.47785 0.24162 0.26847
 H1661 H 0.52463 0.26436 0.24736
 H1662 H 0.54627 0.27123 0.25832
 H1663 H 0.50826 0.25210 0.28609
 H1664 H 0.51851 0.22813 0.26484
 H1665 H 0.53952 0.21580 0.25824
 H1666 H 0.53285 0.23102 0.21630
 H1667 H 0.51228 0.24296 0.22417
 H1668 H 0.49040 0.21896 0.24624
 H1669 H 0.46954 0.21228 0.23429
 H1670 H 0.46298 0.25596 0.22312
 H1671 H 0.48429 0.26135 0.23538
 H1672 H 0.52984 0.25928 0.29724
 C1673 C 0.99604 0.76037 0.74869
 C1674 C 0.99625 0.75165 0.75952
 C1675 C 1.00947 0.74665 0.76563
 C1676 C 0.98328 0.74661 0.76584
 C1677 C 0.98292 0.76674 0.74366
 C1678 C 1.00896 0.76423 0.74148
 C1679 C 1.01177 0.73250 0.76685
 C1680 C 1.02387 0.72728 0.77267
 C1681 C 1.03510 0.73654 0.77807
 C1682 C 1.03167 0.75150 0.77644
 C1683 C 1.01931 0.75598 0.77049
 C1684 C 0.97333 0.73977 0.75801
 C1685 C 0.96129 0.73462 0.76381
 C1686 C 0.95841 0.73602 0.77882
 C1687 C 0.96961 0.74343 0.78630
 C1688 C 0.98138 0.74829 0.77982
 C1689 C 0.97417 0.77410 0.75244
 C1690 C 0.96215 0.78047 0.74747
 C1691 C 0.95866 0.77970 0.73364
 C1692 C 0.96760 0.77252 0.72481
 C1693 C 0.97958 0.76610 0.72980
 C1694 C 1.01186 0.77813 0.73921
 C1695 C 1.02389 0.78197 0.73240
 C1696 C 1.03335 0.77193 0.72778
 C1697 C 1.03023 0.75800 0.72976
 C1698 C 1.01813 0.75417 0.73649
 H1699 H 1.00407 0.72535 0.76314
 H1700 H 1.02514 0.71626 0.77334
 H1701 H 1.03900 0.75906 0.78005
 H1702 H 1.01735 0.76692 0.76971
 H1703 H 0.97499 0.73828 0.74724
 H1704 H 0.95392 0.72939 0.75735
 H1705 H 0.98916 0.75353 0.78582
 H1706 H 0.97674 0.77505 0.76311
 H1707 H 0.95557 0.78608 0.75447
 H1708 H 0.96564 0.77204 0.71402
 H1709 H 0.98633 0.76068 0.72282
 H1710 H 1.00481 0.78605 0.74277
 H1711 H 1.02554 0.79278 0.73064
 H1712 H 1.03720 0.75005 0.72611
 H1713 H 1.01591 0.74336 0.73777
 H1714 H 0.96859 0.74499 0.79713
 C1715 C 0.49539 0.75893 0.24361
 C1716 C 0.49549 0.74648 0.24996
 C1717 C 0.50864 0.73969 0.25431
 C1718 C 0.48254 0.73904 0.25335
 C1719 C 0.48227 0.76613 0.23982
 C1720 C 0.50846 0.76602 0.23992
 C1721 C 0.51143 0.72615 0.25021
 C1722 C 0.52335 0.71933 0.25478
 C1723 C 0.53273 0.72591 0.26352
 C1724 C 0.52986 0.73947 0.26773
 C1725 C 0.51789 0.74628 0.26317
 C1726 C 0.47255 0.73588 0.24342
 C1727 C 0.46057 0.72868 0.24693
 C1728 C 0.45840 0.72446 0.26038
 C1729 C 0.46868 0.72724 0.27017
 C1730 C 0.48055 0.73450 0.26670
 C1731 C 0.47195 0.76899 0.24945
 C1732 C 0.45975 0.77586 0.24560
 C1733 C 0.45768 0.78010 0.23210
 C1734 C 0.46828 0.77763 0.22261
 C1735 C 0.48038 0.77068 0.22643
 C1736 C 0.51057 0.77963 0.24412
 C1737 C 0.52257 0.78661 0.24042
 C1738 C 0.53274 0.78013 0.23247
 C1739 C 0.53053 0.76653 0.22810
 C1740 C 0.51848 0.75957 0.23177
 H1741 H 0.50433 0.72084 0.24350
 H1742 H 0.52524 0.70885 0.25151
 H1743 H 0.53652 0.74473 0.27485
 H1744 H 0.51571 0.75658 0.26678
 H1745 H 0.47405 0.73894 0.23297
 H1746 H 0.45294 0.72646 0.23914
 H1747 H 0.48824 0.73657 0.27447
 H1748 H 0.47335 0.76594 0.25993
 H1749 H 0.45188 0.77783 0.25318
 H1750 H 0.46745 0.78121 0.21226
 H1751 H 0.48833 0.76883 0.21890
 H1752 H 0.50290 0.78485 0.25030
 H1753 H 0.52393 0.79712 0.24379
 H1754 H 0.53785 0.76134 0.22154
 H1755 H 0.51687 0.74921 0.22808
 H1756 H 0.46779 0.72364 0.28051
 C1757 C 0.00207 0.75296 0.24060
 C1758 C 0.00313 0.76318 0.25001
 C1759 C -0.00933 0.76975 0.25612
 C1760 C 0.01676 0.76855 0.25457
 C1761 C 0.01446 0.74620 0.23456
 C1762 C -0.01159 0.74816 0.23549
 C1763 C -0.01095 0.78407 0.25550
 C1764 C -0.02263 0.79044 0.26108
 C1765 C -0.03295 0.78263 0.26736
 C1766 C -0.03114 0.76829 0.26830
 C1767 C -0.01941 0.76192 0.26276
 C1768 C 0.02621 0.77410 0.24532
 C1769 C 0.03882 0.77947 0.24990
 C1770 C 0.04212 0.77958 0.26381
 C1771 C 0.03266 0.77386 0.27303
 C1772 C 0.02007 0.76853 0.26844
 C1773 C 0.02471 0.73995 0.24267
 C1774 C 0.03620 0.73352 0.23671
 C1775 C 0.03754 0.73310 0.22246
 C1776 C 0.02712 0.73920 0.21444
 C1777 C 0.01572 0.74565 0.22040
 C1778 C -0.01493 0.73426 0.23674
 C1779 C -0.02733 0.72910 0.23165
 C1780 C -0.03775 0.73814 0.22439
 C1781 C -0.03332 0.75284 0.22362
 C1782 C -0.02072 0.75727 0.22896
 H1783 H -0.00323 0.79031 0.25055
 H1784 H -0.02368 0.80150 0.26036
 H1785 H -0.03855 0.76195 0.27353
 H1786 H -0.01815 0.75089 0.26370
 H1787 H 0.02377 0.77438 0.23458
 H1788 H 0.04593 0.78372 0.24258
 H1789 H 0.01292 0.76425 0.27572
 H1790 H 0.02379 0.74000 0.25362
 H1791 H 0.04386 0.72893 0.24335
 H1792 H 0.02782 0.73904 0.20347
 H1793 H 0.00789 0.75033 0.21394
 H1794 H -0.00777 0.72727 0.24174
 H1795 H -0.02940 0.71827 0.23285
 H1796 H -0.04004 0.76022 0.21859
 H1797 H -0.01794 0.76797 0.22782
 H1798 H 0.03493 0.77325 0.28376
 C1799 C 0.49988 0.75140 0.73953
 C1800 C 0.49928 0.75943 0.75088
 C1801 C 0.48596 0.76567 0.75545
 C1802 C 0.51177 0.76256 0.75925
 C1803 C 0.51328 0.74696 0.73340
 C1804 C 0.48701 0.74668 0.73259
 C1805 C 0.47795 0.77385 0.74663
 C1806 C 0.46560 0.77990 0.75108
 C1807 C 0.46112 0.77810 0.76450
 C1808 C 0.46913 0.76983 0.77331
 C1809 C 0.48148 0.76378 0.76884
 C1810 C 0.51420 0.77613 0.76340
 C1811 C 0.52560 0.77927 0.77157
 C1812 C 0.53497 0.76889 0.77568
 C1813 C 0.53232 0.75525 0.77182
 C1814 C 0.52081 0.75210 0.76372
 C1815 C 0.51518 0.73321 0.72952
 C1816 C 0.52734 0.72896 0.72306
 C1817 C 0.53800 0.73841 0.72042
 C1818 C 0.53600 0.75221 0.72422
 C1819 C 0.52376 0.75647 0.73056
 C1820 C 0.47688 0.73963 0.73988
 C1821 C 0.46479 0.73504 0.73365
 C1822 C 0.46201 0.73720 0.71872
 C1823 C 0.47347 0.74467 0.71175
 C1824 C 0.48528 0.74903 0.71867
 H1825 H 0.48132 0.77563 0.73631
 H1826 H 0.45960 0.78615 0.74408
 H1827 H 0.46584 0.76778 0.78357
 H1828 H 0.48750 0.75748 0.77579
 H1829 H 0.50723 0.78434 0.76033
 H1830 H 0.52682 0.78981 0.77480
 H1831 H 0.51890 0.74149 0.76102
 H1832 H 0.50716 0.72573 0.73141
 H1833 H 0.52807 0.71833 0.71999
 H1834 H 0.54392 0.75976 0.72217
 H1835 H 0.52238 0.76722 0.73310
 H1836 H 0.47840 0.73760 0.75059
 H1837 H 0.45729 0.72966 0.73976
 H1838 H 0.47258 0.74672 0.70098
 H1839 H 0.49320 0.75442 0.71308
 H1840 H 0.53921 0.74703 0.77503
 C1841 C 0.38684 0.30345 0.31657
 C1842 C 0.39326 0.30568 0.30412
 C1843 C 0.40548 0.29775 0.29935
 C1844 C 0.41317 0.30294 0.28847
 C1845 C 0.42483 0.29588 0.28368
 C1846 C 0.42907 0.28343 0.28973
 C1847 C 0.42115 0.27805 0.30034
 C1848 C 0.40948 0.28509 0.30511
 C1849 C 0.44142 0.27562 0.28512
 C1850 C 0.45218 0.28151 0.27774
 H1851 H 0.38940 0.31385 0.29765
 H1852 H 0.41017 0.31252 0.28367
 H1853 H 0.43030 0.30015 0.27514
 H1854 H 0.42403 0.26836 0.30501
 H1855 H 0.40360 0.28042 0.31316
 H1856 H 0.44238 0.26509 0.28846
 H1857 H 0.39079 0.29575 0.32349
 H1858 H 0.45186 0.29242 0.27567
 C1859 C 0.38659 0.80810 0.81256
 C1860 C 0.39377 0.81277 0.80120
 C1861 C 0.40686 0.80632 0.79647
 C1862 C 0.41075 0.80784 0.78286
 C1863 C 0.42301 0.80183 0.77804
 C1864 C 0.43170 0.79424 0.78683
 C1865 C 0.42797 0.79306 0.80052
 C1866 C 0.41571 0.79900 0.80531
 C1867 C 0.44484 0.78772 0.78232
 C1868 C 0.44797 0.78474 0.76879
 H1869 H 0.38943 0.82106 0.79518
 H1870 H 0.40425 0.81364 0.77590
 H1871 H 0.42569 0.80341 0.76752
 H1872 H 0.43458 0.78747 0.80756
 H1873 H 0.41339 0.79803 0.81599
 H1874 H 0.45225 0.78498 0.79016
 H1875 H 0.39040 0.79917 0.81799
 H1876 H 0.44070 0.78761 0.76088
 C1877 C -0.11405 0.30351 0.81127
 C1878 C -0.10627 0.30919 0.80083
 C1879 C -0.09356 0.30241 0.79562
 C1880 C -0.08911 0.30521 0.78238
 C1881 C -0.07729 0.29871 0.77715
 C1882 C -0.06970 0.28931 0.78515
 C1883 C -0.07398 0.28675 0.79847
 C1884 C -0.08569 0.29330 0.80370
 C1885 C -0.05736 0.28196 0.78000
 C1886 C -0.05125 0.28510 0.76769
 H1887 H -0.10978 0.31863 0.79607
 H1888 H -0.09490 0.31230 0.77601
 H1889 H -0.07421 0.30094 0.76683
 H1890 H -0.06819 0.27971 0.80489
 H1891 H -0.08839 0.29130 0.81414
 H1892 H -0.05265 0.27411 0.78636
 H1893 H -0.11115 0.29362 0.81543
 H1894 H -0.04413 0.28067 0.76512
 C1895 C -0.11305 0.80408 0.31003
 C1896 C -0.10578 0.81004 0.29939
 C1897 C -0.09364 0.80320 0.29307
 C1898 C -0.08347 0.81121 0.28682
 C1899 C -0.07178 0.80502 0.28099
 C1900 C -0.07010 0.79063 0.28123
 C1901 C -0.08053 0.78263 0.28706
 C1902 C -0.09216 0.78881 0.29292
 C1903 C -0.05790 0.78352 0.27531
 C1904 C -0.04516 0.78987 0.27309
 H1905 H -0.10868 0.82023 0.29595
 H1906 H -0.08451 0.82229 0.28657
 H1907 H -0.06426 0.81155 0.27616
 H1908 H -0.07964 0.77152 0.28715
 H1909 H -0.10004 0.78224 0.29715
 H1910 H -0.05900 0.77273 0.27293
 H1911 H -0.10952 0.79439 0.31423
 H1912 H -0.04403 0.80068 0.27536
 C1913 C 0.61085 0.69953 0.30862
 C1914 C 0.60361 0.69488 0.29724
 C1915 C 0.59178 0.70253 0.29115
 C1916 C 0.58246 0.69551 0.28270
 C1917 C 0.57112 0.70235 0.27684
 C1918 C 0.56889 0.71645 0.27931
 C1919 C 0.57845 0.72355 0.28743
 C1920 C 0.58977 0.71671 0.29327
 C1921 C 0.55694 0.72421 0.27357
 C1922 C 0.54493 0.71804 0.26853
 H1923 H 0.60645 0.68508 0.29281
 H1924 H 0.58392 0.68465 0.28068
 H1925 H 0.56433 0.69655 0.27028
 H1926 H 0.57713 0.73445 0.28932
 H1927 H 0.59697 0.72267 0.29925
 H1928 H 0.55757 0.73530 0.27371
 H1929 H 0.60768 0.70889 0.31367
 H1930 H 0.54427 0.70697 0.26814
 C1931 C 0.61659 0.18816 0.80660
 C1932 C 0.60770 0.19845 0.81134
 C1933 C 0.59527 0.20322 0.80368
 C1934 C 0.58936 0.21605 0.80687
 C1935 C 0.57776 0.22097 0.79974
 C1936 C 0.57179 0.21308 0.78929
 C1937 C 0.57754 0.20017 0.78626
 C1938 C 0.58907 0.19524 0.79341
 C1939 C 0.55960 0.21792 0.78143
 C1940 C 0.55246 0.22991 0.78465
 H1941 H 0.61018 0.20358 0.82080
 H1942 H 0.59381 0.22235 0.81482
 H1943 H 0.57354 0.23096 0.80236
 H1944 H 0.57303 0.19383 0.77837
 H1945 H 0.59290 0.18509 0.79093
 H1946 H 0.55593 0.21164 0.77307
 H1947 H 0.61473 0.18341 0.79685
 H1948 H 0.54549 0.23227 0.77990
 C1949 C 1.11113 0.68590 0.80754
 C1950 C 1.10420 0.69789 0.81145
 C1951 C 1.09122 0.70271 0.80488
 C1952 C 1.08788 0.71676 0.80522
 C1953 C 1.07574 0.72168 0.79905
 C1954 C 1.06661 0.71255 0.79255
 C1955 C 1.06984 0.69848 0.79240
 C1956 C 1.08199 0.69358 0.79852
 C1957 C 1.05363 0.71733 0.78600
 C1958 C 1.04996 0.73115 0.78530
 H1959 H 1.10887 0.70445 0.81907
 H1960 H 1.09475 0.72398 0.81017
 H1961 H 1.07352 0.73259 0.79941
 H1962 H 1.06291 0.69123 0.78756
 H1963 H 1.08398 0.68262 0.79844
 H1964 H 1.04681 0.70973 0.78157
 H1965 H 1.10724 0.67984 0.79915
 H1966 H 1.04235 0.73348 0.78159
 C1967 C 1.11296 0.19994 0.31185
 C1968 C 1.10512 0.19525 0.30088
 C1969 C 1.09330 0.20315 0.29513
 C1970 C 1.08293 0.19616 0.28794
 C1971 C 1.07159 0.20331 0.28244
 C1972 C 1.07047 0.21765 0.28399
 C1973 C 1.08109 0.22468 0.29078
 C1974 C 1.09237 0.21753 0.29632
 C1975 C 1.05863 0.22567 0.27845
 C1976 C 1.04553 0.22006 0.27616
 H1977 H 1.10737 0.18522 0.29662
 H1978 H 1.08355 0.18512 0.28663
 H1979 H 1.06390 0.19757 0.27683
 H1980 H 1.08060 0.23575 0.29190
 H1981 H 1.10043 0.22336 0.30131
 H1982 H 1.06029 0.23648 0.27662
 H1983 H 1.11016 0.20945 0.31687
 H1984 H 1.04396 0.20925 0.27811
 C1985 C 0.61354 0.31190 0.69053
 C1986 C 0.60619 0.30011 0.68703
 C1987 C 0.59371 0.29567 0.69454
 C1988 C 0.58998 0.28176 0.69433
 C1989 C 0.57840 0.27721 0.70151
 C1990 C 0.57018 0.28657 0.70890
 C1991 C 0.57385 0.30048 0.70900
 C1992 C 0.58540 0.30503 0.70183
 C1993 C 0.55794 0.28228 0.71687
 C1994 C 0.55062 0.27019 0.71442
 H1995 H 0.61001 0.29361 0.67893
 H1996 H 0.59618 0.27435 0.68877
 H1997 H 0.57613 0.26635 0.70144
 H1998 H 0.56767 0.30792 0.71455
 H1999 H 0.58761 0.31590 0.70190
 H2000 H 0.55403 0.28947 0.72434
 H2001 H 0.61040 0.31794 0.69922
 H2002 H 0.55355 0.26374 0.70594
 C2003 C 0.61275 0.80438 0.19183
 C2004 C 0.60520 0.81003 0.20253
 C2005 C 0.59331 0.80279 0.20870
 C2006 C 0.58272 0.81045 0.21492
 C2007 C 0.57111 0.80390 0.22034
 C2008 C 0.56994 0.78948 0.21973
 C2009 C 0.58083 0.78184 0.21399
 C2010 C 0.59238 0.78838 0.20856
 C2011 C 0.55769 0.78191 0.22481
 C2012 C 0.54509 0.78807 0.22841
 H2013 H 0.60754 0.82033 0.20599
 H2014 H 0.58331 0.82155 0.21538
 H2015 H 0.56322 0.81024 0.22499
 H2016 H 0.58035 0.77073 0.21357
 H2017 H 0.60059 0.78206 0.20437
 H2018 H 0.55862 0.77084 0.22541
 H2019 H 0.60975 0.79456 0.18762
 H2020 H 0.54409 0.79913 0.22845
 C2021 C 1.11193 0.31598 0.19732
 C2022 C 1.10404 0.30458 0.19362
 C2023 C 1.09157 0.30005 0.20112
 C2024 C 1.08679 0.28659 0.19917
 C2025 C 1.07505 0.28190 0.20600
 C2026 C 1.06772 0.29067 0.21484
 C2027 C 1.07250 0.30413 0.21673
 C2028 C 1.08421 0.30882 0.20991
 C2029 C 1.05519 0.28634 0.22236
 C2030 C 1.04753 0.27452 0.21946
 H2031 H 1.10738 0.29836 0.18511
 H2032 H 1.09223 0.27963 0.19242
 H2033 H 1.07198 0.27137 0.20440
 H2034 H 1.06705 0.31114 0.22344
 H2035 H 1.08724 0.31938 0.21141
 H2036 H 1.05177 0.29301 0.23049
 H2037 H 1.10931 0.32187 0.20627
 H2038 H 1.05099 0.26752 0.21165
 C2039 C 1.11073 0.81626 0.69734
 C2040 C 1.10219 0.80542 0.69338
 C2041 C 1.08951 0.80124 0.70076
 C2042 C 1.08302 0.78891 0.69703
 C2043 C 1.07099 0.78458 0.70359
 C2044 C 1.06518 0.79249 0.71411
 C2045 C 1.07155 0.80490 0.71771
 C2046 C 1.08354 0.80926 0.71113
 C2047 C 1.05234 0.78854 0.72133
 C2048 C 1.04629 0.77554 0.72058
 H2049 H 1.10500 0.79952 0.68447
 H2050 H 1.08726 0.78261 0.68896
 H2051 H 1.06626 0.77515 0.70017
 H2052 H 1.06721 0.81131 0.72564
 H2053 H 1.08785 0.81900 0.71417
 H2054 H 1.04783 0.79618 0.72798
 H2055 H 1.10850 0.82213 0.70639
 H2056 H 1.05150 0.76740 0.71510
 C2057 C 0.38364 0.69040 0.69329
 C2058 C 0.39013 0.70212 0.68837
 C2059 C 0.40177 0.70862 0.69576
 C2060 C 0.41195 0.71568 0.68847
 C2061 C 0.42335 0.72140 0.69520
 C2062 C 0.42467 0.72028 0.70939
 C2063 C 0.41425 0.71362 0.71669
 C2064 C 0.40290 0.70788 0.70998
 C2065 C 0.43683 0.72564 0.71684
 C2066 C 0.44787 0.73183 0.71032
 H2067 H 0.38724 0.70609 0.67849
 H2068 H 0.41122 0.71653 0.67753
 H2069 H 0.43117 0.72654 0.68927
 H2070 H 0.41493 0.71276 0.72764
 H2071 H 0.39499 0.70297 0.71596
 H2072 H 0.43722 0.72433 0.72775
 H2073 H 0.38738 0.68567 0.70256
 H2074 H 0.45485 0.73438 0.71493
 C2075 C 0.38744 0.18683 0.19350
 C2076 C 0.39361 0.19940 0.19062
 C2077 C 0.40685 0.20360 0.19700
 C2078 C 0.40985 0.21762 0.19844
 C2079 C 0.42221 0.22181 0.20465
 C2080 C 0.43184 0.21199 0.20940
 C2081 C 0.42898 0.19800 0.20764
 C2082 C 0.41668 0.19383 0.20146
 C2083 C 0.44487 0.21586 0.21631
 C2084 C 0.44866 0.22941 0.21858
 H2085 H 0.38841 0.20655 0.18386
 H2086 H 0.40252 0.22534 0.19493
 H2087 H 0.42415 0.23269 0.20579
 H2088 H 0.43631 0.19024 0.21108
 H2089 H 0.41502 0.18294 0.20005
 H2090 H 0.45165 0.20767 0.21982
 H2091 H 0.39199 0.18014 0.20109
 H2092 H 0.45608 0.23118 0.22287
 C2093 C -0.11368 0.68802 0.19412
 C2094 C -0.10671 0.70016 0.19113
 C2095 C -0.09421 0.70488 0.19853
 C2096 C -0.09044 0.71874 0.19753
 C2097 C -0.07851 0.72357 0.20402
 C2098 C -0.07001 0.71457 0.21156
 C2099 C -0.07374 0.70070 0.21254
 C2100 C -0.08570 0.69587 0.20610
 C2101 C -0.05710 0.71925 0.21823
 C2102 C -0.05273 0.73280 0.21753
 H2103 H -0.11078 0.70677 0.18321
 H2104 H -0.09677 0.72588 0.19172
 H2105 H -0.07592 0.73432 0.20302
 H2106 H -0.06730 0.69354 0.21820
 H2107 H -0.08801 0.68505 0.20685
 H2108 H -0.05076 0.71175 0.22356
 H2109 H -0.11038 0.68168 0.20256
 H2110 H -0.04508 0.73505 0.22114
 C2111 C -0.11423 0.19240 0.68374
 C2112 C -0.10798 0.18952 0.69623
 C2113 C -0.09590 0.19731 0.70140
 C2114 C -0.08685 0.19110 0.71080
 C2115 C -0.07529 0.19817 0.71574
 C2116 C -0.07264 0.21168 0.71145
 C2117 C -0.08188 0.21799 0.70231
 C2118 C -0.09340 0.21093 0.69736
 C2119 C -0.06040 0.21943 0.71618
 C2120 C -0.05058 0.21384 0.72498
 H2121 H -0.11174 0.18102 0.70222
 H2122 H -0.08864 0.18068 0.71420
 H2123 H -0.06842 0.19303 0.72286
 H2124 H -0.08017 0.22844 0.69898
 H2125 H -0.10039 0.21627 0.69054
 H2126 H -0.05899 0.22979 0.71244
 H2127 H -0.10989 0.20017 0.67722
 H2128 H -0.04358 0.21859 0.72722
 C2129 C 0.31351 0.38551 0.30238
 C2130 C 0.30160 0.39313 0.30535
 C2131 C 0.29687 0.40521 0.29735
 C2132 C 0.28699 0.41411 0.30308
 C2133 C 0.28229 0.42568 0.29600
 C2134 C 0.28744 0.42865 0.28300
 C2135 C 0.29700 0.41954 0.27710
 C2136 C 0.30169 0.40794 0.28416
 C2137 C 0.28279 0.44086 0.27518
 C2138 C 0.27738 0.45266 0.28136
 H2139 H 0.29564 0.39044 0.31423
 H2140 H 0.28289 0.41212 0.31310
 H2141 H 0.27448 0.43210 0.30071
 H2142 H 0.30093 0.42144 0.26700
 H2143 H 0.30891 0.40113 0.27912
 H2144 H 0.28436 0.44063 0.26434
 H2145 H 0.32000 0.38829 0.29393
 H2146 H 0.27702 0.45305 0.29232
 C2147 C 0.30930 -0.11241 0.81153
 C2148 C 0.31417 -0.10532 0.80022
 C2149 C 0.30783 -0.09210 0.79588
 C2150 C 0.30770 -0.08851 0.78209
 C2151 C 0.30114 -0.07639 0.77773
 C2152 C 0.29475 -0.06753 0.78718
 C2153 C 0.29529 -0.07097 0.80100
 C2154 C 0.30182 -0.08304 0.80532
 C2155 C 0.28699 -0.05492 0.78324
 C2156 C 0.28772 -0.04857 0.77054
 H2157 H 0.32222 -0.10983 0.79398
 H2158 H 0.31235 -0.09529 0.77463
 H2159 H 0.30083 -0.07427 0.76698
 H2160 H 0.29060 -0.06428 0.80852
 H2161 H 0.30217 -0.08518 0.81609
 H2162 H 0.28024 -0.05055 0.79086
 H2163 H 0.30043 -0.10834 0.81695
 H2164 H 0.29412 -0.05301 0.76268
 C2165 C 0.80756 0.38263 0.81590
 C2166 C 0.81189 0.38951 0.80425
 C2167 C 0.80514 0.40234 0.79945
 C2168 C 0.80546 0.40559 0.78559
 C2169 C 0.79912 0.41761 0.78077
 C2170 C 0.79248 0.42671 0.78980
 C2171 C 0.79241 0.42358 0.80369
 C2172 C 0.79868 0.41154 0.80849
 C2173 C 0.78569 0.43953 0.78513
 C2174 C 0.78462 0.44301 0.77150
 H2175 H 0.82002 0.38509 0.79805
 H2176 H 0.81051 0.39873 0.77845
 H2177 H 0.79945 0.41977 0.77000
 H2178 H 0.78752 0.43050 0.81087
 H2179 H 0.79864 0.40963 0.81930
 H2180 H 0.78134 0.44638 0.79270
 H2181 H 0.79864 0.38647 0.82140
 H2182 H 0.78075 0.45052 0.76924
 C2183 C 0.80797 -0.11747 0.31817
 C2184 C 0.81151 -0.11045 0.30632
 C2185 C 0.80440 -0.09762 0.30195
 C2186 C 0.80421 -0.09417 0.28812
 C2187 C 0.79743 -0.08225 0.28362
 C2188 C 0.79082 -0.07343 0.29293
 C2189 C 0.79128 -0.07672 0.30679
 C2190 C 0.79800 -0.08866 0.31127
 C2191 C 0.78344 -0.06078 0.28857
 C2192 C 0.78210 -0.05710 0.27500
 H2193 H 0.81918 -0.11484 0.29958
 H2194 H 0.80918 -0.10082 0.28075
 H2195 H 0.79737 -0.07997 0.27287
 H2196 H 0.78643 -0.07001 0.31418
 H2197 H 0.79831 -0.09069 0.32206
 H2198 H 0.77887 -0.05424 0.29628
 H2199 H 0.79959 -0.11359 0.32438
 H2200 H 0.77778 -0.04975 0.27295
 C2201 C 0.31267 0.60792 0.69585
 C2202 C 0.30132 0.60009 0.69179
 C2203 C 0.29676 0.58769 0.69921
 C2204 C 0.28323 0.58289 0.69719
 C2205 C 0.27852 0.57127 0.70408
 C2206 C 0.28733 0.56419 0.71318
 C2207 C 0.30095 0.56885 0.71495
 C2208 C 0.30565 0.58041 0.70805
 C2209 C 0.28305 0.55178 0.72079
 C2210 C 0.26957 0.54657 0.72103
 H2211 H 0.29527 0.60338 0.68308
 H2212 H 0.27622 0.58822 0.69033
 H2213 H 0.26807 0.56793 0.70207
 H2214 H 0.30806 0.56348 0.72168
 H2215 H 0.31631 0.58340 0.70957
 H2216 H 0.29098 0.54680 0.72686
 H2217 H 0.31840 0.60527 0.70494
 H2218 H 0.26130 0.55212 0.71599
 C2219 C 0.30876 1.11343 0.19262
 C2220 C 0.29806 1.10521 0.18771
 C2221 C 0.29340 1.09279 0.19506
 C2222 C 0.27998 1.08778 0.19284
 C2223 C 0.27533 1.07612 0.19974
 C2224 C 0.28410 1.06920 0.20901
 C2225 C 0.29763 1.07407 0.21093
 C2226 C 0.30226 1.08563 0.20402
 C2227 C 0.27990 1.05684 0.21676
 C2228 C 0.26668 1.05105 0.21650
 H2229 H 0.29283 1.10803 0.17836
 H2230 H 0.27303 1.09297 0.18582
 H2231 H 0.26491 1.07267 0.19770
 H2232 H 0.30471 1.06885 0.21780
 H2233 H 0.31289 1.08873 0.20559
 H2234 H 0.28771 1.05235 0.22333
 H2235 H 0.31340 1.11119 0.20239
 H2236 H 0.25845 1.05600 0.21083
 C2237 C 0.80252 0.61705 0.18332
 C2238 C 0.80654 0.60998 0.19503
 C2239 C 0.79912 0.59802 0.20068
 C2240 C 0.80597 0.58991 0.21041
 C2241 C 0.79943 0.57864 0.21624
 C2242 C 0.78583 0.57517 0.21240
 C2243 C 0.77884 0.58346 0.20290
 C2244 C 0.78540 0.59475 0.19704
 C2245 C 0.77855 0.56332 0.21845
 C2246 C 0.78560 0.55196 0.22387
 H2247 H 0.81595 0.61306 0.20018
 H2248 H 0.81644 0.59234 0.21359
 H2249 H 0.80499 0.57289 0.22394
 H2250 H 0.76826 0.58116 0.19997
 H2251 H 0.77958 0.60096 0.18991
 H2252 H 0.76735 0.56358 0.21826
 H2253 H 0.79357 0.61382 0.17753
 H2254 H 0.79679 0.55165 0.22322
 C2255 C 0.80480 1.11588 0.69005
 C2256 C 0.81009 1.10901 0.70138
 C2257 C 0.80300 1.09716 0.70766
 C2258 C 0.81072 1.08796 0.71568
 C2259 C 0.80437 1.07662 0.72169
 C2260 C 0.79009 1.07429 0.71981
 C2261 C 0.78231 1.08374 0.71213
 C2262 C 0.78865 1.09504 0.70612
 C2263 C 0.78284 1.06241 0.72587
 C2264 C 0.78961 1.05047 0.73029
 H2265 H 0.81999 1.11213 0.70556
 H2266 H 0.82172 1.08950 0.71725
 H2267 H 0.81070 1.06992 0.72793
 H2268 H 0.77126 1.08234 0.71072
 H2269 H 0.78219 1.10216 0.70048
 H2270 H 0.77167 1.06307 0.72655
 H2271 H 0.79541 1.11231 0.68520
 H2272 H 0.80078 1.04978 0.72968
 C2273 C 0.68566 0.61712 0.30735
 C2274 C 0.69811 0.61073 0.31103
 C2275 C 0.70319 0.59788 0.30461
 C2276 C 0.71743 0.59479 0.30503
 C2277 C 0.72258 0.58269 0.29917
 C2278 C 0.71353 0.57337 0.29282
 C2279 C 0.69926 0.57633 0.29268
 C2280 C 0.69413 0.58844 0.29848
 C2281 C 0.71839 0.56027 0.28673
 C2282 C 0.73199 0.55789 0.28240
 H2283 H 0.70471 0.61560 0.31852
 H2284 H 0.72460 0.60177 0.30990
 H2285 H 0.73357 0.58059 0.29993
 H2286 H 0.69204 0.56922 0.28805
 H2287 H 0.68304 0.59018 0.29836
 H2288 H 0.71075 0.55228 0.28552
 H2289 H 0.67951 0.61302 0.29910
 H2290 H 0.73964 0.56587 0.28365
 C2291 C 0.70164 1.11785 0.81184
 C2292 C 0.69714 1.10995 0.80084
 C2293 C 0.70528 1.09827 0.79531
 C2294 C 0.69842 1.08817 0.78772
 C2295 C 0.70570 1.07689 0.78249
 C2296 C 0.72007 1.07553 0.78473
 C2297 C 0.72701 1.08589 0.79189
 C2298 C 0.71973 1.09714 0.79715
 C2299 C 0.72822 1.06365 0.77964
 C2300 C 0.72236 1.05091 0.77661
 H2301 H 0.68706 1.11198 0.79639
 H2302 H 0.68735 1.08896 0.78590
 H2303 H 0.70002 1.06944 0.77658
 H2304 H 0.73811 1.08522 0.79354
 H2305 H 0.72553 1.10496 0.80246
 H2306 H 0.73930 1.06494 0.77872
 H2307 H 0.71129 1.11526 0.81689
 H2308 H 0.71128 1.04963 0.77747
 C2309 C 0.18686 0.60829 0.81293
 C2310 C 0.19869 0.60133 0.81745
 C2311 C 0.20292 0.58789 0.81171
 C2312 C 0.21705 0.58442 0.81107
 C2313 C 0.22133 0.57197 0.80526
 C2314 C 0.21149 0.56269 0.80008
 C2315 C 0.19735 0.56596 0.80124
 C2316 C 0.19309 0.57843 0.80694
 C2317 C 0.21545 0.54948 0.79365
 C2318 C 0.22827 0.54710 0.78749
 H2319 H 0.20559 0.60631 0.82460
 H2320 H 0.22481 0.59145 0.81488
 H2321 H 0.23230 0.56963 0.80500
 H2322 H 0.18956 0.55890 0.79754
 H2323 H 0.18209 0.58056 0.80770
 H2324 H 0.20767 0.54154 0.79335
 H2325 H 0.18067 0.60396 0.80482
 H2326 H 0.23611 0.55498 0.78789
 C2327 C 0.18448 1.11542 0.30798
 C2328 C 0.19491 1.10667 0.31284
 C2329 C 0.19904 1.09381 0.30575
 C2330 C 0.21212 1.08798 0.30842
 C2331 C 0.21641 1.07596 0.30178
 C2332 C 0.20764 1.06949 0.29230
 C2333 C 0.19441 1.07513 0.28994
 C2334 C 0.19012 1.08709 0.29659
 C2335 C 0.21156 1.05675 0.28487
 C2336 C 0.22504 1.05139 0.28421
 H2337 H 0.20064 1.10959 0.32185
 H2338 H 0.21910 1.09280 0.31561
 H2339 H 0.22652 1.07179 0.30427
 H2340 H 0.18732 1.07025 0.28290
 H2341 H 0.17974 1.09086 0.29462
 H2342 H 0.20340 1.05180 0.27917
 H2343 H 0.17925 1.11311 0.29853
 H2344 H 0.23342 1.05697 0.28894
 C2345 C 0.69489 0.38595 0.68385
 C2346 C 0.69119 0.39283 0.69574
 C2347 C 0.69828 0.40544 0.70043
 C2348 C 0.69781 0.40902 0.71422
 C2349 C 0.70452 0.42080 0.71898
 C2350 C 0.71169 0.42935 0.70994
 C2351 C 0.71198 0.42585 0.69613
 C2352 C 0.70529 0.41411 0.69139
 C2353 C 0.71925 0.44181 0.71434
 C2354 C 0.71743 0.44839 0.72683
 H2355 H 0.68311 0.38863 0.70207
 H2356 H 0.69242 0.40255 0.72138
 H2357 H 0.70422 0.42293 0.72974
 H2358 H 0.71733 0.43230 0.68892
 H2359 H 0.70550 0.41203 0.68061
 H2360 H 0.72659 0.44600 0.70722
 H2361 H 0.70358 0.38947 0.67794
 H2362 H 0.71046 0.44414 0.73426
 C2363 C 0.68956 -0.11488 0.18385
 C2364 C 0.68625 -0.10818 0.19594
 C2365 C 0.69368 -0.09576 0.20070
 C2366 C 0.69375 -0.09255 0.21459
 C2367 C 0.70096 -0.08111 0.21946
 C2368 C 0.70814 -0.07252 0.21044
 C2369 C 0.70787 -0.07564 0.19654
 C2370 C 0.70066 -0.08703 0.19169
 C2371 C 0.71625 -0.06045 0.21498
 C2372 C 0.71464 -0.05398 0.22756
 H2373 H 0.67846 -0.11255 0.20249
 H2374 H 0.68841 -0.09907 0.22174
 H2375 H 0.70109 -0.07928 0.23027
 H2376 H 0.71322 -0.06915 0.18936
 H2377 H 0.70047 -0.08881 0.18086
 H2378 H 0.72369 -0.05643 0.20787
 H2379 H 0.69798 -0.11118 0.17767
 H2380 H 0.70739 -0.05808 0.23481
 C2381 C 0.19682 0.38603 0.18818
 C2382 C 0.19248 0.39412 0.19911
 C2383 C 0.19990 0.40653 0.20398
 C2384 C 0.19606 0.41235 0.21648
 C2385 C 0.20256 0.42419 0.22138
 C2386 C 0.21312 0.43050 0.21385
 C2387 C 0.21689 0.42471 0.20133
 C2388 C 0.21036 0.41293 0.19641
 C2389 C 0.22019 0.44327 0.21829
 C2390 C 0.21840 0.44963 0.23093
 H2391 H 0.18324 0.39116 0.20453
 H2392 H 0.18794 0.40775 0.22247
 H2393 H 0.19908 0.42834 0.23095
 H2394 H 0.22486 0.42941 0.19521
 H2395 H 0.21345 0.40913 0.18657
 H2396 H 0.22742 0.44769 0.21121
 H2397 H 0.20626 0.38839 0.18285
 H2398 H 0.21226 0.44469 0.23862
 C2399 C 0.19558 -0.11402 0.68564
 C2400 C 0.19226 -0.10659 0.69734
 C2401 C 0.19981 -0.09422 0.70209
 C2402 C 0.19638 -0.08861 0.71479
 C2403 C 0.20296 -0.07683 0.71964
 C2404 C 0.21326 -0.07039 0.71189
 C2405 C 0.21661 -0.07591 0.69915
 C2406 C 0.21000 -0.08767 0.69428
 C2407 C 0.22031 -0.05765 0.71636
 C2408 C 0.22016 -0.05269 0.72969
 H2409 H 0.18366 -0.11002 0.70344
 H2410 H 0.18846 -0.09332 0.72097
 H2411 H 0.19971 -0.07272 0.72932
 H2412 H 0.22435 -0.07105 0.69287
 H2413 H 0.21286 -0.09133 0.68433
 H2414 H 0.22627 -0.05226 0.70881
 H2415 H 0.20428 -0.11115 0.67945
 H2416 H 0.21556 -0.05884 0.73758
 C2417 C 0.30380 0.31597 0.38771
 C2418 C 0.30742 0.30372 0.39425
 C2419 C 0.30071 0.29849 0.40668
 C2420 C 0.30321 0.28478 0.41042
 C2421 C 0.29763 0.27944 0.42233
 C2422 C 0.28934 0.28772 0.43078
 C2423 C 0.28691 0.30147 0.42709
 C2424 C 0.29251 0.30682 0.41516
 C2425 C 0.28369 0.28265 0.44379
 C2426 C 0.28188 0.26871 0.44670
 H2427 H 0.31547 0.29734 0.38986
 H2428 H 0.30966 0.27819 0.40417
 H2429 H 0.30020 0.26896 0.42499
 H2430 H 0.28072 0.30813 0.43352
 H2431 H 0.29062 0.31753 0.41286
 H2432 H 0.28094 0.29032 0.45125
 H2433 H 0.29519 0.32216 0.39125
 H2434 H 0.28439 0.26114 0.43903
 C2435 C 0.30623 0.81013 -0.11285
 C2436 C 0.31044 0.79798 -0.10652
 C2437 C 0.30433 0.79310 -0.09366
 C2438 C 0.30503 0.77906 -0.09048
 C2439 C 0.29949 0.77413 -0.07834
 C2440 C 0.29318 0.78323 -0.06909
 C2441 C 0.29277 0.79730 -0.07215
 C2442 C 0.29825 0.80220 -0.08428
 C2443 C 0.28736 0.77864 -0.05598
 C2444 C 0.28323 0.76517 -0.05331
 H2445 H 0.31816 0.79153 -0.11138
 H2446 H 0.30987 0.77187 -0.09743
 H2447 H 0.30045 0.76328 -0.07618
 H2448 H 0.28817 0.80456 -0.06510
 H2449 H 0.29795 0.81316 -0.08611
 H2450 H 0.28610 0.78641 -0.04823
 H2451 H 0.29772 0.81609 -0.10873
 H2452 H 0.28465 0.75731 -0.06096
 C2453 C 0.81065 0.30163 -0.11030
 C2454 C 0.79841 0.30539 -0.10375
 C2455 C 0.79291 0.29770 -0.09199
 C2456 C 0.78347 0.30423 -0.08328
 C2457 C 0.77824 0.29735 -0.07196
 C2458 C 0.78240 0.28374 -0.06914
 C2459 C 0.79149 0.27710 -0.07812
 C2460 C 0.79666 0.28395 -0.08943
 C2461 C 0.77750 0.27597 -0.05717
 C2462 C 0.77079 0.28194 -0.04605
 H2463 H 0.79288 0.31452 -0.10704
 H2464 H 0.78020 0.31473 -0.08517
 H2465 H 0.77090 0.30277 -0.06563
 H2466 H 0.79467 0.26655 -0.07637
 H2467 H 0.80342 0.27829 -0.09617
 H2468 H 0.78007 0.26516 -0.05692
 H2469 H 0.81674 0.29301 -0.10667
 H2470 H 0.76916 0.29293 -0.04587
 C2471 C 0.81055 0.79704 0.38685
 C2472 C 0.79935 0.80155 0.39464
 C2473 C 0.79371 0.79368 0.40623
 C2474 C 0.78533 0.80056 0.41569
 C2475 C 0.77985 0.79358 0.42682
 C2476 C 0.78266 0.77949 0.42872
 C2477 C 0.79066 0.77251 0.41902
 C2478 C 0.79615 0.77950 0.40791
 C2479 C 0.77718 0.77170 0.44043
 C2480 C 0.77344 0.77794 0.45266
 H2481 H 0.79474 0.81148 0.39243
 H2482 H 0.78303 0.81141 0.41451
 H2483 H 0.77326 0.79924 0.43372
 H2484 H 0.79276 0.76162 0.42010
 H2485 H 0.80210 0.77365 0.40062
 H2486 H 0.77645 0.76067 0.43937
 H2487 H 0.81577 0.78749 0.38927
 H2488 H 0.77447 0.78895 0.45368
 C2489 C 0.68935 0.30868 0.60830
 C2490 C 0.68541 0.29644 0.60203
 C2491 C 0.69183 0.29181 0.58912
 C2492 C 0.69266 0.27773 0.58606
 C2493 C 0.69918 0.27317 0.57416
 C2494 C 0.70487 0.28269 0.56501
 C2495 C 0.70367 0.29675 0.56795
 C2496 C 0.69715 0.30128 0.57976
 C2497 C 0.71235 0.27866 0.55245
 C2498 C 0.71251 0.26549 0.54674
 H2499 H 0.67795 0.28987 0.60693
 H2500 H 0.68852 0.27023 0.59304
 H2501 H 0.69993 0.26224 0.57240
 H2502 H 0.70779 0.30434 0.56104
 H2503 H 0.69623 0.31223 0.58143
 H2504 H 0.71808 0.28670 0.54747
 H2505 H 0.69763 0.31466 0.60397
 H2506 H 0.70737 0.25715 0.55185
 C2507 C 0.68385 0.80375 1.10990
 C2508 C 0.69378 0.80942 1.10136
 C2509 C 0.69857 0.80274 1.08867
 C2510 C 0.71118 0.80685 1.08300
 C2511 C 0.71609 0.80082 1.07104
 C2512 C 0.70842 0.79048 1.06446
 C2513 C 0.69567 0.78658 1.07001
 C2514 C 0.69076 0.79263 1.08194
 C2515 C 0.71304 0.78368 1.05175
 C2516 C 0.72622 0.78514 1.04608
 H2517 H 0.69872 0.81892 1.10434
 H2518 H 0.71731 0.81475 1.08787
 H2519 H 0.72578 0.80446 1.06703
 H2520 H 0.68942 0.77881 1.06507
 H2521 H 0.68075 0.78948 1.08565
 H2522 H 0.70577 0.77677 1.04698
 H2523 H 0.67941 0.79385 1.10758
 H2524 H 0.73396 0.79107 1.05139
 C2525 C 0.18419 0.30488 1.11443
 C2526 C 0.19661 0.30768 1.10780
 C2527 C 0.20103 0.30062 1.09519
 C2528 C 0.21517 0.30039 1.09187
 C2529 C 0.21975 0.29399 1.07997
 C2530 C 0.21022 0.28781 1.07105
 C2531 C 0.19607 0.28817 1.07429
 C2532 C 0.19150 0.29450 1.08622
 C2533 C 0.21464 0.28114 1.05825
 C2534 C 0.22851 0.27992 1.05462
 H2535 H 0.20370 0.31497 1.11231
 H2536 H 0.22271 0.30511 1.09855
 H2537 H 0.23073 0.29398 1.07775
 H2538 H 0.18850 0.28360 1.06753
 H2539 H 0.18048 0.29480 1.08819
 H2540 H 0.20674 0.27711 1.05152
 H2541 H 0.17743 0.29691 1.11066
 H2542 H 0.23061 0.27625 1.04707
 C2543 C 0.18285 0.80334 0.61450
 C2544 C 0.19425 0.80730 0.60678
 C2545 C 0.19889 0.79986 0.59447
 C2546 C 0.21255 0.80164 0.58996
 C2547 C 0.21727 0.79494 0.57829
 C2548 C 0.20834 0.78640 0.57081
 C2549 C 0.19465 0.78476 0.57521
 C2550 C 0.18994 0.79143 0.58689
 C2551 C 0.21289 0.77922 0.55835
 C2552 C 0.22636 0.78005 0.55349
 H2553 H 0.20035 0.81597 0.61011
 H2554 H 0.21961 0.80820 0.59554
 H2555 H 0.22788 0.79649 0.57512
 H2556 H 0.18753 0.77836 0.56954
 H2557 H 0.17922 0.79013 0.58974
 H2558 H 0.20538 0.77307 0.55290
 H2559 H 0.17723 0.79412 0.61194
 H2560 H 0.22854 0.77585 0.54625
 C2561 C 0.30294 0.68320 0.61597
 C2562 C 0.30627 0.69542 0.60937
 C2563 C 0.29848 0.70075 0.59744
 C2564 C 0.30474 0.71059 0.58912
 C2565 C 0.29780 0.71581 0.57773
 C2566 C 0.28439 0.71125 0.57439
 C2567 C 0.27797 0.70173 0.58295
 C2568 C 0.28490 0.69654 0.59435
 C2569 C 0.27660 0.71634 0.56236
 C2570 C 0.28292 0.72241 0.55114
 H2571 H 0.31524 0.70111 0.61277
 H2572 H 0.31508 0.71423 0.59142
 H2573 H 0.30294 0.72354 0.57175
 H2574 H 0.26755 0.69825 0.58079
 H2575 H 0.27944 0.68940 0.60075
 H2576 H 0.26558 0.71450 0.56223
 H2577 H 0.29454 0.67692 0.61227
 H2578 H 0.29408 0.72331 0.55108
 C2579 C 0.31017 0.19225 1.11427
 C2580 C 0.30093 0.18642 1.10501
 C2581 C 0.29685 0.19335 1.09216
 C2582 C 0.28449 0.18959 1.08561
 C2583 C 0.28039 0.19595 1.07347
 C2584 C 0.28866 0.20620 1.06761
 C2585 C 0.30119 0.20967 1.07400
 C2586 C 0.30527 0.20332 1.08608
 C2587 C 0.28494 0.21340 1.05480
 C2588 C 0.27192 0.21286 1.04849
 H2589 H 0.29634 0.17658 1.10731
 H2590 H 0.27794 0.18176 1.08995
 H2591 H 0.27085 0.19264 1.06874
 H2592 H 0.30790 0.21733 1.06961
 H2593 H 0.31517 0.20613 1.09043
 H2594 H 0.29273 0.22005 1.05059
 H2595 H 0.31410 0.20247 1.11253
 H2596 H 0.26363 0.20729 1.05326
 C2597 C 0.81510 0.69896 1.11018
 C2598 C 0.80430 0.69471 1.10169
 C2599 C 0.79979 0.70218 1.08926
 C2600 C 0.78742 0.69822 1.08283
 C2601 C 0.78277 0.70486 1.07106
 C2602 C 0.79040 0.71573 1.06546
 C2603 C 0.80286 0.71955 1.07177
 C2604 C 0.80754 0.71288 1.08349
 C2605 C 0.78611 0.72302 1.05288
 C2606 C 0.77288 0.72220 1.04705
 H2607 H 0.79865 0.68555 1.10439
 H2608 H 0.78133 0.68989 1.08691
 H2609 H 0.77333 0.70125 1.06636
 H2610 H 0.80906 0.72774 1.06758
 H2611 H 0.81732 0.71609 1.08777
 H2612 H 0.79366 0.72975 1.04838
 H2613 H 0.82072 0.70825 1.10804
 H2614 H 0.76489 0.71658 1.05227
 C2615 C 0.80349 0.18768 0.60962
 C2616 C 0.80925 0.19735 0.60092
 C2617 C 0.80234 0.20188 0.58820
 C2618 C 0.80590 0.21459 0.58254
 C2619 C 0.79952 0.21922 0.57058
 C2620 C 0.78945 0.21115 0.56402
 C2621 C 0.78618 0.19829 0.56952
 C2622 C 0.79255 0.19367 0.58144
 C2623 C 0.78241 0.21542 0.55128
 C2624 C 0.78224 0.22885 0.54625
 H2625 H 0.81887 0.20225 0.60377
 H2626 H 0.81359 0.22101 0.58742
 H2627 H 0.80270 0.22898 0.56648
 H2628 H 0.77865 0.19174 0.56456
 H2629 H 0.78991 0.18358 0.58514
 H2630 H 0.77649 0.20765 0.54603
 H2631 H 0.79339 0.18344 0.60744
 H2632 H 0.78683 0.23701 0.55218
 C2633 C 0.69015 0.69794 0.38386
 C2634 C 0.70097 0.69239 0.39158
 C2635 C 0.70682 0.69962 0.40353
 C2636 C 0.71311 0.69195 0.41393
 C2637 C 0.71830 0.69846 0.42554
 C2638 C 0.71735 0.71285 0.42692
 C2639 C 0.71160 0.72054 0.41623
 C2640 C 0.70637 0.71403 0.40467
 C2641 C 0.72236 0.72024 0.43913
 C2642 C 0.72408 0.71402 0.45180
 H2643 H 0.70477 0.68216 0.38927
 H2644 H 0.71384 0.68086 0.41316
 H2645 H 0.72316 0.69217 0.43327
 H2646 H 0.71100 0.73164 0.41690
 H2647 H 0.70214 0.72036 0.39662
 H2648 H 0.72434 0.73112 0.43811
 H2649 H 0.68558 0.70770 0.38673
 H2650 H 0.72218 0.70314 0.45287
 C2651 C 0.69217 0.19070 -0.11023
 C2652 C 0.68615 0.20091 -0.10220
 C2653 C 0.69245 0.20494 -0.08905
 C2654 C 0.69141 0.21859 -0.08453
 C2655 C 0.69817 0.22275 -0.07260
 C2656 C 0.70594 0.21322 -0.06488
 C2657 C 0.70653 0.19949 -0.06920
 C2658 C 0.69980 0.19536 -0.08107
 C2659 C 0.71404 0.21705 -0.05263
 C2660 C 0.71225 0.22922 -0.04525
 H2661 H 0.67732 0.20667 -0.10603
 H2662 H 0.68573 0.22613 -0.09047
 H2663 H 0.69759 0.23347 -0.06977
 H2664 H 0.71231 0.19190 -0.06341
 H2665 H 0.70040 0.18465 -0.08395
 H2666 H 0.72184 0.20973 -0.04935
 H2667 H 0.70177 0.18589 -0.10693
 H2668 H 0.70469 0.23674 -0.04862
 C2669 C 0.19050 0.69374 -0.11531
 C2670 C 0.20169 0.68885 -0.10765
 C2671 C 0.20741 0.69638 -0.09581
 C2672 C 0.21475 0.68904 -0.08582
 C2673 C 0.22016 0.69576 -0.07444
 C2674 C 0.21836 0.71004 -0.07284
 C2675 C 0.21143 0.71744 -0.08306
 C2676 C 0.20598 0.71072 -0.09441
 C2677 C 0.22390 0.71758 -0.06093
 C2678 C 0.22648 0.71136 -0.04838
 H2679 H 0.20597 0.67880 -0.10993
 H2680 H 0.21623 0.67804 -0.08679
 H2681 H 0.22594 0.68975 -0.06710
 H2682 H 0.21016 0.72848 -0.08221
 H2683 H 0.20086 0.71683 -0.10213
 H2684 H 0.22570 0.72846 -0.06215
 H2685 H 0.18542 0.70327 -0.11252
 H2686 H 0.22442 0.70051 -0.04721
 C2687 C 0.19289 0.19452 0.38617
 C2688 C 0.20362 0.18852 0.39367
 C2689 C 0.21009 0.19551 0.40546
 C2690 C 0.21655 0.18761 0.41560
 C2691 C 0.22254 0.19392 0.42696
 C2692 C 0.22222 0.20833 0.42835
 C2693 C 0.21617 0.21622 0.41797
 C2694 C 0.21018 0.20993 0.40665
 C2695 C 0.22829 0.21557 0.44020
 C2696 C 0.23099 0.20931 0.45270
 H2697 H 0.20702 0.17819 0.39120
 H2698 H 0.21686 0.17651 0.41479
 H2699 H 0.22754 0.18744 0.43445
 H2700 H 0.21601 0.22733 0.41864
 H2701 H 0.20581 0.21643 0.39880
 H2702 H 0.23044 0.22639 0.43901
 H2703 H 0.18873 0.20441 0.38918
 H2704 H 0.22899 0.19847 0.45396
 C2705 C 0.30551 0.38811 0.68414
 C2706 C 0.30959 0.39500 0.69591
 C2707 C 0.30231 0.40741 0.70100
 C2708 C 0.30286 0.41044 0.71492
 C2709 C 0.29570 0.42178 0.72018
 C2710 C 0.28797 0.43050 0.71155
 C2711 C 0.28765 0.42758 0.69759
 C2712 C 0.29478 0.41623 0.69234
 C2713 C 0.27988 0.44248 0.71657
 C2714 C 0.28158 0.44839 0.72941
 H2715 H 0.31769 0.39056 0.70220
 H2716 H 0.30861 0.40382 0.72179
 H2717 H 0.29606 0.42341 0.73102
 H2718 H 0.28187 0.43415 0.69069
 H2719 H 0.29445 0.41452 0.68150
 H2720 H 0.27230 0.44684 0.70966
 H2721 H 0.29676 0.39184 0.67827
 H2722 H 0.28896 0.44398 0.73648
 C2723 C 0.30562 0.89186 0.18492
 C2724 C 0.30931 0.89801 0.19719
 C2725 C 0.30280 0.91105 0.20180
 C2726 C 0.30137 0.91360 0.21574
 C2727 C 0.29445 0.92541 0.22034
 C2728 C 0.28899 0.93500 0.21101
 C2729 C 0.29081 0.93261 0.19709
 C2730 C 0.29772 0.92085 0.19251
 C2731 C 0.28087 0.94728 0.21520
 C2732 C 0.28126 0.95302 0.22822
 H2733 H 0.31622 0.89260 0.20408
 H2734 H 0.30525 0.90622 0.22309
 H2735 H 0.29307 0.92669 0.23114
 H2736 H 0.28683 0.93988 0.18968
 H2737 H 0.29905 0.91950 0.18170
 H2738 H 0.27437 0.95195 0.20750
 H2739 H 0.29780 0.89665 0.17855
 H2740 H 0.28778 0.94833 0.23590
 C2741 C 0.81063 0.39370 0.18990
 C2742 C 0.81441 0.39904 0.20252
 C2743 C 0.80910 0.41247 0.20744
 C2744 C 0.80781 0.41475 0.22144
 C2745 C 0.80236 0.42716 0.22635
 C2746 C 0.79817 0.43759 0.21729
 C2747 C 0.79996 0.43546 0.20331
 C2748 C 0.80534 0.42306 0.19842
 C2749 C 0.79211 0.45086 0.22182
 C2750 C 0.78649 0.45318 0.23469
 H2751 H 0.82064 0.39283 0.20936
 H2752 H 0.81085 0.40682 0.22860
 H2753 H 0.80160 0.42850 0.23721
 H2754 H 0.79706 0.44339 0.19611
 H2755 H 0.80666 0.42189 0.18758
 H2756 H 0.79181 0.45909 0.21446
 H2757 H 0.80342 0.39932 0.18351
 H2758 H 0.78703 0.44522 0.24232
 C2759 C 0.80704 0.88915 0.68944
 C2760 C 0.81271 0.89566 0.70077
 C2761 C 0.80698 0.90875 0.70611
 C2762 C 0.80854 0.91188 0.71994
 C2763 C 0.80272 0.92391 0.72535
 C2764 C 0.79537 0.93313 0.71693
 C2765 C 0.79415 0.93012 0.70305
 C2766 C 0.79994 0.91814 0.69767
 C2767 C 0.78855 0.94582 0.72203
 C2768 C 0.79077 0.95163 0.73484
 H2769 H 0.82095 0.89062 0.70642
 H2770 H 0.81400 0.90484 0.72663
 H2771 H 0.80382 0.92570 0.73612
 H2772 H 0.78868 0.93710 0.69629
 H2773 H 0.79895 0.91637 0.68687
 H2774 H 0.78135 0.95082 0.71515
 H2775 H 0.79804 0.89353 0.68444
 H2776 H 0.79743 0.94651 0.74213
 C2777 C 0.68716 0.60990 0.69349
 C2778 C 0.69854 0.60223 0.68905
 C2779 C 0.70297 0.58918 0.69551
 C2780 C 0.71680 0.58481 0.69421
 C2781 C 0.72135 0.57257 0.70021
 C2782 C 0.71209 0.56438 0.70760
 C2783 C 0.69818 0.56857 0.70857
 C2784 C 0.69365 0.58083 0.70262
 C2785 C 0.71634 0.55126 0.71406
 C2786 C 0.73003 0.54798 0.71756
 H2787 H 0.70487 0.60622 0.68094
 H2788 H 0.72412 0.59094 0.68857
 H2789 H 0.73204 0.56949 0.69880
 H2790 H 0.69078 0.56234 0.71399
 H2791 H 0.68279 0.58357 0.70343
 H2792 H 0.70819 0.54407 0.71634
 H2793 H 0.68138 0.60660 0.70227
 H2794 H 0.73819 0.55516 0.71526
 C2795 C 0.68736 0.10836 0.19149
 C2796 C 0.69889 0.10059 0.18763
 C2797 C 0.70286 0.08761 0.19452
 C2798 C 0.71684 0.08355 0.19472
 C2799 C 0.72105 0.07165 0.20159
 C2800 C 0.71125 0.06341 0.20825
 C2801 C 0.69723 0.06736 0.20778
 C2802 C 0.69305 0.07927 0.20096
 C2803 C 0.71511 0.05089 0.21605
 C2804 C 0.72803 0.04428 0.21535
 H2805 H 0.70584 0.10465 0.18005
 H2806 H 0.72460 0.08979 0.18980
 H2807 H 0.73199 0.06922 0.20183
 H2808 H 0.68944 0.06118 0.21273
 H2809 H 0.68211 0.08182 0.20067
 H2810 H 0.70728 0.04677 0.22269
 H2811 H 0.68095 0.10495 0.19979
 H2812 H 0.73603 0.04845 0.20896
 C2813 C 0.19877 0.61496 0.18486
 C2814 C 0.19563 0.60819 0.19692
 C2815 C 0.20322 0.59587 0.20183
 C2816 C 0.19694 0.58753 0.21160
 C2817 C 0.20380 0.57594 0.21670
 C2818 C 0.21717 0.57243 0.21211
 C2819 C 0.22359 0.58095 0.20258
 C2820 C 0.21671 0.59253 0.19746
 C2821 C 0.22487 0.56034 0.21739
 C2822 C 0.21825 0.54884 0.22273
 H2823 H 0.18699 0.61186 0.20293
 H2824 H 0.18667 0.59002 0.21533
 H2825 H 0.19870 0.56998 0.22443
 H2826 H 0.23397 0.57861 0.19907
 H2827 H 0.22213 0.59894 0.19032
 H2828 H 0.23604 0.56055 0.21676
 H2829 H 0.20676 0.61099 0.17825
 H2830 H 0.20704 0.54865 0.22282
 C2831 C 0.19947 0.11445 0.68935
 C2832 C 0.19406 0.10669 0.69996
 C2833 C 0.20147 0.09481 0.70608
 C2834 C 0.19382 0.08491 0.71309
 C2835 C 0.20041 0.07346 0.71886
 C2836 C 0.21486 0.07172 0.71776
 C2837 C 0.22256 0.08187 0.71115
 C2838 C 0.21597 0.09328 0.70534
 C2839 C 0.22234 0.05973 0.72359
 C2840 C 0.21604 0.04714 0.72628
 H2841 H 0.18370 0.10897 0.70351
 H2842 H 0.18268 0.08598 0.71403
 H2843 H 0.19414 0.06617 0.72431
 H2844 H 0.23372 0.08092 0.71039
 H2845 H 0.22232 0.10092 0.70049
 H2846 H 0.23333 0.06087 0.72545
 H2847 H 0.20941 0.11176 0.68502
 H2848 H 0.20504 0.04601 0.72446
 C2849 C 0.30271 0.61704 0.31077
 C2850 C 0.30669 0.60979 0.29917
 C2851 C 0.29870 0.59807 0.29353
 C2852 C 0.30523 0.58912 0.28433
 C2853 C 0.29815 0.57786 0.27891
 C2854 C 0.28431 0.57531 0.28259
 C2855 C 0.27766 0.58450 0.29143
 C2856 C 0.28473 0.59574 0.29686
 C2857 C 0.27641 0.56342 0.27727
 C2858 C 0.28272 0.55133 0.27261
 H2859 H 0.31629 0.61249 0.29425
 H2860 H 0.31588 0.59082 0.28136
 H2861 H 0.30351 0.57135 0.27171
 H2862 H 0.26694 0.58293 0.29424
 H2863 H 0.27909 0.60260 0.30350
 H2864 H 0.26523 0.56413 0.27764
 H2865 H 0.29355 0.61410 0.31628
 H2866 H 0.29392 0.55067 0.27265
 C2867 C 0.31481 0.11122 0.80781
 C2868 C 0.30234 0.10471 0.81073
 C2869 C 0.29794 0.09178 0.80407
 C2870 C 0.28384 0.08830 0.80406
 C2871 C 0.27933 0.07611 0.79800
 C2872 C 0.28889 0.06708 0.79184
 C2873 C 0.30301 0.07044 0.79211
 C2874 C 0.30751 0.08261 0.79815
 C2875 C 0.28476 0.05394 0.78537
 C2876 C 0.27121 0.05079 0.78141
 H2877 H 0.29530 0.10945 0.81791
 H2878 H 0.27628 0.09507 0.80874
 H2879 H 0.26841 0.07377 0.79843
 H2880 H 0.31063 0.06359 0.78763
 H2881 H 0.31852 0.08461 0.79837
 H2882 H 0.29293 0.04649 0.78355
 H2883 H 0.32151 0.10718 0.79996
 H2884 H 0.26290 0.05802 0.78342
 C2885 C 0.80095 0.61237 0.81024
 C2886 C 0.80674 0.60387 0.80034
 C2887 C 0.79943 0.59200 0.79428
 C2888 C 0.80723 0.58194 0.78746
 C2889 C 0.80077 0.57060 0.78153
 C2890 C 0.78630 0.56909 0.78231
 C2891 C 0.77846 0.57933 0.78881
 C2892 C 0.78492 0.59066 0.79475
 C2893 C 0.77898 0.55725 0.77623
 C2894 C 0.78541 0.54460 0.77362
 H2895 H 0.81727 0.60572 0.79710
 H2896 H 0.81839 0.58285 0.78672
 H2897 H 0.80716 0.56324 0.77617
 H2898 H 0.76728 0.57854 0.78935
 H2899 H 0.77844 0.59840 0.79946
 H2900 H 0.76805 0.55855 0.77408
 H2901 H 0.79078 0.61025 0.81425
 H2902 H 0.79635 0.54333 0.77577
 C2903 C 0.81332 0.10721 0.30683
 C2904 C 0.80141 0.09994 0.31017
 C2905 C 0.79688 0.08739 0.30285
 C2906 C 0.78315 0.08299 0.30430
 C2907 C 0.77845 0.07122 0.29759
 C2908 C 0.78747 0.06349 0.28929
 C2909 C 0.80125 0.06783 0.28800
 C2910 C 0.80594 0.07956 0.29473
 C2911 C 0.78318 0.05089 0.28188
 C2912 C 0.76996 0.04509 0.28243
 H2913 H 0.79488 0.10377 0.31826
 H2914 H 0.77598 0.08874 0.31060
 H2915 H 0.76777 0.06836 0.29903
 H2916 H 0.80849 0.06204 0.28182
 H2917 H 0.81673 0.08224 0.29365
 H2918 H 0.79091 0.04609 0.27549
 H2919 H 0.81965 0.10400 0.29837
 H2920 H 0.76186 0.05017 0.28810
 C2921 C 0.68938 0.39265 0.30363
 C2922 C 0.70194 0.39881 0.30699
 C2923 C 0.70749 0.41074 0.29955
 C2924 C 0.71669 0.41957 0.30626
 C2925 C 0.72200 0.43106 0.29964
 C2926 C 0.71826 0.43389 0.28611
 C2927 C 0.70945 0.42479 0.27925
 C2928 C 0.70407 0.41335 0.28589
 C2929 C 0.72366 0.44596 0.27877
 C2930 C 0.72753 0.45807 0.28538
 H2931 H 0.70755 0.39530 0.31590
 H2932 H 0.71968 0.41764 0.31670
 H2933 H 0.72920 0.43752 0.30510
 H2934 H 0.70664 0.42660 0.26874
 H2935 H 0.69741 0.40650 0.28023
 H2936 H 0.72418 0.44526 0.26784
 H2937 H 0.68313 0.39670 0.29540
 H2938 H 0.72640 0.45866 0.29629
 C2939 C 0.68966 0.88700 0.80045
 C2940 C 0.70178 0.89375 0.80426
 C2941 C 0.70744 0.90572 0.79688
 C2942 C 0.71725 0.91398 0.80347
 C2943 C 0.72278 0.92545 0.79699
 C2944 C 0.71857 0.92894 0.78373
 C2945 C 0.70909 0.92043 0.77698
 C2946 C 0.70356 0.90895 0.78346
 C2947 C 0.72405 0.94112 0.77657
 C2948 C 0.72932 0.95254 0.78342
 H2949 H 0.70715 0.89048 0.81339
 H2950 H 0.72062 0.91159 0.81371
 H2951 H 0.73048 0.93139 0.80238
 H2952 H 0.70587 0.92274 0.76668
 H2953 H 0.69641 0.90262 0.77779
 H2954 H 0.72317 0.94122 0.76564
 H2955 H 0.68371 0.89046 0.79177
 H2956 H 0.72902 0.95262 0.79440
 C2957 C 0.19085 0.38578 0.81886
 C2958 C 0.18851 0.39210 0.80634
 C2959 C 0.19576 0.40476 0.80204
 C2960 C 0.19653 0.40782 0.78815
 C2961 C 0.20344 0.41955 0.78367
 C2962 C 0.20960 0.42858 0.79307
 C2963 C 0.20873 0.42556 0.80695
 C2964 C 0.20181 0.41386 0.81142
 C2965 C 0.21729 0.44100 0.78889
 C2966 C 0.21551 0.44752 0.77635
 H2967 H 0.18161 0.38725 0.79911
 H2968 H 0.19196 0.40099 0.78071
 H2969 H 0.20416 0.42128 0.77287
 H2970 H 0.21334 0.43235 0.81440
 H2971 H 0.20111 0.41216 0.82223
 H2972 H 0.22447 0.44524 0.79621
 H2973 H 0.19837 0.38997 0.82587
 H2974 H 0.20838 0.44324 0.76900
 C2975 C 0.19258 0.88958 0.31539
 C2976 C 0.18886 0.89581 0.30316
 C2977 C 0.19525 0.90882 0.29860
 C2978 C 0.19597 0.91173 0.28468
 C2979 C 0.20236 0.92373 0.28011
 C2980 C 0.20800 0.93315 0.28945
 C2981 C 0.20702 0.93034 0.30337
 C2982 C 0.20062 0.91839 0.30792
 C2983 C 0.21536 0.94575 0.28524
 C2984 C 0.21368 0.95203 0.27258
 H2985 H 0.18161 0.89072 0.29644
 H2986 H 0.19188 0.90454 0.27731
 H2987 H 0.20314 0.92535 0.26930
 H2988 H 0.21117 0.93746 0.31078
 H2989 H 0.19982 0.91680 0.31874
 H2990 H 0.22229 0.95027 0.29262
 H2991 H 0.20063 0.89406 0.32163
 H2992 H 0.20683 0.94747 0.26515
 C2993 C 0.38635 0.31326 0.69088
 C2994 C 0.39447 0.30228 0.68630
 C2995 C 0.40738 0.29771 0.69328
 C2996 C 0.41238 0.28432 0.69104
 C2997 C 0.42450 0.27964 0.69748
 C2998 C 0.43188 0.28832 0.70634
 C2999 C 0.42701 0.30180 0.70832
 C3000 C 0.41495 0.30648 0.70187
 C3001 C 0.44484 0.28404 0.71341
 C3002 C 0.44976 0.27050 0.71427
 H3003 H 0.39095 0.29639 0.67764
 H3004 H 0.40686 0.27742 0.68432
 H3005 H 0.42804 0.26932 0.69532
 H3006 H 0.43260 0.30880 0.71489
 H3007 H 0.41180 0.31703 0.70350
 H3008 H 0.45045 0.29201 0.71871
 H3009 H 0.38919 0.31867 0.70006
 H3010 H 0.44355 0.26222 0.71025
 C3011 C 0.38173 0.81040 0.18508
 C3012 C 0.38897 0.81477 0.19658
 C3013 C 0.40208 0.80815 0.20119
 C3014 C 0.40624 0.80952 0.21480
 C3015 C 0.41841 0.80316 0.21953
 C3016 C 0.42672 0.79529 0.21068
 C3017 C 0.42271 0.79426 0.19701
 C3018 C 0.41061 0.80063 0.19228
 C3019 C 0.43968 0.78817 0.21500
 C3020 C 0.44457 0.78730 0.22837
 H3021 H 0.38456 0.82287 0.20280
 H3022 H 0.39997 0.81543 0.22183
 H3023 H 0.42116 0.80453 0.23008
 H3024 H 0.42900 0.78848 0.18988
 H3025 H 0.40815 0.79975 0.18160
 H3026 H 0.44540 0.78291 0.20712
 H3027 H 0.38549 0.80172 0.17929
 H3028 H 0.43841 0.79144 0.23656
 C3029 C 0.88407 0.31096 0.18786
 C3030 C 0.89124 0.31508 0.19949
 C3031 C 0.90427 0.30832 0.20409
 C3032 C 0.90805 0.30906 0.21785
 C3033 C 0.92002 0.30239 0.22262
 C3034 C 0.92856 0.29497 0.21363
 C3035 C 0.92490 0.29448 0.19984
 C3036 C 0.91298 0.30115 0.19508
 C3037 C 0.94108 0.28726 0.21811
 C3038 C 0.94803 0.28947 0.23041
 H3039 H 0.88675 0.32296 0.20592
 H3040 H 0.90155 0.31458 0.22499
 H3041 H 0.92227 0.30283 0.23336
 H3042 H 0.93134 0.28892 0.19267
 H3043 H 0.91074 0.30072 0.18433
 H3044 H 0.94498 0.27952 0.21121
 H3045 H 0.88791 0.30246 0.18185
 H3046 H 0.94407 0.29703 0.23747
 C3047 C 0.88389 0.80880 0.68365
 C3048 C 0.89041 0.81209 0.69589
 C3049 C 0.90311 0.80503 0.70091
 C3050 C 0.90624 0.80559 0.71482
 C3051 C 0.91800 0.79892 0.72003
 C3052 C 0.92701 0.79167 0.71136
 C3053 C 0.92393 0.79120 0.69743
 C3054 C 0.91217 0.79786 0.69222
 C3055 C 0.93950 0.78423 0.71636
 C3056 C 0.94598 0.78695 0.72880
 H3057 H 0.88562 0.81964 0.70248
 H3058 H 0.89943 0.81104 0.72173
 H3059 H 0.91975 0.79928 0.73087
 H3060 H 0.93071 0.78574 0.69051
 H3061 H 0.91039 0.79748 0.68139
 H3062 H 0.94380 0.77644 0.70974
 H3063 H 0.88801 0.80071 0.67727
 H3064 H 0.94165 0.79470 0.73544
 C3065 C 0.61525 0.31500 0.30475
 C3066 C 0.60800 0.30356 0.30928
 C3067 C 0.59588 0.29792 0.30189
 C3068 C 0.59176 0.28437 0.30450
 C3069 C 0.58032 0.27875 0.29776
 C3070 C 0.57269 0.28667 0.28837
 C3071 C 0.57678 0.30019 0.28579
 C3072 C 0.58814 0.30583 0.29256
 C3073 C 0.56056 0.28121 0.28093
 C3074 C 0.55234 0.27058 0.28582
 H3075 H 0.61142 0.29842 0.31845
 H3076 H 0.59751 0.27807 0.31166
 H3077 H 0.57765 0.26818 0.29979
 H3078 H 0.57102 0.30652 0.27865
 H3079 H 0.59057 0.31645 0.29057
 H3080 H 0.55733 0.28659 0.27183
 H3081 H 0.61249 0.31982 0.29523
 H3082 H 0.55452 0.26629 0.29573
 C3083 C 0.61008 0.81304 0.80866
 C3084 C 0.60314 0.80140 0.81314
 C3085 C 0.58995 0.79708 0.80671
 C3086 C 0.58669 0.78308 0.80575
 C3087 C 0.57472 0.77884 0.79882
 C3088 C 0.56571 0.78862 0.79289
 C3089 C 0.56877 0.80261 0.79434
 C3090 C 0.58066 0.80681 0.80122
 C3091 C 0.55335 0.78493 0.78470
 C3092 C 0.54736 0.77190 0.78415
 H3093 H 0.60787 0.79488 0.82080
 H3094 H 0.59365 0.77540 0.80999
 H3095 H 0.57286 0.76795 0.79788
 H3096 H 0.56196 0.81038 0.79002
 H3097 H 0.58255 0.81772 0.80221
 H3098 H 0.54885 0.79309 0.77863
 H3099 H 0.60597 0.81875 0.80010
 H3100 H 0.55199 0.76348 0.78974
 C3101 C 0.11416 0.30489 0.80931
 C3102 C 0.10590 0.31106 0.79935
 C3103 C 0.09288 0.30472 0.79444
 C3104 C 0.08809 0.30755 0.78126
 C3105 C 0.07598 0.30141 0.77629
 C3106 C 0.06841 0.29235 0.78451
 C3107 C 0.07299 0.28993 0.79784
 C3108 C 0.08505 0.29604 0.80277
 C3109 C 0.05557 0.28543 0.77989
 C3110 C 0.05107 0.28466 0.76638
 H3111 H 0.10940 0.32040 0.79453
 H3112 H 0.09382 0.31440 0.77473
 H3113 H 0.07262 0.30392 0.76612
 H3114 H 0.06723 0.28323 0.80449
 H3115 H 0.08807 0.29405 0.81318
 H3116 H 0.04978 0.28003 0.78756
 H3117 H 0.11134 0.29496 0.81332
 H3118 H 0.05748 0.28877 0.75841
 C3119 C 0.11618 0.80849 0.31325
 C3120 C 0.10972 0.81278 0.30126
 C3121 C 0.09658 0.80676 0.29627
 C3122 C 0.09345 0.80725 0.28235
 C3123 C 0.08107 0.80173 0.27734
 C3124 C 0.07150 0.79571 0.28624
 C3125 C 0.07449 0.79555 0.30019
 C3126 C 0.08689 0.80097 0.30517
 C3127 C 0.05811 0.78996 0.28155
 C3128 C 0.05553 0.78552 0.26827
 H3129 H 0.11472 0.82042 0.29503
 H3130 H 0.10064 0.81187 0.27532
 H3131 H 0.07896 0.80249 0.26658
 H3132 H 0.06720 0.79118 0.30728
 H3133 H 0.08867 0.80084 0.31601
 H3134 H 0.05008 0.78901 0.28910
 H3135 H 0.11193 0.80003 0.31895
 H3136 H 0.06351 0.78658 0.26068
 C3137 C 0.61349 0.69079 0.69100
 C3138 C 0.60625 0.70221 0.68605
 C3139 C 0.59305 0.70695 0.69223
 C3140 C 0.58911 0.72082 0.69126
 C3141 C 0.57689 0.72559 0.69738
 C3142 C 0.56834 0.71648 0.70458
 C3143 C 0.57210 0.70254 0.70512
 C3144 C 0.58425 0.69780 0.69900
 C3145 C 0.55534 0.72079 0.71147
 C3146 C 0.55109 0.73443 0.71346
 H3147 H 0.61064 0.70817 0.67788
 H3148 H 0.59559 0.72803 0.68589
 H3149 H 0.57426 0.73634 0.69634
 H3150 H 0.56561 0.69522 0.71033
 H3151 H 0.58657 0.68693 0.69948
 H3152 H 0.54917 0.71264 0.71566
 H3153 H 0.60973 0.68551 0.69988
 H3154 H 0.55775 0.74267 0.71025
 C3155 C 0.61463 0.18970 0.18830
 C3156 C 0.60822 0.18610 0.20042
 C3157 C 0.59496 0.19240 0.20483
 C3158 C 0.59174 0.19272 0.21870
 C3159 C 0.57948 0.19898 0.22319
 C3160 C 0.57018 0.20494 0.21383
 C3161 C 0.57323 0.20429 0.19995
 C3162 C 0.58543 0.19804 0.19547
 C3163 C 0.55733 0.21202 0.21813
 C3164 C 0.55349 0.21317 0.23164
 H3165 H 0.61338 0.17897 0.20723
 H3166 H 0.59883 0.18831 0.22609
 H3167 H 0.57738 0.19923 0.23397
 H3168 H 0.56615 0.20867 0.19253
 H3169 H 0.58725 0.19755 0.18466
 H3170 H 0.55077 0.21655 0.21036
 H3171 H 0.61006 0.19750 0.18185
 H3172 H 0.54617 0.21756 0.23372
 C3173 C 0.11654 0.68735 0.19685
 C3174 C 0.10834 0.69855 0.19290
 C3175 C 0.09615 0.70375 0.20051
 C3176 C 0.08769 0.71376 0.19434
 C3177 C 0.07625 0.71927 0.20112
 C3178 C 0.07291 0.71481 0.21427
 C3179 C 0.08148 0.70497 0.22056
 C3180 C 0.09297 0.69946 0.21378
 C3181 C 0.06093 0.72053 0.22185
 C3182 C 0.04949 0.72661 0.21541
 H3183 H 0.11094 0.70386 0.18361
 H3184 H 0.09000 0.71742 0.18423
 H3185 H 0.07029 0.72724 0.19608
 H3186 H 0.07927 0.70151 0.23077
 H3187 H 0.09935 0.69206 0.21912
 H3188 H 0.06113 0.71948 0.23276
 H3189 H 0.11405 0.68151 0.20581
 H3190 H 0.04910 0.72659 0.20444
 C3191 C 0.11507 0.18791 0.68676
 C3192 C 0.10974 0.18460 0.69946
 C3193 C 0.09626 0.19020 0.70407
 C3194 C 0.09410 0.19288 0.71790
 C3195 C 0.08156 0.19868 0.72229
 C3196 C 0.07092 0.20166 0.71290
 C3197 C 0.07295 0.19851 0.69916
 C3198 C 0.08546 0.19283 0.69478
 C3199 C 0.05770 0.20820 0.71690
 C3200 C 0.05512 0.21296 0.72995
 H3201 H 0.11578 0.17829 0.70637
 H3202 H 0.10222 0.19078 0.72525
 H3203 H 0.08024 0.20089 0.73298
 H3204 H 0.06486 0.20057 0.69175
 H3205 H 0.08661 0.19043 0.68411
 H3206 H 0.04989 0.20969 0.70910
 H3207 H 0.10965 0.19531 0.68044
 H3208 H 0.04760 0.21716 0.73171
 C3209 C 0.38549 0.69228 0.30872
 C3210 C 0.39164 0.68839 0.29650
 C3211 C 0.40426 0.69528 0.29142
 C3212 C 0.40690 0.69574 0.27743
 C3213 C 0.41857 0.70259 0.27246
 C3214 C 0.42790 0.70899 0.28148
 C3215 C 0.42539 0.70817 0.29546
 C3216 C 0.41382 0.70133 0.30039
 C3217 C 0.44024 0.71676 0.27703
 C3218 C 0.44558 0.71690 0.26386
 H3219 H 0.38689 0.68047 0.29035
 H3220 H 0.39976 0.69103 0.27032
 H3221 H 0.42003 0.70299 0.26161
 H3222 H 0.43248 0.71282 0.30267
 H3223 H 0.41251 0.70072 0.31127
 H3224 H 0.44542 0.72276 0.28476
 H3225 H 0.38960 0.70094 0.31431
 H3226 H 0.44021 0.71165 0.25574
 C3227 C 0.38868 0.19013 0.81141
 C3228 C 0.39403 0.20310 0.81427
 C3229 C 0.40723 0.20775 0.80824
 C3230 C 0.40924 0.22174 0.80548
 C3231 C 0.42149 0.22618 0.79933
 C3232 C 0.43202 0.21668 0.79603
 C3233 C 0.43016 0.20278 0.79920
 C3234 C 0.41794 0.19835 0.80525
 C3235 C 0.44499 0.22075 0.78922
 C3236 C 0.44756 0.23407 0.78490
 H3237 H 0.38815 0.21019 0.82051
 H3238 H 0.40120 0.22919 0.80784
 H3239 H 0.42266 0.23700 0.79709
 H3240 H 0.43816 0.19527 0.79690
 H3241 H 0.41697 0.18756 0.80768
 H3242 H 0.45265 0.21281 0.78732
 H3243 H 0.39391 0.18360 0.80413
 H3244 H 0.45501 0.23587 0.78072
 C3245 C 0.88000 0.68876 0.80509
 C3246 C 0.88760 0.69996 0.80978
 C3247 C 0.89920 0.70604 0.80207
 C3248 C 0.90927 0.71362 0.80909
 C3249 C 0.92055 0.71922 0.80223
 C3250 C 0.92190 0.71746 0.78812
 C3251 C 0.91166 0.71018 0.78104
 C3252 C 0.90040 0.70456 0.78790
 C3253 C 0.93385 0.72298 0.78055
 C3254 C 0.94448 0.73004 0.78697
 H3255 H 0.88552 0.70398 0.81983
 H3256 H 0.90851 0.71505 0.81997
 H3257 H 0.92822 0.72485 0.80800
 H3258 H 0.91238 0.70881 0.77015
 H3259 H 0.89263 0.69922 0.78202
 H3260 H 0.93438 0.72123 0.76970
 H3261 H 0.88250 0.68404 0.79547
 H3262 H 0.95125 0.73281 0.78227
 C3263 C 0.88188 0.18970 0.30642
 C3264 C 0.88771 0.20224 0.31008
 C3265 C 0.89899 0.20852 0.30212
 C3266 C 0.90886 0.21669 0.30873
 C3267 C 0.91998 0.22222 0.30154
 C3268 C 0.92130 0.21981 0.28751
 C3269 C 0.91115 0.21206 0.28082
 C3270 C 0.90010 0.20646 0.28802
 C3271 C 0.93320 0.22500 0.27964
 C3272 C 0.94443 0.23133 0.28584
 H3273 H 0.88465 0.20709 0.31951
 H3274 H 0.90814 0.21854 0.31955
 H3275 H 0.92757 0.22827 0.30699
 H3276 H 0.91183 0.21019 0.27000
 H3277 H 0.89242 0.20061 0.28251
 H3278 H 0.93337 0.22325 0.26878
 H3279 H 0.88583 0.18420 0.29768
 H3280 H 0.95122 0.23374 0.28095
 C3281 C 0.30577 0.30627 0.61306
 C3282 C 0.31200 0.29612 0.60512
 C3283 C 0.30491 0.28997 0.59322
 C3284 C 0.31288 0.28445 0.58263
 C3285 C 0.30647 0.27881 0.57115
 C3286 C 0.29190 0.27853 0.57009
 C3287 C 0.28397 0.28362 0.58090
 C3288 C 0.29037 0.28929 0.59233
 C3289 C 0.28460 0.27270 0.55815
 C3290 C 0.29063 0.27137 0.54535
 H3291 H 0.32261 0.29306 0.60724
 H3292 H 0.32409 0.28462 0.58318
 H3293 H 0.31299 0.27452 0.56331
 H3294 H 0.27275 0.28328 0.58047
 H3295 H 0.28386 0.29294 0.60051
 H3296 H 0.27396 0.26959 0.55955
 H3297 H 0.29562 0.31019 0.61032
 H3298 H 0.30126 0.27448 0.54393
 C3299 C 0.29905 0.81160 0.11161
 C3300 C 0.30405 0.80018 0.10455
 C3301 C 0.29708 0.79449 0.09237
 C3302 C 0.30486 0.78649 0.08328
 C3303 C 0.29865 0.78088 0.07170
 C3304 C 0.28447 0.78313 0.06902
 C3305 C 0.27662 0.79081 0.07831
 C3306 C 0.28283 0.79647 0.08985
 C3307 C 0.27744 0.77723 0.05698
 C3308 C 0.28441 0.77381 0.04503
 H3309 H 0.31376 0.79550 0.10772
 H3310 H 0.31579 0.78459 0.08512
 H3311 H 0.30496 0.77458 0.06508
 H3312 H 0.26562 0.79246 0.07661
 H3313 H 0.27637 0.80214 0.09686
 H3314 H 0.26636 0.77576 0.05762
 H3315 H 0.28993 0.81702 0.10799
 H3316 H 0.29545 0.77558 0.04443
 C3317 C 0.80096 0.31496 0.11483
 C3318 C 0.80403 0.30230 0.10882
 C3319 C 0.79656 0.29688 0.09677
 C3320 C 0.80261 0.28609 0.08935
 C3321 C 0.79590 0.28063 0.07796
 C3322 C 0.78295 0.28589 0.07373
 C3323 C 0.77676 0.29644 0.08136
 C3324 C 0.78344 0.30188 0.09275
 C3325 C 0.77538 0.28053 0.06172
 C3326 C 0.78160 0.27274 0.05145
 H3327 H 0.81247 0.29618 0.11292
 H3328 H 0.81258 0.28187 0.09237
 H3329 H 0.80086 0.27220 0.07269
 H3330 H 0.76668 0.30052 0.07849
 H3331 H 0.77812 0.30981 0.09843
 H3332 H 0.76465 0.28362 0.06060
 H3333 H 0.79305 0.32159 0.11052
 H3334 H 0.79266 0.27084 0.05186
 C3335 C 0.79633 0.81092 0.61499
 C3336 C 0.80121 0.80009 0.60701
 C3337 C 0.79340 0.79429 0.59537
 C3338 C 0.80059 0.78626 0.58585
 C3339 C 0.79370 0.78059 0.57471
 C3340 C 0.77939 0.78286 0.57281
 C3341 C 0.77210 0.79054 0.58254
 C3342 C 0.77900 0.79621 0.59370
 C3343 C 0.77172 0.77714 0.56106
 C3344 C 0.77815 0.77393 0.54877
 H3345 H 0.81143 0.79589 0.60907
 H3346 H 0.81162 0.78439 0.58703
 H3347 H 0.79961 0.77426 0.56777
 H3348 H 0.76104 0.79222 0.58145
 H3349 H 0.77294 0.80189 0.60103
 H3350 H 0.76067 0.77576 0.56213
 H3351 H 0.78648 0.81578 0.61272
 H3352 H 0.78916 0.77564 0.54776
 C3353 C 0.31271 0.69553 0.38757
 C3354 C 0.29984 0.69314 0.39347
 C3355 C 0.29479 0.70084 0.40547
 C3356 C 0.28469 0.69487 0.41374
 C3357 C 0.27987 0.70170 0.42530
 C3358 C 0.28506 0.71472 0.42881
 C3359 C 0.29477 0.72090 0.42025
 C3360 C 0.29961 0.71406 0.40872
 C3361 C 0.28042 0.72226 0.44107
 C3362 C 0.27491 0.71573 0.45244
 H3363 H 0.29350 0.68486 0.38961
 H3364 H 0.28060 0.68481 0.41131
 H3365 H 0.27196 0.69681 0.43130
 H3366 H 0.29872 0.73103 0.42257
 H3367 H 0.30697 0.71926 0.40231
 H3368 H 0.28219 0.73320 0.44126
 H3369 H 0.31959 0.70311 0.39189
 H3370 H 0.27427 0.70464 0.45240
 C3371 C 0.30696 0.18706 0.88763
 C3372 C 0.31122 0.19857 0.89498
 C3373 C 0.30480 0.20274 0.90801
 C3374 C 0.30590 0.21643 0.91236
 C3375 C 0.30000 0.22070 0.92464
 C3376 C 0.29294 0.21128 0.93289
 C3377 C 0.29216 0.19752 0.92869
 C3378 C 0.29799 0.19328 0.91641
 C3379 C 0.28663 0.21515 0.94607
 C3380 C 0.28312 0.22862 0.94975
 H3381 H 0.31926 0.20502 0.89085
 H3382 H 0.31131 0.22388 0.90621
 H3383 H 0.30127 0.23129 0.92768
 H3384 H 0.28699 0.19000 0.93493
 H3385 H 0.29735 0.18253 0.91371
 H3386 H 0.28446 0.20687 0.95303
 H3387 H 0.29825 0.18111 0.89111
 H3388 H 0.28541 0.23696 0.94289
 C3389 C 0.80474 0.68923 0.88576
 C3390 C 0.81122 0.69846 0.89453
 C3391 C 0.80453 0.70326 0.90719
 C3392 C 0.80788 0.71619 0.91254
 C3393 C 0.80145 0.72104 0.92435
 C3394 C 0.79156 0.71296 0.93107
 C3395 C 0.78857 0.69988 0.92590
 C3396 C 0.79497 0.69505 0.91414
 C3397 C 0.78426 0.71748 0.94355
 C3398 C 0.78437 0.73088 0.94869
 H3399 H 0.82114 0.70276 0.89176
 H3400 H 0.81538 0.72260 0.90747
 H3401 H 0.80437 0.73103 0.92814
 H3402 H 0.78120 0.69333 0.93099
 H3403 H 0.79253 0.68481 0.91064
 H3404 H 0.77796 0.70986 0.94850
 H3405 H 0.79433 0.68582 0.88790
 H3406 H 0.78965 0.73883 0.94314
 C3407 C 0.80143 0.18596 0.38386
 C3408 C 0.80513 0.19808 0.39051
 C3409 C 0.79729 0.20387 0.40215
 C3410 C 0.80391 0.21319 0.41088
 C3411 C 0.79690 0.21882 0.42200
 C3412 C 0.78305 0.21526 0.42461
 C3413 C 0.77631 0.20628 0.41564
 C3414 C 0.78332 0.20062 0.40454
 C3415 C 0.77519 0.22085 0.43633
 C3416 C 0.78149 0.22599 0.44809
 H3417 H 0.81448 0.20330 0.38744
 H3418 H 0.81457 0.21608 0.40912
 H3419 H 0.80235 0.22610 0.42834
 H3420 H 0.76558 0.20355 0.41726
 H3421 H 0.77765 0.19390 0.39781
 H3422 H 0.76401 0.22044 0.43572
 H3423 H 0.79265 0.18011 0.38734
 H3424 H 0.79268 0.22632 0.44866
 C3425 C 0.69590 0.31496 0.38173
 C3426 C 0.69090 0.30398 0.38932
 C3427 C 0.69856 0.29796 0.40100
 C3428 C 0.69122 0.29043 0.41072
 C3429 C 0.69803 0.28482 0.42201
 C3430 C 0.71240 0.28656 0.42375
 C3431 C 0.71979 0.29382 0.41390
 C3432 C 0.71299 0.29941 0.40262
 C3433 C 0.71993 0.28109 0.43572
 C3434 C 0.71337 0.27352 0.44572
 H3435 H 0.68068 0.30003 0.38706
 H3436 H 0.68013 0.28905 0.40967
 H3437 H 0.69202 0.27922 0.42938
 H3438 H 0.73089 0.29517 0.41494
 H3439 H 0.71915 0.30469 0.39515
 H3440 H 0.73090 0.28320 0.43672
 H3441 H 0.70570 0.31961 0.38435
 H3442 H 0.71802 0.27082 0.45256
 C3443 C 0.69327 0.81611 0.88430
 C3444 C 0.68866 0.80524 0.89227
 C3445 C 0.69586 0.80082 0.90490
 C3446 C 0.69388 0.78743 0.90973
 C3447 C 0.70063 0.78287 0.92153
 C3448 C 0.70949 0.79170 0.92881
 C3449 C 0.71121 0.80518 0.92409
 C3450 C 0.70446 0.80972 0.91234
 C3451 C 0.71704 0.78755 0.94136
 C3452 C 0.71667 0.77444 0.94718
 H3453 H 0.67979 0.79938 0.88889
 H3454 H 0.68718 0.78041 0.90429
 H3455 H 0.69877 0.77246 0.92477
 H3456 H 0.71778 0.81229 0.92956
 H3457 H 0.70588 0.82028 0.90929
 H3458 H 0.72349 0.79528 0.94603
 H3459 H 0.70264 0.82149 0.88707
 H3460 H 0.71105 0.76633 0.94216
 C3461 C 0.19139 0.29961 0.88537
 C3462 C 0.19979 0.30582 0.89516
 C3463 C 0.20606 0.29839 0.90683
 C3464 C 0.21135 0.30607 0.91773
 C3465 C 0.21734 0.29955 0.92897
 C3466 C 0.21816 0.28511 0.92957
 C3467 C 0.21320 0.27744 0.91852
 C3468 C 0.20722 0.28397 0.90727
 C3469 C 0.22431 0.27765 0.94130
 C3470 C 0.22634 0.28353 0.95410
 H3471 H 0.20155 0.31677 0.89451
 H3472 H 0.21082 0.31719 0.91756
 H3473 H 0.22145 0.30593 0.93699
 H3474 H 0.21390 0.26633 0.91861
 H3475 H 0.20375 0.27762 0.89894
 H3476 H 0.22712 0.26699 0.93974
 H3477 H 0.18888 0.28884 0.88611
 H3478 H 0.22377 0.29423 0.95574
 C3479 C 0.19587 0.81196 0.39073
 C3480 C 0.19234 0.79966 0.39705
 C3481 C 0.19928 0.79473 0.40962
 C3482 C 0.19880 0.78070 0.41290
 C3483 C 0.20536 0.77570 0.42462
 C3484 C 0.21243 0.78472 0.43339
 C3485 C 0.21278 0.79874 0.43016
 C3486 C 0.20620 0.80373 0.41851
 C3487 C 0.21982 0.78005 0.44578
 C3488 C 0.21716 0.76772 0.45253
 H3489 H 0.18452 0.79320 0.39245
 H3490 H 0.19350 0.77356 0.40626
 H3491 H 0.20507 0.76479 0.42657
 H3492 H 0.21807 0.80592 0.43678
 H3493 H 0.20643 0.81467 0.41668
 H3494 H 0.22755 0.78692 0.44988
 H3495 H 0.20425 0.81810 0.39471
 H3496 H 0.20969 0.76063 0.44835
 C3497 C 0.69671 0.68732 0.61621
 C3498 C 0.69276 0.69907 0.60903
 C3499 C 0.70058 0.70422 0.59718
 C3500 C 0.69370 0.71244 0.58756
 C3501 C 0.70068 0.71730 0.57614
 C3502 C 0.71477 0.71406 0.57414
 C3503 C 0.72178 0.70626 0.58401
 C3504 C 0.71479 0.70136 0.59540
 C3505 C 0.72255 0.71887 0.56211
 C3506 C 0.71613 0.72195 0.54972
 H3507 H 0.68322 0.70430 0.61173
 H3508 H 0.68283 0.71503 0.58883
 H3509 H 0.69502 0.72374 0.56906
 H3510 H 0.73270 0.70385 0.58286
 H3511 H 0.72062 0.69551 0.60284
 H3512 H 0.73369 0.71956 0.56307
 H3513 H 0.70566 0.68141 0.61301
 H3514 H 0.70501 0.72088 0.54886
 C3515 C 0.69255 0.18542 0.11219
 C3516 C 0.70475 0.18141 0.10572
 C3517 C 0.70868 0.18759 0.09257
 C3518 C 0.72270 0.18965 0.08949
 C3519 C 0.72646 0.19661 0.07762
 C3520 C 0.71618 0.20145 0.06857
 C3521 C 0.70223 0.19883 0.07143
 C3522 C 0.69851 0.19188 0.08319
 C3523 C 0.71929 0.20988 0.05650
 C3524 C 0.73218 0.21031 0.05009
 H3525 H 0.71189 0.17442 0.11073
 H3526 H 0.73072 0.18635 0.09652
 H3527 H 0.73732 0.19857 0.07589
 H3528 H 0.69411 0.20231 0.06457
 H3529 H 0.68762 0.19000 0.08496
 H3530 H 0.71078 0.21595 0.05256
 H3531 H 0.68612 0.19337 0.10767
 H3532 H 0.74065 0.20417 0.05408
 C3533 C 0.18612 0.69601 0.11171
 C3534 C 0.19795 0.69206 0.10451
 C3535 C 0.20247 0.69852 0.09167
 C3536 C 0.21614 0.69625 0.08734
 C3537 C 0.22085 0.70186 0.07519
 C3538 C 0.21195 0.70990 0.06705
 C3539 C 0.19820 0.71199 0.07125
 C3540 C 0.19349 0.70640 0.08344
 C3541 C 0.21639 0.71571 0.05389
 C3542 C 0.23025 0.71825 0.05067
 H3543 H 0.20459 0.68412 0.10871
 H3544 H 0.22321 0.69004 0.09337
 H3545 H 0.23136 0.69956 0.07210
 H3546 H 0.19107 0.71795 0.06506
 H3547 H 0.18277 0.70807 0.08617
 H3548 H 0.20829 0.71812 0.04665
 H3549 H 0.17973 0.70447 0.10822
 H3550 H 0.23818 0.71614 0.05819
 C3551 C 0.19142 0.18983 0.60950
 C3552 C 0.20459 0.18719 0.60426
 C3553 C 0.20952 0.19313 0.59133
 C3554 C 0.22383 0.19380 0.58894
 C3555 C 0.22887 0.19915 0.57677
 C3556 C 0.21963 0.20393 0.56670
 C3557 C 0.20532 0.20303 0.56901
 C3558 C 0.20030 0.19768 0.58115
 C3559 C 0.22432 0.20950 0.55352
 C3560 C 0.23774 0.21421 0.55102
 H3561 H 0.21175 0.18082 0.61000
 H3562 H 0.23115 0.19015 0.59652
 H3563 H 0.23996 0.19925 0.57527
 H3564 H 0.19797 0.20646 0.56136
 H3565 H 0.18919 0.19688 0.58235
 H3566 H 0.21667 0.21000 0.54547
 H3567 H 0.18450 0.19698 0.60443
 H3568 H 0.24558 0.21346 0.55886
   
