data_POSCAR
  _audit_creation_date              2014-09-24
  _audit_creation_method            'ToBaCCo'
  _symmetry_space_group_name_H-M    'P1'
  _symmetry_Int_Tables_number       1
  _symmetry_cell_setting            triclinic
  loop_
  _symmetry_equiv_pos_as_xyz
 x,y,z
_cell_length_a 79.6552
_cell_length_b 80.6726
_cell_length_c 80.2462
_cell_angle_alpha 88.668900
_cell_angle_beta 89.591500
_cell_angle_gamma 89.905400
loop_
  _atom_site_label
  _atom_site_type_symbol
  _atom_site_fract_x
  _atom_site_fract_y
  _atom_site_fract_z
N1 N 0.18105 0.21816 0.22472
 N2 N 0.18480 0.20440 0.23298
 C3 C 0.17328 0.20171 0.24507
 C4 C 0.16169 0.21449 0.24446
 C5 C 0.16706 0.22478 0.23142
 H6 H 0.17336 0.19132 0.25381
 H7 H 0.16103 0.23601 0.22691
 Cu8 Cu 0.20445 0.19134 0.22735
 Cu9 Cu 0.19416 0.22584 0.20537
 Cu10 Cu 0.22899 0.20219 0.19485
 N11 N 0.22398 0.17823 0.22140
 N12 N 0.23372 0.18269 0.20882
 C13 C 0.24635 0.17168 0.20751
 C14 C 0.24440 0.15960 0.21992
 C15 C 0.23004 0.16419 0.22850
 H16 H 0.25608 0.17231 0.19805
 H17 H 0.22452 0.15786 0.23921
 N18 N 0.22217 0.22228 0.18220
 N19 N 0.20901 0.23137 0.18619
 C20 C 0.20746 0.24387 0.17484
 C21 C 0.22020 0.24251 0.16308
 C22 C 0.22928 0.22871 0.16824
 H23 H 0.19751 0.25299 0.17484
 H24 H 0.24024 0.22364 0.16220
 H25 H 0.20328 0.20285 0.19905
 H26 H 0.21659 0.21549 0.21295
 N27 N 0.68196 0.72533 0.72521
 N28 N 0.68423 0.71073 0.73241
 C29 C 0.67311 0.70886 0.74506
 C30 C 0.66342 0.72313 0.74583
 C31 C 0.66943 0.73328 0.73302
 H32 H 0.67227 0.69804 0.75322
 H33 H 0.66484 0.74546 0.72944
 Cu34 Cu 0.70166 0.69564 0.72478
 Cu35 Cu 0.69496 0.73276 0.70595
 Cu36 Cu 0.72759 0.70775 0.69306
 N37 N 0.72126 0.68274 0.71840
 N38 N 0.73142 0.68747 0.70622
 C39 C 0.74398 0.67635 0.70496
 C40 C 0.74157 0.66394 0.71699
 C41 C 0.72700 0.66847 0.72527
 H42 H 0.75408 0.67722 0.69592
 H43 H 0.72119 0.66204 0.73576
 N44 N 0.72161 0.72881 0.68145
 N45 N 0.70928 0.73835 0.68665
 C46 C 0.70825 0.75184 0.67657
 C47 C 0.72050 0.75087 0.66435
 C48 C 0.72873 0.73602 0.66779
 H49 H 0.69903 0.76157 0.67787
 H50 H 0.73923 0.73095 0.66097
 H51 H 0.70220 0.70957 0.69742
 H52 H 0.71645 0.71948 0.71273
 N53 N 0.31995 0.77794 0.72005
 N54 N 0.31521 0.79037 0.72930
 C55 C 0.32667 0.79250 0.74134
 C56 C 0.33928 0.78080 0.73948
 C57 C 0.33457 0.77182 0.72579
 H58 H 0.32588 0.80179 0.75081
 H59 H 0.34100 0.76123 0.72074
 Cu60 Cu 0.29432 0.80223 0.72485
 Cu61 Cu 0.30633 0.76965 0.70202
 Cu62 Cu 0.26875 0.78993 0.69443
 N63 N 0.27374 0.81431 0.71946
 N64 N 0.26364 0.80899 0.70789
 C65 C 0.25034 0.81917 0.70663
 C66 C 0.25210 0.83180 0.71795
 C67 C 0.26723 0.82824 0.72588
 H68 H 0.24041 0.81762 0.69773
 H69 H 0.27306 0.83517 0.73564
 N70 N 0.27612 0.77051 0.68198
 N71 N 0.29069 0.76309 0.68445
 C72 C 0.29230 0.75069 0.67358
 C73 C 0.27801 0.75025 0.66389
 C74 C 0.26804 0.76299 0.66959
 H75 H 0.30297 0.74243 0.67290
 H76 H 0.25593 0.76671 0.66481
 H77 H 0.29456 0.79190 0.69656
 H78 H 0.28372 0.77744 0.71165
 N79 N 0.81917 0.27991 0.22072
 N80 N 0.81435 0.29155 0.23089
 C81 C 0.82567 0.29282 0.24315
 C82 C 0.83840 0.28132 0.24057
 C83 C 0.83379 0.27343 0.22608
 H84 H 0.82472 0.30159 0.25307
 H85 H 0.84028 0.26343 0.22002
 Cu86 Cu 0.79375 0.30379 0.22672
 Cu87 Cu 0.80561 0.27336 0.20179
 Cu88 Cu 0.76882 0.29571 0.19471
 N89 N 0.77418 0.31746 0.22210
 N90 N 0.76429 0.31402 0.20961
 C91 C 0.75188 0.32533 0.20876
 C92 C 0.75415 0.33658 0.22135
 C93 C 0.76848 0.33116 0.22956
 H94 H 0.74224 0.32561 0.19933
 H95 H 0.77438 0.33681 0.24009
 N96 N 0.77584 0.27682 0.18108
 N97 N 0.79002 0.26864 0.18349
 C98 C 0.79132 0.25670 0.17210
 C99 C 0.77726 0.25732 0.16209
 C100 C 0.76772 0.27023 0.16815
 H101 H 0.80154 0.24792 0.17137
 H102 H 0.75580 0.27456 0.16340
 H103 H 0.79456 0.29627 0.19757
 H104 H 0.78274 0.28100 0.21085
 N105 N 0.81834 0.72242 0.27627
 N106 N 0.81315 0.70968 0.26780
 C107 C 0.82319 0.70785 0.25441
 C108 C 0.83541 0.72003 0.25449
 C109 C 0.83194 0.72905 0.26861
 H110 H 0.82186 0.69822 0.24537
 H111 H 0.83867 0.73975 0.27289
 Cu112 Cu 0.79386 0.69656 0.27503
 Cu113 Cu 0.80694 0.72951 0.29651
 Cu114 Cu 0.77193 0.70691 0.30916
 N115 N 0.77400 0.68424 0.28218
 N116 N 0.76538 0.68851 0.29542
 C117 C 0.75223 0.67821 0.29749
 C118 C 0.75262 0.66678 0.28488
 C119 C 0.76664 0.67100 0.27540
 H120 H 0.74319 0.67885 0.30756
 H121 H 0.77102 0.66499 0.26428
 N122 N 0.78046 0.72591 0.32145
 N123 N 0.79367 0.73467 0.31663
 C124 C 0.79614 0.74684 0.32761
 C125 C 0.78395 0.74557 0.33997
 C126 C 0.77425 0.73217 0.33562
 H127 H 0.80619 0.75581 0.32681
 H128 H 0.76333 0.72744 0.34221
 H129 H 0.79729 0.70658 0.30327
 H130 H 0.78368 0.72046 0.29018
 N131 N 0.31935 0.22003 -0.22508
 N132 N 0.31417 0.20771 -0.23411
 C133 C 0.32459 0.20594 -0.24717
 C134 C 0.33718 0.21776 -0.24645
 C135 C 0.33342 0.22648 -0.23211
 H136 H 0.32310 0.19655 -0.25640
 H137 H 0.34009 0.23699 -0.22732
 Cu138 Cu 0.29451 0.19469 -0.22812
 Cu139 Cu 0.30670 0.22713 -0.20551
 Cu140 Cu 0.27097 0.20433 -0.19489
 N141 N 0.27527 0.18144 -0.22129
 N142 N 0.26593 0.18527 -0.20840
 C143 C 0.25366 0.17388 -0.20643
 C144 C 0.25552 0.16222 -0.21873
 C145 C 0.26935 0.16747 -0.22793
 H146 H 0.24437 0.17386 -0.19655
 H147 H 0.27471 0.16156 -0.23868
 N148 N 0.27819 0.22395 -0.18270
 N149 N 0.29203 0.23233 -0.18629
 C150 C 0.29347 0.24482 -0.17549
 C151 C 0.27977 0.24436 -0.16476
 C152 C 0.27041 0.23096 -0.16969
 H153 H 0.30346 0.25387 -0.17569
 H154 H 0.25880 0.22658 -0.16411
 H155 H 0.29661 0.20417 -0.19958
 H156 H 0.28369 0.21837 -0.21299
 N157 N 0.68156 0.28389 -0.22311
 N158 N 0.68851 0.29311 -0.23495
 C159 C 0.67789 0.29436 -0.24792
 C160 C 0.66337 0.28544 -0.24396
 C161 C 0.66630 0.27904 -0.22802
 H162 H 0.68061 0.30130 -0.25929
 H163 H 0.65820 0.27107 -0.22057
 Cu164 Cu 0.71077 0.30260 -0.23213
 Cu165 Cu 0.69315 0.27770 -0.20272
 Cu166 Cu 0.73048 0.29759 -0.19506
 N167 N 0.72935 0.31671 -0.22577
 N168 N 0.73684 0.31483 -0.21130
 C169 C 0.74855 0.32670 -0.20986
 C170 C 0.74848 0.33657 -0.22422
 C171 C 0.73615 0.32980 -0.23408
 H172 H 0.75646 0.32808 -0.19909
 H173 H 0.73204 0.33435 -0.24616
 N174 N 0.72137 0.27992 -0.18021
 N175 N 0.70674 0.27288 -0.18289
 C176 C 0.70352 0.26177 -0.17055
 C177 C 0.71680 0.26168 -0.15957
 C178 C 0.72796 0.27331 -0.16610
 H179 H 0.69252 0.25395 -0.16980
 H180 H 0.73987 0.27683 -0.16086
 H181 H 0.70591 0.30014 -0.20231
 H182 H 0.71775 0.28193 -0.21060
 N183 N 0.18487 0.77821 0.27668
 N184 N 0.18811 0.79245 0.26902
 C185 C 0.17761 0.79433 0.25598
 C186 C 0.16739 0.78044 0.25540
 C187 C 0.17238 0.77054 0.26877
 H188 H 0.17770 0.80478 0.24729
 H189 H 0.16727 0.75861 0.27250
 Cu190 Cu 0.20626 0.80682 0.27632
 Cu191 Cu 0.19709 0.77026 0.29612
 Cu192 Cu 0.23176 0.79280 0.30703
 N193 N 0.22709 0.81824 0.28183
 N194 N 0.23703 0.81234 0.29354
 C195 C 0.25059 0.82208 0.29463
 C196 C 0.24927 0.83503 0.28301
 C197 C 0.23405 0.83214 0.27511
 H198 H 0.26052 0.81988 0.30348
 H199 H 0.22852 0.83939 0.26507
 N200 N 0.22454 0.77276 0.31937
 N201 N 0.21110 0.76423 0.31543
 C202 C 0.20949 0.75123 0.32618
 C203 C 0.22265 0.75157 0.33736
 C204 C 0.23190 0.76541 0.33265
 H205 H 0.19971 0.74199 0.32570
 H206 H 0.24312 0.76986 0.33856
 H207 H 0.20592 0.79287 0.30369
 H208 H 0.21885 0.78163 0.28790
 N209 N 0.46961 0.43058 0.47365
 N210 N 0.45548 0.43497 0.48088
 C211 C 0.45183 0.42396 0.49326
 C212 C 0.46443 0.41211 0.49387
 C213 C 0.47549 0.41674 0.48124
 H214 H 0.44099 0.42463 0.50140
 H215 H 0.48687 0.41037 0.47766
 Cu216 Cu 0.44367 0.45497 0.47363
 Cu217 Cu 0.47920 0.44280 0.45469
 Cu218 Cu 0.45783 0.47802 0.44111
 N219 N 0.43181 0.47479 0.46597
 N220 N 0.43756 0.48383 0.45335
 C221 C 0.42741 0.49699 0.45088
 C222 C 0.41454 0.49619 0.46256
 C223 C 0.41775 0.48189 0.47192
 H224 H 0.42926 0.50641 0.44125
 H225 H 0.41058 0.47719 0.48249
 N226 N 0.47856 0.47008 0.43039
 N227 N 0.48680 0.45678 0.43566
 C228 C 0.50029 0.45457 0.42575
 C229 C 0.50055 0.46703 0.41360
 C230 C 0.48657 0.47664 0.41697
 H231 H 0.50909 0.44441 0.42705
 H232 H 0.48256 0.48766 0.41019
 H233 H 0.46938 0.46560 0.46068
 H234 H 0.45681 0.45278 0.44627
 N235 N -0.03407 -0.06779 0.97558
 N236 N -0.04812 -0.06369 0.98311
 C237 C -0.05111 -0.07457 0.99576
 C238 C -0.03821 -0.08609 0.99621
 C239 C -0.02760 -0.08136 0.98321
 H240 H -0.06178 -0.07404 1.00412
 H241 H -0.01622 -0.08754 0.97935
 Cu242 Cu -0.06132 -0.04455 0.97597
 Cu243 Cu -0.02563 -0.05577 0.95600
 Cu244 Cu -0.04693 -0.02011 0.94435
 N245 N -0.07172 -0.02334 0.97025
 N246 N -0.06587 -0.01378 0.95809
 C247 C -0.07525 0.00005 0.95691
 C248 C -0.08774 -0.00085 0.96897
 C249 C -0.08511 -0.01591 0.97721
 H250 H -0.07331 0.00989 0.94774
 H251 H -0.09229 -0.02100 0.98760
 N252 N -0.02750 -0.02846 0.93195
 N253 N -0.01916 -0.04194 0.93647
 C254 C -0.00675 -0.04451 0.92532
 C255 C -0.00743 -0.03210 0.91314
 C256 C -0.02073 -0.02215 0.91779
 H257 H 0.00183 -0.05491 0.92575
 H258 H -0.02516 -0.01112 0.91130
 H259 H -0.03557 -0.03356 0.96360
 H260 H -0.04818 -0.04564 0.94845
 N261 N 1.02803 0.57014 0.98031
 N262 N 1.03979 0.56328 0.98957
 C263 C 1.04244 0.57270 1.00292
 C264 C 1.03174 0.58626 1.00204
 C265 C 1.02279 0.58420 0.98745
 H266 H 1.05157 0.56988 1.01248
 H267 H 1.01293 0.59210 0.98257
 Cu268 Cu 1.05061 0.54274 0.98343
 Cu269 Cu 1.01982 0.55977 0.96019
 Cu270 Cu 1.03953 0.52327 0.94877
 N271 N 1.06524 0.52651 0.97325
 N272 N 1.06078 0.51869 0.95981
 C273 C 1.07265 0.50745 0.95607
 C274 C 1.08535 0.50840 0.96773
 C275 C 1.08021 0.52069 0.97841
 H276 H 1.07203 0.49919 0.94567
 H277 H 1.08659 0.52473 0.98945
 N278 N 1.02081 0.53327 0.93614
 N279 N 1.01334 0.54718 0.94040
 C280 C 1.00088 0.55051 0.92955
 C281 C 1.00057 0.53819 0.91782
 C282 C 1.01344 0.52750 0.92239
 H283 H 0.99262 0.56112 0.93014
 H284 H 1.01698 0.51617 0.91635
 H285 H 1.02591 0.53598 0.96675
 H286 H 1.04223 0.54775 0.95468
 N287 N 0.52690 0.07156 0.47439
 N288 N 0.54037 0.06762 0.48297
 C289 C 0.54231 0.07865 0.49518
 C290 C 0.52940 0.09017 0.49412
 C291 C 0.51987 0.08523 0.48075
 H292 H 0.55248 0.07845 0.50403
 H293 H 0.50853 0.09101 0.47610
 Cu294 Cu 0.55404 0.04856 0.47701
 Cu295 Cu 0.51930 0.05865 0.45571
 Cu296 Cu 0.54315 0.02437 0.44521
 N297 N 0.56729 0.02922 0.47115
 N298 N 0.56298 0.01978 0.45876
 C299 C 0.57423 0.00739 0.45741
 C300 C 0.58632 0.00916 0.46960
 C301 C 0.58145 0.02317 0.47808
 H302 H 0.57375 -0.00206 0.44811
 H303 H 0.58767 0.02849 0.48860
 N304 N 0.52262 0.03113 0.43308
 N305 N 0.51356 0.04413 0.43723
 C306 C 0.50030 0.04542 0.42699
 C307 C 0.50095 0.03265 0.41580
 C308 C 0.51534 0.02385 0.42000
 H309 H 0.49090 0.05506 0.42756
 H310 H 0.52000 0.01281 0.41413
 H311 H 0.52986 0.03632 0.46352
 H312 H 0.54263 0.04955 0.44888
 N313 N -0.02513 0.06578 0.52527
 N314 N -0.03998 0.06312 0.51885
 C315 C -0.04210 0.07342 0.50555
 C316 C -0.02769 0.08292 0.50350
 C317 C -0.01724 0.07769 0.51626
 H318 H -0.05319 0.07386 0.49786
 H319 H -0.00493 0.08248 0.51903
 Cu320 Cu -0.05505 0.04636 0.52846
 Cu321 Cu -0.01729 0.05430 0.54524
 Cu322 Cu -0.04132 0.02169 0.56027
 N323 N -0.06676 0.02609 0.53530
 N324 N -0.06131 0.01654 0.54761
 C325 C -0.07151 0.00334 0.54943
 C326 C -0.08409 0.00460 0.53763
 C327 C -0.08066 0.01927 0.52889
 H328 H -0.06986 -0.00645 0.55870
 H329 H -0.08753 0.02443 0.51842
 N330 N -0.02062 0.02892 0.57126
 N331 N -0.01142 0.04132 0.56537
 C332 C 0.00198 0.04321 0.57524
 C333 C 0.00127 0.03141 0.58802
 C334 C -0.01329 0.02258 0.58510
 H335 H 0.01149 0.05261 0.57331
 H336 H -0.01809 0.01215 0.59236
 H337 H -0.03016 0.03281 0.53963
 H338 H -0.04033 0.04685 0.55503
 N339 N 0.46439 0.56476 0.02570
 N340 N 0.45052 0.56049 0.01814
 C341 C 0.44750 0.57143 0.00559
 C342 C 0.46016 0.58317 0.00524
 C343 C 0.47069 0.57850 0.01818
 H344 H 0.43694 0.57085 -0.00276
 H345 H 0.48188 0.58486 0.02209
 Cu346 Cu 0.43769 0.54104 0.02520
 Cu347 Cu 0.47276 0.55271 0.04521
 Cu348 Cu 0.45099 0.51743 0.05768
 N349 N 0.42647 0.52047 0.03180
 N350 N 0.43182 0.51125 0.04438
 C351 C 0.42197 0.49779 0.04612
 C352 C 0.40972 0.49857 0.03398
 C353 C 0.41298 0.51317 0.02511
 H354 H 0.42351 0.48825 0.05567
 H355 H 0.40617 0.51801 0.01446
 N356 N 0.47068 0.52561 0.06957
 N357 N 0.47919 0.53890 0.06471
 C358 C 0.49174 0.54137 0.07555
 C359 C 0.49100 0.52909 0.08789
 C360 C 0.47751 0.51933 0.08364
 H361 H 0.50045 0.55162 0.07483
 H362 H 0.47296 0.50845 0.09035
 H363 H 0.46304 0.53019 0.03832
 H364 H 0.45004 0.54281 0.05284
 N365 N 0.53122 -0.07140 0.02082
 N366 N 0.54559 -0.06746 0.01364
 C367 C 0.54890 -0.07831 0.00153
 C368 C 0.53585 -0.08959 0.00102
 C369 C 0.52483 -0.08479 0.01344
 H370 H 0.55987 -0.07790 -0.00648
 H371 H 0.51318 -0.09076 0.01705
 Cu372 Cu 0.55833 -0.04833 0.02060
 Cu373 Cu 0.52218 -0.05921 0.03956
 Cu374 Cu 0.54517 -0.02539 0.05253
 N375 N 0.57108 -0.02934 0.02785
 N376 N 0.56573 -0.02020 0.04015
 C377 C 0.57654 -0.00763 0.04226
 C378 C 0.58944 -0.00900 0.03069
 C379 C 0.58555 -0.02296 0.02179
 H380 H 0.57517 0.00175 0.05158
 H381 H 0.59254 -0.02789 0.01143
 N382 N 0.52407 -0.03265 0.06341
 N383 N 0.51521 -0.04537 0.05833
 C384 C 0.50165 -0.04726 0.06831
 C385 C 0.50202 -0.03524 0.08032
 C386 C 0.51642 -0.02619 0.07681
 H387 H 0.49241 -0.05696 0.06720
 H388 H 0.52097 -0.01566 0.08351
 H389 H 0.53313 -0.03674 0.03323
 H390 H 0.54499 -0.05054 0.04797
 N391 N 1.02784 0.42641 0.52505
 N392 N 1.04119 0.43129 0.51657
 C393 C 1.04426 0.42052 0.50437
 C394 C 1.03214 0.40828 0.50514
 C395 C 1.02187 0.41244 0.51840
 H396 H 1.05443 0.42160 0.49541
 H397 H 1.01104 0.40565 0.52304
 Cu398 Cu 1.05310 0.45137 0.52209
 Cu399 Cu 1.01965 0.43834 0.54434
 Cu400 Cu 1.04106 0.47417 0.55458
 N401 N 1.06510 0.47128 0.52800
 N402 N 1.06035 0.48026 0.54063
 C403 C 1.07088 0.49322 0.54191
 C404 C 1.08295 0.49230 0.52938
 C405 C 1.07879 0.47817 0.52083
 H406 H 1.06985 0.50252 0.55134
 H407 H 1.08524 0.47317 0.51020
 N408 N 1.02128 0.46585 0.56714
 N409 N 1.01333 0.45209 0.56339
 C410 C 1.00084 0.44944 0.57453
 C411 C 1.00085 0.46216 0.58579
 C412 C 1.01395 0.47236 0.58068
 H413 H 0.99228 0.43906 0.57441
 H414 H 1.01805 0.48352 0.58664
 H415 H 1.02825 0.46147 0.53662
 H416 H 1.04234 0.44900 0.55053
 C417 C 0.40463 0.00610 0.22705
 H418 H 0.40500 0.01723 0.23431
 C419 C 0.41605 0.00404 0.21399
 H420 H 0.42501 0.01379 0.21113
 C421 C 0.39227 -0.01996 0.22191
 H422 H 0.38320 -0.02942 0.22524
 C423 C 0.40351 -0.02257 0.20878
 H424 H 0.40294 -0.03408 0.20213
 N425 N 0.39288 -0.00569 0.23058
 C426 C 0.35433 0.02255 0.25637
 H427 H 0.35332 0.01540 0.26791
 C428 C 0.34432 0.03659 0.25384
 H429 H 0.33580 0.04032 0.26364
 C430 C 0.36677 0.02631 0.22965
 H431 H 0.37523 0.02205 0.22008
 C432 C 0.35695 0.04038 0.22657
 H433 H 0.35803 0.04682 0.21462
 Zn434 Zn 0.37808 -0.00171 0.24862
 N435 N 0.36542 0.01781 0.24444
 C436 C 0.39219 0.01498 0.27610
 N437 N 0.39159 0.00048 0.26781
 C438 C 0.40150 -0.01258 0.27232
 C439 C 0.41240 -0.01146 0.28580
 C440 C 0.40294 0.01666 0.28964
 C441 C 0.35216 -0.02249 0.23851
 C442 C 0.34028 -0.03518 0.23987
 C443 C 0.34947 -0.04068 0.26808
 C444 C 0.36125 -0.02795 0.26614
 N445 N 0.36253 -0.01931 0.25144
 H446 H 0.38463 0.02542 0.27203
 H447 H 0.40098 -0.02389 0.26534
 H448 H 0.42003 -0.02208 0.28930
 H449 H 0.40345 0.02841 0.29586
 H450 H 0.35325 -0.01522 0.22705
 H451 H 0.33247 -0.03777 0.22926
 H452 H 0.34854 -0.04727 0.27995
 H453 H 0.36921 -0.02489 0.27646
 C454 C 0.34555 0.04573 0.23876
 C455 C 0.41556 -0.01044 0.20461
 C456 C 0.33887 -0.04455 0.25478
 C457 C 0.41327 0.00334 0.29465
 C458 C 0.10486 -0.01288 0.73064
 H459 H 0.10619 -0.02457 0.73740
 C460 C 0.09334 -0.01140 0.71766
 H461 H 0.08604 -0.02211 0.71431
 C462 C 0.11283 0.01525 0.72689
 H463 H 0.12014 0.02572 0.73079
 C464 C 0.10144 0.01729 0.71385
 H465 H 0.10017 0.02936 0.70780
 N466 N 0.11442 0.00029 0.73489
 C467 C 0.15601 -0.02321 0.76158
 H468 H 0.15532 -0.01670 0.77321
 C469 C 0.16781 -0.03583 0.75957
 H470 H 0.17600 -0.03912 0.76984
 C471 C 0.14575 -0.02704 0.73431
 H472 H 0.13727 -0.02343 0.72441
 C473 C 0.15744 -0.03964 0.73170
 H474 H 0.15784 -0.04558 0.71975
 Zn475 Zn 0.12890 -0.00269 0.75330
 N476 N 0.14501 -0.01937 0.74920
 C477 C 0.11699 -0.02367 0.77989
 N478 N 0.11522 -0.00880 0.77175
 C479 C 0.10307 0.00212 0.77619
 C480 C 0.09247 -0.00146 0.78969
 C481 C 0.10659 -0.02781 0.79343
 C482 C 0.15104 0.02327 0.74549
 C483 C 0.16035 0.03760 0.74813
 C484 C 0.14859 0.03864 0.77592
 C485 C 0.13948 0.02431 0.77274
 N486 N 0.14071 0.01704 0.75764
 H487 H 0.12634 -0.03243 0.77583
 H488 H 0.10178 0.01375 0.76933
 H489 H 0.08320 0.00763 0.79329
 H490 H 0.10810 -0.03974 0.79969
 H491 H 0.15200 0.01708 0.73370
 H492 H 0.16830 0.04251 0.73820
 H493 H 0.14764 0.04409 0.78810
 H494 H 0.13168 0.01887 0.78246
 C495 C 0.16850 -0.04438 0.74454
 C496 C 0.09151 0.00385 0.70908
 C497 C 0.15920 0.04547 0.76353
 C498 C 0.09419 -0.01659 0.79854
 C499 C 0.60218 0.49723 0.22368
 H500 H 0.60112 0.48566 0.23069
 C501 C 0.59165 0.50041 0.21018
 H502 H 0.58267 0.49106 0.20672
 C503 C 0.61543 0.52331 0.21965
 H504 H 0.62450 0.53233 0.22358
 C505 C 0.60508 0.52705 0.20609
 H506 H 0.60632 0.53896 0.19971
 N507 N 0.61396 0.50850 0.22798
 C508 C 0.65027 0.47765 0.25468
 H509 H 0.65080 0.48401 0.26639
 C510 C 0.65978 0.46333 0.25240
 H511 H 0.66745 0.45859 0.26254
 C512 C 0.63933 0.47602 0.22739
 H513 H 0.63159 0.48116 0.21756
 C514 C 0.64868 0.46170 0.22455
 H515 H 0.64799 0.45597 0.21250
 Zn516 Zn 0.62750 0.50292 0.24653
 N517 N 0.64009 0.48354 0.24237
 C518 C 0.61170 0.48444 0.27289
 N519 N 0.61281 0.49945 0.26490
 C520 C 0.60275 0.51230 0.26924
 C521 C 0.59127 0.51046 0.28237
 C522 C 0.60036 0.48203 0.28607
 C523 C 0.65423 0.52407 0.23854
 C524 C 0.66591 0.53668 0.24083
 C525 C 0.65456 0.54045 0.26848
 C526 C 0.64305 0.52780 0.26564
 N527 N 0.64293 0.52009 0.25075
 H528 H 0.61937 0.47420 0.26892
 H529 H 0.60370 0.52403 0.26248
 H530 H 0.58360 0.52094 0.28582
 H531 H 0.59949 0.46993 0.29213
 H532 H 0.65402 0.51755 0.22692
 H533 H 0.67450 0.53996 0.23077
 H534 H 0.65454 0.54637 0.28046
 H535 H 0.63434 0.52411 0.27540
 C536 C 0.65900 0.45511 0.23718
 C537 C 0.59302 0.51549 0.20116
 C538 C 0.66610 0.54514 0.25593
 C539 C 0.58998 0.49516 0.29099
 C540 C 0.90250 0.51024 0.72980
 H541 H 0.90444 0.52045 0.73807
 C542 C 0.91316 0.50820 0.71613
 H543 H 0.92344 0.51680 0.71416
 C544 C 0.88697 0.48642 0.72277
 H545 H 0.87678 0.47793 0.72543
 C546 C 0.89725 0.48400 0.70883
 H547 H 0.89461 0.47377 0.70076
 N548 N 0.88964 0.49951 0.73279
 C549 C 0.85133 0.52772 0.75900
 H550 H 0.85038 0.52089 0.77073
 C551 C 0.84117 0.54162 0.75606
 H552 H 0.83256 0.54553 0.76570
 C553 C 0.86387 0.53096 0.73227
 H554 H 0.87253 0.52665 0.72290
 C555 C 0.85394 0.54487 0.72879
 H556 H 0.85508 0.55106 0.71672
 Zn557 Zn 0.87593 0.50372 0.75162
 N558 N 0.86253 0.52279 0.74724
 C559 C 0.89043 0.52186 0.77801
 N560 N 0.89058 0.50730 0.76979
 C561 C 0.90185 0.49517 0.77370
 C562 C 0.91325 0.49723 0.78663
 C563 C 0.90170 0.52449 0.79096
 C564 C 0.84884 0.48246 0.74538
 C565 C 0.83774 0.46927 0.74832
 C566 C 0.85243 0.46280 0.77387
 C567 C 0.86312 0.47617 0.77052
 N568 N 0.86134 0.48556 0.75634
 H569 H 0.88175 0.53157 0.77441
 H570 H 0.90194 0.48383 0.76676
 H571 H 0.92183 0.48723 0.78975
 H572 H 0.90152 0.53628 0.79714
 H573 H 0.84747 0.49029 0.73434
 H574 H 0.82777 0.46720 0.73952
 H575 H 0.85442 0.45528 0.78503
 H576 H 0.87285 0.47898 0.77929
 C577 C 0.84244 0.55044 0.74078
 C578 C 0.91054 0.49502 0.70530
 C579 C 0.83950 0.45914 0.76270
 C580 C 0.91330 0.51206 0.79548
 C581 C 0.22081 0.39697 0.00162
 H582 H 0.22737 0.39789 0.01332
 C583 C 0.20724 0.40740 -0.00183
 H584 H 0.20325 0.41612 0.00746
 C585 C 0.21811 0.38432 -0.02458
 H586 H 0.22260 0.37550 -0.03352
 C587 C 0.20450 0.39460 -0.02859
 H588 H 0.19865 0.39358 -0.04066
 N589 N 0.22590 0.38565 -0.00965
 C590 C 0.25309 0.34913 0.02084
 H591 H 0.26509 0.34901 0.01446
 C592 C 0.25056 0.33915 0.03510
 H593 H 0.26079 0.33154 0.03973
 C594 C 0.22530 0.35948 0.02266
 H595 H 0.21539 0.36720 0.01764
 C596 C 0.22221 0.34967 0.03692
 H597 H 0.20989 0.34997 0.04269
 Zn598 Zn 0.24506 0.37283 -0.00407
 N599 N 0.24064 0.35926 0.01509
 C600 C 0.27063 0.38809 0.01500
 N601 N 0.26253 0.38805 0.00014
 C602 C 0.26623 0.39941 -0.01213
 C603 C 0.27893 0.41104 -0.00993
 C604 C 0.28340 0.39953 0.01775
 C605 C 0.24065 0.34625 -0.02558
 C606 C 0.24466 0.33546 -0.03840
 C607 C 0.27039 0.35069 -0.04319
 C608 C 0.26597 0.36105 -0.03017
 N609 N 0.25120 0.35883 -0.02181
 H610 H 0.26717 0.37935 0.02481
 H611 H 0.25938 0.39930 -0.02372
 H612 H 0.28196 0.41968 -0.02002
 H613 H 0.28963 0.39943 0.02970
 H614 H 0.22912 0.34457 -0.01854
 H615 H 0.23619 0.32539 -0.04098
 H616 H 0.28200 0.35300 -0.04993
 H617 H 0.27440 0.37086 -0.02682
 C618 C 0.23497 0.33943 0.04342
 C619 C 0.19891 0.40637 -0.01715
 C620 C 0.25968 0.33767 -0.04751
 C621 C 0.28778 0.41114 0.00514
 C622 C 0.72361 0.10440 -0.00564
 H623 H 0.73117 0.10318 -0.01680
 C624 C 0.70955 0.09434 -0.00309
 H625 H 0.70619 0.08561 -0.01254
 C626 C 0.71903 0.11721 0.02028
 H627 H 0.72300 0.12587 0.02953
 C628 C 0.70490 0.10735 0.02337
 H629 H 0.69814 0.10854 0.03503
 N630 N 0.72804 0.11558 0.00595
 C631 C 0.75923 0.15281 -0.01941
 H632 H 0.76993 0.15266 -0.01118
 C633 C 0.75856 0.16423 -0.03272
 H634 H 0.76877 0.17294 -0.03455
 C635 C 0.73261 0.14205 -0.02645
 H636 H 0.72242 0.13356 -0.02383
 C637 C 0.73148 0.15318 -0.03998
 H638 H 0.72051 0.15282 -0.04785
 Zn639 Zn 0.74814 0.12755 0.00224
 N640 N 0.74641 0.14199 -0.01657
 C641 C 0.77499 0.11232 -0.01508
 N642 N 0.76539 0.11186 -0.00100
 C643 C 0.76752 0.09983 0.01095
 C644 C 0.78011 0.08793 0.00926
 C645 C 0.78768 0.10062 -0.01731
 C646 C 0.74272 0.15389 0.02358
 C647 C 0.74610 0.16461 0.03654
 C648 C 0.77053 0.14810 0.04341
 C649 C 0.76678 0.13780 0.03022
 N650 N 0.75299 0.14077 0.02071
 H651 H 0.77280 0.12171 -0.02463
 H652 H 0.75952 0.09963 0.02190
 H653 H 0.78188 0.07871 0.01911
 H654 H 0.79512 0.10112 -0.02866
 H655 H 0.73201 0.15613 0.01561
 H656 H 0.73795 0.17517 0.03836
 H657 H 0.78140 0.14533 0.05100
 H658 H 0.77499 0.12754 0.02756
 C659 C 0.74453 0.16454 -0.04323
 C660 C 0.70006 0.09564 0.01165
 C661 C 0.76018 0.16179 0.04667
 C662 C 0.79047 0.08830 -0.00498
 C663 C 0.22958 0.59197 0.50651
 H664 H 0.24078 0.58600 0.50195
 C665 C 0.21534 0.58241 0.50982
 H666 H 0.21598 0.56913 0.50822
 C667 C 0.21499 0.61640 0.51371
 H668 H 0.21478 0.62969 0.51490
 C669 C 0.20040 0.60730 0.51711
 H670 H 0.18910 0.61372 0.52088
 N671 N 0.22926 0.60865 0.50861
 C672 C 0.25376 0.64835 0.48115
 H673 H 0.26346 0.65167 0.48982
 C674 C 0.25054 0.65855 0.46725
 H675 H 0.25771 0.66984 0.46545
 C676 C 0.23231 0.62980 0.47336
 H677 H 0.22529 0.61853 0.47582
 C678 C 0.22874 0.63957 0.45924
 H679 H 0.21906 0.63561 0.45081
 Zn680 Zn 0.24884 0.62124 0.50325
 N681 N 0.24459 0.63437 0.48399
 C682 C 0.27499 0.60703 0.48405
 N683 N 0.26698 0.60658 0.49908
 C684 C 0.27139 0.59539 0.51123
 C685 C 0.28431 0.58408 0.50851
 C686 C 0.28799 0.59590 0.48079
 C687 C 0.24411 0.64876 0.52373
 C688 C 0.24768 0.65972 0.53644
 C689 C 0.27240 0.64356 0.54299
 C690 C 0.26841 0.63299 0.53010
 N691 N 0.25428 0.63554 0.52094
 H692 H 0.27119 0.61591 0.47451
 H693 H 0.26471 0.59518 0.52302
 H694 H 0.28771 0.57540 0.51842
 H695 H 0.29402 0.59624 0.46865
 H696 H 0.23339 0.65106 0.51583
 H697 H 0.23952 0.67027 0.53828
 H698 H 0.28348 0.64102 0.55036
 H699 H 0.27670 0.62280 0.52747
 C700 C 0.23785 0.65423 0.45607
 C701 C 0.20045 0.59005 0.51511
 C702 C 0.26194 0.65711 0.54637
 C703 C 0.29276 0.58418 0.49310
 C704 C 0.72599 0.90119 0.50500
 H705 H 0.73256 0.90147 0.51675
 C706 C 0.71163 0.91091 0.50259
 H707 H 0.70709 0.91844 0.51267
 C708 C 0.72397 0.89096 0.47767
 H709 H 0.72901 0.88347 0.46783
 C710 C 0.70961 0.90051 0.47470
 H711 H 0.70378 0.90021 0.46257
 N712 N 0.73175 0.89133 0.49269
 C713 C 0.76200 0.85361 0.51861
 H714 H 0.77355 0.85474 0.51150
 C715 C 0.76073 0.84185 0.53160
 H716 H 0.77147 0.83412 0.53458
 C717 C 0.73402 0.86243 0.52332
 H718 H 0.72352 0.87022 0.51985
 C719 C 0.73221 0.85085 0.53643
 H720 H 0.72029 0.84990 0.54295
 Zn721 Zn 0.75167 0.87893 0.49666
 N722 N 0.74882 0.86373 0.51485
 C723 C 0.77707 0.89397 0.51601
 N724 N 0.76898 0.89427 0.50113
 C725 C 0.77264 0.90594 0.48916
 C726 C 0.78526 0.91759 0.49169
 C727 C 0.78973 0.90544 0.51910
 C728 C 0.74606 0.85450 0.47326
 C729 C 0.74952 0.84439 0.45978
 C730 C 0.77624 0.85817 0.45623
 C731 C 0.77224 0.86809 0.46975
 N732 N 0.75728 0.86620 0.47785
 H733 H 0.77365 0.88493 0.52557
 H734 H 0.76585 0.90605 0.47753
 H735 H 0.78827 0.92648 0.48181
 H736 H 0.79591 0.90507 0.53107
 H737 H 0.73437 0.85309 0.48008
 H738 H 0.74024 0.83539 0.45614
 H739 H 0.78831 0.85970 0.45010
 H740 H 0.78122 0.87709 0.47389
 C741 C 0.74570 0.84039 0.54076
 C742 C 0.70322 0.91066 0.48726
 C743 C 0.76480 0.84612 0.45107
 C744 C 0.79407 0.91740 0.50681
 C745 C 0.00479 0.22616 0.39969
 H746 H 0.01586 0.23361 0.40158
 C747 C 0.00165 0.21232 0.41004
 H748 H 0.01038 0.20928 0.41993
 C749 C -0.02047 0.22170 0.38508
 H750 H -0.02930 0.22554 0.37562
 C751 C -0.02403 0.20773 0.39504
 H752 H -0.03536 0.20077 0.39274
 N753 N -0.00618 0.23053 0.38743
 C754 C 0.01979 0.25965 0.34871
 H755 H 0.01112 0.26994 0.34756
 C756 C 0.03329 0.25847 0.33762
 H757 H 0.03478 0.26785 0.32786
 C758 C 0.02780 0.23458 0.36243
 H759 H 0.02552 0.22521 0.37200
 C760 C 0.04157 0.23299 0.35170
 H761 H 0.04993 0.22250 0.35340
 Zn762 Zn -0.00189 0.25017 0.37461
 N763 N 0.01730 0.24782 0.36082
 C764 C 0.01408 0.27848 0.38787
 N765 N 0.00113 0.26760 0.38962
 C766 C -0.01024 0.26885 0.40224
 C767 C -0.00896 0.28156 0.41366
 C768 C 0.01572 0.29150 0.39891
 C769 C -0.02417 0.24442 0.34840
 C770 C -0.03777 0.24758 0.33793
 C771 C -0.04247 0.27334 0.35202
 C772 C -0.02894 0.26955 0.36238
 N773 N -0.02027 0.25518 0.36057
 H774 H 0.02303 0.27721 0.37781
 H775 H -0.02033 0.25993 0.40341
 H776 H -0.01801 0.28214 0.42376
 H777 H 0.02584 0.30029 0.39699
 H778 H -0.01685 0.23322 0.34703
 H779 H -0.04101 0.23852 0.32876
 H780 H -0.04904 0.28497 0.35356
 H781 H -0.02535 0.27818 0.37180
 C782 C 0.04443 0.24499 0.33900
 C783 C -0.01295 0.20289 0.40779
 C784 C -0.04721 0.26218 0.33970
 C785 C 0.00408 0.29321 0.41203
 C786 C -0.00730 0.72863 0.10302
 H787 H -0.01849 0.73625 0.10311
 C788 C -0.00600 0.71556 0.09200
 H789 H -0.01642 0.71302 0.08385
 C790 C 0.01988 0.72289 0.11352
 H791 H 0.03006 0.72603 0.12169
 C792 C 0.02172 0.70969 0.10264
 H793 H 0.03339 0.70279 0.10256
 N794 N 0.00552 0.73204 0.11349
 C795 C -0.01759 0.76062 0.15322
 H796 H -0.00981 0.77161 0.15278
 C797 C -0.03063 0.75923 0.16489
 H798 H -0.03296 0.76936 0.17323
 C799 C -0.02401 0.73419 0.14272
 H800 H -0.02123 0.72433 0.13425
 C801 C -0.03712 0.73226 0.15423
 H802 H -0.04427 0.72085 0.15448
 Zn803 Zn 0.00313 0.75110 0.12665
 N804 N -0.01472 0.74833 0.14224
 C805 C -0.01426 0.77972 0.11400
 N806 N -0.00120 0.76911 0.11175
 C807 C 0.00934 0.77086 0.09843
 C808 C 0.00726 0.78395 0.08697
 C809 C -0.01672 0.79310 0.10292
 C810 C 0.02711 0.74469 0.15152
 C811 C 0.04086 0.74804 0.16164
 C812 C 0.04596 0.77300 0.14520
 C813 C 0.03205 0.76926 0.13551
 N814 N 0.02294 0.75529 0.13879
 H815 H -0.02272 0.77797 0.12446
 H816 H 0.01947 0.76208 0.09678
 H817 H 0.01574 0.78501 0.07640
 H818 H -0.02687 0.80170 0.10526
 H819 H 0.01950 0.73381 0.15404
 H820 H 0.04364 0.73967 0.17199
 H821 H 0.05308 0.78411 0.14223
 H822 H 0.02843 0.77768 0.12552
 C823 C -0.04069 0.74494 0.16544
 C824 C 0.00872 0.70598 0.09157
 C825 C 0.05045 0.76243 0.15861
 C826 C -0.00580 0.79543 0.08923
 C827 C 0.49434 0.22446 0.60366
 H828 H 0.48248 0.23102 0.60341
 C829 C 0.49659 0.21044 0.59399
 H830 H 0.48627 0.20611 0.58655
 C831 C 0.52216 0.22221 0.61370
 H832 H 0.53225 0.22705 0.62105
 C833 C 0.52497 0.20818 0.60419
 H834 H 0.53724 0.20238 0.60440
 N835 N 0.50699 0.22998 0.61337
 C836 C 0.48210 0.25998 0.65109
 H837 H 0.48924 0.27134 0.64975
 C838 C 0.46916 0.25879 0.66291
 H839 H 0.46624 0.26944 0.67037
 C840 C 0.47720 0.23245 0.64275
 H841 H 0.48053 0.22211 0.63508
 C842 C 0.46427 0.23067 0.65449
 H843 H 0.45783 0.21889 0.65570
 Zn844 Zn 0.50345 0.24965 0.62544
 N845 N 0.48564 0.24704 0.64108
 C846 C 0.48509 0.27690 0.61117
 N847 N 0.49876 0.26690 0.60975
 C848 C 0.50992 0.26900 0.59699
 C849 C 0.50790 0.28194 0.58534
 C850 C 0.48268 0.29014 0.59990
 C851 C 0.52793 0.24419 0.64978
 C852 C 0.54183 0.24778 0.65954
 C853 C 0.54480 0.27385 0.64439
 C854 C 0.53089 0.26972 0.63486
 N855 N 0.52284 0.25504 0.63763
 H856 H 0.47616 0.27486 0.62118
 H857 H 0.52056 0.26072 0.59603
 H858 H 0.51695 0.28333 0.57528
 H859 H 0.47208 0.29833 0.60167
 H860 H 0.52115 0.23270 0.65186
 H861 H 0.54585 0.23881 0.66895
 H862 H 0.55084 0.28572 0.64219
 H863 H 0.52639 0.27839 0.62546
 C864 C 0.45994 0.24401 0.66465
 C865 C 0.51211 0.20212 0.59414
 C866 C 0.55044 0.26283 0.65696
 C867 C 0.49429 0.29293 0.58686
 C868 C 0.50485 0.72808 0.90386
 H869 H 0.51484 0.73697 0.90542
 C870 C 0.50318 0.71471 0.91508
 H871 H 0.51183 0.71356 0.92539
 C872 C 0.48121 0.71919 0.88874
 H873 H 0.47263 0.72099 0.87850
 C874 C 0.47918 0.70552 0.89957
 H875 H 0.46918 0.69680 0.89730
 N876 N 0.49404 0.73000 0.89092
 C877 C 0.51979 0.75490 0.84940
 H878 H 0.51178 0.76557 0.84722
 C879 C 0.53327 0.75188 0.83864
 H880 H 0.53546 0.76025 0.82811
 C881 C 0.52614 0.73067 0.86539
 H882 H 0.52326 0.72232 0.87571
 C883 C 0.53978 0.72724 0.85503
 H884 H 0.54742 0.71642 0.85777
 Zn885 Zn 0.49764 0.74843 0.87629
 N886 N 0.51652 0.74437 0.86249
 C887 C 0.51423 0.77774 0.88671
 N888 N 0.50124 0.76712 0.88960
 C889 C 0.49024 0.76939 0.90237
 C890 C 0.49194 0.78289 0.91276
 C891 C 0.51632 0.79152 0.89674
 C892 C 0.47479 0.74109 0.85074
 C893 C 0.46107 0.74383 0.84026
 C894 C 0.45607 0.76983 0.85379
 C895 C 0.46982 0.76657 0.86402
 N896 N 0.47877 0.75230 0.86247
 H897 H 0.52290 0.77566 0.87656
 H898 H 0.48012 0.76065 0.90447
 H899 H 0.48316 0.78429 0.92300
 H900 H 0.52651 0.80005 0.89401
 H901 H 0.48229 0.72998 0.84955
 H902 H 0.45792 0.73461 0.83122
 H903 H 0.44927 0.78136 0.85513
 H904 H 0.47338 0.77555 0.87311
 C905 C 0.54348 0.73786 0.84138
 C906 C 0.49030 0.70309 0.91294
 C907 C 0.45146 0.75836 0.84176
 C908 C 0.50505 0.79427 0.90996
 C909 C 0.12553 0.20393 0.27356
 C910 C 0.11858 0.21966 0.27700
 C911 C 0.12633 0.23380 0.26948
 C912 C 0.14008 0.23206 0.25855
 C913 C 0.14676 0.21637 0.25534
 C914 C 0.13937 0.20239 0.26297
 C915 C 0.12047 0.24963 0.27306
 C916 C 0.10733 0.25182 0.28427
 C917 C 0.09919 0.23817 0.29213
 C918 C 0.10447 0.22181 0.28789
 C919 C 0.09531 0.20816 0.29448
 C920 C 0.08184 0.21033 0.30527
 C921 C 0.07710 0.22611 0.31021
 C922 C 0.08577 0.24028 0.30388
 C923 C 0.08075 0.25594 0.30982
 C924 C 0.06752 0.25739 0.32121
 C925 C 0.05874 0.24336 0.32710
 C926 C 0.06367 0.22774 0.32148
 H927 H 0.12087 0.19256 0.27914
 H928 H 0.14589 0.24298 0.25291
 H929 H 0.14424 0.19011 0.26070
 H930 H 0.12627 0.26049 0.26728
 H931 H 0.10359 0.26446 0.28626
 H932 H 0.09799 0.19555 0.29125
 H933 H 0.07516 0.19946 0.30993
 H934 H 0.08701 0.26730 0.30620
 H935 H 0.06430 0.26959 0.32561
 H936 H 0.05691 0.21677 0.32574
 C937 C 0.63145 0.74688 0.77106
 C938 C 0.62257 0.73413 0.77974
 C939 C 0.62746 0.71752 0.77685
 C940 C 0.64092 0.71402 0.76605
 C941 C 0.64955 0.72682 0.75760
 C942 C 0.64463 0.74324 0.76020
 C943 C 0.61883 0.70445 0.78464
 C944 C 0.60519 0.70740 0.79502
 C945 C 0.59972 0.72369 0.79827
 C946 C 0.60891 0.73728 0.79095
 C947 C 0.60427 0.75355 0.79524
 C948 C 0.59092 0.75650 0.80597
 C949 C 0.58143 0.74344 0.81267
 C950 C 0.58553 0.72685 0.80880
 C951 C 0.57508 0.71413 0.81550
 C952 C 0.56151 0.71777 0.82589
 C953 C 0.55780 0.73416 0.83004
 C954 C 0.56782 0.74694 0.82328
 H955 H 0.62838 0.75982 0.77211
 H956 H 0.64441 0.70124 0.76396
 H957 H 0.65106 0.75342 0.75390
 H958 H 0.62258 0.69173 0.78259
 H959 H 0.59938 0.69657 0.80060
 H960 H 0.61093 0.76439 0.79076
 H961 H 0.58790 0.76921 0.80896
 H962 H 0.57681 0.70124 0.81273
 H963 H 0.55373 0.70766 0.83052
 H964 H 0.56518 0.75968 0.82644
 C965 C 0.38192 0.76596 0.75417
 C966 C 0.38233 0.77117 0.77090
 C967 C 0.36812 0.77981 0.77701
 C968 C 0.35432 0.78322 0.76665
 C969 C 0.35413 0.77785 0.75017
 C970 C 0.36805 0.76922 0.74408
 C971 C 0.36764 0.78490 0.79347
 C972 C 0.38084 0.78142 0.80420
 C973 C 0.39527 0.77279 0.79882
 C974 C 0.39621 0.76795 0.78178
 C975 C 0.41104 0.76016 0.77617
 C976 C 0.42437 0.75697 0.78681
 C977 C 0.42348 0.76120 0.80353
 C978 C 0.40889 0.76903 0.80986
 C979 C 0.40855 0.77266 0.82705
 C980 C 0.42224 0.76904 0.83727
 C981 C 0.43677 0.76168 0.83084
 C982 C 0.43722 0.75769 0.81393
 H983 H 0.39197 0.75911 0.74850
 H984 H 0.34353 0.78971 0.77160
 H985 H 0.36831 0.76498 0.73138
 H986 H 0.35685 0.79157 0.79819
 H987 H 0.37938 0.78590 0.81665
 H988 H 0.41291 0.75654 0.76347
 H989 H 0.43551 0.75104 0.78188
 H990 H 0.39786 0.77812 0.83310
 H991 H 0.42136 0.77190 0.85036
 H992 H 0.44842 0.75208 0.80875
 C993 C -0.12054 0.26433 0.25525
 C994 C -0.11865 0.27192 0.27084
 C995 C -0.13181 0.28233 0.27633
 C996 C -0.14574 0.28564 0.26617
 C997 C -0.14738 0.27822 0.25057
 C998 C -0.13463 0.26740 0.24540
 C999 C -0.13108 0.28938 0.29201
 C1000 C -0.11768 0.28612 0.30254
 C1001 C -0.10414 0.27600 0.29760
 C1002 C -0.10429 0.26938 0.28122
 C1003 C -0.08995 0.26077 0.27562
 C1004 C -0.07613 0.25830 0.28583
 C1005 C -0.07618 0.26388 0.30214
 C1006 C -0.09029 0.27255 0.30839
 C1007 C -0.09000 0.27721 0.32529
 C1008 C -0.07613 0.27377 0.33531
 C1009 C -0.06197 0.26571 0.32891
 C1010 C -0.06214 0.26082 0.31224
 H1011 H -0.11151 0.25570 0.25042
 H1012 H -0.15549 0.29371 0.27078
 H1013 H -0.13531 0.26123 0.23360
 H1014 H -0.14108 0.29739 0.29630
 H1015 H -0.11813 0.29211 0.31438
 H1016 H -0.08880 0.25615 0.26318
 H1017 H -0.06532 0.25178 0.28093
 H1018 H -0.10045 0.28315 0.33131
 H1019 H -0.07667 0.27724 0.34826
 H1020 H -0.05125 0.25470 0.30701
 C1021 C -0.13895 0.71820 0.21463
 C1022 C -0.12427 0.72717 0.21852
 C1023 C -0.12320 0.73376 0.23472
 C1024 C -0.13642 0.73162 0.24627
 C1025 C -0.15082 0.72267 0.24217
 C1026 C -0.15190 0.71600 0.22626
 C1027 C -0.10888 0.74234 0.23940
 C1028 C -0.09541 0.74439 0.22847
 C1029 C -0.09577 0.73805 0.21221
 C1030 C -0.11061 0.72966 0.20702
 C1031 C -0.11134 0.72413 0.19047
 C1032 C -0.09799 0.72638 0.17947
 C1033 C -0.08327 0.73405 0.18447
 C1034 C -0.08184 0.73995 0.20091
 C1035 C -0.06643 0.74735 0.20534
 C1036 C -0.05321 0.74894 0.19388
 C1037 C -0.05480 0.74324 0.17761
 C1038 C -0.06993 0.73582 0.17302
 H1039 H -0.14079 0.71249 0.20280
 H1040 H -0.13531 0.73667 0.25861
 H1041 H -0.16288 0.70911 0.22265
 H1042 H -0.10801 0.74746 0.25174
 H1043 H -0.08492 0.75122 0.23316
 H1044 H -0.12220 0.71815 0.18546
 H1045 H -0.09918 0.72194 0.16688
 H1046 H -0.06401 0.75184 0.21762
 H1047 H -0.04157 0.75443 0.19789
 H1048 H -0.07142 0.73153 0.16042
 C1049 C 0.36410 0.21350 0.71570
 C1050 C 0.37725 0.22480 0.71846
 C1051 C 0.37700 0.23351 0.73359
 C1052 C 0.36363 0.23142 0.74506
 C1053 C 0.35052 0.22022 0.74204
 C1054 C 0.35110 0.21130 0.72721
 C1055 C 0.39017 0.24416 0.73729
 C1056 C 0.40376 0.24615 0.72645
 C1057 C 0.40456 0.23781 0.71118
 C1058 C 0.39076 0.22745 0.70686
 C1059 C 0.39076 0.22032 0.69095
 C1060 C 0.40401 0.22268 0.67987
 C1061 C 0.41795 0.23198 0.68423
 C1062 C 0.41855 0.23962 0.69995
 C1063 C 0.43327 0.24856 0.70379
 C1064 C 0.44660 0.24994 0.69242
 C1065 C 0.44578 0.24255 0.67680
 C1066 C 0.43131 0.23365 0.67283
 H1067 H 0.36361 0.20581 0.70493
 H1068 H 0.36376 0.23830 0.75648
 H1069 H 0.34142 0.20255 0.72413
 H1070 H 0.39010 0.25090 0.74882
 H1071 H 0.41334 0.25464 0.73028
 H1072 H 0.38045 0.21312 0.68643
 H1073 H 0.40338 0.21702 0.66777
 H1074 H 0.43505 0.25436 0.71560
 H1075 H 0.45774 0.25661 0.69601
 H1076 H 0.43036 0.22806 0.66072
 C1077 C 0.62108 0.27117 0.74290
 C1078 C 0.62024 0.27685 0.72613
 C1079 C 0.63422 0.28574 0.71956
 C1080 C 0.64830 0.28884 0.72953
 C1081 C 0.64904 0.28293 0.74614
 C1082 C 0.63514 0.27413 0.75261
 C1083 C 0.63420 0.29137 0.70300
 C1084 C 0.62078 0.28807 0.69264
 C1085 C 0.60662 0.27909 0.69849
 C1086 C 0.60615 0.27380 0.71565
 C1087 C 0.59159 0.26567 0.72177
 C1088 C 0.57815 0.26241 0.71148
 C1089 C 0.57865 0.26694 0.69464
 C1090 C 0.59286 0.27530 0.68782
 C1091 C 0.59271 0.27931 0.67053
 C1092 C 0.57902 0.27528 0.66062
 C1093 C 0.56499 0.26712 0.66751
 C1094 C 0.56493 0.26307 0.68458
 H1095 H 0.61122 0.26413 0.74894
 H1096 H 0.65877 0.29561 0.72408
 H1097 H 0.63487 0.26938 0.76531
 H1098 H 0.64479 0.29829 0.69791
 H1099 H 0.62185 0.29292 0.68007
 H1100 H 0.59001 0.26175 0.73459
 H1101 H 0.56726 0.25613 0.71677
 H1102 H 0.60305 0.28533 0.66416
 H1103 H 0.57955 0.27834 0.64742
 H1104 H 0.55406 0.25698 0.69014
 C1105 C 0.13723 0.75606 0.22927
 C1106 C 0.12846 0.76858 0.22025
 C1107 C 0.13285 0.78531 0.22312
 C1108 C 0.14581 0.78914 0.23424
 C1109 C 0.15427 0.77654 0.24309
 C1110 C 0.14982 0.76002 0.24047
 C1111 C 0.12417 0.79814 0.21504
 C1112 C 0.11090 0.79482 0.20448
 C1113 C 0.10595 0.77839 0.20127
 C1114 C 0.11532 0.76506 0.20876
 C1115 C 0.11137 0.74867 0.20438
 C1116 C 0.09841 0.74534 0.19351
 C1117 C 0.08860 0.75811 0.18678
 C1118 C 0.09208 0.77482 0.19065
 C1119 C 0.08131 0.78722 0.18393
 C1120 C 0.06794 0.78315 0.17363
 C1121 C 0.06479 0.76664 0.16956
 C1122 C 0.07525 0.75419 0.17621
 H1123 H 0.13444 0.74306 0.22830
 H1124 H 0.14898 0.80198 0.23634
 H1125 H 0.15617 0.74999 0.24705
 H1126 H 0.12753 0.81095 0.21706
 H1127 H 0.10496 0.80547 0.19872
 H1128 H 0.11832 0.73804 0.20889
 H1129 H 0.09591 0.73255 0.19048
 H1130 H 0.08259 0.80015 0.18669
 H1131 H 0.05983 0.79302 0.16910
 H1132 H 0.07309 0.74138 0.17310
 C1133 C 0.25923 0.11757 0.23605
 C1134 C 0.27580 0.11659 0.22962
 C1135 C 0.28189 0.13037 0.22009
 C1136 C 0.27161 0.14424 0.21692
 C1137 C 0.25519 0.14490 0.22326
 C1138 C 0.24918 0.13146 0.23289
 C1139 C 0.29823 0.13030 0.21379
 C1140 C 0.30882 0.11690 0.21678
 C1141 C 0.30342 0.10282 0.22612
 C1142 C 0.28653 0.10253 0.23238
 C1143 C 0.28087 0.08812 0.24103
 C1144 C 0.29132 0.07456 0.24366
 C1145 C 0.30789 0.07478 0.23799
 C1146 C 0.31428 0.08891 0.22923
 C1147 C 0.33131 0.08849 0.22404
 C1148 C 0.34134 0.07458 0.22720
 C1149 C 0.33486 0.06058 0.23564
 C1150 C 0.31809 0.06083 0.24102
 H1151 H 0.25362 0.10791 0.24370
 H1152 H 0.27655 0.15464 0.20966
 H1153 H 0.23654 0.13153 0.23794
 H1154 H 0.30294 0.14079 0.20648
 H1155 H 0.32118 0.11793 0.21134
 H1156 H 0.26827 0.08676 0.24577
 H1157 H 0.28636 0.06375 0.25029
 H1158 H 0.33740 0.09875 0.21767
 H1159 H 0.35435 0.07488 0.22316
 H1160 H 0.31284 0.05001 0.24738
 C1161 C 0.75581 0.62185 0.73355
 C1162 C 0.77269 0.62092 0.72794
 C1163 C 0.77908 0.63462 0.71850
 C1164 C 0.76888 0.64847 0.71480
 C1165 C 0.75224 0.64917 0.72053
 C1166 C 0.74587 0.63571 0.72992
 C1167 C 0.79567 0.63452 0.71286
 C1168 C 0.80619 0.62120 0.71645
 C1169 C 0.80052 0.60724 0.72583
 C1170 C 0.78341 0.60699 0.73146
 C1171 C 0.77757 0.59279 0.74034
 C1172 C 0.78802 0.57936 0.74373
 C1173 C 0.80475 0.57950 0.73857
 C1174 C 0.81133 0.59344 0.72963
 C1175 C 0.82851 0.59294 0.72494
 C1176 C 0.83847 0.57911 0.72868
 C1177 C 0.83180 0.56528 0.73725
 C1178 C 0.81491 0.56564 0.74224
 H1179 H 0.74987 0.61217 0.74090
 H1180 H 0.77408 0.65884 0.70767
 H1181 H 0.73304 0.63576 0.73444
 H1182 H 0.80062 0.64494 0.70560
 H1183 H 0.81875 0.62222 0.71151
 H1184 H 0.76485 0.59150 0.74478
 H1185 H 0.78291 0.56873 0.75054
 H1186 H 0.83473 0.60305 0.71847
 H1187 H 0.85157 0.57934 0.72497
 H1188 H 0.80954 0.55496 0.74876
 C1189 C 0.77183 0.37076 0.75213
 C1190 C 0.77954 0.37961 0.76507
 C1191 C 0.77622 0.37421 0.78170
 C1192 C 0.76622 0.36019 0.78505
 C1193 C 0.75895 0.35141 0.77209
 C1194 C 0.76170 0.35697 0.75564
 C1195 C 0.78288 0.38280 0.79498
 C1196 C 0.79272 0.39679 0.79221
 C1197 C 0.79658 0.40265 0.77591
 C1198 C 0.79027 0.39365 0.76211
 C1199 C 0.79517 0.39878 0.74585
 C1200 C 0.80567 0.41232 0.74311
 C1201 C 0.81150 0.42152 0.75637
 C1202 C 0.80685 0.41701 0.77295
 C1203 C 0.81262 0.42717 0.78587
 C1204 C 0.82295 0.44080 0.78246
 C1205 C 0.82799 0.44488 0.76611
 C1206 C 0.82206 0.43519 0.75310
 H1207 H 0.77316 0.37428 0.73916
 H1208 H 0.76389 0.35627 0.79787
 H1209 H 0.75616 0.35051 0.74536
 H1210 H 0.78041 0.37871 0.80773
 H1211 H 0.79744 0.40251 0.80321
 H1212 H 0.79142 0.39233 0.73489
 H1213 H 0.80921 0.41567 0.73040
 H1214 H 0.80920 0.42512 0.79876
 H1215 H 0.82686 0.44831 0.79275
 H1216 H 0.82588 0.43809 0.74038
 C1217 C 0.28799 -0.13934 0.28604
 C1218 C 0.28477 -0.12590 0.27493
 C1219 C 0.26908 -0.12556 0.26671
 C1220 C 0.25747 -0.13859 0.26914
 C1221 C 0.26092 -0.15197 0.28017
 C1222 C 0.27635 -0.15201 0.28857
 C1223 C 0.26498 -0.11213 0.25623
 C1224 C 0.27595 -0.09885 0.25398
 C1225 C 0.29176 -0.09864 0.26184
 C1226 C 0.29648 -0.11269 0.27198
 C1227 C 0.31283 -0.11320 0.27866
 C1228 C 0.32398 -0.10021 0.27614
 C1229 C 0.31930 -0.08606 0.26704
 C1230 C 0.30314 -0.08496 0.25978
 C1231 C 0.29904 -0.07009 0.25097
 C1232 C 0.31057 -0.05708 0.24937
 C1233 C 0.32657 -0.05838 0.25644
 C1234 C 0.33082 -0.07299 0.26520
 H1235 H 0.29925 -0.14033 0.29333
 H1236 H 0.24562 -0.13801 0.26263
 H1237 H 0.27978 -0.16189 0.29721
 H1238 H 0.25303 -0.11177 0.24985
 H1239 H 0.27176 -0.08903 0.24569
 H1240 H 0.31763 -0.12369 0.28568
 H1241 H 0.33640 -0.10120 0.28152
 H1242 H 0.28692 -0.06795 0.24544
 H1243 H 0.30680 -0.04582 0.24279
 H1244 H 0.34323 -0.07429 0.27053
 C1245 C 0.21458 -0.14071 0.71437
 C1246 C 0.21861 -0.12752 0.72491
 C1247 C 0.23438 -0.12811 0.73298
 C1248 C 0.24528 -0.14167 0.73093
 C1249 C 0.24107 -0.15474 0.72043
 C1250 C 0.22556 -0.15394 0.71219
 C1251 C 0.23928 -0.11507 0.74297
 C1252 C 0.22903 -0.10129 0.74491
 C1253 C 0.21318 -0.10012 0.73718
 C1254 C 0.20766 -0.11372 0.72748
 C1255 C 0.19128 -0.11319 0.72087
 C1256 C 0.18081 -0.09970 0.72321
 C1257 C 0.18624 -0.08607 0.73202
 C1258 C 0.20253 -0.08593 0.73902
 C1259 C 0.20746 -0.07150 0.74744
 C1260 C 0.19653 -0.05806 0.74908
 C1261 C 0.18033 -0.05847 0.74242
 C1262 C 0.17532 -0.07256 0.73388
 H1263 H 0.20316 -0.14109 0.70731
 H1264 H 0.25721 -0.14173 0.73730
 H1265 H 0.22159 -0.16360 0.70399
 H1266 H 0.25129 -0.11543 0.74924
 H1267 H 0.23380 -0.09185 0.75287
 H1268 H 0.18594 -0.12321 0.71406
 H1269 H 0.16831 -0.09992 0.71795
 H1270 H 0.21977 -0.07005 0.75269
 H1271 H 0.20088 -0.04720 0.75544
 H1272 H 0.16275 -0.07316 0.72884
 C1273 C 0.74074 0.37826 0.23778
 C1274 C 0.72452 0.38043 0.23094
 C1275 C 0.71805 0.36741 0.22129
 C1276 C 0.72773 0.35323 0.21825
 C1277 C 0.74391 0.35148 0.22483
 C1278 C 0.75021 0.36407 0.23473
 C1279 C 0.70197 0.36860 0.21466
 C1280 C 0.69207 0.38247 0.21728
 C1281 C 0.69795 0.39593 0.22653
 C1282 C 0.71453 0.39498 0.23331
 C1283 C 0.72066 0.40869 0.24203
 C1284 C 0.71095 0.42276 0.24425
 C1285 C 0.69471 0.42379 0.23799
 C1286 C 0.68788 0.41040 0.22912
 C1287 C 0.67123 0.41213 0.22322
 C1288 C 0.66198 0.42656 0.22584
 C1289 C 0.66890 0.43978 0.23448
 C1290 C 0.68530 0.43825 0.24052
 H1291 H 0.74656 0.38727 0.24557
 H1292 H 0.72254 0.34346 0.21084
 H1293 H 0.76264 0.36312 0.24003
 H1294 H 0.69693 0.35866 0.20733
 H1295 H 0.67984 0.38228 0.21168
 H1296 H 0.73309 0.40911 0.24716
 H1297 H 0.71624 0.43299 0.25098
 H1298 H 0.66484 0.40256 0.21663
 H1299 H 0.64923 0.42727 0.22127
 H1300 H 0.69087 0.44848 0.24704
 C1301 C 0.71329 0.64047 0.28706
 C1302 C 0.71765 0.62667 0.27731
 C1303 C 0.73403 0.62632 0.27028
 C1304 C 0.74526 0.63946 0.27263
 C1305 C 0.74066 0.65305 0.28223
 C1306 C 0.72462 0.65335 0.28945
 C1307 C 0.73921 0.61283 0.26100
 C1308 C 0.72858 0.59949 0.25864
 C1309 C 0.71212 0.59918 0.26530
 C1310 C 0.70643 0.61318 0.27446
 C1311 C 0.68966 0.61333 0.28028
 C1312 C 0.67890 0.60018 0.27757
 C1313 C 0.68437 0.58626 0.26913
 C1314 C 0.70107 0.58544 0.26294
 C1315 C 0.70598 0.57082 0.25474
 C1316 C 0.69469 0.55783 0.25258
 C1317 C 0.67815 0.55887 0.25850
 C1318 C 0.67313 0.57315 0.26681
 H1319 H 0.70132 0.64165 0.29323
 H1320 H 0.75773 0.63892 0.26718
 H1321 H 0.72067 0.66369 0.29691
 H1322 H 0.75170 0.61251 0.25556
 H1323 H 0.73364 0.58966 0.25126
 H1324 H 0.68428 0.62359 0.28679
 H1325 H 0.66611 0.60091 0.28223
 H1326 H 0.71849 0.56887 0.25001
 H1327 H 0.69903 0.54681 0.24640
 H1328 H 0.66031 0.57419 0.27129
 C1329 C 0.24264 0.11992 0.76658
 C1330 C 0.22611 0.11815 0.77296
 C1331 C 0.21946 0.13137 0.78234
 C1332 C 0.22912 0.14560 0.78521
 C1333 C 0.24540 0.14713 0.77864
 C1334 C 0.25200 0.13415 0.76934
 C1335 C 0.20316 0.13042 0.78871
 C1336 C 0.19315 0.11673 0.78586
 C1337 C 0.19909 0.10325 0.77655
 C1338 C 0.21594 0.10385 0.77022
 C1339 C 0.22208 0.09014 0.76138
 C1340 C 0.21212 0.07643 0.75858
 C1341 C 0.19561 0.07577 0.76438
 C1342 C 0.18877 0.08913 0.77341
 C1343 C 0.17185 0.08775 0.77884
 C1344 C 0.16235 0.07368 0.77559
 C1345 C 0.16927 0.06051 0.76678
 C1346 C 0.18593 0.06168 0.76120
 H1347 H 0.24876 0.11064 0.75928
 H1348 H 0.22379 0.15561 0.79231
 H1349 H 0.26460 0.13484 0.76424
 H1350 H 0.19802 0.14046 0.79591
 H1351 H 0.18075 0.11711 0.79125
 H1352 H 0.23466 0.08949 0.75646
 H1353 H 0.21742 0.06622 0.75172
 H1354 H 0.16548 0.09733 0.78554
 H1355 H 0.14942 0.07320 0.77984
 H1356 H 0.19150 0.05146 0.75457
 C1357 C 0.23593 0.25674 0.12041
 C1358 C 0.22857 0.27264 0.11835
 C1359 C 0.21854 0.27855 0.13163
 C1360 C 0.21580 0.26872 0.14610
 C1361 C 0.22310 0.25295 0.14785
 C1362 C 0.23322 0.24715 0.13487
 C1363 C 0.21130 0.29427 0.13046
 C1364 C 0.21384 0.30439 0.11644
 C1365 C 0.22363 0.29911 0.10280
 C1366 C 0.23090 0.28286 0.10366
 C1367 C 0.24014 0.27731 0.08976
 C1368 C 0.24243 0.28729 0.07563
 C1369 C 0.23574 0.30325 0.07470
 C1370 C 0.22629 0.30947 0.08825
 C1371 C 0.21998 0.32586 0.08662
 C1372 C 0.22281 0.33544 0.07216
 C1373 C 0.23203 0.32914 0.05878
 C1374 C 0.23846 0.31299 0.06020
 H1375 H 0.24396 0.25130 0.11119
 H1376 H 0.20811 0.27348 0.15610
 H1377 H 0.23898 0.23502 0.13571
 H1378 H 0.20362 0.29886 0.14056
 H1379 H 0.20773 0.31629 0.11666
 H1380 H 0.24567 0.26516 0.08926
 H1381 H 0.24959 0.28244 0.06528
 H1382 H 0.21295 0.33178 0.09633
 H1383 H 0.21795 0.34798 0.07155
 H1384 H 0.24546 0.30789 0.04987
 C1385 C 0.71984 0.79104 0.63904
 C1386 C 0.72833 0.78690 0.62414
 C1387 C 0.73478 0.77055 0.62301
 C1388 C 0.73252 0.75892 0.63620
 C1389 C 0.72372 0.76320 0.65067
 C1390 C 0.71759 0.77940 0.65195
 C1391 C 0.74331 0.76582 0.60864
 C1392 C 0.74548 0.77687 0.59525
 C1393 C 0.73915 0.79323 0.59564
 C1394 C 0.73051 0.79835 0.61038
 C1395 C 0.72423 0.81473 0.61082
 C1396 C 0.72613 0.82568 0.59739
 C1397 C 0.73437 0.82089 0.58292
 C1398 C 0.74109 0.80465 0.58177
 C1399 C 0.74940 0.80059 0.56673
 C1400 C 0.75087 0.81214 0.55354
 C1401 C 0.74413 0.82811 0.55479
 C1402 C 0.73591 0.83237 0.56957
 H1403 H 0.71466 0.80313 0.64119
 H1404 H 0.73731 0.74642 0.63500
 H1405 H 0.71103 0.78325 0.66306
 H1406 H 0.74830 0.75337 0.60769
 H1407 H 0.75217 0.77209 0.58470
 H1408 H 0.71764 0.81958 0.62140
 H1409 H 0.72102 0.83809 0.59834
 H1410 H 0.75488 0.78860 0.56465
 H1411 H 0.75714 0.80845 0.54219
 H1412 H 0.73086 0.84478 0.57079
 C1413 C 0.76981 0.76002 0.38238
 C1414 C 0.77622 0.77636 0.38287
 C1415 C 0.78534 0.78238 0.36874
 C1416 C 0.78812 0.77223 0.35495
 C1417 C 0.78160 0.75612 0.35471
 C1418 C 0.77246 0.75017 0.36856
 C1419 C 0.79152 0.79854 0.36835
 C1420 C 0.78859 0.80906 0.38151
 C1421 C 0.77951 0.80375 0.39584
 C1422 C 0.77365 0.78697 0.39673
 C1423 C 0.76553 0.78132 0.41149
 C1424 C 0.76274 0.79175 0.42472
 C1425 C 0.76775 0.80828 0.42381
 C1426 C 0.77617 0.81460 0.40939
 C1427 C 0.78070 0.83159 0.40912
 C1428 C 0.77708 0.84169 0.42260
 C1429 C 0.76883 0.83530 0.43682
 C1430 C 0.76429 0.81852 0.43732
 H1431 H 0.76243 0.75450 0.39232
 H1432 H 0.79503 0.77708 0.34423
 H1433 H 0.76735 0.73774 0.36883
 H1434 H 0.79858 0.80319 0.35763
 H1435 H 0.79384 0.82131 0.38012
 H1436 H 0.76131 0.76875 0.41339
 H1437 H 0.75644 0.78682 0.43578
 H1438 H 0.78679 0.83759 0.39859
 H1439 H 0.78049 0.85467 0.42174
 H1440 H 0.75812 0.81334 0.44834
 C1441 C 0.25455 0.26906 -0.13384
 C1442 C 0.26706 0.27767 -0.12510
 C1443 C 0.28406 0.27481 -0.12960
 C1444 C 0.28815 0.26429 -0.14278
 C1445 C 0.27555 0.25590 -0.15127
 C1446 C 0.25878 0.25832 -0.14659
 C1447 C 0.29692 0.28230 -0.12080
 C1448 C 0.29335 0.29227 -0.10734
 C1449 C 0.27664 0.29560 -0.10241
 C1450 C 0.26329 0.28873 -0.11188
 C1451 C 0.24663 0.29335 -0.10800
 C1452 C 0.24306 0.30390 -0.09502
 C1453 C 0.25585 0.31003 -0.08515
 C1454 C 0.27281 0.30583 -0.08851
 C1455 C 0.28519 0.31190 -0.07766
 C1456 C 0.28089 0.32202 -0.06440
 C1457 C 0.26414 0.32654 -0.06144
 C1458 C 0.25170 0.32041 -0.07192
 H1459 H 0.24138 0.26998 -0.13089
 H1460 H 0.30119 0.26229 -0.14613
 H1461 H 0.24877 0.25200 -0.15291
 H1462 H 0.30994 0.28023 -0.12421
 H1463 H 0.30404 0.29753 -0.10127
 H1464 H 0.23599 0.28935 -0.11506
 H1465 H 0.23008 0.30717 -0.09261
 H1466 H 0.29830 0.30880 -0.07884
 H1467 H 0.29077 0.32615 -0.05629
 H1468 H 0.23870 0.32389 -0.06994
 C1469 C 0.70542 0.23469 -0.12210
 C1470 C 0.72126 0.22950 -0.11601
 C1471 C 0.73577 0.23531 -0.12466
 C1472 C 0.73432 0.24623 -0.13851
 C1473 C 0.71850 0.25109 -0.14438
 C1474 C 0.70413 0.24522 -0.13605
 C1475 C 0.75165 0.23000 -0.11963
 C1476 C 0.75349 0.21866 -0.10646
 C1477 C 0.73945 0.21241 -0.09750
 C1478 C 0.72313 0.21847 -0.10192
 C1479 C 0.70925 0.21343 -0.09201
 C1480 C 0.71110 0.20241 -0.07863
 C1481 C 0.72674 0.19571 -0.07471
 C1482 C 0.74116 0.20046 -0.08413
 C1483 C 0.75661 0.19279 -0.07990
 C1484 C 0.75764 0.18118 -0.06675
 C1485 C 0.74339 0.17681 -0.05730
 C1486 C 0.72798 0.18422 -0.06138
 H1487 H 0.69371 0.23052 -0.11669
 H1488 H 0.74551 0.25050 -0.14505
 H1489 H 0.69175 0.24879 -0.14031
 H1490 H 0.76280 0.23446 -0.12612
 H1491 H 0.76619 0.21526 -0.10341
 H1492 H 0.69673 0.21804 -0.09404
 H1493 H 0.70006 0.19894 -0.07138
 H1494 H 0.76808 0.19517 -0.08672
 H1495 H 0.76964 0.17539 -0.06416
 H1496 H 0.71688 0.18114 -0.05407
 C1497 C 0.24646 0.72718 0.37040
 C1498 C 0.23387 0.71701 0.37782
 C1499 C 0.21729 0.71866 0.37166
 C1500 C 0.21373 0.72970 0.35832
 C1501 C 0.22640 0.73962 0.35113
 C1502 C 0.24273 0.73825 0.35735
 C1503 C 0.20429 0.70942 0.37893
 C1504 C 0.20724 0.69879 0.39245
 C1505 C 0.22350 0.69672 0.39912
 C1506 C 0.23712 0.70553 0.39129
 C1507 C 0.25357 0.70245 0.39706
 C1508 C 0.25659 0.69162 0.41037
 C1509 C 0.24341 0.68356 0.41865
 C1510 C 0.22665 0.68600 0.41325
 C1511 C 0.21375 0.67778 0.42242
 C1512 C 0.21743 0.66752 0.43617
 C1513 C 0.23403 0.66501 0.44129
 C1514 C 0.24696 0.67306 0.43238
 H1515 H 0.25928 0.72716 0.37455
 H1516 H 0.20099 0.73082 0.35379
 H1517 H 0.25281 0.74569 0.35204
 H1518 H 0.19160 0.71056 0.37423
 H1519 H 0.19647 0.69214 0.39724
 H1520 H 0.26453 0.70801 0.39136
 H1521 H 0.26944 0.68966 0.41434
 H1522 H 0.20064 0.67927 0.41957
 H1523 H 0.20714 0.66177 0.44303
 H1524 H 0.25989 0.67111 0.43608
 C1525 C 0.25368 0.72554 0.63269
 C1526 C 0.26652 0.71737 0.62373
 C1527 C 0.28338 0.72045 0.62830
 C1528 C 0.28704 0.73090 0.64156
 C1529 C 0.27415 0.73884 0.65026
 C1530 C 0.25749 0.73608 0.64566
 C1531 C 0.29655 0.71321 0.61955
 C1532 C 0.29344 0.70314 0.60613
 C1533 C 0.27691 0.69965 0.60104
 C1534 C 0.26322 0.70647 0.61032
 C1535 C 0.24670 0.70199 0.60602
 C1536 C 0.24359 0.69150 0.59294
 C1537 C 0.25674 0.68524 0.58342
 C1538 C 0.27358 0.68934 0.58715
 C1539 C 0.28636 0.68303 0.57669
 C1540 C 0.28254 0.67277 0.56348
 C1541 C 0.26590 0.66841 0.56017
 C1542 C 0.25306 0.67480 0.57018
 H1543 H 0.24056 0.72433 0.62984
 H1544 H 0.30000 0.73315 0.64483
 H1545 H 0.24725 0.74201 0.65218
 H1546 H 0.30946 0.71546 0.62303
 H1547 H 0.30437 0.69801 0.60018
 H1548 H 0.23579 0.70610 0.61275
 H1549 H 0.23070 0.68834 0.59020
 H1550 H 0.29944 0.68597 0.57816
 H1551 H 0.29269 0.66838 0.55569
 H1552 H 0.24013 0.67144 0.56784
 C1553 C 0.75262 0.23367 0.13021
 C1554 C 0.76530 0.22461 0.12192
 C1555 C 0.78215 0.22716 0.12680
 C1556 C 0.78592 0.23774 0.13990
 C1557 C 0.77318 0.24632 0.14818
 C1558 C 0.75655 0.24432 0.14308
 C1559 C 0.79522 0.21916 0.11860
 C1560 C 0.79202 0.20874 0.10550
 C1561 C 0.77547 0.20562 0.10021
 C1562 C 0.76186 0.21328 0.10890
 C1563 C 0.74528 0.20910 0.10452
 C1564 C 0.74207 0.19812 0.09187
 C1565 C 0.75517 0.19108 0.08286
 C1566 C 0.77207 0.19486 0.08670
 C1567 C 0.78483 0.18781 0.07672
 C1568 C 0.78092 0.17721 0.06382
 C1569 C 0.76422 0.17317 0.06038
 C1570 C 0.75141 0.18022 0.06998
 H1571 H 0.73955 0.23303 0.12694
 H1572 H 0.79888 0.23947 0.14347
 H1573 H 0.74645 0.25085 0.14920
 H1574 H 0.80813 0.22105 0.12230
 H1575 H 0.80286 0.20299 0.09999
 H1576 H 0.73442 0.21383 0.11091
 H1577 H 0.72914 0.19520 0.08904
 H1578 H 0.79796 0.19047 0.07827
 H1579 H 0.79108 0.17234 0.05633
 H1580 H 0.73844 0.17712 0.06756
 C1581 C 0.45302 0.37699 0.52398
 C1582 C 0.46880 0.36952 0.52730
 C1583 C 0.48319 0.37688 0.51973
 C1584 C 0.48163 0.39064 0.50883
 C1585 C 0.46590 0.39767 0.50549
 C1586 C 0.45166 0.39084 0.51330
 C1587 C 0.49912 0.37051 0.52305
 C1588 C 0.50121 0.35708 0.53392
 C1589 C 0.48733 0.34920 0.54176
 C1590 C 0.47083 0.35517 0.53795
 C1591 C 0.45691 0.34640 0.54466
 C1592 C 0.45901 0.33251 0.55498
 C1593 C 0.47500 0.32697 0.55935
 C1594 C 0.48941 0.33535 0.55303
 C1595 C 0.50531 0.32962 0.55846
 C1596 C 0.50676 0.31597 0.56933
 C1597 C 0.49251 0.30742 0.57518
 C1598 C 0.47664 0.31306 0.57010
 H1599 H 0.44149 0.37261 0.52962
 H1600 H 0.49279 0.39604 0.50315
 H1601 H 0.43935 0.39607 0.51099
 H1602 H 0.51015 0.37605 0.51723
 H1603 H 0.51394 0.35291 0.53560
 H1604 H 0.44413 0.34973 0.54186
 H1605 H 0.44794 0.32611 0.55971
 H1606 H 0.51689 0.33562 0.55490
 H1607 H 0.51918 0.31229 0.57342
 H1608 H 0.46548 0.30656 0.57443
 C1609 C -0.04860 0.87911 0.02703
 C1610 C -0.03277 0.87151 0.02974
 C1611 C -0.01865 0.87861 0.02144
 C1612 C -0.02053 0.89231 0.01050
 C1613 C -0.03632 0.89951 0.00781
 C1614 C -0.05027 0.89287 0.01629
 C1615 C -0.00267 0.87206 0.02411
 C1616 C -0.00027 0.85872 0.03505
 C1617 C -0.01388 0.85114 0.04362
 C1618 C -0.03046 0.85729 0.04050
 C1619 C -0.04418 0.84885 0.04800
 C1620 C -0.04182 0.83513 0.05848
 C1621 C -0.02572 0.82941 0.06219
 C1622 C -0.01149 0.83742 0.05501
 C1623 C 0.00456 0.83146 0.05973
 C1624 C 0.00629 0.81797 0.07077
 C1625 C -0.00782 0.80984 0.07749
 C1626 C -0.02382 0.81569 0.07312
 H1627 H -0.05993 0.87493 0.03319
 H1628 H -0.00957 0.89753 0.00427
 H1629 H -0.06263 0.89817 0.01449
 H1630 H 0.00816 0.87739 0.01773
 H1631 H 0.01247 0.85440 0.03621
 H1632 H -0.05704 0.85231 0.04575
 H1633 H -0.05275 0.82900 0.06386
 H1634 H 0.01607 0.83714 0.05544
 H1635 H 0.01882 0.81407 0.07427
 H1636 H -0.03488 0.80948 0.07812
 C1637 C 0.03519 0.61053 0.04182
 C1638 C 0.02653 0.62544 0.03787
 C1639 C 0.01981 0.62723 0.02161
 C1640 C 0.02151 0.61448 0.01005
 C1641 C 0.03002 0.59975 0.01424
 C1642 C 0.03686 0.59799 0.03022
 C1643 C 0.01144 0.64175 0.01689
 C1644 C 0.00958 0.65466 0.02789
 C1645 C 0.01595 0.65355 0.04427
 C1646 C 0.02438 0.63860 0.04942
 C1647 C 0.03024 0.63726 0.06597
 C1648 C 0.02815 0.65006 0.07706
 C1649 C 0.02024 0.66479 0.07218
 C1650 C 0.01407 0.66683 0.05572
 C1651 C 0.00633 0.68215 0.05143
 C1652 C 0.00467 0.69469 0.06304
 C1653 C 0.01063 0.69252 0.07933
 C1654 C 0.01846 0.67750 0.08377
 H1655 H 0.04094 0.60811 0.05373
 H1656 H 0.01632 0.61617 -0.00231
 H1657 H 0.04345 0.58678 0.03394
 H1658 H 0.00627 0.64319 0.00447
 H1659 H 0.00289 0.66533 0.02314
 H1660 H 0.03641 0.62636 0.07091
 H1661 H 0.03283 0.64841 0.08965
 H1662 H 0.00154 0.68500 0.03919
 H1663 H -0.00112 0.70628 0.05912
 H1664 H 0.02299 0.67559 0.09638
 C1665 C 0.51292 0.13130 0.50929
 C1666 C 0.52016 0.13245 0.52529
 C1667 C 0.53053 0.11915 0.53085
 C1668 C 0.53363 0.10553 0.52062
 C1669 C 0.52636 0.10465 0.50482
 C1670 C 0.51597 0.11766 0.49932
 C1671 C 0.53771 0.11942 0.54662
 C1672 C 0.53475 0.13252 0.55717
 C1673 C 0.52454 0.14610 0.55230
 C1674 C 0.51738 0.14621 0.53596
 C1675 C 0.50781 0.16014 0.53079
 C1676 C 0.50513 0.17339 0.54120
 C1677 C 0.51170 0.17333 0.55724
 C1678 C 0.52140 0.15968 0.56313
 C1679 C 0.52749 0.16024 0.57966
 C1680 C 0.52436 0.17388 0.58963
 C1681 C 0.51502 0.18744 0.58360
 C1682 C 0.50866 0.18700 0.56738
 H1683 H 0.50468 0.14063 0.50408
 H1684 H 0.54153 0.09547 0.52515
 H1685 H 0.51022 0.11744 0.48715
 H1686 H 0.54569 0.10932 0.55092
 H1687 H 0.54087 0.13168 0.56907
 H1688 H 0.50234 0.16136 0.51860
 H1689 H 0.49776 0.18383 0.53661
 H1690 H 0.53460 0.15030 0.58538
 H1691 H 0.52916 0.17372 0.60223
 H1692 H 0.50155 0.19747 0.56249
 C1693 C -0.00392 0.11339 0.47569
 C1694 C -0.01691 0.12267 0.46792
 C1695 C -0.03372 0.11833 0.47202
 C1696 C -0.03720 0.10506 0.48320
 C1697 C -0.02415 0.09618 0.49089
 C1698 C -0.00753 0.10046 0.48697
 C1699 C -0.04698 0.12740 0.46516
 C1700 C -0.04400 0.14101 0.45465
 C1701 C -0.02752 0.14598 0.45031
 C1702 C -0.01377 0.13627 0.45654
 C1703 C 0.00263 0.14040 0.45109
 C1704 C 0.00560 0.15383 0.44037
 C1705 C -0.00755 0.16388 0.43483
 C1706 C -0.02429 0.16024 0.43980
 C1707 C -0.03706 0.17123 0.43422
 C1708 C -0.03333 0.18496 0.42396
 C1709 C -0.01679 0.18828 0.41881
 C1710 C -0.00397 0.17763 0.42435
 H1711 H 0.00919 0.11600 0.47368
 H1712 H -0.05011 0.10201 0.48631
 H1713 H 0.00283 0.09377 0.49265
 H1714 H -0.05986 0.12407 0.46813
 H1715 H -0.05499 0.14724 0.44988
 H1716 H 0.01354 0.13331 0.45465
 H1717 H 0.01841 0.15648 0.43652
 H1718 H -0.05003 0.16982 0.43784
 H1719 H -0.04346 0.19319 0.42027
 H1720 H 0.00886 0.17995 0.42037
 C1721 C 0.44920 0.61814 0.97495
 C1722 C 0.46489 0.62598 0.97206
 C1723 C 0.47915 0.61898 0.98005
 C1724 C 0.47751 0.60516 0.99092
 C1725 C 0.46184 0.59774 0.99378
 C1726 C 0.44778 0.60427 0.98558
 C1727 C 0.49501 0.62575 0.97714
 C1728 C 0.49717 0.63921 0.96626
 C1729 C 0.48340 0.64672 0.95803
 C1730 C 0.46693 0.64034 0.96142
 C1731 C 0.45304 0.64869 0.95429
 C1732 C 0.45513 0.66255 0.94392
 C1733 C 0.47111 0.66849 0.93993
 C1734 C 0.48551 0.66059 0.94674
 C1735 C 0.50143 0.66681 0.94177
 C1736 C 0.50288 0.68045 0.93084
 C1737 C 0.48860 0.68848 0.92450
 C1738 C 0.47273 0.68236 0.92913
 H1739 H 0.43780 0.62222 0.96900
 H1740 H 0.48856 0.60002 0.99693
 H1741 H 0.43550 0.59879 0.98752
 H1742 H 0.50595 0.62049 0.98326
 H1743 H 0.50984 0.64369 0.96487
 H1744 H 0.44025 0.64507 0.95677
 H1745 H 0.44407 0.66861 0.93884
 H1746 H 0.51305 0.66124 0.94578
 H1747 H 0.51532 0.68456 0.92714
 H1748 H 0.46154 0.68849 0.92445
 C1749 C 0.54681 0.87612 0.97138
 C1750 C 0.53096 0.86906 0.96800
 C1751 C 0.51664 0.87630 0.97554
 C1752 C 0.51833 0.88961 0.98638
 C1753 C 0.53415 0.89628 0.98970
 C1754 C 0.54831 0.88948 0.98201
 C1755 C 0.50066 0.87029 0.97219
 C1756 C 0.49845 0.85733 0.96136
 C1757 C 0.51226 0.84960 0.95357
 C1758 C 0.52881 0.85524 0.95733
 C1759 C 0.54266 0.84670 0.95054
 C1760 C 0.54048 0.83330 0.94025
 C1761 C 0.52446 0.82800 0.93603
 C1762 C 0.51009 0.83618 0.94241
 C1763 C 0.49415 0.83060 0.93723
 C1764 C 0.49263 0.81721 0.92665
 C1765 C 0.50686 0.80885 0.92081
 C1766 C 0.52276 0.81444 0.92549
 H1767 H 0.55832 0.87180 0.96584
 H1768 H 0.50723 0.89497 0.99200
 H1769 H 0.56070 0.89437 0.98432
 H1770 H 0.48967 0.87573 0.97796
 H1771 H 0.48568 0.85341 0.95964
 H1772 H 0.55548 0.84982 0.95325
 H1773 H 0.55151 0.82705 0.93548
 H1774 H 0.48258 0.83644 0.94088
 H1775 H 0.48019 0.81350 0.92288
 H1776 H 0.53389 0.80806 0.92115
 C1777 C 0.04372 0.37433 0.47543
 C1778 C 0.02812 0.36655 0.47257
 C1779 C 0.01370 0.37309 0.48057
 C1780 C 0.01512 0.38644 0.49143
 C1781 C 0.03070 0.39389 0.49414
 C1782 C 0.04492 0.38776 0.48599
 C1783 C -0.00208 0.36641 0.47759
 C1784 C -0.00401 0.35356 0.46654
 C1785 C 0.00991 0.34658 0.45825
 C1786 C 0.02631 0.35275 0.46184
 C1787 C 0.04036 0.34474 0.45480
 C1788 C 0.03849 0.33151 0.44425
 C1789 C 0.02260 0.32590 0.43997
 C1790 C 0.00805 0.33345 0.44671
 C1791 C -0.00776 0.32766 0.44139
 C1792 C -0.00896 0.31474 0.43017
 C1793 C 0.00547 0.30704 0.42390
 C1794 C 0.02123 0.31274 0.42891
 H1795 H 0.05522 0.37061 0.46944
 H1796 H 0.00398 0.39130 0.49744
 H1797 H 0.05712 0.39328 0.48784
 H1798 H -0.01314 0.37130 0.48373
 H1799 H -0.01664 0.34911 0.46506
 H1800 H 0.05309 0.34815 0.45751
 H1801 H 0.04966 0.32570 0.43923
 H1802 H -0.01946 0.33308 0.44531
 H1803 H -0.02131 0.31097 0.42620
 H1804 H 0.03252 0.30683 0.42431
 C1805 C 0.38865 0.53564 0.46007
 C1806 C 0.37416 0.53143 0.46960
 C1807 C 0.37318 0.51510 0.47645
 C1808 C 0.38631 0.50374 0.47410
 C1809 C 0.40063 0.50819 0.46481
 C1810 C 0.40158 0.52420 0.45774
 C1811 C 0.35912 0.51011 0.48566
 C1812 C 0.34587 0.52094 0.48826
 C1813 C 0.34617 0.53737 0.48180
 C1814 C 0.36066 0.54279 0.47251
 C1815 C 0.36124 0.55942 0.46662
 C1816 C 0.34815 0.57036 0.46958
 C1817 C 0.33387 0.56523 0.47838
 C1818 C 0.33255 0.54864 0.48451
 C1819 C 0.31759 0.54407 0.49308
 C1820 C 0.30479 0.55556 0.49570
 C1821 C 0.30634 0.57199 0.48990
 C1822 C 0.32091 0.57669 0.48114
 H1823 H 0.39042 0.54762 0.45414
 H1824 H 0.38524 0.49131 0.47941
 H1825 H 0.41247 0.52807 0.45052
 H1826 H 0.35833 0.49764 0.49095
 H1827 H 0.33562 0.51601 0.49563
 H1828 H 0.37178 0.56453 0.45981
 H1829 H 0.34924 0.58303 0.46489
 H1830 H 0.31523 0.53170 0.49781
 H1831 H 0.29351 0.55147 0.50217
 H1832 H 0.32230 0.58941 0.47668
 C1833 C 0.88809 0.03956 -0.03135
 C1834 C 0.87302 0.03524 -0.02286
 C1835 C 0.87122 0.01860 -0.01704
 C1836 C 0.88412 0.00699 -0.01946
 C1837 C 0.89890 0.01151 -0.02796
 C1838 C 0.90072 0.02788 -0.03384
 C1839 C 0.85649 0.01354 -0.00896
 C1840 C 0.84329 0.02452 -0.00675
 C1841 C 0.84434 0.04121 -0.01239
 C1842 C 0.85963 0.04677 -0.02017
 C1843 C 0.86108 0.06368 -0.02490
 C1844 C 0.84796 0.07471 -0.02254
 C1845 C 0.83281 0.06938 -0.01553
 C1846 C 0.83068 0.05257 -0.01040
 C1847 C 0.81485 0.04786 -0.00366
 C1848 C 0.80191 0.05941 -0.00196
 C1849 C 0.80421 0.07602 -0.00688
 C1850 C 0.81974 0.08089 -0.01365
 H1851 H 0.89048 0.05177 -0.03650
 H1852 H 0.88245 -0.00569 -0.01504
 H1853 H 0.91202 0.03180 -0.04037
 H1854 H 0.85508 0.00085 -0.00441
 H1855 H 0.83244 0.01953 -0.00034
 H1856 H 0.87232 0.06894 -0.03032
 H1857 H 0.84969 0.08757 -0.02637
 H1858 H 0.81190 0.03533 0.00019
 H1859 H 0.78993 0.05523 0.00302
 H1860 H 0.82176 0.09375 -0.01732
 C1861 C 0.63205 0.00702 0.01678
 C1862 C 0.63199 0.02355 0.02237
 C1863 C 0.61743 0.02911 0.03087
 C1864 C 0.60375 0.01842 0.03377
 C1865 C 0.60406 0.00212 0.02809
 C1866 C 0.61833 -0.00342 0.01960
 C1867 C 0.61651 0.04535 0.03634
 C1868 C 0.62962 0.05638 0.03341
 C1869 C 0.64439 0.05154 0.02497
 C1870 C 0.64573 0.03475 0.01966
 C1871 C 0.66081 0.02968 0.01192
 C1872 C 0.67399 0.04061 0.00916
 C1873 C 0.67273 0.05708 0.01385
 C1874 C 0.65795 0.06287 0.02177
 C1875 C 0.65738 0.07982 0.02604
 C1876 C 0.67095 0.09036 0.02271
 C1877 C 0.68555 0.08447 0.01501
 C1878 C 0.68631 0.06778 0.01065
 H1879 H 0.64238 0.00175 0.00999
 H1880 H 0.59270 0.02295 0.04017
 H1881 H 0.61903 -0.01597 0.01516
 H1882 H 0.60544 0.04966 0.04289
 H1883 H 0.62780 0.06864 0.03812
 H1884 H 0.66298 0.01721 0.00794
 H1885 H 0.68532 0.03611 0.00320
 H1886 H 0.64660 0.08543 0.03181
 H1887 H 0.66991 0.10327 0.02601
 H1888 H 0.69764 0.06298 0.00493
 C1889 C 0.12198 0.51098 0.50925
 C1890 C 0.12510 0.52503 0.51898
 C1891 C 0.11396 0.52806 0.53243
 C1892 C 0.10022 0.51750 0.53571
 C1893 C 0.09731 0.50365 0.52588
 C1894 C 0.10839 0.50058 0.51265
 C1895 C 0.11661 0.54155 0.54263
 C1896 C 0.13024 0.55203 0.53997
 C1897 C 0.14178 0.54954 0.52682
 C1898 C 0.13896 0.53600 0.51594
 C1899 C 0.15006 0.53389 0.50235
 C1900 C 0.16367 0.54429 0.49968
 C1901 C 0.16690 0.55719 0.51042
 C1902 C 0.15605 0.56011 0.52413
 C1903 C 0.16011 0.57341 0.53462
 C1904 C 0.17435 0.58317 0.53161
 C1905 C 0.18503 0.58006 0.51810
 C1906 C 0.18107 0.56714 0.50747
 H1907 H 0.12988 0.50745 0.49899
 H1908 H 0.09188 0.52011 0.54604
 H1909 H 0.10674 0.49002 0.50479
 H1910 H 0.10811 0.54399 0.55290
 H1911 H 0.13129 0.56210 0.54848
 H1912 H 0.14857 0.52434 0.49334
 H1913 H 0.17187 0.54211 0.48910
 H1914 H 0.15273 0.57649 0.54540
 H1915 H 0.17718 0.59299 0.54011
 H1916 H 0.18904 0.56483 0.49676
 C1917 C 0.12874 0.49354 -0.01999
 C1918 C 0.12956 0.47750 -0.02679
 C1919 C 0.11542 0.47199 -0.03576
 C1920 C 0.10127 0.48224 -0.03789
 C1921 C 0.10064 0.49797 -0.03086
 C1922 C 0.11452 0.50349 -0.02196
 C1923 C 0.11534 0.45616 -0.04236
 C1924 C 0.12880 0.44543 -0.03995
 C1925 C 0.14312 0.45020 -0.03096
 C1926 C 0.14371 0.46668 -0.02471
 C1927 C 0.15844 0.47179 -0.01660
 C1928 C 0.17187 0.46108 -0.01414
 C1929 C 0.17122 0.44480 -0.01951
 C1930 C 0.15689 0.43906 -0.02802
 C1931 C 0.15691 0.42231 -0.03299
 C1932 C 0.17053 0.41185 -0.02959
 C1933 C 0.18461 0.41763 -0.02115
 C1934 C 0.18488 0.43421 -0.01630
 H1935 H 0.13871 0.49871 -0.01278
 H1936 H 0.09053 0.47772 -0.04463
 H1937 H 0.11444 0.51562 -0.01647
 H1938 H 0.10461 0.45190 -0.04931
 H1939 H 0.12760 0.43346 -0.04546
 H1940 H 0.16011 0.48413 -0.01207
 H1941 H 0.18287 0.46557 -0.00777
 H1942 H 0.14651 0.41675 -0.03926
 H1943 H 0.16985 0.39904 -0.03329
 H1944 H 0.19581 0.43894 -0.01000
 C1945 C 0.62858 0.99446 0.48576
 C1946 C 0.63012 0.97840 0.47912
 C1947 C 0.61668 0.97263 0.46931
 C1948 C 0.60254 0.98268 0.46620
 C1949 C 0.60129 0.99856 0.47283
 C1950 C 0.61444 1.00427 0.48265
 C1951 C 0.61737 0.95683 0.46267
 C1952 C 0.63106 0.94651 0.46554
 C1953 C 0.64483 0.95162 0.47514
 C1954 C 0.64443 0.96791 0.48191
 C1955 C 0.65840 0.97320 0.49114
 C1956 C 0.67221 0.96299 0.49378
 C1957 C 0.67273 0.94707 0.48745
 C1958 C 0.65907 0.94106 0.47811
 C1959 C 0.66029 0.92470 0.47214
 C1960 C 0.67450 0.91495 0.47519
 C1961 C 0.68802 0.92104 0.48428
 C1962 C 0.68697 0.93714 0.49040
 H1963 H 0.63799 0.99986 0.49349
 H1964 H 0.59241 0.97796 0.45873
 H1965 H 0.61398 1.01649 0.48790
 H1966 H 0.60714 0.95235 0.45516
 H1967 H 0.63047 0.93457 0.45987
 H1968 H 0.65919 0.98530 0.49643
 H1969 H 0.68263 0.96766 0.50090
 H1970 H 0.65049 0.91895 0.46517
 H1971 H 0.67481 0.90245 0.47053
 H1972 H 0.69741 0.94211 0.49728
 C1973 C 0.89001 0.96518 0.53909
 C1974 C 0.87567 0.96957 0.52963
 C1975 C 0.87479 0.98601 0.52303
 C1976 C 0.88791 0.99731 0.52557
 C1977 C 0.90207 0.99267 0.53486
 C1978 C 0.90290 0.97652 0.54162
 C1979 C 0.86079 0.99116 0.51395
 C1980 C 0.84752 0.98042 0.51131
 C1981 C 0.84775 0.96389 0.51752
 C1982 C 0.86220 0.95829 0.52658
 C1983 C 0.86278 0.94156 0.53215
 C1984 C 0.84969 0.93072 0.52920
 C1985 C 0.83539 0.93605 0.52072
 C1986 C 0.83410 0.95271 0.51482
 C1987 C 0.81913 0.95743 0.50651
 C1988 C 0.80625 0.94603 0.50402
 C1989 C 0.80773 0.92955 0.50969
 C1990 C 0.82238 0.92469 0.51808
 H1991 H 0.89168 0.95312 0.54487
 H1992 H 0.88695 1.00981 0.52045
 H1993 H 0.91365 0.97247 0.54881
 H1994 H 0.86004 1.00370 0.50886
 H1995 H 0.83729 0.98548 0.50411
 H1996 H 0.87333 0.93628 0.53869
 H1997 H 0.85077 0.91798 0.53367
 H1998 H 0.81684 0.96986 0.50190
 H1999 H 0.79496 0.95025 0.49778
 H2000 H 0.82378 0.91193 0.52238
 C2001 C 0.38424 0.45893 0.03561
 C2002 C 0.36978 0.46325 0.02628
 C2003 C 0.36880 0.47964 0.01958
 C2004 C 0.38187 0.49099 0.02198
 C2005 C 0.39607 0.48647 0.03123
 C2006 C 0.39708 0.47036 0.03802
 C2007 C 0.35474 0.48472 0.01057
 C2008 C 0.34146 0.47396 0.00813
 C2009 C 0.34174 0.45750 0.01452
 C2010 C 0.35627 0.45196 0.02349
 C2011 C 0.35687 0.43529 0.02925
 C2012 C 0.34371 0.42446 0.02659
 C2013 C 0.32934 0.42974 0.01822
 C2014 C 0.32803 0.44633 0.01212
 C2015 C 0.31299 0.45101 0.00394
 C2016 C 0.30003 0.43965 0.00177
 C2017 C 0.30152 0.42324 0.00766
 C2018 C 0.31624 0.41841 0.01591
 H2019 H 0.38603 0.44690 0.04139
 H2020 H 0.38079 0.50348 0.01683
 H2021 H 0.40792 0.46643 0.04515
 H2022 H 0.35394 0.49722 0.00538
 H2023 H 0.33118 0.47896 0.00097
 H2024 H 0.36747 0.43007 0.03576
 H2025 H 0.34479 0.41177 0.03122
 H2026 H 0.31067 0.46339 -0.00080
 H2027 H 0.28868 0.44381 -0.00439
 H2028 H 0.31763 0.40569 0.02036
 C2029 C 0.54016 0.46371 0.38742
 C2030 C 0.53643 0.47378 0.37321
 C2031 C 0.52042 0.48148 0.37263
 C2032 C 0.50890 0.47931 0.38582
 C2033 C 0.51285 0.46937 0.39979
 C2034 C 0.52855 0.46157 0.40041
 C2035 C 0.51590 0.49131 0.35888
 C2036 C 0.52685 0.49365 0.34553
 C2037 C 0.54295 0.48630 0.34540
 C2038 C 0.54792 0.47639 0.35959
 C2039 C 0.56425 0.46954 0.35972
 C2040 C 0.57529 0.47209 0.34646
 C2041 C 0.57055 0.48144 0.33246
 C2042 C 0.55431 0.48863 0.33162
 C2043 C 0.55015 0.49780 0.31695
 C2044 C 0.56168 0.49985 0.30390
 C2045 C 0.57775 0.49287 0.30491
 C2046 C 0.58207 0.48364 0.31926
 H2047 H 0.55186 0.45718 0.38890
 H2048 H 0.49670 0.48522 0.38501
 H2049 H 0.53203 0.45386 0.41105
 H2050 H 0.50369 0.49726 0.35840
 H2051 H 0.52228 0.50150 0.33553
 H2052 H 0.56905 0.46221 0.37000
 H2053 H 0.58771 0.46660 0.34718
 H2054 H 0.53805 0.50344 0.31500
 H2055 H 0.55788 0.50677 0.29282
 H2056 H 0.59453 0.47830 0.32026
 C2057 C 0.00733 -0.01889 0.86997
 C2058 C 0.02360 -0.02592 0.86902
 C2059 C 0.02954 -0.03491 0.88319
 C2060 C 0.01932 -0.03712 0.89742
 C2061 C 0.00324 -0.03011 0.89806
 C2062 C -0.00259 -0.02096 0.88423
 C2063 C 0.04572 -0.04153 0.88318
 C2064 C 0.05635 -0.03911 0.86956
 C2065 C 0.05110 -0.03018 0.85517
 C2066 C 0.03423 -0.02404 0.85466
 C2067 C 0.02850 -0.01636 0.83976
 C2068 C 0.03901 -0.01414 0.82606
 C2069 C 0.05571 -0.01922 0.82667
 C2070 C 0.06208 -0.02728 0.84120
 C2071 C 0.07927 -0.03180 0.84119
 C2072 C 0.08955 -0.02847 0.82735
 C2073 C 0.08312 -0.02057 0.81304
 C2074 C 0.06612 -0.01613 0.81278
 H2075 H 0.00197 -0.01143 0.86006
 H2076 H 0.02407 -0.04400 0.90815
 H2077 H -0.01497 -0.01543 0.88432
 H2078 H 0.05030 -0.04850 0.89393
 H2079 H 0.06860 -0.04468 0.87063
 H2080 H 0.01578 -0.01214 0.83812
 H2081 H 0.03404 -0.00815 0.81491
 H2082 H 0.08532 -0.03755 0.85181
 H2083 H 0.10272 -0.03176 0.82803
 H2084 H 0.06093 -0.01021 0.80169
 C2085 C 0.04117 0.03399 0.61327
 C2086 C 0.03738 0.02427 0.62772
 C2087 C 0.02128 0.01682 0.62875
 C2088 C 0.00962 0.01909 0.61581
 C2089 C 0.01360 0.02882 0.60163
 C2090 C 0.02949 0.03619 0.60054
 C2091 C 0.01682 0.00717 0.64271
 C2092 C 0.02792 0.00476 0.65580
 C2093 C 0.04409 0.01193 0.65548
 C2094 C 0.04894 0.02176 0.64115
 C2095 C 0.06519 0.02877 0.64073
 C2096 C 0.07627 0.02641 0.65381
 C2097 C 0.07172 0.01703 0.66789
 C2098 C 0.05560 0.00961 0.66901
 C2099 C 0.05173 0.00024 0.68369
 C2100 C 0.06335 -0.00161 0.69656
 C2101 C 0.07922 0.00578 0.69533
 C2102 C 0.08329 0.01506 0.68091
 H2103 H 0.05301 0.04016 0.61132
 H2104 H -0.00265 0.01339 0.61693
 H2105 H 0.03311 0.04363 0.58973
 H2106 H 0.00454 0.00142 0.64356
 H2107 H 0.02337 -0.00287 0.66603
 H2108 H 0.06985 0.03620 0.63040
 H2109 H 0.08859 0.03208 0.65288
 H2110 H 0.03982 -0.00578 0.68575
 H2111 H 0.05976 -0.00866 0.70766
 H2112 H 0.09563 0.02065 0.67971
 C2113 C 0.50617 0.51590 0.13077
 C2114 C 0.52235 0.52306 0.13144
 C2115 C 0.52811 0.53215 0.11718
 C2116 C 0.51782 0.53425 0.10312
 C2117 C 0.50180 0.52711 0.10276
 C2118 C 0.49615 0.51791 0.11669
 C2119 C 0.54416 0.53902 0.11695
 C2120 C 0.55484 0.53680 0.13042
 C2121 C 0.54978 0.52779 0.14489
 C2122 C 0.53306 0.52130 0.14562
 C2123 C 0.52753 0.51343 0.16057
 C2124 C 0.53808 0.51142 0.17413
 C2125 C 0.55463 0.51694 0.17334
 C2126 C 0.56080 0.52516 0.15873
 C2127 C 0.57786 0.53014 0.15857
 C2128 C 0.58817 0.52713 0.17232
 C2129 C 0.58192 0.51908 0.18672
 C2130 C 0.56506 0.51415 0.18714
 H2131 H 0.50091 0.50841 0.14077
 H2132 H 0.52245 0.54120 0.09233
 H2133 H 0.48382 0.51229 0.11685
 H2134 H 0.54860 0.54608 0.10613
 H2135 H 0.56697 0.54258 0.12917
 H2136 H 0.51495 0.50885 0.16236
 H2137 H 0.53326 0.50529 0.18533
 H2138 H 0.58378 0.53606 0.14790
 H2139 H 0.60123 0.53080 0.17152
 H2140 H 0.55999 0.50812 0.19828
 C2141 C 0.46237 -0.03759 0.10668
 C2142 C 0.46688 -0.02893 0.12114
 C2143 C 0.48341 -0.02249 0.12183
 C2144 C 0.49466 -0.02440 0.10846
 C2145 C 0.48995 -0.03296 0.09424
 C2146 C 0.47374 -0.03956 0.09354
 C2147 C 0.48872 -0.01422 0.13589
 C2148 C 0.47809 -0.01231 0.14948
 C2149 C 0.46150 -0.01847 0.14951
 C2150 C 0.45567 -0.02657 0.13494
 C2151 C 0.43878 -0.03186 0.13459
 C2152 C 0.42802 -0.02955 0.14802
 C2153 C 0.43362 -0.02211 0.16245
 C2154 C 0.45047 -0.01660 0.16352
 C2155 C 0.45556 -0.00955 0.17868
 C2156 C 0.44430 -0.00771 0.19191
 C2157 C 0.42757 -0.01282 0.19060
 C2158 C 0.42237 -0.02010 0.17582
 H2159 H 0.45025 -0.04322 0.10515
 H2160 H 0.50726 -0.01947 0.10931
 H2161 H 0.46970 -0.04621 0.08271
 H2162 H 0.50132 -0.00921 0.13646
 H2163 H 0.48324 -0.00564 0.15971
 H2164 H 0.43332 -0.03763 0.12396
 H2165 H 0.41514 -0.03373 0.14710
 H2166 H 0.46821 -0.00550 0.18088
 H2167 H 0.44879 -0.00243 0.20332
 H2168 H 0.40943 -0.02401 0.17459
 C2169 C 0.97092 0.45220 0.62152
 C2170 C 0.96817 0.46790 0.62861
 C2171 C 0.97609 0.48182 0.62083
 C2172 C 0.98681 0.47986 0.60703
 C2173 C 0.98955 0.46418 0.60035
 C2174 C 0.98138 0.45045 0.60763
 C2175 C 0.97323 0.49767 0.62680
 C2176 C 0.96248 0.50013 0.64020
 C2177 C 0.95436 0.48671 0.64849
 C2178 C 0.95772 0.47028 0.64296
 C2179 C 0.95079 0.45678 0.65215
 C2180 C 0.94063 0.45920 0.66601
 C2181 C 0.93666 0.47513 0.67113
 C2182 C 0.94325 0.48914 0.66234
 C2183 C 0.93827 0.50501 0.66772
 C2184 C 0.92765 0.50680 0.68147
 C2185 C 0.92158 0.49292 0.69044
 C2186 C 0.92613 0.47709 0.68509
 H2187 H 0.96497 0.44104 0.62619
 H2188 H 0.99279 0.49064 0.60130
 H2189 H 0.98322 0.43819 0.60272
 H2190 H 0.97929 0.50835 0.62094
 H2191 H 0.96112 0.51277 0.64403
 H2192 H 0.95332 0.44406 0.64920
 H2193 H 0.93572 0.44842 0.67274
 H2194 H 0.94206 0.51633 0.66140
 H2195 H 0.92399 0.51919 0.68494
 H2196 H 0.92165 0.46621 0.69192
 C2197 C 0.96186 0.54275 0.89084
 C2198 C 0.96576 0.53274 0.87705
 C2199 C 0.98175 0.52500 0.87679
 C2200 C 0.99296 0.52678 0.89008
 C2201 C 0.98876 0.53651 0.90374
 C2202 C 0.97319 0.54459 0.90388
 C2203 C 0.98655 0.51551 0.86326
 C2204 C 0.97589 0.51355 0.84984
 C2205 C 0.95975 0.52082 0.84950
 C2206 C 0.95444 0.53024 0.86352
 C2207 C 0.93791 0.53659 0.86367
 C2208 C 0.92700 0.53404 0.85056
 C2209 C 0.93211 0.52531 0.83663
 C2210 C 0.94861 0.51874 0.83575
 C2211 C 0.95326 0.51044 0.82104
 C2212 C 0.94188 0.50842 0.80809
 C2213 C 0.92545 0.51455 0.80923
 C2214 C 0.92072 0.52307 0.82357
 H2215 H 0.95024 0.54950 0.89190
 H2216 H 1.00509 0.52071 0.88964
 H2217 H 0.96957 0.55222 0.91423
 H2218 H 0.99876 0.50956 0.86300
 H2219 H 0.98062 0.50592 0.84004
 H2220 H 0.93281 0.54335 0.87396
 H2221 H 0.91438 0.53905 0.85134
 H2222 H 0.96567 0.50555 0.81898
 H2223 H 0.94609 0.50219 0.79701
 H2224 H 0.90803 0.52779 0.82472
 C2225 C 0.46109 0.03352 0.39031
 C2226 C 0.46524 0.02363 0.37652
 C2227 C 0.48156 0.01659 0.37604
 C2228 C 0.49306 0.01933 0.38893
 C2229 C 0.48873 0.02927 0.40241
 C2230 C 0.47264 0.03626 0.40293
 C2231 C 0.48642 0.00697 0.36262
 C2232 C 0.47557 0.00434 0.34947
 C2233 C 0.45922 0.01116 0.34923
 C2234 C 0.45386 0.02069 0.36315
 C2235 C 0.43728 0.02696 0.36324
 C2236 C 0.42645 0.02440 0.35010
 C2237 C 0.43161 0.01558 0.33626
 C2238 C 0.44803 0.00878 0.33556
 C2239 C 0.45255 0.00003 0.32108
 C2240 C 0.44127 -0.00178 0.30799
 C2241 C 0.42509 0.00500 0.30879
 C2242 C 0.42036 0.01360 0.32305
 H2243 H 0.44911 0.03952 0.39172
 H2244 H 0.50551 0.01396 0.38826
 H2245 H 0.46879 0.04386 0.41321
 H2246 H 0.49886 0.00150 0.36220
 H2247 H 0.48043 -0.00323 0.33968
 H2248 H 0.43215 0.03388 0.37338
 H2249 H 0.41388 0.02953 0.35075
 H2250 H 0.46477 -0.00539 0.31931
 H2251 H 0.44540 -0.00827 0.29703
 H2252 H 0.40780 0.01872 0.32393
   
