data_POSCAR
  _audit_creation_date              2014-09-24
  _audit_creation_method            'ToBaCCo'
  _symmetry_space_group_name_H-M    'P1'
  _symmetry_Int_Tables_number       1
  _symmetry_cell_setting            triclinic
  loop_
  _symmetry_equiv_pos_as_xyz
 x,y,z
_cell_length_a 71.1374
_cell_length_b 71.1968
_cell_length_c 71.4202
_cell_angle_alpha 89.970100
_cell_angle_beta 89.987100
_cell_angle_gamma 89.938200
loop_
  _atom_site_label
  _atom_site_type_symbol
  _atom_site_fract_x
  _atom_site_fract_y
  _atom_site_fract_z
N1 N 0.36168 0.30957 0.32297
 N2 N 0.36168 0.32287 0.31021
 C3 C 0.37617 0.32001 0.29841
 C4 C 0.38581 0.30402 0.30405
 C5 C 0.37614 0.29783 0.31974
 H6 H 0.37936 0.32886 0.28654
 H7 H 0.37925 0.28564 0.32820
 Cu8 Cu 0.34231 0.34220 0.31021
 Cu9 Cu 0.34284 0.30825 0.34276
 Cu10 Cu 0.30829 0.34272 0.34270
 N11 N 0.32294 0.36151 0.31015
 N12 N 0.30961 0.36152 0.32289
 C13 C 0.29786 0.37596 0.31962
 C14 C 0.30407 0.38562 0.30393
 C15 C 0.32008 0.37598 0.29832
 H16 H 0.28565 0.37908 0.32806
 H17 H 0.32896 0.37917 0.28647
 N18 N 0.30943 0.32249 0.36155
 N19 N 0.32256 0.30938 0.36157
 C20 C 0.31953 0.29769 0.37608
 C21 C 0.30370 0.30366 0.38573
 C22 C 0.29772 0.31946 0.37605
 H23 H 0.32825 0.28571 0.37934
 H24 H 0.28571 0.32816 0.37929
 H25 H 0.32167 0.32158 0.32805
 H26 H 0.33664 0.33658 0.34339
 N27 N 0.36213 0.80984 -0.17729
 N28 N 0.36222 0.82323 -0.18994
 C29 C 0.37676 0.82041 -0.20172
 C30 C 0.38638 0.80432 -0.19616
 C31 C 0.37657 0.79808 -0.18052
 H32 H 0.37992 0.82936 -0.21351
 H33 H 0.37952 0.78585 -0.17207
 Cu34 Cu 0.34270 0.84245 -0.18996
 Cu35 Cu 0.34315 0.80829 -0.15760
 Cu36 Cu 0.30998 0.84401 -0.15650
 N37 N 0.32303 0.86156 -0.19032
 N38 N 0.30996 0.86176 -0.17733
 C39 C 0.29806 0.87608 -0.18063
 C40 C 0.30393 0.88556 -0.19663
 C41 C 0.31989 0.87579 -0.20237
 H42 H 0.28618 0.87936 -0.17180
 H43 H 0.32865 0.87878 -0.21435
 N44 N 0.31005 0.82297 -0.13848
 N45 N 0.32277 0.80947 -0.13885
 C46 C 0.31941 0.79750 -0.12464
 C47 C 0.30379 0.80368 -0.11479
 C48 C 0.29823 0.81988 -0.12407
 H49 H 0.32785 0.78525 -0.12164
 H50 H 0.28653 0.82889 -0.12054
 H51 H 0.32205 0.82245 -0.17163
 H52 H 0.33823 0.83647 -0.15661
 N53 N 0.86122 0.30997 -0.17729
 N54 N 0.86102 0.32306 -0.19025
 C55 C 0.87548 0.32014 -0.20209
 C56 C 0.88531 0.30433 -0.19625
 C57 C 0.87576 0.29830 -0.18041
 H58 H 0.87859 0.32888 -0.21406
 H59 H 0.87906 0.28631 -0.17175
 Cu60 Cu 0.84185 0.34260 -0.19022
 Cu61 Cu 0.84256 0.30886 -0.15736
 Cu62 Cu 0.80810 0.34337 -0.15733
 N63 N 0.82234 0.36181 -0.19023
 N64 N 0.80925 0.36203 -0.17726
 C65 C 0.79761 0.37660 -0.18037
 C66 C 0.80366 0.38618 -0.19623
 C67 C 0.81948 0.37627 -0.20206
 H68 H 0.78565 0.37984 -0.17165
 H69 H 0.82830 0.37927 -0.21399
 N70 N 0.80934 0.32324 -0.13838
 N71 N 0.82245 0.31012 -0.13840
 C72 C 0.81942 0.29841 -0.12390
 C73 C 0.80362 0.30438 -0.11422
 C74 C 0.79764 0.32021 -0.12387
 H75 H 0.82809 0.28637 -0.12071
 H76 H 0.78561 0.32887 -0.12064
 H77 H 0.82134 0.32217 -0.17200
 H78 H 0.83649 0.33727 -0.15691
 N79 N 0.86121 0.80976 0.32276
 N80 N 0.86101 0.82286 0.30980
 C81 C 0.87546 0.81994 0.29795
 C82 C 0.88529 0.80414 0.30378
 C83 C 0.87576 0.79810 0.31962
 H84 H 0.87855 0.82869 0.28598
 H85 H 0.87907 0.78610 0.32828
 Cu86 Cu 0.84187 0.84242 0.30980
 Cu87 Cu 0.84255 0.80865 0.34268
 Cu88 Cu 0.80804 0.84309 0.34265
 N89 N 0.82227 0.86152 0.30976
 N90 N 0.80915 0.86172 0.32270
 C91 C 0.79748 0.87626 0.31955
 C92 C 0.80353 0.88584 0.30369
 C93 C 0.81938 0.87595 0.29790
 H94 H 0.78550 0.87949 0.32826
 H95 H 0.82821 0.87896 0.28598
 N96 N 0.80932 0.82300 0.36163
 N97 N 0.82244 0.80990 0.36164
 C98 C 0.81944 0.79822 0.37616
 C99 C 0.80363 0.80419 0.38584
 C100 C 0.79763 0.81998 0.37616
 H101 H 0.82814 0.78621 0.37939
 H102 H 0.78560 0.82866 0.37939
 H103 H 0.82135 0.82193 0.32796
 H104 H 0.83645 0.83703 0.34311
 N105 N 0.63839 0.69041 0.32306
 N106 N 0.63840 0.67711 0.31032
 C107 C 0.62391 0.67996 0.29851
 C108 C 0.61427 0.69595 0.30414
 C109 C 0.62393 0.70215 0.31982
 H110 H 0.62073 0.67111 0.28666
 H111 H 0.62082 0.71435 0.32826
 Cu112 Cu 0.65775 0.65779 0.31034
 Cu113 Cu 0.65721 0.69174 0.34284
 Cu114 Cu 0.69177 0.65728 0.34282
 N115 N 0.67712 0.63849 0.31029
 N116 N 0.69045 0.63848 0.32302
 C117 C 0.70220 0.62404 0.31976
 C118 C 0.69598 0.61439 0.30408
 C119 C 0.67997 0.62402 0.29848
 H120 H 0.71441 0.62092 0.32820
 H121 H 0.67109 0.62084 0.28664
 N122 N 0.69061 0.67752 0.36164
 N123 N 0.67748 0.69061 0.36164
 C124 C 0.68050 0.70232 0.37613
 C125 C 0.69632 0.69635 0.38579
 C126 C 0.70232 0.68056 0.37614
 H127 H 0.67177 0.71430 0.37938
 H128 H 0.71432 0.67186 0.37940
 H129 H 0.67839 0.67842 0.32814
 H130 H 0.66341 0.66342 0.34350
 N131 N 0.63862 0.19022 -0.17720
 N132 N 0.63882 0.17713 -0.19015
 C133 C 0.62432 0.18001 -0.20194
 C134 C 0.61448 0.19580 -0.19609
 C135 C 0.62405 0.20185 -0.18029
 H136 H 0.62122 0.17128 -0.21390
 H137 H 0.62076 0.21385 -0.17164
 Cu138 Cu 0.65815 0.15774 -0.19033
 Cu139 Cu 0.65734 0.19140 -0.15736
 Cu140 Cu 0.69190 0.15702 -0.15740
 N141 N 0.67764 0.13850 -0.19021
 N142 N 0.69077 0.13832 -0.17729
 C143 C 0.70244 0.12378 -0.18041
 C144 C 0.69638 0.11417 -0.19625
 C145 C 0.68052 0.12403 -0.20203
 H146 H 0.71444 0.12057 -0.17172
 H147 H 0.67168 0.12101 -0.21394
 N148 N 0.69064 0.17715 -0.13846
 N149 N 0.67749 0.19022 -0.13847
 C150 C 0.68048 0.20193 -0.12397
 C151 C 0.69631 0.19601 -0.11430
 C152 C 0.70233 0.18021 -0.12395
 H153 H 0.67175 0.21392 -0.12076
 H154 H 0.71438 0.17156 -0.12071
 H155 H 0.67860 0.17822 -0.17209
 H156 H 0.66347 0.16303 -0.15702
 N157 N 0.13862 0.69061 -0.17716
 N158 N 0.13879 0.67749 -0.19008
 C159 C 0.12434 0.68042 -0.20193
 C160 C 0.11455 0.69625 -0.19612
 C161 C 0.12410 0.70230 -0.18031
 H162 H 0.12123 0.67166 -0.21387
 H163 H 0.12081 0.71431 -0.17168
 Cu164 Cu 0.15787 0.65789 -0.19005
 Cu165 Cu 0.15729 0.69171 -0.15726
 Cu166 Cu 0.19172 0.65721 -0.15725
 N167 N 0.17743 0.63876 -0.19007
 N168 N 0.19056 0.63856 -0.17715
 C169 C 0.20221 0.62401 -0.18029
 C170 C 0.19612 0.61448 -0.19610
 C171 C 0.18031 0.62432 -0.20191
 H172 H 0.21422 0.62069 -0.17166
 H173 H 0.17153 0.62124 -0.21385
 N174 N 0.19050 0.67731 -0.13832
 N175 N 0.17740 0.69044 -0.13833
 C176 C 0.18044 0.70213 -0.12383
 C177 C 0.19625 0.69614 -0.11418
 C178 C 0.20221 0.68032 -0.12382
 H179 H 0.17177 0.71416 -0.12062
 H180 H 0.21423 0.67163 -0.12060
 H181 H 0.17843 0.67837 -0.17198
 H182 H 0.16332 0.66332 -0.15677
 N183 N 0.13853 0.19050 0.32288
 N184 N 0.13869 0.17737 0.30998
 C185 C 0.12423 0.18026 0.29815
 C186 C 0.11444 0.19610 0.30394
 C187 C 0.12399 0.20217 0.31973
 H188 H 0.12114 0.17151 0.28619
 H189 H 0.12073 0.21420 0.32834
 Cu190 Cu 0.15810 0.15810 0.30982
 Cu191 Cu 0.15726 0.19171 0.34274
 Cu192 Cu 0.19179 0.15726 0.34271
 N193 N 0.17743 0.13874 0.30992
 N194 N 0.19059 0.13858 0.32282
 C195 C 0.20227 0.12406 0.31964
 C196 C 0.19618 0.11452 0.30385
 C197 C 0.18031 0.12430 0.29809
 H198 H 0.21432 0.12078 0.32825
 H199 H 0.17154 0.12122 0.28614
 N200 N 0.19055 0.17739 0.36163
 N201 N 0.17742 0.19049 0.36163
 C202 C 0.18042 0.20216 0.37615
 C203 C 0.19623 0.19618 0.38582
 C204 C 0.20224 0.18040 0.37615
 H205 H 0.17171 0.21415 0.37940
 H206 H 0.21425 0.17171 0.37939
 H207 H 0.17855 0.17854 0.32809
 H208 H 0.16340 0.16337 0.34312
 N209 N 0.63831 0.30972 0.67710
 N210 N 0.63829 0.32302 0.68984
 C211 C 0.62379 0.32018 0.70164
 C212 C 0.61416 0.30420 0.69601
 C213 C 0.62385 0.29799 0.68033
 H214 H 0.62058 0.32903 0.71349
 H215 H 0.62076 0.28581 0.67188
 Cu216 Cu 0.65765 0.34233 0.68983
 Cu217 Cu 0.65716 0.30836 0.65733
 Cu218 Cu 0.69169 0.34278 0.65734
 N219 N 0.67703 0.36163 0.68986
 N220 N 0.69036 0.36161 0.67712
 C221 C 0.70211 0.37603 0.68038
 C222 C 0.69590 0.38571 0.69606
 C223 C 0.67988 0.37610 0.70167
 H224 H 0.71433 0.37911 0.67193
 H225 H 0.67101 0.37931 0.71352
 N226 N 0.69057 0.32252 0.63851
 N227 N 0.67745 0.30944 0.63852
 C228 C 0.68048 0.29773 0.62403
 C229 C 0.69630 0.30366 0.61436
 C230 C 0.70229 0.31945 0.62402
 H231 H 0.67176 0.28576 0.62078
 H232 H 0.71429 0.32813 0.62075
 H233 H 0.67831 0.32166 0.67202
 H234 H 0.66334 0.33667 0.65665
 N235 N 0.63836 0.80986 1.17718
 N236 N 0.63836 0.82316 1.18992
 C237 C 0.62387 0.82033 1.20173
 C238 C 0.61423 0.80436 1.19611
 C239 C 0.62391 0.79814 1.18043
 H240 H 0.62068 0.82919 1.21359
 H241 H 0.62080 0.78596 1.17199
 Cu242 Cu 0.65771 0.84245 1.18992
 Cu243 Cu 0.65721 0.80849 1.15741
 Cu244 Cu 0.69173 0.84290 1.15742
 N245 N 0.67706 0.86173 1.18993
 N246 N 0.69039 0.86171 1.17720
 C247 C 0.70215 0.87611 1.18045
 C248 C 0.69594 0.88578 1.19613
 C249 C 0.67993 0.87619 1.20175
 H250 H 0.71437 0.87919 1.17201
 H251 H 0.67106 0.87939 1.21361
 N252 N 0.69061 0.82266 1.13862
 N253 N 0.67749 0.80958 1.13861
 C254 C 0.68054 0.79788 1.12412
 C255 C 0.69636 0.80383 1.11447
 C256 C 0.70234 0.81961 1.12413
 H257 H 0.67182 0.78591 1.12086
 H258 H 0.71434 0.82829 1.12088
 H259 H 0.67836 0.82178 1.17210
 H260 H 0.66338 0.83680 1.15675
 N261 N 0.13831 0.30995 1.17707
 N262 N 0.13829 0.32327 1.18979
 C263 C 0.12380 0.32044 1.20160
 C264 C 0.11418 0.30444 1.19600
 C265 C 0.12387 0.29822 1.18033
 H266 H 0.12059 0.32931 1.21345
 H267 H 0.12078 0.28602 1.17191
 Cu268 Cu 0.15761 0.34259 1.18975
 Cu269 Cu 0.15716 0.30857 1.15730
 Cu270 Cu 0.19164 0.34303 1.15726
 N271 N 0.17694 0.36190 1.18974
 N272 N 0.19027 0.36187 1.17700
 C273 C 0.20201 0.37630 1.18023
 C274 C 0.19579 0.38598 1.19590
 C275 C 0.17978 0.37638 1.20153
 H276 H 0.21423 0.37938 1.17179
 H277 H 0.17091 0.37958 1.21338
 N278 N 0.19055 0.32276 1.13849
 N279 N 0.17745 0.30966 1.13850
 C280 C 0.18050 0.29793 1.12403
 C281 C 0.19632 0.30388 1.11437
 C282 C 0.20228 0.31969 1.12400
 H283 H 0.17181 0.28595 1.12080
 H284 H 0.21427 0.32838 1.12074
 H285 H 0.17830 0.32193 1.17197
 H286 H 0.16330 0.33690 1.15659
 N287 N 0.13846 0.80981 0.67703
 N288 N 0.13866 0.82290 0.68998
 C289 C 0.12418 0.82005 0.70179
 C290 C 0.11434 0.80428 0.69597
 C291 C 0.12389 0.79820 0.68015
 H292 H 0.12111 0.82879 0.71377
 H293 H 0.12060 0.78619 0.67153
 Cu294 Cu 0.15808 0.84213 0.69021
 Cu295 Cu 0.15720 0.80859 0.65717
 Cu296 Cu 0.19166 0.84301 0.65715
 N297 N 0.17733 0.86153 0.68995
 N298 N 0.19043 0.86172 0.67699
 C299 C 0.20207 0.87626 0.68011
 C300 C 0.19600 0.88579 0.69592
 C301 C 0.18020 0.87598 0.70176
 H302 H 0.21411 0.87952 0.67149
 H303 H 0.17147 0.87905 0.71375
 N304 N 0.19049 0.82286 0.63828
 N305 N 0.17738 0.80977 0.63827
 C306 C 0.18042 0.79808 0.62377
 C307 C 0.19624 0.80405 0.61411
 C308 C 0.20220 0.81983 0.62378
 H309 H 0.17174 0.78609 0.62053
 H310 H 0.21422 0.82851 0.62055
 H311 H 0.17850 0.82173 0.67180
 H312 H 0.16326 0.83697 0.65687
 N313 N 0.36146 0.69052 0.67723
 N314 N 0.36128 0.67741 0.69018
 C315 C 0.37574 0.68030 0.70201
 C316 C 0.38555 0.69611 0.69619
 C317 C 0.37600 0.70217 0.68037
 H318 H 0.37884 0.67155 0.71397
 H319 H 0.37927 0.71419 0.67174
 Cu320 Cu 0.34203 0.65798 0.69030
 Cu321 Cu 0.34277 0.69170 0.65734
 Cu322 Cu 0.30836 0.65725 0.65729
 N323 N 0.32262 0.63870 0.69012
 N324 N 0.30953 0.63853 0.67716
 C325 C 0.29790 0.62397 0.68026
 C326 C 0.30395 0.61440 0.69607
 C327 C 0.31974 0.62422 0.70192
 H328 H 0.28589 0.62070 0.67160
 H329 H 0.32848 0.62111 0.71389
 N330 N 0.30955 0.67741 0.63838
 N331 N 0.32265 0.69051 0.63840
 C332 C 0.31962 0.70222 0.62390
 C333 C 0.30383 0.69625 0.61421
 C334 C 0.29787 0.68044 0.62386
 H335 H 0.32830 0.71423 0.62068
 H336 H 0.28587 0.67176 0.62061
 H337 H 0.32154 0.67846 0.67201
 H338 H 0.33675 0.66332 0.65698
 N339 N 0.36171 0.19013 1.17704
 N340 N 0.36127 0.17731 1.19027
 C341 C 0.37550 0.18043 1.20230
 C342 C 0.38545 0.19608 1.19631
 C343 C 0.37620 0.20184 1.18019
 H344 H 0.37843 0.17186 1.21444
 H345 H 0.37977 0.21353 1.17124
 Cu346 Cu 0.34205 0.15784 1.19028
 Cu347 Cu 0.34402 0.19005 1.15622
 Cu348 Cu 0.30829 0.15707 1.15736
 N349 N 0.32297 0.13828 1.18994
 N350 N 0.30975 0.13820 1.17709
 C351 C 0.29813 0.12365 1.18019
 C352 C 0.30431 0.11400 1.19591
 C353 C 0.32017 0.12374 1.20168
 H354 H 0.28603 0.12047 1.17164
 H355 H 0.32895 0.12061 1.21362
 N356 N 0.30952 0.17735 1.13857
 N357 N 0.32305 0.19000 1.13818
 C358 C 0.31996 0.20183 1.12378
 C359 C 0.30373 0.19634 1.11454
 C360 C 0.29753 0.18075 1.12439
 H361 H 0.32898 0.21350 1.12026
 H362 H 0.28524 0.17238 1.12144
 H363 H 0.32231 0.17824 1.17136
 H364 H 0.33658 0.16176 1.15680
 N365 N 0.86144 0.69024 1.17712
 N366 N 0.86130 0.67715 1.19008
 C367 C 0.87548 0.68036 1.20216
 C368 C 0.88509 0.69632 1.19645
 C369 C 0.87567 0.70219 1.18047
 H370 H 0.87864 0.67158 1.21409
 H371 H 0.87902 0.71410 1.17171
 Cu372 Cu 0.84289 0.65690 1.18976
 Cu373 Cu 0.84385 0.69007 1.15630
 Cu374 Cu 0.80818 0.65714 1.15750
 N375 N 0.82305 0.63808 1.18972
 N376 N 0.80957 0.63830 1.17716
 C377 C 0.79773 0.62396 1.18048
 C378 C 0.80404 0.61415 1.19603
 C379 C 0.82019 0.62358 1.20150
 H380 H 0.78542 0.62100 1.17215
 H381 H 0.82919 0.62023 1.21322
 N382 N 0.80937 0.67737 1.13869
 N383 N 0.82290 0.69001 1.13829
 C384 C 0.81983 0.70182 1.12388
 C385 C 0.80360 0.69633 1.11463
 C386 C 0.79739 0.68075 1.12450
 H387 H 0.82886 0.71348 1.12035
 H388 H 0.78510 0.67237 1.12154
 H389 H 0.82264 0.67779 1.17186
 H390 H 0.83648 0.66171 1.15644
 N391 N 0.86142 0.19023 0.67702
 N392 N 0.86128 0.17715 0.68999
 C393 C 0.87543 0.18037 0.70208
 C394 C 0.88505 0.19633 0.69638
 C395 C 0.87565 0.20219 0.68039
 H396 H 0.87858 0.17160 0.71402
 H397 H 0.87900 0.21409 0.67162
 Cu398 Cu 0.84288 0.15688 0.68966
 Cu399 Cu 0.84385 0.19003 0.65618
 Cu400 Cu 0.80821 0.15708 0.65737
 N401 N 0.82307 0.13804 0.68961
 N402 N 0.80959 0.13825 0.67704
 C403 C 0.79775 0.12392 0.68037
 C404 C 0.80405 0.11412 0.69593
 C405 C 0.82020 0.12356 0.70140
 H406 H 0.78544 0.12095 0.67203
 H407 H 0.82918 0.12022 0.71313
 N408 N 0.80940 0.17730 0.63856
 N409 N 0.82292 0.18994 0.63815
 C410 C 0.81985 0.20173 0.62372
 C411 C 0.80363 0.19621 0.61447
 C412 C 0.79742 0.18065 0.62436
 H413 H 0.82887 0.21339 0.62018
 H414 H 0.78514 0.17226 0.62140
 H415 H 0.82264 0.17776 0.67173
 H416 H 0.83651 0.16167 0.65633
 N417 N 0.30932 0.36142 0.67721
 N418 N 0.32227 0.36103 0.69032
 C419 C 0.31936 0.37545 0.70216
 C420 C 0.30370 0.38544 0.69621
 C421 C 0.29775 0.37605 0.68027
 H422 H 0.32796 0.37835 0.71427
 H423 H 0.28588 0.37952 0.67149
 Cu424 Cu 0.34153 0.34162 0.69055
 Cu425 Cu 0.30823 0.34282 0.65724
 Cu426 Cu 0.34272 0.30833 0.65727
 N427 N 0.36095 0.32234 0.69035
 N428 N 0.36132 0.30940 0.67724
 C429 C 0.37595 0.29782 0.68033
 C430 C 0.38535 0.30376 0.69627
 C431 C 0.37537 0.31942 0.70221
 H432 H 0.37941 0.28596 0.67155
 H433 H 0.37828 0.32802 0.71431
 N434 N 0.32267 0.30966 0.63826
 N435 N 0.30955 0.32277 0.63825
 C436 C 0.29787 0.31976 0.62373
 C437 C 0.30385 0.30396 0.61408
 C438 C 0.31966 0.29797 0.62376
 H439 H 0.28582 0.32842 0.62052
 H440 H 0.32833 0.28594 0.62056
 H441 H 0.32127 0.32140 0.67180
 H442 H 0.33661 0.33670 0.65710
 N443 N 0.30966 0.86176 0.17684
 N444 N 0.32278 0.86157 0.18977
 C445 C 0.31991 0.87604 0.20158
 C446 C 0.30410 0.88586 0.19575
 C447 C 0.29802 0.87632 0.17996
 H448 H 0.32866 0.87911 0.21354
 H449 H 0.28598 0.87960 0.17133
 Cu450 Cu 0.34219 0.84229 0.18996
 Cu451 Cu 0.30847 0.84304 0.15701
 Cu452 Cu 0.34292 0.80855 0.15707
 N453 N 0.36144 0.82286 0.18985
 N454 N 0.36162 0.80973 0.17694
 C455 C 0.37616 0.79807 0.18009
 C456 C 0.38570 0.80414 0.19590
 C457 C 0.37590 0.81997 0.20169
 H458 H 0.37944 0.78603 0.17149
 H459 H 0.37898 0.82873 0.21364
 N460 N 0.32279 0.80976 0.13817
 N461 N 0.30968 0.82287 0.13814
 C462 C 0.29797 0.81983 0.12364
 C463 C 0.30396 0.80401 0.11402
 C464 C 0.31976 0.79804 0.12369
 H465 H 0.28596 0.82852 0.12039
 H466 H 0.32846 0.78602 0.12050
 H467 H 0.32170 0.82183 0.17176
 H468 H 0.33688 0.83695 0.15667
 N469 N 0.80956 0.36171 0.17695
 N470 N 0.82271 0.36155 0.18985
 C471 C 0.81982 0.37598 0.20169
 C472 C 0.80397 0.38578 0.19592
 C473 C 0.79788 0.37624 0.18012
 H474 H 0.82861 0.37908 0.21362
 H475 H 0.78583 0.37952 0.17152
 Cu476 Cu 0.84230 0.34245 0.18984
 Cu477 Cu 0.80840 0.34304 0.15707
 Cu478 Cu 0.84285 0.30855 0.15711
 N479 N 0.86137 0.32283 0.18990
 N480 N 0.86152 0.30968 0.17701
 C481 C 0.87603 0.29798 0.18019
 C482 C 0.88558 0.30406 0.19599
 C483 C 0.87580 0.31992 0.20175
 H484 H 0.87929 0.28594 0.17159
 H485 H 0.87892 0.32870 0.21367
 N486 N 0.82273 0.30980 0.13817
 N487 N 0.80962 0.32291 0.13816
 C488 C 0.79791 0.31989 0.12366
 C489 C 0.80389 0.30407 0.11401
 C490 C 0.81970 0.29810 0.12368
 H491 H 0.78589 0.32857 0.12043
 H492 H 0.82838 0.28607 0.12047
 H493 H 0.82172 0.32191 0.17185
 H494 H 0.83680 0.33694 0.15658
 N495 N 0.80949 0.86188 0.67708
 N496 N 0.82265 0.86172 0.68998
 C497 C 0.81976 0.87617 0.70181
 C498 C 0.80390 0.88597 0.69603
 C499 C 0.79781 0.87641 0.68024
 H500 H 0.82855 0.87928 0.71373
 H501 H 0.78576 0.87968 0.67164
 Cu502 Cu 0.84225 0.84261 0.68996
 Cu503 Cu 0.80835 0.84318 0.65720
 Cu504 Cu 0.84281 0.80870 0.65723
 N505 N 0.86134 0.82299 0.69001
 N506 N 0.86148 0.80984 0.67712
 C507 C 0.87600 0.79814 0.68029
 C508 C 0.88556 0.80422 0.69608
 C509 C 0.87579 0.82008 0.70185
 H510 H 0.87926 0.78610 0.67169
 H511 H 0.87892 0.82886 0.71377
 N512 N 0.82269 0.80993 0.63831
 N513 N 0.80957 0.82304 0.63829
 C514 C 0.79786 0.82000 0.62379
 C515 C 0.80385 0.80417 0.61416
 C516 C 0.81966 0.79822 0.62383
 H517 H 0.78583 0.82867 0.62055
 H518 H 0.82835 0.78619 0.62063
 H519 H 0.82170 0.82204 0.67197
 H520 H 0.83677 0.83707 0.65670
 N521 N 0.69024 0.63823 0.67706
 N522 N 0.67718 0.63845 0.69007
 C523 C 0.68033 0.62425 0.70213
 C524 C 0.69625 0.61453 0.69637
 C525 C 0.70212 0.62390 0.68037
 H526 H 0.67163 0.62119 0.71414
 H527 H 0.71403 0.62053 0.67161
 Cu528 Cu 0.65757 0.65757 0.68974
 Cu529 Cu 0.69025 0.65599 0.65626
 Cu530 Cu 0.65717 0.69179 0.65746
 N531 N 0.63809 0.67680 0.68978
 N532 N 0.63821 0.69025 0.67716
 C533 C 0.62379 0.70202 0.68046
 C534 C 0.61403 0.69572 0.69605
 C535 C 0.62357 0.67962 0.70157
 H536 H 0.62079 0.71432 0.67212
 H537 H 0.62032 0.67069 0.71336
 N538 N 0.67755 0.69059 0.63870
 N539 N 0.69022 0.67705 0.63830
 C540 C 0.70205 0.68013 0.62389
 C541 C 0.69653 0.69636 0.61464
 C542 C 0.68094 0.70258 0.62451
 H543 H 0.71371 0.67109 0.62034
 H544 H 0.67253 0.71486 0.62154
 H545 H 0.67826 0.67753 0.67145
 H546 H 0.66203 0.66359 0.65641
 N547 N 0.69057 0.13802 0.17692
 N548 N 0.67746 0.13822 0.18987
 C549 C 0.68031 0.12372 0.20166
 C550 C 0.69610 0.11387 0.19582
 C551 C 0.70219 0.12343 0.18002
 H552 H 0.67157 0.12064 0.21364
 H553 H 0.71423 0.12015 0.17139
 Cu554 Cu 0.65820 0.15766 0.19017
 Cu555 Cu 0.69181 0.15680 0.15711
 Cu556 Cu 0.65733 0.19128 0.15717
 N557 N 0.63878 0.17693 0.18994
 N558 N 0.63858 0.19004 0.17700
 C559 C 0.62400 0.20167 0.18012
 C560 C 0.61444 0.19558 0.19592
 C561 C 0.62428 0.17978 0.20174
 H562 H 0.62072 0.21371 0.17150
 H563 H 0.62121 0.17103 0.21372
 N564 N 0.67752 0.19013 0.13829
 N565 N 0.69064 0.17702 0.13827
 C566 C 0.70235 0.18009 0.12377
 C567 C 0.69637 0.19592 0.11415
 C568 C 0.68055 0.20187 0.12382
 H569 H 0.71437 0.17141 0.12052
 H570 H 0.67185 0.21388 0.12062
 H571 H 0.67864 0.17806 0.17179
 H572 H 0.66341 0.16289 0.15684
 N573 N 0.19013 0.63822 0.17671
 N574 N 0.17680 0.63821 0.18944
 C575 C 0.17962 0.62372 0.20124
 C576 C 0.19564 0.61408 0.19563
 C577 C 0.20187 0.62377 0.17996
 H578 H 0.17075 0.62052 0.21308
 H579 H 0.21410 0.62067 0.17154
 Cu580 Cu 0.15747 0.65757 0.18944
 Cu581 Cu 0.19152 0.65710 0.15697
 Cu582 Cu 0.15704 0.69164 0.15700
 N583 N 0.13815 0.67695 0.18948
 N584 N 0.13817 0.69029 0.17676
 C585 C 0.12373 0.70205 0.18003
 C586 C 0.11404 0.69582 0.19570
 C587 C 0.12366 0.67979 0.20129
 H588 H 0.12065 0.71427 0.17161
 H589 H 0.12045 0.67091 0.21313
 N590 N 0.17734 0.69053 0.13820
 N591 N 0.19045 0.67740 0.13820
 C592 C 0.20219 0.68046 0.12372
 C593 C 0.19624 0.69629 0.11408
 C594 C 0.18042 0.70226 0.12373
 H595 H 0.21418 0.67174 0.12047
 H596 H 0.17172 0.71427 0.12048
 H597 H 0.17816 0.67822 0.17168
 H598 H 0.16318 0.66330 0.15628
 N599 N 0.19030 0.13805 0.67715
 N600 N 0.17718 0.13823 0.69009
 C601 C 0.18005 0.12374 0.70190
 C602 C 0.19587 0.11391 0.69607
 C603 C 0.20194 0.12348 0.68027
 H604 H 0.17130 0.12064 0.71386
 H605 H 0.21397 0.12020 0.67164
 Cu606 Cu 0.15775 0.15753 0.69026
 Cu607 Cu 0.19148 0.15680 0.65730
 Cu608 Cu 0.15703 0.19128 0.65733
 N609 N 0.13848 0.17698 0.69012
 N610 N 0.13831 0.19010 0.67719
 C611 C 0.12376 0.20177 0.68031
 C612 C 0.11419 0.19571 0.69612
 C613 C 0.12399 0.17988 0.70194
 H614 H 0.12049 0.21379 0.67168
 H615 H 0.12088 0.17113 0.71390
 N616 N 0.17719 0.19009 0.63843
 N617 N 0.19030 0.17698 0.63841
 C618 C 0.20201 0.18003 0.62391
 C619 C 0.19603 0.19586 0.61427
 C620 C 0.18022 0.20182 0.62394
 H621 H 0.21403 0.17135 0.62066
 H622 H 0.17153 0.21384 0.62073
 H623 H 0.17824 0.17802 0.67202
 H624 H 0.16308 0.16291 0.65695
 N625 N 0.30955 0.63839 0.32280
 N626 N 0.32265 0.63858 0.30985
 C627 C 0.31980 0.62411 0.29806
 C628 C 0.30401 0.61428 0.30390
 C629 C 0.29793 0.62383 0.31971
 H630 H 0.32854 0.62103 0.28608
 H631 H 0.28590 0.62055 0.32834
 Cu632 Cu 0.34191 0.65799 0.30958
 Cu633 Cu 0.30830 0.65711 0.34264
 Cu634 Cu 0.34276 0.69152 0.34262
 N635 N 0.36133 0.67722 0.30984
 N636 N 0.36151 0.69030 0.32279
 C637 C 0.37609 0.70192 0.31970
 C638 C 0.38566 0.69586 0.30389
 C639 C 0.37583 0.68008 0.29804
 H640 H 0.37935 0.71392 0.32834
 H641 H 0.37892 0.67136 0.28606
 N642 N 0.32258 0.69036 0.36150
 N643 N 0.30947 0.67727 0.36151
 C644 C 0.29776 0.68032 0.37601
 C645 C 0.30373 0.69612 0.38566
 C646 C 0.31954 0.70207 0.37599
 H647 H 0.28574 0.67165 0.37925
 H648 H 0.32823 0.71407 0.37921
 H649 H 0.32146 0.67837 0.32799
 H650 H 0.33669 0.66314 0.34292
 N651 N 0.30962 0.13807 0.82309
 N652 N 0.32294 0.13807 0.81035
 C653 C 0.32010 0.12359 0.79854
 C654 C 0.30411 0.11397 0.80417
 C655 C 0.29788 0.12364 0.81985
 H656 H 0.32898 0.12040 0.78670
 H657 H 0.28568 0.12054 0.82829
 Cu658 Cu 0.34228 0.15738 0.81038
 Cu659 Cu 0.30825 0.15688 0.84288
 Cu660 Cu 0.34273 0.19135 0.84285
 N661 N 0.36160 0.17672 0.81033
 N662 N 0.36157 0.19002 0.82307
 C663 C 0.37600 0.20177 0.81981
 C664 C 0.38570 0.19557 0.80413
 C665 C 0.37608 0.17957 0.79852
 H666 H 0.37909 0.21396 0.82825
 H667 H 0.37929 0.17071 0.78667
 N668 N 0.32247 0.19022 0.86167
 N669 N 0.30936 0.17712 0.86168
 C670 C 0.29765 0.18016 0.87618
 C671 C 0.30361 0.19596 0.88583
 C672 C 0.31942 0.20193 0.87616
 H673 H 0.28566 0.17146 0.87944
 H674 H 0.32811 0.21391 0.87941
 H675 H 0.32157 0.17799 0.82818
 H676 H 0.33658 0.16301 0.84354
 N677 N 0.80975 0.63834 0.82306
 N678 N 0.82283 0.63856 0.81008
 C679 C 0.81999 0.62406 0.79830
 C680 C 0.80423 0.61420 0.80418
 C681 C 0.79816 0.62374 0.81999
 H682 H 0.82871 0.62100 0.78630
 H683 H 0.78617 0.62044 0.82866
 Cu684 Cu 0.84206 0.65801 0.80978
 Cu685 Cu 0.80852 0.65708 0.84290
 Cu686 Cu 0.84293 0.69155 0.84285
 N687 N 0.86147 0.67728 0.81003
 N688 N 0.86166 0.69035 0.82300
 C689 C 0.87623 0.70198 0.81991
 C690 C 0.88579 0.69594 0.80409
 C691 C 0.87596 0.68016 0.79823
 H692 H 0.87950 0.71398 0.82855
 H693 H 0.87905 0.67145 0.78624
 N694 N 0.82276 0.69036 0.86175
 N695 N 0.80967 0.67725 0.86177
 C696 C 0.79796 0.68029 0.87628
 C697 C 0.80392 0.69611 0.88591
 C698 C 0.81972 0.70207 0.87623
 H699 H 0.78596 0.67161 0.87953
 H700 H 0.82839 0.71408 0.87945
 H701 H 0.82165 0.67838 0.82823
 H702 H 0.83693 0.66317 0.84313
 N703 N 0.80975 0.13818 0.32291
 N704 N 0.82286 0.13836 0.30997
 C705 C 0.82000 0.12390 0.29816
 C706 C 0.80420 0.11409 0.30400
 C707 C 0.79811 0.12364 0.31980
 H708 H 0.82875 0.12081 0.28619
 H709 H 0.78609 0.12036 0.32844
 Cu710 Cu 0.84226 0.15763 0.30977
 Cu711 Cu 0.80853 0.15687 0.34276
 Cu712 Cu 0.84290 0.19134 0.34271
 N713 N 0.86148 0.17708 0.30991
 N714 N 0.86162 0.19019 0.32284
 C715 C 0.87613 0.20186 0.31970
 C716 C 0.88570 0.19581 0.30389
 C717 C 0.87594 0.17999 0.29809
 H718 H 0.87937 0.21389 0.32832
 H719 H 0.87905 0.17125 0.28613
 N720 N 0.82277 0.19012 0.36163
 N721 N 0.80969 0.17701 0.36165
 C722 C 0.79798 0.18002 0.37616
 C723 C 0.80392 0.19583 0.38581
 C724 C 0.81972 0.20182 0.37613
 H725 H 0.78599 0.17133 0.37940
 H726 H 0.82838 0.21383 0.37935
 H727 H 0.82171 0.17806 0.32801
 H728 H 0.83692 0.16293 0.34308
 N729 N 0.69041 0.36157 0.32288
 N730 N 0.67730 0.36139 0.30993
 C731 C 0.68015 0.37589 0.29814
 C732 C 0.69594 0.38570 0.30398
 C733 C 0.70203 0.37613 0.31978
 H734 H 0.67141 0.37898 0.28617
 H735 H 0.71405 0.37939 0.32841
 Cu736 Cu 0.65805 0.34198 0.30968
 Cu737 Cu 0.69165 0.34284 0.34272
 Cu738 Cu 0.65723 0.30838 0.34269
 N739 N 0.63865 0.32272 0.30990
 N740 N 0.63849 0.30961 0.32285
 C741 C 0.62394 0.29797 0.31973
 C742 C 0.61437 0.30404 0.30393
 C743 C 0.62417 0.31985 0.29810
 H744 H 0.62069 0.28594 0.32835
 H745 H 0.62107 0.32860 0.28613
 N746 N 0.67739 0.30956 0.36158
 N747 N 0.69049 0.32266 0.36159
 C748 C 0.70220 0.31962 0.37609
 C749 C 0.69624 0.30381 0.38574
 C750 C 0.68044 0.29784 0.37608
 H751 H 0.71420 0.32830 0.37933
 H752 H 0.67177 0.28583 0.37930
 H753 H 0.67852 0.32159 0.32806
 H754 H 0.66328 0.33678 0.34301
 N755 N 0.69038 0.86173 0.82304
 N756 N 0.67729 0.86153 0.81007
 C757 C 0.68016 0.87601 0.79827
 C758 C 0.69593 0.88584 0.80412
 C759 C 0.70200 0.87629 0.81994
 H760 H 0.67143 0.87909 0.78628
 H761 H 0.71401 0.87958 0.82859
 Cu762 Cu 0.65803 0.84214 0.80983
 Cu763 Cu 0.69160 0.84303 0.84290
 Cu764 Cu 0.65713 0.80863 0.84294
 N765 N 0.63858 0.82292 0.81012
 N766 N 0.63837 0.80985 0.82310
 C767 C 0.62379 0.79825 0.82003
 C768 C 0.61423 0.80431 0.80420
 C769 C 0.62408 0.82007 0.79833
 H770 H 0.62050 0.78626 0.82869
 H771 H 0.62101 0.82878 0.78633
 N772 N 0.67731 0.80980 0.86182
 N773 N 0.69042 0.82289 0.86180
 C774 C 0.70214 0.81985 0.87629
 C775 C 0.69618 0.80406 0.88597
 C776 C 0.68036 0.79810 0.87633
 H777 H 0.71415 0.82853 0.87951
 H778 H 0.67167 0.78611 0.87958
 H779 H 0.67846 0.82177 0.82828
 H780 H 0.66322 0.83703 0.84317
 N781 N 0.19025 0.36153 0.82293
 N782 N 0.17713 0.36137 0.80999
 C783 C 0.18002 0.37584 0.79817
 C784 C 0.19583 0.38563 0.80399
 C785 C 0.20190 0.37606 0.81980
 H786 H 0.17126 0.37895 0.78621
 H787 H 0.21392 0.37933 0.82843
 Cu788 Cu 0.15770 0.34211 0.80984
 Cu789 Cu 0.19142 0.34282 0.84280
 Cu790 Cu 0.15698 0.30840 0.84282
 N791 N 0.13843 0.32270 0.81000
 N792 N 0.13826 0.30959 0.82295
 C793 C 0.12372 0.29794 0.81983
 C794 C 0.11415 0.30401 0.80402
 C795 C 0.12396 0.31982 0.79819
 H796 H 0.12046 0.28592 0.82847
 H797 H 0.12085 0.32856 0.78622
 N798 N 0.17712 0.30960 0.86173
 N799 N 0.19022 0.32269 0.86172
 C800 C 0.20193 0.31965 0.87623
 C801 C 0.19596 0.30385 0.88590
 C802 C 0.18015 0.29789 0.87624
 H803 H 0.21394 0.32832 0.87945
 H804 H 0.17147 0.28589 0.87947
 H805 H 0.17818 0.32162 0.82810
 H806 H 0.16301 0.33678 0.84316
 N807 N 0.19040 0.86151 0.32266
 N808 N 0.17704 0.86165 0.30998
 C809 C 0.17969 0.87639 0.29845
 C810 C 0.19563 0.88603 0.30418
 C811 C 0.20199 0.87612 0.31966
 H812 H 0.17077 0.87969 0.28666
 H813 H 0.21430 0.87905 0.32801
 Cu814 Cu 0.15773 0.84226 0.30957
 Cu815 Cu 0.19245 0.84166 0.34127
 Cu816 Cu 0.15689 0.80859 0.34272
 N817 N 0.13866 0.82267 0.30960
 N818 N 0.13836 0.80967 0.32266
 C819 C 0.12381 0.79805 0.31954
 C820 C 0.11436 0.80402 0.30362
 C821 C 0.12425 0.81974 0.29772
 H822 H 0.12043 0.78613 0.32826
 H823 H 0.12121 0.82844 0.28570
 N824 N 0.17706 0.80992 0.36164
 N825 N 0.19057 0.82259 0.36116
 C826 C 0.20223 0.81969 0.37573
 C827 C 0.19586 0.80436 0.38588
 C828 C 0.17982 0.79859 0.37648
 H829 H 0.21454 0.82806 0.37860
 H830 H 0.17086 0.78689 0.38005
 H831 H 0.17771 0.82070 0.32722
 H832 H 0.16388 0.83677 0.34263
 C833 C 0.25709 1.01709 0.24315
 C834 C 0.24286 1.01710 0.25686
 C835 C 0.23587 1.00002 0.26362
 C836 C 0.24289 0.98293 0.25685
 C837 C 0.25709 0.98293 0.24312
 C838 C 0.26409 1.00001 0.23637
 H839 H 0.27503 1.00002 0.22578
 H840 H 0.22492 1.00001 0.27420
 C841 C 0.25701 0.51708 0.74311
 C842 C 0.24279 0.51709 0.75684
 C843 C 0.23580 0.50001 0.76362
 C844 C 0.24280 0.48290 0.75688
 C845 C 0.25702 0.48290 0.74316
 C846 C 0.26401 0.49998 0.73637
 H847 H 0.27495 0.49997 0.72578
 H848 H 0.22486 0.50002 0.77421
 C849 C 0.75740 -0.01735 0.25711
 C850 C 0.74319 -0.01736 0.24339
 C851 C 0.73621 -0.00027 0.23658
 C852 C 0.74321 0.01682 0.24329
 C853 C 0.75741 0.01683 0.25702
 C854 C 0.76440 -0.00026 0.26383
 H855 H 0.77534 -0.00025 0.27443
 H856 H 0.72527 -0.00029 0.22598
 C857 C 0.75727 0.48279 0.75701
 C858 C 0.74305 0.48281 0.74329
 C859 C 0.73606 0.49992 0.73653
 C860 C 0.74306 0.51701 0.74329
 C861 C 0.75727 0.51699 0.75702
 C862 C 0.76426 0.49988 0.76378
 H863 H 0.77519 0.49987 0.77437
 H864 H 0.72512 0.49994 0.72594
 C865 C 0.25715 0.48292 0.25681
 C866 C 0.24292 0.48295 0.24312
 C867 C 0.23591 0.50004 0.23636
 C868 C 0.24290 0.51712 0.24311
 C869 C 0.25713 0.51711 0.25682
 C870 C 0.26415 0.50001 0.26357
 H871 H 0.27510 0.49999 0.27415
 H872 H 0.22496 0.50005 0.22579
 C873 C 0.75680 1.01735 0.74343
 C874 C 0.74262 1.01734 0.75719
 C875 C 0.73567 1.00023 0.76394
 C876 C 0.74268 0.98315 0.75712
 C877 C 0.75687 0.98317 0.74336
 C878 C 0.76381 1.00028 0.73661
 H879 H 0.77472 1.00030 0.72599
 H880 H 0.72475 1.00020 0.77455
 C881 C 0.75702 0.51710 0.24323
 C882 C 0.74281 0.51710 0.25696
 C883 C 0.73583 0.50001 0.26373
 C884 C 0.74284 0.48293 0.25695
 C885 C 0.75705 0.48293 0.24321
 C886 C 0.76403 0.50002 0.23645
 H887 H 0.77496 0.50003 0.22585
 H888 H 0.72490 0.50001 0.27432
 C889 C 0.25747 -0.01747 0.75712
 C890 C 0.24323 -0.01747 0.74342
 C891 C 0.23616 -0.00039 0.73666
 C892 C 0.24311 0.01672 0.74338
 C893 C 0.25735 0.01674 0.75709
 C894 C 0.26442 -0.00035 0.76386
 H895 H 0.27537 -0.00032 0.77443
 H896 H 0.22520 -0.00042 0.72609
 C897 C 0.24301 0.25699 1.01712
 C898 C 0.25697 0.24294 1.01714
 C899 C 0.26380 0.23597 1.00010
 C900 C 0.25689 0.24285 0.98306
 C901 C 0.24294 0.25691 0.98305
 C902 C 0.23610 0.26387 1.00008
 H903 H 0.22536 0.27469 1.00008
 H904 H 0.27454 0.22515 1.00011
 C905 C 0.24312 0.75725 0.51691
 C906 C 0.25706 0.74318 0.51692
 C907 C 0.26390 0.73624 0.49988
 C908 C 0.25702 0.74316 0.48283
 C909 C 0.24310 0.75724 0.48283
 C910 C 0.23625 0.76417 0.49987
 H911 H 0.22551 0.77501 0.49987
 H912 H 0.27464 0.72540 0.49988
 C913 C 0.25731 0.75707 -0.01721
 C914 C 0.24331 0.74310 -0.01721
 C915 C 0.23638 0.73621 -0.00018
 C916 C 0.24324 0.74309 0.01687
 C917 C 0.25725 0.75705 0.01688
 C918 C 0.26418 0.76394 -0.00016
 H919 H 0.27497 0.77470 -0.00014
 H920 H 0.22559 0.72545 -0.00020
 C921 C 0.25693 0.25693 0.48306
 C922 C 0.24294 0.24294 0.48305
 C923 C 0.23603 0.23604 0.50008
 C924 C 0.24290 0.24292 0.51713
 C925 C 0.25688 0.25690 0.51714
 C926 C 0.26379 0.26380 0.50011
 H927 H 0.27457 0.27458 0.50012
 H928 H 0.22525 0.22526 0.50007
 C929 C 0.74311 0.75708 1.01717
 C930 C 0.75706 0.74302 1.01717
 C931 C 0.76393 0.73610 1.00013
 C932 C 0.75707 0.74304 0.98309
 C933 C 0.74313 0.75710 0.98309
 C934 C 0.73625 0.76401 1.00013
 H935 H 0.72551 0.77485 1.00013
 H936 H 0.77467 0.72527 1.00014
 C937 C 0.74297 0.25680 0.51702
 C938 C 0.75693 0.24276 0.51703
 C939 C 0.76381 0.23584 0.49999
 C940 C 0.75695 0.24275 0.48295
 C941 C 0.74300 0.25681 0.48294
 C942 C 0.73611 0.26372 0.49997
 H943 H 0.72536 0.27455 0.49996
 H944 H 0.77456 0.22501 0.50001
 C945 C 0.75684 0.25720 -0.01713
 C946 C 0.74293 0.24314 -0.01713
 C947 C 0.73610 0.23618 -0.00009
 C948 C 0.74299 0.24306 0.01695
 C949 C 0.75691 0.25712 0.01695
 C950 C 0.76373 0.26408 -0.00009
 H951 H 0.77446 0.27490 -0.00009
 H952 H 0.72538 0.22536 -0.00009
 C953 C 0.75689 0.75717 0.48305
 C954 C 0.74295 0.74314 0.48307
 C955 C 0.73611 0.73620 0.50011
 C956 C 0.74300 0.74307 0.51715
 C957 C 0.75694 0.75710 0.51714
 C958 C 0.76378 0.76404 0.50009
 H959 H 0.77452 0.77485 0.50009
 H960 H 0.72536 0.72539 0.50011
 C961 C 1.01711 0.24302 0.25689
 C962 C 1.01710 0.25729 0.24323
 C963 C 0.99999 0.26428 0.23647
 C964 C 0.98289 0.25721 0.24318
 C965 C 0.98291 0.24295 0.25684
 C966 C 1.00002 0.23596 0.26360
 H967 H 1.00004 0.22498 0.27414
 H968 H 0.99997 0.27526 0.22593
 C969 C 0.51705 0.24276 0.75699
 C970 C 0.51706 0.25699 0.74328
 C971 C 0.49996 0.26399 0.73650
 C972 C 0.48285 0.25698 0.74323
 C973 C 0.48283 0.24274 0.75692
 C974 C 0.49994 0.23574 0.76371
 H975 H 0.49993 0.22479 0.77428
 H976 H 0.49996 0.27494 0.72593
 C977 C -0.01734 0.25717 0.75682
 C978 C -0.01733 0.24292 0.74315
 C979 C -0.00022 0.23586 0.73644
 C980 C 0.01689 0.24284 0.74320
 C981 C 0.01688 0.25708 0.75689
 C982 C -0.00023 0.26413 0.76359
 H983 H -0.00024 0.27509 0.77415
 H984 H -0.00021 0.22490 0.72590
 C985 C 0.48300 0.25685 0.25684
 C986 C 0.48303 0.24261 0.24317
 C987 C 0.50015 0.23560 0.23645
 C988 C 0.51724 0.24263 0.24319
 C989 C 0.51721 0.25689 0.25685
 C990 C 0.50009 0.26388 0.26359
 H991 H 0.50006 0.27485 0.27414
 H992 H 0.50018 0.22464 0.22590
 C993 C 1.01713 0.74314 0.75693
 C994 C 1.01712 0.75737 0.74322
 C995 C 1.00001 0.76436 0.73646
 C996 C 0.98291 0.75734 0.74321
 C997 C 0.98292 0.74312 0.75692
 C998 C 1.00004 0.73613 0.76368
 H999 H 1.00005 0.72518 0.77426
 H1000 H 1.00000 0.77530 0.72588
 C1001 C 0.51709 0.74303 0.25695
 C1002 C 0.51709 0.75730 0.24330
 C1003 C 0.49998 0.76429 0.23653
 C1004 C 0.48289 0.75722 0.24322
 C1005 C 0.48289 0.74296 0.25689
 C1006 C 0.50000 0.73597 0.26366
 H1007 H 0.50001 0.72499 0.27421
 H1008 H 0.49998 0.77527 0.22599
 C1009 C -0.01729 0.75725 0.25675
 C1010 C -0.01727 0.74299 0.24309
 C1011 C -0.00015 0.73598 0.23636
 C1012 C 0.01695 0.74300 0.24310
 C1013 C 0.01692 0.75726 0.25676
 C1014 C -0.00020 0.76428 0.26348
 H1015 H -0.00022 0.77525 0.27402
 H1016 H -0.00013 0.72501 0.22582
 C1017 C 0.48274 0.75733 0.75704
 C1018 C 0.48279 0.74309 0.74336
 C1019 C 0.49993 0.73607 0.73667
 C1020 C 0.51701 0.74307 0.74346
 C1021 C 0.51696 0.75732 0.75714
 C1022 C 0.49983 0.76433 0.76383
 H1023 H 0.49979 0.77528 0.77439
 H1024 H 0.49997 0.72511 0.72612
 C1025 C 0.43476 0.27904 0.27872
 C1026 C 0.42685 0.29529 0.27102
 C1027 C 0.41092 0.30339 0.27918
 C1028 C 0.40265 0.29535 0.29522
 C1029 C 0.41073 0.27893 0.30276
 C1030 C 0.42665 0.27087 0.29457
 C1031 C 0.45150 0.27104 0.27069
 C1032 C 0.46572 0.26447 0.26423
 H1033 H 0.43307 0.30178 0.25877
 H1034 H 0.40521 0.31598 0.27290
 H1035 H 0.40489 0.27225 0.31505
 H1036 H 0.43271 0.25831 0.30069
 C1037 C 0.43451 0.77962 0.77888
 C1038 C 0.42667 0.79591 0.77123
 C1039 C 0.41076 0.80407 0.77940
 C1040 C 0.40238 0.79606 0.79545
 C1041 C 0.41046 0.77953 0.80291
 C1042 C 0.42635 0.77144 0.79469
 C1043 C 0.45123 0.77157 0.77084
 C1044 C 0.46545 0.76497 0.76440
 H1045 H 0.43292 0.80240 0.75900
 H1046 H 0.40523 0.81669 0.77304
 H1047 H 0.40471 0.77273 0.81516
 H1048 H 0.43236 0.75885 0.80078
 C1049 C -0.06554 0.27950 0.77866
 C1050 C -0.07351 0.27149 0.79467
 C1051 C -0.08948 0.27952 0.80280
 C1052 C -0.09775 0.29573 0.79503
 C1053 C -0.08960 0.30364 0.77887
 C1054 C -0.07362 0.29557 0.77077
 C1055 C -0.04881 0.27146 0.77063
 C1056 C -0.03460 0.26485 0.76418
 H1057 H -0.06731 0.25908 0.80095
 H1058 H -0.09522 0.27297 0.81520
 H1059 H -0.09545 0.31609 0.77244
 H1060 H -0.06751 0.30194 0.75840
 C1061 C -0.06551 0.77942 0.27869
 C1062 C -0.07363 0.79547 0.27079
 C1063 C -0.08963 0.80349 0.27889
 C1064 C -0.09776 0.79557 0.29505
 C1065 C -0.08945 0.77938 0.30283
 C1066 C -0.07345 0.77140 0.29470
 C1067 C -0.04877 0.77143 0.27064
 C1068 C -0.03456 0.76486 0.26416
 H1069 H -0.06753 0.80184 0.25843
 H1070 H -0.09551 0.81592 0.27245
 H1071 H -0.09517 0.77282 0.31523
 H1072 H -0.06723 0.75901 0.30099
 C1073 C 0.56531 0.72087 0.27881
 C1074 C 0.57342 0.72906 0.29465
 C1075 C 0.58935 0.72102 0.30284
 C1076 C 0.59743 0.70461 0.29530
 C1077 C 0.58918 0.69655 0.27928
 C1078 C 0.57324 0.70463 0.27112
 C1079 C 0.54857 0.72885 0.27080
 C1080 C 0.53436 0.73541 0.26435
 H1081 H 0.56735 0.74161 0.30076
 H1082 H 0.59519 0.72771 0.31511
 H1083 H 0.59489 0.68397 0.27301
 H1084 H 0.56702 0.69814 0.25888
 C1085 C 0.56527 0.22059 0.77889
 C1086 C 0.57325 0.22860 0.79489
 C1087 C 0.58925 0.22059 0.80299
 C1088 C 0.59753 0.20439 0.79521
 C1089 C 0.58939 0.19650 0.77904
 C1090 C 0.57338 0.20455 0.77098
 C1091 C 0.54852 0.22858 0.77089
 C1092 C 0.53431 0.23514 0.76442
 H1093 H 0.56704 0.24098 0.80118
 H1094 H 0.59499 0.22714 0.81538
 H1095 H 0.59526 0.18409 0.77259
 H1096 H 0.56727 0.19820 0.75862
 C1097 C 1.06535 0.72098 0.77882
 C1098 C 1.07345 0.70492 0.77094
 C1099 C 1.08946 0.69689 0.77902
 C1100 C 1.09761 0.70482 0.79516
 C1101 C 1.08932 0.72103 0.80291
 C1102 C 1.07332 0.72902 0.79480
 C1103 C 1.04860 0.72896 0.77081
 C1104 C 1.03439 0.73552 0.76434
 H1105 H 1.06733 0.69853 0.75859
 H1106 H 1.09532 0.68445 0.77259
 H1107 H 1.09506 0.72760 0.81529
 H1108 H 1.06711 0.74141 0.80107
 C1109 C 1.06535 0.22090 0.27876
 C1110 C 1.07348 0.20487 0.27086
 C1111 C 1.08946 0.19682 0.27898
 C1112 C 1.09754 0.20471 0.29517
 C1113 C 1.08925 0.22091 0.30293
 C1114 C 1.07328 0.22892 0.29477
 C1115 C 1.04860 0.22887 0.27074
 C1116 C 1.03438 0.23541 0.26428
 H1117 H 1.06741 0.19851 0.25848
 H1118 H 1.09534 0.18439 0.27255
 H1119 H 1.09494 0.22746 0.31533
 H1120 H 1.06705 0.24131 0.30103
 C1121 C 0.56523 0.27922 0.72135
 C1122 C 0.57311 0.29547 0.72903
 C1123 C 0.58903 0.30358 0.72086
 C1124 C 0.59731 0.29554 0.70483
 C1125 C 0.58926 0.27912 0.69729
 C1126 C 0.57335 0.27106 0.70549
 C1127 C 0.54852 0.27119 0.72941
 C1128 C 0.53433 0.26461 0.73588
 H1129 H 0.56688 0.30195 0.74128
 H1130 H 0.59471 0.31616 0.72713
 H1131 H 0.59511 0.27246 0.68501
 H1132 H 0.56732 0.25851 0.69938
 C1133 C 0.56527 0.77950 0.22145
 C1134 C 0.57318 0.79573 0.22914
 C1135 C 0.58912 0.80380 0.22097
 C1136 C 0.59738 0.79573 0.20495
 C1137 C 0.58931 0.77933 0.19741
 C1138 C 0.57339 0.77131 0.20561
 C1139 C 0.54855 0.77152 0.22948
 C1140 C 0.53434 0.76495 0.23593
 H1141 H 0.56696 0.80223 0.24138
 H1142 H 0.59482 0.81638 0.22724
 H1143 H 0.59515 0.77264 0.18514
 H1144 H 0.56733 0.75877 0.19950
 C1145 C 1.06526 0.27954 0.22137
 C1146 C 1.07314 0.29580 0.22904
 C1147 C 1.08906 0.30388 0.22086
 C1148 C 1.09735 0.29580 0.20485
 C1149 C 1.08931 0.27938 0.19734
 C1150 C 1.07340 0.27134 0.20554
 C1151 C 1.04854 0.27154 0.22941
 C1152 C 1.03435 0.26496 0.23586
 H1153 H 1.06691 0.30230 0.24127
 H1154 H 1.09475 0.31648 0.22711
 H1155 H 1.09516 0.27268 0.18507
 H1156 H 1.06737 0.25878 0.19945
 C1157 C 1.06529 0.77951 0.72125
 C1158 C 1.07340 0.79556 0.72911
 C1159 C 1.08935 0.80361 0.72095
 C1160 C 1.09744 0.79571 0.70475
 C1161 C 1.08916 0.77950 0.69702
 C1162 C 1.07322 0.77150 0.70521
 C1163 C 1.04857 0.77154 0.72931
 C1164 C 1.03438 0.76498 0.73580
 H1165 H 1.06733 0.80193 0.74149
 H1166 H 1.09521 0.81604 0.72736
 H1167 H 1.09485 0.77295 0.68461
 H1168 H 1.06701 0.75910 0.69897
 C1169 C 0.43465 0.72091 0.72135
 C1170 C 0.42657 0.70485 0.72923
 C1171 C 0.41060 0.69680 0.72112
 C1172 C 0.40246 0.70470 0.70494
 C1173 C 0.41072 0.72092 0.69719
 C1174 C 0.42668 0.72893 0.70533
 C1175 C 0.45137 0.72891 0.72939
 C1176 C 0.46555 0.73547 0.73590
 H1177 H 0.43267 0.69848 0.74160
 H1178 H 0.40475 0.68436 0.72755
 H1179 H 0.40499 0.72748 0.68479
 H1180 H 0.43286 0.74133 0.69906
 C1181 C 0.43480 0.22056 0.22125
 C1182 C 0.42693 0.22852 0.20516
 C1183 C 0.41088 0.22063 0.19709
 C1184 C 0.40243 0.20459 0.20500
 C1185 C 0.41048 0.19673 0.22125
 C1186 C 0.42654 0.20467 0.22928
 C1187 C 0.45157 0.22848 0.22926
 C1188 C 0.46578 0.23500 0.23574
 H1189 H 0.43326 0.24079 0.19878
 H1190 H 0.40522 0.22714 0.18463
 H1191 H 0.40451 0.18441 0.22778
 H1192 H 0.43257 0.19833 0.24171
 C1193 C -0.06555 0.72089 0.22129
 C1194 C -0.07363 0.72900 0.20539
 C1195 C -0.08971 0.72110 0.19737
 C1196 C -0.09796 0.70489 0.20514
 C1197 C -0.08969 0.69688 0.22121
 C1198 C -0.07361 0.70483 0.22919
 C1199 C -0.04875 0.72882 0.22925
 C1200 C -0.03453 0.73537 0.23569
 H1201 H -0.06745 0.74140 0.19910
 H1202 H -0.09553 0.72772 0.18504
 H1203 H -0.09550 0.68443 0.22763
 H1204 H -0.06741 0.69837 0.24147
 C1205 C -0.06562 0.22089 0.72129
 C1206 C -0.07368 0.22901 0.70537
 C1207 C -0.08974 0.22111 0.69733
 C1208 C -0.09801 0.20490 0.70509
 C1209 C -0.08977 0.19689 0.72117
 C1210 C -0.07370 0.20483 0.72918
 C1211 C -0.04883 0.22881 0.72927
 C1212 C -0.03460 0.23533 0.73573
 H1213 H -0.06748 0.24140 0.69909
 H1214 H -0.09554 0.22772 0.68499
 H1215 H -0.09560 0.18444 0.72759
 H1216 H -0.06752 0.19838 0.74147
 C1217 C 0.27925 0.43466 0.27866
 C1218 C 0.27102 0.42653 0.29448
 C1219 C 0.27902 0.41057 0.30264
 C1220 C 0.29544 0.40247 0.29510
 C1221 C 0.30353 0.41074 0.27909
 C1222 C 0.29549 0.42671 0.27096
 C1223 C 0.27130 0.45143 0.27066
 C1224 C 0.26477 0.46566 0.26421
 H1225 H 0.25847 0.43261 0.30059
 H1226 H 0.27230 0.40472 0.31490
 H1227 H 0.31612 0.40501 0.27281
 H1228 H 0.30201 0.43293 0.25873
 C1229 C 0.27962 -0.06587 0.77883
 C1230 C 0.27150 -0.07398 0.79471
 C1231 C 0.27943 -0.09005 0.80275
 C1232 C 0.29573 -0.09837 0.79506
 C1233 C 0.30368 -0.09005 0.77894
 C1234 C 0.29569 -0.07396 0.77095
 C1235 C 0.27169 -0.04901 0.77091
 C1236 C 0.26514 -0.03475 0.76451
 H1237 H 0.25907 -0.06781 0.80096
 H1238 H 0.27267 -0.09576 0.81505
 H1239 H 0.31614 -0.09574 0.77241
 H1240 H 0.30214 -0.06776 0.75867
 C1241 C 0.77941 0.43462 0.77903
 C1242 C 0.77138 0.42671 0.79504
 C1243 C 0.77933 0.41072 0.80321
 C1244 C 0.79556 0.40230 0.79548
 C1245 C 0.80346 0.41047 0.77927
 C1246 C 0.79545 0.42647 0.77116
 C1247 C 0.77144 0.45135 0.77096
 C1248 C 0.76488 0.46554 0.76445
 H1249 H 0.75899 0.43297 0.80130
 H1250 H 0.77264 0.40516 0.81560
 H1251 H 0.81588 0.40470 0.77272
 H1252 H 0.80184 0.43254 0.75879
 C1253 C 0.77942 -0.06561 0.27907
 C1254 C 0.79542 -0.07379 0.27116
 C1255 C 0.80337 -0.08985 0.27921
 C1256 C 0.79545 -0.09804 0.29541
 C1257 C 0.77923 -0.08960 0.30315
 C1258 C 0.77134 -0.07355 0.29504
 C1259 C 0.77151 -0.04883 0.27105
 C1260 C 0.76500 -0.03460 0.26457
 H1261 H 0.80183 -0.06771 0.25881
 H1262 H 0.81577 -0.09565 0.27265
 H1263 H 0.77251 -0.09519 0.31552
 H1264 H 0.75897 -0.06728 0.30131
 C1265 C 0.27918 0.56525 0.72114
 C1266 C 0.29523 0.57334 0.72905
 C1267 C 0.30327 0.58932 0.72096
 C1268 C 0.29537 0.59746 0.70478
 C1269 C 0.27918 0.58919 0.69700
 C1270 C 0.27118 0.57322 0.70512
 C1271 C 0.27118 0.54852 0.72917
 C1272 C 0.26462 0.53433 0.73566
 H1273 H 0.30159 0.56723 0.74142
 H1274 H 0.31569 0.59517 0.72742
 H1275 H 0.27263 0.59492 0.68459
 H1276 H 0.25879 0.56702 0.69882
 C1277 C 0.27933 1.06516 0.22123
 C1278 C 0.27129 1.07313 0.20523
 C1279 C 0.27937 1.08900 0.19702
 C1280 C 0.29567 1.09717 0.20470
 C1281 C 0.30358 1.08903 0.22087
 C1282 C 0.29546 1.07315 0.22905
 C1283 C 0.27130 1.04849 0.22928
 C1284 C 0.26472 1.03432 0.23576
 H1285 H 0.25883 1.06700 0.19902
 H1286 H 0.27280 1.09474 0.18463
 H1287 H 0.31608 1.09481 0.22725
 H1288 H 0.30184 1.06703 0.24141
 C1289 C 0.77915 0.56523 0.22131
 C1290 C 0.79543 0.57308 0.22898
 C1291 C 0.80350 0.58901 0.22083
 C1292 C 0.79540 0.59732 0.20484
 C1293 C 0.77895 0.58930 0.19732
 C1294 C 0.77092 0.57339 0.20550
 C1295 C 0.77116 0.54853 0.22934
 C1296 C 0.76462 0.53434 0.23582
 H1297 H 0.80196 0.56683 0.24119
 H1298 H 0.81611 0.59467 0.22708
 H1299 H 0.77224 0.59517 0.18507
 H1300 H 0.75835 0.56737 0.19941
 C1301 C 0.77899 1.06539 0.72139
 C1302 C 0.77081 1.07349 0.70553
 C1303 C 0.77890 1.08934 0.69728
 C1304 C 0.79536 1.09734 0.70479
 C1305 C 0.80343 1.08907 0.72081
 C1306 C 0.79530 1.07321 0.72903
 C1307 C 0.77095 1.04874 0.72949
 C1308 C 0.76438 1.03458 0.73600
 H1309 H 0.75822 1.06748 0.69945
 H1310 H 0.77223 1.09517 0.68499
 H1311 H 0.81606 1.09472 0.72705
 H1312 H 0.80179 1.06699 0.74127
 C1313 C 0.72077 0.56536 0.27882
 C1314 C 0.72901 0.57347 0.29463
 C1315 C 0.72102 0.58943 0.30279
 C1316 C 0.70461 0.59754 0.29526
 C1317 C 0.69651 0.58929 0.27925
 C1318 C 0.70453 0.57332 0.27112
 C1319 C 0.72869 0.54859 0.27082
 C1320 C 0.73521 0.53436 0.26437
 H1321 H 0.74156 0.56738 0.30073
 H1322 H 0.72775 0.59527 0.31504
 H1323 H 0.68392 0.59503 0.27298
 H1324 H 0.69800 0.56711 0.25890
 C1325 C 0.72058 1.06563 0.77913
 C1326 C 0.72866 1.07361 0.79508
 C1327 C 0.72075 1.08964 0.80318
 C1328 C 0.70450 1.09805 0.79547
 C1329 C 0.69658 1.08984 0.77929
 C1330 C 0.70456 1.07379 0.77125
 C1331 C 0.72850 1.04883 0.77113
 C1332 C 0.73502 1.03460 0.76465
 H1333 H 0.74106 1.06737 0.80133
 H1334 H 0.72747 1.09526 0.81553
 H1335 H 0.68416 1.09562 0.77273
 H1336 H 0.69814 1.06770 0.75891
 C1337 C 0.22071 0.56527 0.77881
 C1338 C 0.22878 0.57319 0.79480
 C1339 C 0.22084 0.58919 0.80293
 C1340 C 0.20464 0.59753 0.79518
 C1341 C 0.19667 0.58942 0.77903
 C1342 C 0.20466 0.57341 0.77094
 C1343 C 0.22866 0.54853 0.77077
 C1344 C 0.23520 0.53434 0.76427
 H1345 H 0.24118 0.56694 0.80106
 H1346 H 0.22743 0.59490 0.81531
 H1347 H 0.18424 0.59532 0.77261
 H1348 H 0.19824 0.56733 0.75859
 C1349 C 0.22083 1.06536 0.27872
 C1350 C 0.22891 1.07330 0.29470
 C1351 C 0.22096 1.08929 0.30283
 C1352 C 0.20475 1.09761 0.29509
 C1353 C 0.19681 1.08953 0.27893
 C1354 C 0.20480 1.07352 0.27083
 C1355 C 0.22875 1.04859 0.27072
 C1356 C 0.23526 1.03436 0.26427
 H1357 H 0.24131 1.06705 0.30096
 H1358 H 0.22755 1.09499 0.31522
 H1359 H 0.18438 1.09543 0.27250
 H1360 H 0.19840 1.06745 0.25847
 C1361 C 0.72085 0.43463 0.72139
 C1362 C 0.70458 0.42674 0.72907
 C1363 C 0.69650 0.41082 0.72091
 C1364 C 0.70456 0.40254 0.70489
 C1365 C 0.72100 0.41059 0.69736
 C1366 C 0.72905 0.42650 0.70555
 C1367 C 0.72885 0.45135 0.72942
 C1368 C 0.73542 0.46555 0.73589
 H1369 H 0.69807 0.43296 0.74131
 H1370 H 0.68389 0.40513 0.72718
 H1371 H 0.72770 0.40474 0.68509
 H1372 H 0.74161 0.43253 0.69944
 C1373 C 0.72097 -0.06545 0.22152
 C1374 C 0.72915 -0.07355 0.20566
 C1375 C 0.72107 -0.08941 0.19745
 C1376 C 0.70463 -0.09744 0.20498
 C1377 C 0.69657 -0.08919 0.22102
 C1378 C 0.70469 -0.07331 0.22920
 C1379 C 0.72899 -0.04877 0.22956
 C1380 C 0.73557 -0.03460 0.23602
 H1381 H 0.74172 -0.06752 0.19956
 H1382 H 0.72775 -0.09524 0.18516
 H1383 H 0.68396 -0.09486 0.22728
 H1384 H 0.69820 -0.06710 0.24145
 C1385 C 0.22074 0.43483 0.22122
 C1386 C 0.22894 0.42672 0.20538
 C1387 C 0.22088 0.41083 0.19719
 C1388 C 0.20445 0.40279 0.20473
 C1389 C 0.19638 0.41106 0.22075
 C1390 C 0.20448 0.42696 0.22891
 C1391 C 0.22874 0.45153 0.22925
 C1392 C 0.23530 0.46571 0.23572
 H1393 H 0.24150 0.43275 0.19927
 H1394 H 0.22757 0.40499 0.18491
 H1395 H 0.18378 0.40538 0.22702
 H1396 H 0.19798 0.43318 0.24116
 C1397 C 0.22102 -0.06546 0.72135
 C1398 C 0.20491 -0.07350 0.72919
 C1399 C 0.19677 -0.08935 0.72097
 C1400 C 0.20465 -0.09739 0.70474
 C1401 C 0.22090 -0.08917 0.69702
 C1402 C 0.22900 -0.07333 0.70527
 C1403 C 0.22907 -0.04884 0.72947
 C1404 C 0.23565 -0.03470 0.73599
 H1405 H 0.19857 -0.06745 0.74159
 H1406 H 0.18430 -0.09516 0.72737
 H1407 H 0.22742 -0.09483 0.68457
 H1408 H 0.24143 -0.06715 0.69903
 C1409 C 0.27897 0.27895 0.43497
 C1410 C 0.27094 0.29497 0.42692
 C1411 C 0.27893 0.30298 0.41091
 C1412 C 0.29511 0.29508 0.40270
 C1413 C 0.30303 0.27892 0.41093
 C1414 C 0.29501 0.27094 0.42694
 C1415 C 0.27098 0.27097 0.45170
 C1416 C 0.26447 0.26446 0.46587
 H1417 H 0.25855 0.30133 0.43307
 H1418 H 0.27237 0.31538 0.40511
 H1419 H 0.31545 0.27238 0.40514
 H1420 H 0.30138 0.25857 0.43310
 C1421 C 0.27921 0.77904 -0.06541
 C1422 C 0.29505 0.77085 -0.07365
 C1423 C 0.30299 0.77878 -0.08973
 C1424 C 0.29520 0.79508 -0.09782
 C1425 C 0.27921 0.80315 -0.08940
 C1426 C 0.27130 0.79519 -0.07332
 C1427 C 0.27130 0.77110 -0.04862
 C1428 C 0.26484 0.76460 -0.03442
 H1429 H 0.30134 0.75838 -0.06760
 H1430 H 0.31527 0.77211 -0.09566
 H1431 H 0.27276 0.81566 -0.09509
 H1432 H 0.25907 0.80169 -0.06701
 C1433 C 0.77876 0.27940 -0.06518
 C1434 C 0.77076 0.29547 -0.07315
 C1435 C 0.77878 0.30357 -0.08910
 C1436 C 0.79498 0.29571 -0.09733
 C1437 C 0.80286 0.27949 -0.08918
 C1438 C 0.79481 0.27142 -0.07323
 C1439 C 0.77079 0.27136 -0.04848
 C1440 C 0.76431 0.26479 -0.03433
 H1441 H 0.75837 0.30181 -0.06698
 H1442 H 0.77225 0.31601 -0.09484
 H1443 H 0.81529 0.27297 -0.09498
 H1444 H 0.80117 0.25902 -0.06712
 C1445 C 0.77880 0.77927 0.43494
 C1446 C 0.77078 0.79531 0.42693
 C1447 C 0.77879 0.80339 0.41096
 C1448 C 0.79500 0.79553 0.40275
 C1449 C 0.80290 0.77933 0.41093
 C1450 C 0.79485 0.77129 0.42689
 C1451 C 0.77084 0.77127 0.45166
 C1452 C 0.76437 0.76473 0.46584
 H1453 H 0.75838 0.80164 0.43308
 H1454 H 0.77224 0.81581 0.40519
 H1455 H 0.81533 0.77281 0.40513
 H1456 H 0.80122 0.75890 0.43302
 C1457 C 0.72100 0.27886 0.56513
 C1458 C 0.72903 0.29486 0.57315
 C1459 C 0.72107 0.30290 0.58916
 C1460 C 0.70488 0.29505 0.59740
 C1461 C 0.69696 0.27889 0.58920
 C1462 C 0.70496 0.27089 0.57319
 C1463 C 0.72895 0.27087 0.54839
 C1464 C 0.73545 0.26435 0.53422
 H1465 H 0.74142 0.30119 0.56698
 H1466 H 0.72763 0.31529 0.59494
 H1467 H 0.68454 0.27238 0.59501
 H1468 H 0.69858 0.25854 0.56705
 C1469 C 0.72113 0.77910 1.06526
 C1470 C 0.72914 0.79510 1.07330
 C1471 C 0.72115 0.80311 1.08930
 C1472 C 0.70497 0.79524 1.09752
 C1473 C 0.69707 0.77909 1.08930
 C1474 C 0.70509 0.77111 1.07329
 C1475 C 0.72910 0.77113 1.04854
 C1476 C 0.73560 0.76462 1.03436
 H1477 H 0.74153 0.80145 1.06714
 H1478 H 0.72770 0.81551 1.09510
 H1479 H 0.68465 0.77256 1.09509
 H1480 H 0.69872 0.75875 1.06713
 C1481 C 0.22109 0.27908 1.06521
 C1482 C 0.22910 0.29510 1.07322
 C1483 C 0.22111 0.30314 1.08921
 C1484 C 0.20493 0.29527 1.09744
 C1485 C 0.19704 0.27909 1.08925
 C1486 C 0.20507 0.27109 1.07326
 C1487 C 0.22905 0.27109 1.04849
 C1488 C 0.23553 0.26456 1.03432
 H1489 H 0.24148 0.30144 1.06704
 H1490 H 0.22765 0.31555 1.09498
 H1491 H 0.18463 0.27257 1.09506
 H1492 H 0.19871 0.25872 1.06713
 C1493 C 0.22109 0.77929 0.56497
 C1494 C 0.20504 0.77130 0.57298
 C1495 C 0.19699 0.77929 0.58896
 C1496 C 0.20487 0.79545 0.59718
 C1497 C 0.22106 0.80333 0.58898
 C1498 C 0.22908 0.79531 0.57300
 C1499 C 0.22909 0.77131 0.54826
 C1500 C 0.23560 0.76480 0.53410
 H1501 H 0.19869 0.75893 0.56682
 H1502 H 0.18456 0.77276 0.59474
 H1503 H 0.22758 0.81574 0.59477
 H1504 H 0.24146 0.80166 0.56685
 C1505 C 0.27902 0.72113 0.56506
 C1506 C 0.29504 0.72912 0.57312
 C1507 C 0.30308 0.72110 0.58910
 C1508 C 0.29521 0.70490 0.59728
 C1509 C 0.27904 0.69703 0.58905
 C1510 C 0.27103 0.70509 0.57307
 C1511 C 0.27106 0.72912 0.54832
 C1512 C 0.26457 0.73564 0.53414
 H1513 H 0.30138 0.74152 0.56699
 H1514 H 0.31548 0.72762 0.59490
 H1515 H 0.27251 0.68461 0.59482
 H1516 H 0.25866 0.69874 0.56691
 C1517 C 0.27898 0.22107 1.06531
 C1518 C 0.29516 0.22892 1.07318
 C1519 C 0.30316 0.22096 1.08922
 C1520 C 0.29509 0.20498 1.09763
 C1521 C 0.27876 0.19726 1.08957
 C1522 C 0.27079 0.20525 1.07354
 C1523 C 0.27102 0.22899 1.04854
 C1524 C 0.26452 0.23545 1.03435
 H1525 H 0.30166 0.24113 1.06687
 H1526 H 0.31570 0.22736 1.09489
 H1527 H 0.27209 0.18499 1.09550
 H1528 H 0.25830 0.19901 1.06751
 C1529 C 0.77893 0.72106 1.06536
 C1530 C 0.79510 0.72891 1.07327
 C1531 C 0.80307 0.72095 1.08932
 C1532 C 0.79499 0.70497 1.09771
 C1533 C 0.77866 0.69725 1.08963
 C1534 C 0.77073 0.70524 1.07358
 C1535 C 0.77102 0.72899 1.04859
 C1536 C 0.76455 0.73548 1.03438
 H1537 H 0.80161 0.74113 1.06698
 H1538 H 0.81559 0.72736 1.09501
 H1539 H 0.77199 0.68498 1.09554
 H1540 H 0.75824 0.69901 1.06753
 C1541 C 0.77890 0.22087 0.56519
 C1542 C 0.79507 0.22873 0.57308
 C1543 C 0.80307 0.22080 0.58912
 C1544 C 0.79500 0.20482 0.59754
 C1545 C 0.77868 0.19707 0.58947
 C1546 C 0.77073 0.20504 0.57343
 C1547 C 0.77095 0.22878 0.54843
 C1548 C 0.76445 0.23525 0.53424
 H1549 H 0.80156 0.24095 0.56676
 H1550 H 0.81559 0.22722 0.59480
 H1551 H 0.77202 0.18480 0.59541
 H1552 H 0.75824 0.19879 0.56739
 C1553 C 0.72100 0.72112 0.43498
 C1554 C 0.72905 0.70511 0.42696
 C1555 C 0.72108 0.69708 0.41097
 C1556 C 0.70489 0.70495 0.40274
 C1557 C 0.69696 0.72112 0.41094
 C1558 C 0.70496 0.72911 0.42693
 C1559 C 0.72895 0.72910 0.45170
 C1560 C 0.73544 0.73561 0.46587
 H1561 H 0.74143 0.69876 0.43313
 H1562 H 0.72764 0.68467 0.40519
 H1563 H 0.68453 0.72765 0.40514
 H1564 H 0.69857 0.74148 0.43308
 C1565 C 0.72103 0.22102 -0.06523
 C1566 C 0.72910 0.20499 -0.07321
 C1567 C 0.72112 0.19688 -0.08916
 C1568 C 0.70489 0.20469 -0.09739
 C1569 C 0.69695 0.22087 -0.08923
 C1570 C 0.70497 0.22895 -0.07328
 C1571 C 0.72897 0.22905 -0.04851
 C1572 C 0.73544 0.23559 -0.03434
 H1573 H 0.74151 0.19870 -0.06704
 H1574 H 0.72770 0.18447 -0.09492
 H1575 H 0.68450 0.22736 -0.09504
 H1576 H 0.69856 0.24133 -0.06718
 C1577 C 0.22126 0.72107 -0.06524
 C1578 C 0.20520 0.72907 -0.07324
 C1579 C 0.19709 0.72102 -0.08915
 C1580 C 0.20493 0.70479 -0.09731
 C1581 C 0.22115 0.69691 -0.08913
 C1582 C 0.22922 0.70500 -0.07322
 C1583 C 0.22928 0.72907 -0.04856
 C1584 C 0.23579 0.73558 -0.03441
 H1585 H 0.19887 0.74148 -0.06712
 H1586 H 0.18465 0.72755 -0.09492
 H1587 H 0.22766 0.68447 -0.09489
 H1588 H 0.24163 0.69865 -0.06709
 C1589 C 0.22099 0.22097 0.43496
 C1590 C 0.22903 0.20495 0.42693
 C1591 C 0.22103 0.19691 0.41096
 C1592 C 0.20483 0.20479 0.40275
 C1593 C 0.19691 0.22096 0.41095
 C1594 C 0.20494 0.22896 0.42693
 C1595 C 0.22895 0.22894 0.45167
 C1596 C 0.23544 0.23543 0.46585
 H1597 H 0.24142 0.19860 0.43308
 H1598 H 0.22759 0.18451 0.40517
 H1599 H 0.18449 0.22749 0.40516
 H1600 H 0.19856 0.24134 0.43308
 C1601 C 0.27915 0.43473 0.72121
 C1602 C 0.27129 0.42698 0.70504
 C1603 C 0.27922 0.41097 0.69694
 C1604 C 0.29521 0.40243 0.70490
 C1605 C 0.30299 0.41037 0.72122
 C1606 C 0.29501 0.42640 0.72929
 C1607 C 0.27119 0.45146 0.72925
 C1608 C 0.26463 0.46565 0.73574
 H1609 H 0.25905 0.43338 0.69862
 H1610 H 0.27279 0.40541 0.68441
 H1611 H 0.31527 0.40433 0.72780
 H1612 H 0.30127 0.43235 0.74178
 C1613 C 0.27927 0.93487 0.22100
 C1614 C 0.29536 0.92677 0.22885
 C1615 C 0.30343 0.91084 0.22069
 C1616 C 0.29551 0.90276 0.20452
 C1617 C 0.27928 0.91105 0.19678
 C1618 C 0.27125 0.92698 0.20497
 C1619 C 0.27125 0.95154 0.22911
 C1620 C 0.26469 0.96570 0.23565
 H1621 H 0.30174 0.93284 0.24123
 H1622 H 0.31589 0.90498 0.22710
 H1623 H 0.27273 0.90537 0.18437
 H1624 H 0.25883 0.93319 0.19873
 C1625 C 0.77923 0.43484 0.22115
 C1626 C 0.77119 0.42695 0.20513
 C1627 C 0.77919 0.41100 0.19695
 C1628 C 0.79541 0.40269 0.20468
 C1629 C 0.80335 0.41078 0.22085
 C1630 C 0.79532 0.42673 0.22900
 C1631 C 0.77123 0.45153 0.22924
 C1632 C 0.76466 0.46570 0.23576
 H1633 H 0.75877 0.43318 0.19889
 H1634 H 0.77262 0.40532 0.18455
 H1635 H 0.81581 0.40490 0.22725
 H1636 H 0.80171 0.43280 0.24136
 C1637 C 0.77913 0.93507 0.72125
 C1638 C 0.77109 0.92715 0.70524
 C1639 C 0.77910 0.91120 0.69706
 C1640 C 0.79533 0.90290 0.70479
 C1641 C 0.80327 0.91100 0.72095
 C1642 C 0.79522 0.92697 0.72909
 C1643 C 0.77110 0.95177 0.72935
 C1644 C 0.76451 0.96594 0.73589
 H1645 H 0.75867 0.93337 0.69899
 H1646 H 0.77253 0.90551 0.68466
 H1647 H 0.81573 0.90514 0.72735
 H1648 H 0.80162 0.93304 0.74145
 C1649 C 0.72098 0.56530 0.72142
 C1650 C 0.72908 0.57334 0.70549
 C1651 C 0.72112 0.58937 0.69740
 C1652 C 0.70487 0.59763 0.70514
 C1653 C 0.69690 0.58943 0.72124
 C1654 C 0.70490 0.57339 0.72929
 C1655 C 0.72892 0.54851 0.72940
 C1656 C 0.73545 0.53428 0.73586
 H1657 H 0.74150 0.56715 0.69923
 H1658 H 0.72773 0.59515 0.68506
 H1659 H 0.68442 0.59525 0.72765
 H1660 H 0.69846 0.56724 0.74160
 C1661 C 0.72100 0.06490 0.22116
 C1662 C 0.70489 0.07298 0.22899
 C1663 C 0.69680 0.08890 0.22080
 C1664 C 0.70471 0.09698 0.20461
 C1665 C 0.72097 0.08872 0.19690
 C1666 C 0.72902 0.07281 0.20512
 C1667 C 0.72902 0.04822 0.22927
 C1668 C 0.73560 0.03405 0.23581
 H1669 H 0.69852 0.06692 0.24137
 H1670 H 0.68433 0.09475 0.22720
 H1671 H 0.72752 0.09441 0.18448
 H1672 H 0.74145 0.06661 0.19889
 C1673 C 0.22065 0.56523 0.22109
 C1674 C 0.20435 0.57312 0.22874
 C1675 C 0.19623 0.58901 0.22052
 C1676 C 0.20430 0.59726 0.20449
 C1677 C 0.22076 0.58920 0.19699
 C1678 C 0.22884 0.57332 0.20523
 C1679 C 0.22868 0.54855 0.22919
 C1680 C 0.23527 0.53437 0.23569
 H1681 H 0.19785 0.56692 0.24098
 H1682 H 0.18361 0.59470 0.22676
 H1683 H 0.22745 0.59502 0.18470
 H1684 H 0.24142 0.56728 0.19915
 C1685 C 0.22076 0.06482 0.72129
 C1686 C 0.22876 0.07276 0.70526
 C1687 C 0.22072 0.08871 0.69708
 C1688 C 0.20448 0.09698 0.70483
 C1689 C 0.19657 0.08886 0.72100
 C1690 C 0.20466 0.07290 0.72915
 C1691 C 0.22882 0.04812 0.72939
 C1692 C 0.23544 0.03396 0.73592
 H1693 H 0.24119 0.06658 0.69900
 H1694 H 0.22727 0.09442 0.68468
 H1695 H 0.18411 0.09470 0.72742
 H1696 H 0.19829 0.06682 0.74152
 C1697 C 0.27924 0.56525 0.27874
 C1698 C 0.29530 0.57334 0.27085
 C1699 C 0.30335 0.58929 0.27897
 C1700 C 0.29542 0.59739 0.29515
 C1701 C 0.27920 0.58914 0.30290
 C1702 C 0.27120 0.57319 0.29474
 C1703 C 0.27127 0.54854 0.27071
 C1704 C 0.26473 0.53435 0.26424
 H1705 H 0.30169 0.56725 0.25848
 H1706 H 0.31579 0.59513 0.27255
 H1707 H 0.27263 0.59485 0.31529
 H1708 H 0.25878 0.56700 0.30100
 C1709 C 0.27931 0.06500 0.77891
 C1710 C 0.29554 0.07293 0.77121
 C1711 C 0.30358 0.08887 0.77934
 C1712 C 0.29548 0.09713 0.79535
 C1713 C 0.27907 0.08906 0.80290
 C1714 C 0.27108 0.07312 0.79473
 C1715 C 0.27139 0.04824 0.77092
 C1716 C 0.26490 0.03401 0.76448
 H1717 H 0.30207 0.06671 0.75898
 H1718 H 0.31616 0.09459 0.77306
 H1719 H 0.27236 0.09490 0.81516
 H1720 H 0.25853 0.06705 0.80085
 C1721 C 0.77945 0.56513 0.77901
 C1722 C 0.77143 0.57306 0.79504
 C1723 C 0.77944 0.58900 0.80320
 C1724 C 0.79566 0.59728 0.79544
 C1725 C 0.80356 0.58917 0.77926
 C1726 C 0.79551 0.57322 0.77113
 C1727 C 0.77144 0.54842 0.77095
 C1728 C 0.76488 0.53423 0.76446
 H1729 H 0.75903 0.56686 0.80131
 H1730 H 0.77288 0.59471 0.81561
 H1731 H 0.81600 0.59503 0.77282
 H1732 H 0.80189 0.56715 0.75875
 C1733 C 0.77950 0.06499 0.27890
 C1734 C 0.77146 0.07292 0.29492
 C1735 C 0.77944 0.08889 0.30305
 C1736 C 0.79564 0.09717 0.29527
 C1737 C 0.80356 0.08906 0.27910
 C1738 C 0.79554 0.07309 0.27100
 C1739 C 0.77154 0.04827 0.27088
 C1740 C 0.76500 0.03407 0.26442
 H1741 H 0.75907 0.06671 0.30120
 H1742 H 0.77287 0.09460 0.31545
 H1743 H 0.81599 0.09493 0.27266
 H1744 H 0.80193 0.06700 0.25863
 C1745 C 0.72074 0.43475 0.27884
 C1746 C 0.70469 0.42667 0.27094
 C1747 C 0.69663 0.41071 0.27905
 C1748 C 0.70454 0.40259 0.29524
 C1749 C 0.72075 0.41085 0.30300
 C1750 C 0.72876 0.42679 0.29485
 C1751 C 0.72871 0.45148 0.27082
 C1752 C 0.73525 0.46568 0.26436
 H1753 H 0.69832 0.43277 0.25856
 H1754 H 0.68420 0.40487 0.27262
 H1755 H 0.72731 0.40513 0.31540
 H1756 H 0.74116 0.43298 0.30112
 C1757 C 0.72066 0.93493 0.77900
 C1758 C 0.70461 0.92685 0.77111
 C1759 C 0.69659 0.91087 0.77921
 C1760 C 0.70451 0.90274 0.79538
 C1761 C 0.72073 0.91100 0.80314
 C1762 C 0.72871 0.92697 0.79500
 C1763 C 0.72861 0.95167 0.77099
 C1764 C 0.73512 0.96589 0.76453
 H1765 H 0.69823 0.93295 0.75875
 H1766 H 0.68415 0.90502 0.77278
 H1767 H 0.72730 0.90527 0.81553
 H1768 H 0.74111 0.93317 0.80127
 C1769 C 0.22062 0.43475 0.77887
 C1770 C 0.22863 0.42678 0.79488
 C1771 C 0.22063 0.41082 0.80302
 C1772 C 0.20442 0.40256 0.79526
 C1773 C 0.19651 0.41070 0.77908
 C1774 C 0.20455 0.42667 0.77098
 C1775 C 0.22862 0.45147 0.77082
 C1776 C 0.23518 0.46566 0.76433
 H1777 H 0.24103 0.43297 0.80116
 H1778 H 0.22718 0.40509 0.81542
 H1779 H 0.18407 0.40486 0.77265
 H1780 H 0.19818 0.43278 0.75861
 C1781 C 0.22070 0.93485 0.27885
 C1782 C 0.20448 0.92696 0.27111
 C1783 C 0.19632 0.91109 0.27930
 C1784 C 0.20429 0.90288 0.29540
 C1785 C 0.22068 0.91094 0.30301
 C1786 C 0.22879 0.92679 0.29479
 C1787 C 0.22874 0.95152 0.27079
 C1788 C 0.23530 0.96569 0.26429
 H1789 H 0.19807 0.93314 0.25880
 H1790 H 0.18377 0.90539 0.27297
 H1791 H 0.22729 0.90513 0.31534
 H1792 H 0.24133 0.93283 0.30094
 C1793 C 0.43465 0.27916 0.72129
 C1794 C 0.42634 0.29502 0.72935
 C1795 C 0.41031 0.30302 0.72128
 C1796 C 0.40234 0.29525 0.70497
 C1797 C 0.41086 0.27926 0.69702
 C1798 C 0.42688 0.27131 0.70512
 C1799 C 0.45140 0.27118 0.72932
 C1800 C 0.46560 0.26461 0.73580
 H1801 H 0.43231 0.30127 0.74184
 H1802 H 0.40428 0.31530 0.72786
 H1803 H 0.40528 0.27283 0.68450
 H1804 H 0.43326 0.25907 0.69870
 C1805 C 0.43474 0.77933 0.22117
 C1806 C 0.42682 0.77130 0.20516
 C1807 C 0.41088 0.77932 0.19697
 C1808 C 0.40260 0.79555 0.20468
 C1809 C 0.41070 0.80348 0.22085
 C1810 C 0.42665 0.79542 0.22900
 C1811 C 0.45145 0.77135 0.22925
 C1812 C 0.46564 0.76480 0.23576
 H1813 H 0.43303 0.75888 0.19893
 H1814 H 0.40517 0.77275 0.18457
 H1815 H 0.40484 0.81593 0.22724
 H1816 H 0.43273 0.80180 0.24136
 C1817 C 0.93471 0.27933 0.22118
 C1818 C 0.92677 0.27128 0.20518
 C1819 C 0.91080 0.27927 0.19702
 C1820 C 0.90250 0.29549 0.20475
 C1821 C 0.91061 0.30343 0.22090
 C1822 C 0.92660 0.29540 0.22903
 C1823 C 0.95143 0.27135 0.22924
 C1824 C 0.96563 0.26480 0.23574
 H1825 H 0.93300 0.25888 0.19894
 H1826 H 0.90509 0.27271 0.18463
 H1827 H 0.90475 0.31588 0.22731
 H1828 H 0.93269 0.30179 0.24138
 C1829 C 0.93472 0.77947 0.72122
 C1830 C 0.92677 0.77143 0.70522
 C1831 C 0.91079 0.77942 0.69708
 C1832 C 0.90250 0.79564 0.70482
 C1833 C 0.91063 0.80358 0.72096
 C1834 C 0.92662 0.79554 0.72907
 C1835 C 0.95145 0.77149 0.72927
 C1836 C 0.96565 0.76494 0.73576
 H1837 H 0.93298 0.75902 0.69897
 H1838 H 0.90507 0.77286 0.68469
 H1839 H 0.90478 0.81602 0.72737
 H1840 H 0.93273 0.80193 0.74142
 C1841 C 0.56536 0.27916 0.27873
 C1842 C 0.57342 0.29523 0.27084
 C1843 C 0.58936 0.30332 0.27897
 C1844 C 0.59749 0.29543 0.29516
 C1845 C 0.58926 0.27919 0.30291
 C1846 C 0.57333 0.27115 0.29475
 C1847 C 0.54865 0.27114 0.27070
 C1848 C 0.53446 0.26454 0.26424
 H1849 H 0.56731 0.30159 0.25847
 H1850 H 0.59518 0.31577 0.27255
 H1851 H 0.59499 0.27265 0.31531
 H1852 H 0.56716 0.25874 0.30101
 C1853 C 0.56513 0.77952 0.77907
 C1854 C 0.57309 0.77151 0.79509
 C1855 C 0.58905 0.77952 0.80323
 C1856 C 0.59731 0.79573 0.79546
 C1857 C 0.58919 0.80362 0.77928
 C1858 C 0.57322 0.79558 0.77117
 C1859 C 0.54840 0.77153 0.77104
 C1860 C 0.53420 0.76496 0.76456
 H1861 H 0.56690 0.75911 0.80136
 H1862 H 0.59478 0.77296 0.81563
 H1863 H 0.59504 0.81605 0.77284
 H1864 H 0.56713 0.80194 0.75879
 C1865 C 0.06505 0.27922 0.77888
 C1866 C 0.07313 0.29528 0.77100
 C1867 C 0.08910 0.30333 0.77911
 C1868 C 0.09723 0.29542 0.79528
 C1869 C 0.08897 0.27922 0.80305
 C1870 C 0.07301 0.27121 0.79491
 C1871 C 0.04833 0.27122 0.77083
 C1872 C 0.03414 0.26467 0.76433
 H1873 H 0.06703 0.30165 0.75863
 H1874 H 0.09494 0.31576 0.77267
 H1875 H 0.09469 0.27267 0.81546
 H1876 H 0.06682 0.25881 0.80118
 C1877 C 0.06510 0.77942 0.27864
 C1878 C 0.07304 0.77143 0.29468
 C1879 C 0.08905 0.77937 0.30277
 C1880 C 0.09739 0.79550 0.29493
 C1881 C 0.08928 0.80340 0.27874
 C1882 C 0.07325 0.79541 0.27068
 C1883 C 0.04836 0.77146 0.27063
 C1884 C 0.03416 0.76489 0.26417
 H1885 H 0.06679 0.75909 0.30101
 H1886 H 0.09476 0.77283 0.31518
 H1887 H 0.09518 0.81578 0.27225
 H1888 H 0.06716 0.80177 0.25830
 C1889 C 0.56523 0.72083 0.72157
 C1890 C 0.57337 0.72903 0.70574
 C1891 C 0.58924 0.72093 0.69749
 C1892 C 0.59724 0.70443 0.70495
 C1893 C 0.58896 0.69636 0.72097
 C1894 C 0.57308 0.70451 0.72919
 C1895 C 0.54851 0.72886 0.72963
 C1896 C 0.53430 0.73544 0.73609
 H1897 H 0.56736 0.74164 0.69968
 H1898 H 0.59509 0.72763 0.68523
 H1899 H 0.59462 0.68372 0.72719
 H1900 H 0.56685 0.69800 0.74142
 C1901 C 0.56543 0.22045 0.22123
 C1902 C 0.57351 0.20435 0.22906
 C1903 C 0.58945 0.19627 0.22089
 C1904 C 0.59755 0.20419 0.20471
 C1905 C 0.58929 0.22044 0.19700
 C1906 C 0.57336 0.22848 0.20521
 C1907 C 0.54871 0.22845 0.22930
 C1908 C 0.53451 0.23502 0.23579
 H1909 H 0.56742 0.19797 0.24143
 H1910 H 0.59529 0.18380 0.22728
 H1911 H 0.59499 0.22700 0.18460
 H1912 H 0.56716 0.24091 0.19898
 C1913 C 0.06515 0.72081 0.22116
 C1914 C 0.07327 0.72901 0.20532
 C1915 C 0.08916 0.72095 0.19708
 C1916 C 0.09721 0.70449 0.20457
 C1917 C 0.08895 0.69641 0.22059
 C1918 C 0.07304 0.70452 0.22879
 C1919 C 0.04843 0.72882 0.22922
 C1920 C 0.03422 0.73538 0.23570
 H1921 H 0.06723 0.74160 0.19924
 H1922 H 0.09500 0.72764 0.18481
 H1923 H 0.09463 0.68378 0.22682
 H1924 H 0.06682 0.69800 0.24103
 C1925 C 0.06508 0.22060 0.72127
 C1926 C 0.07306 0.22861 0.70525
 C1927 C 0.08902 0.22057 0.69711
 C1928 C 0.09727 0.20433 0.70486
 C1929 C 0.08912 0.19643 0.72103
 C1930 C 0.07315 0.20451 0.72914
 C1931 C 0.04835 0.22863 0.72931
 C1932 C 0.03415 0.23521 0.73579
 H1933 H 0.06688 0.24103 0.69899
 H1934 H 0.09475 0.22712 0.68471
 H1935 H 0.09495 0.18397 0.72745
 H1936 H 0.06703 0.19815 0.74150
 C1937 C 0.43471 0.72071 0.27873
 C1938 C 0.42666 0.70465 0.27085
 C1939 C 0.41070 0.69657 0.27897
 C1940 C 0.40256 0.70446 0.29514
 C1941 C 0.41080 0.72068 0.30290
 C1942 C 0.42674 0.72871 0.29475
 C1943 C 0.45144 0.72872 0.27071
 C1944 C 0.46563 0.73530 0.26426
 H1945 H 0.43276 0.69829 0.25847
 H1946 H 0.40487 0.68414 0.27254
 H1947 H 0.40506 0.72722 0.31530
 H1948 H 0.43292 0.74111 0.30101
 C1949 C 0.43462 0.22052 0.77878
 C1950 C 0.42649 0.22870 0.79462
 C1951 C 0.41057 0.22065 0.80282
 C1952 C 0.40253 0.20423 0.79529
 C1953 C 0.41081 0.19618 0.77927
 C1954 C 0.42674 0.20427 0.77110
 C1955 C 0.45135 0.22853 0.77075
 C1956 C 0.46556 0.23510 0.76430
 H1957 H 0.43252 0.24125 0.80073
 H1958 H 0.40471 0.22733 0.81509
 H1959 H 0.40513 0.18359 0.77300
 H1960 H 0.43297 0.19778 0.75886
 C1961 C 0.93480 0.72086 0.77888
 C1962 C 0.92675 0.70478 0.77101
 C1963 C 0.91082 0.69668 0.77915
 C1964 C 0.90268 0.70456 0.79533
 C1965 C 0.91091 0.72079 0.80307
 C1966 C 0.92683 0.72885 0.79490
 C1967 C 0.95149 0.72889 0.77082
 C1968 C 0.96567 0.73548 0.76433
 H1969 H 0.93286 0.69843 0.75863
 H1970 H 0.90500 0.68424 0.77273
 H1971 H 0.90517 0.72733 0.81548
 H1972 H 0.93300 0.74126 0.80116
 C1973 C 0.93475 0.22067 0.27872
 C1974 C 0.92670 0.20461 0.27084
 C1975 C 0.91075 0.19653 0.27896
 C1976 C 0.90260 0.20443 0.29513
 C1977 C 0.91083 0.22065 0.30288
 C1978 C 0.92678 0.22868 0.29473
 C1979 C 0.95147 0.22869 0.27068
 C1980 C 0.96566 0.23528 0.26422
 H1981 H 0.93282 0.19824 0.25848
 H1982 H 0.90492 0.18409 0.27254
 H1983 H 0.90509 0.22719 0.31528
 H1984 H 0.93295 0.24109 0.30099
 C1985 C 0.27888 0.27895 0.56517
 C1986 C 0.27090 0.29502 0.57314
 C1987 C 0.27896 0.30313 0.58904
 C1988 C 0.29518 0.29528 0.59723
 C1989 C 0.30304 0.27905 0.58909
 C1990 C 0.29494 0.27097 0.57318
 C1991 C 0.27088 0.27094 0.54849
 C1992 C 0.26438 0.26442 0.53434
 H1993 H 0.25849 0.30135 0.56700
 H1994 H 0.27244 0.31557 0.59479
 H1995 H 0.31548 0.27253 0.59487
 H1996 H 0.30128 0.25856 0.56708
 C1997 C 0.27915 0.77909 0.06497
 C1998 C 0.29519 0.77110 0.07303
 C1999 C 0.30323 0.77914 0.08898
 C2000 C 0.29533 0.79535 0.09713
 C2001 C 0.27914 0.80322 0.08890
 C2002 C 0.27113 0.79514 0.07295
 C2003 C 0.27120 0.77109 0.04826
 C2004 C 0.26473 0.76458 0.03409
 H2005 H 0.30155 0.75870 0.06692
 H2006 H 0.31565 0.77262 0.09478
 H2007 H 0.27260 0.81565 0.09465
 H2008 H 0.25874 0.80148 0.06678
 C2009 C 0.77896 0.27915 0.06500
 C2010 C 0.77098 0.29521 0.07300
 C2011 C 0.77902 0.30329 0.08893
 C2012 C 0.79523 0.29542 0.09713
 C2013 C 0.80310 0.27920 0.08896
 C2014 C 0.79502 0.27116 0.07303
 C2015 C 0.77096 0.27115 0.04831
 C2016 C 0.76444 0.26463 0.03415
 H2017 H 0.75858 0.30156 0.06685
 H2018 H 0.77250 0.31572 0.09469
 H2019 H 0.81553 0.27267 0.09475
 H2020 H 0.80137 0.25875 0.06691
 C2021 C 0.77895 0.77917 0.56518
 C2022 C 0.77095 0.79523 0.57315
 C2023 C 0.77898 0.80333 0.58908
 C2024 C 0.79520 0.79549 0.59729
 C2025 C 0.80308 0.77927 0.58914
 C2026 C 0.79501 0.77120 0.57321
 C2027 C 0.77097 0.77115 0.54849
 C2028 C 0.76446 0.76463 0.53433
 H2029 H 0.75854 0.80156 0.56700
 H2030 H 0.77245 0.81577 0.59482
 H2031 H 0.81552 0.77276 0.59493
 H2032 H 0.80137 0.75880 0.56711
 C2033 C 0.27892 0.72101 0.43476
 C2034 C 0.29496 0.72898 0.42671
 C2035 C 0.30300 0.72095 0.41074
 C2036 C 0.29511 0.70476 0.40257
 C2037 C 0.27891 0.69692 0.41080
 C2038 C 0.27091 0.70499 0.42677
 C2039 C 0.27096 0.72902 0.45147
 C2040 C 0.26449 0.73558 0.46564
 H2041 H 0.30132 0.74135 0.43284
 H2042 H 0.31542 0.72745 0.40494
 H2043 H 0.27238 0.68450 0.40503
 H2044 H 0.25852 0.69866 0.43294
 C2045 C 0.27883 0.22074 0.93500
 C2046 C 0.29486 0.22873 0.92696
 C2047 C 0.30289 0.22073 0.91097
 C2048 C 0.29501 0.20456 0.90277
 C2049 C 0.27883 0.19667 0.91101
 C2050 C 0.27083 0.20471 0.92699
 C2051 C 0.27085 0.22873 0.95171
 C2052 C 0.26437 0.23527 0.96587
 H2053 H 0.30121 0.24110 0.93310
 H2054 H 0.31530 0.22726 0.90517
 H2055 H 0.27230 0.18427 0.90523
 H2056 H 0.25846 0.19836 0.93316
 C2057 C 0.77906 0.72099 0.93501
 C2058 C 0.79509 0.72898 0.92696
 C2059 C 0.80314 0.72095 0.91099
 C2060 C 0.79528 0.70475 0.90282
 C2061 C 0.77910 0.69688 0.91105
 C2062 C 0.77108 0.70494 0.92702
 C2063 C 0.77108 0.72898 0.95172
 C2064 C 0.76458 0.73550 0.96589
 H2065 H 0.80143 0.74137 0.93308
 H2066 H 0.81556 0.72747 0.90519
 H2067 H 0.77258 0.68445 0.90529
 H2068 H 0.75870 0.69860 0.93318
 C2069 C 0.77900 0.22069 0.43488
 C2070 C 0.77104 0.20464 0.42688
 C2071 C 0.77908 0.19658 0.41093
 C2072 C 0.79527 0.20446 0.40271
 C2073 C 0.80310 0.22067 0.41089
 C2074 C 0.79502 0.22869 0.42684
 C2075 C 0.77099 0.22868 0.45159
 C2076 C 0.76448 0.23521 0.46575
 H2077 H 0.75866 0.19828 0.43304
 H2078 H 0.77258 0.18415 0.40516
 H2079 H 0.81552 0.22720 0.40509
 H2080 H 0.80135 0.24109 0.43297
 C2081 C 0.72107 0.27894 0.43486
 C2082 C 0.72906 0.29498 0.42686
 C2083 C 0.72105 0.30305 0.41088
 C2084 C 0.70487 0.29517 0.40266
 C2085 C 0.69700 0.27898 0.41085
 C2086 C 0.70504 0.27095 0.42682
 C2087 C 0.72904 0.27093 0.45157
 C2088 C 0.73552 0.26438 0.46574
 H2089 H 0.74143 0.30133 0.43302
 H2090 H 0.72756 0.31547 0.40511
 H2091 H 0.68459 0.27246 0.40505
 H2092 H 0.69870 0.25857 0.43296
 C2093 C 0.72110 0.77921 0.93505
 C2094 C 0.70504 0.77123 0.92706
 C2095 C 0.69696 0.77926 0.91110
 C2096 C 0.70483 0.79544 0.90288
 C2097 C 0.72103 0.80330 0.91106
 C2098 C 0.72908 0.79524 0.92702
 C2099 C 0.72911 0.77120 0.95174
 C2100 C 0.73562 0.76466 0.96590
 H2101 H 0.69870 0.75885 0.93321
 H2102 H 0.68453 0.77274 0.90534
 H2103 H 0.72755 0.81572 0.90527
 H2104 H 0.74147 0.80158 0.93315
 C2105 C 0.22087 0.27895 0.93498
 C2106 C 0.22885 0.29499 0.92696
 C2107 C 0.22081 0.30307 0.91100
 C2108 C 0.20461 0.29521 0.90281
 C2109 C 0.19675 0.27901 0.91101
 C2110 C 0.20482 0.27098 0.92696
 C2111 C 0.22888 0.27095 0.95168
 C2112 C 0.23540 0.26443 0.96584
 H2113 H 0.24124 0.30133 0.93309
 H2114 H 0.22733 0.31549 0.90522
 H2115 H 0.18432 0.27250 0.90523
 H2116 H 0.19848 0.25859 0.93311
 C2117 C 0.22096 0.77941 0.43483
 C2118 C 0.22906 0.79530 0.42665
 C2119 C 0.22093 0.80342 0.41076
 C2120 C 0.20453 0.79575 0.40279
 C2121 C 0.19655 0.77970 0.41116
 C2122 C 0.20471 0.77162 0.42705
 C2123 C 0.22904 0.77136 0.45149
 C2124 C 0.23558 0.76481 0.46563
 H2125 H 0.24162 0.80150 0.43260
 H2126 H 0.22754 0.81573 0.40484
 H2127 H 0.18398 0.77332 0.40555
 H2128 H 0.19828 0.75934 0.43331
 C2129 C 0.72117 0.72101 0.56531
 C2130 C 0.70535 0.72922 0.57357
 C2131 C 0.69739 0.72128 0.58963
 C2132 C 0.70514 0.70495 0.59769
 C2133 C 0.72111 0.69685 0.58925
 C2134 C 0.72903 0.70482 0.57319
 C2135 C 0.72908 0.72897 0.54855
 C2136 C 0.73553 0.73549 0.53436
 H2137 H 0.69909 0.74171 0.56753
 H2138 H 0.68512 0.72797 0.59557
 H2139 H 0.72753 0.68432 0.59493
 H2140 H 0.74125 0.69830 0.56686
 C2141 C 0.72113 0.22088 0.06504
 C2142 C 0.72917 0.20483 0.07303
 C2143 C 0.72118 0.19674 0.08899
 C2144 C 0.70498 0.20459 0.09724
 C2145 C 0.69707 0.22080 0.08908
 C2146 C 0.70510 0.22886 0.07311
 C2147 C 0.72908 0.22891 0.04833
 C2148 C 0.73553 0.23547 0.03416
 H2149 H 0.74155 0.19850 0.06684
 H2150 H 0.72773 0.18431 0.09475
 H2151 H 0.68465 0.22732 0.09490
 H2152 H 0.69872 0.24125 0.06700
 C2153 C 0.22110 0.72108 0.06492
 C2154 C 0.22908 0.70502 0.07295
 C2155 C 0.22106 0.69699 0.08893
 C2156 C 0.20487 0.70490 0.09714
 C2157 C 0.19700 0.72110 0.08893
 C2158 C 0.20506 0.72909 0.07295
 C2159 C 0.22912 0.72906 0.04822
 C2160 C 0.23567 0.73557 0.03406
 H2161 H 0.24146 0.69865 0.06680
 H2162 H 0.22758 0.68456 0.09472
 H2163 H 0.18458 0.72764 0.09472
 H2164 H 0.19871 0.74149 0.06680
 C2165 C 0.22088 0.22082 0.56520
 C2166 C 0.20483 0.22880 0.57325
 C2167 C 0.19678 0.22074 0.58920
 C2168 C 0.20466 0.20453 0.59737
 C2169 C 0.22087 0.19667 0.58915
 C2170 C 0.22889 0.20477 0.57319
 C2171 C 0.22886 0.22884 0.54850
 C2172 C 0.23537 0.23537 0.53433
 H2173 H 0.19847 0.24121 0.56714
 H2174 H 0.18435 0.22726 0.59500
 H2175 H 0.22741 0.18424 0.59490
 H2176 H 0.24129 0.19843 0.56704
   
