data_POSCAR
  _audit_creation_date              2014-09-24
  _audit_creation_method            'ToBaCCo'
  _symmetry_space_group_name_H-M    'P1'
  _symmetry_Int_Tables_number       1
  _symmetry_cell_setting            triclinic
  loop_
  _symmetry_equiv_pos_as_xyz
 x,y,z
_cell_length_a 61.8124
_cell_length_b 62.4404
_cell_length_c 61.8874
_cell_angle_alpha 89.662700
_cell_angle_beta 88.970700
_cell_angle_gamma 92.075500
loop_
  _atom_site_label
  _atom_site_type_symbol
  _atom_site_fract_x
  _atom_site_fract_y
  _atom_site_fract_z
C1 C 0.72119 0.65762 0.97630
 H2 H 0.73194 0.66613 0.98713
 C3 C 0.70296 0.66763 0.96851
 H4 H 0.69986 0.68389 0.97334
 C5 C 0.71190 0.62603 0.95700
 H6 H 0.71528 0.60966 0.95289
 C7 C 0.69378 0.63546 0.94863
 H8 H 0.68340 0.62619 0.93800
 N9 N 0.72520 0.63713 0.97053
 C10 C 0.76836 0.65140 1.00952
 H11 H 0.75294 0.65004 1.01805
 C12 C 0.78553 0.66333 1.01839
 H13 H 0.78307 0.67131 1.03367
 C14 C 0.79055 0.64166 0.97981
 H15 H 0.79269 0.63272 0.96511
 C16 C 0.80807 0.65356 0.98798
 H17 H 0.82344 0.65369 0.97929
 Zn18 Zn 0.74865 0.62187 0.98129
 N19 N 0.77122 0.64067 0.99069
 C20 C 0.76236 0.58347 0.96067
 N21 N 0.75895 0.60477 0.95849
 C22 C 0.76203 0.61502 0.93920
 C23 C 0.76879 0.60387 0.92104
 C24 C 0.76940 0.57167 0.94286
 C25 C 0.71711 0.60417 1.00993
 C26 C 0.70927 0.59501 1.02922
 C27 C 0.74598 0.58722 1.03856
 C28 C 0.75308 0.59648 1.01890
 N29 N 0.73868 0.60512 1.00530
 H30 H 0.75960 0.57565 0.97615
 H31 H 0.75906 0.63195 0.93793
 H32 H 0.77112 0.61247 0.90589
 H33 H 0.77210 0.55474 0.94480
 H34 H 0.70589 0.61120 0.99902
 H35 H 0.69199 0.59507 1.03243
 H36 H 0.75794 0.58108 1.04933
 H37 H 0.77020 0.59763 1.01491
 C38 C 0.80582 0.66425 1.00773
 C39 C 0.68900 0.65648 0.95446
 C40 C 0.72376 0.58690 1.04434
 C41 C 0.77259 0.58190 0.92268
 C42 C 0.74412 0.34271 0.50798
 H43 H 0.75987 0.34105 0.51501
 C44 C 0.72617 0.33100 0.51647
 H45 H 0.72834 0.32023 0.52997
 C46 C 0.72208 0.35948 0.48244
 H47 H 0.72039 0.37093 0.46950
 C48 C 0.70374 0.34820 0.49047
 H49 H 0.68822 0.35098 0.48333
 N50 N 0.74178 0.35662 0.49126
 C51 C 0.80510 0.36931 0.46048
 H52 H 0.80440 0.38657 0.45940
 C53 C 0.82336 0.35915 0.45277
 H54 H 0.83658 0.36878 0.44563
 C55 C 0.78864 0.33604 0.47140
 H56 H 0.77508 0.32714 0.47874
 C57 C 0.80660 0.32515 0.46370
 H58 H 0.80670 0.30788 0.46529
 Zn59 Zn 0.76582 0.37413 0.48170
 N60 N 0.78846 0.35779 0.47008
 C61 C 0.79732 0.38808 0.51137
 N62 N 0.77626 0.38980 0.50582
 C63 C 0.76246 0.40143 0.51801
 C64 C 0.76979 0.41202 0.53653
 C65 C 0.80535 0.39857 0.52949
 C66 C 0.75292 0.38291 0.44013
 C67 C 0.74621 0.39489 0.42258
 C68 C 0.74840 0.42662 0.44472
 C69 C 0.75528 0.41399 0.46187
 N70 N 0.75712 0.39251 0.45933
 H71 H 0.80797 0.37828 0.50204
 H72 H 0.74567 0.40222 0.51350
 H73 H 0.75858 0.42112 0.54611
 H74 H 0.82216 0.39680 0.53355
 H75 H 0.75466 0.36581 0.43855
 H76 H 0.74276 0.38679 0.40754
 H77 H 0.74679 0.44366 0.44707
 H78 H 0.75896 0.42134 0.47720
 C79 C 0.82444 0.33680 0.45460
 C80 C 0.70557 0.33387 0.50785
 C81 C 0.74369 0.41704 0.42476
 C82 C 0.79155 0.41066 0.54243
 C83 C 0.22970 -0.15542 0.02347
 H84 H 0.24506 -0.15694 0.03135
 C85 C 0.21132 -0.16686 0.03133
 H86 H 0.21272 -0.17727 0.04524
 C87 C 0.20915 -0.13939 -0.00380
 H88 H 0.20823 -0.12842 -0.01727
 C89 C 0.19039 -0.15039 0.00358
 H90 H 0.17531 -0.14784 -0.00453
 N91 N 0.22830 -0.14203 0.00618
 C92 C 0.29284 -0.13174 -0.02245
 H93 H 0.29296 -0.11445 -0.02379
 C94 C 0.31070 -0.14285 -0.02966
 H95 H 0.32449 -0.13392 -0.03662
 C96 C 0.27452 -0.16418 -0.01174
 H97 H 0.26035 -0.17240 -0.00479
 C98 C 0.29200 -0.17600 -0.01901
 H99 H 0.29115 -0.19329 -0.01743
 Zn100 Zn 0.25289 -0.12520 -0.00301
 N101 N 0.27545 -0.14242 -0.01322
 C102 C 0.28368 -0.10963 0.02678
 N103 N 0.26267 -0.10866 0.02079
 C104 C 0.24841 -0.09681 0.03219
 C105 C 0.25525 -0.08507 0.05020
 C106 C 0.29124 -0.09796 0.04437
 C107 C 0.24283 -0.11748 -0.04566
 C108 C 0.23622 -0.10617 -0.06371
 C109 C 0.23464 -0.07437 -0.04169
 C110 C 0.24161 -0.08632 -0.02412
 N111 N 0.24516 -0.10755 -0.02634
 H112 H 0.29469 -0.11962 0.01811
 H113 H 0.23167 -0.09663 0.02739
 H114 H 0.24370 -0.07573 0.05909
 H115 H 0.30805 -0.09905 0.04875
 H116 H 0.24582 -0.13439 -0.04696
 H117 H 0.23433 -0.11478 -0.07874
 H118 H 0.23155 -0.05758 -0.03927
 H119 H 0.24376 -0.07870 -0.00865
 C120 C 0.31053 -0.16526 -0.02781
 C121 C 0.19126 -0.16425 0.02146
 C122 C 0.23155 -0.08429 -0.06192
 C123 C 0.27699 -0.08549 0.05637
 C124 C 0.23705 0.15078 0.47508
 H125 H 0.25184 0.14830 0.46598
 C126 C 0.22149 0.16405 0.46668
 H127 H 0.22467 0.17194 0.45127
 C128 C 0.21438 0.14231 0.50543
 H129 H 0.21128 0.13331 0.52017
 C130 C 0.19849 0.15557 0.49774
 H131 H 0.18346 0.15668 0.50685
 N132 N 0.23309 0.13986 0.49391
 C133 C 0.29349 0.11879 0.52055
 H134 H 0.28788 0.10298 0.52580
 C135 C 0.31392 0.12654 0.52651
 H136 H 0.32394 0.11634 0.53601
 C137 C 0.28671 0.15144 0.50269
 H138 H 0.27594 0.16127 0.49375
 C139 C 0.30718 0.15984 0.50822
 H140 H 0.31191 0.17604 0.50335
 Zn141 Zn 0.25263 0.11875 0.50270
 N142 N 0.28036 0.13115 0.50875
 C143 C 0.27118 0.08372 0.48106
 N144 N 0.25525 0.09817 0.48031
 C145 C 0.24193 0.09901 0.46307
 C146 C 0.24538 0.08614 0.44508
 C147 C 0.27510 0.07040 0.46346
 C148 C 0.24234 0.11785 0.54646
 C149 C 0.23443 0.10959 0.56613
 C150 C 0.22645 0.07581 0.54856
 C151 C 0.23449 0.08479 0.52913
 N152 N 0.24202 0.10552 0.52845
 H153 H 0.28137 0.08295 0.49499
 H154 H 0.22887 0.11002 0.46298
 H155 H 0.23504 0.08765 0.43125
 H156 H 0.28840 0.05962 0.46409
 H157 H 0.24858 0.13425 0.54543
 H158 H 0.23469 0.11983 0.58019
 H159 H 0.22024 0.05938 0.54879
 H160 H 0.23448 0.07530 0.51457
 C161 C 0.32104 0.14733 0.52038
 C162 C 0.20170 0.16621 0.47783
 C163 C 0.22619 0.08835 0.56737
 C164 C 0.26252 0.07200 0.44488
 C165 C 0.16278 0.48697 0.21714
 H166 H 0.16728 0.48216 0.23321
 C167 C 0.17617 0.48229 0.19949
 H168 H 0.19076 0.47366 0.20219
 C169 C 0.13829 0.50391 0.19422
 H170 H 0.12358 0.51233 0.19205
 C171 C 0.15115 0.49953 0.17612
 H172 H 0.14596 0.50458 0.16033
 N173 N 0.14383 0.49692 0.21418
 C174 C 0.13711 0.49588 0.28183
 H175 H 0.12620 0.48197 0.28231
 C176 C 0.14697 0.50279 0.30080
 H177 H 0.14356 0.49399 0.31567
 C178 C 0.15397 0.52475 0.26211
 H179 H 0.15635 0.53334 0.24697
 C180 C 0.16392 0.53241 0.28078
 H181 H 0.17409 0.54688 0.27983
 Zn182 Zn 0.12448 0.49911 0.23836
 N183 N 0.14042 0.50710 0.26308
 C184 C 0.12325 0.45469 0.24494
 N185 N 0.11053 0.47193 0.24360
 C186 C 0.08870 0.46985 0.24679
 C187 C 0.07894 0.44979 0.25168
 C188 C 0.11421 0.43443 0.24971
 C189 C 0.10331 0.53812 0.24510
 C190 C 0.08949 0.55454 0.24007
 C191 C 0.07519 0.53289 0.21107
 C192 C 0.08922 0.51684 0.21674
 N193 N 0.10349 0.52000 0.23300
 H194 H 0.14055 0.45666 0.24274
 H195 H 0.07887 0.48378 0.24607
 H196 H 0.06160 0.44852 0.25451
 H197 H 0.12482 0.42107 0.25094
 H198 H 0.11423 0.54018 0.25839
 H199 H 0.09021 0.56911 0.24947
 H200 H 0.06454 0.53031 0.19756
 H201 H 0.08919 0.50204 0.20773
 C202 C 0.16015 0.52158 0.30054
 C203 C 0.17006 0.48803 0.17853
 C204 C 0.07562 0.55230 0.22246
 C205 C 0.09179 0.43177 0.25337
 C206 C -0.15218 0.01468 0.23495
 H207 H -0.15316 0.02163 0.25089
 C208 C -0.16389 0.02326 0.21802
 H209 H -0.17398 0.03673 0.22132
 C210 C -0.13717 -0.01083 0.21141
 H211 H -0.12637 -0.02379 0.20872
 C212 C -0.14839 -0.00267 0.19402
 H213 H -0.14617 -0.00986 0.17829
 N214 N -0.13924 -0.00215 0.23142
 C215 C -0.12776 -0.03184 0.29408
 H216 H -0.11052 -0.03378 0.29198
 C217 C -0.13811 -0.03851 0.31326
 H218 H -0.12869 -0.04570 0.32577
 C219 C -0.16073 -0.01992 0.28017
 H220 H -0.16945 -0.01269 0.26721
 C221 C -0.17183 -0.02658 0.29910
 H222 H -0.18907 -0.02427 0.30055
 Zn223 Zn -0.12204 -0.01239 0.25410
 N224 N -0.13898 -0.02223 0.27826
 C225 C -0.10365 0.01665 0.28378
 N226 N -0.10308 0.01036 0.26279
 C227 C -0.09009 0.02089 0.24791
 C228 C -0.07691 0.03846 0.25405
 C229 C -0.09055 0.03376 0.29065
 C230 C -0.11915 -0.05389 0.24010
 C231 C -0.10976 -0.07254 0.23296
 C232 C -0.07455 -0.05464 0.23519
 C233 C -0.08469 -0.03619 0.24232
 N234 N -0.10664 -0.03615 0.24438
 H235 H -0.11453 0.00870 0.29530
 H236 H -0.09021 0.01581 0.23123
 H237 H -0.06676 0.04678 0.24202
 H238 H -0.09145 0.03847 0.30744
 H239 H -0.13655 -0.05343 0.24214
 H240 H -0.12018 -0.08636 0.22951
 H241 H -0.05708 -0.05439 0.23342
 H242 H -0.07505 -0.02198 0.24616
 C243 C -0.16039 -0.03566 0.31611
 C244 C -0.16195 0.01473 0.19707
 C245 C -0.08717 -0.07311 0.23029
 C246 C -0.07703 0.04501 0.27572
 C247 C 0.33761 0.49821 0.70939
 H248 H 0.33014 0.49518 0.72508
 C249 C 0.32516 0.50560 0.69241
 H250 H 0.30812 0.50821 0.69525
 C251 C 0.36886 0.49860 0.68663
 H252 H 0.38597 0.49595 0.68459
 C253 C 0.35703 0.50578 0.66922
 H254 H 0.36526 0.50863 0.65383
 N255 N 0.35911 0.49516 0.70627
 C256 C 0.36205 0.45500 0.75908
 H257 H 0.37109 0.44410 0.74928
 C258 C 0.35229 0.44753 0.77827
 H259 H 0.35383 0.43086 0.78270
 C260 C 0.35005 0.49000 0.76568
 H261 H 0.34970 0.50665 0.76083
 C262 C 0.34012 0.48320 0.78518
 H263 H 0.33195 0.49472 0.79512
 Zn264 Zn 0.37718 0.48609 0.72867
 N265 N 0.36088 0.47592 0.75316
 C266 C 0.40676 0.50718 0.75592
 N267 N 0.39492 0.50950 0.73781
 C268 C 0.39392 0.52881 0.72766
 C269 C 0.40476 0.54686 0.73593
 C270 C 0.41776 0.52486 0.76485
 C271 C 0.38258 0.44782 0.70720
 C272 C 0.39308 0.43003 0.69933
 C273 C 0.42683 0.44527 0.71241
 C274 C 0.41562 0.46288 0.72004
 N275 N 0.39383 0.46363 0.71760
 H276 H 0.40700 0.49171 0.76388
 H277 H 0.38413 0.53046 0.71352
 H278 H 0.40328 0.56214 0.72785
 H279 H 0.42665 0.52277 0.77958
 H280 H 0.36528 0.44890 0.70540
 H281 H 0.38362 0.41755 0.69140
 H282 H 0.44411 0.44476 0.71478
 H283 H 0.42428 0.47573 0.72818
 C284 C 0.34142 0.46172 0.79182
 C285 C 0.33491 0.50959 0.67201
 C286 C 0.41547 0.42843 0.70208
 C287 C 0.41654 0.54513 0.75502
 C288 C 0.62330 0.97881 0.72652
 H289 H 0.60680 0.97383 0.73061
 C290 C 0.63266 0.97150 0.70751
 H291 H 0.62299 0.96124 0.69712
 C292 C 0.65583 0.99754 0.73560
 H293 H 0.66486 1.00750 0.74674
 C294 C 0.66591 0.99061 0.71651
 H295 H 0.68266 0.99535 0.71313
 N296 N 0.63480 0.99162 0.74015
 C297 C 0.63724 0.99634 0.80702
 H298 H 0.62680 0.98217 0.80856
 C299 C 0.64915 1.00317 0.82478
 H300 H 0.64772 0.99385 0.83959
 C301 C 0.65096 1.02586 0.78616
 H302 H 0.65126 1.03484 0.77115
 C303 C 0.66287 1.03353 0.80368
 H304 H 0.67244 1.04831 0.80173
 Zn305 Zn 0.61926 0.99928 0.76558
 N306 N 0.63808 1.00781 0.78825
 C307 C 0.61407 0.95611 0.77539
 N308 N 0.60291 0.97442 0.77429
 C309 C 0.58115 0.97433 0.77801
 C310 C 0.56975 0.95509 0.78300
 C311 C 0.60336 0.93661 0.78015
 C312 C 0.60165 1.04082 0.76929
 C313 C 0.59049 1.05838 0.76173
 C314 C 0.57631 1.03621 0.73307
 C315 C 0.58773 1.01915 0.74114
 N316 N 0.60071 1.02187 0.75849
 H317 H 0.63135 0.95667 0.77221
 H318 H 0.57262 0.98910 0.77692
 H319 H 0.55241 0.95524 0.78579
 H320 H 0.61266 0.92226 0.78078
 H321 H 0.61155 1.04261 0.78339
 H322 H 0.59217 1.07354 0.77004
 H323 H 0.56674 1.03377 0.71875
 H324 H 0.58675 1.00392 0.73303
 C325 C 0.66180 1.02235 0.82354
 C326 C 0.65426 0.97730 0.70223
 C327 C 0.57815 1.05636 0.74296
 C328 C 0.58088 0.93587 0.78392
 C329 C 0.02376 0.24103 -0.13250
 H330 H 0.03248 0.25638 -0.13295
 C331 C 0.03201 0.22362 -0.14364
 H332 H 0.04706 0.22576 -0.15274
 C333 C -0.00616 0.21955 -0.11960
 H334 H -0.02077 0.21783 -0.10984
 C335 C 0.00138 0.20180 -0.13063
 H336 H -0.00770 0.18667 -0.12929
 N337 N 0.00501 0.23872 -0.12076
 C338 C -0.02162 0.30196 -0.11334
 H339 H -0.02357 0.30209 -0.09593
 C340 C -0.02747 0.31963 -0.12549
 H341 H -0.03405 0.33325 -0.11726
 C342 C -0.01056 0.28390 -0.14501
 H343 H -0.00397 0.26991 -0.15251
 C344 C -0.01644 0.30118 -0.15786
 H345 H -0.01420 0.30035 -0.17523
 Zn346 Zn -0.00452 0.26239 -0.10461
 N347 N -0.01292 0.28477 -0.12314
 C348 C 0.02741 0.29245 -0.09192
 N349 N 0.01893 0.27247 -0.08752
 C350 C 0.02844 0.25938 -0.07310
 C351 C 0.04743 0.26623 -0.06270
 C352 C 0.04622 0.29986 -0.08201
 C353 C -0.04735 0.25016 -0.09978
 C354 C -0.06662 0.24288 -0.08988
 C355 C -0.04882 0.24411 -0.05541
 C356 C -0.02978 0.25148 -0.06611
 N357 N -0.02934 0.25392 -0.08797
 H358 H 0.02020 0.30247 -0.10384
 H359 H 0.02172 0.24335 -0.07024
 H360 H 0.05512 0.25543 -0.05172
 H361 H 0.05276 0.31569 -0.08623
 H362 H -0.04656 0.25244 -0.11712
 H363 H -0.08044 0.23977 -0.10006
 H364 H -0.04859 0.24191 -0.03804
 H365 H -0.01533 0.25490 -0.05700
 C366 C -0.02476 0.31948 -0.14806
 C367 C 0.02080 0.20363 -0.14272
 C368 C -0.06765 0.23931 -0.06734
 C369 C 0.05676 0.28661 -0.06748
 C370 C 0.47132 0.24177 0.17266
 H371 H 0.46156 0.25486 0.16760
 C372 C 0.46176 0.22457 0.18432
 H373 H 0.44464 0.22471 0.18830
 C374 C 0.50525 0.22529 0.17262
 H375 H 0.52209 0.22545 0.16755
 C376 C 0.49640 0.20784 0.18439
 H377 H 0.50665 0.19472 0.18833
 N378 N 0.49257 0.24156 0.16664
 C379 C 0.52534 0.30202 0.14798
 H380 H 0.52698 0.29913 0.13081
 C381 C 0.53345 0.32114 0.15653
 H382 H 0.54140 0.33276 0.14572
 C383 C 0.51273 0.29018 0.18256
 H384 H 0.50450 0.27804 0.19253
 C385 C 0.52071 0.30925 0.19189
 H386 H 0.51857 0.31162 0.20910
 Zn387 Zn 0.50383 0.26224 0.14667
 N388 N 0.51503 0.28706 0.16090
 C389 C 0.47686 0.29151 0.12601
 N390 N 0.48104 0.27036 0.12814
 C391 C 0.46842 0.25513 0.11825
 C392 C 0.45119 0.26102 0.10532
 C393 C 0.46012 0.29808 0.11307
 C394 C 0.54752 0.25669 0.13434
 C395 C 0.56480 0.24785 0.12319
 C396 C 0.53937 0.22435 0.10488
 C397 C 0.52250 0.23383 0.11625
 N398 N 0.52677 0.24988 0.13051
 H399 H 0.48620 0.30349 0.13457
 H400 H 0.47132 0.23835 0.12082
 H401 H 0.44129 0.24869 0.09766
 H402 H 0.45725 0.31503 0.11175
 H403 H 0.55085 0.26870 0.14641
 H404 H 0.58112 0.25356 0.12661
 H405 H 0.53560 0.21162 0.09361
 H406 H 0.50603 0.22818 0.11381
 C407 C 0.53108 0.32511 0.17874
 C408 C 0.47423 0.20703 0.18987
 C409 C 0.56087 0.23145 0.10823
 C410 C 0.44700 0.28280 0.10251
 C411 C 0.96447 0.73678 0.64892
 H412 H 0.95325 0.74570 0.63962
 C413 C 0.95702 0.71819 0.65958
 H414 H 0.94006 0.71342 0.65846
 C415 C 1.00019 0.73154 0.66058
 H416 H 1.01710 0.73665 0.66042
 C417 C 0.99342 0.71261 0.67139
 H418 H 1.00523 0.70335 0.67970
 N419 N 0.98575 0.74307 0.64942
 C420 C 1.01048 0.80840 0.63672
 H421 H 1.00836 0.80871 0.61940
 C422 C 1.01719 0.82701 0.64739
 H423 H 1.02037 0.84153 0.63805
 C424 C 1.00844 0.78899 0.66975
 H425 H 1.00469 0.77418 0.67838
 C426 C 1.01528 0.80727 0.68111
 H427 H 1.01687 0.80629 0.69848
 Zn428 Zn 0.99562 0.76641 0.63156
 N429 N 1.00627 0.78990 0.64793
 C430 C 0.95689 0.78663 0.62742
 N431 N 0.97202 0.77631 0.61566
 C432 C 0.96973 0.77308 0.59408
 C433 C 0.95108 0.77961 0.58372
 C434 C 0.93806 0.79329 0.61781
 C435 C 1.03775 0.76598 0.61257
 C436 C 1.05458 0.75709 0.60068
 C437 C 1.02985 0.72839 0.59003
 C438 C 1.01346 0.73790 0.60202
 N439 N 1.01769 0.75626 0.61311
 H440 H 0.95923 0.78916 0.64451
 H441 H 0.98211 0.76510 0.58496
 H442 H 0.94927 0.77651 0.56665
 H443 H 0.92609 0.80108 0.62770
 H444 H 1.04093 0.78032 0.62182
 H445 H 1.07051 0.76489 0.60082
 H446 H 1.02619 0.71355 0.58166
 H447 H 0.99745 0.73032 0.60301
 C448 C 1.01963 0.82666 0.66991
 C449 C 0.97158 0.70555 0.67067
 C450 C 1.05083 0.73784 0.58948
 C451 C 0.93477 0.78953 0.59574
 C452 C 0.51735 0.74016 0.34822
 H453 H 0.52494 0.75603 0.34884
 C454 C 0.52737 0.72393 0.33671
 H455 H 0.54260 0.72755 0.32833
 C456 C 0.48876 0.71602 0.35924
 H457 H 0.47407 0.71276 0.36854
 C458 C 0.49811 0.69941 0.34783
 H459 H 0.49024 0.68363 0.34837
 N460 N 0.49849 0.73592 0.35933
 C461 C 0.46800 0.79644 0.37282
 H462 H 0.46567 0.79430 0.39008
 C463 C 0.46126 0.81503 0.36284
 H464 H 0.45369 0.82698 0.37275
 C465 C 0.48083 0.78312 0.33940
 H466 H 0.48848 0.77060 0.33039
 C467 C 0.47396 0.80138 0.32860
 H468 H 0.47655 0.80265 0.31128
 Zn469 Zn 0.48730 0.75747 0.37736
 N470 N 0.47805 0.78120 0.36118
 C471 C 0.51595 0.78770 0.39643
 N472 N 0.50964 0.76662 0.39620
 C473 C 0.52013 0.75189 0.40803
 C474 C 0.53776 0.75825 0.42070
 C475 C 0.53313 0.79477 0.40909
 C476 C 0.44497 0.74213 0.38070
 C477 C 0.42579 0.73416 0.39032
 C478 C 0.44305 0.73570 0.42503
 C479 C 0.46204 0.74366 0.41466
 N480 N 0.46266 0.74647 0.39284
 H481 H 0.50805 0.79914 0.38645
 H482 H 0.51506 0.73515 0.40727
 H483 H 0.54610 0.74634 0.42984
 H484 H 0.53789 0.81163 0.40878
 H485 H 0.44587 0.74480 0.36341
 H486 H 0.41202 0.73070 0.38018
 H487 H 0.44285 0.73338 0.44238
 H488 H 0.47622 0.74756 0.42404
 C489 C 0.46430 0.81789 0.34040
 C490 C 0.51786 0.70314 0.33664
 C491 C 0.42462 0.73073 0.41277
 C492 C 0.54442 0.77999 0.42130
 C493 C 0.39915 -0.01573 0.27753
 H494 H 0.39807 -0.00117 0.28682
 C495 C 0.41106 -0.03261 0.28537
 H496 H 0.41932 -0.03074 0.30055
 C497 C 0.38858 -0.03627 0.24718
 H498 H 0.37925 -0.03797 0.23267
 C499 C 0.40055 -0.05343 0.25426
 H500 H 0.40036 -0.06808 0.24497
 N501 N 0.38779 -0.01798 0.25900
 C502 C 0.37240 0.04595 0.23593
 H503 H 0.35580 0.04280 0.23141
 C504 C 0.38223 0.06597 0.23141
 H505 H 0.37284 0.07814 0.22383
 C506 C 0.40500 0.03346 0.25006
 H507 H 0.41396 0.02070 0.25705
 C508 C 0.41556 0.05325 0.24565
 H509 H 0.43250 0.05549 0.24953
 Zn510 Zn 0.36844 0.00373 0.25115
 N511 N 0.38367 0.03028 0.24549
 C512 C 0.33401 0.02355 0.27359
 N513 N 0.34790 0.00714 0.27418
 C514 C 0.34798 -0.00641 0.29149
 C515 C 0.33500 -0.00276 0.30969
 C516 C 0.32060 0.02768 0.29138
 C517 C 0.36643 -0.00460 0.20716
 C518 C 0.35730 -0.01126 0.18778
 C519 C 0.32287 -0.01669 0.20651
 C520 C 0.33272 -0.01000 0.22561
 N521 N 0.35418 -0.00438 0.22560
 H522 H 0.33363 0.03382 0.25956
 H523 H 0.35837 -0.01992 0.29147
 H524 H 0.33589 -0.01336 0.32353
 H525 H 0.31025 0.04129 0.29081
 H526 H 0.38344 0.00007 0.20764
 H527 H 0.36749 -0.01160 0.17338
 H528 H 0.30586 -0.02148 0.20688
 H529 H 0.32332 -0.00967 0.24050
 C530 C 0.40408 0.06990 0.23636
 C531 C 0.41151 -0.05193 0.27389
 C532 C 0.33528 -0.01763 0.18730
 C533 C 0.32147 0.01480 0.30999
 C534 C 0.08114 1.03930 0.77823
 H535 H 0.07148 1.02587 0.77230
 C536 C 0.07099 1.05728 0.78649
 H537 H 0.05348 1.05755 0.78680
 C538 C 0.11566 1.05531 0.78506
 H539 H 0.13310 1.05436 0.78456
 C540 C 0.10625 1.07358 0.79320
 H541 H 0.11665 1.08657 0.79896
 N542 N 0.10313 1.03874 0.77751
 C543 C 0.08746 0.99489 0.73888
 H544 H 0.08905 1.00979 0.72988
 C545 C 0.07549 0.97754 0.73048
 H546 H 0.06774 0.97937 0.71506
 C547 C 0.09661 0.97421 0.76938
 H548 H 0.10520 0.97289 0.78437
 C549 C 0.08474 0.95651 0.76165
 H550 H 0.08432 0.94171 0.77087
 Zn551 Zn 0.11782 1.01497 0.76605
 N552 N 0.09811 0.99277 0.75775
 C553 C 0.15043 0.98873 0.78238
 N554 N 0.13630 1.00419 0.78756
 C555 C 0.13438 1.01135 0.80822
 C556 C 0.14713 1.00319 0.82448
 C557 C 0.16333 0.97994 0.79822
 C558 C 0.13580 1.04496 0.73534
 C559 C 0.14721 1.05163 0.71674
 C560 C 0.15437 1.01468 0.70906
 C561 C 0.14299 1.00872 0.72803
 N562 N 0.13418 1.02384 0.74092
 H563 H 0.15144 0.98287 0.76605
 H564 H 0.12256 1.02302 0.81234
 H565 H 0.14510 1.00899 0.84082
 H566 H 0.17432 0.96752 0.79377
 H567 H 0.12802 1.05680 0.74502
 H568 H 0.14820 1.06854 0.71273
 H569 H 0.16120 1.00240 0.69902
 H570 H 0.14071 0.99194 0.73214
 C571 C 0.07444 0.95785 0.74165
 C572 C 0.08363 1.07482 0.79392
 C573 C 0.15669 1.03643 0.70330
 C574 C 0.16173 0.98715 0.81962
 C575 C 0.59633 0.54323 0.26672
 H576 H 0.58802 0.52807 0.26360
 C577 C 0.58459 0.56053 0.27417
 H578 H 0.56729 0.55840 0.27686
 C579 C 0.62885 0.56452 0.26658
 H580 H 0.64611 0.56594 0.26340
 C581 C 0.61777 0.58223 0.27390
 H582 H 0.62673 0.59719 0.27645
 N583 N 0.61807 0.54550 0.26321
 C584 C 0.61585 0.49389 0.22246
 H585 H 0.62477 0.50342 0.21050
 C586 C 0.60429 0.47560 0.21589
 H587 H 0.60439 0.47163 0.19888
 C588 C 0.60576 0.48701 0.25901
 H589 H 0.60676 0.49144 0.27584
 C590 C 0.59407 0.46835 0.25313
 H591 H 0.58595 0.45860 0.26555
 Zn592 Zn 0.63450 0.52299 0.25198
 N593 N 0.61643 0.49929 0.24369
 C594 C 0.66469 0.49515 0.26852
 N595 N 0.65362 0.51305 0.27303
 C596 C 0.65474 0.52248 0.29276
 C597 C 0.66725 0.51376 0.30896
 C598 C 0.67732 0.48585 0.28426
 C599 C 0.63770 0.54458 0.21283
 C600 C 0.64670 0.55143 0.19308
 C601 C 0.68079 0.53714 0.20360
 C602 C 0.67107 0.53050 0.22325
 N603 N 0.64974 0.53387 0.22721
 H604 H 0.66320 0.48776 0.25282
 H605 H 0.64550 0.53644 0.29620
 H606 H 0.66758 0.52131 0.32466
 H607 H 0.68567 0.47138 0.28041
 H608 H 0.62081 0.54713 0.21645
 H609 H 0.63655 0.55943 0.18171
 H610 H 0.69762 0.53381 0.20045
 H611 H 0.68042 0.52218 0.23501
 C612 C 0.59339 0.46237 0.23128
 C613 C 0.59532 0.58039 0.27780
 C614 C 0.66841 0.54738 0.18803
 C615 C 0.67851 0.49501 0.30492
 C616 C 0.91448 0.47989 0.76838
 H617 H 0.91311 0.49530 0.77608
 C618 C 0.92603 0.46388 0.77838
 H619 H 0.93381 0.46732 0.79357
 C620 C 0.90470 0.45630 0.74005
 H621 H 0.89580 0.45311 0.72551
 C622 C 0.91625 0.43992 0.74938
 H623 H 0.91619 0.42439 0.74168
 N624 N 0.90372 0.47574 0.74979
 C625 C 0.88834 0.53547 0.71789
 H626 H 0.87255 0.53032 0.71225
 C627 C 0.89698 0.55552 0.71175
 H628 H 0.88752 0.56564 0.70158
 C629 C 0.91983 0.52814 0.73744
 H630 H 0.92872 0.51740 0.74739
 C631 C 0.92920 0.54816 0.73156
 H632 H 0.94520 0.55265 0.73720
 Zn633 Zn 0.88460 0.49633 0.73904
 N634 N 0.89952 0.52239 0.73090
 C635 C 0.85067 0.51915 0.75823
 N636 N 0.86363 0.50222 0.76091
 C637 C 0.86257 0.49034 0.77945
 C638 C 0.84916 0.49618 0.79667
 C639 C 0.83701 0.52553 0.77500
 C640 C 0.88346 0.48326 0.69617
 C641 C 0.87444 0.47586 0.67701
 C642 C 0.83937 0.47371 0.69496
 C643 C 0.84913 0.48107 0.71389
 N644 N 0.87081 0.48560 0.71412
 H645 H 0.85132 0.52816 0.74331
 H646 H 0.87245 0.47654 0.78113
 H647 H 0.84914 0.48690 0.81151
 H648 H 0.82741 0.53949 0.77268
 H649 H 0.90063 0.48719 0.69680
 H650 H 0.88489 0.47410 0.66296
 H651 H 0.82211 0.47011 0.69508
 H652 H 0.83939 0.48316 0.72835
 C653 C 0.91756 0.56228 0.71880
 C654 C 0.92664 0.44343 0.76910
 C655 C 0.85210 0.47097 0.67620
 C656 C 0.83657 0.51434 0.79477
 C657 C 0.27374 0.41164 -0.02974
 H658 H 0.26637 0.42155 -0.01761
 C659 C 0.28124 0.42083 -0.04932
 H660 H 0.27951 0.43781 -0.05207
 C661 C 0.28487 0.37749 -0.04101
 H662 H 0.28604 0.36054 -0.03769
 C663 C 0.29256 0.38594 -0.06066
 H664 H 0.29973 0.37528 -0.07228
 N665 N 0.27535 0.39023 -0.02618
 C666 C 0.26505 0.39491 0.04005
 H667 H 0.27813 0.38435 0.04300
 C668 C 0.25772 0.40781 0.05676
 H669 H 0.26552 0.40710 0.07226
 C670 C 0.23846 0.40783 0.01668
 H671 H 0.23080 0.40740 0.00110
 C672 C 0.23056 0.42101 0.03301
 H673 H 0.21686 0.43078 0.02976
 Zn674 Zn 0.26431 0.37571 -0.00112
 N675 N 0.25541 0.39510 0.02047
 C676 C 0.30605 0.37097 0.01186
 N677 N 0.28718 0.35950 0.00943
 C678 C 0.28557 0.33819 0.01424
 C679 C 0.30340 0.32781 0.02253
 C680 C 0.32415 0.36131 0.01998
 C681 C 0.23277 0.36004 -0.02940
 C682 C 0.21345 0.34991 -0.03548
 C683 C 0.20874 0.33595 0.00083
 C684 C 0.22829 0.34650 0.00629
 N685 N 0.23978 0.35839 -0.00878
 H686 H 0.30690 0.38784 0.00772
 H687 H 0.27047 0.32931 0.01189
 H688 H 0.30181 0.31094 0.02663
 H689 H 0.33885 0.37099 0.02199
 H690 H 0.24166 0.36992 -0.04109
 H691 H 0.20813 0.35192 -0.05192
 H692 H 0.19949 0.32702 0.01312
 H693 H 0.23395 0.34578 0.02271
 C694 C 0.24009 0.42094 0.05347
 C695 C 0.29056 0.40784 -0.06520
 C696 C 0.20091 0.33799 -0.02024
 C697 C 0.32297 0.33949 0.02569
 C698 C 0.76986 0.09151 1.03561
 H699 H 0.77698 0.09042 1.01958
 C700 C 0.77814 0.07970 1.05267
 H701 H 0.79157 0.06943 1.04955
 C702 C 0.74432 0.10696 1.05927
 H703 H 0.73146 0.11795 1.06193
 C704 C 0.75219 0.09562 1.07677
 H705 H 0.74501 0.09786 1.09265
 N706 N 0.75325 0.10481 1.03918
 C707 C 0.72498 0.11840 0.97658
 H708 H 0.72433 0.13561 0.97820
 C709 C 0.71783 0.10858 0.95773
 H710 H 0.71156 0.11838 0.94495
 C711 C 0.73408 0.08491 0.99142
 H712 H 0.74044 0.07579 1.00461
 C713 C 0.72675 0.07433 0.97290
 H714 H 0.72765 0.05707 0.97194
 Zn715 Zn 0.74406 0.12263 1.01647
 N716 N 0.73346 0.10662 0.99270
 C717 C 0.77471 0.13971 0.98611
 N718 N 0.76816 0.14033 1.00719
 C719 C 0.77917 0.15267 1.02170
 C720 C 0.79722 0.16540 1.01502
 C721 C 0.79235 0.15234 0.97873
 C722 C 0.70180 0.12810 1.03027
 C723 C 0.68366 0.13869 1.03766
 C724 C 0.70504 0.17188 1.03711
 C725 C 0.72277 0.16065 1.02947
 N726 N 0.72089 0.13910 1.02648
 H727 H 0.76646 0.12926 0.97490
 H728 H 0.77394 0.15255 1.03848
 H729 H 0.80575 0.17520 1.02672
 H730 H 0.79713 0.15153 0.96184
 H731 H 0.70075 0.11099 1.02761
 H732 H 0.66871 0.12953 1.04074
 H733 H 0.70686 0.18899 1.03959
 H734 H 0.73799 0.16914 1.02607
 C735 C 0.71885 0.08628 0.95560
 C736 C 0.76946 0.08191 1.07366
 C737 C 0.68516 0.16085 1.04134
 C738 C 0.80386 0.16545 0.99319
 C739 C 0.25826 0.59152 0.51625
 H740 H 0.26544 0.59248 0.50018
 C741 C 0.26751 0.57894 0.53210
 H742 H 0.28176 0.57013 0.52799
 C743 C 0.23140 0.60255 0.54117
 H744 H 0.21762 0.61214 0.54479
 C745 C 0.24006 0.59010 0.55749
 H746 H 0.23265 0.59018 0.57347
 N747 N 0.24059 0.60307 0.52103
 C748 C 0.20926 0.61771 0.46042
 H749 H 0.20787 0.63480 0.46250
 C750 C 0.20216 0.60802 0.44148
 H751 H 0.19512 0.61779 0.42911
 C752 C 0.22059 0.58444 0.47399
 H753 H 0.22795 0.57537 0.48664
 C754 C 0.21342 0.57401 0.45534
 H755 H 0.21542 0.55692 0.45380
 Zn756 Zn 0.23046 0.62163 0.49944
 N757 N 0.21888 0.60601 0.47590
 C758 C 0.25991 0.63885 0.46803
 N759 N 0.25444 0.63909 0.48941
 C760 C 0.26668 0.65048 0.50371
 C761 C 0.28515 0.66235 0.49657
 C762 C 0.27796 0.65062 0.46021
 C763 C 0.18888 0.62789 0.51546
 C764 C 0.17125 0.63908 0.52322
 C765 C 0.19333 0.67179 0.52113
 C766 C 0.21053 0.65995 0.51326
 N767 N 0.20805 0.63838 0.51076
 H768 H 0.25057 0.62922 0.45692
 H769 H 0.26226 0.65009 0.52071
 H770 H 0.29477 0.67123 0.50817
 H771 H 0.28193 0.64999 0.44312
 H772 H 0.18729 0.61076 0.51308
 H773 H 0.15618 0.63033 0.52690
 H774 H 0.19562 0.68894 0.52304
 H775 H 0.22579 0.66804 0.50907
 C776 C 0.20454 0.58595 0.43857
 C777 C 0.25853 0.57827 0.55313
 C778 C 0.17333 0.66134 0.52620
 C779 C 0.29095 0.66251 0.47451
 C780 C 0.77057 0.90244 0.48938
 H781 H 0.77928 0.90145 0.50435
 C782 C 0.78003 0.91340 0.47162
 H783 H 0.79594 0.92101 0.47314
 C784 C 0.73978 0.89276 0.46888
 H785 H 0.72441 0.88420 0.46752
 C786 C 0.74846 0.90375 0.45089
 H787 H 0.73945 0.90357 0.43604
 N788 N 0.75089 0.89218 0.48765
 C789 C 0.71600 0.88144 0.54811
 H790 H 0.71015 0.86530 0.54470
 C791 C 0.70806 0.89192 0.56617
 H792 H 0.69607 0.88366 0.57645
 C793 C 0.73892 0.91145 0.53883
 H794 H 0.75087 0.91898 0.52803
 C795 C 0.73155 0.92253 0.55703
 H796 H 0.73788 0.93860 0.56007
 Zn797 Zn 0.73986 0.87466 0.51081
 N798 N 0.73106 0.89124 0.53479
 C799 C 0.76337 0.85186 0.54114
 N800 N 0.76175 0.85624 0.51970
 C801 C 0.77688 0.84967 0.50519
 C802 C 0.79503 0.83902 0.51225
 C803 C 0.78111 0.84123 0.54886
 C804 C 0.69713 0.87069 0.49891
 C805 C 0.67783 0.86096 0.49221
 C806 C 0.69535 0.82698 0.49140
 C807 C 0.71446 0.83745 0.49822
 N808 N 0.71499 0.85898 0.50159
 H809 H 0.75127 0.85724 0.55245
 H810 H 0.77530 0.85346 0.48823
 H811 H 0.80728 0.83458 0.50055
 H812 H 0.78225 0.83851 0.56609
 H813 H 0.69799 0.88775 0.50188
 H814 H 0.66396 0.87079 0.49005
 H815 H 0.69521 0.80989 0.48854
 H816 H 0.72886 0.82847 0.50066
 C817 C 0.71580 0.91275 0.57088
 C818 C 0.76901 0.91394 0.45196
 C819 C 0.67673 0.83883 0.48820
 C820 C 0.79756 0.83515 0.53445
 C821 C -0.00578 0.26980 0.39144
 H822 H 0.00961 0.27860 0.39030
 C823 C -0.02344 0.27887 0.40190
 H824 H -0.02141 0.29462 0.40898
 C825 C -0.02730 0.23900 0.38271
 H826 H -0.02899 0.22374 0.37469
 C827 C -0.04527 0.24734 0.39319
 H828 H -0.06050 0.23822 0.39322
 N829 N -0.00806 0.25030 0.38191
 C830 C 0.05521 0.22300 0.37184
 H831 H 0.05395 0.21964 0.35477
 C832 C 0.07367 0.21746 0.38284
 H833 H 0.08650 0.20974 0.37406
 C834 C 0.03976 0.23705 0.40384
 H835 H 0.02646 0.24468 0.41190
 C836 C 0.05790 0.23149 0.41560
 H837 H 0.05845 0.23498 0.43270
 Zn838 Zn 0.01528 0.24021 0.36502
 N839 N 0.03893 0.23299 0.38229
 C840 C 0.04530 0.26887 0.34412
 N841 N 0.02412 0.26220 0.34518
 C842 C 0.00897 0.27202 0.33332
 C843 C 0.01495 0.28942 0.31986
 C844 C 0.05201 0.28583 0.33064
 C845 C 0.00305 0.19732 0.36316
 C846 C -0.00365 0.17788 0.35413
 C847 C -0.00287 0.19496 0.31896
 C848 C 0.00388 0.21417 0.32872
 N849 N 0.00638 0.21501 0.35050
 H850 H 0.05708 0.26140 0.35403
 H851 H -0.00783 0.26663 0.33470
 H852 H 0.00268 0.29729 0.31077
 H853 H 0.06894 0.29096 0.33031
 H854 H 0.00544 0.19842 0.38040
 H855 H -0.00643 0.16411 0.36466
 H856 H -0.00509 0.19462 0.30165
 H857 H 0.00694 0.22839 0.31894
 C858 C 0.07526 0.22178 0.40499
 C859 C -0.04360 0.26770 0.40264
 C860 C -0.00689 0.17652 0.33176
 C861 C 0.03676 0.29652 0.31846
 C862 C 1.01898 0.76881 0.09179
 H863 H 1.00359 0.77631 0.09008
 C864 C 1.03738 0.77732 0.08088
 H865 H 1.03594 0.79132 0.07068
 C866 C 1.03964 0.74195 0.10785
 H867 H 1.04060 0.72844 0.11871
 C868 C 1.05841 0.74998 0.09739
 H869 H 1.07354 0.74229 0.10018
 N870 N 1.02042 0.75142 0.10494
 C871 C 0.95573 0.72248 0.11436
 H872 H 0.95625 0.72050 0.13172
 C873 C 0.93729 0.71580 0.10333
 H874 H 0.92374 0.70855 0.11237
 C875 C 0.97293 0.73446 0.08173
 H876 H 0.98688 0.74173 0.07343
 C877 C 0.95480 0.72776 0.06994
 H878 H 0.95493 0.73006 0.05259
 Zn879 Zn 0.99587 0.74155 0.12133
 N880 N 0.97284 0.73208 0.10360
 C881 C 0.96589 0.77087 0.13677
 N882 N 0.98654 0.76444 0.13882
 C883 C 1.00059 0.77486 0.15219
 C884 C 0.99386 0.79234 0.16438
 C885 C 0.95844 0.78791 0.14881
 C886 C 1.00611 0.69937 0.12671
 C887 C 1.01123 0.68051 0.13724
 C888 C 1.01019 0.69940 0.17120
 C889 C 1.00480 0.71794 0.15998
 N890 N 1.00312 0.71759 0.13810
 H891 H 0.95511 0.76306 0.12555
 H892 H 1.01707 0.76972 0.15322
 H893 H 1.00520 0.80051 0.17492
 H894 H 0.94193 0.79268 0.14677
 H895 H 1.00453 0.69956 0.10933
 H896 H 1.01369 0.66627 0.12774
 H897 H 1.01167 0.69993 0.18860
 H898 H 1.00207 0.73254 0.16873
 C899 C 0.93654 0.71861 0.08085
 C900 C 1.05750 0.76801 0.08382
 C901 C 1.01348 0.68036 0.15976
 C902 C 0.97245 0.79895 0.16281
 C903 C 0.53660 0.26581 0.58558
 H904 H 0.52092 0.27270 0.58380
 C905 C 0.55452 0.27443 0.57397
 H906 H 0.55237 0.28779 0.56308
 C907 C 0.55858 0.24075 0.60274
 H908 H 0.56029 0.22794 0.61429
 C909 C 0.57689 0.24892 0.59158
 H910 H 0.59238 0.24200 0.59455
 N911 N 0.53888 0.24917 0.59955
 C912 C 0.47966 0.21096 0.60981
 H913 H 0.48244 0.20713 0.62656
 C914 C 0.46221 0.20115 0.59938
 H915 H 0.45187 0.18970 0.60826
 C916 C 0.48928 0.23121 0.57837
 H917 H 0.49980 0.24301 0.57029
 C918 C 0.47166 0.22201 0.56738
 H919 H 0.46886 0.22678 0.55084
 Zn920 Zn 0.51473 0.23879 0.61646
 N921 N 0.49283 0.22566 0.59928
 C922 C 0.48117 0.26510 0.62947
 N923 N 0.50273 0.26211 0.63132
 C924 C 0.51562 0.27619 0.64236
 C925 C 0.50687 0.29437 0.65180
 C926 C 0.47179 0.28288 0.63869
 C927 C 0.52888 0.19861 0.62666
 C928 C 0.53398 0.18113 0.63940
 C929 C 0.52891 0.20281 0.67119
 C930 C 0.52362 0.21992 0.65775
 N931 N 0.52368 0.21746 0.63592
 H932 H 0.47118 0.25387 0.62053
 H933 H 0.53277 0.27354 0.64342
 H934 H 0.51742 0.30559 0.66025
 H935 H 0.45462 0.28493 0.63671
 H936 H 0.52863 0.19707 0.60926
 H937 H 0.53786 0.16625 0.63159
 H938 H 0.52859 0.20489 0.68855
 H939 H 0.51917 0.23499 0.66476
 C940 C 0.45786 0.20680 0.57797
 C941 C 0.57506 0.26606 0.57701
 C942 C 0.53389 0.18301 0.66199
 C943 C 0.48467 0.29798 0.64984
 C944 C 0.47336 0.76300 0.89963
 H945 H 0.48884 0.77156 0.89808
 C946 C 0.45700 0.77132 0.91258
 H947 H 0.46024 0.78610 0.92121
 C948 C 0.44996 0.73420 0.88906
 H949 H 0.44703 0.72011 0.87937
 C950 C 0.43320 0.74186 0.90196
 H951 H 0.41760 0.73339 0.90211
 N952 N 0.46948 0.74498 0.88787
 C953 C 0.52926 0.71559 0.86896
 H954 H 0.52451 0.71099 0.85286
 C955 C 0.54849 0.70834 0.87717
 H956 H 0.55841 0.69830 0.86715
 C957 C 0.52184 0.73403 0.90144
 H958 H 0.51131 0.74386 0.91093
 C959 C 0.54116 0.72726 0.91028
 H960 H 0.54529 0.73201 0.92654
 Zn961 Zn 0.49077 0.73669 0.86739
 N962 N 0.51638 0.72826 0.88101
 C963 C 0.51657 0.76035 0.83699
 N964 N 0.49775 0.76025 0.84870
 C965 C 0.48491 0.77751 0.84862
 C966 C 0.49159 0.79629 0.83766
 C967 C 0.52386 0.77876 0.82580
 C968 C 0.47807 0.69389 0.86235
 C969 C 0.47171 0.67526 0.85152
 C970 C 0.46970 0.69606 0.81859
 C971 C 0.47623 0.71433 0.83008
 N972 N 0.48027 0.71288 0.85155
 H973 H 0.52643 0.74643 0.83700
 H974 H 0.46975 0.77699 0.85760
 H975 H 0.48150 0.81008 0.83852
 H976 H 0.53932 0.77869 0.81729
 H977 H 0.48158 0.69322 0.87940
 H978 H 0.47020 0.66032 0.86047
 H979 H 0.46666 0.69747 0.80148
 H980 H 0.47826 0.72960 0.82183
 C981 C 0.55474 0.71420 0.89807
 C982 C 0.43645 0.76096 0.91351
 C983 C 0.46751 0.67615 0.82931
 C984 C 0.51164 0.79729 0.82659
 C985 C 0.44534 -0.12639 0.31113
 N986 N 0.45281 -0.14270 0.29901
 N987 N 0.45908 -0.16068 0.30840
 C988 C 0.45788 -0.16316 0.33027
 N989 N 0.45033 -0.14675 0.34226
 N990 N 0.44426 -0.12875 0.33291
 C991 C 0.43789 -0.10668 0.30105
 N992 N 0.43360 -0.08942 0.31342
 N993 N 0.42581 -0.07185 0.30465
 C994 C 0.42186 -0.07084 0.28316
 N995 N 0.42631 -0.08809 0.27075
 N996 N 0.43427 -0.10565 0.27950
 C997 C 0.95847 0.37306 0.81538
 N998 N 0.96218 0.35411 0.80556
 N999 N 0.96767 0.33711 0.81710
 C1000 C 0.96950 0.33837 0.83891
 N1001 N 0.96583 0.35737 0.84865
 N1002 N 0.96045 0.37437 0.83712
 C1003 C 0.95159 0.39163 0.80291
 N1004 N 0.94923 0.41083 0.81269
 N1005 N 0.94188 0.42743 0.80177
 C1006 C 0.93654 0.42549 0.78066
 N1007 N 0.93913 0.40630 0.77085
 N1008 N 0.94656 0.38971 0.78174
 C1009 C 0.04629 1.14939 0.82781
 N1010 N 0.05844 1.16785 0.82936
 N1011 N 0.05025 1.18515 0.83842
 C1012 C 0.02961 1.18466 0.84638
 N1013 N 0.01745 1.16617 0.84471
 N1014 N 0.02561 1.14889 0.83557
 C1015 C 0.05567 1.13015 0.81850
 N1016 N 0.04332 1.11201 0.81545
 N1017 N 0.05209 1.09446 0.80747
 C1018 C 0.07357 1.09434 0.80237
 N1019 N 0.08583 1.11254 0.80541
 N1020 N 0.07707 1.13009 0.81327
 C1021 C 0.54983 0.65165 0.30864
 N1022 N 0.55978 0.67135 0.30968
 N1023 N 0.54951 0.68780 0.31818
 C1024 C 0.52889 0.68520 0.32601
 N1025 N 0.51893 0.66548 0.32478
 N1026 N 0.52917 0.64905 0.31624
 C1027 C 0.56143 0.63330 0.30010
 N1028 N 0.55133 0.61371 0.29863
 N1029 N 0.56203 0.59694 0.29144
 C1030 C 0.58328 0.59908 0.28552
 N1031 N 0.59332 0.61874 0.28696
 N1032 N 0.58262 0.63551 0.29410
 C1033 C 0.55483 0.38392 0.20304
 N1034 N 0.55518 0.37990 0.18155
 N1035 N 0.54759 0.36127 0.17402
 C1036 C 0.53932 0.34580 0.18763
 N1037 N 0.53887 0.34984 0.20921
 N1038 N 0.54653 0.36855 0.21680
 C1039 C 0.56389 0.40448 0.21085
 N1040 N 0.56481 0.40906 0.23226
 N1041 N 0.57384 0.42758 0.23887
 C1042 C 0.58228 0.44218 0.22432
 N1043 N 0.58112 0.43754 0.20296
 N1044 N 0.57213 0.41911 0.19637
 C1045 C 0.03963 0.88288 0.70207
 N1046 N 0.03448 0.88340 0.68086
 N1047 N 0.02807 0.86557 0.67076
 C1048 C 0.02652 0.84647 0.68142
 N1049 N 0.03157 0.84600 0.70271
 N1050 N 0.03805 0.86385 0.71283
 C1051 C 0.04748 0.90251 0.71286
 N1052 N 0.05451 0.90190 0.73350
 N1053 N 0.06262 0.91956 0.74281
 C1054 C 0.06395 0.93854 0.73190
 N1055 N 0.05667 0.93913 0.71133
 N1056 N 0.04861 0.92148 0.70200
 C1057 C 0.94972 0.64545 0.69490
 N1058 N 0.93582 0.65915 0.68604
 N1059 N 0.94278 0.67833 0.67883
 C1060 C 0.96395 0.68467 0.68016
 N1061 N 0.97789 0.67100 0.68925
 N1062 N 0.97090 0.65174 0.69651
 C1063 C 0.94173 0.62395 0.70173
 N1064 N 0.95484 0.60977 0.71119
 N1065 N 0.94726 0.59017 0.71675
 C1066 C 0.92634 0.58401 0.71293
 N1067 N 0.91335 0.59829 0.70351
 N1068 N 0.92087 0.61783 0.69804
 C1069 C 0.44470 0.15020 0.21463
 N1070 N 0.46660 0.15250 0.21317
 N1071 N 0.47600 0.17074 0.20585
 C1072 C 0.46389 0.18743 0.19977
 N1073 N 0.44199 0.18516 0.20154
 N1074 N 0.43258 0.16692 0.20881
 C1075 C 0.43421 0.12964 0.22126
 N1076 N 0.41240 0.12675 0.22026
 N1077 N 0.40288 0.10784 0.22524
 C1078 C 0.41476 0.09106 0.23143
 N1079 N 0.43661 0.09404 0.23260
 N1080 N 0.44615 0.11295 0.22755
 C1081 C 0.31795 0.44000 -0.14750
 N1082 N 0.31661 0.46096 -0.15316
 N1083 N 0.32375 0.46789 -0.17254
 C1084 C 0.33246 0.45413 -0.18697
 N1085 N 0.33361 0.43319 -0.18124
 N1086 N 0.32650 0.42627 -0.16194
 C1087 C 0.31070 0.43205 -0.12608
 N1088 N 0.31271 0.41108 -0.12097
 N1089 N 0.30640 0.40356 -0.10163
 C1090 C 0.29785 0.41666 -0.08654
 N1091 N 0.29584 0.43770 -0.09166
 N1092 N 0.30218 0.44527 -0.11106
 C1093 C 0.80893 0.94638 0.37487
 N1094 N 0.83083 0.94790 0.37312
 N1095 N 0.84049 0.95361 0.35446
 C1096 C 0.82866 0.95808 0.33680
 N1097 N 0.80671 0.95669 0.33862
 N1098 N 0.79703 0.95087 0.35728
 C1099 C 0.79838 0.93923 0.39524
 N1100 N 0.77674 0.93480 0.39624
 N1101 N 0.76737 0.92720 0.41440
 C1102 C 0.77923 0.92384 0.43232
 N1103 N 0.80085 0.92857 0.43136
 N1104 N 0.81025 0.93608 0.41316
 C1105 C 0.80720 0.04138 1.14527
 N1106 N 0.80394 0.04886 1.16558
 N1107 N 0.81376 0.04018 1.18233
 C1108 C 0.82720 0.02361 1.17949
 N1109 N 0.83026 0.01609 1.15911
 N1110 N 0.82052 0.02481 1.14235
 C1111 C 0.79693 0.05138 1.12670
 N1112 N 0.80225 0.04569 1.10619
 N1113 N 0.79341 0.05522 1.08934
 C1114 C 0.77882 0.07075 1.09234
 N1115 N 0.77343 0.07629 1.11289
 N1116 N 0.78233 0.06684 1.12974
 C1117 C 0.30032 0.53534 0.62076
 N1118 N 0.29126 0.53373 0.64089
 N1119 N 0.30208 0.52526 0.65711
 C1120 C 0.32240 0.51815 0.65385
 N1121 N 0.33134 0.51968 0.63366
 N1122 N 0.32052 0.52808 0.61744
 C1123 C 0.28891 0.54554 0.60303
 N1124 N 0.29799 0.54679 0.58291
 N1125 N 0.28817 0.55686 0.56701
 C1126 C 0.26889 0.56612 0.57058
 N1127 N 0.25975 0.56471 0.59071
 N1128 N 0.26955 0.55461 0.60662
 C1129 C 0.18174 0.54778 0.35893
 N1130 N 0.17515 0.52685 0.35789
 N1131 N 0.16868 0.51840 0.33926
 C1132 C 0.16871 0.53051 0.32092
 N1133 N 0.17558 0.55138 0.32198
 N1134 N 0.18192 0.55986 0.34062
 C1135 C 0.18789 0.55747 0.37960
 N1136 N 0.19078 0.57904 0.38117
 N1137 N 0.19591 0.58801 0.39994
 C1138 C 0.19844 0.57579 0.41789
 N1139 N 0.19565 0.55417 0.41628
 N1140 N 0.19036 0.54518 0.39751
 C1141 C 0.68993 0.04747 0.87829
 N1142 N 0.68017 0.02766 0.87873
 N1143 N 0.67143 0.01942 0.86095
 C1144 C 0.67219 0.03056 0.84197
 N1145 N 0.68234 0.05025 0.84155
 N1146 N 0.69095 0.05857 0.85936
 C1147 C 0.69827 0.05719 0.89818
 N1148 N 0.70395 0.07837 0.89862
 N1149 N 0.71056 0.08751 0.91685
 C1150 C 0.71185 0.07584 0.93535
 N1151 N 0.70637 0.05457 0.93485
 N1152 N 0.69960 0.04545 0.91663
 C1153 C 0.68173 0.95246 0.64553
 N1154 N 0.69263 0.96800 0.65668
 N1155 N 0.68403 0.97602 0.67472
 C1156 C 0.66422 0.96883 0.68220
 N1157 N 0.65345 0.95336 0.67092
 N1158 N 0.66203 0.94533 0.65303
 C1159 C 0.69086 0.94284 0.62594
 N1160 N 0.68037 0.92568 0.61710
 N1161 N 0.68832 0.91636 0.59959
 C1162 C 0.70707 0.92383 0.59006
 N1163 N 0.71755 0.94116 0.59880
 N1164 N 0.70961 0.95048 0.61647
 C1165 C 0.20331 0.46482 0.12426
 N1166 N 0.21098 0.46185 0.14443
 N1167 N 0.20076 0.46971 0.16161
 C1168 C 0.18249 0.48090 0.15932
 N1169 N 0.17502 0.48410 0.13906
 N1170 N 0.18521 0.47622 0.12187
 C1171 C 0.21364 0.45471 0.10555
 N1172 N 0.20499 0.45606 0.08559
 N1173 N 0.21361 0.44570 0.06894
 C1174 C 0.23120 0.43357 0.07159
 N1175 N 0.23994 0.43246 0.09155
 N1176 N 0.23133 0.44279 0.10819
 C1177 C -0.11904 0.30657 0.43466
 N1178 N -0.11925 0.32818 0.43658
 N1179 N -0.13723 0.33770 0.44283
 C1180 C -0.15572 0.32601 0.44746
 N1181 N -0.15546 0.30434 0.44562
 N1182 N -0.13749 0.29480 0.43926
 C1183 C -0.09928 0.29624 0.42727
 N1184 N -0.09955 0.27499 0.42277
 N1185 N -0.08178 0.26587 0.41529
 C1186 C -0.06301 0.27759 0.41211
 N1187 N -0.06275 0.29882 0.41684
 N1188 N -0.08053 0.30796 0.42424
 C1189 C 0.36486 0.80156 0.95139
 N1190 N 0.36624 0.82301 0.95472
 N1191 N 0.34898 0.83345 0.96140
 C1192 C 0.32966 0.82287 0.96507
 N1193 N 0.32835 0.80134 0.96190
 N1194 N 0.34560 0.79089 0.95509
 C1195 C 0.38373 0.79042 0.94301
 N1196 N 0.38184 0.76974 0.93644
 N1197 N 0.39872 0.76018 0.92756
 C1198 C 0.41816 0.77088 0.92501
 N1199 N 0.42005 0.79146 0.93190
 N1200 N 0.40317 0.80105 0.94069
 C1201 C 1.13439 0.80534 0.04641
 N1202 N 1.13348 0.82047 0.03067
 N1203 N 1.15155 0.82993 0.02263
 C1204 C 1.17126 0.82471 0.03005
 N1205 N 1.17213 0.80951 0.04579
 N1206 N 1.15405 0.79999 0.05378
 C1207 C 1.11443 0.79528 0.05563
 N1208 N 1.11535 0.77930 0.07049
 N1209 N 1.09726 0.77051 0.07922
 C1210 C 1.07753 0.77738 0.07351
 N1211 N 1.07666 0.79335 0.05858
 N1212 N 1.09475 0.80210 0.04978
 C1213 C 0.65001 0.30328 0.53555
 N1214 N 0.64828 0.31822 0.51974
 N1215 N 0.66593 0.32770 0.51080
 C1216 C 0.68601 0.32268 0.51733
 N1217 N 0.68769 0.30766 0.53313
 N1218 N 0.67004 0.29812 0.54204
 C1219 C 0.63052 0.29325 0.54584
 N1220 N 0.63226 0.27774 0.56109
 N1221 N 0.61464 0.26901 0.57079
 C1222 C 0.59458 0.27544 0.56570
 N1223 N 0.59288 0.29094 0.55037
 N1224 N 0.61051 0.29965 0.54062
 C1225 C 0.38128 0.17174 0.54126
 N1226 N 0.36994 0.18275 0.52653
 N1227 N 0.35088 0.17499 0.51971
 C1228 C 0.34247 0.15592 0.52733
 N1229 N 0.35396 0.14493 0.54194
 N1230 N 0.37293 0.15269 0.54880
 C1231 C 0.40176 0.18049 0.54980
 N1232 N 0.41096 0.17067 0.56674
 N1233 N 0.42896 0.17888 0.57536
 C1234 C 0.43860 0.19719 0.56732
 N1235 N 0.42955 0.20690 0.55014
 N1236 N 0.41142 0.19873 0.54157
 C1237 C 0.86059 0.69181 0.03724
 N1238 N 0.84161 0.68904 0.04844
 N1239 N 0.82407 0.68082 0.03890
 C1240 C 0.82484 0.67498 0.01780
 N1241 N 0.84382 0.67797 0.00657
 N1242 N 0.86135 0.68628 0.01608
 C1243 C 0.88017 0.69960 0.04823
 N1244 N 0.89899 0.70371 0.03705
 N1245 N 0.91690 0.70996 0.04732
 C1246 C 0.91669 0.71214 0.06916
 N1247 N 0.89781 0.70808 0.08024
 N1248 N 0.87990 0.70196 0.06999
 C1249 C 0.63271 0.68309 0.93075
 N1250 N 0.64123 0.66568 0.92132
 N1251 N 0.65918 0.65743 0.92880
 C1252 C 0.66944 0.66631 0.94596
 N1253 N 0.66101 0.68389 0.95532
 N1254 N 0.64293 0.69211 0.94788
 C1255 C 0.61265 0.69162 0.92245
 N1256 N 0.60215 0.70736 0.93292
 N1257 N 0.58371 0.71458 0.92528
 C1258 C 0.57514 0.70637 0.90687
 N1259 N 0.58575 0.69067 0.89648
 N1260 N 0.60408 0.68341 0.90413
 C1261 C 0.14974 0.19583 0.44865
 N1262 N 0.16826 0.19242 0.43729
 N1263 N 0.18501 0.18367 0.44676
 C1264 C 0.18389 0.17790 0.46795
 N1265 N 0.16541 0.18158 0.47937
 N1266 N 0.14867 0.19043 0.46992
 C1267 C 0.13075 0.20381 0.43765
 N1268 N 0.11241 0.20832 0.44889
 N1269 N 0.09484 0.21438 0.43861
 C1270 C 0.09491 0.21597 0.41669
 N1271 N 0.11334 0.21159 0.40555
 N1272 N 0.13091 0.20566 0.41581
 C1273 C 0.55442 0.11039 0.71185
 N1274 N 0.55240 0.09068 0.70285
 N1275 N 0.55933 0.07351 0.71308
 C1276 C 0.56862 0.07530 0.73274
 N1277 N 0.57040 0.09503 0.74188
 N1278 N 0.56339 0.11225 0.73165
 C1279 C 0.54820 0.12932 0.69955
 N1280 N 0.54897 0.14921 0.70838
 N1281 N 0.54418 0.16632 0.69660
 C1282 C 0.53864 0.16418 0.67554
 N1283 N 0.53781 0.14426 0.66686
 N1284 N 0.54245 0.12719 0.67862
 C1285 C 1.04270 0.60522 0.19962
 N1286 N 1.04218 0.58647 0.18862
 N1287 N 1.05204 0.56947 0.19624
 C1288 C 1.06286 0.57053 0.21514
 N1289 N 1.06307 0.58924 0.22628
 N1290 N 1.05317 0.60625 0.21869
 C1291 C 1.03357 0.62442 0.19012
 N1292 N 1.03404 0.64334 0.20085
 N1293 N 1.02720 0.66106 0.19144
 C1294 C 1.01976 0.66055 0.17091
 N1295 N 1.01910 0.64153 0.16035
 N1296 N 1.02585 0.62383 0.16976
 C1297 C 0.94019 0.87131 0.20564
 N1298 N 0.91846 0.87264 0.20814
 N1299 N 0.90993 0.89019 0.21621
 C1300 C 0.92275 0.90721 0.22205
 N1301 N 0.94458 0.90585 0.21965
 N1302 N 0.95316 0.88821 0.21159
 C1303 C 0.94905 0.85217 0.19564
 N1304 N 0.97073 0.84967 0.19344
 N1305 N 0.97831 0.83254 0.18342
 C1306 C 0.96449 0.81739 0.17515
 N1307 N 0.94287 0.81991 0.17759
 N1308 N 0.93531 0.83690 0.18765
 C1309 C 0.44621 0.37319 0.68094
 N1310 N 0.45781 0.38925 0.69058
 N1311 N 0.44815 0.40687 0.69724
 C1312 C 0.42656 0.40910 0.69448
 N1313 N 0.41509 0.39299 0.68481
 N1314 N 0.42470 0.37542 0.67818
 C1315 C 0.45648 0.35366 0.67341
 N1316 N 0.44431 0.33803 0.66383
 N1317 N 0.45330 0.32036 0.65661
 C1318 C 0.47485 0.31751 0.65865
 N1319 N 0.48705 0.33314 0.66834
 N1320 N 0.47803 0.35088 0.67560
 C1321 C 0.44161 0.60053 0.78508
 N1322 N 0.43340 0.60158 0.76494
 N1323 N 0.42586 0.58393 0.75523
 C1324 C 0.42627 0.56451 0.76524
 N1325 N 0.43472 0.56349 0.78532
 N1326 N 0.44223 0.58114 0.79506
 C1327 C 0.44891 0.62009 0.79626
 N1328 N 0.45537 0.61915 0.81706
 N1329 N 0.46132 0.63695 0.82748
 C1330 C 0.46106 0.65640 0.81753
 N1331 N 0.45468 0.65728 0.79666
 N1332 N 0.44867 0.63948 0.78623
 C1333 C -0.04211 0.09931 0.29733
 N1334 N -0.04937 0.08383 0.31137
 N1335 N -0.06005 0.06644 0.30435
 C1336 C -0.06384 0.06375 0.28299
 N1337 N -0.05627 0.07912 0.26884
 N1338 N -0.04564 0.09663 0.27589
 C1339 C -0.03170 0.11900 0.30566
 N1340 N -0.02665 0.13603 0.29253
 N1341 N -0.01845 0.15425 0.30069
 C1342 C -0.01501 0.15610 0.32226
 N1343 N -0.01989 0.13894 0.33524
 N1344 N -0.02809 0.12079 0.32712
 C1345 C 0.06584 0.37208 0.27455
 N1346 N 0.05271 0.38882 0.27180
 N1347 N 0.06080 0.40770 0.26461
 C1348 C 0.08230 0.41053 0.25994
 N1349 N 0.09527 0.39364 0.26245
 N1350 N 0.08723 0.37483 0.26964
 C1351 C 0.05767 0.35179 0.28424
 N1352 N 0.07180 0.33661 0.28959
 N1353 N 0.06498 0.31884 0.29996
 C1354 C 0.04374 0.31546 0.30532
 N1355 N 0.02949 0.33050 0.29960
 N1356 N 0.03634 0.34838 0.28930
 C1357 C 0.54893 0.87676 0.79779
 N1358 N 0.56993 0.87771 0.79103
 N1359 N 0.57994 0.89647 0.78653
 C1360 C 0.56938 0.91507 0.78860
 N1361 N 0.54827 0.91410 0.79521
 N1362 N 0.53825 0.89529 0.79979
 C1363 C 0.53847 0.85603 0.80378
 N1364 N 0.51814 0.85486 0.81247
 N1365 N 0.50935 0.83611 0.81916
 C1366 C 0.52051 0.81782 0.81737
 N1367 N 0.54072 0.81904 0.80838
 N1368 N 0.54952 0.83775 0.80172
 C1369 C 0.70173 0.56821 0.10428
 N1370 N 0.72306 0.56711 0.09895
 N1371 N 0.73029 0.57287 0.07923
 C1372 C 0.71649 0.57994 0.06404
 N1373 N 0.69511 0.58068 0.06951
 N1374 N 0.68791 0.57497 0.08915
 C1375 C 0.69349 0.56273 0.12611
 N1376 N 0.67234 0.56546 0.13117
 N1377 N 0.66455 0.56076 0.15087
 C1378 C 0.67756 0.55314 0.16636
 N1379 N 0.69879 0.55041 0.16129
 N1380 N 0.70663 0.55517 0.14154
 C1381 C 0.19905 1.06462 0.62580
 N1382 N 0.20539 1.08555 0.62363
 N1383 N 0.21419 1.09294 0.60515
 C1384 C 0.21696 1.07973 0.58804
 N1385 N 0.21066 1.05873 0.59025
 N1386 N 0.20189 1.05130 0.60880
 C1387 C 0.18869 1.05692 0.64606
 N1388 N 0.18330 1.03585 0.64923
 N1389 N 0.17337 1.02922 0.66752
 C1390 C 0.16839 1.04343 0.68324
 N1391 N 0.17391 1.06447 0.68001
 N1392 N 0.18389 1.07107 0.66181
 C1393 C 0.20659 0.94774 0.88721
 N1394 N 0.21274 0.92724 0.88502
 N1395 N 0.22114 0.91690 0.90158
 C1396 C 0.22383 0.92660 0.92104
 N1397 N 0.21792 0.94730 0.92301
 N1398 N 0.20940 0.95763 0.90648
 C1399 C 0.19608 0.95860 0.86934
 N1400 N 0.18658 0.97761 0.87252
 N1401 N 0.17595 0.98682 0.85663
 C1402 C 0.17447 0.97745 0.83692
 N1403 N 0.18422 0.95854 0.83372
 N1404 N 0.19475 0.94927 0.84964
 C1405 C 0.71983 0.45233 0.37295
 N1406 N 0.72185 0.46136 0.39276
 N1407 N 0.72973 0.45030 0.40916
 C1408 C 0.73580 0.42977 0.40641
 N1409 N 0.73388 0.42087 0.38652
 N1410 N 0.72607 0.43192 0.37013
 C1411 C 0.71020 0.46401 0.35506
 N1412 N 0.70858 0.45490 0.33527
 N1413 N 0.69890 0.46494 0.31926
 C1414 C 0.69042 0.48448 0.32239
 N1415 N 0.69223 0.49364 0.34218
 N1416 N 0.70195 0.48362 0.35820
 C1417 C 0.81604 0.43886 0.59877
 N1418 N 0.79433 0.43708 0.59580
 N1419 N 0.78645 0.42844 0.57777
 C1420 C 0.80000 0.42120 0.56210
 N1421 N 0.82168 0.42315 0.56512
 N1422 N 0.82954 0.43183 0.58305
 C1423 C 0.82506 0.44772 0.61876
 N1424 N 0.84681 0.45036 0.62068
 N1425 N 0.85529 0.45785 0.63887
 C1426 C 0.84240 0.46292 0.65593
 N1427 N 0.82058 0.46029 0.65399
 N1428 N 0.81206 0.45285 0.63574
 C1429 C 0.30023 -0.05295 0.11085
 N1430 N 0.27861 -0.05642 0.10833
 N1431 N 0.27110 -0.06643 0.09085
 C1432 C 0.28496 -0.07345 0.07535
 N1433 N 0.30655 -0.06981 0.07791
 N1434 N 0.31403 -0.05973 0.09527
 C1435 C 0.30888 -0.04279 0.13038
 N1436 N 0.33043 -0.03829 0.13177
 N1437 N 0.33868 -0.02999 0.14972
 C1438 C 0.32574 -0.02593 0.16707
 N1439 N 0.30410 -0.03034 0.16562
 N1440 N 0.29582 -0.03859 0.14760
 C1441 C 0.28155 0.04174 0.38764
 N1442 N 0.28978 0.03585 0.40688
 N1443 N 0.28328 0.04498 0.42516
 C1444 C 0.26822 0.06031 0.42493
 N1445 N 0.25973 0.06589 0.40568
 N1446 N 0.26630 0.05683 0.38739
 C1447 C 0.29031 0.03330 0.36733
 N1448 N 0.28503 0.04205 0.34808
 N1449 N 0.29447 0.03577 0.32979
 C1450 C 0.30950 0.02042 0.33000
 N1451 N 0.31448 0.01144 0.34925
 N1452 N 0.30512 0.01779 0.36756
 C1453 C 0.79497 0.54955 0.86787
 N1454 N 0.78659 0.56924 0.86610
 N1455 N 0.77927 0.57929 0.88349
 C1456 C 0.77997 0.57009 0.90339
 N1457 N 0.78814 0.55023 0.90514
 N1458 N 0.79556 0.54017 0.88771
 C1459 C 0.80430 0.53934 0.84873
 N1460 N 0.81488 0.52074 0.85041
 N1461 N 0.82464 0.51245 0.83315
 C1462 C 0.82417 0.52242 0.81357
 N1463 N 0.81330 0.54085 0.81193
 N1464 N 0.80357 0.54914 0.82915
 C1465 C 0.10244 0.70670 0.55964
 N1466 N 0.10532 0.72688 0.56736
 N1467 N 0.08887 0.73690 0.57652
 C1468 C 0.06887 0.72717 0.57827
 N1469 N 0.06601 0.70704 0.57034
 N1470 N 0.08246 0.69700 0.56123
 C1471 C 0.12073 0.69522 0.55040
 N1472 N 0.11814 0.67439 0.54458
 N1473 N 0.13482 0.66371 0.53682
 C1474 C 0.15476 0.67343 0.53453
 N1475 N 0.15729 0.69435 0.54025
 N1476 N 0.14061 0.70502 0.54808
 C1477 C 0.61310 0.20282 1.07685
 N1478 N 0.61603 0.22163 1.08744
 N1479 N 0.59940 0.23077 1.09722
 C1480 C 0.57917 0.22153 1.09674
 N1481 N 0.57624 0.20279 1.08595
 N1482 N 0.59290 0.19358 1.07624
 C1483 C 0.63162 0.19231 1.06686
 N1484 N 0.62925 0.17225 1.05873
 N1485 N 0.64621 0.16238 1.05045
 C1486 C 0.66621 0.17218 1.04989
 N1487 N 0.66850 0.19235 1.05787
 N1488 N 0.65155 0.20220 1.06624
 C1489 C 0.87736 0.21265 0.96046
 N1490 N 0.89469 0.21789 0.97280
 N1491 N 0.91262 0.22691 0.96384
 C1492 C 0.91395 0.23104 0.94219
 N1493 N 0.89636 0.22600 0.93009
 N1494 N 0.87852 0.21698 0.93899
 C1495 C 0.85795 0.20142 0.96956
 N1496 N 0.84239 0.19400 0.95608
 N1497 N 0.82516 0.18286 0.96373
 C1498 C 0.82269 0.17873 0.98521
 N1499 N 0.83815 0.18640 0.99880
 N1500 N 0.85552 0.19749 0.99111
 C1501 C 0.36715 0.70458 0.44092
 N1502 N 0.36913 0.70748 0.41924
 N1503 N 0.38731 0.71593 0.41046
 C1504 C 0.40432 0.72180 0.42295
 N1505 N 0.40231 0.71896 0.44472
 N1506 N 0.38406 0.71051 0.45355
 C1507 C 0.34718 0.69450 0.45011
 N1508 N 0.34419 0.69179 0.47177
 N1509 N 0.32618 0.68194 0.47967
 C1510 C 0.31057 0.67439 0.46618
 N1511 N 0.31361 0.67730 0.44457
 N1512 N 0.33151 0.68716 0.43671
 C1513 C 0.59930 0.80240 0.45436
 N1514 N 0.58374 0.81592 0.44849
 N1515 N 0.56618 0.80863 0.43841
 C1516 C 0.56337 0.78749 0.43384
 N1517 N 0.57881 0.77385 0.44001
 N1518 N 0.59650 0.78118 0.45004
 C1519 C 0.61912 0.81114 0.46425
 N1520 N 0.63628 0.79874 0.46807
 N1521 N 0.65456 0.80737 0.47595
 C1522 C 0.65633 0.82869 0.48028
 N1523 N 0.63904 0.84092 0.47659
 N1524 N 0.62085 0.83235 0.46872
 C1525 C 0.11764 0.30704 -0.04472
 N1526 N 0.10815 0.31745 -0.06110
 N1527 N 0.08875 0.31103 -0.06796
 C1528 C 0.07799 0.29384 -0.05883
 N1529 N 0.08748 0.28334 -0.04237
 N1530 N 0.10694 0.28987 -0.03537
 C1531 C 0.13933 0.31437 -0.03799
 N1532 N 0.14851 0.30694 -0.01974
 N1533 N 0.16814 0.31427 -0.01399
 C1534 C 0.17933 0.32914 -0.02637
 N1535 N 0.17005 0.33638 -0.04459
 N1536 N 0.15049 0.32920 -0.05025
 C1537 C 0.39511 0.30411 0.06627
 N1538 N 0.39572 0.28320 0.07236
 N1539 N 0.41236 0.27621 0.08355
 C1540 C 0.42892 0.28991 0.08915
 N1541 N 0.42826 0.31073 0.08287
 N1542 N 0.41175 0.31767 0.07164
 C1543 C 0.37660 0.31251 0.05478
 N1544 N 0.37715 0.33335 0.04847
 N1545 N 0.36023 0.34166 0.03898
 C1546 C 0.34198 0.32955 0.03540
 N1547 N 0.34147 0.30858 0.04158
 N1548 N 0.35847 0.30020 0.05110
 C1549 C 0.87606 0.80625 0.56817
 N1550 N 0.87877 0.80698 0.58985
 N1551 N 0.89742 0.80173 0.59846
 C1552 C 0.91418 0.79550 0.58578
 N1553 N 0.91145 0.79469 0.56403
 N1554 N 0.89275 0.80003 0.55538
 C1555 C 0.85546 0.81260 0.55903
 N1556 N 0.85277 0.81412 0.53735
 N1557 N 0.83424 0.82083 0.52943
 C1558 C 0.81768 0.82620 0.54289
 N1559 N 0.82041 0.82442 0.56454
 N1560 N 0.83889 0.81777 0.57244
   
