data_POSCAR
  _audit_creation_date              2014-09-24
  _audit_creation_method            'ToBaCCo'
  _symmetry_space_group_name_H-M    'P1'
  _symmetry_Int_Tables_number       1
  _symmetry_cell_setting            triclinic
  loop_
  _symmetry_equiv_pos_as_xyz
 x,y,z
_cell_length_a 67.2594
_cell_length_b 67.1155
_cell_length_c 67.8960
_cell_angle_alpha 90.147800
_cell_angle_beta 90.692000
_cell_angle_gamma 89.820200
loop_
  _atom_site_label
  _atom_site_type_symbol
  _atom_site_fract_x
  _atom_site_fract_y
  _atom_site_fract_z
C1 C 0.18010 0.21173 0.21831
 N2 N 0.19271 0.19648 0.22269
 C3 C 0.20893 0.19288 0.21149
 N4 N 0.21245 0.20471 0.19573
 C5 C 0.20000 0.22001 0.19110
 N6 N 0.18385 0.22346 0.20248
 C7 C 0.69749 0.71260 0.72055
 N8 N 0.70976 0.69655 0.72194
 C9 C 0.72435 0.69348 0.70863
 N10 N 0.72664 0.70673 0.69375
 C11 C 0.71448 0.72288 0.69209
 N12 N 0.69992 0.72571 0.70556
 C13 C 0.31917 0.79723 0.72526
 N14 N 0.30593 0.81177 0.72988
 C15 C 0.28949 0.81508 0.71845
 N16 N 0.28638 0.80345 0.70223
 C17 C 0.29960 0.78893 0.69735
 N18 N 0.31593 0.78597 0.70892
 C19 C 0.80521 0.28892 0.21107
 N20 N 0.80299 0.27748 0.19465
 C21 C 0.78695 0.27965 0.18252
 N22 N 0.77296 0.29357 0.18687
 C23 C 0.77500 0.30535 0.20308
 N24 N 0.79113 0.30289 0.21513
 C25 C 0.80705 0.70482 0.28110
 N26 N 0.80386 0.71667 0.29701
 C27 C 0.78854 0.71308 0.30935
 N28 N 0.77630 0.69741 0.30561
 C29 C 0.77926 0.68540 0.28976
 N30 N 0.79468 0.68921 0.27758
 C31 C 0.31073 0.21442 -0.21919
 N32 N 0.30723 0.22685 -0.20379
 C33 C 0.29167 0.22380 -0.19160
 N34 N 0.27948 0.20799 -0.19490
 C35 C 0.28273 0.19529 -0.21021
 N36 N 0.29838 0.19869 -0.22226
 C37 C 0.69835 0.29122 -0.22523
 N38 N 0.71143 0.30627 -0.22821
 C39 C 0.72736 0.30894 -0.21599
 N40 N 0.73005 0.29626 -0.20060
 C41 C 0.71712 0.28115 -0.19735
 N42 N 0.70129 0.27871 -0.20974
 C43 C 0.18706 0.79565 0.27712
 N44 N 0.19941 0.81152 0.27524
 C45 C 0.21501 0.81418 0.28792
 N46 N 0.21791 0.80082 0.30270
 C47 C 0.20566 0.78498 0.30487
 N48 N 0.19032 0.78242 0.29195
 C49 C 0.45356 0.44168 0.47382
 N50 N 0.43803 0.45423 0.47700
 C51 C 0.43503 0.47044 0.46541
 N52 N 0.44765 0.47391 0.45034
 C53 C 0.46319 0.46145 0.44685
 N54 N 0.46613 0.44541 0.45874
 C55 C -0.04382 -0.06323 0.97134
 N56 N -0.03030 -0.06097 0.95681
 C57 C -0.03096 -0.04483 0.94480
 N58 N -0.04540 -0.03089 0.94737
 C59 C -0.05922 -0.03299 0.96168
 N60 N -0.05824 -0.04921 0.97362
 C61 C 1.03700 0.55699 0.96114
 N62 N 1.02494 0.55436 0.94514
 C63 C 1.02803 0.53917 0.93228
 N64 N 1.04348 0.52648 0.93551
 C65 C 1.05575 0.52885 0.95138
 N66 N 1.05240 0.54412 0.96414
 C67 C 0.53739 0.05099 0.47507
 N68 N 0.55430 0.04013 0.47760
 C69 C 0.55844 0.02445 0.46556
 N70 N 0.54546 0.01991 0.45071
 C71 C 0.52855 0.03072 0.44790
 N72 N 0.52459 0.04617 0.46021
 C73 C -0.03855 0.06072 0.53735
 N74 N -0.02551 0.05817 0.55258
 C75 C -0.02719 0.04246 0.56499
 N76 N -0.04213 0.02916 0.56203
 C77 C -0.05535 0.03142 0.54687
 N78 N -0.05342 0.04729 0.53460
 C79 C 0.46447 0.55467 0.02715
 N80 N 0.47671 0.55171 0.04295
 C81 C 0.47312 0.53688 0.05603
 N82 N 0.45703 0.52493 0.05317
 C83 C 0.44463 0.52773 0.03744
 N84 N 0.44849 0.54262 0.02454
 C85 C 0.54211 -0.06233 0.04361
 N86 N 0.55568 -0.04807 0.03934
 C87 C 0.55720 -0.03123 0.05040
 N88 N 0.54483 -0.02863 0.06588
 C89 C 0.53123 -0.04277 0.07045
 N90 N 0.53002 -0.05957 0.05929
 C91 C 1.04771 0.44478 0.51686
 N92 N 1.03518 0.44845 0.53203
 C93 C 1.03729 0.46500 0.54341
 N94 N 1.05223 0.47793 0.53961
 C95 C 1.06505 0.47444 0.52468
 N96 N 1.06266 0.45787 0.51334
 C97 C 0.40388 0.01458 0.23106
 H98 H 0.40465 0.02745 0.24067
 C99 C 0.41787 0.01209 0.21624
 H100 H 0.42952 0.02306 0.21472
 C101 C 0.38809 -0.01565 0.22202
 H102 H 0.37666 -0.02658 0.22447
 C103 C 0.40169 -0.01865 0.20690
 H104 H 0.40017 -0.03168 0.19759
 N105 N 0.38926 0.00091 0.23355
 C106 C 0.34221 0.03418 0.26252
 H107 H 0.34085 0.02567 0.27595
 C108 C 0.32983 0.05056 0.25915
 H109 H 0.31920 0.05477 0.27027
 C110 C 0.35787 0.03893 0.23182
 H111 H 0.36853 0.03408 0.22103
 C112 C 0.34567 0.05532 0.22777
 H113 H 0.34711 0.06290 0.21380
 Zn114 Zn 0.37125 0.00570 0.25424
 N115 N 0.35599 0.02880 0.24901
 C116 C 0.38650 0.02637 0.28775
 N117 N 0.38657 0.00888 0.27760
 C118 C 0.39833 -0.00661 0.28335
 C119 C 0.41027 -0.00505 0.30024
 C120 C 0.39830 0.02861 0.30467
 C121 C 0.34087 -0.01972 0.24121
 C122 C 0.32680 -0.03491 0.24243
 C123 C 0.33749 -0.04076 0.27602
 C124 C 0.35146 -0.02558 0.27409
 N125 N 0.35307 -0.01558 0.25680
 H126 H 0.37756 0.03874 0.28261
 H127 H 0.39832 -0.02025 0.27482
 H128 H 0.41920 -0.01772 0.30477
 H129 H 0.39826 0.04277 0.31235
 H130 H 0.34215 -0.01123 0.22777
 H131 H 0.31760 -0.03827 0.22967
 H132 H 0.33626 -0.04828 0.29004
 H133 H 0.36075 -0.02160 0.28656
 C134 C 0.33137 0.06133 0.24151
 C135 C 0.41683 -0.00465 0.20381
 C136 C 0.32497 -0.04570 0.26002
 C137 C 0.41036 0.01275 0.31117
 C138 C 0.09677 -0.00883 0.73256
 H139 H 0.09748 -0.02276 0.74051
 C140 C 0.08307 -0.00644 0.71714
 H141 H 0.07353 -0.01879 0.71312
 C142 C 0.10860 0.02405 0.72815
 H143 H 0.11828 0.03604 0.73276
 C144 C 0.09502 0.02714 0.71272
 H145 H 0.09445 0.04155 0.70561
 N146 N 0.10937 0.00620 0.73758
 C147 C 0.15719 -0.02633 0.76766
 H148 H 0.15767 -0.01875 0.78174
 C149 C 0.16988 -0.04246 0.76420
 H150 H 0.17980 -0.04739 0.77588
 C151 C 0.14345 -0.02914 0.73551
 H152 H 0.13345 -0.02367 0.72419
 C153 C 0.15599 -0.04517 0.73134
 H154 H 0.15542 -0.05179 0.71679
 Zn155 Zn 0.12698 0.00158 0.75909
 N156 N 0.14401 -0.02028 0.75355
 C157 C 0.11249 -0.02049 0.79208
 N158 N 0.11085 -0.00357 0.78117
 C159 C 0.09683 0.01043 0.78523
 C160 C 0.08395 0.00790 0.80096
 C161 C 0.10002 -0.02354 0.80811
 C162 C 0.15525 0.03054 0.74945
 C163 C 0.16744 0.04713 0.75240
 C164 C 0.15505 0.04986 0.78554
 C165 C 0.14297 0.03333 0.78189
 N166 N 0.14312 0.02417 0.76400
 H167 H 0.12339 -0.03168 0.78840
 H168 H 0.09562 0.02358 0.77610
 H169 H 0.07270 0.01912 0.80363
 H170 H 0.10188 -0.03689 0.81686
 H171 H 0.15528 0.02282 0.73544
 H172 H 0.17657 0.05223 0.74041
 H173 H 0.15488 0.05671 0.79999
 H174 H 0.13365 0.02773 0.79346
 C175 C 0.16933 -0.05221 0.74584
 C176 C 0.08204 0.01175 0.70697
 C177 C 0.16744 0.05708 0.77065
 C178 C 0.08549 -0.00921 0.81278
 C179 C 0.58912 0.48431 0.22897
 H180 H 0.58989 0.47024 0.23668
 C181 C 0.57593 0.48668 0.21310
 H182 H 0.56682 0.47419 0.20852
 C183 C 0.60037 0.51752 0.22553
 H184 H 0.60962 0.52963 0.23065
 C185 C 0.58733 0.52056 0.20964
 H186 H 0.58675 0.53507 0.20272
 N187 N 0.60123 0.49951 0.23466
 C188 C 0.64935 0.46826 0.26542
 H189 H 0.64913 0.47599 0.27942
 C190 C 0.66301 0.45289 0.26235
 H191 H 0.67302 0.44869 0.27424
 C192 C 0.63634 0.46438 0.23307
 H193 H 0.62623 0.46919 0.22154
 C194 C 0.64985 0.44901 0.22931
 H195 H 0.64992 0.44217 0.21486
 Zn196 Zn 0.61866 0.49493 0.25635
 N197 N 0.63620 0.47352 0.25097
 C198 C 0.60356 0.47098 0.28734
 N199 N 0.60269 0.48908 0.27839
 C200 C 0.58985 0.50341 0.28455
 C201 C 0.57774 0.50010 0.30076
 C202 C 0.59159 0.46696 0.30352
 C203 C 0.64672 0.52393 0.24677
 C204 C 0.65925 0.54025 0.24971
 C205 C 0.64741 0.54283 0.28307
 C206 C 0.63501 0.52653 0.27944
 N207 N 0.63472 0.51759 0.26144
 H208 H 0.61337 0.45952 0.28184
 H209 H 0.58924 0.51757 0.27698
 H210 H 0.56807 0.51196 0.30573
 H211 H 0.59236 0.45238 0.31027
 H212 H 0.64647 0.51632 0.23270
 H213 H 0.66832 0.54530 0.23766
 H214 H 0.64762 0.54952 0.29759
 H215 H 0.62592 0.52087 0.29115
 C216 C 0.66341 0.44303 0.24408
 C217 C 0.57496 0.50498 0.20313
 C218 C 0.65971 0.54997 0.26807
 C219 C 0.57854 0.48167 0.31055
 C220 C 0.91183 0.50523 0.70691
 H221 H 0.91370 0.51854 0.71576
 C222 C 0.92461 0.50147 0.69130
 H223 H 0.93645 0.51191 0.68841
 C224 C 0.89458 0.47511 0.70068
 H225 H 0.88310 0.46468 0.70457
 C226 C 0.90690 0.47085 0.68480
 H227 H 0.90433 0.45738 0.67635
 N228 N 0.89709 0.49220 0.71121
 C229 C 0.85337 0.52797 0.74229
 H230 H 0.85286 0.51995 0.75608
 C231 C 0.84127 0.54463 0.73934
 H232 H 0.83172 0.54954 0.75113
 C233 C 0.86671 0.53125 0.71032
 H234 H 0.87639 0.52577 0.69894
 C235 C 0.85475 0.54794 0.70669
 H236 H 0.85536 0.55510 0.69244
 Zn237 Zn 0.88107 0.49855 0.73306
 N238 N 0.86588 0.52173 0.72795
 C239 C 0.89952 0.52062 0.76403
 N240 N 0.89844 0.50263 0.75483
 C241 C 0.91039 0.48722 0.76039
 C242 C 0.92368 0.48937 0.77620
 C243 C 0.91267 0.52347 0.77984
 C244 C 0.84937 0.47300 0.72411
 C245 C 0.83552 0.45793 0.72724
 C246 C 0.84911 0.45364 0.76006
 C247 C 0.86282 0.46866 0.75622
 N248 N 0.86291 0.47780 0.73836
 H249 H 0.89038 0.53289 0.75899
 H250 H 0.90946 0.47317 0.75260
 H251 H 0.93269 0.47675 0.78069
 H252 H 0.91346 0.53798 0.78680
 H253 H 0.84948 0.48081 0.71019
 H254 H 0.82529 0.45398 0.71546
 H255 H 0.84914 0.44678 0.77447
 H256 H 0.87318 0.47317 0.76764
 C257 C 0.84178 0.55483 0.72130
 C258 C 0.92219 0.48411 0.67990
 C259 C 0.83529 0.44795 0.74542
 C260 C 0.92491 0.50768 0.78621
 C261 C 0.22322 0.40711 0.01045
 H262 H 0.23070 0.40663 0.02463
 C263 C 0.20828 0.42119 0.00695
 H264 H 0.20417 0.43128 0.01868
 C265 C 0.21933 0.39413 -0.02184
 H266 H 0.22391 0.38378 -0.03313
 C267 C 0.20440 0.40805 -0.02603
 H268 H 0.19765 0.40823 -0.04059
 N269 N 0.22818 0.39371 -0.00373
 C270 C 0.25410 0.34566 0.03128
 H271 H 0.26851 0.34431 0.02446
 C272 C 0.24934 0.33353 0.04719
 H273 H 0.26035 0.32310 0.05274
 C274 C 0.22244 0.36116 0.03234
 H275 H 0.21183 0.37163 0.02625
 C276 C 0.21700 0.34923 0.04819
 H277 H 0.20219 0.35072 0.05411
 Zn278 Zn 0.24839 0.37502 0.00259
 N279 N 0.24083 0.35937 0.02440
 C280 C 0.28007 0.38952 0.02689
 N281 N 0.27169 0.38977 0.00855
 C282 C 0.27911 0.40148 -0.00590
 C283 C 0.29590 0.41317 -0.00235
 C284 C 0.29683 0.40108 0.03112
 C285 C 0.23703 0.34589 -0.02475
 C286 C 0.23918 0.33232 -0.04020
 C287 C 0.27365 0.34191 -0.04256
 C288 C 0.27081 0.35536 -0.02710
 N289 N 0.25265 0.35728 -0.01871
 H290 H 0.27359 0.38067 0.03839
 H291 H 0.27195 0.40166 -0.02026
 H292 H 0.30177 0.42205 -0.01422
 H293 H 0.30306 0.40092 0.04590
 H294 H 0.22282 0.34749 -0.01760
 H295 H 0.22641 0.32376 -0.04506
 H296 H 0.28828 0.34045 -0.04887
 H297 H 0.28322 0.36405 -0.02170
 C298 C 0.23056 0.33523 0.05591
 C299 C 0.19855 0.42173 -0.01148
 C300 C 0.25768 0.33021 -0.04939
 C301 C 0.30500 0.41312 0.01639
 C302 C 0.71911 0.09142 -0.01584
 H303 H 0.72741 0.09038 -0.02936
 C304 C 0.70346 0.07832 -0.01245
 H305 H 0.69960 0.06745 -0.02365
 C306 C 0.71417 0.10700 0.01508
 H307 H 0.71867 0.11793 0.02595
 C308 C 0.69851 0.09409 0.01915
 H309 H 0.69116 0.09524 0.03320
 N310 N 0.72406 0.10548 -0.00222
 C311 C 0.75662 0.14930 -0.03637
 H312 H 0.77046 0.14977 -0.02809
 C313 C 0.75399 0.16142 -0.05288
 H314 H 0.76607 0.17092 -0.05740
 C315 C 0.72415 0.13623 -0.04041
 H316 H 0.71237 0.12676 -0.03523
 C317 C 0.72082 0.14821 -0.05692
 H318 H 0.70645 0.14776 -0.06426
 Zn319 Zn 0.74625 0.12177 -0.00743
 N320 N 0.74188 0.13688 -0.03059
 C321 C 0.77866 0.10346 -0.02730
 N322 N 0.76843 0.10456 -0.01016
 C323 C 0.77306 0.09250 0.00530
 C324 C 0.78888 0.07906 0.00411
 C325 C 0.79451 0.09011 -0.02918
 C326 C 0.73600 0.15422 0.01601
 C327 C 0.73782 0.16831 0.03107
 C328 C 0.76918 0.15328 0.04052
 C329 C 0.76685 0.13959 0.02515
 N330 N 0.75029 0.14011 0.01345
 H331 H 0.77436 0.11265 -0.03967
 H332 H 0.76443 0.09338 0.01862
 H333 H 0.79254 0.06995 0.01678
 H334 H 0.80222 0.08925 -0.04306
 H335 H 0.72314 0.15448 0.00629
 H336 H 0.72635 0.17953 0.03266
 H337 H 0.78221 0.15222 0.04998
 H338 H 0.77826 0.12856 0.02266
 C339 C 0.73585 0.16105 -0.06337
 C340 C 0.69299 0.07944 0.00531
 C341 C 0.75452 0.16788 0.04371
 C342 C 0.79986 0.07769 -0.01332
 C343 C 0.22557 0.60924 0.49154
 H344 H 0.23421 0.60907 0.47821
 C345 C 0.20950 0.59633 0.49348
 H346 H 0.20570 0.58646 0.48138
 C347 C 0.21996 0.62268 0.52331
 H348 H 0.22427 0.63279 0.53500
 C349 C 0.20384 0.60992 0.52592
 H350 H 0.19595 0.61033 0.53972
 N351 N 0.23030 0.62225 0.50623
 C352 C 0.26205 0.66906 0.47551
 H353 H 0.27590 0.66924 0.48378
 C354 C 0.25927 0.68199 0.45963
 H355 H 0.27123 0.69188 0.45561
 C356 C 0.22980 0.65568 0.47068
 H357 H 0.21819 0.64570 0.47526
 C358 C 0.22633 0.66844 0.45480
 H359 H 0.21201 0.66810 0.44735
 Zn360 Zn 0.25236 0.63907 0.50229
 N361 N 0.24754 0.65602 0.48050
 C362 C 0.28417 0.62294 0.48010
 N363 N 0.27459 0.62236 0.49762
 C364 C 0.27985 0.60895 0.51174
 C365 C 0.29565 0.59578 0.50873
 C366 C 0.29997 0.60998 0.47642
 C367 C 0.24239 0.66957 0.52827
 C368 C 0.24453 0.68267 0.54415
 C369 C 0.27594 0.66695 0.55215
 C370 C 0.27328 0.65427 0.53598
 N371 N 0.25659 0.65564 0.52456
 H372 H 0.27934 0.63316 0.46874
 H373 H 0.27171 0.60849 0.52538
 H374 H 0.29982 0.58550 0.52033
 H375 H 0.30713 0.61048 0.46224
 H376 H 0.22941 0.67055 0.51876
 H377 H 0.23317 0.69384 0.54657
 H378 H 0.28914 0.66527 0.56128
 H379 H 0.28460 0.64338 0.53261
 C380 C 0.24122 0.68176 0.44899
 C381 C 0.19835 0.59657 0.51084
 C382 C 0.26146 0.68144 0.55643
 C383 C 0.30596 0.59617 0.49086
 C384 C 0.72657 0.90158 0.50688
 H385 H 0.73405 0.90184 0.52108
 C386 C 0.70991 0.91362 0.50355
 H387 H 0.70447 0.92284 0.51544
 C388 C 0.72458 0.88897 0.47430
 H389 H 0.73060 0.87968 0.46280
 C390 C 0.70798 0.90088 0.47028
 H391 H 0.70141 0.90056 0.45565
 N392 N 0.73335 0.88932 0.49246
 C393 C 0.76724 0.84516 0.52607
 H394 H 0.78137 0.84609 0.51868
 C395 C 0.76493 0.83199 0.54174
 H396 H 0.77750 0.82306 0.54653
 C397 C 0.73378 0.85585 0.52872
 H398 H 0.72153 0.86480 0.52331
 C399 C 0.73077 0.84280 0.54440
 H400 H 0.71618 0.84194 0.55089
 Zn401 Zn 0.75621 0.87370 0.49812
 N402 N 0.75186 0.85692 0.52003
 C403 C 0.78621 0.89270 0.52140
 N404 N 0.77730 0.89165 0.50333
 C405 C 0.78252 0.90420 0.48860
 C406 C 0.79762 0.91814 0.49155
 C407 C 0.80129 0.90654 0.52505
 C408 C 0.74801 0.84368 0.47074
 C409 C 0.75134 0.83082 0.45493
 C410 C 0.78422 0.84474 0.45181
 C411 C 0.78020 0.85745 0.46761
 N412 N 0.76221 0.85689 0.47653
 H413 H 0.78142 0.88305 0.53312
 H414 H 0.77497 0.90327 0.47447
 H415 H 0.80182 0.92764 0.47944
 H416 H 0.80793 0.90735 0.53963
 H417 H 0.73395 0.84334 0.47830
 H418 H 0.73957 0.82085 0.45023
 H419 H 0.79871 0.84529 0.44506
 H420 H 0.79155 0.86758 0.47284
 C421 C 0.74648 0.83064 0.55113
 C422 C 0.70033 0.91336 0.48504
 C423 C 0.76963 0.83127 0.44516
 C424 C 0.80724 0.91950 0.51000
 C425 C -0.00151 0.21910 0.40332
 H426 H 0.01290 0.22621 0.40315
 C427 C -0.00491 0.20330 0.41614
 H428 H 0.00713 0.19813 0.42555
 C429 C -0.03456 0.21722 0.39100
 H430 H -0.04620 0.22297 0.38148
 C431 C -0.03865 0.20142 0.40368
 H432 H -0.05346 0.19515 0.40373
 N433 N -0.01616 0.22558 0.39092
 C434 C 0.01774 0.25581 0.34558
 H435 H 0.01071 0.27033 0.34591
 C436 C 0.03354 0.25226 0.33290
 H437 H 0.03879 0.26427 0.32373
 C438 C 0.01954 0.22270 0.35749
 H439 H 0.01381 0.21111 0.36684
 C440 C 0.03532 0.21846 0.34495
 H441 H 0.04156 0.20357 0.34483
 Zn442 Zn -0.01006 0.24751 0.37462
 N443 N 0.01131 0.24123 0.35780
 C444 C 0.01555 0.27661 0.39179
 N445 N -0.00313 0.26890 0.39156
 C446 C -0.01722 0.27563 0.40414
 C447 C -0.01299 0.29118 0.41720
 C448 C 0.02048 0.29209 0.40472
 C449 C -0.03895 0.24035 0.34559
 C450 C -0.05470 0.24468 0.33270
 C451 C -0.05554 0.27817 0.34579
 C452 C -0.03983 0.27317 0.35849
 N453 N -0.03201 0.25445 0.35830
 H454 H 0.02676 0.27061 0.38217
 H455 H -0.03186 0.26898 0.40389
 H456 H -0.02462 0.29664 0.42670
 H457 H 0.03551 0.29782 0.40484
 H458 H -0.03223 0.22569 0.34551
 H459 H -0.06023 0.23309 0.32299
 H460 H -0.06133 0.29324 0.34595
 H461 H -0.03369 0.28438 0.36821
 C462 C 0.04265 0.23339 0.33254
 C463 C -0.02370 0.19423 0.41647
 C464 C -0.06320 0.26383 0.33266
 C465 C 0.00609 0.29967 0.41760
 C466 C -0.01187 0.71259 0.09431
 H467 H -0.02611 0.72008 0.09328
 C468 C -0.00773 0.69656 0.08188
 H469 H -0.01908 0.69159 0.07157
 C470 C 0.02007 0.71003 0.10920
 H471 H 0.03100 0.71558 0.11961
 C472 C 0.02491 0.69404 0.09692
 H473 H 0.03961 0.68751 0.09803
 N474 N 0.00190 0.71888 0.10774
 C475 C -0.03369 0.75101 0.15087
 H476 H -0.02634 0.76532 0.15090
 C477 C -0.04996 0.74784 0.16306
 H478 H -0.05522 0.75995 0.17219
 C479 C -0.03570 0.71793 0.13878
 H480 H -0.02985 0.70616 0.12965
 C481 C -0.05194 0.71408 0.15080
 H482 H -0.05837 0.69931 0.15072
 Zn483 Zn -0.00454 0.74142 0.12320
 N484 N -0.02707 0.73623 0.13886
 C485 C -0.02755 0.77203 0.10469
 N486 N -0.00960 0.76264 0.10546
 C487 C 0.00511 0.76743 0.09278
 C488 C 0.00231 0.78262 0.07902
 C489 C -0.03103 0.78725 0.09107
 C490 C 0.02091 0.73423 0.15505
 C491 C 0.03657 0.73753 0.16832
 C492 C 0.04353 0.76841 0.15161
 C493 C 0.02757 0.76462 0.13880
 N494 N 0.01685 0.74758 0.14053
 H495 H -0.03930 0.76758 0.11443
 H496 H 0.01910 0.75945 0.09344
 H497 H 0.01442 0.78648 0.06942
 H498 H -0.04550 0.79435 0.09053
 H499 H 0.01195 0.72094 0.15628
 H500 H 0.03934 0.72678 0.17989
 H501 H 0.05222 0.78178 0.14955
 H502 H 0.02390 0.77527 0.12742
 C503 C -0.05933 0.72915 0.16313
 C504 C 0.01093 0.68711 0.08298
 C505 C 0.04831 0.75472 0.16659
 C506 C -0.01596 0.79280 0.07802
 C507 C 0.49388 0.22096 0.59477
 H508 H 0.48066 0.22994 0.59250
 C509 C 0.49777 0.20492 0.58224
 H510 H 0.48753 0.20182 0.57021
 C511 C 0.52363 0.21477 0.61277
 H512 H 0.53385 0.21879 0.62448
 C513 C 0.52801 0.19850 0.60072
 H514 H 0.54137 0.18993 0.60371
 N515 N 0.50668 0.22549 0.60976
 C516 C 0.47168 0.25708 0.65365
 H517 H 0.47978 0.27095 0.65469
 C518 C 0.45524 0.25390 0.66560
 H519 H 0.45058 0.26565 0.67548
 C520 C 0.46802 0.22506 0.63933
 H521 H 0.47327 0.21370 0.62935
 C522 C 0.45163 0.22117 0.65115
 H523 H 0.44452 0.20675 0.65011
 Zn524 Zn 0.50056 0.24786 0.62566
 N525 N 0.47758 0.24284 0.64068
 C526 C 0.47968 0.28103 0.60915
 N527 N 0.49656 0.26985 0.60859
 C528 C 0.51097 0.27362 0.59524
 C529 C 0.50883 0.28930 0.58190
 C530 C 0.47703 0.29701 0.59625
 C531 C 0.52558 0.23916 0.65768
 C532 C 0.54097 0.24208 0.67134
 C533 C 0.54740 0.27404 0.65644
 C534 C 0.53197 0.27042 0.64296
 N535 N 0.52160 0.25308 0.64365
 H536 H 0.46820 0.27762 0.61957
 H537 H 0.52411 0.26429 0.59489
 H538 H 0.52035 0.29175 0.57119
 H539 H 0.46369 0.30598 0.59734
 H540 H 0.51690 0.22562 0.65807
 H541 H 0.54423 0.23052 0.68199
 H542 H 0.55534 0.28802 0.65575
 H543 H 0.52825 0.28153 0.63203
 C544 C 0.44499 0.23570 0.66452
 C545 C 0.51503 0.19337 0.58516
 C546 C 0.55219 0.25969 0.67080
 C547 C 0.49169 0.30135 0.58232
 C548 C 0.52287 0.72208 0.90741
 H549 H 0.53702 0.72964 0.90661
 C550 C 0.52071 0.70582 0.91996
 H551 H 0.53342 0.70073 0.92850
 C552 C 0.48916 0.71971 0.89718
 H553 H 0.47677 0.72548 0.88867
 C554 C 0.48630 0.70345 0.90963
 H555 H 0.47166 0.69688 0.91049
 N556 N 0.50727 0.72859 0.89623
 C557 C 0.53633 0.76321 0.85057
 H558 H 0.52852 0.77722 0.85227
 C559 C 0.55105 0.76131 0.83637
 H560 H 0.55471 0.77409 0.82744
 C561 C 0.54105 0.72967 0.86042
 H562 H 0.53682 0.71726 0.86954
 C563 C 0.55580 0.72707 0.84631
 H564 H 0.56277 0.71261 0.84478
 Zn565 Zn 0.51125 0.75162 0.88076
 N566 N 0.53181 0.74760 0.86240
 C567 C 0.53590 0.78157 0.89795
 N568 N 0.51785 0.77251 0.89838
 C569 C 0.50410 0.77761 0.91202
 C570 C 0.50794 0.79290 0.92547
 C571 C 0.54044 0.79684 0.91125
 C572 C 0.48119 0.74432 0.85293
 C573 C 0.46469 0.74850 0.84097
 C574 C 0.46287 0.78121 0.85578
 C575 C 0.47937 0.77637 0.86752
 N576 N 0.48807 0.75811 0.86601
 H577 H 0.54689 0.77685 0.88744
 H578 H 0.48999 0.76992 0.91224
 H579 H 0.49650 0.79711 0.93578
 H580 H 0.55496 0.80372 0.91078
 H581 H 0.48861 0.73004 0.85179
 H582 H 0.45928 0.73717 0.83089
 H583 H 0.45641 0.79595 0.85694
 H584 H 0.48545 0.78740 0.87749
 C585 C 0.56103 0.74305 0.83409
 C586 C 0.50219 0.69631 0.92129
 C587 C 0.45532 0.76719 0.84225
 C588 C 0.52630 0.80282 0.92517
 C589 C 0.14815 0.22983 0.22524
 C590 C 0.13158 0.23330 0.23703
 C591 C 0.12910 0.22269 0.25453
 C592 C 0.14337 0.20840 0.26012
 C593 C 0.15988 0.20482 0.24831
 C594 C 0.16250 0.21552 0.23074
 N595 N 0.11204 0.22668 0.26637
 N596 N 0.10967 0.21841 0.28302
 C597 C 0.09267 0.22222 0.29498
 C598 C 0.09194 0.21375 0.31374
 C599 C 0.07570 0.21731 0.32592
 C600 C 0.05979 0.22938 0.31946
 C601 C 0.06051 0.23774 0.30049
 C602 C 0.07683 0.23424 0.28837
 H603 H 0.14966 0.23830 0.21179
 H604 H 0.12066 0.24435 0.23256
 H605 H 0.14178 0.19996 0.27357
 H606 H 0.17062 0.19372 0.25303
 H607 H 0.10409 0.20449 0.31901
 H608 H 0.07579 0.21089 0.34053
 H609 H 0.04838 0.24684 0.29492
 H610 H 0.07700 0.24086 0.27385
 C611 C 0.68133 0.70385 0.75242
 C612 C 0.66644 0.70651 0.76634
 C613 C 0.65155 0.72080 0.76342
 C614 C 0.65179 0.73266 0.74639
 C615 C 0.66679 0.73014 0.73248
 C616 C 0.68169 0.71562 0.73531
 N617 N 0.63646 0.72290 0.77797
 N618 N 0.62154 0.73440 0.77570
 C619 C 0.60662 0.73636 0.79048
 C620 C 0.58972 0.74791 0.78646
 C621 C 0.57486 0.75002 0.80054
 C622 C 0.57674 0.74069 0.81902
 C623 C 0.59380 0.72914 0.82301
 C624 C 0.60858 0.72695 0.80887
 H625 H 0.69259 0.69259 0.75514
 H626 H 0.66643 0.69732 0.77942
 H627 H 0.64044 0.74387 0.74384
 H628 H 0.66662 0.73943 0.71947
 H629 H 0.58801 0.75518 0.77232
 H630 H 0.56180 0.75877 0.79685
 H631 H 0.59588 0.72202 0.83718
 H632 H 0.62157 0.71802 0.81238
 C633 C 0.35177 0.78016 0.73194
 C634 C 0.36815 0.77616 0.74415
 C635 C 0.36985 0.78516 0.76269
 C636 C 0.35504 0.79854 0.76884
 C637 C 0.33869 0.80268 0.75658
 C638 C 0.33680 0.79342 0.73803
 N639 N 0.38663 0.78031 0.77495
 N640 N 0.38849 0.78677 0.79251
 C641 C 0.40533 0.78177 0.80465
 C642 C 0.40592 0.78834 0.82422
 C643 C 0.42208 0.78358 0.83648
 C644 C 0.43804 0.77218 0.82931
 C645 C 0.43742 0.76567 0.80959
 C646 C 0.42122 0.77039 0.79739
 H647 H 0.35085 0.77283 0.71774
 H648 H 0.37949 0.76585 0.73924
 H649 H 0.35607 0.80573 0.78310
 H650 H 0.32744 0.81294 0.76174
 H651 H 0.39374 0.79708 0.83001
 H652 H 0.42197 0.78861 0.85164
 H653 H 0.44961 0.75717 0.80350
 H654 H 0.42117 0.76521 0.78227
 C655 C -0.16356 0.27183 0.21929
 C656 C -0.14752 0.26855 0.23213
 C657 C -0.14587 0.27919 0.24977
 C658 C -0.16034 0.29354 0.25437
 C659 C -0.17636 0.29701 0.24148
 C660 C -0.17834 0.28605 0.22380
 N661 N -0.12951 0.27490 0.26278
 N662 N -0.12780 0.28273 0.27981
 C663 C -0.11138 0.27810 0.29267
 C664 C -0.11108 0.28592 0.31178
 C665 C -0.09546 0.28133 0.32480
 C666 C -0.07977 0.26886 0.31883
 C667 C -0.08005 0.26120 0.29953
 C668 C -0.09571 0.26572 0.28658
 H669 H -0.16434 0.26310 0.20587
 H670 H -0.13643 0.25747 0.22842
 H671 H -0.15932 0.30202 0.26793
 H672 H -0.18730 0.30811 0.24556
 H673 H -0.12310 0.29543 0.31667
 H674 H -0.09584 0.28728 0.33962
 H675 H -0.06804 0.25186 0.29433
 H676 H -0.09553 0.25958 0.27183
 C677 C -0.16188 0.72345 0.27277
 C678 C -0.14601 0.72731 0.26027
 C679 C -0.14411 0.71690 0.24253
 C680 C -0.15829 0.70239 0.23741
 C681 C -0.17413 0.69840 0.24996
 C682 C -0.17613 0.70892 0.26778
 N683 N -0.12763 0.72127 0.23011
 N684 N -0.12566 0.71335 0.21319
 C685 C -0.10904 0.71765 0.20091
 C686 C -0.10850 0.70950 0.18194
 C687 C -0.09245 0.71331 0.16962
 C688 C -0.07654 0.72531 0.17613
 C689 C -0.07715 0.73346 0.19523
 C690 C -0.09325 0.72971 0.20750
 H691 H -0.16291 0.73180 0.28639
 H692 H -0.13515 0.73850 0.26440
 H693 H -0.15711 0.69410 0.22377
 H694 H -0.18483 0.68715 0.24563
 H695 H -0.12059 0.70022 0.17668
 H696 H -0.09262 0.70704 0.15492
 H697 H -0.06502 0.74249 0.20084
 H698 H -0.09327 0.73610 0.22215
 C699 C 0.34029 0.23356 0.77205
 C700 C 0.35634 0.23693 0.75964
 C701 C 0.35927 0.22497 0.74305
 C702 C 0.34601 0.20931 0.73904
 C703 C 0.33005 0.20571 0.75156
 C704 C 0.32688 0.21784 0.76824
 N705 N 0.37586 0.22897 0.73067
 N706 N 0.37814 0.22042 0.71409
 C707 C 0.39495 0.22440 0.70197
 C708 C 0.39526 0.21681 0.68277
 C709 C 0.41140 0.22054 0.67055
 C710 C 0.42771 0.23180 0.67743
 C711 C 0.42739 0.23925 0.69683
 C712 C 0.41114 0.23567 0.70895
 H713 H 0.33854 0.24326 0.78469
 H714 H 0.36650 0.24902 0.76290
 H715 H 0.34804 0.19979 0.72633
 H716 H 0.32016 0.19347 0.74802
 H717 H 0.38285 0.20813 0.67721
 H718 H 0.41098 0.21482 0.65563
 H719 H 0.43982 0.24761 0.70279
 H720 H 0.41134 0.24155 0.72381
 C721 C 0.68010 0.29901 0.74331
 C722 C 0.66396 0.29641 0.73042
 C723 C 0.64851 0.28347 0.73520
 C724 C 0.64940 0.27297 0.75307
 C725 C 0.66563 0.27541 0.76592
 C726 C 0.68115 0.28850 0.76120
 N727 N 0.63226 0.28116 0.72157
 N728 N 0.61683 0.27113 0.72566
 C729 C 0.60079 0.26868 0.71181
 C730 C 0.58343 0.25916 0.71783
 C731 C 0.56757 0.25640 0.70462
 C732 C 0.56887 0.26299 0.68502
 C733 C 0.58637 0.27255 0.67903
 C734 C 0.60215 0.27543 0.69230
 H735 H 0.69181 0.30915 0.73916
 H736 H 0.66346 0.30454 0.71666
 H737 H 0.63765 0.26282 0.75705
 H738 H 0.66596 0.26712 0.77958
 H739 H 0.58218 0.25394 0.73285
 H740 H 0.55422 0.24926 0.70983
 H741 H 0.58804 0.27751 0.66398
 H742 H 0.61548 0.28272 0.68724
 C743 C 0.16350 0.80839 0.25107
 C744 C 0.14747 0.80555 0.23804
 C745 C 0.13814 0.78699 0.23663
 C746 C 0.14488 0.77125 0.24859
 C747 C 0.16071 0.77412 0.26180
 C748 C 0.17024 0.79270 0.26315
 N749 N 0.12181 0.78451 0.22310
 N750 N 0.11465 0.76741 0.21915
 C751 C 0.09812 0.76470 0.20595
 C752 C 0.09314 0.74539 0.19996
 C753 C 0.07709 0.74216 0.18711
 C754 C 0.06547 0.75823 0.18021
 C755 C 0.07047 0.77764 0.18641
 C756 C 0.08670 0.78086 0.19908
 H757 H 0.17045 0.82290 0.25182
 H758 H 0.14238 0.81781 0.22893
 H759 H 0.13785 0.75677 0.24784
 H760 H 0.16557 0.76172 0.27084
 H761 H 0.10186 0.73282 0.20513
 H762 H 0.07396 0.72706 0.18239
 H763 H 0.06169 0.79034 0.18171
 H764 H 0.09017 0.79593 0.20367
 C765 C 0.21743 0.16188 0.23043
 C766 C 0.23039 0.14618 0.23496
 C767 C 0.24884 0.14470 0.22577
 C768 C 0.25421 0.15908 0.21183
 C769 C 0.24121 0.17468 0.20714
 C770 C 0.22267 0.17629 0.21642
 N771 N 0.26173 0.12839 0.23070
 N772 N 0.27939 0.12717 0.22430
 C773 C 0.29216 0.11069 0.22897
 C774 C 0.31200 0.11124 0.22309
 C775 C 0.32481 0.09532 0.22727
 C776 C 0.31789 0.07844 0.23731
 C777 C 0.29789 0.07795 0.24315
 C778 C 0.28516 0.09394 0.23908
 H779 H 0.20326 0.16263 0.23780
 H780 H 0.22608 0.13515 0.24570
 H781 H 0.26838 0.15820 0.20448
 H782 H 0.24574 0.18554 0.19633
 H783 H 0.31757 0.12410 0.21531
 H784 H 0.34017 0.09633 0.22282
 H785 H 0.29195 0.06505 0.25057
 H786 H 0.26982 0.09310 0.24365
 C787 C 0.73298 0.66051 0.72372
 C788 C 0.74539 0.64390 0.72560
 C789 C 0.76263 0.64231 0.71442
 C790 C 0.76731 0.65751 0.70107
 C791 C 0.75480 0.67410 0.69903
 C792 C 0.73754 0.67583 0.71043
 N793 N 0.77506 0.62515 0.71703
 N794 N 0.79183 0.62327 0.70875
 C795 C 0.80396 0.60591 0.71167
 C796 C 0.82316 0.60547 0.70399
 C797 C 0.83547 0.58889 0.70703
 C798 C 0.82869 0.57238 0.71775
 C799 C 0.80925 0.57280 0.72518
 C800 C 0.79704 0.58941 0.72224
 H801 H 0.71977 0.66129 0.73266
 H802 H 0.74163 0.63226 0.73591
 H803 H 0.78056 0.65656 0.69223
 H804 H 0.75875 0.68564 0.68868
 H805 H 0.82868 0.61811 0.69584
 H806 H 0.85042 0.58917 0.70130
 H807 H 0.80340 0.56020 0.73314
 H808 H 0.78218 0.58931 0.72819
 C809 C 0.75795 0.32680 0.79283
 C810 C 0.77140 0.34222 0.78948
 C811 C 0.76803 0.35585 0.77428
 C812 C 0.75104 0.35384 0.76223
 C813 C 0.73765 0.33832 0.76537
 C814 C 0.74086 0.32456 0.78077
 N815 N 0.78214 0.37145 0.77128
 N816 N 0.77890 0.38563 0.75925
 C817 C 0.79318 0.40104 0.75606
 C818 C 0.78771 0.41752 0.74464
 C819 C 0.80129 0.43282 0.74126
 C820 C 0.82074 0.43177 0.74911
 C821 C 0.82619 0.41508 0.76048
 C822 C 0.81253 0.39990 0.76400
 H823 H 0.76109 0.31660 0.80481
 H824 H 0.78448 0.34360 0.79884
 H825 H 0.74816 0.36417 0.75031
 H826 H 0.72475 0.33723 0.75573
 H827 H 0.77282 0.41858 0.73848
 H828 H 0.79646 0.44557 0.73272
 H829 H 0.84112 0.41358 0.76644
 H830 H 0.81716 0.38720 0.77275
 C831 C 0.24483 -0.16769 0.29840
 C832 C 0.25819 -0.15204 0.29605
 C833 C 0.25518 -0.13792 0.28123
 C834 C 0.23854 -0.13958 0.26865
 C835 C 0.22518 -0.15535 0.27084
 C836 C 0.22815 -0.16970 0.28576
 N837 N 0.26943 -0.12230 0.27922
 N838 N 0.26702 -0.10782 0.26735
 C839 C 0.28171 -0.09255 0.26552
 C840 C 0.27730 -0.07561 0.25433
 C841 C 0.29128 -0.06036 0.25252
 C842 C 0.31008 -0.06192 0.26176
 C843 C 0.31452 -0.07912 0.27279
 C844 C 0.30047 -0.09424 0.27473
 H845 H 0.24779 -0.17829 0.31008
 H846 H 0.27098 -0.15090 0.30582
 H847 H 0.23595 -0.12882 0.25704
 H848 H 0.21258 -0.15626 0.26080
 H849 H 0.26289 -0.07412 0.24718
 H850 H 0.28724 -0.04722 0.24415
 H851 H 0.32895 -0.08102 0.27977
 H852 H 0.30432 -0.10729 0.28331
 C853 C 0.27994 -0.15675 0.73939
 C854 C 0.26698 -0.14112 0.74383
 C855 C 0.24978 -0.13797 0.73251
 C856 C 0.24562 -0.15069 0.71654
 C857 C 0.25867 -0.16625 0.71190
 C858 C 0.27609 -0.16951 0.72324
 N859 N 0.23704 -0.12156 0.73734
 N860 N 0.22019 -0.11893 0.72901
 C861 C 0.20771 -0.10226 0.73364
 C862 C 0.18839 -0.10158 0.72582
 C863 C 0.17588 -0.08546 0.72991
 C864 C 0.18257 -0.06953 0.74176
 C865 C 0.20205 -0.07027 0.74955
 C866 C 0.21448 -0.08651 0.74560
 H867 H 0.29311 -0.15861 0.74855
 H868 H 0.27035 -0.13139 0.75617
 H869 H 0.23242 -0.14850 0.70752
 H870 H 0.25504 -0.17566 0.69939
 H871 H 0.18298 -0.11365 0.71662
 H872 H 0.16089 -0.08560 0.72394
 H873 H 0.20784 -0.05815 0.75844
 H874 H 0.22942 -0.08662 0.75170
 C875 C 0.74182 0.32153 0.19689
 C876 C 0.72777 0.33638 0.20078
 C877 C 0.73160 0.35092 0.21511
 C878 C 0.74961 0.35030 0.22580
 C879 C 0.76361 0.33536 0.22205
 C880 C 0.75993 0.32087 0.20745
 N881 N 0.71705 0.36617 0.21843
 N882 N 0.72035 0.38081 0.22995
 C883 C 0.70584 0.39608 0.23332
 C884 C 0.71116 0.41260 0.24478
 C885 C 0.69745 0.42786 0.24824
 C886 C 0.67802 0.42679 0.24038
 C887 C 0.67270 0.41007 0.22894
 C888 C 0.68648 0.39488 0.22539
 H889 H 0.73845 0.31057 0.18561
 H890 H 0.71393 0.33668 0.19247
 H891 H 0.75289 0.36134 0.23701
 H892 H 0.77740 0.33532 0.23044
 H893 H 0.72605 0.41373 0.25092
 H894 H 0.70217 0.44064 0.25684
 H895 H 0.65779 0.40860 0.22292
 H896 H 0.68198 0.38218 0.21657
 C897 C 0.77036 0.65420 0.27118
 C898 C 0.75772 0.63807 0.26756
 C899 C 0.74028 0.63580 0.27833
 C900 C 0.73561 0.64988 0.29293
 C901 C 0.74830 0.66595 0.29667
 C902 C 0.76582 0.66833 0.28582
 N903 N 0.72767 0.61908 0.27425
 N904 N 0.71090 0.61695 0.28245
 C905 C 0.69837 0.60013 0.27855
 C906 C 0.67945 0.59960 0.28684
 C907 C 0.66685 0.58340 0.28339
 C908 C 0.67305 0.56729 0.27163
 C909 C 0.69214 0.56786 0.26337
 C910 C 0.70466 0.58414 0.26674
 H911 H 0.78374 0.65553 0.26258
 H912 H 0.76150 0.62730 0.25629
 H913 H 0.72222 0.64843 0.30150
 H914 H 0.74431 0.67655 0.30802
 H915 H 0.67441 0.61186 0.29593
 H916 H 0.65217 0.58362 0.28974
 H917 H 0.69753 0.55558 0.25452
 H918 H 0.71929 0.58413 0.26026
 C919 C 0.27410 0.16515 0.77113
 C920 C 0.26179 0.14870 0.76791
 C921 C 0.24520 0.14557 0.77967
 C922 C 0.24104 0.15909 0.79491
 C923 C 0.25343 0.17549 0.79832
 C924 C 0.27017 0.17881 0.78645
 N925 N 0.23297 0.12851 0.77590
 N926 N 0.21660 0.12570 0.78465
 C927 C 0.20459 0.10845 0.78092
 C928 C 0.18571 0.10738 0.78925
 C929 C 0.17361 0.09079 0.78586
 C930 C 0.18028 0.07480 0.77418
 C931 C 0.19935 0.07591 0.76593
 C932 C 0.21136 0.09259 0.76920
 H933 H 0.28678 0.16700 0.76163
 H934 H 0.26517 0.13836 0.75614
 H935 H 0.22830 0.15694 0.80426
 H936 H 0.24979 0.18555 0.81025
 H937 H 0.18030 0.11952 0.79828
 H938 H 0.15891 0.09062 0.79219
 H939 H 0.20513 0.06376 0.75716
 H940 H 0.22597 0.09300 0.76271
 C941 C 0.21864 0.22706 0.16018
 C942 C 0.22271 0.23908 0.14398
 C943 C 0.21255 0.25706 0.14120
 C944 C 0.19798 0.26287 0.15474
 C945 C 0.19374 0.25076 0.17089
 C946 C 0.20412 0.23275 0.17385
 N947 N 0.21740 0.26910 0.12456
 N948 N 0.21019 0.28646 0.12198
 C949 C 0.21521 0.29829 0.10524
 C950 C 0.20856 0.31803 0.10426
 C951 C 0.21352 0.33005 0.08827
 C952 C 0.22513 0.32244 0.07286
 C953 C 0.23160 0.30250 0.07382
 C954 C 0.22675 0.29056 0.08987
 H955 H 0.22685 0.21326 0.16194
 H956 H 0.23394 0.23444 0.13362
 H957 H 0.18988 0.27671 0.15284
 H958 H 0.18249 0.25560 0.18114
 H959 H 0.19970 0.32417 0.11603
 H960 H 0.20852 0.34540 0.08816
 H961 H 0.24024 0.29604 0.06205
 H962 H 0.23195 0.27528 0.09021
 C963 C 0.70593 0.75499 0.67496
 C964 C 0.70848 0.76850 0.65955
 C965 C 0.72208 0.76450 0.64461
 C966 C 0.73325 0.74678 0.64527
 C967 C 0.73080 0.73331 0.66071
 C968 C 0.71709 0.73723 0.67574
 N969 N 0.72430 0.77863 0.62901
 N970 N 0.73563 0.77534 0.61447
 C971 C 0.73806 0.78941 0.59886
 C972 C 0.74985 0.78416 0.58282
 C973 C 0.75256 0.79750 0.56732
 C974 C 0.74356 0.81645 0.56763
 C975 C 0.73174 0.82169 0.58382
 C976 C 0.72898 0.80829 0.59928
 H977 H 0.69527 0.75852 0.68628
 H978 H 0.69979 0.78211 0.65921
 H979 H 0.74389 0.74336 0.63391
 H980 H 0.73963 0.71979 0.66081
 H981 H 0.75688 0.76964 0.58230
 H982 H 0.76148 0.79284 0.55496
 H983 H 0.72483 0.83625 0.58467
 H984 H 0.71987 0.81273 0.61158
 C985 C 0.77130 0.72095 0.34106
 C986 C 0.76829 0.73326 0.35741
 C987 C 0.77896 0.75100 0.35961
 C988 C 0.79287 0.75629 0.34528
 C989 C 0.79602 0.74394 0.32900
 C990 C 0.78523 0.72614 0.32666
 N991 N 0.77542 0.76333 0.37648
 N992 N 0.78345 0.78036 0.37856
 C993 C 0.78001 0.79268 0.39545
 C994 C 0.78771 0.81201 0.39581
 C995 C 0.78441 0.82453 0.41193
 C996 C 0.77342 0.81785 0.42812
 C997 C 0.76588 0.79830 0.42778
 C998 C 0.76908 0.78585 0.41158
 H999 H 0.76278 0.70734 0.33977
 H1000 H 0.75754 0.72901 0.36836
 H1001 H 0.80134 0.76992 0.34668
 H1002 H 0.80683 0.74841 0.31820
 H1003 H 0.79613 0.81745 0.38344
 H1004 H 0.79017 0.83957 0.41155
 H1005 H 0.75767 0.79253 0.44013
 H1006 H 0.76310 0.77090 0.41171
 C1007 C 0.29937 0.25528 -0.17313
 C1008 C 0.29625 0.26839 -0.15746
 C1009 C 0.28204 0.26418 -0.14323
 C1010 C 0.27076 0.24665 -0.14490
 C1011 C 0.27377 0.23353 -0.16067
 C1012 C 0.28817 0.23768 -0.17494
 N1013 N 0.27945 0.27798 -0.12733
 N1014 N 0.26771 0.27476 -0.11314
 C1015 C 0.26535 0.28883 -0.09740
 C1016 C 0.25323 0.28392 -0.08154
 C1017 C 0.25075 0.29730 -0.06592
 C1018 C 0.26031 0.31592 -0.06595
 C1019 C 0.27241 0.32082 -0.08198
 C1020 C 0.27494 0.30740 -0.09753
 H1021 H 0.31053 0.25902 -0.18386
 H1022 H 0.30501 0.28187 -0.15635
 H1023 H 0.25964 0.24310 -0.13407
 H1024 H 0.26491 0.22012 -0.16159
 H1025 H 0.24581 0.26964 -0.08123
 H1026 H 0.24156 0.29292 -0.05370
 H1027 H 0.27972 0.33514 -0.08264
 H1028 H 0.28431 0.31161 -0.10968
 C1029 C 0.73462 0.27202 -0.16583
 C1030 C 0.73769 0.25923 -0.14988
 C1031 C 0.72672 0.24166 -0.14829
 C1032 C 0.71242 0.23703 -0.16284
 C1033 C 0.70919 0.24990 -0.17874
 C1034 C 0.72032 0.26752 -0.18045
 N1035 N 0.73035 0.22892 -0.13174
 N1036 N 0.72225 0.21190 -0.13012
 C1037 C 0.72589 0.19942 -0.11336
 C1038 C 0.71808 0.18013 -0.11325
 C1039 C 0.72139 0.16760 -0.09711
 C1040 C 0.73250 0.17424 -0.08067
 C1041 C 0.74024 0.19369 -0.08083
 C1042 C 0.73704 0.20614 -0.09703
 H1043 H 0.74340 0.28548 -0.16661
 H1044 H 0.74872 0.26297 -0.13873
 H1045 H 0.70370 0.22354 -0.16189
 H1046 H 0.69809 0.24597 -0.18975
 H1047 H 0.70951 0.17476 -0.12577
 H1048 H 0.71544 0.15264 -0.09761
 H1049 H 0.74854 0.19944 -0.06830
 H1050 H 0.74312 0.22105 -0.09669
 C1051 C 0.19827 0.75288 0.32226
 C1052 C 0.20136 0.73971 0.33794
 C1053 C 0.21499 0.74430 0.35300
 C1054 C 0.22572 0.76219 0.35212
 C1055 C 0.22278 0.77529 0.33641
 C1056 C 0.20895 0.77084 0.32132
 N1057 N 0.21767 0.73064 0.36899
 N1058 N 0.22854 0.73485 0.38389
 C1059 C 0.23149 0.72131 0.39993
 C1060 C 0.24220 0.72773 0.41653
 C1061 C 0.24533 0.71495 0.43249
 C1062 C 0.23787 0.69539 0.43204
 C1063 C 0.22718 0.68897 0.41525
 C1064 C 0.22396 0.70182 0.39936
 H1065 H 0.18757 0.74897 0.31086
 H1066 H 0.19303 0.72594 0.33843
 H1067 H 0.23640 0.76605 0.36356
 H1068 H 0.23123 0.78899 0.33620
 H1069 H 0.24803 0.74275 0.41714
 H1070 H 0.25335 0.72050 0.44528
 H1071 H 0.22152 0.67391 0.41428
 H1072 H 0.21573 0.69648 0.38661
 C1073 C 0.31223 0.76537 0.67173
 C1074 C 0.30930 0.75325 0.65521
 C1075 C 0.29047 0.75165 0.64643
 C1076 C 0.27453 0.76265 0.65416
 C1077 C 0.27750 0.77503 0.67056
 C1078 C 0.29637 0.77638 0.67962
 N1079 N 0.28803 0.73870 0.62978
 N1080 N 0.27104 0.73423 0.62263
 C1081 C 0.26895 0.72126 0.60594
 C1082 C 0.25003 0.71443 0.60054
 C1083 C 0.24756 0.70146 0.58455
 C1084 C 0.26404 0.69524 0.57348
 C1085 C 0.28302 0.70235 0.57884
 C1086 C 0.28547 0.71514 0.59496
 H1087 H 0.32698 0.76616 0.67826
 H1088 H 0.32170 0.74490 0.64935
 H1089 H 0.25984 0.76170 0.64754
 H1090 H 0.26499 0.78329 0.67631
 H1091 H 0.23718 0.71898 0.60892
 H1092 H 0.23278 0.69607 0.58107
 H1093 H 0.29599 0.69823 0.57045
 H1094 H 0.30025 0.72035 0.59873
 C1095 C 0.80108 0.25601 0.15773
 C1096 C 0.79896 0.24353 0.14134
 C1097 C 0.78045 0.24134 0.13201
 C1098 C 0.76403 0.25212 0.13902
 C1099 C 0.76618 0.26483 0.15527
 C1100 C 0.78471 0.26677 0.16491
 N1101 N 0.77875 0.22796 0.11562
 N1102 N 0.76202 0.22307 0.10815
 C1103 C 0.76047 0.20963 0.09178
 C1104 C 0.74173 0.20247 0.08618
 C1105 C 0.73977 0.18893 0.07060
 C1106 C 0.75657 0.18248 0.06015
 C1107 C 0.77536 0.18997 0.06567
 C1108 C 0.77731 0.20334 0.08139
 H1109 H 0.81558 0.25726 0.16473
 H1110 H 0.81173 0.23534 0.13604
 H1111 H 0.74958 0.25072 0.13197
 H1112 H 0.75328 0.27288 0.16046
 H1113 H 0.72865 0.20717 0.09411
 H1114 H 0.72512 0.18326 0.06700
 H1115 H 0.78856 0.18566 0.05774
 H1116 H 0.79195 0.20881 0.08535
 C1117 C 0.44103 0.41697 0.49825
 C1118 C 0.44390 0.40053 0.51054
 C1119 C 0.46247 0.39116 0.51179
 C1120 C 0.47817 0.39822 0.50029
 C1121 C 0.47524 0.41450 0.48773
 C1122 C 0.45666 0.42414 0.48670
 N1123 N 0.46490 0.37457 0.52484
 N1124 N 0.48188 0.36728 0.52918
 C1125 C 0.48405 0.35060 0.54217
 C1126 C 0.50299 0.34551 0.54928
 C1127 C 0.50551 0.32959 0.56233
 C1128 C 0.48908 0.31824 0.56831
 C1129 C 0.47010 0.32324 0.56084
 C1130 C 0.46758 0.33932 0.54800
 H1131 H 0.42650 0.42398 0.49770
 H1132 H 0.43167 0.39518 0.51929
 H1133 H 0.49265 0.39113 0.50095
 H1134 H 0.48758 0.41969 0.47905
 H1135 H 0.51579 0.35411 0.54492
 H1136 H 0.52029 0.32641 0.56798
 H1137 H 0.45717 0.31461 0.56473
 H1138 H 0.45280 0.34284 0.54254
 C1139 C -0.05445 0.91862 0.00172
 C1140 C -0.05281 0.90258 0.01474
 C1141 C -0.03950 0.88701 0.01105
 C1142 C -0.02782 0.88757 -0.00596
 C1143 C -0.02933 0.90366 -0.01894
 C1144 C -0.04262 0.91942 -0.01521
 N1145 N -0.03782 0.87106 0.02497
 N1146 N -0.02694 0.85585 0.02189
 C1147 C -0.02484 0.84012 0.03599
 C1148 C -0.01387 0.82316 0.03094
 C1149 C -0.01115 0.80771 0.04447
 C1150 C -0.01926 0.80903 0.06345
 C1151 C -0.03036 0.82608 0.06844
 C1152 C -0.03317 0.84147 0.05483
 H1153 H -0.06480 0.93051 0.00508
 H1154 H -0.06187 0.90233 0.02781
 H1155 H -0.01738 0.87571 -0.00912
 H1156 H -0.02003 0.90376 -0.03184
 H1157 H -0.00742 0.82193 0.01645
 H1158 H -0.00283 0.79467 0.04001
 H1159 H -0.03656 0.82773 0.08299
 H1160 H -0.04161 0.85450 0.05912
 C1161 C 0.01799 0.58658 -0.02933
 C1162 C 0.01436 0.60220 -0.01624
 C1163 C 0.02581 0.60432 0.00093
 C1164 C 0.04124 0.59070 0.00484
 C1165 C 0.04509 0.57514 -0.00835
 C1166 C 0.03344 0.57277 -0.02562
 N1167 N 0.02142 0.62046 0.01401
 N1168 N 0.02956 0.62225 0.03093
 C1169 C 0.02495 0.63865 0.04366
 C1170 C 0.03220 0.63860 0.06306
 C1171 C 0.02764 0.65426 0.07588
 C1172 C 0.01586 0.67040 0.06942
 C1173 C 0.00882 0.67048 0.04982
 C1174 C 0.01324 0.65474 0.03710
 H1175 H 0.00866 0.58546 -0.04239
 H1176 H 0.00245 0.61265 -0.01941
 H1177 H 0.05035 0.59212 0.01802
 H1178 H 0.05712 0.56492 -0.00488
 H1179 H 0.04121 0.62627 0.06831
 H1180 H 0.03311 0.65358 0.09093
 H1181 H 0.00008 0.68283 0.04420
 H1182 H 0.00759 0.65523 0.02211
 C1183 C 0.51370 0.07621 0.48880
 C1184 C 0.50950 0.09228 0.50121
 C1185 C 0.52445 0.10059 0.51310
 C1186 C 0.54372 0.09246 0.51266
 C1187 C 0.54790 0.07622 0.50044
 C1188 C 0.53295 0.06798 0.48828
 N1189 N 0.51966 0.11719 0.52547
 N1190 N 0.53295 0.12708 0.53468
 C1191 C 0.52811 0.14355 0.54721
 C1192 C 0.54346 0.15547 0.55467
 C1193 C 0.53925 0.17172 0.56686
 C1194 C 0.51952 0.17619 0.57203
 C1195 C 0.50413 0.16405 0.56457
 C1196 C 0.50836 0.14794 0.55221
 H1197 H 0.50183 0.07015 0.47971
 H1198 H 0.49459 0.09838 0.50147
 H1199 H 0.55551 0.09859 0.52181
 H1200 H 0.56288 0.07026 0.50036
 H1201 H 0.55873 0.15227 0.55087
 H1202 H 0.55144 0.18091 0.57202
 H1203 H 0.48881 0.16681 0.56851
 H1204 H 0.49624 0.13883 0.54674
 C1205 C -0.02271 0.09312 0.52822
 C1206 C -0.02052 0.10924 0.51547
 C1207 C -0.03185 0.11047 0.49812
 C1208 C -0.04566 0.09539 0.49368
 C1209 C -0.04798 0.07929 0.50649
 C1210 C -0.03645 0.07792 0.52387
 N1211 N -0.02890 0.12708 0.48530
 N1212 N -0.03760 0.12862 0.46862
 C1213 C -0.03434 0.14534 0.45598
 C1214 C -0.04294 0.14544 0.43712
 C1215 C -0.03961 0.16133 0.42429
 C1216 C -0.02765 0.17749 0.43019
 C1217 C -0.01928 0.17746 0.44928
 C1218 C -0.02254 0.16153 0.46203
 H1219 H -0.01363 0.09261 0.54149
 H1220 H -0.00985 0.12079 0.51906
 H1221 H -0.05463 0.09604 0.48035
 H1222 H -0.05868 0.06784 0.50268
 H1223 H -0.05204 0.13304 0.43226
 H1224 H -0.04609 0.16076 0.40962
 H1225 H -0.01032 0.18982 0.45445
 H1226 H -0.01584 0.16189 0.47661
 C1227 C 0.45715 0.57246 0.99542
 C1228 C 0.46070 0.58784 0.98209
 C1229 C 0.47541 0.60202 0.98605
 C1230 C 0.48676 0.60056 1.00351
 C1231 C 0.48332 0.58510 1.01681
 C1232 C 0.46840 0.57091 1.01296
 N1233 N 0.47840 0.61775 0.97218
 N1234 N 0.49056 0.63190 0.97543
 C1235 C 0.49346 0.64764 0.96154
 C1236 C 0.50586 0.66354 0.96675
 C1237 C 0.50875 0.67931 0.95369
 C1238 C 0.49934 0.67938 0.93506
 C1239 C 0.48702 0.66326 0.92982
 C1240 C 0.48407 0.64755 0.94294
 H1241 H 0.44559 0.56178 0.99193
 H1242 H 0.45188 0.58880 0.96868
 H1243 H 0.49826 0.61133 1.00687
 H1244 H 0.49225 0.58437 1.03017
 H1245 H 0.51313 0.66381 0.98106
 H1246 H 0.51806 0.69161 0.95835
 H1247 H 0.47980 0.66269 0.91549
 H1248 H 0.47449 0.63536 0.93853
 C1249 C 0.52664 0.90540 1.03634
 C1250 C 0.52454 0.88867 1.02420
 C1251 C 0.53587 0.88670 1.00719
 C1252 C 0.54977 0.90150 1.00260
 C1253 C 0.55207 0.91815 1.01479
 C1254 C 0.54037 0.92050 1.03176
 N1255 N 0.53274 0.86978 0.99466
 N1256 N 0.54089 0.86826 0.97790
 C1257 C 0.53761 0.85147 0.96524
 C1258 C 0.54499 0.85195 0.94608
 C1259 C 0.54145 0.83613 0.93310
 C1260 C 0.53057 0.81940 0.93915
 C1261 C 0.52348 0.81883 0.95857
 C1262 C 0.52690 0.83475 0.97147
 H1263 H 0.51740 0.90646 1.04925
 H1264 H 0.51381 0.87732 1.02791
 H1265 H 0.55879 0.90025 0.98955
 H1266 H 0.56285 0.92930 1.01068
 H1267 H 0.55323 0.86479 0.94110
 H1268 H 0.54688 0.83722 0.91820
 H1269 H 0.51538 0.80604 0.96385
 H1270 H 0.52116 0.83397 0.98628
 C1271 C 0.05724 0.42445 0.48839
 C1272 C 0.05409 0.40796 0.47613
 C1273 C 0.03892 0.39441 0.48009
 C1274 C 0.02688 0.39746 0.49658
 C1275 C 0.02985 0.41401 0.50877
 C1276 C 0.04504 0.42785 0.50483
 N1277 N 0.03575 0.37797 0.46695
 N1278 N 0.02327 0.36430 0.47060
 C1279 C 0.01961 0.34810 0.45729
 C1280 C 0.00714 0.33264 0.46316
 C1281 C 0.00290 0.31682 0.45040
 C1282 C 0.01094 0.31628 0.43136
 C1283 C 0.02351 0.33187 0.42553
 C1284 C 0.02787 0.34760 0.43839
 H1285 H 0.06910 0.43464 0.48476
 H1286 H 0.06346 0.40577 0.46345
 H1287 H 0.01501 0.38721 0.49992
 H1288 H 0.02013 0.41592 0.52124
 H1289 H 0.00072 0.33286 0.47771
 H1290 H -0.00656 0.30493 0.45551
 H1291 H 0.02971 0.33211 0.41089
 H1292 H 0.03744 0.35948 0.43345
 C1293 C 0.40354 0.47932 0.48290
 C1294 C 0.38796 0.49255 0.48677
 C1295 C 0.38695 0.51103 0.47733
 C1296 C 0.40164 0.51609 0.46369
 C1297 C 0.41714 0.50282 0.45967
 C1298 C 0.41833 0.48432 0.46931
 N1299 N 0.37092 0.52432 0.48183
 N1300 N 0.37009 0.54198 0.47507
 C1301 C 0.35400 0.55526 0.47941
 C1302 C 0.35486 0.57491 0.47268
 C1303 C 0.33938 0.58825 0.47653
 C1304 C 0.32262 0.58209 0.48711
 C1305 C 0.32184 0.56231 0.49387
 C1306 C 0.33740 0.54902 0.49010
 H1307 H 0.40395 0.46518 0.49054
 H1308 H 0.37670 0.48845 0.49728
 H1309 H 0.40114 0.53027 0.45614
 H1310 H 0.42829 0.50717 0.44916
 H1311 H 0.36761 0.57992 0.46448
 H1312 H 0.34062 0.60344 0.47137
 H1313 H 0.30904 0.55697 0.50178
 H1314 H 0.33634 0.53386 0.49537
 C1315 C 0.92482 -0.00152 -0.04800
 C1316 C 0.90954 0.01246 -0.04594
 C1317 C 0.89460 0.00960 -0.03211
 C1318 C 0.89524 -0.00736 -0.02004
 C1319 C 0.91060 -0.02130 -0.02192
 C1320 C 0.92558 -0.01869 -0.03605
 N1321 N 0.87892 0.02402 -0.03069
 N1322 N 0.86386 0.02129 -0.01987
 C1323 C 0.84816 0.03566 -0.01838
 C1324 C 0.83117 0.03076 -0.00779
 C1325 C 0.81547 0.04433 -0.00619
 C1326 C 0.81658 0.06323 -0.01504
 C1327 C 0.83377 0.06816 -0.02558
 C1328 C 0.84939 0.05449 -0.02729
 H1329 H 0.93601 0.00119 -0.05901
 H1330 H 0.90922 0.02551 -0.05529
 H1331 H 0.88389 -0.00986 -0.00916
 H1332 H 0.91054 -0.03421 -0.01238
 H1333 H 0.83002 0.01627 -0.00092
 H1334 H 0.80235 0.03989 0.00175
 H1335 H 0.83527 0.08267 -0.03231
 H1336 H 0.86245 0.05868 -0.03546
 C1337 C 0.57232 0.00268 0.05506
 C1338 C 0.58682 0.01684 0.05067
 C1339 C 0.60165 0.01252 0.03701
 C1340 C 0.60170 -0.00612 0.02754
 C1341 C 0.58715 -0.02022 0.03179
 C1342 C 0.57234 -0.01604 0.04568
 N1343 N 0.61653 0.02716 0.03308
 N1344 N 0.63136 0.02328 0.02222
 C1345 C 0.64639 0.03767 0.01806
 C1346 C 0.66316 0.03159 0.00765
 C1347 C 0.67827 0.04512 0.00350
 C1348 C 0.67678 0.06513 0.00957
 C1349 C 0.65979 0.07123 0.01992
 C1350 C 0.64474 0.05762 0.02418
 H1351 H 0.56110 0.00641 0.06577
 H1352 H 0.58660 0.03117 0.05804
 H1353 H 0.61297 -0.00981 0.01688
 H1354 H 0.58765 -0.03448 0.02431
 H1355 H 0.66461 0.01624 0.00292
 H1356 H 0.69127 0.03980 -0.00417
 H1357 H 0.65801 0.08657 0.02455
 H1358 H 0.63183 0.06269 0.03216
 C1359 C 0.09682 0.48347 0.50785
 C1360 C 0.11274 0.49645 0.50499
 C1361 C 0.11369 0.51461 0.51511
 C1362 C 0.09843 0.51976 0.52814
 C1363 C 0.08257 0.50676 0.53112
 C1364 C 0.08161 0.48842 0.52106
 N1365 N 0.13040 0.52739 0.51217
 N1366 N 0.13151 0.54459 0.52004
 C1367 C 0.14833 0.55730 0.51747
 C1368 C 0.14773 0.57666 0.52510
 C1369 C 0.16392 0.58944 0.52294
 C1370 C 0.18113 0.58298 0.51319
 C1371 C 0.18170 0.56344 0.50563
 C1372 C 0.16544 0.55073 0.50769
 H1373 H 0.09657 0.46946 0.49991
 H1374 H 0.12443 0.49231 0.49493
 H1375 H 0.09883 0.53371 0.53616
 H1376 H 0.07110 0.51108 0.54135
 H1377 H 0.13461 0.58189 0.53265
 H1378 H 0.16284 0.60446 0.52868
 H1379 H 0.19483 0.55786 0.49835
 H1380 H 0.16632 0.53576 0.50180
 C1381 C 0.07406 0.49725 -0.05645
 C1382 C 0.08987 0.48404 -0.05332
 C1383 C 0.10456 0.48823 -0.03919
 C1384 C 0.10323 0.50582 -0.02801
 C1385 C 0.08732 0.51899 -0.03099
 C1386 C 0.07257 0.51488 -0.04529
 N1387 N 0.12052 0.47430 -0.03640
 N1388 N 0.13530 0.47789 -0.02507
 C1389 C 0.15105 0.46375 -0.02215
 C1390 C 0.16768 0.46926 -0.01085
 C1391 C 0.18320 0.45574 -0.00754
 C1392 C 0.18229 0.43633 -0.01539
 C1393 C 0.16555 0.43087 -0.02677
 C1394 C 0.15010 0.44445 -0.03017
 H1395 H 0.06294 0.49357 -0.06752
 H1396 H 0.09071 0.47050 -0.06199
 H1397 H 0.11439 0.50935 -0.01694
 H1398 H 0.08665 0.53244 -0.02218
 H1399 H 0.16861 0.48411 -0.00463
 H1400 H 0.19599 0.46055 0.00103
 H1401 H 0.16419 0.41596 -0.03276
 H1402 H 0.13734 0.43979 -0.03887
 C1403 C 0.58968 1.01806 0.48349
 C1404 C 0.60679 1.00655 0.48656
 C1405 C 0.61039 0.98971 0.47498
 C1406 C 0.59677 0.98458 0.45998
 C1407 C 0.57973 0.99616 0.45672
 C1408 C 0.57583 1.01302 0.46853
 N1409 N 0.62788 0.97805 0.47880
 N1410 N 0.63103 0.96149 0.47019
 C1411 C 0.64854 0.94984 0.47398
 C1412 C 0.65002 0.93085 0.46561
 C1413 C 0.66678 0.91898 0.46920
 C1414 C 0.68251 0.92602 0.48115
 C1415 C 0.68103 0.94523 0.48939
 C1416 C 0.66418 0.95701 0.48590
 H1417 H 0.58739 1.03090 0.49289
 H1418 H 0.61721 1.01066 0.49814
 H1419 H 0.59928 0.97166 0.45076
 H1420 H 0.56957 0.99169 0.44504
 H1421 H 0.63803 0.92514 0.45644
 H1422 H 0.66726 0.90417 0.46287
 H1423 H 0.69299 0.95127 0.49836
 H1424 H 0.66344 0.97172 0.49243
 C1425 C 0.92769 1.00057 0.55606
 C1426 C 0.91250 0.98670 0.55298
 C1427 C 0.89843 0.98945 0.53791
 C1428 C 0.89976 1.00627 0.52575
 C1429 C 0.91503 1.02010 0.52865
 C1430 C 0.92925 1.01750 0.54389
 N1431 N 0.88309 0.97490 0.53519
 N1432 N 0.86877 0.97740 0.52302
 C1433 C 0.85357 0.96275 0.52011
 C1434 C 0.83720 0.96738 0.50807
 C1435 C 0.82211 0.95343 0.50487
 C1436 C 0.82322 0.93442 0.51355
 C1437 C 0.83977 0.92981 0.52560
 C1438 C 0.85477 0.94385 0.52891
 H1439 H 0.93824 0.99788 0.56793
 H1440 H 0.91165 0.97376 0.56244
 H1441 H 0.88908 1.00869 0.51394
 H1442 H 0.91558 1.03285 0.51893
 H1443 H 0.83607 0.98191 0.50124
 H1444 H 0.80945 0.95764 0.49578
 H1445 H 0.84129 0.91524 0.53226
 H1446 H 0.86736 0.93986 0.53818
 C1447 C 0.41275 0.51959 0.01974
 C1448 C 0.39618 0.50746 0.01663
 C1449 C 0.39358 0.49024 0.02782
 C1450 C 0.40775 0.48529 0.04241
 C1451 C 0.42430 0.49751 0.04566
 C1452 C 0.42703 0.51478 0.03430
 N1453 N 0.37645 0.47815 0.02400
 N1454 N 0.37366 0.46151 0.03247
 C1455 C 0.35634 0.44972 0.02841
 C1456 C 0.35483 0.43079 0.03683
 C1457 C 0.33821 0.41886 0.03294
 C1458 C 0.32270 0.42576 0.02060
 C1459 C 0.32422 0.44487 0.01231
 C1460 C 0.34089 0.45671 0.01612
 H1461 H 0.41430 0.53280 0.01077
 H1462 H 0.38535 0.51144 0.00537
 H1463 H 0.40602 0.47205 0.05128
 H1464 H 0.43502 0.49336 0.05697
 H1465 H 0.36665 0.42520 0.04629
 H1466 H 0.33764 0.40413 0.03937
 H1467 H 0.31241 0.45082 0.00306
 H1468 H 0.34162 0.47136 0.00953
 C1469 C 0.47161 0.47981 0.41594
 C1470 C 0.48387 0.48308 0.39981
 C1471 C 0.50132 0.47199 0.39749
 C1472 C 0.50644 0.45747 0.41155
 C1473 C 0.49410 0.45406 0.42765
 C1474 C 0.47652 0.46519 0.43002
 N1475 N 0.51337 0.47566 0.38063
 N1476 N 0.53016 0.46728 0.37820
 C1477 C 0.54193 0.47096 0.36114
 C1478 C 0.56116 0.46302 0.36029
 C1479 C 0.57306 0.46648 0.34391
 C1480 C 0.56584 0.47785 0.32794
 C1481 C 0.54641 0.48563 0.32879
 C1482 C 0.53460 0.48228 0.34525
 H1483 H 0.45817 0.48862 0.41724
 H1484 H 0.47976 0.49429 0.38906
 H1485 H 0.51986 0.44867 0.41004
 H1486 H 0.49835 0.44272 0.43821
 H1487 H 0.56700 0.45430 0.37245
 H1488 H 0.58803 0.46051 0.34390
 H1489 H 0.54022 0.49412 0.31664
 H1490 H 0.51971 0.48844 0.34547
 C1491 C -0.00450 -0.05871 0.92289
 C1492 C 0.00935 -0.05646 0.90787
 C1493 C 0.01209 -0.03790 0.89898
 C1494 C 0.00063 -0.02155 0.90517
 C1495 C -0.01342 -0.02383 0.91999
 C1496 C -0.01611 -0.04243 0.92906
 N1497 N 0.02635 -0.03609 0.88359
 N1498 N 0.03151 -0.01921 0.87689
 C1499 C 0.04538 -0.01723 0.86118
 C1500 C 0.05239 0.00174 0.85649
 C1501 C 0.06563 0.00431 0.84101
 C1502 C 0.07191 -0.01209 0.82969
 C1503 C 0.06485 -0.03118 0.83450
 C1504 C 0.05177 -0.03374 0.85015
 H1505 H -0.00627 -0.07325 0.92950
 H1506 H 0.01805 -0.06919 0.90319
 H1507 H 0.00240 -0.00706 0.89844
 H1508 H -0.02207 -0.01099 0.92443
 H1509 H 0.04762 0.01457 0.86492
 H1510 H 0.07103 0.01916 0.83801
 H1511 H 0.06908 -0.04410 0.82593
 H1512 H 0.04641 -0.04855 0.85341
 C1513 C 0.00442 0.05162 0.58276
 C1514 C 0.01796 0.04919 0.59835
 C1515 C 0.01445 0.03518 0.61310
 C1516 C -0.00278 0.02342 0.61203
 C1517 C -0.01627 0.02570 0.59635
 C1518 C -0.01285 0.03988 0.58156
 N1519 N 0.02864 0.03315 0.62888
 N1520 N 0.02557 0.02197 0.64364
 C1521 C 0.03985 0.01979 0.65932
 C1522 C 0.03476 0.00870 0.67590
 C1523 C 0.04836 0.00620 0.69143
 C1524 C 0.06746 0.01465 0.69056
 C1525 C 0.07253 0.02578 0.67382
 C1526 C 0.05885 0.02837 0.65837
 H1527 H 0.00756 0.06263 0.57159
 H1528 H 0.03120 0.05832 0.59899
 H1529 H -0.00578 0.01243 0.62324
 H1530 H -0.02942 0.01644 0.59591
 H1531 H 0.02014 0.00207 0.67683
 H1532 H 0.04382 -0.00217 0.70421
 H1533 H 0.08719 0.03222 0.67252
 H1534 H 0.06319 0.03692 0.64563
 C1535 C 0.50442 0.54469 0.07496
 C1536 C 0.51711 0.54196 0.09118
 C1537 C 0.51223 0.52852 0.10605
 C1538 C 0.49445 0.51766 0.10447
 C1539 C 0.48178 0.52028 0.08818
 C1540 C 0.48659 0.53388 0.07324
 N1541 N 0.52559 0.52622 0.12249
 N1542 N 0.52160 0.51522 0.13716
 C1543 C 0.53513 0.51293 0.15349
 C1544 C 0.52931 0.50164 0.16971
 C1545 C 0.54216 0.49911 0.18586
 C1546 C 0.56118 0.50779 0.18603
 C1547 C 0.56698 0.51911 0.16967
 C1548 C 0.55408 0.52169 0.15357
 H1549 H 0.50865 0.55525 0.06373
 H1550 H 0.53079 0.55039 0.09221
 H1551 H 0.49037 0.50714 0.11578
 H1552 H 0.46817 0.51173 0.08736
 H1553 H 0.51472 0.49485 0.16985
 H1554 H 0.53709 0.49055 0.19832
 H1555 H 0.58162 0.52573 0.16916
 H1556 H 0.55899 0.53041 0.14116
 C1557 C 0.50674 -0.05599 0.09464
 C1558 C 0.49374 -0.05324 0.11032
 C1559 C 0.49124 -0.03438 0.11874
 C1560 C 0.50218 -0.01823 0.11151
 C1561 C 0.51537 -0.02099 0.09597
 C1562 C 0.51769 -0.03988 0.08726
 N1563 N 0.47747 -0.03206 0.13450
 N1564 N 0.47264 -0.01503 0.14124
 C1565 C 0.45888 -0.01279 0.15703
 C1566 C 0.45222 0.00630 0.16200
 C1567 C 0.43855 0.00897 0.17713
 C1568 C 0.43144 -0.00748 0.18774
 C1569 C 0.43835 -0.02664 0.18281
 C1570 C 0.45188 -0.02930 0.16755
 H1571 H 0.50824 -0.07075 0.08835
 H1572 H 0.48542 -0.06581 0.11580
 H1573 H 0.50055 -0.00350 0.11785
 H1574 H 0.52355 -0.00827 0.09061
 H1575 H 0.45747 0.01913 0.15396
 H1576 H 0.43333 0.02390 0.18030
 H1577 H 0.43350 -0.03960 0.19088
 H1578 H 0.45694 -0.04421 0.16407
 C1579 C 1.02231 0.48801 0.56831
 C1580 C 1.00920 0.49177 0.58369
 C1581 C 0.99723 0.47654 0.59098
 C1582 C 0.99831 0.45744 0.58254
 C1583 C 1.01123 0.45371 0.56698
 C1584 C 1.02345 0.46894 0.55975
 N1585 N 0.98409 0.48089 0.60686
 N1586 N 0.97479 0.46731 0.61595
 C1587 C 0.96153 0.47181 0.63170
 C1588 C 0.95426 0.45624 0.64317
 C1589 C 0.94154 0.46018 0.65884
 C1590 C 0.93562 0.47984 0.66315
 C1591 C 0.94277 0.49542 0.65137
 C1592 C 0.95567 0.49147 0.63586
 H1593 H 1.03143 0.50009 0.56302
 H1594 H 1.00845 0.50656 0.59005
 H1595 H 0.98912 0.44544 0.58789
 H1596 H 1.01179 0.43886 0.56073
 H1597 H 0.95870 0.44103 0.64012
 H1598 H 0.93661 0.44784 0.66777
 H1599 H 0.93823 0.51068 0.65398
 H1600 H 0.96095 0.50375 0.62706
 C1601 C 0.99712 0.54793 0.91315
 C1602 C 0.98434 0.54530 0.89698
 C1603 C 0.98879 0.53134 0.88236
 C1604 C 1.00624 0.51987 0.88408
 C1605 C 1.01899 0.52238 0.90032
 C1606 C 1.01459 0.53646 0.91503
 N1607 N 0.97530 0.52907 0.86604
 N1608 N 0.97897 0.51764 0.85154
 C1609 C 0.96526 0.51536 0.83539
 C1610 C 0.97082 0.50383 0.81916
 C1611 C 0.95779 0.50136 0.80315
 C1612 C 0.93884 0.51033 0.80317
 C1613 C 0.93329 0.52183 0.81957
 C1614 C 0.94638 0.52437 0.83551
 H1615 H 0.99322 0.55886 0.92421
 H1616 H 0.97092 0.55420 0.89582
 H1617 H 1.00997 0.50894 0.87296
 H1618 H 1.03232 0.51332 0.90129
 H1619 H 0.98535 0.49685 0.81888
 H1620 H 0.96266 0.49265 0.79066
 H1621 H 0.91870 0.52866 0.82022
 H1622 H 0.94167 0.53326 0.84795
 C1623 C 0.52007 0.01207 0.41680
 C1624 C 0.50737 0.00834 0.40076
 C1625 C 0.48917 0.01835 0.39898
 C1626 C 0.48365 0.03209 0.41359
 C1627 C 0.49635 0.03593 0.42957
 C1628 C 0.51477 0.02605 0.43132
 N1629 N 0.47682 0.01470 0.38203
 N1630 N 0.45973 0.02269 0.38000
 C1631 C 0.44752 0.01955 0.36286
 C1632 C 0.42844 0.02787 0.36225
 C1633 C 0.41629 0.02553 0.34557
 C1634 C 0.42311 0.01487 0.32909
 C1635 C 0.44230 0.00645 0.32980
 C1636 C 0.45438 0.00873 0.34655
 H1637 H 0.53414 0.00422 0.41765
 H1638 H 0.51180 -0.00227 0.38958
 H1639 H 0.46965 0.04004 0.41254
 H1640 H 0.49176 0.04673 0.44050
 H1641 H 0.42298 0.03622 0.37475
 H1642 H 0.40150 0.03194 0.34563
 H1643 H 0.44813 -0.00158 0.31728
 H1644 H 0.46915 0.00226 0.34663
   
