data_POSCAR
  _audit_creation_date              2014-09-24
  _audit_creation_method            'ToBaCCo'
  _symmetry_space_group_name_H-M    'P1'
  _symmetry_Int_Tables_number       1
  _symmetry_cell_setting            triclinic
  loop_
  _symmetry_equiv_pos_as_xyz
 x,y,z
_cell_length_a 60.6061
_cell_length_b 63.0672
_cell_length_c 62.7773
_cell_angle_alpha 90.048000
_cell_angle_beta 90.456700
_cell_angle_gamma 89.933000
loop_
  _atom_site_label
  _atom_site_type_symbol
  _atom_site_fract_x
  _atom_site_fract_y
  _atom_site_fract_z
C1 C 0.30339 0.38369 0.01656
 C2 C 0.30390 0.38445 -0.00524
 C3 C 0.30921 0.36418 -0.01217
 N4 N 0.31242 0.35120 0.00470
 C5 C 0.30876 0.36311 0.02225
 C6 C 0.30975 0.35752 -0.03373
 C7 C 0.32028 0.33833 -0.03968
 C8 C 0.31595 0.32711 -0.05828
 C9 C 0.33010 0.31011 -0.05848
 C10 C 0.34270 0.31133 -0.03998
 N11 N 0.33642 0.32842 -0.02844
 C12 C 0.35982 0.29704 -0.03431
 C13 C 0.36643 0.29452 -0.01277
 C14 C 0.38587 0.28501 -0.00587
 C15 C 0.38483 0.28397 0.01589
 C16 C 0.36503 0.29327 0.02158
 N17 N 0.35381 0.29983 0.00408
 C18 C 0.35679 0.29405 0.04250
 C19 C 0.33994 0.30819 0.04858
 C20 C 0.32862 0.30753 0.06768
 C21 C 0.31493 0.32498 0.06793
 C22 C 0.31830 0.33572 0.04897
 N23 N 0.33360 0.32543 0.03733
 C24 C 0.30843 0.35518 0.04327
 H25 H 0.29946 0.39678 0.02704
 H26 H 0.30059 0.39832 -0.01489
 H27 H 0.34102 0.33109 0.02357
 H28 H 0.30365 0.33063 -0.07036
 H29 H 0.33080 0.29805 -0.07073
 H30 H 0.39936 0.27928 -0.01550
 H31 H 0.39724 0.27718 0.02635
 H32 H 0.30390 0.32935 0.08069
 H33 H 0.34414 0.33410 -0.01468
 H34 H 0.33025 0.29584 0.08021
 C35 C 0.71907 0.62441 -0.01144
 C36 C 0.72070 0.62625 0.01025
 C37 C 0.71380 0.64657 0.01527
 N38 N 0.70822 0.65733 -0.00263
 C39 C 0.71167 0.64384 -0.01906
 C40 C 0.71414 0.65525 0.03601
 C41 C 0.70196 0.67350 0.04158
 C42 C 0.70436 0.68480 0.06041
 C43 C 0.68840 0.70038 0.06019
 C44 C 0.67675 0.69814 0.04122
 N45 N 0.68506 0.68167 0.03005
 C46 C 0.65820 0.71035 0.03513
 C47 C 0.64945 0.71029 0.01421
 C48 C 0.62932 0.71903 0.00830
 C49 C 0.62789 0.71741 -0.01344
 C50 C 0.64723 0.70779 -0.02008
 N51 N 0.66038 0.70341 -0.00316
 C52 C 0.65339 0.70492 -0.04151
 C53 C 0.67143 0.69207 -0.04745
 C54 C 0.68170 0.69276 -0.06706
 C55 C 0.69751 0.67711 -0.06689
 C56 C 0.69626 0.66706 -0.04725
 N57 N 0.68043 0.67643 -0.03542
 C58 C 0.70902 0.64921 -0.04090
 H59 H 0.72284 0.61029 -0.02052
 H60 H 0.72615 0.61397 0.02112
 H61 H 0.67451 0.67100 -0.02089
 H62 H 0.71621 0.68197 0.07308
 H63 H 0.68558 0.71193 0.07265
 H64 H 0.61703 0.72604 0.01857
 H65 H 0.61428 0.72291 -0.02324
 H66 H 0.70868 0.67358 -0.07978
 H67 H 0.67811 0.67493 0.01644
 H68 H 0.67822 0.70348 -0.08012
 C69 C 0.60744 0.29545 0.98858
 C70 C 0.60659 0.29671 1.01037
 C71 C 0.62575 0.30684 1.01696
 N72 N 0.63828 0.31178 0.99996
 C73 C 0.62713 0.30478 0.98258
 C74 C 0.63240 0.30955 1.03839
 C75 C 0.65022 0.32269 1.04452
 C76 C 0.66090 0.32179 1.06410
 C77 C 0.67649 0.33758 1.06417
 C78 C 0.67475 0.34793 1.04470
 N79 N 0.65874 0.33864 1.03276
 C80 C 0.68767 0.36558 1.03841
 C81 C 0.68984 0.37110 1.01662
 C82 C 0.69784 0.39030 1.00912
 C83 C 0.69928 0.38843 0.98744
 C84 C 0.69165 0.36837 0.98234
 N85 N 0.68581 0.35778 1.00014
 C86 C 0.69203 0.35951 0.96172
 C87 C 0.67953 0.34153 0.95593
 C88 C 0.68203 0.33006 0.93726
 C89 C 0.66590 0.31470 0.93719
 C90 C 0.65405 0.31725 0.95583
 N91 N 0.66240 0.33371 0.96710
 C92 C 0.63541 0.30516 0.96159
 H93 H 0.59512 0.28821 0.97835
 H94 H 0.59351 0.29061 1.02027
 H95 H 0.65542 0.34060 0.98052
 H96 H 0.65793 0.31075 1.07695
 H97 H 0.68798 0.34086 1.07703
 H98 H 0.70235 0.40417 1.01831
 H99 H 0.70527 0.40045 0.97663
 H100 H 0.66321 0.30302 0.92480
 H101 H 0.65257 0.34413 1.01825
 H102 H 0.69411 0.33257 0.92491
 C103 C 0.27536 0.62574 0.98752
 C104 C 0.27433 0.62632 1.00928
 C105 C 0.29062 0.64026 1.01624
 N106 N 0.30170 0.64794 0.99927
 C107 C 0.29229 0.63922 0.98171
 C108 C 0.29715 0.64328 1.03783
 C109 C 0.31430 0.65751 1.04385
 C110 C 0.32560 0.65737 1.06320
 C111 C 0.33987 0.67424 1.06304
 C112 C 0.33632 0.68501 1.04406
 N113 N 0.32084 0.67457 1.03239
 C114 C 0.34681 0.70424 1.03802
 C115 C 0.34594 0.71142 1.01664
 C116 C 0.34967 0.73213 1.01009
 C117 C 0.35013 0.73180 0.98827
 C118 C 0.34636 0.71100 0.98223
 N119 N 0.34363 0.69857 0.99955
 C120 C 0.34779 0.70326 0.96121
 C121 C 0.33834 0.68366 0.95525
 C122 C 0.34231 0.67296 0.93637
 C123 C 0.32859 0.65561 0.93613
 C124 C 0.31693 0.65597 0.95506
 N125 N 0.32286 0.67321 0.96653
 C126 C 0.30025 0.64146 0.96071
 H127 H 0.26534 0.61579 0.97728
 H128 H 0.26346 0.61663 1.01874
 H129 H 0.31505 0.67879 0.98013
 H130 H 0.32396 0.64644 1.07631
 H131 H 0.35147 0.67803 1.07565
 H132 H 0.35223 0.74593 1.02006
 H133 H 0.35316 0.74526 0.97802
 H134 H 0.32734 0.64415 0.92335
 H135 H 0.31350 0.68002 1.01838
 H136 H 0.35370 0.67726 0.92392
 C137 C -0.00781 0.29276 0.38131
 C138 C 0.01472 0.29316 0.37995
 C139 C 0.01958 0.30021 0.35964
 N140 N 0.00078 0.30410 0.34850
 C141 C -0.01601 0.29935 0.36168
 C142 C 0.04103 0.30135 0.35114
 C143 C 0.04560 0.31221 0.33209
 C144 C 0.06480 0.31026 0.32039
 C145 C 0.06315 0.32449 0.30382
 C146 C 0.04305 0.33477 0.30602
 N147 N 0.03250 0.32720 0.32327
 C148 C 0.03553 0.35180 0.29336
 C149 C 0.01361 0.35929 0.29411
 C150 C 0.00674 0.37884 0.28654
 C151 C -0.01570 0.37937 0.28870
 C152 C -0.02188 0.35993 0.29712
 N153 N -0.00386 0.34775 0.30069
 C154 C -0.04395 0.35308 0.29992
 C155 C -0.04900 0.33574 0.31343
 C156 C -0.06818 0.32381 0.31229
 C157 C -0.06662 0.30858 0.32788
 C158 C -0.04657 0.31164 0.33829
 N159 N -0.03586 0.32816 0.32926
 C160 C -0.03863 0.29934 0.35570
 H161 H -0.01713 0.28798 0.39513
 H162 H 0.02623 0.28867 0.39243
 H163 H -0.02116 0.33493 0.33465
 H164 H 0.07861 0.29980 0.32357
 H165 H 0.07548 0.32719 0.29175
 H166 H 0.01688 0.39141 0.28016
 H167 H -0.02630 0.39252 0.28435
 H168 H -0.07872 0.29636 0.33085
 H169 H 0.01835 0.33358 0.33004
 H170 H -0.08167 0.32552 0.30103
 C171 C 0.01424 0.72576 0.64264
 C172 C -0.00830 0.72679 0.64380
 C173 C -0.01528 0.70816 0.65345
 N174 N 0.00238 0.69567 0.65772
 C175 C 0.02040 0.70630 0.65097
 C176 C -0.03749 0.70123 0.65515
 C177 C -0.04344 0.68348 0.66782
 C178 C -0.06371 0.67318 0.66726
 C179 C -0.06325 0.65802 0.68292
 C180 C -0.04306 0.65985 0.69329
 N181 N -0.03107 0.67535 0.68392
 C182 C -0.03602 0.64757 0.71107
 C183 C -0.01331 0.64621 0.71636
 C184 C -0.00471 0.63950 0.73578
 C185 C 0.01761 0.63743 0.73312
 C186 C 0.02191 0.64350 0.71238
 N187 N 0.00307 0.64900 0.70218
 C188 C 0.04236 0.64115 0.70220
 C189 C 0.04789 0.65331 0.68419
 C190 C 0.06582 0.64985 0.67107
 C191 C 0.06578 0.66603 0.65633
 C192 C 0.04771 0.67876 0.66082
 N193 N 0.03701 0.67097 0.67787
 C194 C 0.04190 0.69755 0.64992
 H195 H 0.02476 0.73771 0.63569
 H196 H -0.01817 0.73964 0.63753
 H197 H 0.02422 0.67841 0.68599
 H198 H -0.07769 0.67624 0.65691
 H199 H -0.07639 0.64693 0.68615
 H200 H -0.01368 0.63586 0.75016
 H201 H 0.02933 0.63177 0.74491
 H202 H 0.07760 0.66811 0.64367
 H203 H -0.01614 0.68142 0.68955
 H204 H 0.07774 0.63709 0.67203
 C205 C 0.98818 0.63959 0.27624
 C206 C 1.01076 0.63907 0.27564
 C207 C 1.01824 0.64397 0.29602
 N208 N 1.00094 0.64802 0.30889
 C209 C 0.98258 0.64523 0.29682
 C210 C 1.04060 0.64332 0.30290
 C211 C 1.04746 0.65416 0.32168
 C212 C 1.06698 0.65050 0.33282
 C213 C 1.06783 0.66501 0.34914
 C214 C 1.04850 0.67672 0.34802
 N215 N 1.03619 0.67007 0.33122
 C216 C 1.04329 0.69393 0.36150
 C217 C 1.02163 0.70178 0.36410
 C218 C 1.01609 0.71926 0.37637
 C219 C 0.99352 0.72042 0.37636
 C220 C 0.98593 0.70359 0.36412
 N221 N 1.00316 0.69210 0.35681
 C222 C 0.96346 0.69806 0.36145
 C223 C 0.95633 0.68104 0.34847
 C224 C 0.93566 0.67168 0.34921
 C225 C 0.93507 0.65654 0.33341
 C226 C 0.95521 0.65743 0.32313
 N227 N 0.96805 0.67237 0.33243
 C228 C 0.96083 0.64584 0.30466
 H229 H 0.97711 0.63620 0.26306
 H230 H 1.02057 0.63531 0.26180
 H231 H 0.98295 0.67800 0.32659
 H232 H 1.07939 0.63860 0.32965
 H233 H 1.08116 0.66657 0.36059
 H234 H 1.02708 0.72980 0.38495
 H235 H 0.98386 0.73201 0.38494
 H236 H 0.92121 0.64634 0.32974
 H237 H 1.02204 0.67744 0.32530
 H238 H 0.92229 0.67533 0.35992
 C239 C 1.01429 0.36688 0.72268
 C240 C 0.99193 0.36521 0.72523
 C241 C 0.98423 0.35222 0.70898
 N242 N 1.00115 0.34612 0.69645
 C243 C 1.01958 0.35489 0.70491
 C244 C 0.96172 0.34756 0.70506
 C245 C 0.95432 0.33346 0.68898
 C246 C 0.93252 0.33120 0.68247
 C247 C 0.93207 0.31534 0.66746
 C248 C 0.95360 0.30822 0.66522
 N249 N 0.96699 0.31919 0.67858
 C250 C 0.96006 0.29084 0.65243
 C251 C 0.98234 0.28531 0.64889
 C252 C 0.98938 0.26615 0.64052
 C253 C 1.01178 0.26757 0.63847
 C254 C 1.01773 0.28788 0.64481
 N255 N 0.99969 0.29861 0.65144
 C256 C 1.03931 0.29658 0.64344
 C257 C 1.04515 0.31549 0.65447
 C258 C 1.06340 0.32798 0.65002
 C259 C 1.06400 0.34385 0.66498
 C260 C 1.04572 0.34114 0.67781
 N261 N 1.03431 0.32380 0.67134
 C262 C 1.04077 0.35380 0.69575
 H263 H 1.02524 0.37636 0.73248
 H264 H 0.98244 0.37311 0.73742
 H265 H 1.02136 0.31671 0.67944
 H266 H 0.91828 0.33981 0.68815
 H267 H 0.91740 0.30940 0.65956
 H268 H 0.97957 0.25243 0.63640
 H269 H 1.02241 0.25502 0.63281
 H270 H 1.07650 0.35603 0.66610
 H271 H 0.98332 0.31553 0.68205
 H272 H 1.07518 0.32594 0.63732
 C273 C 0.30442 -0.01573 0.39239
 C274 C 0.30313 0.00594 0.39169
 C275 C 0.31013 0.01187 0.37164
 N276 N 0.31547 -0.00539 0.35994
 C277 C 0.31168 -0.02234 0.37253
 C278 C 0.30960 0.03277 0.36374
 C279 C 0.32202 0.03908 0.34595
 C280 C 0.31983 0.05823 0.33531
 C281 C 0.33609 0.05868 0.32011
 C282 C 0.34757 0.03973 0.32187
 N283 N 0.33897 0.02793 0.33768
 C284 C 0.36636 0.03417 0.31003
 C285 C 0.37403 0.01308 0.30857
 C286 C 0.39434 0.00720 0.30052
 C287 C 0.39463 -0.01452 0.30018
 C288 C 0.37434 -0.02122 0.30777
 N289 N 0.36183 -0.00429 0.31312
 C290 C 0.36710 -0.04259 0.30849
 C291 C 0.34927 -0.04879 0.32167
 C292 C 0.33700 -0.06722 0.31916
 C293 C 0.32191 -0.06765 0.33536
 C294 C 0.32519 -0.04941 0.34733
 N295 N 0.34179 -0.03790 0.33879
 C296 C 0.31287 -0.04370 0.36560
 H297 H 0.30014 -0.02553 0.40588
 H298 H 0.29760 0.01618 0.40443
 H299 H 0.34880 -0.02426 0.34531
 H300 H 0.30796 0.07069 0.33833
 H301 H 0.33918 0.07153 0.30911
 H302 H 0.40754 0.01749 0.29538
 H303 H 0.40822 -0.02428 0.29487
 H304 H 0.30955 -0.07978 0.33772
 H305 H 0.34583 0.01412 0.34394
 H306 H 0.33846 -0.07900 0.30671
 C307 C 0.69269 0.01271 0.60419
 C308 C 0.69251 -0.00905 0.60411
 C309 C 0.68419 -0.01531 0.62362
 N310 N 0.67929 0.00184 0.63560
 C311 C 0.68449 0.01899 0.62375
 C312 C 0.68303 -0.03646 0.63086
 C313 C 0.67153 -0.04235 0.64944
 C314 C 0.67445 -0.06134 0.66018
 C315 C 0.65960 -0.06146 0.67660
 C316 C 0.64778 -0.04263 0.67532
 N317 N 0.65528 -0.03099 0.65877
 C318 C 0.63030 -0.03671 0.68904
 C319 C 0.62361 -0.01524 0.69105
 C320 C 0.60391 -0.00842 0.69992
 C321 C 0.60467 0.01328 0.70042
 C322 C 0.62459 0.01904 0.69149
 N323 N 0.63614 0.00163 0.68568
 C324 C 0.63250 0.04003 0.69022
 C325 C 0.64996 0.04586 0.67670
 C326 C 0.66116 0.06500 0.67752
 C327 C 0.67549 0.06509 0.66064
 C328 C 0.67269 0.04595 0.65006
 N329 N 0.65709 0.03434 0.65993
 C330 C 0.68351 0.04014 0.63109
 H331 H 0.69846 0.02275 0.59142
 H332 H 0.69812 -0.01911 0.59126
 H333 H 0.64992 0.02047 0.65417
 H334 H 0.68620 -0.07378 0.65667
 H335 H 0.65788 -0.07396 0.68827
 H336 H 0.59039 -0.01807 0.70551
 H337 H 0.59198 0.02365 0.70657
 H338 H 0.68663 0.07784 0.65656
 H339 H 0.64825 -0.01706 0.65291
 H340 H 0.65906 0.07770 0.68894
 C341 C 0.37093 1.01554 0.72009
 C342 C 0.37044 0.99395 0.72215
 C343 C 0.35015 0.98742 0.71431
 N344 N 0.33812 1.00429 0.70761
 C345 C 0.35075 1.02156 0.71137
 C346 C 0.34241 0.96633 0.71481
 C347 C 0.32457 0.95943 0.70203
 C348 C 0.31374 0.94019 0.70407
 C349 C 0.29891 0.93891 0.68737
 C350 C 0.30110 0.95745 0.67572
 N351 N 0.31674 0.96983 0.68475
 C352 C 0.29012 0.96199 0.65637
 C353 C 0.28927 0.98264 0.64773
 C354 C 0.28274 0.98739 0.62709
 C355 C 0.28251 1.00905 0.62558
 C356 C 0.28871 1.01686 0.64542
 N357 N 0.29306 1.00066 0.65892
 C358 C 0.28882 1.03860 0.65121
 C359 C 0.30130 1.04601 0.66897
 C360 C 0.29813 1.06528 0.67921
 C361 C 0.31365 1.06650 0.69525
 C362 C 0.32587 1.04791 0.69453
 N363 N 0.31817 1.03545 0.67853
 C364 C 0.34364 1.04280 0.70848
 H365 H 0.38456 1.02570 0.72465
 H366 H 0.38354 0.98415 0.72863
 H367 H 0.32517 1.02126 0.67338
 H368 H 0.31649 0.92817 0.71610
 H369 H 0.28798 0.92574 0.68402
 H370 H 0.27853 0.97640 0.61445
 H371 H 0.27818 1.01805 0.61148
 H372 H 0.31536 1.07943 0.70649
 H373 H 0.32352 0.98339 0.67803
 H374 H 0.28564 1.07710 0.67581
 C375 C 0.62266 1.00484 0.29436
 C376 C 0.62217 0.98310 0.29446
 C377 C 0.64243 0.97644 0.30237
 N378 N 0.65529 0.99334 0.30705
 C379 C 0.64323 1.01071 0.30215
 C380 C 0.64946 0.95512 0.30350
 C381 C 0.66895 0.94883 0.31418
 C382 C 0.67906 0.92920 0.31207
 C383 C 0.69676 0.92905 0.32594
 C384 C 0.69689 0.94858 0.33612
 N385 N 0.67988 0.96049 0.32891
 C386 C 0.71136 0.95442 0.35279
 C387 C 0.71355 0.97552 0.35997
 C388 C 0.72308 0.98136 0.37920
 C389 C 0.72325 1.00305 0.37958
 C390 C 0.71418 1.00979 0.36035
 N391 N 0.70805 0.99288 0.34845
 C392 C 0.71246 1.03122 0.35367
 C393 C 0.69820 1.03721 0.33667
 C394 C 0.69965 1.05597 0.32520
 C395 C 0.68236 1.05606 0.31090
 C396 C 0.67095 1.03727 0.31382
 N397 N 0.68072 1.02583 0.32951
 C398 C 0.65132 1.03168 0.30291
 H399 H 0.60948 1.01513 0.28891
 H400 H 0.60856 0.97331 0.28910
 H401 H 0.67447 1.01213 0.33645
 H402 H 0.67411 0.91628 0.30174
 H403 H 0.70807 0.91598 0.32844
 H404 H 0.72911 0.97104 0.39173
 H405 H 0.72928 1.01274 0.39261
 H406 H 0.67866 1.06853 0.29958
 H407 H 0.67462 0.97478 0.33543
 H408 H 0.71193 1.06830 0.32690
 O409 O 0.82155 0.84858 0.52367
 O410 O 0.85052 0.81303 0.48685
 O411 O 0.82074 0.84226 0.48286
 O412 O 0.85127 0.81920 0.52801
 O413 O 0.82530 0.79495 0.53161
 O414 O 0.79449 0.81838 0.48667
 O415 O 0.82459 0.78883 0.49089
 O416 O 0.79527 0.82474 0.52754
 Cu417 Cu 0.83867 0.83314 0.50498
 Cu418 Cu 0.80726 0.80432 0.50960
 C419 C 0.80335 0.84289 0.53174
 C420 C 0.84258 0.79487 0.48262
 C421 C 0.80234 0.83441 0.47713
 C422 C 0.84360 0.80300 0.53737
 O423 O 0.18091 0.15078 0.51879
 O424 O 0.15277 0.17548 0.47317
 O425 O 0.18516 0.14906 0.47763
 O426 O 0.14847 0.17784 0.51382
 O427 O 0.17270 0.20388 0.51623
 O428 O 0.20868 0.17572 0.47835
 O429 O 0.17568 0.20259 0.47482
 O430 O 0.20522 0.17676 0.51965
 Cu431 Cu 0.16453 0.16059 0.49582
 Cu432 Cu 0.19297 0.19241 0.49738
 C433 C 0.19804 0.15927 0.52686
 C434 C 0.15909 0.19340 0.46639
 C435 C 0.20312 0.15745 0.47166
 C436 C 0.15419 0.19583 0.52105
 O437 O 0.17420 0.85554 0.48422
 O438 O 0.14148 0.82160 0.51921
 O439 O 0.16849 0.85363 0.52521
 O440 O 0.14748 0.82427 0.47874
 O441 O 0.17421 0.80072 0.48268
 O442 O 0.19726 0.83226 0.52710
 O443 O 0.17000 0.80020 0.52376
 O444 O 0.20173 0.83269 0.48567
 Cu445 Cu 0.15516 0.84106 0.50174
 Cu446 Cu 0.18869 0.81428 0.50512
 C447 C 0.19335 0.84980 0.47854
 C448 C 0.15000 0.80503 0.52729
 C449 C 0.18670 0.84831 0.53383
 C450 C 0.15695 0.80724 0.47309
 O451 O 0.84397 0.18620 0.52023
 O452 O 0.81633 0.15606 0.47747
 O453 O 0.84438 0.18715 0.47876
 O454 O 0.81661 0.15465 0.51873
 O455 O 0.78879 0.17723 0.51930
 O456 O 0.81669 0.20988 0.47863
 O457 O 0.78851 0.17863 0.47790
 O458 O 0.81659 0.20934 0.51996
 Cu459 Cu 0.83310 0.16878 0.49877
 Cu460 Cu 0.79984 0.19605 0.49906
 C461 C 0.83512 0.20308 0.52716
 C462 C 0.79761 0.16208 0.47047
 C463 C 0.83544 0.20402 0.47181
 C464 C 0.79790 0.16019 0.52576
 O465 O 0.47412 0.85606 0.82923
 O466 O 0.52141 0.83200 0.85761
 O467 O 0.51675 0.86032 0.82809
 O468 O 0.47921 0.82817 0.85997
 O469 O 0.47923 0.80312 0.83534
 O470 O 0.51880 0.83494 0.80400
 O471 O 0.52206 0.80612 0.83395
 O472 O 0.47609 0.83113 0.80466
 Cu473 Cu 0.49761 0.84671 0.84609
 Cu474 Cu 0.49914 0.81628 0.81705
 C475 C 0.46732 0.84795 0.81182
 C476 C 0.52960 0.81474 0.85080
 C477 C 0.52439 0.85321 0.81073
 C478 C 0.47306 0.81010 0.85335
 O479 O 0.52497 0.17065 0.14659
 O480 O 0.48321 0.14098 0.17587
 O481 O 0.48233 0.17287 0.14982
 O482 O 0.52594 0.13985 0.17412
 O483 O 0.52880 0.16271 0.20059
 O484 O 0.48503 0.19543 0.17658
 O485 O 0.48595 0.16328 0.20284
 O486 O 0.52753 0.19387 0.17280
 Cu487 Cu 0.50387 0.15383 0.15894
 Cu488 Cu 0.50716 0.18108 0.19091
 C489 C 0.53318 0.18746 0.15441
 C490 C 0.47747 0.14683 0.19435
 C491 C 0.47631 0.18987 0.15901
 C492 C 0.53470 0.14557 0.19166
 O493 O 0.47669 0.19401 0.83484
 O494 O 0.51816 0.16557 0.80357
 O495 O 0.51928 0.19446 0.83335
 O496 O 0.47535 0.16537 0.80534
 O497 O 0.47374 0.19020 0.78065
 O498 O 0.51779 0.21962 0.80901
 O499 O 0.51667 0.19040 0.77889
 O500 O 0.47505 0.21913 0.81045
 Cu501 Cu 0.49760 0.17733 0.82167
 Cu502 Cu 0.49577 0.20734 0.79224
 C503 C 0.46885 0.21148 0.82814
 C504 C 0.52431 0.17290 0.78576
 C505 C 0.52574 0.21224 0.82629
 C506 C 0.46696 0.17274 0.78827
 O507 O 0.48349 0.82582 0.13875
 O508 O 0.52488 0.85438 0.16996
 O509 O 0.52588 0.82395 0.14259
 O510 O 0.48215 0.85556 0.16814
 O511 O 0.47989 0.83170 0.19367
 O512 O 0.52281 0.79979 0.16778
 O513 O 0.52279 0.83061 0.19563
 O514 O 0.48002 0.80199 0.16424
 Cu515 Cu 0.50417 0.84234 0.15233
 Cu516 Cu 0.50101 0.81364 0.18290
 C517 C 0.47505 0.80885 0.14576
 C518 C 0.53116 0.84744 0.18796
 C519 C 0.53176 0.80639 0.15082
 C520 C 0.47391 0.84924 0.18559
 O521 O 0.85628 0.51111 0.82406
 O522 O 0.81885 0.47331 0.84952
 O523 O 0.84863 0.47108 0.82020
 O524 O 0.82653 0.51371 0.85384
 O525 O 0.80045 0.52006 0.82998
 O526 O 0.82411 0.47885 0.79522
 O527 O 0.79359 0.47960 0.82484
 O528 O 0.83039 0.51929 0.80050
 Cu529 Cu 0.84006 0.49165 0.83941
 Cu530 Cu 0.80952 0.50008 0.81020
 C531 C 0.84980 0.52159 0.80792
 C532 C 0.79988 0.46985 0.84154
 C533 C 0.84051 0.46800 0.80176
 C534 C 0.80960 0.52406 0.84782
 O535 O 0.14127 0.51616 0.17547
 O536 O 0.17305 0.47868 0.14361
 O537 O 0.14588 0.47569 0.17507
 O538 O 0.16984 0.51992 0.14463
 O539 O 0.19791 0.52097 0.16721
 O540 O 0.17286 0.47839 0.19871
 O541 O 0.20039 0.47974 0.16697
 O542 O 0.16900 0.51940 0.19827
 Cu543 Cu 0.15484 0.49753 0.15729
 Cu544 Cu 0.18785 0.49993 0.18507
 C545 C 0.14937 0.52385 0.19248
 C546 C 0.19192 0.47245 0.14986
 C547 C 0.15508 0.46976 0.19234
 C548 C 0.18824 0.52769 0.15053
 O549 O 0.82430 0.52616 0.15032
 O550 O 0.85263 0.48012 0.17389
 O551 O 0.82299 0.48531 0.14455
 O552 O 0.85484 0.52037 0.17964
 O553 O 0.82835 0.51937 0.20360
 O554 O 0.79724 0.48218 0.16896
 O555 O 0.82734 0.47829 0.19889
 O556 O 0.79778 0.52324 0.17398
 Cu557 Cu 0.84120 0.50337 0.15962
 Cu558 Cu 0.81003 0.50060 0.18879
 C559 C 0.80597 0.53234 0.15782
 C560 C 0.84508 0.47151 0.19060
 C561 C 0.80487 0.47746 0.15074
 C562 C 0.84727 0.52559 0.19767
 O563 O 0.17890 0.51688 0.84712
 O564 O 0.15381 0.47162 0.81929
 O565 O 0.18016 0.47597 0.85162
 O566 O 0.15291 0.51238 0.81425
 O567 O 0.18273 0.51283 0.79425
 O568 O 0.20811 0.47278 0.82957
 O569 O 0.18128 0.47151 0.79636
 O570 O 0.20872 0.51379 0.82737
 Cu571 Cu 0.16355 0.49441 0.83520
 Cu572 Cu 0.19811 0.49245 0.80969
 C573 C 0.19828 0.52275 0.84237
 C574 C 0.16296 0.46420 0.80278
 C575 C 0.19874 0.46798 0.84695
 C576 C 0.16325 0.51909 0.79810
 C577 C 0.29580 0.38901 0.09164
 C578 C 0.27303 0.39356 0.08878
 C579 C 0.26212 0.38415 0.07106
 C580 C 0.27365 0.37118 0.05683
 C581 C 0.29621 0.36743 0.05960
 C582 C 0.30714 0.37616 0.07720
 C583 C 0.23980 0.38795 0.06735
 C584 C 0.22801 0.40147 0.08042
 C585 C 0.23811 0.41185 0.09789
 C586 C 0.26082 0.40737 0.10253
 C587 C 0.27055 0.41697 0.12065
 C588 C 0.25876 0.43087 0.13346
 C589 C 0.23689 0.43601 0.12869
 C590 C 0.22624 0.42661 0.11083
 C591 C 0.20420 0.43273 0.10643
 C592 C 0.19333 0.44741 0.11919
 C593 C 0.20386 0.45660 0.13685
 C594 C 0.22567 0.45072 0.14159
 H595 H 0.30548 0.39543 0.10456
 H596 H 0.26519 0.36429 0.04319
 H597 H 0.32464 0.37340 0.07952
 H598 H 0.23136 0.38057 0.05399
 H599 H 0.21085 0.40334 0.07633
 H600 H 0.28736 0.41403 0.12548
 H601 H 0.26699 0.43790 0.14714
 H602 H 0.19485 0.42682 0.09305
 H603 H 0.17650 0.45162 0.11506
 H604 H 0.23405 0.45779 0.15516
 C605 C 0.76410 0.63091 0.06289
 C606 C 0.75484 0.62004 0.08043
 C607 C 0.73193 0.62279 0.08413
 C608 C 0.71887 0.63505 0.07018
 C609 C 0.72823 0.64469 0.05235
 C610 C 0.75095 0.64292 0.04911
 C611 C 0.72202 0.61284 0.10139
 C612 C 0.73410 0.59960 0.11477
 C613 C 0.75673 0.59557 0.11132
 C614 C 0.76734 0.60617 0.09401
 C615 C 0.78993 0.60204 0.09046
 C616 C 0.80158 0.58756 0.10278
 C617 C 0.79139 0.57670 0.11931
 C618 C 0.76898 0.58083 0.12421
 C619 C 0.75974 0.56964 0.14156
 C620 C 0.77195 0.55444 0.15277
 C621 C 0.79377 0.54983 0.14721
 C622 C 0.80349 0.56137 0.13069
 H623 H 0.78136 0.63026 0.05906
 H624 H 0.70125 0.63647 0.07270
 H625 H 0.75845 0.65047 0.03547
 H626 H 0.70458 0.61504 0.10441
 H627 H 0.72497 0.59239 0.12748
 H628 H 0.79914 0.60943 0.07791
 H629 H 0.81877 0.58461 0.09911
 H630 H 0.74305 0.57202 0.14678
 H631 H 0.76403 0.54591 0.16558
 H632 H 0.82045 0.55814 0.12637
 C633 C 0.74457 0.37899 0.93658
 C634 C 0.73684 0.39047 0.91860
 C635 C 0.71379 0.39029 0.91435
 C636 C 0.69927 0.37952 0.92795
 C637 C 0.70730 0.36900 0.94602
 C638 C 0.72999 0.36856 0.95002
 C639 C 0.70529 0.40127 0.89686
 C640 C 0.71899 0.41306 0.88378
 C641 C 0.74194 0.41437 0.88767
 C642 C 0.75107 0.40251 0.90511
 C643 C 0.77407 0.40342 0.90875
 C644 C 0.78759 0.41611 0.89648
 C645 C 0.77890 0.42834 0.87998
 C646 C 0.75606 0.42744 0.87498
 C647 C 0.74835 0.44006 0.85776
 C648 C 0.76262 0.45338 0.84661
 C649 C 0.78500 0.45464 0.85218
 C650 C 0.79303 0.44177 0.86867
 H651 H 0.76171 0.37804 0.94107
 H652 H 0.68163 0.37986 0.92490
 H653 H 0.73641 0.36039 0.96393
 H654 H 0.68773 0.40105 0.89343
 H655 H 0.71094 0.42120 0.87081
 H656 H 0.78230 0.39466 0.92118
 H657 H 0.80510 0.41655 0.90016
 H658 H 0.73136 0.44028 0.85264
 H659 H 0.75597 0.46309 0.83385
 H660 H 0.81038 0.44240 0.87300
 C661 C 0.29426 0.59594 0.92180
 C662 C 0.27264 0.59900 0.91359
 C663 C 0.26037 0.61653 0.92133
 C664 C 0.26983 0.63073 0.93598
 C665 C 0.29113 0.62730 0.94396
 C666 C 0.30320 0.60980 0.93691
 C667 C 0.23858 0.61957 0.91476
 C668 C 0.22827 0.60508 0.90134
 C669 C 0.23965 0.58724 0.89340
 C670 C 0.26255 0.58490 0.89857
 C671 C 0.27462 0.56869 0.88840
 C672 C 0.26445 0.55458 0.87447
 C673 C 0.24178 0.55560 0.87065
 C674 C 0.22895 0.57175 0.88028
 C675 C 0.20582 0.57126 0.87697
 C676 C 0.19600 0.55546 0.86456
 C677 C 0.20886 0.53990 0.85471
 C678 C 0.23178 0.54022 0.85759
 H679 H 0.30435 0.58255 0.91751
 H680 H 0.26039 0.64414 0.94179
 H681 H 0.31956 0.60677 0.94331
 H682 H 0.22920 0.63305 0.92045
 H683 H 0.21141 0.60860 0.89702
 H684 H 0.29218 0.56682 0.89049
 H685 H 0.27439 0.54240 0.86699
 H686 H 0.19475 0.58236 0.88440
 H687 H 0.17821 0.55539 0.86268
 H688 H 0.24178 0.52795 0.85033
 C689 C 0.09284 0.29092 0.38369
 C690 C 0.09185 0.26870 0.38712
 C691 C 0.07433 0.25741 0.37716
 C692 C 0.05835 0.26808 0.36493
 C693 C 0.05921 0.29007 0.36242
 C694 C 0.07672 0.30136 0.37155
 C695 C 0.07253 0.23557 0.37976
 C696 C 0.08725 0.22459 0.39267
 C697 C 0.10449 0.23506 0.40369
 C698 C 0.10719 0.25740 0.40045
 C699 C 0.12489 0.26771 0.41094
 C700 C 0.13889 0.25686 0.42478
 C701 C 0.13590 0.23532 0.42882
 C702 C 0.11885 0.22402 0.41815
 C703 C 0.11654 0.20219 0.42291
 C704 C 0.13001 0.19236 0.43806
 C705 C 0.14642 0.20372 0.44895
 C706 C 0.14959 0.22515 0.44389
 H707 H 0.10555 0.30081 0.39045
 H708 H 0.04481 0.25934 0.35770
 H709 H 0.07762 0.31841 0.36969
 H710 H 0.05934 0.22686 0.37195
 H711 H 0.08446 0.20778 0.39376
 H712 H 0.12832 0.28433 0.40897
 H713 H 0.15201 0.26555 0.43270
 H714 H 0.10420 0.19224 0.41563
 H715 H 0.12726 0.17574 0.44149
 H716 H 0.16223 0.23413 0.45222
 C717 C 0.09413 0.72485 0.63129
 C718 C 0.08890 0.73006 0.60988
 C719 C 0.06801 0.72367 0.60182
 C720 C 0.05345 0.71205 0.61453
 C721 C 0.05853 0.70779 0.63589
 C722 C 0.07905 0.71408 0.64408
 C723 C 0.06145 0.72937 0.58128
 C724 C 0.07466 0.74228 0.56887
 C725 C 0.09540 0.74942 0.57630
 C726 C 0.10328 0.74201 0.59649
 C727 C 0.12527 0.74663 0.60245
 C728 C 0.13883 0.75876 0.58948
 C729 C 0.13074 0.76755 0.57057
 C730 C 0.10870 0.76344 0.56400
 C731 C 0.10061 0.77411 0.54572
 C732 C 0.11407 0.78777 0.53420
 C733 C 0.13609 0.79095 0.54018
 C734 C 0.14444 0.78070 0.55831
 H735 H 0.10931 0.72971 0.63889
 H736 H 0.03765 0.70703 0.60806
 H737 H 0.08324 0.71102 0.66060
 H738 H 0.04563 0.72429 0.57493
 H739 H 0.06843 0.74596 0.55317
 H740 H 0.13271 0.74052 0.61684
 H741 H 0.15568 0.76171 0.59458
 H742 H 0.08374 0.77281 0.54033
 H743 H 0.10727 0.79570 0.52032
 H744 H 0.16139 0.78347 0.56321
 C745 C 0.92790 0.74418 0.37838
 C746 C 0.91825 0.73672 0.39743
 C747 C 0.92216 0.71530 0.40326
 C748 C 0.93668 0.70263 0.39139
 C749 C 0.94675 0.71066 0.37312
 C750 C 0.94185 0.73128 0.36646
 C751 C 0.91181 0.70674 0.42103
 C752 C 0.89758 0.71894 0.43324
 C753 C 0.89379 0.74056 0.42861
 C754 C 0.90495 0.74977 0.41087
 C755 C 0.90322 0.77187 0.40767
 C756 C 0.89098 0.78455 0.42124
 C757 C 0.87933 0.77571 0.43809
 C758 C 0.87992 0.75351 0.44162
 C759 C 0.86652 0.74525 0.45805
 C760 C 0.85398 0.75865 0.47094
 C761 C 0.85462 0.78064 0.46811
 C762 C 0.86717 0.78905 0.45154
 H763 H 0.92479 0.75981 0.37212
 H764 H 0.94036 0.68655 0.39643
 H765 H 0.94932 0.73757 0.35217
 H766 H 0.91468 0.69037 0.42554
 H767 H 0.89050 0.71117 0.44685
 H768 H 0.91197 0.78005 0.39528
 H769 H 0.89057 0.80152 0.41846
 H770 H 0.86509 0.72850 0.46112
 H771 H 0.84414 0.75181 0.48352
 H772 H 0.86731 0.80606 0.44898
 C773 C 0.92282 0.24587 0.63453
 C774 C 0.91258 0.25449 0.61610
 C775 C 0.91658 0.27613 0.61138
 C776 C 0.93190 0.28782 0.62343
 C777 C 0.94272 0.27866 0.64090
 C778 C 0.93750 0.25791 0.64682
 C779 C 0.90557 0.28590 0.59447
 C780 C 0.89065 0.27467 0.58196
 C781 C 0.88684 0.25285 0.58534
 C782 C 0.89863 0.24242 0.60218
 C783 C 0.89696 0.22016 0.60386
 C784 C 0.88437 0.20845 0.58949
 C785 C 0.87219 0.21848 0.57347
 C786 C 0.87247 0.24090 0.57175
 C787 C 0.85836 0.25040 0.55640
 C788 C 0.84568 0.23803 0.54251
 C789 C 0.84685 0.21590 0.54327
 C790 C 0.85990 0.20619 0.55897
 H791 H 0.91959 0.22999 0.64001
 H792 H 0.93561 0.30408 0.61915
 H793 H 0.94531 0.25083 0.66068
 H794 H 0.90851 0.30246 0.59086
 H795 H 0.88315 0.28333 0.56900
 H796 H 0.90612 0.21117 0.61555
 H797 H 0.88415 0.19132 0.59097
 H798 H 0.85652 0.26733 0.55491
 H799 H 0.83541 0.24584 0.53067
 H800 H 0.86041 0.18903 0.55992
 C801 C 0.40039 0.08287 0.29752
 C802 C 0.40259 0.08163 0.27507
 C803 C 0.39169 0.06471 0.26442
 C804 C 0.37955 0.04969 0.27586
 C805 C 0.37809 0.05094 0.29802
 C806 C 0.38834 0.06772 0.30873
 C807 C 0.39317 0.06263 0.24241
 C808 C 0.40579 0.07656 0.23060
 C809 C 0.41759 0.09330 0.24037
 C810 C 0.41551 0.09624 0.26290
 C811 C 0.42659 0.11352 0.27250
 C812 C 0.43985 0.12702 0.26072
 C813 C 0.44277 0.12386 0.23895
 C814 C 0.43158 0.10707 0.22839
 C815 C 0.43533 0.10447 0.20631
 C816 C 0.44982 0.11764 0.19544
 C817 C 0.46107 0.13399 0.20600
 C818 C 0.45718 0.13723 0.22774
 H819 H 0.40805 0.09509 0.30700
 H820 H 0.37145 0.03671 0.26758
 H821 H 0.38732 0.06888 0.32592
 H822 H 0.38465 0.04986 0.23420
 H823 H 0.40593 0.07366 0.21371
 H824 H 0.42543 0.11710 0.28922
 H825 H 0.44820 0.13992 0.26886
 H826 H 0.42773 0.09217 0.19692
 H827 H 0.45240 0.11480 0.17862
 H828 H 0.46583 0.14980 0.23610
 C829 C 0.61193 0.06831 0.73940
 C830 C 0.60094 0.08628 0.73085
 C831 C 0.60171 0.08928 0.70846
 C832 C 0.61223 0.07437 0.69533
 C833 C 0.62233 0.05640 0.70411
 C834 C 0.62239 0.05369 0.72620
 C835 C 0.59175 0.10699 0.69923
 C836 C 0.58066 0.12174 0.71161
 C837 C 0.57880 0.11923 0.73389
 C838 C 0.58905 0.10116 0.74365
 C839 C 0.58656 0.09824 0.76581
 C840 C 0.57414 0.11212 0.77795
 C841 C 0.56392 0.12966 0.76869
 C842 C 0.56647 0.13384 0.74666
 C843 C 0.55624 0.15235 0.73837
 C844 C 0.54321 0.16536 0.75120
 C845 C 0.53993 0.16047 0.77269
 C846 C 0.55075 0.14281 0.78140
 H847 H 0.61283 0.06500 0.75620
 H848 H 0.61229 0.07653 0.67819
 H849 H 0.63043 0.04001 0.73326
 H850 H 0.59239 0.10941 0.68215
 H851 H 0.57325 0.13475 0.70307
 H852 H 0.59355 0.08501 0.77431
 H853 H 0.57234 0.10895 0.79482
 H854 H 0.55780 0.15720 0.72201
 H855 H 0.53520 0.17902 0.74409
 H856 H 0.54860 0.13902 0.79810
 C857 C 0.36736 0.94244 0.76478
 C858 C 0.37894 0.92460 0.75688
 C859 C 0.37646 0.91972 0.73491
 C860 C 0.36398 0.93295 0.72140
 C861 C 0.35361 0.95108 0.72939
 C862 C 0.35498 0.95541 0.75121
 C863 C 0.38683 0.90195 0.72640
 C864 C 0.40007 0.88903 0.73903
 C865 C 0.40383 0.89358 0.76081
 C866 C 0.39315 0.91171 0.76986
 C867 C 0.39763 0.91677 0.79140
 C868 C 0.41235 0.90490 0.80354
 C869 C 0.42299 0.88731 0.79495
 C870 C 0.41849 0.88101 0.77365
 C871 C 0.42919 0.86254 0.76606
 C872 C 0.44445 0.85160 0.77870
 C873 C 0.44960 0.85853 0.79935
 C874 C 0.43845 0.87620 0.80750
 H875 H 0.36755 0.94696 0.78132
 H876 H 0.36284 0.92951 0.70449
 H877 H 0.34677 0.96922 0.75770
 H878 H 0.38487 0.89807 0.70966
 H879 H 0.40765 0.87586 0.73099
 H880 H 0.39049 0.93025 0.79930
 H881 H 0.41561 0.90971 0.81985
 H882 H 0.42628 0.85611 0.75041
 H883 H 0.45261 0.83786 0.77202
 H884 H 0.44206 0.88157 0.82357
 C885 C 0.61219 0.90838 0.29148
 C886 C 0.61010 0.90928 0.26897
 C887 C 0.62205 0.92531 0.25819
 C888 C 0.63513 0.93980 0.26954
 C889 C 0.63651 0.93891 0.29173
 C890 C 0.62522 0.92301 0.30261
 C891 C 0.62076 0.92703 0.23613
 C892 C 0.60725 0.91367 0.22437
 C893 C 0.59435 0.89790 0.23425
 C894 C 0.59629 0.89521 0.25684
 C895 C 0.58424 0.87870 0.26651
 C896 C 0.57018 0.86575 0.25472
 C897 C 0.56733 0.86880 0.23288
 C898 C 0.57942 0.88486 0.22229
 C899 C 0.57559 0.88757 0.20020
 C900 C 0.56028 0.87514 0.18930
 C901 C 0.54823 0.85944 0.19983
 C902 C 0.55210 0.85611 0.22160
 H903 H 0.60372 0.89685 0.30104
 H904 H 0.64405 0.95211 0.26116
 H905 H 0.62621 0.92215 0.31983
 H906 H 0.63012 0.93907 0.22783
 H907 H 0.60740 0.91617 0.20743
 H908 H 0.58528 0.87530 0.28329
 H909 H 0.56114 0.85341 0.26289
 H910 H 0.58372 0.89945 0.19081
 H911 H 0.55774 0.87803 0.17245
 H912 H 0.54278 0.84406 0.22993
 C913 C 0.38467 0.25046 0.93797
 C914 C 0.39205 0.25938 0.91861
 C915 C 0.38724 0.28106 0.91481
 C916 C 0.37619 0.29327 0.93014
 C917 C 0.36985 0.28441 0.94970
 C918 C 0.37386 0.26275 0.95311
 C919 C 0.39384 0.29062 0.89590
 C920 C 0.40565 0.27934 0.88080
 C921 C 0.41151 0.25789 0.88404
 C922 C 0.40432 0.24766 0.90314
 C923 C 0.41006 0.22618 0.90637
 C924 C 0.42291 0.21524 0.89189
 C925 C 0.43054 0.22510 0.87355
 C926 C 0.42470 0.24642 0.86906
 C927 C 0.43274 0.25541 0.84993
 C928 C 0.44656 0.24391 0.83643
 C929 C 0.45281 0.22312 0.84143
 C930 C 0.44438 0.21373 0.85985
 H931 H 0.38700 0.23405 0.94209
 H932 H 0.37339 0.31001 0.92720
 H933 H 0.36834 0.25510 0.96757
 H934 H 0.39005 0.30715 0.89283
 H935 H 0.41022 0.28808 0.86680
 H936 H 0.40517 0.21729 0.92015
 H937 H 0.42718 0.19888 0.89528
 H938 H 0.42896 0.27135 0.84499
 H939 H 0.45274 0.25154 0.82222
 H940 H 0.44890 0.19755 0.86381
 C941 C 0.61663 0.71624 0.91069
 C942 C 0.61397 0.73857 0.91167
 C943 C 0.62557 0.74962 0.92796
 C944 C 0.63911 0.73867 0.94248
 C945 C 0.64088 0.71656 0.94167
 C946 C 0.62982 0.70549 0.92552
 C947 C 0.62325 0.77150 0.93002
 C948 C 0.60887 0.78270 0.91690
 C949 C 0.59635 0.77244 0.90088
 C950 C 0.59972 0.75019 0.89757
 C951 C 0.58865 0.74033 0.88035
 C952 C 0.57399 0.75149 0.86745
 C953 C 0.56945 0.77282 0.87134
 C954 C 0.58052 0.78365 0.88810
 C955 C 0.57471 0.80511 0.89175
 C956 C 0.55854 0.81517 0.87942
 C957 C 0.54769 0.80436 0.86292
 C958 C 0.55349 0.78324 0.85878
 H959 H 0.60822 0.70649 0.89913
 H960 H 0.64779 0.74727 0.95495
 H961 H 0.63096 0.68836 0.92472
 H962 H 0.63232 0.78005 0.94225
 H963 H 0.60811 0.79953 0.91964
 H964 H 0.59109 0.72392 0.87624
 H965 H 0.56577 0.74319 0.85452
 H966 H 0.58183 0.81446 0.90440
 H967 H 0.55435 0.83148 0.88302
 H968 H 0.54506 0.77462 0.84617
 C969 C 0.36574 0.73068 0.08861
 C970 C 0.38662 0.73877 0.08278
 C971 C 0.39342 0.73567 0.06146
 C972 C 0.38041 0.72400 0.04715
 C973 C 0.35976 0.71585 0.05305
 C974 C 0.35254 0.71961 0.07396
 C975 C 0.41325 0.74417 0.05441
 C976 C 0.42630 0.75635 0.06786
 C977 C 0.42031 0.75999 0.08923
 C978 C 0.40081 0.75010 0.09715
 C979 C 0.39655 0.75142 0.11921
 C980 C 0.41067 0.76233 0.13296
 C981 C 0.42900 0.77316 0.12519
 C982 C 0.43361 0.77270 0.10308
 C983 C 0.45114 0.78536 0.09559
 C984 C 0.46408 0.79718 0.10960
 C985 C 0.46029 0.79668 0.13154
 C986 C 0.44270 0.78462 0.13933
 H987 H 0.35884 0.73323 0.10418
 H988 H 0.38666 0.72095 0.03130
 H989 H 0.33636 0.71439 0.07892
 H990 H 0.41864 0.74163 0.03817
 H991 H 0.44150 0.76208 0.06120
 H992 H 0.38276 0.74349 0.12644
 H993 H 0.40698 0.76259 0.14983
 H994 H 0.45490 0.78697 0.07892
 H995 H 0.47744 0.80657 0.10319
 H996 H 0.43940 0.78455 0.15628
 C997 C 0.59949 0.29486 0.08733
 C998 C 0.59964 0.27237 0.08666
 C999 C 0.61096 0.26251 0.06960
 C1000 C 0.62173 0.27470 0.05418
 C1001 C 0.62120 0.29685 0.05505
 C1002 C 0.61011 0.30682 0.07174
 C1003 C 0.61139 0.24050 0.06787
 C1004 C 0.60022 0.22790 0.08228
 C1005 C 0.58821 0.23684 0.09927
 C1006 C 0.58863 0.25938 0.10200
 C1007 C 0.57805 0.26814 0.11994
 C1008 C 0.56662 0.25549 0.13420
 C1009 C 0.56494 0.23366 0.13105
 C1010 C 0.57571 0.22398 0.11357
 C1011 C 0.57290 0.20186 0.11074
 C1012 C 0.55964 0.19012 0.12439
 C1013 C 0.54890 0.19980 0.14149
 C1014 C 0.55200 0.22154 0.14502
 H1015 H 0.59099 0.30374 0.09941
 H1016 H 0.63045 0.26699 0.04128
 H1017 H 0.60954 0.32397 0.07259
 H1018 H 0.62026 0.23290 0.05501
 H1019 H 0.60155 0.21107 0.07972
 H1020 H 0.57840 0.28482 0.12357
 H1021 H 0.55861 0.26297 0.14764
 H1022 H 0.58007 0.19318 0.09775
 H1023 H 0.55752 0.17333 0.12131
 H1024 H 0.54355 0.22922 0.15809
 C1025 C 0.24065 0.06034 0.62090
 C1026 C 0.24876 0.07985 0.61309
 C1027 C 0.27035 0.08596 0.61944
 C1028 C 0.28330 0.07269 0.63256
 C1029 C 0.27534 0.05291 0.63937
 C1030 C 0.25368 0.04724 0.63366
 C1031 C 0.27913 0.10507 0.61228
 C1032 C 0.26726 0.11806 0.59845
 C1033 C 0.24595 0.11245 0.59112
 C1034 C 0.23639 0.09321 0.59890
 C1035 C 0.21492 0.08775 0.59191
 C1036 C 0.20348 0.10011 0.57730
 C1037 C 0.21281 0.11848 0.56904
 C1038 C 0.23400 0.12519 0.57598
 C1039 C 0.24243 0.14417 0.56709
 C1040 C 0.23056 0.15545 0.55160
 C1041 C 0.20993 0.14830 0.54442
 C1042 C 0.20105 0.12996 0.55352
 H1043 H 0.22438 0.05447 0.61731
 H1044 H 0.30005 0.07733 0.63658
 H1045 H 0.24665 0.03247 0.63924
 H1046 H 0.29555 0.10994 0.61719
 H1047 H 0.27545 0.13239 0.59362
 H1048 H 0.20639 0.07381 0.59724
 H1049 H 0.18718 0.09504 0.57220
 H1050 H 0.25825 0.15063 0.57149
 H1051 H 0.23782 0.16962 0.54492
 H1052 H 0.18501 0.12432 0.54825
 C1053 C 0.76037 0.05756 0.38039
 C1054 C 0.75093 0.07656 0.38818
 C1055 C 0.72861 0.08079 0.38272
 C1056 C 0.71623 0.06617 0.37068
 C1057 C 0.72550 0.04685 0.36407
 C1058 C 0.74787 0.04308 0.36866
 C1059 C 0.71851 0.09935 0.38975
 C1060 C 0.72977 0.11358 0.40272
 C1061 C 0.75176 0.10978 0.40933
 C1062 C 0.76267 0.09118 0.40157
 C1063 C 0.78480 0.08758 0.40783
 C1064 C 0.79567 0.10116 0.42175
 C1065 C 0.78507 0.11891 0.43001
 C1066 C 0.76309 0.12373 0.42375
 C1067 C 0.75329 0.14212 0.43261
 C1068 C 0.76464 0.15467 0.44738
 C1069 C 0.78613 0.14946 0.45386
 C1070 C 0.79633 0.13169 0.44483
 H1071 H 0.77729 0.05316 0.38325
 H1072 H 0.69893 0.06936 0.36745
 H1073 H 0.75583 0.02873 0.36309
 H1074 H 0.70152 0.10279 0.38543
 H1075 H 0.72057 0.12736 0.40749
 H1076 H 0.79427 0.07419 0.40247
 H1077 H 0.81254 0.09752 0.42633
 H1078 H 0.73676 0.14717 0.42875
 H1079 H 0.75635 0.16836 0.45401
 H1080 H 0.81303 0.12755 0.44960
 C1081 C 0.69631 0.91376 0.59954
 C1082 C 0.71952 0.91511 0.59710
 C1083 C 0.73035 0.93306 0.60593
 C1084 C 0.71841 0.94859 0.61699
 C1085 C 0.69554 0.94693 0.61918
 C1086 C 0.68461 0.92944 0.61040
 C1087 C 0.75303 0.93551 0.60365
 C1088 C 0.76533 0.92081 0.59236
 C1089 C 0.75542 0.90277 0.58301
 C1090 C 0.73226 0.89951 0.58600
 C1091 C 0.72268 0.88072 0.57792
 C1092 C 0.73504 0.86594 0.56675
 C1093 C 0.75737 0.86934 0.56287
 C1094 C 0.76792 0.88782 0.57084
 C1095 C 0.79047 0.89073 0.56587
 C1096 C 0.80186 0.87601 0.55351
 C1097 C 0.79136 0.85778 0.54576
 C1098 C 0.76913 0.85444 0.55072
 H1099 H 0.68661 0.90100 0.59299
 H1100 H 0.72690 0.96212 0.62388
 H1101 H 0.66688 0.92799 0.61189
 H1102 H 0.76140 0.94911 0.61052
 H1103 H 0.78275 0.92398 0.59152
 H1104 H 0.70558 0.87676 0.58017
 H1105 H 0.72692 0.85178 0.56083
 H1106 H 0.79975 0.90445 0.57080
 H1107 H 0.81901 0.87904 0.54989
 H1108 H 0.76075 0.84048 0.54463
 C1109 C 0.29723 0.90639 0.39399
 C1110 C 0.27557 0.91110 0.40100
 C1111 C 0.26621 0.93064 0.39440
 C1112 C 0.27836 0.94501 0.38221
 C1113 C 0.30023 0.94072 0.37636
 C1114 C 0.30924 0.92092 0.38186
 C1115 C 0.24482 0.93603 0.40021
 C1116 C 0.23253 0.92277 0.41304
 C1117 C 0.24122 0.90345 0.42081
 C1118 C 0.26299 0.89734 0.41446
 C1119 C 0.27152 0.87789 0.42208
 C1120 C 0.25945 0.86502 0.43565
 C1121 C 0.23841 0.87093 0.44228
 C1122 C 0.22892 0.89017 0.43489
 C1123 C 0.20754 0.89542 0.44216
 C1124 C 0.19628 0.88227 0.45615
 C1125 C 0.20573 0.86335 0.46351
 C1126 C 0.22684 0.85773 0.45642
 H1127 H 0.30556 0.89179 0.39785
 H1128 H 0.27069 0.95977 0.37722
 H1129 H 0.32604 0.91700 0.37757
 H1130 H 0.23753 0.95086 0.39496
 H1131 H 0.21622 0.92836 0.41669
 H1132 H 0.28768 0.87217 0.41799
 H1133 H 0.26678 0.85031 0.44118
 H1134 H 0.19896 0.90965 0.43754
 H1135 H 0.18000 0.88708 0.46128
 H1136 H 0.23434 0.84310 0.46196
 C1137 C 0.08113 0.39883 0.70479
 C1138 C 0.09067 0.39352 0.72477
 C1139 C 0.08335 0.37471 0.73486
 C1140 C 0.06787 0.36146 0.72482
 C1141 C 0.05854 0.36709 0.70518
 C1142 C 0.06510 0.38590 0.69534
 C1143 C 0.09111 0.36944 0.75514
 C1144 C 0.10518 0.38298 0.76617
 C1145 C 0.11265 0.40206 0.75699
 C1146 C 0.10651 0.40665 0.73544
 C1147 C 0.11653 0.42407 0.72527
 C1148 C 0.13110 0.43729 0.73615
 C1149 C 0.13558 0.43417 0.75776
 C1150 C 0.12617 0.41667 0.76859
 C1151 C 0.12983 0.41510 0.79084
 C1152 C 0.14215 0.43036 0.80176
 C1153 C 0.15176 0.44724 0.79084
 C1154 C 0.14882 0.44887 0.76878
 H1155 H 0.08501 0.41331 0.69652
 H1156 H 0.06240 0.34706 0.73259
 H1157 H 0.05762 0.39068 0.68036
 H1158 H 0.08579 0.35495 0.76282
 H1159 H 0.11041 0.37779 0.78177
 H1160 H 0.11380 0.42761 0.70866
 H1161 H 0.13840 0.45049 0.72771
 H1162 H 0.12248 0.40287 0.80043
 H1163 H 0.14402 0.42908 0.81889
 H1164 H 0.15582 0.46230 0.76042
 C1165 C 0.09243 0.62562 0.27573
 C1166 C 0.08635 0.60548 0.26766
 C1167 C 0.06453 0.59845 0.27142
 C1168 C 0.04993 0.61071 0.28349
 C1169 C 0.05599 0.63078 0.29132
 C1170 C 0.07747 0.63803 0.28718
 C1171 C 0.05723 0.57922 0.26305
 C1172 C 0.07081 0.56708 0.25023
 C1173 C 0.09261 0.57344 0.24577
 C1174 C 0.10094 0.59227 0.25563
 C1175 C 0.12360 0.59698 0.25346
 C1176 C 0.13750 0.58400 0.24162
 C1177 C 0.12923 0.56639 0.23071
 C1178 C 0.10650 0.56125 0.23215
 C1179 C 0.09843 0.54440 0.21946
 C1180 C 0.11248 0.53272 0.20654
 C1181 C 0.13508 0.53713 0.20596
 C1182 C 0.14346 0.55396 0.21814
 H1183 H 0.10836 0.63257 0.27281
 H1184 H 0.03370 0.60441 0.28696
 H1185 H 0.08260 0.65370 0.29228
 H1186 H 0.04064 0.57363 0.26612
 H1187 H 0.06395 0.55234 0.24459
 H1188 H 0.13125 0.61029 0.26135
 H1189 H 0.15484 0.58805 0.24066
 H1190 H 0.08120 0.54024 0.21863
 H1191 H 0.10561 0.51989 0.19711
 H1192 H 0.16089 0.55770 0.21742
 C1193 C 0.90352 0.38154 0.28656
 C1194 C 0.90700 0.38767 0.26512
 C1195 C 0.92636 0.38012 0.25510
 C1196 C 0.94187 0.36799 0.26643
 C1197 C 0.93897 0.36323 0.28809
 C1198 C 0.91919 0.36950 0.29775
 C1199 C 0.93051 0.38505 0.23391
 C1200 C 0.91645 0.39824 0.22253
 C1201 C 0.89757 0.40725 0.23199
 C1202 C 0.89238 0.40139 0.25343
 C1203 C 0.87306 0.40986 0.26259
 C1204 C 0.85976 0.42418 0.25159
 C1205 C 0.86513 0.43077 0.23107
 C1206 C 0.88396 0.42224 0.22085
 C1207 C 0.88872 0.42960 0.20008
 C1208 C 0.87578 0.44512 0.19029
 C1209 C 0.85751 0.45384 0.20063
 C1210 C 0.85203 0.44626 0.22091
 H1211 H 0.88913 0.38618 0.29538
 H1212 H 0.95655 0.36240 0.25837
 H1213 H 0.91630 0.36605 0.31440
 H1214 H 0.94510 0.37896 0.22608
 H1215 H 0.92110 0.40121 0.20630
 H1216 H 0.86781 0.40594 0.27844
 H1217 H 0.84529 0.43049 0.25943
 H1218 H 0.90261 0.42413 0.19102
 H1219 H 0.88037 0.45055 0.17457
 H1220 H 0.83793 0.45289 0.22911
 C1221 C 0.91238 0.63019 0.73872
 C1222 C 0.91766 0.60917 0.74480
 C1223 C 0.93911 0.60165 0.74014
 C1224 C 0.95393 0.61420 0.72871
 C1225 C 0.94855 0.63503 0.72255
 C1226 C 0.92760 0.64287 0.72798
 C1227 C 0.94575 0.58155 0.74682
 C1228 C 0.93175 0.56883 0.75857
 C1229 C 0.91013 0.57544 0.76346
 C1230 C 0.90258 0.59545 0.75552
 C1231 C 0.88009 0.60072 0.75797
 C1232 C 0.86554 0.58702 0.76804
 C1233 C 0.87298 0.56800 0.77690
 C1234 C 0.89556 0.56232 0.77540
 C1235 C 0.90271 0.54382 0.78619
 C1236 C 0.88783 0.53104 0.79706
 C1237 C 0.86535 0.53603 0.79733
 C1238 C 0.85799 0.55460 0.78730
 H1239 H 0.89685 0.63753 0.74263
 H1240 H 0.96968 0.60743 0.72422
 H1241 H 0.92307 0.65908 0.72429
 H1242 H 0.96211 0.57566 0.74315
 H1243 H 0.93809 0.55344 0.76288
 H1244 H 0.87302 0.61504 0.75148
 H1245 H 0.84831 0.59150 0.76913
 H1246 H 0.91978 0.53906 0.78697
 H1247 H 0.89391 0.51689 0.80496
 H1248 H 0.84064 0.55877 0.78791
 C1249 C 0.71813 0.61707 0.90982
 C1250 C 0.73994 0.60946 0.91281
 C1251 C 0.75145 0.61612 0.93138
 C1252 C 0.74143 0.62969 0.94616
 C1253 C 0.71956 0.63663 0.94334
 C1254 C 0.70822 0.63035 0.92479
 C1255 C 0.77287 0.60902 0.93533
 C1256 C 0.78298 0.59479 0.92167
 C1257 C 0.77209 0.58715 0.90324
 C1258 C 0.75052 0.59519 0.89833
 C1259 C 0.74028 0.58865 0.87913
 C1260 C 0.75033 0.57425 0.86558
 C1261 C 0.77085 0.56552 0.87063
 C1262 C 0.78206 0.57177 0.88953
 C1263 C 0.80261 0.56196 0.89410
 C1264 C 0.81148 0.54671 0.88049
 C1265 C 0.80035 0.54070 0.86182
 C1266 C 0.78008 0.55034 0.85693
 H1267 H 0.70797 0.61263 0.89641
 H1268 H 0.75079 0.63493 0.95999
 H1269 H 0.69120 0.63503 0.92220
 H1270 H 0.78185 0.61428 0.94938
 H1271 H 0.79953 0.59020 0.92600
 H1272 H 0.72444 0.59452 0.87395
 H1273 H 0.74176 0.56967 0.85106
 H1274 H 0.81210 0.56532 0.90826
 H1275 H 0.82714 0.53951 0.88474
 H1276 H 0.77121 0.54573 0.84259
 C1277 C 0.29769 0.38582 0.91517
 C1278 C 0.27633 0.39420 0.91870
 C1279 C 0.26630 0.38974 0.93852
 C1280 C 0.27739 0.37772 0.95406
 C1281 C 0.29867 0.36972 0.95047
 C1282 C 0.30854 0.37381 0.93073
 C1283 C 0.24520 0.39724 0.94284
 C1284 C 0.23368 0.40925 0.92800
 C1285 C 0.24288 0.41439 0.90806
 C1286 C 0.26460 0.40680 0.90334
 C1287 C 0.27392 0.41223 0.88352
 C1288 C 0.26260 0.42474 0.86890
 C1289 C 0.24151 0.43230 0.87327
 C1290 C 0.23120 0.42709 0.89278
 C1291 C 0.20962 0.43498 0.89620
 C1292 C 0.19915 0.44788 0.88119
 C1293 C 0.20963 0.45334 0.86218
 C1294 C 0.23075 0.44527 0.85823
 H1295 H 0.30658 0.38820 0.90061
 H1296 H 0.26912 0.37410 0.96888
 H1297 H 0.32504 0.36811 0.92746
 H1298 H 0.23746 0.39383 0.95797
 H1299 H 0.21756 0.41443 0.93284
 H1300 H 0.29014 0.40724 0.87880
 H1301 H 0.27054 0.42863 0.85399
 H1302 H 0.20028 0.43163 0.91031
 H1303 H 0.18276 0.45375 0.88464
 H1304 H 0.23902 0.44931 0.84353
 C1305 C 0.28895 0.60172 0.07915
 C1306 C 0.26606 0.60333 0.08321
 C1307 C 0.25379 0.61865 0.07160
 C1308 C 0.26437 0.63239 0.05737
 C1309 C 0.28708 0.63064 0.05358
 C1310 C 0.29914 0.61498 0.06441
 C1311 C 0.23096 0.61992 0.07391
 C1312 C 0.21983 0.60576 0.08690
 C1313 C 0.23127 0.59015 0.09873
 C1314 C 0.25485 0.58975 0.09779
 C1315 C 0.26645 0.57603 0.11166
 C1316 C 0.25541 0.56241 0.12525
 C1317 C 0.23243 0.56145 0.12516
 C1318 C 0.21996 0.57507 0.11170
 C1319 C 0.19672 0.57254 0.11136
 C1320 C 0.18646 0.55726 0.12399
 C1321 C 0.19890 0.54430 0.13762
 C1322 C 0.22187 0.54665 0.13825
 H1323 H 0.29926 0.58976 0.08638
 H1324 H 0.25481 0.64423 0.04877
 H1325 H 0.31647 0.61256 0.06101
 H1326 H 0.22150 0.63171 0.06519
 H1327 H 0.20221 0.60780 0.08778
 H1328 H 0.28420 0.57584 0.11278
 H1329 H 0.26502 0.55219 0.13567
 H1330 H 0.18608 0.58162 0.10099
 H1331 H 0.16869 0.55559 0.12309
 H1332 H 0.23167 0.53638 0.14846
 C1333 C 0.70116 0.39607 0.08805
 C1334 C 0.72335 0.40218 0.08462
 C1335 C 0.73346 0.39515 0.06559
 C1336 C 0.72176 0.38280 0.05077
 C1337 C 0.69959 0.37731 0.05406
 C1338 C 0.68960 0.38386 0.07308
 C1339 C 0.75523 0.40053 0.06126
 C1340 C 0.76720 0.41329 0.07509
 C1341 C 0.75786 0.42124 0.09403
 C1342 C 0.73575 0.41516 0.09917
 C1343 C 0.72685 0.42230 0.11863
 C1344 C 0.73886 0.43525 0.13239
 C1345 C 0.76012 0.44185 0.12729
 C1346 C 0.76992 0.43503 0.10801
 C1347 C 0.79133 0.44261 0.10339
 C1348 C 0.80243 0.45618 0.11731
 C1349 C 0.79276 0.46276 0.13640
 C1350 C 0.77157 0.45544 0.14134
 H1351 H 0.69205 0.40074 0.10194
 H1352 H 0.73008 0.37723 0.03658
 H1353 H 0.67245 0.38015 0.07609
 H1354 H 0.76310 0.39497 0.04684
 H1355 H 0.78391 0.41650 0.07042
 H1356 H 0.71056 0.41808 0.12384
 H1357 H 0.73128 0.44033 0.14713
 H1358 H 0.79997 0.43870 0.08900
 H1359 H 0.81875 0.46159 0.11300
 H1360 H 0.76384 0.46051 0.15600
 C1361 C 0.92079 0.70861 0.61207
 C1362 C 0.91477 0.73014 0.61450
 C1363 C 0.92547 0.74202 0.63074
 C1364 C 0.94054 0.73222 0.64471
 C1365 C 0.94631 0.71084 0.64207
 C1366 C 0.93647 0.69928 0.62545
 C1367 C 0.92136 0.76370 0.63271
 C1368 C 0.90760 0.77408 0.61828
 C1369 C 0.89665 0.76292 0.60182
 C1370 C 0.89914 0.74041 0.60086
 C1371 C 0.88570 0.72887 0.58652
 C1372 C 0.87120 0.73908 0.57272
 C1373 C 0.87010 0.76115 0.57211
 C1374 C 0.88305 0.77346 0.58641
 C1375 C 0.88249 0.79579 0.58411
 C1376 C 0.86956 0.80535 0.56829
 C1377 C 0.85640 0.79305 0.55469
 C1378 C 0.85648 0.77099 0.55689
 H1379 H 0.91442 0.69880 0.59936
 H1380 H 0.94810 0.74131 0.65750
 H1381 H 0.94124 0.68296 0.62258
 H1382 H 0.92933 0.77286 0.64519
 H1383 H 0.90534 0.79085 0.62080
 H1384 H 0.88557 0.71179 0.58603
 H1385 H 0.86115 0.72959 0.56200
 H1386 H 0.89254 0.80624 0.59369
 H1387 H 0.86987 0.82244 0.56666
 H1388 H 0.84667 0.76140 0.54604
 C1389 C 0.93945 0.25162 0.38343
 C1390 C 0.91898 0.25882 0.39138
 C1391 C 0.91237 0.27977 0.38616
 C1392 C 0.92605 0.29294 0.37389
 C1393 C 0.94673 0.28579 0.36685
 C1394 C 0.95295 0.26485 0.37152
 C1395 C 0.89234 0.28766 0.39356
 C1396 C 0.87888 0.27544 0.40650
 C1397 C 0.88492 0.25467 0.41262
 C1398 C 0.90513 0.24609 0.40461
 C1399 C 0.91102 0.22517 0.41036
 C1400 C 0.89811 0.21326 0.42394
 C1401 C 0.87876 0.22156 0.43237
 C1402 C 0.87163 0.24224 0.42671
 C1403 C 0.85165 0.24962 0.43574
 C1404 C 0.83974 0.23714 0.45004
 C1405 C 0.84726 0.21693 0.45584
 C1406 C 0.86667 0.20921 0.44669
 H1407 H 0.94579 0.23592 0.38623
 H1408 H 0.92101 0.30914 0.37067
 H1409 H 0.96842 0.25852 0.36573
 H1410 H 0.88710 0.30361 0.38952
 H1411 H 0.86383 0.28290 0.41159
 H1412 H 0.92569 0.21741 0.40478
 H1413 H 0.90350 0.19738 0.42807
 H1414 H 0.84485 0.26503 0.43233
 H1415 H 0.82474 0.24350 0.45682
 H1416 H 0.87260 0.19352 0.45090
 C1417 C 0.09257 0.27330 0.62441
 C1418 C 0.08667 0.26528 0.60410
 C1419 C 0.06448 0.26781 0.59729
 C1420 C 0.04931 0.27884 0.60991
 C1421 C 0.05519 0.28648 0.63023
 C1422 C 0.07707 0.28350 0.63723
 C1423 C 0.05739 0.25911 0.57800
 C1424 C 0.07162 0.24715 0.56564
 C1425 C 0.09386 0.24409 0.57174
 C1426 C 0.10184 0.25440 0.59057
 C1427 C 0.12472 0.25386 0.59495
 C1428 C 0.13923 0.24312 0.58168
 C1429 C 0.13144 0.23173 0.56412
 C1430 C 0.10853 0.23151 0.55928
 C1431 C 0.10118 0.21830 0.54244
 C1432 C 0.11608 0.20650 0.53047
 C1433 C 0.13875 0.20772 0.53457
 C1434 C 0.14639 0.22038 0.55141
 H1435 H 0.10880 0.27117 0.63122
 H1436 H 0.03274 0.28148 0.60382
 H1437 H 0.08213 0.28852 0.65304
 H1438 H 0.04049 0.26118 0.57261
 H1439 H 0.06488 0.24106 0.55092
 H1440 H 0.13204 0.26227 0.60817
 H1441 H 0.15671 0.24342 0.58546
 H1442 H 0.08396 0.21627 0.53853
 H1443 H 0.10984 0.19661 0.51765
 H1444 H 0.16393 0.22100 0.55490
 C1445 C 0.08495 0.70447 0.40548
 C1446 C 0.09264 0.72504 0.40034
 C1447 C 0.08409 0.73477 0.38164
 C1448 C 0.06901 0.72399 0.36848
 C1449 C 0.06127 0.70392 0.37414
 C1450 C 0.06929 0.69425 0.39266
 C1451 C 0.09011 0.75545 0.37648
 C1452 C 0.10342 0.76724 0.39012
 C1453 C 0.11181 0.75850 0.40923
 C1454 C 0.10765 0.73663 0.41361
 C1455 C 0.11861 0.72713 0.43109
 C1456 C 0.13204 0.73893 0.44466
 C1457 C 0.13444 0.76074 0.44181
 C1458 C 0.12422 0.77091 0.42415
 C1459 C 0.12590 0.79325 0.42276
 C1460 C 0.13697 0.80490 0.43842
 C1461 C 0.14723 0.79469 0.45561
 C1462 C 0.14638 0.77257 0.45697
 H1463 H 0.08990 0.69628 0.41980
 H1464 H 0.06245 0.73158 0.35428
 H1465 H 0.06309 0.67887 0.39741
 H1466 H 0.08390 0.76286 0.36205
 H1467 H 0.10722 0.78313 0.38505
 H1468 H 0.11744 0.71042 0.43447
 H1469 H 0.14003 0.73101 0.45796
 H1470 H 0.11789 0.80231 0.41036
 H1471 H 0.13728 0.82204 0.43725
 H1472 H 0.15391 0.76467 0.47054
 C1473 C 0.60186 0.91320 0.70517
 C1474 C 0.59707 0.91707 0.72689
 C1475 C 0.60457 0.93644 0.73582
 C1476 C 0.61586 0.95128 0.72338
 C1477 C 0.61987 0.94760 0.70169
 C1478 C 0.61308 0.92817 0.69290
 C1479 C 0.60066 0.94112 0.75712
 C1480 C 0.58882 0.92732 0.76980
 C1481 C 0.58027 0.90810 0.76164
 C1482 C 0.58487 0.90264 0.73996
 C1483 C 0.57692 0.88308 0.73206
 C1484 C 0.56443 0.86959 0.74463
 C1485 C 0.55919 0.87500 0.76553
 C1486 C 0.56712 0.89427 0.77440
 C1487 C 0.56112 0.89908 0.79562
 C1488 C 0.54764 0.88556 0.80724
 C1489 C 0.53964 0.86668 0.79834
 C1490 C 0.54574 0.86135 0.77751
 H1491 H 0.59690 0.89895 0.69700
 H1492 H 0.62172 0.96583 0.73071
 H1493 H 0.61570 0.92481 0.67618
 H1494 H 0.60662 0.95580 0.76407
 H1495 H 0.58665 0.93233 0.78603
 H1496 H 0.57998 0.87767 0.71609
 H1497 H 0.55854 0.85484 0.73778
 H1498 H 0.56618 0.91332 0.80373
 H1499 H 0.54330 0.89010 0.82332
 H1500 H 0.53961 0.84680 0.77042
 C1501 C 0.39411 0.90726 0.29023
 C1502 C 0.39974 0.91205 0.26890
 C1503 C 0.39360 0.93226 0.26095
 C1504 C 0.38254 0.94689 0.27393
 C1505 C 0.37748 0.94213 0.29522
 C1506 C 0.38322 0.92199 0.30304
 C1507 C 0.39868 0.93794 0.24012
 C1508 C 0.41035 0.92428 0.22703
 C1509 C 0.41741 0.90417 0.23424
 C1510 C 0.41152 0.89773 0.25534
 C1511 C 0.41778 0.87726 0.26223
 C1512 C 0.43006 0.86387 0.24939
 C1513 C 0.43671 0.87023 0.22919
 C1514 C 0.43035 0.89035 0.22115
 C1515 C 0.43772 0.89593 0.20052
 C1516 C 0.45127 0.88237 0.18881
 C1517 C 0.45787 0.86274 0.19710
 C1518 C 0.45014 0.85665 0.21717
 H1519 H 0.39825 0.89243 0.29775
 H1520 H 0.37762 0.96207 0.26730
 H1521 H 0.37997 0.91783 0.31946
 H1522 H 0.39382 0.95330 0.23390
 H1523 H 0.41359 0.93008 0.21124
 H1524 H 0.41349 0.87102 0.27760
 H1525 H 0.43469 0.84841 0.25552
 H1526 H 0.43378 0.91084 0.19306
 H1527 H 0.45695 0.88751 0.17334
 H1528 H 0.45510 0.84149 0.22381
 C1529 C 0.61805 0.08112 0.29066
 C1530 C 0.61408 0.07930 0.26843
 C1531 C 0.62320 0.06153 0.25777
 C1532 C 0.63580 0.04648 0.26896
 C1533 C 0.63913 0.04839 0.29096
 C1534 C 0.63034 0.06585 0.30166
 C1535 C 0.61946 0.05864 0.23604
 C1536 C 0.60617 0.07258 0.22464
 C1537 C 0.59622 0.09025 0.23452
 C1538 C 0.60096 0.09414 0.25657
 C1539 C 0.59241 0.11270 0.26602
 C1540 C 0.57891 0.12651 0.25468
 C1541 C 0.57311 0.12231 0.23357
 C1542 C 0.58165 0.10417 0.22311
 C1543 C 0.57472 0.10046 0.20181
 C1544 C 0.55986 0.11407 0.19159
 C1545 C 0.55147 0.13190 0.20208
 C1546 C 0.55845 0.13606 0.22300
 H1547 H 0.61146 0.09381 0.30017
 H1548 H 0.64271 0.03295 0.26066
 H1549 H 0.63270 0.06748 0.31871
 H1550 H 0.62661 0.04521 0.22778
 H1551 H 0.60419 0.06910 0.20794
 H1552 H 0.59600 0.11720 0.28223
 H1553 H 0.57263 0.14048 0.26268
 H1554 H 0.57996 0.08691 0.19272
 H1555 H 0.55472 0.11043 0.17543
 H1556 H 0.55196 0.14973 0.23137
 C1557 C 0.37051 0.07060 0.75422
 C1558 C 0.37911 0.08909 0.74462
 C1559 C 0.37370 0.09280 0.72291
 C1560 C 0.36104 0.07803 0.71125
 C1561 C 0.35401 0.05901 0.72067
 C1562 C 0.35835 0.05593 0.74245
 C1563 C 0.38152 0.11091 0.71275
 C1564 C 0.39532 0.12509 0.72334
 C1565 C 0.40196 0.12169 0.74469
 C1566 C 0.39332 0.10363 0.75564
 C1567 C 0.39966 0.10036 0.77709
 C1568 C 0.41453 0.11367 0.78728
 C1569 C 0.42368 0.13087 0.77666
 C1570 C 0.41732 0.13546 0.75537
 C1571 C 0.42704 0.15342 0.74562
 C1572 C 0.44276 0.16572 0.75640
 C1573 C 0.44938 0.16060 0.77719
 C1574 C 0.43948 0.14330 0.78728
 H1575 H 0.37311 0.06667 0.77072
 H1576 H 0.35785 0.08074 0.69444
 H1577 H 0.35234 0.04190 0.75049
 H1578 H 0.37727 0.11399 0.69623
 H1579 H 0.40077 0.13847 0.71415
 H1580 H 0.39369 0.08740 0.78656
 H1581 H 0.41916 0.11025 0.80364
 H1582 H 0.42311 0.15830 0.72960
 H1583 H 0.45007 0.17908 0.74824
 H1584 H 0.44426 0.13930 0.80347
 C1585 C 0.63528 0.75982 0.06067
 C1586 C 0.62229 0.75157 0.07740
 C1587 C 0.62355 0.72944 0.08139
 C1588 C 0.63618 0.71616 0.06823
 C1589 C 0.64770 0.72455 0.05098
 C1590 C 0.64765 0.74646 0.04768
 C1591 C 0.61171 0.72057 0.09808
 C1592 C 0.59805 0.73299 0.11063
 C1593 C 0.59538 0.75492 0.10678
 C1594 C 0.60775 0.76438 0.08991
 C1595 C 0.60458 0.78616 0.08561
 C1596 C 0.58954 0.79820 0.09696
 C1597 C 0.57722 0.78922 0.11326
 C1598 C 0.58026 0.76760 0.11879
 C1599 C 0.56773 0.75958 0.13596
 C1600 C 0.55239 0.77228 0.14650
 C1601 C 0.54891 0.79337 0.14036
 C1602 C 0.56163 0.80179 0.12388
 H1603 H 0.63608 0.77645 0.05694
 H1604 H 0.63636 0.69916 0.07084
 H1605 H 0.65676 0.75318 0.03453
 H1606 H 0.61277 0.70371 0.10131
 H1607 H 0.58932 0.72469 0.12293
 H1608 H 0.61307 0.79440 0.07312
 H1609 H 0.58739 0.81475 0.09277
 H1610 H 0.56929 0.74356 0.14169
 H1611 H 0.54293 0.76539 0.15931
 H1612 H 0.55932 0.81819 0.11918
 C1613 C 0.37629 0.24296 0.06763
 C1614 C 0.38933 0.25016 0.08501
 C1615 C 0.38918 0.27222 0.08954
 C1616 C 0.37771 0.28643 0.07623
 C1617 C 0.36617 0.27903 0.05835
 C1618 C 0.36503 0.25722 0.05453
 C1619 C 0.40100 0.28008 0.10693
 C1620 C 0.41359 0.26669 0.11968
 C1621 C 0.41522 0.24476 0.11528
 C1622 C 0.40288 0.23636 0.09765
 C1623 C 0.40520 0.21462 0.09269
 C1624 C 0.41947 0.20164 0.10411
 C1625 C 0.43175 0.20959 0.12116
 C1626 C 0.42940 0.23109 0.12743
 C1627 C 0.44169 0.23801 0.14542
 C1628 C 0.45640 0.22446 0.15590
 C1629 C 0.45942 0.20358 0.14890
 C1630 C 0.44672 0.19616 0.13173
 H1631 H 0.37458 0.22648 0.06351
 H1632 H 0.37845 0.30335 0.07926
 H1633 H 0.35583 0.25126 0.04092
 H1634 H 0.40079 0.29689 0.11058
 H1635 H 0.42246 0.27423 0.13252
 H1636 H 0.39671 0.20716 0.07957
 H1637 H 0.42108 0.18518 0.09936
 H1638 H 0.44044 0.25380 0.15182
 H1639 H 0.46583 0.23056 0.16929
 H1640 H 0.44865 0.17990 0.12640
 C1641 C 0.61322 0.25653 0.93320
 C1642 C 0.60298 0.26519 0.91477
 C1643 C 0.60466 0.28742 0.91164
 C1644 C 0.61537 0.30030 0.92680
 C1645 C 0.62475 0.29144 0.94519
 C1646 C 0.62390 0.26948 0.94807
 C1647 C 0.59543 0.29675 0.89353
 C1648 C 0.58419 0.28463 0.87850
 C1649 C 0.58146 0.26254 0.88107
 C1650 C 0.59099 0.25267 0.89954
 C1651 C 0.58773 0.23069 0.90245
 C1652 C 0.57521 0.21884 0.88820
 C1653 C 0.56562 0.22823 0.87032
 C1654 C 0.56897 0.25008 0.86614
 C1655 C 0.55930 0.25853 0.84732
 C1656 C 0.54600 0.24605 0.83402
 C1657 C 0.54191 0.22476 0.83889
 C1658 C 0.55223 0.21587 0.85684
 H1659 H 0.61337 0.23983 0.93669
 H1660 H 0.61621 0.31732 0.92447
 H1661 H 0.63142 0.26234 0.96204
 H1662 H 0.59677 0.31370 0.89100
 H1663 H 0.57741 0.29325 0.86518
 H1664 H 0.59421 0.22210 0.91592
 H1665 H 0.57282 0.20211 0.89139
 H1666 H 0.56146 0.27475 0.84246
 H1667 H 0.53840 0.25332 0.82016
 H1668 H 0.54943 0.19933 0.86066
 C1669 C 0.36540 0.73202 0.91082
 C1670 C 0.38718 0.73848 0.91602
 C1671 C 0.39531 0.73361 0.93669
 C1672 C 0.38259 0.72176 0.95090
 C1673 C 0.36112 0.71543 0.94552
 C1674 C 0.35256 0.72088 0.92547
 C1675 C 0.41607 0.74067 0.94318
 C1676 C 0.42876 0.75315 0.92988
 C1677 C 0.42147 0.75847 0.90916
 C1678 C 0.40097 0.74996 0.90166
 C1679 C 0.39526 0.75280 0.87999
 C1680 C 0.40887 0.76403 0.86625
 C1681 C 0.42813 0.77369 0.87376
 C1682 C 0.43432 0.77158 0.89550
 C1683 C 0.45283 0.78317 0.90286
 C1684 C 0.46503 0.79573 0.88904
 C1685 C 0.45953 0.79687 0.86741
 C1686 C 0.44113 0.78574 0.85975
 H1687 H 0.35760 0.73593 0.89584
 H1688 H 0.38931 0.71763 0.96642
 H1689 H 0.33583 0.71650 0.92114
 H1690 H 0.42244 0.73681 0.95890
 H1691 H 0.44469 0.75779 0.93605
 H1692 H 0.38067 0.74585 0.87298
 H1693 H 0.40402 0.76552 0.84966
 H1694 H 0.45789 0.78346 0.91936
 H1695 H 0.47906 0.80445 0.89528
 H1696 H 0.43657 0.78701 0.84306
 C1697 C 0.76086 0.92534 0.37512
 C1698 C 0.75108 0.90924 0.38764
 C1699 C 0.72777 0.90717 0.38669
 C1700 C 0.71495 0.92140 0.37463
 C1701 C 0.72495 0.93786 0.36337
 C1702 C 0.74793 0.93940 0.36329
 C1703 C 0.71730 0.89130 0.39822
 C1704 C 0.72929 0.87778 0.41136
 C1705 C 0.75240 0.87976 0.41372
 C1706 C 0.76351 0.89561 0.40147
 C1707 C 0.78657 0.89779 0.40401
 C1708 C 0.79827 0.88562 0.41860
 C1709 C 0.78764 0.87059 0.43106
 C1710 C 0.76469 0.86694 0.42845
 C1711 C 0.75500 0.85092 0.44114
 C1712 C 0.76737 0.83994 0.45642
 C1713 C 0.78976 0.84448 0.45959
 C1714 C 0.79987 0.85949 0.44649
 H1715 H 0.77840 0.92778 0.37428
 H1716 H 0.69710 0.92018 0.37459
 H1717 H 0.75589 0.95193 0.35439
 H1718 H 0.69952 0.88951 0.39736
 H1719 H 0.71976 0.86624 0.41990
 H1720 H 0.79616 0.90919 0.39535
 H1721 H 0.81587 0.88827 0.42036
 H1722 H 0.73786 0.84659 0.43989
 H1723 H 0.75919 0.82823 0.46619
 H1724 H 0.81730 0.86287 0.44856
 C1725 C 0.28096 0.91190 0.62416
 C1726 C 0.25825 0.91325 0.61865
 C1727 C 0.24605 0.93052 0.62705
 C1728 C 0.25633 0.94577 0.64004
 C1729 C 0.27892 0.94452 0.64461
 C1730 C 0.29105 0.92735 0.63687
 C1731 C 0.22374 0.93281 0.62208
 C1732 C 0.21330 0.91886 0.60821
 C1733 C 0.22480 0.90184 0.59875
 C1734 C 0.24742 0.89852 0.60466
 C1735 C 0.25850 0.88073 0.59620
 C1736 C 0.24826 0.86722 0.58173
 C1737 C 0.22664 0.87089 0.57493
 C1738 C 0.21449 0.88814 0.58340
 C1739 C 0.19271 0.89128 0.57564
 C1740 C 0.18370 0.87811 0.55997
 C1741 C 0.19590 0.86127 0.55149
 C1742 C 0.21728 0.85757 0.55933
 H1743 H 0.29159 0.89948 0.61846
 H1744 H 0.24691 0.95907 0.64612
 H1745 H 0.30858 0.92621 0.64022
 H1746 H 0.21428 0.94582 0.62869
 H1747 H 0.19607 0.92192 0.60527
 H1748 H 0.27524 0.87672 0.60044
 H1749 H 0.25754 0.85391 0.57550
 H1750 H 0.18230 0.90405 0.58091
 H1751 H 0.16713 0.88136 0.55425
 H1752 H 0.22694 0.84463 0.55287
 C1753 C 0.25747 0.05712 0.38548
 C1754 C 0.26525 0.07548 0.39618
 C1755 C 0.28807 0.08024 0.39470
 C1756 C 0.30245 0.06659 0.38376
 C1757 C 0.29445 0.04815 0.37403
 C1758 C 0.27188 0.04375 0.37469
 C1759 C 0.29650 0.09842 0.40441
 C1760 C 0.28290 0.11193 0.41587
 C1761 C 0.26020 0.10764 0.41838
 C1762 C 0.25125 0.08904 0.40843
 C1763 C 0.22873 0.08431 0.41153
 C1764 C 0.21545 0.09704 0.42405
 C1765 C 0.22386 0.11514 0.43385
 C1766 C 0.24621 0.12102 0.43091
 C1767 C 0.25355 0.13997 0.44085
 C1768 C 0.23949 0.15198 0.45367
 C1769 C 0.21769 0.14556 0.45707
 C1770 C 0.20996 0.12725 0.44685
 H1771 H 0.24038 0.05253 0.38510
 H1772 H 0.31996 0.07004 0.38315
 H1773 H 0.26540 0.02966 0.36697
 H1774 H 0.31390 0.10220 0.40325
 H1775 H 0.29090 0.12545 0.42300
 H1776 H 0.22081 0.07054 0.40486
 H1777 H 0.19834 0.09254 0.42620
 H1778 H 0.27005 0.14600 0.43911
 H1779 H 0.24586 0.16616 0.46126
 H1780 H 0.19302 0.12226 0.44911
 C1781 C 0.69438 0.08932 0.59820
 C1782 C 0.71761 0.08875 0.59561
 C1783 C 0.72930 0.07167 0.60517
 C1784 C 0.71812 0.05604 0.61675
 C1785 C 0.69521 0.05685 0.61894
 C1786 C 0.68346 0.07360 0.60970
 C1787 C 0.75209 0.07016 0.60309
 C1788 C 0.76369 0.08495 0.59132
 C1789 C 0.75292 0.10207 0.58110
 C1790 C 0.72956 0.10429 0.58368
 C1791 C 0.71897 0.12193 0.57421
 C1792 C 0.73056 0.13650 0.56208
 C1793 C 0.75313 0.13412 0.55874
 C1794 C 0.76471 0.11695 0.56826
 C1795 C 0.78757 0.11519 0.56411
 C1796 C 0.79820 0.12950 0.55078
 C1797 C 0.78662 0.14622 0.54118
 C1798 C 0.76412 0.14865 0.54554
 H1799 H 0.68408 0.10150 0.59139
 H1800 H 0.72722 0.04309 0.62406
 H1801 H 0.66569 0.07442 0.61129
 H1802 H 0.76110 0.05723 0.61053
 H1803 H 0.78123 0.08245 0.59065
 H1804 H 0.70160 0.12501 0.57585
 H1805 H 0.72164 0.14967 0.55499
 H1806 H 0.79775 0.10269 0.57050
 H1807 H 0.81563 0.12726 0.54778
 H1808 H 0.75495 0.16148 0.53812
 C1809 C 0.90843 0.62962 0.27503
 C1810 C 0.91238 0.60789 0.27071
 C1811 C 0.93268 0.59910 0.27786
 C1812 C 0.94776 0.61139 0.28953
 C1813 C 0.94372 0.63289 0.29347
 C1814 C 0.92400 0.64192 0.28604
 C1815 C 0.93806 0.57816 0.27307
 C1816 C 0.92418 0.56589 0.26049
 C1817 C 0.90393 0.57393 0.25270
 C1818 C 0.89729 0.59476 0.25902
 C1819 C 0.87572 0.60155 0.25372
 C1820 C 0.86141 0.58872 0.24200
 C1821 C 0.86834 0.56906 0.23429
 C1822 C 0.88993 0.56165 0.23908
 C1823 C 0.89695 0.54254 0.22944
 C1824 C 0.88292 0.53112 0.21603
 C1825 C 0.86136 0.53803 0.21214
 C1826 C 0.85399 0.55690 0.22143
 H1827 H 0.89385 0.63775 0.26942
 H1828 H 0.96305 0.60434 0.29519
 H1829 H 0.92075 0.65862 0.28855
 H1830 H 0.95343 0.57130 0.27874
 H1831 H 0.92948 0.54983 0.25764
 H1832 H 0.86919 0.61655 0.25898
 H1833 H 0.84493 0.59449 0.23849
 H1834 H 0.91346 0.53640 0.23127
 H1835 H 0.88893 0.51668 0.20871
 H1836 H 0.83741 0.56248 0.21799
 C1837 C 0.92734 0.36425 0.75221
 C1838 C 0.91563 0.38206 0.74421
 C1839 C 0.91813 0.38710 0.72233
 C1840 C 0.93297 0.37569 0.70962
 C1841 C 0.94499 0.35872 0.71812
 C1842 C 0.94173 0.35280 0.73929
 C1843 C 0.90604 0.40367 0.71332
 C1844 C 0.89160 0.41560 0.72553
 C1845 C 0.88914 0.41182 0.74756
 C1846 C 0.90176 0.39509 0.75714
 C1847 C 0.90082 0.39251 0.77946
 C1848 C 0.88830 0.40595 0.79204
 C1849 C 0.87569 0.42210 0.78293
 C1850 C 0.87524 0.42482 0.76051
 C1851 C 0.86104 0.44066 0.75208
 C1852 C 0.84907 0.45405 0.76547
 C1853 C 0.85089 0.45218 0.78763
 C1854 C 0.86386 0.43586 0.79622
 H1855 H 0.92563 0.35862 0.76830
 H1856 H 0.93537 0.38009 0.69310
 H1857 H 0.95072 0.33947 0.74596
 H1858 H 0.90781 0.40753 0.69659
 H1859 H 0.88322 0.42830 0.71734
 H1860 H 0.91034 0.38074 0.78789
 H1861 H 0.88861 0.40374 0.80917
 H1862 H 0.85877 0.44311 0.73523
 H1863 H 0.83892 0.46638 0.75844
 H1864 H 0.86498 0.43402 0.81337
 C1865 C 0.06103 0.58737 0.72131
 C1866 C 0.08244 0.59141 0.72943
 C1867 C 0.09171 0.61172 0.72572
 C1868 C 0.07894 0.62789 0.71631
 C1869 C 0.05716 0.62391 0.70985
 C1870 C 0.04870 0.60337 0.71171
 C1871 C 0.11345 0.61584 0.73187
 C1872 C 0.12617 0.60032 0.74185
 C1873 C 0.11725 0.58028 0.74694
 C1874 C 0.09479 0.57606 0.74123
 C1875 C 0.08499 0.55712 0.74846
 C1876 C 0.09666 0.54276 0.76088
 C1877 C 0.11875 0.54630 0.76598
 C1878 C 0.12968 0.56467 0.75845
 C1879 C 0.15256 0.56659 0.76287
 C1880 C 0.16366 0.55143 0.77520
 C1881 C 0.15224 0.53420 0.78372
 C1882 C 0.12989 0.53158 0.77885
 H1883 H 0.05339 0.57197 0.72198
 H1884 H 0.08569 0.64370 0.71453
 H1885 H 0.03213 0.59983 0.70615
 H1886 H 0.12072 0.63125 0.72897
 H1887 H 0.14269 0.60489 0.74635
 H1888 H 0.06787 0.55336 0.74570
 H1889 H 0.08826 0.52872 0.76658
 H1890 H 0.16237 0.57946 0.75683
 H1891 H 0.18109 0.55349 0.77858
 H1892 H 0.12117 0.51792 0.78503
 C1893 C 0.05914 0.37442 0.24271
 C1894 C 0.07777 0.38589 0.25017
 C1895 C 0.08325 0.38425 0.27213
 C1896 C 0.06987 0.37259 0.28604
 C1897 C 0.05098 0.36227 0.27844
 C1898 C 0.04601 0.36291 0.25668
 C1899 C 0.10177 0.39463 0.28023
 C1900 C 0.11481 0.40710 0.26718
 C1901 C 0.10964 0.40998 0.24539
 C1902 C 0.09080 0.39919 0.23673
 C1903 C 0.08520 0.40260 0.21512
 C1904 C 0.09713 0.41644 0.20252
 C1905 C 0.11533 0.42724 0.21074
 C1906 C 0.12225 0.42382 0.23211
 C1907 C 0.14132 0.43474 0.23931
 C1908 C 0.15223 0.44912 0.22620
 C1909 C 0.14463 0.45313 0.20546
 C1910 C 0.12640 0.44180 0.19773
 H1911 H 0.05409 0.37409 0.22624
 H1912 H 0.07377 0.37201 0.30292
 H1913 H 0.03158 0.35474 0.25053
 H1914 H 0.10613 0.39331 0.29696
 H1915 H 0.12857 0.41474 0.27491
 H1916 H 0.07123 0.39524 0.20746
 H1917 H 0.09187 0.41888 0.18615
 H1918 H 0.14824 0.43269 0.25502
 H1919 H 0.16643 0.45748 0.23255
 H1920 H 0.12054 0.44454 0.18159
   
