data_POSCAR
  _audit_creation_date              2014-09-24
  _audit_creation_method            'ToBaCCo'
  _symmetry_space_group_name_H-M    'P1'
  _symmetry_Int_Tables_number       1
  _symmetry_cell_setting            triclinic
  loop_
  _symmetry_equiv_pos_as_xyz
 x,y,z
_cell_length_a 28.9618
_cell_length_b 29.2074
_cell_length_c 29.0317
_cell_angle_alpha 91.406600
_cell_angle_beta 89.239200
_cell_angle_gamma 90.356700
loop_
  _atom_site_label
  _atom_site_type_symbol
  _atom_site_fract_x
  _atom_site_fract_y
  _atom_site_fract_z
C1 C 0.13847 0.00799 0.23978
 C2 C 0.36309 -0.00103 0.74943
 C3 C 0.86389 0.49067 0.25007
 C4 C 0.63285 0.50228 0.74952
 C5 C 0.25446 0.13272 1.01265
 C6 C 0.73978 0.37788 1.00299
 C7 C 0.25048 0.87645 0.50682
 C8 C 0.76149 0.63006 0.51063
 C9 C -0.01147 0.25658 0.11085
 C10 C 0.00642 0.75047 0.38614
 C11 C 0.49556 0.23529 0.87920
 C12 C 0.52246 0.74930 0.61477
 C13 C 0.87835 1.00031 0.74614
 C14 C 0.38325 0.50539 0.25332
 C15 C 0.62041 0.99592 0.25118
 C16 C 0.11709 0.50385 0.74387
 C17 C 0.75686 0.88552 0.01642
 C18 C 0.25642 0.37724 0.51362
 C19 C 0.24952 0.63136 -0.00080
 C20 C 0.75376 0.12336 0.49379
 C21 C 1.01093 0.74990 0.85992
 C22 C 0.47939 0.24461 0.36544
 C23 C 0.99689 0.25538 0.63173
 C24 C 0.50850 0.73801 0.11687
 O25 O -0.11806 0.95832 0.97080
 O26 O -0.13392 1.03044 0.97685
 O27 O -0.00469 0.97531 0.86016
 O28 O 0.06799 1.01465 0.86586
 O29 O 0.00490 0.86906 0.95505
 O30 O 0.02711 0.86818 1.03575
 O31 O 0.09171 1.10471 0.99692
 O32 O 0.05397 1.11576 0.92571
 O33 O -0.02142 1.09156 1.09099
 O34 O -0.09117 1.03556 1.08893
 O35 O 0.08969 1.00568 1.09937
 O36 O 0.11494 0.93372 1.05315
 O37 O 0.13086 1.04530 1.02678
 O38 O 0.14811 0.97079 1.00645
 O39 O 0.01874 1.02645 1.12660
 O40 O -0.05484 0.98878 1.12298
 O41 O 0.01095 1.13000 1.03155
 O42 O -0.00927 1.13130 0.94769
 O43 O -0.07865 0.89684 0.99606
 O44 O -0.03704 0.88364 1.06152
 O45 O 0.03936 0.90819 0.89713
 O46 O 0.10345 0.96005 0.89475
 O47 O -0.07572 0.99567 0.88775
 O48 O -0.09692 1.06739 0.93239
 Zr49 Zr -0.06656 1.00814 0.95928
 O50 O -0.03813 1.05586 1.00681
 Zr51 Zr 0.03635 0.97689 0.91906
 O52 O 0.06950 1.02296 0.96449
 Zr53 Zr -0.01079 0.92099 1.00541
 O54 O 0.01976 0.96515 1.05511
 Zr55 Zr 0.02598 1.07854 0.98124
 O56 O -0.00524 1.03489 0.93104
 Zr57 Zr -0.02202 1.02288 1.06783
 O58 O -0.05479 0.97637 1.02241
 Zr59 Zr 0.08142 0.99212 1.02796
 O60 O 0.05344 0.94378 0.97998
 O61 O -0.02645 0.95086 0.94325
 O62 O 0.04090 1.04933 1.04417
 C63 C -0.11615 0.91762 0.98648
 C64 C -0.04739 0.98459 0.85472
 C65 C 0.02535 0.87105 0.91537
 C66 C 0.12841 1.08638 1.01228
 C67 C -0.00753 1.12841 1.07204
 C68 C 0.06153 1.01805 1.13208
 H69 H -0.06003 1.08126 1.01247
 H70 H 0.02499 0.94810 1.08353
 H71 H -0.04242 0.92897 0.92219
 H72 H 0.09853 1.03269 0.94925
 H73 H 0.07933 1.09731 0.91184
 H74 H 0.04862 1.04198 0.86151
 H75 H -0.03606 0.96175 1.13010
 H76 H -0.05804 0.90459 1.07887
 H77 H -0.03944 1.13573 0.96346
 H78 H -0.07547 1.07893 0.90844
 H79 H 0.09749 0.92324 1.08049
 H80 H 0.05868 0.86939 1.02232
 H81 H -0.13441 1.03531 1.01071
 H82 H -0.09972 1.06641 1.07871
 H83 H 0.11624 0.93811 0.91662
 H84 H 0.15202 0.97955 0.97393
 O85 O 0.50585 0.58388 0.60164
 O86 O 0.43986 0.53435 0.61692
 O87 O 0.61391 0.48364 0.58464
 O88 O 0.62750 0.42110 0.53047
 O89 O 0.59962 0.59592 0.49058
 O90 O 0.54988 0.60538 0.42444
 O91 O 0.49096 0.36573 0.45907
 O92 O 0.52946 0.35795 0.53237
 O93 O 0.38160 0.45488 0.49202
 O94 O 0.37836 0.53527 0.52746
 O95 O 0.46692 0.48297 0.37300
 O96 O 0.54993 0.51230 0.36584
 O97 O 0.51044 0.40606 0.39568
 O98 O 0.57359 0.44799 0.37555
 O99 O 0.40440 0.50111 0.41783
 O100 O 0.38974 0.56349 0.46673
 O101 O 0.42283 0.39207 0.51032
 O102 O 0.47834 0.38010 0.57410
 O103 O 0.52612 0.62254 0.53735
 O104 O 0.49405 0.62919 0.46396
 O105 O 0.64134 0.53433 0.51173
 O106 O 0.64809 0.46012 0.47485
 O107 O 0.55174 0.50790 0.62710
 O108 O 0.47775 0.47956 0.63783
 Zr109 Zr 0.49967 0.51504 0.57874
 O110 O 0.45488 0.47188 0.54130
 Zr111 Zr 0.59093 0.48134 0.51591
 O112 O 0.54931 0.43770 0.47449
 Zr113 Zr 0.53136 0.57181 0.48580
 O114 O 0.48644 0.53258 0.44460
 Zr115 Zr 0.49140 0.41579 0.51262
 O116 O 0.53527 0.45589 0.55544
 Zr117 Zr 0.43112 0.50727 0.48437
 O118 O 0.47262 0.55227 0.52436
 Zr119 Zr 0.52099 0.47380 0.42000
 O120 O 0.56817 0.51577 0.45754
 O121 O 0.55702 0.53872 0.54258
 O122 O 0.46374 0.44914 0.45641
 C123 C 0.51530 0.62082 0.58018
 C124 C 0.59349 0.49395 0.62311
 C125 C 0.63771 0.57674 0.50098
 C126 C 0.49946 0.36870 0.41573
 C127 C 0.38478 0.41266 0.50294
 C128 C 0.42421 0.49400 0.37865
 H129 H 0.42955 0.46235 0.56217
 H130 H 0.47603 0.55226 0.41958
 H131 H 0.57703 0.55823 0.56240
 H132 H 0.56794 0.41161 0.46267
 H133 H 0.55670 0.35508 0.51161
 H134 H 0.60806 0.40394 0.55250
 H135 H 0.40864 0.58315 0.44653
 H136 H 0.46393 0.62854 0.48048
 H137 H 0.45089 0.39391 0.58945
 H138 H 0.49072 0.44835 0.63466
 H139 H 0.52927 0.53854 0.36093
 H140 H 0.57562 0.58788 0.40993
 H141 H 0.42485 0.55900 0.59984
 H142 H 0.37241 0.51371 0.55265
 H143 H 0.64698 0.47778 0.44621
 H144 H 0.59910 0.43844 0.39538
 O145 O 0.52713 -0.08934 0.59452
 O146 O 0.59321 -0.04424 0.59966
 O147 O 0.41712 0.00323 0.61155
 O148 O 0.38762 0.06352 0.57899
 O149 O 0.41357 -0.09643 0.49702
 O150 O 0.45236 -0.10671 0.42877
 O151 O 0.51482 0.13933 0.48711
 O152 O 0.48792 0.13638 0.56064
 O153 O 0.62527 0.04872 0.47077
 O154 O 0.64216 -0.02485 0.48355
 O155 O 0.51334 0.03822 0.37475
 O156 O 0.43952 0.01187 0.37568
 O157 O 0.48087 0.10788 0.42351
 O158 O 0.40573 0.05595 0.41865
 O159 O 0.58201 0.00873 0.39619
 O160 O 0.60524 -0.06345 0.43922
 O161 O 0.59010 0.10791 0.50940
 O162 O 0.55911 0.10394 0.58779
 O163 O 0.49570 -0.12571 0.53220
 O164 O 0.51792 -0.12192 0.44809
 O165 O 0.37527 -0.03693 0.53158
 O166 O 0.36712 0.04606 0.51471
 O167 O 0.48685 -0.02091 0.63632
 O168 O 0.56376 0.01420 0.63070
 Zr169 Zr 0.52860 -0.02096 0.57689
 O170 O 0.56510 0.02424 0.53489
 Zr171 Zr 0.42670 0.01461 0.54082
 O172 O 0.45933 0.06491 0.50072
 Zr173 Zr 0.48065 -0.07149 0.48634
 O174 O 0.51152 -0.02500 0.44040
 Zr175 Zr 0.52452 0.08236 0.52694
 O176 O 0.48852 0.03833 0.57160
 Zr177 Zr 0.57477 -0.00331 0.46780
 O178 O 0.54525 -0.05223 0.51261
 Zr179 Zr 0.47359 0.03627 0.43542
 O180 O 0.43838 -0.01398 0.47463
 O181 O 0.46531 -0.04390 0.55120
 O182 O 0.53773 0.05694 0.45999
 C183 C 0.51388 -0.12540 0.57271
 C184 C 0.44469 -0.00944 0.64316
 C185 C 0.37673 -0.07734 0.51281
 C186 C 0.49725 0.14228 0.44725
 C187 C 0.62508 0.08914 0.48933
 C188 C 0.55428 0.02412 0.36584
 H189 H 0.59480 0.03186 0.54977
 H190 H 0.51505 -0.04093 0.41012
 H191 H 0.44862 -0.06569 0.57116
 H192 H 0.43944 0.09225 0.49942
 H193 H 0.47753 0.12484 0.59087
 H194 H 0.40765 0.09088 0.58240
 H195 H 0.58726 -0.07288 0.41180
 H196 H 0.54718 -0.12682 0.46447
 H197 H 0.56785 0.13663 0.58473
 H198 H 0.54391 0.03997 0.64125
 H199 H 0.44702 -0.02102 0.37221
 H200 H 0.43216 -0.08458 0.41361
 H201 H 0.60664 -0.06301 0.57403
 H202 H 0.64457 -0.02316 0.51750
 H203 H 0.35884 0.02910 0.48603
 H204 H 0.40015 0.08682 0.43233
 O205 O -0.09770 0.41064 0.98474
 O206 O -0.04929 0.39968 0.91859
 O207 O -0.00454 0.41797 1.09583
 O208 O 0.06149 0.46064 1.11308
 O209 O -0.11050 0.51666 1.08803
 O210 O -0.12285 0.58253 1.04355
 O211 O 0.12382 0.54665 0.98649
 O212 O 0.13304 0.47246 1.00919
 O213 O 0.03149 0.52736 0.87023
 O214 O -0.04199 0.51159 0.85933
 O215 O 0.01908 0.63938 0.97704
 O216 O -0.01754 0.64491 1.04938
 O217 O 0.08518 0.60732 1.01836
 O218 O 0.03055 0.61412 1.08815
 O219 O -0.00224 0.60672 0.90860
 O220 O -0.08040 0.55925 0.89430
 O221 O 0.09411 0.50326 0.90912
 O222 O 0.10447 0.43322 0.95945
 O223 O -0.13833 0.47266 1.01083
 O224 O -0.14098 0.55053 0.98134
 O225 O -0.04866 0.49056 1.12707
 O226 O 0.02967 0.52142 1.13583
 O227 O -0.02446 0.38070 1.02922
 O228 O 0.00952 0.37802 0.95134
 Zr229 Zr -0.02875 0.43327 0.98040
 O230 O 0.01431 0.47490 0.93988
 Zr231 Zr 0.00434 0.48571 1.07701
 O232 O 0.05119 0.52723 1.04123
 Zr233 Zr -0.08636 0.52385 1.01997
 O234 O -0.04344 0.56976 0.98363
 Zr235 Zr 0.07203 0.49576 0.97839
 O236 O 0.03074 0.45064 1.01809
 Zr237 Zr -0.01807 0.53687 0.92354
 O238 O -0.06420 0.49152 0.95801
 Zr239 Zr 0.01589 0.58578 1.02208
 O240 O -0.03044 0.54601 1.06116
 O241 O -0.05357 0.46483 1.04031
 O242 O 0.04072 0.55656 0.95998
 C243 C -0.13556 0.43046 0.99692
 C244 C -0.01472 0.38180 1.07243
 C245 C -0.09075 0.50385 1.12489
 C246 C 0.12220 0.58775 1.00352
 C247 C 0.07341 0.51341 0.87173
 C248 C 0.01149 0.64105 0.93407
 H249 H 0.02262 0.45643 0.91204
 H250 H -0.06099 0.59752 0.97638
 H251 H -0.07424 0.44483 1.05846
 H252 H 0.07776 0.53445 1.06122
 H253 H 0.12936 0.47791 1.04278
 H254 H 0.07871 0.44043 1.09111
 H255 H -0.08423 0.59215 0.90226
 H256 H -0.14176 0.53271 0.95191
 H257 H 0.09123 0.42248 0.92983
 H258 H 0.03718 0.37458 0.97060
 H259 H -0.04771 0.64726 1.03412
 H260 H -0.10262 0.59861 1.06600
 H261 H -0.07157 0.42012 0.90388
 H262 H -0.04121 0.47780 0.86090
 H263 H 0.00997 0.54870 1.14093
 H264 H 0.06024 0.60140 1.09823
 O265 O 0.01950 0.59131 0.40488
 O266 O 0.09238 0.55435 0.40086
 O267 O -0.07639 0.48567 0.38228
 O268 O -0.09875 0.42011 0.41252
 O269 O -0.09845 0.57927 0.49991
 O270 O -0.06136 0.59362 0.56962
 O271 O 0.02613 0.35984 0.50817
 O272 O 0.00262 0.36150 0.43182
 O273 O 0.12725 0.45855 0.52786
 O274 O 0.13781 0.53600 0.51370
 O275 O 0.01142 0.45698 0.62083
 O276 O -0.06635 0.47956 0.61712
 O277 O -0.01195 0.38786 0.57181
 O278 O -0.09162 0.42888 0.57588
 O279 O 0.07843 0.49247 0.60051
 O280 O 0.09709 0.56829 0.56069
 O281 O 0.09752 0.39649 0.48944
 O282 O 0.07379 0.40022 0.40929
 O283 O -0.01948 0.62176 0.46683
 O284 O 0.00111 0.61996 0.54871
 O285 O -0.12511 0.51880 0.45696
 O286 O -0.12781 0.43777 0.47703
 O287 O -0.00901 0.51848 0.35888
 O288 O 0.07083 0.49462 0.36579
 Zr289 Zr 0.02945 0.52253 0.41998
 O290 O 0.06828 0.47972 0.46170
 Zr291 Zr -0.06908 0.47376 0.45257
 O292 O -0.03449 0.42736 0.49381
 Zr293 Zr -0.02823 0.56470 0.51059
 O294 O 0.00660 0.52180 0.55616
 Zr295 Zr 0.03280 0.41757 0.46826
 O296 O -0.00407 0.45850 0.42291
 Zr297 Zr 0.07269 0.50674 0.52935
 O298 O 0.03946 0.55339 0.48554
 Zr299 Zr -0.02612 0.45730 0.55957
 O300 O -0.06464 0.50261 0.51948
 O301 O -0.03691 0.53687 0.44475
 O302 O 0.04039 0.44354 0.53554
 C303 C 0.00016 0.62476 0.42684
 C304 C -0.04972 0.50268 0.35127
 C305 C -0.13074 0.55689 0.47903
 C306 C 0.00841 0.35563 0.54837
 C307 C 0.12979 0.41730 0.51118
 C308 C 0.05126 0.47358 0.63031
 H309 H 0.09920 0.47495 0.44756
 H310 H 0.00784 0.53739 0.58673
 H311 H -0.05505 0.55677 0.42471
 H312 H -0.05174 0.39806 0.49459
 H313 H -0.00558 0.37263 0.40104
 H314 H -0.08007 0.39254 0.41762
 H315 H 0.07613 0.57593 0.58690
 H316 H 0.03206 0.62571 0.53508
 H317 H 0.08422 0.36814 0.41216
 H318 H 0.05665 0.46491 0.35661
 H319 H -0.05534 0.51060 0.62609
 H320 H -0.08104 0.56911 0.58252
 H321 H 0.10101 0.57513 0.42684
 H322 H 0.14205 0.53322 0.47991
 H323 H -0.13738 0.45284 0.50651
 H324 H -0.09417 0.39865 0.55995
 O325 O 0.39523 0.96637 -0.09180
 O326 O 0.39382 0.89699 -0.04356
 O327 O 0.39257 1.07514 0.00414
 O328 O 0.43260 1.10023 0.06556
 O329 O 0.49962 1.07215 -0.10321
 O330 O 0.56705 1.02748 -0.11610
 O331 O 0.52922 0.97668 0.12949
 O332 O 0.45516 1.00745 0.13500
 O333 O 0.51916 0.86244 0.03915
 O334 O 0.49000 0.85127 -0.04237
 O335 O 0.62549 0.96311 0.01808
 O336 O 0.62563 1.03934 -0.01492
 O337 O 0.59121 1.00322 0.08911
 O338 O 0.59854 1.07318 0.03989
 O339 O 0.59170 0.89540 -0.00270
 O340 O 0.55156 0.87158 -0.06864
 O341 O 0.49181 0.90186 0.10222
 O342 O 0.42075 0.93838 0.11078
 O343 O 0.45609 0.99621 -0.13147
 O344 O 0.53413 0.96630 -0.13708
 O345 O 0.47082 1.11164 -0.04080
 O346 O 0.49720 1.12240 0.03634
 O347 O 0.36075 1.00660 -0.01746
 O348 O 0.35740 0.93741 0.00948
 Zr349 Zr 0.41751 0.96317 -0.02333
 O350 O 0.45963 0.92633 0.02094
 Zr351 Zr 0.46419 1.06218 0.01093
 O352 O 0.50895 1.02921 0.05636
 Zr353 Zr 0.50727 1.00504 -0.08047
 O354 O 0.55382 0.96969 -0.03905
 Zr355 Zr 0.47918 0.96753 0.07785
 O356 O 0.43191 1.00293 0.03669
 Zr357 Zr 0.52191 0.91057 -0.01360
 O358 O 0.47733 0.94292 -0.06004
 Zr359 Zr 0.56940 1.00896 0.02054
 O360 O 0.52688 1.04666 -0.02360
 O361 O 0.44606 1.02395 -0.04725
 O362 O 0.54084 0.94844 0.04499
 C363 C 0.41450 0.98048 -0.12893
 C364 C 0.35778 1.04911 -0.00631
 C365 C 0.48653 1.10920 -0.08248
 C366 C 0.57135 0.99049 0.12658
 C367 C 0.50620 0.86519 0.08164
 C368 C 0.62688 0.91992 0.00878
 H369 H 0.44276 0.89860 0.03066
 H370 H 0.58190 0.96220 -0.05736
 H371 H 0.42532 1.04165 -0.06688
 H372 H 0.51566 1.04961 0.08315
 H373 H 0.42675 1.02290 0.12515
 H374 H 0.44591 1.08951 0.09454
 H375 H 0.56555 0.89345 -0.09029
 H376 H 0.51757 0.93653 -0.13745
 H377 H 0.39345 0.95508 0.10004
 H378 H 0.36742 0.91938 0.03588
 H379 H 0.63215 1.02026 -0.04284
 H380 H 0.58189 1.05090 -0.09589
 H381 H 0.41202 0.88723 -0.07116
 H382 H 0.46399 0.84282 -0.02177
 H383 H 0.52804 1.12356 0.02132
 H384 H 0.58315 1.08396 0.06875
 O385 O 0.35745 0.50631 0.02222
 O386 O 0.36106 0.42793 -0.00818
 O387 O 0.46351 0.50549 0.12373
 O388 O 0.54531 0.47827 0.11775
 O389 O 0.46498 0.61587 0.03311
 O390 O 0.48006 0.62373 -0.04996
 O391 O 0.59564 0.40980 -0.01440
 O392 O 0.55228 0.39024 0.06117
 O393 O 0.48087 0.39713 -0.10750
 O394 O 0.40217 0.43715 -0.10685
 O395 O 0.57162 0.50697 -0.11449
 O396 O 0.57796 0.58262 -0.06435
 O397 O 0.61874 0.47624 -0.04714
 O398 O 0.61982 0.55057 -0.02061
 O399 O 0.50778 0.47121 -0.14271
 O400 O 0.43027 0.49085 -0.14046
 O401 O 0.52035 0.36518 -0.04930
 O402 O 0.50692 0.35187 0.02460
 O403 O 0.38477 0.57463 -0.00287
 O404 O 0.41934 0.59757 -0.07071
 O405 O 0.49876 0.57976 0.09245
 O406 O 0.56916 0.54283 0.09675
 O407 O 0.39962 0.47260 0.09200
 O408 O 0.39303 0.40232 0.04980
 Zr409 Zr 0.41638 0.46483 0.02225
 O410 O 0.45708 0.42632 -0.02440
 Zr411 Zr 0.50919 0.51380 0.06694
 O412 O 0.55396 0.48078 0.01957
 Zr413 Zr 0.45491 0.56385 -0.01838
 O414 O 0.49428 0.52945 -0.06972
 Zr415 Zr 0.52426 0.41767 0.00085
 O416 O 0.48060 0.44929 0.05127
 Zr417 Zr 0.46624 0.46415 -0.08424
 O418 O 0.42253 0.50173 -0.03883
 Zr419 Zr 0.55932 0.51619 -0.04280
 O420 O 0.52112 0.55362 0.00792
 O421 O 0.44430 0.52814 0.04155
 O422 O 0.53299 0.45173 -0.06106
 C423 C 0.35204 0.54799 0.01071
 C424 C 0.42204 0.48945 0.12613
 C425 C 0.48297 0.61520 0.07353
 C426 C 0.62660 0.43644 -0.03190
 C427 C 0.50092 0.36348 -0.08872
 C428 C 0.54790 0.48886 -0.14757
 H429 H 0.44144 0.39660 -0.03026
 H430 H 0.49626 0.54827 -0.09752
 H431 H 0.42469 0.54620 0.06338
 H432 H 0.58419 0.47768 0.03456
 H433 H 0.58062 0.40785 0.06863
 H434 H 0.52715 0.45036 0.12459
 H435 H 0.43627 0.52420 -0.14049
 H436 H 0.40174 0.57357 -0.08772
 H437 H 0.47283 0.35075 0.02698
 H438 H 0.41784 0.39142 0.06987
 H439 H 0.56332 0.58777 -0.09437
 H440 H 0.51063 0.63057 -0.03652
 H441 H 0.35151 0.44510 -0.03539
 H442 H 0.39847 0.40610 -0.09434
 H443 H 0.58148 0.56507 0.07445
 H444 H 0.62455 0.54218 0.01177
 O445 O -0.12110 0.04051 0.51153
 O446 O -0.12242 -0.03676 0.47548
 O447 O -0.02870 0.01763 0.62478
 O448 O 0.05150 -0.01199 0.62552
 O449 O -0.00806 0.13552 0.54014
 O450 O 0.02054 0.14464 0.45904
 O451 O 0.10893 -0.07874 0.49062
 O452 O 0.05857 -0.09551 0.56603
 O453 O 0.00218 -0.08120 0.39273
 O454 O -0.06783 -0.02770 0.38318
 O455 O 0.10739 0.02735 0.40188
 O456 O 0.11190 0.09810 0.45667
 O457 O 0.14104 -0.01166 0.46764
 O458 O 0.14492 0.05942 0.50359
 O459 O 0.04727 -0.00471 0.36300
 O460 O -0.02549 0.01933 0.35343
 O461 O 0.03049 -0.11806 0.45422
 O462 O 0.01425 -0.13032 0.52557
 O463 O -0.08366 0.10687 0.49495
 O464 O -0.04193 0.12631 0.43129
 O465 O 0.01531 0.09447 0.60115
 O466 O 0.08057 0.05140 0.61195
 O467 O -0.09082 -0.00671 0.58357
 O468 O -0.10277 -0.06932 0.53357
 Zr469 Zr -0.06777 -0.00866 0.51495
 O470 O -0.02495 -0.04933 0.47196
 Zr471 Zr 0.02299 0.02844 0.57362
 O472 O 0.07014 -0.00636 0.52980
 Zr473 Zr -0.01530 0.08721 0.48505
 O474 O 0.02623 0.05127 0.43664
 Zr475 Zr 0.03764 -0.06553 0.50403
 O476 O -0.00934 -0.03211 0.55021
 Zr477 Zr -0.00422 -0.01129 0.41478
 O478 O -0.04984 0.02926 0.45668
 Zr479 Zr 0.08556 0.03208 0.47100
 O480 O 0.04536 0.07023 0.51896
 O481 O -0.03665 0.05010 0.54176
 O482 O 0.05732 -0.02971 0.44562
 C483 C -0.12020 0.08366 0.50335
 C484 C -0.07079 0.00349 0.62158
 C485 C 0.00455 0.13194 0.58232
 C486 C 0.14347 -0.05359 0.47771
 C487 C 0.01408 -0.11785 0.41348
 C488 C 0.08842 0.01203 0.36493
 H489 H -0.04327 -0.07693 0.46372
 H490 H 0.03316 0.07105 0.41023
 H491 H -0.05703 0.06795 0.56306
 H492 H 0.09818 -0.01341 0.54726
 H493 H 0.09096 -0.08632 0.57178
 H494 H 0.03174 -0.03960 0.62817
 H495 H -0.02632 0.05270 0.35994
 H496 H -0.05925 0.10462 0.41116
 H497 H -0.01987 -0.12874 0.52644
 H498 H -0.08115 -0.08662 0.55261
 H499 H 0.10084 0.10683 0.42602
 H500 H 0.04696 0.15094 0.47958
 H501 H -0.12706 -0.01622 0.44933
 H502 H -0.07826 -0.05758 0.39498
 H503 H 0.09807 0.07246 0.59190
 H504 H 0.14659 0.04577 0.53434
 O505 O 0.72451 0.12056 0.29032
 O506 O 0.80045 0.12067 0.26268
 O507 O 0.72045 0.23976 0.38022
 O508 O 0.74095 0.31784 0.36983
 O509 O 0.60926 0.21960 0.28440
 O510 O 0.60079 0.22515 0.20691
 O511 O 0.82125 0.35096 0.23321
 O512 O 0.84679 0.32391 0.30173
 O513 O 0.82917 0.22748 0.14572
 O514 O 0.79185 0.15237 0.15036
 O515 O 0.72583 0.32025 0.13633
 O516 O 0.64785 0.32969 0.17875
 O517 O 0.75308 0.37227 0.20253
 O518 O 0.67443 0.37113 0.22832
 O519 O 0.75643 0.25258 0.11126
 O520 O 0.73119 0.17127 0.12334
 O521 O 0.86333 0.27324 0.20002
 O522 O 0.87167 0.26173 0.28752
 O523 O 0.65726 0.13912 0.25570
 O524 O 0.63598 0.16973 0.18165
 O525 O 0.64228 0.26387 0.34066
 O526 O 0.68038 0.33808 0.33833
 O527 O 0.75815 0.17520 0.35662
 O528 O 0.82937 0.16487 0.31217
 Zr529 Zr 0.76423 0.18015 0.28444
 O530 O 0.80210 0.21352 0.23261
 Zr531 Zr 0.71097 0.27489 0.31857
 O532 O 0.74796 0.31310 0.26975
 Zr533 Zr 0.66433 0.20851 0.23701
 O534 O 0.69799 0.24503 0.18432
 Zr535 Zr 0.81182 0.28238 0.25263
 O536 O 0.77756 0.24773 0.30704
 Zr537 Zr 0.76310 0.21591 0.17212
 O538 O 0.72793 0.17692 0.22183
 Zr539 Zr 0.71233 0.31244 0.20712
 O540 O 0.67281 0.27780 0.25757
 O541 O 0.69903 0.20695 0.29920
 O542 O 0.77668 0.28428 0.19072
 C543 C 0.68454 0.11051 0.27467
 C544 C 0.74006 0.20151 0.38809
 C545 C 0.60758 0.24287 0.32256
 C546 C 0.79424 0.38088 0.21617
 C547 C 0.86351 0.25033 0.16134
 C548 C 0.74278 0.29350 0.10466
 H549 H 0.83173 0.19749 0.22740
 H550 H 0.67906 0.24442 0.15626
 H551 H 0.68146 0.18950 0.32251
 H552 H 0.75186 0.34437 0.28300
 H553 H 0.82273 0.33949 0.32072
 H554 H 0.77301 0.30711 0.37357
 H555 H 0.70364 0.18670 0.11146
 H556 H 0.65982 0.14743 0.17142
 H557 H 0.88411 0.23427 0.27117
 H558 H 0.83871 0.19173 0.33141
 H559 H 0.64326 0.31085 0.15038
 H560 H 0.60011 0.25899 0.20597
 H561 H 0.78785 0.11138 0.23231
 H562 H 0.82001 0.14745 0.16847
 H563 H 0.65462 0.34298 0.31695
 H564 H 0.68810 0.38293 0.25735
 O565 O 0.77691 0.65179 0.67440
 O566 O 0.84965 0.65812 0.71472
 O567 O 0.67829 0.64101 0.77949
 O568 O 0.65296 0.68043 0.84119
 O569 O 0.65847 0.74462 0.67269
 O570 O 0.69566 0.81270 0.65409
 O571 O 0.77038 0.79305 0.89472
 O572 O 0.75307 0.71567 0.90288
 O573 O 0.88189 0.78960 0.79286
 O574 O 0.88452 0.76275 0.70981
 O575 O 0.76490 0.88385 0.78540
 O576 O 0.68544 0.87273 0.75592
 O577 O 0.73196 0.84834 0.85731
 O578 O 0.65989 0.84602 0.81362
 O579 O 0.83406 0.85957 0.75643
 O580 O 0.85664 0.82132 0.68993
 O581 O 0.84997 0.76465 0.85981
 O582 O 0.81826 0.68973 0.87574
 O583 O 0.73885 0.70790 0.63769
 O584 O 0.75753 0.78783 0.62963
 O585 O 0.62929 0.71006 0.73616
 O586 O 0.62217 0.74012 0.81427
 O587 O 0.74880 0.61674 0.75381
 O588 O 0.82515 0.62867 0.77450
 Zr589 Zr 0.78440 0.67787 0.74189
 O590 O 0.82067 0.72625 0.78204
 Zr591 Zr 0.68355 0.71319 0.78411
 O592 O 0.71576 0.76314 0.82664
 Zr593 Zr 0.72739 0.75883 0.68901
 O594 O 0.76113 0.81089 0.72708
 Zr595 Zr 0.78297 0.74292 0.84252
 O596 O 0.74876 0.69009 0.80479
 Zr597 Zr 0.82632 0.78814 0.74689
 O598 O 0.79461 0.73777 0.70392
 Zr599 Zr 0.72546 0.82348 0.78955
 O600 O 0.68858 0.77520 0.74883
 O601 O 0.71826 0.69733 0.72294
 O602 O 0.79191 0.80470 0.80877
 C603 C 0.75920 0.66894 0.63849
 C604 C 0.70770 0.60951 0.76852
 C605 C 0.62524 0.72671 0.69582
 C606 C 0.74984 0.83188 0.89339
 C607 C 0.88431 0.77816 0.83514
 C608 C 0.80623 0.89111 0.77099
 H609 H 0.85109 0.71275 0.78822
 H610 H 0.76348 0.83865 0.70838
 H611 H 0.70116 0.67375 0.70482
 H612 H 0.69692 0.76814 0.85495
 H613 H 0.73699 0.68700 0.89344
 H614 H 0.66548 0.69542 0.86931
 H615 H 0.83122 0.83043 0.66976
 H616 H 0.78946 0.77601 0.62704
 H617 H 0.84569 0.68119 0.85687
 H618 H 0.81385 0.62740 0.80678
 H619 H 0.70326 0.88322 0.72881
 H620 H 0.67459 0.82796 0.67667
 H621 H 0.85635 0.67781 0.68813
 H622 H 0.89728 0.73732 0.72750
 H623 H 0.61481 0.76822 0.79753
 H624 H 0.65122 0.82787 0.84077
 O625 O 0.34308 0.16265 0.75311
 O626 O 0.35868 0.21284 0.68768
 O627 O 0.33045 0.25866 0.86463
 O628 O 0.27927 0.32697 0.87845
 O629 O 0.23206 0.15227 0.84863
 O630 O 0.16517 0.14184 0.79792
 O631 O 0.20758 0.38228 0.74681
 O632 O 0.27412 0.38828 0.78940
 O633 O 0.23704 0.29315 0.63423
 O634 O 0.26910 0.21156 0.62861
 O635 O 0.11748 0.26891 0.71930
 O636 O 0.10746 0.23585 0.79792
 O637 O 0.14325 0.34178 0.76679
 O638 O 0.12359 0.29441 0.83083
 O639 O 0.16097 0.24965 0.65610
 O640 O 0.20521 0.18540 0.63875
 O641 O 0.25505 0.35632 0.67786
 O642 O 0.32326 0.36225 0.72528
 O643 O 0.27825 0.12295 0.77295
 O644 O 0.20399 0.11723 0.74139
 O645 O 0.25457 0.21523 0.89050
 O646 O 0.22319 0.28845 0.89950
 O647 O 0.37139 0.23611 0.80075
 O648 O 0.38292 0.26666 0.72826
 Zr649 Zr 0.32233 0.23162 0.74889
 O650 O 0.28564 0.27538 0.70643
 Zr651 Zr 0.26215 0.26612 0.84121
 O652 O 0.22135 0.30958 0.80197
 Zr653 Zr 0.22794 0.17468 0.78001
 O654 O 0.18731 0.21472 0.73689
 Zr655 Zr 0.25947 0.33170 0.74480
 O656 O 0.30236 0.29148 0.78644
 Zr657 Zr 0.22727 0.24037 0.68204
 O658 O 0.26622 0.19465 0.72136
 Zr659 Zr 0.16511 0.27357 0.77365
 O660 O 0.20228 0.23131 0.81844
 O661 O 0.28589 0.20810 0.80566
 O662 O 0.20185 0.29823 0.71716
 C663 C 0.32132 0.12523 0.76192
 C664 C 0.36818 0.24720 0.84363
 C665 C 0.24265 0.17293 0.88681
 C666 C 0.16411 0.37923 0.75641
 C667 C 0.24766 0.33585 0.63913
 C668 C 0.12243 0.25935 0.67603
 H669 H 0.30661 0.28533 0.68139
 H670 H 0.16109 0.19592 0.72565
 H671 H 0.30472 0.18805 0.82488
 H672 H 0.21126 0.33596 0.82151
 H673 H 0.30344 0.38148 0.80485
 H674 H 0.30957 0.33770 0.86667
 H675 H 0.18579 0.16506 0.65776
 H676 H 0.21945 0.11859 0.71084
 H677 H 0.31729 0.39456 0.71755
 H678 H 0.38010 0.29831 0.74091
 H679 H 0.10314 0.20911 0.77681
 H680 H 0.15095 0.16039 0.82328
 H681 H 0.34144 0.18709 0.67307
 H682 H 0.29477 0.23321 0.62265
 H683 H 0.19206 0.27466 0.89614
 H684 H 0.14211 0.31593 0.84996
 O685 O 0.15467 0.75315 0.34031
 O686 O 0.20658 0.68234 0.35531
 O687 O 0.26667 0.85576 0.34050
 O688 O 0.32673 0.87316 0.29604
 O689 O 0.15908 0.84594 0.23272
 O690 O 0.15286 0.79328 0.16439
 O691 O 0.38728 0.73917 0.21506
 O692 O 0.38871 0.77904 0.29020
 O693 O 0.29656 0.62764 0.23971
 O694 O 0.21266 0.62509 0.27160
 O695 O 0.27427 0.71181 0.12287
 O696 O 0.24460 0.79437 0.11663
 O697 O 0.34845 0.75592 0.15009
 O698 O 0.30895 0.81785 0.13032
 O699 O 0.25248 0.64987 0.16402
 O700 O 0.18861 0.63412 0.20777
 O701 O 0.35903 0.66941 0.26245
 O702 O 0.36730 0.71304 0.32608
 O703 O 0.12393 0.77744 0.27360
 O704 O 0.12171 0.74168 0.20323
 O705 O 0.21979 0.88528 0.26334
 O706 O 0.29598 0.88969 0.23155
 O707 O 0.23707 0.79498 0.37876
 O708 O 0.24863 0.72452 0.39192
 Zr709 Zr 0.22752 0.74504 0.32622
 O710 O 0.27507 0.70133 0.29105
 Zr711 Zr 0.27014 0.83447 0.27046
 O712 O 0.31525 0.79368 0.22961
 Zr713 Zr 0.17988 0.77728 0.22943
 O714 O 0.22051 0.73114 0.19090
 Zr715 Zr 0.33416 0.73639 0.26665
 O716 O 0.29080 0.77834 0.30917
 Zr717 Zr 0.24341 0.67653 0.23097
 O718 O 0.19482 0.71849 0.26734
 Zr719 Zr 0.28079 0.76586 0.17183
 O720 O 0.23857 0.81339 0.20823
 O721 O 0.20890 0.80254 0.29049
 O722 O 0.30334 0.70903 0.20752
 C723 C 0.12031 0.76551 0.31520
 C724 C 0.25438 0.83553 0.37768
 C725 C 0.17910 0.88299 0.24643
 C726 C 0.38540 0.74717 0.17151
 C727 C 0.33898 0.63135 0.25242
 C728 C 0.26213 0.66958 0.12620
 H729 H 0.28395 0.67645 0.31162
 H730 H 0.20198 0.72049 0.16432
 H731 H 0.18889 0.82310 0.30953
 H732 H 0.34251 0.81203 0.22045
 H733 H 0.37685 0.79629 0.31763
 H734 H 0.35522 0.86051 0.28168
 H735 H 0.16768 0.65374 0.19038
 H736 H 0.12122 0.71142 0.21788
 H737 H 0.35072 0.72722 0.35273
 H738 H 0.28200 0.71786 0.38894
 H739 H 0.22076 0.77196 0.10665
 H740 H 0.16915 0.82106 0.15373
 H741 H 0.17750 0.67282 0.34017
 H742 H 0.23474 0.61715 0.29583
 H743 H 0.27968 0.88877 0.20177
 H744 H 0.32143 0.84176 0.15148
 O745 O 0.36165 0.72410 0.64315
 O746 O 0.32156 0.65060 0.64064
 O747 O 0.25680 0.81918 0.64117
 O748 O 0.19243 0.83849 0.68207
 O749 O 0.36168 0.83455 0.74680
 O750 O 0.37999 0.79513 0.81249
 O751 O 0.13878 0.71579 0.77868
 O752 O 0.13291 0.73512 0.70383
 O753 O 0.24640 0.60693 0.77093
 O754 O 0.32432 0.60520 0.74247
 O755 O 0.24605 0.71079 0.87285
 O756 O 0.27761 0.79153 0.87487
 O757 O 0.17558 0.74910 0.83983
 O758 O 0.22168 0.82034 0.84866
 O759 O 0.27641 0.64623 0.83964
 O760 O 0.35379 0.63877 0.79747
 O761 O 0.17818 0.63794 0.74998
 O762 O 0.16737 0.66844 0.67247
 O763 O 0.39839 0.75870 0.70363
 O764 O 0.40540 0.73481 0.78330
 O765 O 0.29580 0.86504 0.71916
 O766 O 0.21664 0.86572 0.74396
 O767 O 0.28557 0.75312 0.60960
 O768 O 0.26094 0.67722 0.61245
 Zr769 Zr 0.29416 0.71312 0.66690
 O770 O 0.25459 0.67197 0.71045
 Zr771 Zr 0.25022 0.80845 0.71284
 O772 O 0.20835 0.77103 0.75841
 Zr773 Zr 0.34624 0.76498 0.75514
 O774 O 0.30848 0.72614 0.80321
 Zr775 Zr 0.19336 0.70569 0.73038
 O776 O 0.23054 0.74535 0.68200
 Zr777 Zr 0.29067 0.66332 0.77170
 O778 O 0.33288 0.69991 0.72564
 Zr779 Zr 0.24487 0.75768 0.81867
 O780 O 0.28527 0.79955 0.77509
 O781 O 0.31206 0.77756 0.69422
 O782 O 0.22784 0.69356 0.79112
 C783 C 0.39742 0.74167 0.66228
 C784 C 0.27015 0.79367 0.60654
 C785 C 0.33713 0.86849 0.73460
 C786 C 0.13918 0.73386 0.81962
 C787 C 0.20341 0.60413 0.76217
 C788 C 0.25865 0.66868 0.87371
 H789 H 0.24804 0.64254 0.69416
 H790 H 0.32681 0.72197 0.83122
 H791 H 0.33030 0.79704 0.67316
 H792 H 0.17992 0.78883 0.76465
 H793 H 0.14149 0.74754 0.67343
 H794 H 0.16535 0.81954 0.69045
 H795 H 0.35969 0.65415 0.82758
 H796 H 0.40829 0.70396 0.76870
 H797 H 0.13716 0.65482 0.68134
 H798 H 0.22854 0.68780 0.61272
 H799 H 0.30349 0.77229 0.88473
 H800 H 0.35575 0.81106 0.83098
 H801 H 0.34833 0.64313 0.65990
 H802 H 0.30889 0.59730 0.71311
 H803 H 0.23130 0.87130 0.77420
 H804 H 0.19440 0.83007 0.83131
 O805 O 0.14325 0.17062 0.26673
 O806 O 0.13609 0.20999 0.33921
 O807 O 0.12271 0.27482 0.17055
 O808 O 0.15181 0.34517 0.15808
 O809 O 0.23806 0.18686 0.14900
 O810 O 0.30827 0.17350 0.18544
 O811 O 0.25099 0.40432 0.28155
 O812 O 0.17473 0.40273 0.25816
 O813 O 0.26562 0.30341 0.37957
 O814 O 0.24911 0.22679 0.38691
 O815 O 0.36112 0.30502 0.26582
 O816 O 0.35584 0.28397 0.18496
 O817 O 0.31466 0.37600 0.24433
 O818 O 0.32117 0.33834 0.16526
 O819 O 0.33826 0.26833 0.33046
 O820 O 0.29402 0.19372 0.34548
 O821 O 0.22902 0.36581 0.35256
 O822 O 0.14930 0.36269 0.32620
 O823 O 0.20549 0.14268 0.22679
 O824 O 0.28642 0.14450 0.24455
 O825 O 0.19875 0.24807 0.12315
 O826 O 0.21761 0.32784 0.12462
 O827 O 0.09836 0.24084 0.23629
 O828 O 0.10212 0.26823 0.31627
 Zr829 Zr 0.15782 0.24039 0.27716
 O830 O 0.19978 0.28326 0.31841
 Zr831 Zr 0.19257 0.29092 0.18174
 O832 O 0.23517 0.33674 0.21890
 Zr833 Zr 0.24904 0.20045 0.21945
 O834 O 0.29476 0.24241 0.25725
 Zr835 Zr 0.20900 0.34610 0.28609
 O836 O 0.16273 0.30511 0.24694
 Zr837 Zr 0.26657 0.25625 0.32314
 O838 O 0.22260 0.20994 0.28691
 Zr839 Zr 0.30029 0.30711 0.22733
 O840 O 0.25922 0.26295 0.18601
 O841 O 0.18365 0.22711 0.21093
 O842 O 0.27556 0.32009 0.29397
 C843 C 0.16601 0.13797 0.24701
 C844 C 0.09160 0.25554 0.19563
 C845 C 0.21967 0.20992 0.11688
 C846 C 0.29180 0.40851 0.26456
 C847 C 0.24949 0.34428 0.38416
 C848 C 0.36937 0.28646 0.30433
 H849 H 0.18501 0.28758 0.34912
 H850 H 0.32468 0.22638 0.25811
 H851 H 0.16419 0.20629 0.19188
 H852 H 0.23715 0.36623 0.20298
 H853 H 0.14403 0.39152 0.24813
 H854 H 0.16314 0.37364 0.17333
 H855 H 0.32071 0.18604 0.32517
 H856 H 0.27409 0.13857 0.27582
 H857 H 0.15295 0.39445 0.33856
 H858 H 0.09414 0.29761 0.30214
 H859 H 0.36636 0.25451 0.19712
 H860 H 0.32058 0.19803 0.16573
 H861 H 0.16153 0.18987 0.34855
 H862 H 0.21543 0.23050 0.39140
 H863 H 0.24919 0.31660 0.11779
 H864 H 0.30230 0.36607 0.16143
 O865 O 0.84874 0.65497 0.24580
 O866 O 0.86412 0.69941 0.18158
 O867 O 0.84455 0.76057 0.35433
 O868 O 0.80179 0.81953 0.37439
 O869 O 0.74508 0.64875 0.34875
 O870 O 0.67772 0.63513 0.30920
 O871 O 0.71487 0.87482 0.23558
 O872 O 0.78686 0.88364 0.26610
 O873 O 0.72309 0.77335 0.12991
 O874 O 0.75036 0.70070 0.12043
 O875 O 0.61987 0.76705 0.23340
 O876 O 0.61525 0.74036 0.30947
 O877 O 0.65331 0.83778 0.26741
 O878 O 0.64665 0.79369 0.34299
 O879 O 0.65171 0.73605 0.16787
 O880 O 0.70256 0.66273 0.15512
 O881 O 0.75417 0.83839 0.16145
 O882 O 0.82778 0.84788 0.20321
 O883 O 0.78467 0.61719 0.27107
 O884 O 0.70520 0.61339 0.24610
 O885 O 0.76909 0.71350 0.38674
 O886 O 0.73693 0.79463 0.38992
 O887 O 0.88263 0.73340 0.29051
 O888 O 0.88315 0.76108 0.21018
 Zr889 Zr 0.82849 0.72399 0.24108
 O890 O 0.78551 0.76177 0.19755
 Zr891 Zr 0.77543 0.76367 0.33516
 O892 O 0.73423 0.80699 0.29591
 Zr893 Zr 0.73593 0.66958 0.28177
 O894 O 0.68931 0.70799 0.24404
 Zr895 Zr 0.76518 0.82251 0.23191
 O896 O 0.81042 0.78593 0.27516
 Zr897 Zr 0.72282 0.72718 0.18334
 O898 O 0.76932 0.68618 0.21983
 Zr899 Zr 0.67444 0.77036 0.27882
 O900 O 0.71426 0.72792 0.32036
 O901 O 0.79646 0.70354 0.30154
 O902 O 0.70376 0.78863 0.21584
 C903 C 0.82661 0.61824 0.25635
 C904 C 0.88161 0.74873 0.33277
 C905 C 0.75644 0.67104 0.38524
 C906 C 0.67284 0.87339 0.25065
 C907 C 0.73763 0.81456 0.12728
 C908 C 0.61743 0.75251 0.19176
 H909 H 0.80295 0.76839 0.16892
 H910 H 0.66120 0.68951 0.23811
 H911 H 0.81704 0.68470 0.32027
 H912 H 0.72741 0.83541 0.31388
 H913 H 0.81513 0.87599 0.28301
 H914 H 0.80398 0.84542 0.35316
 H915 H 0.67146 0.65537 0.16749
 H916 H 0.72272 0.60870 0.21688
 H917 H 0.82141 0.87798 0.18960
 H918 H 0.88678 0.78987 0.22853
 H919 H 0.61220 0.70894 0.29635
 H920 H 0.66154 0.65751 0.32976
 H921 H 0.84184 0.68006 0.16423
 H922 H 0.78373 0.70805 0.12029
 H923 H 0.71155 0.77323 0.39780
 H924 H 0.65878 0.82489 0.34951
 O925 O 0.75815 0.34907 0.83981
 O926 O 0.82145 0.36136 0.78833
 O927 O 0.64543 0.33605 0.74672
 O928 O 0.62330 0.29011 0.68879
 O929 O 0.66086 0.23631 0.85652
 O930 O 0.71024 0.17583 0.86805
 O931 O 0.75755 0.20902 0.61955
 O932 O 0.72267 0.27961 0.61527
 O933 O 0.87256 0.23209 0.70766
 O934 O 0.88324 0.26385 0.78461
 O935 O 0.78420 0.11866 0.73126
 O936 O 0.70740 0.11030 0.76455
 O937 O 0.73738 0.14589 0.65960
 O938 O 0.67008 0.13208 0.71304
 O939 O 0.84778 0.16045 0.75066
 O940 O 0.86285 0.20961 0.81942
 O941 O 0.83131 0.25214 0.64529
 O942 O 0.78338 0.31999 0.63556
 O943 O 0.73627 0.28697 0.88075
 O944 O 0.77029 0.21140 0.88407
 O945 O 0.61812 0.25701 0.79540
 O946 O 0.61027 0.22606 0.71794
 O947 O 0.70984 0.37622 0.76708
 O948 O 0.78328 0.38187 0.73265
 Zr949 Zr 0.76015 0.32545 0.77118
 O950 O 0.80241 0.28581 0.72697
 Zr951 Zr 0.66646 0.26671 0.74136
 O952 O 0.70484 0.22493 0.69460
 Zr953 Zr 0.72841 0.23434 0.83024
 O954 O 0.76844 0.19022 0.78779
 Zr955 Zr 0.76368 0.26019 0.67122
 O956 O 0.72206 0.30410 0.71310
 Zr957 Zr 0.82426 0.22749 0.76112
 O958 O 0.78699 0.27038 0.80748
 Zr959 Zr 0.73146 0.16849 0.72919
 O960 O 0.68902 0.20798 0.77501
 O961 O 0.70255 0.29161 0.79811
 O962 O 0.78928 0.20239 0.70316
 C963 C 0.74918 0.32904 0.87769
 C964 C 0.66733 0.37378 0.75567
 C965 C 0.62232 0.24373 0.83707
 C966 C 0.74685 0.16644 0.62187
 C967 C 0.86916 0.24272 0.66535
 C968 C 0.82742 0.12259 0.74043
 H969 H 0.82878 0.30493 0.71700
 H970 H 0.77855 0.16408 0.80606
 H971 H 0.68316 0.31119 0.81882
 H972 H 0.68497 0.21552 0.66856
 H973 H 0.70226 0.30455 0.62683
 H974 H 0.63728 0.27985 0.65907
 H975 H 0.84781 0.18273 0.83344
 H976 H 0.79912 0.22976 0.88311
 H977 H 0.81096 0.33355 0.65042
 H978 H 0.76692 0.38008 0.70293
 H979 H 0.72537 0.10826 0.79316
 H980 H 0.69065 0.15654 0.84761
 H981 H 0.83825 0.34222 0.81017
 H982 H 0.88572 0.29242 0.76711
 H983 H 0.61131 0.19699 0.73472
 H984 H 0.65629 0.14629 0.68591
 C985 C 0.11768 1.00299 1.19210
 C986 C 0.07862 1.02285 1.17948
 H987 H 0.13792 0.98477 1.16586
 H988 H 0.05784 1.04167 1.20468
 C989 C 0.60195 0.49812 0.70765
 C990 C 0.62031 0.49032 0.66535
 H991 H 0.56579 0.50702 0.71135
 H992 H 0.65680 0.48282 0.66168
 C993 C 0.38641 0.00627 0.70307
 C994 C 0.42707 -0.01189 0.69056
 H995 H 0.36620 0.02303 0.67723
 H996 H 0.44781 -0.02938 0.71532
 C997 C -0.10398 0.49134 1.20810
 C998 C -0.11921 0.50443 1.16698
 H999 H -0.06967 0.47712 1.21056
 H1000 H -0.15438 0.51629 1.16386
 C1001 C -0.11144 0.49187 0.29587
 C1002 C -0.06757 0.50420 0.30397
 H1003 H -0.13339 0.48340 0.32510
 H1004 H -0.04504 0.51571 0.27653
 C1005 C 0.39727 0.99712 -0.21078
 C1006 C 0.38500 0.97976 -0.17000
 H1007 H 0.43067 1.01368 -0.21440
 H1008 H 0.35056 0.96558 -0.16584
 C1009 C 0.60623 0.50947 -0.20543
 C1010 C 0.56773 0.48675 -0.19440
 H1011 H 0.62232 0.53029 -0.17862
 H1012 H 0.55072 0.46511 -0.21987
 C1013 C 0.10324 0.00676 0.27973
 C1014 C 0.11757 0.01411 0.32310
 H1015 H 0.06765 -0.00283 0.27340
 H1016 H 0.15358 0.02295 0.32843
 C1017 C 0.21347 1.09949 1.01528
 C1018 C 0.17016 1.11492 1.01053
 H1019 H 0.21876 1.06438 1.02501
 H1020 H 0.16492 1.15020 1.00142
 C1021 C 0.72215 0.59455 0.50917
 C1022 C 0.67850 0.60741 0.50168
 H1023 H 0.72935 0.55911 0.51647
 H1024 H 0.67203 0.64326 0.49556
 C1025 C 0.69198 0.39905 0.00272
 C1026 C 0.67497 0.42172 -0.03267
 H1027 H 0.66851 0.39203 0.03127
 H1028 H 0.69720 0.43184 -0.06092
 C1029 C 0.20339 -0.10147 0.50703
 C1030 C 0.18991 -0.07246 0.47557
 H1031 H 0.17751 -0.11283 0.53182
 H1032 H 0.21453 -0.05866 0.45115
 C1033 C 0.29092 -0.08958 0.50819
 C1034 C 0.33443 -0.10551 0.50911
 H1035 H 0.28457 -0.05311 0.51128
 H1036 H 0.33964 -0.14212 0.50497
 C1037 C -0.22124 0.41378 1.00134
 C1038 C -0.17700 0.40040 0.99643
 H1039 H -0.22913 0.44975 1.00671
 H1040 H -0.17040 0.36408 0.99157
 C1041 C -0.19091 0.60826 0.51059
 C1042 C -0.17790 0.57520 0.48049
 H1043 H -0.16510 0.62320 0.53327
 H1044 H -0.20296 0.55966 0.45754
 C1045 C 0.30192 1.11075 0.00935
 C1046 C 0.31073 1.06823 -0.00595
 H1047 H 0.33094 1.13235 0.01931
 H1048 H 0.28290 1.04628 -0.01791
 C1049 C -0.01000 1.21278 1.08134
 C1050 C -0.01305 1.17117 1.09961
 H1051 H -0.00234 1.21521 1.04482
 H1052 H -0.02025 1.16832 1.13616
 C1053 C 0.52270 0.70453 0.58720
 C1054 C 0.51375 0.66404 0.60662
 H1055 H 0.53335 0.70531 0.55128
 H1056 H 0.50413 0.66257 0.64271
 C1057 C -0.00230 0.71056 0.41865
 C1058 C -0.00038 0.66758 0.40111
 H1059 H -0.00628 0.71645 0.45548
 H1060 H 0.00565 0.66332 0.36428
 C1061 C 0.49301 1.19343 -0.09060
 C1062 C 0.48990 1.15112 -0.10948
 H1063 H 0.49231 1.19786 -0.05342
 H1064 H 0.49190 1.14693 -0.14667
 C1065 C 0.49893 0.27964 -0.09270
 C1066 C 0.49995 0.31988 -0.11401
 H1067 H 0.50058 0.27876 -0.05545
 H1068 H 0.49644 0.32067 -0.15112
 C1069 C 0.00613 -0.20303 0.41177
 C1070 C 0.00670 -0.16270 0.38960
 H1071 H 0.01151 -0.20268 0.44865
 H1072 H 0.00058 -0.16237 0.35294
 C1073 C 0.51785 -0.21049 0.58225
 C1074 C 0.51912 -0.16751 0.59910
 H1075 H 0.51148 -0.21652 0.54589
 H1076 H 0.52576 -0.16249 0.63559
 C1077 C -0.01683 0.29760 1.08020
 C1078 C -0.01532 0.33985 1.09880
 H1079 H -0.01995 0.29298 1.04320
 H1080 H -0.01143 0.34388 1.13581
 C1081 C 0.74308 0.35564 0.04965
 C1082 C 0.74710 0.31082 0.05758
 H1083 H 0.73913 0.37899 0.07911
 H1084 H 0.75367 0.28624 0.02990
 C1085 C 0.25195 0.85301 0.55264
 C1086 C 0.26851 0.81155 0.55980
 H1087 H 0.24102 0.87371 0.58239
 H1088 H 0.28167 0.79055 0.53139
 C1089 C 0.75536 0.65875 0.55442
 C1090 C 0.76225 0.64120 0.59590
 H1091 H 0.74463 0.69413 0.55210
 H1092 H 0.77293 0.60584 0.59840
 C1093 C 0.25392 0.15933 0.05804
 C1094 C 0.22313 0.19176 0.06946
 H1095 H 0.27593 0.14682 0.08495
 H1096 H 0.20083 0.20568 0.04376
 C1097 C 0.25112 0.16321 0.97101
 C1098 C 0.24257 0.14543 0.92869
 H1099 H 0.25902 0.19938 0.97527
 H1100 H 0.23598 0.10901 0.92454
 C1101 C 0.76090 0.66131 0.46947
 C1102 C 0.75474 0.64417 0.42699
 H1103 H 0.76952 0.69730 0.47411
 H1104 H 0.74688 0.60807 0.42228
 C1105 C 0.25239 0.84475 0.46382
 C1106 C 0.26093 0.86149 0.42156
 H1107 H 0.23931 0.81008 0.46646
 H1108 H 0.27271 0.89657 0.41870
 C1109 C 0.74181 0.34403 0.96190
 C1110 C 0.75398 0.35760 0.91965
 H1111 H 0.72579 0.31067 0.96508
 H1112 H 0.76652 0.39221 0.91496
 C1113 C 0.83807 0.44493 0.24885
 C1114 C 0.81095 0.42884 0.21492
 H1115 H 0.84562 0.42124 0.27601
 H1116 H 0.80006 0.45080 0.18768
 C1117 C 0.33639 0.95379 0.74406
 C1118 C 0.35918 0.91384 0.73924
 H1119 H 0.29903 0.95400 0.74251
 H1120 H 0.39639 0.91393 0.74222
 C1121 C 0.16999 0.96727 0.24559
 C1122 C 0.15215 0.92480 0.24281
 H1123 H 0.20644 0.97240 0.25217
 H1124 H 0.11570 0.92046 0.23559
 C1125 C 0.66158 0.45891 0.75340
 C1126 C 0.64155 0.41695 0.75240
 H1127 H 0.69852 0.46212 0.75815
 H1128 H 0.60474 0.41395 0.74704
 C1129 C 0.66141 0.54549 0.74226
 C1130 C 0.69273 0.56176 0.77172
 H1131 H 0.65098 0.56832 0.71527
 H1132 H 0.70449 0.54148 0.79995
 C1133 C 0.16535 0.05298 0.24053
 C1134 C 0.14334 0.09295 0.24696
 H1135 H 0.20212 0.05290 0.23306
 H1136 H 0.10654 0.09279 0.25423
 C1137 C 0.33141 0.03995 0.75872
 C1138 C 0.34890 0.08288 0.75912
 H1139 H 0.29453 0.03469 0.76277
 H1140 H 0.38583 0.08731 0.75423
 C1141 C 0.83289 0.53276 0.25211
 C1142 C 0.85221 0.57496 0.25173
 H1143 H 0.79588 0.52868 0.25637
 H1144 H 0.88932 0.57796 0.24719
 C1145 C 0.94786 0.25730 0.14527
 C1146 C 0.90480 0.24911 0.13117
 H1147 H 0.95301 0.26883 0.18057
 H1148 H 0.89961 0.23860 0.09551
 C1149 C 0.48148 0.75115 0.64828
 C1150 C 0.43886 0.74279 0.63295
 H1151 H 0.48680 0.75990 0.68433
 H1152 H 0.43428 0.73433 0.59670
 C1153 C 0.45177 0.23636 0.85117
 C1154 C 0.41047 0.24579 0.87074
 H1155 H 0.45401 0.22819 0.81458
 H1156 H 0.40793 0.25316 0.90746
 C1157 C 0.96848 0.74811 0.34891
 C1158 C 0.92379 0.75287 0.36164
 H1159 H 0.97736 0.73982 0.31334
 H1160 H 0.91697 0.76086 0.39777
 C1161 C 0.05575 0.74429 0.36753
 C1162 C 0.07263 0.76846 0.33298
 H1163 H 0.07940 0.72273 0.38581
 H1164 H 0.04928 0.78951 0.31398
 C1165 C 0.53819 0.23327 0.84795
 C1166 C 0.58065 0.23710 0.86553
 H1167 H 0.53413 0.23324 0.81088
 H1168 H 0.58482 0.23631 0.90257
 C1169 C 0.56840 0.75232 0.63959
 C1170 C 0.57910 0.72570 0.67509
 H1171 H 0.59497 0.77427 0.62518
 H1172 H 0.55306 0.70392 0.69038
 C1173 C 0.03543 0.26138 0.13351
 C1174 C 0.04522 0.24862 0.17631
 H1175 H 0.06305 0.27529 0.11232
 H1176 H 0.01924 0.23226 0.19751
 C1177 C -0.09997 1.00625 0.79341
 C1178 C -0.06459 0.98107 0.80725
 H1179 H -0.11654 1.02925 0.81840
 H1180 H -0.04711 0.95823 0.78286
 C1181 C 0.41342 0.50585 0.29571
 C1182 C 0.39550 0.49995 0.33796
 H1183 H 0.45064 0.50760 0.29142
 H1184 H 0.35836 0.49970 0.34291
 C1185 C 0.59782 -0.00697 0.29902
 C1186 C 0.56960 0.02509 0.31716
 H1187 H 0.60821 -0.03439 0.32115
 H1188 H 0.55697 0.05201 0.29571
 C1189 C 0.08354 0.50500 0.78523
 C1190 C 0.10057 0.50747 0.82848
 H1191 H 0.04673 0.50760 0.77977
 H1192 H 0.13751 0.50411 0.83267
 C1193 C 0.09497 0.50337 0.69627
 C1194 C 0.06599 0.47171 0.67909
 H1195 H 0.10725 0.52883 0.67222
 H1196 H 0.05165 0.44570 0.70112
 C1197 C 0.58573 0.98959 0.21199
 C1198 C 0.60060 0.99183 0.16786
 H1199 H 0.54930 0.98520 0.21973
 H1200 H 0.63720 0.99726 0.16150
 C1201 C 0.41343 0.50554 0.21004
 C1202 C 0.39599 0.49203 0.16947
 H1203 H 0.44891 0.51747 0.21174
 H1204 H 0.35998 0.48173 0.16781
 C1205 C -0.08619 0.00422 0.70679
 C1206 C -0.10013 -0.00083 0.66303
 H1207 H -0.05049 0.01266 0.71403
 H1208 H -0.13618 -0.00898 0.65701
 C1209 C -0.20009 0.91384 1.00532
 C1210 C -0.15936 0.89304 0.99633
 H1211 H -0.20221 0.95086 1.00485
 H1212 H -0.15701 0.85621 0.99947
 C1213 C 0.30066 0.40539 0.51341
 C1214 C 0.34213 0.38571 0.50790
 H1215 H 0.29850 0.44244 0.51551
 H1216 H 0.34473 0.34869 0.50715
 C1217 C 0.29563 0.60698 -0.00459
 C1218 C 0.30503 0.56644 0.01342
 H1219 H 0.32375 0.62631 -0.02002
 H1220 H 0.27824 0.54657 0.03009
 C1221 C -0.20511 0.09191 0.49944
 C1222 C -0.16287 0.11010 0.50372
 H1223 H -0.20931 0.05502 0.49726
 H1224 H -0.15910 0.14710 0.50398
 C1225 C 0.70954 0.09558 0.48966
 C1226 C 0.66808 0.11570 0.48976
 H1227 H 0.71148 0.05860 0.48605
 H1228 H 0.66556 0.15243 0.49501
 C1229 C 0.20756 0.59929 0.99909
 C1230 C 0.16484 0.61558 1.00673
 H1231 H 0.21178 0.56375 0.98842
 H1232 H 0.16082 0.65151 1.01610
 C1233 C 0.21429 0.40841 0.51598
 C1234 C 0.17179 0.39041 0.51645
 H1235 H 0.21848 0.44525 0.51423
 H1236 H 0.16790 0.35344 0.51540
 C1237 C 0.71294 0.91476 0.01694
 C1238 C 0.67105 0.89532 0.01074
 H1239 H 0.71555 0.95136 0.02349
 H1240 H 0.66873 0.85865 0.00480
 C1241 C 0.01891 0.78693 0.89768
 C1242 C 0.03131 0.82945 0.88597
 H1243 H 0.00596 0.78125 0.93229
 H1244 H 0.04258 0.83493 0.85076
 C1245 C 0.48292 0.28551 0.39970
 C1246 C 0.49731 0.32707 0.38595
 H1247 H 0.46973 0.28193 0.43452
 H1248 H 0.50819 0.33114 0.35044
 C1249 C -0.00688 0.30120 0.60915
 C1250 C 0.01260 0.31063 0.56859
 H1251 H -0.02492 0.32816 0.62833
 H1252 H 0.03260 0.28504 0.54970
 C1253 C 0.51068 0.78158 0.08923
 C1254 C 0.50615 0.82345 0.10876
 H1255 H 0.51788 0.77862 0.05253
 H1256 H 0.49923 0.82718 0.14539
 C1257 C 0.49751 0.69763 0.08465
 C1258 C 0.48651 0.65693 0.10174
 H1259 H 0.50197 0.70065 0.04768
 H1260 H 0.48595 0.65290 0.13878
 C1261 C 0.00032 0.21512 0.59758
 C1262 C 0.00672 0.17278 0.61241
 H1263 H -0.00846 0.21975 0.56184
 H1264 H 0.01338 0.16779 0.64862
 C1265 C 0.47872 0.19787 0.38787
 C1266 C 0.49672 0.18883 0.42865
 H1267 H 0.46538 0.16930 0.36732
 H1268 H 0.51243 0.21608 0.44908
 C1269 C -0.00029 0.70275 0.87865
 C1270 C 0.02129 0.68604 0.91468
 H1271 H -0.02466 0.68084 0.86031
 H1272 H 0.04542 0.70770 0.93343
 C1273 C 0.24649 0.66141 0.95746
 C1274 C 0.25218 0.64258 0.91543
 H1275 H 0.24311 0.69824 0.96154
 H1276 H 0.25633 0.60575 0.91191
 C1277 C 0.76096 0.14752 0.44820
 C1278 C 0.73952 0.18595 0.43625
 H1279 H 0.78020 0.12871 0.42165
 H1280 H 0.71912 0.20509 0.46150
 C1281 C 0.25508 0.34887 0.46887
 C1282 C 0.25404 0.36934 0.42817
 H1283 H 0.25450 0.31178 0.46981
 H1284 H 0.25287 0.40642 0.42744
 C1285 C 0.75412 0.84860 0.97805
 C1286 C 0.74689 0.86157 0.93470
 H1287 H 0.76273 0.81339 0.98494
 H1288 H 0.73884 0.89716 0.92885
 C1289 C 0.76227 0.86621 0.06451
 C1290 C 0.73394 0.83406 0.08107
 H1291 H 0.78822 0.88098 0.08712
 H1292 H 0.70878 0.81834 0.05835
 C1293 C 0.25510 0.34646 0.55515
 C1294 C 0.25216 0.36410 0.59811
 H1295 H 0.25496 0.30958 0.54989
 H1296 H 0.25352 0.40096 0.60338
 C1297 C 0.75150 0.15540 0.53636
 C1298 C 0.74510 0.13851 0.57879
 H1299 H 0.75860 0.19158 0.53260
 H1300 H 0.73887 0.10209 0.58209
 C1301 C 0.25149 0.66059 0.04289
 C1302 C 0.25694 0.64182 0.08405
 H1303 H 0.25096 0.69759 0.04059
 H1304 H 0.25570 0.60496 0.08713
 C1305 C 0.14126 0.55001 0.74674
 C1306 C 0.18273 0.55832 0.76445
 H1307 H 0.12159 0.57888 0.73481
 H1308 H 0.20291 0.53099 0.77843
 C1309 C 0.64189 0.04339 0.24686
 C1310 C 0.66962 0.06256 0.27838
 H1311 H 0.63144 0.06429 0.21843
 H1312 H 0.68228 0.04248 0.30640
 C1313 C 0.84287 0.03835 0.74090
 C1314 C 0.85730 0.08211 0.74031
 H1315 H 0.80631 0.03038 0.73971
 H1316 H 0.89404 0.08899 0.74297
 C1317 C 0.35149 0.54703 0.25191
 C1318 C 0.36769 0.58993 0.25668
 H1319 H 0.31595 0.54229 0.24165
 H1320 H 0.40384 0.59504 0.26468
 C1321 C 0.35734 0.45993 0.25345
 C1322 C 0.31383 0.45375 0.26824
 H1323 H 0.37696 0.43030 0.24146
 H1324 H 0.29409 0.48178 0.28331
 C1325 C 0.85677 0.95268 0.74353
 C1326 C 0.82240 0.93905 0.77136
 H1327 H 0.87280 0.92734 0.72062
 H1328 H 0.80553 0.96365 0.79439
 C1329 C 0.65651 0.95782 0.24661
 C1330 C 0.64275 0.91385 0.24876
 H1331 H 0.69296 0.96618 0.24430
 H1332 H 0.60607 0.90699 0.25279
 C1333 C 0.14995 0.46280 0.74523
 C1334 C 0.13493 0.42073 0.75625
 H1335 H 0.18525 0.46689 0.73315
 H1336 H 0.09893 0.41620 0.76582
 C1337 C 0.05368 0.74429 0.82862
 C1338 C 0.09581 0.73845 0.84659
 H1339 H 0.04980 0.74321 0.79153
 H1340 H 0.09951 0.74090 0.88362
 C1341 C 0.52107 0.24312 0.33237
 C1342 C 0.56414 0.24491 0.34960
 H1343 H 0.51603 0.23836 0.29565
 H1344 H 0.56805 0.25039 0.38640
 C1345 C 0.55605 0.73063 0.13682
 C1346 C 0.57162 0.75678 0.17160
 H1347 H 0.57898 0.70558 0.12065
 H1348 H 0.54866 0.78146 0.18812
 C1349 C 0.03835 0.25771 0.66332
 C1350 C 0.08160 0.25850 0.64650
 H1351 H 0.03284 0.25973 0.70032
 H1352 H 0.08733 0.25611 0.60956
 C1353 C 0.95300 0.24848 0.65922
 C1354 C 0.91185 0.24606 0.63854
 H1355 H 0.95484 0.24646 0.69640
 H1356 H 0.90963 0.24944 0.60153
 C1357 C 0.47033 0.74086 0.15421
 C1358 C 0.42669 0.74697 0.14151
 H1359 H 0.47797 0.73482 0.18998
 H1360 H 0.42040 0.75207 0.10522
 C1361 C 0.43278 0.24809 0.34193
 C1362 C 0.41809 0.28405 0.31846
 H1363 H 0.40740 0.22146 0.34876
 H1364 H 0.44182 0.31088 0.30852
 C1365 C 0.96849 0.76458 0.83361
 C1366 C 0.92953 0.77659 0.85678
 H1367 H 0.96762 0.75931 0.79654
 H1368 H 0.92941 0.77770 0.89412
   
