data_POSCAR
  _audit_creation_date              2014-09-24
  _audit_creation_method            'ToBaCCo'
  _symmetry_space_group_name_H-M    'P1'
  _symmetry_Int_Tables_number       1
  _symmetry_cell_setting            triclinic
  loop_
  _symmetry_equiv_pos_as_xyz
 x,y,z
_cell_length_a 74.1956
_cell_length_b 74.6260
_cell_length_c 74.7914
_cell_angle_alpha 89.996800
_cell_angle_beta 90.744000
_cell_angle_gamma 90.060900
loop_
  _atom_site_label
  _atom_site_type_symbol
  _atom_site_fract_x
  _atom_site_fract_y
  _atom_site_fract_z
C1 C 0.18964 0.21250 0.21155
 C2 C 0.19968 0.21704 0.19647
 C3 C 0.21457 0.20697 0.19192
 C4 C 0.21952 0.19209 0.20235
 C5 C 0.20955 0.18758 0.21719
 C6 C 0.19455 0.19791 0.22187
 C7 C 0.17463 0.21997 0.21914
 N8 N 0.17030 0.21029 0.23388
 C9 C 0.18245 0.19675 0.23562
 C10 C 0.21728 0.17253 0.22461
 N11 N 0.23169 0.16774 0.21464
 C12 C 0.23315 0.17969 0.20100
 C13 C 0.22169 0.21454 0.17676
 N14 N 0.21141 0.22888 0.17199
 C15 C 0.19792 0.23048 0.18400
 H16 H 0.16759 0.23179 0.21442
 H17 H 0.18241 0.18665 0.24601
 H18 H 0.21278 0.16568 0.23650
 H19 H 0.24317 0.17924 0.19062
 H20 H 0.23335 0.20980 0.16961
 H21 H 0.18768 0.24080 0.18382
 C22 C 0.68609 0.72037 0.70347
 C23 C 0.69551 0.72482 0.68793
 C24 C 0.71062 0.71515 0.68330
 C25 C 0.71660 0.70099 0.69414
 C26 C 0.70734 0.69657 0.70944
 C27 C 0.69198 0.70636 0.71415
 C28 C 0.67099 0.72742 0.71129
 N29 N 0.66754 0.71805 0.72647
 C30 C 0.68036 0.70513 0.72828
 C31 C 0.71622 0.68233 0.71726
 N32 N 0.73066 0.67807 0.70709
 C33 C 0.73094 0.68945 0.69291
 C34 C 0.71703 0.72231 0.66771
 N35 N 0.70620 0.73615 0.66269
 C36 C 0.69299 0.73779 0.67503
 H37 H 0.66325 0.73872 0.70638
 H38 H 0.68110 0.69537 0.73896
 H39 H 0.71256 0.67576 0.72960
 H40 H 0.74072 0.68922 0.68230
 H41 H 0.72892 0.71793 0.66071
 H42 H 0.68222 0.74755 0.67458
 C43 C 0.30743 0.78324 0.71639
 C44 C 0.29784 0.77740 0.70121
 C45 C 0.28241 0.78632 0.69574
 C46 C 0.27643 0.80129 0.70533
 C47 C 0.28599 0.80718 0.72014
 C48 C 0.30161 0.79808 0.72576
 C49 C 0.32272 0.77700 0.72488
 N50 N 0.32638 0.78768 0.73919
 C51 C 0.31354 0.80066 0.73979
 C52 C 0.27715 0.82197 0.72661
 N53 N 0.26228 0.82528 0.71616
 C54 C 0.26191 0.81251 0.70309
 C55 C 0.27597 0.77779 0.68064
 N56 N 0.28718 0.76396 0.67676
 C57 C 0.30058 0.76363 0.68933
 H58 H 0.33069 0.76559 0.72083
 H59 H 0.31275 0.81103 0.74986
 H60 H 0.28125 0.82936 0.73841
 H61 H 0.25212 0.81145 0.69231
 H62 H 0.26420 0.78163 0.67284
 H63 H 0.31149 0.75403 0.68987
 C64 C 0.80650 0.28331 0.22279
 C65 C 0.79664 0.27747 0.20775
 C66 C 0.78130 0.28660 0.20233
 C67 C 0.77559 0.30167 0.21192
 C68 C 0.78531 0.30738 0.22675
 C69 C 0.80083 0.29807 0.23225
 C70 C 0.82191 0.27708 0.23110
 N71 N 0.82584 0.28766 0.24555
 C72 C 0.81281 0.30056 0.24620
 C73 C 0.77678 0.32230 0.23332
 N74 N 0.76209 0.32583 0.22284
 C75 C 0.76127 0.31322 0.20972
 C76 C 0.77451 0.27797 0.18745
 N77 N 0.78532 0.26379 0.18367
 C78 C 0.79891 0.26343 0.19606
 H79 H 0.82930 0.26537 0.22693
 H80 H 0.81206 0.31136 0.25577
 H81 H 0.78090 0.32990 0.24500
 H82 H 0.75119 0.31263 0.19915
 H83 H 0.76240 0.28162 0.18010
 H84 H 0.80980 0.25381 0.19647
 C85 C 0.81363 0.72216 0.28153
 C86 C 0.80333 0.72776 0.29610
 C87 C 0.78842 0.71795 0.30115
 C88 C 0.78357 0.70243 0.29166
 C89 C 0.79372 0.69696 0.27728
 C90 C 0.80881 0.70696 0.27215
 C91 C 0.82882 0.72901 0.27370
 N92 N 0.83346 0.71840 0.25961
 C93 C 0.82109 0.70484 0.25871
 C94 C 0.78603 0.68148 0.27074
 N95 N 0.77145 0.67737 0.28079
 C96 C 0.76986 0.69018 0.29361
 C97 C 0.78107 0.72649 0.31564
 N98 N 0.79114 0.74126 0.31952
 C99 C 0.80481 0.74209 0.30760
 H100 H 0.83556 0.74116 0.27793
 H101 H 0.82101 0.69384 0.24931
 H102 H 0.79065 0.67387 0.25937
 H103 H 0.75969 0.69042 0.30385
 H104 H 0.76908 0.72236 0.32263
 H105 H 0.81523 0.75224 0.30739
 C106 C 0.29558 0.22133 -0.21584
 C107 C 0.28499 0.22584 -0.20113
 C108 C 0.27044 0.21525 -0.19664
 C109 C 0.26637 0.19990 -0.20677
 C110 C 0.27695 0.19536 -0.22110
 C111 C 0.29167 0.20618 -0.22570
 C112 C 0.31047 0.22920 -0.22324
 N113 N 0.31594 0.21920 -0.23746
 C114 C 0.30436 0.20501 -0.23890
 C115 C 0.27011 0.17972 -0.22816
 N116 N 0.25548 0.17452 -0.21854
 C117 C 0.25322 0.18701 -0.20540
 C118 C 0.26286 0.22267 -0.18165
 N119 N 0.27256 0.23742 -0.17689
 C120 C 0.28610 0.23946 -0.18879
 H121 H 0.31697 0.24113 -0.21810
 H122 H 0.30466 0.19464 -0.24898
 H123 H 0.27544 0.17299 -0.23974
 H124 H 0.24313 0.18672 -0.19511
 H125 H 0.25143 0.21743 -0.17446
 H126 H 0.29605 0.25007 -0.18851
 C127 C 0.69142 0.28285 -0.20832
 C128 C 0.70265 0.27666 -0.19439
 C129 C 0.71843 0.28571 -0.19027
 C130 C 0.72315 0.30110 -0.19988
 C131 C 0.71200 0.30728 -0.21340
 C132 C 0.69602 0.29808 -0.21765
 C133 C 0.67548 0.27660 -0.21558
 N134 N 0.67013 0.28770 -0.22917
 C135 C 0.68278 0.30094 -0.23033
 C136 C 0.71990 0.32239 -0.22033
 N137 N 0.73575 0.32564 -0.21141
 C138 C 0.73769 0.31249 -0.19883
 C139 C 0.72663 0.27681 -0.17629
 N140 N 0.71618 0.26260 -0.17173
 C141 C 0.70147 0.26241 -0.18276
 H142 H 0.66833 0.26491 -0.21091
 H143 H 0.68293 0.31166 -0.24005
 H144 H 0.71444 0.33003 -0.23141
 H145 H 0.74860 0.31124 -0.18921
 H146 H 0.73911 0.28064 -0.16967
 H147 H 0.69073 0.25259 -0.18243
 C148 C 0.19445 0.77873 0.28232
 C149 C 0.20447 0.77469 0.29781
 C150 C 0.21904 0.78525 0.30273
 C151 C 0.22370 0.80011 0.29223
 C152 C 0.21368 0.80420 0.27711
 C153 C 0.19897 0.79342 0.27207
 C154 C 0.17978 0.77068 0.27425
 N155 N 0.17526 0.78015 0.25934
 C156 C 0.18691 0.79414 0.25795
 C157 C 0.22106 0.81933 0.26972
 N158 N 0.23550 0.82469 0.27989
 C159 C 0.23710 0.81281 0.29373
 C160 C 0.22608 0.77821 0.31835
 N161 N 0.21603 0.76375 0.32306
 C162 C 0.20282 0.76151 0.31051
 H163 H 0.17282 0.75887 0.27898
 H164 H 0.18684 0.80394 0.24728
 H165 H 0.21628 0.82554 0.25750
 H166 H 0.24693 0.81337 0.30450
 H167 H 0.23743 0.78348 0.32594
 H168 H 0.19275 0.75100 0.31056
 C169 C 0.46867 0.44132 0.46807
 C170 C 0.47494 0.45080 0.45317
 C171 C 0.46605 0.46608 0.44747
 C172 C 0.45073 0.47205 0.45647
 C173 C 0.44457 0.46274 0.47115
 C174 C 0.45357 0.44724 0.47696
 C175 C 0.47459 0.42606 0.47665
 N176 N 0.46342 0.42255 0.49050
 C177 C 0.45053 0.43548 0.49075
 C178 C 0.42955 0.47156 0.47718
 N179 N 0.42641 0.48597 0.46647
 C180 C 0.43933 0.48634 0.45375
 C181 C 0.47506 0.47254 0.43287
 N182 N 0.48921 0.46154 0.42951
 C183 C 0.48920 0.44817 0.44187
 H184 H 0.48604 0.41798 0.47291
 H185 H 0.43982 0.43642 0.50040
 H186 H 0.42134 0.46760 0.48838
 H187 H 0.44049 0.49638 0.44338
 H188 H 0.47141 0.48427 0.42512
 H189 H 0.49899 0.43745 0.44273
 C190 C -0.03619 -0.05769 0.96489
 C191 C -0.03099 -0.04681 0.95054
 C192 C -0.04028 -0.03113 0.94688
 C193 C -0.05496 -0.02619 0.95744
 C194 C -0.06008 -0.03696 0.97145
 C195 C -0.05055 -0.05273 0.97528
 C196 C -0.02958 -0.07352 0.97176
 N197 N -0.03951 -0.07836 0.98625
 C198 C -0.05243 -0.06553 0.98831
 C199 C -0.07471 -0.02906 0.97925
 N200 N -0.07881 -0.01357 0.97036
 C201 C -0.06657 -0.01181 0.95698
 C202 C -0.03224 -0.02325 0.93239
 N203 N -0.01833 -0.03377 0.92711
 C204 C -0.01751 -0.04822 0.93817
 H205 H -0.01800 -0.08055 0.96666
 H206 H -0.06282 -0.06538 0.99830
 H207 H -0.08149 -0.03430 0.99083
 H208 H -0.06618 -0.00119 0.94717
 H209 H -0.03638 -0.01087 0.92602
 H210 H -0.00765 -0.05887 0.93744
 C211 C 1.03358 0.54903 0.95487
 C212 C 1.02832 0.53867 0.94006
 C213 C 1.03742 0.52303 0.93618
 C214 C 1.05186 0.51751 0.94713
 C215 C 1.05707 0.52773 0.96167
 C216 C 1.04777 0.54359 0.96564
 C217 C 1.02715 0.56479 0.96177
 N218 N 1.03700 0.56922 0.97668
 C219 C 1.04968 0.55613 0.97903
 C220 C 1.07154 0.51926 0.96964
 N221 N 1.07533 0.50398 0.96035
 C222 C 1.06315 0.50295 0.94654
 C223 C 1.02947 0.51583 0.92108
 N224 N 1.01574 0.52671 0.91572
 C225 C 1.01498 0.54073 0.92730
 H226 H 1.01573 0.57205 0.95636
 H227 H 1.05991 0.55569 0.98943
 H228 H 1.07841 0.52393 0.98158
 H229 H 1.06264 0.49273 0.93630
 H230 H 1.03329 0.50344 0.91463
 H231 H 1.00558 0.55178 0.92639
 C232 C 0.53497 0.06888 0.45859
 C233 C 0.52944 0.05847 0.44392
 C234 C 0.53925 0.04353 0.43914
 C235 C 0.55473 0.03877 0.44901
 C236 C 0.56018 0.04901 0.46345
 C237 C 0.55017 0.06413 0.46837
 C238 C 0.52789 0.08394 0.46642
 N239 N 0.53835 0.08837 0.48079
 C240 C 0.55201 0.07631 0.48210
 C241 C 0.57554 0.04129 0.47041
 N242 N 0.57971 0.02645 0.46061
 C243 C 0.56682 0.02492 0.44748
 C244 C 0.53060 0.03589 0.42465
 N245 N 0.51574 0.04581 0.42055
 C246 C 0.51499 0.05968 0.43230
 H247 H 0.51578 0.09093 0.46220
 H248 H 0.56253 0.07641 0.49227
 H249 H 0.58276 0.04615 0.48208
 H250 H 0.56626 0.01482 0.43714
 H251 H 0.53463 0.02376 0.41786
 H252 H 0.50474 0.06998 0.43238
 C253 C -0.03276 0.05750 0.53533
 C254 C -0.02759 0.04700 0.55008
 C255 C -0.03800 0.03250 0.55508
 C256 C -0.05374 0.02825 0.54535
 C257 C -0.05880 0.03861 0.53081
 C258 C -0.04824 0.05328 0.52575
 C259 C -0.02524 0.07232 0.52736
 N260 N -0.03577 0.07716 0.51315
 C261 C -0.04988 0.06555 0.51211
 C262 C -0.07449 0.03149 0.52391
 N263 N -0.07917 0.01702 0.53388
 C264 C -0.06649 0.01494 0.54703
 C265 C -0.02970 0.02482 0.56976
 N266 N -0.01450 0.03430 0.57378
 C267 C -0.01317 0.04790 0.56177
 H268 H -0.01285 0.07888 0.53146
 H269 H -0.06071 0.06608 0.50228
 H270 H -0.08180 0.03637 0.51228
 H271 H -0.06661 0.00465 0.55722
 H272 H -0.03428 0.01303 0.57680
 H273 H -0.00261 0.05792 0.56164
 C274 C 0.47487 0.55135 0.03584
 C275 C 0.48061 0.54236 0.05137
 C276 C 0.47152 0.52725 0.05704
 C277 C 0.45660 0.52089 0.04723
 C278 C 0.45098 0.52976 0.03192
 C279 C 0.46025 0.54505 0.02615
 C280 C 0.48104 0.56641 0.02725
 N281 N 0.47058 0.56951 0.01240
 C282 C 0.45781 0.55632 0.01178
 C283 C 0.43613 0.52079 0.02529
 N284 N 0.43259 0.50667 0.03620
 C285 C 0.44511 0.50664 0.04964
 C286 C 0.47995 0.52138 0.07244
 N287 N 0.49398 0.53254 0.07628
 C288 C 0.49445 0.54541 0.06342
 H289 H 0.49263 0.57415 0.03153
 H290 H 0.44709 0.55500 0.00195
 H291 H 0.42855 0.52423 0.01332
 H292 H 0.44563 0.49717 0.06060
 H293 H 0.47626 0.50968 0.08011
 H294 H 0.50400 0.55637 0.06295
 C295 C 0.53458 -0.05812 0.03435
 C296 C 0.52839 -0.04886 0.04937
 C297 C 0.53737 -0.03372 0.05532
 C298 C 0.55263 -0.02758 0.04629
 C299 C 0.55874 -0.03670 0.03147
 C300 C 0.54962 -0.05207 0.02542
 C301 C 0.52852 -0.07321 0.02561
 N302 N 0.53949 -0.07651 0.01157
 C303 C 0.55244 -0.06360 0.01137
 C304 C 0.57374 -0.02775 0.02551
 N305 N 0.57686 -0.01340 0.03633
 C306 C 0.56396 -0.01323 0.04908
 C307 C 0.52844 -0.02754 0.07009
 N308 N 0.51423 -0.03856 0.07327
 C309 C 0.51413 -0.05164 0.06061
 H310 H 0.51680 -0.08105 0.02910
 H311 H 0.56327 -0.06275 0.00185
 H312 H 0.58164 -0.03131 0.01397
 H313 H 0.56300 -0.00354 0.05979
 H314 H 0.53192 -0.01572 0.07778
 H315 H 0.50454 -0.06256 0.05975
 C316 C 1.03131 0.45230 0.53719
 C317 C 1.02569 0.46312 0.55138
 C318 C 1.03490 0.47875 0.55538
 C319 C 1.04980 0.48381 0.54519
 C320 C 1.05541 0.47313 0.53129
 C321 C 1.04605 0.45726 0.52719
 C322 C 1.02497 0.43636 0.53034
 N323 N 1.03547 0.43149 0.51639
 C324 C 1.04841 0.44424 0.51439
 C325 C 1.07032 0.48119 0.52407
 N326 N 1.07398 0.49667 0.53318
 C327 C 1.06129 0.49822 0.54615
 C328 C 1.02672 0.48637 0.56991
 N329 N 1.01274 0.47574 0.57487
 C330 C 1.01202 0.46150 0.56354
 H331 H 1.01338 0.42902 0.53505
 H332 H 1.05894 0.44399 0.50452
 H333 H 1.07761 0.47610 0.51273
 H334 H 1.06055 0.50871 0.55608
 H335 H 1.03062 0.49880 0.57633
 H336 H 1.00252 0.45052 0.56431
 C337 C 0.40428 0.00567 0.22359
 H338 H 0.40438 0.01805 0.23112
 C339 C 0.41651 0.00318 0.20981
 H340 H 0.42581 0.01386 0.20662
 C341 C 0.39195 -0.02326 0.21873
 H342 H 0.38265 -0.03369 0.22250
 C343 C 0.40395 -0.02631 0.20481
 H344 H 0.40371 -0.03910 0.19797
 N345 N 0.39223 -0.00739 0.22769
 C346 C 0.34952 0.02162 0.25487
 H347 H 0.34905 0.01431 0.26735
 C348 C 0.33795 0.03611 0.25194
 H349 H 0.32875 0.04002 0.26236
 C350 C 0.36231 0.02549 0.22626
 H351 H 0.37161 0.02114 0.21616
 C352 C 0.35101 0.04005 0.22278
 H353 H 0.35174 0.04675 0.20997
 Zn354 Zn 0.37697 -0.00286 0.24726
 N355 N 0.36158 0.01678 0.24222
 C356 C 0.39161 0.01828 0.27572
 N357 N 0.39229 0.00230 0.26701
 C358 C 0.40478 -0.01030 0.27148
 C359 C 0.41712 -0.00717 0.28538
 C360 C 0.40370 0.02197 0.28972
 C361 C 0.35055 -0.02868 0.23931
 C362 C 0.33940 -0.04343 0.24236
 C363 C 0.35213 -0.04580 0.27215
 C364 C 0.36312 -0.03108 0.26849
 N365 N 0.36231 -0.02299 0.25220
 H366 H 0.38193 0.02832 0.27166
 H367 H 0.40518 -0.02279 0.26416
 H368 H 0.42681 -0.01747 0.28886
 H369 H 0.40315 0.03487 0.29632
 H370 H 0.34997 -0.02183 0.22657
 H371 H 0.33047 -0.04801 0.23174
 H372 H 0.35285 -0.05188 0.28528
 H373 H 0.37213 -0.02604 0.27877
 C374 C 0.33870 0.04562 0.23575
 C375 C 0.41647 -0.01299 0.20022
 C376 C 0.34013 -0.05225 0.25896
 C377 C 0.41671 0.00917 0.29468
 C378 C 0.09346 -0.01439 0.72806
 H379 H 0.09384 -0.02672 0.73565
 C380 C 0.08147 -0.01261 0.71362
 H381 H 0.07280 -0.02376 0.71002
 C382 C 0.10433 0.01512 0.72360
 H383 H 0.11295 0.02606 0.72775
 C384 C 0.09258 0.01746 0.70905
 H385 H 0.09235 0.03021 0.70215
 N386 N 0.10471 -0.00069 0.73265
 C387 C 0.14895 -0.02628 0.76200
 H388 H 0.14870 -0.01866 0.77430
 C389 C 0.16173 -0.03979 0.75981
 H390 H 0.17107 -0.04267 0.77067
 C391 C 0.13684 -0.03179 0.73306
 H392 H 0.12734 -0.02842 0.72253
 C393 C 0.14947 -0.04534 0.73025
 H394 H 0.14951 -0.05224 0.71752
 Zn395 Zn 0.12005 -0.00395 0.75284
 N396 N 0.13668 -0.02272 0.74882
 C397 C 0.10717 -0.02476 0.78200
 N398 N 0.10513 -0.00934 0.77250
 C399 C 0.09184 0.00252 0.77634
 C400 C 0.08016 -0.00072 0.79047
 C401 C 0.09583 -0.02852 0.79629
 C402 C 0.14541 0.02249 0.74472
 C403 C 0.15602 0.03774 0.74740
 C404 C 0.14279 0.04122 0.77654
 C405 C 0.13235 0.02596 0.77325
 N406 N 0.13369 0.01706 0.75745
 H407 H 0.11753 -0.03424 0.77852
 H408 H 0.09031 0.01453 0.76836
 H409 H 0.06956 0.00882 0.79316
 H410 H 0.09792 -0.04070 0.80389
 H411 H 0.14640 0.01500 0.73239
 H412 H 0.16493 0.04204 0.73689
 H413 H 0.14169 0.04797 0.78929
 H414 H 0.12334 0.02116 0.78341
 C415 C 0.16211 -0.04957 0.74377
 C416 C 0.08095 0.00348 0.70388
 C417 C 0.15479 0.04736 0.76349
 C418 C 0.08211 -0.01640 0.80072
 C419 C 0.59995 0.49382 0.23413
 H420 H 0.59979 0.48187 0.24233
 C421 C 0.58787 0.49550 0.21976
 H422 H 0.57860 0.48464 0.21683
 C423 C 0.61236 0.52240 0.22801
 H424 H 0.62169 0.53300 0.23145
 C425 C 0.60052 0.52464 0.21352
 H426 H 0.60089 0.53701 0.20596
 N427 N 0.61201 0.50707 0.23785
 C428 C 0.65622 0.48093 0.26669
 H429 H 0.65695 0.48918 0.27858
 C430 C 0.66836 0.46683 0.26453
 H431 H 0.67824 0.46415 0.27496
 C432 C 0.64233 0.47442 0.23874
 H433 H 0.63240 0.47761 0.22855
 C434 C 0.65420 0.46020 0.23602
 H435 H 0.65324 0.45260 0.22371
 Zn436 Zn 0.62766 0.50388 0.25781
 N437 N 0.64339 0.48431 0.25400
 C438 C 0.61512 0.48485 0.28830
 N439 N 0.61304 0.49972 0.27797
 C440 C 0.59994 0.51193 0.28137
 C441 C 0.58850 0.50962 0.29587
 C442 C 0.60404 0.48205 0.30299
 C443 C 0.65427 0.52867 0.24858
 C444 C 0.66551 0.54357 0.25057
 C445 C 0.65188 0.54945 0.27913
 C446 C 0.64090 0.53443 0.27659
 N447 N 0.64214 0.52451 0.26140
 H448 H 0.62536 0.47510 0.28520
 H449 H 0.59836 0.52347 0.27274
 H450 H 0.57804 0.51941 0.29819
 H451 H 0.60617 0.47031 0.31125
 H452 H 0.65513 0.52042 0.23673
 H453 H 0.67485 0.54684 0.24005
 H454 H 0.65082 0.55708 0.29139
 H455 H 0.63151 0.53066 0.28685
 C456 C 0.66741 0.45621 0.24904
 C457 C 0.58808 0.51106 0.20920
 C458 C 0.66438 0.55422 0.26600
 C459 C 0.59052 0.49455 0.30698
 C460 C 0.89448 0.51163 0.71964
 H461 H 0.89500 0.52389 0.72735
 C462 C 0.90574 0.50945 0.70499
 H463 H 0.91474 0.52024 0.70135
 C464 C 0.88197 0.48274 0.71505
 H465 H 0.87298 0.47221 0.71923
 C466 C 0.89301 0.47999 0.70033
 H467 H 0.89233 0.46731 0.69331
 N468 N 0.88273 0.49847 0.72424
 C469 C 0.84079 0.52587 0.75401
 H470 H 0.84092 0.51789 0.76609
 C471 C 0.82853 0.53991 0.75207
 H472 H 0.81941 0.54284 0.76287
 C473 C 0.85264 0.53166 0.72531
 H474 H 0.86179 0.52817 0.71476
 C475 C 0.84059 0.54584 0.72281
 H476 H 0.84063 0.55314 0.71030
 Zn477 Zn 0.86818 0.50235 0.74447
 N478 N 0.85264 0.52213 0.74081
 C479 C 0.88316 0.52212 0.77358
 N480 N 0.88380 0.50651 0.76424
 C481 C 0.89599 0.49355 0.76847
 C482 C 0.90781 0.49577 0.78298
 C483 C 0.89475 0.52492 0.78818
 C484 C 0.84097 0.47783 0.73588
 C485 C 0.82914 0.46353 0.73845
 C486 C 0.84250 0.45890 0.76771
 C487 C 0.85414 0.47324 0.76454
 N488 N 0.85328 0.48226 0.74876
 H489 H 0.87376 0.53249 0.76971
 H490 H 0.89636 0.48136 0.76065
 H491 H 0.91709 0.48509 0.78639
 H492 H 0.89411 0.53749 0.79538
 H493 H 0.84037 0.48543 0.72358
 H494 H 0.81967 0.46003 0.72788
 H495 H 0.84320 0.45209 0.78048
 H496 H 0.86361 0.47731 0.77485
 C497 C 0.82832 0.55012 0.73630
 C498 C 0.90506 0.49347 0.69508
 C499 C 0.82979 0.45386 0.75456
 C500 C 0.90721 0.51159 0.79313
 C501 C 0.22885 0.39803 0.01283
 H502 H 0.23704 0.39844 0.02490
 C503 C 0.21427 0.40969 0.01080
 H504 H 0.21114 0.41883 0.02156
 C505 C 0.22309 0.38550 -0.01578
 H506 H 0.22678 0.37631 -0.02627
 C507 C 0.20846 0.39701 -0.01842
 H508 H 0.20109 0.39652 -0.03100
 N509 N 0.23286 0.38612 -0.00029
 C510 C 0.26328 0.34331 0.02594
 H511 H 0.27500 0.34285 0.01749
 C512 C 0.26150 0.33099 0.03987
 H513 H 0.27187 0.32100 0.04195
 C514 C 0.23519 0.35647 0.03289
 H515 H 0.22481 0.36620 0.02997
 C516 C 0.23290 0.34448 0.04701
 H517 H 0.22092 0.34547 0.05506
 Zn518 Zn 0.25337 0.37138 0.00308
 N519 N 0.25028 0.35578 0.02279
 C520 C 0.28375 0.38558 0.02202
 N521 N 0.27330 0.38678 0.00699
 C522 C 0.27629 0.39965 -0.00550
 C523 C 0.29049 0.41176 -0.00332
 C524 C 0.29809 0.39745 0.02476
 C525 C 0.24452 0.34403 -0.02105
 C526 C 0.24665 0.33263 -0.03567
 C527 C 0.27456 0.34779 -0.04233
 C528 C 0.27194 0.35883 -0.02752
 N529 N 0.25702 0.35689 -0.01733
 H530 H 0.28088 0.37556 0.03200
 H531 H 0.26762 0.40044 -0.01721
 H532 H 0.29281 0.42168 -0.01359
 H533 H 0.30613 0.39643 0.03690
 H534 H 0.23293 0.34259 -0.01254
 H535 H 0.23667 0.32232 -0.03822
 H536 H 0.28636 0.34980 -0.05044
 H537 H 0.28190 0.36888 -0.02419
 C538 C 0.24612 0.33147 0.05064
 C539 C 0.20386 0.40933 -0.00502
 C540 C 0.26183 0.33444 -0.04657
 C541 C 0.30162 0.41077 0.01198
 C542 C 0.72902 0.09878 -0.00212
 H543 H 0.73704 0.09880 -0.01410
 C544 C 0.71564 0.08586 0.00011
 H545 H 0.71328 0.07609 -0.01037
 C546 C 0.72231 0.11174 0.02594
 H547 H 0.72513 0.12167 0.03610
 C548 C 0.70877 0.09905 0.02872
 H549 H 0.70129 0.09937 0.04105
 N550 N 0.73193 0.11153 0.01059
 C551 C 0.75574 0.15635 -0.01806
 H552 H 0.76787 0.15842 -0.01015
 C553 C 0.75197 0.16747 -0.03264
 H554 H 0.76123 0.17821 -0.03576
 C555 C 0.72870 0.14012 -0.02316
 H556 H 0.71955 0.12958 -0.01933
 C557 C 0.72442 0.15089 -0.03788
 H558 H 0.71216 0.14823 -0.04542
 Zn559 Zn 0.75042 0.12842 0.00622
 N560 N 0.74426 0.14285 -0.01375
 C561 C 0.78011 0.11660 -0.01432
 N562 N 0.77166 0.11525 0.00166
 C563 C 0.77753 0.10362 0.01445
 C564 C 0.79265 0.09294 0.01152
 C565 C 0.79523 0.10611 -0.01784
 C566 C 0.73995 0.15494 0.03041
 C567 C 0.74177 0.16699 0.04460
 C568 C 0.77218 0.15635 0.04945
 C569 C 0.76978 0.14451 0.03514
 N570 N 0.75378 0.14389 0.02607
 H571 H 0.77495 0.12554 -0.02452
 H572 H 0.77039 0.10261 0.02693
 H573 H 0.79723 0.08396 0.02199
 H574 H 0.80152 0.10713 -0.03078
 H575 H 0.72746 0.15436 0.02279
 H576 H 0.73050 0.17548 0.04800
 H577 H 0.78508 0.15679 0.05636
 H578 H 0.78081 0.13602 0.03119
 C579 C 0.73617 0.16475 -0.04284
 C580 C 0.70524 0.08592 0.01566
 C581 C 0.75806 0.16779 0.05435
 C582 C 0.80168 0.09404 -0.00484
 C583 C 0.23026 0.60093 0.48856
 H584 H 0.23892 0.60038 0.47705
 C585 C 0.21566 0.58919 0.48983
 H586 H 0.21302 0.57984 0.47904
 C587 C 0.22324 0.61392 0.51652
 H588 H 0.22642 0.62334 0.52706
 C589 C 0.20858 0.60236 0.51839
 H590 H 0.20068 0.60303 0.53044
 N591 N 0.23363 0.61313 0.50169
 C592 C 0.26408 0.65650 0.47702
 H593 H 0.27533 0.65750 0.48632
 C594 C 0.26263 0.66849 0.46273
 H595 H 0.27279 0.67878 0.46122
 C596 C 0.23682 0.64227 0.46823
 H597 H 0.22664 0.63222 0.47052
 C598 C 0.23489 0.65391 0.45373
 H599 H 0.22339 0.65235 0.44480
 Zn600 Zn 0.25401 0.62823 0.49943
 N601 N 0.25136 0.64362 0.47941
 C602 C 0.28574 0.61511 0.48288
 N603 N 0.27436 0.61323 0.49687
 C604 C 0.27677 0.60002 0.50919
 C605 C 0.29123 0.58818 0.50787
 C606 C 0.30044 0.60360 0.48109
 C607 C 0.24396 0.65567 0.52268
 C608 C 0.24526 0.66708 0.53743
 C609 C 0.27283 0.65212 0.54624
 C610 C 0.27104 0.64104 0.53127
 N611 N 0.25666 0.64288 0.51995
 H612 H 0.28344 0.62548 0.47305
 H613 H 0.26733 0.59865 0.52001
 H614 H 0.29272 0.57761 0.51768
 H615 H 0.30951 0.60552 0.47003
 H616 H 0.23281 0.65702 0.51331
 H617 H 0.23511 0.67731 0.53921
 H618 H 0.28419 0.65019 0.55526
 H619 H 0.28115 0.63099 0.52874
 C620 C 0.24788 0.66727 0.45081
 C621 C 0.20457 0.58980 0.50491
 C622 C 0.25983 0.66536 0.54950
 C623 C 0.30335 0.58989 0.49368
 C624 C 0.72305 0.90616 0.49940
 H625 H 0.72998 0.90634 0.51222
 C626 C 0.70909 0.91824 0.49595
 H627 H 0.70520 0.92751 0.50634
 C628 C 0.71956 0.89349 0.47052
 H629 H 0.72384 0.88398 0.46056
 C630 C 0.70560 0.90540 0.46646
 H631 H 0.69931 0.90493 0.45332
 N632 N 0.72777 0.89388 0.48688
 C633 C 0.75161 0.85020 0.51778
 H634 H 0.76436 0.84879 0.51107
 C635 C 0.74744 0.83894 0.53204
 H636 H 0.75720 0.82903 0.53640
 C637 C 0.72352 0.86501 0.52027
 H638 H 0.71407 0.87492 0.51545
 C639 C 0.71880 0.85403 0.53460
 H640 H 0.70574 0.85569 0.54065
 Zn641 Zn 0.74656 0.87773 0.49286
 N642 N 0.73982 0.86310 0.51236
 C643 C 0.77530 0.89009 0.51524
 N644 N 0.76718 0.89156 0.49889
 C645 C 0.77316 0.90351 0.48658
 C646 C 0.78809 0.91433 0.49036
 C647 C 0.79030 0.90062 0.51957
 C648 C 0.73808 0.85068 0.46837
 C649 C 0.74087 0.83851 0.45451
 C650 C 0.77105 0.85021 0.45143
 C651 C 0.76769 0.86214 0.46538
 N652 N 0.75135 0.86227 0.47343
 H653 H 0.77007 0.88092 0.52506
 H654 H 0.76630 0.90458 0.47377
 H655 H 0.79281 0.92356 0.48028
 H656 H 0.79647 0.89938 0.53271
 H657 H 0.72529 0.85092 0.47516
 H658 H 0.73005 0.82957 0.45053
 H659 H 0.78420 0.85015 0.44533
 H660 H 0.77823 0.87112 0.46989
 C661 C 0.73088 0.84084 0.54072
 C662 C 0.70006 0.91791 0.47932
 C663 C 0.75754 0.83817 0.44584
 C664 C 0.79690 0.91293 0.50704
 C665 C 0.01376 0.23149 0.40908
 H666 H 0.02625 0.23899 0.40927
 C667 C 0.01111 0.21772 0.42141
 H668 H 0.02175 0.21453 0.43092
 C669 C -0.01514 0.22644 0.39620
 H670 H -0.02548 0.23006 0.38657
 C671 C -0.01837 0.21257 0.40828
 H672 H -0.03120 0.20567 0.40778
 N673 N 0.00085 0.23536 0.39660
 C674 C 0.03018 0.25986 0.35274
 H675 H 0.02278 0.27226 0.35124
 C676 C 0.04440 0.25604 0.34132
 H677 H 0.04804 0.26572 0.33121
 C678 C 0.03436 0.23222 0.36782
 H679 H 0.03017 0.22278 0.37789
 C680 C 0.04867 0.22785 0.35669
 H681 H 0.05536 0.21506 0.35837
 Zn682 Zn 0.00566 0.25405 0.38020
 N683 N 0.02556 0.24809 0.36579
 C684 C 0.02649 0.28382 0.39239
 N685 N 0.01051 0.27500 0.39371
 C686 C -0.00231 0.28049 0.40532
 C687 C 0.00055 0.29563 0.41595
 C688 C 0.02990 0.29905 0.40276
 C689 C -0.01904 0.24391 0.35354
 C690 C -0.03341 0.24577 0.34146
 C691 C -0.03745 0.27613 0.35186
 C692 C -0.02304 0.27365 0.36381
 N693 N -0.01429 0.25766 0.36457
 H694 H 0.03671 0.27898 0.38346
 H695 H -0.01480 0.27309 0.40626
 H696 H -0.00995 0.29995 0.42489
 H697 H 0.04277 0.30579 0.40165
 H698 H -0.01166 0.23142 0.35424
 H699 H -0.03719 0.23450 0.33310
 H700 H -0.04408 0.28904 0.35130
 H701 H -0.01875 0.28460 0.37230
 C702 C 0.05387 0.23984 0.34322
 C703 C -0.00509 0.20795 0.42101
 C704 C -0.04285 0.26206 0.34050
 C705 C 0.01683 0.30515 0.41472
 C706 C -0.00378 0.71583 0.08975
 H707 H -0.01658 0.72269 0.08863
 C708 C -0.00032 0.70099 0.07899
 H709 H -0.01071 0.69632 0.06981
 C710 C 0.02520 0.71362 0.10325
 H711 H 0.03524 0.71879 0.11248
 C712 C 0.02926 0.69876 0.09268
 H713 H 0.04245 0.69267 0.09392
 N714 N 0.00885 0.72174 0.10169
 C715 C -0.02231 0.75157 0.14076
 H716 H -0.01540 0.76434 0.14036
 C717 C -0.03684 0.74917 0.15218
 H718 H -0.04121 0.76030 0.16032
 C719 C -0.02500 0.72168 0.13040
 H720 H -0.02012 0.71088 0.12216
 C721 C -0.03953 0.71865 0.14170
 H722 H -0.04567 0.70549 0.14200
 Zn723 Zn 0.00324 0.74235 0.11522
 N724 N -0.01685 0.73800 0.12998
 C725 C -0.01816 0.76930 0.09843
 N726 N -0.00181 0.76107 0.09879
 C727 C 0.01126 0.76565 0.08706
 C728 C 0.00844 0.77956 0.07486
 C729 C -0.02159 0.78321 0.08639
 C730 C 0.02717 0.73691 0.14379
 C731 C 0.04114 0.74083 0.15584
 C732 C 0.04576 0.76891 0.14048
 C733 C 0.03162 0.76449 0.12879
 N734 N 0.02279 0.74862 0.13051
 H735 H -0.02861 0.76507 0.10741
 H736 H 0.02402 0.75865 0.08741
 H737 H 0.01926 0.78337 0.06605
 H738 H -0.03471 0.78954 0.08628
 H739 H 0.01969 0.72453 0.14506
 H740 H 0.04422 0.73142 0.16646
 H741 H 0.05284 0.78145 0.13864
 H742 H 0.02770 0.77383 0.11844
 C743 C -0.04569 0.73253 0.15276
 C744 C 0.01640 0.69224 0.08034
 C745 C 0.05071 0.75701 0.15425
 C746 C -0.00812 0.78867 0.07452
 C747 C 0.48977 0.21457 0.61641
 H748 H 0.47869 0.21338 0.62554
 C749 C 0.49354 0.20041 0.60484
 H750 H 0.48534 0.18840 0.60523
 C751 C 0.51359 0.23173 0.60433
 H752 H 0.52135 0.24401 0.60427
 C753 C 0.51767 0.21801 0.59237
 H754 H 0.52870 0.21973 0.58318
 N755 N 0.49994 0.22974 0.61613
 C756 C 0.46001 0.25620 0.64404
 H757 H 0.46020 0.26761 0.63516
 C758 C 0.44480 0.25297 0.65438
 H759 H 0.43326 0.26177 0.65312
 C760 C 0.47482 0.23103 0.65674
 H761 H 0.48670 0.22268 0.65773
 C762 C 0.45985 0.22720 0.66719
 H763 H 0.46031 0.21590 0.67627
 Zn764 Zn 0.49548 0.24925 0.63162
 N765 N 0.47453 0.24513 0.64522
 C766 C 0.47973 0.26963 0.60417
 N767 N 0.49281 0.26989 0.61708
 C768 C 0.50436 0.28399 0.61872
 C769 C 0.50283 0.29868 0.60724
 C770 C 0.47769 0.28406 0.59244
 C771 C 0.52914 0.24055 0.64780
 C772 C 0.54325 0.24244 0.66020
 C773 C 0.52785 0.26790 0.67281
 C774 C 0.51396 0.26542 0.66028
 N775 N 0.51495 0.25208 0.64796
 H776 H 0.47100 0.25807 0.60290
 H777 H 0.51496 0.28379 0.62874
 H778 H 0.51206 0.30983 0.60884
 H779 H 0.46734 0.28349 0.58211
 H780 H 0.52951 0.22979 0.63816
 H781 H 0.55454 0.23328 0.65976
 H782 H 0.52684 0.27860 0.68254
 H783 H 0.50234 0.27418 0.66032
 C784 C 0.44456 0.23822 0.66604
 C785 C 0.50765 0.20206 0.59264
 C786 C 0.54274 0.25631 0.67286
 C787 C 0.48938 0.29883 0.59385
 C788 C 0.51311 0.72197 0.90377
 H789 H 0.52528 0.72997 0.90387
 C790 C 0.51136 0.70777 0.91576
 H791 H 0.52244 0.70474 0.92482
 C792 C 0.48400 0.71627 0.89167
 H793 H 0.47324 0.71985 0.88249
 C794 C 0.48163 0.70200 0.90351
 H795 H 0.46898 0.69476 0.90330
 N796 N 0.49961 0.72585 0.89194
 C797 C 0.52620 0.75509 0.84914
 H798 H 0.51810 0.76713 0.84869
 C799 C 0.54040 0.75295 0.83725
 H800 H 0.54330 0.76354 0.82782
 C801 C 0.53223 0.72671 0.86209
 H802 H 0.52881 0.71635 0.87152
 C803 C 0.54656 0.72403 0.85048
 H804 H 0.55403 0.71158 0.85115
 Zn805 Zn 0.50287 0.74591 0.87685
 N806 N 0.52254 0.74216 0.86138
 C807 C 0.52260 0.77571 0.89080
 N808 N 0.50722 0.76586 0.89194
 C809 C 0.49475 0.76936 0.90463
 C810 C 0.49734 0.78346 0.91665
 C811 C 0.52574 0.78995 0.90258
 C812 C 0.47804 0.73711 0.84983
 C813 C 0.46316 0.73929 0.83843
 C814 C 0.45694 0.76752 0.85289
 C815 C 0.47202 0.76484 0.86394
 N816 N 0.48211 0.74973 0.86236
 H817 H 0.53259 0.77242 0.88097
 H818 H 0.48277 0.76113 0.90540
 H819 H 0.48710 0.78618 0.92647
 H820 H 0.53817 0.79748 0.90163
 H821 H 0.48648 0.72536 0.84866
 H822 H 0.46035 0.72918 0.82839
 H823 H 0.44891 0.77947 0.85462
 H824 H 0.47564 0.77490 0.87372
 C825 C 0.55085 0.73727 0.83788
 C826 C 0.49543 0.69758 0.91579
 C827 C 0.45232 0.75464 0.83989
 C828 C 0.51302 0.79396 0.91574
 C829 C 0.13981 0.22237 0.23917
 C830 C 0.12558 0.22615 0.25063
 C831 C 0.12677 0.22161 0.26874
 C832 C 0.14237 0.21307 0.27532
 C833 C 0.15660 0.20924 0.26386
 C834 C 0.15551 0.21392 0.24565
 N835 N 0.11202 0.22592 0.28013
 N836 N 0.11228 0.22244 0.29679
 C837 C 0.09751 0.22686 0.30812
 C838 C 0.09872 0.22275 0.32634
 C839 C 0.08458 0.22695 0.33777
 C840 C 0.06893 0.23539 0.33111
 C841 C 0.06775 0.23949 0.31278
 C842 C 0.08190 0.23527 0.30138
 H843 H 0.13843 0.22591 0.22519
 H844 H 0.11360 0.23268 0.24540
 H845 H 0.14362 0.20945 0.28930
 H846 H 0.16858 0.20292 0.26931
 H847 H 0.11070 0.21632 0.33170
 H848 H 0.08599 0.22382 0.35185
 H849 H 0.05578 0.24575 0.30720
 H850 H 0.08061 0.23855 0.28732
 C851 C 0.63664 0.72889 0.73232
 C852 C 0.62241 0.73187 0.74401
 C853 C 0.62410 0.72729 0.76209
 C854 C 0.64028 0.71969 0.76842
 C855 C 0.65452 0.71669 0.75674
 C856 C 0.65287 0.72123 0.73854
 N857 N 0.60920 0.73042 0.77369
 N858 N 0.60982 0.72636 0.79021
 C859 C 0.59495 0.72939 0.80186
 C860 C 0.59658 0.72430 0.81981
 C861 C 0.58229 0.72689 0.83152
 C862 C 0.56608 0.73468 0.82545
 C863 C 0.56451 0.73987 0.80742
 C864 C 0.57881 0.73723 0.79571
 H865 H 0.63483 0.73232 0.71836
 H866 H 0.60999 0.73770 0.73897
 H867 H 0.64194 0.71608 0.78236
 H868 H 0.66690 0.71102 0.76203
 H869 H 0.60896 0.71829 0.82472
 H870 H 0.58400 0.72297 0.84538
 H871 H 0.55213 0.74570 0.80229
 H872 H 0.57722 0.74125 0.78187
 C873 C 0.34933 0.80043 0.75984
 C874 C 0.36389 0.79823 0.77170
 C875 C 0.37044 0.78110 0.77571
 C876 C 0.36226 0.76609 0.76765
 C877 C 0.34782 0.76827 0.75568
 C878 C 0.34119 0.78546 0.75163
 N879 N 0.38547 0.77930 0.78780
 N880 N 0.39113 0.76405 0.79303
 C881 C 0.40633 0.76211 0.80487
 C882 C 0.41074 0.74504 0.81126
 C883 C 0.42558 0.74260 0.82271
 C884 C 0.43640 0.75726 0.82787
 C885 C 0.43192 0.77442 0.82138
 C886 C 0.41700 0.77684 0.81003
 H887 H 0.34464 0.81383 0.75683
 H888 H 0.37011 0.80991 0.77777
 H889 H 0.36708 0.75269 0.77053
 H890 H 0.34168 0.75649 0.74975
 H891 H 0.40260 0.73359 0.80740
 H892 H 0.42845 0.72926 0.82766
 H893 H 0.44011 0.78595 0.82483
 H894 H 0.41392 0.79016 0.80516
 C895 C -0.15889 0.29551 0.27344
 C896 C -0.14436 0.29345 0.28533
 C897 C -0.13031 0.28173 0.28144
 C898 C -0.13096 0.27190 0.26546
 C899 C -0.14552 0.27380 0.25357
 C900 C -0.15983 0.28570 0.25726
 N901 N -0.11564 0.28000 0.29396
 N902 N -0.10188 0.27039 0.29078
 C903 C -0.08729 0.26858 0.30339
 C904 C -0.07208 0.25876 0.29853
 C905 C -0.05762 0.25669 0.31051
 C906 C -0.05817 0.26437 0.32768
 C907 C -0.07352 0.27422 0.33252
 C908 C -0.08793 0.27634 0.32049
 H909 H -0.16947 0.30456 0.27734
 H910 H -0.14405 0.30105 0.29767
 H911 H -0.12020 0.26273 0.26214
 H912 H -0.14515 0.26612 0.24135
 H913 H -0.07141 0.25275 0.28538
 H914 H -0.04592 0.24926 0.30624
 H915 H -0.07451 0.28008 0.34572
 H916 H -0.09959 0.28393 0.32460
 C917 C -0.13849 0.73354 0.25253
 C918 C -0.12388 0.73602 0.24118
 C919 C -0.12250 0.72612 0.22542
 C920 C -0.13591 0.71353 0.22111
 C921 C -0.15049 0.71090 0.23247
 C922 C -0.15215 0.72089 0.24845
 N923 N -0.10737 0.72910 0.21409
 N924 N -0.10587 0.72139 0.19900
 C925 C -0.09068 0.72431 0.18773
 C926 C -0.09057 0.71646 0.17075
 C927 C -0.07600 0.71913 0.15937
 C928 C -0.06118 0.72964 0.16486
 C929 C -0.06130 0.73741 0.18201
 C930 C -0.07592 0.73481 0.19332
 H931 H -0.13865 0.74139 0.26465
 H932 H -0.11355 0.74572 0.24469
 H933 H -0.13515 0.70572 0.20895
 H934 H -0.16055 0.70126 0.22831
 H935 H -0.10188 0.70837 0.16627
 H936 H -0.07648 0.71316 0.14618
 H937 H -0.04999 0.74533 0.18678
 H938 H -0.07564 0.74093 0.20645
 C939 C 0.33923 0.23958 0.75237
 C940 C 0.35391 0.24319 0.74144
 C941 C 0.36032 0.23020 0.72972
 C942 C 0.35174 0.21346 0.72887
 C943 C 0.33692 0.20982 0.73966
 C944 C 0.33038 0.22278 0.75175
 N945 N 0.37555 0.23435 0.71889
 N946 N 0.38309 0.22269 0.70909
 C947 C 0.39830 0.22694 0.69826
 C948 C 0.40708 0.21310 0.68926
 C949 C 0.42212 0.21674 0.67880
 C950 C 0.42852 0.23439 0.67703
 C951 C 0.41956 0.24830 0.68592
 C952 C 0.40461 0.24461 0.69651
 H953 H 0.33472 0.25027 0.76095
 H954 H 0.36037 0.25620 0.74213
 H955 H 0.35647 0.20316 0.71989
 H956 H 0.33103 0.19661 0.73869
 H957 H 0.40231 0.19944 0.69046
 H958 H 0.42865 0.20580 0.67194
 H959 H 0.42430 0.26199 0.68492
 H960 H 0.39803 0.25555 0.70332
 C961 C 0.64509 0.26961 0.75981
 C962 C 0.63015 0.26750 0.74842
 C963 C 0.62462 0.28154 0.73716
 C964 C 0.63410 0.29770 0.73755
 C965 C 0.64916 0.29982 0.74876
 C966 C 0.65507 0.28577 0.76009
 N967 N 0.60961 0.27971 0.72507
 N968 N 0.60149 0.26486 0.72267
 C969 C 0.58656 0.26310 0.71047
 C970 C 0.57951 0.24603 0.70701
 C971 C 0.56525 0.24380 0.69481
 C972 C 0.55768 0.25868 0.68599
 C973 C 0.56462 0.27585 0.68967
 C974 C 0.57899 0.27804 0.70175
 H975 H 0.64899 0.25824 0.76790
 H976 H 0.62298 0.25486 0.74836
 H977 H 0.62988 0.30868 0.72901
 H978 H 0.65581 0.31269 0.74863
 H979 H 0.58520 0.23442 0.71367
 H980 H 0.56004 0.23045 0.69238
 H981 H 0.55914 0.28753 0.68295
 H982 H 0.58419 0.29138 0.70422
 C983 C 0.15573 0.75806 0.24391
 C984 C 0.14173 0.75397 0.23191
 C985 C 0.13241 0.76765 0.22298
 C986 C 0.13735 0.78559 0.22608
 C987 C 0.15146 0.78969 0.23797
 C988 C 0.16077 0.77596 0.24704
 N989 N 0.11810 0.76297 0.21082
 N990 N 0.10810 0.77472 0.20339
 C991 C 0.09390 0.76999 0.19112
 C992 C 0.08231 0.78339 0.18479
 C993 C 0.06826 0.77921 0.17287
 C994 C 0.06564 0.76149 0.16695
 C995 C 0.07741 0.74806 0.17328
 C996 C 0.09137 0.75225 0.18529
 H997 H 0.16281 0.74720 0.25053
 H998 H 0.13810 0.74010 0.22958
 H999 H 0.13035 0.79641 0.21932
 H1000 H 0.15493 0.80359 0.24026
 H1001 H 0.08410 0.79710 0.18922
 H1002 H 0.05930 0.78983 0.16851
 H1003 H 0.07598 0.73434 0.16877
 H1004 H 0.10024 0.74166 0.18990
 C1005 C 0.23663 0.13715 0.22650
 C1006 C 0.24780 0.12237 0.22957
 C1007 C 0.26574 0.12262 0.22408
 C1008 C 0.27246 0.13790 0.21542
 C1009 C 0.26130 0.15270 0.21233
 C1010 C 0.24324 0.15250 0.21784
 N1011 N 0.27680 0.10723 0.22745
 N1012 N 0.29322 0.10655 0.22279
 C1013 C 0.30428 0.09115 0.22616
 C1014 C 0.32222 0.09140 0.22068
 C1015 C 0.33340 0.07663 0.22376
 C1016 C 0.32678 0.06129 0.23243
 C1017 C 0.30872 0.06108 0.23794
 C1018 C 0.29756 0.07587 0.23483
 H1019 H 0.22274 0.13644 0.23068
 H1020 H 0.24245 0.11065 0.23620
 H1021 H 0.28632 0.13844 0.21109
 H1022 H 0.26687 0.16437 0.20584
 H1023 H 0.32757 0.10312 0.21403
 H1024 H 0.34730 0.07731 0.21958
 H1025 H 0.30316 0.04940 0.24444
 H1026 H 0.28370 0.07534 0.23916
 C1027 C 0.76134 0.66547 0.70474
 C1028 C 0.77367 0.65164 0.70779
 C1029 C 0.76841 0.63605 0.71668
 C1030 C 0.75062 0.63447 0.72271
 C1031 C 0.73826 0.64832 0.71972
 C1032 C 0.74346 0.66394 0.71060
 N1033 N 0.78134 0.62202 0.71922
 N1034 N 0.77742 0.60728 0.72681
 C1035 C 0.79041 0.59326 0.72917
 C1036 C 0.78513 0.57731 0.73741
 C1037 C 0.79742 0.56330 0.73976
 C1038 C 0.81527 0.56503 0.73388
 C1039 C 0.82054 0.58110 0.72563
 C1040 C 0.80823 0.59510 0.72329
 H1041 H 0.76584 0.67742 0.69794
 H1042 H 0.78736 0.65304 0.70314
 H1043 H 0.74623 0.62251 0.72961
 H1044 H 0.72456 0.64666 0.72422
 H1045 H 0.77141 0.57570 0.74193
 H1046 H 0.79287 0.55100 0.74593
 H1047 H 0.83424 0.58294 0.72117
 H1048 H 0.81266 0.60733 0.71691
 C1049 C 0.76494 0.33979 0.79345
 C1050 C 0.77689 0.35387 0.79021
 C1051 C 0.77187 0.36808 0.77910
 C1052 C 0.75467 0.36807 0.77110
 C1053 C 0.74269 0.35399 0.77419
 C1054 C 0.74754 0.33951 0.78548
 N1055 N 0.78446 0.38230 0.77616
 N1056 N 0.78038 0.39610 0.76697
 C1057 C 0.79299 0.41029 0.76397
 C1058 C 0.78721 0.42559 0.75476
 C1059 C 0.79912 0.43974 0.75169
 C1060 C 0.81713 0.43877 0.75773
 C1061 C 0.82292 0.42332 0.76691
 C1062 C 0.81096 0.40921 0.77003
 H1063 H 0.76971 0.32906 0.80192
 H1064 H 0.79017 0.35369 0.79640
 H1065 H 0.75046 0.37897 0.76246
 H1066 H 0.72954 0.35486 0.76792
 H1067 H 0.77337 0.42659 0.75006
 H1068 H 0.79414 0.45155 0.74483
 H1069 H 0.83676 0.42203 0.77150
 H1070 H 0.81578 0.39747 0.77711
 C1071 C 0.24139 -0.14755 0.26400
 C1072 C 0.25244 -0.13275 0.26080
 C1073 C 0.26876 -0.13068 0.27005
 C1074 C 0.27393 -0.14357 0.28277
 C1075 C 0.26286 -0.15833 0.28614
 C1076 C 0.24635 -0.16071 0.27676
 N1077 N 0.27976 -0.11539 0.26629
 N1078 N 0.29541 -0.11335 0.27316
 C1079 C 0.30630 -0.09797 0.26943
 C1080 C 0.32393 -0.09729 0.27623
 C1081 C 0.33495 -0.08251 0.27279
 C1082 C 0.32844 -0.06802 0.26254
 C1083 C 0.31066 -0.06873 0.25578
 C1084 C 0.29971 -0.08358 0.25915
 H1085 H 0.22881 -0.14824 0.25663
 H1086 H 0.24825 -0.12283 0.25103
 H1087 H 0.28654 -0.14225 0.29010
 H1088 H 0.26765 -0.16799 0.29584
 H1089 H 0.32919 -0.10832 0.28412
 H1090 H 0.34864 -0.08255 0.27797
 H1091 H 0.30511 -0.05770 0.24810
 H1092 H 0.28607 -0.08373 0.25383
 C1093 C 0.23341 -0.16101 0.70881
 C1094 C 0.22092 -0.14723 0.71113
 C1095 C 0.22459 -0.13312 0.72287
 C1096 C 0.24096 -0.13295 0.73246
 C1097 C 0.25346 -0.14678 0.73031
 C1098 C 0.24999 -0.16112 0.71838
 N1099 N 0.21145 -0.11924 0.72486
 N1100 N 0.21445 -0.10531 0.73426
 C1101 C 0.20119 -0.09155 0.73636
 C1102 C 0.20590 -0.07593 0.74563
 C1103 C 0.19329 -0.06225 0.74796
 C1104 C 0.17561 -0.06403 0.74113
 C1105 C 0.17092 -0.07979 0.73184
 C1106 C 0.18359 -0.09340 0.72943
 H1107 H 0.22966 -0.17169 0.69977
 H1108 H 0.20828 -0.14756 0.70372
 H1109 H 0.24412 -0.12214 0.74163
 H1110 H 0.26595 -0.14581 0.73781
 H1111 H 0.21944 -0.07431 0.75099
 H1112 H 0.19746 -0.05020 0.75494
 H1113 H 0.15737 -0.08174 0.72665
 H1114 H 0.17959 -0.10541 0.72229
 C1115 C 0.73158 0.33888 0.21951
 C1116 C 0.71954 0.35306 0.22187
 C1117 C 0.72531 0.36905 0.22987
 C1118 C 0.74337 0.37073 0.23553
 C1119 C 0.75541 0.35656 0.23322
 C1120 C 0.74966 0.34046 0.22519
 N1121 N 0.71261 0.38330 0.23212
 N1122 N 0.71706 0.39823 0.23914
 C1123 C 0.70441 0.41250 0.24146
 C1124 C 0.71037 0.42860 0.24906
 C1125 C 0.69840 0.44281 0.25154
 C1126 C 0.68016 0.44112 0.24643
 C1127 C 0.67421 0.42490 0.23878
 C1128 C 0.68621 0.41071 0.23632
 H1129 H 0.72666 0.32660 0.21350
 H1130 H 0.70564 0.35158 0.21750
 H1131 H 0.74818 0.38298 0.24171
 H1132 H 0.76929 0.35831 0.23750
 H1133 H 0.72438 0.43016 0.25303
 H1134 H 0.70347 0.45519 0.25722
 H1135 H 0.66021 0.42309 0.23493
 H1136 H 0.68125 0.39836 0.23046
 C1137 C 0.76649 0.64611 0.27082
 C1138 C 0.75527 0.63121 0.26854
 C1139 C 0.73725 0.63187 0.27374
 C1140 C 0.73050 0.64770 0.28131
 C1141 C 0.74171 0.66262 0.28362
 C1142 C 0.75985 0.66200 0.27839
 N1143 N 0.72616 0.61633 0.27121
 N1144 N 0.70965 0.61598 0.27562
 C1145 C 0.69862 0.60040 0.27308
 C1146 C 0.68056 0.60099 0.27820
 C1147 C 0.66943 0.58602 0.27592
 C1148 C 0.67620 0.57014 0.26843
 C1149 C 0.69436 0.56960 0.26329
 C1150 C 0.70548 0.58458 0.26559
 H1151 H 0.78043 0.64508 0.26689
 H1152 H 0.76064 0.61907 0.26274
 H1153 H 0.71659 0.64856 0.28540
 H1154 H 0.73612 0.67470 0.28927
 H1155 H 0.67510 0.61312 0.28394
 H1156 H 0.65545 0.58695 0.27980
 H1157 H 0.70005 0.55750 0.25771
 H1158 H 0.71942 0.58376 0.26157
 C1159 C 0.25059 0.14587 0.76668
 C1160 C 0.24002 0.13059 0.76383
 C1161 C 0.22361 0.12852 0.77252
 C1162 C 0.21784 0.14193 0.78427
 C1163 C 0.22842 0.15717 0.78729
 C1164 C 0.24505 0.15952 0.77853
 N1165 N 0.21315 0.11268 0.76924
 N1166 N 0.19752 0.11051 0.77573
 C1167 C 0.18714 0.09460 0.77254
 C1168 C 0.16948 0.09375 0.77881
 C1169 C 0.15895 0.07846 0.77586
 C1170 C 0.16599 0.06364 0.76666
 C1171 C 0.18381 0.06451 0.76049
 C1172 C 0.19427 0.07986 0.76335
 H1173 H 0.26327 0.14655 0.75981
 H1174 H 0.24466 0.12029 0.75480
 H1175 H 0.20516 0.14064 0.79114
 H1176 H 0.22316 0.16718 0.79624
 H1177 H 0.16382 0.10505 0.78588
 H1178 H 0.14522 0.07836 0.78057
 H1179 H 0.18976 0.05324 0.75363
 H1180 H 0.20795 0.08014 0.75848
 C1181 C 0.19949 0.24836 0.14794
 C1182 C 0.20220 0.25987 0.13349
 C1183 C 0.21964 0.26383 0.12782
 C1184 C 0.23446 0.25589 0.13661
 C1185 C 0.23176 0.24422 0.15098
 C1186 C 0.21424 0.24045 0.15688
 N1187 N 0.22186 0.27602 0.11322
 N1188 N 0.23726 0.28152 0.10829
 C1189 C 0.23923 0.29377 0.09369
 C1190 C 0.25632 0.30064 0.08995
 C1191 C 0.25861 0.31287 0.07600
 C1192 C 0.24378 0.31837 0.06543
 C1193 C 0.22665 0.31127 0.06913
 C1194 C 0.22438 0.29914 0.08315
 H1195 H 0.18584 0.24552 0.15202
 H1196 H 0.19067 0.26586 0.12677
 H1197 H 0.24808 0.25873 0.13244
 H1198 H 0.24336 0.23844 0.15772
 H1199 H 0.26786 0.29664 0.09801
 H1200 H 0.27193 0.31823 0.07367
 H1201 H 0.21501 0.31494 0.06106
 H1202 H 0.21103 0.29392 0.08569
 C1203 C 0.71678 0.74023 0.63176
 C1204 C 0.71960 0.75107 0.61683
 C1205 C 0.71431 0.76904 0.61691
 C1206 C 0.70587 0.77607 0.63209
 C1207 C 0.70299 0.76522 0.64704
 C1208 C 0.70855 0.74721 0.64709
 N1209 N 0.71797 0.77986 0.60157
 N1210 N 0.71393 0.79641 0.60081
 C1211 C 0.71794 0.80716 0.58550
 C1212 C 0.71336 0.82533 0.58561
 C1213 C 0.71745 0.83627 0.57104
 C1214 C 0.72624 0.82917 0.55607
 C1215 C 0.73070 0.81086 0.55595
 C1216 C 0.72660 0.79995 0.57053
 H1217 H 0.72095 0.72636 0.63126
 H1218 H 0.72606 0.74548 0.60518
 H1219 H 0.70167 0.78995 0.63248
 H1220 H 0.69679 0.77104 0.65870
 H1221 H 0.70674 0.83106 0.59709
 H1222 H 0.71403 0.85036 0.57162
 H1223 H 0.73724 0.80494 0.54453
 H1224 H 0.73024 0.78591 0.57010
 C1225 C 0.79357 0.77182 0.33223
 C1226 C 0.79040 0.78404 0.34599
 C1227 C 0.78148 0.77865 0.36145
 C1228 C 0.77574 0.76078 0.36304
 C1229 C 0.77890 0.74853 0.34930
 C1230 C 0.78786 0.75389 0.33372
 N1231 N 0.77847 0.79155 0.37529
 N1232 N 0.77020 0.78761 0.38956
 C1233 C 0.76721 0.80049 0.40342
 C1234 C 0.75774 0.79525 0.41860
 C1235 C 0.75457 0.80746 0.43237
 C1236 C 0.76088 0.82520 0.43119
 C1237 C 0.77044 0.83042 0.41592
 C1238 C 0.77356 0.81819 0.40214
 H1239 H 0.80026 0.77648 0.32034
 H1240 H 0.79484 0.79779 0.34458
 H1241 H 0.76887 0.75627 0.37491
 H1242 H 0.77456 0.73480 0.35099
 H1243 H 0.75283 0.78163 0.41976
 H1244 H 0.74739 0.80296 0.44405
 H1245 H 0.77529 0.84403 0.41452
 H1246 H 0.78090 0.82258 0.39051
 C1247 C 0.25189 0.25146 -0.15532
 C1248 C 0.24895 0.26243 -0.14048
 C1249 C 0.26346 0.27059 -0.13153
 C1250 C 0.28105 0.26774 -0.13767
 C1251 C 0.28400 0.25691 -0.15258
 C1252 C 0.26946 0.24864 -0.16156
 N1253 N 0.26004 0.28175 -0.11636
 N1254 N 0.27280 0.28833 -0.10690
 C1255 C 0.26964 0.29969 -0.09183
 C1256 C 0.28434 0.30514 -0.08127
 C1257 C 0.28181 0.31632 -0.06654
 C1258 C 0.26447 0.32239 -0.06216
 C1259 C 0.24971 0.31688 -0.07284
 C1260 C 0.25226 0.30560 -0.08752
 H1261 H 0.24043 0.24540 -0.16208
 H1262 H 0.23533 0.26456 -0.13591
 H1263 H 0.29251 0.27390 -0.13099
 H1264 H 0.29768 0.25480 -0.15693
 H1265 H 0.29779 0.30063 -0.08444
 H1266 H 0.29344 0.32003 -0.05845
 H1267 H 0.23622 0.32152 -0.07002
 H1268 H 0.24069 0.30164 -0.09557
 C1269 C 0.73779 0.24605 -0.15254
 C1270 C 0.74145 0.23450 -0.13825
 C1271 C 0.72737 0.22703 -0.12847
 C1272 C 0.70946 0.23101 -0.13332
 C1273 C 0.70577 0.24248 -0.14770
 C1274 C 0.71991 0.25024 -0.15737
 N1275 N 0.73167 0.21568 -0.11358
 N1276 N 0.71963 0.20941 -0.10333
 C1277 C 0.72405 0.19816 -0.08840
 C1278 C 0.71029 0.19256 -0.07708
 C1279 C 0.71418 0.18174 -0.06227
 C1280 C 0.73199 0.17627 -0.05856
 C1281 C 0.74578 0.18187 -0.07003
 C1282 C 0.74187 0.19273 -0.08479
 H1283 H 0.74894 0.25163 -0.15988
 H1284 H 0.75531 0.23147 -0.13468
 H1285 H 0.69833 0.22538 -0.12596
 H1286 H 0.69188 0.24560 -0.15100
 H1287 H 0.69652 0.19670 -0.07968
 H1288 H 0.70329 0.17788 -0.05358
 H1289 H 0.75957 0.17767 -0.06772
 H1290 H 0.75275 0.19682 -0.09340
 C1291 C 0.20372 0.74500 0.34720
 C1292 C 0.20615 0.73424 0.36231
 C1293 C 0.22344 0.73100 0.36921
 C1294 C 0.23839 0.73888 0.36094
 C1295 C 0.23596 0.74980 0.34589
 C1296 C 0.21860 0.75287 0.33879
 N1297 N 0.22536 0.71957 0.38449
 N1298 N 0.24064 0.71481 0.39076
 C1299 C 0.24222 0.70327 0.40602
 C1300 C 0.25927 0.69712 0.41133
 C1301 C 0.26117 0.68549 0.42590
 C1302 C 0.24598 0.67988 0.43550
 C1303 C 0.22889 0.68631 0.43026
 C1304 C 0.22701 0.69784 0.41564
 H1305 H 0.19017 0.74733 0.34221
 H1306 H 0.19452 0.72829 0.36861
 H1307 H 0.25191 0.73658 0.36606
 H1308 H 0.24767 0.75558 0.33959
 H1309 H 0.27109 0.70117 0.40400
 H1310 H 0.27449 0.68063 0.42943
 H1311 H 0.21696 0.68255 0.43755
 H1312 H 0.21369 0.70251 0.41189
 C1313 C 0.30077 0.74459 0.65377
 C1314 C 0.29906 0.73314 0.63907
 C1315 C 0.28202 0.72876 0.63212
 C1316 C 0.26660 0.73603 0.64005
 C1317 C 0.26829 0.74759 0.65469
 C1318 C 0.28540 0.75198 0.66173
 N1319 N 0.28081 0.71703 0.61699
 N1320 N 0.26576 0.71173 0.61056
 C1321 C 0.26462 0.70013 0.59532
 C1322 C 0.24771 0.69387 0.58967
 C1323 C 0.24613 0.68255 0.57484
 C1324 C 0.26150 0.67735 0.56531
 C1325 C 0.27847 0.68373 0.57102
 C1326 C 0.28004 0.69498 0.58590
 H1327 H 0.31412 0.74791 0.65872
 H1328 H 0.31105 0.72766 0.63303
 H1329 H 0.25327 0.73284 0.63491
 H1330 H 0.25621 0.75292 0.66065
 H1331 H 0.23573 0.69772 0.59684
 H1332 H 0.23289 0.67769 0.57098
 H1333 H 0.29054 0.68023 0.56383
 H1334 H 0.29326 0.69973 0.58995
 C1335 C 0.78925 0.23362 0.17054
 C1336 C 0.78676 0.22150 0.15647
 C1337 C 0.77778 0.22675 0.14078
 C1338 C 0.77128 0.24437 0.13927
 C1339 C 0.77376 0.25651 0.15332
 C1340 C 0.78278 0.25128 0.16915
 N1341 N 0.77549 0.21398 0.12662
 N1342 N 0.76730 0.21781 0.11206
 C1343 C 0.76507 0.20504 0.09789
 C1344 C 0.75582 0.21018 0.08231
 C1345 C 0.75347 0.19810 0.06818
 C1346 C 0.76040 0.18059 0.06942
 C1347 C 0.76966 0.17546 0.08512
 C1348 C 0.77197 0.18756 0.09924
 H1349 H 0.79602 0.22906 0.18261
 H1350 H 0.79179 0.20794 0.15782
 H1351 H 0.76435 0.24878 0.12723
 H1352 H 0.76883 0.27006 0.15170
 H1353 H 0.75048 0.22363 0.08108
 H1354 H 0.74649 0.20254 0.05618
 H1355 H 0.77495 0.16201 0.08657
 H1356 H 0.77914 0.18324 0.11118
 C1357 C 0.44952 0.40049 0.51081
 C1358 C 0.45100 0.38621 0.52282
 C1359 C 0.46788 0.37894 0.52712
 C1360 C 0.48336 0.38609 0.51915
 C1361 C 0.48189 0.40034 0.50708
 C1362 C 0.46495 0.40774 0.50280
 N1363 N 0.46890 0.36437 0.53957
 N1364 N 0.48385 0.35751 0.54450
 C1365 C 0.48486 0.34291 0.55692
 C1366 C 0.50181 0.33636 0.56205
 C1367 C 0.50330 0.32211 0.57410
 C1368 C 0.48779 0.31410 0.58120
 C1369 C 0.47076 0.32071 0.57601
 C1370 C 0.46930 0.33501 0.56400
 H1371 H 0.43626 0.40571 0.50762
 H1372 H 0.43897 0.38077 0.52882
 H1373 H 0.49658 0.38071 0.52227
 H1374 H 0.49404 0.40575 0.50131
 H1375 H 0.51390 0.34230 0.55664
 H1376 H 0.51659 0.31716 0.57764
 H1377 H 0.45858 0.31496 0.58140
 H1378 H 0.45603 0.33986 0.56026
 C1379 C -0.04598 0.90499 0.01335
 C1380 C -0.04321 0.89003 0.02425
 C1381 C -0.03151 0.87642 0.01912
 C1382 C -0.02244 0.87789 0.00285
 C1383 C -0.02506 0.89290 -0.00809
 C1384 C -0.03692 0.90681 -0.00309
 N1385 N -0.02898 0.86141 0.03081
 N1386 N -0.01934 0.84796 0.02671
 C1387 C -0.01684 0.83320 0.03875
 C1388 C -0.00710 0.81823 0.03313
 C1389 C -0.00434 0.80369 0.04465
 C1390 C -0.01125 0.80394 0.06209
 C1391 C -0.02102 0.81903 0.06767
 C1392 C -0.02383 0.83350 0.05613
 H1393 H -0.05494 0.91519 0.01825
 H1394 H -0.05021 0.88908 0.03684
 H1395 H -0.01331 0.86747 -0.00141
 H1396 H -0.01794 0.89323 -0.02058
 H1397 H -0.00167 0.81782 0.01976
 H1398 H 0.00304 0.79219 0.03983
 H1399 H -0.02625 0.81982 0.08110
 H1400 H -0.03132 0.84497 0.06085
 C1401 C 0.02296 0.59814 -0.01814
 C1402 C 0.02020 0.61302 -0.00721
 C1403 C 0.02867 0.61426 0.00950
 C1404 C 0.04022 0.60047 0.01518
 C1405 C 0.04315 0.58558 0.00424
 C1406 C 0.03446 0.58401 -0.01264
 N1407 N 0.02520 0.62962 0.02041
 N1408 N 0.03148 0.63123 0.03624
 C1409 C 0.02779 0.64668 0.04695
 C1410 C 0.03400 0.64716 0.06469
 C1411 C 0.03036 0.66193 0.07556
 C1412 C 0.02045 0.67657 0.06880
 C1413 C 0.01439 0.67610 0.05091
 C1414 C 0.01798 0.66130 0.04010
 H1415 H 0.01623 0.59810 -0.03102
 H1416 H 0.01135 0.62365 -0.01178
 H1417 H 0.04694 0.60115 0.02810
 H1418 H 0.05189 0.57520 0.00942
 H1419 H 0.04155 0.63596 0.07014
 H1420 H 0.03504 0.66176 0.08932
 H1421 H 0.00701 0.68727 0.04518
 H1422 H 0.01311 0.66131 0.02639
 C1423 C 0.52809 0.11929 0.48633
 C1424 C 0.52467 0.13344 0.49804
 C1425 C 0.52794 0.13149 0.51640
 C1426 C 0.53506 0.11529 0.52294
 C1427 C 0.53874 0.10122 0.51121
 C1428 C 0.53515 0.10304 0.49280
 N1429 N 0.52387 0.14610 0.52807
 N1430 N 0.52380 0.14433 0.54499
 C1431 C 0.51985 0.15898 0.55666
 C1432 C 0.51714 0.15555 0.57481
 C1433 C 0.51305 0.16952 0.58651
 C1434 C 0.51187 0.18723 0.58023
 C1435 C 0.51478 0.19069 0.56203
 C1436 C 0.51864 0.17667 0.55030
 H1437 H 0.52538 0.12108 0.47218
 H1438 H 0.51926 0.14589 0.49283
 H1439 H 0.53777 0.11350 0.53709
 H1440 H 0.54404 0.08878 0.51653
 H1441 H 0.51809 0.14198 0.57987
 H1442 H 0.51103 0.16654 0.60052
 H1443 H 0.51383 0.20422 0.55685
 H1444 H 0.52073 0.17967 0.53631
 C1445 C -0.03865 0.09119 0.48331
 C1446 C -0.03567 0.10554 0.47172
 C1447 C -0.02660 0.12088 0.47772
 C1448 C -0.02039 0.12170 0.49554
 C1449 C -0.02333 0.10733 0.50715
 C1450 C -0.03254 0.09192 0.50117
 N1451 N -0.02392 0.13535 0.46546
 N1452 N -0.01608 0.14986 0.46999
 C1453 C -0.01350 0.16422 0.45757
 C1454 C -0.00495 0.17992 0.46342
 C1455 C -0.00223 0.19416 0.45160
 C1456 C -0.00805 0.19292 0.43367
 C1457 C -0.01665 0.17711 0.42784
 C1458 C -0.01936 0.16290 0.43967
 H1459 H -0.04555 0.07944 0.47821
 H1460 H -0.04045 0.10472 0.45800
 H1461 H -0.01336 0.13344 0.50049
 H1462 H -0.01864 0.10839 0.52087
 H1463 H -0.00042 0.18112 0.47719
 H1464 H 0.00423 0.20622 0.45655
 H1465 H -0.02105 0.17563 0.41406
 H1466 H -0.02596 0.15088 0.43479
 C1467 C 0.46299 0.58335 0.98385
 C1468 C 0.46500 0.59738 0.97165
 C1469 C 0.47636 0.61181 0.97557
 C1470 C 0.48589 0.61204 0.99189
 C1471 C 0.48405 0.59798 1.00409
 C1472 C 0.47250 0.58332 1.00037
 N1473 N 0.47803 0.62599 0.96278
 N1474 N 0.48712 0.64010 0.96608
 C1475 C 0.48894 0.65425 0.95329
 C1476 C 0.49796 0.66993 0.95840
 C1477 C 0.50001 0.68401 0.94628
 C1478 C 0.49314 0.68261 0.92871
 C1479 C 0.48409 0.66679 0.92361
 C1480 C 0.48197 0.65275 0.93579
 H1481 H 0.45424 0.57244 0.97993
 H1482 H 0.45765 0.59700 0.95905
 H1483 H 0.49477 0.62309 0.99525
 H1484 H 0.49148 0.59904 1.01655
 H1485 H 0.50334 0.67126 0.97187
 H1486 H 0.50677 0.69610 0.95077
 H1487 H 0.47887 0.66515 0.91012
 H1488 H 0.47502 0.64071 0.93150
 C1489 C 0.54349 0.91068 0.98135
 C1490 C 0.54137 0.89657 0.96918
 C1491 C 0.53344 0.88044 0.97449
 C1492 C 0.52767 0.87851 0.99221
 C1493 C 0.52974 0.89260 1.00436
 C1494 C 0.53762 0.90887 0.99907
 N1495 N 0.53124 0.86633 0.96165
 N1496 N 0.52426 0.85132 0.96576
 C1497 C 0.52181 0.83717 0.95303
 C1498 C 0.51426 0.82100 0.95871
 C1499 C 0.51146 0.80695 0.94665
 C1500 C 0.51616 0.80886 0.92858
 C1501 C 0.52383 0.82512 0.92292
 C1502 C 0.52663 0.83916 0.93502
 H1503 H 0.54941 0.92309 0.97679
 H1504 H 0.54583 0.89824 0.95555
 H1505 H 0.52154 0.86615 0.99666
 H1506 H 0.52532 0.89068 1.01796
 H1507 H 0.51055 0.81929 0.97257
 H1508 H 0.50580 0.79452 0.95150
 H1509 H 0.52739 0.82709 0.90906
 H1510 H 0.53244 0.85157 0.93029
 C1511 C 0.02518 0.40014 0.51274
 C1512 C 0.02269 0.38486 0.50220
 C1513 C 0.02810 0.38471 0.48436
 C1514 C 0.03618 0.40008 0.47713
 C1515 C 0.03870 0.41539 0.48766
 C1516 C 0.03317 0.41562 0.50558
 N1517 N 0.02508 0.36889 0.47390
 N1518 N 0.02962 0.36778 0.45759
 C1519 C 0.02642 0.35195 0.44719
 C1520 C 0.03186 0.35160 0.42935
 C1521 C 0.02880 0.33641 0.41880
 C1522 C 0.02019 0.32126 0.42594
 C1523 C 0.01478 0.32164 0.44389
 C1524 C 0.01787 0.33683 0.45443
 H1525 H 0.02101 0.39976 0.52654
 H1526 H 0.01649 0.37308 0.50794
 H1527 H 0.04044 0.40032 0.46334
 H1528 H 0.04468 0.42714 0.48167
 H1529 H 0.03841 0.36318 0.42360
 H1530 H 0.03294 0.33661 0.40497
 H1531 H 0.00834 0.31011 0.44985
 H1532 H 0.01357 0.33675 0.46821
 C1533 C 0.40435 0.50694 0.45297
 C1534 C 0.39015 0.51910 0.45463
 C1535 C 0.38329 0.52323 0.47147
 C1536 C 0.39076 0.51496 0.48674
 C1537 C 0.40487 0.50270 0.48508
 C1538 C 0.41184 0.49858 0.46818
 N1539 N 0.36872 0.53572 0.47266
 N1540 N 0.36258 0.54093 0.48760
 C1541 C 0.34788 0.55328 0.48876
 C1542 C 0.34262 0.55933 0.50560
 C1543 C 0.32825 0.57130 0.50722
 C1544 C 0.31879 0.57735 0.49196
 C1545 C 0.32412 0.57121 0.47504
 C1546 C 0.33855 0.55932 0.47344
 H1547 H 0.40927 0.50387 0.43977
 H1548 H 0.38447 0.52533 0.44277
 H1549 H 0.38567 0.51793 0.49991
 H1550 H 0.41050 0.49662 0.49704
 H1551 H 0.34974 0.55481 0.51750
 H1552 H 0.32468 0.57595 0.52042
 H1553 H 0.31695 0.57537 0.46304
 H1554 H 0.34230 0.55475 0.46027
 C1555 C 0.90603 0.01503 -0.03399
 C1556 C 0.89183 0.02666 -0.03011
 C1557 C 0.87841 0.02149 -0.01811
 C1558 C 0.87941 0.00467 -0.01004
 C1559 C 0.89361 -0.00695 -0.01375
 C1560 C 0.90726 -0.00206 -0.02586
 N1561 N 0.86354 0.03292 -0.01400
 N1562 N 0.86216 0.04883 -0.02000
 C1563 C 0.84705 0.05996 -0.01589
 C1564 C 0.84681 0.07770 -0.02192
 C1565 C 0.83217 0.08884 -0.01825
 C1566 C 0.81743 0.08235 -0.00851
 C1567 C 0.81774 0.06450 -0.00247
 C1568 C 0.83241 0.05342 -0.00609
 H1569 H 0.91612 0.01979 -0.04311
 H1570 H 0.89134 0.03966 -0.03652
 H1571 H 0.86906 0.00051 -0.00083
 H1572 H 0.89342 -0.01989 -0.00732
 H1573 H 0.85802 0.08292 -0.02946
 H1574 H 0.83247 0.10258 -0.02289
 H1575 H 0.80649 0.05897 0.00478
 H1576 H 0.83222 0.03971 -0.00136
 C1577 C 0.58911 0.01718 0.04054
 C1578 C 0.60311 0.02959 0.03895
 C1579 C 0.61952 0.02454 0.03148
 C1580 C 0.62180 0.00683 0.02553
 C1581 C 0.60779 -0.00560 0.02707
 C1582 C 0.59128 -0.00057 0.03462
 N1583 N 0.63355 0.03764 0.03004
 N1584 N 0.64889 0.03390 0.02360
 C1585 C 0.66287 0.04706 0.02207
 C1586 C 0.67938 0.04200 0.01482
 C1587 C 0.69320 0.05455 0.01286
 C1588 C 0.69072 0.07247 0.01814
 C1589 C 0.67414 0.07748 0.02556
 C1590 C 0.66033 0.06490 0.02750
 H1591 H 0.57650 0.02154 0.04618
 H1592 H 0.60116 0.04321 0.04352
 H1593 H 0.63439 0.00259 0.01972
 H1594 H 0.60998 -0.01920 0.02260
 H1595 H 0.68152 0.02828 0.01064
 H1596 H 0.70589 0.05022 0.00733
 H1597 H 0.67173 0.09121 0.02954
 H1598 H 0.64766 0.06916 0.03311
 C1599 C 0.08834 0.52556 0.53813
 C1600 C 0.10257 0.53740 0.53511
 C1601 C 0.11679 0.53253 0.52412
 C1602 C 0.11657 0.51565 0.51587
 C1603 C 0.10228 0.50379 0.51871
 C1604 C 0.08789 0.50843 0.53004
 N1605 N 0.13130 0.54493 0.52168
 N1606 N 0.14543 0.54091 0.51308
 C1607 C 0.15987 0.55343 0.51082
 C1608 C 0.17577 0.54767 0.50280
 C1609 C 0.19028 0.55945 0.50080
 C1610 C 0.18906 0.57731 0.50670
 C1611 C 0.17294 0.58310 0.51454
 C1612 C 0.15850 0.57128 0.51664
 H1613 H 0.07761 0.53020 0.54657
 H1614 H 0.10254 0.55045 0.54146
 H1615 H 0.12746 0.51158 0.50728
 H1616 H 0.10296 0.49084 0.51232
 H1617 H 0.17701 0.53394 0.49831
 H1618 H 0.20256 0.55447 0.49494
 H1619 H 0.17141 0.59683 0.51894
 H1620 H 0.14629 0.57610 0.52277
 C1621 C 0.08952 0.47508 -0.04447
 C1622 C 0.10348 0.46300 -0.04087
 C1623 C 0.11731 0.46743 -0.02884
 C1624 C 0.11694 0.48408 -0.02016
 C1625 C 0.10292 0.49616 -0.02359
 C1626 C 0.08894 0.49199 -0.03595
 N1627 N 0.13159 0.45485 -0.02581
 N1628 N 0.14538 0.45857 -0.01622
 C1629 C 0.15965 0.44595 -0.01330
 C1630 C 0.17521 0.45149 -0.00410
 C1631 C 0.18955 0.43962 -0.00135
 C1632 C 0.18850 0.42189 -0.00768
 C1633 C 0.17273 0.41632 -0.01675
 C1634 C 0.15846 0.42824 -0.01958
 H1635 H 0.07909 0.47079 -0.05371
 H1636 H 0.10356 0.45014 -0.04756
 H1637 H 0.12752 0.48782 -0.01078
 H1638 H 0.10352 0.50892 -0.01680
 H1639 H 0.17631 0.46512 0.00077
 H1640 H 0.20157 0.44446 0.00544
 H1641 H 0.17134 0.40269 -0.02153
 H1642 H 0.14651 0.42360 -0.02664
 C1643 C 0.60833 1.01985 0.47539
 C1644 C 0.62301 1.00843 0.47815
 C1645 C 0.62399 0.99205 0.46921
 C1646 C 0.61008 0.98718 0.45729
 C1647 C 0.59541 0.99859 0.45438
 C1648 C 0.59416 1.01520 0.46340
 N1649 N 0.63918 0.98064 0.47250
 N1650 N 0.64036 0.96506 0.46568
 C1651 C 0.65556 0.95366 0.46898
 C1652 C 0.65523 0.93615 0.46233
 C1653 C 0.66968 0.92456 0.46560
 C1654 C 0.68485 0.93036 0.47552
 C1655 C 0.68521 0.94806 0.48199
 C1656 C 0.67069 0.95960 0.47881
 H1657 H 0.60849 1.03245 0.48247
 H1658 H 0.63371 1.01237 0.48732
 H1659 H 0.61051 0.97452 0.45023
 H1660 H 0.58497 0.99400 0.44529
 H1661 H 0.64362 0.93141 0.45478
 H1662 H 0.66882 0.91096 0.46064
 H1663 H 0.69679 0.95307 0.48941
 H1664 H 0.67132 0.97313 0.48399
 C1665 C 0.88961 1.01295 0.52263
 C1666 C 0.87461 1.00209 0.51927
 C1667 C 0.87483 0.98399 0.52408
 C1668 C 0.89026 0.97683 0.53249
 C1669 C 0.90531 0.98769 0.53587
 C1670 C 0.90519 1.00587 0.53088
 N1671 N 0.85931 0.97322 0.52005
 N1672 N 0.85845 0.95666 0.52404
 C1673 C 0.84290 0.94602 0.51975
 C1674 C 0.84263 0.92798 0.52483
 C1675 C 0.82770 0.91721 0.52074
 C1676 C 0.81276 0.92434 0.51142
 C1677 C 0.81308 0.94248 0.50633
 C1678 C 0.82799 0.95323 0.51046
 H1679 H 0.88894 1.02694 0.51888
 H1680 H 0.86277 1.00778 0.51285
 H1681 H 0.89076 0.96284 0.53631
 H1682 H 0.91714 0.98178 0.54206
 H1683 H 0.85405 0.92224 0.53193
 H1684 H 0.82794 0.90325 0.52466
 H1685 H 0.80169 0.94842 0.49934
 H1686 H 0.82785 0.96716 0.50641
 C1687 C 0.41974 0.47635 0.04021
 C1688 C 0.40553 0.46417 0.03814
 C1689 C 0.38933 0.46946 0.02996
 C1690 C 0.38748 0.48715 0.02377
 C1691 C 0.40169 0.49933 0.02577
 C1692 C 0.41798 0.49407 0.03403
 N1693 N 0.37503 0.45666 0.02808
 N1694 N 0.35979 0.46081 0.02128
 C1695 C 0.34545 0.44807 0.01926
 C1696 C 0.32895 0.45381 0.01208
 C1697 C 0.31469 0.44175 0.00979
 C1698 C 0.31673 0.42363 0.01462
 C1699 C 0.33334 0.41792 0.02189
 C1700 C 0.34758 0.43002 0.02420
 H1701 H 0.43218 0.47183 0.04642
 H1702 H 0.40715 0.45056 0.04291
 H1703 H 0.37507 0.49159 0.01743
 H1704 H 0.39983 0.51293 0.02109
 H1705 H 0.32713 0.46770 0.00828
 H1706 H 0.30200 0.44665 0.00441
 H1707 H 0.33542 0.40402 0.02553
 H1708 H 0.36025 0.42525 0.02973
 C1709 C 0.50990 0.44872 0.40722
 C1710 C 0.52193 0.45089 0.39314
 C1711 C 0.52630 0.46803 0.38695
 C1712 C 0.51850 0.48308 0.39506
 C1713 C 0.50639 0.48093 0.40906
 C1714 C 0.50192 0.46373 0.41527
 N1715 N 0.53845 0.46980 0.37231
 N1716 N 0.54369 0.48504 0.36677
 C1717 C 0.55558 0.48699 0.35196
 C1718 C 0.56166 0.50413 0.34744
 C1719 C 0.57308 0.50659 0.33294
 C1720 C 0.57855 0.49188 0.32256
 C1721 C 0.57242 0.47465 0.32716
 C1722 C 0.56106 0.47221 0.34174
 H1723 H 0.50657 0.43531 0.41159
 H1724 H 0.52781 0.43918 0.38696
 H1725 H 0.52167 0.49648 0.39054
 H1726 H 0.50065 0.49274 0.41514
 H1727 H 0.55755 0.51561 0.35524
 H1728 H 0.57776 0.51999 0.32996
 H1729 H 0.57614 0.46308 0.31931
 H1730 H 0.55645 0.45883 0.34491
 C1731 C -0.00243 -0.01248 0.90748
 C1732 C 0.00907 -0.00902 0.89323
 C1733 C 0.01660 -0.02314 0.88357
 C1734 C 0.01256 -0.04089 0.88839
 C1735 C 0.00115 -0.04437 0.90271
 C1736 C -0.00651 -0.03020 0.91240
 N1737 N 0.02830 -0.01911 0.86902
 N1738 N 0.03481 -0.03126 0.85907
 C1739 C 0.04659 -0.02721 0.84459
 C1740 C 0.05233 -0.04114 0.83353
 C1741 C 0.06381 -0.03766 0.81926
 C1742 C 0.06985 -0.02012 0.81586
 C1743 C 0.06409 -0.00616 0.82706
 C1744 C 0.05254 -0.00965 0.84127
 H1745 H -0.00793 -0.00129 0.91481
 H1746 H 0.01213 0.00471 0.88968
 H1747 H 0.01821 -0.05205 0.88112
 H1748 H -0.00190 -0.05814 0.90605
 H1749 H 0.04780 -0.05472 0.83592
 H1750 H 0.06776 -0.04868 0.81075
 H1751 H 0.06870 0.00744 0.82500
 H1752 H 0.04837 0.00134 0.84970
 C1753 C 0.01622 0.03579 0.58699
 C1754 C 0.02831 0.03250 0.60109
 C1755 C 0.02253 0.02400 0.61666
 C1756 C 0.00442 0.01868 0.61798
 C1757 C -0.00771 0.02197 0.60388
 C1758 C -0.00196 0.03063 0.58823
 N1759 N 0.03526 0.02114 0.63094
 N1760 N 0.03106 0.01330 0.64541
 C1761 C 0.04384 0.01072 0.65971
 C1762 C 0.03839 0.00176 0.67517
 C1763 C 0.05045 -0.00073 0.68948
 C1764 C 0.06821 0.00578 0.68857
 C1765 C 0.07367 0.01470 0.67297
 C1766 C 0.06161 0.01714 0.65867
 H1767 H 0.02118 0.04221 0.57506
 H1768 H 0.04225 0.03661 0.59990
 H1769 H -0.00039 0.01213 0.62992
 H1770 H -0.02164 0.01802 0.60537
 H1771 H 0.02472 -0.00320 0.67616
 H1772 H 0.04577 -0.00745 0.70138
 H1773 H 0.08732 0.01967 0.67178
 H1774 H 0.06617 0.02408 0.64685
 C1775 C 0.52404 0.53729 0.09022
 C1776 C 0.53595 0.53557 0.10476
 C1777 C 0.53032 0.52753 0.12064
 C1778 C 0.51253 0.52120 0.12186
 C1779 C 0.50062 0.52288 0.10732
 C1780 C 0.50624 0.53092 0.09132
 N1781 N 0.54291 0.52589 0.13523
 N1782 N 0.53863 0.51878 0.15006
 C1783 C 0.55121 0.51706 0.16464
 C1784 C 0.54547 0.50924 0.18058
 C1785 C 0.55740 0.50729 0.19506
 C1786 C 0.57536 0.51316 0.19383
 C1787 C 0.58109 0.52104 0.17778
 C1788 C 0.56913 0.52298 0.16331
 H1789 H 0.52887 0.54333 0.07804
 H1790 H 0.54964 0.54046 0.10364
 H1791 H 0.50784 0.51497 0.13401
 H1792 H 0.48695 0.51807 0.10870
 H1793 H 0.53167 0.50467 0.18179
 H1794 H 0.55250 0.50139 0.20731
 H1795 H 0.59489 0.52548 0.17632
 H1796 H 0.57391 0.52902 0.15110
 C1797 C 0.48373 -0.04302 0.08555
 C1798 C 0.47138 -0.04105 0.09938
 C1799 C 0.47653 -0.03276 0.11542
 C1800 C 0.49429 -0.02645 0.11754
 C1801 C 0.50664 -0.02839 0.10373
 C1802 C 0.50150 -0.03667 0.08756
 N1803 N 0.46351 -0.03080 0.12925
 N1804 N 0.46740 -0.02334 0.14411
 C1805 C 0.45447 -0.02117 0.15799
 C1806 C 0.45982 -0.01270 0.17387
 C1807 C 0.44752 -0.01012 0.18761
 C1808 C 0.42958 -0.01599 0.18569
 C1809 C 0.42427 -0.02462 0.16975
 C1810 C 0.43659 -0.02718 0.15600
 H1811 H 0.47927 -0.04924 0.07320
 H1812 H 0.45772 -0.04592 0.09756
 H1813 H 0.49862 -0.02004 0.12985
 H1814 H 0.52027 -0.02360 0.10581
 H1815 H 0.47357 -0.00807 0.17558
 H1816 H 0.45210 -0.00367 0.19982
 H1817 H 0.41050 -0.02913 0.16780
 H1818 H 0.43213 -0.03374 0.14381
 C1819 C 1.00716 0.48833 0.60489
 C1820 C 0.99581 0.49120 0.61937
 C1821 C 0.97811 0.48473 0.61901
 C1822 C 0.97182 0.47530 0.60391
 C1823 C 0.98317 0.47238 0.58942
 C1824 C 1.00098 0.47886 0.58975
 N1825 N 0.96691 0.48782 0.63415
 N1826 N 0.95062 0.48250 0.63463
 C1827 C 0.93948 0.48551 0.64984
 C1828 C 0.92161 0.47952 0.64932
 C1829 C 0.91041 0.48213 0.66397
 C1830 C 0.91693 0.49080 0.67946
 C1831 C 0.93490 0.49684 0.67992
 C1832 C 0.94608 0.49422 0.66525
 H1833 H 1.02086 0.49327 0.60568
 H1834 H 1.00083 0.49844 0.63096
 H1835 H 0.95816 0.47019 0.60329
 H1836 H 0.97793 0.46524 0.57788
 H1837 H 0.91636 0.47283 0.63751
 H1838 H 0.89657 0.47754 0.66310
 H1839 H 0.94040 0.50333 0.69172
 H1840 H 0.95988 0.49892 0.66600
 C1841 C 1.01020 0.51471 0.88530
 C1842 C 0.99887 0.51220 0.87042
 C1843 C 0.98123 0.51878 0.87040
 C1844 C 0.97496 0.52794 0.88551
 C1845 C 0.98628 0.53051 0.90037
 C1846 C 1.00404 0.52394 0.90043
 N1847 N 0.96999 0.51606 0.85492
 N1848 N 0.95373 0.52146 0.85422
 C1849 C 0.94243 0.51886 0.83878
 C1850 C 0.92455 0.52475 0.83926
 C1851 C 0.91312 0.52241 0.82445
 C1852 C 0.91942 0.51415 0.80882
 C1853 C 0.93742 0.50828 0.80838
 C1854 C 0.94883 0.51060 0.82322
 H1855 H 1.02386 0.50969 0.88484
 H1856 H 1.00387 0.50516 0.85884
 H1857 H 0.96135 0.53312 0.88585
 H1858 H 0.98105 0.53744 0.91189
 H1859 H 0.91946 0.53109 0.85119
 H1860 H 0.89927 0.52685 0.82533
 H1861 H 0.94275 0.50209 0.79647
 H1862 H 0.96264 0.50600 0.82251
 C1863 C 0.48478 0.04750 0.40798
 C1864 C 0.47230 0.04392 0.39429
 C1865 C 0.47760 0.03495 0.37881
 C1866 C 0.49563 0.02954 0.37715
 C1867 C 0.50814 0.03309 0.39084
 C1868 C 0.50286 0.04213 0.40641
 N1869 N 0.46444 0.03153 0.36506
 N1870 N 0.46836 0.02348 0.35062
 C1871 C 0.45520 0.02006 0.33686
 C1872 C 0.46053 0.01121 0.32133
 C1873 C 0.44806 0.00765 0.30763
 C1874 C 0.42995 0.01292 0.30926
 C1875 C 0.42464 0.02184 0.32489
 C1876 C 0.43714 0.02538 0.33859
 H1877 H 0.48021 0.05425 0.41989
 H1878 H 0.45842 0.04811 0.39575
 H1879 H 0.50008 0.02261 0.36527
 H1880 H 0.52199 0.02897 0.38912
 H1881 H 0.47443 0.00710 0.31983
 H1882 H 0.45263 0.00100 0.29566
 H1883 H 0.41075 0.02588 0.32663
 H1884 H 0.43268 0.03221 0.35050
   
