data_POSCAR
  _audit_creation_date              2014-09-24
  _audit_creation_method            'ToBaCCo'
  _symmetry_space_group_name_H-M    'P1'
  _symmetry_Int_Tables_number       1
  _symmetry_cell_setting            triclinic
  loop_
  _symmetry_equiv_pos_as_xyz
 x,y,z
_cell_length_a 92.4073
_cell_length_b 92.8498
_cell_length_c 93.5177
_cell_angle_alpha 89.954100
_cell_angle_beta 90.007900
_cell_angle_gamma 90.059900
loop_
  _atom_site_label
  _atom_site_type_symbol
  _atom_site_fract_x
  _atom_site_fract_y
  _atom_site_fract_z
C1 C 0.35574 0.33761 0.34004
 N2 N 0.34984 0.34959 0.33410
 C3 C 0.33793 0.35567 0.34005
 N4 N 0.33186 0.34973 0.35188
 C5 C 0.33776 0.33775 0.35782
 N6 N 0.34967 0.33167 0.35187
 C7 C 0.35609 0.83791 -0.16074
 N8 N 0.34995 0.83207 -0.14889
 C9 C 0.33809 0.83827 -0.14298
 N10 N 0.33230 0.85026 -0.14897
 C11 C 0.33842 0.85611 -0.16082
 N12 N 0.35029 0.84990 -0.16673
 C13 C 0.85524 0.33903 -0.16127
 N14 N 0.84939 0.33292 -0.14942
 C15 C 0.83746 0.33879 -0.14331
 N16 N 0.83134 0.35074 -0.14909
 C17 C 0.83720 0.35685 -0.16094
 N18 N 0.84912 0.35097 -0.16706
 C19 C 0.85650 0.83818 0.33888
 N20 N 0.85066 0.85023 0.33303
 C21 C 0.83889 0.85643 0.33914
 N22 N 0.83291 0.85053 0.35103
 C23 C 0.83874 0.83848 0.35687
 N24 N 0.85051 0.83228 0.35077
 C25 C 0.64398 0.66167 0.33738
 N26 N 0.65005 0.64975 0.33153
 C27 C 0.66189 0.64372 0.33767
 N28 N 0.66771 0.64965 0.34962
 C29 C 0.66164 0.66156 0.35548
 N30 N 0.64979 0.66760 0.34934
 C31 C 0.64370 0.16158 -0.16263
 N32 N 0.64959 0.16738 -0.15065
 C33 C 0.66149 0.16130 -0.14465
 N34 N 0.66754 0.14945 -0.15067
 C35 C 0.66165 0.14365 -0.16266
 N36 N 0.64976 0.14973 -0.16865
 C37 C 0.14371 0.66113 -0.16176
 N38 N 0.14955 0.66698 -0.14978
 C39 C 0.16141 0.66091 -0.14370
 N40 N 0.16747 0.64904 -0.14965
 C41 C 0.16164 0.64319 -0.16164
 N42 N 0.14978 0.64926 -0.16771
 C43 C 0.14414 0.16217 0.33771
 N44 N 0.15014 0.15026 0.33175
 C45 C 0.16184 0.14400 0.33794
 N46 N 0.16758 0.14969 0.35004
 C47 C 0.16158 0.16159 0.35600
 N48 N 0.14988 0.16785 0.34981
 C49 C 0.64447 0.33866 0.66067
 N50 N 0.65037 0.35060 0.66668
 C51 C 0.66236 0.35667 0.66086
 N52 N 0.66851 0.35076 0.64907
 C53 C 0.66262 0.33882 0.64305
 N54 N 0.65062 0.33275 0.64888
 C55 C 0.64389 0.83862 1.16094
 N56 N 0.64993 0.85037 1.16718
 C57 C 0.66199 0.85642 1.16146
 N58 N 0.66805 0.85067 1.14955
 C59 C 0.66202 0.83892 1.14331
 N60 N 0.64996 0.83287 1.14903
 C61 C 0.14476 0.33867 1.16070
 N62 N 0.15090 0.33293 1.14882
 C63 C 0.16290 0.33908 1.14308
 N64 N 0.16880 0.35092 1.14926
 C65 C 0.16267 0.35667 1.16114
 N66 N 0.15067 0.35051 1.16688
 C67 C 0.14429 0.83819 0.66123
 N68 N 0.15027 0.85000 0.66742
 C69 C 0.16228 0.85611 0.66166
 N70 N 0.16836 0.85036 0.64975
 C71 C 0.16238 0.83856 0.64356
 N72 N 0.15037 0.83245 0.64932
 C73 C 0.35623 0.66174 0.66114
 N74 N 0.35011 0.64980 0.66694
 C75 C 0.33827 0.64380 0.66075
 N76 N 0.33249 0.64980 0.64881
 C77 C 0.33861 0.66175 0.64301
 N78 N 0.35045 0.66774 0.64920
 C79 C 0.35666 0.16195 1.16199
 N80 N 0.35055 0.14997 1.16774
 C81 C 0.33879 0.14391 1.16146
 N82 N 0.33309 0.14987 1.14947
 C83 C 0.33919 0.16184 1.14371
 N84 N 0.35095 0.16790 1.14999
 C85 C 0.85648 0.66078 1.16149
 N86 N 0.85041 0.64879 1.16722
 C87 C 0.83854 0.64282 1.16104
 N88 N 0.83270 0.64891 1.14918
 C89 C 0.83877 0.66091 1.14344
 N90 N 0.85064 0.66687 1.14962
 C91 C 0.85672 0.16105 0.66172
 N92 N 0.85064 0.14907 0.66749
 C93 C 0.83888 0.14299 0.66124
 N94 N 0.83313 0.14895 0.64926
 C95 C 0.83921 0.16093 0.64349
 N96 N 0.85098 0.16700 0.64974
 C97 C 0.33742 0.35608 0.66107
 N98 N 0.34930 0.34997 0.66706
 C99 C 0.35530 0.33809 0.66106
 N100 N 0.34936 0.33226 0.64912
 C101 C 0.33748 0.33836 0.64313
 N102 N 0.33148 0.35024 0.64913
 C103 C 0.33707 0.85656 0.16064
 N104 N 0.33124 0.85076 0.14863
 C105 C 0.33738 0.83898 0.14257
 N106 N 0.34929 0.83294 0.14857
 C107 C 0.35512 0.83873 0.16057
 N108 N 0.34899 0.85051 0.16664
 C109 C 0.83763 0.35545 0.16043
 N110 N 0.84966 0.34959 0.16637
 C111 C 0.85586 0.33782 0.16035
 N112 N 0.84996 0.33185 0.14845
 C113 C 0.83793 0.33771 0.14252
 N114 N 0.83174 0.34948 0.14854
 C115 C 0.83728 0.85602 0.66068
 N116 N 0.84917 0.84994 0.66669
 C117 C 0.85524 0.83811 0.66066
 N118 N 0.84937 0.83231 0.64868
 C119 C 0.83748 0.83838 0.64267
 N120 N 0.83141 0.85021 0.64870
 C121 C 0.66170 0.64411 0.66153
 N122 N 0.64981 0.65015 0.66757
 C123 C 0.64375 0.66203 0.66161
 N124 N 0.64961 0.66791 0.64965
 C125 C 0.66149 0.66187 0.64360
 N126 N 0.66756 0.65000 0.64957
 C127 C 0.66143 0.14327 0.16133
 N128 N 0.66730 0.14915 0.14937
 C129 C 0.66124 0.16103 0.14340
 N130 N 0.64935 0.16707 0.14944
 C131 C 0.64348 0.16119 0.16140
 N132 N 0.64955 0.14932 0.16737
 C133 C 0.16162 0.64295 0.16163
 N134 N 0.14969 0.64890 0.16768
 C135 C 0.14362 0.66083 0.16182
 N136 N 0.14953 0.66685 0.14995
 C137 C 0.16145 0.66090 0.14389
 N138 N 0.16752 0.64898 0.14976
 C139 C 0.16121 0.14265 0.66236
 N140 N 0.14933 0.14867 0.66842
 C141 C 0.14328 0.16059 0.66252
 N142 N 0.14916 0.16653 0.65059
 C143 C 0.16104 0.16050 0.64453
 N144 N 0.16709 0.14859 0.65043
 C145 C 0.33817 0.64394 0.33886
 N146 N 0.35006 0.64984 0.33266
 C147 C 0.35622 0.66179 0.33838
 N148 N 0.35044 0.66790 0.35024
 C149 C 0.33855 0.66201 0.35645
 N150 N 0.33239 0.65005 0.35073
 C151 C 0.33858 0.14308 0.83925
 N152 N 0.33281 0.14915 0.85115
 C153 C 0.33895 0.16112 0.85687
 N154 N 0.35079 0.16706 0.85064
 C155 C 0.35656 0.16100 0.83874
 N156 N 0.35043 0.14903 0.83302
 C157 C 0.83857 0.64388 0.83952
 N158 N 0.83281 0.64998 0.85140
 C159 C 0.83899 0.66192 0.85713
 N160 N 0.85087 0.66781 0.85093
 C161 C 0.85663 0.66172 0.83904
 N162 N 0.85046 0.64978 0.83331
 C163 C 0.83912 0.14423 0.33871
 N164 N 0.85107 0.15012 0.33261
 C165 C 0.85724 0.16201 0.33844
 N166 N 0.85142 0.16806 0.35032
 C167 C 0.83947 0.16217 0.35642
 N168 N 0.83330 0.15028 0.35059
 C169 C 0.66200 0.35655 0.33952
 N170 N 0.65003 0.35035 0.33378
 C171 C 0.64422 0.33843 0.33993
 N172 N 0.65042 0.33266 0.35177
 C173 C 0.66238 0.33887 0.35752
 N174 N 0.66820 0.35078 0.35136
 C175 C 0.66163 0.85709 0.83962
 N176 N 0.66781 0.85129 0.85146
 C177 C 0.66202 0.83933 0.85754
 N178 N 0.65009 0.83311 0.85173
 C179 C 0.64391 0.83892 0.83989
 N180 N 0.64971 0.85088 0.83381
 C181 C 0.16155 0.35655 0.83944
 N182 N 0.16768 0.35069 0.85127
 C183 C 0.16180 0.33875 0.85732
 N184 N 0.14983 0.33262 0.85149
 C185 C 0.14371 0.33849 0.83965
 N186 N 0.14959 0.35042 0.83360
 C187 C 0.16155 0.85755 0.33912
 N188 N 0.14974 0.85120 0.33324
 C189 C 0.14397 0.83924 0.33934
 N190 N 0.15006 0.83358 0.35128
 C191 C 0.16188 0.83992 0.35718
 N192 N 0.16765 0.85188 0.35107
 O193 O 0.25072 1.01503 0.23075
 O194 O 0.23069 0.98718 0.25067
 O195 O 0.23109 1.01525 0.25072
 O196 O 0.25030 0.98695 0.23073
 O197 O 0.26746 0.98668 0.24720
 O198 O 0.24826 1.01498 0.26719
 O199 O 0.24785 0.98692 0.26715
 O200 O 0.26789 1.01477 0.24722
 Cu201 Cu 0.23897 1.00114 0.23905
 Cu202 Cu 0.25960 1.00082 0.25885
 C203 C 0.26266 1.01962 0.23564
 C204 C 0.23591 0.98232 0.26224
 C205 C 0.23644 1.01990 0.26232
 C206 C 0.26209 0.98200 0.23562
 O207 O 0.25070 0.51420 0.73145
 O208 O 0.23106 0.48621 0.75153
 O209 O 0.23118 0.51428 0.75151
 O210 O 0.25062 0.48611 0.73154
 O211 O 0.26785 0.48610 0.74796
 O212 O 0.24841 0.51425 0.76792
 O213 O 0.24829 0.48617 0.76795
 O214 O 0.26793 0.51419 0.74786
 Cu215 Cu 0.23915 0.50021 0.73985
 Cu216 Cu 0.25986 0.50018 0.75958
 C217 C 0.26261 0.51895 0.73628
 C218 C 0.23638 0.48143 0.76310
 C219 C 0.23653 0.51904 0.76307
 C220 C 0.26249 0.48131 0.73641
 O221 O 0.74934 -0.01399 0.23241
 O222 O 0.76871 0.01433 0.25229
 O223 O 0.76887 -0.01375 0.25244
 O224 O 0.74920 0.01408 0.23222
 O225 O 0.73195 0.01407 0.24861
 O226 O 0.75162 -0.01377 0.26884
 O227 O 0.75146 0.01431 0.26868
 O228 O 0.73209 -0.01400 0.24881
 Cu229 Cu 0.76077 0.00017 0.24069
 Cu230 Cu 0.74004 0.00015 0.26039
 C231 C 0.73747 -0.01881 0.23728
 C232 C 0.76333 0.01912 0.26382
 C233 C 0.76355 -0.01849 0.26403
 C234 C 0.73727 0.01880 0.23702
 O235 O 0.73134 0.51445 0.74876
 O236 O 0.75051 0.48630 0.76903
 O237 O 0.75060 0.51437 0.76907
 O238 O 0.73126 0.48638 0.74873
 O239 O 0.74872 0.48639 0.73256
 O240 O 0.76806 0.51438 0.75290
 O241 O 0.76798 0.48630 0.75286
 O242 O 0.74880 0.51446 0.73259
 Cu243 Cu 0.73916 0.50038 0.76053
 Cu244 Cu 0.76015 0.50039 0.74110
 C245 C 0.73685 0.51923 0.73727
 C246 C 0.76246 0.48152 0.76434
 C247 C 0.76258 0.51912 0.76440
 C248 C 0.73675 0.48163 0.73723
 O249 O 0.24900 0.48538 0.23263
 O250 O 0.26843 0.51361 0.25260
 O251 O 0.26856 0.48553 0.25267
 O252 O 0.24895 0.51346 0.23251
 O253 O 0.23170 0.51344 0.24890
 O254 O 0.25131 0.48549 0.26906
 O255 O 0.25117 0.51356 0.26899
 O256 O 0.23176 0.48536 0.24903
 Cu257 Cu 0.26048 0.49949 0.24095
 Cu258 Cu 0.23974 0.49946 0.26065
 C259 C 0.23711 0.48059 0.23748
 C260 C 0.26305 0.51838 0.26415
 C261 C 0.26323 0.48077 0.26425
 C262 C 0.23704 0.51819 0.23733
 O263 O 0.76783 0.98609 0.74771
 O264 O 0.74840 1.01446 0.76739
 O265 O 0.74813 0.98639 0.76759
 O266 O 0.76807 1.01418 0.74748
 O267 O 0.75094 1.01420 0.73095
 O268 O 0.73102 0.98642 0.75106
 O269 O 0.73128 1.01448 0.75087
 O270 O 0.75071 0.98612 0.73119
 Cu271 Cu 0.75984 1.00028 0.75921
 Cu272 Cu 0.73926 1.00031 0.73934
 C273 C 0.76252 0.98128 0.73615
 C274 C 0.73657 1.01928 0.76244
 C275 C 0.73622 0.98169 0.76270
 C276 C 0.76284 1.01891 0.73584
 O277 O 0.74883 0.51381 0.26721
 O278 O 0.76809 0.48549 0.24731
 O279 O 0.76838 0.51359 0.24718
 O280 O 0.74853 0.48575 0.26731
 O281 O 0.73131 0.48586 0.25088
 O282 O 0.75115 0.51369 0.23076
 O283 O 0.75087 0.48559 0.23089
 O284 O 0.73160 0.51392 0.25079
 Cu285 Cu 0.76020 0.49965 0.25891
 Cu286 Cu 0.73950 0.49978 0.23917
 C287 C 0.73698 0.51866 0.26235
 C288 C 0.76269 0.48071 0.23577
 C289 C 0.76309 0.51837 0.23559
 C290 C 0.73659 0.48107 0.26247
 O291 O 0.25156 -0.01500 0.76915
 O292 O 0.23141 0.01286 0.74940
 O293 O 0.23170 -0.01521 0.74942
 O294 O 0.25121 0.01308 0.76918
 O295 O 0.26820 0.01331 0.75253
 O296 O 0.24868 -0.01500 0.73276
 O297 O 0.24840 0.01308 0.73275
 O298 O 0.26855 -0.01476 0.75249
 Cu299 Cu 0.23976 -0.00109 0.76097
 Cu300 Cu 0.26017 -0.00082 0.74095
 C301 C 0.26344 -0.01961 0.76413
 C302 C 0.23653 0.01770 0.73776
 C303 C 0.23691 -0.01990 0.73778
 C304 C 0.26298 0.01800 0.76418
 O305 O 0.25329 0.23259 0.98619
 O306 O 0.23357 0.25257 1.01406
 O307 O 0.23350 0.25250 0.98618
 O308 O 0.25338 0.23267 1.01408
 O309 O 0.27039 0.24944 1.01397
 O310 O 0.25052 0.26926 0.98608
 O311 O 0.25059 0.26933 1.01395
 O312 O 0.27030 0.24936 0.98608
 Cu313 Cu 0.24172 0.24089 1.00014
 Cu314 Cu 0.26217 0.26104 1.00001
 C315 C 0.26510 0.23763 0.98140
 C316 C 0.23878 0.26430 1.01874
 C317 C 0.23867 0.26421 0.98139
 C318 C 0.26522 0.23773 1.01876
 O319 O 0.23297 0.75303 0.51378
 O320 O 0.25263 0.73331 0.48568
 O321 O 0.25264 0.73300 0.51356
 O322 O 0.23297 0.75335 0.48590
 O323 O 0.25010 0.77000 0.48607
 O324 O 0.26977 0.74964 0.51374
 O325 O 0.26976 0.74996 0.48586
 O326 O 0.25010 0.76968 0.51395
 Cu327 Cu 0.24107 0.74149 0.49971
 Cu328 Cu 0.26166 0.76150 0.49992
 C329 C 0.23824 0.76466 0.51863
 C330 C 0.26449 0.73833 0.48100
 C331 C 0.26450 0.73790 0.51835
 C332 C 0.23824 0.76509 0.48129
 O333 O 0.26724 0.75127 -0.01406
 O334 O 0.24767 0.73146 0.01410
 O335 O 0.24760 0.73116 -0.01380
 O336 O 0.26730 0.75156 0.01381
 O337 O 0.25015 0.76815 0.01366
 O338 O 0.23045 0.74775 -0.01395
 O339 O 0.23052 0.74805 0.01394
 O340 O 0.25008 0.76786 -0.01420
 Cu341 Cu 0.25918 0.73968 0.00002
 Cu342 Cu 0.23856 0.75962 -0.00015
 C343 C 0.26195 0.76289 -0.01890
 C344 C 0.23582 0.73645 0.01881
 C345 C 0.23573 0.73604 -0.01857
 C346 C 0.26203 0.76328 0.01841
 O347 O 0.26670 0.25090 0.48668
 O348 O 0.24692 0.23097 0.51458
 O349 O 0.24684 0.23101 0.48670
 O350 O 0.26675 0.25088 0.51454
 O351 O 0.24977 0.26766 0.51458
 O352 O 0.22987 0.24778 0.48674
 O353 O 0.22994 0.24774 0.51463
 O354 O 0.24973 0.26767 0.48672
 Cu355 Cu 0.25851 0.23924 0.50062
 Cu356 Cu 0.23811 0.25940 0.50067
 C357 C 0.26154 0.26264 0.48197
 C358 C 0.23511 0.23601 0.51935
 C359 C 0.23502 0.23607 0.48199
 C360 C 0.26161 0.26261 0.51927
 O361 O 0.75013 0.76941 0.98650
 O362 O 0.76984 0.74946 1.01442
 O363 O 0.76995 0.74955 0.98655
 O364 O 0.75004 0.76936 1.01438
 O365 O 0.73303 0.75258 1.01430
 O366 O 0.75295 0.73276 0.98645
 O367 O 0.75284 0.73268 1.01434
 O368 O 0.73312 0.75263 0.98641
 Cu369 Cu 0.76170 0.76114 1.00047
 Cu370 Cu 0.74127 0.74097 1.00037
 C371 C 0.73833 0.76437 0.98171
 C372 C 0.76464 0.73773 1.01912
 C373 C 0.76478 0.73784 0.98176
 C374 C 0.73820 0.76429 1.01906
 O375 O 0.75063 0.26895 0.48648
 O376 O 0.77020 0.24862 0.51423
 O377 O 0.77032 0.24896 0.48635
 O378 O 0.75053 0.26866 0.51435
 O379 O 0.73341 0.25200 0.51412
 O380 O 0.75320 0.23229 0.48610
 O381 O 0.75308 0.23196 0.51399
 O382 O 0.73352 0.25229 0.48624
 Cu383 Cu 0.76215 0.26048 0.50038
 Cu384 Cu 0.74158 0.24045 0.50009
 C385 C 0.73880 0.26402 0.48163
 C386 C 0.76492 0.23688 0.51882
 C387 C 0.76507 0.23734 0.48146
 C388 C 0.73866 0.26364 0.51899
 O389 O 0.74732 0.23115 0.01341
 O390 O 0.76720 0.25107 -0.01444
 O391 O 0.76718 0.25104 0.01343
 O392 O 0.74734 0.23118 -0.01447
 O393 O 0.73037 0.24795 -0.01448
 O394 O 0.75021 0.26782 0.01342
 O395 O 0.75023 0.26785 -0.01445
 O396 O 0.73035 0.24792 0.01340
 Cu397 Cu 0.75897 0.23941 -0.00052
 Cu398 Cu 0.73858 0.25958 -0.00053
 C399 C 0.73550 0.23620 0.01814
 C400 C 0.76205 0.26281 -0.01917
 C401 C 0.76203 0.26277 0.01815
 C402 C 0.73553 0.23623 -0.01922
 O403 O 0.76761 0.75119 0.48555
 O404 O 0.74754 0.73151 0.51344
 O405 O 0.74762 0.73143 0.48555
 O406 O 0.76754 0.75126 0.51341
 O407 O 0.75069 0.76816 0.51330
 O408 O 0.73077 0.74832 0.48545
 O409 O 0.73070 0.74841 0.51334
 O410 O 0.75076 0.76809 0.48544
 Cu411 Cu 0.75927 0.73964 0.49950
 Cu412 Cu 0.73902 0.75995 0.49937
 C413 C 0.76256 0.76295 0.48078
 C414 C 0.73576 0.73667 0.51813
 C415 C 0.73585 0.73655 0.48078
 C416 C 0.76247 0.76305 0.51807
 O417 O 0.98678 0.25100 0.22989
 O418 O 1.01514 0.23155 0.24973
 O419 O 0.98692 0.23141 0.24984
 O420 O 1.01500 0.25110 0.22980
 O421 O 1.01500 0.26816 0.24630
 O422 O 0.98693 0.24847 0.26633
 O423 O 1.01514 0.24861 0.26623
 O424 O 0.98679 0.26805 0.24639
 Cu425 Cu 1.00095 0.23954 0.23815
 Cu426 Cu 1.00096 0.26004 0.25798
 C427 C 0.98199 0.26279 0.23480
 C428 C 1.01997 0.23683 0.26130
 C429 C 0.98217 0.23663 0.26146
 C430 C 1.01977 0.26292 0.23469
 O431 O 0.48601 0.25120 0.73095
 O432 O 0.51431 0.23160 0.75071
 O433 O 0.48610 0.23151 0.75073
 O434 O 0.51423 0.25130 0.73090
 O435 O 0.51422 0.26825 0.74750
 O436 O 0.48608 0.24845 0.76734
 O437 O 0.51429 0.24855 0.76732
 O438 O 0.48600 0.26814 0.74756
 Cu439 Cu 0.50017 0.23970 0.73914
 Cu440 Cu 0.50015 0.26006 0.75911
 C441 C 0.48118 0.26295 0.73596
 C442 C 0.51910 0.23678 0.76234
 C443 C 0.48130 0.23667 0.76235
 C444 C 0.51900 0.26309 0.73587
 O445 O 0.01342 0.25100 0.76955
 O446 O -0.01476 0.23136 0.74964
 O447 O 0.01345 0.23115 0.74991
 O448 O -0.01480 0.25121 0.76924
 O449 O -0.01447 0.26802 0.75247
 O450 O 0.01377 0.24796 0.73314
 O451 O -0.01444 0.24817 0.73287
 O452 O 0.01374 0.26781 0.75278
 Cu453 Cu -0.00070 0.23949 0.76128
 Cu454 Cu -0.00031 0.25969 0.74113
 C455 C 0.01836 0.26271 0.76451
 C456 C -0.01939 0.23648 0.73792
 C457 C 0.01839 0.23618 0.73828
 C458 C -0.01944 0.26297 0.76409
 O459 O 0.48599 0.26786 0.25320
 O460 O 0.51411 0.24850 0.23301
 O461 O 0.48589 0.24850 0.23313
 O462 O 0.51420 0.26791 0.25309
 O463 O 0.51427 0.25071 0.26946
 O464 O 0.48597 0.23130 0.24950
 O465 O 0.51418 0.23130 0.24938
 O466 O 0.48606 0.25066 0.26957
 Cu467 Cu 0.50005 0.25993 0.24145
 Cu468 Cu 0.50013 0.23926 0.26113
 C469 C 0.48123 0.26250 0.26476
 C470 C 0.51891 0.23664 0.23780
 C471 C 0.48111 0.23665 0.23798
 C472 C 0.51903 0.26257 0.26463
 O473 O 0.98598 0.75124 0.73063
 O474 O 1.01429 0.73175 0.75049
 O475 O 0.98609 0.73166 0.75053
 O476 O 1.01422 0.75133 0.73056
 O477 O 1.01422 0.76837 0.74707
 O478 O 0.98609 0.74870 0.76704
 O479 O 1.01429 0.74879 0.76700
 O480 O 0.98599 0.76828 0.74714
 Cu481 Cu 1.00015 0.73978 0.73888
 Cu482 Cu 1.00015 0.76026 0.75872
 C483 C 0.98116 0.76301 0.73557
 C484 C 1.01908 0.73699 0.76209
 C485 C 0.98131 0.73688 0.76213
 C486 C 1.01900 0.76314 0.73546
 O487 O 0.48562 0.75174 0.23046
 O488 O 0.51397 0.73195 0.24995
 O489 O 0.48576 0.73198 0.25017
 O490 O 0.51383 0.75170 0.23018
 O491 O 0.51404 0.76859 0.24684
 O492 O 0.48595 0.74885 0.26684
 O493 O 0.51417 0.74883 0.26661
 O494 O 0.48581 0.76863 0.24713
 Cu495 Cu 0.49978 0.74014 0.23851
 Cu496 Cu 0.50002 0.76043 0.25854
 C497 C 0.48089 0.76350 0.23554
 C498 C 0.51888 0.73707 0.26155
 C499 C 0.48108 0.73711 0.26185
 C500 C 0.51870 0.76345 0.23516
 O501 O -0.01408 0.76806 0.25242
 O502 O 0.01409 0.74836 0.23263
 O503 O -0.01411 0.74829 0.23273
 O504 O 0.01415 0.76813 0.25232
 O505 O 0.01424 0.75125 0.26902
 O506 O -0.01402 0.73141 0.24943
 O507 O 0.01418 0.73147 0.24932
 O508 O -0.01399 0.75118 0.26912
 Cu509 Cu 0.00001 0.75992 0.24085
 Cu510 Cu 0.00011 0.73963 0.26091
 C511 C -0.01884 0.76291 0.26407
 C512 C 0.01891 0.73661 0.23765
 C513 C -0.01886 0.73652 0.23780
 C514 C 0.01900 0.76301 0.26395
 O515 O 0.48577 0.76814 0.75300
 O516 O 0.51401 0.74862 0.73313
 O517 O 0.48581 0.74862 0.73307
 O518 O 0.51399 0.76816 0.75308
 O519 O 0.51394 0.75107 0.76957
 O520 O 0.48576 0.73154 0.74957
 O521 O 0.51396 0.73154 0.74963
 O522 O 0.48572 0.75105 0.76950
 Cu523 Cu 0.49991 0.76011 0.74141
 Cu524 Cu 0.49985 0.73958 0.76123
 C525 C 0.48093 0.76286 0.76457
 C526 C 0.51877 0.73679 0.73803
 C527 C 0.48100 0.73681 0.73797
 C528 C 0.51875 0.76289 0.76468
 C529 C 0.36812 0.33097 0.33357
 C530 C 0.37842 0.32524 0.32809
 C531 C 0.39058 0.31824 0.32146
 C532 C 0.39229 0.30332 0.32278
 C533 C 0.40389 0.29642 0.31609
 C534 C 0.41394 0.30436 0.30796
 C535 C 0.41219 0.31937 0.30680
 C536 C 0.40057 0.32625 0.31350
 C537 C 0.42605 0.29697 0.30056
 C538 C 0.43996 0.30316 0.30020
 C539 C 0.45130 0.29622 0.29310
 C540 C 0.44889 0.28303 0.28626
 C541 C 0.43511 0.27678 0.28658
 C542 C 0.42377 0.28368 0.29368
 C543 C 0.46048 0.27593 0.27880
 C544 C 0.47004 0.26986 0.27245
 H545 H 0.38464 0.29702 0.32895
 H546 H 0.40505 0.28489 0.31735
 H547 H 0.41963 0.32575 0.30047
 H548 H 0.39931 0.33780 0.31237
 H549 H 0.44210 0.31329 0.30554
 H550 H 0.46194 0.30114 0.29294
 H551 H 0.43312 0.26660 0.28128
 H552 H 0.41315 0.27874 0.29358
 C553 C 0.36774 0.83149 0.83315
 C554 C 0.37797 0.82567 0.82763
 C555 C 0.39003 0.81858 0.82092
 C556 C 0.38952 0.80373 0.81845
 C557 C 0.40106 0.79683 0.81167
 C558 C 0.41329 0.80471 0.80725
 C559 C 0.41375 0.81963 0.80988
 C560 C 0.40217 0.82651 0.81666
 C561 C 0.42543 0.79741 0.79981
 C562 C 0.43989 0.80102 0.80293
 C563 C 0.45128 0.79411 0.79589
 C564 C 0.44837 0.78352 0.78563
 C565 C 0.43404 0.77987 0.78244
 C566 C 0.42264 0.78675 0.78947
 C567 C 0.46005 0.77637 0.77834
 C568 C 0.46967 0.77027 0.77212
 H569 H 0.38018 0.79749 0.82173
 H570 H 0.40047 0.78531 0.80998
 H571 H 0.42293 0.82601 0.80646
 H572 H 0.40265 0.83803 0.81848
 H573 H 0.44238 0.80906 0.81095
 H574 H 0.46234 0.79699 0.79846
 H575 H 0.43167 0.77172 0.77449
 H576 H 0.41164 0.78388 0.78668
 C577 C -0.13236 0.33261 0.83206
 C578 C -0.12206 0.32710 0.82635
 C579 C -0.10991 0.32040 0.81942
 C580 C -0.10815 0.32171 0.80461
 C581 C -0.09659 0.31487 0.79778
 C582 C -0.08663 0.30662 0.80568
 C583 C -0.08842 0.30548 0.82059
 C584 C -0.10000 0.31232 0.82740
 C585 C -0.07457 0.29906 0.79837
 C586 C -0.06068 0.29861 0.80454
 C587 C -0.04937 0.29139 0.79766
 C588 C -0.05180 0.28452 0.78456
 C589 C -0.06557 0.28491 0.77835
 C590 C -0.07688 0.29213 0.78519
 C591 C -0.04023 0.27700 0.77749
 C592 C -0.03066 0.27064 0.77144
 H593 H -0.11575 0.32796 0.79834
 H594 H -0.09539 0.31612 0.78633
 H595 H -0.08105 0.29907 0.82694
 H596 H -0.10130 0.31119 0.83886
 H597 H -0.05852 0.30398 0.81459
 H598 H -0.03874 0.29118 0.80255
 H599 H -0.06759 0.27958 0.76824
 H600 H -0.08749 0.29210 0.78028
 C601 C -0.13194 0.83177 0.33259
 C602 C -0.12177 0.82595 0.32696
 C603 C -0.10977 0.81885 0.32016
 C604 C -0.09727 0.82659 0.31663
 C605 C -0.08571 0.81969 0.30985
 C606 C -0.08653 0.80494 0.30649
 C607 C -0.09912 0.79724 0.31015
 C608 C -0.11065 0.80416 0.31694
 C609 C -0.07437 0.79763 0.29907
 C610 C -0.07713 0.78757 0.28816
 C611 C -0.06572 0.78067 0.28117
 C612 C -0.05140 0.78371 0.28498
 C613 C -0.04852 0.79371 0.29581
 C614 C -0.05993 0.80064 0.30281
 C615 C -0.03971 0.77653 0.27776
 C616 C -0.03008 0.77038 0.27158
 H617 H -0.09650 0.83798 0.31904
 H618 H -0.07624 0.82595 0.30701
 H619 H -0.10000 0.78584 0.30789
 H620 H -0.12027 0.79805 0.31966
 H621 H -0.08812 0.78517 0.28490
 H622 H -0.06807 0.77298 0.27278
 H623 H -0.03747 0.79612 0.29886
 H624 H -0.05746 0.80821 0.31127
 C625 C 0.63165 0.66821 0.33070
 C626 C 0.62139 0.67376 0.32496
 C627 C 0.60926 0.68044 0.31795
 C628 C 0.60622 0.67724 0.30364
 C629 C 0.59466 0.68396 0.29670
 C630 C 0.58597 0.69400 0.30398
 C631 C 0.58904 0.69706 0.31841
 C632 C 0.60062 0.69033 0.32533
 C633 C 0.57389 0.70139 0.29651
 C634 C 0.56062 0.70380 0.30349
 C635 C 0.54932 0.71090 0.29646
 C636 C 0.55115 0.71569 0.28238
 C637 C 0.56429 0.71332 0.27534
 C638 C 0.57558 0.70622 0.28234
 C639 C 0.53962 0.72315 0.27517
 C640 C 0.53008 0.72947 0.26901
 H641 H 0.61283 0.66959 0.29783
 H642 H 0.59245 0.68124 0.28565
 H643 H 0.58266 0.70486 0.32426
 H644 H 0.60291 0.69292 0.33640
 H645 H 0.55892 0.70006 0.31433
 H646 H 0.53918 0.71265 0.30200
 H647 H 0.56584 0.71704 0.26446
 H648 H 0.58573 0.70471 0.27674
 C649 C 0.63198 0.16784 0.83121
 C650 C 0.62166 0.17349 0.82567
 C651 C 0.60946 0.18036 0.81896
 C652 C 0.60279 0.17398 0.80712
 C653 C 0.59117 0.18083 0.80038
 C654 C 0.58609 0.19419 0.80540
 C655 C 0.59280 0.20045 0.81739
 C656 C 0.60441 0.19357 0.82412
 C657 C 0.57398 0.20165 0.79804
 C658 C 0.57442 0.21665 0.79590
 C659 C 0.56314 0.22367 0.78880
 C660 C 0.55127 0.21582 0.78374
 C661 C 0.55069 0.20091 0.78585
 C662 C 0.56197 0.19386 0.79295
 C663 C 0.53978 0.22308 0.77625
 C664 C 0.53027 0.22928 0.76993
 H665 H 0.60665 0.16378 0.80300
 H666 H 0.58636 0.17583 0.79107
 H667 H 0.58902 0.21062 0.82163
 H668 H 0.60948 0.19859 0.83330
 H669 H 0.58360 0.22293 0.79951
 H670 H 0.56372 0.23522 0.78718
 H671 H 0.54154 0.19473 0.78200
 H672 H 0.56124 0.18233 0.79457
 C673 C 1.13137 0.66774 0.83163
 C674 C 1.12111 0.67340 0.82600
 C675 C 1.10897 0.68027 0.81919
 C676 C 1.10342 0.67476 0.80639
 C677 C 1.09187 0.68164 0.79957
 C678 C 1.08572 0.69415 0.80547
 C679 C 1.09131 0.69955 0.81841
 C680 C 1.10286 0.69264 0.82521
 C681 C 1.07367 0.70167 0.79807
 C682 C 1.07333 0.71681 0.79738
 C683 C 1.06212 0.72388 0.79023
 C684 C 1.05108 0.71595 0.78368
 C685 C 1.05127 0.70089 0.78435
 C686 C 1.06248 0.69378 0.79149
 C687 C 1.03968 0.72327 0.77613
 C688 C 1.03022 0.72949 0.76974
 H689 H 1.10811 0.66522 0.80161
 H690 H 1.08794 0.67733 0.78954
 H691 H 1.08669 0.70904 0.82332
 H692 H 1.10705 0.69699 0.83513
 H693 H 1.08188 0.72317 0.80216
 H694 H 1.06211 0.73554 0.78973
 H695 H 1.04276 0.69464 0.77933
 H696 H 1.06234 0.68213 0.79197
 C697 C 1.13263 0.16861 0.33134
 C698 C 1.12251 0.17442 0.32560
 C699 C 1.11056 0.18145 0.31863
 C700 C 1.11100 0.19632 0.31619
 C701 C 1.09954 0.20316 0.30921
 C702 C 1.08745 0.19521 0.30456
 C703 C 1.08706 0.18028 0.30714
 C704 C 1.09856 0.17345 0.31412
 C705 C 1.07536 0.20245 0.29695
 C706 C 1.06089 0.19868 0.29983
 C707 C 1.04954 0.20554 0.29265
 C708 C 1.05250 0.21624 0.28251
 C709 C 1.06685 0.22004 0.27956
 C710 C 1.07820 0.21321 0.28672
 C711 C 1.04086 0.22336 0.27513
 C712 C 1.03124 0.22944 0.26886
 H713 H 1.12023 0.20262 0.31967
 H714 H 1.10007 0.21469 0.30756
 H715 H 1.07799 0.17383 0.30355
 H716 H 1.09812 0.16193 0.31591
 H717 H 1.05835 0.19057 0.30777
 H718 H 1.03847 0.20254 0.29505
 H719 H 1.06926 0.22828 0.27169
 H720 H 1.08922 0.21621 0.28412
 C721 C 0.63199 0.33205 0.66702
 C722 C 0.62161 0.32639 0.67246
 C723 C 0.60936 0.31951 0.67908
 C724 C 0.60180 0.32649 0.69004
 C725 C 0.59016 0.31964 0.69675
 C726 C 0.58594 0.30568 0.69261
 C727 C 0.59353 0.29882 0.68150
 C728 C 0.60516 0.30569 0.67479
 C729 C 0.57384 0.29822 0.70002
 C730 C 0.57488 0.28349 0.70341
 C731 C 0.56360 0.27649 0.71056
 C732 C 0.55114 0.28410 0.71441
 C733 C 0.54996 0.29874 0.71105
 C734 C 0.56124 0.30577 0.70390
 C735 C 0.53964 0.27686 0.72192
 C736 C 0.53015 0.27065 0.72826
 H737 H 0.60500 0.33717 0.69348
 H738 H 0.58465 0.32514 0.70539
 H739 H 0.59042 0.28816 0.67794
 H740 H 0.61092 0.30020 0.66631
 H741 H 0.58452 0.27743 0.70076
 H742 H 0.56465 0.26517 0.71316
 H743 H 0.54035 0.30472 0.71395
 H744 H 0.56005 0.31707 0.70130
 C745 C 0.63202 0.83237 0.16686
 C746 C 0.62158 0.82675 0.17223
 C747 C 0.60925 0.81994 0.17878
 C748 C 0.60328 0.82568 0.19129
 C749 C 0.59156 0.81886 0.19789
 C750 C 0.58566 0.80617 0.19207
 C751 C 0.59166 0.80056 0.17942
 C752 C 0.60338 0.80741 0.17283
 C753 C 0.57347 0.79869 0.19931
 C754 C 0.57327 0.78357 0.20034
 C755 C 0.56198 0.77653 0.20743
 C756 C 0.55072 0.78448 0.21356
 C757 C 0.55076 0.79952 0.21251
 C758 C 0.56206 0.80659 0.20544
 C759 C 0.53928 0.77720 0.22110
 C760 C 0.52981 0.77099 0.22748
 H761 H 0.60779 0.83534 0.19602
 H762 H 0.58731 0.82334 0.20772
 H763 H 0.58724 0.79092 0.17457
 H764 H 0.60790 0.80288 0.16313
 H765 H 0.58199 0.77719 0.19592
 H766 H 0.56208 0.76489 0.20822
 H767 H 0.54209 0.80578 0.21720
 H768 H 0.56181 0.81822 0.20467
 C769 C 1.13294 0.33233 0.16662
 C770 C 1.12255 0.32661 0.17196
 C771 C 1.11027 0.31966 0.17846
 C772 C 1.10279 0.32644 0.18959
 C773 C 1.09112 0.31952 0.19618
 C774 C 1.08678 0.30570 0.19173
 C775 C 1.09429 0.29903 0.18044
 C776 C 1.10596 0.30598 0.17387
 C777 C 1.07464 0.29816 0.19900
 C778 C 1.07557 0.28335 0.20206
 C779 C 1.06428 0.27629 0.20912
 C780 C 1.05190 0.28391 0.21320
 C781 C 1.05083 0.29863 0.21015
 C782 C 1.06212 0.30572 0.20310
 C783 C 1.04041 0.27663 0.22069
 C784 C 1.03091 0.27043 0.22704
 H785 H 1.10608 0.33701 0.19327
 H786 H 1.08568 0.32485 0.20496
 H787 H 1.09109 0.28848 0.17665
 H788 H 1.11165 0.30064 0.16525
 H789 H 1.08515 0.27727 0.19923
 H790 H 1.06525 0.26490 0.21148
 H791 H 1.04128 0.30463 0.21325
 H792 H 1.06101 0.31709 0.20075
 C793 C 1.13246 0.83191 0.66718
 C794 C 1.12205 0.82624 0.67255
 C795 C 1.10974 0.81937 0.67909
 C796 C 1.10214 0.82633 0.69002
 C797 C 1.09044 0.81948 0.69665
 C798 C 1.08620 0.80555 0.69244
 C799 C 1.09385 0.79870 0.68135
 C800 C 1.10553 0.80558 0.67473
 C801 C 1.07404 0.79810 0.69974
 C802 C 1.07501 0.78335 0.70309
 C803 C 1.06368 0.77637 0.71017
 C804 C 1.05123 0.78401 0.71400
 C805 C 1.05012 0.79866 0.71067
 C806 C 1.06145 0.80568 0.70360
 C807 C 1.03970 0.77680 0.72149
 C808 C 1.03017 0.77064 0.72783
 H809 H 1.10534 0.83699 0.69352
 H810 H 1.08490 0.82496 0.70527
 H811 H 1.09073 0.78807 0.67773
 H812 H 1.11133 0.80010 0.66626
 H813 H 1.08464 0.77727 0.70046
 H814 H 1.06468 0.76504 0.71275
 H815 H 1.04051 0.80467 0.71357
 H816 H 1.06031 0.81699 0.70102
 C817 C 0.36853 0.66828 0.66790
 C818 C 0.37874 0.67383 0.67372
 C819 C 0.39079 0.68054 0.68085
 C820 C 0.39192 0.67977 0.69575
 C821 C 0.40342 0.68653 0.70278
 C822 C 0.41394 0.69418 0.69498
 C823 C 0.41277 0.69480 0.67998
 C824 C 0.40125 0.68803 0.67298
 C825 C 0.42598 0.70162 0.70248
 C826 C 0.44011 0.70137 0.69688
 C827 C 0.45140 0.70843 0.70398
 C828 C 0.44871 0.71583 0.71674
 C829 C 0.43469 0.71615 0.72238
 C830 C 0.42340 0.70910 0.71531
 C831 C 0.46027 0.72314 0.72406
 C832 C 0.46981 0.72934 0.73034
 H833 H 0.38390 0.67397 0.70195
 H834 H 0.40413 0.68569 0.71430
 H835 H 0.42060 0.70074 0.67370
 H836 H 0.40044 0.68874 0.66144
 H837 H 0.44247 0.69558 0.68711
 H838 H 0.46222 0.70809 0.69953
 H839 H 0.43247 0.72189 0.73222
 H840 H 0.41261 0.70967 0.71979
 C841 C 0.36822 0.16820 0.16846
 C842 C 0.37838 0.17382 0.17431
 C843 C 0.39037 0.18063 0.18144
 C844 C 0.38999 0.18265 0.19626
 C845 C 0.40149 0.18948 0.20321
 C846 C 0.41355 0.19440 0.19541
 C847 C 0.41387 0.19224 0.18052
 C848 C 0.40234 0.18542 0.17359
 C849 C 0.42566 0.20185 0.20279
 C850 C 0.44011 0.19905 0.19895
 C851 C 0.45149 0.20605 0.20597
 C852 C 0.44856 0.21594 0.21688
 C853 C 0.43423 0.21882 0.22074
 C854 C 0.42285 0.21183 0.21375
 C855 C 0.46022 0.22314 0.22416
 C856 C 0.46984 0.22926 0.23040
 H857 H 0.38079 0.17896 0.20245
 H858 H 0.40101 0.19079 0.21470
 H859 H 0.42291 0.19606 0.17420
 H860 H 0.40272 0.18395 0.16210
 H861 H 0.44263 0.19130 0.19067
 H862 H 0.46255 0.20372 0.20292
 H863 H 0.43184 0.22649 0.22914
 H864 H 0.41184 0.21437 0.21681
 C865 C -0.13119 0.66728 0.16822
 C866 C -0.12094 0.67283 0.17400
 C867 C -0.10884 0.67955 0.18103
 C868 C -0.10552 0.67597 0.19519
 C869 C -0.09401 0.68275 0.20217
 C870 C -0.08565 0.69322 0.19507
 C871 C -0.08900 0.69666 0.18079
 C872 C -0.10053 0.68987 0.17383
 C873 C -0.07364 0.70068 0.20259
 C874 C -0.06052 0.70362 0.19550
 C875 C -0.04929 0.71077 0.20259
 C876 C -0.05102 0.71508 0.21682
 C877 C -0.06400 0.71218 0.22396
 C878 C -0.07524 0.70503 0.21691
 C879 C -0.03954 0.72257 0.22410
 C880 C -0.03004 0.72891 0.23030
 H881 H -0.11187 0.66798 0.20085
 H882 H -0.09158 0.67973 0.21310
 H883 H -0.08289 0.70480 0.17509
 H884 H -0.10305 0.69277 0.16288
 H885 H -0.05890 0.70026 0.18454
 H886 H -0.03927 0.71293 0.19697
 H887 H -0.06547 0.71553 0.23497
 H888 H -0.08527 0.70311 0.22259
 C889 C -0.13172 0.16732 0.66818
 C890 C -0.12157 0.17297 0.67403
 C891 C -0.10959 0.17979 0.68117
 C892 C -0.10936 0.18056 0.69611
 C893 C -0.09790 0.18743 0.70310
 C894 C -0.08651 0.19363 0.69523
 C895 C -0.08680 0.19271 0.68021
 C896 C -0.09828 0.18585 0.67324
 C897 C -0.07448 0.20115 0.70266
 C898 C -0.06009 0.19953 0.69799
 C899 C -0.04880 0.20663 0.70503
 C900 C -0.05173 0.21544 0.71681
 C901 C -0.06600 0.21714 0.72152
 C902 C -0.07730 0.21005 0.71451
 C903 C -0.04015 0.22277 0.72410
 C904 C -0.03059 0.22898 0.73034
 H905 H -0.11805 0.17589 0.70236
 H906 H -0.09790 0.18778 0.71468
 H907 H -0.07828 0.19753 0.67385
 H908 H -0.09838 0.18535 0.66166
 H909 H -0.05756 0.19262 0.68901
 H910 H -0.03779 0.20521 0.70131
 H911 H -0.06839 0.22398 0.73060
 H912 H -0.08826 0.21169 0.71824
 C913 C 0.33149 0.36814 0.33359
 C914 C 0.32598 0.37851 0.32807
 C915 C 0.31927 0.39077 0.32138
 C916 C 0.30488 0.39422 0.32449
 C917 C 0.29822 0.40589 0.31772
 C918 C 0.30587 0.41426 0.30770
 C919 C 0.32038 0.41077 0.30473
 C920 C 0.32702 0.39910 0.31152
 C921 C 0.29867 0.42640 0.30020
 C922 C 0.30106 0.42875 0.28552
 C923 C 0.29403 0.43997 0.27838
 C924 C 0.28455 0.44902 0.28580
 C925 C 0.28217 0.44685 0.30043
 C926 C 0.28918 0.43562 0.30759
 C927 C 0.27708 0.46035 0.27834
 C928 C 0.27078 0.46974 0.27197
 H929 H 0.29876 0.38780 0.33206
 H930 H 0.28699 0.40817 0.32010
 H931 H 0.32662 0.41711 0.29721
 H932 H 0.33818 0.39653 0.30905
 H933 H 0.30814 0.42173 0.27950
 H934 H 0.29591 0.44152 0.26705
 H935 H 0.27487 0.45381 0.30628
 H936 H 0.28726 0.43421 0.31893
 C937 C 0.33242 -0.13209 0.83298
 C938 C 0.32698 -0.12172 0.82740
 C939 C 0.32036 -0.10946 0.82061
 C940 C 0.30776 -0.10345 0.82635
 C941 C 0.30108 -0.09181 0.81953
 C942 C 0.30691 -0.08605 0.80685
 C943 C 0.31966 -0.09211 0.80124
 C944 C 0.32632 -0.10374 0.80808
 C945 C 0.29959 -0.07397 0.79938
 C946 C 0.29845 -0.07390 0.78437
 C947 C 0.29130 -0.06268 0.77734
 C948 C 0.28521 -0.05139 0.78518
 C949 C 0.28635 -0.05130 0.80010
 C950 C 0.29349 -0.06252 0.80717
 C951 C 0.27761 -0.04002 0.77790
 C952 C 0.27117 -0.03063 0.77168
 H953 H 0.30301 -0.10784 0.83601
 H954 H 0.29118 -0.08752 0.82401
 H955 H 0.32451 -0.08780 0.79161
 H956 H 0.33609 -0.10830 0.80356
 H957 H 0.30284 -0.08265 0.77809
 H958 H 0.29043 -0.06288 0.76578
 H959 H 0.28169 -0.04260 0.80628
 H960 H 0.29433 -0.06218 0.81871
 C961 C 0.83089 0.36861 0.83309
 C962 C 0.82522 0.37896 0.82769
 C963 C 0.81834 0.39119 0.82112
 C964 C 0.80459 0.39555 0.82565
 C965 C 0.79773 0.40718 0.81902
 C966 C 0.80452 0.41461 0.80773
 C967 C 0.81840 0.41021 0.80334
 C968 C 0.82524 0.39856 0.80999
 C969 C 0.79708 0.42673 0.80042
 C970 C 0.80481 0.43912 0.79630
 C971 C 0.79782 0.45040 0.78919
 C972 C 0.78303 0.44943 0.78610
 C973 C 0.77524 0.43719 0.79022
 C974 C 0.78220 0.42591 0.79733
 C975 C 0.77588 0.46089 0.77853
 C976 C 0.76980 0.47038 0.77210
 H977 H 0.79916 0.38993 0.83428
 H978 H 0.78713 0.41043 0.82277
 H979 H 0.82383 0.41557 0.79457
 H980 H 0.83586 0.39524 0.80635
 H981 H 0.81623 0.44015 0.79868
 H982 H 0.80396 0.45984 0.78607
 H983 H 0.76380 0.43631 0.78783
 H984 H 0.77599 0.41644 0.80019
 C985 C 0.83249 -0.13104 0.33276
 C986 C 0.82695 -0.12064 0.32734
 C987 C 0.82014 -0.10836 0.32079
 C988 C 0.80668 -0.10359 0.32574
 C989 C 0.79981 -0.09197 0.31911
 C990 C 0.80631 -0.08496 0.30740
 C991 C 0.81992 -0.08974 0.30260
 C992 C 0.82677 -0.10138 0.30925
 C993 C 0.79880 -0.07290 0.30006
 C994 C 0.80656 -0.06073 0.29537
 C995 C 0.79947 -0.04952 0.28826
 C996 C 0.78456 -0.05032 0.28574
 C997 C 0.77675 -0.06235 0.29041
 C998 C 0.78380 -0.07356 0.29753
 C999 C 0.77728 -0.03893 0.27818
 C1000 C 0.77106 -0.02952 0.27177
 H1001 H 0.80147 -0.10890 0.33468
 H1002 H 0.78944 -0.08841 0.32317
 H1003 H 0.82512 -0.08469 0.29351
 H1004 H 0.83716 -0.10502 0.30530
 H1005 H 0.81808 -0.05983 0.29731
 H1006 H 0.80562 -0.04024 0.28470
 H1007 H 0.76521 -0.06311 0.28846
 H1008 H 0.77757 -0.08287 0.30082
 C1009 C 0.33160 0.63138 0.66709
 C1010 C 0.32591 0.62105 0.67252
 C1011 C 0.31899 0.60886 0.67915
 C1012 C 0.30493 0.60496 0.67516
 C1013 C 0.29802 0.59339 0.68187
 C1014 C 0.30510 0.58556 0.69270
 C1015 C 0.31930 0.58948 0.69654
 C1016 C 0.32618 0.60107 0.68981
 C1017 C 0.29762 0.57352 0.70012
 C1018 C 0.30512 0.56081 0.70365
 C1019 C 0.29809 0.54960 0.71083
 C1020 C 0.28349 0.55093 0.71459
 C1021 C 0.27593 0.56349 0.71109
 C1022 C 0.28293 0.57471 0.70390
 C1023 C 0.27627 0.53950 0.72217
 C1024 C 0.27010 0.53004 0.72858
 H1025 H 0.29927 0.61091 0.66690
 H1026 H 0.28717 0.59051 0.67855
 H1027 H 0.32496 0.58379 0.70495
 H1028 H 0.33704 0.60403 0.69302
 H1029 H 0.31638 0.55950 0.70074
 H1030 H 0.30404 0.53990 0.71347
 H1031 H 0.26464 0.56466 0.71399
 H1032 H 0.27691 0.58442 0.70152
 C1033 C 0.33251 1.13212 0.16742
 C1034 C 0.32687 1.12175 0.17285
 C1035 C 0.32008 1.10950 0.17949
 C1036 C 0.30965 1.10153 0.17205
 C1037 C 0.30277 1.08986 0.17865
 C1038 C 0.30625 1.08601 0.19280
 C1039 C 0.31685 1.09402 0.20014
 C1040 C 0.32369 1.10568 0.19352
 C1041 C 0.29870 1.07386 0.19998
 C1042 C 0.30634 1.06433 0.20892
 C1043 C 0.29913 1.05312 0.21594
 C1044 C 0.28421 1.05129 0.21412
 C1045 C 0.27653 1.06065 0.20518
 C1046 C 0.28372 1.07185 0.19814
 C1047 C 0.27672 1.03998 0.22163
 C1048 C 0.27035 1.03063 0.22799
 H1049 H 0.30678 1.10438 0.16118
 H1050 H 0.29480 1.08380 0.17267
 H1051 H 0.31963 1.09145 0.21109
 H1052 H 0.33171 1.11181 0.19939
 H1053 H 0.31790 1.06548 0.21041
 H1054 H 0.30518 1.04593 0.22282
 H1055 H 0.26497 1.05936 0.20374
 H1056 H 0.27750 1.07912 0.19149
 C1057 C 0.83228 0.63101 0.16698
 C1058 C 0.82664 0.62062 0.17236
 C1059 C 0.81981 0.60835 0.17894
 C1060 C 0.82583 0.60216 0.19122
 C1061 C 0.81898 0.59051 0.19786
 C1062 C 0.80598 0.58491 0.19231
 C1063 C 0.80009 0.59114 0.17988
 C1064 C 0.80697 0.60278 0.17325
 C1065 C 0.79847 0.57281 0.19960
 C1066 C 0.78331 0.57284 0.20102
 C1067 C 0.77624 0.56162 0.20814
 C1068 C 0.78421 0.55020 0.21391
 C1069 C 0.79928 0.55001 0.21249
 C1070 C 0.80638 0.56124 0.20538
 C1071 C 0.77690 0.53882 0.22148
 C1072 C 0.77066 0.52941 0.22789
 H1073 H 0.83573 0.60643 0.19575
 H1074 H 0.82368 0.58608 0.20751
 H1075 H 0.79021 0.58696 0.17524
 H1076 H 0.80223 0.60749 0.16374
 H1077 H 0.77693 0.58168 0.19687
 H1078 H 0.76457 0.56190 0.20923
 H1079 H 0.80555 0.54122 0.21691
 H1080 H 0.81804 0.56082 0.20432
 C1081 C 0.83260 1.13121 0.66722
 C1082 C 0.82694 1.12084 0.67263
 C1083 C 0.82009 1.10861 0.67923
 C1084 C 0.82528 1.10328 0.69226
 C1085 C 0.81838 1.09166 0.69890
 C1086 C 0.80616 1.08522 0.69260
 C1087 C 0.80109 1.09058 0.67944
 C1088 C 0.80801 1.10220 0.67281
 C1089 C 0.79858 1.07313 0.69985
 C1090 C 0.78336 1.07251 0.70005
 C1091 C 0.77622 1.06133 0.70716
 C1092 C 0.78416 1.05060 0.71414
 C1093 C 0.79930 1.05105 0.71393
 C1094 C 0.80647 1.06224 0.70683
 C1095 C 0.77676 1.03928 0.72171
 C1096 C 0.77046 1.02991 0.72813
 H1097 H 0.83458 1.10820 0.69735
 H1098 H 0.82243 1.08791 0.70911
 H1099 H 0.79182 1.08574 0.67423
 H1100 H 0.80391 1.10622 0.66272
 H1101 H 0.77698 1.08083 0.69495
 H1102 H 0.76450 1.06111 0.70731
 H1103 H 0.80556 1.04279 0.71928
 H1104 H 0.81819 1.06232 0.70672
 C1105 C 0.66849 0.63131 0.33129
 C1106 C 0.67410 0.62098 0.32581
 C1107 C 0.68089 0.60877 0.31914
 C1108 C 0.69365 0.60306 0.32486
 C1109 C 0.70048 0.59145 0.31816
 C1110 C 0.69463 0.58540 0.30563
 C1111 C 0.68172 0.59115 0.30004
 C1112 C 0.67492 0.60276 0.30675
 C1113 C 0.70207 0.57332 0.29829
 C1114 C 0.69408 0.56187 0.29237
 C1115 C 0.70110 0.55063 0.28525
 C1116 C 0.71619 0.55069 0.28395
 C1117 C 0.72424 0.56199 0.28986
 C1118 C 0.71724 0.57322 0.29699
 C1119 C 0.72342 0.53927 0.27640
 C1120 C 0.72957 0.52981 0.27002
 H1121 H 0.69836 0.60761 0.33446
 H1122 H 0.71029 0.58715 0.32283
 H1123 H 0.67705 0.58686 0.29031
 H1124 H 0.66508 0.60714 0.30221
 H1125 H 0.68241 0.56154 0.29335
 H1126 H 0.69477 0.54192 0.28074
 H1127 H 0.73592 0.56216 0.28886
 H1128 H 0.72368 0.58197 0.30125
 C1129 C 0.66788 1.13197 0.83115
 C1130 C 0.67349 1.12169 0.82558
 C1131 C 0.68030 1.10954 0.81883
 C1132 C 0.69255 1.10325 0.82501
 C1133 C 0.69939 1.09166 0.81829
 C1134 C 0.69405 1.08620 0.80528
 C1135 C 0.68166 1.09254 0.79921
 C1136 C 0.67484 1.10413 0.80594
 C1137 C 0.70150 1.07410 0.79797
 C1138 C 0.69349 1.06310 0.79129
 C1139 C 0.70054 1.05183 0.78424
 C1140 C 0.71567 1.05141 0.78376
 C1141 C 0.72373 1.06227 0.79041
 C1142 C 0.71671 1.07354 0.79747
 C1143 C 0.72294 1.03996 0.77631
 C1144 C 0.72912 1.03046 0.77001
 H1145 H 0.69685 1.10733 0.83499
 H1146 H 0.70880 1.08690 0.82332
 H1147 H 0.67740 1.08871 0.78911
 H1148 H 0.66539 1.10896 0.80104
 H1149 H 0.68178 1.06314 0.79163
 H1150 H 0.69419 1.04347 0.77915
 H1151 H 0.73545 1.06208 0.79005
 H1152 H 0.72318 1.08194 0.80233
 C1153 C 0.16789 0.63149 0.83223
 C1154 C 0.17350 0.62119 0.82669
 C1155 C 0.18028 0.60902 0.81994
 C1156 C 0.17514 0.60397 0.80679
 C1157 C 0.18194 0.59238 0.80004
 C1158 C 0.19401 0.58567 0.80637
 C1159 C 0.19902 0.59076 0.81965
 C1160 C 0.19220 0.60236 0.82638
 C1161 C 0.20145 0.57358 0.79904
 C1162 C 0.21665 0.57271 0.79901
 C1163 C 0.22367 0.56148 0.79188
 C1164 C 0.21562 0.55097 0.78470
 C1165 C 0.20049 0.55168 0.78473
 C1166 C 0.19344 0.56290 0.79185
 C1167 C 0.22289 0.53958 0.77715
 C1168 C 0.22907 0.53014 0.77076
 H1169 H 0.16596 0.60909 0.80168
 H1170 H 0.17794 0.58884 0.78974
 H1171 H 0.20816 0.58572 0.82487
 H1172 H 0.19626 0.60616 0.83657
 H1173 H 0.22313 0.58086 0.80427
 H1174 H 0.23539 0.56107 0.79188
 H1175 H 0.19414 0.54358 0.77923
 H1176 H 0.18173 0.56317 0.79182
 C1177 C 0.16803 1.13228 0.33180
 C1178 C 0.17362 1.12198 0.32625
 C1179 C 0.18040 1.10980 0.31950
 C1180 C 0.17447 1.10393 0.30702
 C1181 C 0.18127 1.09235 0.30024
 C1182 C 0.19412 1.08650 0.30585
 C1183 C 0.19992 1.09241 0.31847
 C1184 C 0.19310 1.10398 0.32524
 C1185 C 0.20155 1.07445 0.29846
 C1186 C 0.21673 1.07430 0.29724
 C1187 C 0.22373 1.06309 0.29007
 C1188 C 0.21567 1.05187 0.28403
 C1189 C 0.20058 1.05187 0.28524
 C1190 C 0.19355 1.06308 0.29240
 C1191 C 0.22290 1.04048 0.27645
 C1192 C 0.22904 1.03103 0.27003
 H1193 H 0.16467 1.10839 0.30246
 H1194 H 0.17664 1.08817 0.29046
 H1195 H 0.20969 1.08803 0.32315
 H1196 H 0.19777 1.10843 0.33490
 H1197 H 0.22318 1.08299 0.30161
 H1198 H 0.23542 1.06322 0.28915
 H1199 H 0.19423 1.04322 0.28062
 H1200 H 0.18187 1.06279 0.29330
 C1201 C 0.66879 0.36909 0.66741
 C1202 C 0.67431 0.37943 0.67300
 C1203 C 0.68102 0.39164 0.67976
 C1204 C 0.67512 0.39739 0.69230
 C1205 C 0.68186 0.40902 0.69908
 C1206 C 0.69462 0.41503 0.69342
 C1207 C 0.70039 0.40924 0.68074
 C1208 C 0.69363 0.39762 0.67397
 C1209 C 0.70200 0.42712 0.70083
 C1210 C 0.71718 0.42740 0.70197
 C1211 C 0.72414 0.43863 0.70917
 C1212 C 0.71603 0.44975 0.71531
 C1213 C 0.70093 0.44962 0.71416
 C1214 C 0.69395 0.43839 0.70697
 C1215 C 0.72322 0.46114 0.72295
 C1216 C 0.72934 0.47056 0.72943
 H1217 H 0.66540 0.39280 0.69691
 H1218 H 0.67725 0.41311 0.70892
 H1219 H 0.71009 0.41375 0.67602
 H1220 H 0.69828 0.39327 0.66426
 H1221 H 0.72367 0.41879 0.69754
 H1222 H 0.73583 0.43859 0.71005
 H1223 H 0.69455 0.45819 0.71885
 H1224 H 0.68226 0.43857 0.70612
 C1225 C 0.66858 -0.13138 0.16827
 C1226 C 0.67423 -0.12126 0.17410
 C1227 C 0.68111 -0.10933 0.18119
 C1228 C 0.68293 -0.09618 0.17407
 C1229 C 0.68982 -0.08468 0.18093
 C1230 C 0.69500 -0.08621 0.19500
 C1231 C 0.69303 -0.09944 0.20208
 C1232 C 0.68614 -0.11091 0.19521
 C1233 C 0.70252 -0.07410 0.20225
 C1234 C 0.71482 -0.07669 0.21075
 C1235 C 0.72185 -0.06534 0.21767
 C1236 C 0.71672 -0.05125 0.21620
 C1237 C 0.70452 -0.04853 0.20774
 C1238 C 0.69747 -0.05988 0.20079
 C1239 C 0.72393 -0.03963 0.22348
 C1240 C 0.73007 -0.03004 0.22972
 H1241 H 0.67911 -0.09486 0.16320
 H1242 H 0.69131 -0.07469 0.17514
 H1243 H 0.69671 -0.10089 0.21298
 H1244 H 0.68475 -0.12103 0.20084
 H1245 H 0.71909 -0.08748 0.21192
 H1246 H 0.73130 -0.06755 0.22416
 H1247 H 0.70043 -0.03766 0.20657
 H1248 H 0.68794 -0.05756 0.19446
 C1249 C 0.16876 0.36833 0.16751
 C1250 C 0.17423 0.37859 0.17328
 C1251 C 0.18086 0.39070 0.18029
 C1252 C 0.17654 0.39456 0.19411
 C1253 C 0.18323 0.40608 0.20110
 C1254 C 0.19435 0.41391 0.19435
 C1255 C 0.19852 0.41003 0.18040
 C1256 C 0.19182 0.39849 0.17344
 C1257 C 0.20171 0.42592 0.20191
 C1258 C 0.20542 0.43866 0.19460
 C1259 C 0.21250 0.44987 0.20173
 C1260 C 0.21598 0.44850 0.21623
 C1261 C 0.21231 0.43590 0.22360
 C1262 C 0.20522 0.42468 0.21651
 C1263 C 0.22339 0.45996 0.22357
 C1264 C 0.22964 0.46944 0.22985
 H1265 H 0.16804 0.38861 0.19950
 H1266 H 0.17964 0.40892 0.21175
 H1267 H 0.20716 0.41573 0.17500
 H1268 H 0.19529 0.39556 0.16276
 H1269 H 0.20271 0.44000 0.18341
 H1270 H 0.21527 0.45960 0.19593
 H1271 H 0.21500 0.43470 0.23482
 H1272 H 0.20270 0.41495 0.22238
 C1273 C 0.16843 -0.13225 0.66803
 C1274 C 0.17394 -0.12202 0.67379
 C1275 C 0.18060 -0.10992 0.68082
 C1276 C 0.17660 -0.10633 0.69479
 C1277 C 0.18330 -0.09481 0.70178
 C1278 C 0.19412 -0.08672 0.69487
 C1279 C 0.19799 -0.09034 0.68077
 C1280 C 0.19128 -0.10188 0.67380
 C1281 C 0.20149 -0.07469 0.70241
 C1282 C 0.20483 -0.06181 0.69517
 C1283 C 0.21191 -0.05058 0.70228
 C1284 C 0.21575 -0.05207 0.71668
 C1285 C 0.21245 -0.06482 0.72397
 C1286 C 0.20537 -0.07606 0.71690
 C1287 C 0.22316 -0.04059 0.72398
 C1288 C 0.22942 -0.03108 0.73022
 H1289 H 0.16833 -0.11247 0.70031
 H1290 H 0.17994 -0.09217 0.71256
 H1291 H 0.20641 -0.08444 0.67522
 H1292 H 0.19450 -0.10460 0.66300
 H1293 H 0.20183 -0.06037 0.68407
 H1294 H 0.21438 -0.04074 0.69654
 H1295 H 0.21542 -0.06612 0.73511
 H1296 H 0.20314 -0.08591 0.72271
 C1297 C 0.33117 0.33128 0.37014
 C1298 C 0.32555 0.32573 0.38040
 C1299 C 0.31875 0.31900 0.39253
 C1300 C 0.32226 0.30482 0.39621
 C1301 C 0.31541 0.29813 0.40778
 C1302 C 0.30493 0.30556 0.41582
 C1303 C 0.30156 0.31986 0.41209
 C1304 C 0.30843 0.32652 0.40052
 C1305 C 0.29740 0.29834 0.42788
 C1306 C 0.28245 0.30030 0.42997
 C1307 C 0.27529 0.29325 0.44114
 C1308 C 0.28295 0.28417 0.45037
 C1309 C 0.29784 0.28222 0.44845
 C1310 C 0.30503 0.28926 0.43728
 C1311 C 0.27549 0.27666 0.46164
 C1312 C 0.26916 0.27030 0.47098
 H1313 H 0.33019 0.29888 0.39006
 H1314 H 0.31810 0.28706 0.41025
 H1315 H 0.29368 0.32592 0.41818
 H1316 H 0.30566 0.33752 0.39778
 H1317 H 0.27623 0.30705 0.42281
 H1318 H 0.26374 0.29478 0.44249
 H1319 H 0.30389 0.27523 0.45555
 H1320 H 0.31657 0.28767 0.43606
 C1321 C 0.33139 0.83188 -0.13066
 C1322 C 0.32566 0.82641 -0.12043
 C1323 C 0.31869 0.81976 -0.10835
 C1324 C 0.30476 0.82405 -0.10433
 C1325 C 0.29781 0.81732 -0.09285
 C1326 C 0.30470 0.80619 -0.08523
 C1327 C 0.31877 0.80205 -0.08928
 C1328 C 0.32570 0.80879 -0.10077
 C1329 C 0.29718 0.79878 -0.07327
 C1330 C 0.30472 0.79497 -0.06076
 C1331 C 0.29764 0.78782 -0.04960
 C1332 C 0.28294 0.78439 -0.05080
 C1333 C 0.27533 0.78816 -0.06319
 C1334 C 0.28239 0.79531 -0.07435
 C1335 C 0.27566 0.77687 -0.03942
 C1336 C 0.26945 0.77051 -0.02999
 H1337 H 0.29925 0.83254 -0.11010
 H1338 H 0.28707 0.82087 -0.08988
 H1339 H 0.32429 0.79340 -0.08376
 H1340 H 0.33646 0.80535 -0.10384
 H1341 H 0.31607 0.79764 -0.05954
 H1342 H 0.30362 0.78497 -0.04005
 H1343 H 0.26396 0.78550 -0.06425
 H1344 H 0.27633 0.79791 -0.08392
 C1345 C 0.83107 0.33214 -0.13097
 C1346 C 0.82560 0.32646 -0.12071
 C1347 C 0.81893 0.31960 -0.10858
 C1348 C 0.80949 0.32736 -0.09979
 C1349 C 0.80271 0.32059 -0.08823
 C1350 C 0.80530 0.30594 -0.08530
 C1351 C 0.81490 0.29827 -0.09414
 C1352 C 0.82166 0.30506 -0.10570
 C1353 C 0.79782 0.29863 -0.07325
 C1354 C 0.80524 0.28865 -0.06461
 C1355 C 0.79809 0.28157 -0.05345
 C1356 C 0.78346 0.28436 -0.05077
 C1357 C 0.77602 0.29432 -0.05925
 C1358 C 0.78314 0.30142 -0.07040
 C1359 C 0.77602 0.27683 -0.03950
 C1360 C 0.76969 0.27046 -0.03016
 H1361 H 0.80732 0.33862 -0.10191
 H1362 H 0.79553 0.32683 -0.08151
 H1363 H 0.81697 0.28694 -0.09229
 H1364 H 0.82890 0.29893 -0.11247
 H1365 H 0.81659 0.28640 -0.06641
 H1366 H 0.80397 0.27389 -0.04693
 H1367 H 0.76467 0.29652 -0.05731
 H1368 H 0.77708 0.30889 -0.07698
 C1369 C 0.83221 0.83205 0.36924
 C1370 C 0.82662 0.82653 0.37953
 C1371 C 0.81984 0.81980 0.39167
 C1372 C 0.80612 0.82428 0.39614
 C1373 C 0.79934 0.81747 0.40768
 C1374 C 0.80620 0.80606 0.41489
 C1375 C 0.82006 0.80172 0.41039
 C1376 C 0.82682 0.80855 0.39885
 C1377 C 0.79883 0.79855 0.42688
 C1378 C 0.79961 0.78347 0.42816
 C1379 C 0.79242 0.77635 0.43926
 C1380 C 0.78438 0.78420 0.44925
 C1381 C 0.78360 0.79921 0.44813
 C1382 C 0.79077 0.80635 0.43703
 C1383 C 0.77675 0.77681 0.46049
 C1384 C 0.77030 0.77053 0.46980
 H1385 H 0.80059 0.83294 0.39062
 H1386 H 0.78860 0.82094 0.41076
 H1387 H 0.82570 0.79310 0.41584
 H1388 H 0.83746 0.80501 0.39549
 H1389 H 0.80555 0.77714 0.42042
 H1390 H 0.79305 0.76473 0.44000
 H1391 H 0.77742 0.80539 0.45582
 H1392 H 0.79011 0.81798 0.43643
 C1393 C 0.66931 0.33238 0.63079
 C1394 C 0.67505 0.32688 0.62058
 C1395 C 0.68201 0.32022 0.60852
 C1396 C 0.67491 0.30938 0.60084
 C1397 C 0.68182 0.30265 0.58935
 C1398 C 0.69596 0.30667 0.58541
 C1399 C 0.70296 0.31766 0.59313
 C1400 C 0.69602 0.32438 0.60461
 C1401 C 0.70345 0.29929 0.57343
 C1402 C 0.71819 0.29565 0.57456
 C1403 C 0.72522 0.28854 0.56338
 C1404 C 0.71763 0.28498 0.55092
 C1405 C 0.70299 0.28858 0.54966
 C1406 C 0.69593 0.29569 0.56084
 C1407 C 0.72489 0.27751 0.53951
 C1408 C 0.73110 0.27120 0.53007
 H1409 H 0.66408 0.30604 0.60382
 H1410 H 0.67622 0.29411 0.58374
 H1411 H 0.71376 0.32112 0.59024
 H1412 H 0.70161 0.33277 0.61047
 H1413 H 0.72422 0.29809 0.58418
 H1414 H 0.73654 0.28576 0.56448
 H1415 H 0.69702 0.28590 0.54005
 H1416 H 0.68463 0.29849 0.55959
 C1417 C 0.66865 0.83263 1.13094
 C1418 C 0.67433 0.82724 1.12065
 C1419 C 0.68125 0.82069 1.10851
 C1420 C 0.67455 0.80926 1.10135
 C1421 C 0.68146 0.80261 1.08981
 C1422 C 0.69521 0.80731 1.08530
 C1423 C 0.70180 0.81890 1.09249
 C1424 C 0.69486 0.82553 1.10402
 C1425 C 0.70275 0.79999 1.07331
 C1426 C 0.71769 0.79720 1.07410
 C1427 C 0.72477 0.79010 1.06294
 C1428 C 0.71703 0.78571 1.05084
 C1429 C 0.70217 0.78848 1.04992
 C1430 C 0.69507 0.79557 1.06108
 C1431 C 0.72434 0.77822 1.03948
 C1432 C 0.73059 0.77189 1.03009
 H1433 H 0.66404 0.80538 1.10478
 H1434 H 0.67619 0.79361 1.08461
 H1435 H 0.71229 0.82289 1.08915
 H1436 H 0.70014 0.83439 1.10947
 H1437 H 0.72387 0.80028 1.08345
 H1438 H 0.73626 0.78796 1.06378
 H1439 H 0.69608 0.78515 1.04059
 H1440 H 0.68359 0.79771 1.06009
 C1441 C 0.16958 0.33281 1.13071
 C1442 C 0.17528 0.32743 1.12043
 C1443 C 0.18220 0.32088 1.10828
 C1444 C 0.17526 0.30978 1.10082
 C1445 C 0.18215 0.30314 1.08927
 C1446 C 0.19610 0.30750 1.08505
 C1447 C 0.20293 0.31875 1.09255
 C1448 C 0.19601 0.32538 1.10409
 C1449 C 0.20361 0.30016 1.07306
 C1450 C 0.21845 0.29691 1.07401
 C1451 C 0.22548 0.28979 1.06284
 C1452 C 0.21780 0.28584 1.05056
 C1453 C 0.20305 0.28908 1.04946
 C1454 C 0.19599 0.29619 1.06063
 C1455 C 0.22505 0.27832 1.03918
 C1456 C 0.23126 0.27195 1.02978
 H1457 H 0.16459 0.30617 1.10402
 H1458 H 0.17669 0.29439 1.08384
 H1459 H 0.21358 0.32247 1.08945
 H1460 H 0.20147 0.33398 1.10978
 H1461 H 0.22457 0.29963 1.08351
 H1462 H 0.23689 0.28728 1.06382
 H1463 H 0.19701 0.28609 1.03999
 H1464 H 0.18461 0.29870 1.05951
 C1465 C 0.16900 0.83229 0.63116
 C1466 C 0.17467 0.82694 0.62085
 C1467 C 0.18159 0.82045 0.60866
 C1468 C 0.19541 0.82499 0.60449
 C1469 C 0.20233 0.81842 0.59292
 C1470 C 0.19552 0.80721 0.58536
 C1471 C 0.18156 0.80282 0.58955
 C1472 C 0.17466 0.80940 0.60114
 C1473 C 0.20303 0.79996 0.57331
 C1474 C 0.19541 0.79605 0.56086
 C1475 C 0.20248 0.78905 0.54963
 C1476 C 0.21725 0.78585 0.55068
 C1477 C 0.22492 0.78973 0.56299
 C1478 C 0.21788 0.79674 0.57422
 C1479 C 0.22452 0.77846 0.53923
 C1480 C 0.23072 0.77220 0.52976
 H1481 H 0.20086 0.83356 0.61023
 H1482 H 0.21298 0.82218 0.58983
 H1483 H 0.17611 0.79410 0.58406
 H1484 H 0.16399 0.80576 0.60431
 H1485 H 0.18402 0.79853 0.55977
 H1486 H 0.19644 0.78611 0.54014
 H1487 H 0.23634 0.78726 0.56394
 H1488 H 0.22400 0.79942 0.58373
 C1489 C 0.33231 0.66829 0.63058
 C1490 C 0.32692 0.67388 0.62023
 C1491 C 0.32037 0.68068 0.60801
 C1492 C 0.31010 0.67325 0.59984
 C1493 C 0.30345 0.68000 0.58821
 C1494 C 0.30698 0.69429 0.58458
 C1495 C 0.31741 0.70162 0.59278
 C1496 C 0.32404 0.69486 0.60442
 C1497 C 0.29964 0.70161 0.57246
 C1498 C 0.30744 0.71069 0.56319
 C1499 C 0.30043 0.71783 0.55198
 C1500 C 0.28555 0.71599 0.54991
 C1501 C 0.27771 0.70691 0.55901
 C1502 C 0.28469 0.69976 0.57021
 C1503 C 0.27825 0.72363 0.53862
 C1504 C 0.27203 0.73010 0.52930
 H1505 H 0.30719 0.66227 0.60251
 H1506 H 0.29560 0.67401 0.58199
 H1507 H 0.32022 0.71269 0.59039
 H1508 H 0.33193 0.70073 0.61071
 H1509 H 0.31898 0.71220 0.56453
 H1510 H 0.30661 0.72481 0.54499
 H1511 H 0.26617 0.70546 0.55753
 H1512 H 0.27835 0.69301 0.57727
 C1513 C 0.33295 0.16837 1.13124
 C1514 C 0.32763 0.17399 1.12087
 C1515 C 0.32118 0.18088 1.10864
 C1516 C 0.32632 0.19426 1.10399
 C1517 C 0.31977 0.20119 1.09240
 C1518 C 0.30797 0.19480 1.08529
 C1519 C 0.30298 0.18127 1.08996
 C1520 C 0.30954 0.17437 1.10157
 C1521 C 0.30074 0.20235 1.07324
 C1522 C 0.29607 0.19467 1.06111
 C1523 C 0.28905 0.20178 1.04989
 C1524 C 0.28660 0.21663 1.05066
 C1525 C 0.29125 0.22437 1.06265
 C1526 C 0.29827 0.21729 1.07386
 C1527 C 0.27915 0.22394 1.03925
 C1528 C 0.27283 0.23017 1.02982
 H1529 H 0.33534 0.19939 1.10938
 H1530 H 0.32399 0.21150 1.08894
 H1531 H 0.29381 0.17616 1.08484
 H1532 H 0.30543 0.16403 1.10512
 H1533 H 0.29797 0.18320 1.06024
 H1534 H 0.28552 0.19569 1.04065
 H1535 H 0.28935 0.23586 1.06337
 H1536 H 0.30154 0.22346 1.08314
 C1537 C 0.83240 0.66756 1.13111
 C1538 C 0.82699 0.67330 1.12085
 C1539 C 0.82046 0.68031 1.10873
 C1540 C 0.80904 0.67369 1.10141
 C1541 C 0.80244 0.68068 1.08988
 C1542 C 0.80718 0.69442 1.08554
 C1543 C 0.81875 0.70092 1.09290
 C1544 C 0.82533 0.69390 1.10442
 C1545 C 0.79994 0.70203 1.07354
 C1546 C 0.79713 0.71690 1.07440
 C1547 C 0.79013 0.72404 1.06321
 C1548 C 0.78584 0.71644 1.05101
 C1549 C 0.78862 0.70166 1.05001
 C1550 C 0.79562 0.69449 1.06120
 C1551 C 0.77845 0.72382 1.03961
 C1552 C 0.77219 0.73011 1.03019
 H1553 H 0.80514 0.66319 1.10470
 H1554 H 0.79345 0.67548 1.08455
 H1555 H 0.82277 0.71140 1.08970
 H1556 H 0.83418 0.69911 1.11000
 H1557 H 0.80013 0.72296 1.08384
 H1558 H 0.78797 0.73547 1.06412
 H1559 H 0.78537 0.69568 1.04060
 H1560 H 0.79778 0.68308 1.06014
 C1561 C 0.83292 0.16743 0.63103
 C1562 C 0.82753 0.17299 0.62067
 C1563 C 0.82096 0.17975 0.60844
 C1564 C 0.81050 0.17238 0.60046
 C1565 C 0.80380 0.17911 0.58883
 C1566 C 0.80748 0.19332 0.58504
 C1567 C 0.81810 0.20058 0.59305
 C1568 C 0.82478 0.19384 0.60468
 C1569 C 0.80009 0.20062 0.57294
 C1570 C 0.80791 0.20952 0.56350
 C1571 C 0.80087 0.21665 0.55231
 C1572 C 0.78594 0.21500 0.55042
 C1573 C 0.77808 0.20611 0.55969
 C1574 C 0.78510 0.19896 0.57087
 C1575 C 0.77862 0.22262 0.53914
 C1576 C 0.77241 0.22909 0.52980
 H1577 H 0.80747 0.16146 0.60326
 H1578 H 0.79580 0.17317 0.58276
 H1579 H 0.82103 0.21159 0.59052
 H1580 H 0.83282 0.19967 0.61082
 H1581 H 0.81949 0.21088 0.56470
 H1582 H 0.80706 0.22349 0.54519
 H1583 H 0.76651 0.20480 0.55836
 H1584 H 0.77875 0.19235 0.57807
 C1585 C 0.66797 0.66801 0.36794
 C1586 C 0.67340 0.67349 0.37832
 C1587 C 0.68001 0.68014 0.39059
 C1588 C 0.69420 0.67659 0.39443
 C1589 C 0.70077 0.68329 0.40614
 C1590 C 0.69323 0.69368 0.41415
 C1591 C 0.67892 0.69710 0.41027
 C1592 C 0.67237 0.69037 0.39856
 C1593 C 0.70035 0.70109 0.42634
 C1594 C 0.69840 0.71596 0.42849
 C1595 C 0.70538 0.72301 0.43975
 C1596 C 0.71440 0.71531 0.44902
 C1597 C 0.71633 0.70049 0.44706
 C1598 C 0.70936 0.69342 0.43580
 C1599 C 0.72187 0.72268 0.46037
 C1600 C 0.72821 0.72896 0.46975
 H1601 H 0.70023 0.66873 0.38830
 H1602 H 0.71185 0.68056 0.40873
 H1603 H 0.67277 0.70491 0.41633
 H1604 H 0.66137 0.69319 0.39569
 H1605 H 0.69170 0.72220 0.42129
 H1606 H 0.70386 0.73449 0.44113
 H1607 H 0.72327 0.69442 0.45419
 H1608 H 0.71094 0.68193 0.43454
 C1609 C 0.66790 0.16763 -0.13217
 C1610 C 0.67337 0.17306 -0.12178
 C1611 C 0.68000 0.17968 -0.10950
 C1612 C 0.69445 0.17673 -0.10615
 C1613 C 0.70103 0.18344 -0.09445
 C1614 C 0.69322 0.19322 -0.08595
 C1615 C 0.67865 0.19603 -0.08934
 C1616 C 0.67210 0.18930 -0.10105
 C1617 C 0.70032 0.20065 -0.07375
 C1618 C 0.69768 0.21534 -0.07114
 C1619 C 0.70462 0.22242 -0.05987
 C1620 C 0.71426 0.21493 -0.05105
 C1621 C 0.71688 0.20029 -0.05349
 C1622 C 0.70997 0.19319 -0.06477
 C1623 C 0.72166 0.22234 -0.03967
 C1624 C 0.72795 0.22863 -0.03027
 H1625 H 0.70069 0.16935 -0.11266
 H1626 H 0.71230 0.18120 -0.09224
 H1627 H 0.67231 0.20336 -0.08290
 H1628 H 0.66089 0.19164 -0.10353
 H1629 H 0.69048 0.22143 -0.07798
 H1630 H 0.70256 0.23376 -0.05811
 H1631 H 0.72432 0.19439 -0.04672
 H1632 H 0.71209 0.18184 -0.06639
 C1633 C 0.16776 0.66730 -0.13122
 C1634 C 0.17318 0.67278 -0.12083
 C1635 C 0.17975 0.67946 -0.10855
 C1636 C 0.17610 0.69359 -0.10485
 C1637 C 0.18275 0.70024 -0.09316
 C1638 C 0.19317 0.69283 -0.08501
 C1639 C 0.19667 0.67857 -0.08876
 C1640 C 0.19000 0.67194 -0.10045
 C1641 C 0.20053 0.70003 -0.07284
 C1642 C 0.21547 0.69814 -0.07058
 C1643 C 0.22247 0.70520 -0.05934
 C1644 C 0.21466 0.71424 -0.05020
 C1645 C 0.19978 0.71611 -0.05228
 C1646 C 0.19275 0.70906 -0.06352
 C1647 C 0.22198 0.72181 -0.03889
 C1648 C 0.22821 0.72825 -0.02954
 H1649 H 0.16822 0.69953 -0.11108
 H1650 H 0.17996 0.71128 -0.09067
 H1651 H 0.20450 0.67252 -0.08259
 H1652 H 0.19288 0.66098 -0.10321
 H1653 H 0.22179 0.69143 -0.07768
 H1654 H 0.23401 0.70373 -0.05787
 H1655 H 0.19363 0.72306 -0.04525
 H1656 H 0.18122 0.71059 -0.06486
 C1657 C 0.16785 0.16781 0.36861
 C1658 C 0.17322 0.17316 0.37909
 C1659 C 0.17973 0.17969 0.39147
 C1660 C 0.17186 0.18951 0.39973
 C1661 C 0.17833 0.19620 0.41150
 C1662 C 0.19278 0.19314 0.41517
 C1663 C 0.20055 0.18315 0.40688
 C1664 C 0.19406 0.17649 0.39510
 C1665 C 0.19981 0.20054 0.42742
 C1666 C 0.20917 0.19299 0.43663
 C1667 C 0.21606 0.20008 0.44793
 C1668 C 0.21369 0.21479 0.45018
 C1669 C 0.20433 0.22237 0.44115
 C1670 C 0.19742 0.21531 0.42985
 C1671 C 0.22110 0.22218 0.46155
 C1672 C 0.22741 0.22847 0.47095
 H1673 H 0.16075 0.19206 0.39702
 H1674 H 0.17201 0.20370 0.41778
 H1675 H 0.21174 0.18071 0.40931
 H1676 H 0.20026 0.16895 0.38875
 H1677 H 0.21109 0.18159 0.43514
 H1678 H 0.22327 0.19410 0.45487
 H1679 H 0.20247 0.23377 0.44276
 H1680 H 0.19044 0.22147 0.42284
 C1681 C 0.33081 0.36839 0.66763
 C1682 C 0.32509 0.37860 0.67322
 C1683 C 0.31806 0.39062 0.68000
 C1684 C 0.32603 0.40281 0.68393
 C1685 C 0.31919 0.41436 0.69073
 C1686 C 0.30426 0.41383 0.69371
 C1687 C 0.29634 0.40156 0.68962
 C1688 C 0.30320 0.39004 0.68282
 C1689 C 0.29700 0.42595 0.70117
 C1690 C 0.28653 0.42322 0.71176
 C1691 C 0.27966 0.43459 0.71878
 C1692 C 0.28313 0.44885 0.71532
 C1693 C 0.29353 0.45169 0.70481
 C1694 C 0.30044 0.44032 0.69778
 C1695 C 0.27598 0.46049 0.72260
 C1696 C 0.26988 0.47009 0.72883
 H1697 H 0.33755 0.40335 0.68184
 H1698 H 0.32561 0.42358 0.69389
 H1699 H 0.28481 0.40091 0.69158
 H1700 H 0.29692 0.38067 0.67979
 H1701 H 0.28380 0.41228 0.71476
 H1702 H 0.27166 0.43226 0.72693
 H1703 H 0.29627 0.46269 0.70203
 H1704 H 0.30832 0.44277 0.68956
 C1705 C 0.33035 0.86877 0.16727
 C1706 C 0.32458 0.87891 0.17294
 C1707 C 0.31756 0.89086 0.17983
 C1708 C 0.32011 0.90495 0.17513
 C1709 C 0.31323 0.91654 0.18183
 C1710 C 0.30369 0.91416 0.19332
 C1711 C 0.30122 0.89995 0.19797
 C1712 C 0.30812 0.88840 0.19126
 C1713 C 0.29633 0.92643 0.20045
 C1714 C 0.28175 0.92529 0.20465
 C1715 C 0.27488 0.93674 0.21156
 C1716 C 0.28247 0.94948 0.21437
 C1717 C 0.29695 0.95076 0.21017
 C1718 C 0.30385 0.93932 0.20325
 C1719 C 0.27541 0.96112 0.22174
 C1720 C 0.26939 0.97074 0.22802
 H1721 H 0.32737 0.90698 0.16626
 H1722 H 0.31521 0.92733 0.17789
 H1723 H 0.29410 0.89778 0.20691
 H1724 H 0.30610 0.87754 0.19502
 H1725 H 0.27562 0.91560 0.20248
 H1726 H 0.26366 0.93565 0.21474
 H1727 H 0.30294 0.96055 0.21234
 H1728 H 0.31512 0.94046 0.20030
 C1729 C 0.83087 0.36769 0.16698
 C1730 C 0.82506 0.37787 0.17255
 C1731 C 0.81799 0.38987 0.17931
 C1732 C 0.80311 0.38934 0.18201
 C1733 C 0.79624 0.40086 0.18881
 C1734 C 0.80418 0.41309 0.19300
 C1735 C 0.81912 0.41357 0.19015
 C1736 C 0.82598 0.40202 0.18336
 C1737 C 0.79691 0.42521 0.20046
 C1738 C 0.80047 0.43958 0.19718
 C1739 C 0.79361 0.45096 0.20423
 C1740 C 0.78312 0.44813 0.21466
 C1741 C 0.77951 0.43388 0.21800
 C1742 C 0.78635 0.42250 0.21096
 C1743 C 0.77604 0.45980 0.22197
 C1744 C 0.77001 0.46943 0.22821
 H1745 H 0.79682 0.38000 0.17889
 H1746 H 0.78469 0.40025 0.19067
 H1747 H 0.82556 0.42275 0.19340
 H1748 H 0.83752 0.40253 0.18136
 H1749 H 0.80843 0.44202 0.18903
 H1750 H 0.79646 0.46195 0.20154
 H1751 H 0.77144 0.43157 0.22609
 H1752 H 0.78351 0.41156 0.21387
 C1753 C 0.83061 0.86829 0.66726
 C1754 C 0.82487 0.87848 0.67287
 C1755 C 0.81784 0.89048 0.67966
 C1756 C 0.82572 0.90290 0.68307
 C1757 C 0.81891 0.91445 0.68991
 C1758 C 0.80412 0.91370 0.69345
 C1759 C 0.79629 0.90120 0.68988
 C1760 C 0.80311 0.88968 0.68304
 C1761 C 0.79691 0.92582 0.70095
 C1762 C 0.78692 0.92311 0.71198
 C1763 C 0.78010 0.93449 0.71904
 C1764 C 0.78315 0.94874 0.71518
 C1765 C 0.79309 0.95157 0.70424
 C1766 C 0.79994 0.94019 0.69717
 C1767 C 0.77602 0.96039 0.72245
 C1768 C 0.76992 0.97001 0.72865
 H1769 H 0.83713 0.90362 0.68054
 H1770 H 0.82526 0.92385 0.69266
 H1771 H 0.78485 0.90038 0.69227
 H1772 H 0.79690 0.88014 0.68041
 H1773 H 0.78450 0.91219 0.71528
 H1774 H 0.77246 0.93218 0.72752
 H1775 H 0.79551 0.96256 0.70115
 H1776 H 0.80746 0.94262 0.68861
 C1777 C 0.66829 0.63174 0.66801
 C1778 C 0.67390 0.62143 0.67354
 C1779 C 0.68072 0.60924 0.68024
 C1780 C 0.67500 0.60349 0.69287
 C1781 C 0.68182 0.59187 0.69958
 C1782 C 0.69449 0.58587 0.69375
 C1783 C 0.70009 0.59167 0.68099
 C1784 C 0.69325 0.60328 0.67429
 C1785 C 0.70195 0.57377 0.70107
 C1786 C 0.71714 0.57347 0.70200
 C1787 C 0.72416 0.56224 0.70914
 C1788 C 0.71610 0.55115 0.71543
 C1789 C 0.70099 0.55129 0.71449
 C1790 C 0.69395 0.56252 0.70736
 C1791 C 0.72335 0.53976 0.72303
 C1792 C 0.72948 0.53033 0.72948
 H1793 H 0.66534 0.60806 0.69759
 H1794 H 0.67735 0.58778 0.70948
 H1795 H 0.70972 0.58717 0.67614
 H1796 H 0.69776 0.60764 0.66451
 H1797 H 0.72360 0.58206 0.69744
 H1798 H 0.73586 0.56226 0.70985
 H1799 H 0.69465 0.54274 0.71930
 H1800 H 0.68225 0.56235 0.70667
 C1801 C 0.66802 0.13090 0.16782
 C1802 C 0.67365 0.12061 0.17336
 C1803 C 0.68048 0.10843 0.18007
 C1804 C 0.67535 0.10328 0.19319
 C1805 C 0.68220 0.09169 0.19991
 C1806 C 0.69432 0.08510 0.19358
 C1807 C 0.69934 0.09029 0.18033
 C1808 C 0.69245 0.10188 0.17364
 C1809 C 0.70183 0.07302 0.20088
 C1810 C 0.71704 0.07229 0.20097
 C1811 C 0.72413 0.06110 0.20810
 C1812 C 0.71614 0.05048 0.21521
 C1813 C 0.70100 0.05104 0.21510
 C1814 C 0.69389 0.06224 0.20798
 C1815 C 0.72348 0.03916 0.22280
 C1816 C 0.72973 0.02980 0.22925
 H1817 H 0.66612 0.10831 0.19830
 H1818 H 0.67820 0.08807 0.21018
 H1819 H 0.70852 0.08534 0.17511
 H1820 H 0.69651 0.10577 0.16347
 H1821 H 0.72347 0.08052 0.19577
 H1822 H 0.73585 0.06079 0.20817
 H1823 H 0.69471 0.04286 0.22055
 H1824 H 0.68217 0.06240 0.20795
 C1825 C 0.16823 0.63055 0.16804
 C1826 C 0.17388 0.62024 0.17354
 C1827 C 0.18072 0.60805 0.18023
 C1828 C 0.17438 0.60156 0.19220
 C1829 C 0.18121 0.58997 0.19894
 C1830 C 0.19452 0.58474 0.19380
 C1831 C 0.20074 0.59127 0.18168
 C1832 C 0.19388 0.60285 0.17495
 C1833 C 0.20198 0.57268 0.20119
 C1834 C 0.21708 0.57299 0.20317
 C1835 C 0.22409 0.56177 0.21033
 C1836 C 0.21613 0.55009 0.21560
 C1837 C 0.20113 0.54963 0.21363
 C1838 C 0.19409 0.56085 0.20648
 C1839 C 0.22338 0.53869 0.22318
 C1840 C 0.22956 0.52926 0.22960
 H1841 H 0.16422 0.60555 0.19640
 H1842 H 0.17624 0.58530 0.20835
 H1843 H 0.21088 0.58736 0.17736
 H1844 H 0.19887 0.60778 0.16568
 H1845 H 0.22344 0.58204 0.19941
 H1846 H 0.23571 0.56226 0.21184
 H1847 H 0.19487 0.54062 0.21765
 H1848 H 0.18248 0.56022 0.20497
 C1849 C 0.16778 0.13024 0.66879
 C1850 C 0.17337 0.11991 0.67430
 C1851 C 0.18013 0.10769 0.68101
 C1852 C 0.17229 0.09911 0.69058
 C1853 C 0.17896 0.08746 0.69737
 C1854 C 0.19358 0.08422 0.69467
 C1855 C 0.20134 0.09285 0.68494
 C1856 C 0.19465 0.10451 0.67817
 C1857 C 0.20079 0.07206 0.70212
 C1858 C 0.21054 0.06308 0.69478
 C1859 C 0.21755 0.05183 0.70191
 C1860 C 0.21492 0.04941 0.71645
 C1861 C 0.20517 0.05821 0.72382
 C1862 C 0.19814 0.06945 0.71672
 C1863 C 0.22243 0.03808 0.72388
 C1864 C 0.22881 0.02871 0.73018
 H1865 H 0.16104 0.10147 0.69285
 H1866 H 0.17266 0.08091 0.70467
 H1867 H 0.21265 0.09076 0.68278
 H1868 H 0.20083 0.11112 0.67083
 H1869 H 0.21267 0.06470 0.68351
 H1870 H 0.22507 0.04507 0.69609
 H1871 H 0.20311 0.05647 0.73509
 H1872 H 0.19085 0.07629 0.72271
 C1873 C 0.33147 0.63150 0.33261
 C1874 C 0.32577 0.62116 0.32724
 C1875 C 0.31887 0.60893 0.32068
 C1876 C 0.32613 0.60104 0.31015
 C1877 C 0.31929 0.58939 0.30350
 C1878 C 0.30507 0.58550 0.30728
 C1879 C 0.29791 0.59344 0.31796
 C1880 C 0.30477 0.60508 0.32461
 C1881 C 0.29766 0.57338 0.29996
 C1882 C 0.28300 0.57451 0.29604
 C1883 C 0.27607 0.56320 0.28893
 C1884 C 0.28368 0.55061 0.28566
 C1885 C 0.29824 0.54933 0.28956
 C1886 C 0.30520 0.56064 0.29666
 C1887 C 0.27654 0.53909 0.27815
 C1888 C 0.27045 0.52956 0.27179
 H1889 H 0.33702 0.60397 0.30699
 H1890 H 0.32502 0.58362 0.29519
 H1891 H 0.28704 0.59060 0.32124
 H1892 H 0.29906 0.61110 0.33276
 H1893 H 0.27696 0.58425 0.29824
 H1894 H 0.26481 0.56432 0.28591
 H1895 H 0.30422 0.53961 0.28710
 H1896 H 0.31644 0.55937 0.29969
 C1897 C 0.33188 0.13065 0.83297
 C1898 C 0.32617 0.12033 0.82757
 C1899 C 0.31924 0.10814 0.82096
 C1900 C 0.32650 0.10024 0.81044
 C1901 C 0.31961 0.08866 0.80371
 C1902 C 0.30535 0.08486 0.80741
 C1903 C 0.29820 0.09280 0.81809
 C1904 C 0.30510 0.10436 0.82481
 C1905 C 0.29789 0.07281 0.79999
 C1906 C 0.28325 0.07406 0.79603
 C1907 C 0.27627 0.06282 0.78887
 C1908 C 0.28379 0.05018 0.78559
 C1909 C 0.29834 0.04880 0.78953
 C1910 C 0.30535 0.06004 0.79668
 C1911 C 0.27658 0.03870 0.77810
 C1912 C 0.27043 0.02918 0.77176
 H1913 H 0.33742 0.10311 0.80734
 H1914 H 0.32534 0.08288 0.79541
 H1915 H 0.28729 0.09002 0.82130
 H1916 H 0.29939 0.11040 0.83295
 H1917 H 0.27726 0.08383 0.79824
 H1918 H 0.26502 0.06402 0.78583
 H1919 H 0.30426 0.03904 0.78706
 H1920 H 0.31657 0.05869 0.79974
 C1921 C 0.83184 0.63147 0.83325
 C1922 C 0.82612 0.62114 0.82785
 C1923 C 0.81920 0.60894 0.82126
 C1924 C 0.82527 0.60264 0.80908
 C1925 C 0.81837 0.59103 0.80243
 C1926 C 0.80526 0.58559 0.80789
 C1927 C 0.79930 0.59194 0.82021
 C1928 C 0.80624 0.60354 0.82684
 C1929 C 0.79772 0.57351 0.80061
 C1930 C 0.78258 0.57366 0.79900
 C1931 C 0.77551 0.56245 0.79188
 C1932 C 0.78345 0.55093 0.78628
 C1933 C 0.79850 0.55063 0.78791
 C1934 C 0.80560 0.56183 0.79502
 C1935 C 0.77617 0.53958 0.77868
 C1936 C 0.77000 0.53018 0.77221
 H1937 H 0.83527 0.60678 0.80463
 H1938 H 0.82312 0.58651 0.79286
 H1939 H 0.78933 0.58788 0.82477
 H1940 H 0.80145 0.60833 0.83628
 H1941 H 0.77623 0.58258 0.80301
 H1942 H 0.76386 0.56282 0.79063
 H1943 H 0.80475 0.54175 0.78364
 H1944 H 0.81724 0.56132 0.79624
 C1945 C 0.83240 0.13185 0.33235
 C1946 C 0.82666 0.12155 0.32692
 C1947 C 0.81970 0.10938 0.32032
 C1948 C 0.80566 0.10547 0.32439
 C1949 C 0.79873 0.09389 0.31773
 C1950 C 0.80575 0.08605 0.30689
 C1951 C 0.81992 0.09000 0.30296
 C1952 C 0.82682 0.10160 0.30963
 C1953 C 0.79826 0.07398 0.29956
 C1954 C 0.80578 0.06128 0.29605
 C1955 C 0.79873 0.05002 0.28897
 C1956 C 0.78411 0.05129 0.28529
 C1957 C 0.77653 0.06385 0.28877
 C1958 C 0.78354 0.07511 0.29586
 C1959 C 0.77689 0.03981 0.27780
 C1960 C 0.77075 0.03030 0.27145
 H1961 H 0.80005 0.11141 0.33267
 H1962 H 0.78790 0.09100 0.32112
 H1963 H 0.82554 0.08431 0.29453
 H1964 H 0.83767 0.10457 0.30635
 H1965 H 0.81706 0.06001 0.29891
 H1966 H 0.80469 0.04033 0.28635
 H1967 H 0.76522 0.06497 0.28592
 H1968 H 0.77751 0.08482 0.29822
 C1969 C 0.66835 0.36893 0.33282
 C1970 C 0.67377 0.37923 0.32707
 C1971 C 0.68034 0.39140 0.32006
 C1972 C 0.67541 0.39577 0.30659
 C1973 C 0.68203 0.40733 0.29958
 C1974 C 0.69370 0.41466 0.30595
 C1975 C 0.69849 0.41026 0.31955
 C1976 C 0.69185 0.39870 0.32655
 C1977 C 0.70100 0.42668 0.29833
 C1978 C 0.70547 0.43909 0.30576
 C1979 C 0.71252 0.45029 0.29857
 C1980 C 0.71521 0.44923 0.28388
 C1981 C 0.71077 0.43696 0.27639
 C1982 C 0.70371 0.42576 0.28355
 C1983 C 0.72267 0.46063 0.27648
 C1984 C 0.72900 0.47004 0.27015
 H1985 H 0.66649 0.39021 0.30149
 H1986 H 0.67797 0.41058 0.28920
 H1987 H 0.70756 0.41557 0.32466
 H1988 H 0.69579 0.39536 0.33695
 H1989 H 0.70339 0.44019 0.31710
 H1990 H 0.71589 0.45976 0.30446
 H1991 H 0.71285 0.43600 0.26503
 H1992 H 0.70060 0.41627 0.27757
 C1993 C 0.66796 0.86954 0.83299
 C1994 C 0.67338 0.87988 0.82732
 C1995 C 0.67997 0.89210 0.82042
 C1996 C 0.67309 0.89874 0.80884
 C1997 C 0.67969 0.91035 0.80187
 C1998 C 0.69327 0.91547 0.80641
 C1999 C 0.70003 0.90879 0.81816
 C2000 C 0.69342 0.89718 0.82510
 C2001 C 0.70049 0.92754 0.79878
 C2002 C 0.70802 0.93823 0.80642
 C2003 C 0.71507 0.94941 0.79918
 C2004 C 0.71468 0.95004 0.78424
 C2005 C 0.70714 0.93951 0.77655
 C2006 C 0.70008 0.92833 0.78376
 C2007 C 0.72220 0.96135 0.77676
 C2008 C 0.72857 0.97070 0.77039
 H2009 H 0.66266 0.89491 0.80514
 H2010 H 0.67412 0.91538 0.79299
 H2011 H 0.71057 0.91234 0.82179
 H2012 H 0.69887 0.89207 0.83402
 H2013 H 0.70837 0.93802 0.81799
 H2014 H 0.72085 0.95752 0.80524
 H2015 H 0.70682 0.93986 0.76497
 H2016 H 0.69455 0.92016 0.77756
 C2017 C 0.16797 0.36896 0.83283
 C2018 C 0.17344 0.37928 0.82715
 C2019 C 0.18005 0.39145 0.82021
 C2020 C 0.17542 0.39567 0.80659
 C2021 C 0.18211 0.40723 0.79963
 C2022 C 0.19354 0.41473 0.80622
 C2023 C 0.19803 0.41050 0.81998
 C2024 C 0.19133 0.39892 0.82691
 C2025 C 0.20090 0.42677 0.79868
 C2026 C 0.20505 0.43929 0.80611
 C2027 C 0.21213 0.45052 0.79899
 C2028 C 0.21516 0.44939 0.78438
 C2029 C 0.21106 0.43700 0.77689
 C2030 C 0.20397 0.42576 0.78397
 C2031 C 0.22259 0.46085 0.77704
 C2032 C 0.22886 0.47032 0.77075
 H2033 H 0.16669 0.38997 0.80131
 H2034 H 0.17827 0.41035 0.78914
 H2035 H 0.20691 0.41594 0.82526
 H2036 H 0.19504 0.39571 0.83743
 H2037 H 0.20269 0.44045 0.81739
 H2038 H 0.21524 0.46008 0.80489
 H2039 H 0.21340 0.43598 0.76558
 H2040 H 0.20112 0.41619 0.77800
 C2041 C 0.16787 0.86997 0.33245
 C2042 C 0.17325 0.88030 0.32672
 C2043 C 0.17977 0.89250 0.31972
 C2044 C 0.17435 0.89732 0.30659
 C2045 C 0.18091 0.90891 0.29958
 C2046 C 0.19302 0.91583 0.30561
 C2047 C 0.19830 0.91098 0.31888
 C2048 C 0.19172 0.89938 0.32587
 C2049 C 0.20024 0.92789 0.29798
 C2050 C 0.20533 0.93999 0.30554
 C2051 C 0.21236 0.95121 0.29835
 C2052 C 0.21440 0.95048 0.28354
 C2053 C 0.20931 0.93854 0.27592
 C2054 C 0.20228 0.92732 0.28308
 C2055 C 0.22189 0.96187 0.27615
 C2056 C 0.22825 0.97128 0.26986
 H2057 H 0.16508 0.89209 0.30175
 H2058 H 0.17647 0.91251 0.28947
 H2059 H 0.20771 0.91596 0.32371
 H2060 H 0.19604 0.89569 0.33600
 H2061 H 0.20377 0.94083 0.31698
 H2062 H 0.21623 0.96042 0.30434
 H2063 H 0.21089 0.93784 0.26446
 H2064 H 0.19867 0.91807 0.27699
 C2065 C 0.36762 0.33139 0.66762
 C2066 C 0.37784 0.32561 0.67320
 C2067 C 0.38990 0.31855 0.67996
 C2068 C 0.38904 0.30389 0.68332
 C2069 C 0.40062 0.29703 0.69010
 C2070 C 0.41324 0.30475 0.69361
 C2071 C 0.41404 0.31947 0.69009
 C2072 C 0.40243 0.32632 0.68332
 C2073 C 0.42544 0.29750 0.70102
 C2074 C 0.43986 0.30047 0.69717
 C2075 C 0.45131 0.29358 0.70417
 C2076 C 0.44849 0.28366 0.71510
 C2077 C 0.43419 0.28067 0.71903
 C2078 C 0.42274 0.28752 0.71205
 C2079 C 0.46022 0.27650 0.72231
 C2080 C 0.46989 0.27038 0.72847
 H2081 H 0.37940 0.29776 0.68073
 H2082 H 0.39975 0.28564 0.69248
 H2083 H 0.42353 0.32575 0.69281
 H2084 H 0.40319 0.33769 0.68080
 H2085 H 0.44228 0.30796 0.68862
 H2086 H 0.46234 0.29595 0.70102
 H2087 H 0.43189 0.27305 0.72751
 H2088 H 0.41178 0.28516 0.71540
 C2089 C 0.36746 0.83209 0.16714
 C2090 C 0.37769 0.82634 0.17275
 C2091 C 0.38973 0.81930 0.17956
 C2092 C 0.40267 0.82677 0.18193
 C2093 C 0.41426 0.81995 0.18875
 C2094 C 0.41303 0.80555 0.19332
 C2095 C 0.39999 0.79813 0.19082
 C2096 C 0.38843 0.80496 0.18399
 C2097 C 0.42522 0.79833 0.20077
 C2098 C 0.42258 0.78926 0.21255
 C2099 C 0.43402 0.78237 0.21953
 C2100 C 0.44825 0.78444 0.21485
 C2101 C 0.45101 0.79347 0.20317
 C2102 C 0.43958 0.80039 0.19618
 C2103 C 0.45995 0.77721 0.22201
 C2104 C 0.46960 0.77102 0.22813
 H2105 H 0.40377 0.83789 0.17858
 H2106 H 0.42409 0.82600 0.19067
 H2107 H 0.39877 0.78698 0.19403
 H2108 H 0.37847 0.79907 0.18218
 H2109 H 0.41168 0.78761 0.21648
 H2110 H 0.43176 0.77543 0.22858
 H2111 H 0.46198 0.79512 0.19943
 H2112 H 0.44194 0.80717 0.18705
 C2113 C 0.86839 0.33142 0.16681
 C2114 C 0.87882 0.32592 0.17229
 C2115 C 0.89116 0.31921 0.17892
 C2116 C 0.89554 0.32343 0.19262
 C2117 C 0.90729 0.31667 0.19922
 C2118 C 0.91481 0.30556 0.19219
 C2119 C 0.91039 0.30147 0.17838
 C2120 C 0.89864 0.30826 0.17180
 C2121 C 0.92705 0.29811 0.19935
 C2122 C 0.92863 0.28308 0.19821
 C2123 C 0.93996 0.27601 0.20519
 C2124 C 0.94988 0.28386 0.21339
 C2125 C 0.94847 0.29882 0.21452
 C2126 C 0.93714 0.30591 0.20755
 C2127 C 0.96133 0.27651 0.22084
 C2128 C 0.97082 0.27028 0.22717
 H2129 H 0.88978 0.33186 0.19825
 H2130 H 0.91030 0.31993 0.20992
 H2131 H 0.91607 0.29309 0.17262
 H2132 H 0.89535 0.30493 0.16118
 H2133 H 0.92094 0.27674 0.19214
 H2134 H 0.94092 0.26442 0.20429
 H2135 H 0.95611 0.30500 0.22082
 H2136 H 0.93632 0.31750 0.20849
 C2137 C 0.86757 0.83144 0.66723
 C2138 C 0.87780 0.82568 0.67282
 C2139 C 0.88985 0.81862 0.67958
 C2140 C 0.88892 0.80400 0.68309
 C2141 C 0.90049 0.79712 0.68986
 C2142 C 0.91319 0.80479 0.69322
 C2143 C 0.91406 0.81948 0.68957
 C2144 C 0.90245 0.82634 0.68281
 C2145 C 0.92539 0.79752 0.70062
 C2146 C 0.93980 0.80037 0.69665
 C2147 C 0.95125 0.79346 0.70364
 C2148 C 0.94845 0.78366 0.71467
 C2149 C 0.93416 0.78079 0.71871
 C2150 C 0.92270 0.78766 0.71175
 C2151 C 0.96018 0.77651 0.72188
 C2152 C 0.96985 0.77041 0.72806
 H2153 H 0.87923 0.79791 0.68061
 H2154 H 0.89957 0.78577 0.69235
 H2155 H 0.92361 0.82572 0.69217
 H2156 H 0.90327 0.83768 0.68018
 H2157 H 0.94221 0.80777 0.68802
 H2158 H 0.96228 0.79574 0.70040
 H2159 H 0.93187 0.77326 0.72728
 H2160 H 0.91175 0.78540 0.71519
 C2161 C 0.63178 0.33167 0.33364
 C2162 C 0.62145 0.32590 0.32824
 C2163 C 0.60926 0.31890 0.32165
 C2164 C 0.60014 0.32660 0.31248
 C2165 C 0.58854 0.31968 0.30575
 C2166 C 0.58595 0.30493 0.30809
 C2167 C 0.59511 0.29731 0.31744
 C2168 C 0.60668 0.30426 0.32417
 C2169 C 0.57390 0.29746 0.30063
 C2170 C 0.57589 0.28353 0.29504
 C2171 C 0.56462 0.27655 0.28786
 C2172 C 0.55123 0.28335 0.28619
 C2173 C 0.54912 0.29718 0.29175
 C2174 C 0.56038 0.30421 0.29892
 C2175 C 0.53973 0.27615 0.27867
 C2176 C 0.53021 0.27000 0.27229
 H2177 H 0.60207 0.33793 0.31041
 H2178 H 0.58180 0.32580 0.29848
 H2179 H 0.59327 0.28600 0.31961
 H2180 H 0.61366 0.29819 0.33127
 H2181 H 0.58622 0.27814 0.29599
 H2182 H 0.56639 0.26586 0.28356
 H2183 H 0.53878 0.30254 0.29053
 H2184 H 0.55846 0.31485 0.30325
 C2185 C 0.63151 0.83215 0.83354
 C2186 C 0.62120 0.82639 0.82809
 C2187 C 0.60901 0.81942 0.82145
 C2188 C 0.60121 0.82647 0.81070
 C2189 C 0.58961 0.81955 0.80399
 C2190 C 0.58568 0.80545 0.80793
 C2191 C 0.59352 0.79850 0.81883
 C2192 C 0.60511 0.80544 0.82554
 C2193 C 0.57360 0.79795 0.80056
 C2194 C 0.57480 0.78330 0.79690
 C2195 C 0.56353 0.77627 0.78978
 C2196 C 0.55090 0.78377 0.78622
 C2197 C 0.54957 0.79832 0.78985
 C2198 C 0.56083 0.80538 0.79697
 C2199 C 0.53942 0.77653 0.77870
 C2200 C 0.52991 0.77036 0.77234
 H2201 H 0.60418 0.83727 0.80742
 H2202 H 0.58391 0.82512 0.79552
 H2203 H 0.59063 0.78772 0.82224
 H2204 H 0.61106 0.79989 0.83386
 H2205 H 0.58456 0.77733 0.79933
 H2206 H 0.56470 0.76501 0.78697
 H2207 H 0.53983 0.80422 0.78716
 H2208 H 0.55951 0.81661 0.79978
 C2209 C 0.13127 0.33183 0.83327
 C2210 C 0.12092 0.32617 0.82777
 C2211 C 0.10868 0.31935 0.82107
 C2212 C 0.10192 0.30759 0.82765
 C2213 C 0.09027 0.30073 0.82096
 C2214 C 0.08522 0.30555 0.80759
 C2215 C 0.09203 0.31746 0.80112
 C2216 C 0.10369 0.32429 0.80782
 C2217 C 0.07307 0.29807 0.80031
 C2218 C 0.06240 0.30595 0.79297
 C2219 C 0.05112 0.29886 0.78590
 C2220 C 0.05037 0.28380 0.78605
 C2221 C 0.06089 0.27587 0.79338
 C2222 C 0.07216 0.28294 0.80047
 C2223 C 0.03895 0.27647 0.77853
 C2224 C 0.02949 0.27024 0.77216
 H2225 H 0.10569 0.30369 0.83791
 H2226 H 0.08514 0.29172 0.82629
 H2227 H 0.08853 0.32131 0.79075
 H2228 H 0.10889 0.33335 0.80261
 H2229 H 0.06270 0.31761 0.79280
 H2230 H 0.04302 0.30511 0.78027
 H2231 H 0.06045 0.26421 0.79352
 H2232 H 0.08032 0.27655 0.80584
 C2233 C 0.13171 0.83233 0.33289
 C2234 C 0.12153 0.82643 0.32735
 C2235 C 0.10952 0.81927 0.32058
 C2236 C 0.09735 0.82714 0.31631
 C2237 C 0.08584 0.82022 0.30946
 C2238 C 0.08637 0.80532 0.30676
 C2239 C 0.09862 0.79750 0.31118
 C2240 C 0.11011 0.80444 0.31804
 C2241 C 0.07429 0.79797 0.29923
 C2242 C 0.07716 0.78740 0.28884
 C2243 C 0.06582 0.78047 0.28174
 C2244 C 0.05146 0.78399 0.28492
 C2245 C 0.04847 0.79451 0.29522
 C2246 C 0.05981 0.80147 0.30233
 C2247 C 0.03983 0.77675 0.27762
 C2248 C 0.03024 0.77055 0.27143
 H2249 H 0.09682 0.83864 0.31818
 H2250 H 0.07664 0.82656 0.30603
 H2251 H 0.09927 0.78599 0.30944
 H2252 H 0.11946 0.79824 0.32133
 H2253 H 0.08819 0.78462 0.28606
 H2254 H 0.06825 0.77238 0.27376
 H2255 H 0.03739 0.79729 0.29779
 H2256 H 0.05726 0.80944 0.31038
 C2257 C 0.63137 0.66859 0.66818
 C2258 C 0.62107 0.67417 0.67380
 C2259 C 0.60888 0.68093 0.68062
 C2260 C 0.60563 0.69536 0.67775
 C2261 C 0.59401 0.70204 0.68462
 C2262 C 0.58548 0.69436 0.69450
 C2263 C 0.58878 0.67983 0.69725
 C2264 C 0.60041 0.67317 0.69035
 C2265 C 0.57334 0.70155 0.70206
 C2266 C 0.57089 0.69896 0.71669
 C2267 C 0.55965 0.70595 0.72387
 C2268 C 0.55069 0.71560 0.71654
 C2269 C 0.55296 0.71818 0.70197
 C2270 C 0.56421 0.71121 0.69476
 C2271 C 0.53932 0.72300 0.72404
 C2272 C 0.52988 0.72927 0.73039
 H2273 H 0.61216 0.70148 0.67028
 H2274 H 0.59187 0.71329 0.68242
 H2275 H 0.58231 0.67358 0.70466
 H2276 H 0.60281 0.66198 0.69265
 H2277 H 0.57784 0.69174 0.72264
 H2278 H 0.55802 0.70392 0.73517
 H2279 H 0.54607 0.72561 0.69619
 H2280 H 0.56570 0.71329 0.68346
 C2281 C 0.63111 0.16777 0.16797
 C2282 C 0.62082 0.17338 0.17358
 C2283 C 0.60866 0.18021 0.18038
 C2284 C 0.60247 0.19253 0.17432
 C2285 C 0.59091 0.19940 0.18112
 C2286 C 0.58539 0.19402 0.19409
 C2287 C 0.59161 0.18155 0.20004
 C2288 C 0.60318 0.17470 0.19322
 C2289 C 0.57334 0.20150 0.20151
 C2290 C 0.56221 0.19359 0.20816
 C2291 C 0.55101 0.20067 0.21534
 C2292 C 0.55079 0.21573 0.21598
 C2293 C 0.56177 0.22369 0.20935
 C2294 C 0.57296 0.21664 0.20216
 C2295 C 0.53942 0.22302 0.22359
 C2296 C 0.53000 0.22920 0.23004
 H2297 H 0.60662 0.19687 0.16437
 H2298 H 0.58624 0.20886 0.17619
 H2299 H 0.58773 0.17725 0.21010
 H2300 H 0.60793 0.16520 0.19803
 H2301 H 0.56210 0.18194 0.20770
 H2302 H 0.54255 0.19440 0.22041
 H2303 H 0.56173 0.23535 0.20983
 H2304 H 0.58147 0.22303 0.19733
 C2305 C 0.13123 0.66732 0.16841
 C2306 C 0.12092 0.67291 0.17402
 C2307 C 0.10874 0.67972 0.18080
 C2308 C 0.10224 0.69174 0.17447
 C2309 C 0.09067 0.69862 0.18124
 C2310 C 0.08545 0.69356 0.19446
 C2311 C 0.09199 0.68139 0.20068
 C2312 C 0.10356 0.67453 0.19389
 C2313 C 0.07341 0.70109 0.20184
 C2314 C 0.06251 0.69322 0.20889
 C2315 C 0.05130 0.70035 0.21600
 C2316 C 0.05084 0.71541 0.21617
 C2317 C 0.06159 0.72333 0.20915
 C2318 C 0.07280 0.71623 0.20202
 C2319 C 0.03945 0.72277 0.22368
 C2320 C 0.03001 0.72904 0.23003
 H2321 H 0.10616 0.69583 0.16433
 H2322 H 0.08575 0.70785 0.17609
 H2323 H 0.08834 0.67735 0.21093
 H2324 H 0.10856 0.66527 0.19892
 H2325 H 0.06258 0.68156 0.20880
 H2326 H 0.04301 0.69411 0.22138
 H2327 H 0.06137 0.73500 0.20926
 H2328 H 0.08113 0.72259 0.19688
 C2329 C 0.13091 0.16713 0.66912
 C2330 C 0.12062 0.17269 0.67478
 C2331 C 0.10845 0.17939 0.68168
 C2332 C 0.10221 0.19177 0.67580
 C2333 C 0.09061 0.19849 0.68270
 C2334 C 0.08512 0.19290 0.69560
 C2335 C 0.09141 0.18039 0.70137
 C2336 C 0.10300 0.17368 0.69445
 C2337 C 0.07304 0.20023 0.70312
 C2338 C 0.07320 0.20166 0.71810
 C2339 C 0.06197 0.20877 0.72516
 C2340 C 0.05041 0.21453 0.71738
 C2341 C 0.05010 0.21311 0.70248
 C2342 C 0.06133 0.20601 0.69539
 C2343 C 0.03899 0.22208 0.72467
 C2344 C 0.02953 0.22847 0.73085
 H2345 H 0.10638 0.19631 0.66595
 H2346 H 0.08613 0.20821 0.67808
 H2347 H 0.08731 0.17572 0.71118
 H2348 H 0.10774 0.16409 0.69909
 H2349 H 0.08215 0.19751 0.72433
 H2350 H 0.06234 0.20986 0.73669
 H2351 H 0.04119 0.21751 0.69635
 H2352 H 0.06081 0.20493 0.68387
 C2353 C 0.36857 0.66823 0.33160
 C2354 C 0.37881 0.67373 0.32577
 C2355 C 0.39089 0.68040 0.31864
 C2356 C 0.39181 0.68004 0.30371
 C2357 C 0.40332 0.68682 0.29672
 C2358 C 0.41407 0.69408 0.30457
 C2359 C 0.41312 0.69427 0.31959
 C2360 C 0.40159 0.68748 0.32657
 C2361 C 0.42611 0.70157 0.29711
 C2362 C 0.44031 0.70098 0.30251
 C2363 C 0.45160 0.70811 0.29547
 C2364 C 0.44883 0.71593 0.28297
 C2365 C 0.43474 0.71659 0.27752
 C2366 C 0.42346 0.70947 0.28453
 C2367 C 0.46039 0.72331 0.27569
 C2368 C 0.46992 0.72957 0.26945
 H2369 H 0.38361 0.67456 0.29747
 H2370 H 0.40386 0.68631 0.28516
 H2371 H 0.42113 0.69991 0.32593
 H2372 H 0.40095 0.68787 0.33813
 H2373 H 0.44273 0.69486 0.31208
 H2374 H 0.46247 0.70750 0.29976
 H2375 H 0.43247 0.72265 0.26787
 H2376 H 0.41262 0.71031 0.28022
 C2377 C 0.36885 0.16751 0.83193
 C2378 C 0.37906 0.17308 0.82610
 C2379 C 0.39109 0.17984 0.81900
 C2380 C 0.40120 0.18780 0.82685
 C2381 C 0.41271 0.19464 0.81988
 C2382 C 0.41423 0.19360 0.80494
 C2383 C 0.40406 0.18549 0.79716
 C2384 C 0.39257 0.17866 0.80415
 C2385 C 0.42626 0.20110 0.79748
 C2386 C 0.42382 0.20813 0.78436
 C2387 C 0.43511 0.21525 0.77736
 C2388 C 0.44899 0.21544 0.78334
 C2389 C 0.45155 0.20848 0.79638
 C2390 C 0.44026 0.20135 0.80341
 C2391 C 0.46055 0.22284 0.77609
 C2392 C 0.47010 0.22912 0.76989
 H2393 H 0.40012 0.18884 0.83834
 H2394 H 0.42025 0.20095 0.82615
 H2395 H 0.40504 0.18432 0.78569
 H2396 H 0.38482 0.17249 0.79797
 H2397 H 0.41313 0.20830 0.77962
 H2398 H 0.43300 0.22065 0.76730
 H2399 H 0.46226 0.20853 0.80109
 H2400 H 0.44252 0.19590 0.81340
 C2401 C 0.86899 0.66815 0.83227
 C2402 C 0.87925 0.67365 0.82648
 C2403 C 0.89137 0.68033 0.81943
 C2404 C 0.89496 0.67637 0.80544
 C2405 C 0.90647 0.68311 0.79842
 C2406 C 0.91456 0.69392 0.80531
 C2407 C 0.91094 0.69774 0.81942
 C2408 C 0.89941 0.69098 0.82642
 C2409 C 0.92658 0.70133 0.79773
 C2410 C 0.93953 0.70469 0.80491
 C2411 C 0.95077 0.71179 0.79777
 C2412 C 0.94920 0.71563 0.78338
 C2413 C 0.93637 0.71232 0.77614
 C2414 C 0.92513 0.70522 0.78325
 C2415 C 0.96067 0.72306 0.77603
 C2416 C 0.97017 0.72934 0.76975
 H2417 H 0.88882 0.66812 0.79993
 H2418 H 0.90911 0.67981 0.78763
 H2419 H 0.91684 0.70614 0.82495
 H2420 H 0.89668 0.69417 0.83723
 H2421 H 0.94104 0.70169 0.81600
 H2422 H 0.96067 0.71428 0.80347
 H2423 H 0.93501 0.71530 0.76502
 H2424 H 0.91522 0.70297 0.77749
 C2425 C 0.86967 0.16843 0.33180
 C2426 C 0.88002 0.17393 0.32614
 C2427 C 0.89225 0.18059 0.31926
 C2428 C 0.89960 0.17337 0.30834
 C2429 C 0.91123 0.18000 0.30139
 C2430 C 0.91566 0.19396 0.30528
 C2431 C 0.90826 0.20109 0.31636
 C2432 C 0.89663 0.19444 0.32329
 C2433 C 0.92776 0.20118 0.29764
 C2434 C 0.93793 0.20954 0.30518
 C2435 C 0.94914 0.21655 0.29792
 C2436 C 0.95034 0.21530 0.28306
 C2437 C 0.94034 0.20694 0.27548
 C2438 C 0.92913 0.19992 0.28271
 C2439 C 0.96169 0.22275 0.27554
 C2440 C 0.97110 0.22906 0.26915
 H2441 H 0.89631 0.16264 0.30516
 H2442 H 0.91682 0.17416 0.29303
 H2443 H 0.91128 0.21191 0.31947
 H2444 H 0.89097 0.20015 0.33169
 H2445 H 0.93727 0.21057 0.31669
 H2446 H 0.95684 0.22297 0.30390
 H2447 H 0.94114 0.20595 0.26396
 H2448 H 0.92137 0.19373 0.27658
 C2449 C 0.33096 0.33196 0.63074
 C2450 C 0.32537 0.32647 0.62045
 C2451 C 0.31856 0.31977 0.60831
 C2452 C 0.30422 0.32311 0.60484
 C2453 C 0.29744 0.31631 0.59331
 C2454 C 0.30493 0.30604 0.58510
 C2455 C 0.31939 0.30285 0.58860
 C2456 C 0.32615 0.30968 0.60013
 C2457 C 0.29760 0.29851 0.57310
 C2458 C 0.29974 0.28367 0.57091
 C2459 C 0.29260 0.27651 0.55981
 C2460 C 0.28325 0.28407 0.55075
 C2461 C 0.28111 0.29885 0.55278
 C2462 C 0.28824 0.30603 0.56388
 C2463 C 0.27568 0.27660 0.53953
 C2464 C 0.26928 0.27026 0.53023
 H2465 H 0.29823 0.33087 0.61114
 H2466 H 0.28625 0.31886 0.59101
 H2467 H 0.32550 0.29513 0.58237
 H2468 H 0.33726 0.30702 0.60271
 H2469 H 0.30672 0.27754 0.57794
 H2470 H 0.29429 0.26506 0.55838
 H2471 H 0.27391 0.30481 0.54581
 H2472 H 0.28650 0.31749 0.56518
 C2473 C 0.33098 0.83261 0.13010
 C2474 C 0.32550 0.82712 0.11975
 C2475 C 0.31882 0.82043 0.10754
 C2476 C 0.30795 0.82764 0.09997
 C2477 C 0.30114 0.82095 0.08838
 C2478 C 0.30513 0.80694 0.08422
 C2479 C 0.31617 0.79984 0.09182
 C2480 C 0.32295 0.80655 0.10341
 C2481 C 0.29764 0.79965 0.07218
 C2482 C 0.30544 0.79118 0.06238
 C2483 C 0.29830 0.78404 0.05127
 C2484 C 0.28328 0.78526 0.04979
 C2485 C 0.27544 0.79374 0.05942
 C2486 C 0.28255 0.80090 0.07053
 C2487 C 0.27588 0.77761 0.03859
 C2488 C 0.26960 0.77111 0.02931
 H2489 H 0.30468 0.83839 0.10307
 H2490 H 0.29282 0.82676 0.08264
 H2491 H 0.31935 0.78899 0.08901
 H2492 H 0.33130 0.80084 0.10924
 H2493 H 0.31708 0.79015 0.06326
 H2494 H 0.30449 0.77752 0.04386
 H2495 H 0.26380 0.79471 0.05841
 H2496 H 0.27621 0.80717 0.07800
 C2497 C 0.83149 0.33120 0.13014
 C2498 C 0.82597 0.32565 0.11984
 C2499 C 0.81923 0.31893 0.10767
 C2500 C 0.82241 0.30460 0.10429
 C2501 C 0.81558 0.29793 0.09271
 C2502 C 0.80546 0.30552 0.08436
 C2503 C 0.80243 0.31996 0.08778
 C2504 C 0.80928 0.32661 0.09937
 C2505 C 0.79792 0.29831 0.07229
 C2506 C 0.78308 0.30066 0.06990
 C2507 C 0.77591 0.29364 0.05873
 C2508 C 0.78347 0.28419 0.04979
 C2509 C 0.79826 0.28185 0.05202
 C2510 C 0.80545 0.28886 0.06318
 C2511 C 0.77599 0.27673 0.03851
 C2512 C 0.76965 0.27040 0.02916
 H2513 H 0.83005 0.29854 0.11069
 H2514 H 0.81800 0.28675 0.09047
 H2515 H 0.79484 0.32614 0.08145
 H2516 H 0.80676 0.33772 0.10188
 H2517 H 0.77694 0.30771 0.07683
 H2518 H 0.76444 0.29548 0.05714
 H2519 H 0.80422 0.27457 0.04515
 H2520 H 0.81691 0.28696 0.06464
 C2521 C 0.83105 0.83201 0.63022
 C2522 C 0.82554 0.82655 0.61987
 C2523 C 0.81883 0.81991 0.60765
 C2524 C 0.82658 0.81003 0.59934
 C2525 C 0.81993 0.80327 0.58771
 C2526 C 0.80542 0.80629 0.58424
 C2527 C 0.79778 0.81633 0.59259
 C2528 C 0.80444 0.82308 0.60422
 C2529 C 0.79821 0.79881 0.57214
 C2530 C 0.78872 0.80631 0.56303
 C2531 C 0.78168 0.79916 0.55185
 C2532 C 0.78403 0.78445 0.54964
 C2533 C 0.79352 0.77692 0.55858
 C2534 C 0.80058 0.78404 0.56976
 C2535 C 0.77651 0.77700 0.53838
 C2536 C 0.77014 0.77067 0.52905
 H2537 H 0.83773 0.80751 0.60190
 H2538 H 0.82615 0.79573 0.58139
 H2539 H 0.78655 0.81874 0.59032
 H2540 H 0.79833 0.83066 0.61061
 H2541 H 0.78681 0.81772 0.56448
 H2542 H 0.77437 0.80510 0.54498
 H2543 H 0.79538 0.76551 0.55700
 H2544 H 0.80766 0.77793 0.57670
 C2545 C 0.33223 0.66869 0.36879
 C2546 C 0.32684 0.67442 0.37905
 C2547 C 0.32031 0.68141 0.39116
 C2548 C 0.32478 0.69524 0.39514
 C2549 C 0.31818 0.70222 0.40666
 C2550 C 0.30700 0.69544 0.41437
 C2551 C 0.30267 0.68148 0.41036
 C2552 C 0.30928 0.67452 0.39883
 C2553 C 0.29974 0.70299 0.42638
 C2554 C 0.29596 0.69551 0.43894
 C2555 C 0.28896 0.70262 0.45015
 C2556 C 0.28564 0.71727 0.44897
 C2557 C 0.28938 0.72481 0.43654
 C2558 C 0.29639 0.71773 0.42532
 C2559 C 0.27826 0.72458 0.46041
 C2560 C 0.27201 0.73080 0.46988
 H2561 H 0.33332 0.70066 0.38929
 H2562 H 0.32188 0.71288 0.40959
 H2563 H 0.29398 0.67605 0.41596
 H2564 H 0.30569 0.66383 0.39580
 H2565 H 0.29855 0.68420 0.44014
 H2566 H 0.28614 0.69669 0.45974
 H2567 H 0.28681 0.73615 0.43548
 H2568 H 0.29896 0.72374 0.41573
 C2569 C 0.33264 0.16776 0.86924
 C2570 C 0.32727 0.17348 0.87951
 C2571 C 0.32078 0.18048 0.89164
 C2572 C 0.30984 0.17357 0.89939
 C2573 C 0.30327 0.18054 0.91094
 C2574 C 0.30754 0.19455 0.91486
 C2575 C 0.31863 0.20135 0.90705
 C2576 C 0.32520 0.19436 0.89552
 C2577 C 0.30031 0.20211 0.92688
 C2578 C 0.29686 0.21683 0.92576
 C2579 C 0.28988 0.22393 0.93698
 C2580 C 0.28626 0.21643 0.94946
 C2581 C 0.28968 0.20181 0.95071
 C2582 C 0.29666 0.19468 0.93950
 C2583 C 0.27888 0.22376 0.96089
 C2584 C 0.27263 0.23002 0.97033
 H2585 H 0.30629 0.16285 0.89644
 H2586 H 0.29464 0.17509 0.91662
 H2587 H 0.32230 0.21205 0.90992
 H2588 H 0.33367 0.19980 0.88960
 H2589 H 0.29934 0.22280 0.91611
 H2590 H 0.28723 0.23524 0.93588
 H2591 H 0.28695 0.19591 0.96035
 H2592 H 0.29932 0.18339 0.94075
 C2593 C 0.83270 0.66857 0.86950
 C2594 C 0.82733 0.67428 0.87977
 C2595 C 0.82083 0.68124 0.89192
 C2596 C 0.81000 0.67423 0.89974
 C2597 C 0.80341 0.68115 0.91130
 C2598 C 0.80757 0.69520 0.91518
 C2599 C 0.81854 0.70211 0.90731
 C2600 C 0.82512 0.69517 0.89576
 C2601 C 0.80031 0.70270 0.92722
 C2602 C 0.79668 0.71737 0.92610
 C2603 C 0.78964 0.72439 0.93733
 C2604 C 0.78615 0.71687 0.94983
 C2605 C 0.78978 0.70230 0.95110
 C2606 C 0.79681 0.69524 0.93987
 C2607 C 0.77871 0.72411 0.96126
 C2608 C 0.77239 0.73031 0.97070
 H2609 H 0.80655 0.66347 0.89681
 H2610 H 0.79487 0.67562 0.91703
 H2611 H 0.82211 0.71285 0.91015
 H2612 H 0.83351 0.70069 0.88979
 H2613 H 0.79904 0.72336 0.91643
 H2614 H 0.78683 0.73567 0.93621
 H2615 H 0.78715 0.69638 0.96075
 H2616 H 0.79962 0.68399 0.94112
 C2617 C 0.83313 0.16877 0.36879
 C2618 C 0.82772 0.17445 0.37907
 C2619 C 0.82117 0.18137 0.39121
 C2620 C 0.82403 0.19591 0.39399
 C2621 C 0.81739 0.20278 0.40554
 C2622 C 0.80780 0.19520 0.41450
 C2623 C 0.80510 0.18055 0.41169
 C2624 C 0.81174 0.17370 0.40011
 C2625 C 0.80047 0.20260 0.42656
 C2626 C 0.79865 0.19563 0.43981
 C2627 C 0.79161 0.20259 0.45110
 C2628 C 0.78630 0.21659 0.44928
 C2629 C 0.78809 0.22362 0.43616
 C2630 C 0.79513 0.21669 0.42488
 C2631 C 0.77890 0.22373 0.46081
 C2632 C 0.77263 0.22986 0.47032
 H2633 H 0.83133 0.20195 0.38718
 H2634 H 0.81984 0.21401 0.40754
 H2635 H 0.79764 0.17447 0.41827
 H2636 H 0.80941 0.16245 0.39802
 H2637 H 0.80279 0.18486 0.44149
 H2638 H 0.79031 0.19706 0.46122
 H2639 H 0.78398 0.23443 0.43463
 H2640 H 0.79618 0.22226 0.41476
 C2641 C 0.66916 0.33257 0.36982
 C2642 C 0.67499 0.32720 0.38005
 C2643 C 0.68211 0.32069 0.39211
 C2644 C 0.67421 0.31238 0.40187
 C2645 C 0.68122 0.30574 0.41337
 C2646 C 0.69626 0.30731 0.41523
 C2647 C 0.70408 0.31580 0.40543
 C2648 C 0.69704 0.32243 0.39395
 C2649 C 0.70380 0.29994 0.42720
 C2650 C 0.71732 0.29337 0.42498
 C2651 C 0.72436 0.28627 0.43617
 C2652 C 0.71799 0.28564 0.44973
 C2653 C 0.70456 0.29219 0.45208
 C2654 C 0.69750 0.29929 0.44089
 C2655 C 0.72520 0.27815 0.46116
 C2656 C 0.73135 0.27176 0.47059
 H2657 H 0.66266 0.31092 0.40051
 H2658 H 0.67494 0.29914 0.42063
 H2659 H 0.71562 0.31737 0.40668
 H2660 H 0.70326 0.32886 0.38647
 H2661 H 0.72236 0.29350 0.41452
 H2662 H 0.73472 0.28119 0.43423
 H2663 H 0.69955 0.29179 0.46255
 H2664 H 0.68718 0.30439 0.44297
 C2665 C 0.66877 0.83299 0.86984
 C2666 C 0.67456 0.82758 0.88007
 C2667 C 0.68162 0.82100 0.89214
 C2668 C 0.67388 0.81181 0.90123
 C2669 C 0.68085 0.80511 0.91272
 C2670 C 0.69567 0.80751 0.91525
 C2671 C 0.70332 0.81686 0.90611
 C2672 C 0.69633 0.82355 0.89464
 C2673 C 0.70319 0.80011 0.92721
 C2674 C 0.71719 0.79448 0.92530
 C2675 C 0.72422 0.78736 0.93649
 C2676 C 0.71737 0.78577 0.94974
 C2677 C 0.70346 0.79136 0.95178
 C2678 C 0.69640 0.79847 0.94059
 C2679 C 0.72462 0.77831 0.96118
 C2680 C 0.73081 0.77199 0.97063
 H2681 H 0.66250 0.80971 0.89935
 H2682 H 0.67472 0.79784 0.91945
 H2683 H 0.71468 0.81908 0.90789
 H2684 H 0.70241 0.83066 0.88768
 H2685 H 0.72262 0.79537 0.91508
 H2686 H 0.73496 0.78303 0.93478
 H2687 H 0.69807 0.79021 0.96201
 H2688 H 0.68570 0.80283 0.94245
 C2689 C 0.16849 0.33236 0.86963
 C2690 C 0.17426 0.32693 0.87986
 C2691 C 0.18130 0.32037 0.89195
 C2692 C 0.17441 0.30933 0.89955
 C2693 C 0.18142 0.30269 0.91105
 C2694 C 0.19545 0.30701 0.91508
 C2695 C 0.20222 0.31820 0.90743
 C2696 C 0.19519 0.32482 0.89595
 C2697 C 0.20306 0.29972 0.92705
 C2698 C 0.21788 0.29642 0.92597
 C2699 C 0.22501 0.28937 0.93714
 C2700 C 0.21746 0.28553 0.94954
 C2701 C 0.20273 0.28881 0.95075
 C2702 C 0.19556 0.29585 0.93958
 C2703 C 0.22481 0.27810 0.96092
 C2704 C 0.23108 0.27179 0.97033
 H2705 H 0.16368 0.30575 0.89650
 H2706 H 0.17599 0.29399 0.91660
 H2707 H 0.21293 0.32189 0.91039
 H2708 H 0.20061 0.33338 0.89015
 H2709 H 0.22390 0.29906 0.91639
 H2710 H 0.23640 0.28683 0.93607
 H2711 H 0.19678 0.28591 0.96031
 H2712 H 0.18420 0.29840 0.94080
 C2713 C 0.16855 0.83371 0.36958
 C2714 C 0.17426 0.82838 0.37989
 C2715 C 0.18120 0.82187 0.39206
 C2716 C 0.17461 0.81032 0.39915
 C2717 C 0.18157 0.80370 0.41069
 C2718 C 0.19524 0.80855 0.41528
 C2719 C 0.20171 0.82026 0.40815
 C2720 C 0.19473 0.82686 0.39662
 C2721 C 0.20283 0.80125 0.42726
 C2722 C 0.21781 0.79864 0.42652
 C2723 C 0.22491 0.79151 0.43766
 C2724 C 0.21717 0.78691 0.44968
 C2725 C 0.20228 0.78953 0.45057
 C2726 C 0.19515 0.79665 0.43943
 C2727 C 0.22449 0.77932 0.46098
 C2728 C 0.23072 0.77287 0.47032
 H2729 H 0.16417 0.80633 0.39566
 H2730 H 0.17639 0.79460 0.41583
 H2731 H 0.21213 0.82435 0.41154
 H2732 H 0.19992 0.83581 0.39122
 H2733 H 0.22398 0.80186 0.41721
 H2734 H 0.23643 0.78949 0.43683
 H2735 H 0.19619 0.78603 0.45984
 H2736 H 0.18365 0.79865 0.44039
 C2737 C 0.66787 0.66827 0.63113
 C2738 C 0.67332 0.67374 0.62075
 C2739 C 0.67992 0.68039 0.60846
 C2740 C 0.67228 0.69063 0.60049
 C2741 C 0.67883 0.69736 0.58878
 C2742 C 0.69313 0.69393 0.58489
 C2743 C 0.70067 0.68354 0.59292
 C2744 C 0.69411 0.67683 0.60463
 C2745 C 0.70024 0.70134 0.57268
 C2746 C 0.70922 0.69366 0.56322
 C2747 C 0.71618 0.70072 0.55194
 C2748 C 0.71426 0.71554 0.54995
 C2749 C 0.70527 0.72325 0.55923
 C2750 C 0.69829 0.71621 0.57051
 C2751 C 0.72173 0.72289 0.53858
 C2752 C 0.72808 0.72914 0.52917
 H2753 H 0.66128 0.69344 0.60335
 H2754 H 0.67268 0.70518 0.58270
 H2755 H 0.71176 0.68081 0.59032
 H2756 H 0.70014 0.66897 0.61077
 H2757 H 0.71079 0.68218 0.56450
 H2758 H 0.72310 0.69465 0.54481
 H2759 H 0.70375 0.73474 0.55782
 H2760 H 0.69161 0.72246 0.57771
 C2761 C 0.66763 0.16744 0.13094
 C2762 C 0.67308 0.17292 0.12057
 C2763 C 0.67969 0.17960 0.10830
 C2764 C 0.67231 0.19035 0.10076
 C2765 C 0.67888 0.19712 0.08908
 C2766 C 0.69293 0.19322 0.08479
 C2767 C 0.70021 0.18231 0.09237
 C2768 C 0.69362 0.17556 0.10405
 C2769 C 0.70008 0.20066 0.07262
 C2770 C 0.70852 0.19290 0.06276
 C2771 C 0.71549 0.19999 0.05150
 C2772 C 0.71412 0.21492 0.04994
 C2773 C 0.70568 0.22272 0.05964
 C2774 C 0.69870 0.21566 0.07090
 C2775 C 0.72157 0.22229 0.03857
 C2776 C 0.72789 0.22858 0.02917
 H2777 H 0.66151 0.19354 0.10395
 H2778 H 0.67293 0.20534 0.08335
 H2779 H 0.71110 0.17920 0.08945
 H2780 H 0.69945 0.16730 0.10985
 H2781 H 0.70965 0.18133 0.06370
 H2782 H 0.72198 0.19384 0.04404
 H2783 H 0.70460 0.23429 0.05857
 H2784 H 0.69245 0.22196 0.07842
 C2785 C 0.16789 0.66749 0.13155
 C2786 C 0.17336 0.67318 0.12129
 C2787 C 0.17997 0.68013 0.10918
 C2788 C 0.18964 0.67256 0.10046
 C2789 C 0.19631 0.67944 0.08890
 C2790 C 0.19341 0.69402 0.08593
 C2791 C 0.18359 0.70150 0.09469
 C2792 C 0.17693 0.69459 0.10623
 C2793 C 0.20075 0.70145 0.07386
 C2794 C 0.20583 0.71565 0.07545
 C2795 C 0.21283 0.72263 0.06415
 C2796 C 0.21485 0.71553 0.05111
 C2797 C 0.20983 0.70141 0.04940
 C2798 C 0.20282 0.69440 0.06070
 C2799 C 0.22216 0.72274 0.03955
 C2800 C 0.22836 0.72892 0.03001
 H2801 H 0.19211 0.66137 0.10268
 H2802 H 0.20395 0.67344 0.08247
 H2803 H 0.18099 0.71266 0.09256
 H2804 H 0.16944 0.70055 0.11290
 H2805 H 0.20459 0.72130 0.08550
 H2806 H 0.21672 0.73354 0.06560
 H2807 H 0.21132 0.69582 0.03934
 H2808 H 0.19889 0.68353 0.05909
 C2809 C 0.16745 0.16697 0.63210
 C2810 C 0.17292 0.17249 0.62176
 C2811 C 0.17956 0.17920 0.60953
 C2812 C 0.19395 0.17608 0.60604
 C2813 C 0.20054 0.18285 0.59438
 C2814 C 0.19281 0.19286 0.58604
 C2815 C 0.17832 0.19584 0.58958
 C2816 C 0.17175 0.18905 0.60125
 C2817 C 0.19992 0.20032 0.57387
 C2818 C 0.19750 0.21508 0.57143
 C2819 C 0.20444 0.22219 0.56016
 C2820 C 0.21387 0.21465 0.55117
 C2821 C 0.21628 0.19994 0.55344
 C2822 C 0.20936 0.19282 0.56471
 C2823 C 0.22126 0.22207 0.53980
 C2824 C 0.22754 0.22838 0.53040
 H2825 H 0.20011 0.16851 0.61242
 H2826 H 0.21176 0.18047 0.59205
 H2827 H 0.17204 0.20336 0.58327
 H2828 H 0.16060 0.19153 0.60384
 H2829 H 0.19047 0.22121 0.57840
 H2830 H 0.20255 0.23358 0.55854
 H2831 H 0.22354 0.19400 0.54654
 H2832 H 0.21131 0.18142 0.56621
   
