data_POSCAR
  _audit_creation_date              2014-09-24
  _audit_creation_method            'ToBaCCo'
  _symmetry_space_group_name_H-M    'P1'
  _symmetry_Int_Tables_number       1
  _symmetry_cell_setting            triclinic
  loop_
  _symmetry_equiv_pos_as_xyz
 x,y,z
_cell_length_a 67.9107
_cell_length_b 67.9827
_cell_length_c 68.2950
_cell_angle_alpha 89.971700
_cell_angle_beta 89.952800
_cell_angle_gamma 89.920800
loop_
  _atom_site_label
  _atom_site_type_symbol
  _atom_site_fract_x
  _atom_site_fract_y
  _atom_site_fract_z
N1 N 0.37371 0.31926 0.33355
 N2 N 0.37327 0.33276 0.31980
 C3 C 0.38891 0.33028 0.30792
 C4 C 0.39972 0.31427 0.31449
 C5 C 0.38958 0.30770 0.33087
 H6 H 0.39191 0.33925 0.29520
 H7 H 0.39298 0.29498 0.33975
 Cu8 Cu 0.35169 0.35154 0.31777
 Cu9 Cu 0.35268 0.31663 0.35270
 Cu10 Cu 0.31654 0.35250 0.35252
 N11 N 0.33290 0.37311 0.31975
 N12 N 0.31932 0.37353 0.33345
 C13 C 0.30780 0.38941 0.33080
 C14 C 0.31446 0.39961 0.31449
 C15 C 0.33050 0.38878 0.30792
 H16 H 0.29518 0.39288 0.33979
 H17 H 0.33941 0.39169 0.29514
 N18 N 0.31854 0.33230 0.37311
 N19 N 0.33234 0.31863 0.37322
 C20 C 0.32966 0.30694 0.38891
 C21 C 0.31334 0.31352 0.39922
 C22 C 0.30672 0.32967 0.38873
 H23 H 0.33870 0.29430 0.39233
 H24 H 0.29416 0.33882 0.39213
 H25 H 0.33027 0.33008 0.33747
 H26 H 0.34633 0.34635 0.35253
 N27 N 0.37402 0.81959 -0.16715
 N28 N 0.37362 0.83299 -0.18099
 C29 C 0.38918 0.83027 -0.19293
 C30 C 0.39993 0.81414 -0.18632
 C31 C 0.38977 0.80787 -0.16978
 H32 H 0.39213 0.83919 -0.20569
 H33 H 0.39307 0.79535 -0.16061
 Cu34 Cu 0.35239 0.85225 -0.18280
 Cu35 Cu 0.35312 0.81724 -0.14788
 Cu36 Cu 0.31694 0.85294 -0.14819
 N37 N 0.33321 0.87354 -0.18100
 N38 N 0.31950 0.87380 -0.16744
 C39 C 0.30778 0.88951 -0.17021
 C40 C 0.31443 0.89983 -0.18650
 C41 C 0.33076 0.88920 -0.19283
 H42 H 0.29511 0.89277 -0.16121
 H43 H 0.33991 0.89222 -0.20541
 N44 N 0.31903 0.83290 -0.12746
 N45 N 0.33289 0.81930 -0.12731
 C46 C 0.33028 0.80765 -0.11158
 C47 C 0.31393 0.81416 -0.10129
 C48 C 0.30723 0.83027 -0.11183
 H49 H 0.33953 0.79522 -0.10803
 H50 H 0.29446 0.83919 -0.10863
 H51 H 0.33081 0.83077 -0.16336
 H52 H 0.34674 0.84703 -0.14807
 N53 N 0.87337 0.32005 -0.16673
 N54 N 0.87287 0.33350 -0.18053
 C55 C 0.88850 0.33101 -0.19243
 C56 C 0.89937 0.31506 -0.18579
 C57 C 0.88927 0.30853 -0.16938
 H58 H 0.89148 0.33994 -0.20518
 H59 H 0.89272 0.29586 -0.16046
 Cu60 Cu 0.85124 0.35228 -0.18254
 Cu61 Cu 0.85239 0.31739 -0.14754
 Cu62 Cu 0.81637 0.35334 -0.14752
 N63 N 0.83230 0.37376 -0.18062
 N64 N 0.81889 0.37425 -0.16676
 C65 C 0.80731 0.39010 -0.16937
 C66 C 0.81366 0.40021 -0.18591
 C67 C 0.82971 0.38933 -0.19254
 H68 H 0.79480 0.39349 -0.16020
 H69 H 0.83865 0.39217 -0.20532
 N70 N 0.81840 0.33314 -0.12692
 N71 N 0.83215 0.31942 -0.12692
 C72 C 0.82948 0.30765 -0.11128
 C73 C 0.81320 0.31421 -0.10091
 C74 C 0.80661 0.33046 -0.11128
 H75 H 0.83846 0.29495 -0.10797
 H76 H 0.79407 0.33960 -0.10781
 H77 H 0.82991 0.33087 -0.16267
 H78 H 0.84615 0.34709 -0.14773
 N79 N 0.87325 0.81948 0.33312
 N80 N 0.87332 0.83350 0.31986
 C81 C 0.88884 0.83086 0.30785
 C82 C 0.89908 0.81427 0.31389
 C83 C 0.88871 0.80747 0.33002
 H84 H 0.89236 0.84025 0.29558
 H85 H 0.89177 0.79443 0.33856
 Cu86 Cu 0.85295 0.85372 0.31977
 Cu87 Cu 0.85236 0.81716 0.35260
 Cu88 Cu 0.81614 0.85300 0.35235
 N89 N 0.83261 0.87397 0.31969
 N90 N 0.81842 0.87380 0.33278
 C91 C 0.80632 0.88914 0.32956
 C92 C 0.81323 0.89965 0.31348
 C93 C 0.83004 0.88948 0.30769
 H94 H 0.79333 0.89212 0.33819
 H95 H 0.83960 0.89287 0.29551
 N96 N 0.81825 0.83291 0.37313
 N97 N 0.83208 0.81924 0.37324
 C98 C 0.82949 0.80763 0.38901
 C99 C 0.81321 0.81423 0.39935
 C100 C 0.80652 0.83034 0.38882
 H101 H 0.83855 0.79502 0.39244
 H102 H 0.79396 0.83948 0.39225
 H103 H 0.83076 0.83142 0.33694
 H104 H 0.84591 0.84683 0.35380
 N105 N 0.62657 0.68126 0.33366
 N106 N 0.62648 0.66719 0.32047
 C107 C 0.61094 0.66979 0.30851
 C108 C 0.60072 0.68644 0.31447
 C109 C 0.61114 0.69329 0.33054
 H110 H 0.60757 0.66049 0.29614
 H111 H 0.60798 0.70619 0.33921
 Cu112 Cu 0.64688 0.64700 0.32047
 Cu113 Cu 0.64744 0.68363 0.35311
 Cu114 Cu 0.68348 0.64759 0.35318
 N115 N 0.66709 0.62663 0.32051
 N116 N 0.68115 0.62672 0.33372
 C117 C 0.69316 0.61128 0.33063
 C118 C 0.68630 0.60084 0.31457
 C119 C 0.66968 0.61109 0.30857
 H120 H 0.70607 0.60812 0.33931
 H121 H 0.66034 0.60771 0.29623
 N122 N 0.68140 0.66784 0.37381
 N123 N 0.66765 0.68158 0.37377
 C124 C 0.67026 0.69333 0.38941
 C125 C 0.68648 0.68675 0.39983
 C126 C 0.69311 0.67050 0.38949
 H127 H 0.66107 0.70585 0.39286
 H128 H 0.70580 0.66152 0.39284
 H129 H 0.66908 0.66917 0.33770
 H130 H 0.65373 0.65391 0.35452
 N131 N 0.62687 0.18091 -0.16695
 N132 N 0.62688 0.16696 -0.18026
 C133 C 0.61129 0.16953 -0.19218
 C134 C 0.60095 0.18605 -0.18605
 C135 C 0.61135 0.19284 -0.16995
 H136 H 0.60794 0.16026 -0.20458
 H137 H 0.60810 0.20564 -0.16115
 Cu138 Cu 0.64739 0.14689 -0.18027
 Cu139 Cu 0.64765 0.18325 -0.14738
 Cu140 Cu 0.68330 0.14680 -0.14688
 N141 N 0.66747 0.12637 -0.18018
 N142 N 0.68111 0.12609 -0.16655
 C143 C 0.69298 0.11050 -0.16943
 C144 C 0.68655 0.10036 -0.18590
 C145 C 0.67022 0.11096 -0.19226
 H146 H 0.70561 0.10723 -0.16040
 H147 H 0.66104 0.10785 -0.20478
 N148 N 0.68120 0.16706 -0.12626
 N149 N 0.66764 0.18100 -0.12652
 C150 C 0.67028 0.19282 -0.11094
 C151 C 0.68634 0.18611 -0.10034
 C152 C 0.69282 0.16969 -0.11051
 H153 H 0.66125 0.20550 -0.10768
 H154 H 0.70540 0.16061 -0.10702
 H155 H 0.66953 0.16868 -0.16242
 H156 H 0.65364 0.15351 -0.14605
 N157 N 0.12534 0.67976 -0.16563
 N158 N 0.12643 0.66704 -0.18005
 C159 C 0.11148 0.67030 -0.19256
 C160 C 0.10038 0.68600 -0.18570
 C161 C 0.10970 0.69159 -0.16851
 H162 H 0.10911 0.66207 -0.20588
 H163 H 0.10565 0.70357 -0.15892
 Cu164 Cu 0.14735 0.64752 -0.18148
 Cu165 Cu 0.14491 0.68082 -0.14487
 Cu166 Cu 0.18407 0.64825 -0.14849
 N167 N 0.16664 0.62639 -0.17981
 N168 N 0.18091 0.62671 -0.16686
 C169 C 0.19272 0.61108 -0.16969
 C170 C 0.18552 0.60024 -0.18532
 C171 C 0.16886 0.61045 -0.19130
 H172 H 0.20588 0.60821 -0.16126
 H173 H 0.15939 0.60696 -0.20351
 N174 N 0.18146 0.66748 -0.12715
 N175 N 0.16641 0.67964 -0.12552
 C176 C 0.16903 0.69095 -0.10955
 C177 C 0.18658 0.68564 -0.10061
 C178 C 0.19399 0.67064 -0.11224
 H179 H 0.15902 0.70243 -0.10499
 H180 H 0.20765 0.66274 -0.11021
 H181 H 0.16725 0.67032 -0.16185
 H182 H 0.15401 0.65164 -0.14674
 N183 N 0.12629 0.18065 0.33380
 N184 N 0.12667 0.16712 0.32008
 C185 C 0.11100 0.16963 0.30825
 C186 C 0.10026 0.18570 0.31483
 C187 C 0.11046 0.19226 0.33115
 H188 H 0.10806 0.16082 0.29542
 H189 H 0.10697 0.20483 0.34019
 Cu190 Cu 0.14817 0.14819 0.31813
 Cu191 Cu 0.14731 0.18329 0.35289
 Cu192 Cu 0.18327 0.14729 0.35292
 N193 N 0.16713 0.12673 0.32006
 N194 N 0.18066 0.12632 0.33378
 C195 C 0.19226 0.11049 0.33111
 C196 C 0.18571 0.10033 0.31477
 C197 C 0.16965 0.11110 0.30820
 H198 H 0.20484 0.10700 0.34015
 H199 H 0.16082 0.10819 0.29537
 N200 N 0.18129 0.16755 0.37346
 N201 N 0.16756 0.18129 0.37343
 C202 C 0.17023 0.19308 0.38904
 C203 C 0.18648 0.18651 0.39943
 C204 C 0.19306 0.17024 0.38908
 H205 H 0.16106 0.20561 0.39248
 H206 H 0.20575 0.16125 0.39242
 H207 H 0.16968 0.16963 0.33769
 H208 H 0.15350 0.15354 0.35287
 N209 N 0.62646 0.31901 0.66711
 N210 N 0.62636 0.33307 0.68030
 C211 C 0.61083 0.33049 0.69231
 C212 C 0.60061 0.31389 0.68633
 C213 C 0.61102 0.30703 0.67025
 H214 H 0.60726 0.33994 0.70453
 H215 H 0.60798 0.29398 0.66174
 Cu216 Cu 0.64655 0.35343 0.68045
 Cu217 Cu 0.64727 0.31668 0.64762
 Cu218 Cu 0.68329 0.35254 0.64751
 N219 N 0.66698 0.37355 0.68014
 N220 N 0.68105 0.37338 0.66694
 C221 C 0.69310 0.38876 0.67003
 C222 C 0.68627 0.39923 0.68610
 C223 C 0.66961 0.38907 0.69210
 H224 H 0.70604 0.39182 0.66135
 H225 H 0.66024 0.39252 0.70443
 N226 N 0.68118 0.33237 0.62686
 N227 N 0.66741 0.31869 0.62690
 C228 C 0.66996 0.30699 0.61120
 C229 C 0.68618 0.31353 0.60074
 C230 C 0.69286 0.32972 0.61113
 H231 H 0.66074 0.29454 0.60774
 H232 H 0.70554 0.33867 0.60776
 H233 H 0.66882 0.33109 0.66326
 H234 H 0.65351 0.34640 0.64636
 N235 N 0.62628 0.81949 1.16686
 N236 N 0.62674 0.83299 1.18060
 C237 C 0.61111 0.83056 1.19250
 C238 C 0.60027 0.81459 1.18593
 C239 C 0.61040 0.80799 1.16956
 H240 H 0.60810 0.83955 1.20520
 H241 H 0.60698 0.79530 1.16068
 Cu242 Cu 0.64829 0.85182 1.18248
 Cu243 Cu 0.64721 0.81677 1.14766
 Cu244 Cu 0.68327 0.85257 1.14753
 N245 N 0.66721 0.87325 1.18042
 N246 N 0.68070 0.87359 1.16664
 C247 C 0.69228 0.88942 1.16920
 C248 C 0.68575 0.89967 1.18554
 C249 C 0.66972 0.88892 1.19221
 H250 H 0.70491 0.89277 1.16019
 H251 H 0.66079 0.89196 1.20495
 N252 N 0.68118 0.83235 1.12698
 N253 N 0.66741 0.81868 1.12703
 C254 C 0.67000 0.80693 1.11137
 C255 C 0.68624 0.81345 1.10093
 C256 C 0.69290 0.82964 1.11130
 H257 H 0.66078 0.79446 1.10793
 H258 H 0.70560 0.83858 1.10793
 H259 H 0.66963 0.83023 1.16280
 H260 H 0.65346 0.84646 1.14772
 N261 N 0.12627 0.31899 1.16712
 N262 N 0.12628 0.33295 1.18044
 C263 C 0.11070 0.33043 1.19239
 C264 C 0.10037 0.31394 1.18629
 C265 C 0.11074 0.30711 1.17016
 H266 H 0.10721 0.33983 1.20466
 H267 H 0.10763 0.29413 1.16159
 Cu268 Cu 0.14684 0.35290 1.18047
 Cu269 Cu 0.14714 0.31657 1.14759
 Cu270 Cu 0.18319 0.35262 1.14756
 N271 N 0.16675 0.37350 1.18034
 N272 N 0.18075 0.37351 1.16704
 C273 C 0.19260 0.38906 1.17005
 C274 C 0.18571 0.39946 1.18615
 C275 C 0.16921 0.38909 1.19224
 H276 H 0.20550 0.39224 1.16135
 H277 H 0.15982 0.39244 1.20457
 N278 N 0.18111 0.33240 1.12688
 N279 N 0.16736 0.31868 1.12689
 C280 C 0.16997 0.30700 1.11118
 C281 C 0.18619 0.31358 1.10076
 C282 C 0.19281 0.32977 1.11117
 H283 H 0.16079 0.29452 1.10772
 H284 H 0.20548 0.33876 1.10782
 H285 H 0.16892 0.33078 1.16279
 H286 H 0.15343 0.34625 1.14632
 N287 N 0.12637 0.81974 0.66647
 N288 N 0.12686 0.83320 0.68025
 C289 C 0.11122 0.83077 0.69213
 C290 C 0.10035 0.81483 0.68552
 C291 C 0.11047 0.80826 0.66913
 H292 H 0.10822 0.83972 0.70486
 H293 H 0.10702 0.79560 0.66022
 Cu294 Cu 0.14842 0.85197 0.68226
 Cu295 Cu 0.14735 0.81704 0.64729
 Cu296 Cu 0.18350 0.85274 0.64741
 N297 N 0.16744 0.87332 0.68035
 N298 N 0.18097 0.87367 0.66661
 C299 C 0.19262 0.88943 0.66928
 C300 C 0.18610 0.89962 0.68565
 C301 C 0.17000 0.88892 0.69222
 H302 H 0.20529 0.89277 0.66030
 H303 H 0.16105 0.89194 0.70496
 N304 N 0.18142 0.83262 0.62678
 N305 N 0.16762 0.81899 0.62672
 C306 C 0.17025 0.80728 0.61104
 C307 C 0.18656 0.81379 0.60069
 C308 C 0.19320 0.82994 0.61114
 H309 H 0.16121 0.79466 0.60767
 H310 H 0.20577 0.83903 0.60771
 H311 H 0.16975 0.83037 0.66258
 H312 H 0.15367 0.84670 0.64750
 N313 N 0.37370 0.68086 0.66653
 N314 N 0.37341 0.66730 0.68022
 C315 C 0.38901 0.66987 0.69209
 C316 C 0.39964 0.68601 0.68556
 C317 C 0.38943 0.69255 0.66923
 H318 H 0.39201 0.66103 0.70490
 H319 H 0.39284 0.70515 0.66020
 Cu320 Cu 0.35215 0.64816 0.68208
 Cu321 Cu 0.35274 0.68340 0.64738
 Cu322 Cu 0.31696 0.64735 0.64732
 N323 N 0.33316 0.62678 0.68018
 N324 N 0.31961 0.62639 0.66648
 C325 C 0.30804 0.61058 0.66918
 C326 C 0.31463 0.60040 0.68553
 C327 C 0.33068 0.61117 0.69206
 H328 H 0.29543 0.60714 0.66019
 H329 H 0.33960 0.60823 0.70482
 N330 N 0.31889 0.66760 0.62677
 N331 N 0.33256 0.68137 0.62680
 C332 C 0.32989 0.69313 0.61117
 C333 C 0.31371 0.68651 0.60074
 C334 C 0.30716 0.67025 0.61110
 H335 H 0.33902 0.70566 0.60772
 H336 H 0.29452 0.66123 0.60775
 H337 H 0.33050 0.66963 0.66267
 H338 H 0.34672 0.65363 0.64737
 N339 N 0.37377 0.18068 1.16648
 N340 N 0.37336 0.16716 1.18022
 C341 C 0.38897 0.16966 1.19210
 C342 C 0.39975 0.18570 1.18553
 C343 C 0.38960 0.19225 1.16916
 H344 H 0.39188 0.16083 1.20493
 H345 H 0.39308 0.20482 1.16011
 Cu346 Cu 0.35193 0.14822 1.18217
 Cu347 Cu 0.35280 0.18332 1.14732
 Cu348 Cu 0.31678 0.14749 1.14744
 N349 N 0.33295 0.12683 1.18026
 N350 N 0.31939 0.12651 1.16657
 C351 C 0.30778 0.11072 1.16924
 C352 C 0.31434 0.10048 1.18556
 C353 C 0.33044 0.11119 1.19211
 H354 H 0.29509 0.10740 1.16031
 H355 H 0.33941 0.10814 1.20480
 N356 N 0.31879 0.16768 1.12684
 N357 N 0.33254 0.18137 1.12678
 C358 C 0.32986 0.19311 1.11112
 C359 C 0.31359 0.18655 1.10078
 C360 C 0.30701 0.17034 1.11121
 H361 H 0.33887 0.20575 1.10776
 H362 H 0.29449 0.16120 1.10779
 H363 H 0.33051 0.16982 1.16263
 H364 H 0.34661 0.15361 1.14743
 N365 N 0.87365 0.68071 1.16663
 N366 N 0.87324 0.66722 1.18040
 C367 C 0.88886 0.66975 1.19227
 C368 C 0.89963 0.68577 1.18567
 C369 C 0.88947 0.69229 1.16929
 H370 H 0.89177 0.66093 1.20511
 H371 H 0.89296 0.70483 1.16020
 Cu372 Cu 0.85182 0.64825 1.18235
 Cu373 Cu 0.85269 0.68329 1.14745
 Cu374 Cu 0.81670 0.64744 1.14758
 N375 N 0.83284 0.62684 1.18045
 N376 N 0.81931 0.62649 1.16674
 C377 C 0.80772 0.61068 1.16940
 C378 C 0.81429 0.60045 1.18572
 C379 C 0.83035 0.61119 1.19229
 H380 H 0.79506 0.60733 1.16044
 H381 H 0.83931 0.60815 1.20500
 N382 N 0.81871 0.66760 1.12696
 N383 N 0.83245 0.68130 1.12689
 C384 C 0.82977 0.69301 1.11121
 C385 C 0.81351 0.68643 1.10087
 C386 C 0.80693 0.67024 1.11132
 H387 H 0.83876 0.70567 1.10784
 H388 H 0.79441 0.66108 1.10790
 H389 H 0.83038 0.66979 1.16275
 H390 H 0.84650 0.65357 1.14759
 N391 N 0.87341 0.18113 0.66674
 N392 N 0.87354 0.16710 0.67999
 C393 C 0.88904 0.16978 0.69198
 C394 C 0.89919 0.18642 0.68597
 C395 C 0.88877 0.19319 0.66985
 H396 H 0.89242 0.16051 0.70439
 H397 H 0.89187 0.20609 0.66114
 Cu398 Cu 0.85328 0.14682 0.68008
 Cu399 Cu 0.85256 0.18338 0.64724
 Cu400 Cu 0.81659 0.14740 0.64746
 N401 N 0.83306 0.12651 0.68017
 N402 N 0.81896 0.12662 0.66700
 C403 C 0.80692 0.11125 0.67019
 C404 C 0.81379 0.10084 0.68628
 C405 C 0.83046 0.11102 0.69219
 H406 H 0.79396 0.10817 0.66158
 H407 H 0.83985 0.10763 0.70450
 N408 N 0.81864 0.16747 0.62668
 N409 N 0.83236 0.18120 0.62658
 C410 C 0.82972 0.19282 0.61082
 C411 C 0.81349 0.18614 0.60048
 C412 C 0.80692 0.16999 0.61099
 H413 H 0.83868 0.20547 0.60741
 H414 H 0.79443 0.16079 0.60757
 H415 H 0.83104 0.16908 0.66290
 H416 H 0.84634 0.15372 0.64607
 N417 N 0.31941 0.37357 0.66652
 N418 N 0.33296 0.37314 0.68022
 C419 C 0.33056 0.38883 0.69202
 C420 C 0.31455 0.39967 0.68544
 C421 C 0.30791 0.38947 0.66915
 H422 H 0.33947 0.39174 0.70478
 H423 H 0.29530 0.39295 0.66014
 Cu424 Cu 0.35174 0.35157 0.68222
 Cu425 Cu 0.31664 0.35254 0.64748
 Cu426 Cu 0.35274 0.31663 0.64734
 N427 N 0.37328 0.33273 0.68024
 N428 N 0.37374 0.31923 0.66650
 C429 C 0.38960 0.30766 0.66920
 C430 C 0.39971 0.31421 0.68558
 C431 C 0.38889 0.33024 0.69213
 H432 H 0.39301 0.29493 0.66033
 H433 H 0.39188 0.33921 0.70483
 N434 N 0.33243 0.31864 0.62682
 N435 N 0.31864 0.33233 0.62691
 C436 C 0.30681 0.32968 0.61133
 C437 C 0.31342 0.31351 0.60087
 C438 C 0.32974 0.30693 0.61115
 H439 H 0.29425 0.33883 0.60793
 H440 H 0.33875 0.29428 0.60775
 H441 H 0.33032 0.33011 0.66258
 H442 H 0.34641 0.34636 0.64748
 N443 N 0.31921 0.87395 0.16664
 N444 N 0.33329 0.87401 0.17984
 C445 C 0.33070 0.88953 0.19182
 C446 C 0.31408 0.89976 0.18584
 C447 C 0.30721 0.88939 0.16976
 H448 H 0.34015 0.89305 0.20405
 H449 H 0.29416 0.89248 0.16126
 Cu450 Cu 0.35348 0.85364 0.17985
 Cu451 Cu 0.31683 0.85311 0.14716
 Cu452 Cu 0.35280 0.81702 0.14716
 N453 N 0.37379 0.83338 0.17983
 N454 N 0.37366 0.81931 0.16664
 C455 C 0.38907 0.80726 0.16976
 C456 C 0.39948 0.81408 0.18583
 C457 C 0.38931 0.83074 0.19181
 H458 H 0.39210 0.79420 0.16125
 H459 H 0.39286 0.84017 0.20403
 N460 N 0.33265 0.81919 0.12646
 N461 N 0.31891 0.83295 0.12647
 C462 C 0.30726 0.83043 0.11073
 C463 C 0.31391 0.81425 0.10026
 C464 C 0.33009 0.80757 0.11071
 H465 H 0.29465 0.83952 0.10739
 H466 H 0.33927 0.79506 0.10725
 H467 H 0.33120 0.83147 0.16274
 H468 H 0.34655 0.84672 0.14586
 N469 N 0.81909 0.37378 0.16670
 N470 N 0.83318 0.37384 0.17988
 C471 C 0.83060 0.38937 0.19186
 C472 C 0.81397 0.39959 0.18591
 C473 C 0.80708 0.38921 0.16984
 H474 H 0.84007 0.39289 0.20407
 H475 H 0.79399 0.39227 0.16138
 Cu476 Cu 0.85343 0.35352 0.17989
 Cu477 Cu 0.81670 0.35292 0.14725
 Cu478 Cu 0.85269 0.31685 0.14722
 N479 N 0.87367 0.33318 0.17989
 N480 N 0.87358 0.31913 0.16669
 C481 C 0.88898 0.30708 0.16984
 C482 C 0.89936 0.31389 0.18594
 C483 C 0.88917 0.33054 0.19190
 H484 H 0.89202 0.29400 0.16136
 H485 H 0.89270 0.33997 0.20413
 N486 N 0.83246 0.31896 0.12656
 N487 N 0.81873 0.33272 0.12658
 C488 C 0.80702 0.33016 0.11090
 C489 C 0.81361 0.31395 0.10046
 C490 C 0.82983 0.30729 0.11085
 H491 H 0.79452 0.33937 0.10743
 H492 H 0.83883 0.29461 0.10750
 H493 H 0.83110 0.33129 0.16282
 H494 H 0.84638 0.34653 0.14591
 N495 N 0.81922 0.87421 0.66660
 N496 N 0.83278 0.87386 0.68030
 C497 C 0.83018 0.88944 0.69219
 C498 C 0.81403 0.90012 0.68568
 C499 C 0.80752 0.88995 0.66933
 H500 H 0.83902 0.89239 0.70500
 H501 H 0.79492 0.89340 0.66030
 Cu502 Cu 0.85196 0.85258 0.68211
 Cu503 Cu 0.81673 0.85329 0.64742
 Cu504 Cu 0.85283 0.81745 0.64731
 N505 N 0.87340 0.83358 0.68017
 N506 N 0.87381 0.82005 0.66645
 C507 C 0.88966 0.80847 0.66913
 C508 C 0.89982 0.81503 0.68547
 C509 C 0.88903 0.83107 0.69203
 H510 H 0.89305 0.79574 0.66026
 H511 H 0.89209 0.84006 0.70471
 N512 N 0.83257 0.81943 0.62678
 N513 N 0.81878 0.83312 0.62683
 C514 C 0.80699 0.83044 0.61122
 C515 C 0.81362 0.81425 0.60081
 C516 C 0.82991 0.80769 0.61113
 H517 H 0.79442 0.83957 0.60780
 H518 H 0.83894 0.79504 0.60778
 H519 H 0.83051 0.83098 0.66268
 H520 H 0.84655 0.84716 0.64740
 N521 N 0.68074 0.62644 0.66665
 N522 N 0.66719 0.62677 0.68038
 C523 C 0.66973 0.61110 0.69219
 C524 C 0.68583 0.60038 0.68558
 C525 C 0.69237 0.61063 0.66927
 H526 H 0.66087 0.60810 0.70499
 H527 H 0.70495 0.60718 0.66019
 Cu528 Cu 0.64803 0.64809 0.68227
 Cu529 Cu 0.68329 0.64742 0.64751
 Cu530 Cu 0.64738 0.68341 0.64762
 N531 N 0.62670 0.66724 0.68044
 N532 N 0.62638 0.68082 0.66675
 C533 C 0.61058 0.69246 0.66941
 C534 C 0.60032 0.68590 0.68571
 C535 C 0.61102 0.66978 0.69227
 H536 H 0.60713 0.70504 0.66036
 H537 H 0.60800 0.66092 0.70506
 N538 N 0.66763 0.68146 0.62706
 N539 N 0.68135 0.66771 0.62700
 C540 C 0.69313 0.67042 0.61137
 C541 C 0.68657 0.68672 0.60105
 C542 C 0.67031 0.69328 0.61147
 H543 H 0.70582 0.66144 0.60802
 H544 H 0.66116 0.70582 0.60805
 H545 H 0.66963 0.66964 0.66292
 H546 H 0.65351 0.65365 0.64757
 N547 N 0.68067 0.12615 0.16635
 N548 N 0.66710 0.12656 0.18005
 C549 C 0.66959 0.11094 0.19194
 C550 C 0.68568 0.10018 0.18542
 C551 C 0.69228 0.11033 0.16906
 H552 H 0.66057 0.10791 0.20462
 H553 H 0.70504 0.10696 0.16021
 Cu554 Cu 0.64812 0.14800 0.18199
 Cu555 Cu 0.68331 0.14714 0.14720
 Cu556 Cu 0.64752 0.18328 0.14736
 N557 N 0.62675 0.16707 0.18010
 N558 N 0.62647 0.18066 0.16643
 C559 C 0.61066 0.19230 0.16909
 C560 C 0.60038 0.18571 0.18536
 C561 C 0.61106 0.16959 0.19191
 H562 H 0.60723 0.20491 0.16007
 H563 H 0.60804 0.16072 0.20470
 N564 N 0.66776 0.18127 0.12679
 N565 N 0.68142 0.16746 0.12669
 C566 C 0.69318 0.17015 0.11104
 C567 C 0.68666 0.18649 0.10076
 C568 C 0.67046 0.19310 0.11121
 H569 H 0.70583 0.16111 0.10764
 H570 H 0.66134 0.20568 0.10782
 H571 H 0.66981 0.16942 0.16257
 H572 H 0.65358 0.15350 0.14729
 N573 N 0.18068 0.62641 0.16630
 N574 N 0.16635 0.62610 0.17924
 C575 C 0.16892 0.61056 0.19121
 C576 C 0.18581 0.60056 0.18551
 C577 C 0.19283 0.61113 0.16959
 H578 H 0.15940 0.60704 0.20339
 H579 H 0.20600 0.60824 0.16119
 Cu580 Cu 0.14599 0.64634 0.17943
 Cu581 Cu 0.18314 0.64733 0.14699
 Cu582 Cu 0.14730 0.68339 0.14696
 N583 N 0.12587 0.66681 0.17919
 N584 N 0.12631 0.68110 0.16623
 C585 C 0.11107 0.69333 0.16944
 C586 C 0.10039 0.68640 0.18531
 C587 C 0.11026 0.66948 0.19108
 H588 H 0.10821 0.70644 0.16096
 H589 H 0.10665 0.66006 0.20331
 N590 N 0.16760 0.68138 0.12640
 N591 N 0.18131 0.66761 0.12641
 C592 C 0.19309 0.67023 0.11077
 C593 C 0.18655 0.68649 0.10037
 C594 C 0.17029 0.69311 0.11075
 H595 H 0.20572 0.66115 0.10744
 H596 H 0.16115 0.70565 0.10730
 H597 H 0.16861 0.66870 0.16284
 H598 H 0.15345 0.65367 0.14557
 N599 N 0.18087 0.12599 0.66686
 N600 N 0.16683 0.12597 0.68012
 C601 C 0.16947 0.11049 0.69217
 C602 C 0.18609 0.10024 0.68618
 C603 C 0.19289 0.11057 0.67002
 H604 H 0.16006 0.10700 0.70447
 H605 H 0.20595 0.10749 0.66151
 Cu606 Cu 0.14652 0.14626 0.68027
 Cu607 Cu 0.18319 0.14684 0.64737
 Cu608 Cu 0.14735 0.18305 0.64758
 N609 N 0.12632 0.16667 0.68021
 N610 N 0.12649 0.18077 0.66705
 C611 C 0.11110 0.19284 0.67020
 C612 C 0.10061 0.18602 0.68625
 C613 C 0.11076 0.16931 0.69219
 H614 H 0.10802 0.20578 0.66154
 H615 H 0.10731 0.15998 0.70454
 N616 N 0.16752 0.18095 0.62686
 N617 N 0.18119 0.16712 0.62673
 C618 C 0.19288 0.16977 0.61101
 C619 C 0.18632 0.18610 0.60073
 C620 C 0.17016 0.19274 0.61123
 H621 H 0.20552 0.16074 0.60759
 H622 H 0.16103 0.20531 0.60785
 H623 H 0.16894 0.16845 0.66305
 H624 H 0.15351 0.15335 0.64619
 N625 N 0.31949 0.62633 0.33335
 N626 N 0.33305 0.62675 0.31963
 C627 C 0.33066 0.61110 0.30780
 C628 C 0.31465 0.60028 0.31438
 C629 C 0.30800 0.61045 0.33070
 H630 H 0.33959 0.60818 0.29504
 H631 H 0.29538 0.60699 0.33971
 Cu632 Cu 0.35186 0.64826 0.31763
 Cu633 Cu 0.31671 0.64731 0.35245
 Cu634 Cu 0.35259 0.68331 0.35241
 N635 N 0.37329 0.66718 0.31957
 N636 N 0.37361 0.68070 0.33329
 C637 C 0.38943 0.69229 0.33065
 C638 C 0.39967 0.68574 0.31432
 C639 C 0.38895 0.66969 0.30774
 H640 H 0.39287 0.70485 0.33970
 H641 H 0.39193 0.66086 0.29492
 N642 N 0.33236 0.68127 0.37299
 N643 N 0.31866 0.66754 0.37301
 C644 C 0.30691 0.67017 0.38868
 C645 C 0.31348 0.68640 0.39907
 C646 C 0.32970 0.69300 0.38864
 H647 H 0.29426 0.66116 0.39203
 H648 H 0.33886 0.70550 0.39211
 H649 H 0.33021 0.66964 0.33721
 H650 H 0.34642 0.65352 0.35236
 N651 N 0.31926 0.12605 0.83358
 N652 N 0.33289 0.12630 0.81993
 C653 C 0.33043 0.11059 0.80818
 C654 C 0.31430 0.09995 0.81475
 C655 C 0.30765 0.11026 0.83098
 H656 H 0.33933 0.10752 0.79542
 H657 H 0.29504 0.10685 0.84000
 Cu658 Cu 0.35205 0.14756 0.81801
 Cu659 Cu 0.31655 0.14709 0.85261
 Cu660 Cu 0.35252 0.18289 0.85267
 N661 N 0.37326 0.16678 0.81984
 N662 N 0.37354 0.18034 0.83353
 C663 C 0.38930 0.19201 0.83082
 C664 C 0.39953 0.18548 0.81449
 C665 C 0.38889 0.16936 0.80797
 H666 H 0.39270 0.20460 0.83984
 H667 H 0.39191 0.16050 0.79518
 N668 N 0.33222 0.18098 0.87318
 N669 N 0.31846 0.16731 0.87312
 C670 C 0.30664 0.16997 0.88873
 C671 C 0.31322 0.18615 0.89917
 C672 C 0.32952 0.19270 0.88884
 H673 H 0.29411 0.16082 0.89216
 H674 H 0.33854 0.20533 0.89221
 H675 H 0.33039 0.16918 0.83718
 H676 H 0.34636 0.15308 0.85268
 N677 N 0.81924 0.62632 0.83308
 N678 N 0.83332 0.62627 0.81985
 C679 C 0.83077 0.61077 0.80785
 C680 C 0.81417 0.60052 0.81384
 C681 C 0.80727 0.61088 0.82995
 H682 H 0.84023 0.60728 0.79561
 H683 H 0.79421 0.60782 0.83844
 Cu684 Cu 0.85349 0.64664 0.81983
 Cu685 Cu 0.81677 0.64714 0.85257
 Cu686 Cu 0.85257 0.68330 0.85251
 N687 N 0.87366 0.66701 0.81981
 N688 N 0.87345 0.68108 0.83300
 C689 C 0.88879 0.69318 0.82987
 C690 C 0.89929 0.68640 0.81379
 C691 C 0.88919 0.66970 0.80782
 H692 H 0.89182 0.70611 0.83853
 H693 H 0.89267 0.66038 0.79549
 N694 N 0.83238 0.68114 0.87321
 N695 N 0.81872 0.66734 0.87325
 C696 C 0.80701 0.66991 0.88896
 C697 C 0.81353 0.68616 0.89935
 C698 C 0.82970 0.69283 0.88890
 H699 H 0.79455 0.66068 0.89246
 H700 H 0.83865 0.70553 0.89220
 H701 H 0.83102 0.66878 0.83698
 H702 H 0.84644 0.65356 0.85385
 N703 N 0.81925 0.12594 0.33345
 N704 N 0.83280 0.12631 0.31973
 C705 C 0.83029 0.11069 0.30787
 C706 C 0.81421 0.09997 0.31445
 C707 C 0.80765 0.11014 0.33079
 H708 H 0.83913 0.10774 0.29504
 H709 H 0.79507 0.10667 0.33985
 Cu710 Cu 0.85181 0.14769 0.31781
 Cu711 Cu 0.81660 0.14688 0.35261
 Cu712 Cu 0.85248 0.18280 0.35261
 N713 N 0.87317 0.16672 0.31973
 N714 N 0.87350 0.18023 0.33348
 C715 C 0.88929 0.19185 0.33083
 C716 C 0.89952 0.18535 0.31448
 C717 C 0.88882 0.16929 0.30788
 H718 H 0.89273 0.20439 0.33991
 H719 H 0.89180 0.16049 0.29504
 N720 N 0.83222 0.18081 0.37316
 N721 N 0.81852 0.16709 0.37316
 C722 C 0.80671 0.16977 0.38879
 C723 C 0.81325 0.18601 0.39916
 C724 C 0.82951 0.19258 0.38879
 H725 H 0.79419 0.16061 0.39224
 H726 H 0.83848 0.20525 0.39210
 H727 H 0.83020 0.16916 0.33730
 H728 H 0.84635 0.15304 0.35254
 N729 N 0.68094 0.37336 0.33299
 N730 N 0.66686 0.37354 0.31979
 C731 C 0.66945 0.38914 0.30791
 C732 C 0.68608 0.39932 0.31395
 C733 C 0.69294 0.38878 0.32996
 H734 H 0.66008 0.39262 0.29561
 H735 H 0.70585 0.39186 0.33866
 Cu736 Cu 0.64660 0.35328 0.31974
 Cu737 Cu 0.68328 0.35246 0.35242
 Cu738 Cu 0.64719 0.31659 0.35239
 N739 N 0.62628 0.33308 0.31970
 N740 N 0.62636 0.31901 0.33291
 C741 C 0.61092 0.30704 0.32981
 C742 C 0.60053 0.31391 0.31373
 C743 C 0.61074 0.33051 0.30772
 H744 H 0.60787 0.29398 0.33831
 H745 H 0.60720 0.33997 0.29550
 N746 N 0.66735 0.31859 0.37309
 N747 N 0.68114 0.33226 0.37308
 C748 C 0.69279 0.32963 0.38881
 C749 C 0.68609 0.31348 0.39925
 C750 C 0.66988 0.30692 0.38882
 H751 H 0.70546 0.33861 0.39215
 H752 H 0.66065 0.29447 0.39231
 H753 H 0.66885 0.33096 0.33686
 H754 H 0.65355 0.34628 0.35374
 N755 N 0.68071 0.87360 0.83319
 N756 N 0.66665 0.87371 0.81998
 C757 C 0.66916 0.88931 0.80808
 C758 C 0.68572 0.89955 0.81414
 C759 C 0.69263 0.88909 0.83016
 H760 H 0.65969 0.89289 0.79588
 H761 H 0.70567 0.89216 0.83868
 Cu762 Cu 0.64648 0.85337 0.81991
 Cu763 Cu 0.68315 0.85266 0.85260
 Cu764 Cu 0.64714 0.81669 0.85253
 N765 N 0.62618 0.83317 0.81986
 N766 N 0.62628 0.81908 0.83305
 C767 C 0.61085 0.80710 0.82992
 C768 C 0.60045 0.81400 0.81386
 C769 C 0.61065 0.83061 0.80788
 H770 H 0.60780 0.79404 0.83842
 H771 H 0.60711 0.84009 0.79568
 N772 N 0.66735 0.81868 0.87320
 N773 N 0.68109 0.83239 0.87322
 C774 C 0.69279 0.82972 0.88892
 C775 C 0.68616 0.81350 0.89931
 C776 C 0.66994 0.80695 0.88888
 H777 H 0.70546 0.83869 0.89227
 H778 H 0.66074 0.79447 0.89236
 H779 H 0.66879 0.83114 0.83705
 H780 H 0.65346 0.84641 0.85392
 N781 N 0.18068 0.37359 0.83311
 N782 N 0.16657 0.37371 0.81995
 C783 C 0.16913 0.38923 0.80796
 C784 C 0.18577 0.39943 0.81389
 C785 C 0.19267 0.38900 0.82995
 H786 H 0.15971 0.39264 0.79569
 H787 H 0.20566 0.39208 0.83854
 Cu788 Cu 0.14636 0.35342 0.81995
 Cu789 Cu 0.18306 0.35273 0.85260
 Cu790 Cu 0.14708 0.31674 0.85260
 N791 N 0.12607 0.33321 0.81997
 N792 N 0.12621 0.31913 0.83316
 C793 C 0.11078 0.30714 0.83008
 C794 C 0.10032 0.31403 0.81405
 C795 C 0.11050 0.33064 0.80803
 H796 H 0.10776 0.29409 0.83860
 H797 H 0.10693 0.34010 0.79583
 N798 N 0.16728 0.31878 0.87325
 N799 N 0.18102 0.33250 0.87326
 C800 C 0.19271 0.32985 0.88896
 C801 C 0.18608 0.31364 0.89935
 C802 C 0.16987 0.30707 0.88893
 H803 H 0.20538 0.33882 0.89230
 H804 H 0.16068 0.29459 0.89241
 H805 H 0.16869 0.33119 0.83706
 H806 H 0.15335 0.34645 0.85395
 N807 N 0.18103 0.87340 0.33293
 N808 N 0.16695 0.87357 0.31973
 C809 C 0.16956 0.88913 0.30780
 C810 C 0.18621 0.89929 0.31381
 C811 C 0.19305 0.88880 0.32985
 H812 H 0.16021 0.89259 0.29549
 H813 H 0.20597 0.89189 0.33854
 Cu814 Cu 0.14665 0.85333 0.31976
 Cu815 Cu 0.18335 0.85254 0.35241
 Cu816 Cu 0.14717 0.81676 0.35257
 N817 N 0.12629 0.83317 0.31980
 N818 N 0.12631 0.81915 0.33307
 C819 C 0.11083 0.80723 0.33000
 C820 C 0.10047 0.81408 0.31388
 C821 C 0.11076 0.83061 0.30781
 H822 H 0.10772 0.79421 0.33854
 H823 H 0.10726 0.84004 0.29556
 N824 N 0.16742 0.81875 0.37321
 N825 N 0.18123 0.83240 0.37312
 C826 C 0.19298 0.82976 0.38877
 C827 C 0.18634 0.81362 0.39926
 C828 C 0.17004 0.80708 0.38894
 H829 H 0.20554 0.83888 0.39218
 H830 H 0.16101 0.79447 0.39236
 H831 H 0.16882 0.83099 0.33695
 H832 H 0.15361 0.84643 0.35379
 C833 C 0.23813 1.06134 0.25256
 C834 C 0.25247 1.06137 0.23842
 C835 C 0.25924 1.04218 0.23686
 N836 N 0.24961 1.03050 0.24971
 C837 C 0.23657 1.04213 0.25921
 C838 C 0.27487 1.03610 0.22456
 C839 C 0.28087 1.01631 0.22224
 C840 C 0.29804 1.01039 0.21292
 C841 C 0.29805 0.99015 0.21291
 C842 C 0.28088 0.98425 0.22220
 N843 N 0.27043 1.00028 0.22766
 C844 C 0.27491 0.96446 0.22447
 C845 C 0.25920 0.95835 0.23663
 C846 C 0.25233 0.93920 0.23790
 C847 C 0.23792 0.93916 0.25197
 C848 C 0.23644 0.95829 0.25883
 N849 N 0.24957 0.96995 0.24954
 C850 C 0.22396 0.96432 0.27429
 C851 C 0.22152 0.98410 0.28024
 C852 C 0.21205 0.98995 0.29727
 C853 C 0.21209 1.01019 0.29737
 C854 C 0.22159 1.01616 0.28039
 N855 N 0.22708 1.00017 0.26994
 C856 C 0.22408 1.03599 0.27462
 H857 H 0.22994 1.07407 0.25753
 H858 H 0.25749 1.07414 0.23037
 H859 H 0.23236 1.00022 0.25570
 H860 H 0.30934 1.01967 0.20663
 H861 H 0.30937 0.98086 0.20663
 H862 H 0.25732 0.92651 0.22971
 H863 H 0.22964 0.92643 0.25674
 H864 H 0.20575 1.01943 0.30863
 H865 H 0.25606 1.00028 0.23278
 H866 H 0.20567 0.98062 0.30844
 C867 C 0.24243 0.43824 0.75627
 C868 C 0.25742 0.43826 0.74284
 C869 C 0.26176 0.45780 0.73895
 N870 N 0.24992 0.46966 0.74963
 C871 C 0.23809 0.45778 0.76026
 C872 C 0.27608 0.46415 0.72528
 C873 C 0.28022 0.48407 0.72078
 C874 C 0.29218 0.49005 0.70542
 C875 C 0.29218 0.51025 0.70547
 C876 C 0.28021 0.51616 0.72086
 N877 N 0.27329 0.50010 0.73034
 C878 C 0.27606 0.53607 0.72545
 C879 C 0.26177 0.54239 0.73920
 C880 C 0.25738 0.56192 0.74312
 C881 C 0.24243 0.56191 0.75659
 C882 C 0.23817 0.54236 0.76058
 N883 N 0.25001 0.53050 0.74991
 C884 C 0.22394 0.53601 0.77435
 C885 C 0.21979 0.51608 0.77883
 C886 C 0.20795 0.51009 0.79428
 C887 C 0.20792 0.48989 0.79419
 C888 C 0.21975 0.48399 0.77870
 N889 N 0.22662 0.50006 0.76918
 C890 C 0.22385 0.46409 0.77404
 H891 H 0.23561 0.42528 0.76249
 H892 H 0.26426 0.42531 0.73660
 H893 H 0.23432 0.50010 0.75610
 H894 H 0.29990 0.48082 0.69502
 H895 H 0.29989 0.51951 0.69511
 H896 H 0.26414 0.57488 0.73684
 H897 H 0.23555 0.57485 0.76280
 H898 H 0.20026 0.48062 0.80458
 H899 H 0.26547 0.50007 0.74335
 H900 H 0.20034 0.51931 0.80477
 C901 C 0.74750 -0.06123 0.23804
 C902 C 0.76181 -0.06129 0.25218
 C903 C 0.76346 -0.04210 0.25884
 N904 N 0.75050 -0.03039 0.24935
 C905 C 0.74083 -0.04201 0.23650
 C906 C 0.77592 -0.03606 0.27429
 C907 C 0.77838 -0.01626 0.28019
 C908 C 0.78792 -0.01040 0.29716
 C909 C 0.78792 0.00984 0.29720
 C910 C 0.77840 0.01581 0.28025
 N911 N 0.77285 -0.00020 0.26987
 C912 C 0.77594 0.03563 0.27442
 C913 C 0.76349 0.04178 0.25900
 C914 C 0.76199 0.06098 0.25229
 C915 C 0.74768 0.06103 0.23813
 C916 C 0.74088 0.04187 0.23665
 N917 N 0.75046 0.03017 0.24953
 C918 C 0.72530 0.03582 0.22433
 C919 C 0.71935 0.01604 0.22193
 C920 C 0.70223 0.01018 0.21253
 C921 C 0.70222 -0.01005 0.21250
 C922 C 0.71932 -0.01603 0.22188
 N923 N 0.72976 -0.00003 0.22738
 C924 C 0.72524 -0.03585 0.22421
 H925 H 0.74241 -0.07397 0.23001
 H926 H 0.76989 -0.07408 0.25715
 H927 H 0.74409 -0.00006 0.23258
 H928 H 0.79434 -0.01971 0.30833
 H929 H 0.79431 0.01909 0.30841
 H930 H 0.77020 0.07368 0.25720
 H931 H 0.74273 0.07377 0.23000
 H932 H 0.69093 -0.01929 0.20616
 H933 H 0.76755 -0.00015 0.25565
 H934 H 0.69097 0.01951 0.20624
 C935 C 0.73836 0.43883 0.74782
 C936 C 0.75268 0.43886 0.76195
 C937 C 0.75937 0.45806 0.76344
 N938 N 0.74971 0.46969 0.75056
 C939 C 0.73673 0.45802 0.74111
 C940 C 0.77497 0.46419 0.77571
 C941 C 0.78098 0.48398 0.77791
 C942 C 0.79806 0.48991 0.78732
 C943 C 0.79812 0.51015 0.78714
 C944 C 0.78106 0.51605 0.77765
 N945 N 0.77062 0.50002 0.77226
 C946 C 0.77517 0.53586 0.77512
 C947 C 0.75958 0.54194 0.76280
 C948 C 0.75282 0.56114 0.76126
 C949 C 0.73844 0.56111 0.74719
 C950 C 0.73684 0.54190 0.74058
 N951 N 0.74991 0.53026 0.75002
 C952 C 0.72427 0.53576 0.72527
 C953 C 0.72176 0.51593 0.71953
 C954 C 0.71216 0.50995 0.70264
 C955 C 0.71216 0.48971 0.70275
 C956 C 0.72177 0.48386 0.71970
 N957 N 0.72735 0.49994 0.72994
 C958 C 0.72425 0.46408 0.72566
 H959 H 0.73026 0.42606 0.74289
 H960 H 0.75775 0.42611 0.77000
 H961 H 0.73272 0.50000 0.74414
 H962 H 0.80927 0.48064 0.79380
 H963 H 0.80939 0.51945 0.79342
 H964 H 0.75784 0.57389 0.76931
 H965 H 0.73023 0.57384 0.74227
 H966 H 0.70570 0.48039 0.69165
 H967 H 0.75631 0.50005 0.76702
 H968 H 0.70571 0.51919 0.69144
 C969 C 0.25759 0.56188 0.25694
 C970 C 0.24266 0.56194 0.24347
 C971 C 0.23836 0.54242 0.23944
 N972 N 0.25016 0.53050 0.25008
 C973 C 0.26194 0.54232 0.26080
 C974 C 0.22411 0.53615 0.22568
 C975 C 0.21989 0.51625 0.22116
 C976 C 0.20799 0.51035 0.20574
 C977 C 0.20786 0.49015 0.20581
 C978 C 0.21970 0.48415 0.22124
 N979 N 0.22666 0.50017 0.23075
 C980 C 0.22373 0.46421 0.22585
 C981 C 0.23796 0.45783 0.23959
 C982 C 0.24227 0.43828 0.24353
 C983 C 0.25726 0.43822 0.25693
 C984 C 0.26164 0.45774 0.26087
 N985 N 0.24982 0.46966 0.25023
 C986 C 0.27597 0.46402 0.27454
 C987 C 0.28017 0.48391 0.27908
 C988 C 0.29213 0.48980 0.29445
 C989 C 0.29219 0.51000 0.29445
 C990 C 0.28027 0.51600 0.27908
 N991 N 0.27330 0.49998 0.26956
 C992 C 0.27619 0.53593 0.27453
 H993 H 0.26437 0.57480 0.26325
 H994 H 0.23582 0.57493 0.23730
 H995 H 0.26549 0.50001 0.25656
 H996 H 0.20040 0.51963 0.19530
 H997 H 0.20013 0.48094 0.19543
 H998 H 0.23543 0.42535 0.23729
 H999 H 0.26409 0.42524 0.26313
 H1000 H 0.29993 0.51920 0.30482
 H1001 H 0.23439 0.50015 0.24380
 H1002 H 0.29981 0.48052 0.30483
 C1003 C 0.74740 1.06132 0.76235
 C1004 C 0.76176 1.06132 0.74825
 C1005 C 0.76331 1.04215 0.74151
 N1006 N 0.75024 1.03051 0.75091
 C1007 C 0.74060 1.04215 0.76379
 C1008 C 0.77576 1.03607 0.72604
 C1009 C 0.77813 1.01629 0.72007
 C1010 C 0.78761 1.01039 0.70306
 C1011 C 0.78753 0.99016 0.70298
 C1012 C 0.77802 0.98422 0.71996
 N1013 N 0.77255 1.00024 0.73039
 C1014 C 0.77553 0.96442 0.72578
 C1015 C 0.76306 0.95833 0.74121
 C1016 C 0.76159 0.93916 0.74800
 C1017 C 0.74722 0.93917 0.76211
 C1018 C 0.74036 0.95834 0.76349
 N1019 N 0.74996 0.96997 0.75059
 C1020 C 0.72470 0.96443 0.77573
 C1021 C 0.71876 0.98423 0.77810
 C1022 C 0.70159 0.99017 0.78739
 C1023 C 0.70164 1.01041 0.78746
 C1024 C 0.71883 1.01630 0.77819
 N1025 N 0.72925 1.00024 0.77271
 C1026 C 0.72491 1.03607 0.77599
 H1027 H 0.74235 1.07407 0.77042
 H1028 H 0.76994 1.07406 0.74335
 H1029 H 0.74363 1.00020 0.76762
 H1030 H 0.79404 1.01969 0.69189
 H1031 H 0.79387 0.98089 0.69174
 H1032 H 0.76986 0.92644 0.74316
 H1033 H 0.74228 0.92646 0.77029
 H1034 H 0.69035 1.01971 0.79377
 H1035 H 0.76728 1.00020 0.74464
 H1036 H 0.69025 0.98090 0.79361
 C1037 C 0.73799 0.43907 0.25236
 C1038 C 0.75238 0.43907 0.23828
 C1039 C 0.75921 0.45823 0.23689
 N1040 N 0.74957 0.46988 0.24976
 C1041 C 0.73646 0.45825 0.25912
 C1042 C 0.77488 0.46430 0.22467
 C1043 C 0.78086 0.48408 0.22234
 C1044 C 0.79802 0.48996 0.21301
 C1045 C 0.79802 0.51020 0.21298
 C1046 C 0.78087 0.51615 0.22231
 N1047 N 0.77042 0.50013 0.22778
 C1048 C 0.77488 0.53595 0.22460
 C1049 C 0.75924 0.54207 0.23687
 C1050 C 0.75250 0.56127 0.23837
 C1051 C 0.73816 0.56128 0.25251
 C1052 C 0.73658 0.54209 0.25920
 N1053 N 0.74960 0.53042 0.24973
 C1054 C 0.72411 0.53601 0.27465
 C1055 C 0.72157 0.51620 0.28047
 C1056 C 0.71201 0.51028 0.29743
 C1057 C 0.71197 0.49004 0.29740
 C1058 C 0.72151 0.48413 0.28043
 N1059 N 0.72708 0.50017 0.27009
 C1060 C 0.72396 0.46433 0.27454
 H1061 H 0.72976 0.42635 0.25721
 H1062 H 0.75739 0.42634 0.23015
 H1063 H 0.73240 0.50018 0.25586
 H1064 H 0.80932 0.48064 0.20675
 H1065 H 0.80932 0.51946 0.20667
 H1066 H 0.75754 0.57401 0.23031
 H1067 H 0.72999 0.57404 0.25745
 H1068 H 0.70555 0.48076 0.30858
 H1069 H 0.75606 0.50015 0.23291
 H1070 H 0.70563 0.51956 0.30864
 C1071 C 0.24796 -0.06140 0.73833
 C1072 C 0.26232 -0.06145 0.75241
 C1073 C 0.26395 -0.04226 0.75909
 N1074 N 0.25091 -0.03057 0.74968
 C1075 C 0.24123 -0.04220 0.73684
 C1076 C 0.27646 -0.03619 0.77449
 C1077 C 0.27885 -0.01641 0.78045
 C1078 C 0.28841 -0.01056 0.79742
 C1079 C 0.28835 0.00967 0.79750
 C1080 C 0.27878 0.01565 0.78058
 N1081 N 0.27325 -0.00034 0.77017
 C1082 C 0.27622 0.03547 0.77483
 C1083 C 0.26369 0.04161 0.75948
 C1084 C 0.26213 0.06081 0.75278
 C1085 C 0.24776 0.06085 0.73871
 C1086 C 0.24097 0.04168 0.73724
 N1087 N 0.25063 0.02999 0.75006
 C1088 C 0.22536 0.03562 0.72497
 C1089 C 0.21947 0.01582 0.72252
 C1090 C 0.20237 0.00994 0.71313
 C1091 C 0.20243 -0.01030 0.71302
 C1092 C 0.21956 -0.01625 0.72237
 N1093 N 0.22994 -0.00022 0.72792
 C1094 C 0.22559 -0.03605 0.72461
 H1095 H 0.24288 -0.07414 0.73029
 H1096 H 0.27045 -0.07423 0.75734
 H1097 H 0.24427 -0.00022 0.73311
 H1098 H 0.29487 -0.01987 0.80856
 H1099 H 0.29473 0.01892 0.80872
 H1100 H 0.27037 0.07351 0.75766
 H1101 H 0.24275 0.07360 0.73061
 H1102 H 0.19119 -0.01956 0.70664
 H1103 H 0.26793 -0.00028 0.75596
 H1104 H 0.19106 0.01925 0.70688
 C1105 C 0.24790 0.26230 1.06070
 C1106 C 0.26220 0.24805 1.06069
 C1107 C 0.26356 0.24114 1.04164
 N1108 N 0.25048 0.25060 1.03007
 C1109 C 0.24099 0.26366 1.04165
 C1110 C 0.27587 0.22549 1.03561
 C1111 C 0.27818 0.21946 1.01593
 C1112 C 0.28746 0.20225 1.01008
 C1113 C 0.28736 0.20216 0.98993
 C1114 C 0.27804 0.21933 0.98402
 N1115 N 0.27270 0.22987 0.99995
 C1116 C 0.27557 0.22520 0.96431
 C1117 C 0.26327 0.24085 0.95827
 C1118 C 0.26189 0.24773 0.93920
 C1119 C 0.24766 0.26204 0.93921
 C1120 C 0.24080 0.26346 0.95829
 N1121 N 0.25026 0.25039 0.96987
 C1122 C 0.22520 0.27583 0.96433
 C1123 C 0.21928 0.27825 0.98404
 C1124 C 0.20209 0.28757 0.98994
 C1125 C 0.20212 0.28759 1.01009
 C1126 C 0.21933 0.27829 1.01595
 N1127 N 0.22979 0.27286 0.99998
 C1128 C 0.22531 0.27594 1.03563
 H1129 H 0.24301 0.27054 1.07336
 H1130 H 0.27046 0.24317 1.07334
 H1131 H 0.24417 0.26773 0.99994
 H1132 H 0.29373 0.19095 1.01935
 H1133 H 0.29355 0.19079 0.98069
 H1134 H 0.27013 0.24281 0.92654
 H1135 H 0.24279 0.27031 0.92656
 H1136 H 0.19079 0.29384 1.01936
 H1137 H 0.26756 0.24424 0.99992
 H1138 H 0.19074 0.29379 0.98070
 C1139 C 0.23765 0.75186 0.43924
 C1140 C 0.25188 0.73756 0.43925
 C1141 C 0.25882 0.73621 0.45829
 N1142 N 0.24939 0.74932 0.46986
 C1143 C 0.23633 0.75881 0.45829
 C1144 C 0.27446 0.72389 0.46431
 C1145 C 0.28045 0.72153 0.48399
 C1146 C 0.29767 0.71225 0.48985
 C1147 C 0.29770 0.71229 0.51000
 C1148 C 0.28051 0.72159 0.51590
 N1149 N 0.26999 0.72697 0.49996
 C1150 C 0.27458 0.72402 0.53560
 C1151 C 0.25893 0.73633 0.54163
 C1152 C 0.25202 0.73770 0.56069
 C1153 C 0.23775 0.75198 0.56069
 C1154 C 0.23640 0.75888 0.54163
 N1155 N 0.24946 0.74940 0.53005
 C1156 C 0.22412 0.77455 0.53561
 C1157 C 0.22173 0.78049 0.51591
 C1158 C 0.21251 0.79772 0.51002
 C1159 C 0.21250 0.79771 0.48987
 C1160 C 0.22172 0.78047 0.48400
 N1161 N 0.22709 0.76998 0.49996
 C1162 C 0.22407 0.77450 0.46430
 H1163 H 0.22937 0.75674 0.42660
 H1164 H 0.25672 0.72925 0.42660
 H1165 H 0.23216 0.75559 0.49997
 H1166 H 0.30900 0.70600 0.48058
 H1167 H 0.30907 0.70609 0.51925
 H1168 H 0.25689 0.72943 0.57334
 H1169 H 0.22948 0.75686 0.57335
 H1170 H 0.20634 0.80907 0.48061
 H1171 H 0.25561 0.73210 0.49998
 H1172 H 0.20635 0.80909 0.51927
 C1173 C 0.24313 0.74309 -0.06192
 C1174 C 0.25657 0.75808 -0.06197
 C1175 C 0.26088 0.76213 -0.04254
 N1176 N 0.25042 0.75015 -0.03069
 C1177 C 0.23954 0.73847 -0.04246
 C1178 C 0.27480 0.77628 -0.03631
 C1179 C 0.27952 0.78032 -0.01652
 C1180 C 0.29523 0.79193 -0.01066
 C1181 C 0.29526 0.79197 0.00945
 C1182 C 0.27956 0.78038 0.01543
 N1183 N 0.26983 0.77364 -0.00051
 C1184 C 0.27490 0.77641 0.03527
 C1185 C 0.26096 0.76233 0.04162
 C1186 C 0.25684 0.75821 0.06109
 C1187 C 0.24330 0.74331 0.06115
 C1188 C 0.23946 0.73881 0.04171
 N1189 N 0.25031 0.75045 0.02985
 C1190 C 0.22575 0.72446 0.03548
 C1191 C 0.22132 0.72009 0.01568
 C1192 C 0.20605 0.70791 0.00981
 C1193 C 0.20611 0.70778 -0.01030
 C1194 C 0.22139 0.71991 -0.01627
 N1195 N 0.23082 0.72704 -0.00033
 C1196 C 0.22593 0.72406 -0.03611
 H1197 H 0.23663 0.73646 -0.07479
 H1198 H 0.26255 0.76511 -0.07489
 H1199 H 0.24374 0.73507 -0.00035
 H1200 H 0.30581 0.79938 -0.01991
 H1201 H 0.30585 0.79946 0.01862
 H1202 H 0.26303 0.76512 0.07396
 H1203 H 0.23698 0.73661 0.07408
 H1204 H 0.19583 0.69987 -0.01947
 H1205 H 0.25655 0.76618 -0.00047
 H1206 H 0.19569 0.70014 0.01905
 C1207 C 0.24808 0.23777 0.43942
 C1208 C 0.26228 0.25206 0.43941
 C1209 C 0.26358 0.25898 0.45847
 N1210 N 0.25053 0.24949 0.47005
 C1211 C 0.24114 0.23641 0.45847
 C1212 C 0.27581 0.27465 0.46449
 C1213 C 0.27817 0.28059 0.48418
 C1214 C 0.28739 0.29778 0.49007
 C1215 C 0.28739 0.29776 0.51022
 C1216 C 0.27816 0.28055 0.51609
 N1217 N 0.27280 0.27008 0.50013
 C1218 C 0.27579 0.27456 0.53578
 C1219 C 0.26356 0.25888 0.54180
 C1220 C 0.26227 0.25191 0.56085
 C1221 C 0.24806 0.23761 0.56085
 C1222 C 0.24112 0.23630 0.54181
 N1223 N 0.25051 0.24941 0.53023
 C1224 C 0.22551 0.22397 0.53580
 C1225 C 0.21957 0.22161 0.51610
 C1226 C 0.20238 0.21235 0.51022
 C1227 C 0.20238 0.21239 0.49007
 C1228 C 0.21957 0.22167 0.48419
 N1229 N 0.23006 0.22703 0.50014
 C1230 C 0.22552 0.22409 0.46449
 H1231 H 0.24326 0.22949 0.42677
 H1232 H 0.27057 0.25694 0.42677
 H1233 H 0.24443 0.23214 0.50014
 H1234 H 0.29358 0.30914 0.48081
 H1235 H 0.29357 0.30909 0.51948
 H1236 H 0.27055 0.25676 0.57348
 H1237 H 0.24325 0.22929 0.57349
 H1238 H 0.19104 0.20620 0.48082
 H1239 H 0.26772 0.25571 0.50013
 H1240 H 0.19104 0.20614 0.51948
 C1241 C 0.74777 0.76213 1.06081
 C1242 C 0.76206 0.74788 1.06080
 C1243 C 0.76345 0.74099 1.04174
 N1244 N 0.75038 0.75046 1.03017
 C1245 C 0.74087 0.76350 1.04175
 C1246 C 0.77578 0.72536 1.03572
 C1247 C 0.77815 0.71938 1.01603
 C1248 C 0.78747 0.70219 1.01016
 C1249 C 0.78743 0.70215 0.99001
 C1250 C 0.77809 0.71931 0.98411
 N1251 N 0.77268 0.72981 1.00006
 C1252 C 0.77569 0.72524 0.96441
 C1253 C 0.76337 0.74088 0.95837
 C1254 C 0.76199 0.74776 0.93930
 C1255 C 0.74774 0.76205 0.93931
 C1256 C 0.74085 0.76345 0.95837
 N1257 N 0.75032 0.75039 0.96996
 C1258 C 0.72522 0.77580 0.96441
 C1259 C 0.71928 0.77821 0.98411
 C1260 C 0.70209 0.78754 0.99000
 C1261 C 0.70209 0.78754 1.01015
 C1262 C 0.71927 0.77821 1.01603
 N1263 N 0.72975 0.77278 1.00007
 C1264 C 0.72521 0.77580 1.03572
 H1265 H 0.74286 0.77037 1.07347
 H1266 H 0.77033 0.74301 1.07346
 H1267 H 0.74412 0.76761 1.00005
 H1268 H 0.79374 0.69090 1.01943
 H1269 H 0.79368 0.69082 0.98077
 H1270 H 0.77024 0.74286 0.92664
 H1271 H 0.74287 0.77032 0.92665
 H1272 H 0.69075 0.79379 1.01941
 H1273 H 0.76754 0.74417 1.00004
 H1274 H 0.69076 0.79380 0.98075
 C1275 C 0.76201 0.24767 0.56062
 C1276 C 0.74775 0.26196 0.56067
 C1277 C 0.74081 0.26335 0.54163
 N1278 N 0.75024 0.25028 0.53002
 C1279 C 0.76332 0.24078 0.54156
 C1280 C 0.72517 0.27570 0.53564
 C1281 C 0.71918 0.27810 0.51596
 C1282 C 0.70200 0.28745 0.51012
 C1283 C 0.70197 0.28746 0.48997
 C1284 C 0.71913 0.27811 0.48405
 N1285 N 0.72962 0.27266 0.49998
 C1286 C 0.72507 0.27574 0.46434
 C1287 C 0.74069 0.26341 0.45826
 C1288 C 0.74755 0.26204 0.43918
 C1289 C 0.76180 0.24775 0.43914
 C1290 C 0.76320 0.24084 0.45819
 N1291 N 0.75018 0.25034 0.46981
 C1292 C 0.77550 0.22518 0.46419
 C1293 C 0.77790 0.21921 0.48388
 C1294 C 0.78718 0.20200 0.48973
 C1295 C 0.78721 0.20198 0.50988
 C1296 C 0.77795 0.21919 0.51579
 N1297 N 0.77253 0.22968 0.49985
 C1298 C 0.77561 0.22513 0.53549
 H1299 H 0.77030 0.24277 0.57325
 H1300 H 0.74291 0.27022 0.57333
 H1301 H 0.76743 0.24407 0.49986
 H1302 H 0.69069 0.29371 0.51940
 H1303 H 0.69064 0.29374 0.48074
 H1304 H 0.74264 0.27030 0.42654
 H1305 H 0.77003 0.24285 0.42646
 H1306 H 0.79343 0.19063 0.51912
 H1307 H 0.74399 0.26749 0.49994
 H1308 H 0.79337 0.19066 0.48046
 C1309 C 0.76247 0.25228 0.06061
 C1310 C 0.74829 0.23795 0.06067
 C1311 C 0.74134 0.23656 0.04164
 N1312 N 0.75069 0.24966 0.03001
 C1313 C 0.76372 0.25919 0.04154
 C1314 C 0.72575 0.22419 0.03567
 C1315 C 0.71979 0.22173 0.01600
 C1316 C 0.70262 0.21238 0.01018
 C1317 C 0.70258 0.21236 -0.00997
 C1318 C 0.71972 0.22169 -0.01591
 N1319 N 0.73021 0.22715 0.00000
 C1320 C 0.72560 0.22411 -0.03563
 C1321 C 0.74114 0.23649 -0.04172
 C1322 C 0.74802 0.23785 -0.06079
 C1323 C 0.76217 0.25221 -0.06085
 C1324 C 0.76349 0.25917 -0.04182
 N1325 N 0.75052 0.24963 -0.03019
 C1326 C 0.77567 0.27489 -0.03585
 C1327 C 0.77806 0.28087 -0.01617
 C1328 C 0.78723 0.29811 -0.01033
 C1329 C 0.78729 0.29811 0.00982
 C1330 C 0.77816 0.28087 0.01575
 N1331 N 0.77278 0.27036 -0.00018
 C1332 C 0.77590 0.27490 0.03546
 H1333 H 0.77074 0.25720 0.07322
 H1334 H 0.74351 0.22966 0.07334
 H1335 H 0.76778 0.25596 -0.00015
 H1336 H 0.69132 0.20615 0.01948
 H1337 H 0.69124 0.20610 -0.01918
 H1338 H 0.74322 0.22951 -0.07340
 H1339 H 0.77040 0.25710 -0.07353
 H1340 H 0.79345 0.30948 0.01905
 H1341 H 0.74456 0.23233 -0.00005
 H1342 H 0.79333 0.30948 -0.01962
 C1343 C 0.74808 0.73820 0.43961
 C1344 C 0.76227 0.75251 0.43957
 C1345 C 0.76359 0.75945 0.45861
 N1346 N 0.75058 0.74995 0.47022
 C1347 C 0.74118 0.73684 0.45868
 C1348 C 0.77581 0.77514 0.46459
 C1349 C 0.77823 0.78106 0.48429
 C1350 C 0.78742 0.79828 0.49016
 C1351 C 0.78748 0.79824 0.51030
 C1352 C 0.77832 0.78100 0.51620
 N1353 N 0.77293 0.77053 0.50025
 C1354 C 0.77601 0.77501 0.53589
 C1355 C 0.76381 0.75932 0.54195
 C1356 C 0.76254 0.75237 0.56100
 C1357 C 0.74832 0.73809 0.56105
 C1358 C 0.74135 0.73676 0.54202
 N1359 N 0.75074 0.74985 0.53041
 C1360 C 0.72571 0.72447 0.53604
 C1361 C 0.71972 0.72209 0.51636
 C1362 C 0.70253 0.71282 0.51052
 C1363 C 0.70249 0.71283 0.49037
 C1364 C 0.71967 0.72211 0.48445
 N1365 N 0.73017 0.72750 0.50038
 C1366 C 0.72559 0.72451 0.46475
 H1367 H 0.74326 0.72988 0.42699
 H1368 H 0.77052 0.75738 0.42690
 H1369 H 0.74455 0.73262 0.50034
 H1370 H 0.79353 0.80966 0.48089
 H1371 H 0.79365 0.80958 0.51956
 H1372 H 0.77085 0.75724 0.57362
 H1373 H 0.74351 0.72979 0.57370
 H1374 H 0.69114 0.70662 0.48114
 H1375 H 0.76790 0.75614 0.50025
 H1376 H 0.69121 0.70660 0.51981
 C1377 C 1.06096 0.25224 0.23847
 C1378 C 1.06098 0.23789 0.25258
 C1379 C 1.04180 0.23643 0.25940
 N1380 N 1.03013 0.24953 0.25005
 C1381 C 1.04177 0.25912 0.23714
 C1382 C 1.03572 0.22398 0.27485
 C1383 C 1.01590 0.22153 0.28070
 C1384 C 1.00996 0.21211 0.29772
 C1385 C 0.98971 0.21206 0.29767
 C1386 C 0.98381 0.22146 0.28062
 N1387 N 0.99987 0.22697 0.27027
 C1388 C 0.96400 0.22381 0.27467
 C1389 C 0.95792 0.23623 0.25921
 C1390 C 0.93876 0.23764 0.25234
 C1391 C 0.93875 0.25201 0.23825
 C1392 C 0.95789 0.25894 0.23696
 N1393 N 0.96954 0.24938 0.24990
 C1394 C 0.96396 0.27464 0.22480
 C1395 C 0.98375 0.28068 0.22257
 C1396 C 0.98963 0.29794 0.21345
 C1397 C 1.00990 0.29797 0.21349
 C1398 C 1.01584 0.28075 0.22264
 N1399 N 0.99982 0.27023 0.22795
 C1400 C 1.03566 0.27479 0.22494
 H1401 H 1.07368 0.25719 0.23029
 H1402 H 1.07371 0.22961 0.25739
 H1403 H 0.99986 0.25583 0.23296
 H1404 H 1.01925 0.20583 0.30898
 H1405 H 0.98039 0.20573 0.30889
 H1406 H 0.92605 0.22932 0.25712
 H1407 H 0.92603 0.25692 0.23004
 H1408 H 1.01918 0.30935 0.20737
 H1409 H 0.99989 0.23219 0.25600
 H1410 H 0.98031 0.30928 0.20729
 C1411 C 0.56104 0.23775 0.75227
 C1412 C 0.56103 0.25217 0.73824
 C1413 C 0.54185 0.25904 0.73691
 N1414 N 0.53019 0.24939 0.74976
 C1415 C 0.54185 0.23625 0.75906
 C1416 C 0.53576 0.27476 0.72478
 C1417 C 0.51593 0.28068 0.72242
 C1418 C 0.50998 0.29789 0.71325
 C1419 C 0.48972 0.29782 0.71315
 C1420 C 0.48384 0.28056 0.72227
 N1421 N 0.49991 0.27013 0.72769
 C1422 C 0.46404 0.27453 0.72450
 C1423 C 0.45796 0.25887 0.73670
 C1424 C 0.43879 0.25200 0.73806
 C1425 C 0.43878 0.23767 0.75219
 C1426 C 0.45796 0.23620 0.75901
 N1427 N 0.46960 0.24929 0.74962
 C1428 C 0.46404 0.22378 0.77448
 C1429 C 0.48386 0.22133 0.78035
 C1430 C 0.48978 0.21188 0.79737
 C1431 C 0.51004 0.21186 0.79736
 C1432 C 0.51596 0.22131 0.78035
 N1433 N 0.49991 0.22681 0.76997
 C1434 C 0.53578 0.22377 0.77448
 H1435 H 0.57378 0.22947 0.75706
 H1436 H 0.57376 0.25717 0.73010
 H1437 H 0.49992 0.23206 0.75572
 H1438 H 0.51927 0.30928 0.70715
 H1439 H 0.48040 0.30915 0.70696
 H1440 H 0.42607 0.25696 0.72988
 H1441 H 0.42605 0.22943 0.75704
 H1442 H 0.51934 0.20553 0.80859
 H1443 H 0.49995 0.25573 0.73270
 H1444 H 0.48048 0.20555 0.80860
 C1445 C -0.06139 0.23828 0.74806
 C1446 C -0.06141 0.25265 0.76214
 C1447 C -0.04224 0.25949 0.76348
 N1448 N -0.03057 0.24986 0.75061
 C1449 C -0.04220 0.23677 0.74127
 C1450 C -0.03617 0.27518 0.77563
 C1451 C -0.01635 0.28110 0.77792
 C1452 C -0.01042 0.29833 0.78702
 C1453 C 0.00984 0.29828 0.78700
 C1454 C 0.01574 0.28102 0.77790
 N1455 N -0.00031 0.27056 0.77259
 C1456 C 0.03554 0.27497 0.77564
 C1457 C 0.04164 0.25923 0.76354
 C1458 C 0.06082 0.25233 0.76224
 C1459 C 0.06085 0.23793 0.74821
 C1460 C 0.04168 0.23646 0.74138
 N1461 N 0.03001 0.24961 0.75067
 C1462 C 0.03564 0.22400 0.72596
 C1463 C 0.01583 0.22159 0.72008
 C1464 C 0.00993 0.21216 0.70307
 C1465 C -0.01033 0.21227 0.70302
 C1466 C -0.01627 0.22176 0.72000
 N1467 N -0.00024 0.22717 0.73042
 C1468 C -0.03610 0.22432 0.72583
 H1469 H -0.07412 0.23003 0.74324
 H1470 H -0.07414 0.25763 0.77030
 H1471 H -0.00027 0.23243 0.74466
 H1472 H -0.01972 0.30973 0.79313
 H1473 H 0.01915 0.30963 0.79311
 H1474 H 0.07354 0.25732 0.77038
 H1475 H 0.07359 0.22963 0.74343
 H1476 H -0.01962 0.20598 0.69178
 H1477 H -0.00032 0.25615 0.76762
 H1478 H 0.01924 0.20578 0.69187
 C1479 C 0.56113 0.25224 0.26164
 C1480 C 0.56113 0.23789 0.24754
 C1481 C 0.54194 0.23644 0.24078
 N1482 N 0.53028 0.24952 0.25016
 C1483 C 0.54194 0.25910 0.26303
 C1484 C 0.53585 0.22400 0.22535
 C1485 C 0.51603 0.22159 0.21952
 C1486 C 0.51010 0.21219 0.20250
 C1487 C 0.48985 0.21219 0.20256
 C1488 C 0.48394 0.22159 0.21961
 N1489 N 0.50000 0.22706 0.22996
 C1490 C 0.46413 0.22396 0.22558
 C1491 C 0.45805 0.23633 0.24109
 C1492 C 0.43887 0.23779 0.24793
 C1493 C 0.43887 0.25209 0.26208
 C1494 C 0.45804 0.25894 0.26342
 N1495 N 0.46969 0.24938 0.25047
 C1496 C 0.46412 0.27458 0.27563
 C1497 C 0.48393 0.28057 0.27786
 C1498 C 0.48982 0.29779 0.28703
 C1499 C 0.51008 0.29784 0.28690
 C1500 C 0.51602 0.28066 0.27767
 N1501 N 0.49999 0.27014 0.27240
 C1502 C 0.53584 0.27474 0.27525
 H1503 H 0.57385 0.25719 0.26979
 H1504 H 0.57386 0.22963 0.24269
 H1505 H 0.50002 0.25576 0.26735
 H1506 H 0.51939 0.20589 0.19124
 H1507 H 0.48054 0.20586 0.19136
 H1508 H 0.42614 0.22957 0.24308
 H1509 H 0.42615 0.25703 0.27027
 H1510 H 0.51937 0.30921 0.29301
 H1511 H 0.50002 0.23226 0.24422
 H1512 H 0.48051 0.30911 0.29325
 C1513 C 1.06126 0.73868 0.75224
 C1514 C 1.06124 0.75294 0.73805
 C1515 C 1.04203 0.75972 0.73659
 N1516 N 1.03038 0.75015 0.74951
 C1517 C 1.04206 0.73715 0.75899
 C1518 C 1.03591 0.77528 0.72427
 C1519 C 1.01609 0.78119 0.72188
 C1520 C 1.01015 0.79837 0.71263
 C1521 C 0.98990 0.79835 0.71262
 C1522 C 0.98400 0.78116 0.72185
 N1523 N 1.00006 0.77070 0.72726
 C1524 C 0.96419 0.77521 0.72418
 C1525 C 0.95811 0.75957 0.73641
 C1526 C 0.93894 0.75273 0.73779
 C1527 C 0.93894 0.73839 0.75191
 C1528 C 0.95812 0.73691 0.75871
 N1529 N 0.96976 0.74998 0.74932
 C1530 C 0.96420 0.72449 0.77419
 C1531 C 0.98401 0.72212 0.78016
 C1532 C 0.98990 0.71258 0.79714
 C1533 C 1.01016 0.71266 0.79722
 C1534 C 1.01612 0.72225 0.78030
 N1535 N 1.00009 0.72775 0.76989
 C1536 C 1.03596 0.72472 0.77446
 H1537 H 1.07403 0.73053 0.75717
 H1538 H 1.07397 0.75789 0.72988
 H1539 H 1.00012 0.73307 0.75567
 H1540 H 1.01944 0.80971 0.70646
 H1541 H 0.98058 0.80968 0.70642
 H1542 H 0.92621 0.75770 0.72962
 H1543 H 0.92620 0.73017 0.75676
 H1544 H 1.01942 0.70625 0.80843
 H1545 H 1.00009 0.75634 0.73235
 H1546 H 0.98058 0.70610 0.80826
 C1547 C 0.56110 0.75237 0.23800
 C1548 C 0.56113 0.73800 0.25210
 C1549 C 0.54196 0.73657 0.25896
 N1550 N 0.53029 0.74968 0.24963
 C1551 C 0.54192 0.75926 0.23670
 C1552 C 0.53591 0.72417 0.27445
 C1553 C 0.51610 0.72171 0.28034
 C1554 C 0.51020 0.71232 0.29739
 C1555 C 0.48994 0.71229 0.29739
 C1556 C 0.48401 0.72167 0.28034
 N1557 N 0.50004 0.72715 0.26994
 C1558 C 0.46419 0.72405 0.27445
 C1559 C 0.45809 0.73646 0.25898
 C1560 C 0.43892 0.73789 0.25216
 C1561 C 0.43890 0.75223 0.23804
 C1562 C 0.45806 0.75913 0.23670
 N1563 N 0.46971 0.74958 0.24963
 C1564 C 0.46412 0.77481 0.22452
 C1565 C 0.48390 0.78085 0.22226
 C1566 C 0.48977 0.79810 0.21313
 C1567 C 0.51003 0.79815 0.21315
 C1568 C 0.51599 0.78091 0.22228
 N1569 N 0.49997 0.77038 0.22760
 C1570 C 0.53581 0.77496 0.22456
 H1571 H 0.57381 0.75731 0.22980
 H1572 H 0.57386 0.72971 0.25689
 H1573 H 0.50001 0.75598 0.23259
 H1574 H 0.51951 0.70604 0.30863
 H1575 H 0.48065 0.70599 0.30865
 H1576 H 0.42620 0.72961 0.25698
 H1577 H 0.42617 0.75716 0.22985
 H1578 H 0.51931 0.80953 0.20702
 H1579 H 0.50004 0.73235 0.25567
 H1580 H 0.48044 0.80945 0.20699
 C1581 C -0.06127 0.75239 0.26187
 C1582 C -0.06122 0.73801 0.24780
 C1583 C -0.04203 0.73658 0.24098
 N1584 N -0.03043 0.74973 0.25030
 C1585 C -0.04212 0.75931 0.26318
 C1586 C -0.03591 0.72415 0.22553
 C1587 C -0.01609 0.72186 0.21957
 C1588 C -0.01013 0.71249 0.20252
 C1589 C 0.01012 0.71264 0.20246
 C1590 C 0.01600 0.72206 0.21948
 N1591 N -0.00006 0.72744 0.22991
 C1592 C 0.03581 0.72457 0.22533
 C1593 C 0.04183 0.73694 0.24083
 C1594 C 0.06097 0.73830 0.24773
 C1595 C 0.06092 0.75258 0.26190
 C1596 C 0.04174 0.75950 0.26318
 N1597 N 0.03015 0.75002 0.25018
 C1598 C 0.03562 0.77514 0.27539
 C1599 C 0.01579 0.78110 0.27766
 C1600 C 0.00981 0.79833 0.28677
 C1601 C -0.01045 0.79830 0.28675
 C1602 C -0.01631 0.78105 0.27763
 N1603 N -0.00022 0.77058 0.27232
 C1604 C -0.03610 0.77503 0.27533
 H1605 H -0.07402 0.75734 0.27003
 H1606 H -0.07392 0.72972 0.24300
 H1607 H -0.00016 0.75617 0.26734
 H1608 H -0.01940 0.70610 0.19133
 H1609 H 0.01945 0.70640 0.19120
 H1610 H 0.07370 0.72999 0.24295
 H1611 H 0.07360 0.75743 0.27017
 H1612 H -0.01980 0.80966 0.29284
 H1613 H -0.00006 0.73266 0.24417
 H1614 H 0.01908 0.80972 0.29288
 C1615 C 0.43859 0.75282 0.76176
 C1616 C 0.43860 0.73849 0.74765
 C1617 C 0.45782 0.73689 0.74097
 N1618 N 0.46948 0.74987 0.75043
 C1619 C 0.45780 0.75953 0.76328
 C1620 C 0.46393 0.72440 0.72556
 C1621 C 0.48375 0.72188 0.71970
 C1622 C 0.48966 0.71236 0.70272
 C1623 C 0.50992 0.71229 0.70271
 C1624 C 0.51584 0.72177 0.71968
 N1625 N 0.49980 0.72736 0.73005
 C1626 C 0.53566 0.72421 0.72552
 C1627 C 0.54175 0.73671 0.74088
 C1628 C 0.56094 0.73821 0.74763
 C1629 C 0.56093 0.75260 0.76168
 C1630 C 0.54174 0.75945 0.76307
 N1631 N 0.53009 0.74982 0.75024
 C1632 C 0.53564 0.77510 0.77529
 C1633 C 0.51583 0.78108 0.77768
 C1634 C 0.50992 0.79820 0.78704
 C1635 C 0.48966 0.79821 0.78712
 C1636 C 0.48373 0.78110 0.77779
 N1637 N 0.49977 0.77066 0.77229
 C1638 C 0.46391 0.77514 0.77553
 H1639 H 0.42581 0.75789 0.76980
 H1640 H 0.42585 0.73036 0.74271
 H1641 H 0.49978 0.75632 0.76716
 H1642 H 0.48036 0.70602 0.69152
 H1643 H 0.51921 0.70590 0.69151
 H1644 H 0.57367 0.72994 0.74280
 H1645 H 0.57367 0.75758 0.76980
 H1646 H 0.48039 0.80948 0.79347
 H1647 H 0.49980 0.73267 0.74427
 H1648 H 0.51923 0.80948 0.79328
 C1649 C 0.42761 0.28989 0.31457
 C1650 C 0.41717 0.30504 0.30507
 C1651 C 0.42313 0.31074 0.28615
 C1652 C 0.43870 0.30113 0.27677
 C1653 C 0.44866 0.28575 0.28616
 C1654 C 0.44322 0.28033 0.30519
 H1655 H 0.42364 0.28520 0.32918
 H1656 H 0.41553 0.32229 0.27831
 H1657 H 0.44279 0.30543 0.26204
 H1658 H 0.45081 0.26844 0.31258
 C1659 C 0.42553 0.78856 0.81333
 C1660 C 0.41662 0.80535 0.80493
 C1661 C 0.42450 0.81271 0.78725
 C1662 C 0.44017 0.80316 0.77795
 C1663 C 0.44845 0.78621 0.78618
 C1664 C 0.44125 0.77913 0.80403
 H1665 H 0.42032 0.78236 0.82694
 H1666 H 0.41844 0.82560 0.78021
 H1667 H 0.44565 0.80878 0.76414
 H1668 H 0.44753 0.76601 0.81052
 C1669 C -0.07739 0.31121 0.78576
 C1670 C -0.08316 0.30582 0.80483
 C1671 C -0.07251 0.29095 0.81455
 C1672 C -0.05689 0.28136 0.80523
 C1673 C -0.05164 0.28644 0.78606
 C1674 C -0.06180 0.30155 0.77645
 H1675 H -0.08517 0.32253 0.77776
 H1676 H -0.07632 0.28652 0.82928
 H1677 H -0.04914 0.26968 0.81279
 H1678 H -0.05787 0.30559 0.76161
 C1679 C -0.07754 0.81076 0.28555
 C1680 C -0.08344 0.80510 0.30450
 C1681 C -0.07282 0.79016 0.31413
 C1682 C -0.05704 0.78079 0.30485
 C1683 C -0.05162 0.78617 0.28580
 C1684 C -0.06181 0.80132 0.27627
 H1685 H -0.08534 0.82212 0.27762
 H1686 H -0.07676 0.78554 0.32877
 H1687 H -0.04929 0.76906 0.31234
 H1688 H -0.05778 0.80555 0.26150
 C1689 C 0.57660 0.71430 0.31085
 C1690 C 0.58323 0.69556 0.30504
 C1691 C 0.57331 0.68590 0.28970
 C1692 C 0.55756 0.69498 0.28011
 C1693 C 0.55145 0.71384 0.28567
 C1694 C 0.56089 0.72337 0.30121
 H1695 H 0.58375 0.72225 0.32256
 H1696 H 0.57779 0.67142 0.28490
 H1697 H 0.55038 0.68749 0.26808
 H1698 H 0.55629 0.73798 0.30561
 C1699 C 0.57359 0.18564 0.78911
 C1700 C 0.58334 0.19511 0.80466
 C1701 C 0.57642 0.21363 0.81086
 C1702 C 0.56060 0.22268 0.80138
 C1703 C 0.55132 0.21335 0.78563
 C1704 C 0.55772 0.19471 0.77968
 H1705 H 0.57829 0.17134 0.78399
 H1706 H 0.58344 0.22144 0.82274
 H1707 H 0.55581 0.23714 0.80606
 H1708 H 0.55070 0.18739 0.76746
 C1709 C 1.07530 0.71319 0.81193
 C1710 C 1.08307 0.69537 0.80476
 C1711 C 1.07444 0.68688 0.78804
 C1712 C 1.05878 0.69618 0.77852
 C1713 C 1.05146 0.71411 0.78551
 C1714 C 1.05968 0.72250 0.80234
 H1715 H 1.08149 0.72023 0.82471
 H1716 H 1.07983 0.67315 0.78211
 H1717 H 1.05259 0.68961 0.76545
 H1718 H 1.05419 0.73640 0.80784
 C1719 C 1.07631 0.21371 0.31128
 C1720 C 1.08280 0.19493 0.30544
 C1721 C 1.07286 0.18539 0.29006
 C1722 C 1.05719 0.19462 0.28045
 C1723 C 1.05122 0.21353 0.28603
 C1724 C 1.06070 0.22294 0.30161
 H1725 H 1.08353 0.22159 0.32299
 H1726 H 1.07724 0.17087 0.28525
 H1727 H 1.04997 0.18722 0.26839
 H1728 H 1.05622 0.23758 0.30603
 C1729 C 0.57696 0.31066 0.71450
 C1730 C 0.58308 0.30481 0.69568
 C1731 C 0.57263 0.28975 0.68612
 C1732 C 0.55684 0.28041 0.69537
 C1733 C 0.55123 0.28594 0.71432
 C1734 C 0.56121 0.30124 0.72376
 H1735 H 0.58461 0.32214 0.72236
 H1736 H 0.57671 0.28499 0.67157
 H1737 H 0.54926 0.26855 0.68795
 H1738 H 0.55703 0.30559 0.73845
 C1739 C 0.57686 0.81102 0.21426
 C1740 C 0.58278 0.80543 0.19530
 C1741 C 0.57226 0.79044 0.18568
 C1742 C 0.55663 0.78091 0.19501
 C1743 C 0.55125 0.78618 0.21409
 C1744 C 0.56127 0.80142 0.22359
 H1745 H 0.58453 0.82245 0.22217
 H1746 H 0.57618 0.78586 0.17103
 H1747 H 0.54899 0.76913 0.18753
 H1748 H 0.55723 0.80561 0.23836
 C1749 C 1.07681 0.31068 0.21451
 C1750 C 1.08286 0.30486 0.19566
 C1751 C 1.07238 0.28979 0.18613
 C1752 C 1.05664 0.28042 0.19544
 C1753 C 1.05112 0.28593 0.21441
 C1754 C 1.06111 0.30124 0.22382
 H1755 H 1.08447 0.32217 0.22235
 H1756 H 1.07641 0.28505 0.17155
 H1757 H 1.04903 0.26857 0.18804
 H1758 H 1.05699 0.30559 0.23852
 C1759 C 1.07228 0.79076 0.68529
 C1760 C 1.08288 0.80568 0.69492
 C1761 C 1.07706 0.81121 0.71393
 C1762 C 1.06148 0.80163 0.72329
 C1763 C 1.05136 0.78646 0.71377
 C1764 C 1.05665 0.78124 0.69465
 H1765 H 1.07613 0.78622 0.67060
 H1766 H 1.08479 0.82257 0.72186
 H1767 H 1.05751 0.80577 0.73809
 H1768 H 1.04893 0.76952 0.68717
 C1769 C 0.42678 0.68589 0.71060
 C1770 C 0.41702 0.69527 0.69499
 C1771 C 0.42362 0.71394 0.68894
 C1772 C 0.43916 0.72321 0.69862
 C1773 C 0.44846 0.71395 0.71442
 C1774 C 0.44237 0.69516 0.72023
 H1775 H 0.42231 0.67147 0.71559
 H1776 H 0.41656 0.72169 0.67703
 H1777 H 0.44375 0.73775 0.69403
 H1778 H 0.44946 0.68788 0.73246
 C1779 C 0.42438 0.21315 0.18844
 C1780 C 0.41718 0.19487 0.19498
 C1781 C 0.42640 0.18581 0.21111
 C1782 C 0.44200 0.19505 0.22075
 C1783 C 0.44866 0.21348 0.21445
 C1784 C 0.43993 0.22239 0.19814
 H1785 H 0.41778 0.22063 0.17610
 H1786 H 0.42149 0.17169 0.21650
 H1787 H 0.44864 0.18803 0.23337
 H1788 H 0.44497 0.23665 0.19314
 C1789 C -0.07571 0.71322 0.18846
 C1790 C -0.08290 0.69495 0.19506
 C1791 C -0.07363 0.68592 0.21118
 C1792 C -0.05800 0.69518 0.22077
 C1793 C -0.05136 0.71360 0.21442
 C1794 C -0.06013 0.72247 0.19811
 H1795 H -0.08234 0.72068 0.17614
 H1796 H -0.07854 0.67181 0.21661
 H1797 H -0.05134 0.68819 0.23339
 H1798 H -0.05511 0.73672 0.19308
 C1799 C -0.07376 0.18622 0.71113
 C1800 C -0.08335 0.19558 0.69539
 C1801 C -0.07641 0.21406 0.68913
 C1802 C -0.06072 0.22317 0.69873
 C1803 C -0.05161 0.21394 0.71466
 C1804 C -0.05803 0.19533 0.72067
 H1805 H -0.07847 0.17195 0.71630
 H1806 H -0.08328 0.22176 0.67708
 H1807 H -0.05587 0.23758 0.69398
 H1808 H -0.05112 0.18809 0.73301
 C1809 C 0.31397 0.42581 0.28844
 C1810 C 0.30532 0.41710 0.30507
 C1811 C 0.28743 0.42485 0.31215
 C1812 C 0.27814 0.44041 0.30247
 C1813 C 0.28658 0.44856 0.28562
 C1814 C 0.30465 0.44139 0.27880
 H1815 H 0.32779 0.42049 0.28262
 H1816 H 0.28031 0.41872 0.32491
 H1817 H 0.26418 0.44588 0.30789
 H1818 H 0.31133 0.44762 0.26579
 C1819 C 0.28810 -0.07538 0.81202
 C1820 C 0.30579 -0.08347 0.80466
 C1821 C 0.31424 -0.07478 0.78786
 C1822 C 0.30498 -0.05906 0.77841
 C1823 C 0.28711 -0.05168 0.78549
 C1824 C 0.27883 -0.05974 0.80244
 H1825 H 0.28100 -0.08126 0.82491
 H1826 H 0.32789 -0.08015 0.78170
 H1827 H 0.31153 -0.05291 0.76530
 H1828 H 0.26501 -0.05412 0.80806
 C1829 C 0.81244 0.42476 0.78765
 C1830 C 0.80498 0.41693 0.80532
 C1831 C 0.78819 0.42592 0.81365
 C1832 C 0.77882 0.44163 0.80429
 C1833 C 0.78599 0.44876 0.78645
 C1834 C 0.80297 0.44043 0.77830
 H1835 H 0.82536 0.41866 0.78066
 H1836 H 0.78191 0.42076 0.82726
 H1837 H 0.76568 0.44796 0.81073
 H1838 H 0.80867 0.44585 0.76450
 C1839 C 0.78685 -0.07561 0.31167
 C1840 C 0.80466 -0.08365 0.30456
 C1841 C 0.81342 -0.07480 0.28798
 C1842 C 0.80436 -0.05896 0.27853
 C1843 C 0.78640 -0.05159 0.28539
 C1844 C 0.77780 -0.05983 0.30211
 H1845 H 0.77953 -0.08160 0.32439
 H1846 H 0.82713 -0.08015 0.28197
 H1847 H 0.81113 -0.05272 0.26558
 H1848 H 0.76389 -0.05422 0.30755
 C1849 C 0.31392 0.57442 0.71180
 C1850 C 0.30547 0.58294 0.69497
 C1851 C 0.28776 0.57504 0.68771
 C1852 C 0.27846 0.55949 0.69737
 C1853 C 0.28671 0.55151 0.71439
 C1854 C 0.30459 0.55886 0.72142
 H1855 H 0.32758 0.57989 0.71780
 H1856 H 0.28079 0.58103 0.67479
 H1857 H 0.26463 0.55389 0.69179
 H1858 H 0.31111 0.55278 0.73457
 C1859 C 0.28864 1.07386 0.18631
 C1860 C 0.30509 1.08301 0.19491
 C1861 C 0.31213 1.07573 0.21291
 C1862 C 0.30257 1.06017 0.22234
 C1863 C 0.28591 1.05154 0.21389
 C1864 C 0.27914 1.05828 0.19574
 H1865 H 0.28282 1.07884 0.17244
 H1866 H 0.32477 1.08221 0.22001
 H1867 H 0.30795 1.05505 0.23637
 H1868 H 0.26625 1.05172 0.18908
 C1869 C 0.81213 0.57561 0.21301
 C1870 C 0.80508 0.58293 0.19503
 C1871 C 0.78864 0.57376 0.18640
 C1872 C 0.77917 0.55814 0.19578
 C1873 C 0.78595 0.55137 0.21393
 C1874 C 0.80259 0.56001 0.22239
 H1875 H 0.82476 0.58210 0.22012
 H1876 H 0.78282 0.57876 0.17254
 H1877 H 0.76629 0.55159 0.18912
 H1878 H 0.80797 0.55488 0.23642
 C1879 C 0.81351 1.07445 0.71216
 C1880 C 0.80468 1.08335 0.69573
 C1881 C 0.78674 1.07569 0.68877
 C1882 C 0.77760 1.05999 0.69835
 C1883 C 0.78628 1.05156 0.71494
 C1884 C 0.80438 1.05870 0.72167
 H1885 H 0.82733 1.07975 0.71793
 H1886 H 0.77946 1.08197 0.67616
 H1887 H 0.76359 1.05459 0.69303
 H1888 H 0.81118 1.05234 0.73454
 C1889 C 0.68608 0.57389 0.28932
 C1890 C 0.69538 0.58330 0.30517
 C1891 C 0.71376 0.57613 0.31155
 C1892 C 0.72285 0.56041 0.30192
 C1893 C 0.71370 0.55151 0.28585
 C1894 C 0.69517 0.55813 0.27975
 H1895 H 0.67188 0.57877 0.28405
 H1896 H 0.72141 0.58283 0.32370
 H1897 H 0.73719 0.55540 0.30676
 H1898 H 0.68798 0.55137 0.26731
 C1899 C 0.71180 1.07443 0.81381
 C1900 C 0.69518 1.08360 0.80535
 C1901 C 0.68777 1.07585 0.78765
 C1902 C 0.69712 1.06007 0.77839
 C1903 C 0.71391 1.05153 0.78669
 C1904 C 0.72103 1.05858 0.80456
 H1905 H 0.71800 1.07951 0.82746
 H1906 H 0.67502 1.08214 0.78054
 H1907 H 0.69150 1.05473 0.76454
 H1908 H 0.73403 1.05208 0.81111
 C1909 C 0.21294 0.57549 0.81178
 C1910 C 0.19466 0.58276 0.80523
 C1911 C 0.18562 0.57362 0.78907
 C1912 C 0.19493 0.55809 0.77933
 C1913 C 0.21338 0.55140 0.78559
 C1914 C 0.22222 0.55998 0.80201
 H1915 H 0.22037 0.58195 0.82419
 H1916 H 0.17151 0.57858 0.78366
 H1917 H 0.18794 0.55153 0.76667
 H1918 H 0.23648 0.55488 0.80700
 C1919 C 0.21347 1.07601 0.31154
 C1920 C 0.19492 1.08289 0.30534
 C1921 C 0.18562 1.07335 0.28956
 C1922 C 0.19489 1.05774 0.27990
 C1923 C 0.21358 1.05141 0.28583
 C1924 C 0.22273 1.06046 0.30182
 H1925 H 0.22114 1.08287 0.32359
 H1926 H 0.17129 1.07801 0.28446
 H1927 H 0.18768 1.05085 0.26754
 H1928 H 0.23719 1.05568 0.30652
 C1929 C 0.71344 0.42424 0.68863
 C1930 C 0.69538 0.41674 0.69548
 C1931 C 0.68643 0.42582 0.71176
 C1932 C 0.69555 0.44158 0.72122
 C1933 C 0.71376 0.44856 0.71460
 C1934 C 0.72257 0.43996 0.69815
 H1935 H 0.72081 0.41781 0.67614
 H1936 H 0.67250 0.42066 0.71744
 H1937 H 0.68865 0.44808 0.73398
 H1938 H 0.73667 0.44522 0.69292
 C1939 C 0.71130 -0.07355 0.18603
 C1940 C 0.69497 -0.08280 0.19478
 C1941 C 0.68803 -0.07556 0.21284
 C1942 C 0.69758 -0.05997 0.22218
 C1943 C 0.71413 -0.05125 0.21358
 C1944 C 0.72079 -0.05793 0.19536
 H1945 H 0.71704 -0.07849 0.17210
 H1946 H 0.67548 -0.08212 0.22006
 H1947 H 0.69230 -0.05490 0.23627
 H1948 H 0.73361 -0.05131 0.18860
 C1949 C 0.18631 0.42534 0.21251
 C1950 C 0.19470 0.41703 0.19553
 C1951 C 0.21213 0.42533 0.18802
 C1952 C 0.22126 0.44104 0.19757
 C1953 C 0.21309 0.44880 0.21475
 C1954 C 0.19546 0.44106 0.22203
 H1955 H 0.17288 0.41956 0.21873
 H1956 H 0.21901 0.41955 0.17495
 H1957 H 0.23490 0.44691 0.19182
 H1958 H 0.18903 0.44693 0.23532
 C1959 C 0.21184 -0.07379 0.68638
 C1960 C 0.19537 -0.08294 0.69500
 C1961 C 0.18832 -0.07566 0.71300
 C1962 C 0.19787 -0.06010 0.72240
 C1963 C 0.21453 -0.05146 0.71393
 C1964 C 0.22133 -0.05821 0.69578
 H1965 H 0.21768 -0.07878 0.67252
 H1966 H 0.17568 -0.08216 0.72012
 H1967 H 0.19249 -0.05500 0.73645
 H1968 H 0.23423 -0.05167 0.68912
 C1969 C 0.28535 0.31024 0.42309
 C1970 C 0.30431 0.30456 0.41691
 C1971 C 0.31425 0.28977 0.42744
 C1972 C 0.30524 0.28052 0.44337
 C1973 C 0.28616 0.28589 0.44903
 C1974 C 0.27634 0.30093 0.43897
 H1975 H 0.27717 0.32149 0.41539
 H1976 H 0.32891 0.28512 0.42329
 H1977 H 0.31293 0.26884 0.45099
 H1978 H 0.26154 0.30512 0.44318
 C1979 C 0.28900 0.81442 -0.07402
 C1980 C 0.30483 0.80514 -0.08365
 C1981 C 0.31143 0.78680 -0.07663
 C1982 C 0.30204 0.77771 -0.06084
 C1983 C 0.28594 0.78680 -0.05175
 C1984 C 0.27962 0.80530 -0.05822
 H1985 H 0.28359 0.82859 -0.07879
 H1986 H 0.32353 0.77915 -0.08356
 H1987 H 0.30700 0.76337 -0.05598
 H1988 H 0.26716 0.81244 -0.05131
 C1989 C 0.81408 0.29025 -0.07286
 C1990 C 0.80414 0.30511 -0.08330
 C1991 C 0.78516 0.31070 -0.07711
 C1992 C 0.77613 0.30124 -0.06131
 C1993 C 0.78596 0.28615 -0.05134
 C1994 C 0.80506 0.28086 -0.05702
 H1995 H 0.82876 0.28566 -0.07701
 H1996 H 0.77698 0.32200 -0.08474
 H1997 H 0.76132 0.30539 -0.05709
 H1998 H 0.81276 0.26915 -0.04945
 C1999 C 0.78515 0.81071 0.42311
 C2000 C 0.80420 0.80524 0.41704
 C2001 C 0.81426 0.79059 0.42766
 C2002 C 0.80527 0.78127 0.44357
 C2003 C 0.78609 0.78642 0.44911
 C2004 C 0.77616 0.80132 0.43896
 H2005 H 0.77688 0.82184 0.41533
 H2006 H 0.82899 0.78610 0.42360
 H2007 H 0.81305 0.76969 0.45126
 H2008 H 0.76128 0.80535 0.44307
 C2009 C 0.71044 0.31408 0.57289
 C2010 C 0.69520 0.30446 0.58308
 C2011 C 0.68916 0.28575 0.57662
 C2012 C 0.69854 0.27666 0.56082
 C2013 C 0.71401 0.28614 0.55111
 C2014 C 0.71976 0.30498 0.55704
 H2015 H 0.71541 0.32853 0.57724
 H2016 H 0.67755 0.27782 0.58403
 H2017 H 0.69403 0.26204 0.55640
 H2018 H 0.73178 0.31240 0.54968
 C2019 C 0.68925 0.78567 1.07680
 C2020 C 0.69523 0.80441 1.08324
 C2021 C 0.71037 0.81411 1.07299
 C2022 C 0.71967 0.80507 1.05709
 C2023 C 0.71399 0.78620 1.05118
 C2024 C 0.69861 0.77663 1.06095
 H2025 H 0.67771 0.77768 1.08426
 H2026 H 0.71527 0.82859 1.07732
 H2027 H 0.73162 0.81256 1.04970
 H2028 H 0.69417 0.76199 1.05654
 C2029 C 0.21060 0.31415 1.07304
 C2030 C 0.19524 0.30457 1.08308
 C2031 C 0.18909 0.28595 1.07644
 C2032 C 0.19850 0.27691 1.06062
 C2033 C 0.21410 0.28635 1.05108
 C2034 C 0.21995 0.30510 1.05719
 H2035 H 0.21565 0.32853 1.07753
 H2036 H 0.17737 0.27806 1.08372
 H2037 H 0.19392 0.26236 1.05606
 H2038 H 0.23207 0.31249 1.04996
 C2039 C 0.21453 0.81037 0.57680
 C2040 C 0.19560 0.80473 0.58305
 C2041 C 0.18569 0.78985 0.57265
 C2042 C 0.19473 0.78049 0.55679
 C2043 C 0.21378 0.78582 0.55106
 C2044 C 0.22356 0.80094 0.56099
 H2045 H 0.22268 0.82168 0.58440
 H2046 H 0.17106 0.78523 0.57684
 H2047 H 0.18707 0.76875 0.54926
 H2048 H 0.23834 0.80511 0.55673
 C2049 C 0.28972 0.68568 0.57273
 C2050 C 0.30466 0.69553 0.58308
 C2051 C 0.31041 0.71439 0.57677
 C2052 C 0.30102 0.72340 0.56093
 C2053 C 0.28584 0.71368 0.55105
 C2054 C 0.28039 0.69469 0.55684
 H2055 H 0.28501 0.67110 0.57697
 H2056 H 0.32178 0.72250 0.58433
 H2057 H 0.30528 0.73813 0.55662
 H2058 H 0.26859 0.68708 0.54935
 C2059 C 0.28586 0.18948 1.07656
 C2060 C 0.30454 0.19558 1.08312
 C2061 C 0.31417 0.21085 1.07300
 C2062 C 0.30511 0.22013 1.05711
 C2063 C 0.28631 0.21432 1.05106
 C2064 C 0.27682 0.19882 1.06071
 H2065 H 0.27793 0.17785 1.08392
 H2066 H 0.32859 0.21586 1.07743
 H2067 H 0.31253 0.23218 1.04981
 H2068 H 0.26222 0.19428 1.05622
 C2069 C 0.78570 0.68946 1.07676
 C2070 C 0.80445 0.69544 1.08321
 C2071 C 0.81415 0.71060 1.07298
 C2072 C 0.80509 0.71988 1.05709
 C2073 C 0.78621 0.71418 1.05116
 C2074 C 0.77665 0.69880 1.06092
 H2075 H 0.77771 0.67792 1.08421
 H2076 H 0.82863 0.71551 1.07732
 H2077 H 0.81257 0.73183 1.04971
 H2078 H 0.76201 0.69435 1.05651
 C2079 C 0.78553 0.18930 0.57659
 C2080 C 0.80440 0.19512 0.58283
 C2081 C 0.81417 0.21011 0.57243
 C2082 C 0.80505 0.21942 0.55660
 C2083 C 0.78605 0.21391 0.55089
 C2084 C 0.77642 0.19868 0.56080
 H2085 H 0.77749 0.17789 0.58418
 H2086 H 0.82875 0.21488 0.57662
 H2087 H 0.81259 0.23126 0.54908
 H2088 H 0.76168 0.19436 0.55655
 C2089 C 0.71055 0.68604 0.42779
 C2090 C 0.69553 0.69584 0.41743
 C2091 C 0.68973 0.71471 0.42367
 C2092 C 0.69913 0.72378 0.43945
 C2093 C 0.71438 0.71412 0.44933
 C2094 C 0.71989 0.69512 0.44361
 H2095 H 0.71532 0.67146 0.42359
 H2096 H 0.67831 0.72278 0.41611
 H2097 H 0.69482 0.73852 0.44371
 H2098 H 0.73173 0.68755 0.45110
 C2099 C 0.68983 0.21429 -0.07679
 C2100 C 0.69543 0.19528 -0.08280
 C2101 C 0.71029 0.18542 -0.07228
 C2102 C 0.71967 0.19457 -0.05652
 C2103 C 0.71437 0.21369 -0.05103
 C2104 C 0.69928 0.22343 -0.06108
 H2105 H 0.67854 0.22241 -0.08449
 H2106 H 0.71489 0.17074 -0.07630
 H2107 H 0.73139 0.18694 -0.04889
 H2108 H 0.69512 0.23826 -0.05700
 C2109 C 0.21377 0.68720 -0.07566
 C2110 C 0.19597 0.69473 -0.08316
 C2111 C 0.18759 0.71139 -0.07416
 C2112 C 0.19705 0.72060 -0.05849
 C2113 C 0.21498 0.71326 -0.05147
 C2114 C 0.22319 0.69642 -0.05997
 H2115 H 0.22068 0.67436 -0.08200
 H2116 H 0.17394 0.71766 -0.07940
 H2117 H 0.19062 0.73368 -0.05207
 H2118 H 0.23710 0.69068 -0.05472
 C2119 C 0.18964 0.21437 0.42341
 C2120 C 0.19553 0.19555 0.41705
 C2121 C 0.21062 0.18577 0.42733
 C2122 C 0.21992 0.19480 0.44319
 C2123 C 0.21433 0.21373 0.44904
 C2124 C 0.19902 0.22339 0.43923
 H2125 H 0.17816 0.22242 0.41592
 H2126 H 0.21545 0.17124 0.42304
 H2127 H 0.23182 0.18725 0.45062
 H2128 H 0.19464 0.23808 0.44359
 C2129 C 0.31405 0.42589 0.71145
 C2130 C 0.30544 0.41721 0.69481
 C2131 C 0.28761 0.42502 0.68768
 C2132 C 0.27834 0.44061 0.69731
 C2133 C 0.28674 0.44874 0.71417
 C2134 C 0.30475 0.44151 0.72105
 H2135 H 0.32782 0.42050 0.71732
 H2136 H 0.28050 0.41889 0.67491
 H2137 H 0.26440 0.44611 0.69186
 H2138 H 0.31139 0.44770 0.73407
 C2139 C 0.28992 0.92779 0.18567
 C2140 C 0.30497 0.91725 0.19522
 C2141 C 0.31077 0.92321 0.21409
 C2142 C 0.30134 0.93892 0.22339
 C2143 C 0.28607 0.94901 0.21395
 C2144 C 0.28057 0.94355 0.19497
 H2145 H 0.28519 0.92381 0.17108
 H2146 H 0.32221 0.91547 0.22195
 H2147 H 0.30566 0.94298 0.23811
 H2148 H 0.26873 0.95122 0.18756
 C2149 C 0.81079 0.42313 0.21412
 C2150 C 0.80484 0.41706 0.19533
 C2151 C 0.78964 0.42749 0.18589
 C2152 C 0.78030 0.44325 0.19522
 C2153 C 0.78598 0.44883 0.21412
 C2154 C 0.80139 0.43884 0.22345
 H2155 H 0.82236 0.41548 0.22190
 H2156 H 0.78477 0.42342 0.17138
 H2157 H 0.76836 0.45083 0.18790
 H2158 H 0.80584 0.44299 0.23810
 C2159 C 0.81405 0.92711 0.71087
 C2160 C 0.80475 0.91751 0.69513
 C2161 C 0.78615 0.92428 0.68898
 C2162 C 0.77686 0.93982 0.69869
 C2163 C 0.78603 0.94895 0.71462
 C2164 C 0.80476 0.94270 0.72052
 H2165 H 0.82842 0.92252 0.71594
 H2166 H 0.77847 0.91735 0.67697
 H2167 H 0.76236 0.94453 0.69402
 H2168 H 0.81197 0.94965 0.73284
 C2169 C 0.68581 0.57329 0.71072
 C2170 C 0.69503 0.58286 0.69489
 C2171 C 0.71350 0.57592 0.68850
 C2172 C 0.72276 0.56028 0.69808
 C2173 C 0.71370 0.55121 0.71413
 C2174 C 0.69508 0.55761 0.72025
 H2175 H 0.67155 0.57801 0.71598
 H2176 H 0.72111 0.58279 0.67640
 H2177 H 0.73718 0.55547 0.69324
 H2178 H 0.68795 0.55071 0.73267
 C2179 C 0.68903 0.07668 0.21369
 C2180 C 0.69492 0.08277 0.19486
 C2181 C 0.71026 0.07247 0.18547
 C2182 C 0.71979 0.05688 0.19487
 C2183 C 0.71418 0.05130 0.21380
 C2184 C 0.69863 0.06112 0.22308
 H2185 H 0.67734 0.08416 0.22144
 H2186 H 0.71511 0.07654 0.17094
 H2187 H 0.73182 0.04940 0.18756
 H2188 H 0.69418 0.05693 0.23773
 C2189 C 0.18602 0.57409 0.21131
 C2190 C 0.19503 0.58320 0.19508
 C2191 C 0.21327 0.57586 0.18846
 C2192 C 0.22247 0.56025 0.19813
 C2193 C 0.21360 0.55163 0.21453
 C2194 C 0.19525 0.55846 0.22094
 H2195 H 0.17197 0.57914 0.21682
 H2196 H 0.22070 0.58233 0.17604
 H2197 H 0.23668 0.55510 0.19306
 H2198 H 0.18828 0.55191 0.23364
 C2199 C 0.21034 0.07226 0.68610
 C2200 C 0.19528 0.08282 0.69564
 C2201 C 0.18953 0.07691 0.71456
 C2202 C 0.19898 0.06123 0.72390
 C2203 C 0.21424 0.05111 0.71445
 C2204 C 0.21972 0.05653 0.69543
 H2205 H 0.21504 0.07620 0.67149
 H2206 H 0.17808 0.08467 0.72242
 H2207 H 0.19468 0.05720 0.73864
 H2208 H 0.23154 0.04884 0.68802
 C2209 C 0.31398 0.57433 0.28810
 C2210 C 0.30555 0.58278 0.30497
 C2211 C 0.28790 0.57479 0.31231
 C2212 C 0.27862 0.55922 0.30268
 C2213 C 0.28685 0.55131 0.28562
 C2214 C 0.30469 0.55874 0.27851
 H2215 H 0.32759 0.57987 0.28204
 H2216 H 0.28093 0.58073 0.32526
 H2217 H 0.26482 0.55357 0.30830
 H2218 H 0.31118 0.55273 0.26531
 C2219 C 0.31482 0.07238 0.79022
 C2220 C 0.30513 0.08247 0.80544
 C2221 C 0.28625 0.07613 0.81116
 C2222 C 0.27707 0.06053 0.80150
 C2223 C 0.28663 0.05091 0.78606
 C2224 C 0.30564 0.05672 0.78062
 H2225 H 0.32942 0.07664 0.78553
 H2226 H 0.27827 0.08347 0.82275
 H2227 H 0.26236 0.05617 0.80580
 H2228 H 0.31315 0.04940 0.76867
 C2229 C 0.81111 0.57691 0.78568
 C2230 C 0.80506 0.58307 0.80443
 C2231 C 0.78979 0.57273 0.81384
 C2232 C 0.78048 0.55699 0.80452
 C2233 C 0.78624 0.55133 0.78565
 C2234 C 0.80173 0.56121 0.77636
 H2235 H 0.82275 0.58446 0.77793
 H2236 H 0.78485 0.57685 0.82832
 H2237 H 0.76848 0.54948 0.81182
 H2238 H 0.80627 0.55698 0.76175
 C2239 C 0.81445 0.07278 0.28946
 C2240 C 0.80501 0.08254 0.30505
 C2241 C 0.78633 0.07591 0.31108
 C2242 C 0.77710 0.06035 0.30140
 C2243 C 0.78640 0.05106 0.28562
 C2244 C 0.80521 0.05717 0.27984
 H2245 H 0.82889 0.07727 0.28450
 H2246 H 0.77854 0.08298 0.32297
 H2247 H 0.76253 0.05576 0.30598
 H2248 H 0.81254 0.05010 0.26763
 C2249 C 0.71338 0.42416 0.31130
 C2250 C 0.69515 0.41691 0.30467
 C2251 C 0.68599 0.42630 0.28869
 C2252 C 0.69509 0.44212 0.27927
 C2253 C 0.71347 0.44884 0.28565
 C2254 C 0.72248 0.43994 0.30182
 H2255 H 0.72092 0.41748 0.32355
 H2256 H 0.67193 0.42133 0.28321
 H2257 H 0.68803 0.44885 0.26672
 H2258 H 0.73672 0.44500 0.30685
 C2259 C 0.70963 0.92773 0.81450
 C2260 C 0.69474 0.91711 0.80484
 C2261 C 0.68901 0.92308 0.78594
 C2262 C 0.69840 0.93883 0.77669
 C2263 C 0.71354 0.94897 0.78622
 C2264 C 0.71894 0.94354 0.80525
 H2265 H 0.71427 0.92375 0.82912
 H2266 H 0.67767 0.91529 0.77800
 H2267 H 0.69414 0.94289 0.76195
 H2268 H 0.73066 0.95126 0.81275
 C2269 C 0.21233 0.42514 0.81185
 C2270 C 0.19483 0.41692 0.80441
 C2271 C 0.18643 0.42526 0.78747
 C2272 C 0.19560 0.44096 0.77791
 C2273 C 0.21327 0.44863 0.78513
 C2274 C 0.22148 0.44082 0.80225
 H2275 H 0.21923 0.41932 0.82488
 H2276 H 0.17296 0.41953 0.78131
 H2277 H 0.18914 0.44687 0.76465
 H2278 H 0.23516 0.44664 0.80794
 C2279 C 0.18585 0.92657 0.28887
 C2280 C 0.19529 0.91684 0.30449
 C2281 C 0.21380 0.92375 0.31072
 C2282 C 0.22286 0.93953 0.30122
 C2283 C 0.21356 0.94878 0.28541
 C2284 C 0.19492 0.94240 0.27943
 H2285 H 0.17156 0.92188 0.28372
 H2286 H 0.22157 0.91677 0.32266
 H2287 H 0.23730 0.94433 0.30594
 H2288 H 0.18763 0.94940 0.26717
 C2289 C 0.42764 0.28989 0.68550
 C2290 C 0.41714 0.30499 0.69502
 C2291 C 0.42301 0.31064 0.71397
 C2292 C 0.43856 0.30103 0.72337
 C2293 C 0.44859 0.28570 0.71396
 C2294 C 0.44323 0.28033 0.69491
 H2295 H 0.42375 0.28524 0.67087
 H2296 H 0.41536 0.32215 0.72181
 H2297 H 0.44258 0.30529 0.73811
 H2298 H 0.45088 0.26849 0.68751
 C2299 C 0.42733 0.78970 0.18576
 C2300 C 0.41693 0.80491 0.19522
 C2301 C 0.42303 0.81082 0.21401
 C2302 C 0.43871 0.80135 0.22333
 C2303 C 0.44864 0.78593 0.21399
 C2304 C 0.44305 0.78030 0.19508
 H2305 H 0.42325 0.78488 0.17123
 H2306 H 0.41543 0.82241 0.22180
 H2307 H 0.44289 0.80579 0.23798
 H2308 H 0.45062 0.76836 0.18774
 C2309 C 0.92736 0.28967 0.18588
 C2310 C 0.91678 0.30471 0.19540
 C2311 C 0.92266 0.31045 0.21431
 C2312 C 0.93833 0.30100 0.22367
 C2313 C 0.94848 0.28575 0.21425
 C2314 C 0.94309 0.28029 0.19523
 H2315 H 0.92344 0.28499 0.17126
 H2316 H 0.91489 0.32189 0.22216
 H2317 H 0.94234 0.30530 0.23840
 H2318 H 0.95081 0.26849 0.18782
 C2319 C 0.92772 0.79067 0.68530
 C2320 C 0.91727 0.80578 0.69485
 C2321 C 0.92321 0.81142 0.71378
 C2322 C 0.93877 0.80177 0.72313
 C2323 C 0.94873 0.78642 0.71370
 C2324 C 0.94332 0.78108 0.69466
 H2325 H 0.92378 0.78604 0.67068
 H2326 H 0.91560 0.82295 0.72165
 H2327 H 0.94284 0.80602 0.73787
 H2328 H 0.95092 0.76922 0.68723
 C2329 C 0.57704 0.31059 0.28551
 C2330 C 0.58305 0.30480 0.30438
 C2331 C 0.57256 0.28976 0.31396
 C2332 C 0.55682 0.28039 0.30469
 C2333 C 0.55131 0.28589 0.28571
 C2334 C 0.56134 0.30115 0.27624
 H2335 H 0.58473 0.32205 0.27763
 H2336 H 0.57657 0.28504 0.32854
 H2337 H 0.54918 0.26857 0.31213
 H2338 H 0.55723 0.30548 0.26153
 C2339 C 0.57682 0.81091 0.78571
 C2340 C 0.58295 0.80493 0.80449
 C2341 C 0.57253 0.78978 0.81397
 C2342 C 0.55674 0.78049 0.80469
 C2343 C 0.55112 0.78618 0.78580
 C2344 C 0.56108 0.80156 0.77643
 H2345 H 0.58446 0.82245 0.77791
 H2346 H 0.57663 0.78490 0.82848
 H2347 H 0.54917 0.76858 0.81204
 H2348 H 0.55689 0.80603 0.76179
 C2349 C 0.07651 0.31102 0.78606
 C2350 C 0.08281 0.30494 0.80474
 C2351 C 0.07256 0.28963 0.81418
 C2352 C 0.05679 0.28030 0.80493
 C2353 C 0.05100 0.28609 0.78612
 C2354 C 0.06077 0.30162 0.77681
 H2355 H 0.08399 0.32269 0.77829
 H2356 H 0.07679 0.28467 0.82862
 H2357 H 0.04936 0.26827 0.81224
 H2358 H 0.05644 0.30617 0.76223
 C2359 C 0.07706 0.81073 0.28559
 C2360 C 0.08295 0.80503 0.30453
 C2361 C 0.07227 0.79017 0.31419
 C2362 C 0.05646 0.78089 0.30494
 C2363 C 0.05107 0.78628 0.28589
 C2364 C 0.06130 0.80137 0.27634
 H2365 H 0.08490 0.82203 0.27764
 H2366 H 0.07620 0.78553 0.32883
 H2367 H 0.04870 0.76918 0.31243
 H2368 H 0.05732 0.80559 0.26157
 C2369 C 0.57291 0.68563 0.71052
 C2370 C 0.58282 0.69511 0.69505
 C2371 C 0.57624 0.71382 0.68906
 C2372 C 0.56059 0.72305 0.69868
 C2373 C 0.55116 0.71372 0.71436
 C2374 C 0.55721 0.69488 0.72009
 H2375 H 0.57736 0.67118 0.71544
 H2376 H 0.58341 0.72163 0.67726
 H2377 H 0.55605 0.73764 0.69415
 H2378 H 0.55003 0.68753 0.73222
 C2379 C 0.57302 0.18544 0.21022
 C2380 C 0.58290 0.19492 0.19474
 C2381 C 0.57634 0.21366 0.18879
 C2382 C 0.56074 0.22289 0.19848
 C2383 C 0.55133 0.21354 0.21416
 C2384 C 0.55736 0.19468 0.21984
 H2385 H 0.57745 0.17096 0.21510
 H2386 H 0.58350 0.22148 0.17699
 H2387 H 0.55620 0.23749 0.19398
 H2388 H 0.55020 0.18732 0.23197
 C2389 C 0.07260 0.68586 0.20970
 C2390 C 0.08301 0.69569 0.19478
 C2391 C 0.07696 0.71476 0.18939
 C2392 C 0.06131 0.72395 0.19903
 C2393 C 0.05135 0.71422 0.21413
 C2394 C 0.05690 0.69506 0.21928
 H2395 H 0.07664 0.67114 0.21417
 H2396 H 0.08453 0.72285 0.17803
 H2397 H 0.05716 0.73878 0.19495
 H2398 H 0.04931 0.68742 0.23098
 C2399 C 0.07333 0.18576 0.71125
 C2400 C 0.08309 0.19519 0.69564
 C2401 C 0.07623 0.21374 0.68947
 C2402 C 0.06047 0.22286 0.69902
 C2403 C 0.05118 0.21357 0.71481
 C2404 C 0.05752 0.19489 0.72074
 H2405 H 0.07798 0.17144 0.71635
 H2406 H 0.08323 0.22151 0.67754
 H2407 H 0.05571 0.23733 0.69433
 H2408 H 0.05050 0.18759 0.73299
 C2409 C 0.42397 0.71345 0.31121
 C2410 C 0.41714 0.69494 0.30495
 C2411 C 0.42676 0.68567 0.28917
 C2412 C 0.44242 0.69491 0.27958
 C2413 C 0.44872 0.71355 0.28559
 C2414 C 0.43958 0.72268 0.30156
 H2415 H 0.41704 0.72110 0.32325
 H2416 H 0.42212 0.67138 0.28401
 H2417 H 0.44937 0.68774 0.26722
 H2418 H 0.44432 0.73712 0.30631
 C2419 C 0.42658 0.18544 0.78928
 C2420 C 0.41697 0.19472 0.80506
 C2421 C 0.42378 0.21325 0.81127
 C2422 C 0.43938 0.22248 0.80159
 C2423 C 0.44854 0.21332 0.78564
 C2424 C 0.44223 0.19467 0.77967
 H2425 H 0.42195 0.17113 0.78415
 H2426 H 0.41684 0.22093 0.82329
 H2427 H 0.44412 0.23693 0.80631
 H2428 H 0.44917 0.18747 0.76731
 C2429 C 0.92390 0.71390 0.81090
 C2430 C 0.91679 0.69558 0.80440
 C2431 C 0.92627 0.68641 0.78847
 C2432 C 0.94206 0.69556 0.77901
 C2433 C 0.94867 0.71400 0.78529
 C2434 C 0.93965 0.72304 0.80138
 H2435 H 0.91712 0.72147 0.82309
 H2436 H 0.92141 0.67228 0.78307
 H2437 H 0.94888 0.68846 0.76652
 H2438 H 0.94461 0.73733 0.80633
 C2439 C 0.92669 0.18530 0.28940
 C2440 C 0.91697 0.19459 0.30511
 C2441 C 0.92368 0.21317 0.31131
 C2442 C 0.93927 0.22244 0.30167
 C2443 C 0.94852 0.21328 0.28578
 C2444 C 0.94233 0.19458 0.27983
 H2445 H 0.92213 0.17096 0.28430
 H2446 H 0.91666 0.22084 0.32329
 H2447 H 0.94392 0.23692 0.30638
 H2448 H 0.94937 0.18738 0.26752
 C2449 C 0.31426 0.28968 0.57273
 C2450 C 0.30434 0.30451 0.58324
 C2451 C 0.28538 0.31019 0.57709
 C2452 C 0.27635 0.30084 0.56126
 C2453 C 0.28614 0.28577 0.55123
 C2454 C 0.30522 0.28040 0.55686
 H2455 H 0.32892 0.28503 0.57685
 H2456 H 0.27722 0.32146 0.58478
 H2457 H 0.26155 0.30505 0.55708
 H2458 H 0.31289 0.26870 0.54924
 C2459 C 0.28878 0.81438 0.07320
 C2460 C 0.30489 0.80531 0.08255
 C2461 C 0.31182 0.78721 0.07521
 C2462 C 0.30245 0.77814 0.05941
 C2463 C 0.28607 0.78700 0.05062
 C2464 C 0.27944 0.80527 0.05739
 H2465 H 0.28309 0.82835 0.07821
 H2466 H 0.32415 0.77973 0.08188
 H2467 H 0.30765 0.76397 0.05432
 H2468 H 0.26674 0.81223 0.05073
 C2469 C 0.78577 0.31089 0.07641
 C2470 C 0.80457 0.30494 0.08281
 C2471 C 0.81430 0.28980 0.07257
 C2472 C 0.80524 0.28048 0.05673
 C2473 C 0.78631 0.28613 0.05085
 C2474 C 0.77671 0.30150 0.06061
 H2475 H 0.77775 0.32241 0.08386
 H2476 H 0.82883 0.28492 0.07689
 H2477 H 0.81275 0.26854 0.04935
 H2478 H 0.76202 0.30592 0.05624
 C2479 C 0.78564 0.81087 0.57698
 C2480 C 0.80456 0.80517 0.58321
 C2481 C 0.81444 0.79022 0.57284
 C2482 C 0.80540 0.78085 0.55702
 C2483 C 0.78636 0.78625 0.55131
 C2484 C 0.77660 0.80144 0.56120
 H2485 H 0.77751 0.82225 0.58455
 H2486 H 0.82907 0.78554 0.57702
 H2487 H 0.81304 0.76906 0.54952
 H2488 H 0.76183 0.80567 0.55695
 C2489 C 0.31045 0.71409 0.42327
 C2490 C 0.30446 0.69538 0.41676
 C2491 C 0.28928 0.68566 0.42695
 C2492 C 0.27998 0.69467 0.44287
 C2493 C 0.28568 0.71351 0.44885
 C2494 C 0.30109 0.72308 0.43914
 H2495 H 0.32200 0.72209 0.41585
 H2496 H 0.28436 0.67121 0.42256
 H2497 H 0.26801 0.68717 0.45022
 H2498 H 0.30554 0.73770 0.44360
 C2499 C 0.31401 0.21008 0.92721
 C2500 C 0.30416 0.19516 0.91683
 C2501 C 0.28527 0.18941 0.92311
 C2502 C 0.27623 0.19879 0.93895
 C2503 C 0.28594 0.21396 0.94886
 C2504 C 0.30496 0.21939 0.94310
 H2505 H 0.32861 0.21479 0.92299
 H2506 H 0.27717 0.17805 0.91554
 H2507 H 0.26148 0.19453 0.94324
 H2508 H 0.31257 0.23117 0.95060
 C2509 C 0.81397 0.71065 0.92694
 C2510 C 0.80447 0.69519 0.91701
 C2511 C 0.78588 0.68896 0.92373
 C2512 C 0.77679 0.69836 0.93953
 C2513 C 0.78614 0.71405 0.94897
 C2514 C 0.80487 0.71999 0.94278
 H2515 H 0.82832 0.71578 0.92239
 H2516 H 0.77805 0.67717 0.91654
 H2517 H 0.76226 0.69370 0.94416
 H2518 H 0.81220 0.73217 0.94992
 C2519 C 0.81384 0.21031 0.42691
 C2520 C 0.80417 0.19509 0.41678
 C2521 C 0.78542 0.18912 0.42328
 C2522 C 0.77635 0.19854 0.43908
 C2523 C 0.78590 0.21398 0.44873
 C2524 C 0.80477 0.21966 0.44274
 H2525 H 0.82833 0.21521 0.42252
 H2526 H 0.77746 0.17752 0.41592
 H2527 H 0.76172 0.19408 0.44355
 H2528 H 0.81224 0.23165 0.45005
 C2529 C 0.68880 0.28592 0.42368
 C2530 C 0.69508 0.30447 0.41695
 C2531 C 0.71053 0.31397 0.42689
 C2532 C 0.71984 0.30490 0.44275
 C2533 C 0.71387 0.28621 0.44894
 C2534 C 0.69818 0.27686 0.43950
 H2535 H 0.67701 0.27809 0.41648
 H2536 H 0.71568 0.32830 0.42233
 H2537 H 0.73204 0.31221 0.44989
 H2538 H 0.69350 0.26235 0.44412
 C2539 C 0.68931 0.78565 0.92333
 C2540 C 0.69519 0.80445 0.91696
 C2541 C 0.71026 0.81419 0.92724
 C2542 C 0.71959 0.80512 0.94311
 C2543 C 0.71401 0.78620 0.94896
 C2544 C 0.69870 0.77659 0.93916
 H2545 H 0.67784 0.77762 0.91584
 H2546 H 0.71509 0.82871 0.92295
 H2547 H 0.73148 0.81265 0.95053
 H2548 H 0.69433 0.76191 0.94351
 C2549 C 0.18921 0.28578 0.92337
 C2550 C 0.19512 0.30456 0.91698
 C2551 C 0.21025 0.31426 0.92722
 C2552 C 0.21960 0.30517 0.94305
 C2553 C 0.21399 0.28625 0.94891
 C2554 C 0.19862 0.27669 0.93915
 H2555 H 0.17769 0.27778 0.91592
 H2556 H 0.21511 0.32878 0.92292
 H2557 H 0.23154 0.31266 0.95044
 H2558 H 0.19422 0.26202 0.94352
 C2559 C 0.18555 0.78971 0.42736
 C2560 C 0.19542 0.80459 0.41689
 C2561 C 0.21436 0.81024 0.42306
 C2562 C 0.22343 0.80084 0.43886
 C2563 C 0.21369 0.78573 0.44886
 C2564 C 0.19463 0.78037 0.44322
 H2565 H 0.17091 0.78507 0.42323
 H2566 H 0.22249 0.82155 0.41540
 H2567 H 0.23823 0.80504 0.44304
 H2568 H 0.18700 0.76864 0.45080
 C2569 C 0.71075 0.68606 0.57316
 C2570 C 0.69566 0.69582 0.58346
 C2571 C 0.68980 0.71465 0.57714
 C2572 C 0.69920 0.72372 0.56134
 C2573 C 0.71452 0.71409 0.55151
 C2574 C 0.72009 0.69513 0.55731
 H2575 H 0.71556 0.67150 0.57740
 H2576 H 0.67831 0.72269 0.58465
 H2577 H 0.69484 0.73842 0.55701
 H2578 H 0.73199 0.68759 0.54985
 C2579 C 0.69006 0.21453 0.07701
 C2580 C 0.69574 0.19559 0.08316
 C2581 C 0.71064 0.18572 0.07269
 C2582 C 0.71996 0.19478 0.05682
 C2583 C 0.71457 0.21383 0.05117
 C2584 C 0.69945 0.22359 0.06119
 H2585 H 0.67873 0.22266 0.08466
 H2586 H 0.71530 0.17108 0.07681
 H2587 H 0.73170 0.18714 0.04922
 H2588 H 0.69522 0.23837 0.05699
 C2589 C 0.18892 0.71376 0.07557
 C2590 C 0.19568 0.69553 0.08275
 C2591 C 0.21171 0.68640 0.07330
 C2592 C 0.22110 0.69554 0.05753
 C2593 C 0.21462 0.71392 0.05090
 C2594 C 0.19833 0.72287 0.05981
 H2595 H 0.17667 0.72130 0.08235
 H2596 H 0.21726 0.67232 0.07819
 H2597 H 0.23371 0.68851 0.05077
 H2598 H 0.19323 0.73712 0.05482
 C2599 C 0.21021 0.18534 0.57257
 C2600 C 0.19539 0.19523 0.58314
 C2601 C 0.18981 0.21425 0.57711
 C2602 C 0.19924 0.22336 0.56134
 C2603 C 0.21429 0.21358 0.55124
 C2604 C 0.21957 0.19445 0.55675
 H2605 H 0.21478 0.17064 0.57660
 H2606 H 0.17855 0.22240 0.58484
 H2607 H 0.19510 0.23819 0.55725
 H2608 H 0.23125 0.18679 0.54909
   
