data_POSCAR
  _audit_creation_date              2014-09-24
  _audit_creation_method            'ToBaCCo'
  _symmetry_space_group_name_H-M    'P1'
  _symmetry_Int_Tables_number       1
  _symmetry_cell_setting            triclinic
  loop_
  _symmetry_equiv_pos_as_xyz
 x,y,z
_cell_length_a 45.4528
_cell_length_b 45.5220
_cell_length_c 45.3811
_cell_angle_alpha 89.928400
_cell_angle_beta 89.953500
_cell_angle_gamma 89.888700
loop_
  _atom_site_label
  _atom_site_type_symbol
  _atom_site_fract_x
  _atom_site_fract_y
  _atom_site_fract_z
O1 O 0.27778 1.03299 0.47594
 O2 O 0.27023 0.97258 0.52960
 O3 O 0.27012 0.97458 0.47432
 O4 O 0.27663 1.02690 0.53572
 O5 O 0.23124 1.04176 0.52749
 O6 O 0.22217 0.98244 0.47326
 O7 O 0.22281 0.98257 0.53226
 O8 O 0.22944 1.03634 0.47206
 Cu9 Cu 0.27870 1.00215 0.50324
 Cu10 Cu 0.22146 1.01088 0.50246
 C11 C 0.25499 1.04388 0.46386
 C12 C 0.24501 0.96759 0.54049
 C13 C 0.24483 0.96910 0.46372
 C14 C 0.25523 1.04386 0.54170
 O15 O 0.76869 -0.03769 0.47024
 O16 O 0.77559 0.01962 0.52675
 O17 O 0.76804 -0.03658 0.52774
 O18 O 0.77612 0.01845 0.46889
 O19 O 0.72803 0.02553 0.46893
 O20 O 0.71987 -0.03111 0.52643
 O21 O 0.72742 0.02597 0.52627
 O22 O 0.72051 -0.03132 0.46949
 Cu23 Cu 0.77695 -0.00961 0.49849
 Cu24 Cu 0.71912 -0.00199 0.49777
 C25 C 0.74349 -0.04426 0.46018
 C26 C 0.75267 0.03241 0.53633
 C27 C 0.74260 -0.04355 0.53704
 C28 C 0.75343 0.03126 0.45877
 O29 O 0.22161 0.47727 0.97588
 O30 O 0.22623 0.53590 1.03152
 O31 O 0.22573 0.53441 0.97422
 O32 O 0.22190 0.47854 1.03293
 O33 O 0.27032 0.47580 1.03343
 O34 O 0.27413 0.52998 0.97337
 O35 O 0.27470 0.53218 1.03125
 O36 O 0.27004 0.47349 0.97602
 Cu37 Cu 0.21900 0.50698 1.00370
 Cu38 Cu 0.27716 0.50259 1.00349
 C39 C 0.24510 0.46539 0.96643
 C40 C 0.25126 0.54380 1.04106
 C41 C 0.25058 0.54130 0.96344
 C42 C 0.24548 0.46768 1.04340
 O43 O 0.48375 0.28397 1.03188
 O44 O 0.53630 0.27163 0.97144
 O45 O 0.48268 0.28258 0.97194
 O46 O 0.54193 0.27225 1.02615
 O47 O 0.52477 0.22813 1.03622
 O48 O 0.47214 0.23534 0.97498
 O49 O 0.52983 0.22388 0.97710
 O50 O 0.47036 0.23740 1.03081
 Cu51 Cu 0.51118 0.28262 1.00122
 Cu52 Cu 0.49903 0.22619 1.00441
 C53 C 0.46779 0.26306 1.04136
 C54 C 0.54247 0.24538 0.96441
 C55 C 0.46818 0.26039 0.96324
 C56 C 0.54299 0.24869 1.04117
 O57 O 0.46518 0.75038 -0.02960
 O58 O 0.52285 0.75128 0.02726
 O59 O 0.52272 0.75059 -0.02967
 O60 O 0.46549 0.75165 0.02767
 O61 O 0.46598 0.70319 0.02914
 O62 O 0.52198 0.70219 -0.02967
 O63 O 0.52289 0.70278 0.02802
 O64 O 0.46503 0.70192 -0.02838
 Cu65 Cu 0.49400 0.75584 -0.00121
 Cu66 Cu 0.49398 0.69765 -0.00015
 C67 C 0.45529 0.72595 -0.03875
 C68 C 0.53268 0.72715 0.03735
 C69 C 0.53214 0.72625 -0.03965
 C70 C 0.45617 0.72764 0.03844
 O71 O 1.03158 0.47259 0.27986
 O72 O 0.97307 0.52851 0.28407
 O73 O 0.97413 0.47153 0.28018
 O74 O 1.03079 0.52920 0.28396
 O75 O 1.03059 0.53274 0.23553
 O76 O 0.97243 0.47650 0.23174
 O77 O 0.97386 0.53300 0.23563
 O78 O 1.03000 0.47486 0.23125
 Cu79 Cu 1.00243 0.50011 0.28688
 Cu80 Cu 1.00192 0.50449 0.22863
 C81 C 1.04055 0.46404 0.25481
 C82 C 0.96355 0.54038 0.26055
 C83 C 0.96329 0.46465 0.25536
 C84 C 1.04043 0.54093 0.26043
 O85 O -0.03483 0.46957 0.76936
 O86 O 0.02175 0.52690 0.77550
 O87 O -0.03488 0.52704 0.76957
 O88 O 0.02183 0.46930 0.77507
 O89 O 0.02765 0.47064 0.72676
 O90 O -0.03104 0.52635 0.72116
 O91 O 0.02618 0.52774 0.72708
 O92 O -0.02978 0.46982 0.72093
 Cu93 Cu -0.00697 0.49815 0.77723
 Cu94 Cu -0.00113 0.49864 0.71913
 C95 C -0.04205 0.46006 0.74409
 C96 C 0.03346 0.53731 0.75232
 C97 C -0.04299 0.53638 0.74442
 C98 C 0.03450 0.46025 0.75183
 O99 O 0.47248 0.97594 0.22009
 O100 O 0.53231 1.03024 0.22584
 O101 O 0.52999 0.97315 0.22442
 O102 O 0.47495 1.03257 0.22118
 O103 O 0.47217 1.03256 0.26967
 O104 O 0.52542 0.97148 0.27283
 O105 O 0.52872 1.02879 0.27432
 O106 O 0.46867 0.97508 0.26861
 Cu107 Cu 0.50289 1.00303 0.21803
 Cu108 Cu 0.49836 1.00185 0.27620
 C109 C 0.46028 0.96640 0.24340
 C110 C 0.54065 1.03888 0.25111
 C111 C 0.53693 0.96203 0.24915
 C112 C 0.46423 1.04295 0.24488
 O113 O 1.03491 0.20359 0.53147
 O114 O 0.97903 0.20100 0.47297
 O115 O 1.03615 0.20413 0.47393
 O116 O 0.97803 0.20123 0.53061
 O117 O 0.97522 0.24964 0.53006
 O118 O 1.03402 0.25256 0.47433
 O119 O 0.97662 0.24942 0.47286
 O120 O 1.03242 0.25201 0.53148
 Cu121 Cu 1.00725 0.19763 0.50219
 Cu122 Cu 1.00431 0.25576 0.50213
 C123 C 1.04313 0.22824 0.54157
 C124 C 0.96825 0.22474 0.46290
 C125 C 1.04514 0.22886 0.46458
 C126 C 0.96677 0.22500 0.54008
 O127 O -0.03298 0.78268 0.52776
 O128 O 0.02471 0.77716 0.47119
 O129 O -0.03188 0.78270 0.46956
 O130 O 0.02351 0.77771 0.52834
 O131 O 0.01797 0.72944 0.52966
 O132 O -0.03598 0.73436 0.46935
 O133 O 0.02138 0.72877 0.47263
 O134 O -0.03872 0.73451 0.52669
 Cu135 Cu -0.00391 0.78496 0.49911
 Cu136 Cu -0.00939 0.72690 0.49945
 C137 C -0.04538 0.75950 0.53714
 C138 C 0.03323 0.75200 0.46265
 C139 C -0.04301 0.75938 0.45909
 C140 C 0.02988 0.75278 0.53914
 O141 O 0.70495 0.46619 1.02735
 O142 O 0.70345 0.52286 0.96945
 O143 O 0.70409 0.46623 0.96969
 O144 O 0.70431 0.52316 1.02728
 O145 O 0.75287 0.52411 1.02610
 O146 O 0.75266 0.46623 0.96933
 O147 O 0.75207 0.52365 0.96913
 O148 O 0.75348 0.46680 1.02673
 Cu149 Cu 0.69932 0.49457 0.99857
 Cu150 Cu 0.75765 0.49517 0.99775
 C151 C 0.72948 0.45688 1.03703
 C152 C 0.72754 0.53280 0.95939
 C153 C 0.72832 0.45663 0.95956
 C154 C 0.72862 0.53338 1.03647
 O155 O 0.47001 1.03254 0.72974
 O156 O 0.52115 0.97007 0.72298
 O157 O 0.46392 0.97615 0.72471
 O158 O 0.52655 1.02722 0.72841
 O159 O 0.52639 1.02375 0.77694
 O160 O 0.46704 0.96910 0.77281
 O161 O 0.52423 0.96745 0.77150
 O162 O 0.46890 1.02615 0.77787
 Cu163 Cu 0.49540 1.00184 0.72155
 Cu164 Cu 0.49663 0.99617 0.77967
 C165 C 0.46029 1.03981 0.75497
 C166 C 0.53185 0.95855 0.74613
 C167 C 0.45508 0.96374 0.74815
 C168 C 0.53686 1.03455 0.75336
 C169 C 0.26757 0.24520 0.28661
 C170 C 0.24519 0.26680 0.28714
 C171 C 0.24448 0.28883 0.26520
 C172 C 0.26540 0.28859 0.24214
 C173 C 0.28685 0.26607 0.24086
 C174 C 0.28847 0.24474 0.26348
 C175 C 0.75241 0.77496 0.26127
 C176 C 0.73139 0.77582 0.23843
 C177 C 0.73139 0.75375 0.21661
 C178 C 0.75297 0.73140 0.21707
 C179 C 0.77412 0.73068 0.23981
 C180 C 0.77335 0.75204 0.26231
 C181 C 0.74829 0.22569 0.72322
 C182 C 0.72591 0.22548 0.74478
 C183 C 0.72672 0.24578 0.76823
 C184 C 0.75019 0.26592 0.77050
 C185 C 0.77268 0.26596 0.74900
 C186 C 0.77159 0.24602 0.72520
 C187 C 0.24938 0.76905 0.72321
 C188 C 0.22699 0.74749 0.72227
 C189 C 0.22465 0.72648 0.74514
 C190 C 0.24400 0.72767 0.76939
 C191 C 0.26653 0.74898 0.77025
 C192 C 0.26955 0.76948 0.74698
 C193 C 0.23747 0.26226 0.72483
 C194 C 0.25995 0.24049 0.72335
 C195 C 0.28219 0.23992 0.74541
 C196 C 0.28163 0.26070 0.76860
 C197 C 0.26020 0.28315 0.76890
 C198 C 0.23815 0.28394 0.74711
 C199 C 0.76875 0.74845 0.73128
 C200 C 0.74807 0.77170 0.73144
 C201 C 0.72642 0.77304 0.75375
 C202 C 0.72555 0.75133 0.77601
 C203 C 0.74715 0.72892 0.77653
 C204 C 0.76892 0.72748 0.75428
 C205 C 0.22166 0.75968 0.27060
 C206 C 0.24551 0.77944 0.27235
 C207 C 0.26746 0.77931 0.25031
 C208 C 0.26556 0.75937 0.22661
 C209 C 0.24210 0.73913 0.22530
 C210 C 0.22016 0.73909 0.24737
 C211 C 0.78011 0.24448 0.27057
 C212 C 0.75827 0.22254 0.26922
 C213 C 0.73865 0.22140 0.24508
 C214 C 0.73972 0.24347 0.22294
 C215 C 0.76128 0.26605 0.22484
 C216 C 0.78203 0.26598 0.24814
 C217 C 0.24296 0.08055 0.39063
 C218 C 0.25972 0.10660 0.39310
 C219 C 0.27508 0.11155 0.41986
 C220 C 0.27477 0.09035 0.44244
 C221 C 0.25780 0.06495 0.43952
 C222 C 0.24180 0.06033 0.41367
 C223 C 0.29004 0.13791 0.42419
 C224 C 0.28910 0.16004 0.40306
 C225 C 0.27409 0.15613 0.37612
 C226 C 0.26083 0.12828 0.37035
 C227 C 0.24955 0.12284 0.34190
 C228 C 0.25000 0.14433 0.32019
 C229 C 0.26071 0.17233 0.32623
 C230 C 0.27237 0.17890 0.35446
 C231 C 0.28111 0.20823 0.36004
 C232 C 0.27905 0.22972 0.33815
 C233 C 0.26876 0.22256 0.31008
 C234 C 0.25965 0.19389 0.30417
 H235 H 0.22951 0.07575 0.37170
 H236 H 0.28664 0.09417 0.46280
 H237 H 0.22826 0.04090 0.41132
 H238 H 0.30202 0.14179 0.44446
 H239 H 0.30117 0.17977 0.40808
 H240 H 0.24106 0.10173 0.33541
 H241 H 0.24135 0.13910 0.29857
 H242 H 0.28883 0.21540 0.38129
 H243 H 0.28581 0.25201 0.34300
 H244 H 0.25128 0.18860 0.28243
 C245 C 0.71333 0.89413 0.41339
 C246 C 0.73679 0.88860 0.39357
 C247 C 0.76205 0.90674 0.39554
 C248 C 0.76422 0.92816 0.41761
 C249 C 0.74100 0.93295 0.43729
 C250 C 0.71542 0.91613 0.43471
 C251 C 0.78501 0.90353 0.37543
 C252 C 0.78330 0.88305 0.35289
 C253 C 0.75883 0.86421 0.35016
 C254 C 0.73589 0.86604 0.37168
 C255 C 0.71332 0.84477 0.37111
 C256 C 0.71293 0.82271 0.35000
 C257 C 0.73428 0.82163 0.32796
 C258 C 0.75702 0.84293 0.32713
 C259 C 0.77678 0.84226 0.30299
 C260 C 0.77469 0.82056 0.28146
 C261 C 0.75332 0.79868 0.28354
 C262 C 0.73306 0.79931 0.30669
 H263 H 0.69281 0.88235 0.41253
 H264 H 0.78385 0.94160 0.41910
 H265 H 0.69705 0.91974 0.44951
 H266 H 0.80443 0.91723 0.37693
 H267 H 0.80214 0.88176 0.33852
 H268 H 0.69615 0.84391 0.38747
 H269 H 0.69550 0.80651 0.35074
 H270 H 0.79357 0.85861 0.29970
 H271 H 0.78998 0.82069 0.26314
 H272 H 0.71633 0.78243 0.30805
 C273 C 0.77965 0.07240 0.60388
 C274 C 0.75951 0.09606 0.60625
 C275 C 0.73806 0.09925 0.58378
 C276 C 0.73569 0.07826 0.56125
 C277 C 0.75538 0.05464 0.55974
 C278 C 0.77766 0.05222 0.58085
 C279 C 0.71911 0.12337 0.58387
 C280 C 0.72122 0.14476 0.60555
 C281 C 0.74175 0.14226 0.62876
 C282 C 0.76018 0.11678 0.62988
 C283 C 0.77794 0.11236 0.65503
 C284 C 0.77805 0.13237 0.67810
 C285 C 0.76142 0.15807 0.67656
 C286 C 0.74375 0.16390 0.65145
 C287 C 0.72915 0.19139 0.64998
 C288 C 0.73116 0.21152 0.67304
 C289 C 0.74718 0.20469 0.69837
 C290 C 0.76238 0.17806 0.70004
 H291 H 0.79759 0.06927 0.61908
 H292 H 0.71879 0.08057 0.54454
 H293 H 0.79334 0.03429 0.57986
 H294 H 0.70263 0.12591 0.56679
 H295 H 0.70558 0.16253 0.60418
 H296 H 0.79118 0.09294 0.65810
 H297 H 0.79158 0.12780 0.69723
 H298 H 0.71668 0.19828 0.63100
 H299 H 0.71995 0.23248 0.67125
 H300 H 0.77520 0.17311 0.71958
 C301 C 0.21253 0.91933 0.60031
 C302 C 0.23601 0.89981 0.60680
 C303 C 0.26225 0.90277 0.59016
 C304 C 0.26495 0.92487 0.56876
 C305 C 0.24168 0.94425 0.56297
 C306 C 0.21540 0.94109 0.57875
 C307 C 0.28580 0.88373 0.59492
 C308 C 0.28398 0.86150 0.61575
 C309 C 0.25848 0.85759 0.63308
 C310 C 0.23434 0.87748 0.62903
 C311 C 0.20959 0.87470 0.64765
 C312 C 0.20830 0.85323 0.66933
 C313 C 0.23129 0.83331 0.67309
 C314 C 0.25654 0.83478 0.65475
 C315 C 0.27870 0.81318 0.65885
 C316 C 0.27611 0.79177 0.68072
 C317 C 0.25159 0.79124 0.69927
 C318 C 0.22917 0.81191 0.69526
 H319 H 0.19152 0.91828 0.61122
 H320 H 0.28531 0.92685 0.55644
 H321 H 0.19697 0.95562 0.57457
 H322 H 0.30596 0.88599 0.58232
 H323 H 0.30336 0.84808 0.61812
 H324 H 0.19092 0.88923 0.64649
 H325 H 0.18896 0.85216 0.68330
 H326 H 0.29814 0.81189 0.64535
 H327 H 0.29342 0.77557 0.68330
 H328 H 0.21007 0.81133 0.70960
 C329 C 0.43535 0.28986 0.11308
 C330 C 0.40923 0.27307 0.11534
 C331 C 0.40144 0.25515 0.09103
 C332 C 0.42046 0.25230 0.06682
 C333 C 0.44678 0.26815 0.06557
 C334 C 0.45366 0.28752 0.08843
 C335 C 0.37490 0.23988 0.09113
 C336 C 0.35562 0.24217 0.11476
 C337 C 0.36271 0.25901 0.13986
 C338 C 0.39056 0.27354 0.14074
 C339 C 0.39932 0.28704 0.16732
 C340 C 0.38130 0.28671 0.19208
 C341 C 0.35339 0.27411 0.19100
 C342 C 0.34327 0.26096 0.16455
 C343 C 0.31388 0.25075 0.16377
 C344 C 0.29581 0.25268 0.18852
 C345 C 0.30657 0.26416 0.21491
 C346 C 0.33535 0.27482 0.21615
 H347 H 0.44200 0.30527 0.12980
 H348 H 0.41478 0.23770 0.04884
 H349 H 0.47381 0.30019 0.08772
 H350 H 0.36885 0.22611 0.07264
 H351 H 0.33577 0.22935 0.11325
 H352 H 0.42062 0.29703 0.17004
 H353 H 0.38917 0.29681 0.21220
 H354 H 0.30390 0.24206 0.14410
 H355 H 0.27330 0.24500 0.18719
 H356 H 0.34334 0.28436 0.23651
 C357 C 0.40648 0.69894 0.89969
 C358 C 0.38986 0.72425 0.89236
 C359 C 0.39432 0.74993 0.90944
 C360 C 0.41574 0.75044 0.93172
 C361 C 0.43247 0.72536 0.93811
 C362 C 0.42733 0.69957 0.92219
 C363 C 0.37741 0.77497 0.90422
 C364 C 0.35587 0.77514 0.88255
 C365 C 0.35090 0.75035 0.86457
 C366 C 0.36889 0.72485 0.86890
 C367 C 0.36592 0.70111 0.84914
 C368 C 0.34581 0.70197 0.82622
 C369 C 0.32735 0.72611 0.82245
 C370 C 0.32906 0.75043 0.84187
 C371 C 0.30869 0.77372 0.83774
 C372 C 0.28818 0.77300 0.81485
 C373 C 0.28749 0.74931 0.79533
 C374 C 0.30721 0.72606 0.79913
 H375 H 0.40362 0.67811 0.88885
 H376 H 0.41920 0.77037 0.94432
 H377 H 0.43972 0.67977 0.92691
 H378 H 0.38073 0.79468 0.91719
 H379 H 0.34404 0.79548 0.87983
 H380 H 0.37952 0.68175 0.85017
 H381 H 0.34458 0.68337 0.81136
 H382 H 0.30763 0.79252 0.85207
 H383 H 0.27287 0.79108 0.81221
 H384 H 0.30695 0.70793 0.78367
 C385 C 0.57911 0.70460 0.10254
 C386 C 0.59880 0.72849 0.10538
 C387 C 0.59706 0.75136 0.08419
 C388 C 0.57520 0.75100 0.06237
 C389 C 0.55558 0.72744 0.06031
 C390 C 0.55801 0.70409 0.08023
 C391 C 0.61718 0.77442 0.08479
 C392 C 0.63950 0.77507 0.10562
 C393 C 0.64195 0.75307 0.12744
 C394 C 0.62039 0.73022 0.12818
 C395 C 0.62061 0.71038 0.15212
 C396 C 0.64158 0.71233 0.17423
 C397 C 0.66374 0.73338 0.17285
 C398 C 0.66479 0.75358 0.14905
 C399 C 0.68901 0.77310 0.14764
 C400 C 0.71065 0.77293 0.16943
 C401 C 0.70854 0.75383 0.19341
 C402 C 0.68504 0.73421 0.19513
 H403 H 0.57987 0.68563 0.11674
 H404 H 0.57381 0.76885 0.04657
 H405 H 0.54326 0.68549 0.07881
 H406 H 0.61588 0.79202 0.06873
 H407 H 0.65397 0.79377 0.10472
 H408 H 0.60414 0.69363 0.15498
 H409 H 0.64066 0.69688 0.19241
 H410 H 0.69235 0.78808 0.12955
 H411 H 0.72920 0.78772 0.16754
 H412 H 0.68366 0.71927 0.21371
 C413 C 0.60632 0.21340 0.92157
 C414 C 0.60962 0.23399 0.89832
 C415 C 0.58856 0.25691 0.89621
 C416 C 0.56672 0.26019 0.91776
 C417 C 0.56451 0.24030 0.94116
 C418 C 0.58392 0.21648 0.94252
 C419 C 0.58951 0.27670 0.87279
 C420 C 0.61087 0.27425 0.85112
 C421 C 0.63284 0.25235 0.85253
 C422 C 0.63294 0.23266 0.87715
 C423 C 0.65691 0.21314 0.88036
 C424 C 0.67995 0.21279 0.86021
 C425 C 0.67947 0.23095 0.83545
 C426 C 0.65537 0.25023 0.83067
 C427 C 0.65471 0.26640 0.80399
 C428 C 0.67769 0.26445 0.78374
 C429 C 0.70215 0.24685 0.78962
 C430 C 0.70295 0.22996 0.81534
 H431 H 0.62044 0.19449 0.92394
 H432 H 0.55123 0.27830 0.91628
 H433 H 0.58229 0.20066 0.96029
 H434 H 0.57348 0.29429 0.87114
 H435 H 0.61033 0.29077 0.83410
 H436 H 0.65910 0.19860 0.89899
 H437 H 0.69825 0.19793 0.86392
 H438 H 0.63642 0.28015 0.79775
 H439 H 0.67654 0.27695 0.76344
 H440 H 0.72175 0.21583 0.81945
 C441 C 0.08220 0.39565 0.23289
 C442 C 0.10689 0.39642 0.25192
 C443 C 0.11003 0.42116 0.27062
 C444 C 0.08805 0.44283 0.27175
 C445 C 0.06353 0.44131 0.25323
 C446 C 0.06107 0.41799 0.23338
 C447 C 0.13510 0.42419 0.28803
 C448 C 0.15754 0.40348 0.28690
 C449 C 0.15517 0.37814 0.26918
 C450 C 0.12874 0.37379 0.25269
 C451 C 0.12458 0.34660 0.23836
 C452 C 0.14581 0.32463 0.23959
 C453 C 0.17248 0.32932 0.25396
 C454 C 0.17799 0.35651 0.26814
 C455 C 0.20635 0.36111 0.28020
 C456 C 0.22788 0.33925 0.27888
 C457 C 0.22161 0.31204 0.26622
 C458 C 0.19387 0.30705 0.25399
 H459 H 0.07902 0.37849 0.21686
 H460 H 0.09029 0.46131 0.28665
 H461 H 0.04239 0.41673 0.21862
 H462 H 0.13760 0.44303 0.30240
 H463 H 0.17607 0.40732 0.30119
 H464 H 0.10452 0.34120 0.22697
 H465 H 0.14146 0.30388 0.22873
 H466 H 0.21286 0.38170 0.28989
 H467 H 0.24950 0.34347 0.28795
 H468 H 0.18931 0.28601 0.24378
 C469 C 0.89165 0.41873 0.71658
 C470 C 0.88846 0.39623 0.73792
 C471 C 0.91005 0.39416 0.76038
 C472 C 0.93242 0.41527 0.76253
 C473 C 0.93474 0.43774 0.74160
 C474 C 0.91463 0.43893 0.71834
 C475 C 0.90926 0.37100 0.78050
 C476 C 0.88779 0.34942 0.77853
 C477 C 0.86543 0.35089 0.75701
 C478 C 0.86488 0.37553 0.73745
 C479 C 0.84032 0.37921 0.71877
 C480 C 0.81737 0.35914 0.71871
 C481 C 0.81855 0.33403 0.73627
 C482 C 0.84302 0.32902 0.75501
 C483 C 0.84425 0.30203 0.77055
 C484 C 0.82162 0.28149 0.76818
 C485 C 0.79693 0.28749 0.75091
 C486 C 0.79540 0.31375 0.73506
 H487 H 0.87720 0.42082 0.69787
 H488 H 0.94843 0.41393 0.78020
 H489 H 0.91634 0.45597 0.70173
 H490 H 0.92566 0.36931 0.79776
 H491 H 0.88857 0.33239 0.79504
 H492 H 0.83763 0.39814 0.70473
 H493 H 0.79868 0.36311 0.70441
 H494 H 0.86282 0.29578 0.78393
 H495 H 0.82329 0.26086 0.77998
 H496 H 0.77629 0.31813 0.72144
 C497 C 0.07732 0.60115 0.78222
 C498 C 0.09691 0.60750 0.75879
 C499 C 0.09595 0.58912 0.73359
 C500 C 0.07512 0.56649 0.73154
 C501 C 0.05554 0.56094 0.75472
 C502 C 0.05713 0.57819 0.78017
 C503 C 0.11579 0.59336 0.71056
 C504 C 0.13705 0.61514 0.71209
 C505 C 0.13881 0.63420 0.73654
 C506 C 0.11759 0.63114 0.75965
 C507 C 0.11730 0.65221 0.78247
 C508 C 0.13744 0.67507 0.78311
 C509 C 0.15921 0.67741 0.76162
 C510 C 0.16067 0.65669 0.73833
 C511 C 0.18426 0.65915 0.71805
 C512 C 0.20495 0.68160 0.72057
 C513 C 0.20267 0.70245 0.74303
 C514 C 0.17966 0.70038 0.76338
 H515 H 0.07741 0.61310 0.80269
 H516 H 0.07440 0.55289 0.71195
 H517 H 0.04241 0.57415 0.79853
 H518 H 0.11507 0.57947 0.69118
 H519 H 0.15130 0.61705 0.69321
 H520 H 0.10111 0.65217 0.79981
 H521 H 0.13616 0.69091 0.80089
 H522 H 0.18783 0.64368 0.70047
 H523 H 0.22291 0.68272 0.70490
 H524 H 0.17781 0.71667 0.78068
 C525 C 0.89702 0.58354 0.28601
 C526 C 0.89282 0.60375 0.26260
 C527 C 0.91378 0.60373 0.23944
 C528 C 0.93671 0.58308 0.23902
 C529 C 0.94002 0.56273 0.26193
 C530 C 0.92035 0.56350 0.28566
 C531 C 0.91173 0.62420 0.21668
 C532 C 0.88954 0.64515 0.21651
 C533 C 0.86789 0.64594 0.23881
 C534 C 0.86879 0.62410 0.26150
 C535 C 0.84524 0.62280 0.28178
 C536 C 0.82188 0.64247 0.28030
 C537 C 0.82151 0.66482 0.25929
 C538 C 0.84489 0.66739 0.23871
 C539 C 0.84452 0.69172 0.21922
 C540 C 0.82154 0.71203 0.21978
 C541 C 0.79803 0.70853 0.23927
 C542 C 0.79800 0.68486 0.25891
 H543 H 0.88298 0.58297 0.30514
 H544 H 0.95222 0.58299 0.22084
 H545 H 0.92266 0.54815 0.30377
 H546 H 0.92762 0.62417 0.19884
 H547 H 0.88936 0.65986 0.19790
 H548 H 0.84372 0.60612 0.29857
 H549 H 0.80408 0.64039 0.29608
 H550 H 0.86210 0.69626 0.20396
 H551 H 0.82219 0.73076 0.20505
 H552 H 0.77984 0.68239 0.27422
 C553 C 0.09229 0.20521 0.60481
 C554 C 0.10739 0.23153 0.61159
 C555 C 0.10137 0.25660 0.59399
 C556 C 0.08022 0.25545 0.57152
 C557 C 0.06528 0.22931 0.56537
 C558 C 0.07171 0.20419 0.58201
 C559 C 0.11655 0.28272 0.59878
 C560 C 0.13826 0.28442 0.62016
 C561 C 0.14523 0.26009 0.63818
 C562 C 0.12857 0.23368 0.63480
 C563 C 0.13329 0.21054 0.65502
 C564 C 0.15419 0.21272 0.67720
 C565 C 0.17182 0.23760 0.67961
 C566 C 0.16802 0.26146 0.65982
 C567 C 0.18781 0.28534 0.66196
 C568 C 0.21001 0.28555 0.68311
 C569 C 0.21293 0.26238 0.70316
 C570 C 0.19364 0.23855 0.70146
 H571 H 0.09632 0.18484 0.61623
 H572 H 0.07572 0.27491 0.55845
 H573 H 0.06062 0.18363 0.57755
 H574 H 0.11183 0.30204 0.58559
 H575 H 0.14869 0.30551 0.62258
 H576 H 0.12058 0.19059 0.65478
 H577 H 0.15693 0.19447 0.69233
 H578 H 0.18752 0.30364 0.64691
 H579 H 0.22550 0.30358 0.68334
 H580 H 0.19627 0.22035 0.71668
 C581 C 0.91946 0.78039 0.60933
 C582 C 0.89489 0.76136 0.61069
 C583 C 0.88894 0.74357 0.58576
 C584 C 0.90844 0.74308 0.56175
 C585 C 0.93312 0.76138 0.56130
 C586 C 0.93808 0.78050 0.58486
 C587 C 0.86367 0.72627 0.58500
 C588 C 0.84374 0.72669 0.60822
 C589 C 0.84904 0.74351 0.63378
 C590 C 0.87587 0.75972 0.63570
 C591 C 0.88326 0.77290 0.66284
 C592 C 0.86463 0.77107 0.68705
 C593 C 0.83738 0.75728 0.68478
 C594 C 0.82878 0.74404 0.65784
 C595 C 0.79989 0.73265 0.65584
 C596 C 0.78067 0.73408 0.67977
 C597 C 0.78988 0.74601 0.70654
 C598 C 0.81835 0.75720 0.70915
 H599 H 0.92450 0.79585 0.62658
 H600 H 0.90429 0.72865 0.54322
 H601 H 0.95697 0.79497 0.58476
 H602 H 0.85904 0.71254 0.56607
 H603 H 0.82486 0.71258 0.60604
 H604 H 0.90396 0.78386 0.66638
 H605 H 0.87137 0.78115 0.70759
 H606 H 0.79110 0.72367 0.63573
 H607 H 0.75843 0.72589 0.67741
 H608 H 0.82515 0.76693 0.72985
 C609 C 0.10093 0.72535 0.42243
 C610 C 0.10458 0.74702 0.40030
 C611 C 0.08299 0.76947 0.39824
 C612 C 0.06007 0.77114 0.41889
 C613 C 0.05722 0.74986 0.44096
 C614 C 0.07743 0.72670 0.44223
 C615 C 0.08431 0.79010 0.37557
 C616 C 0.10626 0.78862 0.35434
 C617 C 0.12852 0.76700 0.35566
 C618 C 0.12856 0.74690 0.37990
 C619 C 0.15296 0.72799 0.38344
 C620 C 0.17622 0.72821 0.36358
 C621 C 0.17552 0.74630 0.33879
 C622 C 0.15124 0.76534 0.33396
 C623 C 0.15045 0.78150 0.30728
 C624 C 0.17321 0.77928 0.28677
 C625 C 0.19757 0.76146 0.29245
 C626 C 0.19887 0.74527 0.31857
 H627 H 0.11544 0.70670 0.42454
 H628 H 0.04402 0.78876 0.41746
 H629 H 0.07536 0.70983 0.45897
 H630 H 0.06795 0.80739 0.37396
 H631 H 0.10586 0.80553 0.33771
 H632 H 0.15525 0.71346 0.40208
 H633 H 0.19474 0.71365 0.36740
 H634 H 0.13213 0.79527 0.30117
 H635 H 0.17190 0.79162 0.26639
 H636 H 0.21783 0.73139 0.32278
 C637 C 0.92124 0.19690 0.40015
 C638 C 0.90375 0.22171 0.39304
 C639 C 0.90725 0.24730 0.41048
 C640 C 0.92840 0.24821 0.43301
 C641 C 0.94589 0.22362 0.43929
 C642 C 0.94184 0.19792 0.42290
 C643 C 0.88966 0.27189 0.40540
 C644 C 0.86833 0.27169 0.38354
 C645 C 0.86415 0.24695 0.36529
 C646 C 0.88283 0.22192 0.36948
 C647 C 0.88048 0.19823 0.34956
 C648 C 0.86038 0.19873 0.32659
 C649 C 0.84134 0.22244 0.32288
 C650 C 0.84242 0.24666 0.34248
 C651 C 0.82151 0.26948 0.33844
 C652 C 0.80115 0.26848 0.31546
 C653 C 0.80107 0.24497 0.29570
 C654 C 0.82122 0.22205 0.29949
 H655 H 0.91927 0.17618 0.38892
 H656 H 0.93101 0.26807 0.44591
 H657 H 0.95487 0.17850 0.42750
 H658 H 0.89228 0.29153 0.41862
 H659 H 0.85596 0.29172 0.38096
 H660 H 0.89451 0.17918 0.35056
 H661 H 0.85963 0.18019 0.31163
 H662 H 0.81993 0.28814 0.35292
 H663 H 0.78542 0.28622 0.31295
 H664 H 0.82128 0.20394 0.28400
 C665 C 0.21625 0.40393 0.91850
 C666 C 0.24086 0.39722 0.90053
 C667 C 0.26666 0.41428 0.90431
 C668 C 0.26797 0.43603 0.92612
 C669 C 0.24354 0.44210 0.94390
 C670 C 0.21762 0.42612 0.93968
 C671 C 0.29102 0.40971 0.88624
 C672 C 0.29027 0.38895 0.86392
 C673 C 0.26520 0.37130 0.85924
 C674 C 0.24062 0.37457 0.87870
 C675 C 0.21696 0.35468 0.87611
 C676 C 0.21700 0.33274 0.85489
 C677 C 0.24008 0.33029 0.83481
 C678 C 0.26420 0.34997 0.83619
 C679 C 0.28610 0.34776 0.81407
 C680 C 0.28443 0.32634 0.79223
 C681 C 0.26126 0.30625 0.79192
 C682 C 0.23913 0.30828 0.81322
 H683 H 0.19540 0.39294 0.91631
 H684 H 0.28797 0.44870 0.92887
 H685 H 0.19833 0.43062 0.95298
 H686 H 0.31087 0.42256 0.88917
 H687 H 0.31016 0.38663 0.85121
 H688 H 0.19836 0.35490 0.89083
 H689 H 0.19853 0.31772 0.85396
 H690 H 0.30437 0.36272 0.81251
 H691 H 0.30132 0.32542 0.77540
 H692 H 0.22108 0.29274 0.81283
 C693 C 0.70533 0.40764 0.09977
 C694 C 0.73170 0.39289 0.10746
 C695 C 0.75717 0.39893 0.09043
 C696 C 0.75630 0.41980 0.06764
 C697 C 0.73013 0.43456 0.06073
 C698 C 0.70465 0.42804 0.07678
 C699 C 0.78342 0.38414 0.09618
 C700 C 0.78495 0.36295 0.11813
 C701 C 0.76028 0.35607 0.13574
 C702 C 0.73357 0.37215 0.13111
 C703 C 0.70983 0.36734 0.15060
 C704 C 0.71172 0.34695 0.17327
 C705 C 0.73700 0.33001 0.17704
 C706 C 0.76154 0.33394 0.15812
 C707 C 0.78603 0.31501 0.16199
 C708 C 0.78599 0.29332 0.18374
 C709 C 0.76187 0.29007 0.20259
 C710 C 0.73763 0.30876 0.19943
 H711 H 0.68469 0.40360 0.11069
 H712 H 0.77608 0.42436 0.05507
 H713 H 0.68405 0.43895 0.07176
 H714 H 0.80301 0.38882 0.08337
 H715 H 0.80616 0.35282 0.12124
 H716 H 0.68954 0.37952 0.14938
 H717 H 0.69296 0.34409 0.18776
 H718 H 0.80514 0.31565 0.14797
 H719 H 0.80469 0.27865 0.18557
 H720 H 0.71886 0.30607 0.21395
 C721 C 0.70905 0.57182 0.88849
 C722 C 0.72816 0.59634 0.88918
 C723 C 0.74564 0.60044 0.91472
 C724 C 0.74565 0.57939 0.93734
 C725 C 0.72711 0.55497 0.93587
 C726 C 0.70838 0.55167 0.91170
 C727 C 0.76295 0.62552 0.91759
 C728 C 0.76286 0.64706 0.89590
 C729 C 0.74642 0.64365 0.86976
 C730 C 0.73016 0.61713 0.86565
 C731 C 0.71733 0.61178 0.83785
 C732 C 0.71980 0.63196 0.81501
 C733 C 0.73387 0.65878 0.81937
 C734 C 0.74649 0.66548 0.84713
 C735 C 0.75810 0.69402 0.85128
 C736 C 0.75796 0.71454 0.82844
 C737 C 0.74705 0.70703 0.80070
 C738 C 0.73514 0.67914 0.79617
 H739 H 0.69384 0.56805 0.87068
 H740 H 0.75968 0.58226 0.95645
 H741 H 0.69362 0.53304 0.91046
 H742 H 0.77641 0.62875 0.93703
 H743 H 0.77698 0.66569 0.89966
 H744 H 0.70627 0.59150 0.83269
 H745 H 0.71013 0.62670 0.79383
 H746 H 0.76649 0.70144 0.87219
 H747 H 0.76661 0.73636 0.83230
 H748 H 0.72608 0.67370 0.77476
 C749 C 0.27547 0.58403 0.10937
 C750 C 0.25541 0.60782 0.11067
 C751 C 0.23511 0.61113 0.08716
 C752 C 0.23357 0.59000 0.06470
 C753 C 0.25313 0.56624 0.06427
 C754 C 0.27442 0.56378 0.08636
 C755 C 0.21651 0.63550 0.08618
 C756 C 0.21794 0.65706 0.10776
 C757 C 0.23727 0.65440 0.13196
 C758 C 0.25512 0.62861 0.13423
 C759 C 0.27129 0.62393 0.16037
 C760 C 0.27051 0.64407 0.18331
 C761 C 0.25468 0.67017 0.18062
 C762 C 0.23862 0.67623 0.15450
 C763 C 0.22506 0.70414 0.15185
 C764 C 0.22659 0.72459 0.17468
 C765 C 0.24091 0.71755 0.20097
 C766 C 0.25497 0.69042 0.20388
 H767 H 0.29267 0.58089 0.12541
 H768 H 0.21748 0.59230 0.04720
 H769 H 0.28998 0.54571 0.08616
 H770 H 0.20091 0.63814 0.06831
 H771 H 0.20267 0.67508 0.10554
 H772 H 0.28385 0.60421 0.16428
 H773 H 0.28281 0.63932 0.20322
 H774 H 0.21395 0.71116 0.13207
 H775 H 0.21638 0.74594 0.17195
 H776 H 0.26663 0.68540 0.22411
 C777 C 0.40490 0.09114 0.78669
 C778 C 0.39710 0.10850 0.76200
 C779 C 0.41235 0.10346 0.73524
 C780 C 0.43288 0.08049 0.73295
 C781 C 0.43986 0.06290 0.75745
 C782 C 0.42603 0.06896 0.78444
 C783 C 0.40709 0.12138 0.71084
 C784 C 0.38728 0.14457 0.71249
 C785 C 0.37101 0.15007 0.73841
 C786 C 0.37500 0.13086 0.76307
 C787 C 0.35608 0.13396 0.78757
 C788 C 0.33428 0.15533 0.78814
 C789 C 0.33120 0.17518 0.76495
 C790 C 0.35010 0.17351 0.74014
 C791 C 0.34736 0.19555 0.71822
 C792 C 0.32593 0.21746 0.72045
 C793 C 0.30633 0.21784 0.74420
 C794 C 0.30909 0.19662 0.76636
 H795 H 0.39559 0.09460 0.80825
 H796 H 0.44378 0.07671 0.71202
 H797 H 0.43116 0.05623 0.80397
 H798 H 0.41866 0.11763 0.69028
 H799 H 0.38430 0.15716 0.69258
 H800 H 0.35677 0.11932 0.80623
 H801 H 0.31985 0.15652 0.80715
 H802 H 0.36183 0.19682 0.69944
 H803 H 0.32431 0.23397 0.70331
 H804 H 0.29367 0.19659 0.78458
 C805 C 0.39187 0.92782 0.21660
 C806 C 0.38790 0.90553 0.23803
 C807 C 0.40951 0.90275 0.26041
 C808 C 0.43276 0.92294 0.26229
 C809 C 0.43593 0.94518 0.24122
 C810 C 0.41570 0.94710 0.21810
 C811 C 0.40787 0.87980 0.28071
 C812 C 0.38557 0.85905 0.27900
 C813 C 0.36322 0.86117 0.25751
 C814 C 0.36356 0.88567 0.23774
 C815 C 0.33915 0.89002 0.21901
 C816 C 0.31548 0.87076 0.21912
 C817 C 0.31573 0.84578 0.23692
 C818 C 0.34001 0.84010 0.25572
 C819 C 0.34026 0.81324 0.27153
 C820 C 0.31692 0.79348 0.26935
 C821 C 0.29243 0.80013 0.25201
 C822 C 0.29186 0.82629 0.23589
 H823 H 0.37738 0.93045 0.19799
 H824 H 0.44881 0.92099 0.27987
 H825 H 0.41801 0.96395 0.20138
 H826 H 0.42426 0.87760 0.29793
 H827 H 0.38575 0.84214 0.29564
 H828 H 0.33716 0.90887 0.20475
 H829 H 0.29696 0.87524 0.20475
 H830 H 0.35858 0.80646 0.28500
 H831 H 0.31790 0.77290 0.28133
 H832 H 0.27293 0.83120 0.22220
 C833 C 0.58868 0.09908 0.28210
 C834 C 0.60819 0.10518 0.25854
 C835 C 0.60582 0.08776 0.23277
 C836 C 0.58367 0.06637 0.23032
 C837 C 0.56416 0.06115 0.25366
 C838 C 0.56718 0.07740 0.27964
 C839 C 0.62556 0.09173 0.20957
 C840 C 0.64793 0.11240 0.21143
 C841 C 0.65096 0.13065 0.23638
 C842 C 0.63006 0.12771 0.25982
 C843 C 0.63120 0.14790 0.28339
 C844 C 0.65226 0.16987 0.28436
 C845 C 0.67352 0.17221 0.26238
 C846 C 0.67369 0.15231 0.23836
 C847 C 0.69677 0.15491 0.21747
 C848 C 0.71806 0.17687 0.22004
 C849 C 0.71691 0.19704 0.24322
 C850 C 0.69455 0.19459 0.26427
 H851 H 0.58974 0.11025 0.30297
 H852 H 0.58185 0.05351 0.21030
 H853 H 0.55259 0.07360 0.29813
 H854 H 0.62385 0.07852 0.18978
 H855 H 0.66203 0.11418 0.19242
 H856 H 0.61545 0.14794 0.30113
 H857 H 0.65200 0.18511 0.30270
 H858 H 0.69931 0.14004 0.19920
 H859 H 0.73538 0.17835 0.20370
 H860 H 0.69334 0.21049 0.28198
 C861 C 0.56950 0.88830 0.72289
 C862 C 0.59471 0.88787 0.74124
 C863 C 0.59954 0.91240 0.75985
 C864 C 0.57868 0.93508 0.76158
 C865 C 0.55360 0.93474 0.74376
 C866 C 0.54947 0.91162 0.72398
 C867 C 0.62515 0.91423 0.77661
 C868 C 0.64649 0.89245 0.77498
 C869 C 0.64244 0.86725 0.75736
 C870 C 0.61545 0.86420 0.74149
 C871 C 0.60964 0.83725 0.72730
 C872 C 0.62970 0.81419 0.72824
 C873 C 0.65685 0.81753 0.74212
 C874 C 0.66407 0.84450 0.75595
 C875 C 0.69287 0.84772 0.76737
 C876 C 0.71307 0.82466 0.76612
 C877 C 0.70502 0.79761 0.75415
 C878 C 0.67696 0.79408 0.74213
 H879 H 0.56506 0.87132 0.70697
 H880 H 0.58221 0.95340 0.77642
 H881 H 0.53034 0.91129 0.70975
 H882 H 0.62892 0.93290 0.79092
 H883 H 0.66550 0.89536 0.78885
 H884 H 0.58910 0.83287 0.71631
 H885 H 0.62406 0.79365 0.71760
 H886 H 0.70071 0.86806 0.77659
 H887 H 0.73501 0.82777 0.77487
 H888 H 0.67109 0.77321 0.73226
 C889 C 0.70921 0.90114 0.58746
 C890 C 0.73408 0.89023 0.60272
 C891 C 0.76172 0.90324 0.59659
 C892 C 0.76446 0.92457 0.57440
 C893 C 0.73967 0.93489 0.55905
 C894 C 0.71198 0.92332 0.56633
 C895 C 0.78651 0.89505 0.61273
 C896 C 0.78439 0.87468 0.63541
 C897 C 0.75750 0.86068 0.64197
 C898 C 0.73238 0.86730 0.62421
 C899 C 0.70679 0.85012 0.62786
 C900 C 0.70566 0.82754 0.64849
 C901 C 0.72936 0.82218 0.66726
 C902 C 0.75518 0.83948 0.66505
 C903 C 0.77741 0.83524 0.68645
 C904 C 0.77452 0.81382 0.70823
 C905 C 0.74999 0.79536 0.70886
 C906 C 0.72739 0.79967 0.68836
 H907 H 0.68721 0.89356 0.59202
 H908 H 0.78599 0.93369 0.56970
 H909 H 0.69227 0.93099 0.55530
 H910 H 0.80775 0.90483 0.60809
 H911 H 0.80459 0.86934 0.64667
 H912 H 0.68764 0.85282 0.61411
 H913 H 0.68582 0.81445 0.65009
 H914 H 0.79678 0.84883 0.68753
 H915 H 0.79162 0.81157 0.72467
 H916 H 0.70821 0.78559 0.68900
 C917 C 0.21619 0.41242 0.09637
 C918 C 0.24193 0.40326 0.11132
 C919 C 0.26872 0.41738 0.10402
 C920 C 0.26984 0.43809 0.08111
 C921 C 0.24420 0.44665 0.06608
 C922 C 0.21731 0.43396 0.07444
 C923 C 0.29430 0.41092 0.11971
 C924 C 0.29380 0.39117 0.14303
 C925 C 0.26782 0.37608 0.15076
 C926 C 0.24191 0.38100 0.13358
 C927 C 0.21724 0.36284 0.13854
 C928 C 0.21774 0.34088 0.15984
 C929 C 0.24223 0.33709 0.17795
 C930 C 0.26719 0.35540 0.17444
 C931 C 0.29034 0.35252 0.19509
 C932 C 0.28915 0.33145 0.21739
 C933 C 0.26534 0.31215 0.21940
 C934 C 0.24194 0.31504 0.19960
 H935 H 0.19470 0.40395 0.10173
 H936 H 0.29077 0.44811 0.07557
 H937 H 0.19699 0.44028 0.06368
 H938 H 0.31490 0.42156 0.11418
 H939 H 0.31453 0.38718 0.15386
 H940 H 0.19758 0.36426 0.12535
 H941 H 0.19856 0.32700 0.16245
 H942 H 0.30923 0.36681 0.19511
 H943 H 0.30707 0.32999 0.23304
 H944 H 0.22351 0.30005 0.20104
 C945 C 0.27767 0.07900 0.61197
 C946 C 0.26185 0.10572 0.61113
 C947 C 0.24578 0.11251 0.58526
 C948 C 0.24232 0.09131 0.56306
 C949 C 0.25797 0.06469 0.56424
 C950 C 0.27661 0.05937 0.58833
 C951 C 0.23379 0.14056 0.58159
 C952 C 0.23822 0.16222 0.60276
 C953 C 0.25250 0.15567 0.62957
 C954 C 0.26222 0.12634 0.63472
 C955 C 0.27059 0.11824 0.66356
 C956 C 0.26935 0.13842 0.68660
 C957 C 0.26249 0.16785 0.68112
 C958 C 0.25601 0.17714 0.65206
 C959 C 0.25421 0.20759 0.64648
 C960 C 0.25746 0.22784 0.66931
 C961 C 0.25996 0.21848 0.69870
 C962 C 0.26230 0.18820 0.70435
 H963 H 0.29198 0.07345 0.63014
 H964 H 0.22885 0.09630 0.54396
 H965 H 0.28934 0.03926 0.58966
 H966 H 0.22167 0.14609 0.56178
 H967 H 0.22867 0.18356 0.59854
 H968 H 0.27635 0.09589 0.66913
 H969 H 0.27472 0.13113 0.70871
 H970 H 0.25176 0.21619 0.62442
 H971 H 0.25735 0.25103 0.66401
 H972 H 0.26438 0.18043 0.72681
 C973 C 0.21558 0.92944 0.39672
 C974 C 0.23654 0.90677 0.39247
 C975 C 0.25964 0.90425 0.41333
 C976 C 0.26242 0.92476 0.43629
 C977 C 0.24176 0.94736 0.43976
 C978 C 0.21815 0.94922 0.42007
 C979 C 0.27984 0.88126 0.41123
 C980 C 0.27741 0.86031 0.38916
 C981 C 0.25509 0.86203 0.36760
 C982 C 0.23514 0.88637 0.36853
 C983 C 0.21501 0.88996 0.34509
 C984 C 0.21401 0.87020 0.32182
 C985 C 0.23229 0.84559 0.32137
 C986 C 0.25257 0.84067 0.34463
 C987 C 0.26918 0.81431 0.34407
 C988 C 0.26645 0.79442 0.32086
 C989 C 0.24754 0.80032 0.29734
 C990 C 0.23037 0.82580 0.29773
 H991 H 0.19660 0.93215 0.38278
 H992 H 0.28048 0.92285 0.45179
 H993 H 0.20175 0.96636 0.42246
 H994 H 0.29761 0.87927 0.42703
 H995 H 0.29410 0.84347 0.38899
 H996 H 0.20032 0.90849 0.34355
 H997 H 0.19852 0.87412 0.30408
 H998 H 0.28392 0.80804 0.36158
 H999 H 0.27923 0.77432 0.32119
 H1000 H 0.21538 0.83007 0.27964
 C1001 C 0.77963 0.06729 0.38857
 C1002 C 0.76136 0.09245 0.38664
 C1003 C 0.74152 0.09789 0.41017
 C1004 C 0.73870 0.07764 0.43339
 C1005 C 0.75657 0.05261 0.43456
 C1006 C 0.77738 0.04791 0.41234
 C1007 C 0.72471 0.12353 0.41048
 C1008 C 0.72759 0.14434 0.38826
 C1009 C 0.74662 0.13969 0.36409
 C1010 C 0.76249 0.11260 0.36247
 C1011 C 0.77819 0.10615 0.33640
 C1012 C 0.77896 0.12581 0.31297
 C1013 C 0.76523 0.15314 0.31506
 C1014 C 0.74963 0.16088 0.34102
 C1015 C 0.73824 0.18978 0.34306
 C1016 C 0.74148 0.20966 0.31988
 C1017 C 0.75543 0.20120 0.29380
 C1018 C 0.76723 0.17294 0.29140
 H1019 H 0.79638 0.06240 0.37247
 H1020 H 0.72298 0.08166 0.45094
 H1021 H 0.79163 0.02881 0.41306
 H1022 H 0.70943 0.12778 0.42834
 H1023 H 0.71367 0.16345 0.39002
 H1024 H 0.78922 0.08545 0.33298
 H1025 H 0.79086 0.11973 0.29318
 H1026 H 0.72757 0.19796 0.36263
 H1027 H 0.73279 0.23173 0.32214
 H1028 H 0.77859 0.16672 0.27132
 C1029 C 0.58210 0.69977 0.90091
 C1030 C 0.59677 0.72583 0.89243
 C1031 C 0.59040 0.75182 0.90838
 C1032 C 0.56855 0.75196 0.93027
 C1033 C 0.55377 0.72601 0.93817
 C1034 C 0.56129 0.69986 0.92359
 C1035 C 0.60599 0.77755 0.90254
 C1036 C 0.62838 0.77791 0.88170
 C1037 C 0.63517 0.75275 0.86487
 C1038 C 0.61794 0.72684 0.86913
 C1039 C 0.62180 0.70318 0.84940
 C1040 C 0.64226 0.70455 0.82669
 C1041 C 0.66061 0.72887 0.82359
 C1042 C 0.65805 0.75291 0.84326
 C1043 C 0.67899 0.77579 0.84092
 C1044 C 0.70094 0.77503 0.81940
 C1045 C 0.70215 0.75208 0.79898
 C1046 C 0.68178 0.72916 0.80107
 H1047 H 0.58687 0.67877 0.89102
 H1048 H 0.56367 0.77230 0.94171
 H1049 H 0.55072 0.67931 0.92931
 H1050 H 0.60117 0.79755 0.91458
 H1051 H 0.63926 0.79867 0.87836
 H1052 H 0.60839 0.68369 0.85026
 H1053 H 0.64413 0.68608 0.81172
 H1054 H 0.67969 0.79393 0.85615
 H1055 H 0.71722 0.79235 0.81883
 H1056 H 0.68283 0.71123 0.78541
 C1057 C 0.09689 0.20694 0.40292
 C1058 C 0.11349 0.23287 0.39830
 C1059 C 0.10774 0.25715 0.41700
 C1060 C 0.08527 0.25581 0.43824
 C1061 C 0.06874 0.23014 0.44212
 C1062 C 0.07503 0.20567 0.42455
 C1063 C 0.12447 0.28267 0.41450
 C1064 C 0.14720 0.28460 0.39413
 C1065 C 0.15366 0.26121 0.37477
 C1066 C 0.13575 0.23539 0.37608
 C1067 C 0.14020 0.21330 0.35471
 C1068 C 0.16167 0.21604 0.33311
 C1069 C 0.18016 0.24041 0.33240
 C1070 C 0.17697 0.26306 0.35360
 C1071 C 0.19757 0.28639 0.35293
 C1072 C 0.21974 0.28741 0.33162
 C1073 C 0.22183 0.26560 0.31009
 C1074 C 0.20198 0.24217 0.31057
 H1075 H 0.10062 0.18705 0.39064
 H1076 H 0.08093 0.27471 0.45211
 H1077 H 0.06280 0.18545 0.42732
 H1078 H 0.12011 0.30135 0.42866
 H1079 H 0.15878 0.30521 0.39349
 H1080 H 0.12677 0.19387 0.35348
 H1081 H 0.16402 0.19867 0.31694
 H1082 H 0.19769 0.30377 0.36902
 H1083 H 0.23545 0.30526 0.33201
 H1084 H 0.20375 0.22514 0.29398
 C1085 C 0.57820 0.22630 0.11149
 C1086 C 0.60529 0.24139 0.11022
 C1087 C 0.61234 0.25675 0.08400
 C1088 C 0.59109 0.26032 0.06180
 C1089 C 0.56403 0.24555 0.06350
 C1090 C 0.55841 0.22752 0.08798
 C1091 C 0.64064 0.26802 0.08001
 C1092 C 0.66226 0.26364 0.10130
 C1093 C 0.65548 0.25014 0.12845
 C1094 C 0.62596 0.24106 0.13379
 C1095 C 0.61770 0.23344 0.16278
 C1096 C 0.63787 0.23476 0.18581
 C1097 C 0.66743 0.24104 0.18023
 C1098 C 0.67691 0.24683 0.15109
 C1099 C 0.70746 0.24828 0.14566
 C1100 C 0.72762 0.24533 0.16868
 C1101 C 0.71803 0.24330 0.19802
 C1102 C 0.68768 0.24141 0.20353
 H1103 H 0.57241 0.21247 0.12996
 H1104 H 0.59630 0.27330 0.04243
 H1105 H 0.53795 0.21546 0.08972
 H1106 H 0.64636 0.27958 0.05992
 H1107 H 0.68377 0.27267 0.09683
 H1108 H 0.59523 0.22823 0.16847
 H1109 H 0.63047 0.22997 0.20801
 H1110 H 0.71621 0.25033 0.12361
 H1111 H 0.75089 0.24537 0.16359
 H1112 H 0.67977 0.23987 0.22599
 C1113 C 0.43419 0.28470 0.89123
 C1114 C 0.40865 0.26701 0.88945
 C1115 C 0.40211 0.24853 0.91378
 C1116 C 0.42164 0.24635 0.93768
 C1117 C 0.44715 0.26349 0.93866
 C1118 C 0.45292 0.28307 0.91558
 C1119 C 0.37614 0.23227 0.91412
 C1120 C 0.35611 0.23437 0.89111
 C1121 C 0.36183 0.25203 0.86617
 C1122 C 0.38923 0.26735 0.86464
 C1123 C 0.39669 0.28170 0.83805
 C1124 C 0.37776 0.28163 0.81400
 C1125 C 0.35017 0.26841 0.81585
 C1126 C 0.34142 0.25420 0.84229
 C1127 C 0.31230 0.24333 0.84397
 C1128 C 0.29317 0.24576 0.82009
 C1129 C 0.30256 0.25833 0.79361
 C1130 C 0.33106 0.26962 0.79151
 H1131 H 0.43995 0.30045 0.87445
 H1132 H 0.41679 0.23156 0.95580
 H1133 H 0.47242 0.29672 0.91604
 H1134 H 0.37106 0.21800 0.93257
 H1135 H 0.33673 0.22088 0.89296
 H1136 H 0.41763 0.29228 0.83478
 H1137 H 0.38462 0.29249 0.79387
 H1138 H 0.30334 0.23375 0.86376
 H1139 H 0.27088 0.23760 0.82215
 H1140 H 0.33801 0.28001 0.77115
 C1141 C 0.41051 0.70514 0.10444
 C1142 C 0.39255 0.73016 0.10920
 C1143 C 0.39506 0.75381 0.08898
 C1144 C 0.41592 0.75292 0.06616
 C1145 C 0.43393 0.72823 0.06221
 C1146 C 0.43071 0.70424 0.08125
 C1147 C 0.37676 0.77828 0.09160
 C1148 C 0.35553 0.77968 0.11355
 C1149 C 0.35229 0.75688 0.13442
 C1150 C 0.37198 0.73235 0.13300
 C1151 C 0.37095 0.71123 0.15580
 C1152 C 0.35097 0.71359 0.17884
 C1153 C 0.33061 0.73650 0.17964
 C1154 C 0.33045 0.75813 0.15711
 C1155 C 0.30799 0.77976 0.15793
 C1156 C 0.28712 0.78007 0.18049
 C1157 C 0.28830 0.75936 0.20317
 C1158 C 0.31011 0.73770 0.20276
 H1159 H 0.40910 0.68566 0.11787
 H1160 H 0.41789 0.77139 0.05117
 H1161 H 0.44418 0.68478 0.07847
 H1162 H 0.37868 0.79649 0.07630
 H1163 H 0.34254 0.79949 0.11417
 H1164 H 0.38602 0.69297 0.15699
 H1165 H 0.35121 0.69703 0.19602
 H1166 H 0.30532 0.79611 0.14096
 H1167 H 0.26976 0.79639 0.18011
 H1168 H 0.31066 0.72140 0.22020
 C1169 C 0.89874 0.58477 0.71301
 C1170 C 0.88854 0.60002 0.73817
 C1171 C 0.90300 0.59465 0.76531
 C1172 C 0.92504 0.57305 0.76741
 C1173 C 0.93470 0.55774 0.74231
 C1174 C 0.92167 0.56438 0.71504
 C1175 C 0.89558 0.61103 0.79020
 C1176 C 0.87464 0.63324 0.78859
 C1177 C 0.85923 0.63899 0.76221
 C1178 C 0.86499 0.62087 0.73717
 C1179 C 0.84642 0.62353 0.71237
 C1180 C 0.82335 0.64365 0.71187
 C1181 C 0.81888 0.66293 0.73533
 C1182 C 0.83749 0.66162 0.76036
 C1183 C 0.83405 0.68350 0.78220
 C1184 C 0.81231 0.70501 0.77966
 C1185 C 0.79265 0.70489 0.75595
 C1186 C 0.79602 0.68370 0.73385
 H1187 H 0.89003 0.58883 0.69128
 H1188 H 0.93528 0.56887 0.78859
 H1189 H 0.92875 0.55335 0.69510
 H1190 H 0.90645 0.60699 0.81108
 H1191 H 0.87002 0.64481 0.80880
 H1192 H 0.84841 0.60936 0.69345
 H1193 H 0.80924 0.64452 0.69264
 H1194 H 0.84857 0.68521 0.80090
 H1195 H 0.81080 0.72192 0.79636
 H1196 H 0.78099 0.68361 0.71533
 C1197 C 0.40912 0.09607 0.21556
 C1198 C 0.40076 0.11172 0.24114
 C1199 C 0.41544 0.10491 0.26784
 C1200 C 0.43573 0.08162 0.26914
 C1201 C 0.44353 0.06592 0.24363
 C1202 C 0.43041 0.07394 0.21677
 C1203 C 0.40998 0.12154 0.29307
 C1204 C 0.39074 0.14529 0.29224
 C1205 C 0.37504 0.15243 0.26638
 C1206 C 0.37881 0.13426 0.24099
 C1207 C 0.35983 0.13853 0.21674
 C1208 C 0.33814 0.16011 0.21716
 C1209 C 0.33555 0.17924 0.24101
 C1210 C 0.35478 0.17645 0.26544
 C1211 C 0.35323 0.19811 0.28771
 C1212 C 0.33248 0.22069 0.28632
 C1213 C 0.31208 0.22196 0.26328
 C1214 C 0.31377 0.20115 0.24064
 H1215 H 0.40024 0.10109 0.19410
 H1216 H 0.44615 0.07638 0.28999
 H1217 H 0.43614 0.06269 0.19653
 H1218 H 0.42108 0.11646 0.31359
 H1219 H 0.38756 0.15693 0.31268
 H1220 H 0.36032 0.12454 0.19760
 H1221 H 0.32353 0.16213 0.19838
 H1222 H 0.36835 0.19866 0.30601
 H1223 H 0.33206 0.23709 0.30358
 H1224 H 0.29800 0.20197 0.22276
 C1225 C 0.09866 0.59012 0.29012
 C1226 C 0.10600 0.60746 0.26530
 C1227 C 0.08976 0.60300 0.23905
 C1228 C 0.06881 0.58038 0.23725
 C1229 C 0.06198 0.56305 0.26200
 C1230 C 0.07679 0.56868 0.28855
 C1231 C 0.09429 0.62135 0.21481
 C1232 C 0.11415 0.64450 0.21625
 C1233 C 0.13139 0.64931 0.24164
 C1234 C 0.12846 0.62942 0.26587
 C1235 C 0.14869 0.63149 0.28936
 C1236 C 0.17076 0.65256 0.28939
 C1237 C 0.17267 0.67328 0.26682
 C1238 C 0.15231 0.67269 0.24318
 C1239 C 0.15347 0.69583 0.22232
 C1240 C 0.17481 0.71779 0.22432
 C1241 C 0.19612 0.71692 0.24651
 C1242 C 0.19491 0.69461 0.26771
 H1243 H 0.10879 0.59329 0.31136
 H1244 H 0.05712 0.57699 0.21671
 H1245 H 0.07189 0.55612 0.30824
 H1246 H 0.08197 0.61811 0.19464
 H1247 H 0.11648 0.65759 0.19657
 H1248 H 0.14882 0.61616 0.30749
 H1249 H 0.18625 0.65291 0.30755
 H1250 H 0.13764 0.69801 0.20477
 H1251 H 0.17484 0.73544 0.20832
 H1252 H 0.21139 0.69388 0.28493
 C1253 C 0.88737 0.43272 0.24786
 C1254 C 0.89232 0.40230 0.25243
 C1255 C 0.92179 0.39283 0.25676
 C1256 C 0.94486 0.41331 0.25814
 C1257 C 0.93928 0.44322 0.25402
 C1258 C 0.91061 0.45275 0.24849
 C1259 C 0.92810 0.36298 0.25959
 C1260 C 0.90593 0.34213 0.25760
 C1261 C 0.87623 0.35038 0.25361
 C1262 C 0.86917 0.38101 0.25241
 C1263 C 0.83921 0.38932 0.25200
 C1264 C 0.81692 0.36847 0.25217
 C1265 C 0.82349 0.33856 0.25168
 C1266 C 0.85324 0.32904 0.25157
 C1267 C 0.85871 0.29853 0.24890
 C1268 C 0.83560 0.27847 0.24734
 C1269 C 0.80635 0.28794 0.24893
 C1270 C 0.80042 0.31805 0.25116
 H1271 H 0.86594 0.44166 0.24306
 H1272 H 0.96726 0.40600 0.26196
 H1273 H 0.90614 0.47587 0.24490
 H1274 H 0.95053 0.35561 0.26305
 H1275 H 0.91268 0.31958 0.26030
 H1276 H 0.83221 0.41193 0.25257
 H1277 H 0.79424 0.37590 0.25230
 H1278 H 0.88057 0.28951 0.24710
 H1279 H 0.84058 0.25531 0.24493
 H1280 H 0.77776 0.32547 0.25221
 C1281 C 0.07492 0.39140 0.77487
 C1282 C 0.10074 0.39249 0.75740
 C1283 C 0.10486 0.41743 0.73909
 C1284 C 0.08290 0.43910 0.73688
 C1285 C 0.05733 0.43732 0.75398
 C1286 C 0.05378 0.41368 0.77335
 C1287 C 0.13093 0.42072 0.72322
 C1288 C 0.15335 0.40006 0.72548
 C1289 C 0.15007 0.37453 0.74287
 C1290 C 0.12274 0.36996 0.75782
 C1291 C 0.11794 0.34267 0.77183
 C1292 C 0.13925 0.32073 0.77158
 C1293 C 0.16660 0.32552 0.75853
 C1294 C 0.17282 0.35289 0.74491
 C1295 C 0.20173 0.35756 0.73423
 C1296 C 0.22295 0.33541 0.73576
 C1297 C 0.21591 0.30787 0.74736
 C1298 C 0.18783 0.30305 0.75897
 H1299 H 0.07081 0.37404 0.79051
 H1300 H 0.08599 0.45779 0.72237
 H1301 H 0.03430 0.41217 0.78703
 H1302 H 0.13421 0.43970 0.70914
 H1303 H 0.17266 0.40411 0.71230
 H1304 H 0.09733 0.33712 0.78216
 H1305 H 0.13435 0.29987 0.78203
 H1306 H 0.20879 0.37830 0.72522
 H1307 H 0.24486 0.33955 0.72731
 H1308 H 0.18270 0.28183 0.76854
 C1309 C 0.92033 0.78496 0.38895
 C1310 C 0.89774 0.76395 0.38503
 C1311 C 0.89399 0.74235 0.40728
 C1312 C 0.91354 0.74076 0.43119
 C1313 C 0.93613 0.76136 0.43430
 C1314 C 0.93900 0.78373 0.41333
 C1315 C 0.87074 0.72249 0.40558
 C1316 C 0.85063 0.72395 0.38259
 C1317 C 0.85368 0.74473 0.35967
 C1318 C 0.87851 0.76396 0.36011
 C1319 C 0.88379 0.78191 0.33527
 C1320 C 0.86503 0.78166 0.31113
 C1321 C 0.83969 0.76448 0.31124
 C1322 C 0.83316 0.74637 0.33587
 C1323 C 0.80601 0.73114 0.33588
 C1324 C 0.78671 0.73333 0.31210
 C1325 C 0.79409 0.75009 0.28741
 C1326 C 0.82062 0.76551 0.28694
 H1327 H 0.92369 0.80301 0.37394
 H1328 H 0.91086 0.72374 0.44773
 H1329 H 0.95617 0.80006 0.41549
 H1330 H 0.86782 0.70585 0.42243
 H1331 H 0.83345 0.70768 0.38279
 H1332 H 0.90296 0.79568 0.33336
 H1333 H 0.87018 0.79548 0.29235
 H1334 H 0.79863 0.71819 0.35435
 H1335 H 0.76589 0.72181 0.31289
 H1336 H 0.82606 0.77878 0.26785
 C1337 C 0.92051 0.19919 0.60447
 C1338 C 0.90133 0.22330 0.60923
 C1339 C 0.90323 0.24738 0.58947
 C1340 C 0.92463 0.24783 0.56713
 C1341 C 0.94386 0.22407 0.56321
 C1342 C 0.94127 0.19961 0.58175
 C1343 C 0.88381 0.27097 0.59208
 C1344 C 0.86210 0.27108 0.61360
 C1345 C 0.85945 0.24784 0.63405
 C1346 C 0.88020 0.22418 0.63263
 C1347 C 0.87961 0.20266 0.65506
 C1348 C 0.85916 0.20384 0.67778
 C1349 C 0.83787 0.22590 0.67860
 C1350 C 0.83719 0.24783 0.65635
 C1351 C 0.81385 0.26851 0.65710
 C1352 C 0.79271 0.26774 0.67939
 C1353 C 0.79443 0.24685 0.70187
 C1354 C 0.81702 0.22600 0.70145
 H1355 H 0.91970 0.17944 0.61755
 H1356 H 0.92611 0.26664 0.55252
 H1357 H 0.95569 0.18083 0.57899
 H1358 H 0.88525 0.28951 0.57713
 H1359 H 0.84826 0.29030 0.61425
 H1360 H 0.89538 0.18500 0.65623
 H1361 H 0.85979 0.18704 0.69473
 H1362 H 0.81075 0.28496 0.64030
 H1363 H 0.77477 0.28342 0.67901
 H1364 H 0.81800 0.20954 0.71872
 C1365 C 0.06093 0.75172 0.61576
 C1366 C 0.09168 0.75026 0.61060
 C1367 C 0.10137 0.74839 0.58090
 C1368 C 0.08104 0.74904 0.55761
 C1369 C 0.05096 0.75110 0.56338
 C1370 C 0.04098 0.75218 0.59241
 C1371 C 0.13126 0.74607 0.57453
 C1372 C 0.15199 0.74531 0.59695
 C1373 C 0.14364 0.74731 0.62687
 C1374 C 0.11304 0.75055 0.63377
 C1375 C 0.10487 0.75455 0.66353
 C1376 C 0.12569 0.75510 0.68583
 C1377 C 0.15543 0.75117 0.67957
 C1378 C 0.16492 0.74674 0.65012
 C1379 C 0.19534 0.74169 0.64530
 C1380 C 0.21528 0.74174 0.66867
 C1381 C 0.20570 0.74703 0.69744
 C1382 C 0.17577 0.75168 0.70277
 H1383 H 0.05145 0.75227 0.63750
 H1384 H 0.08858 0.74804 0.53494
 H1385 H 0.01761 0.75357 0.59702
 H1386 H 0.13877 0.74476 0.55188
 H1387 H 0.17457 0.74380 0.58995
 H1388 H 0.08246 0.75799 0.67041
 H1389 H 0.11836 0.75850 0.70831
 H1390 H 0.20445 0.73714 0.62388
 H1391 H 0.23835 0.73759 0.66430
 H1392 H 0.16837 0.75564 0.72515
 C1393 C 0.70742 0.57707 0.10404
 C1394 C 0.72986 0.59858 0.10547
 C1395 C 0.75103 0.59905 0.08249
 C1396 C 0.75075 0.57752 0.06034
 C1397 C 0.72872 0.55608 0.05967
 C1398 C 0.70681 0.55638 0.08134
 C1399 C 0.77232 0.62106 0.08168
 C1400 C 0.77279 0.64305 0.10286
 C1401 C 0.75255 0.64327 0.12648
 C1402 C 0.73173 0.61983 0.12860
 C1403 C 0.71409 0.61791 0.15416
 C1404 C 0.71624 0.63852 0.17659
 C1405 C 0.73514 0.66246 0.17400
 C1406 C 0.75298 0.66569 0.14853
 C1407 C 0.77006 0.69159 0.14597
 C1408 C 0.76986 0.71283 0.16815
 C1409 C 0.75329 0.70864 0.19372
 C1410 C 0.73610 0.68340 0.19666
 H1411 H 0.68963 0.57610 0.11971
 H1412 H 0.76740 0.57777 0.04320
 H1413 H 0.68937 0.54019 0.08103
 H1414 H 0.78862 0.62150 0.06423
 H1415 H 0.79008 0.65908 0.10076
 H1416 H 0.69909 0.60001 0.15798
 H1417 H 0.70258 0.63592 0.19601
 H1418 H 0.78299 0.69654 0.12669
 H1419 H 0.78267 0.73267 0.16534
 H1420 H 0.72293 0.68047 0.21638
 C1421 C 0.27321 0.57666 0.89172
 C1422 C 0.25340 0.60059 0.88940
 C1423 C 0.23380 0.60566 0.91320
 C1424 C 0.23269 0.58606 0.93712
 C1425 C 0.25204 0.56216 0.93865
 C1426 C 0.27263 0.55798 0.91613
 C1427 C 0.21551 0.63029 0.91306
 C1428 C 0.21673 0.65051 0.89013
 C1429 C 0.23549 0.64616 0.86571
 C1430 C 0.25281 0.61994 0.86457
 C1431 C 0.26827 0.61349 0.83836
 C1432 C 0.26758 0.63247 0.81439
 C1433 C 0.25258 0.65915 0.81602
 C1434 C 0.23698 0.66681 0.84200
 C1435 C 0.22420 0.69518 0.84346
 C1436 C 0.22656 0.71476 0.81989
 C1437 C 0.24092 0.70643 0.79399
 C1438 C 0.25354 0.67851 0.79196
 H1439 H 0.28989 0.57226 0.87541
 H1440 H 0.21712 0.58970 0.95488
 H1441 H 0.28800 0.53977 0.91710
 H1442 H 0.20039 0.63424 0.93113
 H1443 H 0.20179 0.66887 0.89159
 H1444 H 0.28027 0.59328 0.83531
 H1445 H 0.27946 0.62646 0.79456
 H1446 H 0.21329 0.70329 0.86292
 H1447 H 0.21716 0.73656 0.82182
 H1448 H 0.26507 0.67237 0.77195
 C1449 C 0.70457 0.41353 0.89260
 C1450 C 0.72805 0.39341 0.88867
 C1451 C 0.75102 0.39354 0.90982
 C1452 C 0.75123 0.41440 0.93266
 C1453 C 0.72807 0.43450 0.93578
 C1454 C 0.70459 0.43353 0.91589
 C1455 C 0.77360 0.37283 0.90812
 C1456 C 0.77367 0.35153 0.88620
 C1457 C 0.75159 0.35077 0.86434
 C1458 C 0.72925 0.37295 0.86478
 C1459 C 0.70939 0.37449 0.84092
 C1460 C 0.71082 0.35465 0.81775
 C1461 C 0.73134 0.33187 0.81790
 C1462 C 0.75155 0.32907 0.84155
 C1463 C 0.77051 0.30430 0.84160
 C1464 C 0.76978 0.28380 0.81874
 C1465 C 0.75071 0.28761 0.79491
 C1466 C 0.73163 0.31172 0.79452
 H1467 H 0.68553 0.41392 0.87848
 H1468 H 0.76920 0.41465 0.94836
 H1469 H 0.68630 0.44867 0.91805
 H1470 H 0.79128 0.37285 0.92414
 H1471 H 0.79202 0.33650 0.88633
 H1472 H 0.69303 0.39154 0.83896
 H1473 H 0.69538 0.35694 0.79970
 H1474 H 0.78547 0.29967 0.85943
 H1475 H 0.78413 0.26480 0.81966
 H1476 H 0.71672 0.31452 0.77609
 C1477 C 0.57713 0.89344 0.27366
 C1478 C 0.59994 0.89097 0.25251
 C1479 C 0.60215 0.91333 0.23083
 C1480 C 0.58121 0.93604 0.22949
 C1481 C 0.55860 0.93786 0.25038
 C1482 C 0.55702 0.91666 0.27267
 C1483 C 0.62533 0.91306 0.21070
 C1484 C 0.64687 0.89141 0.21193
 C1485 C 0.64550 0.86846 0.23284
 C1486 C 0.62086 0.86743 0.25245
 C1487 C 0.61755 0.84256 0.27078
 C1488 C 0.63791 0.81976 0.27045
 C1489 C 0.66291 0.82128 0.25271
 C1490 C 0.66754 0.84602 0.23423
 C1491 C 0.69433 0.84746 0.21831
 C1492 C 0.71504 0.82484 0.22007
 C1493 C 0.70951 0.79997 0.23721
 C1494 C 0.68346 0.79822 0.25346
 H1495 H 0.57470 0.87823 0.29172
 H1496 H 0.58291 0.95278 0.21254
 H1497 H 0.53989 0.91784 0.28925
 H1498 H 0.62709 0.93002 0.19400
 H1499 H 0.66388 0.89269 0.19544
 H1500 H 0.59877 0.83955 0.28496
 H1501 H 0.63423 0.80090 0.28457
 H1502 H 0.70032 0.86613 0.20499
 H1503 H 0.73547 0.82668 0.20791
 H1504 H 0.67944 0.77899 0.26700
 C1505 C 0.60338 0.07592 0.78093
 C1506 C 0.60820 0.09683 0.75830
 C1507 C 0.58820 0.09727 0.73432
 C1508 C 0.56543 0.07654 0.73254
 C1509 C 0.56124 0.05585 0.75500
 C1510 C 0.58017 0.05596 0.77930
 C1511 C 0.59087 0.11849 0.71232
 C1512 C 0.61258 0.13984 0.71384
 C1513 C 0.63317 0.14027 0.73710
 C1514 C 0.63180 0.11758 0.75891
 C1515 C 0.65443 0.11596 0.78016
 C1516 C 0.67726 0.13616 0.78053
 C1517 C 0.67800 0.15931 0.76043
 C1518 C 0.65559 0.16219 0.73887
 C1519 C 0.65632 0.18725 0.72031
 C1520 C 0.67891 0.20784 0.72257
 C1521 C 0.70162 0.20389 0.74289
 C1522 C 0.70105 0.17970 0.76184
 H1523 H 0.61667 0.07488 0.80055
 H1524 H 0.55048 0.07695 0.71392
 H1525 H 0.57717 0.04035 0.79708
 H1526 H 0.57574 0.11885 0.69386
 H1527 H 0.61324 0.15525 0.69581
 H1528 H 0.65567 0.09866 0.79633
 H1529 H 0.69437 0.13382 0.79701
 H1530 H 0.63937 0.19200 0.70442
 H1531 H 0.67866 0.22700 0.70840
 H1532 H 0.71854 0.17696 0.77786
 C1533 C 0.37910 0.93285 0.73723
 C1534 C 0.38277 0.90310 0.74570
 C1535 C 0.41149 0.89353 0.75344
 C1536 C 0.43486 0.91360 0.75473
 C1537 C 0.43056 0.94294 0.74679
 C1538 C 0.40281 0.95233 0.73751
 C1539 C 0.41675 0.86401 0.75973
 C1540 C 0.39428 0.84349 0.75785
 C1541 C 0.36524 0.85198 0.75076
 C1542 C 0.35910 0.88246 0.74626
 C1543 C 0.32947 0.89140 0.74343
 C1544 C 0.30664 0.87116 0.74445
 C1545 C 0.31248 0.84118 0.74691
 C1546 C 0.34193 0.83106 0.74901
 C1547 C 0.34687 0.80037 0.74864
 C1548 C 0.32342 0.78072 0.74736
 C1549 C 0.29434 0.79086 0.74730
 C1550 C 0.28900 0.82117 0.74711
 H1551 H 0.35839 0.94150 0.72953
 H1552 H 0.45663 0.90631 0.76133
 H1553 H 0.39937 0.97496 0.73090
 H1554 H 0.43861 0.85659 0.76578
 H1555 H 0.40008 0.82116 0.76330
 H1556 H 0.32313 0.91416 0.74162
 H1557 H 0.28418 0.87905 0.74279
 H1558 H 0.36862 0.79090 0.74826
 H1559 H 0.32798 0.75737 0.74651
 H1560 H 0.26651 0.82913 0.74673
   
