data_POSCAR
  _audit_creation_date              2014-09-24
  _audit_creation_method            'ToBaCCo'
  _symmetry_space_group_name_H-M    'P1'
  _symmetry_Int_Tables_number       1
  _symmetry_cell_setting            triclinic
  loop_
  _symmetry_equiv_pos_as_xyz
 x,y,z
_cell_length_a 60.8850
_cell_length_b 59.8017
_cell_length_c 60.6194
_cell_angle_alpha 89.934400
_cell_angle_beta 89.980900
_cell_angle_gamma 90.080100
loop_
  _atom_site_label
  _atom_site_type_symbol
  _atom_site_fract_x
  _atom_site_fract_y
  _atom_site_fract_z
C1 C 0.36324 1.35161 0.33172
 C2 C 0.36584 1.33332 0.34606
 C3 C 0.35029 1.32945 0.36231
 C4 C 0.33223 1.34364 0.36457
 C5 C 0.32981 1.36180 0.35080
 C6 C 0.34523 1.36556 0.33400
 C7 C 0.37321 1.35703 0.31199
 N8 N 0.36129 1.37337 0.30189
 C9 C 0.34431 1.37875 0.31551
 C10 C 0.30935 1.37077 0.35493
 N11 N 0.29908 1.35803 0.37047
 C12 C 0.31315 1.34141 0.37640
 C13 C 0.35433 1.30877 0.37111
 N14 N 0.37196 1.29988 0.36075
 C15 C 0.37926 1.31469 0.34541
 H16 H 0.38669 1.34796 0.30457
 H17 H 0.33151 1.39078 0.31202
 H18 H 0.30186 1.38434 0.34581
 H19 H 0.30978 1.32827 0.38821
 H20 H 0.34426 1.30008 0.38311
 H21 H 0.39209 1.31134 0.33350
 C22 C 0.37173 0.86255 0.84343
 C23 C 0.37522 0.84658 0.85998
 C24 C 0.35905 0.84231 0.87541
 C25 C 0.33928 0.85428 0.87468
 C26 C 0.33608 0.87063 0.85885
 C27 C 0.35231 0.87458 0.84283
 C28 C 0.38262 0.86659 0.82398
 N29 N 0.37033 0.88068 0.81156
 C30 C 0.35181 0.88579 0.82293
 C31 C 0.31491 0.87839 0.86130
 N32 N 0.30499 0.86673 0.87786
 C33 C 0.31990 0.85192 0.88604
 C34 C 0.36618 0.82471 0.88824
 N35 N 0.38640 0.81843 0.88108
 C36 C 0.39196 0.83162 0.86369
 H37 H 0.39722 0.85804 0.81826
 H38 H 0.33796 0.89484 0.81619
 H39 H 0.30694 0.89055 0.85077
 H40 H 0.31701 0.84020 0.89934
 H41 H 0.35731 0.81703 0.90176
 H42 H 0.40687 0.83009 0.85409
 C43 C 0.86954 1.35576 0.83561
 C44 C 0.87397 1.34281 0.85437
 C45 C 0.86052 1.34454 0.87255
 C46 C 0.84222 1.35858 0.87205
 C47 C 0.83801 1.37195 0.85388
 C48 C 0.85216 1.37080 0.83546
 C49 C 0.87823 1.35530 0.81478
 N50 N 0.86713 1.37007 0.80189
 C51 C 0.85133 1.37991 0.81448
 C52 C 0.81728 1.38103 0.85704
 N53 N 0.80871 1.37252 0.87609
 C54 C 0.82419 1.35920 0.88544
 C55 C 0.86779 1.32946 0.88797
 N56 N 0.88551 1.31862 0.87968
 C57 C 0.88929 1.32641 0.85895
 H58 H 0.89162 1.34474 0.80935
 H59 H 0.83906 1.39147 0.80839
 H60 H 0.80817 1.39074 0.84506
 H61 H 0.82206 1.34947 0.90037
 H62 H 0.86051 1.32632 0.90398
 H63 H 0.90227 1.32069 0.84814
 C64 C 0.86342 0.85346 0.33257
 C65 C 0.86921 0.83920 0.35005
 C66 C 0.85437 0.83510 0.36691
 C67 C 0.83374 0.84547 0.36675
 C68 C 0.82820 0.85975 0.34970
 C69 C 0.84298 0.86343 0.33238
 C70 C 0.87350 0.85883 0.31288
 N71 N 0.85942 0.87136 0.30048
 C72 C 0.84079 0.87432 0.31260
 C73 C 0.80692 0.86659 0.35316
 N74 N 0.79937 0.85663 0.37179
 C75 C 0.81559 0.84358 0.38018
 C76 C 0.86361 0.81940 0.38064
 N77 N 0.88373 0.81393 0.37264
 C78 C 0.88731 0.82598 0.35394
 H79 H 0.88931 0.85263 0.30750
 H80 H 0.82641 0.88361 0.30758
 H81 H 0.79732 0.87733 0.34249
 H82 H 0.81415 0.83326 0.39480
 H83 H 0.85612 0.81228 0.39525
 H84 H 0.90165 0.82460 0.34348
 C85 C 0.64163 0.65136 0.32926
 C86 C 0.63559 0.66473 0.34725
 C87 C 0.64915 0.66618 0.36555
 C88 C 0.66877 0.65392 0.36628
 C89 C 0.67461 0.64067 0.34852
 C90 C 0.66114 0.63969 0.32982
 C91 C 0.63177 0.64683 0.30930
 N92 N 0.64510 0.63302 0.29744
 C93 C 0.66307 0.62857 0.31012
 C94 C 0.69330 0.62925 0.35432
 N95 N 0.69898 0.63532 0.37509
 C96 C 0.68420 0.65047 0.38258
 C97 C 0.63928 0.68053 0.38024
 N98 N 0.62009 0.68772 0.37131
 C99 C 0.61766 0.67808 0.35119
 H100 H 0.61642 0.65387 0.30363
 H101 H 0.67648 0.61758 0.30577
 H102 H 0.70154 0.61656 0.34465
 H103 H 0.68394 0.65731 0.39911
 H104 H 0.64557 0.68542 0.39623
 H105 H 0.60408 0.68099 0.34002
 C106 C 0.64974 0.15922 0.82294
 C107 C 0.64820 0.17462 0.84017
 C108 C 0.65981 0.17134 0.85950
 C109 C 0.67323 0.15235 0.86167
 C110 C 0.67364 0.13644 0.84504
 C111 C 0.66182 0.13991 0.82545
 C112 C 0.64072 0.15892 0.80226
 N113 N 0.64681 0.13973 0.79192
 C114 C 0.65943 0.12773 0.80623
 C115 C 0.68718 0.11947 0.85192
 N116 N 0.69572 0.12493 0.87197
 C117 C 0.68722 0.14506 0.87804
 C118 C 0.65275 0.18745 0.87425
 N119 N 0.63695 0.19988 0.86424
 C120 C 0.63437 0.19236 0.84333
 H121 H 0.63007 0.17167 0.79547
 H122 H 0.66718 0.11187 0.80261
 H123 H 0.69144 0.10482 0.84236
 H124 H 0.69070 0.15368 0.89334
 H125 H 0.65711 0.18856 0.89153
 H126 H 0.62190 0.19813 0.83194
 C127 C 1.14643 0.65664 0.82669
 C128 C 1.14490 0.67245 0.84361
 C129 C 1.15818 0.67084 0.86209
 C130 C 1.17318 0.65301 0.86383
 C131 C 1.17380 0.63680 0.84751
 C132 C 1.16058 0.63875 0.82867
 C133 C 1.13630 0.65495 0.80652
 N134 N 1.14404 0.63649 0.79612
 C135 C 1.15871 0.62625 0.80962
 C136 C 1.18846 0.62074 0.85409
 N137 N 1.19737 0.62693 0.87373
 C138 C 1.18827 0.64682 0.87972
 C139 C 1.15137 0.68729 0.87659
 N140 N 1.13419 0.69836 0.86732
 C141 C 1.13037 0.68956 0.84709
 H142 H 1.12463 0.66666 0.79958
 H143 H 1.16810 0.61149 0.80542
 H144 H 1.19276 0.60590 0.84483
 H145 H 1.19169 0.65569 0.89490
 H146 H 1.15723 0.68979 0.89327
 H147 H 1.11697 0.69430 0.83632
 C148 C 1.13553 0.14770 0.33412
 C149 C 1.13125 0.16201 0.35173
 C150 C 1.14635 0.16449 0.36843
 C151 C 1.16592 0.15214 0.36780
 C152 C 1.16985 0.13699 0.35090
 C153 C 1.15440 0.13480 0.33362
 C154 C 1.12543 0.14589 0.31412
 N155 N 1.13729 0.13195 0.30116
 C156 C 1.15486 0.12454 0.31306
 C157 C 1.19090 0.12882 0.35409
 N158 N 1.19993 0.13922 0.37196
 C159 C 1.18457 0.15337 0.38037
 C160 C 1.13837 0.18084 0.38241
 N161 N 1.11859 0.18782 0.37459
 C162 C 1.11429 0.17652 0.35570
 H163 H 1.11094 0.15500 0.30897
 H164 H 1.16813 0.11453 0.30648
 H165 H 1.19953 0.11752 0.34318
 H166 H 1.18675 0.16407 0.39459
 H167 H 1.14623 0.18706 0.39720
 H168 H 1.09997 0.17896 0.34539
 C169 C 0.62633 1.35349 0.65767
 C170 C 0.62964 1.33862 0.64014
 C171 C 0.64625 1.34256 0.62504
 C172 C 0.65952 1.36165 0.62709
 C173 C 0.65602 1.37644 0.64431
 C174 C 0.63922 1.37239 0.65966
 C175 C 0.61445 1.35144 0.67682
 N176 N 0.61963 1.36869 0.69055
 C177 C 0.63460 1.38178 0.67989
 C178 C 0.67363 1.39085 0.64474
 N179 N 0.68768 1.38524 0.62825
 C180 C 0.67911 1.36750 0.61726
 C181 C 0.64832 1.32353 0.61245
 N182 N 0.63327 1.30830 0.61943
 C183 C 0.62173 1.31741 0.63630
 H184 H 0.60335 1.33781 0.68054
 H185 H 0.64321 1.39586 0.68705
 H186 H 0.67675 1.40348 0.65714
 H187 H 0.68750 1.35825 0.60444
 H188 H 0.66071 1.32052 0.59999
 H189 H 0.60973 1.30857 0.64622
 C190 C 0.63089 0.85399 1.16518
 C191 C 0.63172 0.83643 1.14986
 C192 C 0.64974 0.83410 1.13603
 C193 C 0.66719 0.84946 1.13730
 C194 C 0.66611 0.86692 1.15223
 C195 C 0.64775 0.86940 1.16589
 C196 C 0.61559 0.86036 1.18078
 N197 N 0.62251 0.87974 1.19034
 C198 C 0.64219 0.88530 1.18120
 C199 C 0.68547 0.87859 1.15081
 N200 N 0.69831 0.86878 1.13533
 C201 C 0.68725 0.85107 1.12673
 C202 C 0.64557 0.81614 1.12241
 N203 N 0.62534 0.80793 1.12736
 C204 C 0.61684 0.82014 1.14418
 H205 H 0.60018 0.85200 1.18421
 H206 H 0.65216 0.89958 1.18574
 H207 H 0.69021 0.89281 1.16078
 H208 H 0.69375 0.83965 1.11453
 H209 H 0.65596 0.81017 1.10918
 H210 H 0.60074 0.81770 1.15139
 C211 C 1.13223 1.34830 1.16166
 C212 C 1.13161 1.33674 1.14161
 C213 C 1.14948 1.33726 1.12746
 C214 C 1.16817 1.34988 1.13316
 C215 C 1.16871 1.36113 1.15309
 C216 C 1.15060 1.36055 1.16734
 C217 C 1.11804 1.34898 1.17929
 N218 N 1.12728 1.36157 1.19541
 C219 C 1.14717 1.36885 1.18826
 C220 C 1.18911 1.37056 1.15516
 N221 N 1.20116 1.36582 1.13682
 C222 C 1.18829 1.35326 1.12316
 C223 C 1.14471 1.32294 1.11021
 N224 N 1.12434 1.31426 1.11358
 C225 C 1.11626 1.32263 1.13270
 H226 H 1.10242 1.34040 1.18059
 H227 H 1.15870 1.37846 1.19800
 H228 H 1.19443 1.38068 1.16895
 H229 H 1.19339 1.34621 1.10755
 H230 H 1.15535 1.31883 1.09649
 H231 H 1.10066 1.31804 1.14000
 C232 C 1.13979 0.84388 0.66653
 C233 C 1.13978 0.83025 0.64778
 C234 C 1.15410 0.83455 0.63055
 C235 C 1.16845 0.85292 0.63182
 C236 C 1.16809 0.86668 0.65022
 C237 C 1.15375 0.86206 0.66777
 C238 C 1.12809 0.84304 0.68588
 N239 N 1.13463 0.86023 0.69895
 C240 C 1.15019 0.87213 0.68792
 C241 C 1.18303 0.88355 0.64663
 N242 N 1.19252 0.88032 0.62662
 C243 C 1.18379 0.86160 0.61745
 C244 C 1.14970 0.81908 0.61423
 N245 N 1.13294 0.80587 0.62122
 C246 C 1.12680 0.81252 0.64167
 H247 H 1.11583 0.83066 0.69023
 H248 H 1.15877 0.88658 0.69438
 H249 H 1.18676 0.89718 0.65776
 H250 H 1.18798 0.85509 0.60133
 H251 H 1.15732 0.81818 0.59812
 H252 H 1.11335 0.80542 0.65106
 C253 C 0.37360 0.64572 0.65956
 C254 C 0.37152 0.65890 0.64055
 C255 C 0.35317 0.65674 0.62724
 C256 C 0.33645 0.64166 0.63303
 C257 C 0.33823 0.62925 0.65218
 C258 C 0.35702 0.63107 0.66540
 C259 C 0.38998 0.64363 0.67503
 N260 N 0.38379 0.62797 0.69007
 C261 C 0.36352 0.62036 0.68442
 C262 C 0.31921 0.61711 0.65438
 N263 N 0.30583 0.62157 0.63690
 C264 C 0.31649 0.63648 0.62364
 C265 C 0.35524 0.67208 0.61042
 N266 N 0.37423 0.68364 0.61343
 C267 C 0.38433 0.67563 0.63175
 H268 H 0.40538 0.65270 0.67519
 H269 H 0.35452 0.60739 0.69303
 H270 H 0.31573 0.60554 0.66767
 H271 H 0.30988 0.64395 0.60879
 H272 H 0.34337 0.67529 0.59751
 H273 H 0.39965 0.68187 0.63844
 C274 C 0.36927 0.14575 1.16379
 C275 C 0.37087 0.16097 1.14621
 C276 C 0.35324 0.16399 1.13215
 C277 C 0.33401 0.15149 1.13511
 C278 C 0.33266 0.13580 1.15179
 C279 C 0.35024 0.13330 1.16658
 C280 C 0.38208 0.14245 1.18224
 N281 N 0.37107 0.12878 1.19631
 C282 C 0.35172 0.12291 1.18677
 C283 C 0.31181 0.12674 1.15103
 N284 N 0.30033 0.13711 1.13470
 C285 C 0.31386 0.15236 1.12501
 C286 C 0.35869 0.18084 1.11769
 N287 N 0.37932 0.18795 1.12245
 C288 C 0.38687 0.17600 1.13995
 H289 H 0.39717 0.15119 1.18615
 H290 H 0.33887 0.11333 1.19475
 H291 H 0.30517 0.11444 1.16233
 H292 H 0.30955 0.16318 1.11135
 H293 H 0.34846 0.18738 1.10459
 H294 H 0.40267 0.17837 1.14779
 C295 C 0.86449 0.65654 1.16677
 C296 C 0.85894 0.67425 1.15277
 C297 C 0.84235 0.67181 1.13731
 C298 C 0.83090 0.65139 1.13593
 C299 C 0.83637 0.63395 1.14998
 C300 C 0.85316 0.63656 1.16558
 C301 C 0.88026 0.65428 1.18284
 N302 N 0.87860 0.63346 1.19157
 C303 C 0.86201 0.62247 1.18126
 C304 C 0.82293 0.61623 1.14497
 N305 N 0.80931 0.62233 1.12828
 C306 C 0.81396 0.64388 1.12272
 C307 C 0.84054 0.69205 1.12638
 N308 N 0.85537 0.70649 1.13523
 C309 C 0.86667 0.69572 1.15128
 H310 H 0.89212 0.66679 1.18782
 H311 H 0.85713 0.60539 1.18460
 H312 H 0.82294 0.60010 1.15310
 H313 H 0.80589 0.65327 1.10978
 H314 H 0.82888 0.69621 1.11354
 H315 H 0.87940 0.70316 1.16138
 C316 C 0.86736 0.15299 0.66153
 C317 C 0.86387 0.16738 0.64363
 C318 C 0.84622 0.16395 0.62966
 C319 C 0.83169 0.14611 0.63358
 C320 C 0.83505 0.13211 0.65147
 C321 C 0.85285 0.13574 0.66569
 C322 C 0.88408 0.15132 0.67666
 N323 N 0.87996 0.13364 0.69026
 C324 C 0.86067 0.12418 0.68370
 C325 C 0.81967 0.11532 0.65028
 N326 N 0.80701 0.11873 0.63214
 C327 C 0.81413 0.13763 0.62190
 C328 C 0.84760 0.17980 0.61321
 N329 N 0.86549 0.19288 0.61706
 C330 C 0.87554 0.18535 0.63562
 H331 H 0.89807 0.16245 0.67770
 H332 H 0.85342 0.10919 0.69060
 H333 H 0.81817 0.10130 0.66151
 H334 H 0.80771 0.14410 0.60652
 H335 H 0.83636 0.18174 0.59951
 H336 H 0.89052 0.19215 0.64252
 C337 C 1.34407 0.36479 0.66501
 C338 C 1.32778 0.35928 0.64955
 C339 C 1.33202 0.34344 0.63342
 C340 C 1.35273 0.33321 0.63227
 C341 C 1.36890 0.33917 0.64707
 C342 C 1.36451 0.35479 0.66368
 C343 C 1.34350 0.37662 0.68453
 N344 N 1.36305 0.37390 0.69493
 C345 C 1.37598 0.36063 0.68232
 C346 C 1.38691 0.32608 0.64281
 N347 N 1.38217 0.31196 0.62582
 C348 C 1.36110 0.31622 0.61941
 C349 C 1.31290 0.34043 0.62169
 N350 N 1.29730 0.35422 0.63011
 C351 C 1.30621 0.36575 0.64720
 H352 H 1.32929 0.38477 0.69163
 H353 H 1.39176 0.35405 0.68736
 H354 H 1.40192 0.32616 0.65235
 H355 H 1.35240 0.30784 0.60623
 H356 H 1.31051 0.32913 0.60795
 H357 H 1.29752 0.37768 0.65738
 C358 C 1.33290 0.85098 1.17855
 C359 C 1.31588 0.84712 1.16359
 C360 C 1.31567 0.82779 1.15136
 C361 C 1.33264 0.81232 1.15362
 C362 C 1.35012 0.81633 1.16771
 C363 C 1.35009 0.83595 1.18069
 C364 C 1.33451 0.86614 1.19525
 N365 N 1.35210 0.86093 1.20804
 C366 C 1.36216 0.84278 1.19887
 C367 C 1.36318 0.79734 1.16714
 N368 N 1.35338 0.78194 1.15375
 C369 C 1.33474 0.79117 1.14553
 C370 C 1.29609 0.82705 1.14015
 N371 N 1.28442 0.84564 1.14527
 C372 C 1.29638 0.85804 1.15966
 H373 H 1.32297 0.87956 1.19820
 H374 H 1.37574 0.83373 1.20615
 H375 H 1.37785 0.79445 1.17680
 H376 H 1.32345 0.78317 1.13421
 H377 H 1.29059 0.81377 1.12935
 H378 H 1.29091 0.87337 1.16737
 C379 C 0.82474 0.34339 1.18575
 C380 C 0.80872 0.33776 1.17025
 C381 C 0.81350 0.32291 1.15350
 C382 C 0.83468 0.31386 1.15188
 C383 C 0.85074 0.32001 1.16683
 C384 C 0.84566 0.33480 1.18410
 C385 C 0.82407 0.35673 1.20405
 N386 N 0.84413 0.35654 1.21401
 C387 C 0.85755 0.34329 1.20156
 C388 C 0.86976 0.30929 1.16073
 N389 N 0.86565 0.29647 1.14258
 C390 C 0.84409 0.29924 1.13720
 C391 C 0.79496 0.32117 1.14057
 N392 N 0.77934 0.33490 1.14904
 C393 C 0.78757 0.34501 1.16724
 H394 H 0.80983 0.36611 1.20928
 H395 H 0.87445 0.33921 1.20526
 H396 H 0.88522 0.31035 1.16945
 H397 H 0.83583 0.29184 1.12319
 H398 H 0.79329 0.31151 1.12557
 H399 H 0.77896 0.35720 1.17720
 C400 C 0.83961 0.86048 0.67107
 C401 C 0.82655 0.86149 0.65200
 C402 C 0.83065 0.84721 0.63441
 C403 C 0.84829 0.83208 0.63549
 C404 C 0.86118 0.83134 0.65426
 C405 C 0.85664 0.84528 0.67215
 C406 C 0.83921 0.87173 0.69098
 N407 N 0.85537 0.86326 0.70396
 C408 C 0.86614 0.84720 0.69255
 C409 C 0.87775 0.81633 0.65061
 N410 N 0.87539 0.80783 0.63005
 C411 C 0.85729 0.81712 0.62065
 C412 C 0.81553 0.85217 0.61818
 N413 N 0.80267 0.86914 0.62549
 C414 C 0.80928 0.87498 0.64606
 H415 H 0.82763 0.88448 0.69595
 H416 H 0.87970 0.83738 0.69885
 H417 H 0.89088 0.81219 0.66194
 H418 H 0.85165 0.81389 0.60402
 H419 H 0.81436 0.84453 0.60205
 H420 H 0.80218 0.88828 0.65583
 C421 C 0.65176 0.62786 0.66118
 C422 C 0.66667 0.63121 0.64387
 C423 C 0.66140 0.64552 0.62673
 C424 C 0.64095 0.65625 0.62644
 C425 C 0.62606 0.65260 0.64333
 C426 C 0.63159 0.63845 0.66094
 C427 C 0.65393 0.61767 0.68137
 N428 N 0.63564 0.62192 0.69351
 C429 C 0.62177 0.63444 0.68104
 C430 C 0.60844 0.66647 0.63966
 N431 N 0.61230 0.67849 0.62103
 C432 C 0.63220 0.67241 0.61288
 C433 C 0.67986 0.64773 0.61380
 N434 N 0.69605 0.63493 0.62259
 C435 C 0.68815 0.62473 0.64095
 H436 H 0.66825 0.60872 0.68715
 H437 H 0.60643 0.64152 0.68675
 H438 H 0.59429 0.66842 0.65031
 H439 H 0.63992 0.67954 0.59840
 H440 H 0.68162 0.65841 0.59947
 H441 H 0.69772 0.61438 0.65201
 C442 C 0.65186 1.13239 1.16463
 C443 C 0.66596 1.13229 1.14646
 C444 C 0.66741 1.15078 1.13300
 C445 C 0.65421 1.16942 1.13729
 C446 C 0.63920 1.16919 1.15453
 C447 C 0.63825 1.15045 1.16870
 C448 C 0.65075 1.11840 1.18240
 N449 N 0.63691 1.12726 1.19764
 C450 C 0.62858 1.14661 1.18911
 C451 C 0.62933 1.19005 1.15478
 N452 N 0.63866 1.20290 1.13871
 C453 C 0.65388 1.19029 1.12807
 C454 C 0.68357 1.14653 1.11760
 N455 N 0.69155 1.12567 1.12133
 C456 C 0.68102 1.11695 1.13909
 H457 H 0.66024 1.10323 1.18441
 H458 H 0.61829 1.15826 1.19803
 H459 H 0.61728 1.19582 1.16660
 H460 H 0.66393 1.19579 1.11434
 H461 H 0.68895 1.15762 1.10454
 H462 H 0.68430 1.10071 1.14627
 C463 C 0.16482 0.64778 1.17548
 C464 C 0.17718 0.64557 1.15602
 C465 C 0.17465 0.66083 1.13886
 C466 C 0.15902 0.67810 1.14068
 C467 C 0.14677 0.67985 1.15977
 C468 C 0.15026 0.66527 1.17740
 C469 C 0.16372 0.63574 1.19498
 N470 N 0.14957 0.64635 1.20889
 C471 C 0.14120 0.66431 1.19804
 C472 C 0.13086 0.69557 1.15632
 N473 N 0.13297 0.70381 1.13555
 C474 C 0.15064 0.69369 1.12598
 C475 C 0.18855 0.65421 1.12210
 N476 N 0.19919 0.63541 1.12870
 C477 C 0.19231 0.62998 1.14931
 H478 H 0.17333 0.62110 1.19910
 H479 H 0.12902 0.67573 1.20452
 H480 H 0.11819 0.70017 1.16801
 H481 H 0.15565 0.69587 1.10898
 H482 H 0.19041 0.66210 1.10612
 H483 H 0.19786 0.61562 1.15865
 C484 C 0.16425 1.15123 0.67742
 C485 C 0.17954 1.14911 0.66014
 C486 C 0.18243 1.16648 0.64522
 C487 C 0.16961 1.18590 0.64694
 C488 C 0.15406 1.18754 0.66340
 C489 C 0.15190 1.17051 0.67904
 C490 C 0.15942 1.13837 0.69579
 N491 N 0.14523 1.14999 0.70887
 C492 C 0.14036 1.16948 0.69837
 C493 C 0.14342 1.20760 0.66081
 N494 N 0.15242 1.21858 0.64336
 C495 C 0.16872 1.20548 0.63496
 C496 C 0.19853 1.16004 0.63060
 N497 N 0.20528 1.13915 0.63609
 C498 C 0.19385 1.13236 0.65418
 H499 H 0.16720 1.12271 0.70016
 H500 H 0.12948 1.18238 0.70446
 H501 H 0.13046 1.21395 0.67129
 H502 H 0.17860 1.20940 0.62062
 H503 H 0.20448 1.16959 0.61663
 H504 H 0.19577 1.11637 0.66234
 C505 C 1.33431 0.64587 0.31424
 C506 C 1.31303 0.64840 0.32291
 C507 C 1.30796 0.66741 0.33478
 C508 C 1.32389 0.68378 0.33856
 C509 C 1.34501 0.68100 0.33092
 C510 C 1.35027 0.66181 0.31863
 C511 C 1.34366 0.63013 0.30061
 N512 N 1.36502 0.63585 0.29686
 C513 C 1.36917 0.65510 0.30816
 C514 C 1.35677 0.69970 0.33730
 N515 N 1.34306 0.71389 0.34831
 C516 C 1.32293 0.70395 0.34915
 C517 C 1.28661 0.66560 0.34164
 N518 N 1.27849 0.64573 0.33464
 C519 C 1.29448 0.63500 0.32310
 H520 H 1.33543 0.61553 0.29403
 H521 H 1.38439 0.66447 0.30771
 H522 H 1.37381 0.70294 0.33337
 H523 H 1.30851 0.71043 0.35734
 H524 H 1.27793 0.67741 0.35197
 H525 H 1.29291 0.61851 0.31591
 C526 C 1.35328 1.13164 0.83786
 C527 C 1.33624 1.13444 0.85309
 C528 C 1.33824 1.15000 0.86983
 C529 C 1.35764 1.16250 0.87190
 C530 C 1.37482 1.15905 0.85738
 C531 C 1.37251 1.14381 0.83993
 C532 C 1.35384 1.12115 0.81776
 N533 N 1.37280 1.12681 0.80737
 C534 C 1.38453 1.14038 0.82093
 C535 C 1.39107 1.17408 0.86273
 N536 N 1.38410 1.18689 0.87994
 C537 C 1.36350 1.17996 0.88546
 C538 C 1.31838 1.15073 0.88066
 N539 N 1.30459 1.13579 0.87101
 C540 C 1.31533 1.12579 0.85411
 H541 H 1.34059 1.11160 0.81045
 H542 H 1.39954 1.14894 0.81636
 H543 H 1.40633 1.17625 0.85382
 H544 H 1.35350 1.18684 0.89856
 H545 H 1.31413 1.16152 0.89434
 H546 H 1.30816 1.11371 0.84292
 C547 C 0.85347 0.63520 0.83382
 C548 C 0.83404 0.63706 0.84630
 C549 C 0.83266 0.65313 0.86268
 C550 C 0.85045 0.66727 0.86704
 C551 C 0.86946 0.66557 0.85476
 C552 C 0.87102 0.64934 0.83817
 C553 C 0.85986 0.62137 0.81675
 N554 N 0.88084 0.62665 0.81101
 C555 C 0.88770 0.64375 0.82401
 C556 C 0.88386 0.68155 0.86251
 N557 N 0.87401 0.69256 0.87939
 C558 C 0.85359 0.68396 0.88228
 C559 C 0.81204 0.65190 0.87166
 N560 N 0.80075 0.63542 0.86133
 C561 C 0.81404 0.62603 0.84588
 H562 H 0.85013 0.60821 0.80933
 H563 H 0.90366 0.65171 0.82311
 H564 H 0.90039 0.68467 0.85666
 H565 H 0.84190 0.68949 0.89457
 H566 H 0.80558 0.66240 0.88468
 H567 H 0.80929 0.61269 0.83480
 C568 C 0.85277 1.13226 0.33478
 C569 C 0.83540 1.12951 0.34969
 C570 C 0.83005 1.14650 0.36417
 C571 C 0.84215 1.16649 0.36397
 C572 C 0.85966 1.16905 0.34959
 C573 C 0.86502 1.15178 0.33489
 C574 C 0.86127 1.11864 0.31862
 N575 N 0.87848 1.12935 0.30910
 C576 C 0.88100 1.14957 0.31896
 C577 C 0.86818 1.19014 0.35291
 N578 N 0.85610 1.20047 0.36873
 C579 C 0.84021 1.18610 0.37564
 C580 C 0.81285 1.13893 0.37697
 N581 N 0.80789 1.11767 0.37075
 C582 C 0.82153 1.11189 0.35396
 H583 H 0.85554 1.10208 0.31424
 H584 H 0.89341 1.16182 0.31467
 H585 H 0.88168 1.19769 0.34395
 H586 H 0.82799 1.18974 0.38809
 H587 H 0.80508 1.14793 0.39033
 H588 H 0.82152 1.09594 0.34553
 C589 C 0.64020 0.37166 0.34031
 C590 C 0.65745 0.37641 0.35493
 C591 C 0.66157 0.36233 0.37261
 C592 C 0.64854 0.34324 0.37582
 C593 C 0.63155 0.33856 0.36140
 C594 C 0.62754 0.35274 0.34344
 C595 C 0.63448 0.38055 0.32013
 N596 N 0.61900 0.36719 0.31063
 C597 C 0.61467 0.35021 0.32502
 C598 C 0.62374 0.31759 0.36657
 N599 N 0.63571 0.30934 0.38361
 C600 C 0.65092 0.32492 0.38937
 C601 C 0.68117 0.36896 0.38186
 N602 N 0.68916 0.38650 0.37010
 C603 C 0.67472 0.39121 0.35366
 H604 H 0.64253 0.39460 0.31227
 H605 H 0.60334 0.33654 0.32233
 H606 H 0.61139 0.30833 0.35752
 H607 H 0.66351 0.32265 0.40178
 H608 H 0.68989 0.36044 0.39497
 H609 H 0.67725 0.40360 0.34087
 C610 C 0.63918 0.87484 0.84014
 C611 C 0.65829 0.87577 0.85299
 C612 C 0.66399 0.85782 0.86615
 C613 C 0.65087 0.83859 0.86631
 C614 C 0.63206 0.83749 0.85349
 C615 C 0.62619 0.85579 0.84018
 C616 C 0.63029 0.88950 0.82518
 N617 N 0.61230 0.87988 0.81600
 C618 C 0.60971 0.85917 0.82488
 C619 C 0.62355 0.81623 0.85599
 N620 N 0.63694 0.80453 0.86974
 C621 C 0.65363 0.81812 0.87610
 C622 C 0.68428 0.86238 0.87511
 N623 N 0.69113 0.88251 0.86740
 C624 C 0.67536 0.89085 0.85388
 H625 H 0.63676 0.90580 0.82084
 H626 H 0.59687 0.84745 0.82047
 H627 H 0.60922 0.80950 0.84777
 H628 H 0.66701 0.81335 0.88688
 H629 H 0.69407 0.85118 0.88511
 H630 H 0.67678 0.90616 0.84443
 C631 C 0.14604 0.36455 0.83368
 C632 C 0.16413 0.36660 0.84791
 C633 C 0.16497 0.35433 0.86734
 C634 C 0.14760 0.33982 0.87284
 C635 C 0.12981 0.33798 0.85876
 C636 C 0.12925 0.35003 0.83901
 C637 C 0.14147 0.37302 0.81297
 N638 N 0.12267 0.36329 0.80537
 C639 C 0.11513 0.34932 0.82142
 C640 C 0.11562 0.32262 0.86765
 N641 N 0.12431 0.31490 0.88675
 C642 C 0.14401 0.32506 0.89006
 C643 C 0.18505 0.35859 0.87698
 N644 N 0.19644 0.37287 0.86376
 C645 C 0.18371 0.37786 0.84602
 H646 H 0.15196 0.38414 0.80357
 H647 H 0.10041 0.33919 0.82051
 H648 H 0.10018 0.31715 0.86059
 H649 H 0.15477 0.32202 0.90395
 H650 H 0.19130 0.35107 0.89196
 H651 H 0.18851 0.38859 0.83244
 C652 C 0.14990 0.86258 0.33049
 C653 C 0.16781 0.86497 0.34484
 C654 C 0.16926 0.85197 0.36374
 C655 C 0.15267 0.83632 0.36854
 C656 C 0.13505 0.83404 0.35429
 C657 C 0.13389 0.84692 0.33504
 C658 C 0.14492 0.87195 0.31030
 N659 N 0.12662 0.86175 0.30216
 C660 C 0.11979 0.84648 0.31738
 C661 C 0.12147 0.81786 0.36277
 N662 N 0.13039 0.81012 0.38177
 C663 C 0.14961 0.82107 0.38542
 C664 C 0.18904 0.85700 0.37365
 N665 N 0.19964 0.87242 0.36104
 C666 C 0.18670 0.87742 0.34347
 H667 H 0.15483 0.88413 0.30159
 H668 H 0.10558 0.83569 0.31587
 H669 H 0.10614 0.81210 0.35569
 H670 H 0.16026 0.81842 0.39948
 H671 H 0.19567 0.84926 0.38836
 H672 H 0.19094 0.88896 0.33036
 O673 O 0.97572 0.92384 0.88809
 O674 O 0.97428 0.89684 0.86338
 C675 C 0.96752 0.91550 0.87066
 C676 C 0.94922 0.92703 0.85932
 C677 C 0.93778 0.91622 0.84232
 H678 H 0.94322 0.89998 0.83660
 O679 O 1.02727 1.08213 0.89091
 O680 O 1.02928 1.10940 0.86648
 C681 C 1.03582 1.09058 0.87369
 C682 C 1.05425 1.07909 0.86239
 C683 C 1.06524 1.08998 0.84516
 H684 H 1.05911 1.10587 0.83920
 O685 O 0.89159 0.98762 0.91626
 O686 O 0.86644 0.98937 0.89013
 C687 C 0.87339 0.98122 0.90821
 C688 C 0.86061 0.96338 0.91936
 C689 C 0.84137 0.95528 0.90958
 H690 H 0.83506 0.96347 0.89496
 O691 O 1.11266 1.01888 0.91850
 O692 O 1.13849 1.01795 0.89301
 C693 C 1.13080 1.02598 0.91083
 C694 C 1.14234 1.04452 0.92226
 C695 C 1.16015 1.05564 0.91215
 H696 H 1.16626 1.05004 0.89631
 O697 O 0.91468 0.89902 0.97669
 O698 O 0.88851 0.87347 0.97626
 C699 C 0.90695 0.88072 0.96944
 C700 C 0.91952 0.86771 0.95298
 C701 C 0.91421 0.84526 0.94903
 H702 H 0.90075 0.83762 0.95799
 O703 O 1.08614 1.10719 0.97959
 O704 O 1.11229 1.13279 0.98005
 C705 C 1.09410 1.12560 0.97270
 C706 C 1.08192 1.13882 0.95615
 C707 C 1.08674 1.16158 0.95275
 H708 H 1.09955 1.16964 0.96228
 O709 O 0.92457 1.02874 0.88573
 O710 O 0.89964 1.03057 0.85942
 C711 C 0.91787 1.03679 0.86755
 C712 C 0.93131 1.05402 0.85632
 C713 C 0.92716 1.06058 0.83440
 H714 H 0.91445 1.05215 0.82508
 O715 O 1.08044 0.97720 0.88785
 O716 O 1.10612 0.97581 0.86225
 C717 C 1.08790 0.96898 0.87005
 C718 C 1.07570 0.95057 0.85905
 C719 C 1.08484 0.93920 0.84090
 H720 H 1.10050 0.94451 0.83418
 O721 O 1.01736 0.89194 0.91887
 O722 O 1.01604 0.86520 0.89386
 C723 C 1.02392 0.87317 0.91156
 C724 C 1.04117 0.86068 0.92353
 C725 C 1.04715 0.83905 0.91685
 H726 H 1.03882 0.83133 0.90302
 O727 O 0.98457 1.11404 0.92043
 O728 O 0.98639 1.14100 0.89562
 C729 C 0.97812 1.13287 0.91311
 C730 C 0.96080 1.14532 0.92505
 C731 C 0.95660 1.16797 0.92028
 H732 H 0.96621 1.17662 0.90786
 O733 O 0.89304 1.08705 0.97660
 O734 O 0.86863 1.11427 0.97628
 C735 C 0.87563 1.09572 0.96888
 C736 C 0.86392 1.08399 0.95088
 C737 C 0.84148 1.08783 0.94653
 H738 H 0.83232 1.09944 0.95668
 O739 O 1.10584 0.91882 0.97837
 O740 O 1.12967 0.89110 0.97886
 C741 C 1.12322 0.90972 0.97110
 C742 C 1.13552 0.92018 0.95265
 C743 C 1.15449 0.90988 0.94455
 H744 H 1.16116 0.89569 0.95337
 O745 O 0.98449 1.08418 0.88948
 O746 O 0.98653 1.11099 0.86454
 C747 C 0.97812 1.09284 0.87147
 C748 C 0.96067 1.08171 0.85860
 C749 C 0.95605 1.08844 0.83698
 H750 H 0.96521 1.10225 0.82997
 O751 O 1.01879 0.92255 0.88862
 O752 O 1.01746 0.89579 0.86367
 C753 C 1.02604 0.91370 0.87105
 C754 C 1.04533 0.92364 0.85968
 C755 C 1.05469 0.91267 0.84156
 H756 H 1.04685 0.89783 0.83499
 O757 O 1.11022 0.97534 0.91822
 O758 O 1.13613 0.97392 0.89287
 C759 C 1.12766 0.96661 0.91066
 C760 C 1.13758 0.94737 0.92253
 C761 C 1.15618 0.93619 0.91415
 H762 H 1.16361 0.94182 0.89889
 O763 O 0.89439 1.03095 0.91604
 O764 O 0.86912 1.03263 0.89001
 C765 C 0.87686 1.03935 0.90831
 C766 C 0.86502 1.05664 0.92101
 C767 C 0.84285 1.06084 0.91671
 H768 H 0.83483 1.05196 0.90338
 O769 O 0.92496 1.11558 0.97726
 O770 O 0.90104 1.14325 0.97711
 C771 C 0.91863 1.13440 0.96997
 C772 C 0.93187 1.14600 0.95300
 C773 C 0.92815 1.16863 0.94828
 H774 H 0.91560 1.17771 0.95723
 O775 O 1.07468 0.88922 0.97749
 O776 O 1.09858 0.86154 0.97800
 C777 C 1.08143 0.87054 0.97014
 C778 C 1.06940 0.85940 0.95204
 C779 C 1.07527 0.83778 0.94508
 H780 H 1.08833 0.82886 0.95345
 O781 O 1.08286 1.02091 0.88845
 O782 O 1.10856 1.02006 0.86284
 C783 C 1.09132 1.02880 0.87094
 C784 C 1.08155 1.04908 0.86079
 C785 C 1.09262 1.06065 0.84380
 H786 H 1.10796 1.05424 0.83734
 O787 O 0.92135 0.98517 0.88610
 O788 O 0.89617 0.98684 0.86001
 C789 C 0.91309 0.97773 0.86831
 C790 C 0.92261 0.95756 0.85793
 C791 C 0.91142 0.94649 0.84079
 H792 H 0.89631 0.95338 0.83425
 O793 O 1.02735 1.11184 0.92207
 O794 O 1.02889 1.13920 0.89765
 C795 C 1.03547 1.13023 0.91547
 C796 C 1.05287 1.14115 0.92854
 C797 C 1.05760 1.16391 0.92560
 H798 H 1.04818 1.17367 0.91388
 O799 O 0.97461 0.89448 0.91958
 O800 O 0.97354 0.86735 0.89496
 C801 C 0.96653 0.87618 0.91269
 C802 C 0.94864 0.86528 0.92532
 C803 C 0.94310 0.84274 0.92161
 H804 H 0.95235 0.83301 0.90977
 O805 O 1.11464 1.07497 0.97914
 O806 O 1.14073 1.10056 0.97934
 C807 C 1.13242 1.08280 0.97140
 C808 C 1.14299 1.07203 0.95214
 C809 C 1.16080 1.08261 0.94194
 H810 H 1.16780 1.09753 0.94926
 O811 O 0.88499 0.93005 0.97542
 O812 O 0.85862 0.90480 0.97434
 C813 C 0.86736 0.92260 0.96693
 C814 C 0.85758 0.93438 0.94772
 C815 C 0.83858 0.92609 0.93720
 H816 H 0.83056 0.91121 0.94350
 Cu817 Cu 0.99673 0.91092 0.90624
 Cu818 Cu 0.99517 0.87874 0.87634
 Cu819 Cu 1.00567 1.09535 0.90822
 Cu820 Cu 1.00797 1.12780 0.87852
 Cu821 Cu 0.91062 1.00809 0.90354
 Cu822 Cu 0.88035 1.01020 0.87221
 Cu823 Cu 1.09398 0.99814 0.90575
 Cu824 Cu 1.12487 0.99674 0.87513
 C825 C 0.94163 0.94780 0.86689
 H826 H 0.95006 0.95597 0.88040
 C827 C 0.91871 0.92561 0.83324
 C828 C 1.06235 1.05849 0.86993
 H829 H 1.05413 1.05017 0.88351
 C830 C 1.08478 1.08139 0.83630
 C831 C 0.86843 0.95306 0.93862
 H832 H 0.88345 0.95913 0.94610
 C833 C 0.83056 0.93631 0.91789
 C834 C 1.13397 1.05284 0.94233
 H835 H 1.11985 1.04489 0.94990
 C836 C 1.16908 1.07499 0.92175
 C837 C 0.93690 0.87753 0.94122
 H838 H 0.94100 0.89492 0.94413
 C839 C 0.92613 0.83249 0.93372
 C840 C 1.06491 1.12880 0.94405
 H841 H 1.06126 1.11123 0.94644
 C842 C 1.07432 1.17429 0.93783
 C843 C 0.94833 1.06444 0.86807
 H844 H 0.95162 1.05951 0.88495
 C845 C 0.93971 1.07768 0.82443
 C846 C 1.05583 0.94273 0.86817
 H847 H 1.04895 0.95099 0.88248
 C848 C 1.07459 0.92001 0.83234
 C849 C 1.05225 0.87062 0.94126
 H850 H 1.04783 0.88737 0.94638
 C851 C 1.06409 0.82740 0.92761
 C852 C 0.94839 1.13454 0.94149
 H853 H 0.95138 1.11706 0.94510
 C854 C 0.94057 1.17977 0.93215
 C855 C 0.87540 1.06818 0.93818
 H856 H 0.89260 1.06498 0.94152
 C857 C 0.83069 1.07578 0.92976
 C858 C 1.12738 0.93913 0.94177
 H859 H 1.11262 0.94707 0.94793
 C860 C 1.16459 0.91717 0.92496
 O861 O 1.01573 0.92290 1.10894
 O862 O 1.01404 0.89605 1.13384
 C863 C 1.02269 0.91399 1.12663
 C864 C 1.04176 0.92372 1.13847
 C865 C 1.04972 0.91312 1.15745
 H866 H 1.04034 0.89949 1.16450
 O867 O 0.98240 1.08159 1.10936
 O868 O 0.98365 1.10799 1.13472
 C869 C 0.97542 1.09001 1.12725
 C870 C 0.95735 1.07890 1.13927
 C871 C 0.95276 1.08458 1.16118
 H872 H 0.96259 1.09729 1.16921
 O873 O 0.89073 1.02974 1.07868
 O874 O 0.86478 1.03109 1.10405
 C875 C 0.87296 1.03795 1.08599
 C876 C 0.86164 1.05550 1.07321
 C877 C 0.83944 1.06019 1.07702
 H878 H 0.83052 1.05093 1.08954
 O879 O 1.10876 0.97525 1.08144
 O880 O 1.13397 0.97322 1.10746
 C881 C 1.12581 0.96618 1.08944
 C882 C 1.13540 0.94649 1.07826
 C883 C 1.15194 0.93390 1.08865
 H884 H 1.15853 0.93923 1.10440
 O885 O 1.07304 0.88942 1.02045
 O886 O 1.09679 0.86160 1.02072
 C887 C 1.07928 0.87058 1.02786
 C888 C 1.06637 0.85935 1.04540
 C889 C 1.07174 0.83756 1.05235
 H890 H 1.08459 0.82847 1.04390
 O891 O 0.92444 1.11515 1.02006
 O892 O 0.90047 1.14277 1.02019
 C893 C 0.91785 1.13373 1.02768
 C894 C 0.93048 1.14458 1.04565
 C895 C 0.92520 1.16629 1.05283
 H896 H 0.91217 1.17550 1.04476
 O897 O 0.91812 0.98465 1.10911
 O898 O 0.89244 0.98626 1.13474
 C899 C 0.90978 0.97748 1.12696
 C900 C 0.91969 0.95806 1.13826
 C901 C 0.90910 0.94841 1.15643
 H902 H 0.89457 0.95630 1.16316
 O903 O 1.08110 1.02003 1.11178
 O904 O 1.10616 1.01846 1.13799
 C905 C 1.08909 1.02735 1.12972
 C906 C 1.07896 1.04714 1.14025
 C907 C 1.08934 1.05798 1.15804
 H908 H 1.10447 1.05129 1.16470
 O909 O 0.97105 0.89533 1.07789
 O910 O 0.96963 0.86866 1.10300
 C911 C 0.96233 0.87757 1.08544
 C912 C 0.94285 0.86766 1.07443
 C913 C 0.93157 0.84991 1.08454
 H914 H 0.93771 0.84280 1.09979
 O915 O 1.02620 1.11000 1.07853
 O916 O 1.02672 1.13709 1.10322
 C917 C 1.03392 1.12842 1.08553
 C918 C 1.05160 1.13967 1.07305
 C919 C 1.05615 1.16241 1.07639
 H920 H 1.04647 1.17190 1.08810
 O921 O 0.88403 0.93024 1.01889
 O922 O 0.85751 0.90512 1.01813
 C923 C 0.86600 0.92265 1.02636
 C924 C 0.85567 0.93356 1.04575
 C925 C 0.83778 0.92342 1.05663
 H926 H 0.83060 0.90823 1.05008
 O927 O 1.11476 1.07489 1.02261
 O928 O 1.14087 1.10046 1.02280
 C929 C 1.13252 1.08261 1.03052
 C930 C 1.14291 1.07171 1.04984
 C931 C 1.16051 1.08228 1.06038
 H932 H 1.16781 1.09697 1.05288
 O933 O 1.02537 1.08010 1.10963
 O934 O 1.02648 1.10713 1.13431
 C935 C 1.03337 1.08845 1.12716
 C936 C 1.05154 1.07693 1.13886
 C937 C 1.06179 1.08717 1.15694
 H938 H 1.05509 1.10261 1.16338
 O939 O 0.97272 0.92390 1.10987
 O940 O 0.97120 0.89708 1.13484
 C941 C 0.96453 0.91573 1.12744
 C942 C 0.94637 0.92762 1.13864
 C943 C 0.93532 0.91796 1.15675
 H944 H 0.94071 0.90205 1.16335
 O945 O 1.11178 1.01873 1.08258
 O946 O 1.13699 1.01725 1.10865
 C947 C 1.12973 1.02566 1.09082
 C948 C 1.14150 1.04439 1.07988
 C949 C 1.15875 1.05581 1.09063
 H950 H 1.16414 1.05044 1.10681
 O951 O 0.88832 0.98632 1.07883
 O952 O 0.86268 0.98763 1.10451
 C953 C 0.87014 0.97950 1.08663
 C954 C 0.85802 0.96127 1.07536
 C955 C 0.84014 0.95098 1.08583
 H956 H 0.83436 0.95739 1.10150
 O957 O 1.08579 1.10670 1.02224
 O958 O 1.11189 1.13235 1.02230
 C959 C 1.09363 1.12502 1.02940
 C960 C 1.08118 1.13794 1.04596
 C961 C 1.08577 1.16069 1.04969
 H962 H 1.09867 1.16896 1.04042
 O963 O 0.91276 0.89857 1.01952
 O964 O 0.88616 0.87349 1.01899
 C965 C 0.90407 0.88079 1.02704
 C966 C 0.91439 0.86905 1.04593
 C967 C 0.90353 0.85104 1.05624
 H968 H 0.88799 0.84504 1.04985
 O969 O 1.07883 0.97642 1.11149
 O970 O 1.10383 0.97435 1.13770
 C971 C 1.08582 0.96776 1.12929
 C972 C 1.07310 0.94933 1.13969
 C973 C 1.08138 0.93767 1.15815
 H974 H 1.09711 0.94238 1.16506
 O975 O 0.92029 1.02803 1.10964
 O976 O 0.89471 1.02972 1.13535
 C977 C 0.91318 1.03592 1.12773
 C978 C 0.92668 1.05259 1.13969
 C979 C 0.92236 1.05830 1.16182
 H980 H 0.90909 1.05011 1.17058
 O981 O 0.98332 1.11131 1.07828
 O982 O 0.98415 1.13778 1.10357
 C983 C 0.97645 1.12989 1.08572
 C984 C 0.95917 1.14250 1.07382
 C985 C 0.95359 1.16411 1.08074
 H986 H 0.96205 1.17138 1.09472
 O987 O 1.01414 0.89249 1.07837
 O988 O 1.01253 0.86567 1.10330
 C989 C 1.02060 0.87368 1.08565
 C990 C 1.03793 0.86112 1.07377
 C991 C 1.04395 0.83965 1.08084
 H992 H 1.03587 0.83259 1.09515
 O993 O 1.10511 0.91799 1.02168
 O994 O 1.12879 0.89013 1.02200
 C995 C 1.12200 0.90859 1.02973
 C996 C 1.13332 0.91843 1.04902
 C997 C 1.14987 0.90622 1.05962
 H998 H 1.15530 0.89045 1.05275
 O999 O 0.89224 1.08702 1.01954
 O1000 O 0.86786 1.11428 1.01935
 C1001 C 0.87463 1.09568 1.02681
 C1002 C 0.86226 1.08388 1.04427
 C1003 C 0.84004 1.08869 1.04848
 H1004 H 0.83155 1.10122 1.03879
 Cu1005 Cu 0.99357 0.91135 1.09127
 Cu1006 Cu 0.99183 0.87916 1.12120
 Cu1007 Cu 1.00426 1.09302 1.09147
 Cu1008 Cu 1.00532 1.12514 1.12151
 Cu1009 Cu 0.90162 0.91712 0.99763
 Cu1010 Cu 0.86992 0.88682 0.99668
 Cu1011 Cu 1.08729 0.90668 0.99944
 Cu1012 Cu 1.11597 0.87342 0.99995
 Cu1013 Cu 0.91100 1.09841 0.99837
 Cu1014 Cu 0.88209 1.13146 0.99818
 Cu1015 Cu 1.09779 1.08827 1.00088
 Cu1016 Cu 1.12936 1.11884 1.00116
 Cu1017 Cu 0.90697 1.00719 1.09152
 Cu1018 Cu 0.87604 1.00898 1.12224
 Cu1019 Cu 1.09262 0.99780 1.09425
 Cu1020 Cu 1.12278 0.99559 1.12559
 C1021 C 1.05334 0.94207 1.12992
 H1022 H 1.04729 0.95026 1.11518
 C1023 C 1.06991 0.91923 1.16695
 C1024 C 0.94436 1.06281 1.12873
 H1025 H 0.94776 1.05860 1.11169
 C1026 C 0.93562 1.07409 1.17282
 C1027 C 0.87285 1.06724 1.05667
 H1028 H 0.89001 1.06358 1.05363
 C1029 C 0.82845 1.07648 1.06454
 C1030 C 1.12629 0.93868 1.05834
 H1031 H 1.11312 0.94791 1.05052
 C1032 C 1.15887 0.91354 1.07960
 C1033 C 1.04918 0.87081 1.05595
 H1034 H 1.04499 0.88760 1.05073
 C1035 C 1.06056 0.82747 1.07007
 C1036 C 0.94767 1.13292 1.05612
 H1037 H 0.95175 1.11612 1.05087
 C1038 C 0.93682 1.17625 1.07031
 C1039 C 0.93849 0.94775 1.12968
 H1040 H 0.94651 0.95499 1.11539
 C1041 C 0.91643 0.92815 1.16548
 C1042 C 1.06004 1.05674 1.13086
 H1043 H 1.05236 1.04890 1.11673
 C1044 C 1.08106 1.07826 1.16627
 C1045 C 0.93418 0.87709 1.05505
 H1046 H 0.94244 0.89119 1.04748
 C1047 C 0.91185 0.84173 1.07574
 C1048 C 1.06402 1.12765 1.05764
 H1049 H 1.06052 1.11009 1.05496
 C1050 C 1.07301 1.17311 1.06457
 C1051 C 0.86553 0.95260 1.05519
 H1052 H 0.87967 0.96015 1.04728
 C1053 C 0.83023 0.93181 1.07690
 C1054 C 1.13373 1.05255 1.05950
 H1055 H 1.11990 1.04449 1.05154
 C1056 C 1.16796 1.07516 1.08114
 O1057 O 0.97096 0.42470 0.38748
 O1058 O 0.96835 0.39862 0.36192
 C1059 C 0.96250 0.41737 0.36975
 C1060 C 0.94486 0.43030 0.35887
 C1061 C 0.93240 0.42072 0.34175
 H1062 H 0.93637 0.40415 0.33576
 O1063 O 1.03122 0.58040 0.38976
 O1064 O 1.03375 0.60783 0.36554
 C1065 C 1.03975 0.58875 0.37246
 C1066 C 1.05764 0.57681 0.36086
 C1067 C 1.06950 0.58774 0.34424
 H1068 H 1.06424 0.60413 0.33874
 O1069 O 0.89050 0.49199 0.41867
 O1070 O 0.86510 0.49511 0.39291
 C1071 C 0.87198 0.48638 0.41075
 C1072 C 0.85868 0.46888 0.42179
 C1073 C 0.83932 0.46122 0.41189
 H1074 H 0.83336 0.46937 0.39709
 O1075 O 1.11210 0.51421 0.41753
 O1076 O 1.13746 0.51208 0.39161
 C1077 C 1.13035 0.52053 0.40951
 C1078 C 1.14260 0.53903 0.42023
 C1079 C 1.15862 0.55080 0.40820
 H1080 H 1.16302 0.54542 0.39171
 O1081 O 0.90978 0.40098 0.47639
 O1082 O 0.88206 0.37719 0.47620
 C1083 C 0.90047 0.38365 0.46863
 C1084 C 0.91066 0.37120 0.45015
 C1085 C 0.90006 0.35238 0.44140
 H1086 H 0.88512 0.34630 0.44907
 O1087 O 1.09124 0.60339 0.47930
 O1088 O 1.11830 0.62796 0.48013
 C1089 C 1.09989 0.62153 0.47259
 C1090 C 1.08826 0.63511 0.45586
 C1091 C 1.09369 0.65774 0.45238
 H1092 H 1.10660 0.66553 0.46199
 O1093 O 0.92472 0.53242 0.38850
 O1094 O 0.89939 0.53566 0.36271
 C1095 C 0.91804 0.54093 0.37051
 C1096 C 0.93212 0.55731 0.35887
 C1097 C 0.92766 0.56386 0.33703
 H1098 H 0.91409 0.55622 0.32828
 O1099 O 1.07792 0.47391 0.38710
 O1100 O 1.10327 0.47121 0.36127
 C1101 C 1.08486 0.46522 0.36931
 C1102 C 1.07178 0.44729 0.35853
 C1103 C 1.08009 0.43583 0.34003
 H1104 H 1.09585 0.44056 0.33315
 O1105 O 1.01042 0.39017 0.41805
 O1106 O 1.00789 0.36398 0.39259
 C1107 C 1.01604 0.37122 0.41049
 C1108 C 1.03264 0.35779 0.42241
 C1109 C 1.03719 0.33570 0.41604
 H1110 H 1.02818 0.32827 0.40250
 O1111 O 0.99047 0.61321 0.42101
 O1112 O 0.99270 0.64010 0.39617
 C1113 C 0.98457 0.63227 0.41385
 C1114 C 0.96796 0.64545 0.42598
 C1115 C 0.96367 0.66765 0.41985
 H1116 H 0.97272 0.67509 0.40631
 O1117 O 0.89825 0.59146 0.47887
 O1118 O 0.87524 0.61993 0.47919
 C1119 C 0.88114 0.60110 0.47158
 C1120 C 0.86840 0.59018 0.45388
 C1121 C 0.84638 0.59591 0.44967
 H1122 H 0.83831 0.60858 0.45952
 O1123 O 1.10199 0.41324 0.47501
 O1124 O 1.12450 0.38439 0.47458
 C1125 C 1.11881 0.40343 0.46731
 C1126 C 1.13148 0.41365 0.44908
 C1127 C 1.15012 0.40281 0.44083
 H1128 H 1.15616 0.38807 0.44922
 O1129 O 0.98843 0.58389 0.38964
 O1130 O 0.99098 0.61068 0.36472
 C1131 C 0.98193 0.59293 0.37185
 C1132 C 0.96344 0.58279 0.35962
 C1133 C 0.95863 0.58942 0.33796
 H1134 H 0.96860 0.60221 0.33021
 O1135 O 1.01378 0.42124 0.38834
 O1136 O 1.01129 0.39514 0.36280
 C1137 C 1.02063 0.41248 0.37056
 C1138 C 1.04025 0.42180 0.35924
 C1139 C 1.04861 0.41101 0.34054
 H1140 H 1.03965 0.39705 0.33355
 O1141 O 1.10875 0.47078 0.41622
 O1142 O 1.13429 0.46822 0.39055
 C1143 C 1.12570 0.46130 0.40839
 C1144 C 1.13486 0.44158 0.41990
 C1145 C 1.15313 0.43003 0.41137
 H1146 H 1.16092 0.43586 0.39636
 O1147 O 0.89481 0.53523 0.41907
 O1148 O 0.86918 0.53824 0.39351
 C1149 C 0.87750 0.54441 0.41172
 C1150 C 0.86683 0.56226 0.42461
 C1151 C 0.84483 0.56785 0.42081
 H1152 H 0.83557 0.55905 0.40824
 O1153 O 0.93178 0.61816 0.47898
 O1154 O 0.90911 0.64689 0.47913
 C1155 C 0.92612 0.63721 0.47167
 C1156 C 0.93933 0.64799 0.45409
 C1157 C 0.93523 0.67022 0.44768
 H1158 H 0.92269 0.67982 0.45608
 O1159 O 1.06912 0.38513 0.47532
 O1160 O 1.09179 0.35639 0.47490
 C1161 C 1.07469 0.36612 0.46781
 C1162 C 1.06138 0.35538 0.45037
 C1163 C 1.06572 0.33329 0.44381
 H1164 H 1.07836 0.32377 0.45216
 O1165 O 1.08340 0.51745 0.38650
 O1166 O 1.10869 0.51513 0.36056
 C1167 C 1.09208 0.52480 0.36885
 C1168 C 1.08343 0.54561 0.35884
 C1169 C 1.09545 0.55713 0.34247
 H1170 H 1.11064 0.55017 0.33621
 O1171 O 0.92022 0.48908 0.38837
 O1172 O 0.89474 0.49233 0.36271
 C1173 C 0.91150 0.48248 0.37049
 C1174 C 0.92008 0.46237 0.35927
 C1175 C 0.90810 0.45274 0.34199
 H1176 H 0.89364 0.46116 0.33572
 O1177 O 1.03311 0.60945 0.42150
 O1178 O 1.03507 0.63696 0.39728
 C1179 C 1.04167 0.62765 0.41493
 C1180 C 1.05949 0.63804 0.42792
 C1181 C 1.06485 0.66063 0.42492
 H1182 H 1.05572 0.67060 0.41313
 O1183 O 0.96773 0.39469 0.41801
 O1184 O 0.96524 0.36861 0.39245
 C1185 C 0.95836 0.37740 0.41022
 C1186 C 0.93882 0.36798 0.42155
 C1187 C 0.92776 0.34922 0.41289
 H1188 H 0.93388 0.34113 0.39814
 O1189 O 1.11817 0.57004 0.47800
 O1190 O 1.14523 0.59457 0.47824
 C1191 C 1.13597 0.57746 0.46989
 C1192 C 1.14515 0.56704 0.44965
 C1193 C 1.16079 0.57872 0.43707
 H1194 H 1.16707 0.59465 0.44281
 O1195 O 0.88263 0.43415 0.47709
 O1196 O 0.85497 0.41032 0.47670
 C1197 C 0.86439 0.42771 0.46914
 C1198 C 0.85477 0.44005 0.45021
 C1199 C 0.83556 0.43232 0.43971
 H1200 H 0.82715 0.41766 0.44599
 Cu1201 Cu 0.99097 0.41030 0.40553
 Cu1202 Cu 0.98805 0.37901 0.37482
 Cu1203 Cu 1.01056 0.59396 0.40791
 Cu1204 Cu 1.01336 0.62656 0.37840
 Cu1205 Cu 0.91019 0.51202 0.40619
 Cu1206 Cu 0.87958 0.51579 0.37534
 Cu1207 Cu 1.09297 0.49426 0.40434
 Cu1208 Cu 1.12345 0.49135 0.37338
 C1209 C 0.93864 0.45121 0.36741
 H1210 H 0.94769 0.45837 0.38107
 C1211 C 0.91372 0.43168 0.33358
 C1212 C 1.06452 0.55560 0.36783
 H1213 H 1.05561 0.54725 0.38094
 C1214 C 1.08880 0.57848 0.33547
 C1215 C 0.86613 0.45841 0.44112
 H1216 H 0.88128 0.46407 0.44865
 C1217 C 0.82792 0.44265 0.42031
 C1218 C 1.13615 0.54714 0.44108
 H1219 H 1.12337 0.53852 0.45019
 C1220 C 1.16725 0.57090 0.41625
 C1221 C 0.93016 0.37877 0.44026
 H1222 H 0.93825 0.39350 0.44675
 C1223 C 0.90819 0.34148 0.42260
 C1224 C 1.07110 0.62547 0.44360
 H1225 H 1.06695 0.60802 0.44605
 C1226 C 1.08168 0.67065 0.43725
 C1227 C 0.95020 0.56666 0.36985
 H1228 H 0.95367 0.56175 0.38670
 C1229 C 0.94099 0.57979 0.32632
 C1230 C 1.05181 0.44011 0.36800
 H1231 H 1.04561 0.44832 0.38265
 C1232 C 1.06874 0.41742 0.33116
 C1233 C 1.04468 0.36740 0.43973
 H1234 H 1.04145 0.38452 0.44456
 C1235 C 1.05364 0.32327 0.42674
 C1236 C 0.95587 0.63583 0.44327
 H1237 H 0.95899 0.61863 0.44793
 C1238 C 0.94748 0.68024 0.43067
 C1239 C 0.87841 0.57333 0.44129
 H1240 H 0.89541 0.56896 0.44432
 C1241 C 0.83441 0.58437 0.43345
 C1242 C 1.12418 0.43322 0.43876
 H1243 H 1.10969 0.44156 0.44503
 C1244 C 1.16076 0.41043 0.42167
 O1245 O 1.01312 0.41967 0.60920
 O1246 O 1.01028 0.39294 0.63415
 C1247 C 1.01942 0.41071 0.62711
 C1248 C 1.03856 0.42007 0.63907
 C1249 C 1.04590 0.40992 0.65853
 H1250 H 1.03583 0.39709 0.66605
 O1251 O 0.98695 0.57936 0.61118
 O1252 O 0.98982 0.60515 0.63700
 C1253 C 0.98071 0.58765 0.62941
 C1254 C 0.96240 0.57697 0.64159
 C1255 C 0.95779 0.58279 0.66353
 H1256 H 0.96797 0.59505 0.67181
 O1257 O 0.89310 0.53288 0.58154
 O1258 O 0.86774 0.53565 0.60735
 C1259 C 0.87634 0.54259 0.58949
 C1260 C 0.86709 0.56230 0.57787
 C1261 C 0.84809 0.57308 0.58573
 H1262 H 0.84000 0.56692 0.60045
 O1263 O 1.10802 0.46667 0.57975
 O1264 O 1.13354 0.46337 0.60533
 C1265 C 1.12495 0.45693 0.58733
 C1266 C 1.13425 0.43757 0.57528
 C1267 C 1.15218 0.42555 0.58388
 H1268 H 1.15959 0.43074 0.59928
 O1269 O 1.06905 0.38599 0.51848
 O1270 O 1.09202 0.35748 0.51774
 C1271 C 1.07555 0.36736 0.52611
 C1272 C 1.06555 0.35797 0.54629
 C1273 C 1.07773 0.34250 0.55848
 H1274 H 1.09269 0.33568 0.55154
 O1275 O 0.93172 0.61760 0.52191
 O1276 O 0.90926 0.64651 0.52213
 C1277 C 0.92607 0.63647 0.52960
 C1278 C 0.93885 0.64646 0.54784
 C1279 C 0.93421 0.66819 0.55518
 H1280 H 0.92192 0.67807 0.54672
 O1281 O 0.91701 0.48464 0.61031
 O1282 O 0.89153 0.48669 0.63608
 C1283 C 0.90814 0.47700 0.62776
 C1284 C 0.91695 0.45620 0.63778
 C1285 C 0.90605 0.44546 0.65543
 H1286 H 0.89124 0.45268 0.66228
 O1287 O 1.08309 0.51311 0.61039
 O1288 O 1.10865 0.51028 0.63601
 C1289 C 1.09184 0.52003 0.62816
 C1290 C 1.08289 0.54028 0.63903
 C1291 C 1.09431 0.55068 0.65647
 H1292 H 1.10927 0.54334 0.66287
 O1293 O 0.96992 0.39243 0.57638
 O1294 O 0.96798 0.36481 0.60044
 C1295 C 0.96138 0.37415 0.58279
 C1296 C 0.94312 0.36419 0.56987
 C1297 C 0.93617 0.34202 0.57355
 H1298 H 0.94480 0.33168 0.58538
 O1299 O 1.03135 0.60600 0.57954
 O1300 O 1.03352 0.63259 0.60466
 C1301 C 1.04003 0.62389 0.58668
 C1302 C 1.05793 0.63465 0.57404
 C1303 C 1.06321 0.65714 0.57774
 H1304 H 1.05398 0.66667 0.58978
 O1305 O 0.88210 0.43277 0.52043
 O1306 O 0.85460 0.40877 0.52032
 C1307 C 0.86384 0.42603 0.52820
 C1308 C 0.85379 0.43799 0.54711
 C1309 C 0.83455 0.42985 0.55734
 H1310 H 0.82651 0.41504 0.55097
 O1311 O 1.11870 0.56936 0.52160
 O1312 O 1.14602 0.59355 0.52245
 C1313 C 1.13675 0.57599 0.52981
 C1314 C 1.14641 0.56365 0.54876
 C1315 C 1.16482 0.57219 0.56007
 H1316 H 1.17243 0.58758 0.55452
 O1317 O 1.02983 0.57598 0.61025
 O1318 O 1.03266 0.60244 0.63539
 C1319 C 1.03867 0.58370 0.62764
 C1320 C 1.05682 0.57139 0.63848
 C1321 C 1.06844 0.58144 0.65578
 H1322 H 1.06332 0.59761 0.66197
 O1323 O 0.97035 0.42189 0.60789
 O1324 O 0.96750 0.39446 0.63205
 C1325 C 0.96147 0.41349 0.62497
 C1326 C 0.94335 0.42544 0.63628
 C1327 C 0.93269 0.41540 0.65419
 H1328 H 0.93898 0.39978 0.66065
 O1329 O 1.11193 0.51009 0.57928
 O1330 O 1.13751 0.50698 0.60483
 C1331 C 1.13045 0.51579 0.58708
 C1332 C 1.14337 0.53379 0.57629
 C1333 C 1.16219 0.54209 0.58672
 H1334 H 1.16831 0.53368 0.60130
 O1335 O 0.88838 0.48972 0.57949
 O1336 O 0.86284 0.49219 0.60517
 C1337 C 0.86978 0.48405 0.58709
 C1338 C 0.85666 0.46683 0.57554
 C1339 C 0.83729 0.45880 0.58514
 H1340 H 0.83102 0.46671 0.59993
 O1341 O 1.09058 0.60182 0.52194
 O1342 O 1.11763 0.62641 0.52247
 C1343 C 1.09909 0.61965 0.52948
 C1344 C 1.08713 0.63261 0.54645
 C1345 C 1.09240 0.65516 0.55058
 H1346 H 1.10541 0.66327 0.54134
 O1347 O 0.91087 0.40069 0.51926
 O1348 O 0.88354 0.37645 0.51885
 C1349 C 0.90220 0.38265 0.52607
 C1350 C 0.91398 0.36869 0.54243
 C1351 C 0.90729 0.34661 0.54636
 H1352 H 0.89328 0.33996 0.53750
 O1353 O 1.07801 0.46969 0.60998
 O1354 O 1.10343 0.46659 0.63568
 C1355 C 1.08486 0.46102 0.62784
 C1356 C 1.07122 0.44387 0.63911
 C1357 C 1.07883 0.43273 0.65813
 H1358 H 1.09480 0.43692 0.66481
 O1359 O 0.92319 0.52786 0.61142
 O1360 O 0.89807 0.53011 0.63754
 C1361 C 0.91671 0.53562 0.62978
 C1362 C 0.93094 0.55156 0.64181
 C1363 C 0.92646 0.55762 0.66375
 H1364 H 0.91274 0.55003 0.67235
 O1365 O 0.98875 0.61016 0.58086
 O1366 O 0.99113 0.63607 0.60660
 C1367 C 0.98294 0.62897 0.58867
 C1368 C 0.96640 0.64268 0.57688
 C1369 C 0.96145 0.66444 0.58407
 H1370 H 0.96982 0.67124 0.59834
 O1371 O 1.01304 0.38972 0.57875
 O1372 O 1.01120 0.36305 0.60386
 C1373 C 1.02006 0.37141 0.58678
 C1374 C 1.03936 0.36039 0.57667
 C1375 C 1.05258 0.34563 0.58916
 H1376 H 1.04832 0.34181 0.60611
 O1377 O 1.10281 0.41193 0.51831
 O1378 O 1.12554 0.38325 0.51743
 C1379 C 1.11965 0.40180 0.52568
 C1380 C 1.13182 0.41098 0.54479
 C1381 C 1.14985 0.39935 0.55350
 H1382 H 1.15586 0.38461 0.54510
 O1383 O 0.89892 0.59034 0.52192
 O1384 O 0.87631 0.61913 0.52225
 C1385 C 0.88218 0.60019 0.52975
 C1386 C 0.86985 0.59001 0.54828
 C1387 C 0.85070 0.60024 0.55613
 H1388 H 0.84424 0.61467 0.54752
 Cu1389 Cu 0.99175 0.40854 0.59050
 Cu1390 Cu 0.98882 0.37609 0.62007
 Cu1391 Cu 1.00885 0.59020 0.59295
 Cu1392 Cu 1.01201 0.62162 0.62353
 Cu1393 Cu 0.89898 0.41967 0.49840
 Cu1394 Cu 0.86593 0.39089 0.49813
 Cu1395 Cu 1.08347 0.40202 0.49663
 Cu1396 Cu 1.11070 0.36749 0.49595
 Cu1397 Cu 0.91741 0.60149 0.50028
 Cu1398 Cu 0.89018 0.63601 0.50066
 Cu1399 Cu 1.10211 0.58359 0.50018
 Cu1400 Cu 1.13486 0.61275 0.50099
 Cu1401 Cu 0.90802 0.50865 0.59319
 Cu1402 Cu 0.87747 0.51153 0.62412
 Cu1403 Cu 1.09266 0.49010 0.59236
 Cu1404 Cu 1.12336 0.48646 0.62302
 C1405 C 1.05108 0.43736 0.62974
 H1406 H 1.04553 0.44515 0.61460
 C1407 C 1.06635 0.41547 0.66787
 C1408 C 0.94903 0.56118 0.63100
 H1409 H 0.95240 0.55680 0.61399
 C1410 C 0.94000 0.57302 0.67483
 C1411 C 0.87780 0.57091 0.55910
 H1412 H 0.89269 0.56304 0.55319
 C1413 C 0.83985 0.59218 0.57498
 C1414 C 1.12429 0.43020 0.55566
 H1415 H 1.11018 0.43904 0.54919
 C1416 C 1.15998 0.40629 0.57316
 C1417 C 1.04624 0.36675 0.55537
 H1418 H 1.03695 0.37905 0.54614
 C1419 C 1.07228 0.33730 0.58030
 C1420 C 0.95511 0.63391 0.55865
 H1421 H 0.95862 0.61704 0.55319
 C1422 C 0.94543 0.67735 0.57327
 C1423 C 0.93555 0.44597 0.62835
 H1424 H 0.94367 0.45372 0.61439
 C1425 C 0.91365 0.42477 0.66347
 C1426 C 1.06404 0.55070 0.63033
 H1427 H 1.05542 0.54312 0.61661
 C1428 C 1.08733 0.57147 0.66458
 C1429 C 0.93205 0.37726 0.55408
 H1430 H 0.93717 0.39438 0.55124
 C1431 C 0.91845 0.33299 0.56156
 C1432 C 1.06978 0.62258 0.55818
 H1433 H 1.06570 0.60520 0.55520
 C1434 C 1.08015 0.66761 0.56587
 C1435 C 0.86462 0.45657 0.55633
 H1436 H 0.87979 0.46250 0.54904
 C1437 C 0.82645 0.43999 0.57661
 C1438 C 1.13577 0.54446 0.55710
 H1439 H 1.12105 0.53828 0.54911
 C1440 C 1.17256 0.56172 0.57936
 O1441 O 0.57942 1.01208 0.61344
 O1442 O 0.60501 1.00954 0.63906
 C1443 C 0.58831 1.01930 0.63102
 C1444 C 0.57968 1.03989 0.64149
 C1445 C 0.59173 1.05097 0.65809
 H1446 H 0.60703 1.04397 0.66403
 O1447 O 0.41919 0.98175 0.61144
 O1448 O 0.39302 0.98378 0.63650
 C1449 C 0.41019 0.97452 0.62900
 C1450 C 0.41929 0.95453 0.64012
 C1451 C 0.40936 0.94571 0.65923
 H1452 H 0.39551 0.95416 0.66671
 O1453 O 0.53076 1.10668 0.58214
 O1454 O 0.53287 1.13295 0.60755
 C1455 C 0.53994 1.12409 0.58988
 C1456 C 0.55947 1.13352 0.57852
 C1457 C 0.56982 1.15306 0.58634
 H1458 H 0.56320 1.16175 0.60052
 O1459 O 0.46903 0.88806 0.57920
 O1460 O 0.46631 0.86085 0.60367
 C1461 C 0.46018 0.86999 0.58574
 C1462 C 0.44252 0.85981 0.57226
 C1463 C 0.43632 0.83735 0.57522
 H1464 H 0.44488 0.82717 0.58724
 O1465 O 0.61659 1.06650 0.52469
 O1466 O 0.64479 1.08968 0.52534
 C1467 C 0.63509 1.07233 0.53253
 C1468 C 0.64508 1.05907 0.55057
 C1469 C 0.66653 1.06360 0.55794
 H1470 H 0.67625 1.07631 0.54975
 O1471 O 0.38546 0.92794 0.51927
 O1472 O 0.35749 0.90447 0.51893
 C1473 C 0.36685 0.92179 0.52660
 C1474 C 0.35631 0.93470 0.54454
 C1475 C 0.33435 0.93062 0.55064
 H1476 H 0.32473 0.91839 0.54167
 O1477 O 0.48501 1.08030 0.61196
 O1478 O 0.48671 1.10653 0.63744
 C1479 C 0.47785 1.08897 0.62968
 C1480 C 0.45850 1.07888 0.64074
 C1481 C 0.44901 1.08897 0.65943
 H1482 H 0.45633 1.10383 0.66656
 O1483 O 0.51283 0.91404 0.61172
 O1484 O 0.50989 0.88778 0.63713
 C1485 C 0.51890 0.90554 0.62992
 C1486 C 0.53668 0.91669 0.64247
 C1487 C 0.54024 0.91220 0.66499
 H1488 H 0.52991 0.90027 0.67360
 O1489 O 0.60413 0.96531 0.58294
 O1490 O 0.62950 0.96233 0.60875
 C1491 C 0.62129 0.95603 0.59051
 C1492 C 0.63208 0.93805 0.57775
 C1493 C 0.65418 0.93293 0.58157
 H1494 H 0.66320 0.94198 0.59413
 O1495 O 0.39420 1.02822 0.58058
 O1496 O 0.36785 1.02991 0.60552
 C1497 C 0.37661 1.03697 0.58782
 C1498 C 0.36617 1.05557 0.57565
 C1499 C 0.34463 1.06193 0.58066
 H1500 H 0.33565 1.05304 0.59338
 O1501 O 0.43034 1.11567 0.52254
 O1502 O 0.40724 1.14404 0.52273
 C1503 C 0.42444 1.13458 0.53001
 C1504 C 0.43752 1.14534 0.54766
 C1505 C 0.43339 1.16754 0.55407
 H1506 H 0.42109 1.17721 0.54540
 O1507 O 0.56905 0.87961 0.52265
 O1508 O 0.59229 0.85135 0.52277
 C1509 C 0.57504 0.86068 0.53003
 C1510 C 0.56192 0.84970 0.54748
 C1511 C 0.56551 0.82721 0.55320
 H1512 H 0.57764 0.81752 0.54431
 O1513 O 0.42404 1.02531 0.61091
 O1514 O 0.39772 1.02739 0.63582
 C1515 C 0.41630 1.03368 0.62849
 C1516 C 0.42848 1.05164 0.64000
 C1517 C 0.41927 1.06198 0.65851
 H1518 H 0.40383 1.05594 0.66516
 O1519 O 0.57409 0.96856 0.61323
 O1520 O 0.59913 0.96596 0.63939
 C1521 C 0.58063 0.96037 0.63140
 C1522 C 0.56662 0.94399 0.64311
 C1523 C 0.56972 0.93963 0.66559
 H1524 H 0.58232 0.94858 0.67463
 O1525 O 0.51145 0.88444 0.58063
 O1526 O 0.50882 0.85779 0.60569
 C1527 C 0.51716 0.86544 0.58802
 C1528 C 0.53366 0.85217 0.57592
 C1529 C 0.53742 0.82973 0.58144
 H1530 H 0.52821 0.82214 0.59479
 O1531 O 0.48794 1.11012 0.58096
 O1532 O 0.49010 1.13645 0.60631
 C1533 C 0.48214 1.12908 0.58836
 C1534 C 0.46571 1.14253 0.57618
 C1535 C 0.46122 1.16461 0.58251
 H1536 H 0.46996 1.17178 0.59637
 O1537 O 0.39772 1.08758 0.52270
 O1538 O 0.37430 1.11567 0.52311
 C1539 C 0.38049 1.09674 0.53031
 C1540 C 0.36786 1.08510 0.54780
 C1541 C 0.34622 1.09147 0.55325
 H1542 H 0.33837 1.10511 0.54452
 O1543 O 0.60144 0.90776 0.52327
 O1544 O 0.62506 0.87982 0.52318
 C1545 C 0.61869 0.89856 0.53074
 C1546 C 0.63114 0.90991 0.54852
 C1547 C 0.65335 0.90483 0.55272
 H1548 H 0.66174 0.89240 0.54284
 O1549 O 0.47032 0.91753 0.61038
 O1550 O 0.46713 0.89063 0.63509
 C1551 C 0.46150 0.90966 0.62771
 C1552 C 0.44418 0.92255 0.63910
 C1553 C 0.43395 0.91388 0.65798
 H1554 H 0.43932 0.89803 0.66476
 O1555 O 0.52759 1.07576 0.61176
 O1556 O 0.52952 1.10202 0.63721
 C1557 C 0.53571 1.08327 0.62956
 C1558 C 0.55355 1.07089 0.64078
 C1559 C 0.56547 1.08136 0.65758
 H1560 H 0.56026 1.09758 0.66354
 O1561 O 0.39113 0.98484 0.57945
 O1562 O 0.36485 0.98680 0.60444
 C1563 C 0.37236 0.97892 0.58649
 C1564 C 0.35917 0.96260 0.57381
 C1565 C 0.33727 0.95834 0.57963
 H1566 H 0.33007 0.96714 0.59346
 O1567 O 0.60902 1.00844 0.58321
 O1568 O 0.63454 1.00531 0.60886
 C1569 C 0.62770 1.01381 0.59091
 C1570 C 0.64139 1.03043 0.57910
 C1571 C 0.66280 1.03519 0.58627
 H1572 H 0.66941 1.02637 0.60039
 O1573 O 0.41309 0.89491 0.51911
 O1574 O 0.38535 0.87114 0.51863
 C1575 C 0.40391 0.87721 0.52615
 C1576 C 0.41499 0.86353 0.54317
 C1577 C 0.40883 0.84119 0.54651
 H1578 H 0.39562 0.83417 0.53675
 O1579 O 0.58926 1.09969 0.52468
 O1580 O 0.61739 1.12295 0.52539
 C1581 C 0.59866 1.11690 0.53251
 C1582 C 0.58805 1.12978 0.55042
 C1583 C 0.59793 1.14937 0.55826
 H1584 H 0.61263 1.15561 0.55029
 Cu1585 Cu 0.58902 0.98882 0.59573
 Cu1586 Cu 0.61949 0.98529 0.62672
 Cu1587 Cu 0.40986 1.00479 0.59318
 Cu1588 Cu 0.37831 1.00716 0.62317
 Cu1589 Cu 0.50755 1.09062 0.59414
 Cu1590 Cu 0.50993 1.12208 0.62473
 Cu1591 Cu 0.49123 0.90371 0.59302
 Cu1592 Cu 0.48777 0.87158 0.62295
 C1593 C 0.56058 1.05000 0.63302
 H1594 H 0.55164 1.04203 0.61971
 C1595 C 0.58494 1.07200 0.66578
 C1596 C 0.43688 0.94297 0.63041
 H1597 H 0.44442 0.94949 0.61554
 C1598 C 0.41649 0.92525 0.66804
 C1599 C 0.56869 1.12209 0.56048
 H1600 H 0.56114 1.10680 0.55462
 C1601 C 0.58920 1.16097 0.57636
 C1602 C 0.43194 0.87265 0.55599
 H1603 H 0.43664 0.88996 0.55356
 C1604 C 0.41968 0.82778 0.56214
 C1605 C 0.63276 1.04230 0.56111
 H1606 H 0.61613 1.03891 0.55569
 C1607 C 0.67558 1.05163 0.57573
 C1608 C 0.36848 0.95087 0.55610
 H1609 H 0.38546 0.95394 0.55166
 C1610 C 0.32464 0.94259 0.56804
 C1611 C 0.44823 1.06005 0.63135
 H1612 H 0.45515 1.05243 0.61671
 C1613 C 0.42923 1.08073 0.66812
 C1614 C 0.54994 0.93263 0.63177
 H1615 H 0.54748 0.93600 0.61438
 C1616 C 0.55645 0.92402 0.67670
 C1617 C 0.62074 0.92664 0.56107
 H1618 H 0.60367 0.93067 0.55797
 C1619 C 0.66507 0.91675 0.56889
 C1620 C 0.37758 1.06706 0.55906
 H1621 H 0.39426 1.06215 0.55516
 C1622 C 0.33439 1.07956 0.56940
 C1623 C 0.45391 1.13310 0.55863
 H1624 H 0.45707 1.11595 0.55389
 C1625 C 0.44528 1.17740 0.57143
 C1626 C 0.54584 0.86195 0.55881
 H1627 H 0.54311 0.87934 0.55460
 C1628 C 0.55314 0.81702 0.57004
 O1629 O 0.57776 0.97047 0.39100
 O1630 O 0.60341 0.96881 0.36533
 C1631 C 0.58474 0.96295 0.37273
 C1632 C 0.57104 0.94722 0.35997
 C1633 C 0.57541 0.94336 0.33766
 H1634 H 0.58915 0.95185 0.32995
 O1635 O 0.42599 1.03043 0.39062
 O1636 O 0.40078 1.03296 0.36464
 C1637 C 0.41909 1.03900 0.37276
 C1638 C 0.43190 1.05685 0.36171
 C1639 C 0.42308 1.06783 0.34334
 H1640 H 0.40744 1.06246 0.33662
 O1641 O 0.49027 1.11214 0.42241
 O1642 O 0.49291 1.13876 0.39735
 C1643 C 0.48404 1.13081 0.41468
 C1644 C 0.46532 1.14266 0.42505
 C1645 C 0.45528 1.16057 0.41390
 H1646 H 0.46200 1.16660 0.39844
 O1647 O 0.51310 0.88773 0.41934
 O1648 O 0.51137 0.86191 0.39346
 C1649 C 0.51910 0.86898 0.41169
 C1650 C 0.53525 0.85534 0.42410
 C1651 C 0.53961 0.83326 0.41773
 H1652 H 0.53117 0.82626 0.40361
 O1653 O 0.60180 0.90822 0.48018
 O1654 O 0.62485 0.87981 0.48007
 C1655 C 0.61877 0.89864 0.47254
 C1656 C 0.63107 0.90892 0.45408
 C1657 C 0.64974 0.89828 0.44565
 H1658 H 0.65601 0.88354 0.45390
 O1659 O 0.39742 1.08795 0.47965
 O1660 O 0.37404 1.11608 0.48013
 C1661 C 0.38027 1.09746 0.47226
 C1662 C 0.36811 1.08737 0.45358
 C1663 C 0.34905 1.09758 0.44543
 H1664 H 0.34217 1.11154 0.45441
 O1665 O 0.53147 1.07922 0.39229
 O1666 O 0.53457 1.10586 0.36731
 C1667 C 0.54032 1.08692 0.37489
 C1668 C 0.55790 1.07390 0.36387
 C1669 C 0.56883 1.08244 0.34517
 H1670 H 0.56420 1.09860 0.33860
 O1671 O 0.47300 0.92167 0.38905
 O1672 O 0.47077 0.89591 0.36312
 C1673 C 0.46465 0.91451 0.37122
 C1674 C 0.44707 0.92758 0.36034
 C1675 C 0.43519 0.91840 0.34260
 H1676 H 0.43926 0.90189 0.33655
 O1677 O 0.61186 1.00956 0.42277
 O1678 O 0.63794 1.00716 0.39763
 C1679 C 0.63067 1.01519 0.41559
 C1680 C 0.64395 1.03166 0.42797
 C1681 C 0.66560 1.03640 0.42160
 H1682 H 0.67285 1.02749 0.40786
 O1683 O 0.39192 0.98882 0.41968
 O1684 O 0.36692 0.99132 0.39347
 C1685 C 0.37381 0.98256 0.41129
 C1686 C 0.36117 0.96412 0.42158
 C1687 C 0.34280 0.95527 0.41068
 H1688 H 0.33703 0.96305 0.39562
 O1689 O 0.58995 1.10050 0.48174
 O1690 O 0.61807 1.12377 0.48252
 C1691 C 0.59954 1.11800 0.47473
 C1692 C 0.58938 1.13151 0.45697
 C1693 C 0.59942 1.15137 0.44995
 H1694 H 0.61386 1.15739 0.45854
 O1695 O 0.41308 0.89515 0.47605
 O1696 O 0.38511 0.87168 0.47573
 C1697 C 0.40359 0.87797 0.46819
 C1698 C 0.41352 0.86581 0.44938
 C1699 C 0.40182 0.84853 0.43908
 H1700 H 0.38628 0.84306 0.44595
 O1701 O 0.42182 0.98682 0.38942
 O1702 O 0.39673 0.98955 0.36333
 C1703 C 0.41357 0.98003 0.37136
 C1704 C 0.42265 0.96001 0.36022
 C1705 C 0.41156 0.95091 0.34207
 H1706 H 0.39780 0.95989 0.33504
 O1707 O 0.58238 1.01388 0.39223
 O1708 O 0.60846 1.01200 0.36706
 C1709 C 0.59134 1.02131 0.37476
 C1710 C 0.58239 1.04152 0.36373
 C1711 C 0.59249 1.04990 0.34465
 H1712 H 0.60556 1.04034 0.33709
 O1713 O 0.47032 0.89007 0.41782
 O1714 O 0.46846 0.86422 0.39196
 C1715 C 0.46128 0.87273 0.40974
 C1716 C 0.44162 0.86315 0.42067
 C1717 C 0.42948 0.84598 0.41046
 H1718 H 0.43502 0.83902 0.39493
 O1719 O 0.53320 1.10922 0.42291
 O1720 O 0.53614 1.13608 0.39814
 C1721 C 0.54256 1.12685 0.41589
 C1722 C 0.56162 1.13605 0.42816
 C1723 C 0.57218 1.15578 0.42113
 H1724 H 0.56601 1.16475 0.40691
 O1725 O 0.38603 0.92842 0.47610
 O1726 O 0.35814 0.90485 0.47568
 C1727 C 0.36774 0.92213 0.46813
 C1728 C 0.35812 0.93445 0.44924
 C1729 C 0.33981 0.92577 0.43793
 H1730 H 0.33212 0.91045 0.44358
 O1731 O 0.61725 1.06719 0.48159
 O1732 O 0.64543 1.09039 0.48232
 C1733 C 0.63598 1.07323 0.47445
 C1734 C 0.64655 1.06032 0.45654
 C1735 C 0.66818 1.06505 0.44977
 H1736 H 0.67758 1.07792 0.45809
 O1737 O 0.51543 0.91726 0.38788
 O1738 O 0.51358 0.89187 0.36159
 C1739 C 0.52218 0.90941 0.36961
 C1740 C 0.54045 0.92088 0.35809
 C1741 C 0.54492 0.91726 0.33553
 H1742 H 0.53466 0.90603 0.32603
 O1743 O 0.48880 1.08346 0.39068
 O1744 O 0.49161 1.11001 0.36556
 C1745 C 0.48225 1.09250 0.37287
 C1746 C 0.46281 1.08308 0.36138
 C1747 C 0.45361 1.09389 0.34286
 H1748 H 0.46132 1.10869 0.33603
 O1749 O 0.39417 1.03252 0.41923
 O1750 O 0.36904 1.03499 0.39317
 C1751 C 0.37703 1.04169 0.41132
 C1752 C 0.36675 1.06064 0.42321
 C1753 C 0.34805 1.07163 0.41476
 H1754 H 0.34091 1.06606 0.39936
 O1755 O 0.60755 0.96617 0.42122
 O1756 O 0.63321 0.96381 0.39567
 C1757 C 0.62449 0.95666 0.41336
 C1758 C 0.63376 0.93685 0.42474
 C1759 C 0.65223 0.92560 0.41622
 H1760 H 0.65998 0.93159 0.40125
 O1761 O 0.56906 0.88079 0.47966
 O1762 O 0.59195 0.85223 0.47969
 C1763 C 0.57504 0.86200 0.47201
 C1764 C 0.56241 0.85176 0.45368
 C1765 C 0.56648 0.82964 0.44706
 H1766 H 0.57840 0.81966 0.45594
 O1767 O 0.43060 1.11491 0.47947
 O1768 O 0.40719 1.14302 0.47947
 C1769 C 0.42417 1.13348 0.47166
 C1770 C 0.43586 1.14361 0.45263
 C1771 C 0.42601 1.16119 0.44096
 H1772 H 0.41040 1.16792 0.44640
 Cu1773 Cu 0.59231 0.99018 0.40938
 Cu1774 Cu 0.62335 0.98773 0.37886
 Cu1775 Cu 0.41098 1.00951 0.40738
 Cu1776 Cu 0.38090 1.01249 0.37602
 Cu1777 Cu 0.60050 1.08106 0.50308
 Cu1778 Cu 0.63422 1.10906 0.50396
 Cu1779 Cu 0.58303 0.89693 0.50155
 Cu1780 Cu 0.61089 0.86297 0.50147
 Cu1781 Cu 0.41632 1.09869 0.50121
 Cu1782 Cu 0.38843 1.13260 0.50149
 Cu1783 Cu 0.40216 0.91401 0.49776
 Cu1784 Cu 0.36869 0.88570 0.49735
 Cu1785 Cu 0.51070 1.09336 0.40955
 Cu1786 Cu 0.51416 1.12540 0.37964
 Cu1787 Cu 0.49328 0.90671 0.40609
 Cu1788 Cu 0.49103 0.87586 0.37493
 C1789 C 0.55347 0.93607 0.37000
 H1790 H 0.55019 0.93892 0.38734
 C1791 C 0.56216 0.92894 0.32507
 C1792 C 0.45190 1.06441 0.37048
 H1793 H 0.45853 1.05628 0.38499
 C1794 C 0.43357 1.08643 0.33405
 C1795 C 0.45558 1.13441 0.44456
 H1796 H 0.46290 1.12029 0.45300
 C1797 C 0.43543 1.16945 0.42151
 C1798 C 0.54660 0.86440 0.44222
 H1799 H 0.54347 0.88152 0.44709
 C1800 C 0.55502 0.82021 0.42920
 C1801 C 0.62334 0.92835 0.44370
 H1802 H 0.60879 0.93652 0.45006
 C1803 C 0.66021 0.90612 0.42650
 C1804 C 0.37658 1.06869 0.44260
 H1805 H 0.39136 1.06083 0.44879
 C1806 C 0.33912 1.09033 0.42569
 C1807 C 0.56487 1.05346 0.37303
 H1808 H 0.55706 1.04713 0.38783
 C1809 C 0.58637 1.07065 0.33555
 C1810 C 0.44062 0.94839 0.36907
 H1811 H 0.44909 0.95516 0.38329
 C1812 C 0.41710 0.92978 0.33367
 C1813 C 0.63467 1.04350 0.44562
 H1814 H 0.61789 1.04002 0.45049
 C1815 C 0.67787 1.05297 0.43244
 C1816 C 0.36860 0.95373 0.44098
 H1817 H 0.38306 0.96018 0.44922
 C1818 C 0.33233 0.93587 0.41841
 C1819 C 0.57032 1.12412 0.44617
 H1820 H 0.56264 1.10865 0.45139
 C1821 C 0.59122 1.16348 0.43189
 C1822 C 0.43356 0.87283 0.44021
 H1823 H 0.44246 0.88648 0.44784
 C1824 C 0.40935 0.83889 0.41937
 O1825 O 0.58107 0.51472 1.11100
 O1826 O 0.60667 0.51309 1.13668
 C1827 C 0.58956 0.52216 1.12864
 C1828 C 0.58019 0.54224 1.13933
 C1829 C 0.59124 0.55213 1.15707
 H1830 H 0.60558 0.54397 1.16391
 O1831 O 0.41905 0.48114 1.10756
 O1832 O 0.39329 0.48265 1.13312
 C1833 C 0.41056 0.47379 1.12529
 C1834 C 0.42006 0.45403 1.13642
 C1835 C 0.40950 0.44498 1.15488
 H1836 H 0.39562 0.45372 1.16197
 O1837 O 0.52732 0.60685 1.07973
 O1838 O 0.52807 0.63335 1.10501
 C1839 C 0.53517 0.62502 1.08708
 C1840 C 0.55303 0.63632 1.07489
 C1841 C 0.55803 0.65875 1.07915
 H1842 H 0.54844 0.66794 1.09116
 O1843 O 0.47387 0.38997 1.07725
 O1844 O 0.47252 0.36276 1.10183
 C1845 C 0.46604 0.37146 1.08384
 C1846 C 0.44906 0.35998 1.07063
 C1847 C 0.44470 0.33730 1.07416
 H1848 H 0.45409 0.32814 1.08637
 O1849 O 0.61590 0.57153 1.02387
 O1850 O 0.64274 0.59628 1.02501
 C1851 C 0.63401 0.57824 1.03188
 C1852 C 0.64478 0.56503 1.04953
 C1853 C 0.66633 0.56994 1.05630
 H1854 H 0.67545 0.58318 1.04819
 O1855 O 0.38657 0.42386 1.01963
 O1856 O 0.36034 0.39842 1.01945
 C1857 C 0.36874 0.41617 1.02741
 C1858 C 0.35836 0.42758 1.04649
 C1859 C 0.34059 0.41767 1.05775
 H1860 H 0.33386 0.40194 1.05201
 O1861 O 0.48412 0.57768 1.11064
 O1862 O 0.48577 0.60320 1.13684
 C1863 C 0.47727 0.58556 1.12881
 C1864 C 0.45875 0.57446 1.14028
 C1865 C 0.45278 0.58086 1.16167
 H1866 H 0.46205 0.59393 1.16979
 O1867 O 0.51586 0.41853 1.11047
 O1868 O 0.51337 0.39208 1.13574
 C1869 C 0.52207 0.41003 1.12862
 C1870 C 0.54049 0.42025 1.14094
 C1871 C 0.54785 0.41046 1.16056
 H1872 H 0.53846 0.39690 1.16777
 O1873 O 0.60802 0.46831 1.08208
 O1874 O 0.63318 0.46601 1.10815
 C1875 C 0.62486 0.45892 1.09026
 C1876 C 0.63423 0.43907 1.07918
 C1877 C 0.64971 0.42543 1.08999
 H1878 H 0.65541 0.42984 1.10634
 O1879 O 0.39156 0.52689 1.07779
 O1880 O 0.36566 0.52792 1.10321
 C1881 C 0.37386 0.53513 1.08531
 C1882 C 0.36274 0.55334 1.07316
 C1883 C 0.34098 0.55907 1.07806
 H1884 H 0.33224 0.55000 1.09083
 O1885 O 0.42665 0.61349 1.02230
 O1886 O 0.40241 0.64085 1.02280
 C1887 C 0.41944 0.63146 1.03070
 C1888 C 0.43005 0.64078 1.05070
 C1889 C 0.41889 0.65689 1.06317
 H1890 H 0.40339 0.66349 1.05728
 O1891 O 0.57326 0.38559 1.02050
 O1892 O 0.59699 0.35775 1.01990
 C1893 C 0.58010 0.36704 1.02809
 C1894 C 0.56958 0.35691 1.04778
 C1895 C 0.58051 0.33976 1.05907
 H1896 H 0.59531 0.33266 1.05205
 O1897 O 0.42143 0.52457 1.10872
 O1898 O 0.39570 0.52596 1.13428
 C1899 C 0.41427 0.53217 1.12692
 C1900 C 0.42770 0.54857 1.13939
 C1901 C 0.42213 0.55490 1.16107
 H1902 H 0.40820 0.54713 1.16911
 O1903 O 0.57825 0.47126 1.11239
 O1904 O 0.60341 0.46943 1.13849
 C1905 C 0.58512 0.46316 1.13052
 C1906 C 0.57189 0.44573 1.14180
 C1907 C 0.57943 0.43518 1.16118
 H1908 H 0.59491 0.44024 1.16844
 O1909 O 0.51664 0.38809 1.08024
 O1910 O 0.51523 0.36167 1.10563
 C1911 C 0.52377 0.36984 1.08827
 C1912 C 0.54269 0.35854 1.07770
 C1913 C 0.55430 0.34168 1.08903
 H1914 H 0.54910 0.33651 1.10535
 O1915 O 0.48436 0.60907 1.08136
 O1916 O 0.48521 0.63460 1.10758
 C1917 C 0.47703 0.62703 1.08982
 C1918 C 0.45800 0.63859 1.07968
 C1919 C 0.44641 0.65475 1.09189
 H1920 H 0.45191 0.65938 1.10826
 O1921 O 0.39390 0.58623 1.02070
 O1922 O 0.36953 0.61352 1.02066
 C1923 C 0.37619 0.59477 1.02791
 C1924 C 0.36367 0.58271 1.04516
 C1925 C 0.34185 0.58844 1.05041
 H1926 H 0.33369 0.60178 1.04152
 O1927 O 0.60537 0.41351 1.02105
 O1928 O 0.62888 0.38547 1.02046
 C1929 C 0.62221 0.40372 1.02875
 C1930 C 0.63321 0.41259 1.04860
 C1931 C 0.64896 0.39950 1.05937
 H1932 H 0.65456 0.38414 1.05179
 O1933 O 0.47303 0.41884 1.10905
 O1934 O 0.47044 0.39185 1.13372
 C1935 C 0.46404 0.41053 1.12612
 C1936 C 0.44563 0.42261 1.13673
 C1937 C 0.43438 0.41343 1.15496
 H1938 H 0.43936 0.39742 1.16167
 O1939 O 0.52718 0.57734 1.11097
 O1940 O 0.52890 0.60368 1.13634
 C1941 C 0.53570 0.58529 1.12846
 C1942 C 0.55422 0.57339 1.13921
 C1943 C 0.56586 0.58328 1.15681
 H1944 H 0.56096 0.59950 1.16303
 O1945 O 0.38945 0.48309 1.07725
 O1946 O 0.36380 0.48427 1.10291
 C1947 C 0.37138 0.47604 1.08514
 C1948 C 0.35967 0.45717 1.07439
 C1949 C 0.34171 0.44724 1.08505
 H1950 H 0.33538 0.45465 1.10005
 O1951 O 0.61156 0.51185 1.08149
 O1952 O 0.63728 0.50968 1.10701
 C1953 C 0.63006 0.51794 1.08908
 C1954 C 0.64294 0.53526 1.07722
 C1955 C 0.66455 0.54029 1.08360
 H1956 H 0.67210 0.53102 1.09695
 O1957 O 0.41555 0.39227 1.01906
 O1958 O 0.38961 0.36648 1.01845
 C1959 C 0.40775 0.37381 1.02592
 C1960 C 0.42010 0.36098 1.04275
 C1961 C 0.41572 0.33818 1.04671
 H1962 H 0.40306 0.32962 1.03741
 O1963 O 0.58752 0.60417 1.02377
 O1964 O 0.61410 0.62924 1.02474
 C1965 C 0.59556 0.62220 1.03141
 C1966 C 0.58303 0.63496 1.04814
 C1967 C 0.58802 0.65749 1.05280
 H1968 H 0.60126 0.66584 1.04413
 Cu1969 Cu 0.59220 0.49165 1.09415
 Cu1970 Cu 0.62270 0.48944 1.12519
 Cu1971 Cu 0.40795 0.50404 1.09023
 Cu1972 Cu 0.37698 0.50550 1.12089
 Cu1973 Cu 0.50567 0.59012 1.09313
 Cu1974 Cu 0.50717 0.62130 1.12402
 Cu1975 Cu 0.49499 0.40656 1.09176
 Cu1976 Cu 0.49260 0.37441 1.12176
 C1977 C 0.56154 0.55285 1.13064
 H1978 H 0.55311 0.54543 1.11672
 C1979 C 0.58467 0.57290 1.16552
 C1980 C 0.43829 0.44292 1.12760
 H1981 H 0.44637 0.44978 1.11318
 C1982 C 0.41602 0.42443 1.16389
 C1983 C 0.56543 0.62463 1.05919
 H1984 H 0.56161 0.60725 1.05586
 C1985 C 0.57522 0.66957 1.06798
 C1986 C 0.43691 0.37165 1.05472
 H1987 H 0.44027 0.38923 1.05197
 C1988 C 0.42836 0.32617 1.06211
 C1989 C 0.63330 0.54756 1.05999
 H1990 H 0.61657 0.54390 1.05509
 C1991 C 0.67641 0.55748 1.07315
 C1992 C 0.36774 0.44737 1.05496
 H1993 H 0.38188 0.45473 1.04687
 C1994 C 0.33248 0.42719 1.07731
 C1995 C 0.44622 0.55821 1.12935
 H1996 H 0.45054 0.55353 1.11264
 C1997 C 0.43474 0.57096 1.17247
 C1998 C 0.55235 0.43815 1.13192
 H1999 H 0.54683 0.44558 1.11659
 C2000 C 0.56759 0.41726 1.17051
 C2001 C 0.62611 0.43249 1.05846
 H2002 H 0.61366 0.44246 1.05035
 C2003 C 0.65681 0.40536 1.08030
 C2004 C 0.37385 0.56507 1.05656
 H2005 H 0.39071 0.56070 1.05279
 C2006 C 0.33027 0.57633 1.06659
 C2007 C 0.44971 0.63173 1.05905
 H2008 H 0.45811 0.61876 1.04989
 C2009 C 0.42656 0.66342 1.08400
 C2010 C 0.55054 0.36611 1.05712
 H2011 H 0.54224 0.37966 1.04870
 C2012 C 0.57360 0.33266 1.08003
 O2013 O 0.58187 0.47501 0.88943
 O2014 O 0.60745 0.47368 0.86371
 C2015 C 0.58916 0.46705 0.87141
 C2016 C 0.57640 0.44945 0.85986
 C2017 C 0.58471 0.43887 0.84081
 H2018 H 0.60043 0.44392 0.83405
 O2019 O 0.42404 0.52712 0.88990
 O2020 O 0.39889 0.52945 0.86382
 C2021 C 0.41719 0.53557 0.87196
 C2022 C 0.43067 0.55281 0.86075
 C2023 C 0.42644 0.55912 0.83878
 H2024 H 0.41335 0.55105 0.82967
 O2025 O 0.48717 0.61255 0.92286
 O2026 O 0.48889 0.63918 0.89773
 C2027 C 0.48086 0.63138 0.91550
 C2028 C 0.46382 0.64420 0.92751
 C2029 C 0.45969 0.66660 0.92206
 H2030 H 0.46921 0.67455 0.90914
 O2031 O 0.51674 0.39091 0.91787
 O2032 O 0.51572 0.36493 0.89208
 C2033 C 0.52333 0.37233 0.91014
 C2034 C 0.54022 0.35934 0.92208
 C2035 C 0.54617 0.33787 0.91486
 H2036 H 0.53812 0.33068 0.90059
 O2037 O 0.60613 0.41456 0.97792
 O2038 O 0.62962 0.38653 0.97762
 C2039 C 0.62348 0.40548 0.97047
 C2040 C 0.63619 0.41651 0.95266
 C2041 C 0.65578 0.40700 0.94499
 H2042 H 0.66251 0.39283 0.95377
 O2043 O 0.39509 0.58667 0.97796
 O2044 O 0.37085 0.61406 0.97794
 C2045 C 0.37757 0.59541 0.97053
 C2046 C 0.36519 0.58352 0.95309
 C2047 C 0.34285 0.58812 0.94886
 H2048 H 0.33430 0.60056 0.95857
 O2049 O 0.52857 0.58041 0.89188
 O2050 O 0.53016 0.60699 0.86668
 C2051 C 0.53671 0.58832 0.87418
 C2052 C 0.55458 0.57609 0.86275
 C2053 C 0.56471 0.58517 0.84385
 H2054 H 0.55889 0.60077 0.83688
 O2055 O 0.47540 0.42345 0.88746
 O2056 O 0.47411 0.39714 0.86203
 C2057 C 0.46734 0.41559 0.86974
 C2058 C 0.44927 0.42755 0.85854
 C2059 C 0.43863 0.41788 0.84037
 H2060 H 0.44439 0.40211 0.83376
 O2061 O 0.61419 0.51634 0.92049
 O2062 O 0.63974 0.51552 0.89471
 C2063 C 0.63228 0.52342 0.91267
 C2064 C 0.64408 0.54183 0.92403
 C2065 C 0.66180 0.55276 0.91365
 H2066 H 0.66766 0.54701 0.89776
 O2067 O 0.39150 0.48452 0.91912
 O2068 O 0.36622 0.48659 0.89317
 C2069 C 0.37348 0.47785 0.91089
 C2070 C 0.36132 0.45907 0.92137
 C2071 C 0.34279 0.45005 0.91093
 H2072 H 0.33663 0.45775 0.89598
 O2073 O 0.58801 0.60442 0.98094
 O2074 O 0.61483 0.62924 0.98191
 C2075 C 0.59681 0.62230 0.97382
 C2076 C 0.58642 0.63471 0.95543
 C2077 C 0.59686 0.65351 0.94637
 H2078 H 0.61196 0.65965 0.95364
 O2079 O 0.41581 0.39298 0.97648
 O2080 O 0.38989 0.36716 0.97588
 C2081 C 0.40812 0.37478 0.96892
 C2082 C 0.42069 0.36269 0.95181
 C2083 C 0.41732 0.33972 0.94780
 H2084 H 0.40538 0.33050 0.95747
 O2085 O 0.42049 0.48376 0.88793
 O2086 O 0.39515 0.48608 0.86204
 C2087 C 0.41233 0.47704 0.86980
 C2088 C 0.42239 0.45781 0.85830
 C2089 C 0.41210 0.44806 0.83987
 H2090 H 0.39727 0.45535 0.83313
 O2091 O 0.58344 0.51848 0.89124
 O2092 O 0.60888 0.51743 0.86535
 C2093 C 0.59157 0.52604 0.87347
 C2094 C 0.58138 0.54562 0.86261
 C2095 C 0.59127 0.55503 0.84392
 H2096 H 0.60569 0.54726 0.83679
 O2097 O 0.47411 0.39367 0.91852
 O2098 O 0.47345 0.36727 0.89312
 C2099 C 0.46637 0.37544 0.91109
 C2100 C 0.44923 0.36338 0.92356
 C2101 C 0.44556 0.34065 0.91961
 H2102 H 0.45506 0.33227 0.90697
 O2103 O 0.53009 0.60984 0.92308
 O2104 O 0.53178 0.63638 0.89786
 C2105 C 0.53885 0.62756 0.91556
 C2106 C 0.55804 0.63743 0.92701
 C2107 C 0.56877 0.65628 0.91820
 H2108 H 0.56248 0.66420 0.90342
 O2109 O 0.38695 0.42466 0.97636
 O2110 O 0.36069 0.39928 0.97543
 C2111 C 0.36921 0.41728 0.96812
 C2112 C 0.35907 0.42936 0.94924
 C2113 C 0.34052 0.42058 0.93837
 H2114 H 0.33295 0.40530 0.94429
 O2115 O 0.61667 0.57276 0.98056
 O2116 O 0.64343 0.59761 0.98162
 C2117 C 0.63476 0.58029 0.97315
 C2118 C 0.64516 0.56962 0.95368
 C2119 C 0.66269 0.58031 0.94293
 H2120 H 0.66948 0.59559 0.94970
 O2121 O 0.51845 0.42242 0.88846
 O2122 O 0.51708 0.39636 0.86279
 C2123 C 0.52564 0.41403 0.87065
 C2124 C 0.54490 0.42407 0.85948
 C2125 C 0.55313 0.41418 0.84029
 H2126 H 0.54414 0.40056 0.83273
 O2127 O 0.48570 0.58219 0.89234
 O2128 O 0.48738 0.60862 0.86699
 C2129 C 0.47893 0.59067 0.87439
 C2130 C 0.46099 0.57961 0.86208
 C2131 C 0.45659 0.58565 0.84019
 H2132 H 0.46644 0.59849 0.83234
 O2133 O 0.39338 0.52827 0.91955
 O2134 O 0.36788 0.53037 0.89379
 C2135 C 0.37591 0.53696 0.91199
 C2136 C 0.36471 0.55478 0.92453
 C2137 C 0.34268 0.55972 0.92031
 H2138 H 0.33415 0.55065 0.90743
 O2139 O 0.61139 0.47276 0.92002
 O2140 O 0.63714 0.47160 0.89447
 C2141 C 0.62874 0.46410 0.91219
 C2142 C 0.63868 0.44473 0.92366
 C2143 C 0.65780 0.43437 0.91554
 H2144 H 0.66548 0.44077 0.90072
 O2145 O 0.57367 0.38607 0.97713
 O2146 O 0.59724 0.35810 0.97682
 C2147 C 0.58010 0.36747 0.96937
 C2148 C 0.56788 0.35691 0.95108
 C2149 C 0.57363 0.33546 0.94364
 H2150 H 0.58647 0.32619 0.95196
 O2151 O 0.42711 0.61543 0.97922
 O2152 O 0.40344 0.64329 0.97925
 C2153 C 0.42098 0.63436 0.97205
 C2154 C 0.43439 0.64577 0.95496
 C2155 C 0.43045 0.66821 0.94920
 H2156 H 0.41775 0.67755 0.95766
 Cu2157 Cu 0.59522 0.49566 0.90789
 Cu2158 Cu 0.62589 0.49447 0.87697
 Cu2159 Cu 0.40991 0.50576 0.90669
 Cu2160 Cu 0.37942 0.50850 0.87569
 Cu2161 Cu 0.59942 0.58566 1.00237
 Cu2162 Cu 0.63157 0.61548 1.00360
 Cu2163 Cu 0.58719 0.40275 0.99898
 Cu2164 Cu 0.61552 0.36914 0.99849
 Cu2165 Cu 0.41308 0.59774 0.99990
 Cu2166 Cu 0.38434 0.63091 1.00000
 Cu2167 Cu 0.40370 0.41105 0.99794
 Cu2168 Cu 0.37223 0.38049 0.99724
 Cu2169 Cu 0.50769 0.59361 0.91007
 Cu2170 Cu 0.50958 0.62550 0.87982
 Cu2171 Cu 0.49627 0.41033 0.90559
 Cu2172 Cu 0.49494 0.37892 0.87481
 C2173 C 0.55645 0.44191 0.86899
 H2174 H 0.55026 0.44941 0.88401
 C2175 C 0.57327 0.42091 0.83118
 C2176 C 0.44809 0.56304 0.87216
 H2177 H 0.45138 0.55840 0.88912
 C2178 C 0.43962 0.57530 0.82829
 C2179 C 0.45124 0.63400 0.94414
 H2180 H 0.45427 0.61666 0.94830
 C2181 C 0.44325 0.67883 0.93295
 C2182 C 0.55103 0.36863 0.94034
 H2183 H 0.54672 0.38529 0.94583
 C2184 C 0.56281 0.32579 0.92558
 C2185 C 0.62802 0.43561 0.94217
 H2186 H 0.61287 0.44298 0.94805
 C2187 C 0.66650 0.41531 0.92605
 C2188 C 0.37582 0.56665 0.94100
 H2189 H 0.39293 0.56291 0.94420
 C2190 C 0.33132 0.57580 0.93279
 C2191 C 0.56292 0.55616 0.87184
 H2192 H 0.55552 0.54926 0.88661
 C2193 C 0.58324 0.57484 0.83463
 C2194 C 0.44117 0.44763 0.86723
 H2195 H 0.44898 0.45485 0.88162
 C2196 C 0.41999 0.42792 0.83109
 C2197 C 0.63606 0.55027 0.94418
 H2198 H 0.62210 0.54230 0.95202
 C2199 C 0.67082 0.57225 0.92280
 C2200 C 0.36923 0.44873 0.94065
 H2201 H 0.38382 0.45532 0.94854
 C2202 C 0.33255 0.43065 0.91901
 C2203 C 0.56690 0.62689 0.94575
 H2204 H 0.55899 0.61211 0.95238
 C2205 C 0.58832 0.66423 0.92764
 C2206 C 0.43686 0.37425 0.93977
 H2207 H 0.43964 0.39188 0.94281
 C2208 C 0.43016 0.32846 0.93201
 C2209 C 1.12655 1.10578 1.24741
 C2210 C 1.12072 1.12447 1.23554
 C2211 C 1.12113 1.14588 1.24426
 C2212 C 1.12727 1.14815 1.26633
 C2213 C 1.13370 1.12931 1.27913
 C2214 C 1.13411 1.10783 1.26920
 O2215 O 1.12202 1.08684 1.23679
 C2216 C 1.11327 1.09386 1.21787
 C2217 C 1.11248 1.11676 1.21628
 C2218 C 1.10306 1.12790 1.19858
 C2219 C 1.09368 1.11495 1.18188
 C2220 C 1.09316 1.09122 1.18338
 C2221 C 1.10363 1.08053 1.20149
 H2222 H 1.11585 1.16021 1.23473
 H2223 H 1.12703 1.16471 1.27354
 H2224 H 1.13809 1.09307 1.27875
 H2225 H 1.10267 1.14598 1.19780
 H2226 H 1.08653 1.12352 1.16789
 H2227 H 1.10336 1.06252 1.20333
 C2228 C 1.12790 0.60403 0.74595
 C2229 C 1.12868 0.62074 0.73035
 C2230 C 1.13469 0.64260 0.73526
 C2231 C 1.14001 0.64751 0.75720
 C2232 C 1.13942 0.63065 0.77364
 C2233 C 1.13357 0.60849 0.76788
 O2234 O 1.12015 0.58484 0.73804
 C2235 C 1.11596 0.58958 0.71701
 C2236 C 1.12103 0.61133 0.71153
 C2237 C 1.11688 0.62038 0.69085
 C2238 C 1.10664 0.60662 0.67526
 C2239 C 1.10066 0.58430 0.68058
 C2240 C 1.10585 0.57548 0.70162
 H2241 H 1.13481 0.65552 0.72274
 H2242 H 1.14452 0.66447 0.76151
 H2243 H 1.13260 0.59547 0.78026
 H2244 H 1.12084 0.63760 0.68703
 H2245 H 1.10281 0.61350 0.65918
 H2246 H 1.10108 0.55865 0.70620
 C2247 C 0.63180 1.10682 0.74281
 C2248 C 0.62840 1.12390 0.72802
 C2249 C 0.63118 1.14626 0.73335
 C2250 C 0.63750 1.15136 0.75493
 C2251 C 0.64153 1.13417 0.77070
 C2252 C 0.63916 1.11145 0.76421
 O2253 O 0.62568 1.08697 0.73501
 C2254 C 0.61835 1.09171 0.71486
 C2255 C 0.62000 1.11407 0.70979
 C2256 C 0.61234 1.12315 0.69020
 C2257 C 0.60197 1.10872 0.67538
 C2258 C 0.59893 1.08573 0.68053
 C2259 C 0.60786 1.07695 0.70032
 H2260 H 0.62789 1.15939 0.72150
 H2261 H 0.63964 1.16879 0.75916
 H2262 H 0.64132 1.09791 0.77586
 H2263 H 0.61380 1.14084 0.68667
 H2264 H 0.59567 1.11561 0.66011
 H2265 H 0.60555 1.05957 0.70480
 C2266 C 0.61680 0.61576 1.24635
 C2267 C 0.63448 0.60883 1.23410
 C2268 C 0.65588 0.60951 1.24189
 C2269 C 0.65929 0.61761 1.26328
 C2270 C 0.64143 0.62527 1.27649
 C2271 C 0.61982 0.62449 1.26752
 O2272 O 0.59767 0.61225 1.23632
 C2273 C 0.60350 0.60299 1.21727
 C2274 C 0.62588 0.60076 1.21509
 C2275 C 0.63570 0.59104 1.19682
 C2276 C 0.62189 0.58284 1.18025
 C2277 C 0.59865 0.58402 1.18234
 C2278 C 0.58935 0.59475 1.20097
 H2279 H 0.66950 0.60370 1.23195
 H2280 H 0.67602 0.61840 1.26916
 H2281 H 0.60560 0.62944 1.27700
 H2282 H 0.65336 0.58957 1.19549
 H2283 H 0.62934 0.57523 1.16588
 H2284 H 0.57174 0.59578 1.20316
 C2285 C 0.88680 0.88806 1.24863
 C2286 C 0.86876 0.89329 1.23607
 C2287 C 0.84743 0.89173 1.24392
 C2288 C 0.84447 0.88447 1.26567
 C2289 C 0.86271 0.87857 1.27925
 C2290 C 0.88426 0.88028 1.27023
 O2291 O 0.90569 0.89207 1.23832
 C2292 C 0.89934 0.89993 1.21881
 C2293 C 0.87688 0.90080 1.21662
 C2294 C 0.86651 0.90897 1.19790
 C2295 C 0.87983 0.91705 1.18085
 C2296 C 0.90309 0.91719 1.18289
 C2297 C 0.91299 0.90800 1.20201
 H2298 H 0.83352 0.89616 1.23370
 H2299 H 0.82777 0.88289 1.27149
 H2300 H 0.89873 0.87664 1.27992
 H2301 H 0.84879 0.90941 1.19659
 H2302 H 0.87199 0.92355 1.16616
 H2303 H 0.93065 0.90804 1.20412
 C2304 C 0.87459 0.39661 0.74757
 C2305 C 0.87959 0.37805 0.73521
 C2306 C 0.88051 0.35665 0.74400
 C2307 C 0.87633 0.35422 0.76657
 C2308 C 0.87035 0.37288 0.77978
 C2309 C 0.86890 0.39438 0.76987
 O2310 O 0.87773 0.41567 0.73659
 C2311 C 0.88467 0.40887 0.71687
 C2312 C 0.88560 0.38596 0.71517
 C2313 C 0.89312 0.37503 0.69650
 C2314 C 0.90073 0.38818 0.67903
 C2315 C 0.90162 0.41189 0.68075
 C2316 C 0.89270 0.42241 0.69974
 H2317 H 0.88519 0.34242 0.73404
 H2318 H 0.87731 0.33763 0.77366
 H2319 H 0.86524 0.40907 0.77962
 H2320 H 0.89354 0.35696 0.69557
 H2321 H 0.90667 0.37977 0.66439
 H2322 H 0.89327 0.44039 0.70171
 C2323 C 0.38330 0.90519 0.75645
 C2324 C 0.38055 0.88657 0.74340
 C2325 C 0.37394 0.86596 0.75170
 C2326 C 0.37018 0.86442 0.77445
 C2327 C 0.37298 0.88329 0.78826
 C2328 C 0.37938 0.90406 0.77916
 O2329 O 0.39100 0.92273 0.74538
 C2330 C 0.39318 0.91497 0.72495
 C2331 C 0.38695 0.89294 0.72292
 C2332 C 0.38900 0.88102 0.70338
 C2333 C 0.39816 0.89214 0.68523
 C2334 C 0.40504 0.91475 0.68691
 C2335 C 0.40214 0.92647 0.70697
 H2336 H 0.37221 0.85149 0.74114
 H2337 H 0.36537 0.84850 0.78150
 H2338 H 0.38197 0.91852 0.78956
 H2339 H 0.38420 0.86362 0.70229
 H2340 H 0.40024 0.88306 0.66991
 H2341 H 0.40763 0.94360 0.70878
 C2342 C 0.38726 0.38748 1.24870
 C2343 C 0.36923 0.39500 1.23732
 C2344 C 0.34847 0.39638 1.24660
 C2345 C 0.34606 0.38956 1.26856
 C2346 C 0.36420 0.38093 1.28076
 C2347 C 0.38515 0.37985 1.27039
 O2348 O 0.40580 0.38912 1.23719
 C2349 C 0.39920 0.39772 1.21808
 C2350 C 0.37691 0.40130 1.21730
 C2351 C 0.36636 0.41038 1.19912
 C2352 C 0.37939 0.41668 1.18117
 C2353 C 0.40264 0.41445 1.18188
 C2354 C 0.41262 0.40421 1.20044
 H2355 H 0.33461 0.40270 1.23733
 H2356 H 0.32976 0.39022 1.27556
 H2357 H 0.39955 0.37407 1.27913
 H2358 H 0.34875 0.41280 1.19887
 H2359 H 0.37136 0.42381 1.16686
 H2360 H 0.43027 0.40238 1.20158
 C2361 C 0.89857 1.10658 0.74160
 C2362 C 0.92068 1.11096 0.74043
 C2363 C 0.93012 1.12305 0.72332
 C2364 C 0.91621 1.13096 0.70664
 C2365 C 0.89327 1.12618 0.70691
 C2366 C 0.88450 1.11354 0.72477
 O2367 O 0.89275 1.09624 0.76012
 C2368 C 0.91168 1.09389 0.77077
 C2369 C 0.92927 1.10235 0.75924
 C2370 C 0.95061 1.10177 0.76723
 C2371 C 0.95392 1.09255 0.78821
 C2372 C 0.93594 1.08477 0.80115
 C2373 C 0.91451 1.08507 0.79194
 H2374 H 0.94756 1.12656 0.72297
 H2375 H 0.92359 1.14015 0.69317
 H2376 H 0.86711 1.11009 0.72614
 H2377 H 0.96423 1.10829 0.75770
 H2378 H 0.97056 1.09176 0.79442
 H2379 H 0.90033 1.07954 0.80124
 C2380 C 0.89805 0.60770 0.24411
 C2381 C 0.92042 0.60912 0.24117
 C2382 C 0.92994 0.61808 0.22225
 C2383 C 0.91579 0.62600 0.20574
 C2384 C 0.89270 0.62449 0.20828
 C2385 C 0.88370 0.61500 0.22765
 O2386 O 0.89243 0.59984 0.26382
 C2387 C 0.91166 0.59615 0.27349
 C2388 C 0.92928 0.60140 0.26026
 C2389 C 0.95091 0.59919 0.26718
 C2390 C 0.95455 0.59147 0.28872
 C2391 C 0.93669 0.58651 0.30306
 C2392 C 0.91489 0.58869 0.29508
 H2393 H 0.94758 0.61932 0.22045
 H2394 H 0.92271 0.63334 0.19095
 H2395 H 0.86611 0.61410 0.23006
 H2396 H 0.96451 0.60334 0.25642
 H2397 H 0.97135 0.58941 0.29420
 H2398 H 0.90084 0.58541 0.30554
 C2399 C 0.40242 1.11664 0.24804
 C2400 C 0.38634 1.12057 0.26350
 C2401 C 0.36507 1.12680 0.25792
 C2402 C 0.36017 1.12921 0.23547
 C2403 C 0.37647 1.12556 0.21915
 C2404 C 0.39798 1.11935 0.22556
 O2405 O 0.42109 1.10937 0.25687
 C2406 C 0.41667 1.10874 0.27835
 C2407 C 0.39565 1.11563 0.28321
 C2408 C 0.38705 1.11529 0.30442
 C2409 C 0.40042 1.10691 0.32128
 C2410 C 0.42188 1.09898 0.31668
 C2411 C 0.43037 1.10041 0.29499
 H2412 H 0.35263 1.12946 0.27040
 H2413 H 0.34375 1.13421 0.23075
 H2414 H 0.41060 1.11626 0.21336
 H2415 H 0.37039 1.12060 0.30775
 H2416 H 0.39378 1.10571 0.33782
 H2417 H 0.44649 1.09394 0.29101
 C2418 C 0.40042 0.60474 0.74492
 C2419 C 0.42282 0.60374 0.74223
 C2420 C 0.43333 0.61056 0.72300
 C2421 C 0.42019 0.61871 0.70579
 C2422 C 0.39700 0.61982 0.70803
 C2423 C 0.38702 0.61263 0.72794
 O2424 O 0.39383 0.59805 0.76475
 C2425 C 0.41249 0.59269 0.77478
 C2426 C 0.43068 0.59580 0.76166
 C2427 C 0.45192 0.59167 0.76892
 C2428 C 0.45457 0.58432 0.79072
 C2429 C 0.43613 0.58140 0.80482
 C2430 C 0.41473 0.58535 0.79655
 H2431 H 0.45100 0.60970 0.72133
 H2432 H 0.42805 0.62385 0.69059
 H2433 H 0.36942 0.61353 0.73026
 H2434 H 0.46597 0.59422 0.75827
 H2435 H 0.47102 0.58105 0.79667
 H2436 H 0.40037 0.58353 0.80694
 C2437 C 1.11578 0.88903 0.75040
 C2438 C 1.11137 0.87078 0.76351
 C2439 C 1.11455 0.84890 0.75654
 C2440 C 1.12250 0.84565 0.73509
 C2441 C 1.12717 0.86412 0.72113
 C2442 C 1.12397 0.88617 0.72903
 O2443 O 1.11066 0.90833 0.75996
 C2444 C 1.10285 0.90209 0.77951
 C2445 C 1.10302 0.87928 0.78246
 C2446 C 1.09501 0.86895 0.80134
 C2447 C 1.08617 0.88266 0.81780
 C2448 C 1.08535 0.90625 0.81512
 C2449 C 1.09417 0.91612 0.79578
 H2450 H 1.11080 0.83483 0.76714
 H2451 H 1.12509 0.82873 0.72935
 H2452 H 1.12710 0.90054 0.71863
 H2453 H 1.09530 0.85095 0.80322
 H2454 H 1.07984 0.87488 0.83264
 H2455 H 1.09359 0.93403 0.79318
 C2456 C 1.10901 0.38810 0.24807
 C2457 C 1.10123 0.36961 0.25910
 C2458 C 1.10150 0.34823 0.25011
 C2459 C 1.11015 0.34581 0.22882
 C2460 C 1.11855 0.36453 0.21718
 C2461 C 1.11813 0.38597 0.22702
 O2462 O 1.10621 0.40701 0.25922
 C2463 C 1.09651 0.40026 0.27772
 C2464 C 1.09328 0.37750 0.27847
 C2465 C 1.08323 0.36679 0.29610
 C2466 C 1.07588 0.38010 0.31359
 C2467 C 1.07825 0.40376 0.31304
 C2468 C 1.08911 0.41391 0.29490
 H2469 H 1.09504 0.33400 0.25906
 H2470 H 1.11052 0.32935 0.22140
 H2471 H 1.12421 0.40052 0.21829
 H2472 H 1.08103 0.34883 0.29636
 H2473 H 1.06823 0.37189 0.32755
 H2474 H 1.09110 0.43187 0.29385
 C2475 C 0.58921 0.89393 0.23912
 C2476 C 0.59180 0.91675 0.23920
 C2477 C 0.60415 0.92810 0.22352
 C2478 C 0.61444 0.91542 0.20712
 C2479 C 0.61170 0.89180 0.20610
 C2480 C 0.59835 0.88103 0.22219
 O2481 O 0.57923 0.88628 0.25716
 C2482 C 0.57534 0.90474 0.26876
 C2483 C 0.58240 0.92382 0.25821
 C2484 C 0.58104 0.94491 0.26758
 C2485 C 0.57273 0.94641 0.28904
 C2486 C 0.56664 0.92692 0.30103
 C2487 C 0.56726 0.90580 0.29040
 H2488 H 0.60643 0.94604 0.22433
 H2489 H 0.62422 0.92415 0.19493
 H2490 H 0.59653 0.86303 0.22252
 H2491 H 0.58672 0.95966 0.25891
 H2492 H 0.57187 0.96276 0.29665
 H2493 H 0.56306 0.89060 0.29915
 C2494 C 0.60710 0.39386 0.74467
 C2495 C 0.60014 0.37520 0.75588
 C2496 C 0.59874 0.35424 0.74624
 C2497 C 0.60491 0.35230 0.72408
 C2498 C 0.61286 0.37111 0.71198
 C2499 C 0.61397 0.39224 0.72273
 O2500 O 0.60573 0.41247 0.75661
 C2501 C 0.59786 0.40527 0.77582
 C2502 C 0.59444 0.38254 0.77621
 C2503 C 0.58601 0.37134 0.79438
 C2504 C 0.58028 0.38415 0.81276
 C2505 C 0.58249 0.40783 0.81255
 C2506 C 0.59200 0.41848 0.79395
 H2507 H 0.59290 0.33987 0.75541
 H2508 H 0.60422 0.33582 0.71683
 H2509 H 0.61923 0.40718 0.71415
 H2510 H 0.58365 0.35339 0.79429
 H2511 H 0.57361 0.37562 0.82705
 H2512 H 0.59378 0.43648 0.79320
 C2513 C 1.24776 1.10867 1.12392
 C2514 C 1.23563 1.12645 1.11636
 C2515 C 1.24403 1.14796 1.11460
 C2516 C 1.26593 1.15135 1.12076
 C2517 C 1.27884 1.13351 1.12930
 C2518 C 1.26928 1.11190 1.13135
 O2519 O 1.23747 1.08916 1.12159
 C2520 C 1.21839 1.09485 1.11248
 C2521 C 1.21641 1.11755 1.10938
 C2522 C 1.19833 1.12732 1.09940
 C2523 C 1.18185 1.11310 1.09161
 C2524 C 1.18399 1.08946 1.09313
 C2525 C 1.20225 1.08023 1.10445
 H2526 H 1.23429 1.16154 1.10800
 H2527 H 1.27263 1.16805 1.11932
 H2528 H 1.27880 1.09772 1.13697
 H2529 H 1.19716 1.14525 1.09725
 H2530 H 1.16769 1.12055 1.08370
 H2531 H 1.20448 1.06232 1.10573
 C2532 C 1.25474 0.60313 0.60970
 C2533 C 1.24317 0.59573 0.62773
 C2534 C 1.25152 0.59627 0.64900
 C2535 C 1.27276 0.60478 0.65190
 C2536 C 1.28516 0.61310 0.63370
 C2537 C 1.27568 0.61235 0.61224
 O2538 O 1.24421 0.59981 0.59076
 C2539 C 1.22551 0.59025 0.59707
 C2540 C 1.22404 0.58765 0.61956
 C2541 C 1.20602 0.57804 0.62987
 C2542 C 1.18892 0.57039 0.61645
 C2543 C 1.19029 0.57182 0.59304
 C2544 C 1.20878 0.58236 0.58328
 H2545 H 1.24210 0.59010 0.66289
 H2546 H 1.27910 0.60548 0.66854
 H2547 H 1.28460 0.61782 0.59778
 H2548 H 1.20516 0.57646 0.64764
 H2549 H 1.17462 0.56323 0.62440
 H2550 H 1.21046 0.58373 0.56555
 C2551 C 0.75514 1.09724 0.60667
 C2552 C 0.75805 1.07459 0.60931
 C2553 C 0.77656 1.06549 0.61926
 C2554 C 0.79273 1.08034 0.62682
 C2555 C 0.79023 1.10380 0.62422
 C2556 C 0.77115 1.11232 0.61384
 O2557 O 0.73603 1.10243 0.59743
 C2558 C 0.72672 1.08261 0.59413
 C2559 C 0.73956 1.06505 0.60104
 C2560 C 0.73287 1.04288 0.59947
 C2561 C 0.71199 1.03863 0.59063
 C2562 C 0.69817 1.05645 0.58373
 C2563 C 0.70585 1.07878 0.58535
 H2564 H 0.77842 1.04760 0.62125
 H2565 H 0.80734 1.07357 0.63448
 H2566 H 0.76868 1.13013 0.61187
 H2567 H 0.74330 1.02934 0.60499
 H2568 H 0.70659 1.02144 0.58920
 H2569 H 0.69567 1.09279 0.58057
 C2570 C 0.75690 0.60239 1.10253
 C2571 C 0.76082 0.57976 1.10177
 C2572 C 0.78044 0.57027 1.10875
 C2573 C 0.79661 0.58467 1.11710
 C2574 C 0.79297 0.60809 1.11838
 C2575 C 0.77285 0.61706 1.11067
 O2576 O 0.73684 0.60784 1.09579
 C2577 C 0.72794 0.58821 1.09070
 C2578 C 0.74194 0.57051 1.09407
 C2579 C 0.73577 0.54841 1.09058
 C2580 C 0.71422 0.54435 1.08342
 C2581 C 0.69935 0.56228 1.07991
 C2582 C 0.70646 0.58457 1.08344
 H2583 H 0.78310 0.55240 1.10806
 H2584 H 0.81199 0.57755 1.12264
 H2585 H 0.76942 0.63478 1.11172
 H2586 H 0.74706 0.53476 1.09348
 H2587 H 0.70910 0.52725 1.08060
 H2588 H 0.69541 0.59856 1.08123
 C2589 C 1.25039 0.89054 0.88935
 C2590 C 1.23997 0.87196 0.89762
 C2591 C 1.25031 0.85145 0.90005
 C2592 C 1.27237 0.84995 0.89367
 C2593 C 1.28355 0.86863 0.88431
 C2594 C 1.27208 0.88920 0.88192
 O2595 O 1.23810 0.90889 0.89032
 C2596 C 1.21945 0.90161 0.89924
 C2597 C 1.21972 0.87905 0.90362
 C2598 C 1.20213 0.86781 0.91304
 C2599 C 1.18366 0.88042 0.91874
 C2600 C 1.18330 0.90405 0.91582
 C2601 C 1.20136 0.91467 0.90531
 H2602 H 1.24182 0.83718 0.90702
 H2603 H 1.28042 0.83393 0.89538
 H2604 H 1.28010 0.90403 0.87559
 H2605 H 1.20266 0.84997 0.91602
 H2606 H 1.16975 0.87169 0.92581
 H2607 H 1.20180 0.93259 0.90287
 C2608 C 1.24569 0.38307 0.38472
 C2609 C 1.23470 0.36438 0.39195
 C2610 C 1.24424 0.34335 0.39270
 C2611 C 1.26606 0.34144 0.38572
 C2612 C 1.27786 0.36032 0.37754
 C2613 C 1.26719 0.38145 0.37688
 O2614 O 1.23404 0.40173 0.38694
 C2615 C 1.21526 0.39454 0.39560
 C2616 C 1.21479 0.37177 0.39867
 C2617 C 1.19692 0.36059 0.40761
 C2618 C 1.17888 0.37344 0.41412
 C2619 C 1.17922 0.39718 0.41231
 C2620 C 1.19761 0.40779 0.40241
 H2621 H 1.23528 0.32895 0.39877
 H2622 H 1.27336 0.32498 0.38603
 H2623 H 1.27565 0.39639 0.37143
 H2624 H 1.19689 0.34260 0.40959
 H2625 H 1.16472 0.36482 0.42080
 H2626 H 1.19858 0.42579 0.40086
 C2627 C 0.74576 0.88074 0.38975
 C2628 C 0.73481 0.86159 0.39585
 C2629 C 0.74430 0.84046 0.39482
 C2630 C 0.76597 0.83903 0.38707
 C2631 C 0.77746 0.85848 0.38027
 C2632 C 0.76716 0.87963 0.38157
 O2633 O 0.73408 0.89921 0.39290
 C2634 C 0.71529 0.89152 0.40108
 C2635 C 0.71487 0.86860 0.40301
 C2636 C 0.69689 0.85698 0.41123
 C2637 C 0.67872 0.86951 0.41812
 C2638 C 0.67894 0.89329 0.41716
 C2639 C 0.69746 0.90438 0.40810
 H2640 H 0.73540 0.82566 0.39994
 H2641 H 0.77373 0.82279 0.38601
 H2642 H 0.77572 0.89472 0.37670
 H2643 H 0.69688 0.83892 0.41238
 H2644 H 0.66452 0.86061 0.42435
 H2645 H 0.69830 0.92244 0.40724
 C2646 C 0.75314 0.39366 0.88834
 C2647 C 0.74407 0.37469 0.89737
 C2648 C 0.75554 0.35487 0.89986
 C2649 C 0.77740 0.35452 0.89289
 C2650 C 0.78730 0.37357 0.88278
 C2651 C 0.77466 0.39335 0.88006
 O2652 O 0.73982 0.41127 0.88959
 C2653 C 0.72197 0.40303 0.89941
 C2654 C 0.72372 0.38064 0.90407
 C2655 C 0.70718 0.36845 0.91423
 C2656 C 0.68811 0.37987 0.92031
 C2657 C 0.68615 0.40338 0.91713
 C2658 C 0.70332 0.41500 0.90601
 H2659 H 0.74809 0.34031 0.90741
 H2660 H 0.78636 0.33902 0.89472
 H2661 H 0.78177 0.40832 0.87296
 H2662 H 0.70888 0.35070 0.91733
 H2663 H 0.67496 0.37022 0.92764
 H2664 H 0.70265 0.43287 0.90330
 C2665 C 0.74941 0.88733 1.10642
 C2666 C 0.76321 0.88980 1.12422
 C2667 C 0.75689 0.88493 1.14572
 C2668 C 0.73533 0.87745 1.14908
 C2669 C 0.72072 0.87478 1.13108
 C2670 C 0.72795 0.87945 1.10936
 O2671 O 0.75831 0.89434 1.08759
 C2672 C 0.77813 0.90137 1.09370
 C2673 C 0.78190 0.89885 1.11593
 C2674 C 0.80111 0.90591 1.12613
 C2675 C 0.81704 0.91625 1.11294
 C2676 C 0.81349 0.91956 1.09000
 C2677 C 0.79384 0.91163 1.08018
 H2678 H 0.76796 0.88735 1.15948
 H2679 H 0.72983 0.87395 1.16572
 H2680 H 0.71689 0.87797 1.09546
 H2681 H 0.80362 0.90379 1.14369
 H2682 H 0.83213 0.92182 1.12064
 H2683 H 0.79058 0.91411 1.06280
 C2684 C 0.74045 0.40422 0.60271
 C2685 C 0.75265 0.40818 0.62139
 C2686 C 0.74435 0.40543 0.64257
 C2687 C 0.72257 0.39816 0.64463
 C2688 C 0.70965 0.39362 0.62567
 C2689 C 0.71879 0.39665 0.60438
 O2690 O 0.75137 0.40858 0.58419
 C2691 C 0.77089 0.41537 0.59139
 C2692 C 0.77248 0.41526 0.61402
 C2693 C 0.79129 0.42178 0.62521
 C2694 C 0.80913 0.42915 0.61258
 C2695 C 0.80781 0.43024 0.58918
 C2696 C 0.78848 0.42280 0.57842
 H2697 H 0.75429 0.40879 0.65699
 H2698 H 0.71589 0.39560 0.66098
 H2699 H 0.70923 0.39340 0.58968
 H2700 H 0.79216 0.42134 0.64304
 H2701 H 0.82396 0.43419 0.62110
 H2702 H 0.78692 0.42349 0.56064
 C2703 C 0.24319 0.89987 0.59765
 C2704 C 0.24076 0.92266 0.59954
 C2705 C 0.22277 0.93246 0.60981
 C2706 C 0.20668 0.91819 0.61860
 C2707 C 0.20874 0.89464 0.61677
 C2708 C 0.22717 0.88539 0.60590
 O2709 O 0.26217 0.89398 0.58855
 C2710 C 0.27190 0.91347 0.58459
 C2711 C 0.25941 0.93152 0.59090
 C2712 C 0.26674 0.95345 0.58904
 C2713 C 0.28795 0.95692 0.58069
 C2714 C 0.30148 0.93858 0.57462
 C2715 C 0.29308 0.91653 0.57627
 H2716 H 0.22138 0.95043 0.61138
 H2717 H 0.19260 0.92540 0.62684
 H2718 H 0.22932 0.86746 0.60470
 H2719 H 0.25662 0.96738 0.59417
 H2720 H 0.29395 0.97391 0.57923
 H2721 H 0.30308 0.90216 0.57218
 C2722 C 0.25211 0.38286 1.10836
 C2723 C 0.26487 0.38827 1.12626
 C2724 C 0.25763 0.38616 1.14784
 C2725 C 0.23620 0.37838 1.15121
 C2726 C 0.22239 0.37250 1.13312
 C2727 C 0.23088 0.37440 1.11131
 O2728 O 0.26169 0.38776 1.08922
 C2729 C 0.28091 0.39639 1.09526
 C2730 C 0.28366 0.39685 1.11777
 C2731 C 0.30213 0.40579 1.12788
 C2732 C 0.31835 0.41500 1.11426
 C2733 C 0.31573 0.41553 1.09096
 C2734 C 0.29686 0.40563 1.08132
 H2735 H 0.26797 0.39077 1.16163
 H2736 H 0.23068 0.37658 1.16806
 H2737 H 0.22091 0.37076 1.09699
 H2738 H 0.30388 0.40592 1.14565
 H2739 H 0.33289 0.42194 1.12194
 H2740 H 0.29428 0.40592 1.06365
 C2741 C 0.74435 1.11066 0.90508
 C2742 C 0.74418 1.08780 0.90288
 C2743 C 0.72812 1.07640 0.89113
 C2744 C 0.71167 1.08908 0.88094
 C2745 C 0.71104 1.11275 0.88321
 C2746 C 0.72742 1.12356 0.89609
 O2747 O 0.76269 1.11836 0.91429
 C2748 C 0.77427 1.09991 0.91807
 C2749 C 0.76343 1.08077 0.91170
 C2750 C 0.77278 1.05968 0.91296
 C2751 C 0.79445 1.05824 0.92045
 C2752 C 0.80665 1.07778 0.92584
 C2753 C 0.79609 1.09890 0.92532
 H2754 H 0.72873 1.05843 0.88910
 H2755 H 0.69927 1.08038 0.87146
 H2756 H 0.72810 1.14159 0.89745
 H2757 H 0.76390 1.04489 0.90781
 H2758 H 0.80200 1.04188 0.92130
 H2759 H 0.80498 1.11414 0.92898
 C2760 C 0.75112 0.62297 0.40488
 C2761 C 0.74771 0.60083 0.41009
 C2762 C 0.72843 0.58950 0.40491
 C2763 C 0.71206 0.60143 0.39372
 C2764 C 0.71520 0.62419 0.38813
 C2765 C 0.73486 0.63525 0.39402
 O2766 O 0.77129 0.62999 0.40968
 C2767 C 0.78079 0.61187 0.41804
 C2768 C 0.76700 0.59362 0.41870
 C2769 C 0.77390 0.57251 0.42529
 C2770 C 0.79603 0.56997 0.43105
 C2771 C 0.81072 0.58838 0.43012
 C2772 C 0.80289 0.60976 0.42398
 H2773 H 0.72633 0.57195 0.40877
 H2774 H 0.69707 0.59295 0.38899
 H2775 H 0.73770 0.65249 0.38936
 H2776 H 0.76281 0.55835 0.42532
 H2777 H 0.80193 0.55354 0.43567
 H2778 H 0.81392 0.62392 0.42263
 C2779 C 0.25435 1.11588 0.38595
 C2780 C 0.26383 1.13439 0.39540
 C2781 C 0.25303 1.15466 0.39755
 C2782 C 0.23144 1.15598 0.38978
 C2783 C 0.22113 1.13740 0.37930
 C2784 C 0.23312 1.11711 0.37703
 O2785 O 0.26698 1.09776 0.38735
 C2786 C 0.28484 1.10515 0.39775
 C2787 C 0.28377 1.12754 0.40266
 C2788 C 0.30045 1.13891 0.41346
 C2789 C 0.31890 1.12664 0.41994
 C2790 C 0.32015 1.10314 0.41638
 C2791 C 0.30291 1.09238 0.40460
 H2792 H 0.26079 1.16887 0.40540
 H2793 H 0.22307 1.17184 0.39134
 H2794 H 0.22573 1.10240 0.36974
 H2795 H 0.29931 1.15664 0.41680
 H2796 H 0.33216 1.13560 0.42790
 H2797 H 0.30310 1.07455 0.40159
 C2798 C 0.24610 0.61284 0.90690
 C2799 C 0.24517 0.58991 0.90580
 C2800 C 0.22872 0.57848 0.89467
 C2801 C 0.21262 0.59118 0.88398
 C2802 C 0.21265 0.61494 0.88522
 C2803 C 0.22944 0.62586 0.89747
 O2804 O 0.26477 0.62031 0.91566
 C2805 C 0.27574 0.60165 0.92027
 C2806 C 0.26418 0.58264 0.91490
 C2807 C 0.27272 0.56128 0.91720
 C2808 C 0.29434 0.55936 0.92470
 C2809 C 0.30734 0.57865 0.92901
 C2810 C 0.29758 0.60014 0.92747
 H2811 H 0.22876 0.56042 0.89349
 H2812 H 0.19989 0.58241 0.87501
 H2813 H 0.23053 0.64391 0.89804
 H2814 H 0.26325 0.54661 0.91285
 H2815 H 0.30125 0.54277 0.92636
 H2816 H 0.30708 0.61518 0.93033
 C2817 C 1.11151 1.26017 1.08589
 C2818 C 1.08948 1.26312 1.08173
 C2819 C 1.07855 1.28302 1.08614
 C2820 C 1.09070 1.30041 1.09570
 C2821 C 1.11332 1.29770 1.10053
 C2822 C 1.12401 1.27746 1.09505
 O2823 O 1.11822 1.23935 1.08230
 C2824 C 1.10003 1.22895 1.07583
 C2825 C 1.08200 1.24279 1.07521
 C2826 C 1.06095 1.23509 1.07058
 C2827 C 1.05832 1.21215 1.06660
 C2828 C 1.07658 1.19744 1.06734
 C2829 C 1.09781 1.20607 1.07167
 H2830 H 1.06112 1.28478 1.08313
 H2831 H 1.08241 1.31579 1.10007
 H2832 H 1.14107 1.27475 1.09928
 H2833 H 1.04697 1.24625 1.07056
 H2834 H 1.04202 1.20576 1.06320
 H2835 H 1.11194 1.19515 1.07279
 C2836 C 1.11948 0.75280 0.59195
 C2837 C 1.09751 0.75621 0.58780
 C2838 C 1.08667 0.77586 0.59335
 C2839 C 1.09891 0.79260 0.60388
 C2840 C 1.12151 0.78949 0.60841
 C2841 C 1.13207 0.76948 0.60204
 O2842 O 1.12608 0.73221 0.58710
 C2843 C 1.10787 0.72241 0.57979
 C2844 C 1.08998 0.73645 0.57983
 C2845 C 1.06895 0.72935 0.57435
 C2846 C 1.06614 0.70676 0.56894
 C2847 C 1.08419 0.69177 0.56919
 C2848 C 1.10547 0.69985 0.57426
 H2849 H 1.06927 0.77793 0.59036
 H2850 H 1.09079 0.80783 0.60898
 H2851 H 1.14918 0.76659 0.60596
 H2852 H 1.05509 0.74066 0.57480
 H2853 H 1.04980 0.70078 0.56501
 H2854 H 1.11942 0.68866 0.57505
 C2855 C 0.61100 1.25189 0.60512
 C2856 C 0.63024 1.24036 0.60176
 C2857 C 0.65082 1.25033 0.60331
 C2858 C 0.65163 1.27310 0.60874
 C2859 C 0.63206 1.28531 0.61270
 C2860 C 0.61145 1.27448 0.61086
 O2861 O 0.59318 1.23942 0.60207
 C2862 C 0.60137 1.21957 0.59676
 C2863 C 0.62396 1.21927 0.59651
 C2864 C 0.63601 1.20032 0.59125
 C2865 C 0.62432 1.18100 0.58554
 C2866 C 0.60097 1.18098 0.58482
 C2867 C 0.58935 1.20052 0.59097
 H2868 H 0.66572 1.24091 0.60042
 H2869 H 0.66749 1.28113 0.61036
 H2870 H 0.59629 1.28348 0.61366
 H2871 H 0.65379 1.20047 0.59135
 H2872 H 0.63350 1.16609 0.58140
 H2873 H 0.57159 1.20115 0.59044
 C2874 C 0.61255 0.75413 1.09862
 C2875 C 0.59067 0.75735 1.09398
 C2876 C 0.57945 0.77674 1.09960
 C2877 C 0.59125 0.79352 1.11055
 C2878 C 0.61384 0.79073 1.11552
 C2879 C 0.62472 0.77082 1.10920
 O2880 O 0.61962 0.73384 1.09320
 C2881 C 0.60179 0.72407 1.08497
 C2882 C 0.58370 0.73783 1.08500
 C2883 C 0.56302 0.73077 1.07829
 C2884 C 0.56074 0.70845 1.07172
 C2885 C 0.57896 0.69366 1.07207
 C2886 C 0.59992 0.70174 1.07832
 H2887 H 0.56214 0.77871 1.09606
 H2888 H 0.58283 0.80874 1.11519
 H2889 H 0.64185 0.76814 1.11316
 H2890 H 0.54900 0.74188 1.07866
 H2891 H 0.54465 0.70246 1.06689
 H2892 H 0.61398 0.69071 1.07917
 C2893 C 0.91425 1.26514 0.89329
 C2894 C 0.91800 1.26832 0.91546
 C2895 C 0.91238 1.28788 0.92642
 C2896 C 0.90218 1.30477 0.91412
 C2897 C 0.89787 1.30190 0.89131
 C2898 C 0.90439 1.28193 0.88065
 O2899 O 0.91932 1.24466 0.88652
 C2900 C 0.92636 1.23471 0.90481
 C2901 C 0.92591 1.24852 0.92295
 C2902 C 0.93108 1.24121 0.94408
 C2903 C 0.93663 1.21864 0.94673
 C2904 C 0.93692 1.20391 0.92839
 C2905 C 0.93212 1.21219 0.90704
 H2906 H 0.91519 1.28982 0.94395
 H2907 H 0.89728 1.32000 0.92240
 H2908 H 0.90079 1.27913 0.86338
 H2909 H 0.93027 1.25234 0.95813
 H2910 H 0.94030 1.21246 0.96312
 H2911 H 0.93174 1.20118 0.89287
 C2912 C 0.90413 0.76177 0.39972
 C2913 C 0.92645 0.76506 0.39840
 C2914 C 0.93571 0.78407 0.38894
 C2915 C 0.92135 0.80033 0.38048
 C2916 C 0.89825 0.79737 0.38175
 C2917 C 0.88960 0.77780 0.39165
 O2918 O 0.89868 0.74215 0.40842
 C2919 C 0.91798 0.73284 0.41272
 C2920 C 0.93550 0.74620 0.40699
 C2921 C 0.95718 0.73944 0.40950
 C2922 C 0.96096 0.71794 0.41798
 C2923 C 0.94317 0.70360 0.42359
 C2924 C 0.92135 0.71141 0.42118
 H2925 H 0.95333 0.78620 0.38788
 H2926 H 0.92818 0.81526 0.37305
 H2927 H 0.87207 0.77485 0.39246
 H2928 H 0.97071 0.75022 0.40484
 H2929 H 0.97776 0.71239 0.41999
 H2930 H 0.90740 0.70081 0.42492
 C2931 C 0.40475 1.24992 0.37653
 C2932 C 0.38891 1.23358 0.37454
 C2933 C 0.36794 1.23781 0.36657
 C2934 C 0.36289 1.25991 0.36091
 C2935 C 0.37872 1.27713 0.36324
 C2936 C 0.40013 1.27202 0.37064
 O2937 O 0.42294 1.24267 0.38627
 C2938 C 0.41842 1.22138 0.39062
 C2939 C 0.39778 1.21504 0.38376
 C2940 C 0.38886 1.19413 0.38825
 C2941 C 0.40167 1.17914 0.40044
 C2942 C 0.42295 1.18527 0.40778
 C2943 C 0.43161 1.20656 0.40251
 H2944 H 0.35565 1.22475 0.36557
 H2945 H 0.34642 1.26388 0.35543
 H2946 H 0.41219 1.28508 0.37317
 H2947 H 0.37241 1.18972 0.38305
 H2948 H 0.39499 1.16283 0.40443
 H2949 H 0.44766 1.21169 0.40832
 C2950 C 0.40345 0.76370 0.90572
 C2951 C 0.42589 0.76635 0.90592
 C2952 C 0.43623 0.78569 0.89852
 C2953 C 0.42290 0.80299 0.89047
 C2954 C 0.39969 0.80074 0.89006
 C2955 C 0.38986 0.78082 0.89801
 O2956 O 0.39701 0.74362 0.91257
 C2957 C 0.41581 0.73339 0.91722
 C2958 C 0.43394 0.74662 0.91349
 C2959 C 0.45529 0.73908 0.91659
 C2960 C 0.45810 0.71690 0.92357
 C2961 C 0.43972 0.70269 0.92716
 C2962 C 0.41823 0.71126 0.92421
 H2963 H 0.45394 0.78730 0.89867
 H2964 H 0.43063 0.81818 0.88460
 H2965 H 0.37224 0.77846 0.89755
 H2966 H 0.46930 0.74980 0.91349
 H2967 H 0.47464 0.71074 0.92603
 H2968 H 0.40388 0.70079 0.92648
 C2969 C 1.11232 0.74847 0.89690
 C2970 C 1.09017 0.74384 0.89619
 C2971 C 1.08172 0.72439 0.88700
 C2972 C 1.09666 0.70918 0.87791
 C2973 C 1.11957 0.71353 0.87828
 C2974 C 1.12756 0.73331 0.88825
 O2975 O 1.11670 0.76854 0.90523
 C2976 C 1.09691 0.77669 0.90983
 C2977 C 1.08016 0.76217 0.90465
 C2978 C 1.05812 0.76758 0.90719
 C2979 C 1.05307 0.78893 0.91523
 C2980 C 1.06996 0.80445 0.92043
 C2981 C 1.09225 0.79805 0.91792
 H2982 H 1.06421 0.72126 0.88639
 H2983 H 1.09046 0.69405 0.87033
 H2984 H 1.14494 0.73715 0.88835
 H2985 H 1.04525 0.75588 0.90285
 H2986 H 1.03597 0.79343 0.91729
 H2987 H 1.10550 0.80961 0.92138
 C2988 C 1.09819 0.24068 0.40027
 C2989 C 1.07588 0.23715 0.39910
 C2990 C 1.06676 0.21753 0.39095
 C2991 C 1.08121 0.20099 0.38340
 C2992 C 1.10429 0.20425 0.38419
 C2993 C 1.11290 0.22429 0.39311
 O2994 O 1.10339 0.26093 0.40759
 C2995 C 1.08394 0.27035 0.41108
 C2996 C 1.06660 0.25648 0.40617
 C2997 C 1.04481 0.26319 0.40788
 C2998 C 1.04071 0.28514 0.41490
 C2999 C 1.05830 0.29991 0.41993
 C3000 C 1.08025 0.29224 0.41809
 H3001 H 1.04915 0.21522 0.39002
 H3002 H 1.07445 0.18568 0.37670
 H3003 H 1.13041 0.22737 0.39352
 H3004 H 1.03145 0.25198 0.40381
 H3005 H 1.02384 0.29061 0.41647
 H3006 H 1.09404 0.30317 0.42142
 C3007 C 0.59889 0.73847 0.39996
 C3008 C 0.57664 0.73559 0.39724
 C3009 C 0.56768 0.71711 0.38660
 C3010 C 0.58229 0.70105 0.37829
 C3011 C 0.60530 0.70365 0.38092
 C3012 C 0.61366 0.72255 0.39216
 O3013 O 0.60409 0.75781 0.40934
 C3014 C 0.58470 0.76734 0.41262
 C3015 C 0.56737 0.75440 0.40561
 C3016 C 0.54568 0.76153 0.40671
 C3017 C 0.54172 0.78298 0.41515
 C3018 C 0.55936 0.79691 0.42206
 C3019 C 0.58115 0.78873 0.42102
 H3020 H 0.55012 0.71535 0.38439
 H3021 H 0.57575 0.68662 0.36974
 H3022 H 0.63115 0.72519 0.39394
 H3023 H 0.53232 0.75108 0.40101
 H3024 H 0.52493 0.78883 0.41612
 H3025 H 0.59501 0.79903 0.42573
 C3026 C 0.61309 0.24861 0.89429
 C3027 C 0.59106 0.24374 0.89239
 C3028 C 0.58329 0.22447 0.88226
 C3029 C 0.59886 0.20976 0.87345
 C3030 C 0.62165 0.21443 0.87502
 C3031 C 0.62892 0.23395 0.88592
 O3032 O 0.61684 0.26844 0.90340
 C3033 C 0.59677 0.27620 0.90729
 C3034 C 0.58044 0.26168 0.90090
 C3035 C 0.55824 0.26678 0.90260
 C3036 C 0.55259 0.28780 0.91112
 C3037 C 0.56909 0.30324 0.91762
 C3038 C 0.59153 0.29718 0.91584
 H3039 H 0.56588 0.22115 0.88074
 H3040 H 0.59324 0.19480 0.86512
 H3041 H 0.64622 0.23800 0.88693
 H3042 H 0.54570 0.25511 0.89731
 H3043 H 0.53538 0.29206 0.91261
 H3044 H 0.60451 0.30872 0.92025
 C3045 C 0.86930 0.75896 1.10488
 C3046 C 0.86933 0.77391 1.12214
 C3047 C 0.86356 0.76796 1.14353
 C3048 C 0.85795 0.74557 1.14743
 C3049 C 0.85808 0.72973 1.13006
 C3050 C 0.86337 0.73661 1.10836
 O3051 O 0.87709 0.76770 1.08627
 C3052 C 0.88221 0.78854 1.09195
 C3053 C 0.87774 0.79312 1.11374
 C3054 C 0.88326 0.81327 1.12371
 C3055 C 0.89404 0.82931 1.11078
 C3056 C 0.89906 0.82500 1.08833
 C3057 C 0.89271 0.80444 1.07866
 H3058 H 0.86412 0.77993 1.15690
 H3059 H 0.85409 0.74031 1.16408
 H3060 H 0.86422 0.72463 1.09501
 H3061 H 0.87988 0.81632 1.14098
 H3062 H 0.89879 0.84502 1.11829
 H3063 H 0.89674 0.80061 1.06168
 C3064 C 0.88958 0.24783 0.60001
 C3065 C 0.88718 0.24655 0.57750
 C3066 C 0.87766 0.22824 0.56705
 C3067 C 0.87037 0.21049 0.58036
 C3068 C 0.87284 0.21128 0.60363
 C3069 C 0.88267 0.23027 0.61352
 O3070 O 0.89836 0.26702 0.60668
 C3071 C 0.90162 0.27808 0.58796
 C3072 C 0.89514 0.26624 0.56963
 C3073 C 0.89675 0.27476 0.54837
 C3074 C 0.90507 0.29650 0.54590
 C3075 C 0.91139 0.30938 0.56457
 C3076 C 0.90991 0.29979 0.58590
 H3077 H 0.87581 0.22769 0.54930
 H3078 H 0.86305 0.19602 0.57257
 H3079 H 0.88448 0.23150 0.63124
 H3080 H 0.89161 0.26510 0.53419
 H3081 H 0.90645 0.30336 0.52942
 H3082 H 0.91432 0.30919 0.60050
 C3083 C 0.39625 0.73975 0.59784
 C3084 C 0.39391 0.73899 0.57529
 C3085 C 0.38542 0.72046 0.56432
 C3086 C 0.37902 0.70200 0.57716
 C3087 C 0.38146 0.70233 0.60042
 C3088 C 0.39036 0.72147 0.61084
 O3089 O 0.40366 0.75929 0.60510
 C3090 C 0.40612 0.77112 0.58672
 C3091 C 0.40048 0.75942 0.56803
 C3092 C 0.40145 0.76873 0.54705
 C3093 C 0.40829 0.79106 0.54528
 C3094 C 0.41371 0.80376 0.56436
 C3095 C 0.41280 0.79341 0.58537
 H3096 H 0.38350 0.72034 0.54657
 H3097 H 0.37222 0.68743 0.56907
 H3098 H 0.39196 0.72233 0.62861
 H3099 H 0.39701 0.75917 0.53257
 H3100 H 0.40934 0.79844 0.52900
 H3101 H 0.41653 0.80259 0.60030
 C3102 C 0.39223 0.24132 1.09300
 C3103 C 0.41433 0.23854 1.08923
 C3104 C 0.42579 0.21961 1.09596
 C3105 C 0.41396 0.20284 1.10700
 C3106 C 0.39112 0.20520 1.11093
 C3107 C 0.38010 0.22469 1.10364
 O3108 O 0.38483 0.26122 1.08670
 C3109 C 0.40266 0.27122 1.07876
 C3110 C 0.42110 0.25796 1.07982
 C3111 C 0.44179 0.26543 1.07356
 C3112 C 0.44368 0.28766 1.06648
 C3113 C 0.42508 0.30196 1.06594
 C3114 C 0.40415 0.29341 1.07162
 H3115 H 0.44326 0.21798 1.09314
 H3116 H 0.42251 0.18796 1.11243
 H3117 H 0.36277 0.22711 1.10684
 H3118 H 0.45608 0.25475 1.07473
 H3119 H 0.45978 0.29403 1.06213
 H3120 H 0.38980 0.30408 1.07184
 C3121 C 1.12907 1.11715 0.75786
 C3122 C 1.12468 1.13430 0.77225
 C3123 C 1.12672 1.15665 0.76660
 C3124 C 1.13350 1.16169 0.74515
 C3125 C 1.13869 1.14447 0.72978
 C3126 C 1.13681 1.12175 0.73656
 O3127 O 1.12392 1.09715 0.76607
 C3128 C 1.11623 1.10192 0.78609
 C3129 C 1.11670 1.12443 0.79065
 C3130 C 1.10885 1.13348 0.81016
 C3131 C 1.09952 1.11881 0.82547
 C3132 C 1.09764 1.09559 0.82088
 C3133 C 1.10673 1.08690 0.80112
 H3134 H 1.12276 1.16981 0.77818
 H3135 H 1.13530 1.17915 0.74086
 H3136 H 1.13999 1.10814 0.72525
 H3137 H 1.10950 1.15128 0.81331
 H3138 H 1.09320 1.12567 0.84072
 H3139 H 1.10539 1.06932 0.79708
 C3140 C 1.13612 0.61356 0.25857
 C3141 C 1.13203 0.63072 0.27306
 C3142 C 1.13398 0.65309 0.26736
 C3143 C 1.14008 0.65810 0.24568
 C3144 C 1.14489 0.64086 0.23025
 C3145 C 1.14351 0.61817 0.23713
 O3146 O 1.13039 0.59365 0.26658
 C3147 C 1.12262 0.59844 0.28656
 C3148 C 1.12366 0.62089 0.29134
 C3149 C 1.11548 0.63001 0.31068
 C3150 C 1.10522 0.61552 0.32556
 C3151 C 1.10268 0.59242 0.32067
 C3152 C 1.11216 0.58363 0.30113
 H3153 H 1.13006 0.66626 0.27893
 H3154 H 1.14137 0.67553 0.24102
 H3155 H 1.14624 0.60461 0.22564
 H3156 H 1.11650 0.64777 0.31398
 H3157 H 1.09866 0.62246 0.34068
 H3158 H 1.11030 0.56616 0.29682
 C3159 C 0.61312 1.11282 0.25186
 C3160 C 0.63092 1.10237 0.26122
 C3161 C 0.65081 1.09978 0.25047
 C3162 C 0.65250 1.10812 0.22901
 C3163 C 0.63465 1.11952 0.21877
 C3164 C 0.61475 1.12233 0.23074
 O3165 O 0.59520 1.11160 0.26442
 C3166 C 0.60203 1.10027 0.28208
 C3167 C 0.62385 1.09462 0.28095
 C3168 C 0.63456 1.08265 0.29731
 C3169 C 0.62220 1.07578 0.31553
 C3170 C 0.59928 1.08019 0.31683
 C3171 C 0.58917 1.09310 0.29993
 H3172 H 0.66444 1.09118 0.25815
 H3173 H 0.66811 1.10623 0.22070
 H3174 H 0.60065 1.13042 0.22338
 H3175 H 0.65186 1.07869 0.29607
 H3176 H 0.63061 1.06686 0.32856
 H3177 H 0.57177 1.09674 0.30021
 C3178 C 0.60955 0.60734 0.74758
 C3179 C 0.62781 0.60664 0.76090
 C3180 C 0.64890 0.61072 0.75314
 C3181 C 0.65131 0.61575 0.73069
 C3182 C 0.63278 0.61659 0.71649
 C3183 C 0.61156 0.61244 0.72518
 O3184 O 0.59112 0.60207 0.75814
 C3185 C 0.59794 0.59795 0.77856
 C3186 C 0.62026 0.60058 0.78106
 C3187 C 0.63112 0.59627 0.80076
 C3188 C 0.61851 0.58853 0.81852
 C3189 C 0.59552 0.58528 0.81630
 C3190 C 0.58501 0.59047 0.79614
 H3191 H 0.66302 0.60994 0.76396
 H3192 H 0.66761 0.61927 0.72446
 H3193 H 0.59715 0.61270 0.71473
 H3194 H 0.64872 0.59833 0.80225
 H3195 H 0.62667 0.58467 0.83393
 H3196 H 0.56756 0.58777 0.79395
 C3197 C 0.87253 0.89458 0.75426
 C3198 C 0.87342 0.87727 0.76922
 C3199 C 0.86740 0.85549 0.76401
 C3200 C 0.86055 0.85126 0.74236
 C3201 C 0.85968 0.86870 0.72655
 C3202 C 0.86532 0.89078 0.73267
 O3203 O 0.88071 0.91359 0.76212
 C3204 C 0.88694 0.90811 0.78244
 C3205 C 0.88277 0.88608 0.78755
 C3206 C 0.88921 0.87631 0.80730
 C3207 C 0.90060 0.88972 0.82238
 C3208 C 0.90543 0.91242 0.81747
 C3209 C 0.89814 0.92185 0.79733
 H3210 H 0.86866 0.84209 0.77596
 H3211 H 0.85643 0.83431 0.73763
 H3212 H 0.86538 0.90418 0.72065
 H3213 H 0.88596 0.85886 0.81080
 H3214 H 0.90589 0.88237 0.83783
 H3215 H 0.90191 0.93901 0.79304
 C3216 C 0.87620 0.38215 0.25913
 C3217 C 0.85940 0.38975 0.27222
 C3218 C 0.83746 0.38676 0.26703
 C3219 C 0.83249 0.37553 0.24744
 C3220 C 0.84940 0.36732 0.23327
 C3221 C 0.87170 0.37064 0.23960
 O3222 O 0.89596 0.38743 0.26688
 C3223 C 0.89142 0.39857 0.28528
 C3224 C 0.86926 0.40033 0.28927
 C3225 C 0.86068 0.41149 0.30737
 C3226 C 0.87556 0.42145 0.32194
 C3227 C 0.89857 0.42032 0.31809
 C3228 C 0.90660 0.40842 0.29958
 H3229 H 0.82455 0.39293 0.27769
 H3230 H 0.81532 0.37288 0.24387
 H3231 H 0.88525 0.36524 0.22942
 H3232 H 0.84315 0.41253 0.31016
 H3233 H 0.86914 0.42998 0.33630
 H3234 H 0.92402 0.40733 0.29617
 C3235 C 0.38226 0.88165 0.25674
 C3236 C 0.36522 0.89143 0.26801
 C3237 C 0.34381 0.89152 0.26040
 C3238 C 0.33966 0.88127 0.24016
 C3239 C 0.35676 0.87066 0.22793
 C3240 C 0.37840 0.87054 0.23676
 O3241 O 0.40161 0.88490 0.26644
 C3242 C 0.39650 0.89688 0.28421
 C3243 C 0.37438 0.90103 0.28594
 C3244 C 0.36519 0.91335 0.30295
 C3245 C 0.37944 0.92212 0.31880
 C3246 C 0.40253 0.91900 0.31713
 C3247 C 0.41113 0.90579 0.29970
 H3248 H 0.33075 0.89951 0.26958
 H3249 H 0.32283 0.88106 0.23452
 H3250 H 0.39197 0.86310 0.22789
 H3251 H 0.34766 0.91615 0.30398
 H3252 H 0.37238 0.93139 0.33238
 H3253 H 0.42861 0.90310 0.29789
 C3254 C 0.38033 0.40198 0.74699
 C3255 C 0.37846 0.38434 0.76149
 C3256 C 0.37079 0.36338 0.75524
 C3257 C 0.36503 0.36039 0.73306
 C3258 C 0.36702 0.37819 0.71777
 C3259 C 0.37454 0.39937 0.72482
 O3260 O 0.38911 0.42010 0.75612
 C3261 C 0.39293 0.41371 0.77677
 C3262 C 0.38672 0.39196 0.78084
 C3263 C 0.39035 0.38136 0.80092
 C3264 C 0.40100 0.39361 0.81745
 C3265 C 0.40769 0.41602 0.81369
 C3266 C 0.40331 0.42634 0.79315
 H3267 H 0.36976 0.34969 0.76689
 H3268 H 0.35948 0.34412 0.72754
 H3269 H 0.37658 0.41299 0.71322
 H3270 H 0.38555 0.36414 0.80361
 H3271 H 0.40424 0.38562 0.83316
 H3272 H 0.40858 0.44331 0.78979
 C3273 C 1.11022 0.88841 1.24981
 C3274 C 1.09973 0.87074 1.23991
 C3275 C 1.09720 0.85006 1.24997
 C3276 C 1.10591 0.84737 1.27118
 C3277 C 1.11762 0.86501 1.28172
 C3278 C 1.11990 0.88584 1.27057
 O3279 O 1.10930 0.90712 1.23792
 C3280 C 1.09816 0.90096 1.22005
 C3281 C 1.09230 0.87876 1.22040
 C3282 C 1.08082 0.86856 1.20344
 C3283 C 1.07461 0.88187 1.18554
 C3284 C 1.07910 0.90526 1.18517
 C3285 C 1.09159 0.91478 1.20259
 H3286 H 1.08855 0.83653 1.24190
 H3287 H 1.10419 0.83115 1.27891
 H3288 H 1.12808 0.89993 1.27818
 H3289 H 1.07680 0.85093 1.20395
 H3290 H 1.06611 0.87383 1.17203
 H3291 H 1.09538 0.93246 1.20299
 C3292 C 1.10673 0.38755 0.75173
 C3293 C 1.09519 0.36988 0.74307
 C3294 C 1.09202 0.34993 0.75430
 C3295 C 1.10108 0.34804 0.77543
 C3296 C 1.11372 0.36571 0.78480
 C3297 C 1.11676 0.38572 0.77243
 O3298 O 1.10635 0.40558 0.73884
 C3299 C 1.09447 0.39896 0.72161
 C3300 C 1.08759 0.37714 0.72334
 C3301 C 1.07516 0.36659 0.70728
 C3302 C 1.06915 0.37914 0.68877
 C3303 C 1.07485 0.40218 0.68691
 C3304 C 1.08815 0.41205 0.70353
 H3305 H 1.08260 0.33638 0.74718
 H3306 H 1.09881 0.33237 0.78406
 H3307 H 1.12572 0.39981 0.77909
 H3308 H 1.07030 0.34924 0.70889
 H3309 H 1.05996 0.37076 0.67593
 H3310 H 1.09284 0.42950 0.70284
 C3311 C 0.58255 0.88946 0.76293
 C3312 C 0.57743 0.91176 0.76511
 C3313 C 0.58235 0.92402 0.78394
 C3314 C 0.59328 0.91296 0.80111
 C3315 C 0.59896 0.89005 0.79925
 C3316 C 0.59311 0.87802 0.78003
 O3317 O 0.57817 0.88148 0.74294
 C3318 C 0.57020 0.89913 0.73229
 C3319 C 0.56937 0.91804 0.74519
 C3320 C 0.56325 0.93884 0.73701
 C3321 C 0.55814 0.94032 0.71452
 C3322 C 0.55919 0.92119 0.70075
 C3323 C 0.56487 0.90018 0.70986
 H3324 H 0.57854 0.94166 0.78509
 H3325 H 0.59778 0.92228 0.81574
 H3326 H 0.59784 0.86070 0.77797
 H3327 H 0.56312 0.95354 0.74740
 H3328 H 0.55391 0.95647 0.70763
 H3329 H 0.56634 0.88549 0.69956
 C3330 C 0.60316 0.39151 1.25694
 C3331 C 0.59508 0.37279 1.24667
 C3332 C 0.59399 0.35205 1.25686
 C3333 C 0.60168 0.35041 1.27857
 C3334 C 0.61078 0.36930 1.28967
 C3335 C 0.61147 0.39020 1.27838
 O3336 O 0.60163 0.40984 1.24459
 C3337 C 0.59251 0.40240 1.22606
 C3338 C 0.58843 0.37979 1.22650
 C3339 C 0.57902 0.36837 1.20899
 C3340 C 0.57311 0.38082 1.19038
 C3341 C 0.57612 0.40442 1.18971
 C3342 C 0.58644 0.41527 1.20775
 H3343 H 0.58734 0.33760 1.24842
 H3344 H 0.60123 0.33409 1.28621
 H3345 H 0.61760 0.40521 1.28620
 H3346 H 0.57625 0.35050 1.20966
 H3347 H 0.56600 0.37201 1.17652
 H3348 H 0.58895 0.43319 1.20788
 C3349 C 0.89570 1.10318 1.25599
 C3350 C 0.91817 1.10378 1.25833
 C3351 C 0.92849 1.11276 1.27678
 C3352 C 0.91510 1.12143 1.29356
 C3353 C 0.89191 1.12059 1.29173
 C3354 C 0.88209 1.11122 1.27272
 O3355 O 0.88926 1.09516 1.23661
 C3356 C 0.90808 1.09052 1.22652
 C3357 C 0.92621 1.09530 1.23921
 C3358 C 0.94755 1.09212 1.23181
 C3359 C 0.95036 1.08414 1.21028
 C3360 C 0.93199 1.07992 1.19639
 C3361 C 0.91049 1.08275 1.20491
 H3362 H 0.94621 1.11337 1.27808
 H3363 H 0.92267 1.12859 1.30809
 H3364 H 0.86441 1.11076 1.27085
 H3365 H 0.96155 1.09589 1.24216
 H3366 H 0.96693 1.08156 1.20432
 H3367 H 0.89612 1.07996 1.19476
 C3368 C 0.89822 0.60109 0.75746
 C3369 C 0.92040 0.59883 0.76113
 C3370 C 0.93032 0.60463 0.78096
 C3371 C 0.91687 0.61338 0.79761
 C3372 C 0.89395 0.61612 0.79425
 C3373 C 0.88447 0.60954 0.77393
 O3374 O 0.89232 0.59555 0.73708
 C3375 C 0.91120 0.58970 0.72772
 C3376 C 0.92886 0.59139 0.74177
 C3377 C 0.95028 0.58691 0.73521
 C3378 C 0.95368 0.58055 0.71321
 C3379 C 0.93581 0.57886 0.69825
 C3380 C 0.91421 0.58331 0.70577
 H3381 H 0.94784 0.60285 0.78339
 H3382 H 0.92430 0.61817 0.81312
 H3383 H 0.86712 0.61181 0.77076
 H3384 H 0.96391 0.58849 0.74655
 H3385 H 0.97026 0.57695 0.70782
 H3386 H 0.90027 0.58251 0.69470
 C3387 C 0.40160 1.11363 0.75445
 C3388 C 0.38443 1.11589 0.73988
 C3389 C 0.36335 1.12174 0.74640
 C3390 C 0.35975 1.12537 0.76891
 C3391 C 0.37712 1.12318 0.78437
 C3392 C 0.39844 1.11748 0.77698
 O3393 O 0.41998 1.10658 0.74487
 C3394 C 0.41421 1.10435 0.72383
 C3395 C 0.39264 1.10996 0.71998
 C3396 C 0.38268 1.10780 0.69949
 C3397 C 0.39535 1.09902 0.68230
 C3398 C 0.41748 1.09258 0.68588
 C3399 C 0.42723 1.09574 0.70683
 H3400 H 0.35007 1.12315 0.73462
 H3401 H 0.34345 1.13002 0.77434
 H3402 H 0.41188 1.11547 0.78850
 H3403 H 0.36561 1.11213 0.69697
 H3404 H 0.38779 1.09666 0.66629
 H3405 H 0.44395 1.09054 0.71004
 C3406 C 0.38708 0.60320 1.25037
 C3407 C 0.40921 0.60545 1.25419
 C3408 C 0.41758 0.61725 1.27204
 C3409 C 0.40254 0.62735 1.28644
 C3410 C 0.37947 0.62508 1.28322
 C3411 C 0.37179 0.61230 1.26500
 O3412 O 0.38260 0.59319 1.23133
 C3413 C 0.40236 0.58892 1.22304
 C3414 C 0.41917 0.59584 1.23656
 C3415 C 0.44115 0.59362 1.23090
 C3416 C 0.44604 0.58431 1.21027
 C3417 C 0.42905 0.57804 1.19537
 C3418 C 0.40684 0.57998 1.20221
 H3419 H 0.43510 0.61915 1.27446
 H3420 H 0.40900 0.63661 1.30032
 H3421 H 0.35447 0.61076 1.26133
 H3422 H 0.45409 0.59909 1.24188
 H3423 H 0.46314 0.58237 1.20580
 H3424 H 0.39339 0.57576 1.19130
 C3425 C 1.11264 1.26108 0.91550
 C3426 C 1.09086 1.26421 0.92075
 C3427 C 1.07983 1.28414 0.91674
 C3428 C 1.09159 1.30139 0.90644
 C3429 C 1.11393 1.29850 0.90051
 C3430 C 1.12477 1.27825 0.90559
 O3431 O 1.11936 1.24021 0.91879
 C3432 C 1.10141 1.22995 0.92615
 C3433 C 1.08355 1.24393 0.92765
 C3434 C 1.06264 1.23638 0.93314
 C3435 C 1.05997 1.21344 0.93704
 C3436 C 1.07805 1.19860 0.93541
 C3437 C 1.09917 1.20705 0.93026
 H3438 H 1.06257 1.28602 0.92057
 H3439 H 1.08318 1.31678 0.90232
 H3440 H 1.14158 1.27543 0.90049
 H3441 H 1.04876 1.24765 0.93379
 H3442 H 1.04375 1.20711 0.94099
 H3443 H 1.11311 1.19599 0.92841
 C3444 C 1.11954 0.75663 0.41156
 C3445 C 1.09803 0.75998 0.41771
 C3446 C 1.08687 0.77982 0.41364
 C3447 C 1.09821 0.79678 0.40242
 C3448 C 1.12029 0.79371 0.39572
 C3449 C 1.13128 0.77352 0.40074
 O3450 O 1.12636 0.73583 0.41513
 C3451 C 1.10876 0.72585 0.42364
 C3452 C 1.09103 0.73997 0.42559
 C3453 C 1.07040 0.73271 0.43236
 C3454 C 1.06782 0.70990 0.43698
 C3455 C 1.08570 0.69490 0.43478
 C3456 C 1.10660 0.70307 0.42845
 H3457 H 1.06980 0.78186 0.41818
 H3458 H 1.08970 0.81213 0.39837
 H3459 H 1.14790 0.77060 0.39511
 H3460 H 1.05662 0.74408 0.43336
 H3461 H 1.05176 0.70377 0.44177
 H3462 H 1.12034 0.69184 0.42611
 C3463 C 0.61340 1.25383 0.40115
 C3464 C 0.63259 1.24271 0.40583
 C3465 C 0.65315 1.25270 0.40415
 C3466 C 0.65399 1.27506 0.39718
 C3467 C 0.63446 1.28684 0.39187
 C3468 C 0.61387 1.27600 0.39394
 O3469 O 0.59558 1.24136 0.40425
 C3470 C 0.60374 1.22191 0.41094
 C3471 C 0.62630 1.22187 0.41205
 C3472 C 0.63830 1.20326 0.41850
 C3473 C 0.62656 1.18398 0.42438
 C3474 C 0.60320 1.18368 0.42407
 C3475 C 0.59168 1.20295 0.41691
 H3476 H 0.66802 1.24360 0.40800
 H3477 H 0.66986 1.28303 0.39539
 H3478 H 0.59872 1.28463 0.39012
 H3479 H 0.65607 1.20357 0.41900
 H3480 H 0.63575 1.16928 0.42921
 H3481 H 0.57391 1.20340 0.41658
 C3482 C 0.61252 0.75019 0.88801
 C3483 C 0.63126 0.73762 0.89049
 C3484 C 0.65210 0.74582 0.88578
 C3485 C 0.65373 0.76799 0.87844
 C3486 C 0.63469 0.78143 0.87592
 C3487 C 0.61374 0.77224 0.88049
 O3488 O 0.59445 0.73947 0.89433
 C3489 C 0.60200 0.71974 0.90094
 C3490 C 0.62441 0.71778 0.89889
 C3491 C 0.63588 0.69885 0.90548
 C3492 C 0.62376 0.68123 0.91470
 C3493 C 0.60063 0.68286 0.91726
 C3494 C 0.58960 0.70238 0.91003
 H3495 H 0.66662 0.73563 0.88800
 H3496 H 0.66982 0.77475 0.87480
 H3497 H 0.59900 0.78223 0.87905
 H3498 H 0.65354 0.69776 0.90374
 H3499 H 0.63240 0.66628 0.91982
 H3500 H 0.57201 0.70421 0.91198
 C3501 C 0.88860 1.25149 1.10811
 C3502 C 0.91065 1.25564 1.11048
 C3503 C 0.91874 1.27304 1.12328
 C3504 C 0.90348 1.28674 1.13411
 C3505 C 0.88043 1.28315 1.13176
 C3506 C 0.87310 1.26521 1.11822
 O3507 O 0.88434 1.23306 1.09668
 C3508 C 0.90419 1.22546 1.09164
 C3509 C 0.92084 1.23880 1.09951
 C3510 C 0.94290 1.23357 1.09682
 C3511 C 0.94799 1.21350 1.08605
 C3512 C 0.93111 1.19887 1.07861
 C3513 C 0.90886 1.20532 1.08103
 H3514 H 0.93622 1.27576 1.12517
 H3515 H 0.90979 1.30041 1.14389
 H3516 H 0.85589 1.26114 1.11645
 H3517 H 0.95573 1.24434 1.10316
 H3518 H 0.96511 1.20910 1.08399
 H3519 H 0.89557 1.19444 1.07597
 C3520 C 0.89822 0.75765 0.60164
 C3521 C 0.92036 0.76133 0.60453
 C3522 C 0.92863 0.78036 0.61472
 C3523 C 0.91345 0.79606 0.62255
 C3524 C 0.89053 0.79259 0.61995
 C3525 C 0.88283 0.77328 0.60897
 O3526 O 0.89382 0.73788 0.59272
 C3527 C 0.91358 0.72894 0.58995
 C3528 C 0.93037 0.74263 0.59685
 C3529 C 0.95231 0.73623 0.59622
 C3530 C 0.95715 0.71481 0.58817
 C3531 C 0.94012 0.70022 0.58111
 C3532 C 0.91801 0.70756 0.58195
 H3533 H 0.94610 0.78277 0.61704
 H3534 H 0.91945 0.81082 0.63095
 H3535 H 0.86542 0.77005 0.60723
 H3536 H 0.96523 0.74728 0.60187
 H3537 H 0.97416 0.70961 0.58739
 H3538 H 0.90457 0.69674 0.57713
 C3539 C 0.40212 1.26058 0.59879
 C3540 C 0.42431 1.26282 0.60222
 C3541 C 0.43344 1.28106 0.61297
 C3542 C 0.41913 1.29762 0.62072
 C3543 C 0.39598 1.29599 0.61742
 C3544 C 0.38756 1.27715 0.60582
 O3545 O 0.39673 1.24123 0.58948
 C3546 C 0.41597 1.23111 0.58692
 C3547 C 0.43337 1.24372 0.59430
 C3548 C 0.45493 1.23618 0.59373
 C3549 C 0.45872 1.21463 0.58548
 C3550 C 0.44102 1.20088 0.57836
 C3551 C 0.41933 1.20951 0.57885
 H3552 H 0.45098 1.28233 0.61564
 H3553 H 0.42632 1.31191 0.62891
 H3554 H 0.37014 1.27467 0.60337
 H3555 H 0.46836 1.24645 0.59961
 H3556 H 0.47547 1.20862 0.58481
 H3557 H 0.40537 1.19946 0.57392
 C3558 C 0.38861 0.73474 1.13800
 C3559 C 0.37268 0.71908 1.13347
 C3560 C 0.35050 0.72282 1.13689
 C3561 C 0.34429 0.74386 1.14462
 C3562 C 0.36020 0.76071 1.14919
 C3563 C 0.38285 0.75562 1.14675
 O3564 O 0.40840 0.72865 1.13088
 C3565 C 0.40474 0.70880 1.12165
 C3566 C 0.38314 0.70222 1.12302
 C3567 C 0.37506 0.68305 1.11299
 C3568 C 0.38979 0.67017 1.10075
 C3569 C 0.41209 0.67674 1.09850
 C3570 C 0.41982 0.69610 1.10953
 H3571 H 0.33828 0.71034 1.13276
 H3572 H 0.32695 0.74705 1.14690
 H3573 H 0.39536 0.76822 1.14935
 H3574 H 0.35789 0.67847 1.11408
 H3575 H 0.38376 0.65523 1.09266
 H3576 H 0.43667 0.70164 1.10779
 C3577 C 0.90103 0.74611 0.89571
 C3578 C 0.89942 0.74461 0.91830
 C3579 C 0.89012 0.72631 0.92898
 C3580 C 0.88199 0.70890 0.91581
 C3581 C 0.88355 0.70998 0.89251
 C3582 C 0.89348 0.72873 0.88232
 O3583 O 0.90898 0.76563 0.88887
 C3584 C 0.91248 0.77666 0.90756
 C3585 C 0.90702 0.76445 0.92602
 C3586 C 0.90852 0.77299 0.94725
 C3587 C 0.91560 0.79517 0.94958
 C3588 C 0.92074 0.80845 0.93081
 C3589 C 0.91953 0.79882 0.90949
 H3590 H 0.88870 0.72569 0.94677
 H3591 H 0.87435 0.69460 0.92366
 H3592 H 0.89438 0.73009 0.86453
 H3593 H 0.90406 0.76306 0.96151
 H3594 H 0.91680 0.80210 0.96603
 H3595 H 0.92299 0.80856 0.89483
 C3596 C 0.88160 0.25465 0.38615
 C3597 C 0.86304 0.26712 0.39003
 C3598 C 0.84193 0.25870 0.38727
 C3599 C 0.83984 0.23647 0.38024
 C3600 C 0.85868 0.22323 0.37593
 C3601 C 0.87989 0.23257 0.37881
 O3602 O 0.90007 0.26562 0.39066
 C3603 C 0.89298 0.28546 0.39748
 C3604 C 0.87046 0.28722 0.39728
 C3605 C 0.85945 0.30631 0.40409
 C3606 C 0.87213 0.32425 0.41176
 C3607 C 0.89542 0.32278 0.41277
 C3608 C 0.90598 0.30313 0.40514
 H3609 H 0.82758 0.26881 0.39061
 H3610 H 0.82355 0.22959 0.37790
 H3611 H 0.89453 0.22275 0.37592
 H3612 H 0.84170 0.30731 0.40368
 H3613 H 0.86376 0.33929 0.41705
 H3614 H 0.92366 0.30137 0.40585
 C3615 C 0.37445 0.76141 0.37130
 C3616 C 0.35749 0.77573 0.37604
 C3617 C 0.33573 0.77076 0.37157
 C3618 C 0.33109 0.75000 0.36202
 C3619 C 0.34814 0.73448 0.35691
 C3620 C 0.37030 0.74071 0.36137
 O3621 O 0.39386 0.76911 0.37793
 C3622 C 0.38894 0.78872 0.38700
 C3623 C 0.36689 0.79351 0.38613
 C3624 C 0.35787 0.81278 0.39508
 C3625 C 0.37215 0.82770 0.40560
 C3626 C 0.39498 0.82307 0.40723
 C3627 C 0.40353 0.80338 0.39746
 H3628 H 0.32269 0.78237 0.37552
 H3629 H 0.31410 0.74647 0.35826
 H3630 H 0.38386 0.72949 0.35829
 H3631 H 0.34043 0.81614 0.39414
 H3632 H 0.36538 0.84289 0.41251
 H3633 H 0.42082 0.79931 0.39854
 C3634 C 0.39676 0.23989 0.90821
 C3635 C 0.41928 0.23954 0.90721
 C3636 C 0.43097 0.22222 0.89753
 C3637 C 0.41895 0.20452 0.88836
 C3638 C 0.39558 0.20405 0.88945
 C3639 C 0.38446 0.22202 0.89999
 O3640 O 0.38884 0.25901 0.91605
 C3641 C 0.40681 0.27092 0.92020
 C3642 C 0.42585 0.25958 0.91533
 C3643 C 0.44654 0.26904 0.91750
 C3644 C 0.44770 0.29134 0.92437
 C3645 C 0.42831 0.30396 0.92836
 C3646 C 0.40755 0.29331 0.92686
 H3647 H 0.44872 0.22258 0.89655
 H3648 H 0.42800 0.19097 0.88085
 H3649 H 0.36672 0.22290 0.90051
 H3650 H 0.46128 0.25975 0.91357
 H3651 H 0.46375 0.29900 0.92596
 H3652 H 0.39247 0.30249 0.92947
 C3653 C 1.10927 0.74891 1.10166
 C3654 C 1.08750 0.74660 1.10726
 C3655 C 1.07998 0.73050 1.12189
 C3656 C 1.09553 0.71627 1.13138
 C3657 C 1.11817 0.71767 1.12557
 C3658 C 1.12499 0.73398 1.10994
 O3659 O 1.11312 0.76702 1.08948
 C3660 C 1.09330 0.77613 1.08726
 C3661 C 1.07708 0.76398 1.09751
 C3662 C 1.05523 0.77054 1.09782
 C3663 C 1.04987 0.79078 1.08756
 C3664 C 1.06639 0.80457 1.07800
 C3665 C 1.08843 0.79672 1.07743
 H3666 H 1.06281 0.72941 1.12642
 H3667 H 1.08976 0.70372 1.14289
 H3668 H 1.14213 0.73601 1.10565
 H3669 H 1.04276 0.76052 1.10586
 H3670 H 1.03281 0.79582 1.08749
 H3671 H 1.10160 0.80676 1.07064
 C3672 C 1.11748 0.26644 0.62862
 C3673 C 1.13285 0.28027 0.61916
 C3674 C 1.15482 0.27437 0.61693
 C3675 C 1.16126 0.25332 0.62484
 C3676 C 1.14596 0.23897 0.63557
 C3677 C 1.12374 0.24597 0.63769
 O3678 O 1.09704 0.27395 0.62653
 C3679 C 1.09959 0.29308 0.61565
 C3680 C 1.12128 0.29786 0.61120
 C3681 C 1.12784 0.31655 0.59937
 C3682 C 1.11138 0.33042 0.59097
 C3683 C 1.08876 0.32498 0.59369
 C3684 C 1.08279 0.30649 0.60702
 H3685 H 1.16646 0.28529 0.60877
 H3686 H 1.17830 0.24853 0.62313
 H3687 H 1.11135 0.23517 0.64482
 H3688 H 1.14502 0.32003 0.59621
 H3689 H 1.11628 0.34490 0.58140
 H3690 H 1.06576 0.30179 0.60926
 C3691 C 0.59370 0.73237 0.59612
 C3692 C 0.57128 0.72987 0.59753
 C3693 C 0.56140 0.71078 0.60613
 C3694 C 0.57520 0.69362 0.61370
 C3695 C 0.59838 0.69579 0.61240
 C3696 C 0.60769 0.71542 0.60328
 O3697 O 0.59980 0.75222 0.58845
 C3698 C 0.58082 0.76249 0.58491
 C3699 C 0.56287 0.74951 0.59012
 C3700 C 0.54143 0.75724 0.58834
 C3701 C 0.53838 0.77933 0.58114
 C3702 C 0.55664 0.79324 0.57606
 C3703 C 0.57817 0.78449 0.57774
 H3704 H 0.54371 0.70928 0.60729
 H3705 H 0.56790 0.67864 0.62057
 H3706 H 0.62531 0.71776 0.60251
 H3707 H 0.52756 0.74675 0.59259
 H3708 H 0.52178 0.78563 0.57966
 H3709 H 0.59247 0.79473 0.57437
 C3710 C 0.60874 0.25509 1.12748
 C3711 C 0.62587 0.26827 1.12038
 C3712 C 0.64745 0.26094 1.11979
 C3713 C 0.65159 0.23893 1.12637
 C3714 C 0.63438 0.22482 1.13411
 C3715 C 0.61267 0.23343 1.13538
 O3716 O 0.58920 0.26433 1.12379
 C3717 C 0.59420 0.28374 1.11423
 C3718 C 0.61647 0.28700 1.11214
 C3719 C 0.62555 0.30538 1.10154
 C3720 C 0.61111 0.32084 1.09215
 C3721 C 0.58801 0.31745 1.09291
 C3722 C 0.57941 0.29891 1.10474
 H3723 H 0.66054 0.27146 1.11354
 H3724 H 0.66833 0.23293 1.12558
 H3725 H 0.59904 0.22293 1.14037
 H3726 H 0.64315 0.30748 1.10007
 H3727 H 0.61799 0.33521 1.08372
 H3728 H 0.56192 0.29571 1.10539
 C3729 C 1.25197 1.10683 0.88457
 C3730 C 1.23860 1.12495 0.88827
 C3731 C 1.24597 1.14693 0.88674
 C3732 C 1.26806 1.15037 0.88109
 C3733 C 1.28209 1.13198 0.87686
 C3734 C 1.27387 1.10990 0.87847
 O3735 O 1.24213 1.08737 0.88845
 C3736 C 1.22207 1.09335 0.89471
 C3737 C 1.21908 1.11617 0.89467
 C3738 C 1.19971 1.12623 0.90149
 C3739 C 1.18293 1.11226 0.90922
 C3740 C 1.18586 1.08871 0.91033
 C3741 C 1.20553 1.07908 0.90237
 H3742 H 1.23521 1.16090 0.89013
 H3743 H 1.27426 1.16730 0.87982
 H3744 H 1.28442 1.09562 0.87570
 H3745 H 1.19778 1.14422 0.90136
 H3746 H 1.16783 1.11983 0.91499
 H3747 H 1.20832 1.06122 0.90332
 C3748 C 1.23545 0.60895 0.35929
 C3749 C 1.21839 0.62395 0.36073
 C3750 C 1.21946 0.64541 0.35201
 C3751 C 1.23919 0.65197 0.34201
 C3752 C 1.25735 0.63717 0.34096
 C3753 C 1.25521 0.61509 0.34917
 O3754 O 1.23152 0.58994 0.36998
 C3755 C 1.21163 0.59310 0.37845
 C3756 C 1.20295 0.61370 0.37332
 C3757 C 1.18307 0.62124 0.38176
 C3758 C 1.17160 0.60695 0.39604
 C3759 C 1.18007 0.58556 0.40146
 C3760 C 1.20028 0.57843 0.39237
 H3761 H 1.20589 0.65698 0.35359
 H3762 H 1.24070 0.66889 0.33582
 H3763 H 1.26901 0.60370 0.34916
 H3764 H 1.17678 0.63768 0.37777
 H3765 H 1.15606 0.61244 0.40282
 H3766 H 1.20715 0.56226 0.39648
 C3767 C 0.75676 1.09762 0.39893
 C3768 C 0.76061 1.07497 0.39935
 C3769 C 0.77963 1.06542 0.39091
 C3770 C 0.79531 1.07980 0.38159
 C3771 C 0.79176 1.10327 0.38083
 C3772 C 0.77220 1.11226 0.38983
 O3773 O 0.73727 1.10315 0.40711
 C3774 C 0.72865 1.08356 0.41279
 C3775 C 0.74230 1.06580 0.40840
 C3776 C 0.73628 1.04372 0.41228
 C3777 C 0.71520 1.03974 0.42078
 C3778 C 0.70064 1.05773 0.42519
 C3779 C 0.70765 1.07999 0.42140
 H3780 H 0.78223 1.04753 0.39134
 H3781 H 0.81028 1.07265 0.37509
 H3782 H 0.76885 1.13001 0.38924
 H3783 H 0.74727 1.03002 0.40857
 H3784 H 0.71011 1.02264 0.42373
 H3785 H 0.69679 1.09402 0.42424
 C3786 C 0.75013 0.60415 0.87774
 C3787 C 0.73563 0.62168 0.87971
 C3788 C 0.74121 0.64362 0.87460
 C3789 C 0.76275 0.64777 0.86758
 C3790 C 0.77816 0.63013 0.86570
 C3791 C 0.77163 0.60790 0.87040
 O3792 O 0.74191 0.58489 0.88502
 C3793 C 0.72186 0.59044 0.89179
 C3794 C 0.71727 0.61277 0.88885
 C3795 C 0.69788 0.62259 0.89602
 C3796 C 0.68261 0.60889 0.90683
 C3797 C 0.68693 0.58583 0.91029
 C3798 C 0.70672 0.57639 0.90233
 H3799 H 0.72960 0.65715 0.87663
 H3800 H 0.76769 0.66481 0.86410
 H3801 H 0.78330 0.59428 0.86965
 H3802 H 0.69480 0.64027 0.89377
 H3803 H 0.66745 0.61625 0.91270
 H3804 H 0.71054 0.55892 0.90505
 C3805 C 1.23600 0.87746 1.12447
 C3806 C 1.22145 0.86024 1.12088
 C3807 C 1.22646 0.83802 1.12530
 C3808 C 1.24741 0.83334 1.13366
 C3809 C 1.26277 0.85079 1.13745
 C3810 C 1.25683 0.87321 1.13298
 O3811 O 1.22837 0.89723 1.11812
 C3812 C 1.20857 0.89236 1.11034
 C3813 C 1.20355 0.86995 1.11173
 C3814 C 1.18407 0.86098 1.10378
 C3815 C 1.16924 0.87566 1.09371
 C3816 C 1.17418 0.89880 1.09166
 C3817 C 1.19400 0.90731 1.10046
 H3818 H 1.21478 0.82475 1.12214
 H3819 H 1.25169 0.81615 1.13722
 H3820 H 1.26836 0.88679 1.13535
 H3821 H 1.18055 0.84327 1.10499
 H3822 H 1.15397 0.86900 1.08732
 H3823 H 1.19829 0.92482 1.09889
 C3824 C 1.24392 0.37898 0.61212
 C3825 C 1.23267 0.35999 0.60608
 C3826 C 1.24172 0.33870 0.60765
 C3827 C 1.26326 0.33693 0.61572
 C3828 C 1.27513 0.35625 0.62225
 C3829 C 1.26520 0.37756 0.62055
 O3830 O 1.23276 0.39766 0.60838
 C3831 C 1.21401 0.39031 0.59985
 C3832 C 1.21308 0.36738 0.59822
 C3833 C 1.19509 0.35617 0.58944
 C3834 C 1.17748 0.36912 0.58176
 C3835 C 1.17823 0.39288 0.58268
 C3836 C 1.19674 0.40353 0.59218
 H3837 H 1.23263 0.32401 0.60258
 H3838 H 1.27070 0.32056 0.61702
 H3839 H 1.27404 0.39259 0.62506
 H3840 H 1.19467 0.33810 0.58843
 H3841 H 1.16327 0.36060 0.57506
 H3842 H 1.19799 0.42157 0.59295
 C3843 C 0.75018 0.88074 0.59585
 C3844 C 0.75238 0.90337 0.59232
 C3845 C 0.77088 0.91540 0.59873
 C3846 C 0.78774 0.90366 0.60938
 C3847 C 0.78593 0.88036 0.61313
 C3848 C 0.76703 0.86864 0.60600
 O3849 O 0.73049 0.87296 0.59024
 C3850 C 0.72005 0.89106 0.58303
 C3851 C 0.73283 0.91005 0.58386
 C3852 C 0.72490 0.93113 0.57851
 C3853 C 0.70276 0.93283 0.57251
 C3854 C 0.68898 0.91367 0.57211
 C3855 C 0.69791 0.89236 0.57694
 H3856 H 0.77200 0.93329 0.59622
 H3857 H 0.80212 0.91265 0.61502
 H3858 H 0.76514 0.85095 0.60927
 H3859 H 0.73522 0.94585 0.57955
 H3860 H 0.69612 0.94920 0.56879
 H3861 H 0.68764 0.87757 0.57723
 C3862 C 0.73132 0.36657 1.12750
 C3863 C 0.71836 0.34934 1.11999
 C3864 C 0.72460 0.32699 1.12146
 C3865 C 0.74505 0.32226 1.13111
 C3866 C 0.75847 0.33977 1.13927
 C3867 C 0.75141 0.36221 1.13750
 O3868 O 0.72305 0.38665 1.12335
 C3869 C 0.70439 0.38203 1.11303
 C3870 C 0.70067 0.35944 1.11073
 C3871 C 0.68239 0.35087 1.09996
 C3872 C 0.66760 0.36621 1.09080
 C3873 C 0.67148 0.38965 1.09217
 C3874 C 0.68996 0.39760 1.10392
 H3875 H 0.71427 0.31374 1.11511
 H3876 H 0.75042 0.30506 1.13241
 H3877 H 0.76162 0.37588 1.14319
 H3878 H 0.67976 0.33304 1.09842
 H3879 H 0.65326 0.35980 1.08234
 H3880 H 0.69352 0.41530 1.10508
 C3881 C 0.74406 1.11352 1.09182
 C3882 C 0.74134 1.09107 1.08768
 C3883 C 0.72244 1.07938 1.09344
 C3884 C 0.70574 1.09126 1.10415
 C3885 C 0.70815 1.11437 1.10878
 C3886 C 0.72746 1.12575 1.10216
 O3887 O 0.76398 1.12096 1.08663
 C3888 C 0.77404 1.10279 1.07910
 C3889 C 0.76083 1.08410 1.07935
 C3890 C 0.76837 1.06295 1.07371
 C3891 C 0.79055 1.06088 1.06797
 C3892 C 0.80467 1.07978 1.06800
 C3893 C 0.79617 1.10114 1.07318
 H3894 H 0.72086 1.06163 1.09035
 H3895 H 0.69100 1.08245 1.10913
 H3896 H 0.72989 1.14325 1.10599
 H3897 H 0.75772 1.04845 1.07436
 H3898 H 0.79693 1.04446 1.06401
 H3899 H 0.80673 1.11571 1.07382
 C3900 C 0.75155 0.61345 0.60736
 C3901 C 0.76187 0.63311 0.60170
 C3902 C 0.75135 0.65374 0.60217
 C3903 C 0.72929 0.65411 0.60884
 C3904 C 0.71840 0.63412 0.61514
 C3905 C 0.72975 0.61351 0.61445
 O3906 O 0.76426 0.59559 0.60489
 C3907 C 0.78304 0.60419 0.59762
 C3908 C 0.78245 0.62709 0.59556
 C3909 C 0.80023 0.63955 0.58814
 C3910 C 0.81929 0.62791 0.58220
 C3911 C 0.82016 0.60416 0.58335
 C3912 C 0.80177 0.59221 0.59157
 H3913 H 0.75977 0.66895 0.59743
 H3914 H 0.72076 0.66996 0.60949
 H3915 H 0.72169 0.59803 0.61897
 H3916 H 0.79943 0.65758 0.58686
 H3917 H 0.83333 0.63746 0.57655
 H3918 H 0.80173 0.57414 0.59249
 C3919 C 0.25556 1.12234 0.60469
 C3920 C 0.25112 1.10006 0.60127
 C3921 C 0.23211 1.08972 0.60892
 C3922 C 0.21699 1.10290 0.62055
 C3923 C 0.22100 1.12598 0.62411
 C3924 C 0.24053 1.13585 0.61589
 O3925 O 0.27526 1.12847 0.59736
 C3926 C 0.28341 1.10964 0.58909
 C3927 C 0.26918 1.09183 0.59097
 C3928 C 0.27463 1.07031 0.58439
 C3929 C 0.29582 1.06684 0.57608
 C3930 C 0.31116 1.08470 0.57467
 C3931 C 0.30464 1.10656 0.58075
 H3932 H 0.22917 1.07206 0.60632
 H3933 H 0.20207 1.09522 0.62667
 H3934 H 0.24415 1.15334 0.61874
 H3935 H 0.26319 1.05655 0.58616
 H3936 H 0.30058 1.05005 0.57140
 H3937 H 0.31613 1.12039 0.58028
 C3938 C 0.24922 0.61896 1.09699
 C3939 C 0.24541 0.59640 1.09464
 C3940 C 0.22650 0.58597 1.10244
 C3941 C 0.21097 0.59930 1.11330
 C3942 C 0.21444 0.62257 1.11591
 C3943 C 0.23370 0.63263 1.10734
 O3944 O 0.26906 0.62514 1.09007
 C3945 C 0.27793 0.60606 1.08323
 C3946 C 0.26405 0.58804 1.08558
 C3947 C 0.27033 0.56627 1.08073
 C3948 C 0.29194 0.56284 1.07355
 C3949 C 0.30686 0.58100 1.07153
 C3950 C 0.29956 0.60303 1.07598
 H3951 H 0.22410 0.56812 1.10080
 H3952 H 0.19633 0.59154 1.11999
 H3953 H 0.23692 0.65027 1.10971
 H3954 H 0.25916 0.55235 1.08293
 H3955 H 0.29724 0.54593 1.07005
 H3956 H 0.31069 0.61713 1.07501
 C3957 C 0.74433 0.90067 0.89233
 C3958 C 0.75580 0.90619 0.87355
 C3959 C 0.74675 0.90496 0.85254
 C3960 C 0.72497 0.89757 0.85077
 C3961 C 0.71292 0.89127 0.86980
 C3962 C 0.72276 0.89279 0.89089
 O3963 O 0.75580 0.90392 0.91072
 C3964 C 0.77497 0.91153 0.90333
 C3965 C 0.77581 0.91299 0.88070
 C3966 C 0.79420 0.92041 0.86935
 C3967 C 0.81238 0.92711 0.88184
 C3968 C 0.81176 0.92683 0.90531
 C3969 C 0.79284 0.91842 0.91617
 H3970 H 0.75608 0.90961 0.83804
 H3971 H 0.71758 0.89624 0.83458
 H3972 H 0.71379 0.88817 0.90563
 H3973 H 0.79454 0.92111 0.85151
 H3974 H 0.82690 0.93275 0.87313
 H3975 H 0.79175 0.91801 0.93399
 C3976 C 0.74168 0.40706 0.39487
 C3977 C 0.75350 0.41155 0.37604
 C3978 C 0.74495 0.40877 0.35497
 C3979 C 0.72333 0.40087 0.35320
 C3980 C 0.71084 0.39575 0.37233
 C3981 C 0.72022 0.39892 0.39348
 O3982 O 0.75281 0.41132 0.41326
 C3983 C 0.77209 0.41856 0.40583
 C3984 C 0.77334 0.41885 0.38318
 C3985 C 0.79197 0.42567 0.37182
 C3986 C 0.80998 0.43286 0.38430
 C3987 C 0.80902 0.43346 0.40774
 C3988 C 0.78982 0.42582 0.41864
 H3989 H 0.75459 0.41249 0.34041
 H3990 H 0.71651 0.39821 0.33693
 H3991 H 0.71102 0.39523 0.40833
 H3992 H 0.79261 0.42550 0.35398
 H3993 H 0.82470 0.43799 0.37563
 H3994 H 0.78849 0.42610 0.43644
 C3995 C 0.25038 0.89395 0.38869
 C3996 C 0.26340 0.89798 0.37057
 C3997 C 0.25657 0.89375 0.34911
 C3998 C 0.23536 0.88512 0.34618
 C3999 C 0.22150 0.88082 0.36455
 C4000 C 0.22927 0.88514 0.38615
 O4001 O 0.25984 0.89984 0.40757
 C4002 C 0.27925 0.90773 0.40118
 C4003 C 0.28221 0.90689 0.37870
 C4004 C 0.30108 0.91464 0.36834
 C4005 C 0.31755 0.92384 0.38167
 C4006 C 0.31486 0.92530 0.40491
 C4007 C 0.29547 0.91684 0.41480
 H4008 H 0.26711 0.89716 0.33512
 H4009 H 0.22977 0.88163 0.32959
 H4010 H 0.21898 0.88227 0.40044
 H4011 H 0.30302 0.91374 0.35061
 H4012 H 0.33246 0.92980 0.37386
 H4013 H 0.29287 0.91783 0.43245
 C4014 C 0.24854 0.39195 0.89076
 C4015 C 0.26161 0.39496 0.87249
 C4016 C 0.25436 0.39085 0.85114
 C4017 C 0.23269 0.38341 0.84847
 C4018 C 0.21875 0.38017 0.86699
 C4019 C 0.22693 0.38436 0.88849
 O4020 O 0.25848 0.39757 0.90948
 C4021 C 0.27824 0.40425 0.90284
 C4022 C 0.28095 0.40291 0.88035
 C4023 C 0.30008 0.40954 0.86972
 C4024 C 0.31707 0.41818 0.88275
 C4025 C 0.31467 0.42017 0.90598
 C4026 C 0.29503 0.41275 0.91620
 H4027 H 0.26496 0.39345 0.83703
 H4028 H 0.22682 0.37999 0.83197
 H4029 H 0.21663 0.38230 0.90289
 H4030 H 0.30179 0.40831 0.85198
 H4031 H 0.33211 0.42344 0.87472
 H4032 H 0.29265 0.41423 0.93383
   
