data_POSCAR
  _audit_creation_date              2014-09-24
  _audit_creation_method            'ToBaCCo'
  _symmetry_space_group_name_H-M    'P1'
  _symmetry_Int_Tables_number       1
  _symmetry_cell_setting            triclinic
  loop_
  _symmetry_equiv_pos_as_xyz
 x,y,z
_cell_length_a 55.3835
_cell_length_b 55.3919
_cell_length_c 55.4585
_cell_angle_alpha 90.007000
_cell_angle_beta 89.987900
_cell_angle_gamma 89.912400
loop_
  _atom_site_label
  _atom_site_type_symbol
  _atom_site_fract_x
  _atom_site_fract_y
  _atom_site_fract_z
C1 C 0.36357 0.32805 0.34605
 C2 C 0.34567 0.32809 0.36395
 C3 C 0.32799 0.34577 0.36395
 C4 C 0.32798 0.36367 0.34606
 C5 C 0.34565 0.36363 0.32841
 C6 C 0.36355 0.34571 0.32841
 C7 C 0.38217 0.31238 0.34085
 N8 N 0.39338 0.32011 0.32050
 C9 C 0.38214 0.34049 0.31277
 C10 C 0.34046 0.38222 0.31277
 N11 N 0.32009 0.39348 0.32051
 C12 C 0.31233 0.38228 0.34086
 C13 C 0.31236 0.34061 0.38254
 N14 N 0.32013 0.32024 0.39376
 C15 C 0.34050 0.31246 0.38253
 H16 H 0.38684 0.29623 0.35082
 H17 H 0.38679 0.35047 0.29663
 H18 H 0.35045 0.38685 0.29664
 H19 H 0.29618 0.38698 0.35083
 H20 H 0.29621 0.35062 0.38721
 H21 H 0.35049 0.29631 0.38719
 C22 C 0.36339 0.82780 -0.15515
 C23 C 0.34556 0.82790 -0.13718
 C24 C 0.32788 0.84558 -0.13718
 C25 C 0.32779 0.86340 -0.15515
 C26 C 0.34539 0.86331 -0.17286
 C27 C 0.36331 0.84539 -0.17286
 C28 C 0.38200 0.81213 -0.16032
 N29 N 0.39318 0.81976 -0.18077
 C30 C 0.38187 0.84014 -0.18852
 C31 C 0.34014 0.88186 -0.18852
 N32 N 0.31976 0.89317 -0.18077
 C33 C 0.31213 0.88200 -0.16031
 C34 C 0.31233 0.84050 -0.11851
 N35 N 0.32014 0.82018 -0.10723
 C36 C 0.34046 0.81235 -0.11851
 H37 H 0.38670 0.79607 -0.15020
 H38 H 0.38645 0.85015 -0.20466
 H39 H 0.35015 0.88643 -0.20467
 H40 H 0.29606 0.88670 -0.15019
 H41 H 0.29620 0.85052 -0.11383
 H42 H 0.35048 0.79622 -0.11382
 C43 C 0.86335 0.32780 -0.15502
 C44 C 0.84552 0.32789 -0.13707
 C45 C 0.82783 0.34557 -0.13705
 C46 C 0.82775 0.36340 -0.15500
 C47 C 0.84535 0.36332 -0.17271
 C48 C 0.86327 0.34540 -0.17272
 C49 C 0.88195 0.31213 -0.16020
 N50 N 0.89313 0.31977 -0.18065
 C51 C 0.88184 0.34016 -0.18839
 C52 C 0.84013 0.38190 -0.18836
 N53 N 0.81975 0.39320 -0.18060
 C54 C 0.81209 0.38202 -0.16016
 C55 C 0.81228 0.34046 -0.11838
 N56 N 0.82010 0.32013 -0.10713
 C57 C 0.84043 0.31232 -0.11841
 H58 H 0.88664 0.29606 -0.15009
 H59 H 0.88642 0.35017 -0.20453
 H60 H 0.85015 0.38648 -0.20449
 H61 H 0.79603 0.38672 -0.15005
 H62 H 0.79614 0.35047 -0.11368
 H63 H 0.85045 0.29619 -0.11374
 C64 C 0.86360 0.82804 0.34544
 C65 C 0.84576 0.82812 0.36339
 C66 C 0.82807 0.84578 0.36340
 C67 C 0.82797 0.86362 0.34545
 C68 C 0.84558 0.86355 0.32775
 C69 C 0.86351 0.84565 0.32775
 C70 C 0.88222 0.81239 0.34025
 N71 N 0.89339 0.82006 0.31980
 C72 C 0.88208 0.84044 0.31208
 C73 C 0.84035 0.88210 0.31209
 N74 N 0.81994 0.89339 0.31982
 C75 C 0.81229 0.88222 0.34027
 C76 C 0.81251 0.84067 0.38206
 N77 N 0.82033 0.82035 0.39333
 C78 C 0.84067 0.81255 0.38205
 H79 H 0.88693 0.79632 0.35034
 H80 H 0.88664 0.85047 0.29595
 H81 H 0.85037 0.88667 0.29595
 H82 H 0.79621 0.88690 0.35036
 H83 H 0.79637 0.85068 0.38675
 H84 H 0.85070 0.79643 0.38674
 C85 C 0.63644 0.67208 0.34597
 C86 C 0.65434 0.67205 0.36386
 C87 C 0.67199 0.65435 0.36388
 C88 C 0.67200 0.63643 0.34601
 C89 C 0.65434 0.63645 0.32836
 C90 C 0.63645 0.65439 0.32834
 C91 C 0.61785 0.68775 0.34075
 N92 N 0.60664 0.68000 0.32040
 C93 C 0.61787 0.65960 0.31270
 C94 C 0.65951 0.61784 0.31275
 N95 N 0.67987 0.60657 0.32050
 C96 C 0.68763 0.61779 0.34084
 C97 C 0.68762 0.65951 0.38247
 N98 N 0.67987 0.67989 0.39368
 C99 C 0.65952 0.68769 0.38244
 H100 H 0.61319 0.70392 0.35069
 H101 H 0.61322 0.64960 0.29658
 H102 H 0.64953 0.61319 0.29663
 H103 H 0.70377 0.61309 0.35082
 H104 H 0.70375 0.64948 0.38715
 H105 H 0.64953 0.70385 0.38709
 C106 C 0.63646 0.17217 -0.15497
 C107 C 0.65430 0.17210 -0.13701
 C108 C 0.67197 0.15441 -0.13701
 C109 C 0.67206 0.13657 -0.15495
 C110 C 0.65447 0.13664 -0.17266
 C111 C 0.63655 0.15456 -0.17267
 C112 C 0.61785 0.18783 -0.16014
 N113 N 0.60667 0.18016 -0.18058
 C114 C 0.61798 0.15978 -0.18832
 C115 C 0.65971 0.11806 -0.18830
 N116 N 0.68010 0.10677 -0.18054
 C117 C 0.68772 0.11796 -0.16009
 C118 C 0.68753 0.15950 -0.11835
 N119 N 0.67973 0.17983 -0.10708
 C120 C 0.65940 0.18766 -0.11835
 H121 H 0.61314 0.20389 -0.15004
 H122 H 0.61340 0.14975 -0.20445
 H123 H 0.64971 0.11348 -0.20444
 H124 H 0.70378 0.11328 -0.14998
 H125 H 0.70365 0.14947 -0.11366
 H126 H 0.64940 0.20380 -0.11366
 C127 C 0.13657 0.67212 -0.15492
 C128 C 0.15441 0.67204 -0.13698
 C129 C 0.17210 0.65436 -0.13699
 C130 C 0.17217 0.63652 -0.15495
 C131 C 0.15455 0.63660 -0.17263
 C132 C 0.13663 0.65452 -0.17262
 C133 C 0.11796 0.68779 -0.16006
 N134 N 0.10676 0.68015 -0.18050
 C135 C 0.11805 0.65976 -0.18826
 C136 C 0.15976 0.61803 -0.18829
 N137 N 0.18015 0.60672 -0.18056
 C138 C 0.18782 0.61790 -0.16013
 C139 C 0.18767 0.65947 -0.11834
 N140 N 0.17985 0.67980 -0.10707
 C141 C 0.15951 0.68760 -0.11833
 H142 H 0.11328 0.70386 -0.14995
 H143 H 0.11346 0.64975 -0.20439
 H144 H 0.14973 0.61344 -0.20441
 H145 H 0.20389 0.61320 -0.15003
 H146 H 0.20381 0.64946 -0.11366
 H147 H 0.14949 0.70373 -0.11364
 C148 C 0.13664 0.17222 0.34510
 C149 C 0.15445 0.17211 0.36308
 C150 C 0.17214 0.15444 0.36307
 C151 C 0.17226 0.13663 0.34509
 C152 C 0.15467 0.13673 0.32737
 C153 C 0.13675 0.15464 0.32737
 C154 C 0.11804 0.18789 0.33991
 N155 N 0.10690 0.18026 0.31944
 C156 C 0.11822 0.15988 0.31169
 C157 C 0.15993 0.11820 0.31168
 N158 N 0.18032 0.10690 0.31942
 C159 C 0.18794 0.11804 0.33989
 C160 C 0.18766 0.15951 0.38177
 N161 N 0.17982 0.17981 0.39306
 C162 C 0.15951 0.18764 0.38177
 H163 H 0.11332 0.20395 0.35002
 H164 H 0.11368 0.14989 0.29554
 H165 H 0.14993 0.11365 0.29553
 H166 H 0.20400 0.11334 0.34999
 H167 H 0.20379 0.14949 0.38646
 H168 H 0.14947 0.20376 0.38648
 C169 C 0.63629 0.32805 0.65409
 C170 C 0.65419 0.32806 0.63619
 C171 C 0.67183 0.34573 0.63619
 C172 C 0.67181 0.36362 0.65408
 C173 C 0.65416 0.36361 0.67174
 C174 C 0.63628 0.34571 0.67175
 C175 C 0.61772 0.31240 0.65928
 N176 N 0.60650 0.32014 0.67965
 C177 C 0.61770 0.34051 0.68739
 C178 C 0.65934 0.38218 0.68739
 N179 N 0.67970 0.39340 0.67964
 C180 C 0.68745 0.38219 0.65928
 C181 C 0.68748 0.34055 0.61761
 N182 N 0.67976 0.32018 0.60639
 C183 C 0.65940 0.31242 0.61761
 H184 H 0.61308 0.29626 0.64931
 H185 H 0.61304 0.35048 0.70353
 H186 H 0.64937 0.38683 0.70353
 H187 H 0.70359 0.38685 0.64930
 H188 H 0.70361 0.35053 0.61296
 H189 H 0.64945 0.29627 0.61295
 C190 C 0.63607 0.82784 1.15468
 C191 C 0.65388 0.82790 1.13670
 C192 C 0.67152 0.84557 1.13666
 C193 C 0.67158 0.86342 1.15459
 C194 C 0.65400 0.86337 1.17232
 C195 C 0.63612 0.84546 1.17237
 C196 C 0.61751 0.81220 1.15988
 N197 N 0.60633 0.81986 1.18034
 C198 C 0.61759 0.84025 1.18806
 C199 C 0.65925 0.88193 1.18797
 N200 N 0.67957 0.89317 1.18014
 C201 C 0.68723 0.88199 1.15973
 C202 C 0.68708 0.84045 1.11800
 N203 N 0.67932 0.82011 1.10676
 C204 C 0.65902 0.81231 1.11805
 H205 H 0.61284 0.79612 1.14979
 H206 H 0.61300 0.85028 1.20419
 H207 H 0.64935 0.88656 1.20416
 H208 H 0.70331 0.88667 1.14968
 H209 H 0.70319 0.85045 1.11329
 H210 H 0.64905 0.79617 1.11339
 C211 C 0.13611 0.32773 1.15457
 C212 C 0.15391 0.32783 1.13658
 C213 C 0.17148 0.34556 1.13649
 C214 C 0.17148 0.36344 1.15440
 C215 C 0.15392 0.36335 1.17215
 C216 C 0.13611 0.34536 1.17224
 C217 C 0.11763 0.31200 1.15981
 N218 N 0.10645 0.31964 1.18027
 C219 C 0.11762 0.34009 1.18795
 C220 C 0.15909 0.38196 1.18776
 N221 N 0.17935 0.39328 1.17990
 C222 C 0.18705 0.38210 1.15951
 C223 C 0.18705 0.34045 1.11782
 N224 N 0.17934 0.32007 1.10662
 C225 C 0.15907 0.31223 1.11795
 H226 H 0.11303 0.29589 1.14975
 H227 H 0.11301 0.35011 1.20408
 H228 H 0.14917 0.38657 1.20395
 H229 H 0.20311 0.38684 1.14944
 H230 H 0.20311 0.35050 1.11308
 H231 H 0.14915 0.29605 1.11333
 C232 C 0.13660 0.82855 0.65451
 C233 C 0.15446 0.82859 0.63658
 C234 C 0.17217 0.84619 0.63664
 C235 C 0.17226 0.86398 0.65464
 C236 C 0.15464 0.86393 0.67233
 C237 C 0.13669 0.84610 0.67226
 C238 C 0.11800 0.81293 0.65965
 N239 N 0.10684 0.82059 0.68007
 C240 C 0.11812 0.84087 0.68791
 C241 C 0.15990 0.88242 0.68805
 N242 N 0.18032 0.89364 0.68035
 C243 C 0.18796 0.88249 0.65988
 C244 C 0.18775 0.84104 0.61799
 N245 N 0.17992 0.82077 0.60668
 C246 C 0.15956 0.81304 0.61790
 H247 H 0.11328 0.79686 0.64959
 H248 H 0.11352 0.85076 0.70412
 H249 H 0.14988 0.88700 0.70419
 H250 H 0.20405 0.88713 0.64980
 H251 H 0.20392 0.85098 0.61335
 H252 H 0.14953 0.79695 0.61318
 C253 C 0.36373 0.67164 0.65390
 C254 C 0.34585 0.67165 0.63601
 C255 C 0.32816 0.65404 0.63601
 C256 C 0.32812 0.63616 0.65393
 C257 C 0.34577 0.63615 0.67159
 C258 C 0.36369 0.65401 0.67158
 C259 C 0.38231 0.68727 0.65909
 N260 N 0.39350 0.67954 0.67947
 C261 C 0.38225 0.65920 0.68723
 C262 C 0.34054 0.61761 0.68725
 N263 N 0.32016 0.60642 0.67952
 C264 C 0.31244 0.61762 0.65914
 C265 C 0.31254 0.65925 0.61742
 N266 N 0.32033 0.67959 0.60620
 C267 C 0.34070 0.68729 0.61742
 H268 H 0.38698 0.70339 0.64911
 H269 H 0.38688 0.64926 0.70339
 H270 H 0.35050 0.61296 0.70340
 H271 H 0.29630 0.61298 0.64917
 H272 H 0.29637 0.64932 0.61277
 H273 H 0.35071 0.70341 0.61276
 C274 C 0.36339 0.17147 1.15423
 C275 C 0.34550 0.17147 1.13634
 C276 C 0.32777 0.15390 1.13642
 C277 C 0.32768 0.13609 1.15439
 C278 C 0.34533 0.13609 1.17204
 C279 C 0.36331 0.15389 1.17196
 C280 C 0.38204 0.18704 1.15935
 N281 N 0.39323 0.17933 1.17973
 C282 C 0.38192 0.15905 1.18756
 C283 C 0.34007 0.11759 1.18775
 N284 N 0.31962 0.10642 1.18009
 C285 C 0.31196 0.11761 1.15964
 C286 C 0.31215 0.15908 1.11781
 N287 N 0.31999 0.17935 1.10650
 C288 C 0.34038 0.18705 1.11769
 H289 H 0.38677 0.20311 1.14931
 H290 H 0.38653 0.14912 1.20374
 H291 H 0.35011 0.11298 1.20387
 H292 H 0.29583 0.11301 1.14960
 H293 H 0.29597 0.14916 1.11320
 H294 H 0.35043 0.20312 1.11296
 C295 C 0.86375 0.67190 1.15420
 C296 C 0.84589 0.67184 1.13629
 C297 C 0.82830 0.65412 1.13626
 C298 C 0.82833 0.63624 1.15416
 C299 C 0.84596 0.63630 1.17184
 C300 C 0.86379 0.65425 1.17186
 C301 C 0.88226 0.68761 1.15942
 N302 N 0.89348 0.67991 1.17979
 C303 C 0.88232 0.65952 1.18753
 C304 C 0.84081 0.61771 1.18747
 N305 N 0.82050 0.60643 1.17969
 C306 C 0.81275 0.61761 1.15932
 C307 C 0.81267 0.65926 1.11766
 N308 N 0.82036 0.67964 1.10645
 C309 C 0.84067 0.68745 1.11770
 H310 H 0.88688 0.70376 1.14944
 H311 H 0.88699 0.64957 1.20367
 H312 H 0.85077 0.61309 1.20362
 H313 H 0.79664 0.61290 1.14932
 H314 H 0.79657 0.64923 1.11298
 H315 H 0.85060 0.70362 1.11305
 C316 C 0.86409 0.17211 0.65468
 C317 C 0.84633 0.17199 0.63667
 C318 C 0.82874 0.15428 0.63660
 C319 C 0.82869 0.13644 0.65454
 C320 C 0.84622 0.13654 0.67231
 C321 C 0.86404 0.15451 0.67238
 C322 C 0.88259 0.18783 0.65993
 N323 N 0.89372 0.18021 0.68042
 C324 C 0.88251 0.15979 0.68812
 C325 C 0.84097 0.11799 0.68796
 N326 N 0.82070 0.10670 0.68011
 C327 C 0.81307 0.11784 0.65967
 C328 C 0.81319 0.15936 0.61792
 N329 N 0.82092 0.17972 0.60670
 C330 C 0.84118 0.18757 0.61802
 H331 H 0.88722 0.20391 0.64986
 H332 H 0.88707 0.14979 0.70427
 H333 H 0.85084 0.11342 0.70419
 H334 H 0.79701 0.11311 0.64960
 H335 H 0.79712 0.14932 0.61320
 H336 H 0.85111 0.20374 0.61339
 C337 C 0.32757 0.36318 0.65483
 C338 C 0.32759 0.34528 0.63694
 C339 C 0.34527 0.32760 0.63694
 C340 C 0.36316 0.32757 0.65483
 C341 C 0.36314 0.34523 0.67249
 C342 C 0.34522 0.36315 0.67249
 C343 C 0.31195 0.38183 0.65997
 N344 N 0.31970 0.39307 0.68030
 C345 C 0.34004 0.38180 0.68808
 C346 C 0.38178 0.34005 0.68808
 N347 N 0.39305 0.31970 0.68030
 C348 C 0.38181 0.31195 0.65997
 C349 C 0.34014 0.31201 0.61831
 N350 N 0.31979 0.31980 0.60707
 C351 C 0.31200 0.34015 0.61832
 H352 H 0.29583 0.38654 0.64996
 H353 H 0.35004 0.38648 0.70419
 H354 H 0.38646 0.35005 0.70419
 H355 H 0.38652 0.29583 0.64997
 H356 H 0.35016 0.29588 0.61362
 H357 H 0.29587 0.35018 0.61363
 C358 C 0.32797 0.86420 0.15380
 C359 C 0.32798 0.84629 0.13591
 C360 C 0.34570 0.82864 0.13588
 C361 C 0.36364 0.82867 0.15373
 C362 C 0.36362 0.84634 0.17137
 C363 C 0.34567 0.86422 0.17140
 C364 C 0.31230 0.88279 0.15901
 N365 N 0.32008 0.89404 0.17933
 C366 C 0.34049 0.88282 0.18702
 C367 C 0.38227 0.84119 0.18695
 N368 N 0.39355 0.82083 0.17919
 C369 C 0.38230 0.81305 0.15887
 C370 C 0.34054 0.81300 0.11731
 N371 N 0.32014 0.82073 0.10612
 C372 C 0.31234 0.84108 0.11735
 H373 H 0.29613 0.88746 0.14907
 H374 H 0.35051 0.88750 0.20312
 H375 H 0.38693 0.85119 0.20306
 H376 H 0.38699 0.79691 0.14890
 H377 H 0.35058 0.79688 0.11262
 H378 H 0.29616 0.85105 0.11271
 C379 C 0.82845 0.36332 0.15398
 C380 C 0.82847 0.34542 0.13610
 C381 C 0.84615 0.32774 0.13608
 C382 C 0.86406 0.32773 0.15396
 C383 C 0.86405 0.34540 0.17160
 C384 C 0.84613 0.36331 0.17161
 C385 C 0.81280 0.38194 0.15918
 N386 N 0.82056 0.39316 0.17951
 C387 C 0.84094 0.38192 0.18724
 C388 C 0.88267 0.34023 0.18720
 N389 N 0.89394 0.31987 0.17946
 C390 C 0.88270 0.31210 0.15913
 C391 C 0.84098 0.31213 0.11749
 N392 N 0.82060 0.31991 0.10628
 C393 C 0.81283 0.34027 0.11752
 H394 H 0.79665 0.38662 0.14921
 H395 H 0.85093 0.38657 0.20335
 H396 H 0.88733 0.35024 0.20332
 H397 H 0.88740 0.29596 0.14915
 H398 H 0.85098 0.29599 0.11280
 H399 H 0.79669 0.35028 0.11286
 C400 C 0.82816 0.86372 0.65476
 C401 C 0.82822 0.84586 0.63683
 C402 C 0.84591 0.82819 0.63682
 C403 C 0.86377 0.82813 0.65475
 C404 C 0.86370 0.84575 0.67244
 C405 C 0.84578 0.86366 0.67245
 C406 C 0.81250 0.88234 0.65993
 N407 N 0.82021 0.89352 0.68031
 C408 C 0.84055 0.88225 0.68809
 C409 C 0.88229 0.84054 0.68808
 N410 N 0.89358 0.82020 0.68029
 C411 C 0.88240 0.81249 0.65991
 C412 C 0.84080 0.81262 0.61817
 N413 N 0.82047 0.82042 0.60692
 C414 C 0.81265 0.84075 0.61818
 H415 H 0.79640 0.88705 0.64992
 H416 H 0.85051 0.88689 0.70423
 H417 H 0.88692 0.85049 0.70422
 H418 H 0.88712 0.79639 0.64989
 H419 H 0.85083 0.79649 0.61348
 H420 H 0.79652 0.85077 0.61350
 C421 C 0.67235 0.63665 0.65475
 C422 C 0.67233 0.65454 0.63686
 C423 C 0.65464 0.67221 0.63685
 C424 C 0.63674 0.67223 0.65474
 C425 C 0.63676 0.65458 0.67240
 C426 C 0.65468 0.63667 0.67240
 C427 C 0.68798 0.61800 0.65991
 N428 N 0.68022 0.60677 0.68024
 C429 C 0.65986 0.61804 0.68800
 C430 C 0.61812 0.65976 0.68799
 N431 N 0.60684 0.68010 0.68021
 C432 C 0.61809 0.68785 0.65988
 C433 C 0.65978 0.68781 0.61823
 N434 N 0.68014 0.68002 0.60699
 C435 C 0.68794 0.65967 0.61824
 H436 H 0.70411 0.61329 0.64991
 H437 H 0.64985 0.61336 0.70411
 H438 H 0.61343 0.64977 0.70410
 H439 H 0.61338 0.70397 0.64988
 H440 H 0.64975 0.70393 0.61355
 H441 H 0.70407 0.64966 0.61356
 C442 C 0.67232 0.13597 0.15411
 C443 C 0.67227 0.15384 0.13620
 C444 C 0.65453 0.17147 0.13616
 C445 C 0.63661 0.17146 0.15402
 C446 C 0.63666 0.15383 0.17169
 C447 C 0.65463 0.13597 0.17174
 C448 C 0.68801 0.11740 0.15934
 N449 N 0.68025 0.10619 0.17969
 C450 C 0.65984 0.11741 0.18739
 C451 C 0.61802 0.15898 0.18729
 N452 N 0.60672 0.17931 0.17951
 C453 C 0.61794 0.18706 0.15917
 C454 C 0.65966 0.18708 0.11755
 N455 N 0.68006 0.17935 0.10634
 C456 C 0.68789 0.15903 0.11760
 H457 H 0.70418 0.11273 0.14940
 H458 H 0.64984 0.11275 0.20350
 H459 H 0.61338 0.14901 0.20342
 H460 H 0.61322 0.20318 0.14917
 H461 H 0.64960 0.20318 0.11285
 H462 H 0.70408 0.14907 0.11295
 C463 C 0.17163 0.63674 0.15404
 C464 C 0.17164 0.65465 0.13617
 C465 C 0.15403 0.67240 0.13623
 C466 C 0.13616 0.67247 0.15415
 C467 C 0.13615 0.65479 0.17178
 C468 C 0.15400 0.63681 0.17172
 C469 C 0.18722 0.61806 0.15917
 N470 N 0.17946 0.60685 0.17952
 C471 C 0.15915 0.61817 0.18731
 C472 C 0.11759 0.66003 0.18744
 N473 N 0.10639 0.68044 0.17975
 C474 C 0.11760 0.68818 0.15939
 C475 C 0.15921 0.68801 0.11763
 N476 N 0.17953 0.68016 0.10635
 C477 C 0.18725 0.65976 0.11755
 H478 H 0.20333 0.61332 0.14916
 H479 H 0.14917 0.61354 0.20345
 H480 H 0.11292 0.65003 0.20355
 H481 H 0.11294 0.70434 0.14944
 H482 H 0.14926 0.70419 0.11299
 H483 H 0.20334 0.64969 0.11284
 C484 C 0.17159 0.13600 0.65443
 C485 C 0.17155 0.15387 0.63652
 C486 C 0.15387 0.17155 0.63653
 C487 C 0.13600 0.17160 0.65445
 C488 C 0.13604 0.15396 0.67212
 C489 C 0.15396 0.13604 0.67211
 C490 C 0.18724 0.11737 0.65958
 N491 N 0.17952 0.10617 0.67994
 C492 C 0.15917 0.11744 0.68773
 C493 C 0.11744 0.15918 0.68775
 N494 N 0.10617 0.17953 0.67998
 C495 C 0.11738 0.18725 0.65962
 C496 C 0.15901 0.18715 0.61791
 N497 N 0.17936 0.17936 0.60666
 C498 C 0.18715 0.15901 0.61789
 H499 H 0.20336 0.11267 0.64957
 H500 H 0.14921 0.11279 0.70387
 H501 H 0.11279 0.14922 0.70389
 H502 H 0.11268 0.20337 0.64961
 H503 H 0.14900 0.20329 0.61324
 H504 H 0.20329 0.14900 0.61321
 C505 C 0.32808 0.63668 0.34531
 C506 C 0.32809 0.65457 0.36320
 C507 C 0.34574 0.67223 0.36318
 C508 C 0.36361 0.67224 0.34526
 C509 C 0.36360 0.65459 0.32760
 C510 C 0.34571 0.63669 0.32762
 C511 C 0.31247 0.61808 0.34018
 N512 N 0.32020 0.60684 0.31982
 C513 C 0.34053 0.61807 0.31202
 C514 C 0.38219 0.65978 0.31196
 N515 N 0.39342 0.68012 0.31972
 C516 C 0.38219 0.68787 0.34008
 C517 C 0.34058 0.68785 0.38180
 N518 N 0.32025 0.68008 0.39306
 C519 C 0.31249 0.65974 0.38183
 H520 H 0.29636 0.61340 0.35020
 H521 H 0.35049 0.61339 0.29588
 H522 H 0.38686 0.64980 0.29583
 H523 H 0.38687 0.70398 0.35008
 H524 H 0.35057 0.70398 0.38646
 H525 H 0.29638 0.64974 0.38653
 C526 C 0.32828 0.13566 0.84590
 C527 C 0.32823 0.15358 0.86376
 C528 C 0.34590 0.17121 0.86380
 C529 C 0.36386 0.17115 0.84597
 C530 C 0.36391 0.15347 0.82834
 C531 C 0.34599 0.13560 0.82830
 C532 C 0.31264 0.11708 0.84070
 N533 N 0.32045 0.10581 0.82038
 C534 C 0.34084 0.11700 0.81268
 C535 C 0.38256 0.15862 0.81276
 N536 N 0.39377 0.17897 0.82052
 C537 C 0.38248 0.18676 0.84083
 C538 C 0.34067 0.18688 0.88234
 N539 N 0.32026 0.17918 0.89351
 C540 C 0.31253 0.15881 0.88229
 H541 H 0.29647 0.11245 0.85063
 H542 H 0.35087 0.11230 0.79659
 H543 H 0.38727 0.14862 0.79665
 H544 H 0.38712 0.20290 0.85080
 H545 H 0.35065 0.20301 0.88702
 H546 H 0.29637 0.14886 0.88692
 C547 C 0.82864 0.63586 0.84616
 C548 C 0.82856 0.65382 0.86399
 C549 C 0.84620 0.67148 0.86399
 C550 C 0.86416 0.67143 0.84616
 C551 C 0.86424 0.65372 0.82856
 C552 C 0.84636 0.63581 0.82856
 C553 C 0.81304 0.61726 0.84098
 N554 N 0.82086 0.60598 0.82068
 C555 C 0.84124 0.61718 0.81297
 C556 C 0.88288 0.65887 0.81297
 N557 N 0.89405 0.67926 0.82069
 C558 C 0.88275 0.68706 0.84099
 C559 C 0.84092 0.68718 0.88250
 N560 N 0.82053 0.67946 0.89367
 C561 C 0.81285 0.65906 0.88249
 H562 H 0.79686 0.61263 0.85092
 H563 H 0.85127 0.61247 0.79687
 H564 H 0.88760 0.64885 0.79688
 H565 H 0.88735 0.70323 0.85093
 H566 H 0.85087 0.70334 0.88714
 H567 H 0.79670 0.64909 0.88713
 C568 C 0.82904 0.13585 0.34588
 C569 C 0.82902 0.15376 0.36375
 C570 C 0.84666 0.17144 0.36371
 C571 C 0.86454 0.17142 0.34581
 C572 C 0.86456 0.15374 0.32818
 C573 C 0.84668 0.13583 0.32821
 C574 C 0.81342 0.11725 0.34074
 N575 N 0.82116 0.10600 0.32040
 C576 C 0.84150 0.11722 0.31261
 C577 C 0.88314 0.15892 0.31253
 N578 N 0.89435 0.17929 0.32026
 C579 C 0.88312 0.18706 0.34060
 C580 C 0.84145 0.18709 0.38228
 N581 N 0.82110 0.17934 0.39352
 C582 C 0.81338 0.15896 0.38233
 H583 H 0.79729 0.11260 0.35074
 H584 H 0.85147 0.11254 0.29647
 H585 H 0.88782 0.14892 0.29642
 H586 H 0.88776 0.20321 0.35056
 H587 H 0.85141 0.20325 0.38692
 H588 H 0.79726 0.14897 0.38701
 C589 C 0.67186 0.36344 0.34575
 C590 C 0.67189 0.34554 0.36363
 C591 C 0.65426 0.32786 0.36362
 C592 C 0.63636 0.32785 0.34573
 C593 C 0.63634 0.34552 0.32809
 C594 C 0.65421 0.36343 0.32810
 C595 C 0.68748 0.38204 0.34059
 N596 N 0.67972 0.39327 0.32025
 C597 C 0.65938 0.38204 0.31248
 C598 C 0.61775 0.34033 0.31247
 N599 N 0.60655 0.31997 0.32021
 C600 C 0.61779 0.31221 0.34055
 C601 C 0.65947 0.31223 0.38220
 N602 N 0.67982 0.32000 0.39342
 C603 C 0.68753 0.34037 0.38221
 H604 H 0.70361 0.38670 0.35057
 H605 H 0.64940 0.38670 0.29635
 H606 H 0.61307 0.35032 0.29635
 H607 H 0.61314 0.29607 0.35052
 H608 H 0.64952 0.29608 0.38686
 H609 H 0.70365 0.35037 0.38687
 C610 C 0.67117 0.86431 0.84622
 C611 C 0.67120 0.84638 0.86407
 C612 C 0.65354 0.82873 0.86405
 C613 C 0.63562 0.82879 0.84619
 C614 C 0.63560 0.84648 0.82858
 C615 C 0.65350 0.86436 0.82859
 C616 C 0.68682 0.88289 0.84105
 N617 N 0.67906 0.89415 0.82073
 C618 C 0.65868 0.88297 0.81299
 C619 C 0.61700 0.84132 0.81295
 N620 N 0.60580 0.82095 0.82067
 C621 C 0.61704 0.81316 0.84099
 C622 C 0.65876 0.81304 0.88257
 N623 N 0.67914 0.82073 0.89377
 C624 C 0.68687 0.84112 0.88260
 H625 H 0.70298 0.88750 0.85101
 H626 H 0.64870 0.88766 0.79687
 H627 H 0.61233 0.85132 0.79684
 H628 H 0.61240 0.79700 0.85094
 H629 H 0.64879 0.79689 0.88720
 H630 H 0.70303 0.85107 0.88726
 C631 C 0.17110 0.36398 0.84602
 C632 C 0.17115 0.34604 0.86385
 C633 C 0.15351 0.32837 0.86382
 C634 C 0.13559 0.32841 0.84596
 C635 C 0.13555 0.34611 0.82835
 C636 C 0.15343 0.36402 0.82838
 C637 C 0.18671 0.38260 0.84087
 N638 N 0.17893 0.39387 0.82056
 C639 C 0.15858 0.38266 0.81280
 C640 C 0.11695 0.34095 0.81273
 N641 N 0.10576 0.32056 0.82045
 C642 C 0.11702 0.31277 0.84076
 C643 C 0.15874 0.31268 0.88235
 N644 N 0.17911 0.32041 0.89357
 C645 C 0.18682 0.34081 0.88240
 H646 H 0.20286 0.38724 0.85084
 H647 H 0.14858 0.38735 0.79669
 H648 H 0.11225 0.35096 0.79664
 H649 H 0.11239 0.29661 0.85070
 H650 H 0.14878 0.29653 0.88698
 H651 H 0.20295 0.35078 0.88707
 C652 C 0.17157 0.86465 0.34591
 C653 C 0.17159 0.84676 0.36380
 C654 C 0.15391 0.82914 0.36384
 C655 C 0.13597 0.82917 0.34600
 C656 C 0.13595 0.84682 0.32835
 C657 C 0.15387 0.86468 0.32830
 C658 C 0.18722 0.88321 0.34069
 N659 N 0.17944 0.89444 0.32035
 C660 C 0.15904 0.88326 0.31266
 C661 C 0.11732 0.84166 0.31276
 N662 N 0.10610 0.82132 0.32053
 C663 C 0.11736 0.81356 0.34086
 C664 C 0.15912 0.81348 0.38240
 N665 N 0.17952 0.82118 0.39357
 C666 C 0.18727 0.84153 0.38234
 H667 H 0.20339 0.88784 0.35062
 H668 H 0.14903 0.88794 0.29656
 H669 H 0.11264 0.85164 0.29663
 H670 H 0.11271 0.79742 0.35085
 H671 H 0.14912 0.79737 0.38708
 H672 H 0.20344 0.85147 0.38696
 O673 O 0.24742 1.02440 0.28047
 O674 O 0.28051 0.97722 0.24725
 O675 O 0.28058 1.02430 0.24727
 O676 O 0.24738 0.97733 0.28050
 O677 O 0.21912 0.97739 0.25238
 O678 O 0.25234 1.02436 0.21914
 O679 O 0.25225 0.97728 0.21913
 O680 O 0.21918 1.02447 0.25234
 Cu681 Cu 0.26681 1.00080 0.26670
 Cu682 Cu 0.23288 1.00088 0.23292
 C683 C 0.22772 1.03254 0.27200
 C684 C 0.27196 0.96916 0.22759
 C685 C 0.27206 1.03239 0.22761
 C686 C 0.22765 0.96930 0.27204
 O687 O 0.24705 0.52394 0.78079
 O688 O 0.28014 0.47661 0.74780
 O689 O 0.28024 0.52368 0.74761
 O690 O 0.24689 0.47686 0.78092
 O691 O 0.21869 0.47689 0.75274
 O692 O 0.25205 0.52370 0.71943
 O693 O 0.25195 0.47662 0.71963
 O694 O 0.21886 0.52398 0.75261
 Cu695 Cu 0.26641 0.50027 0.76711
 Cu696 Cu 0.23255 0.50030 0.73327
 C697 C 0.22739 0.53209 0.77226
 C698 C 0.27163 0.46849 0.72816
 C699 C 0.27176 0.53172 0.72790
 C700 C 0.22718 0.46883 0.77243
 O701 O 0.75294 -0.02402 0.28096
 O702 O 0.71989 0.02318 0.24775
 O703 O 0.71968 -0.02389 0.24787
 O704 O 0.75309 0.02307 0.28091
 O705 O 0.78128 0.02289 0.25271
 O706 O 0.74785 -0.02407 0.21966
 O707 O 0.74808 0.02300 0.21955
 O708 O 0.78112 -0.02420 0.25276
 Cu709 Cu 0.73357 -0.00039 0.26721
 Cu710 Cu 0.76742 -0.00062 0.23334
 C711 C 0.77260 -0.03221 0.27245
 C712 C 0.72841 0.03118 0.22805
 C713 C 0.72813 -0.03203 0.22820
 C714 C 0.77281 0.03103 0.27239
 O715 O 0.78113 0.52300 0.75278
 O716 O 0.74778 0.47618 0.71948
 O717 O 0.74792 0.52326 0.71963
 O718 O 0.78099 0.47591 0.75262
 O719 O 0.75279 0.47595 0.78080
 O720 O 0.71972 0.52329 0.74781
 O721 O 0.71958 0.47621 0.74766
 O722 O 0.75292 0.52304 0.78095
 Cu723 Cu 0.76729 0.49958 0.73330
 Cu724 Cu 0.73342 0.49963 0.76714
 C725 C 0.77264 0.53106 0.77247
 C726 C 0.72806 0.46816 0.72796
 C727 C 0.72825 0.53139 0.72816
 C728 C 0.77246 0.46780 0.77227
 O729 O 0.25221 0.47662 0.28065
 O730 O 0.21904 0.52366 0.24736
 O731 O 0.21902 0.47658 0.24748
 O732 O 0.25227 0.52369 0.28048
 O733 O 0.28047 0.52355 0.25229
 O734 O 0.24721 0.47644 0.21930
 O735 O 0.24724 0.52352 0.21917
 O736 O 0.28041 0.47647 0.25247
 Cu737 Cu 0.23280 0.50015 0.26682
 Cu738 Cu 0.26666 0.49998 0.23297
 C739 C 0.27190 0.46848 0.27217
 C740 C 0.22755 0.53167 0.22766
 C741 C 0.22751 0.46843 0.22783
 C742 C 0.27197 0.53170 0.27194
 O743 O 0.71902 0.97706 0.75286
 O744 O 0.75247 1.02392 0.71970
 O745 O 0.75230 0.97685 0.71976
 O746 O 0.71911 1.02414 0.75270
 O747 O 0.74721 1.02410 0.78097
 O748 O 0.78043 0.97680 0.74801
 O749 O 0.78057 1.02388 0.74796
 O750 O 0.74714 0.97701 0.78111
 Cu751 Cu 0.73290 1.00050 0.73342
 Cu752 Cu 0.76666 1.00044 0.76735
 C753 C 0.72745 0.96899 0.77257
 C754 C 0.77216 1.03194 0.72824
 C755 C 0.77196 0.96872 0.72833
 C756 C 0.72757 1.03224 0.77238
 O757 O 0.78086 0.47624 0.24746
 O758 O 0.74772 0.52334 0.28072
 O759 O 0.74766 0.47627 0.28063
 O760 O 0.78087 0.52332 0.24750
 O761 O 0.75264 0.52339 0.21936
 O762 O 0.71943 0.47636 0.25248
 O763 O 0.71949 0.52343 0.25257
 O764 O 0.75263 0.47632 0.21931
 Cu765 Cu 0.76712 0.49978 0.26690
 Cu766 Cu 0.73321 0.49989 0.23310
 C767 C 0.77234 0.46821 0.22778
 C768 C 0.72801 0.53147 0.27225
 C769 C 0.72795 0.46825 0.27214
 C770 C 0.77235 0.53142 0.22784
 O771 O 0.21932 0.02289 0.74759
 O772 O 0.25259 -0.02429 0.78061
 O773 O 0.25258 0.02279 0.78070
 O774 O 0.21934 -0.02419 0.74751
 O775 O 0.24751 -0.02418 0.71929
 O776 O 0.28075 0.02280 0.75249
 O777 O 0.28076 -0.02429 0.75239
 O778 O 0.24750 0.02290 0.71938
 Cu779 Cu 0.23313 -0.00070 0.76694
 Cu780 Cu 0.26696 -0.00069 0.73305
 C781 C 0.22780 0.03099 0.72792
 C782 C 0.27228 -0.03239 0.77206
 C783 C 0.27227 0.03085 0.77219
 C784 C 0.22783 -0.03225 0.72781
 O785 O 0.24716 0.28049 0.97640
 O786 O 0.28037 0.24723 1.02340
 O787 O 0.28038 0.24724 0.97638
 O788 O 0.24716 0.28047 1.02342
 O789 O 0.21896 0.25229 1.02341
 O790 O 0.25218 0.21907 0.97637
 O791 O 0.25217 0.21906 1.02339
 O792 O 0.21896 0.25232 0.97639
 Cu793 Cu 0.26660 0.26669 0.99989
 Cu794 Cu 0.23274 0.23286 0.99988
 C795 C 0.22745 0.27201 0.96834
 C796 C 0.27187 0.22755 1.03146
 C797 C 0.27188 0.22755 0.96831
 C798 C 0.22747 0.27198 1.03149
 O799 O 0.24754 0.78117 0.47640
 O800 O 0.28073 0.74775 0.52330
 O801 O 0.28071 0.74789 0.47629
 O802 O 0.24762 0.78109 0.52342
 O803 O 0.21936 0.75297 0.52339
 O804 O 0.25246 0.71977 0.47625
 O805 O 0.25247 0.71964 0.52327
 O806 O 0.21929 0.75305 0.47638
 Cu807 Cu 0.26699 0.76730 0.49986
 Cu808 Cu 0.23306 0.73353 0.49982
 C809 C 0.22782 0.77274 0.46834
 C810 C 0.27219 0.72806 0.53134
 C811 C 0.27217 0.72823 0.46819
 C812 C 0.22791 0.77263 0.53149
 O813 O 0.25236 0.78095 0.02307
 O814 O 0.21925 0.74764 -0.02391
 O815 O 0.21918 0.74777 0.02312
 O816 O 0.25240 0.78084 -0.02395
 O817 O 0.28064 0.75262 -0.02388
 O818 O 0.24741 0.71955 0.02320
 O819 O 0.24748 0.71943 -0.02383
 O820 O 0.28059 0.75273 0.02315
 Cu821 Cu 0.23296 0.76713 -0.00043
 Cu822 Cu 0.26687 0.73325 -0.00033
 C823 C 0.27206 0.77245 0.03117
 C824 C 0.22779 0.72793 -0.03194
 C825 C 0.22770 0.72809 0.03123
 C826 C 0.27211 0.77230 -0.03200
 O827 O 0.21906 0.24732 0.47658
 O828 O 0.25214 0.28040 0.52375
 O829 O 0.25222 0.28051 0.47673
 O830 O 0.21896 0.24722 0.52361
 O831 O 0.24720 0.21900 0.52359
 O832 O 0.28046 0.25230 0.47671
 O833 O 0.28038 0.25218 0.52373
 O834 O 0.24730 0.21910 0.47656
 Cu835 Cu 0.23276 0.26670 0.50017
 Cu836 Cu 0.26667 0.23281 0.50015
 C837 C 0.22762 0.22764 0.46847
 C838 C 0.27183 0.27186 0.53183
 C839 C 0.27194 0.27202 0.46867
 C840 C 0.22748 0.22751 0.53166
 O841 O 0.74722 0.78074 0.97652
 O842 O 0.78048 0.74750 1.02348
 O843 O 0.78047 0.74752 0.97647
 O844 O 0.74718 0.78064 1.02354
 O845 O 0.71904 0.75242 1.02350
 O846 O 0.75232 0.71931 0.97644
 O847 O 0.75234 0.71928 1.02345
 O848 O 0.71906 0.75253 0.97648
 Cu849 Cu 0.76667 0.76694 1.00000
 Cu850 Cu 0.73286 0.73305 0.99996
 C851 C 0.72753 0.77225 0.96846
 C852 C 0.77202 0.72779 1.03152
 C853 C 0.77201 0.72782 0.96839
 C854 C 0.72750 0.77211 1.03160
 O855 O 0.74785 0.28044 0.47642
 O856 O 0.78116 0.24738 0.52348
 O857 O 0.78118 0.24731 0.47646
 O858 O 0.74783 0.28050 0.52343
 O859 O 0.71972 0.25224 0.52346
 O860 O 0.75306 0.21906 0.47648
 O861 O 0.75305 0.21912 0.52350
 O862 O 0.71974 0.25219 0.47644
 Cu863 Cu 0.76733 0.26675 0.49994
 Cu864 Cu 0.73357 0.23281 0.49997
 C865 C 0.72818 0.27189 0.46836
 C866 C 0.77271 0.22768 0.53156
 C867 C 0.77274 0.22759 0.46841
 C868 C 0.72816 0.27197 0.53150
 O869 O 0.71934 0.24740 -0.02377
 O870 O 0.75264 0.28046 0.02324
 O871 O 0.75253 0.28056 -0.02379
 O872 O 0.71947 0.24728 0.02325
 O873 O 0.74770 0.21906 0.02313
 O874 O 0.78076 0.25233 -0.02391
 O875 O 0.78087 0.25223 0.02311
 O876 O 0.74757 0.21917 -0.02390
 Cu877 Cu 0.73316 0.26676 -0.00025
 Cu878 Cu 0.76706 0.23286 -0.00040
 C879 C 0.72785 0.22771 -0.03191
 C880 C 0.77237 0.27192 0.03125
 C881 C 0.77221 0.27204 -0.03193
 C882 C 0.72801 0.22756 0.03126
 O883 O 0.78094 0.75268 0.47664
 O884 O 0.74782 0.71952 0.52373
 O885 O 0.74776 0.71951 0.47670
 O886 O 0.78098 0.75271 0.52368
 O887 O 0.75275 0.78093 0.52370
 O888 O 0.71953 0.74773 0.47672
 O889 O 0.71959 0.74774 0.52375
 O890 O 0.75271 0.78090 0.47667
 Cu891 Cu 0.76722 0.73327 0.50018
 Cu892 Cu 0.73331 0.76716 0.50021
 C893 C 0.77240 0.77238 0.46857
 C894 C 0.72813 0.72805 0.53182
 C895 C 0.72805 0.72803 0.46865
 C896 C 0.77246 0.77241 0.53176
 O897 O 0.97729 0.25216 0.21917
 O898 O 1.02448 0.21910 0.25237
 O899 O 0.97740 0.21901 0.25238
 O900 O 1.02438 0.25230 0.21922
 O901 O 1.02427 0.28051 0.24738
 O902 O 0.97728 0.24724 0.28053
 O903 O 1.02437 0.24731 0.28053
 O904 O 0.97718 0.28039 0.24731
 Cu905 Cu 1.00090 0.23281 0.23296
 Cu906 Cu 1.00076 0.26670 0.26677
 C907 C 0.96914 0.27185 0.22764
 C908 C 1.03253 0.22763 0.27204
 C909 C 0.96928 0.22752 0.27205
 C910 C 1.03239 0.27201 0.22771
 O911 O 0.47679 0.24691 0.78092
 O912 O 0.52365 0.28027 0.74765
 O913 O 0.47656 0.28016 0.74782
 O914 O 0.52389 0.24707 0.78081
 O915 O 0.52394 0.21889 0.75261
 O916 O 0.47660 0.25198 0.71963
 O917 O 0.52368 0.25208 0.71946
 O918 O 0.47684 0.21873 0.75273
 Cu919 Cu 0.50022 0.26643 0.76713
 Cu920 Cu 0.50027 0.23259 0.73328
 C921 C 0.46877 0.22720 0.77243
 C922 C 0.53170 0.27180 0.72794
 C923 C 0.46846 0.27165 0.72817
 C924 C 0.53204 0.22741 0.77227
 O925 O -0.02431 0.28076 0.75247
 O926 O 0.02290 0.24751 0.71946
 O927 O -0.02418 0.24749 0.71938
 O928 O 0.02278 0.28078 0.75256
 O929 O 0.02278 0.25262 0.78078
 O930 O -0.02419 0.21935 0.74761
 O931 O 0.02290 0.21936 0.74768
 O932 O -0.02431 0.25262 0.78070
 Cu933 Cu -0.00070 0.26696 0.73314
 Cu934 Cu -0.00070 0.23316 0.76703
 C935 C -0.03242 0.27229 0.77215
 C936 C 0.03100 0.22783 0.72800
 C937 C -0.03225 0.22781 0.72791
 C938 C 0.03084 0.27231 0.77226
 O939 O 0.47637 0.28032 0.25249
 O940 O 0.52345 0.24714 0.21922
 O941 O 0.47636 0.24714 0.21930
 O942 O 0.52345 0.28031 0.25242
 O943 O 0.52351 0.25208 0.28056
 O944 O 0.47642 0.21893 0.24745
 O945 O 0.52351 0.21892 0.24737
 O946 O 0.47644 0.25210 0.28064
 Cu947 Cu 0.49990 0.26656 0.23303
 Cu948 Cu 0.49998 0.23267 0.26683
 C949 C 0.46833 0.27181 0.27217
 C950 C 0.53156 0.22744 0.22769
 C951 C 0.46832 0.22745 0.22779
 C952 C 0.53155 0.27178 0.27207
 O953 O 1.02394 0.78058 0.74793
 O954 O 0.97703 0.74722 0.78109
 O955 O 1.02412 0.74726 0.78096
 O956 O 0.97686 0.78046 0.74798
 O957 O 0.97691 0.75232 0.71975
 O958 O 1.02417 0.71913 0.75272
 O959 O 0.97708 0.71907 0.75285
 O960 O 1.02398 0.75245 0.71968
 Cu961 Cu 1.00049 0.76670 0.76733
 Cu962 Cu 1.00054 0.73291 0.73341
 C963 C 1.03201 0.77214 0.72821
 C964 C 0.96900 0.72752 0.77256
 C965 C 1.03226 0.72761 0.77239
 C966 C 0.96878 0.77199 0.72830
 O967 O 0.52377 0.78112 0.24722
 O968 O 0.47656 0.74799 0.28023
 O969 O 0.52364 0.74798 0.28043
 O970 O 0.47667 0.78119 0.24708
 O971 O 0.47677 0.75297 0.21893
 O972 O 0.52376 0.71975 0.25228
 O973 O 0.47668 0.71977 0.25207
 O974 O 0.52387 0.75290 0.21906
 Cu975 Cu 0.50015 0.76741 0.26657
 Cu976 Cu 0.50028 0.73351 0.23275
 C977 C 0.53192 0.77258 0.22758
 C978 C 0.46853 0.72829 0.27172
 C979 C 0.53175 0.72826 0.27198
 C980 C 0.46866 0.77268 0.22739
 O981 O -0.02375 0.71996 0.24775
 O982 O 0.02316 0.75330 0.28093
 O983 O -0.02393 0.75315 0.28093
 O984 O 0.02332 0.72012 0.24774
 O985 O 0.02320 0.74834 0.21959
 O986 O -0.02406 0.78136 0.25277
 O987 O 0.02304 0.78152 0.25277
 O988 O -0.02387 0.74817 0.21959
 Cu989 Cu -0.00029 0.73380 0.26717
 Cu990 Cu -0.00044 0.76768 0.23335
 C991 C -0.03185 0.72844 0.22807
 C992 C 0.03115 0.77303 0.27244
 C993 C -0.03211 0.77282 0.27243
 C994 C 0.03135 0.72865 0.22807
 O995 O 0.52300 0.75290 0.78085
 O996 O 0.47621 0.71951 0.74754
 O997 O 0.52329 0.71966 0.74773
 O998 O 0.47591 0.75276 0.78066
 O999 O 0.47589 0.78092 0.75245
 O1000 O 0.52329 0.74783 0.71953
 O1001 O 0.47621 0.74768 0.71934
 O1002 O 0.52298 0.78108 0.75265
 Cu1003 Cu 0.49961 0.73338 0.76703
 Cu1004 Cu 0.49959 0.76721 0.73316
 C1005 C 0.53102 0.77261 0.77236
 C1006 C 0.46819 0.72797 0.72783
 C1007 C 0.53142 0.72817 0.72808
 C1008 C 0.46777 0.77241 0.77210
 N1009 N 0.42226 0.28726 0.31748
 C1010 C 0.41297 0.30811 0.30850
 N1011 N 0.42222 0.31712 0.28769
 N1012 N 0.44000 0.30567 0.27623
 C1013 C 0.44921 0.28478 0.28515
 N1014 N 0.44005 0.27581 0.30601
 N1015 N 0.42133 0.78772 0.81708
 C1016 C 0.41188 0.80846 0.80798
 N1017 N 0.42123 0.81745 0.78717
 N1018 N 0.43918 0.80609 0.77587
 C1019 C 0.44849 0.78531 0.78493
 N1020 N 0.43928 0.77636 0.80577
 N1021 N -0.07876 0.28769 0.81719
 C1022 C -0.08819 0.30845 0.80809
 N1023 N -0.07884 0.31743 0.78728
 N1024 N -0.06093 0.30603 0.77595
 C1025 C -0.05165 0.28523 0.78501
 N1026 N -0.06085 0.27630 0.80586
 N1027 N -0.07844 0.78802 0.31755
 C1028 C -0.08792 0.80879 0.30851
 N1029 N -0.07861 0.81782 0.28770
 N1030 N -0.06068 0.80648 0.27634
 C1031 C -0.05135 0.78568 0.28534
 N1032 N -0.06052 0.77669 0.30618
 N1033 N 0.57784 0.68295 0.28757
 C1034 C 0.58707 0.69198 0.30839
 N1035 N 0.57776 0.71284 0.31734
 N1036 N 0.55999 0.72429 0.30585
 C1037 C 0.55085 0.71530 0.28499
 N1038 N 0.56007 0.69440 0.27609
 N1039 N 0.57860 0.18241 0.78738
 C1040 C 0.58795 0.19143 0.80817
 N1041 N 0.57848 0.21219 0.81725
 N1042 N 0.56053 0.22352 0.80594
 C1043 C 0.55132 0.21453 0.78511
 N1044 N 0.56065 0.19374 0.77607
 N1045 N 1.07872 0.68249 0.78746
 C1046 C 1.08807 0.69147 0.80826
 N1047 N 1.07864 0.71222 0.81738
 N1048 N 1.06071 0.72361 0.80607
 C1049 C 1.05150 0.71467 0.78523
 N1050 N 1.06079 0.69388 0.77616
 N1051 N 1.07895 0.18257 0.28731
 C1052 C 1.08824 0.19157 0.30814
 N1053 N 1.07877 0.21233 0.31720
 N1054 N 1.06088 0.22370 0.30582
 C1055 C 1.05174 0.21473 0.28496
 N1056 N 1.06106 0.19393 0.27594
 N1057 N 0.57769 0.28731 0.68263
 C1058 C 0.58694 0.30815 0.69163
 N1059 N 0.57767 0.31714 0.71246
 N1060 N 0.55992 0.30567 0.72392
 C1061 C 0.55077 0.28480 0.71496
 N1062 N 0.55994 0.27585 0.69409
 N1063 N 0.57830 0.81761 0.21242
 C1064 C 0.58767 0.80859 0.19161
 N1065 N 0.57827 0.78783 0.18255
 N1066 N 0.56036 0.77649 0.19388
 C1067 C 0.55114 0.78547 0.21472
 N1068 N 0.56040 0.80627 0.22375
 N1069 N 1.07855 0.28746 0.18256
 C1070 C 1.08787 0.30828 0.19160
 N1071 N 1.07850 0.31727 0.21241
 N1072 N 1.06068 0.30583 0.22379
 C1073 C 1.05152 0.28499 0.21480
 N1074 N 1.06074 0.27604 0.19395
 N1075 N 1.07803 0.81749 0.71290
 C1076 C 1.08727 0.80857 0.69202
 N1077 N 1.07799 0.78778 0.68294
 N1078 N 1.06024 0.77629 0.69436
 C1079 C 1.05109 0.78516 0.71528
 N1080 N 1.06027 0.80600 0.72431
 N1081 N 0.42229 0.71238 0.68246
 C1082 C 0.41304 0.69155 0.69147
 N1083 N 0.42227 0.68259 0.71233
 N1084 N 0.43999 0.69407 0.72379
 C1085 C 0.44915 0.71494 0.71483
 N1086 N 0.44002 0.72386 0.69393
 N1087 N 0.42214 0.18226 0.21248
 C1088 C 0.41286 0.19127 0.19166
 N1089 N 0.42216 0.21206 0.18262
 N1090 N 0.43998 0.22347 0.19402
 C1091 C 0.44917 0.21451 0.21487
 N1092 N 0.43996 0.19368 0.22387
 N1093 N -0.07782 0.71283 0.18279
 C1094 C -0.08701 0.69197 0.19179
 N1095 N -0.07773 0.68300 0.21262
 N1096 N -0.06001 0.69451 0.22407
 C1097 C -0.05091 0.71542 0.21511
 N1098 N -0.06010 0.72434 0.19425
 N1099 N -0.07840 0.18261 0.71261
 C1100 C -0.08771 0.19157 0.69176
 N1101 N -0.07834 0.21235 0.68270
 N1102 N -0.06053 0.22377 0.69410
 C1103 C -0.05137 0.21485 0.71498
 N1104 N -0.06059 0.19403 0.72400
 N1105 N 0.31715 0.42231 0.28769
 C1106 C 0.30812 0.41309 0.30852
 N1107 N 0.28728 0.42242 0.31749
 N1108 N 0.27586 0.44022 0.30603
 C1109 C 0.28484 0.44935 0.28516
 N1110 N 0.30572 0.44010 0.27623
 N1111 N 0.28768 -0.07872 0.81709
 C1112 C 0.30844 -0.08816 0.80798
 N1113 N 0.31742 -0.07882 0.78716
 N1114 N 0.30602 -0.06090 0.77585
 C1115 C 0.28522 -0.05162 0.78491
 N1116 N 0.27629 -0.06081 0.80576
 N1117 N 0.81748 0.42126 0.78736
 C1118 C 0.80846 0.41191 0.80815
 N1119 N 0.78771 0.42137 0.81725
 N1120 N 0.77636 0.43932 0.80594
 C1121 C 0.78534 0.44853 0.78511
 N1122 N 0.80613 0.43921 0.77605
 N1123 N 0.78787 -0.07849 0.31758
 C1124 C 0.80864 -0.08795 0.30853
 N1125 N 0.81766 -0.07864 0.28771
 N1126 N 0.80630 -0.06074 0.27635
 C1127 C 0.78549 -0.05143 0.28536
 N1128 N 0.77651 -0.06059 0.30621
 N1129 N 0.31714 0.57764 0.71236
 C1130 C 0.30815 0.58689 0.69153
 N1131 N 0.28730 0.57765 0.68254
 N1132 N 0.27583 0.55992 0.69402
 C1133 C 0.28477 0.55077 0.71490
 N1134 N 0.30566 0.55991 0.72384
 N1135 N 0.31729 1.07849 0.21223
 C1136 C 0.30827 1.08785 0.19143
 N1137 N 0.28744 1.07853 0.18242
 N1138 N 0.27603 1.06071 0.19383
 C1139 C 0.28501 1.05151 0.21466
 N1140 N 0.30587 1.06068 0.22363
 N1141 N 0.81757 0.57755 0.21246
 C1142 C 0.80855 0.58682 0.19165
 N1143 N 0.78774 0.57753 0.18263
 N1144 N 0.77633 0.55973 0.19405
 C1145 C 0.78530 0.55055 0.21491
 N1146 N 0.80615 0.55975 0.22388
 N1147 N 0.81755 1.07792 0.71295
 C1148 C 0.80866 1.08715 0.69206
 N1149 N 0.78788 1.07787 0.68297
 N1150 N 0.77637 1.06013 0.69438
 C1151 C 0.78521 1.05100 0.71531
 N1152 N 0.80604 1.06018 0.72436
 N1153 N 0.68279 0.57768 0.28773
 C1154 C 0.69182 0.58694 0.30853
 N1155 N 0.71266 0.57761 0.31751
 N1156 N 0.72408 0.55978 0.30606
 C1157 C 0.71508 0.55062 0.28522
 N1158 N 0.69420 0.55986 0.27629
 N1159 N 0.71216 1.07864 0.81735
 C1160 C 0.69141 1.08808 0.80823
 N1161 N 0.68245 1.07872 0.78741
 N1162 N 0.69385 1.06078 0.77612
 C1163 C 0.71463 1.05149 0.78521
 N1164 N 0.72355 1.06071 0.80605
 N1165 N 0.18239 0.57865 0.78739
 C1166 C 0.19142 0.58800 0.80818
 N1167 N 0.21218 0.57854 0.81726
 N1168 N 0.22351 0.56058 0.80593
 C1169 C 0.21451 0.55138 0.78511
 N1170 N 0.19372 0.56070 0.77608
 N1171 N 0.18263 1.07894 0.28729
 C1172 C 0.19163 1.08824 0.30811
 N1173 N 0.21241 1.07879 0.31716
 N1174 N 0.22378 1.06090 0.30578
 C1175 C 0.21482 1.05175 0.28492
 N1176 N 0.19401 1.06105 0.27591
 N1177 N 0.71253 0.42221 0.68263
 C1178 C 0.69169 0.41296 0.69163
 N1179 N 0.68270 0.42222 0.71247
 N1180 N 0.69417 0.43996 0.72392
 C1181 C 0.71505 0.44911 0.71497
 N1182 N 0.72400 0.43995 0.69409
 N1183 N 0.68270 -0.07798 0.21293
 C1184 C 0.69162 -0.08728 0.19208
 N1185 N 0.71244 -0.07806 0.18301
 N1186 N 0.72396 -0.06031 0.19440
 C1187 C 0.71508 -0.05111 0.21529
 N1188 N 0.69422 -0.06023 0.22433
 N1189 N 0.21208 0.42222 0.18272
 C1190 C 0.19130 0.41292 0.19180
 N1191 N 0.18232 0.42222 0.21263
 N1192 N 0.19374 0.44005 0.22399
 C1193 C 0.21456 0.44926 0.21495
 N1194 N 0.22349 0.44005 0.19409
 N1195 N 0.18266 -0.07844 0.71251
 C1196 C 0.19165 -0.08776 0.69168
 N1197 N 0.21243 -0.07839 0.68262
 N1198 N 0.22383 -0.06056 0.69401
 C1199 C 0.21488 -0.05139 0.71488
 N1200 N 0.19406 -0.06061 0.72390
 N1201 N 0.28733 0.31731 0.42263
 C1202 C 0.30817 0.30828 0.41335
 N1203 N 0.31721 0.28744 0.42261
 N1204 N 0.30578 0.27601 0.44039
 C1205 C 0.28490 0.28499 0.44958
 N1206 N 0.27590 0.30587 0.44041
 N1207 N 0.28742 0.81738 -0.07826
 C1208 C 0.30824 0.80831 -0.08756
 N1209 N 0.31729 0.78751 -0.07823
 N1210 N 0.30590 0.77616 -0.06037
 C1211 C 0.28504 0.78518 -0.05117
 N1212 N 0.27604 0.80603 -0.06041
 N1213 N 0.78742 0.31726 -0.07811
 C1214 C 0.80822 0.30822 -0.08746
 N1215 N 0.81730 0.28740 -0.07819
 N1216 N 0.80595 0.27600 -0.06034
 C1217 C 0.78510 0.28499 -0.05109
 N1218 N 0.77606 0.30585 -0.06026
 N1219 N 0.78764 0.81751 0.42233
 C1220 C 0.80845 0.80846 0.41300
 N1221 N 0.81752 0.78765 0.42231
 N1222 N 0.80616 0.77628 0.44017
 C1223 C 0.78530 0.78529 0.44940
 N1224 N 0.77628 0.80614 0.44018
 N1225 N 0.68282 0.28736 0.57756
 C1226 C 0.69177 0.30821 0.58682
 N1227 N 0.71258 0.31725 0.57754
 N1228 N 0.72406 0.30581 0.55977
 C1229 C 0.71515 0.28492 0.55060
 N1230 N 0.69429 0.27593 0.55979
 N1231 N 0.71205 0.81726 1.07780
 C1232 C 0.69126 0.80820 1.08710
 N1233 N 0.68228 0.78738 1.07781
 N1234 N 0.69371 0.77600 1.05997
 C1235 C 0.71454 0.78502 1.05076
 N1236 N 0.72347 0.80588 1.05996
 N1237 N 0.18228 0.28732 1.07770
 C1238 C 0.19127 0.30815 1.08697
 N1239 N 0.21206 0.31719 1.07765
 N1240 N 0.22347 0.30579 1.05982
 C1241 C 0.21452 0.28492 1.05064
 N1242 N 0.19369 0.27592 1.05987
 N1243 N 0.21267 0.81780 0.57775
 C1244 C 0.19183 0.80883 0.58702
 N1245 N 0.18275 0.78807 0.57769
 N1246 N 0.19413 0.77666 0.55985
 C1247 C 0.21501 0.78558 0.55066
 N1248 N 0.22405 0.80638 0.55990
 N1249 N 0.31744 0.71242 0.57737
 C1250 C 0.30838 0.69161 0.58662
 N1251 N 0.28753 0.68268 0.57735
 N1252 N 0.27612 0.69418 0.55958
 C1253 C 0.28513 0.71502 0.55042
 N1254 N 0.30603 0.72391 0.55960
 N1255 N 0.31711 0.21209 1.07757
 C1256 C 0.30805 0.19131 1.08688
 N1257 N 0.28721 0.18233 1.07762
 N1258 N 0.27581 0.19376 1.05981
 C1259 C 0.28481 0.21458 1.05059
 N1260 N 0.30569 0.22352 1.05975
 N1261 N 0.81732 0.71243 1.07760
 C1262 C 0.80836 0.69158 1.08686
 N1263 N 0.78756 0.68253 1.07758
 N1264 N 0.77610 0.69395 1.05980
 C1265 C 0.78501 0.71484 1.05063
 N1266 N 0.80585 0.72385 1.05981
 N1267 N 0.81793 0.21246 0.57777
 C1268 C 0.80898 0.19162 0.58705
 N1269 N 0.78821 0.18252 0.57773
 N1270 N 0.77678 0.19390 0.55990
 C1271 C 0.78569 0.21478 0.55071
 N1272 N 0.80650 0.22383 0.55994
 N1273 N 0.71265 0.68279 0.42255
 C1274 C 0.69182 0.69184 0.41327
 N1275 N 0.68280 0.71268 0.42255
 N1276 N 0.69422 0.72409 0.44035
 C1277 C 0.71509 0.71509 0.44953
 N1278 N 0.72408 0.69421 0.44035
 N1279 N 0.71246 0.18262 -0.07814
 C1280 C 0.69165 0.19171 -0.08742
 N1281 N 0.68262 0.21252 -0.07808
 N1282 N 0.69403 0.22387 -0.06024
 C1283 C 0.71489 0.21483 -0.05106
 N1284 N 0.72387 0.19397 -0.06030
 N1285 N 0.18266 0.71254 -0.07813
 C1286 C 0.19174 0.69173 -0.08742
 N1287 N 0.21256 0.68270 -0.07810
 N1288 N 0.22392 0.69411 -0.06027
 C1289 C 0.21489 0.71497 -0.05108
 N1290 N 0.19402 0.72395 -0.06030
 N1291 N 0.21246 0.18260 0.42211
 C1292 C 0.19167 0.19167 0.41278
 N1293 N 0.18258 0.21246 0.42212
 N1294 N 0.19391 0.22379 0.44002
 C1295 C 0.21475 0.21477 0.44926
 N1296 N 0.22379 0.19394 0.44001
 N1297 N 0.28696 0.42211 0.68313
 C1298 C 0.30776 0.41277 0.69219
 N1299 N 0.31678 0.42209 0.71297
 N1300 N 0.30538 0.43999 0.72431
 C1301 C 0.28454 0.44924 0.71530
 N1302 N 0.27556 0.44001 0.69448
 N1303 N 0.31718 0.92294 0.21209
 C1304 C 0.30812 0.91366 0.19131
 N1305 N 0.28726 0.92297 0.18236
 N1306 N 0.27585 0.94079 0.19381
 C1307 C 0.28488 0.94998 0.21463
 N1308 N 0.30577 0.94077 0.22354
 N1309 N 0.78773 0.42208 0.18252
 C1310 C 0.80858 0.41277 0.19149
 N1311 N 0.81761 0.42203 0.21230
 N1312 N 0.80618 0.43984 0.22374
 C1313 C 0.78529 0.44906 0.21481
 N1314 N 0.77630 0.43989 0.19397
 N1315 N 0.81719 0.92242 0.71308
 C1316 C 0.80822 0.91316 0.69225
 N1317 N 0.78742 0.92250 0.68319
 N1318 N 0.77599 0.94035 0.69458
 C1319 C 0.78492 0.94952 0.71545
 N1320 N 0.80575 0.94026 0.72447
 N1321 N 0.68311 0.57778 0.71292
 C1322 C 0.69215 0.58708 0.69214
 N1323 N 0.71296 0.57774 0.68310
 N1324 N 0.72434 0.55985 0.69447
 C1325 C 0.71534 0.55063 0.71529
 N1326 N 0.69450 0.55989 0.72428
 N1327 N 0.71308 0.07727 0.18274
 C1328 C 0.69223 0.08660 0.19171
 N1329 N 0.68319 0.07738 0.21252
 N1330 N 0.69461 0.05958 0.22399
 C1331 C 0.71549 0.05034 0.21507
 N1332 N 0.72449 0.05947 0.19421
 N1333 N 0.21219 0.57782 0.18243
 C1334 C 0.19139 0.58718 0.19145
 N1335 N 0.18236 0.57794 0.21226
 N1336 N 0.19376 0.56010 0.22368
 C1337 C 0.21461 0.55082 0.21470
 N1338 N 0.22359 0.55997 0.19384
 N1339 N 0.18253 0.07724 0.71267
 C1340 C 0.19151 0.08653 0.69186
 N1341 N 0.21232 0.07721 0.68280
 N1342 N 0.22377 0.05937 0.69418
 C1343 C 0.21483 0.05017 0.71503
 N1344 N 0.19398 0.05940 0.72405
 N1345 N 0.31722 0.57787 0.28713
 C1346 C 0.30823 0.58720 0.30793
 N1347 N 0.28742 0.57795 0.31700
 N1348 N 0.27599 0.56012 0.30565
 C1349 C 0.28494 0.55087 0.28481
 N1350 N 0.30579 0.56003 0.27578
 N1351 N 0.31752 0.07693 0.78761
 C1352 C 0.30849 0.08622 0.80842
 N1353 N 0.28766 0.07696 0.81742
 N1354 N 0.27624 0.05917 0.80599
 C1355 C 0.28522 0.04997 0.78514
 N1356 N 0.30610 0.05914 0.77618
 N1357 N 0.78807 0.57713 0.81772
 C1358 C 0.80891 0.58637 0.80873
 N1359 N 0.81795 0.57707 0.78793
 N1360 N 0.80651 0.55929 0.77650
 C1361 C 0.78563 0.55014 0.78545
 N1362 N 0.77664 0.55934 0.80629
 N1363 N 0.81815 0.07707 0.28767
 C1364 C 0.80917 0.08639 0.30848
 N1365 N 0.78834 0.07717 0.31752
 N1366 N 0.77688 0.05938 0.30614
 C1367 C 0.78582 0.05014 0.28529
 N1368 N 0.80669 0.05928 0.27628
 N1369 N 0.68268 0.42217 0.28750
 C1370 C 0.69169 0.41287 0.30830
 N1371 N 0.71252 0.42212 0.31732
 N1372 N 0.72396 0.43991 0.30591
 C1373 C 0.71499 0.44912 0.28507
 N1374 N 0.69412 0.43996 0.27609
 N1375 N 0.71189 0.92297 0.81780
 C1376 C 0.69106 0.91373 0.80878
 N1377 N 0.68208 0.92301 0.78795
 N1378 N 0.69356 0.94078 0.77653
 C1379 C 0.71443 0.94992 0.78551
 N1380 N 0.72336 0.94073 0.80638
 N1381 N 0.21172 0.42274 0.81764
 C1382 C 0.19089 0.41349 0.80863
 N1383 N 0.18187 0.42280 0.78783
 N1384 N 0.19331 0.44059 0.77642
 C1385 C 0.21419 0.44974 0.78539
 N1386 N 0.22315 0.44053 0.80623
 N1387 N 0.18236 0.92330 0.28756
 C1388 C 0.19141 0.91401 0.30836
 N1389 N 0.21227 0.92324 0.31731
 N1390 N 0.22370 0.94101 0.30585
 C1391 C 0.21469 0.95021 0.28502
 N1392 N 0.19379 0.94106 0.27611
 N1393 N 0.42206 0.31679 0.71297
 C1394 C 0.41274 0.30777 0.69219
 N1395 N 0.42209 0.28697 0.68314
 N1396 N 0.43999 0.27558 0.69448
 C1397 C 0.44921 0.28456 0.71530
 N1398 N 0.43996 0.30540 0.72432
 N1399 N 0.42246 0.81793 0.21193
 C1400 C 0.41319 0.80889 0.19114
 N1401 N 0.42252 0.78805 0.18214
 N1402 N 0.44035 0.77664 0.19357
 C1403 C 0.44952 0.78563 0.21441
 N1404 N 0.44029 0.80651 0.22336
 N1405 N 0.92285 0.31700 0.21221
 C1406 C 0.91359 0.30794 0.19142
 N1407 N 0.92293 0.28711 0.18243
 N1408 N 0.94078 0.27573 0.19386
 C1409 C 0.94996 0.28475 0.21469
 N1410 N 0.94070 0.30561 0.22363
 N1411 N 0.92248 0.81721 0.71305
 C1412 C 0.91322 0.80822 0.69222
 N1413 N 0.92257 0.78743 0.68316
 N1414 N 0.94041 0.77600 0.69455
 C1415 C 0.94958 0.78494 0.71541
 N1416 N 0.94032 0.80577 0.72443
 N1417 N 0.57765 0.31703 0.28746
 C1418 C 0.58696 0.30800 0.30825
 N1419 N 0.57771 0.28717 0.31725
 N1420 N 0.55991 0.27574 0.30584
 C1421 C 0.55069 0.28473 0.28500
 N1422 N 0.55985 0.30560 0.27604
 N1423 N 0.57697 0.81797 0.78786
 C1424 C 0.58623 0.80897 0.80868
 N1425 N 0.57698 0.78813 0.81767
 N1426 N 0.55924 0.77667 0.80622
 C1427 C 0.55007 0.78562 0.78535
 N1428 N 0.55922 0.80650 0.77640
 N1429 N 0.07692 0.28776 0.81749
 C1430 C 0.08617 0.30859 0.80848
 N1431 N 0.07689 0.31760 0.78767
 N1432 N 0.05911 0.30616 0.77624
 C1433 C 0.04994 0.28529 0.78521
 N1434 N 0.05914 0.27632 0.80606
 N1435 N 0.07718 0.81835 0.28780
 C1436 C 0.08649 0.80934 0.30860
 N1437 N 0.07726 0.78851 0.31762
 N1438 N 0.05947 0.77706 0.30621
 C1439 C 0.05025 0.78602 0.28537
 N1440 N 0.05939 0.80690 0.27640
 N1441 N 0.57783 0.68303 0.71289
 C1442 C 0.58715 0.69204 0.69211
 N1443 N 0.57781 0.71284 0.68305
 N1444 N 0.55991 0.72423 0.69440
 C1445 C 0.55068 0.71526 0.71522
 N1446 N 0.55993 0.69442 0.72424
 N1447 N 0.57780 0.18222 0.21226
 C1448 C 0.58706 0.19125 0.19146
 N1449 N 0.57772 0.21207 0.18246
 N1450 N 0.55988 0.22348 0.19389
 C1451 C 0.55072 0.21450 0.21473
 N1452 N 0.55996 0.19363 0.22369
 N1453 N 0.07749 0.71329 0.18279
 C1454 C 0.08680 0.69244 0.19175
 N1455 N 0.07755 0.68341 0.21256
 N1456 N 0.05975 0.69484 0.22402
 C1457 C 0.05053 0.71573 0.21510
 N1458 N 0.05969 0.72472 0.19425
 N1459 N 0.07725 0.18255 0.71273
 C1460 C 0.08654 0.19153 0.69191
 N1461 N 0.07722 0.21234 0.68287
 N1462 N 0.05938 0.22379 0.69425
 C1463 C 0.05019 0.21485 0.71511
 N1464 N 0.05941 0.19400 0.72412
 N1465 N 0.42229 0.71290 0.31682
 C1466 C 0.41303 0.69209 0.30779
 N1467 N 0.42236 0.68307 0.28699
 N1468 N 0.44018 0.69450 0.27561
 C1469 C 0.44935 0.71535 0.28461
 N1470 N 0.44011 0.72432 0.30544
 N1471 N 0.42265 0.21175 0.81762
 C1472 C 0.41340 0.19092 0.80860
 N1473 N 0.42272 0.18191 0.78780
 N1474 N 0.44052 0.19335 0.77640
 C1475 C 0.44967 0.21422 0.78538
 N1476 N 0.44045 0.22318 0.80622
 N1477 N 0.92289 0.71206 0.81776
 C1478 C 0.91365 0.69123 0.80875
 N1479 N 0.92296 0.68221 0.78794
 N1480 N 0.94075 0.69366 0.77653
 C1481 C 0.94990 0.71453 0.78550
 N1482 N 0.94068 0.72350 0.80635
 N1483 N 0.92323 0.18224 0.28748
 C1484 C 0.91393 0.19126 0.30828
 N1485 N 0.92317 0.21210 0.31727
 N1486 N 0.94096 0.22354 0.30584
 C1487 C 0.95017 0.21456 0.28500
 N1488 N 0.94102 0.19367 0.27605
 N1489 N 0.28708 0.31697 0.57811
 C1490 C 0.30789 0.30790 0.58741
 N1491 N 0.31695 0.28710 0.57809
 N1492 N 0.30558 0.27573 0.56024
 C1493 C 0.28473 0.28475 0.55102
 N1494 N 0.27571 0.30560 0.56025
 N1495 N 0.31726 0.78792 0.07727
 C1496 C 0.30820 0.80875 0.08653
 N1497 N 0.28735 0.81775 0.07725
 N1498 N 0.27595 0.80630 0.05946
 C1499 C 0.28498 0.78543 0.05029
 N1500 N 0.30586 0.77647 0.05948
 N1501 N 0.78780 0.31706 0.07742
 C1502 C 0.80864 0.30799 0.08667
 N1503 N 0.81766 0.28717 0.07734
 N1504 N 0.80622 0.27580 0.05953
 C1505 C 0.78534 0.28482 0.05038
 N1506 N 0.77636 0.30568 0.05961
 N1507 N 0.78775 0.81757 0.57796
 C1508 C 0.80857 0.80852 0.58726
 N1509 N 0.81763 0.78771 0.57795
 N1510 N 0.80625 0.77633 0.56010
 C1511 C 0.78539 0.78533 0.55090
 N1512 N 0.77637 0.80619 0.56012
 N1513 N 0.31735 0.71283 0.42199
 C1514 C 0.30832 0.69203 0.41269
 N1515 N 0.28750 0.68303 0.42198
 N1516 N 0.27609 0.69445 0.43981
 C1517 C 0.28509 0.71529 0.44902
 N1518 N 0.30595 0.72424 0.43982
 N1519 N 0.28738 0.18223 0.92229
 C1520 C 0.30824 0.19120 0.91305
 N1521 N 0.31723 0.21202 0.92232
 N1522 N 0.30576 0.22350 0.94006
 C1523 C 0.28487 0.21457 0.94921
 N1524 N 0.27591 0.19370 0.94004
 N1525 N 0.81742 0.71235 0.92243
 C1526 C 0.80847 0.69149 0.91318
 N1527 N 0.78762 0.68249 0.92242
 N1528 N 0.77612 0.69396 0.94014
 C1529 C 0.78502 0.71486 0.94930
 N1530 N 0.80591 0.72382 0.94016
 N1531 N 0.78830 0.18229 0.42239
 C1532 C 0.80910 0.19132 0.41310
 N1533 N 0.81806 0.21218 0.42234
 N1534 N 0.80659 0.22362 0.44011
 C1535 C 0.78574 0.21463 0.44931
 N1536 N 0.77683 0.19373 0.44016
 N1537 N 0.68287 0.28720 0.42228
 C1538 C 0.69182 0.30805 0.41300
 N1539 N 0.71262 0.31710 0.42227
 N1540 N 0.72409 0.30569 0.44006
 C1541 C 0.71519 0.28481 0.44924
 N1542 N 0.69434 0.27580 0.44006
 N1543 N 0.71200 0.81766 0.92255
 C1544 C 0.69116 0.80868 0.91329
 N1545 N 0.68218 0.78782 0.92250
 N1546 N 0.69366 0.77632 0.94022
 C1547 C 0.71454 0.78525 0.94939
 N1548 N 0.72348 0.80615 0.94027
 N1549 N 0.21196 0.31737 0.92236
 C1550 C 0.19112 0.30839 0.91310
 N1551 N 0.18213 0.28754 0.92234
 N1552 N 0.19360 0.27607 0.94008
 C1553 C 0.21448 0.28501 0.94925
 N1554 N 0.22342 0.30589 0.94011
 N1555 N 0.18248 0.78835 0.42239
 C1556 C 0.19151 0.80917 0.41312
 N1557 N 0.21238 0.81811 0.42235
 N1558 N 0.22384 0.80662 0.44010
 C1559 C 0.21485 0.78576 0.44927
 N1560 N 0.19394 0.77687 0.44013
 N1561 N 0.68298 0.71274 0.57805
 C1562 C 0.69205 0.69193 0.58734
 N1563 N 0.71287 0.68289 0.57804
 N1564 N 0.72424 0.69428 0.56019
 C1565 C 0.71522 0.71513 0.55099
 N1566 N 0.69436 0.72413 0.56020
 N1567 N 0.68287 0.21212 0.07745
 C1568 C 0.69196 0.19131 0.08672
 N1569 N 0.71280 0.18231 0.07741
 N1570 N 0.72417 0.19374 0.05959
 C1571 C 0.71512 0.21460 0.05041
 N1572 N 0.69424 0.22355 0.05963
 N1573 N 0.21229 0.68296 0.07743
 C1574 C 0.19148 0.69206 0.08672
 N1575 N 0.18247 0.71289 0.07742
 N1576 N 0.19389 0.72425 0.05959
 C1577 C 0.21474 0.71520 0.05039
 N1578 N 0.22371 0.69433 0.05960
 N1579 N 0.18224 0.21212 0.57776
 C1580 C 0.19129 0.19129 0.58704
 N1581 N 0.21212 0.18226 0.57774
 N1582 N 0.22353 0.19367 0.55994
 C1583 C 0.21453 0.21454 0.55076
 N1584 N 0.19365 0.22353 0.55996
   
