data_POSCAR
  _audit_creation_date              2014-09-24
  _audit_creation_method            'ToBaCCo'
  _symmetry_space_group_name_H-M    'P1'
  _symmetry_Int_Tables_number       1
  _symmetry_cell_setting            triclinic
  loop_
  _symmetry_equiv_pos_as_xyz
 x,y,z
_cell_length_a 103.6741
_cell_length_b 103.7713
_cell_length_c 103.9599
_cell_angle_alpha 89.979300
_cell_angle_beta 89.980800
_cell_angle_gamma 89.949600
loop_
  _atom_site_label
  _atom_site_type_symbol
  _atom_site_fract_x
  _atom_site_fract_y
  _atom_site_fract_z
N1 N 0.35609 0.32035 0.32948
 N2 N 0.35592 0.32933 0.32055
 C3 C 0.36590 0.32742 0.31246
 C4 C 0.37261 0.31666 0.31655
 C5 C 0.36614 0.31241 0.32736
 H6 H 0.36815 0.33336 0.30421
 H7 H 0.36859 0.30419 0.33325
 Cu8 Cu 0.34263 0.34258 0.32051
 Cu9 Cu 0.34324 0.31954 0.34314
 Cu10 Cu 0.31955 0.34320 0.34313
 N11 N 0.32936 0.35586 0.32054
 N12 N 0.32037 0.35603 0.32947
 C13 C 0.31243 0.36607 0.32734
 C14 C 0.31668 0.37253 0.31652
 C15 C 0.32745 0.36583 0.31245
 H16 H 0.30419 0.36852 0.33323
 H17 H 0.33340 0.36807 0.30419
 N18 N 0.32039 0.32937 0.35613
 N19 N 0.32940 0.32037 0.35613
 C20 C 0.32734 0.31236 0.36612
 C21 C 0.31654 0.31652 0.37268
 C22 C 0.31237 0.32731 0.36612
 H23 H 0.33324 0.30409 0.36848
 H24 H 0.30409 0.33320 0.36848
 H25 H 0.32863 0.32860 0.33314
 H26 H 0.33904 0.33900 0.34341
 N27 N 0.35639 0.82055 -0.17078
 N28 N 0.35629 0.82959 -0.17966
 C29 C 0.36625 0.82765 -0.18777
 C30 C 0.37292 0.81683 -0.18371
 C31 C 0.36640 0.81257 -0.17291
 H32 H 0.36851 0.83361 -0.19600
 H33 H 0.36877 0.80429 -0.16704
 Cu34 Cu 0.34299 0.84285 -0.17969
 Cu35 Cu 0.34353 0.81972 -0.15713
 Cu36 Cu 0.31982 0.84338 -0.15714
 N37 N 0.32970 0.85613 -0.17968
 N38 N 0.32064 0.85622 -0.17082
 C39 C 0.31264 0.86622 -0.17297
 C40 C 0.31691 0.87274 -0.18377
 C41 C 0.32775 0.86607 -0.18780
 H42 H 0.30434 0.86859 -0.16712
 H43 H 0.33373 0.86832 -0.19603
 N44 N 0.32066 0.82954 -0.14414
 N45 N 0.32969 0.82055 -0.14413
 C46 C 0.32765 0.81254 -0.13413
 C47 C 0.31685 0.81670 -0.12756
 C48 C 0.31266 0.82748 -0.13413
 H49 H 0.33356 0.80428 -0.13177
 H50 H 0.30438 0.83336 -0.13176
 H51 H 0.32893 0.82879 -0.16716
 H52 H 0.33929 0.83916 -0.15679
 N53 N 0.85577 0.32080 -0.17061
 N54 N 0.85589 0.33001 -0.17930
 C55 C 0.86609 0.32825 -0.18715
 C56 C 0.87265 0.31737 -0.18314
 C57 C 0.86586 0.31288 -0.17262
 H58 H 0.86852 0.33433 -0.19525
 H59 H 0.86801 0.30440 -0.16696
 Cu60 Cu 0.84254 0.34324 -0.17959
 Cu61 Cu 0.84211 0.31937 -0.15786
 Cu62 Cu 0.81941 0.34383 -0.15684
 N63 N 0.82906 0.35632 -0.17960
 N64 N 0.82012 0.35653 -0.17063
 C65 C 0.81215 0.36655 -0.17275
 C66 C 0.81633 0.37297 -0.18363
 C67 C 0.82708 0.36623 -0.18775
 H68 H 0.80394 0.36900 -0.16681
 H69 H 0.83302 0.36844 -0.19602
 N70 N 0.82033 0.33001 -0.14384
 N71 N 0.82902 0.32070 -0.14420
 C72 C 0.82707 0.31273 -0.13415
 C73 C 0.81664 0.31722 -0.12721
 C74 C 0.81260 0.32817 -0.13359
 H75 H 0.83275 0.30424 -0.13205
 H76 H 0.80456 0.33428 -0.13097
 H77 H 0.82772 0.32955 -0.16751
 H78 H 0.83877 0.33897 -0.15690
 N79 N 0.85611 0.82087 0.32956
 N80 N 0.85616 0.83008 0.32086
 C81 C 0.86619 0.82821 0.31282
 C82 C 0.87271 0.81726 0.31672
 C83 C 0.86608 0.81285 0.32737
 H84 H 0.86855 0.83426 0.30468
 H85 H 0.86833 0.80442 0.33306
 Cu86 Cu 0.84278 0.84323 0.32084
 Cu87 Cu 0.84307 0.81980 0.34306
 Cu88 Cu 0.82040 0.84438 0.34391
 N89 N 0.82931 0.85632 0.32060
 N90 N 0.82036 0.85651 0.32958
 C91 C 0.81223 0.86637 0.32732
 C92 C 0.81632 0.87271 0.31635
 C93 C 0.82717 0.86606 0.31230
 H94 H 0.80406 0.86885 0.33331
 H95 H 0.83307 0.86825 0.30400
 N96 N 0.82039 0.82992 0.35622
 N97 N 0.82908 0.82060 0.35593
 C98 C 0.82674 0.81237 0.36567
 C99 C 0.81609 0.81670 0.37237
 C100 C 0.81227 0.82782 0.36612
 H101 H 0.83242 0.80390 0.36785
 H102 H 0.80426 0.83397 0.36871
 H103 H 0.82858 0.82960 0.33348
 H104 H 0.83976 0.83916 0.34377
 N105 N 0.64392 0.67969 0.32958
 N106 N 0.64408 0.67071 0.32066
 C107 C 0.63412 0.67264 0.31256
 C108 C 0.62740 0.68339 0.31666
 C109 C 0.63387 0.68763 0.32747
 H110 H 0.63186 0.66670 0.30432
 H111 H 0.63142 0.69587 0.33336
 Cu112 Cu 0.65730 0.65740 0.32066
 Cu113 Cu 0.65673 0.68049 0.34325
 Cu114 Cu 0.68042 0.65684 0.34325
 N115 N 0.67063 0.64420 0.32066
 N116 N 0.67963 0.64403 0.32957
 C117 C 0.68758 0.63400 0.32746
 C118 C 0.68333 0.62754 0.31664
 C119 C 0.67257 0.63424 0.31255
 H120 H 0.69583 0.63155 0.33334
 H121 H 0.66662 0.63200 0.30431
 N122 N 0.67957 0.67065 0.35625
 N123 N 0.67055 0.67965 0.35625
 C124 C 0.67260 0.68766 0.36623
 C125 C 0.68340 0.68349 0.37280
 C126 C 0.68758 0.67271 0.36624
 H127 H 0.66670 0.69592 0.36859
 H128 H 0.69586 0.66682 0.36860
 H129 H 0.67132 0.67141 0.33322
 H130 H 0.66092 0.66101 0.34356
 N131 N 0.64400 0.17937 -0.17049
 N132 N 0.64394 0.17021 -0.17922
 C133 C 0.63369 0.17191 -0.18702
 C134 C 0.62705 0.18272 -0.18294
 C135 C 0.63383 0.18721 -0.17242
 H136 H 0.63130 0.16588 -0.19515
 H137 H 0.63165 0.19567 -0.16674
 Cu138 Cu 0.65750 0.15720 -0.17978
 Cu139 Cu 0.65772 0.18089 -0.15783
 Cu140 Cu 0.68043 0.15644 -0.15682
 N141 N 0.67082 0.14395 -0.17957
 N142 N 0.67971 0.14370 -0.17056
 C143 C 0.68765 0.13363 -0.17263
 C144 C 0.68348 0.12722 -0.18352
 C145 C 0.67278 0.13401 -0.18769
 H146 H 0.69584 0.13116 -0.16667
 H147 H 0.66688 0.13184 -0.19599
 N148 N 0.67954 0.17030 -0.14385
 N149 N 0.67085 0.17960 -0.14421
 C150 C 0.67279 0.18758 -0.13417
 C151 C 0.68324 0.18312 -0.12724
 C152 C 0.68728 0.17216 -0.13361
 H153 H 0.66711 0.19607 -0.13208
 H154 H 0.69532 0.16606 -0.13099
 H155 H 0.67220 0.17082 -0.16743
 H156 H 0.66105 0.16129 -0.15702
 N157 N 0.14411 0.67972 -0.17063
 N158 N 0.14413 0.67063 -0.17944
 C159 C 0.13394 0.67237 -0.18731
 C160 C 0.12725 0.68313 -0.18318
 C161 C 0.13395 0.68756 -0.17258
 H162 H 0.13158 0.66635 -0.19546
 H163 H 0.13167 0.69593 -0.16682
 Cu164 Cu 0.15755 0.65749 -0.17959
 Cu165 Cu 0.15769 0.68110 -0.15776
 Cu166 Cu 0.18041 0.65658 -0.15675
 N167 N 0.17093 0.64434 -0.17975
 N168 N 0.17975 0.64398 -0.17066
 C169 C 0.18764 0.63390 -0.17274
 C170 C 0.18354 0.62760 -0.18370
 C171 C 0.17291 0.63445 -0.18792
 H172 H 0.19573 0.63129 -0.16671
 H173 H 0.16705 0.63230 -0.19624
 N174 N 0.17940 0.67036 -0.14369
 N175 N 0.17072 0.67968 -0.14404
 C176 C 0.17267 0.68762 -0.13398
 C177 C 0.18309 0.68312 -0.12705
 C178 C 0.18713 0.67217 -0.13343
 H179 H 0.16702 0.69613 -0.13189
 H180 H 0.19518 0.66607 -0.13084
 H181 H 0.17222 0.67104 -0.16723
 H182 H 0.16107 0.66152 -0.15684
 N183 N 0.14387 0.17956 0.32944
 N184 N 0.14385 0.17040 0.32071
 C185 C 0.13385 0.17231 0.31264
 C186 C 0.12732 0.18323 0.31656
 C187 C 0.13392 0.18760 0.32724
 H188 H 0.13150 0.16626 0.30450
 H189 H 0.13162 0.19598 0.33299
 Cu190 Cu 0.15707 0.15709 0.32074
 Cu191 Cu 0.15680 0.18047 0.34301
 Cu192 Cu 0.18035 0.15667 0.34314
 N193 N 0.17029 0.14378 0.32079
 N194 N 0.17940 0.14373 0.32959
 C195 C 0.18742 0.13377 0.32740
 C196 C 0.18310 0.12724 0.31666
 C197 C 0.17222 0.13383 0.31270
 H198 H 0.19579 0.13144 0.33317
 H199 H 0.16623 0.13155 0.30449
 N200 N 0.17963 0.17061 0.35601
 N201 N 0.17069 0.17968 0.35594
 C202 C 0.17275 0.18771 0.36591
 C203 C 0.18350 0.18348 0.37253
 C204 C 0.18763 0.17265 0.36602
 H205 H 0.16688 0.19599 0.36826
 H206 H 0.19583 0.16669 0.36845
 H207 H 0.17131 0.17118 0.33297
 H208 H 0.16093 0.16101 0.34354
 N209 N 0.64384 0.32048 0.67038
 N210 N 0.64395 0.32948 0.67928
 C211 C 0.63398 0.32754 0.68738
 C212 C 0.62731 0.31677 0.68330
 C213 C 0.63381 0.31252 0.67250
 H214 H 0.63170 0.33349 0.69561
 H215 H 0.63141 0.30426 0.66663
 Cu216 Cu 0.65718 0.34279 0.67938
 Cu217 Cu 0.65668 0.31968 0.65674
 Cu218 Cu 0.68033 0.34329 0.65674
 N219 N 0.67051 0.35600 0.67928
 N220 N 0.67953 0.35612 0.67039
 C221 C 0.68750 0.36613 0.67251
 C222 C 0.68325 0.37262 0.68330
 C223 C 0.67245 0.36596 0.68738
 H224 H 0.69577 0.36853 0.66664
 H225 H 0.66649 0.36823 0.69561
 N226 N 0.67951 0.32948 0.64374
 N227 N 0.67051 0.32049 0.64375
 C228 C 0.67256 0.31248 0.63375
 C229 C 0.68335 0.31663 0.62718
 C230 C 0.68753 0.32741 0.63374
 H231 H 0.66666 0.30423 0.63139
 H232 H 0.69580 0.33330 0.63137
 H233 H 0.67124 0.32874 0.66684
 H234 H 0.66084 0.33915 0.65649
 N235 N 0.64405 0.82039 1.17059
 N236 N 0.64408 0.82948 1.17941
 C237 C 0.63390 0.82775 1.18729
 C238 C 0.62720 0.81701 1.18316
 C239 C 0.63388 0.81258 1.17255
 H240 H 0.63155 0.83377 1.19545
 H241 H 0.63159 0.80422 1.16678
 Cu242 Cu 0.65751 0.84257 1.17957
 Cu243 Cu 0.65763 0.81899 1.15771
 Cu244 Cu 0.68038 0.84344 1.15671
 N245 N 0.67091 0.85568 1.17973
 N246 N 0.67973 0.85601 1.17063
 C247 C 0.68764 0.86607 1.17272
 C248 C 0.68355 0.87237 1.18368
 C249 C 0.67291 0.86555 1.18791
 H250 H 0.69574 0.86865 1.16668
 H251 H 0.66706 0.86771 1.19624
 N252 N 0.67935 0.82969 1.14364
 N253 N 0.67066 0.82039 1.14397
 C254 C 0.67260 0.81246 1.13390
 C255 C 0.68304 0.81695 1.12698
 C256 C 0.68708 0.82787 1.13338
 H257 H 0.66694 0.80397 1.13180
 H258 H 0.69514 0.83395 1.13079
 H259 H 0.67217 0.82900 1.16718
 H260 H 0.66102 0.83856 1.15682
 N261 N 0.14370 0.32077 1.17025
 N262 N 0.14391 0.32968 1.17924
 C263 C 0.13395 0.32774 1.18734
 C264 C 0.12720 0.31704 1.18320
 C265 C 0.13363 0.31286 1.17234
 H266 H 0.13175 0.33362 1.19565
 H267 H 0.13117 0.30465 1.16642
 Cu268 Cu 0.15726 0.34285 1.17947
 Cu269 Cu 0.15651 0.31999 1.15658
 Cu270 Cu 0.18014 0.34360 1.15656
 N271 N 0.17044 0.35619 1.17921
 N272 N 0.17936 0.35640 1.17022
 C273 C 0.18728 0.36645 1.17228
 C274 C 0.18310 0.37287 1.18314
 C275 C 0.17239 0.36613 1.18731
 H276 H 0.19549 0.36891 1.16635
 H277 H 0.16651 0.36833 1.19562
 N278 N 0.17931 0.32981 1.14356
 N279 N 0.17031 0.32082 1.14357
 C280 C 0.17239 0.31278 1.13361
 C281 C 0.18320 0.31692 1.12706
 C282 C 0.18735 0.32773 1.13360
 H283 H 0.16653 0.30449 1.13128
 H284 H 0.19564 0.33359 1.13125
 H285 H 0.17118 0.32894 1.16661
 H286 H 0.16064 0.33947 1.15652
 N287 N 0.14402 0.82050 0.67033
 N288 N 0.14389 0.82973 0.67900
 C289 C 0.13373 0.82797 0.68688
 C290 C 0.12719 0.81708 0.68292
 C291 C 0.13396 0.81258 0.67239
 H292 H 0.13129 0.83407 0.69496
 H293 H 0.13181 0.80409 0.66675
 Cu294 Cu 0.15715 0.84302 0.67912
 Cu295 Cu 0.15765 0.81910 0.65752
 Cu296 Cu 0.18038 0.84349 0.65652
 N297 N 0.17071 0.85597 0.67930
 N298 N 0.17968 0.85614 0.67035
 C299 C 0.18769 0.86610 0.67252
 C300 C 0.18351 0.87251 0.68339
 C301 C 0.17272 0.86584 0.68747
 H302 H 0.19592 0.86855 0.66661
 H303 H 0.16677 0.86810 0.69571
 N304 N 0.17943 0.82970 0.64350
 N305 N 0.17074 0.82041 0.64384
 C306 C 0.17268 0.81246 0.63378
 C307 C 0.18313 0.81694 0.62686
 C308 C 0.18717 0.82787 0.63326
 H309 H 0.16701 0.80399 0.63167
 H310 H 0.19522 0.83395 0.63066
 H311 H 0.17200 0.82926 0.66719
 H312 H 0.16103 0.83868 0.65648
 N313 N 0.35597 0.67972 0.67057
 N314 N 0.35564 0.67091 0.67966
 C315 C 0.36553 0.67291 0.68784
 C316 C 0.37236 0.68353 0.68362
 C317 C 0.36605 0.68762 0.67266
 H318 H 0.36769 0.66705 0.69617
 H319 H 0.36863 0.69571 0.66662
 Cu320 Cu 0.34249 0.65752 0.67951
 Cu321 Cu 0.34337 0.68037 0.65665
 Cu322 Cu 0.31890 0.65764 0.65763
 N323 N 0.32937 0.64409 0.67934
 N324 N 0.32028 0.64406 0.67052
 C325 C 0.31246 0.63390 0.67246
 C326 C 0.31689 0.62721 0.68308
 C327 C 0.32764 0.63391 0.68721
 H328 H 0.30409 0.63162 0.66669
 H329 H 0.33366 0.63156 0.69537
 N330 N 0.32030 0.67067 0.64389
 N331 N 0.32960 0.67936 0.64356
 C332 C 0.32778 0.68708 0.63330
 C333 C 0.31685 0.68305 0.62689
 C334 C 0.31235 0.67262 0.63382
 H335 H 0.33387 0.69513 0.63072
 H336 H 0.30385 0.66696 0.63172
 H337 H 0.32890 0.67217 0.66710
 H338 H 0.33848 0.66104 0.65674
 N339 N 0.35604 0.17958 1.17051
 N340 N 0.35601 0.17048 1.17932
 C341 C 0.36619 0.17220 1.18720
 C342 C 0.37289 0.18295 1.18307
 C343 C 0.36620 0.18739 1.17246
 H344 H 0.36854 0.16617 1.19535
 H345 H 0.36848 0.19577 1.16670
 Cu346 Cu 0.34259 0.15737 1.17948
 Cu347 Cu 0.34246 0.18098 1.15763
 Cu348 Cu 0.31973 0.15652 1.15663
 N349 N 0.32921 0.14425 1.17963
 N350 N 0.32039 0.14392 1.17054
 C351 C 0.31249 0.13386 1.17262
 C352 C 0.31658 0.12754 1.18357
 C353 C 0.32721 0.13436 1.18780
 H354 H 0.30439 0.13128 1.16658
 H355 H 0.33307 0.13219 1.19613
 N356 N 0.32074 0.17028 1.14356
 N357 N 0.32942 0.17959 1.14390
 C358 C 0.32746 0.18753 1.13383
 C359 C 0.31703 0.18304 1.12691
 C360 C 0.31300 0.17210 1.13331
 H361 H 0.33311 0.19603 1.13173
 H362 H 0.30495 0.16602 1.13074
 H363 H 0.32792 0.17095 1.16710
 H364 H 0.33908 0.16141 1.15672
 N365 N 0.85608 0.67950 1.17041
 N366 N 0.85582 0.67063 1.17944
 C367 C 0.86576 0.67259 1.18756
 C368 C 0.87254 0.68325 1.18337
 C369 C 0.86615 0.68740 1.17248
 H370 H 0.86794 0.66672 1.19588
 H371 H 0.86865 0.69557 1.16652
 Cu372 Cu 0.84256 0.65736 1.17968
 Cu373 Cu 0.84334 0.68024 1.15667
 Cu374 Cu 0.81887 0.65760 1.15770
 N375 N 0.82958 0.64382 1.17909
 N376 N 0.82041 0.64389 1.17035
 C377 C 0.81258 0.63373 1.17228
 C378 C 0.81708 0.62696 1.18280
 C379 C 0.82789 0.63358 1.18688
 H380 H 0.80412 0.63156 1.16660
 H381 H 0.83393 0.63119 1.19502
 N382 N 0.82017 0.67071 1.14407
 N383 N 0.82949 0.67937 1.14371
 C384 C 0.82764 0.68712 1.13347
 C385 C 0.81667 0.68310 1.12710
 C386 C 0.81219 0.67268 1.13404
 H387 H 0.83375 0.69514 1.13086
 H388 H 0.80369 0.66702 1.13194
 H389 H 0.82894 0.67205 1.16729
 H390 H 0.83849 0.66088 1.15691
 N391 N 0.85586 0.17963 0.67047
 N392 N 0.85583 0.17054 0.67929
 C393 C 0.86600 0.17227 0.68718
 C394 C 0.87269 0.18302 0.68306
 C395 C 0.86602 0.18745 0.67244
 H396 H 0.86834 0.16625 0.69534
 H397 H 0.86830 0.19582 0.66667
 Cu398 Cu 0.84241 0.15742 0.67945
 Cu399 Cu 0.84229 0.18101 0.65758
 Cu400 Cu 0.81958 0.15653 0.65658
 N401 N 0.82904 0.14429 0.67960
 N402 N 0.82023 0.14395 0.67050
 C403 C 0.81233 0.13388 0.67258
 C404 C 0.81642 0.12758 0.68354
 C405 C 0.82704 0.13441 0.68777
 H406 H 0.80425 0.13129 0.66654
 H407 H 0.83289 0.13225 0.69611
 N408 N 0.82059 0.17028 0.64350
 N409 N 0.82927 0.17959 0.64384
 C410 C 0.82732 0.18753 0.63376
 C411 C 0.81690 0.18303 0.62684
 C412 C 0.81287 0.17209 0.63324
 H413 H 0.83297 0.19603 0.63166
 H414 H 0.80482 0.16600 0.63066
 H415 H 0.82775 0.17098 0.66704
 H416 H 0.83892 0.16143 0.65669
 N417 N 0.32037 0.35613 0.67020
 N418 N 0.32934 0.35595 0.67914
 C419 C 0.32743 0.36594 0.68721
 C420 C 0.31669 0.37266 0.68308
 C421 C 0.31245 0.36620 0.67228
 H422 H 0.33335 0.36817 0.69547
 H423 H 0.30420 0.36863 0.66639
 Cu424 Cu 0.34255 0.34262 0.67935
 Cu425 Cu 0.31954 0.34328 0.65659
 Cu426 Cu 0.34319 0.31963 0.65660
 N427 N 0.35588 0.32942 0.67916
 N428 N 0.35605 0.32045 0.67023
 C429 C 0.36612 0.31252 0.67231
 C430 C 0.37259 0.31676 0.68311
 C431 C 0.36587 0.32749 0.68723
 H432 H 0.36855 0.30428 0.66643
 H433 H 0.36811 0.33342 0.69549
 N434 N 0.32935 0.32044 0.64364
 N435 N 0.32035 0.32944 0.64363
 C436 C 0.31232 0.32738 0.63365
 C437 C 0.31649 0.31658 0.62710
 C438 C 0.32729 0.31241 0.63367
 H439 H 0.30405 0.33327 0.63128
 H440 H 0.33319 0.30414 0.63131
 H441 H 0.32856 0.32867 0.66665
 H442 H 0.33904 0.33912 0.65643
 N443 N 0.32052 0.85630 0.17006
 N444 N 0.32954 0.85617 0.17896
 C445 C 0.32760 0.86614 0.18704
 C446 C 0.31682 0.87281 0.18296
 C447 C 0.31256 0.86633 0.17217
 H448 H 0.33356 0.86840 0.19527
 H449 H 0.30429 0.86874 0.16631
 Cu450 Cu 0.34286 0.84296 0.17908
 Cu451 Cu 0.31972 0.84346 0.15644
 Cu452 Cu 0.34336 0.81981 0.15647
 N453 N 0.35607 0.82963 0.17900
 N454 N 0.35619 0.82061 0.17011
 C455 C 0.36621 0.81264 0.17225
 C456 C 0.37269 0.81690 0.18304
 C457 C 0.36602 0.82769 0.18710
 H458 H 0.36862 0.80437 0.16640
 H459 H 0.36829 0.83364 0.19533
 N460 N 0.32955 0.82063 0.14349
 N461 N 0.32055 0.82964 0.14347
 C462 C 0.31254 0.82758 0.13348
 C463 C 0.31672 0.81678 0.12693
 C464 C 0.32751 0.81261 0.13351
 H465 H 0.30427 0.83348 0.13110
 H466 H 0.33340 0.80434 0.13116
 H467 H 0.32880 0.82891 0.16657
 H468 H 0.33921 0.83929 0.15621
 N469 N 0.82045 0.35637 0.17015
 N470 N 0.82931 0.35608 0.17919
 C471 C 0.82736 0.36603 0.18729
 C472 C 0.81671 0.37284 0.18309
 C473 C 0.81256 0.36646 0.17220
 H474 H 0.83323 0.36820 0.19561
 H475 H 0.80440 0.36899 0.16623
 Cu476 Cu 0.84258 0.34281 0.17945
 Cu477 Cu 0.81971 0.34363 0.15642
 Cu478 Cu 0.84237 0.31914 0.15747
 N479 N 0.85614 0.32982 0.17886
 N480 N 0.85609 0.32066 0.17012
 C481 C 0.86626 0.31283 0.17205
 C482 C 0.87303 0.31732 0.18258
 C483 C 0.86638 0.32812 0.18666
 H484 H 0.86845 0.30437 0.16638
 H485 H 0.86876 0.33415 0.19480
 N486 N 0.82925 0.32045 0.14384
 N487 N 0.82058 0.32978 0.14347
 C488 C 0.81283 0.32793 0.13324
 C489 C 0.81684 0.31696 0.12688
 C490 C 0.82728 0.31247 0.13381
 H491 H 0.80480 0.33405 0.13062
 H492 H 0.83295 0.30397 0.13172
 H493 H 0.82789 0.32924 0.16705
 H494 H 0.83909 0.33876 0.15668
 N495 N 0.82067 0.85663 0.67008
 N496 N 0.82973 0.85654 0.67893
 C497 C 0.82778 0.86649 0.68704
 C498 C 0.81693 0.87312 0.68302
 C499 C 0.81266 0.86662 0.67224
 H500 H 0.83377 0.86878 0.69524
 H501 H 0.80435 0.86899 0.66642
 Cu502 Cu 0.84315 0.84342 0.67892
 Cu503 Cu 0.81986 0.84379 0.65644
 Cu504 Cu 0.84352 0.82014 0.65645
 N505 N 0.85627 0.82999 0.67894
 N506 N 0.85635 0.82094 0.67009
 C507 C 0.86633 0.81292 0.67226
 C508 C 0.87282 0.81717 0.68304
 C509 C 0.86621 0.82802 0.68705
 H510 H 0.86869 0.80461 0.66644
 H511 H 0.86851 0.83400 0.69526
 N512 N 0.82969 0.82096 0.64348
 N513 N 0.82068 0.82996 0.64347
 C514 C 0.81263 0.82787 0.63351
 C515 C 0.81679 0.81706 0.62698
 C516 C 0.82761 0.81291 0.63353
 H517 H 0.80434 0.83374 0.63116
 H518 H 0.83349 0.80462 0.63119
 H519 H 0.82904 0.82930 0.66657
 H520 H 0.83937 0.83962 0.65608
 N521 N 0.67955 0.64385 0.67041
 N522 N 0.67053 0.64398 0.67932
 C523 C 0.67246 0.63401 0.68740
 C524 C 0.68324 0.62732 0.68332
 C525 C 0.68750 0.63381 0.67252
 H526 H 0.66651 0.63175 0.69564
 H527 H 0.69578 0.63140 0.66666
 Cu528 Cu 0.65730 0.65730 0.67945
 Cu529 Cu 0.68038 0.65670 0.65678
 Cu530 Cu 0.65671 0.68036 0.65679
 N531 N 0.64398 0.67053 0.67933
 N532 N 0.64385 0.67954 0.67044
 C533 C 0.63381 0.68749 0.67255
 C534 C 0.62732 0.68324 0.68335
 C535 C 0.63400 0.67245 0.68742
 H536 H 0.63141 0.69576 0.66670
 H537 H 0.63175 0.66651 0.69567
 N538 N 0.67055 0.67955 0.64381
 N539 N 0.67956 0.67054 0.64381
 C540 C 0.68758 0.67261 0.63381
 C541 C 0.68340 0.68340 0.62725
 C542 C 0.67261 0.68757 0.63383
 H543 H 0.69585 0.66671 0.63144
 H544 H 0.66671 0.69584 0.63147
 H545 H 0.67133 0.67130 0.66685
 H546 H 0.66090 0.66089 0.65656
 N547 N 0.67967 0.14356 0.17021
 N548 N 0.67078 0.14381 0.17923
 C549 C 0.67273 0.13386 0.18733
 C550 C 0.68342 0.12708 0.18316
 C551 C 0.68759 0.13348 0.17228
 H552 H 0.66685 0.13167 0.19564
 H553 H 0.69578 0.13099 0.16633
 Cu554 Cu 0.65748 0.15706 0.17945
 Cu555 Cu 0.68043 0.15631 0.15648
 Cu556 Cu 0.65773 0.18078 0.15752
 N557 N 0.64394 0.17007 0.17891
 N558 N 0.64401 0.17925 0.17018
 C559 C 0.63385 0.18710 0.17214
 C560 C 0.62708 0.18260 0.18266
 C561 C 0.63370 0.17177 0.18672
 H562 H 0.63168 0.19558 0.16648
 H563 H 0.63132 0.16573 0.19486
 N564 N 0.67086 0.17949 0.14389
 N565 N 0.67955 0.17018 0.14353
 C566 C 0.68730 0.17204 0.13330
 C567 C 0.68328 0.18301 0.12693
 C568 C 0.67283 0.18748 0.13387
 H569 H 0.69534 0.16593 0.13068
 H570 H 0.66715 0.19597 0.13178
 H571 H 0.67220 0.17067 0.16710
 H572 H 0.66105 0.16116 0.15668
 N573 N 0.17943 0.64380 0.17012
 N574 N 0.17038 0.64392 0.17899
 C575 C 0.17230 0.63395 0.18708
 C576 C 0.18310 0.62727 0.18302
 C577 C 0.18739 0.63377 0.17225
 H578 H 0.16632 0.63168 0.19530
 H579 H 0.19569 0.63138 0.16641
 Cu580 Cu 0.15715 0.65722 0.17908
 Cu581 Cu 0.18027 0.65666 0.15649
 Cu582 Cu 0.15662 0.68034 0.15650
 N583 N 0.14386 0.67046 0.17901
 N584 N 0.14375 0.67951 0.17014
 C585 C 0.13374 0.68748 0.17229
 C586 C 0.12723 0.68320 0.18307
 C587 C 0.13389 0.67240 0.18711
 H588 H 0.13136 0.69578 0.16646
 H589 H 0.13162 0.66643 0.19533
 N590 N 0.17047 0.67952 0.14353
 N591 N 0.17947 0.67051 0.14352
 C592 C 0.18749 0.67257 0.13353
 C593 C 0.18332 0.68336 0.12697
 C594 C 0.17253 0.68754 0.13354
 H595 H 0.19576 0.66667 0.13116
 H596 H 0.16663 0.69581 0.13118
 H597 H 0.17121 0.67125 0.16655
 H598 H 0.16080 0.66088 0.15622
 N599 N 0.17940 0.14361 0.67030
 N600 N 0.17023 0.14355 0.67905
 C601 C 0.17193 0.13330 0.68684
 C602 C 0.18273 0.12665 0.68275
 C603 C 0.18723 0.13343 0.67222
 H604 H 0.16588 0.13092 0.69498
 H605 H 0.19568 0.13124 0.66653
 Cu606 Cu 0.15721 0.15710 0.67962
 Cu607 Cu 0.18090 0.15733 0.65763
 Cu608 Cu 0.15642 0.18000 0.65663
 N609 N 0.14394 0.17039 0.67940
 N610 N 0.14368 0.17927 0.67036
 C611 C 0.13360 0.18718 0.67243
 C612 C 0.12720 0.18304 0.68332
 C613 C 0.13399 0.17237 0.68751
 H614 H 0.13110 0.19535 0.66647
 H615 H 0.13180 0.16651 0.69583
 N616 N 0.17027 0.17913 0.64366
 N617 N 0.17960 0.17046 0.64400
 C618 C 0.18758 0.17244 0.63396
 C619 C 0.18308 0.18288 0.62704
 C620 C 0.17212 0.18689 0.63343
 H621 H 0.19608 0.16677 0.63185
 H622 H 0.16600 0.19493 0.63083
 H623 H 0.17082 0.17180 0.66723
 H624 H 0.16127 0.16065 0.65685
 N625 N 0.32028 0.64393 0.32932
 N626 N 0.32950 0.64381 0.32063
 C627 C 0.32781 0.63360 0.31282
 C628 C 0.31696 0.62700 0.31686
 C629 C 0.31242 0.63380 0.32736
 H630 H 0.33390 0.63118 0.30472
 H631 H 0.30393 0.63165 0.33301
 Cu632 Cu 0.34262 0.65724 0.32032
 Cu633 Cu 0.31865 0.65771 0.34193
 Cu634 Cu 0.34422 0.67909 0.34398
 N635 N 0.35534 0.67104 0.31997
 N636 N 0.35582 0.67964 0.32925
 C637 C 0.36576 0.68769 0.32710
 C638 C 0.37184 0.68392 0.31588
 C639 C 0.36497 0.67335 0.31157
 H640 H 0.36857 0.69550 0.33339
 H641 H 0.36707 0.66761 0.30315
 N642 N 0.32978 0.67899 0.35634
 N643 N 0.32013 0.67071 0.35567
 C644 C 0.31195 0.67295 0.36550
 C645 C 0.31664 0.68318 0.37259
 C646 C 0.32792 0.68679 0.36652
 H647 H 0.30321 0.66758 0.36736
 H648 H 0.33430 0.69453 0.36935
 H649 H 0.32958 0.67204 0.33304
 H650 H 0.33815 0.65993 0.34320
 N651 N 0.32032 0.14367 0.82954
 N652 N 0.32932 0.14383 0.82062
 C653 C 0.32738 0.13389 0.81251
 C654 C 0.31662 0.12719 0.81660
 C655 C 0.31238 0.13364 0.82742
 H656 H 0.33334 0.13163 0.80427
 H657 H 0.30413 0.13120 0.83332
 Cu658 Cu 0.34268 0.15698 0.82063
 Cu659 Cu 0.31952 0.15646 0.84322
 Cu660 Cu 0.34316 0.18011 0.84321
 N661 N 0.35583 0.17035 0.82061
 N662 N 0.35597 0.17933 0.82953
 C663 C 0.36600 0.18728 0.82742
 C664 C 0.37248 0.18306 0.81660
 C665 C 0.36579 0.17230 0.81250
 H666 H 0.36843 0.19552 0.83331
 H667 H 0.36806 0.16635 0.80427
 N668 N 0.32935 0.17926 0.85622
 N669 N 0.32035 0.17026 0.85623
 C670 C 0.31233 0.17231 0.86622
 C671 C 0.31650 0.18309 0.87278
 C672 C 0.32729 0.18726 0.86621
 H673 H 0.30406 0.16642 0.86859
 H674 H 0.33317 0.19553 0.86857
 H675 H 0.32861 0.17100 0.83315
 H676 H 0.33901 0.16062 0.84352
 N677 N 0.82059 0.64375 0.82965
 N678 N 0.82961 0.64388 0.82074
 C679 C 0.82768 0.63390 0.81267
 C680 C 0.81690 0.62723 0.81676
 C681 C 0.81264 0.63372 0.82755
 H682 H 0.83363 0.63165 0.80442
 H683 H 0.80436 0.63133 0.83341
 Cu684 Cu 0.84286 0.65716 0.82056
 Cu685 Cu 0.81972 0.65665 0.84323
 Cu686 Cu 0.84318 0.68044 0.84304
 N687 N 0.85601 0.67055 0.82060
 N688 N 0.85603 0.67963 0.82941
 C689 C 0.86603 0.68762 0.82727
 C690 C 0.87260 0.68332 0.81654
 C691 C 0.86601 0.67247 0.81253
 H692 H 0.86837 0.69593 0.83309
 H693 H 0.86835 0.66645 0.80437
 N694 N 0.82937 0.67962 0.85605
 N695 N 0.82045 0.67054 0.85614
 C696 C 0.81248 0.67256 0.86617
 C697 C 0.81659 0.68340 0.87267
 C698 C 0.82730 0.68764 0.86602
 H699 H 0.80429 0.66660 0.86862
 H700 H 0.83316 0.69593 0.86834
 H701 H 0.82869 0.67117 0.83301
 H702 H 0.83920 0.66094 0.84343
 N703 N 0.82059 0.14353 0.32952
 N704 N 0.82972 0.14357 0.32073
 C705 C 0.82785 0.13356 0.31268
 C706 C 0.81700 0.12695 0.31668
 C707 C 0.81264 0.13351 0.32739
 H708 H 0.83386 0.13126 0.30448
 H709 H 0.80428 0.13118 0.33316
 Cu710 Cu 0.84281 0.15699 0.32060
 Cu711 Cu 0.81956 0.15649 0.34308
 Cu712 Cu 0.84413 0.17912 0.34390
 N713 N 0.85590 0.17043 0.32043
 N714 N 0.85618 0.17925 0.32952
 C715 C 0.86608 0.18734 0.32731
 C716 C 0.87233 0.18336 0.31626
 C717 C 0.86563 0.17263 0.31211
 H718 H 0.86866 0.19539 0.33338
 H719 H 0.86778 0.16682 0.30375
 N720 N 0.82971 0.17907 0.35628
 N721 N 0.82039 0.17040 0.35599
 C722 C 0.81216 0.17273 0.36574
 C723 C 0.81650 0.18337 0.37244
 C724 C 0.82761 0.18717 0.36618
 H725 H 0.80368 0.16707 0.36792
 H726 H 0.83375 0.19518 0.36875
 H727 H 0.82925 0.17104 0.33350
 H728 H 0.83895 0.15975 0.34359
 N729 N 0.67958 0.35616 0.32939
 N730 N 0.67054 0.35608 0.32053
 C731 C 0.67250 0.36602 0.31241
 C732 C 0.68333 0.37264 0.31645
 C733 C 0.68759 0.36614 0.32723
 H734 H 0.66652 0.36832 0.30421
 H735 H 0.69588 0.36851 0.33308
 Cu736 Cu 0.65707 0.34302 0.32055
 Cu737 Cu 0.68036 0.34336 0.34305
 Cu738 Cu 0.65675 0.31973 0.34304
 N739 N 0.64402 0.32955 0.32051
 N740 N 0.64394 0.32050 0.32937
 C741 C 0.63397 0.31249 0.32721
 C742 C 0.62747 0.31675 0.31642
 C743 C 0.63408 0.32758 0.31239
 H744 H 0.63160 0.30420 0.33305
 H745 H 0.63178 0.33357 0.30419
 N746 N 0.67053 0.32057 0.35606
 N747 N 0.67953 0.32957 0.35606
 C748 C 0.68753 0.32753 0.36606
 C749 C 0.68336 0.31674 0.37263
 C750 C 0.67258 0.31257 0.36606
 H751 H 0.69579 0.33342 0.36843
 H752 H 0.66669 0.30430 0.36841
 H753 H 0.67122 0.32891 0.33288
 H754 H 0.66088 0.33921 0.34339
 N755 N 0.67968 0.85620 0.82940
 N756 N 0.67086 0.85587 0.82030
 C757 C 0.67286 0.86574 0.81212
 C758 C 0.68350 0.87256 0.81634
 C759 C 0.68759 0.86625 0.82730
 H760 H 0.66701 0.86790 0.80379
 H761 H 0.69568 0.86883 0.83333
 Cu762 Cu 0.65747 0.84274 0.82046
 Cu763 Cu 0.68033 0.84361 0.84331
 Cu764 Cu 0.65760 0.81915 0.84233
 N765 N 0.64404 0.82962 0.82062
 N766 N 0.64402 0.82053 0.82945
 C767 C 0.63385 0.81271 0.82750
 C768 C 0.62716 0.81714 0.81689
 C769 C 0.63386 0.82789 0.81275
 H770 H 0.63158 0.80435 0.83327
 H771 H 0.63150 0.83391 0.80459
 N772 N 0.67063 0.82054 0.85606
 N773 N 0.67932 0.82985 0.85639
 C774 C 0.68705 0.82802 0.86664
 C775 C 0.68301 0.81709 0.87305
 C776 C 0.67257 0.81260 0.86613
 H777 H 0.69510 0.83410 0.86923
 H778 H 0.66692 0.80411 0.86823
 H779 H 0.67214 0.82917 0.83285
 H780 H 0.66099 0.83873 0.84322
 N781 N 0.17943 0.35609 0.82951
 N782 N 0.17050 0.35589 0.82053
 C783 C 0.17250 0.36579 0.81238
 C784 C 0.18324 0.37250 0.81650
 C785 C 0.18741 0.36609 0.82737
 H786 H 0.16658 0.36803 0.80411
 H787 H 0.19562 0.36856 0.83330
 Cu788 Cu 0.15702 0.34283 0.82056
 Cu789 Cu 0.18014 0.34339 0.84330
 Cu790 Cu 0.15745 0.31897 0.84230
 N791 N 0.14367 0.32962 0.82086
 N792 N 0.14378 0.32041 0.82956
 C793 C 0.13369 0.31252 0.82756
 C794 C 0.12691 0.31701 0.81703
 C795 C 0.13348 0.32788 0.81301
 H796 H 0.13153 0.30404 0.83321
 H797 H 0.13105 0.33395 0.80492
 N798 N 0.17054 0.32028 0.85596
 N799 N 0.17922 0.32958 0.85630
 C800 C 0.18696 0.32773 0.86654
 C801 C 0.18293 0.31679 0.87293
 C802 C 0.17249 0.31231 0.86601
 H803 H 0.19500 0.33383 0.86914
 H804 H 0.16682 0.30383 0.86812
 H805 H 0.17183 0.32911 0.83264
 H806 H 0.16078 0.33855 0.84325
 N807 N 0.17954 0.85622 0.32929
 N808 N 0.17062 0.85598 0.32030
 C809 C 0.17261 0.86588 0.31213
 C810 C 0.18332 0.87261 0.31627
 C811 C 0.18749 0.86624 0.32716
 H812 H 0.16669 0.86810 0.30386
 H813 H 0.19567 0.86873 0.33311
 Cu814 Cu 0.15719 0.84290 0.32047
 Cu815 Cu 0.18027 0.84355 0.34313
 Cu816 Cu 0.15754 0.81910 0.34213
 N817 N 0.14381 0.82975 0.32063
 N818 N 0.14389 0.82055 0.32935
 C819 C 0.13376 0.81269 0.32736
 C820 C 0.12700 0.81719 0.31682
 C821 C 0.13361 0.82803 0.31278
 H822 H 0.13157 0.80424 0.33304
 H823 H 0.13119 0.83411 0.30469
 N824 N 0.17064 0.82042 0.35580
 N825 N 0.17933 0.82973 0.35614
 C826 C 0.18707 0.82789 0.36638
 C827 C 0.18304 0.81694 0.37278
 C828 C 0.17260 0.81246 0.36586
 H829 H 0.19511 0.83398 0.36898
 H830 H 0.16694 0.80398 0.36797
 H831 H 0.17198 0.82922 0.33259
 H832 H 0.16091 0.83867 0.34316
 O833 O 0.26637 0.98738 0.24862
 O834 O 0.24865 1.01265 0.26612
 O835 O 0.24864 0.98739 0.26613
 O836 O 0.26639 1.01262 0.24864
 O837 O 0.25140 1.01266 0.23354
 O838 O 0.23365 0.98742 0.25102
 O839 O 0.23365 1.01268 0.25102
 O840 O 0.25138 0.98742 0.23352
 Cu841 Cu 0.25901 1.00001 0.25890
 Cu842 Cu 0.24101 1.00004 0.24076
 C843 C 0.26177 0.98295 0.23821
 C844 C 0.23827 1.01714 0.26142
 C845 C 0.23825 0.98295 0.26143
 C846 C 0.26179 1.01709 0.23824
 O847 O 0.24855 0.51256 0.76620
 O848 O 0.26632 0.48734 0.74867
 O849 O 0.26628 0.51262 0.74870
 O850 O 0.24860 0.48730 0.76619
 O851 O 0.23359 0.48731 0.75110
 O852 O 0.25128 0.51262 0.73361
 O853 O 0.25131 0.48735 0.73358
 O854 O 0.23355 0.51257 0.75111
 Cu855 Cu 0.25894 0.49995 0.75896
 Cu856 Cu 0.24093 0.49996 0.74083
 C857 C 0.23815 0.51702 0.76152
 C858 C 0.26171 0.48288 0.73827
 C859 C 0.26166 0.51709 0.73831
 C860 C 0.23821 0.48284 0.76150
 O861 O 0.73379 0.01241 0.24885
 O862 O 0.75149 -0.01288 0.26636
 O863 O 0.75151 0.01239 0.26635
 O864 O 0.73377 -0.01284 0.24887
 O865 O 0.74878 -0.01286 0.23377
 O866 O 0.76652 0.01236 0.25125
 O867 O 0.76650 -0.01291 0.25126
 O868 O 0.74880 0.01238 0.23375
 Cu869 Cu 0.74114 -0.00023 0.25912
 Cu870 Cu 0.75916 -0.00026 0.24099
 C871 C 0.73840 0.01686 0.23843
 C872 C 0.76188 -0.01737 0.26167
 C873 C 0.76190 0.01683 0.26165
 C874 C 0.73838 -0.01730 0.23846
 O875 O 0.73368 0.51257 0.74884
 O876 O 0.75142 0.48731 0.76637
 O877 O 0.75142 0.51258 0.76633
 O878 O 0.73370 0.48729 0.74885
 O879 O 0.74871 0.48729 0.73375
 O880 O 0.76642 0.51257 0.75124
 O881 O 0.76642 0.48729 0.75127
 O882 O 0.74868 0.51256 0.73375
 Cu883 Cu 0.74105 0.49994 0.75911
 Cu884 Cu 0.75906 0.49993 0.74099
 C885 C 0.73829 0.51703 0.73844
 C886 C 0.76181 0.48284 0.76168
 C887 C 0.76180 0.51704 0.76164
 C888 C 0.73832 0.48282 0.73845
 O889 O 0.23357 0.51264 0.24868
 O890 O 0.25130 0.48736 0.26618
 O891 O 0.25130 0.51264 0.26618
 O892 O 0.23360 0.48739 0.24868
 O893 O 0.24860 0.48739 0.23358
 O894 O 0.26631 0.51264 0.25108
 O895 O 0.26631 0.48736 0.25108
 O896 O 0.24858 0.51264 0.23358
 Cu897 Cu 0.24094 0.50001 0.25895
 Cu898 Cu 0.25896 0.50001 0.24082
 C899 C 0.23818 0.51710 0.23827
 C900 C 0.26169 0.48288 0.26148
 C901 C 0.26168 0.51710 0.26148
 C902 C 0.23822 0.48293 0.23827
 O903 O 0.75121 1.01281 0.73372
 O904 O 0.73345 0.98764 0.75127
 O905 O 0.73348 1.01293 0.75123
 O906 O 0.75117 0.98757 0.73377
 O907 O 0.76618 0.98756 0.74886
 O908 O 0.74848 1.01290 0.76633
 O909 O 0.74845 0.98762 0.76636
 O910 O 0.76621 1.01280 0.74882
 Cu911 Cu 0.74082 1.00024 0.74099
 Cu912 Cu 0.75883 1.00022 0.75911
 C913 C 0.76161 1.01725 0.73840
 C914 C 0.73806 0.98317 0.76167
 C915 C 0.73810 1.01740 0.76162
 C916 C 0.76156 0.98309 0.73846
 O917 O 0.76632 0.48746 0.24873
 O918 O 0.74859 0.51273 0.26624
 O919 O 0.74860 0.48746 0.26625
 O920 O 0.76630 0.51272 0.24873
 O921 O 0.75128 0.51273 0.23366
 O922 O 0.73359 0.48747 0.25117
 O923 O 0.73358 0.51274 0.25116
 O924 O 0.75131 0.48748 0.23365
 Cu925 Cu 0.75896 0.50009 0.25901
 Cu926 Cu 0.74093 0.50010 0.24089
 C927 C 0.76171 0.48302 0.23832
 C928 C 0.73820 0.51720 0.26155
 C929 C 0.73821 0.48300 0.26156
 C930 C 0.76167 0.51719 0.23834
 O931 O 0.23385 0.01241 0.74884
 O932 O 0.25158 -0.01298 0.76626
 O933 O 0.25157 0.01231 0.76634
 O934 O 0.23382 -0.01285 0.74878
 O935 O 0.24882 -0.01283 0.73367
 O936 O 0.26657 0.01234 0.75124
 O937 O 0.26657 -0.01295 0.75115
 O938 O 0.24885 0.01243 0.73374
 Cu939 Cu 0.24121 -0.00028 0.75908
 Cu940 Cu 0.25921 -0.00025 0.74094
 C941 C 0.23846 0.01690 0.73844
 C942 C 0.26196 -0.01746 0.76154
 C943 C 0.26195 0.01679 0.76164
 C944 C 0.23842 -0.01728 0.73835
 O945 O 0.24862 0.26625 0.98733
 O946 O 0.26625 0.24862 1.01258
 O947 O 0.26625 0.24860 0.98736
 O948 O 0.24867 0.26630 1.01257
 O949 O 0.23358 0.25127 1.01261
 O950 O 0.25116 0.23358 0.98740
 O951 O 0.25116 0.23360 1.01262
 O952 O 0.23353 0.25123 0.98738
 Cu953 Cu 0.25896 0.25895 0.99995
 Cu954 Cu 0.24084 0.24091 1.00000
 C955 C 0.23821 0.26161 0.98290
 C956 C 0.26157 0.23824 1.01706
 C957 C 0.26158 0.23820 0.98293
 C958 C 0.23827 0.26166 1.01706
 O959 O 0.24877 0.76640 0.48717
 O960 O 0.26638 0.74876 0.51243
 O961 O 0.26639 0.74874 0.48719
 O962 O 0.24878 0.76643 0.51240
 O963 O 0.23369 0.75140 0.51242
 O964 O 0.25129 0.73373 0.48721
 O965 O 0.25129 0.73374 0.51244
 O966 O 0.23368 0.75138 0.48720
 Cu967 Cu 0.25910 0.75909 0.49979
 Cu968 Cu 0.24097 0.74106 0.49982
 C969 C 0.23835 0.76177 0.48273
 C970 C 0.26169 0.73838 0.51691
 C971 C 0.26170 0.73835 0.48274
 C972 C 0.23837 0.76179 0.51687
 O973 O 0.26655 0.75126 -0.01286
 O974 O 0.24888 0.73370 0.01240
 O975 O 0.24888 0.73369 -0.01282
 O976 O 0.26652 0.75131 0.01238
 O977 O 0.25147 0.76639 0.01236
 O978 O 0.23382 0.74878 -0.01284
 O979 O 0.23383 0.74878 0.01239
 O980 O 0.25149 0.76634 -0.01287
 Cu981 Cu 0.25922 0.74098 -0.00022
 Cu982 Cu 0.24114 0.75909 -0.00024
 C983 C 0.26190 0.76166 -0.01733
 C984 C 0.23847 0.73838 0.01686
 C985 C 0.23847 0.73837 -0.01728
 C986 C 0.26187 0.76172 0.01682
 O987 O 0.23350 0.24861 0.48736
 O988 O 0.25114 0.26623 0.51255
 O989 O 0.25113 0.26622 0.48733
 O990 O 0.23351 0.24861 0.51259
 O991 O 0.24860 0.23355 0.51259
 O992 O 0.26621 0.25116 0.48733
 O993 O 0.26622 0.25118 0.51255
 O994 O 0.24857 0.23355 0.48736
 Cu995 Cu 0.24081 0.25893 0.49996
 Cu996 Cu 0.25891 0.24085 0.49996
 C997 C 0.23816 0.23821 0.48291
 C998 C 0.26155 0.26158 0.51700
 C999 C 0.26155 0.26156 0.48287
 C1000 C 0.23819 0.23821 0.51705
 O1001 O 0.73364 0.75139 1.01258
 O1002 O 0.75128 0.73374 0.98737
 O1003 O 0.75121 0.73371 1.01259
 O1004 O 0.73365 0.75138 0.98736
 O1005 O 0.74874 0.76641 0.98737
 O1006 O 0.76631 0.74872 1.01261
 O1007 O 0.76637 0.74876 0.98738
 O1008 O 0.74874 0.76641 1.01260
 Cu1009 Cu 0.74093 0.74105 0.99997
 Cu1010 Cu 0.75905 0.75908 0.99999
 C1011 C 0.73832 0.76177 1.01705
 C1012 C 0.76170 0.73837 0.98292
 C1013 C 0.76162 0.73834 1.01706
 C1014 C 0.73833 0.76177 0.98290
 O1015 O 0.73356 0.25119 0.51246
 O1016 O 0.75120 0.23355 0.48722
 O1017 O 0.75117 0.23353 0.51245
 O1018 O 0.73358 0.25121 0.48722
 O1019 O 0.74867 0.26623 0.48723
 O1020 O 0.76625 0.24856 0.51246
 O1021 O 0.76629 0.24857 0.48724
 O1022 O 0.74865 0.26622 0.51246
 Cu1023 Cu 0.74086 0.24087 0.49983
 Cu1024 Cu 0.75898 0.25890 0.49985
 C1025 C 0.73823 0.26158 0.51693
 C1026 C 0.76162 0.23818 0.48278
 C1027 C 0.76157 0.23817 0.51691
 C1028 C 0.73826 0.26160 0.48277
 O1029 O 0.76627 0.25143 -0.01278
 O1030 O 0.74868 0.23377 0.01246
 O1031 O 0.74865 0.23381 -0.01278
 O1032 O 0.76629 0.25140 0.01245
 O1033 O 0.75121 0.26645 0.01248
 O1034 O 0.73356 0.24886 -0.01276
 O1035 O 0.73359 0.24882 0.01249
 O1036 O 0.75118 0.26648 -0.01275
 Cu1037 Cu 0.75898 0.24109 -0.00017
 Cu1038 Cu 0.74087 0.25916 -0.00013
 C1039 C 0.76159 0.26183 -0.01723
 C1040 C 0.73828 0.23842 0.01694
 C1041 C 0.73823 0.23847 -0.01724
 C1042 C 0.76162 0.26179 0.01693
 O1043 O 0.76631 0.75150 0.48734
 O1044 O 0.74872 0.73385 0.51260
 O1045 O 0.74870 0.73385 0.48737
 O1046 O 0.76634 0.75147 0.51258
 O1047 O 0.75124 0.76651 0.51260
 O1048 O 0.73361 0.74890 0.48739
 O1049 O 0.73362 0.74889 0.51261
 O1050 O 0.75121 0.76655 0.48737
 Cu1051 Cu 0.75903 0.74116 0.49997
 Cu1052 Cu 0.74091 0.75922 0.49999
 C1053 C 0.76163 0.76191 0.48290
 C1054 C 0.73831 0.73850 0.51707
 C1055 C 0.73828 0.73850 0.48293
 C1056 C 0.76166 0.76186 0.51705
 O1057 O 0.98730 0.25148 0.23363
 O1058 O 1.01257 0.23376 0.25115
 O1059 O 0.98729 0.23376 0.25112
 O1060 O 1.01259 0.25150 0.23368
 O1061 O 1.01254 0.26647 0.24878
 O1062 O 0.98725 0.24872 0.26624
 O1063 O 1.01254 0.24874 0.26625
 O1064 O 0.98725 0.26645 0.24874
 Cu1065 Cu 0.99994 0.24113 0.24087
 Cu1066 Cu 0.99989 0.25910 0.25902
 C1067 C 0.98281 0.26185 0.23833
 C1068 C 1.01701 0.23836 0.26156
 C1069 C 0.98282 0.23834 0.26153
 C1070 C 1.01704 0.26187 0.23839
 O1071 O 0.48730 0.25128 0.73370
 O1072 O 0.51259 0.23358 0.75123
 O1073 O 0.48729 0.23356 0.75119
 O1074 O 0.51258 0.25127 0.73370
 O1075 O 0.51255 0.26626 0.74878
 O1076 O 0.48725 0.24855 0.76628
 O1077 O 0.51256 0.24857 0.76632
 O1078 O 0.48727 0.26627 0.74879
 Cu1079 Cu 0.49994 0.24091 0.74094
 Cu1080 Cu 0.49990 0.25891 0.75906
 C1081 C 0.48282 0.26167 0.73838
 C1082 C 0.51705 0.23819 0.76163
 C1083 C 0.48279 0.23817 0.76158
 C1084 C 0.51703 0.26165 0.73838
 O1085 O -0.01284 0.26639 0.75118
 O1086 O 0.01244 0.24863 0.73370
 O1087 O -0.01285 0.24864 0.73373
 O1088 O 0.01246 0.26634 0.75120
 O1089 O 0.01244 0.25136 0.76632
 O1090 O -0.01285 0.23367 0.74885
 O1091 O 0.01243 0.23366 0.74881
 O1092 O -0.01286 0.25142 0.76629
 Cu1093 Cu -0.00020 0.25900 0.74094
 Cu1094 Cu -0.00021 0.24103 0.75909
 C1095 C -0.01733 0.26179 0.76158
 C1096 C 0.01690 0.23825 0.73840
 C1097 C -0.01732 0.23827 0.73844
 C1098 C 0.01693 0.26173 0.76161
 O1099 O 0.48745 0.26620 0.25109
 O1100 O 0.51273 0.24847 0.23359
 O1101 O 0.48745 0.24847 0.23363
 O1102 O 0.51273 0.26620 0.25106
 O1103 O 0.51276 0.25123 0.26618
 O1104 O 0.48746 0.23350 0.24875
 O1105 O 0.51276 0.23350 0.24871
 O1106 O 0.48747 0.25124 0.26621
 Cu1107 Cu 0.50009 0.25883 0.24082
 Cu1108 Cu 0.50012 0.24086 0.25898
 C1109 C 0.48299 0.26161 0.26150
 C1110 C 0.51721 0.23810 0.23830
 C1111 C 0.48298 0.23810 0.23835
 C1112 C 0.51721 0.26161 0.26147
 O1113 O 1.01268 0.73381 0.75117
 O1114 O 0.98740 0.75154 0.73365
 O1115 O 1.01269 0.75153 0.73368
 O1116 O 0.98739 0.73382 0.75116
 O1117 O 0.98737 0.74881 0.76625
 O1118 O 1.01268 0.76651 0.74878
 O1119 O 0.98739 0.76653 0.74874
 O1120 O 1.01265 0.74879 0.76626
 Cu1121 Cu 1.00004 0.74117 0.74090
 Cu1122 Cu 1.00002 0.75916 0.75903
 C1123 C 1.01713 0.73842 0.76157
 C1124 C 0.98294 0.76192 0.73834
 C1125 C 1.01716 0.76190 0.73838
 C1126 C 0.98291 0.73843 0.76156
 O1127 O 0.51258 0.76644 0.24883
 O1128 O 0.48726 0.74870 0.26627
 O1129 O 0.51255 0.74871 0.26630
 O1130 O 0.48729 0.76644 0.24877
 O1131 O 0.48734 0.75148 0.23366
 O1132 O 0.51259 0.73374 0.25119
 O1133 O 0.48730 0.73374 0.25115
 O1134 O 0.51262 0.75148 0.23372
 Cu1135 Cu 0.49991 0.75908 0.25906
 Cu1136 Cu 0.49996 0.74111 0.24091
 C1137 C 0.51707 0.76185 0.23844
 C1138 C 0.48282 0.73832 0.26156
 C1139 C 0.51703 0.73834 0.26160
 C1140 C 0.48287 0.76186 0.23835
 O1141 O 0.01259 0.75142 0.26623
 O1142 O -0.01273 0.73370 0.24881
 O1143 O 0.01255 0.73369 0.24875
 O1144 O -0.01271 0.75146 0.26625
 O1145 O -0.01272 0.76643 0.25113
 O1146 O 0.01253 0.74865 0.23363
 O1147 O -0.01275 0.74866 0.23369
 O1148 O 0.01257 0.76638 0.25110
 Cu1149 Cu -0.00007 0.74107 0.25903
 Cu1150 Cu -0.00009 0.75903 0.24087
 C1151 C 0.01705 0.76179 0.26150
 C1152 C -0.01720 0.73829 0.23841
 C1153 C 0.01700 0.73828 0.23833
 C1154 C -0.01718 0.76184 0.26154
 O1155 O 0.48726 0.76653 0.75130
 O1156 O 0.51256 0.74879 0.73380
 O1157 O 0.48727 0.74881 0.73381
 O1158 O 0.51256 0.76652 0.75128
 O1159 O 0.51257 0.75154 0.76639
 O1160 O 0.48727 0.73383 0.74892
 O1161 O 0.51256 0.73382 0.74891
 O1162 O 0.48727 0.75156 0.76642
 Cu1163 Cu 0.49991 0.75917 0.74103
 Cu1164 Cu 0.49992 0.74119 0.75918
 C1165 C 0.48279 0.76194 0.76171
 C1166 C 0.51703 0.73841 0.73850
 C1167 C 0.48281 0.73843 0.73851
 C1168 C 0.51704 0.76191 0.76168
 C1169 C 0.40574 0.30051 0.30016
 N1170 N 0.40031 0.29520 0.31079
 N1171 N 0.38974 0.30033 0.31599
 C1172 C 0.38422 0.31097 0.31074
 N1173 N 0.38963 0.31627 0.30009
 N1174 N 0.40020 0.31114 0.29489
 C1175 C 0.41747 0.29492 0.29454
 N1176 N 0.42300 0.30025 0.28396
 N1177 N 0.43369 0.29521 0.27893
 C1178 C 0.43926 0.28465 0.28430
 N1179 N 0.43373 0.27931 0.29487
 N1180 N 0.42304 0.28436 0.29990
 C1181 C 0.45096 0.27899 0.27868
 N1182 N 0.45639 0.26832 0.28396
 N1183 N 0.46679 0.26295 0.27865
 C1184 C 0.47215 0.26808 0.26789
 N1185 N 0.46677 0.27880 0.26266
 N1186 N 0.45637 0.28417 0.26797
 C1187 C 0.40547 0.80089 0.80025
 N1188 N 0.39999 0.79557 0.81085
 N1189 N 0.38941 0.80072 0.81602
 C1190 C 0.38392 0.81139 0.81078
 N1191 N 0.38939 0.81669 0.80015
 N1192 N 0.39997 0.81154 0.79498
 C1193 C 0.41722 0.79528 0.79466
 N1194 N 0.42278 0.80062 0.78410
 N1195 N 0.43348 0.79557 0.77910
 C1196 C 0.43904 0.78501 0.78449
 N1197 N 0.43347 0.77967 0.79504
 N1198 N 0.42276 0.78472 0.80004
 C1199 C 0.45075 0.77934 0.77888
 N1200 N 0.45617 0.76866 0.78416
 N1201 N 0.46657 0.76328 0.77885
 C1202 C 0.47195 0.76842 0.76811
 N1203 N 0.46658 0.77914 0.76288
 N1204 N 0.45618 0.78452 0.76818
 C1205 C -0.09442 0.30096 0.80034
 N1206 N -0.09982 0.31171 0.79518
 N1207 N -0.11031 0.31694 0.80043
 C1208 C -0.11580 0.31160 0.81103
 N1209 N -0.11042 0.30084 0.81617
 N1210 N -0.09993 0.29561 0.81092
 C1211 C -0.08276 0.29527 0.79466
 N1212 N -0.07728 0.28463 0.79997
 N1213 N -0.06663 0.27953 0.79490
 C1214 C -0.06107 0.28488 0.78435
 N1215 N -0.06657 0.29549 0.77903
 N1216 N -0.07721 0.30060 0.78410
 C1217 C -0.04939 0.27918 0.77872
 N1218 N -0.04394 0.28437 0.76803
 N1219 N -0.03355 0.27899 0.76273
 C1220 C -0.02818 0.26826 0.76795
 N1221 N -0.03358 0.26311 0.77868
 N1222 N -0.04398 0.26849 0.78398
 C1223 C -0.09439 0.80086 0.30013
 N1224 N -0.09994 0.79546 0.31066
 N1225 N -0.11044 0.80067 0.31591
 C1226 C -0.11578 0.81148 0.31083
 N1227 N -0.11026 0.81687 0.30028
 N1228 N -0.09976 0.81165 0.29502
 C1229 C -0.08271 0.79521 0.29449
 N1230 N -0.07710 0.80060 0.28398
 N1231 N -0.06642 0.79553 0.27895
 C1232 C -0.06095 0.78489 0.28426
 N1233 N -0.06657 0.77948 0.29474
 N1234 N -0.07725 0.78455 0.29977
 C1235 C -0.04924 0.77921 0.27865
 N1236 N -0.04386 0.76851 0.28391
 N1237 N -0.03345 0.76314 0.27862
 C1238 C -0.02802 0.76831 0.26792
 N1239 N -0.03336 0.77906 0.26270
 N1240 N -0.04377 0.78443 0.26799
 C1241 C 0.59427 0.69950 0.30028
 N1242 N 0.59969 0.70482 0.31091
 N1243 N 0.61027 0.69971 0.31609
 C1244 C 0.61581 0.68908 0.31084
 N1245 N 0.61041 0.68377 0.30020
 N1246 N 0.59982 0.68888 0.29501
 C1247 C 0.58253 0.70508 0.29466
 N1248 N 0.57702 0.69974 0.28409
 N1249 N 0.56633 0.70478 0.27905
 C1250 C 0.56075 0.71533 0.28442
 N1251 N 0.56627 0.72068 0.29498
 N1252 N 0.57696 0.71564 0.30001
 C1253 C 0.54905 0.72098 0.27879
 N1254 N 0.54361 0.73165 0.28406
 N1255 N 0.53322 0.73702 0.27874
 C1256 C 0.52787 0.73188 0.26800
 N1257 N 0.53326 0.72116 0.26277
 N1258 N 0.54365 0.71579 0.26809
 C1259 C 0.59413 0.19914 0.80051
 N1260 N 0.59961 0.20447 0.81111
 N1261 N 0.61009 0.19924 0.81637
 C1262 C 0.61548 0.18847 0.81124
 N1263 N 0.61002 0.18315 0.80063
 N1264 N 0.59954 0.18839 0.79536
 C1265 C 0.58248 0.20483 0.79481
 N1266 N 0.57695 0.19949 0.78424
 N1267 N 0.56631 0.20459 0.77916
 C1268 C 0.56079 0.21520 0.78447
 N1269 N 0.56634 0.22056 0.79502
 N1270 N 0.57698 0.21546 0.80010
 C1271 C 0.54911 0.22088 0.77882
 N1272 N 0.54368 0.23157 0.78406
 N1273 N 0.53328 0.23692 0.77875
 C1274 C 0.52790 0.23175 0.76802
 N1275 N 0.53329 0.22102 0.76282
 N1276 N 0.54369 0.21566 0.76814
 C1277 C 1.09419 0.69936 0.80041
 N1278 N 1.09960 0.70464 0.81106
 N1279 N 1.11014 0.69947 0.81628
 C1280 C 1.11564 0.68882 0.81104
 N1281 N 1.11025 0.68355 0.80037
 N1282 N 1.09971 0.68872 0.79515
 C1283 C 1.08251 0.70501 0.79474
 N1284 N 1.07704 0.69972 0.78412
 N1285 N 1.06638 0.70480 0.77905
 C1286 C 1.06081 0.71535 0.78442
 N1287 N 1.06630 0.72065 0.79503
 N1288 N 1.07695 0.71557 0.80010
 C1289 C 1.04914 0.72104 0.77878
 N1290 N 1.04370 0.73171 0.78404
 N1291 N 1.03331 0.73708 0.77872
 C1292 C 1.02796 0.73195 0.76797
 N1293 N 1.03336 0.72124 0.76274
 N1294 N 1.04374 0.71586 0.76806
 C1295 C 1.09426 0.19945 0.30014
 N1296 N 1.09983 0.20490 0.31062
 N1297 N 1.11039 0.19975 0.31582
 C1298 C 1.11575 0.18896 0.31073
 N1299 N 1.11021 0.18352 0.30022
 N1300 N 1.09965 0.18868 0.29502
 C1301 C 1.08252 0.20505 0.29454
 N1302 N 1.07689 0.19961 0.28408
 N1303 N 1.06619 0.20466 0.27907
 C1304 C 1.06072 0.21530 0.28435
 N1305 N 1.06636 0.22074 0.29481
 N1306 N 1.07706 0.21570 0.29982
 C1307 C 1.04902 0.22097 0.27874
 N1308 N 1.04364 0.23169 0.28397
 N1309 N 1.03325 0.23706 0.27866
 C1310 C 1.02784 0.23189 0.26796
 N1311 N 1.03317 0.22112 0.26278
 N1312 N 1.04356 0.21574 0.26809
 C1313 C 0.59419 0.30059 0.69965
 N1314 N 0.59971 0.31121 0.70493
 N1315 N 0.61028 0.31635 0.69975
 C1316 C 0.61572 0.31105 0.68911
 N1317 N 0.61023 0.30042 0.68386
 N1318 N 0.59966 0.29528 0.68903
 C1319 C 0.58246 0.29499 0.70526
 N1320 N 0.57692 0.28443 0.69990
 N1321 N 0.56623 0.27938 0.70493
 C1322 C 0.56069 0.28472 0.71550
 N1323 N 0.56624 0.29527 0.72087
 N1324 N 0.57692 0.30032 0.71584
 C1325 C 0.54901 0.27905 0.72114
 N1326 N 0.54359 0.28423 0.73185
 N1327 N 0.53322 0.27885 0.73718
 C1328 C 0.52786 0.26812 0.73198
 N1329 N 0.53323 0.26298 0.72122
 N1330 N 0.54360 0.26836 0.71589
 C1331 C 0.59412 0.80086 0.19958
 N1332 N 0.59965 0.81148 0.20484
 N1333 N 0.61019 0.81663 0.19962
 C1334 C 0.61558 0.81135 0.18894
 N1335 N 0.61007 0.80072 0.18370
 N1336 N 0.59952 0.79557 0.18892
 C1337 C 0.58243 0.79523 0.20525
 N1338 N 0.57687 0.78468 0.19989
 N1339 N 0.56622 0.77961 0.20497
 C1340 C 0.56073 0.78491 0.21558
 N1341 N 0.56631 0.79545 0.22096
 N1342 N 0.57696 0.80052 0.21588
 C1343 C 0.54907 0.77923 0.22124
 N1344 N 0.54367 0.78439 0.23197
 N1345 N 0.53329 0.77902 0.23729
 C1346 C 0.52791 0.76831 0.23205
 N1347 N 0.53326 0.76320 0.22129
 N1348 N 0.54364 0.76857 0.21596
 C1349 C 1.09418 0.30082 0.19966
 N1350 N 1.09956 0.29557 0.18897
 N1351 N 1.11010 0.30072 0.18376
 C1352 C 1.11564 0.31132 0.18904
 N1353 N 1.11029 0.31656 0.19974
 N1354 N 1.09974 0.31141 0.20496
 C1355 C 1.08247 0.29521 0.20530
 N1356 N 1.07698 0.30051 0.21592
 N1357 N 1.06631 0.29545 0.22097
 C1358 C 1.06073 0.28493 0.21558
 N1359 N 1.06624 0.27962 0.20498
 N1360 N 1.07691 0.28467 0.19993
 C1361 C 1.04905 0.27925 0.22122
 N1362 N 1.04363 0.26859 0.21594
 N1363 N 1.03325 0.26322 0.22125
 C1364 C 1.02788 0.26834 0.23201
 N1365 N 1.03326 0.27905 0.23725
 N1366 N 1.04364 0.28442 0.23194
 C1367 C 1.09423 0.80082 0.69947
 N1368 N 1.09972 0.79544 0.68890
 N1369 N 1.11023 0.80061 0.68365
 C1370 C 1.11563 0.81136 0.68876
 N1371 N 1.11016 0.81673 0.69935
 N1372 N 1.09965 0.81156 0.70461
 C1373 C 1.08255 0.79519 0.70516
 N1374 N 1.07702 0.80056 0.71572
 N1375 N 1.06637 0.79550 0.72080
 C1376 C 1.06085 0.78490 0.71550
 N1377 N 1.06639 0.77952 0.70496
 N1378 N 1.07704 0.78458 0.69987
 C1379 C 1.04918 0.77923 0.72116
 N1380 N 1.04376 0.76854 0.71592
 N1381 N 1.03338 0.76319 0.72125
 C1382 C 1.02800 0.76835 0.73199
 N1383 N 1.03337 0.77908 0.73719
 N1384 N 1.04375 0.78444 0.73186
 C1385 C 0.40566 0.69949 0.69980
 N1386 N 0.40030 0.70471 0.68909
 N1387 N 0.38967 0.69965 0.68397
 C1388 C 0.38401 0.68917 0.68937
 N1389 N 0.38935 0.68396 0.70011
 N1390 N 0.39998 0.68902 0.70523
 C1391 C 0.41743 0.70504 0.70537
 N1392 N 0.42289 0.69977 0.71602
 N1393 N 0.43359 0.70481 0.72104
 C1394 C 0.43922 0.71528 0.71559
 N1395 N 0.43375 0.72055 0.70495
 N1396 N 0.42307 0.71551 0.69992
 C1397 C 0.45089 0.72097 0.72124
 N1398 N 0.45632 0.73163 0.71596
 N1399 N 0.46667 0.73703 0.72130
 C1400 C 0.47199 0.73194 0.73210
 N1401 N 0.46661 0.72124 0.73734
 N1402 N 0.45625 0.71584 0.73200
 C1403 C 0.40596 0.19910 0.19950
 N1404 N 0.40055 0.20439 0.18884
 N1405 N 0.39002 0.19925 0.18362
 C1406 C 0.38450 0.18861 0.18886
 N1407 N 0.38989 0.18332 0.19953
 N1408 N 0.40043 0.18847 0.20475
 C1409 C 0.41764 0.20472 0.20517
 N1410 N 0.42310 0.19943 0.21580
 N1411 N 0.43375 0.20450 0.22088
 C1412 C 0.43932 0.21505 0.21551
 N1413 N 0.43384 0.22035 0.20489
 N1414 N 0.42320 0.21528 0.19981
 C1415 C 0.45098 0.22073 0.22116
 N1416 N 0.45642 0.23139 0.21588
 N1417 N 0.46680 0.23676 0.22120
 C1418 C 0.47214 0.23163 0.23197
 N1419 N 0.46675 0.22093 0.23721
 N1420 N 0.45637 0.21556 0.23189
 C1421 C -0.09434 0.69936 0.19973
 N1422 N -0.09991 0.68877 0.20504
 N1423 N -0.11048 0.68366 0.19986
 C1424 C -0.11587 0.68894 0.18918
 N1425 N -0.11032 0.69953 0.18390
 N1426 N -0.09975 0.70465 0.18908
 C1427 C -0.08261 0.70494 0.20534
 N1428 N -0.07705 0.71549 0.19997
 N1429 N -0.06637 0.72053 0.20500
 C1430 C -0.06085 0.71520 0.21558
 N1431 N -0.06641 0.70465 0.22097
 N1432 N -0.07709 0.69961 0.21593
 C1433 C -0.04917 0.72087 0.22122
 N1434 N -0.04376 0.71571 0.23194
 N1435 N -0.03340 0.72109 0.23726
 C1436 C -0.02803 0.73181 0.23203
 N1437 N -0.03339 0.73693 0.22126
 N1438 N -0.04376 0.73155 0.21594
 C1439 C -0.09427 0.19920 0.69951
 N1440 N -0.09980 0.18857 0.70476
 N1441 N -0.11033 0.18341 0.69953
 C1442 C -0.11570 0.18869 0.68885
 N1443 N -0.11019 0.19933 0.68361
 N1444 N -0.09966 0.20448 0.68884
 C1445 C -0.08260 0.20483 0.70519
 N1446 N -0.07703 0.21539 0.69983
 N1447 N -0.06640 0.22048 0.70492
 C1448 C -0.06093 0.21518 0.71555
 N1449 N -0.06651 0.20464 0.72092
 N1450 N -0.07714 0.19955 0.71583
 C1451 C -0.04928 0.22088 0.72122
 N1452 N -0.04390 0.21572 0.73196
 N1453 N -0.03354 0.22110 0.73729
 C1454 C -0.02815 0.23181 0.73205
 N1455 N -0.03349 0.23692 0.72127
 N1456 N -0.04385 0.23154 0.71594
 C1457 C 0.30051 0.40561 0.30010
 N1458 N 0.29519 0.40019 0.31073
 N1459 N 0.30033 0.38964 0.31594
 C1460 C 0.31098 0.38412 0.31070
 N1461 N 0.31630 0.38952 0.30005
 N1462 N 0.31116 0.40008 0.29484
 C1463 C 0.29492 0.41734 0.29447
 N1464 N 0.30027 0.42286 0.28390
 N1465 N 0.29523 0.43354 0.27887
 C1466 C 0.28466 0.43911 0.28423
 N1467 N 0.27930 0.43358 0.29479
 N1468 N 0.28434 0.42289 0.29982
 C1469 C 0.27900 0.45081 0.27861
 N1470 N 0.26832 0.45624 0.28388
 N1471 N 0.26297 0.46665 0.27859
 C1472 C 0.26814 0.47203 0.26785
 N1473 N 0.27886 0.46664 0.26263
 N1474 N 0.28421 0.45623 0.26792
 C1475 C 0.30093 -0.09480 0.80007
 N1476 N 0.29560 -0.10026 0.81068
 N1477 N 0.30076 -0.11080 0.81588
 C1478 C 0.31146 -0.11629 0.81068
 N1479 N 0.31677 -0.11084 0.80005
 N1480 N 0.31161 -0.10029 0.79484
 C1481 C 0.29531 -0.08307 0.79445
 N1482 N 0.30065 -0.07752 0.78388
 N1483 N 0.29559 -0.06683 0.77886
 C1484 C 0.28501 -0.06128 0.78423
 N1485 N 0.27966 -0.06684 0.79479
 N1486 N 0.28472 -0.07753 0.79980
 C1487 C 0.27933 -0.04957 0.77863
 N1488 N 0.26864 -0.04415 0.78391
 N1489 N 0.26327 -0.03374 0.77863
 C1490 C 0.26842 -0.02834 0.76790
 N1491 N 0.27915 -0.03372 0.76265
 N1492 N 0.28452 -0.04412 0.76794
 C1493 C 0.80057 0.40557 0.80034
 N1494 N 0.79526 0.40017 0.81099
 N1495 N 0.80035 0.38957 0.81615
 C1496 C 0.81094 0.38397 0.81087
 N1497 N 0.81622 0.38936 0.80018
 N1498 N 0.81113 0.39996 0.79502
 C1499 C 0.79502 0.41734 0.79476
 N1500 N 0.80038 0.42284 0.78417
 N1501 N 0.79537 0.43355 0.77916
 C1502 C 0.78483 0.43916 0.78455
 N1503 N 0.77948 0.43365 0.79512
 N1504 N 0.78449 0.42294 0.80014
 C1505 C 0.77919 0.45085 0.77892
 N1506 N 0.76851 0.45630 0.78418
 N1507 N 0.76314 0.46667 0.77885
 C1508 C 0.76828 0.47201 0.76809
 N1509 N 0.77901 0.46662 0.76287
 N1510 N 0.78438 0.45624 0.76820
 C1511 C 0.80044 -0.09481 0.30021
 N1512 N 0.81105 -0.10037 0.29493
 N1513 N 0.81616 -0.11096 0.30011
 C1514 C 0.81086 -0.11636 0.31078
 N1515 N 0.80022 -0.11081 0.31602
 N1516 N 0.79510 -0.10023 0.31083
 C1517 C 0.79491 -0.08303 0.29462
 N1518 N 0.78433 -0.07747 0.29995
 N1519 N 0.77934 -0.06674 0.29496
 C1520 C 0.78477 -0.06117 0.28445
 N1521 N 0.79535 -0.06674 0.27911
 N1522 N 0.80033 -0.07747 0.28411
 C1523 C 0.77916 -0.04944 0.27885
 N1524 N 0.78441 -0.04401 0.26818
 N1525 N 0.77907 -0.03360 0.26287
 C1526 C 0.76832 -0.02822 0.26806
 N1527 N 0.76313 -0.03360 0.27878
 N1528 N 0.76847 -0.04400 0.28409
 C1529 C 0.30069 0.59413 0.69945
 N1530 N 0.29541 0.59955 0.68879
 N1531 N 0.30057 0.61009 0.68359
 C1532 C 0.31121 0.61559 0.68884
 N1533 N 0.31648 0.61019 0.69952
 N1534 N 0.31132 0.59965 0.70473
 C1535 C 0.29505 0.58245 0.70512
 N1536 N 0.30034 0.57698 0.71575
 N1537 N 0.29525 0.56634 0.72082
 C1538 C 0.28470 0.56077 0.71544
 N1539 N 0.27941 0.56625 0.70483
 N1540 N 0.28449 0.57689 0.69975
 C1541 C 0.27902 0.54910 0.72110
 N1542 N 0.26834 0.54367 0.71583
 N1543 N 0.26298 0.53330 0.72116
 C1544 C 0.26811 0.52794 0.73192
 N1545 N 0.27883 0.53333 0.73715
 N1546 N 0.28420 0.54371 0.73182
 C1547 C 0.30066 1.09424 0.19969
 N1548 N 0.29543 1.09961 0.18898
 N1549 N 0.30048 1.11024 0.18389
 C1550 C 0.31095 1.11590 0.18931
 N1551 N 0.31618 1.11055 0.20003
 N1552 N 0.31112 1.09991 0.20513
 C1553 C 0.29513 1.08246 0.20522
 N1554 N 0.30041 1.07699 0.21585
 N1555 N 0.29539 1.06628 0.22085
 C1556 C 0.28493 1.06065 0.21538
 N1557 N 0.27965 1.06613 0.20475
 N1558 N 0.28467 1.07683 0.19976
 C1559 C 0.27925 1.04898 0.22100
 N1560 N 0.26859 1.04356 0.21571
 N1561 N 0.26319 1.03321 0.22104
 C1562 C 0.26828 1.02788 0.23183
 N1563 N 0.27900 1.03325 0.23708
 N1564 N 0.28439 1.04361 0.23175
 C1565 C 0.80069 0.59411 0.19939
 N1566 N 0.79534 0.59958 0.18879
 N1567 N 0.80057 0.61004 0.18351
 C1568 C 0.81134 0.61541 0.18863
 N1569 N 0.81668 0.60996 0.19924
 N1570 N 0.81145 0.59950 0.20453
 C1571 C 0.79501 0.58248 0.20510
 N1572 N 0.80037 0.57696 0.21567
 N1573 N 0.79528 0.56634 0.22076
 C1574 C 0.78466 0.56084 0.21547
 N1575 N 0.77928 0.56638 0.20492
 N1576 N 0.78437 0.57700 0.19982
 C1577 C 0.77899 0.54918 0.22113
 N1578 N 0.76829 0.54378 0.21589
 N1579 N 0.76293 0.53340 0.22122
 C1580 C 0.76811 0.52802 0.23194
 N1581 N 0.77886 0.53338 0.23714
 N1582 N 0.78421 0.54376 0.23181
 C1583 C 0.80054 1.09427 0.69966
 N1584 N 0.79530 1.09962 0.68896
 N1585 N 0.80034 1.11026 0.68385
 C1586 C 0.81081 1.11593 0.68928
 N1587 N 0.81603 1.11060 0.70000
 N1588 N 0.81099 1.09995 0.70511
 C1589 C 0.79502 1.08249 0.70521
 N1590 N 0.80029 1.07704 0.71585
 N1591 N 0.79527 1.06634 0.72087
 C1592 C 0.78480 1.06071 0.71541
 N1593 N 0.77953 1.06616 0.70477
 N1594 N 0.78455 1.07686 0.69976
 C1595 C 0.77912 1.04906 0.72106
 N1596 N 0.76845 1.04364 0.71579
 N1597 N 0.76303 1.03331 0.72115
 C1598 C 0.76812 1.02801 0.73196
 N1599 N 0.77884 1.03338 0.73719
 N1600 N 0.78426 1.04371 0.73182
 C1601 C 0.69945 0.59445 0.30022
 N1602 N 0.68882 0.60000 0.29497
 N1603 N 0.68370 0.61057 0.30017
 C1604 C 0.68903 0.61596 0.31081
 N1605 N 0.69967 0.61043 0.31605
 N1606 N 0.70478 0.59986 0.31085
 C1607 C 0.70503 0.58273 0.29459
 N1608 N 0.71560 0.57715 0.29993
 N1609 N 0.72063 0.56647 0.29490
 C1610 C 0.71525 0.56095 0.28434
 N1611 N 0.70469 0.56653 0.27899
 N1612 N 0.69966 0.57722 0.28403
 C1613 C 0.72090 0.54925 0.27872
 N1614 N 0.71568 0.54385 0.26803
 N1615 N 0.72103 0.53345 0.26272
 C1616 C 0.73176 0.52805 0.26794
 N1617 N 0.73692 0.53341 0.27867
 N1618 N 0.73158 0.54381 0.28398
 C1619 C 0.69934 1.09471 0.80033
 N1620 N 0.70462 1.10007 0.81101
 N1621 N 0.69949 1.11063 0.81622
 C1622 C 0.68889 1.11623 0.81095
 N1623 N 0.68364 1.11088 0.80024
 N1624 N 0.68877 1.10031 0.79503
 C1625 C 0.70493 1.08297 0.79469
 N1626 N 0.69958 1.07749 0.78411
 N1627 N 0.70462 1.06680 0.77906
 C1628 C 0.71517 1.06120 0.78442
 N1629 N 0.72052 1.06670 0.79499
 N1630 N 0.71549 1.07738 0.80004
 C1631 C 0.72081 1.04949 0.77879
 N1632 N 0.73149 1.04403 0.78405
 N1633 N 0.73683 1.03363 0.77874
 C1634 C 0.73166 1.02827 0.76800
 N1635 N 0.72094 1.03368 0.76278
 N1636 N 0.71560 1.04409 0.76809
 C1637 C 0.19941 0.59427 0.80013
 N1638 N 0.20466 0.59961 0.81083
 N1639 N 0.19962 0.61025 0.81595
 C1640 C 0.18915 0.61594 0.81055
 N1641 N 0.18390 0.61063 0.79984
 N1642 N 0.18894 0.59998 0.79472
 C1643 C 0.20492 0.58248 0.79457
 N1644 N 0.19962 0.57704 0.78395
 N1645 N 0.20462 0.56632 0.77894
 C1646 C 0.21509 0.56066 0.78438
 N1647 N 0.22039 0.56611 0.79501
 N1648 N 0.21539 0.57682 0.80002
 C1649 C 0.22074 0.54897 0.77876
 N1650 N 0.23140 0.54350 0.78404
 N1651 N 0.23678 0.53314 0.77871
 C1652 C 0.23167 0.52783 0.76793
 N1653 N 0.22096 0.53324 0.76269
 N1654 N 0.21558 0.54361 0.76802
 C1655 C 0.19944 1.09436 0.30006
 N1656 N 0.18870 1.09979 0.29491
 N1657 N 0.18351 1.11029 0.30017
 C1658 C 0.18887 1.11573 0.31077
 N1659 N 0.19963 1.11032 0.31589
 N1660 N 0.20482 1.09982 0.31063
 C1661 C 0.20506 1.08267 0.29440
 N1662 N 0.21569 1.07716 0.29970
 N1663 N 0.22074 1.06648 0.29466
 C1664 C 0.21533 1.06091 0.28416
 N1665 N 0.20471 1.06643 0.27885
 N1666 N 0.19966 1.07711 0.28389
 C1667 C 0.22097 1.04921 0.27855
 N1668 N 0.21574 1.04377 0.26788
 N1669 N 0.22108 1.03336 0.26259
 C1670 C 0.23182 1.02798 0.26780
 N1671 N 0.23701 1.03338 0.27851
 N1672 N 0.23167 1.04379 0.28380
 C1673 C 0.69942 0.40569 0.69970
 N1674 N 0.68879 0.40017 0.70497
 N1675 N 0.68365 0.38961 0.69977
 C1676 C 0.68896 0.38420 0.68913
 N1677 N 0.69961 0.38970 0.68389
 N1678 N 0.70475 0.40025 0.68908
 C1679 C 0.70502 0.41741 0.70533
 N1680 N 0.71560 0.42296 0.69998
 N1681 N 0.72064 0.43363 0.70502
 C1682 C 0.71529 0.43915 0.71559
 N1683 N 0.70472 0.43360 0.72095
 N1684 N 0.69967 0.42292 0.71591
 C1685 C 0.72096 0.45083 0.72123
 N1686 N 0.71576 0.45624 0.73194
 N1687 N 0.72113 0.46661 0.73727
 C1688 C 0.73186 0.47198 0.73205
 N1689 N 0.73701 0.46663 0.72130
 N1690 N 0.73164 0.45626 0.71597
 C1691 C 0.69948 -0.09437 0.19984
 N1692 N 0.70472 -0.09972 0.18913
 N1693 N 0.69966 -0.11034 0.18401
 C1694 C 0.68918 -0.11600 0.18943
 N1695 N 0.68396 -0.11067 0.20015
 N1696 N 0.68902 -0.10004 0.20527
 C1697 C 0.70502 -0.08260 0.20539
 N1698 N 0.69974 -0.07715 0.21603
 N1699 N 0.70476 -0.06645 0.22103
 C1700 C 0.71523 -0.06082 0.21557
 N1701 N 0.72052 -0.06628 0.20494
 N1702 N 0.71549 -0.07697 0.19993
 C1703 C 0.72091 -0.04916 0.22120
 N1704 N 0.73158 -0.04373 0.21591
 N1705 N 0.73698 -0.03339 0.22125
 C1706 C 0.73188 -0.02808 0.23205
 N1707 N 0.72116 -0.03345 0.23729
 N1708 N 0.71576 -0.04379 0.23195
 C1709 C 0.19932 0.40587 0.19956
 N1710 N 0.18874 0.40031 0.20488
 N1711 N 0.18358 0.38977 0.19967
 C1712 C 0.18883 0.38442 0.18896
 N1713 N 0.19943 0.38996 0.18367
 N1714 N 0.20458 0.40049 0.18887
 C1715 C 0.20493 0.41757 0.20518
 N1716 N 0.21547 0.42315 0.19979
 N1717 N 0.22051 0.43381 0.20483
 C1718 C 0.21519 0.43931 0.21543
 N1719 N 0.20466 0.43372 0.22083
 N1720 N 0.19961 0.42306 0.21579
 C1721 C 0.22085 0.45097 0.22106
 N1722 N 0.21566 0.45637 0.23178
 N1723 N 0.22103 0.46673 0.23710
 C1724 C 0.23175 0.47211 0.23188
 N1725 N 0.23690 0.46677 0.22111
 N1726 N 0.23153 0.45640 0.21579
 C1727 C 0.19952 -0.09431 0.69963
 N1728 N 0.18894 -0.09988 0.70495
 N1729 N 0.18387 -0.11049 0.69982
 C1730 C 0.18919 -0.11590 0.68918
 N1731 N 0.19978 -0.11035 0.68388
 N1732 N 0.20486 -0.09975 0.68901
 C1733 C 0.20506 -0.08254 0.70519
 N1734 N 0.21559 -0.07696 0.69980
 N1735 N 0.22061 -0.06627 0.70481
 C1736 C 0.21526 -0.06076 0.71539
 N1737 N 0.20473 -0.06634 0.72078
 N1738 N 0.19971 -0.07703 0.71577
 C1739 C 0.22094 -0.04910 0.72103
 N1740 N 0.21577 -0.04373 0.73177
 N1741 N 0.22117 -0.03340 0.73712
 C1742 C 0.23191 -0.02804 0.73191
 N1743 N 0.23703 -0.03336 0.72113
 N1744 N 0.23163 -0.04370 0.71578
 C1745 C 0.30029 0.30028 0.40575
 N1746 N 0.31093 0.29497 0.40026
 N1747 N 0.31608 0.30012 0.38971
 C1748 C 0.31078 0.31077 0.38425
 N1749 N 0.30012 0.31605 0.38971
 N1750 N 0.29497 0.31091 0.40027
 C1751 C 0.29470 0.29469 0.41747
 N1752 N 0.28412 0.30006 0.42301
 N1753 N 0.27910 0.29504 0.43369
 C1754 C 0.28448 0.28448 0.43924
 N1755 N 0.29505 0.27910 0.43369
 N1756 N 0.30007 0.28412 0.42301
 C1757 C 0.27884 0.27884 0.45092
 N1758 N 0.28409 0.26814 0.45633
 N1759 N 0.27874 0.26280 0.46670
 C1760 C 0.26799 0.26800 0.47206
 N1761 N 0.26279 0.27874 0.46670
 N1762 N 0.26814 0.28408 0.45633
 C1763 C 0.30065 0.80041 -0.09448
 N1764 N 0.31130 0.79512 -0.09997
 N1765 N 0.31643 0.80029 -0.11053
 C1766 C 0.31111 0.81093 -0.11598
 N1767 N 0.30045 0.81620 -0.11051
 N1768 N 0.29532 0.81103 -0.09995
 C1769 C 0.29507 0.79479 -0.08275
 N1770 N 0.28448 0.80015 -0.07721
 N1771 N 0.27945 0.79511 -0.06654
 C1772 C 0.28484 0.78454 -0.06100
 N1773 N 0.29542 0.77918 -0.06655
 N1774 N 0.30044 0.78422 -0.07723
 C1775 C 0.27919 0.77890 -0.04932
 N1776 N 0.28443 0.76819 -0.04391
 N1777 N 0.27908 0.76287 -0.03354
 C1778 C 0.26834 0.76807 -0.02817
 N1779 N 0.26315 0.77882 -0.03353
 N1780 N 0.26849 0.78415 -0.04391
 C1781 C 0.80039 0.30085 -0.09420
 N1782 N 0.79520 0.31162 -0.09951
 N1783 N 0.80038 0.31683 -0.11003
 C1784 C 0.81092 0.31146 -0.11562
 N1785 N 0.81609 0.30067 -0.11032
 N1786 N 0.81092 0.29546 -0.09980
 C1787 C 0.79476 0.29518 -0.08253
 N1788 N 0.80006 0.28453 -0.07709
 N1789 N 0.79501 0.27945 -0.06645
 C1790 C 0.78447 0.28484 -0.06085
 N1791 N 0.77915 0.29547 -0.06631
 N1792 N 0.78420 0.30056 -0.07694
 C1793 C 0.77883 0.27916 -0.04920
 N1794 N 0.76814 0.28440 -0.04375
 N1795 N 0.76281 0.27904 -0.03338
 C1796 C 0.76800 0.26828 -0.02805
 N1797 N 0.77874 0.26308 -0.03346
 N1798 N 0.78406 0.26843 -0.04382
 C1799 C 0.80001 0.80058 0.40558
 N1800 N 0.81049 0.79513 0.39993
 N1801 N 0.81556 0.80022 0.38931
 C1802 C 0.81034 0.81095 0.38394
 N1803 N 0.79984 0.81639 0.38957
 N1804 N 0.79477 0.81129 0.40019
 C1805 C 0.79452 0.79505 0.41738
 N1806 N 0.78402 0.80048 0.42302
 N1807 N 0.77907 0.79548 0.43374
 C1808 C 0.78445 0.78489 0.43924
 N1809 N 0.79494 0.77946 0.43360
 N1810 N 0.79989 0.78446 0.42287
 C1811 C 0.77886 0.77925 0.45094
 N1812 N 0.78410 0.76853 0.45631
 N1813 N 0.77878 0.76317 0.46668
 C1814 C 0.76805 0.76836 0.47209
 N1815 N 0.76285 0.77913 0.46677
 N1816 N 0.76817 0.78449 0.45640
 C1817 C 0.69958 0.30035 0.59411
 N1818 N 0.68894 0.29506 0.59960
 N1819 N 0.68380 0.30023 0.61016
 C1820 C 0.68910 0.31087 0.61561
 N1821 N 0.69976 0.31613 0.61013
 N1822 N 0.70490 0.31097 0.59958
 C1823 C 0.70517 0.29474 0.58238
 N1824 N 0.71575 0.30008 0.57684
 N1825 N 0.72077 0.29504 0.56616
 C1826 C 0.71538 0.28449 0.56062
 N1827 N 0.70480 0.27914 0.56618
 N1828 N 0.69979 0.28418 0.57686
 C1829 C 0.72100 0.27885 0.54894
 N1830 N 0.71574 0.26817 0.54352
 N1831 N 0.72107 0.26283 0.53314
 C1832 C 0.73182 0.26801 0.52776
 N1833 N 0.73703 0.27873 0.53313
 N1834 N 0.73171 0.28407 0.54351
 C1835 C 0.69943 0.80059 1.09404
 N1836 N 0.70459 0.81135 1.09938
 N1837 N 0.69936 0.81656 1.10988
 C1838 C 0.68879 0.81119 1.11541
 N1839 N 0.68366 0.80041 1.11010
 N1840 N 0.68887 0.79520 1.09960
 C1841 C 0.70510 0.79493 1.08239
 N1842 N 0.69981 0.78430 1.07692
 N1843 N 0.70488 0.77924 1.06629
 C1844 C 0.71542 0.78464 1.06072
 N1845 N 0.72073 0.79525 1.06621
 N1846 N 0.71566 0.80032 1.07684
 C1847 C 0.72108 0.77900 1.04905
 N1848 N 0.73177 0.78424 1.04363
 N1849 N 0.73710 0.77892 1.03324
 C1850 C 0.73190 0.76819 1.02788
 N1851 N 0.72117 0.76298 1.03326
 N1852 N 0.71584 0.76831 1.04365
 C1853 C 0.19959 0.30053 1.09414
 N1854 N 0.18894 0.29525 1.09962
 N1855 N 0.18375 0.30044 1.11013
 C1856 C 0.18902 0.31111 1.11555
 N1857 N 0.19969 0.31637 1.11011
 N1858 N 0.20488 0.31117 1.09959
 C1859 C 0.20521 0.29490 1.08245
 N1860 N 0.21580 0.30023 1.07691
 N1861 N 0.22084 0.29517 1.06626
 C1862 C 0.21546 0.28461 1.06074
 N1863 N 0.20489 0.27926 1.06630
 N1864 N 0.19985 0.28432 1.07695
 C1865 C 0.22109 0.27895 1.04907
 N1866 N 0.21583 0.26826 1.04368
 N1867 N 0.22114 0.26292 1.03330
 C1868 C 0.23188 0.26809 1.02790
 N1869 N 0.23710 0.27881 1.03325
 N1870 N 0.23180 0.28416 1.04364
 C1871 C 0.19948 0.80062 0.59388
 N1872 N 0.20464 0.81138 0.59922
 N1873 N 0.19943 0.81657 0.60973
 C1874 C 0.18888 0.81119 0.61528
 N1875 N 0.18373 0.80042 0.60996
 N1876 N 0.18893 0.79523 0.59944
 C1877 C 0.20513 0.79499 0.58221
 N1878 N 0.19984 0.78435 0.57674
 N1879 N 0.20491 0.77930 0.56609
 C1880 C 0.21545 0.78470 0.56052
 N1881 N 0.22076 0.79532 0.56601
 N1882 N 0.21568 0.80037 0.57665
 C1883 C 0.22111 0.77905 0.54886
 N1884 N 0.23180 0.78430 0.54343
 N1885 N 0.23714 0.77896 0.53305
 C1886 C 0.23195 0.76822 0.52770
 N1887 N 0.22121 0.76302 0.53308
 N1888 N 0.21588 0.76836 0.54346
 C1889 C 0.30048 0.69943 0.59394
 N1890 N 0.29508 0.68889 0.59950
 N1891 N 0.30029 0.68367 0.61000
 C1892 C 0.31109 0.68880 0.61532
 N1893 N 0.31646 0.69935 0.60977
 N1894 N 0.31126 0.70457 0.59928
 C1895 C 0.29482 0.70510 0.58228
 N1896 N 0.30022 0.71565 0.57673
 N1897 N 0.29516 0.72073 0.56609
 C1898 C 0.28452 0.71545 0.56061
 N1899 N 0.27911 0.70492 0.56617
 N1900 N 0.28417 0.69984 0.57681
 C1901 C 0.27888 0.72112 0.54894
 N1902 N 0.26816 0.71592 0.54353
 N1903 N 0.26285 0.72125 0.53315
 C1904 C 0.26809 0.73196 0.52775
 N1905 N 0.27885 0.73712 0.53312
 N1906 N 0.28416 0.73178 0.54350
 C1907 C 0.30058 0.19940 1.09400
 N1908 N 0.29544 0.18862 1.09934
 N1909 N 0.30068 0.18342 1.10983
 C1910 C 0.31125 0.18880 1.11535
 N1911 N 0.31637 0.19959 1.11003
 N1912 N 0.31113 0.20479 1.09954
 C1913 C 0.29489 0.20505 1.08235
 N1914 N 0.30016 0.21569 1.07687
 N1915 N 0.29507 0.22075 1.06624
 C1916 C 0.28453 0.21535 1.06070
 N1917 N 0.27923 0.20472 1.06619
 N1918 N 0.28433 0.19966 1.07682
 C1919 C 0.27885 0.22100 1.04905
 N1920 N 0.26816 0.21576 1.04364
 N1921 N 0.26281 0.22109 1.03326
 C1922 C 0.26800 0.23183 1.02789
 N1923 N 0.27873 0.23703 1.03326
 N1924 N 0.28408 0.23170 1.04363
 C1925 C 0.80035 0.69937 1.09408
 N1926 N 0.79494 0.68885 1.09967
 N1927 N 0.80013 0.68367 1.11020
 C1928 C 0.81092 0.68882 1.11552
 N1929 N 0.81631 0.69936 1.10995
 N1930 N 0.81111 0.70454 1.09942
 C1931 C 0.79471 0.70502 1.08241
 N1932 N 0.80011 0.71555 1.07685
 N1933 N 0.79506 0.72063 1.06621
 C1934 C 0.78443 0.71534 1.06072
 N1935 N 0.77901 0.70482 1.06629
 N1936 N 0.78406 0.69974 1.07693
 C1937 C 0.77880 0.72101 1.04906
 N1938 N 0.76808 0.71583 1.04365
 N1939 N 0.76277 0.72118 1.03327
 C1940 C 0.76801 0.73189 1.02790
 N1941 N 0.77878 0.73703 1.03326
 N1942 N 0.78409 0.73168 1.04364
 C1943 C 0.80049 0.19935 0.59389
 N1944 N 0.79535 0.18858 0.59924
 N1945 N 0.80058 0.18338 0.60974
 C1946 C 0.81113 0.18877 0.61527
 N1947 N 0.81625 0.19956 0.60995
 N1948 N 0.81103 0.20475 0.59944
 C1949 C 0.79481 0.20499 0.58224
 N1950 N 0.80009 0.21563 0.57676
 N1951 N 0.79501 0.22068 0.56612
 C1952 C 0.78448 0.21527 0.56056
 N1953 N 0.77919 0.20465 0.56605
 N1954 N 0.78427 0.19959 0.57669
 C1955 C 0.77882 0.22091 0.54890
 N1956 N 0.76814 0.21566 0.54347
 N1957 N 0.76280 0.22100 0.53310
 C1958 C 0.76799 0.23174 0.52774
 N1959 N 0.77872 0.23694 0.53311
 N1960 N 0.78405 0.23161 0.54349
 C1961 C 0.69963 0.69977 0.40583
 N1962 N 0.70496 0.68914 0.40036
 N1963 N 0.69981 0.68398 0.38981
 C1964 C 0.68915 0.68926 0.38435
 N1965 N 0.68384 0.69991 0.38980
 N1966 N 0.68899 0.70507 0.40035
 C1967 C 0.70520 0.70536 0.41755
 N1968 N 0.69981 0.71593 0.42308
 N1969 N 0.70482 0.72095 0.43376
 C1970 C 0.71539 0.71558 0.43931
 N1971 N 0.72079 0.70503 0.43378
 N1972 N 0.71578 0.70000 0.42310
 C1973 C 0.72101 0.72121 0.45099
 N1974 N 0.73172 0.71598 0.45641
 N1975 N 0.73705 0.72132 0.46677
 C1976 C 0.73185 0.73206 0.47213
 N1977 N 0.72109 0.73725 0.46677
 N1978 N 0.71575 0.73191 0.45640
 C1979 C 0.69942 0.19949 -0.09420
 N1980 N 0.68888 0.20486 -0.09981
 N1981 N 0.68374 0.19966 -0.11034
 C1982 C 0.68893 0.18888 -0.11564
 N1983 N 0.69948 0.18352 -0.11005
 N1984 N 0.70464 0.18873 -0.09952
 C1985 C 0.70504 0.20516 -0.08253
 N1986 N 0.71560 0.19980 -0.07695
 N1987 N 0.72065 0.20489 -0.06632
 C1988 C 0.71532 0.21552 -0.06087
 N1989 N 0.70477 0.22089 -0.06645
 N1990 N 0.69972 0.21581 -0.07708
 C1991 C 0.72097 0.22120 -0.04921
 N1992 N 0.71574 0.23192 -0.04383
 N1993 N 0.72107 0.23726 -0.03346
 C1994 C 0.73181 0.23205 -0.02807
 N1995 N 0.73700 0.22129 -0.03341
 N1996 N 0.73167 0.21595 -0.04378
 C1997 C 0.19947 0.69949 -0.09413
 N1998 N 0.18892 0.70489 -0.09970
 N1999 N 0.18371 0.69968 -0.11019
 C2000 C 0.18885 0.68887 -0.11549
 N2001 N 0.19940 0.68349 -0.10994
 N2002 N 0.20462 0.68870 -0.09945
 C2003 C 0.20514 0.70515 -0.08249
 N2004 N 0.21569 0.69975 -0.07694
 N2005 N 0.22078 0.70482 -0.06632
 C2006 C 0.21548 0.71546 -0.06085
 N2007 N 0.20495 0.72088 -0.06642
 N2008 N 0.19986 0.71581 -0.07704
 C2009 C 0.22116 0.72112 -0.04921
 N2010 N 0.21595 0.73185 -0.04383
 N2011 N 0.22131 0.73718 -0.03347
 C2012 C 0.23203 0.73195 -0.02809
 N2013 N 0.23719 0.72118 -0.03343
 N2014 N 0.23184 0.71584 -0.04378
 C2015 C 0.19959 0.19960 0.40571
 N2016 N 0.18905 0.20499 0.40013
 N2017 N 0.18395 0.19989 0.38954
 C2018 C 0.18921 0.18920 0.38413
 N2019 N 0.19977 0.18382 0.38968
 N2020 N 0.20487 0.18893 0.40027
 C2021 C 0.20513 0.20515 0.41746
 N2022 N 0.21565 0.19973 0.42307
 N2023 N 0.22063 0.20473 0.43377
 C2024 C 0.21528 0.21532 0.43927
 N2025 N 0.20477 0.22076 0.43366
 N2026 N 0.19979 0.21576 0.42296
 C2027 C 0.22089 0.22094 0.45096
 N2028 N 0.21566 0.23166 0.45634
 N2029 N 0.22099 0.23699 0.46671
 C2030 C 0.23172 0.23178 0.47210
 N2031 N 0.23690 0.22101 0.46677
 N2032 N 0.23157 0.21568 0.45640
 C2033 C 0.30054 0.40573 0.69950
 N2034 N 0.31117 0.40019 0.70476
 N2035 N 0.31630 0.38963 0.69955
 C2036 C 0.31099 0.38424 0.68890
 N2037 N 0.30034 0.38977 0.68367
 N2038 N 0.29521 0.40032 0.68888
 C2039 C 0.29495 0.41745 0.70514
 N2040 N 0.28437 0.42301 0.69981
 N2041 N 0.27934 0.43369 0.70485
 C2042 C 0.28471 0.43921 0.71541
 N2043 N 0.29528 0.43363 0.72076
 N2044 N 0.30031 0.42295 0.71571
 C2045 C 0.27906 0.45089 0.72105
 N2046 N 0.28427 0.45629 0.73175
 N2047 N 0.27891 0.46667 0.73707
 C2048 C 0.26817 0.47206 0.73186
 N2049 N 0.26301 0.46671 0.72112
 N2050 N 0.26837 0.45633 0.71580
 C2051 C 0.30071 0.90593 0.19933
 N2052 N 0.29536 0.90050 0.18872
 N2053 N 0.30048 0.88992 0.18353
 C2054 C 0.31112 0.88440 0.18877
 N2055 N 0.31646 0.88981 0.19940
 N2056 N 0.31134 0.90038 0.20458
 C2057 C 0.29514 0.91766 0.20494
 N2058 N 0.30050 0.92316 0.21551
 N2059 N 0.29546 0.93383 0.22057
 C2060 C 0.28489 0.93941 0.21522
 N2061 N 0.27953 0.93390 0.20466
 N2062 N 0.28457 0.92323 0.19960
 C2063 C 0.27921 0.95106 0.22089
 N2064 N 0.26851 0.95649 0.21565
 N2065 N 0.26312 0.96684 0.22101
 C2066 C 0.26826 0.97216 0.23178
 N2067 N 0.27900 0.96678 0.23697
 N2068 N 0.28440 0.95643 0.23161
 C2069 C 0.80067 0.40600 0.19943
 N2070 N 0.79536 0.40062 0.18878
 N2071 N 0.80045 0.39003 0.18360
 C2072 C 0.81105 0.38445 0.18888
 N2073 N 0.81634 0.38981 0.19955
 N2074 N 0.81125 0.40040 0.20473
 C2075 C 0.79510 0.41774 0.20505
 N2076 N 0.80044 0.42322 0.21564
 N2077 N 0.79540 0.43389 0.22070
 C2078 C 0.78484 0.43948 0.21534
 N2079 N 0.77949 0.43399 0.20476
 N2080 N 0.78454 0.42332 0.19970
 C2081 C 0.77916 0.45113 0.22100
 N2082 N 0.76846 0.45656 0.21576
 N2083 N 0.76306 0.46690 0.22112
 C2084 C 0.76820 0.47223 0.23189
 N2085 N 0.77894 0.46685 0.23709
 N2086 N 0.78434 0.45650 0.23173
 C2087 C 0.80071 0.90614 0.69950
 N2088 N 0.79535 0.90068 0.68891
 N2089 N 0.80050 0.89015 0.68369
 C2090 C 0.81121 0.88468 0.68887
 N2091 N 0.81656 0.89011 0.69947
 N2092 N 0.81141 0.90065 0.70470
 C2093 C 0.79509 0.91784 0.70516
 N2094 N 0.80045 0.92336 0.71571
 N2095 N 0.79537 0.93401 0.72079
 C2096 C 0.78475 0.93953 0.71549
 N2097 N 0.77938 0.93400 0.70494
 N2098 N 0.78446 0.92335 0.69987
 C2099 C 0.77903 0.95118 0.72117
 N2100 N 0.76830 0.95657 0.71595
 N2101 N 0.76290 0.96691 0.72131
 C2102 C 0.76805 0.97227 0.73205
 N2103 N 0.77882 0.96693 0.73722
 N2104 N 0.78423 0.95658 0.73187
 C2105 C 0.69943 0.59425 0.69974
 N2106 N 0.70476 0.59968 0.68912
 N2107 N 0.69962 0.61024 0.68392
 C2108 C 0.68896 0.61575 0.68915
 N2109 N 0.68364 0.61034 0.69979
 N2110 N 0.68879 0.59978 0.70500
 C2111 C 0.70502 0.58252 0.70537
 N2112 N 0.69966 0.57700 0.71593
 N2113 N 0.70469 0.56631 0.72096
 C2114 C 0.71525 0.56073 0.71560
 N2115 N 0.72062 0.56626 0.70504
 N2116 N 0.71559 0.57695 0.70001
 C2117 C 0.72091 0.54903 0.72122
 N2118 N 0.73160 0.54360 0.71597
 N2119 N 0.73697 0.53322 0.72129
 C2120 C 0.73182 0.52786 0.73204
 N2121 N 0.72108 0.53324 0.73725
 N2122 N 0.71571 0.54363 0.73193
 C2123 C 0.69948 0.09392 0.19951
 N2124 N 0.68888 0.09949 0.20479
 N2125 N 0.68378 0.11008 0.19961
 C2126 C 0.68910 0.11548 0.18896
 N2127 N 0.69971 0.10992 0.18370
 N2128 N 0.70481 0.09933 0.18888
 C2129 C 0.70505 0.08218 0.20514
 N2130 N 0.71562 0.07660 0.19979
 N2131 N 0.72066 0.06593 0.20485
 C2132 C 0.71530 0.06043 0.21543
 N2133 N 0.70473 0.06601 0.22078
 N2134 N 0.69969 0.07669 0.21572
 C2135 C 0.72098 0.04877 0.22110
 N2136 N 0.71579 0.04339 0.23183
 N2137 N 0.72118 0.03304 0.23719
 C2138 C 0.73192 0.02766 0.23200
 N2139 N 0.73706 0.03299 0.22123
 N2140 N 0.73168 0.04334 0.21587
 C2141 C 0.19923 0.59419 0.19944
 N2142 N 0.18858 0.59971 0.20468
 N2143 N 0.18346 0.61028 0.19948
 C2144 C 0.18880 0.61570 0.18886
 N2145 N 0.19947 0.61020 0.18364
 N2146 N 0.20459 0.59963 0.18884
 C2147 C 0.20481 0.58245 0.20506
 N2148 N 0.21539 0.57689 0.19972
 N2149 N 0.22043 0.56621 0.20476
 C2150 C 0.21506 0.56068 0.21532
 N2151 N 0.20448 0.56625 0.22068
 N2152 N 0.19945 0.57694 0.21563
 C2153 C 0.22073 0.54901 0.22098
 N2154 N 0.21554 0.54362 0.23169
 N2155 N 0.22093 0.53326 0.23704
 C2156 C 0.23169 0.52790 0.23184
 N2157 N 0.23683 0.53324 0.22108
 N2158 N 0.23144 0.54360 0.21573
 C2159 C 0.19911 0.09372 0.69930
 N2160 N 0.20445 0.09919 0.68870
 N2161 N 0.19923 0.10967 0.68343
 C2162 C 0.18847 0.11507 0.68856
 N2163 N 0.18313 0.10962 0.69918
 N2164 N 0.18835 0.09913 0.70445
 C2165 C 0.20481 0.08208 0.70503
 N2166 N 0.19948 0.07658 0.71562
 N2167 N 0.20461 0.06598 0.72075
 C2168 C 0.21526 0.06048 0.71546
 N2169 N 0.22060 0.06600 0.70489
 N2170 N 0.21547 0.07660 0.69976
 C2171 C 0.22100 0.04885 0.72117
 N2172 N 0.23172 0.04345 0.71594
 N2173 N 0.23712 0.03310 0.72129
 C2174 C 0.23198 0.02774 0.73204
 N2175 N 0.22122 0.03309 0.73724
 N2176 N 0.21581 0.04345 0.73188
 C2177 C 0.30066 0.59408 0.30034
 N2178 N 0.29533 0.59952 0.31096
 N2179 N 0.30052 0.61001 0.31621
 C2180 C 0.31124 0.61544 0.31104
 N2181 N 0.31656 0.61002 0.30040
 N2182 N 0.31137 0.59953 0.29515
 C2183 C 0.29499 0.58244 0.29464
 N2184 N 0.30032 0.57695 0.28404
 N2185 N 0.29525 0.56631 0.27896
 C2186 C 0.28468 0.56076 0.28432
 N2187 N 0.27933 0.56627 0.29490
 N2188 N 0.28440 0.57690 0.29997
 C2189 C 0.27901 0.54909 0.27867
 N2190 N 0.26833 0.54367 0.28393
 N2191 N 0.26297 0.53329 0.27862
 C2192 C 0.26813 0.52793 0.26787
 N2193 N 0.27886 0.53331 0.26265
 N2194 N 0.28421 0.54369 0.26797
 C2195 C 0.30055 0.09408 0.80023
 N2196 N 0.31116 0.09964 0.79495
 N2197 N 0.31626 0.11021 0.80014
 C2198 C 0.31094 0.11561 0.81079
 N2199 N 0.30031 0.11007 0.81604
 N2200 N 0.29521 0.09950 0.81086
 C2201 C 0.29499 0.08235 0.79461
 N2202 N 0.28443 0.07677 0.79998
 N2203 N 0.27943 0.06608 0.79495
 C2204 C 0.28481 0.06056 0.78440
 N2205 N 0.29535 0.06615 0.77902
 N2206 N 0.30036 0.07684 0.78404
 C2207 C 0.27920 0.04885 0.77879
 N2208 N 0.28442 0.04344 0.76809
 N2209 N 0.27909 0.03304 0.76280
 C2210 C 0.26839 0.02763 0.76803
 N2211 N 0.26321 0.03299 0.77877
 N2212 N 0.26854 0.04339 0.78407
 C2213 C 0.80071 0.59418 0.80035
 N2214 N 0.79539 0.59961 0.81098
 N2215 N 0.80053 0.61016 0.81617
 C2216 C 0.81118 0.61566 0.81093
 N2217 N 0.81649 0.61025 0.80028
 N2218 N 0.81134 0.59970 0.79508
 C2219 C 0.79511 0.58246 0.79472
 N2220 N 0.80044 0.57695 0.78414
 N2221 N 0.79539 0.56629 0.77909
 C2222 C 0.78483 0.56072 0.78446
 N2223 N 0.77949 0.56624 0.79504
 N2224 N 0.78454 0.57691 0.80008
 C2225 C 0.77917 0.54904 0.77883
 N2226 N 0.76848 0.54362 0.78410
 N2227 N 0.76312 0.53324 0.77878
 C2228 C 0.76827 0.52788 0.76803
 N2229 N 0.77900 0.53326 0.76281
 N2230 N 0.78436 0.54363 0.76812
 C2231 C 0.80076 0.09398 0.30021
 N2232 N 0.81145 0.09944 0.29500
 N2233 N 0.81662 0.10997 0.30022
 C2234 C 0.81127 0.11541 0.31083
 N2235 N 0.80056 0.10998 0.31601
 N2236 N 0.79540 0.09945 0.31080
 C2237 C 0.79515 0.08228 0.29459
 N2238 N 0.78457 0.07676 0.29994
 N2239 N 0.77953 0.06607 0.29493
 C2240 C 0.78491 0.06051 0.28440
 N2241 N 0.79549 0.06605 0.27903
 N2242 N 0.80053 0.07673 0.28405
 C2243 C 0.77926 0.04882 0.27879
 N2244 N 0.78447 0.04339 0.26811
 N2245 N 0.77911 0.03300 0.26281
 C2246 C 0.76837 0.02765 0.26803
 N2247 N 0.76321 0.03304 0.27876
 N2248 N 0.76857 0.04342 0.28406
 C2249 C 0.69944 0.40576 0.30012
 N2250 N 0.68882 0.40024 0.29485
 N2251 N 0.68370 0.38966 0.30002
 C2252 C 0.68903 0.38421 0.31064
 N2253 N 0.69968 0.38971 0.31589
 N2254 N 0.70479 0.40029 0.31072
 C2255 C 0.70501 0.41751 0.29454
 N2256 N 0.71556 0.42306 0.29991
 N2257 N 0.72058 0.43376 0.29491
 C2258 C 0.71521 0.43931 0.28436
 N2259 N 0.70467 0.43375 0.27898
 N2260 N 0.69965 0.42305 0.28399
 C2261 C 0.72086 0.45101 0.27875
 N2262 N 0.71566 0.45643 0.26806
 N2263 N 0.72102 0.46682 0.26274
 C2264 C 0.73175 0.47218 0.26796
 N2265 N 0.73690 0.46681 0.27871
 N2266 N 0.73154 0.45643 0.28402
 C2267 C 0.69944 0.90583 0.80015
 N2268 N 0.68898 0.90015 0.79473
 N2269 N 0.68391 0.88952 0.79985
 C2270 C 0.68914 0.88419 0.81058
 N2271 N 0.69962 0.88985 0.81598
 N2272 N 0.70468 0.90047 0.81086
 C2273 C 0.70497 0.91761 0.79460
 N2274 N 0.71543 0.92325 0.80005
 N2275 N 0.72042 0.93397 0.79506
 C2276 C 0.71512 0.93944 0.78444
 N2277 N 0.70466 0.93380 0.77898
 N2278 N 0.69967 0.92308 0.78397
 C2279 C 0.72075 0.95115 0.77884
 N2280 N 0.71557 0.95654 0.76812
 N2281 N 0.72091 0.96694 0.76281
 C2282 C 0.73160 0.97234 0.76807
 N2283 N 0.73674 0.96700 0.77883
 N2284 N 0.73139 0.95661 0.78414
 C2285 C 0.19932 0.40568 0.80021
 N2286 N 0.18874 0.40011 0.79489
 N2287 N 0.18364 0.38952 0.80005
 C2288 C 0.18893 0.38410 0.81070
 N2289 N 0.19953 0.38965 0.81599
 N2290 N 0.20463 0.40024 0.81084
 C2291 C 0.20489 0.41743 0.79462
 N2292 N 0.21544 0.42300 0.80000
 N2293 N 0.22047 0.43368 0.79497
 C2294 C 0.21513 0.43921 0.78440
 N2295 N 0.20459 0.43364 0.77902
 N2296 N 0.19955 0.42295 0.78404
 C2297 C 0.22081 0.45088 0.77875
 N2298 N 0.21562 0.45629 0.76804
 N2299 N 0.22100 0.46665 0.76270
 C2300 C 0.23174 0.47201 0.76791
 N2301 N 0.23688 0.46666 0.77867
 N2302 N 0.23149 0.45630 0.78401
 C2303 C 0.19937 0.90579 0.30000
 N2304 N 0.18880 0.90022 0.29467
 N2305 N 0.18370 0.88962 0.29982
 C2306 C 0.18900 0.88421 0.31048
 N2307 N 0.19958 0.88977 0.31579
 N2308 N 0.20467 0.90036 0.31064
 C2309 C 0.20493 0.91754 0.29443
 N2310 N 0.21547 0.92310 0.29982
 N2311 N 0.22050 0.93379 0.29481
 C2312 C 0.21517 0.93933 0.28424
 N2313 N 0.20463 0.93376 0.27884
 N2314 N 0.19959 0.92307 0.28385
 C2315 C 0.22084 0.95100 0.27863
 N2316 N 0.21566 0.95642 0.26792
 N2317 N 0.22104 0.96678 0.26260
 C2318 C 0.23177 0.97214 0.26782
 N2319 N 0.23691 0.96677 0.27858
 N2320 N 0.23152 0.95640 0.28389
 C2321 C 0.40567 0.30058 0.69955
 N2322 N 0.40013 0.31121 0.70480
 N2323 N 0.38957 0.31635 0.69959
 C2324 C 0.38417 0.31105 0.68894
 N2325 N 0.38969 0.30040 0.68371
 N2326 N 0.40025 0.29526 0.68892
 C2327 C 0.41739 0.29498 0.70519
 N2328 N 0.42295 0.28440 0.69986
 N2329 N 0.43363 0.27936 0.70492
 C2330 C 0.43915 0.28471 0.71547
 N2331 N 0.43357 0.29528 0.72082
 N2332 N 0.42289 0.30032 0.71577
 C2333 C 0.45083 0.27905 0.72113
 N2334 N 0.45623 0.28424 0.73183
 N2335 N 0.46661 0.27887 0.73717
 C2336 C 0.47199 0.26814 0.73197
 N2337 N 0.46664 0.26299 0.72122
 N2338 N 0.45626 0.26836 0.71588
 C2339 C 0.40577 0.80075 0.19948
 N2340 N 0.40023 0.81138 0.20472
 N2341 N 0.38967 0.81651 0.19951
 C2342 C 0.38426 0.81119 0.18888
 N2343 N 0.38978 0.80053 0.18366
 N2344 N 0.40034 0.79541 0.18886
 C2345 C 0.41750 0.79517 0.20511
 N2346 N 0.42308 0.78461 0.19977
 N2347 N 0.43376 0.77958 0.20481
 C2348 C 0.43927 0.78494 0.21537
 N2349 N 0.43369 0.79549 0.22073
 N2350 N 0.42300 0.80052 0.21568
 C2351 C 0.45095 0.77928 0.22103
 N2352 N 0.45632 0.78446 0.23176
 N2353 N 0.46668 0.77907 0.23711
 C2354 C 0.47207 0.76834 0.23192
 N2355 N 0.46675 0.76321 0.22114
 N2356 N 0.45639 0.76859 0.21579
 C2357 C 0.90589 0.30094 0.19923
 N2358 N 0.90047 0.31169 0.20435
 N2359 N 0.89000 0.31692 0.19905
 C2360 C 0.88458 0.31158 0.18843
 N2361 N 0.88998 0.30081 0.18333
 N2362 N 0.90045 0.29559 0.18863
 C2363 C 0.91752 0.29525 0.20497
 N2364 N 0.92303 0.28462 0.19971
 N2365 N 0.93365 0.27953 0.20482
 C2366 C 0.93917 0.28489 0.21538
 N2367 N 0.93364 0.29551 0.22066
 N2368 N 0.92301 0.30061 0.21554
 C2369 C 0.95082 0.27921 0.22106
 N2370 N 0.95622 0.28442 0.23176
 N2371 N 0.96659 0.27905 0.23711
 C2372 C 0.97198 0.26831 0.23192
 N2373 N 0.96664 0.26316 0.22117
 N2374 N 0.95626 0.26852 0.21583
 C2375 C 0.90581 0.80088 0.69954
 N2376 N 0.90034 0.81157 0.70474
 N2377 N 0.88980 0.81675 0.69951
 C2378 C 0.88436 0.81142 0.68890
 N2379 N 0.88981 0.80071 0.68372
 N2380 N 0.90035 0.79554 0.68895
 C2381 C 0.91752 0.79527 0.70518
 N2382 N 0.92305 0.78466 0.69987
 N2383 N 0.93372 0.77961 0.70492
 C2384 C 0.93928 0.78499 0.71545
 N2385 N 0.93375 0.79559 0.72077
 N2386 N 0.92307 0.80064 0.71572
 C2387 C 0.95096 0.77932 0.72109
 N2388 N 0.95638 0.78452 0.73178
 N2389 N 0.96675 0.77914 0.73711
 C2390 C 0.97212 0.76839 0.73193
 N2391 N 0.96674 0.76324 0.72119
 N2392 N 0.95637 0.76861 0.71586
 C2393 C 0.59436 0.30060 0.30008
 N2394 N 0.59983 0.29526 0.31068
 N2395 N 0.61041 0.30039 0.31585
 C2396 C 0.61590 0.31104 0.31061
 N2397 N 0.61045 0.31636 0.29998
 N2398 N 0.59987 0.31123 0.29481
 C2399 C 0.58262 0.29501 0.29449
 N2400 N 0.57708 0.30035 0.28392
 N2401 N 0.56639 0.29530 0.27890
 C2402 C 0.56085 0.28474 0.28428
 N2403 N 0.56640 0.27940 0.29484
 N2404 N 0.57708 0.28445 0.29986
 C2405 C 0.54917 0.27906 0.27865
 N2406 N 0.54378 0.26837 0.28393
 N2407 N 0.53341 0.26298 0.27861
 C2408 C 0.52804 0.26810 0.26785
 N2409 N 0.53339 0.27883 0.26262
 N2410 N 0.54375 0.28422 0.26794
 C2411 C 0.59408 0.80096 0.80051
 N2412 N 0.59950 0.79568 0.81117
 N2413 N 0.61004 0.80083 0.81637
 C2414 C 0.61554 0.81147 0.81112
 N2415 N 0.61014 0.81674 0.80045
 N2416 N 0.59960 0.81159 0.79524
 C2417 C 0.58240 0.79532 0.79485
 N2418 N 0.57692 0.80060 0.78421
 N2419 N 0.56628 0.79552 0.77914
 C2420 C 0.56071 0.78497 0.78452
 N2421 N 0.56620 0.77968 0.79514
 N2422 N 0.57684 0.78476 0.80021
 C2423 C 0.54905 0.77928 0.77887
 N2424 N 0.54362 0.76861 0.78414
 N2425 N 0.53325 0.76324 0.77883
 C2426 C 0.52789 0.76837 0.76806
 N2427 N 0.53327 0.77908 0.76283
 N2428 N 0.54365 0.78445 0.76814
 C2429 C 0.09396 0.30069 0.80051
 N2430 N 0.09938 0.31143 0.79536
 N2431 N 0.10988 0.31662 0.80061
 C2432 C 0.11534 0.31128 0.81121
 N2433 N 0.10995 0.30052 0.81635
 N2434 N 0.09945 0.29533 0.81110
 C2435 C 0.08230 0.29503 0.79483
 N2436 N 0.07679 0.28442 0.80012
 N2437 N 0.06615 0.27934 0.79504
 C2438 C 0.06062 0.28471 0.78448
 N2439 N 0.06614 0.29531 0.77916
 N2440 N 0.07678 0.30039 0.78425
 C2441 C 0.04895 0.27904 0.77882
 N2442 N 0.04354 0.28424 0.76811
 N2443 N 0.03316 0.27889 0.76279
 C2444 C 0.02777 0.26817 0.76800
 N2445 N 0.03314 0.26301 0.77875
 N2446 N 0.04352 0.26836 0.78407
 C2447 C 0.09404 0.80092 0.30032
 N2448 N 0.09951 0.79556 0.31091
 N2449 N 0.11002 0.80075 0.31616
 C2450 C 0.11542 0.81149 0.31101
 N2451 N 0.10996 0.81683 0.30040
 N2452 N 0.09946 0.81164 0.29515
 C2453 C 0.08238 0.79525 0.29463
 N2454 N 0.07685 0.80058 0.28406
 N2455 N 0.06622 0.79548 0.27898
 C2456 C 0.06072 0.78488 0.28430
 N2457 N 0.06626 0.77953 0.29486
 N2458 N 0.07690 0.78463 0.29994
 C2459 C 0.04906 0.77918 0.27865
 N2460 N 0.04366 0.76849 0.28392
 N2461 N 0.03329 0.76311 0.27861
 C2462 C 0.02790 0.76825 0.26787
 N2463 N 0.03325 0.77898 0.26264
 N2464 N 0.04363 0.78436 0.26795
 C2465 C 0.59424 0.69946 0.69978
 N2466 N 0.59969 0.70477 0.68915
 N2467 N 0.61024 0.69962 0.68395
 C2468 C 0.61574 0.68896 0.68918
 N2469 N 0.61032 0.68366 0.69983
 N2470 N 0.59976 0.68881 0.70503
 C2471 C 0.58251 0.70506 0.70541
 N2472 N 0.57698 0.69972 0.71598
 N2473 N 0.56629 0.70477 0.72101
 C2474 C 0.56073 0.71533 0.71565
 N2475 N 0.56627 0.72068 0.70509
 N2476 N 0.57696 0.71563 0.70005
 C2477 C 0.54904 0.72100 0.72128
 N2478 N 0.54361 0.73169 0.71603
 N2479 N 0.53323 0.73707 0.72135
 C2480 C 0.52786 0.73194 0.73210
 N2481 N 0.53324 0.72120 0.73732
 N2482 N 0.54362 0.71582 0.73199
 C2483 C 0.59420 0.19900 0.19930
 N2484 N 0.59960 0.18823 0.20442
 N2485 N 0.61007 0.18300 0.19912
 C2486 C 0.61553 0.18835 0.18851
 N2487 N 0.61015 0.19913 0.18342
 N2488 N 0.59968 0.20436 0.18871
 C2489 C 0.58257 0.20469 0.20503
 N2490 N 0.57707 0.21533 0.19976
 N2491 N 0.56644 0.22043 0.20486
 C2492 C 0.56091 0.21506 0.21541
 N2493 N 0.56642 0.20443 0.22071
 N2494 N 0.57705 0.19933 0.21560
 C2495 C 0.54924 0.22074 0.22108
 N2496 N 0.54382 0.21554 0.23178
 N2497 N 0.53343 0.22090 0.23710
 C2498 C 0.52805 0.23163 0.23190
 N2499 N 0.53342 0.23679 0.22116
 N2500 N 0.54381 0.23143 0.21583
 C2501 C 0.09418 0.69939 0.19954
 N2502 N 0.09962 0.70474 0.18893
 N2503 N 0.11018 0.69960 0.18371
 C2504 C 0.11567 0.68893 0.18892
 N2505 N 0.11025 0.68360 0.19955
 N2506 N 0.09969 0.68874 0.20477
 C2507 C 0.08244 0.70498 0.20517
 N2508 N 0.07693 0.69962 0.21574
 N2509 N 0.06623 0.70465 0.22078
 C2510 C 0.06065 0.71521 0.21542
 N2511 N 0.06618 0.72057 0.20486
 N2512 N 0.07687 0.71554 0.19982
 C2513 C 0.04897 0.72087 0.22107
 N2514 N 0.04353 0.73155 0.21581
 N2515 N 0.03315 0.73692 0.22114
 C2516 C 0.02781 0.73179 0.23191
 N2517 N 0.03320 0.72107 0.23713
 N2518 N 0.04358 0.71569 0.23179
 C2519 C 0.09404 0.19920 0.69965
 N2520 N 0.09962 0.18862 0.70497
 N2521 N 0.11020 0.18349 0.69980
 C2522 C 0.11560 0.18875 0.68912
 N2523 N 0.11004 0.19935 0.68382
 N2524 N 0.09946 0.20448 0.68899
 C2525 C 0.08230 0.20480 0.70526
 N2526 N 0.07674 0.21535 0.69988
 N2527 N 0.06605 0.22041 0.70492
 C2528 C 0.06053 0.21509 0.71550
 N2529 N 0.06610 0.20455 0.72089
 N2530 N 0.07679 0.19949 0.71585
 C2531 C 0.04885 0.22079 0.72115
 N2532 N 0.04346 0.21563 0.73188
 N2533 N 0.03309 0.22102 0.73721
 C2534 C 0.02772 0.23175 0.73199
 N2535 N 0.03306 0.23687 0.72122
 N2536 N 0.04343 0.23147 0.71588
 C2537 C 0.40542 0.69959 0.29999
 N2538 N 0.40006 0.70479 0.31072
 N2539 N 0.38933 0.69984 0.31573
 C2540 C 0.38354 0.68951 0.31019
 N2541 N 0.38888 0.68431 0.29945
 N2542 N 0.39963 0.68926 0.29444
 C2543 C 0.41729 0.70504 0.29452
 N2544 N 0.42275 0.69978 0.28387
 N2545 N 0.43351 0.70476 0.27890
 C2546 C 0.43919 0.71517 0.28441
 N2547 N 0.43372 0.72042 0.29506
 N2548 N 0.42298 0.71544 0.30003
 C2549 C 0.45089 0.72084 0.27880
 N2550 N 0.45633 0.73148 0.28410
 N2551 N 0.46668 0.73688 0.27877
 C2552 C 0.47201 0.73182 0.26796
 N2553 N 0.46661 0.72114 0.26269
 N2554 N 0.45625 0.71573 0.26802
 C2555 C 0.40562 0.19919 0.80025
 N2556 N 0.40009 0.18858 0.79498
 N2557 N 0.38951 0.18345 0.80015
 C2558 C 0.38408 0.18875 0.81080
 N2559 N 0.38959 0.19937 0.81606
 N2560 N 0.40016 0.20450 0.81088
 C2561 C 0.41734 0.20480 0.79464
 N2562 N 0.42287 0.21537 0.79999
 N2563 N 0.43354 0.22043 0.79495
 C2564 C 0.43909 0.21510 0.78438
 N2565 N 0.43355 0.20454 0.77902
 N2566 N 0.42288 0.19947 0.78406
 C2567 C 0.45077 0.22078 0.77875
 N2568 N 0.45621 0.21560 0.76805
 N2569 N 0.46659 0.22098 0.76274
 C2570 C 0.47195 0.23171 0.76796
 N2571 N 0.46655 0.23685 0.77870
 N2572 N 0.45617 0.23147 0.78401
 C2573 C 0.90574 0.69947 0.80024
 N2574 N 0.90019 0.70486 0.81077
 N2575 N 0.88961 0.69973 0.81593
 C2576 C 0.88419 0.68902 0.81075
 N2577 N 0.88972 0.68364 0.80020
 N2578 N 0.90031 0.68877 0.79503
 C2579 C 0.91749 0.70506 0.79465
 N2580 N 0.92309 0.69967 0.78413
 N2581 N 0.93378 0.70472 0.77911
 C2582 C 0.93927 0.71533 0.78443
 N2583 N 0.93367 0.72071 0.79494
 N2584 N 0.92298 0.71567 0.79996
 C2585 C 0.95095 0.72101 0.77880
 N2586 N 0.95633 0.73172 0.78403
 N2587 N 0.96669 0.73710 0.77870
 C2588 C 0.97209 0.73195 0.76797
 N2589 N 0.96676 0.72120 0.76278
 N2590 N 0.95640 0.71581 0.76811
 C2591 C 0.90554 0.19943 0.30003
 N2592 N 0.90011 0.20471 0.31068
 N2593 N 0.88949 0.19963 0.31580
 C2594 C 0.88391 0.18908 0.31045
 N2595 N 0.88932 0.18382 0.29978
 N2596 N 0.89994 0.18891 0.29466
 C2597 C 0.91734 0.20497 0.29448
 N2598 N 0.92287 0.19966 0.28390
 N2599 N 0.93360 0.20468 0.27892
 C2600 C 0.93918 0.21519 0.28435
 N2601 N 0.93363 0.22050 0.29492
 N2602 N 0.92292 0.21548 0.29991
 C2603 C 0.95087 0.22086 0.27874
 N2604 N 0.95628 0.23153 0.28402
 N2605 N 0.96664 0.23694 0.27870
 C2606 C 0.97201 0.23184 0.26793
 N2607 N 0.96665 0.22112 0.26269
 N2608 N 0.95629 0.21572 0.26801
 C2609 C 0.30026 0.30034 0.59405
 N2610 N 0.29494 0.31096 0.59952
 N2611 N 0.30009 0.31611 0.61008
 C2612 C 0.31073 0.31082 0.61555
 N2613 N 0.31604 0.30017 0.61010
 N2614 N 0.31090 0.29502 0.59954
 C2615 C 0.29469 0.29475 0.58233
 N2616 N 0.30007 0.28418 0.57681
 N2617 N 0.29505 0.27915 0.56614
 C2618 C 0.28448 0.28452 0.56059
 N2619 N 0.27909 0.29509 0.56612
 N2620 N 0.28411 0.30012 0.57679
 C2621 C 0.27884 0.27888 0.54892
 N2622 N 0.26814 0.28412 0.54351
 N2623 N 0.26279 0.27877 0.53315
 C2624 C 0.26799 0.26802 0.52780
 N2625 N 0.27874 0.26283 0.53317
 N2626 N 0.28409 0.26817 0.54352
 C2627 C 0.30049 0.80050 0.09391
 N2628 N 0.29518 0.81114 0.09936
 N2629 N 0.30032 0.81630 0.10990
 C2630 C 0.31097 0.81102 0.11538
 N2631 N 0.31627 0.80036 0.10995
 N2632 N 0.31112 0.79519 0.09941
 C2633 C 0.29491 0.79489 0.08220
 N2634 N 0.30029 0.78431 0.07669
 N2635 N 0.29528 0.77927 0.06602
 C2636 C 0.28472 0.78465 0.06045
 N2637 N 0.27934 0.79522 0.06597
 N2638 N 0.28435 0.80026 0.07664
 C2639 C 0.27911 0.77900 0.04878
 N2640 N 0.26842 0.78425 0.04334
 N2641 N 0.26309 0.77891 0.03297
 C2642 C 0.26829 0.76815 0.02763
 N2643 N 0.27903 0.76295 0.03302
 N2644 N 0.28435 0.76829 0.04339
 C2645 C 0.80058 0.30065 0.09386
 N2646 N 0.81111 0.29525 0.09945
 N2647 N 0.81628 0.30043 0.10998
 C2648 C 0.81112 0.31122 0.11529
 N2649 N 0.80058 0.31661 0.10971
 N2650 N 0.79540 0.31143 0.09919
 C2651 C 0.79494 0.29501 0.08219
 N2652 N 0.78438 0.30040 0.07663
 N2653 N 0.77931 0.29534 0.06600
 C2654 C 0.78461 0.28470 0.06053
 N2655 N 0.79516 0.27930 0.06610
 N2656 N 0.80023 0.28437 0.07673
 C2657 C 0.77894 0.27904 0.04888
 N2658 N 0.78416 0.26833 0.04348
 N2659 N 0.77880 0.26299 0.03312
 C2660 C 0.76806 0.26821 0.02775
 N2661 N 0.76289 0.27896 0.03311
 N2662 N 0.76824 0.28430 0.04346
 C2663 C 0.80046 0.80068 0.59404
 N2664 N 0.79515 0.81132 0.59950
 N2665 N 0.80032 0.81650 0.61002
 C2666 C 0.81099 0.81124 0.61547
 N2667 N 0.81628 0.80058 0.61004
 N2668 N 0.81111 0.79539 0.59952
 C2669 C 0.79486 0.79506 0.58234
 N2670 N 0.80023 0.78448 0.57682
 N2671 N 0.79519 0.77944 0.56617
 C2672 C 0.78461 0.78479 0.56063
 N2673 N 0.77923 0.79536 0.56616
 N2674 N 0.78427 0.80041 0.57682
 C2675 C 0.77895 0.77914 0.54898
 N2676 N 0.76823 0.78437 0.54358
 N2677 N 0.76288 0.77902 0.53323
 C2678 C 0.76809 0.76829 0.52786
 N2679 N 0.77885 0.76310 0.53322
 N2680 N 0.78420 0.76844 0.54357
 C2681 C 0.30037 0.69950 0.40562
 N2682 N 0.29481 0.68913 0.39991
 N2683 N 0.29997 0.68396 0.38936
 C2684 C 0.31088 0.68896 0.38415
 N2685 N 0.31642 0.69934 0.38983
 N2686 N 0.31126 0.70452 0.40037
 C2687 C 0.29477 0.70512 0.41733
 N2688 N 0.30026 0.71557 0.42295
 N2689 N 0.29523 0.72062 0.43362
 C2690 C 0.28454 0.71539 0.43906
 N2691 N 0.27905 0.70495 0.43343
 N2692 N 0.28407 0.69990 0.42276
 C2693 C 0.27892 0.72104 0.45074
 N2694 N 0.26816 0.71588 0.45613
 N2695 N 0.26285 0.72123 0.46651
 C2696 C 0.26811 0.73190 0.47191
 N2697 N 0.27891 0.73703 0.46657
 N2698 N 0.28423 0.73168 0.45619
 C2699 C 0.30024 0.19937 0.90583
 N2700 N 0.29493 0.18874 0.90037
 N2701 N 0.30008 0.18358 0.88981
 C2702 C 0.31073 0.18886 0.88434
 N2703 N 0.31602 0.19950 0.88979
 N2704 N 0.31087 0.20466 0.90034
 C2705 C 0.29466 0.20496 0.91756
 N2706 N 0.30004 0.21552 0.92308
 N2707 N 0.29503 0.22055 0.93376
 C2708 C 0.28446 0.21520 0.93932
 N2709 N 0.27907 0.20465 0.93379
 N2710 N 0.28409 0.19961 0.92311
 C2711 C 0.27884 0.22085 0.95100
 N2712 N 0.26813 0.21564 0.95642
 N2713 N 0.26279 0.22100 0.96678
 C2714 C 0.26800 0.23174 0.97213
 N2715 N 0.27876 0.23690 0.96675
 N2716 N 0.28410 0.23154 0.95639
 C2717 C 0.80042 0.69960 0.90580
 N2718 N 0.81096 0.70499 0.90022
 N2719 N 0.81609 0.69985 0.88965
 C2720 C 0.81086 0.68914 0.88427
 N2721 N 0.80030 0.68377 0.88983
 N2722 N 0.79517 0.68891 0.90040
 C2723 C 0.79485 0.70519 0.91754
 N2724 N 0.78433 0.69978 0.92315
 N2725 N 0.77932 0.70480 0.93383
 C2726 C 0.78465 0.71541 0.93932
 N2727 N 0.79516 0.72083 0.93370
 N2728 N 0.80017 0.71580 0.92302
 C2729 C 0.77902 0.72105 0.95099
 N2730 N 0.78424 0.73176 0.95638
 N2731 N 0.77889 0.73711 0.96674
 C2732 C 0.76815 0.73192 0.97212
 N2733 N 0.76298 0.72117 0.96679
 N2734 N 0.76833 0.71581 0.95643
 C2735 C 0.80034 0.19954 0.40559
 N2736 N 0.81106 0.20475 0.40019
 N2737 N 0.81617 0.19964 0.38959
 C2738 C 0.81074 0.18914 0.38400
 N2739 N 0.79999 0.18396 0.38937
 N2740 N 0.79488 0.18907 0.39997
 C2741 C 0.79479 0.20507 0.41736
 N2742 N 0.78418 0.19975 0.42287
 N2743 N 0.77918 0.20473 0.43357
 C2744 C 0.78461 0.21522 0.43918
 N2745 N 0.79522 0.22055 0.43368
 N2746 N 0.80023 0.21556 0.42297
 C2747 C 0.77897 0.22085 0.45087
 N2748 N 0.78423 0.23152 0.45630
 N2749 N 0.77886 0.23687 0.46665
 C2750 C 0.76807 0.23172 0.47198
 N2751 N 0.76287 0.22101 0.46660
 N2752 N 0.76823 0.21566 0.45624
 C2753 C 0.69963 0.30045 0.40566
 N2754 N 0.68900 0.29515 0.40018
 N2755 N 0.68384 0.30032 0.38963
 C2756 C 0.68912 0.31097 0.38419
 N2757 N 0.69977 0.31625 0.38965
 N2758 N 0.70493 0.31108 0.40019
 C2759 C 0.70522 0.29484 0.41737
 N2760 N 0.71579 0.30018 0.42292
 N2761 N 0.72081 0.29514 0.43359
 C2762 C 0.71542 0.28459 0.43913
 N2763 N 0.70486 0.27923 0.43357
 N2764 N 0.69984 0.28427 0.42290
 C2765 C 0.72104 0.27893 0.45080
 N2766 N 0.71578 0.26825 0.45621
 N2767 N 0.72110 0.26289 0.46658
 C2768 C 0.73185 0.26806 0.47195
 N2769 N 0.73706 0.27879 0.46660
 N2770 N 0.73174 0.28414 0.45623
 C2771 C 0.69939 0.80073 0.90599
 N2772 N 0.68884 0.79534 0.90043
 N2773 N 0.68362 0.80055 0.88993
 C2774 C 0.68876 0.81134 0.88462
 N2775 N 0.69932 0.81670 0.89015
 N2776 N 0.70454 0.81150 0.90065
 C2777 C 0.70506 0.79507 0.91764
 N2778 N 0.71561 0.80044 0.92319
 N2779 N 0.72070 0.79537 0.93381
 C2780 C 0.71539 0.78474 0.93930
 N2781 N 0.70485 0.77935 0.93374
 N2782 N 0.69977 0.78442 0.92311
 C2783 C 0.72105 0.77908 0.95095
 N2784 N 0.71582 0.76837 0.95635
 N2785 N 0.72116 0.76303 0.96671
 C2786 C 0.73190 0.76822 0.97209
 N2787 N 0.73709 0.77897 0.96674
 N2788 N 0.73175 0.78432 0.95637
 C2789 C 0.19924 0.30046 0.90593
 N2790 N 0.18870 0.29507 0.90036
 N2791 N 0.18351 0.30026 0.88984
 C2792 C 0.18866 0.31104 0.88452
 N2793 N 0.19921 0.31642 0.89007
 N2794 N 0.20441 0.31122 0.90059
 C2795 C 0.20489 0.29482 0.91760
 N2796 N 0.21545 0.30020 0.92315
 N2797 N 0.22053 0.29514 0.93378
 C2798 C 0.21522 0.28452 0.93928
 N2799 N 0.20468 0.27913 0.93372
 N2800 N 0.19960 0.28419 0.92308
 C2801 C 0.22089 0.27887 0.95093
 N2802 N 0.21567 0.26817 0.95635
 N2803 N 0.22102 0.26284 0.96672
 C2804 C 0.23177 0.26803 0.97207
 N2805 N 0.23695 0.27878 0.96670
 N2806 N 0.23159 0.28411 0.95634
 C2807 C 0.19937 0.80064 0.40578
 N2808 N 0.18883 0.79524 0.40021
 N2809 N 0.18364 0.80042 0.38969
 C2810 C 0.18878 0.81120 0.38436
 N2811 N 0.19933 0.81658 0.38991
 N2812 N 0.20453 0.81140 0.40043
 C2813 C 0.20503 0.79500 0.41745
 N2814 N 0.21558 0.80039 0.42299
 N2815 N 0.22066 0.79533 0.43363
 C2816 C 0.21536 0.78471 0.43912
 N2817 N 0.20482 0.77931 0.43357
 N2818 N 0.19974 0.78437 0.42293
 C2819 C 0.22103 0.77905 0.45078
 N2820 N 0.21582 0.76835 0.45619
 N2821 N 0.22117 0.76301 0.46655
 C2822 C 0.23191 0.76820 0.47191
 N2823 N 0.23709 0.77895 0.46655
 N2824 N 0.23173 0.78429 0.45618
 C2825 C 0.69962 0.69966 0.59417
 N2826 N 0.70495 0.68903 0.59964
 N2827 N 0.69981 0.68388 0.61021
 C2828 C 0.68915 0.68916 0.61568
 N2829 N 0.68385 0.69981 0.61023
 N2830 N 0.68899 0.70497 0.59967
 C2831 C 0.70521 0.70527 0.58245
 N2832 N 0.69983 0.71585 0.57694
 N2833 N 0.70485 0.72089 0.56626
 C2834 C 0.71543 0.71553 0.56071
 N2835 N 0.72082 0.70496 0.56624
 N2836 N 0.71579 0.69992 0.57691
 C2837 C 0.72106 0.72119 0.54904
 N2838 N 0.73177 0.71596 0.54361
 N2839 N 0.73710 0.72131 0.53324
 C2840 C 0.73189 0.73206 0.52789
 N2841 N 0.72113 0.73724 0.53327
 N2842 N 0.71580 0.73189 0.54364
 C2843 C 0.69953 0.19939 0.09393
 N2844 N 0.68899 0.20477 0.09953
 N2845 N 0.68382 0.19957 0.11005
 C2846 C 0.68899 0.18878 0.11535
 N2847 N 0.69955 0.18341 0.10977
 N2848 N 0.70472 0.18862 0.09925
 C2849 C 0.70515 0.20506 0.08226
 N2850 N 0.71570 0.19969 0.07667
 N2851 N 0.72076 0.20478 0.06604
 C2852 C 0.71543 0.21542 0.06059
 N2853 N 0.70489 0.22080 0.06618
 N2854 N 0.69984 0.21571 0.07682
 C2855 C 0.72107 0.22111 0.04893
 N2856 N 0.71583 0.23183 0.04357
 N2857 N 0.72115 0.23719 0.03320
 C2858 C 0.73188 0.23199 0.02778
 N2859 N 0.73708 0.22123 0.03311
 N2860 N 0.73176 0.21587 0.04348
 C2861 C 0.19958 0.69961 0.09390
 N2862 N 0.18895 0.70493 0.09939
 N2863 N 0.18379 0.69977 0.10994
 C2864 C 0.18908 0.68912 0.11540
 N2865 N 0.19973 0.68382 0.10993
 N2866 N 0.20489 0.68897 0.09938
 C2867 C 0.20519 0.70521 0.08219
 N2868 N 0.21577 0.69984 0.07665
 N2869 N 0.22082 0.70488 0.06599
 C2870 C 0.21546 0.71546 0.06046
 N2871 N 0.20489 0.72084 0.06600
 N2872 N 0.19984 0.71580 0.07666
 C2873 C 0.22113 0.72111 0.04880
 N2874 N 0.21591 0.73182 0.04339
 N2875 N 0.22127 0.73716 0.03303
 C2876 C 0.23202 0.73196 0.02767
 N2877 N 0.23720 0.72120 0.03303
 N2878 N 0.23183 0.71586 0.04339
 C2879 C 0.19936 0.19921 0.59402
 N2880 N 0.20478 0.18868 0.59958
 N2881 N 0.19961 0.18349 0.61011
 C2882 C 0.18882 0.18863 0.61545
 N2883 N 0.18341 0.19917 0.60990
 N2884 N 0.18858 0.20437 0.59938
 C2885 C 0.20499 0.20487 0.58234
 N2886 N 0.19958 0.21542 0.57680
 N2887 N 0.20463 0.22051 0.56616
 C2888 C 0.21527 0.21521 0.56067
 N2889 N 0.22070 0.20468 0.56622
 N2890 N 0.21564 0.19960 0.57686
 C2891 C 0.22093 0.22089 0.54901
 N2892 N 0.23165 0.21569 0.54361
 N2893 N 0.23699 0.22104 0.53324
 C2894 C 0.23177 0.23177 0.52788
 N2895 N 0.22099 0.23694 0.53324
 N2896 N 0.21566 0.23158 0.54360
   
