data_POSCAR
  _audit_creation_date              2014-09-24
  _audit_creation_method            'ToBaCCo'
  _symmetry_space_group_name_H-M    'P1'
  _symmetry_Int_Tables_number       1
  _symmetry_cell_setting            triclinic
  loop_
  _symmetry_equiv_pos_as_xyz
 x,y,z
_cell_length_a 46.3489
_cell_length_b 46.1422
_cell_length_c 48.2953
_cell_angle_alpha 90.219100
_cell_angle_beta 90.013600
_cell_angle_gamma 90.002300
loop_
  _atom_site_label
  _atom_site_type_symbol
  _atom_site_fract_x
  _atom_site_fract_y
  _atom_site_fract_z
C1 C 0.36445 1.33426 0.33324
 C2 C 0.35081 1.31985 0.35501
 C3 C 0.33189 1.33459 0.37215
 C4 C 0.32679 1.36425 0.36789
 C5 C 0.34054 1.37852 0.34645
 C6 C 0.35923 1.36334 0.32881
 C7 C 0.38266 1.32482 0.31272
 N8 N 0.38845 1.34747 0.29570
 C9 C 0.37422 1.37115 0.30540
 C10 C 0.33123 1.40678 0.34677
 N11 N 0.31195 1.41003 0.36776
 C12 C 0.30910 1.38412 0.38080
 C13 C 0.32120 1.31476 0.39079
 N14 N 0.33337 1.28856 0.38526
 C15 C 0.35149 1.29150 0.36345
 H16 H 0.39039 1.30286 0.31007
 H17 H 0.37450 1.39239 0.29596
 H18 H 0.33758 1.42344 0.33228
 H19 H 0.29496 1.37992 0.39818
 H20 H 0.30582 1.31910 0.40714
 H21 H 0.36402 1.27416 0.35425
 C22 C 0.34467 0.81787 0.80993
 C23 C 0.32770 0.79569 0.82122
 C24 C 0.29960 0.80137 0.82883
 C25 C 0.28846 0.82934 0.82641
 C26 C 0.30558 0.85187 0.81709
 C27 C 0.33374 0.84578 0.80749
 C28 C 0.37210 0.81791 0.79920
 N29 N 0.37792 0.84476 0.78934
 C30 C 0.35478 0.86210 0.79446
 C31 C 0.29021 0.87720 0.82204
 N32 N 0.26407 0.86999 0.83296
 C33 C 0.26284 0.84073 0.83519
 C34 C 0.28905 0.77718 0.84181
 N35 N 0.31023 0.75695 0.84266
 C36 C 0.33391 0.76790 0.82981
 H37 H 0.38616 0.79928 0.79723
 H38 H 0.35306 0.88461 0.78840
 H39 H 0.29770 0.89912 0.81861
 H40 H 0.24557 0.82867 0.84493
 H41 H 0.26834 0.77547 0.85204
 H42 H 0.35470 0.75727 0.82867
 C43 C 0.88196 1.35184 0.84283
 C44 C 0.86395 1.33231 0.85733
 C45 C 0.84392 1.34308 0.87614
 C46 C 0.84179 1.37297 0.88108
 C47 C 0.86048 1.39169 0.86806
 C48 C 0.88089 1.38108 0.84940
 C49 C 0.90072 1.34931 0.82049
 N50 N 0.91159 1.37608 0.81468
 C51 C 0.89977 1.39538 0.83259
 C52 C 0.85178 1.41947 0.87402
 N53 N 0.82776 1.41815 0.89004
 C54 C 0.82184 1.38975 0.89500
 C55 C 0.82947 1.31992 0.88726
 N56 N 0.84062 1.29511 0.87655
 C57 C 0.86157 1.30235 0.85804
 H58 H 0.90575 1.32965 0.80916
 H59 H 0.90280 1.41865 0.83195
 H60 H 0.86104 1.43900 0.86544
 H61 H 0.80314 1.38184 0.90610
 H62 H 0.81307 1.32104 0.90319
 H63 H 0.87464 1.28699 0.84659
 C64 C 0.85967 0.82892 0.32496
 C65 C 0.84704 0.81466 0.34763
 C66 C 0.82822 0.82954 0.36484
 C67 C 0.82212 0.85888 0.35994
 C68 C 0.83473 0.87283 0.33775
 C69 C 0.85333 0.85774 0.32005
 C70 C 0.87836 0.82010 0.30438
 N71 N 0.88322 0.84289 0.28713
 C72 C 0.86793 0.86594 0.29660
 C73 C 0.82500 0.90095 0.33780
 N74 N 0.80668 0.90442 0.35947
 C75 C 0.80469 0.87882 0.37310
 C76 C 0.81889 0.81041 0.38470
 N77 N 0.83166 0.78432 0.38010
 C78 C 0.84898 0.78671 0.35753
 H79 H 0.88748 0.79863 0.30214
 H80 H 0.86754 0.88721 0.28719
 H81 H 0.83051 0.91747 0.32286
 H82 H 0.79137 0.87496 0.39114
 H83 H 0.80410 0.81528 0.40142
 H84 H 0.86189 0.76935 0.34889
 C85 C 0.62138 0.65026 0.34064
 C86 C 0.63986 0.66903 0.35561
 C87 C 0.66093 0.65739 0.37277
 C88 C 0.66374 0.62719 0.37542
 C89 C 0.64455 0.60917 0.36200
 C90 C 0.62305 0.62071 0.34520
 C91 C 0.60135 0.65399 0.31953
 N92 N 0.59028 0.62752 0.31270
 C93 C 0.60325 0.60728 0.32864
 C94 C 0.65371 0.58117 0.36548
 N95 N 0.67836 0.58155 0.38053
 C96 C 0.68447 0.60957 0.38718
 C97 C 0.67523 0.68013 0.38510
 N98 N 0.66298 0.70537 0.37672
 C99 C 0.64153 0.69888 0.35844
 H100 H 0.59552 0.67424 0.30976
 H101 H 0.60026 0.58408 0.32667
 H102 H 0.64418 0.56216 0.35601
 H103 H 0.70372 0.61674 0.39792
 H104 H 0.69226 0.67828 0.40033
 H105 H 0.62752 0.71462 0.34875
 C106 C 0.63860 0.16705 0.82725
 C107 C 0.65266 0.18090 0.84943
 C108 C 0.67256 0.16579 0.86510
 C109 C 0.67836 0.13666 0.85912
 C110 C 0.66448 0.12296 0.83738
 C111 C 0.64469 0.13835 0.82114
 C112 C 0.61879 0.17642 0.80803
 N113 N 0.61302 0.15419 0.79025
 C114 C 0.62881 0.13085 0.79814
 C115 C 0.67448 0.09488 0.83637
 N116 N 0.69420 0.09138 0.85694
 C117 C 0.69670 0.11685 0.87090
 C118 C 0.68324 0.18449 0.88480
 N119 N 0.67024 0.21062 0.88157
 C120 C 0.65146 0.20865 0.86005
 H121 H 0.60975 0.19800 0.80689
 H122 H 0.62878 0.10994 0.78788
 H123 H 0.66811 0.07848 0.82150
 H124 H 0.71097 0.12075 0.88829
 H125 H 0.69913 0.17933 0.90044
 H126 H 0.63801 0.22617 0.85263
 C127 C 1.13966 0.66505 0.83400
 C128 C 1.15532 0.68062 0.85385
 C129 C 1.17659 0.66703 0.86911
 C130 C 1.18212 0.63744 0.86493
 C131 C 1.16660 0.62202 0.84529
 C132 C 1.14540 0.63601 0.82949
 C133 C 1.11822 0.67303 0.81597
 N134 N 1.11099 0.64960 0.80040
 C135 C 1.12749 0.62683 0.80843
 C136 C 1.17632 0.59387 0.84587
 N137 N 1.19740 0.59184 0.86538
 C138 C 1.20111 0.61841 0.87707
 C139 C 1.18827 0.68755 0.88662
 N140 N 1.17439 0.71308 0.88232
 C141 C 1.15420 0.70902 0.86238
 H142 H 1.10904 0.69448 0.81393
 H143 H 1.12655 0.60527 0.79954
 H144 H 1.16859 0.57630 0.83294
 H145 H 1.21649 0.62354 0.89325
 H146 H 1.20527 0.68402 0.90161
 H147 H 1.13971 0.72556 0.85470
 C148 C 1.13426 0.16831 0.33271
 C149 C 1.14821 0.18180 0.35505
 C150 C 1.16819 0.16662 0.37058
 C151 C 1.17421 0.13756 0.36413
 C152 C 1.16035 0.12424 0.34211
 C153 C 1.14050 0.13982 0.32610
 C154 C 1.11463 0.17813 0.31355
 N155 N 1.10912 0.15636 0.29523
 C156 C 1.12487 0.13285 0.30277
 C157 C 1.17051 0.09629 0.34045
 N158 N 1.19035 0.09235 0.36085
 C159 C 1.19277 0.11751 0.37539
 C160 C 1.17880 0.18539 0.39036
 N161 N 1.16566 0.21149 0.38714
 C162 C 1.14691 0.20947 0.36565
 H163 H 1.10568 0.19977 0.31273
 H164 H 1.12508 0.11223 0.29197
 H165 H 1.16417 0.08028 0.32520
 H166 H 1.20713 0.12105 0.39277
 H167 H 1.19488 0.18038 0.40588
 H168 H 1.13349 0.22697 0.35813
 C169 C 0.62595 1.37130 0.66323
 C170 C 0.61353 1.35060 0.64588
 C171 C 0.63069 1.33200 0.63078
 C172 C 0.66087 1.33457 0.63234
 C173 C 0.67345 1.35486 0.64995
 C174 C 0.65559 1.37277 0.66658
 C175 C 0.61349 1.39103 0.68064
 N176 N 0.63446 1.40383 0.69587
 C177 C 0.66041 1.39265 0.68785
 C178 C 0.70300 1.35327 0.64553
 N179 N 0.70834 1.33261 0.62594
 C180 C 0.68270 1.32084 0.61820
 C181 C 0.61243 1.31230 0.61815
 N182 N 0.58486 1.31843 0.62585
 C183 C 0.58538 1.34211 0.64251
 H184 H 0.59054 1.39453 0.68327
 H185 H 0.68109 1.39872 0.69653
 H186 H 0.71928 1.36682 0.65512
 H187 H 0.67990 1.30454 0.60225
 H188 H 0.61887 1.29378 0.60578
 H189 H 0.56689 1.35147 0.65289
 C190 C 0.63855 0.86622 1.16824
 C191 C 0.62272 0.84844 1.15035
 C192 C 0.63610 0.83530 1.12799
 C193 C 0.66557 0.84008 1.12313
 C194 C 0.68107 0.85816 1.14058
 C195 C 0.66747 0.87130 1.16330
 C196 C 0.63142 0.88014 1.19247
 N197 N 0.65527 0.89377 1.20228
 C198 C 0.67746 0.88861 1.18449
 C199 C 0.70913 0.85837 1.13138
 N200 N 0.71109 0.84076 1.10891
 C201 C 0.68458 0.82942 1.10367
 C202 C 0.61580 0.81801 1.11530
 N203 N 0.59057 0.82056 1.12938
 C204 C 0.59458 0.83915 1.15085
 H205 H 0.61045 0.88011 1.20237
 H206 H 0.69941 0.89614 1.18704
 H207 H 0.72694 0.87018 1.14054
 H208 H 0.67945 0.81455 1.08700
 H209 H 0.61930 0.80398 1.09759
 H210 H 0.57859 0.84469 1.16630
 C211 C 1.14323 1.35926 1.17604
 C212 C 1.12764 1.34138 1.15795
 C213 C 1.14111 1.32908 1.13522
 C214 C 1.17037 1.33480 1.13011
 C215 C 1.18568 1.35286 1.14772
 C216 C 1.17201 1.36509 1.17094
 C217 C 1.13576 1.37337 1.20013
 N218 N 1.15928 1.38768 1.20976
 C219 C 1.18157 1.38282 1.19203
 C220 C 1.21342 1.35463 1.13760
 N221 N 1.21534 1.33796 1.11440
 C222 C 1.18908 1.32568 1.10973
 C223 C 1.12089 1.31222 1.12183
 N224 N 1.09558 1.31420 1.13585
 C225 C 1.09950 1.33201 1.15797
 H226 H 1.11477 1.37327 1.20995
 H227 H 1.20321 1.39128 1.19438
 H228 H 1.23095 1.36704 1.14654
 H229 H 1.18373 1.31133 1.09272
 H230 H 1.12437 1.29921 1.10342
 H231 H 1.08329 1.33734 1.17330
 C232 C 1.13746 0.86222 0.67102
 C233 C 1.12142 0.84342 0.65418
 C234 C 1.13450 0.82955 0.63203
 C235 C 1.16380 0.83444 0.62638
 C236 C 1.17944 0.85335 0.64285
 C237 C 1.16622 0.86727 0.66527
 C238 C 1.13082 0.87741 0.69471
 N239 N 1.15486 0.89161 0.70328
 C240 C 1.17663 0.88560 0.68539
 C241 C 1.20725 0.85363 0.63311
 N242 N 1.20897 0.83525 0.61122
 C243 C 1.18252 0.82333 0.60689
 C244 C 1.11415 0.81166 0.62024
 N245 N 1.08916 0.81444 0.63467
 C246 C 1.09338 0.83384 0.65546
 H247 H 1.11015 0.87789 0.70515
 H248 H 1.19858 0.89339 0.68720
 H249 H 1.22505 0.86608 0.64148
 H250 H 1.17726 0.80782 0.59081
 H251 H 1.11745 0.79713 0.60286
 H252 H 1.07754 0.83991 0.67089
 C253 C 0.36230 0.64058 0.67399
 C254 C 0.37703 0.65919 0.65599
 C255 C 0.36223 0.67291 0.63490
 C256 C 0.33264 0.66809 0.63138
 C257 C 0.31815 0.64929 0.64873
 C258 C 0.33309 0.63549 0.67027
 C259 C 0.37098 0.62486 0.69668
 N260 N 0.34783 0.61028 0.70668
 C261 C 0.32456 0.61658 0.69064
 C262 C 0.28983 0.64844 0.64000
 N263 N 0.28691 0.66642 0.61794
 C264 C 0.31301 0.67865 0.61264
 C265 C 0.38165 0.68997 0.62098
 N266 N 0.40790 0.68683 0.63300
 C267 C 0.40535 0.66807 0.65449
 H268 H 0.39257 0.62398 0.70525
 H269 H 0.30294 0.60827 0.69364
 H270 H 0.27265 0.63568 0.64905
 H271 H 0.31768 0.69378 0.59616
 H272 H 0.37699 0.70392 0.60355
 H273 H 0.42260 0.66176 0.66832
 C274 C 0.36232 0.13862 1.17029
 C275 C 0.37809 0.15775 1.15382
 C276 C 0.36484 0.17195 1.13207
 C277 C 0.33551 0.16694 1.12645
 C278 C 0.32010 0.14763 1.14257
 C279 C 0.33356 0.13344 1.16464
 C280 C 0.36938 0.12308 1.19350
 N281 N 0.34560 0.10852 1.20197
 C282 C 0.32355 0.11461 1.18443
 C283 C 0.29227 0.14718 1.13285
 N284 N 0.29025 0.16582 1.11126
 C285 C 0.31662 0.17811 1.10720
 C286 C 0.38519 0.19000 1.12055
 N287 N 0.41028 0.18691 1.13479
 C288 C 0.40613 0.16722 1.15517
 H289 H 0.39019 0.12261 1.20369
 H290 H 0.30172 0.10651 1.18626
 H291 H 0.27468 0.13434 1.14103
 H292 H 0.32180 0.19391 1.09146
 H293 H 0.38186 0.20475 1.10346
 H294 H 0.42204 0.16077 1.17034
 C295 C 0.86395 0.64240 1.17603
 C296 C 0.87842 0.66311 1.16002
 C297 C 0.86395 0.67753 1.13912
 C298 C 0.83477 0.67139 1.13394
 C299 C 0.82064 0.65069 1.14951
 C300 C 0.83532 0.63611 1.17064
 C301 C 0.87231 0.62557 1.19812
 N302 N 0.84948 0.60915 1.20600
 C303 C 0.82677 0.61541 1.18930
 C304 C 0.79266 0.64924 1.14012
 N305 N 0.78942 0.66866 1.11935
 C306 C 0.81506 0.68233 1.11537
 C307 C 0.88322 0.69653 1.12731
 N308 N 0.90896 0.69388 1.14048
 C309 C 0.90622 0.67351 1.16055
 H310 H 0.89339 0.62528 1.20777
 H311 H 0.80545 0.60600 1.19086
 H312 H 0.77580 0.63524 1.14794
 H313 H 0.81915 0.69892 1.10009
 H314 H 0.87882 0.71134 1.11049
 H315 H 0.92307 0.66689 1.17469
 C316 C 0.85981 0.13833 0.67306
 C317 C 0.87512 0.15739 0.65616
 C318 C 0.86160 0.17069 0.63408
 C319 C 0.83242 0.16482 0.62855
 C320 C 0.81738 0.14553 0.64506
 C321 C 0.83119 0.13220 0.66752
 C322 C 0.86739 0.12359 0.69657
 N323 N 0.84414 0.10841 0.70544
 C324 C 0.82184 0.11343 0.68773
 C325 C 0.78953 0.14434 0.63521
 N326 N 0.78727 0.16249 0.61328
 C327 C 0.81339 0.17513 0.60903
 C328 C 0.88159 0.18887 0.62213
 N329 N 0.90674 0.18664 0.63641
 C330 C 0.90297 0.16743 0.65727
 H331 H 0.88830 0.12401 0.70659
 H332 H 0.80029 0.10464 0.68962
 H333 H 0.77208 0.13145 0.64356
 H334 H 0.81824 0.19069 0.59298
 H335 H 0.87799 0.20304 0.60465
 H336 H 0.91902 0.16167 0.67256
 C337 C 1.35884 0.35691 0.67913
 C338 C 1.33902 0.37222 0.66291
 C339 C 1.32509 0.35855 0.64117
 C340 C 1.33092 0.32933 0.63527
 C341 C 1.35085 0.31426 0.65099
 C342 C 1.36491 0.32818 0.67316
 C343 C 1.37504 0.36473 0.70182
 N344 N 1.39093 0.34154 0.70974
 C345 C 1.38497 0.31907 0.69234
 C346 C 1.35231 0.28653 0.64026
 N347 N 1.33364 0.28443 0.61861
 C348 C 1.32044 0.31056 0.61548
 C349 C 1.30702 0.37864 0.62925
 N350 N 1.30979 0.40409 0.64319
 C351 C 1.32929 0.40036 0.66385
 H352 H 1.37533 0.38577 0.71182
 H353 H 1.39426 0.29760 0.69365
 H354 H 1.36593 0.26916 0.64772
 H355 H 1.30458 0.31580 0.59983
 H356 H 1.29282 0.37502 0.61176
 H357 H 1.33582 0.41677 0.67864
 C358 C 1.38122 0.88451 1.15023
 C359 C 1.36002 0.89666 1.13352
 C360 C 1.34148 0.87912 1.11882
 C361 C 1.34470 0.84888 1.11999
 C362 C 1.36558 0.83652 1.13688
 C363 C 1.38330 0.85474 1.15335
 C364 C 1.40015 0.89741 1.16800
 N365 N 1.41297 0.87664 1.18336
 C366 C 1.40269 0.85032 1.17495
 C367 C 1.36441 0.80682 1.13217
 N368 N 1.34341 0.80119 1.11306
 C369 C 1.33089 0.82685 1.10618
 C370 C 1.32071 0.89698 1.10755
 N371 N 1.32613 0.92469 1.11576
 C372 C 1.35043 0.92468 1.13132
 H373 H 1.40256 0.92055 1.17118
 H374 H 1.40860 0.82971 1.18396
 H375 H 1.37845 0.79068 1.14125
 H376 H 1.31407 0.82976 1.09091
 H377 H 1.30181 0.89007 1.09611
 H378 H 1.35927 0.94328 1.14207
 C379 C 0.86143 0.36104 1.17705
 C380 C 0.84159 0.37666 1.16112
 C381 C 0.82816 0.36350 1.13880
 C382 C 0.83444 0.33463 1.13206
 C383 C 0.85443 0.31935 1.14745
 C384 C 0.86806 0.33267 1.17013
 C385 C 0.87679 0.36794 1.20052
 N386 N 0.89277 0.34455 1.20790
 C387 C 0.88768 0.32287 1.18934
 C388 C 0.85600 0.29189 1.13629
 N389 N 0.83732 0.29017 1.11463
 C390 C 0.82400 0.31626 1.11193
 C391 C 0.80958 0.38341 1.12754
 N392 N 0.81151 0.40834 1.14239
 C393 C 0.83101 0.40447 1.16304
 H394 H 0.87628 0.38848 1.21149
 H395 H 0.89696 0.30135 1.18998
 H396 H 0.86958 0.27438 1.14356
 H397 H 0.80797 0.32169 1.09649
 H398 H 0.79543 0.37993 1.10998
 H399 H 0.83674 0.42046 1.17856
 C400 C 0.86241 0.86532 0.66934
 C401 C 0.84190 0.87942 0.65269
 C402 C 0.82728 0.86400 0.63241
 C403 C 0.83291 0.83447 0.62842
 C404 C 0.85338 0.82075 0.64448
 C405 C 0.86821 0.83624 0.66496
 C406 C 0.87946 0.87427 0.69121
 N407 N 0.89549 0.85134 0.69976
 C408 C 0.88875 0.82805 0.68380
 C409 C 0.85436 0.79224 0.63621
 N410 N 0.83481 0.78834 0.61565
 C411 C 0.82156 0.81404 0.61068
 C412 C 0.80853 0.88278 0.61971
 N413 N 0.81145 0.90926 0.63162
 C414 C 0.83177 0.90748 0.65187
 H415 H 0.88020 0.89578 0.70022
 H416 H 0.89770 0.80652 0.68606
 H417 H 0.86812 0.77548 0.64464
 H418 H 0.80502 0.81770 0.59527
 H419 H 0.79368 0.87754 0.60312
 H420 H 0.83845 0.92513 0.66522
 C421 C 0.64512 0.63646 0.67537
 C422 C 0.66158 0.62036 0.65655
 C423 C 0.67274 0.63347 0.63316
 C424 C 0.66712 0.66290 0.62813
 C425 C 0.65040 0.67867 0.64655
 C426 C 0.63949 0.66539 0.67039
 C427 C 0.63269 0.62956 0.70032
 N428 N 0.61961 0.65360 0.71053
 C429 C 0.62359 0.67565 0.69236
 C430 C 0.64848 0.70650 0.63661
 N431 N 0.66373 0.70807 0.61271
 C432 C 0.67529 0.68154 0.60735
 C433 C 0.68909 0.61293 0.61957
 N434 N 0.68786 0.58782 0.63411
 C435 C 0.67103 0.59215 0.65672
 H436 H 0.63316 0.60863 0.71038
 H437 H 0.61579 0.69760 0.69500
 H438 H 0.63697 0.72437 0.64612
 H439 H 0.68846 0.67608 0.58958
 H440 H 0.70155 0.61619 0.60087
 H441 H 0.66684 0.57633 0.67271
 C442 C 0.61953 1.11530 1.15062
 C443 C 0.63992 1.10427 1.13210
 C444 C 0.65753 1.12288 1.11771
 C445 C 0.65442 1.15286 1.12109
 C446 C 0.63429 1.16420 1.13944
 C447 C 0.61734 1.14490 1.15548
 C448 C 0.60137 1.10137 1.16841
 N449 N 0.58891 1.12124 1.18532
 C450 C 0.59866 1.14803 1.17790
 C451 C 0.63584 1.19422 1.13677
 N452 N 0.65659 1.20081 1.11769
 C453 C 0.66826 1.17549 1.10861
 C454 C 0.67768 1.10620 1.10402
 N455 N 0.67295 1.07794 1.11029
 C456 C 0.64961 1.07652 1.12721
 H457 H 0.59906 1.07808 1.17023
 H458 H 0.59271 1.16815 1.18798
 H459 H 0.62260 1.20994 1.14756
 H460 H 0.68468 1.17330 1.09282
 H461 H 0.69577 1.11418 1.09208
 H462 H 0.64161 1.05706 1.13700
 C463 C 0.14993 0.65176 1.18238
 C464 C 0.17590 0.64346 1.16982
 C465 C 0.18525 0.65712 1.14593
 C466 C 0.16881 0.67964 1.13446
 C467 C 0.14266 0.68710 1.14639
 C468 C 0.13342 0.67337 1.17063
 C469 C 0.13543 0.64215 1.20555
 N470 N 0.11074 0.65775 1.20827
 C471 C 0.10934 0.67680 1.18685
 C472 C 0.13030 0.70806 1.13011
 N473 N 0.14875 0.71413 1.10915
 C474 C 0.17251 0.69717 1.11163
 C475 C 0.20949 0.64258 1.13694
 N476 N 0.21504 0.62078 1.15493
 C477 C 0.19483 0.62133 1.17526
 H478 H 0.14245 0.62526 1.21951
 H479 H 0.09218 0.69218 1.18321
 H480 H 0.10967 0.71854 1.13349
 H481 H 0.19071 0.69712 1.09758
 H482 H 0.22146 0.64676 1.11813
 H483 H 0.19301 0.60570 1.19183
 C484 C 0.13989 1.13610 0.67016
 C485 C 0.15738 1.12029 0.65189
 C486 C 0.16921 1.13368 0.62893
 C487 C 0.16344 1.16305 0.62381
 C488 C 0.14575 1.17843 0.64163
 C489 C 0.13397 1.16491 0.66490
 C490 C 0.12674 1.12918 0.69482
 N491 N 0.11287 1.15310 0.70446
 C492 C 0.11712 1.17504 0.68621
 C493 C 0.14427 1.20641 0.63213
 N494 N 0.16077 1.20854 0.60901
 C495 C 0.17263 1.18209 0.60374
 C496 C 0.18628 1.11348 0.61575
 N497 N 0.18487 1.08825 0.63006
 C498 C 0.16724 1.09220 0.65220
 H499 H 0.12734 1.10834 0.70504
 H500 H 0.10910 1.19696 0.68838
 H501 H 0.13235 1.22406 0.64157
 H502 H 0.18695 1.17696 0.58672
 H503 H 0.19923 1.11700 0.59741
 H504 H 0.16262 1.07615 0.66786
 C505 C 1.33032 0.63555 0.33120
 C506 C 1.31716 0.64885 0.35409
 C507 C 1.33298 0.66714 0.37110
 C508 C 1.36234 0.67199 0.36560
 C509 C 1.37529 0.65855 0.34321
 C510 C 1.35915 0.64057 0.32580
 C511 C 1.32000 0.61802 0.31028
 N512 N 1.34196 0.61273 0.29227
 C513 C 1.36594 0.62643 0.30167
 C514 C 1.40345 0.66764 0.34214
 N515 N 1.40793 0.68666 0.36323
 C516 C 1.38292 0.68942 0.37773
 C517 C 1.31444 0.67764 0.39104
 N518 N 1.28791 0.66599 0.38653
 C519 C 1.28938 0.64840 0.36401
 H520 H 1.29804 0.61041 0.30806
 H521 H 1.38677 0.62639 0.29151
 H522 H 1.41910 0.66157 0.32654
 H523 H 1.37976 0.70355 0.39543
 H524 H 1.31993 0.69246 0.40763
 H525 H 1.27148 0.63627 0.35542
 C526 C 1.33736 1.13358 0.83334
 C527 C 1.32322 1.14794 0.85505
 C528 C 1.33802 1.16774 0.87126
 C529 C 1.36732 1.17316 0.86615
 C530 C 1.38132 1.15884 0.84479
 C531 C 1.36616 1.13911 0.82808
 C532 C 1.32805 1.11388 0.81390
 N533 N 1.35044 1.10749 0.79680
 C534 C 1.37385 1.12283 0.80525
 C535 C 1.40942 1.16844 0.84454
 N536 N 1.41274 1.18839 0.86512
 C537 C 1.38707 1.19140 0.87840
 C538 C 1.31878 1.17861 0.89039
 N539 N 1.29277 1.16575 0.88614
 C540 C 1.29530 1.14696 0.86461
 H541 H 1.30640 1.10530 0.81204
 H542 H 1.39485 1.12223 0.79545
 H543 H 1.42597 1.16166 0.83011
 H544 H 1.38300 1.20597 0.89560
 H545 H 1.32346 1.19451 0.90629
 H546 H 1.27803 1.13360 0.85649
 C547 C 0.83757 0.63200 0.83799
 C548 C 0.82406 0.64563 0.86042
 C549 C 0.83936 0.66468 0.87705
 C550 C 0.86863 0.67000 0.87153
 C551 C 0.88197 0.65638 0.84938
 C552 C 0.86629 0.63747 0.83238
 C553 C 0.82763 0.61331 0.81795
 N554 N 0.84963 0.60749 0.80024
 C555 C 0.87336 0.62218 0.80885
 C556 C 0.91000 0.66601 0.84844
 N557 N 0.91399 0.68523 0.86943
 C558 C 0.88884 0.68786 0.88365
 C559 C 0.82044 0.67515 0.89671
 N560 N 0.79422 0.66273 0.89232
 C561 C 0.79628 0.64467 0.87022
 H562 H 0.80587 0.60502 0.81614
 H563 H 0.89416 0.62183 0.79864
 H564 H 0.92601 0.66001 0.83316
 H565 H 0.88540 0.70213 0.90118
 H566 H 0.82544 0.69052 0.91299
 H567 H 0.77874 0.63187 0.86180
 C568 C 0.83315 1.13617 0.33175
 C569 C 0.81899 1.14895 0.35429
 C570 C 0.83385 1.16731 0.37192
 C571 C 0.86324 1.17281 0.36738
 C572 C 0.87726 1.16004 0.34515
 C573 C 0.86204 1.14177 0.32706
 C574 C 0.82372 1.11825 0.31088
 N575 N 0.84616 1.11294 0.29352
 C576 C 0.86970 1.12725 0.30319
 C577 C 0.90533 1.16973 0.34548
 N578 N 0.90859 1.18810 0.36730
 C579 C 0.88298 1.19015 0.38077
 C580 C 0.81447 1.17714 0.39141
 N581 N 0.78833 1.16503 0.38597
 C582 C 0.79092 1.14773 0.36336
 H583 H 0.80200 1.11007 0.30835
 H584 H 0.89077 1.12715 0.29350
 H585 H 0.92189 1.16434 0.33053
 H586 H 0.87893 1.20366 0.39874
 H587 H 0.81911 1.19194 0.40827
 H588 H 0.77355 1.13536 0.35408
 C589 C 0.66382 0.37187 0.33833
 C590 C 0.67772 0.35739 0.36000
 C591 C 0.66282 0.33729 0.37564
 C592 C 0.63363 0.33173 0.37002
 C593 C 0.61993 0.34604 0.34858
 C594 C 0.63521 0.36599 0.33246
 C595 C 0.67345 0.39124 0.31886
 N596 N 0.65142 0.39690 0.30107
 C597 C 0.62795 0.38155 0.30925
 C598 C 0.59215 0.33572 0.34713
 N599 N 0.58868 0.31547 0.36717
 C600 C 0.61391 0.31282 0.38122
 C601 C 0.68216 0.32553 0.39412
 N602 N 0.70831 0.33812 0.38999
 C603 C 0.70576 0.35768 0.36924
 H604 H 0.69516 0.39974 0.31734
 H605 H 0.60722 0.38141 0.29887
 H606 H 0.57595 0.34203 0.33218
 H607 H 0.61776 0.29785 0.39804
 H608 H 0.67756 0.30887 0.40921
 H609 H 0.72322 0.37071 0.36110
 C610 C 0.67277 0.86090 0.82603
 C611 C 0.68714 0.84764 0.84822
 C612 C 0.67224 0.82921 0.86567
 C613 C 0.64272 0.82415 0.86144
 C614 C 0.62858 0.83737 0.83966
 C615 C 0.64373 0.85563 0.82173
 C616 C 0.68176 0.87930 0.80539
 N617 N 0.65888 0.88507 0.78869
 C618 C 0.63556 0.87067 0.79850
 C619 C 0.60033 0.82838 0.84026
 N620 N 0.59699 0.80994 0.86186
 C621 C 0.62278 0.80717 0.87491
 C622 C 0.69159 0.81913 0.88499
 N623 N 0.71778 0.83114 0.87977
 C624 C 0.71527 0.84865 0.85738
 H625 H 0.70341 0.88757 0.80260
 H626 H 0.61421 0.87116 0.78939
 H627 H 0.58365 0.83437 0.82569
 H628 H 0.62679 0.79349 0.89266
 H629 H 0.68681 0.80441 0.90177
 H630 H 0.73268 0.86112 0.84839
 C631 C 0.17261 0.36630 0.83278
 C632 C 0.18606 0.35328 0.85559
 C633 C 0.17071 0.33441 0.87227
 C634 C 0.14156 0.32863 0.86652
 C635 C 0.12837 0.34162 0.84409
 C636 C 0.14402 0.36028 0.82703
 C637 C 0.18235 0.38470 0.81245
 N638 N 0.16031 0.38965 0.79445
 C639 C 0.13683 0.37476 0.80324
 C640 C 0.10046 0.33177 0.84289
 N641 N 0.09632 0.31299 0.86404
 C642 C 0.12132 0.31084 0.87860
 C643 C 0.18946 0.32438 0.89219
 N644 N 0.21568 0.33681 0.88798
 C645 C 0.21378 0.35452 0.86570
 H646 H 0.20398 0.39333 0.81073
 H647 H 0.11603 0.37441 0.79301
 H648 H 0.08461 0.33736 0.82735
 H649 H 0.12462 0.29697 0.89636
 H650 H 0.18436 0.30917 0.90846
 H651 H 0.23139 0.36714 0.85730
 C652 C 0.15417 0.87563 0.33615
 C653 C 0.17242 0.85714 0.35167
 C654 C 0.16025 0.83609 0.36854
 C655 C 0.13015 0.83329 0.37047
 C656 C 0.11258 0.85230 0.35643
 C657 C 0.12457 0.87380 0.33982
 C658 C 0.15857 0.89661 0.31594
 N659 N 0.13245 0.90805 0.30890
 C660 C 0.11176 0.89436 0.32367
 C661 C 0.08455 0.84352 0.36012
 N662 N 0.08459 0.81933 0.37596
 C663 C 0.11236 0.81311 0.38280
 C664 C 0.18233 0.82189 0.38174
 N665 N 0.20779 0.83407 0.37416
 C666 C 0.20206 0.85550 0.35560
 H667 H 0.17909 0.90331 0.30741
 H668 H 0.08876 0.89801 0.32162
 H669 H 0.06571 0.85314 0.35063
 H670 H 0.11921 0.79430 0.39442
 H671 H 0.17983 0.80493 0.39697
 H672 H 0.21813 0.86949 0.34640
 O673 O 1.00965 0.89189 0.86138
 O674 O 1.02050 0.85978 0.82908
 C675 C 1.00376 0.87914 0.83873
 C676 C 0.97671 0.88624 0.82394
 C677 C 0.97058 0.87339 0.79826
 H678 H 0.98657 0.85954 0.78869
 O679 O 0.99855 1.10712 0.86013
 O680 O 0.98931 1.13806 0.82659
 C681 C 1.00568 1.11930 0.83763
 C682 C 1.03392 1.11291 0.82476
 C683 C 1.04212 1.12782 0.80081
 H684 H 1.02706 1.14247 0.79095
 O685 O 0.87567 0.92874 0.89836
 O686 O 0.84345 0.91776 0.86637
 C687 C 0.85602 0.91215 0.88908
 C688 C 0.84806 0.88598 0.90489
 C689 C 0.82197 0.87143 0.89982
 H690 H 0.80735 0.87966 0.88421
 O691 O 1.13393 1.06988 0.90243
 O692 O 1.16713 1.07978 0.87116
 C693 C 1.15418 1.08588 0.89362
 C694 C 1.16205 1.11216 0.90949
 C695 C 1.18856 1.12615 0.90522
 H696 H 1.20376 1.11715 0.89047
 O697 O 0.94886 0.83252 0.97339
 O698 O 0.92716 0.79002 0.97393
 C699 C 0.94628 0.80687 0.96415
 C700 C 0.96465 0.79705 0.94083
 C701 C 0.95976 0.76993 0.92842
 H702 H 0.94358 0.75553 0.93690
 O703 O 1.05810 1.16954 0.97121
 O704 O 1.08030 1.21179 0.97072
 C705 C 1.06130 1.19465 0.96103
 C706 C 1.04366 1.20359 0.93693
 C707 C 1.04924 1.23009 0.92383
 H708 H 1.06556 1.24454 0.93211
 O709 O 0.89661 0.99404 0.86008
 O710 O 0.86490 0.98281 0.82771
 C711 C 0.88375 0.99998 0.83760
 C712 C 0.88967 1.02773 0.82347
 C713 C 0.87351 1.03546 0.80011
 H714 H 0.85805 1.02028 0.79155
 O715 O 1.11169 1.00546 0.86332
 O716 O 1.14333 1.01626 0.83081
 C717 C 1.12421 0.99943 0.84066
 C718 C 1.11766 0.97184 0.82636
 C719 C 1.13250 0.96441 0.80211
 H720 H 1.14729 0.97980 0.79295
 O721 O 1.07452 0.87080 0.89982
 O722 O 1.08505 0.83782 0.86822
 C723 C 1.09080 0.85072 0.89081
 C724 C 1.11672 0.84274 0.90687
 C725 C 1.13204 0.81707 0.90134
 H726 H 1.12463 0.80264 0.88509
 O727 O 0.93227 1.13115 0.89493
 O728 O 0.92392 1.16309 0.86201
 C729 C 0.91697 1.15134 0.88473
 C730 C 0.89068 1.16078 0.89941
 C731 C 0.87665 1.18676 0.89256
 H732 H 0.88545 1.20045 0.87645
 O733 O 0.83624 1.06098 0.96579
 O734 O 0.79416 1.08323 0.96494
 C735 C 0.81106 1.06365 0.95583
 C736 C 0.80175 1.04432 0.93289
 C737 C 0.77546 1.04923 0.91921
 H738 H 0.76148 1.06666 0.92607
 O739 O 1.17113 0.94386 0.97199
 O740 O 1.21141 0.91831 0.97180
 C741 C 1.19553 0.93792 0.96138
 C742 C 1.20388 0.95171 0.93496
 C743 C 1.21927 0.93527 0.91537
 H744 H 1.22687 0.91381 0.92082
 O745 O 0.94423 1.09069 0.85904
 O746 O 0.93478 1.12219 0.82605
 C747 C 0.93186 1.09706 0.83639
 C748 C 0.91307 1.07525 0.82265
 C749 C 0.89685 1.08243 0.79898
 H750 H 0.89896 1.10373 0.78982
 O751 O 1.06323 0.90922 0.86231
 O752 O 1.07439 0.87676 0.83045
 C753 C 1.07633 0.90234 0.84015
 C754 C 1.09459 0.92418 0.82610
 C755 C 1.10946 0.91727 0.80157
 H756 H 1.10685 0.89607 0.79217
 O757 O 1.15021 1.01520 0.90003
 O758 O 1.18200 1.02471 0.86723
 C759 C 1.17469 1.01096 0.88884
 C760 C 1.19341 0.98750 0.89918
 C761 C 1.20851 0.97043 0.87981
 H762 H 1.20779 0.97597 0.85801
 O763 O 0.85881 0.98284 0.89744
 O764 O 0.82707 0.97183 0.86502
 C765 C 0.83373 0.98535 0.88710
 C766 C 0.81260 1.00549 0.89984
 C767 C 0.78602 1.01051 0.88675
 H768 H 0.78059 0.99838 0.86825
 O769 O 0.85979 1.11204 0.96606
 O770 O 0.81782 1.13456 0.96578
 C771 C 0.84334 1.13180 0.95666
 C772 C 0.85427 1.15119 0.93460
 C773 C 0.84014 1.17713 0.92741
 H774 H 0.82094 1.18341 0.93865
 O775 O 1.14423 0.89503 0.97346
 O776 O 1.18562 0.87143 0.97585
 C777 C 1.16064 0.87451 0.96551
 C778 C 1.15075 0.85441 0.94369
 C779 C 1.16592 0.82875 0.93798
 H780 H 1.18463 0.82350 0.95035
 O781 O 1.09629 1.05957 0.86339
 O782 O 1.12885 1.07075 0.83193
 C783 C 1.10331 1.07263 0.84126
 C784 C 1.08175 1.09064 0.82655
 C785 C 1.08935 1.10554 0.80221
 H786 H 1.11084 1.10331 0.79363
 O787 O 0.91361 0.94014 0.86018
 O788 O 0.88180 0.92880 0.82796
 C789 C 0.90718 0.92716 0.83776
 C790 C 0.92935 0.90949 0.82340
 C791 C 0.92356 0.89637 0.79763
 H792 H 0.90288 0.89976 0.78770
 O793 O 0.98627 1.14553 0.89703
 O794 O 0.97807 1.17686 0.86355
 C795 C 0.98976 1.17048 0.88657
 C796 C 1.00859 1.19189 0.90068
 C797 C 1.01424 1.21873 0.88817
 H798 H 1.00386 1.22406 0.86877
 O799 O 1.02084 0.85491 0.90001
 O800 O 1.03106 0.82243 0.86786
 C801 C 1.01842 0.82943 0.89028
 C802 C 0.99986 0.80809 0.90464
 C803 C 0.99490 0.78070 0.89279
 H804 H 1.00558 0.77490 0.87362
 O805 O 1.10813 1.14430 0.97293
 O806 O 1.13052 1.18650 0.97257
 C807 C 1.12822 1.16054 0.96404
 C808 C 1.14910 1.14895 0.94368
 C809 C 1.17571 1.16275 0.93924
 H810 H 1.18075 1.18212 0.95093
 O811 O 0.89902 0.85766 0.97167
 O812 O 0.87698 0.81526 0.97239
 C813 C 0.87956 0.84067 0.96265
 C814 C 0.85973 0.85081 0.94074
 C815 C 0.83357 0.83643 0.93547
 H816 H 0.82817 0.81758 0.94762
 Cu817 Cu 1.04109 0.88502 0.88404
 Cu818 Cu 1.05382 0.84599 0.84561
 Cu819 Cu 0.96599 1.11528 0.88103
 Cu820 Cu 0.95563 1.15304 0.84105
 Cu821 Cu 0.88943 0.96229 0.88229
 Cu822 Cu 0.85117 0.94901 0.84350
 Cu823 Cu 1.11986 1.03688 0.88568
 Cu824 Cu 1.15861 1.04932 0.84715
 C825 C 0.95609 0.90447 0.83623
 H826 H 0.96054 0.91407 0.85628
 C827 C 0.94398 0.87807 0.78505
 C828 C 1.05383 1.09426 0.83752
 H829 H 1.04787 1.08325 0.85644
 C830 C 1.06976 1.12454 0.78964
 C831 C 0.86667 0.87561 0.92547
 H832 H 0.88686 0.88672 0.92940
 C833 C 0.81426 0.84684 0.91529
 C834 C 1.14262 1.12357 0.92892
 H835 H 1.12204 1.11296 0.93217
 C836 C 1.19583 1.15125 0.92032
 C837 C 0.98495 0.81591 0.92891
 H838 H 0.98826 0.83720 0.93789
 C839 C 0.97461 0.76171 0.90436
 C840 C 1.02313 1.18465 0.92530
 H841 H 1.01931 1.16378 0.93480
 C842 C 1.03479 1.23772 0.89944
 C843 C 0.90949 1.04768 0.83454
 H844 H 0.92150 1.04205 0.85299
 C845 C 0.87669 1.06278 0.78796
 C846 C 1.09863 0.95168 0.83817
 H847 H 1.08767 0.95706 0.85731
 C848 C 1.12871 0.93717 0.78974
 C849 C 1.12620 0.86112 0.92815
 H850 H 1.11465 0.88108 0.93235
 C851 C 1.15662 0.80976 0.91697
 C852 C 0.87947 1.14339 0.92048
 H853 H 0.89024 1.12327 0.92562
 C854 C 0.85141 1.19528 0.90648
 C855 C 0.82011 1.02223 0.92314
 H856 H 0.84079 1.01879 0.93306
 C857 C 0.76756 1.03260 0.89602
 C858 C 1.19114 0.97796 0.92672
 H859 H 1.17788 0.98998 0.94124
 C860 C 1.22051 0.94387 0.88757
 O861 O 1.06008 0.91609 1.14201
 O862 O 1.06996 0.88385 1.17421
 C863 C 1.07272 0.90916 1.16444
 C864 C 1.09100 0.93084 1.17891
 C865 C 1.10023 0.92669 1.20638
 H866 H 1.09361 0.90751 1.21758
 O867 O 0.94177 1.09484 1.13556
 O868 O 0.93026 1.12753 1.16707
 C869 C 0.92828 1.10195 1.15745
 C870 C 0.90935 1.08043 1.17115
 C871 C 0.89445 1.08732 1.19572
 H872 H 0.89758 1.10826 1.20551
 O873 O 0.85521 0.98771 1.09390
 O874 O 0.82171 0.97828 1.12502
 C875 C 0.82949 0.99047 1.10265
 C876 C 0.80866 1.00869 1.08709
 C877 C 0.77968 1.01052 1.09559
 H878 H 0.77232 0.99787 1.11305
 O879 O 1.14598 1.02063 1.10065
 O880 O 1.17854 1.03111 1.13245
 C881 C 1.17141 1.01824 1.11010
 C882 C 1.19250 0.99967 1.09522
 C883 C 1.22098 0.99678 1.10493
 H884 H 1.22789 1.00880 1.12305
 O885 O 1.14279 0.89695 1.02713
 O886 O 1.18325 0.87167 1.02729
 C887 C 1.15779 0.87592 1.03615
 C888 C 1.14509 0.85634 1.05697
 C889 C 1.15220 0.82665 1.05758
 H890 H 1.16720 0.81772 1.04261
 O891 O 0.86136 1.11092 1.01995
 O892 O 0.81935 1.13342 1.01964
 C893 C 0.84479 1.13061 1.02917
 C894 C 0.85531 1.15020 1.05130
 C895 C 0.84149 1.17672 1.05663
 H896 H 0.82304 1.18274 1.04423
 O897 O 0.90776 0.94553 1.13450
 O898 O 0.87423 0.93525 1.16531
 C899 C 0.90005 0.93292 1.15665
 C900 C 0.92120 0.91469 1.17186
 C901 C 0.91265 0.89795 1.19479
 H902 H 0.89066 0.89918 1.20232
 O903 O 1.09185 1.06332 1.13827
 O904 O 1.12418 1.07527 1.16980
 C905 C 1.09863 1.07686 1.16024
 C906 C 1.07662 1.09518 1.17419
 C907 C 1.08295 1.10979 1.19906
 H908 H 1.10382 1.10695 1.20879
 O909 O 1.01729 0.86182 1.10343
 O910 O 1.02696 0.82988 1.13603
 C911 C 1.01449 0.83652 1.11350
 C912 C 0.99559 0.81487 1.09973
 C913 C 0.98971 0.78846 1.11298
 H914 H 0.99990 0.78372 1.13261
 O915 O 0.98490 1.14892 1.09809
 O916 O 0.97413 1.18151 1.12999
 C917 C 0.98728 1.17441 1.10790
 C918 C 1.00656 1.19559 1.09423
 C919 C 1.01240 1.22235 1.10700
 H920 H 1.00165 1.22787 1.12621
 O921 O 0.89715 0.85932 1.02503
 O922 O 0.87504 0.81694 1.02544
 C923 C 0.87709 0.84298 1.03380
 C924 C 0.85606 0.85458 1.05392
 C925 C 0.82915 0.84119 1.05781
 H926 H 0.82395 0.82201 1.04589
 O927 O 1.10694 1.14526 1.02639
 O928 O 1.12955 1.18737 1.02567
 C929 C 1.12677 1.16191 1.03522
 C930 C 1.14688 1.15137 1.05663
 C931 C 1.17385 1.16466 1.06047
 H932 H 1.17958 1.18293 1.04765
 O933 O 0.99587 1.11148 1.13628
 O934 O 0.98466 1.14395 1.16812
 C935 C 1.00171 1.12470 1.15870
 C936 C 1.02913 1.11846 1.17336
 C937 C 1.03604 1.13311 1.19800
 H938 H 1.02052 1.14786 1.20712
 O939 O 1.00514 0.90102 1.13990
 O940 O 1.01479 0.86873 1.17213
 C941 C 0.99807 0.88771 1.16181
 C942 C 0.96935 0.89294 1.17441
 C943 C 0.96022 0.87617 1.19691
 H944 H 0.97503 0.86094 1.20630
 O945 O 1.13019 1.07460 1.10073
 O946 O 1.16331 1.08553 1.13189
 C947 C 1.15031 1.09102 1.10937
 C948 C 1.15848 1.11666 1.09288
 C949 C 1.18539 1.13013 1.09653
 H950 H 1.20035 1.12156 1.11167
 O951 O 0.87138 0.93362 1.09515
 O952 O 0.83734 0.92420 1.12575
 C953 C 0.85094 0.91770 1.10379
 C954 C 0.84322 0.89130 1.08811
 C955 C 0.81640 0.87776 1.09188
 H956 H 0.80107 0.88701 1.10635
 O957 O 1.05761 1.17134 1.02565
 O958 O 1.07995 1.21353 1.02550
 C959 C 1.06070 1.19681 1.03525
 C960 C 1.04267 1.20652 1.05886
 C961 C 1.04854 1.23296 1.07227
 H962 H 1.06539 1.24701 1.06446
 O963 O 0.94726 0.83483 1.02790
 O964 O 0.92539 0.79243 1.02884
 C965 C 0.94396 0.80999 1.03862
 C966 C 0.96099 0.80193 1.06344
 C967 C 0.95506 0.77592 1.07740
 H968 H 0.93884 0.76120 1.06938
 O969 O 1.11039 1.01004 1.14050
 O970 O 1.14220 1.02152 1.17269
 C971 C 1.12297 1.00455 1.16327
 C972 C 1.11527 0.97787 1.17847
 C973 C 1.12368 0.97378 1.20615
 H974 H 1.13524 0.99073 1.21709
 O975 O 0.89149 0.99963 1.13307
 O976 O 0.85827 0.98975 1.16432
 C977 C 0.87803 1.00618 1.15510
 C978 C 0.88477 1.03358 1.16970
 C979 C 0.87004 1.04089 1.19406
 H980 H 0.85487 1.02564 1.20283
 O981 O 0.93145 1.13179 1.09631
 O982 O 0.92064 1.16503 1.12758
 C983 C 0.91519 1.15206 1.10491
 C984 C 0.88972 1.16058 1.08834
 C985 C 0.87569 1.18703 1.09338
 H986 H 0.88376 1.20132 1.10947
 O987 O 1.07057 0.87975 1.10218
 O988 O 1.07992 0.84665 1.13383
 C989 C 1.08600 0.85912 1.11113
 C990 C 1.11043 0.84872 1.09429
 C991 C 1.11821 0.81946 1.09514
 H992 H 1.10694 0.80487 1.10899
 O993 O 1.16787 0.94737 1.02633
 O994 O 1.20934 0.92418 1.02810
 C995 C 1.19283 0.94433 1.03658
 C996 C 1.20264 0.96365 1.05919
 C997 C 1.23076 0.96096 1.06936
 H998 H 1.24548 0.94568 1.05977
 O999 O 0.83481 1.06164 1.01978
 O1000 O 0.79257 1.08362 1.01929
 C1001 C 0.80926 1.06427 1.02896
 C1002 C 0.79900 1.04505 1.05144
 C1003 C 0.77036 1.04693 1.06069
 H1004 H 0.75558 1.06198 1.05096
 Cu1005 Cu 1.03742 0.89311 1.11884
 Cu1006 Cu 1.04914 0.85437 1.15750
 Cu1007 Cu 0.96450 1.11836 1.11349
 Cu1008 Cu 0.95118 1.15765 1.15147
 Cu1009 Cu 0.92546 0.85023 0.99945
 Cu1010 Cu 0.89938 0.79911 1.00022
 Cu1011 Cu 1.15243 0.92331 0.99970
 Cu1012 Cu 1.20212 0.89540 1.00209
 Cu1013 Cu 0.85225 1.08424 0.99285
 Cu1014 Cu 0.80165 1.11076 0.99246
 Cu1015 Cu 1.08027 1.15349 0.99904
 Cu1016 Cu 1.10695 1.20430 0.99852
 Cu1017 Cu 0.88485 0.96749 1.11107
 Cu1018 Cu 0.84460 0.95591 1.14829
 Cu1019 Cu 1.11633 1.04107 1.11695
 Cu1020 Cu 1.15528 1.05453 1.15492
 C1021 C 1.09884 0.95638 1.16518
 H1022 H 1.09215 0.95953 1.14390
 C1023 C 1.11619 0.94828 1.22018
 C1024 C 0.90453 1.05336 1.15849
 H1025 H 0.91550 1.04802 1.13934
 C1026 C 0.87449 1.06776 1.20705
 C1027 C 0.81800 1.02574 1.06469
 H1028 H 0.84032 1.02468 1.05813
 C1029 C 0.76052 1.02971 1.08255
 C1030 C 1.18365 0.98324 1.07206
 H1031 H 1.16167 0.98493 1.06462
 C1032 C 1.24008 0.97725 1.09211
 C1033 C 1.12390 0.86705 1.07515
 H1034 H 1.11772 0.88968 1.07426
 C1035 C 1.13830 0.80816 1.07635
 C1036 C 0.87952 1.14243 1.06711
 H1037 H 0.89018 1.12193 1.06319
 C1038 C 0.85184 1.19555 1.07737
 C1039 C 0.94973 0.91226 1.16211
 H1040 H 0.95641 0.92469 1.14425
 C1041 C 0.93193 0.87828 1.20703
 C1042 C 1.04949 1.09941 1.16172
 H1043 H 1.04452 1.08849 1.14241
 C1044 C 1.06290 1.12904 1.21088
 C1045 C 0.98136 0.82129 1.07477
 H1046 H 0.98545 0.84180 1.06465
 C1047 C 0.96922 0.76910 1.10218
 C1048 C 1.02148 1.18807 1.06991
 H1049 H 1.01740 1.16727 1.06019
 C1050 C 1.03364 1.24093 1.09640
 C1051 C 0.86276 0.87970 1.06896
 H1052 H 0.88354 0.89003 1.06606
 C1053 C 0.80891 0.85293 1.07648
 C1054 C 1.13949 1.12730 1.07275
 H1055 H 1.11870 1.11699 1.06980
 C1056 C 1.19354 1.15384 1.08004
 O1057 O 1.00630 0.39159 0.36579
 O1058 O 1.01725 0.35887 0.33410
 C1059 C 1.00033 0.37819 0.34349
 C1060 C 0.97282 0.38415 0.32902
 C1061 C 0.96582 0.36916 0.30460
 H1062 H 0.98140 0.35447 0.29548
 O1063 O 0.99576 0.60537 0.36409
 O1064 O 0.98502 0.63733 0.33186
 C1065 C 1.00187 0.61820 0.34164
 C1066 C 1.02944 0.61189 0.32734
 C1067 C 1.03603 0.62590 0.30252
 H1068 H 1.01972 0.63937 0.29317
 O1069 O 0.87134 0.42698 0.40272
 O1070 O 0.83869 0.41668 0.37092
 C1071 C 0.85113 0.41092 0.39368
 C1072 C 0.84219 0.38539 0.41000
 C1073 C 0.81538 0.37195 0.40554
 H1074 H 0.80100 0.38042 0.38984
 O1075 O 1.12903 0.57109 0.40347
 O1076 O 1.16204 0.58120 0.37205
 C1077 C 1.14908 0.58728 0.39452
 C1078 C 1.15716 0.61340 0.41054
 C1079 C 1.18359 0.62747 0.40607
 H1080 H 1.19833 0.61898 0.39064
 O1081 O 0.94099 0.33208 0.47777
 O1082 O 0.91973 0.28935 0.47691
 C1083 C 0.93863 0.30678 0.46758
 C1084 C 0.95725 0.29784 0.44397
 C1085 C 0.95235 0.27113 0.43067
 H1086 H 0.93566 0.25674 0.43824
 O1087 O 1.05552 0.66698 0.47607
 O1088 O 1.07719 0.70952 0.47608
 C1089 C 1.05832 0.69231 0.46630
 C1090 C 1.04025 0.70154 0.44267
 C1091 C 1.04453 0.72889 0.43081
 H1092 H 1.06025 0.74364 0.43966
 O1093 O 0.89312 0.49208 0.36451
 O1094 O 0.86141 0.48135 0.33201
 C1095 C 0.88059 0.49816 0.34189
 C1096 C 0.88754 0.52557 0.32747
 C1097 C 0.87375 0.53245 0.30251
 H1098 H 0.85935 0.51678 0.29314
 O1099 O 1.10865 0.50506 0.36578
 O1100 O 1.14091 0.51527 0.33371
 C1101 C 1.12186 0.49839 0.34365
 C1102 C 1.11597 0.47016 0.33005
 C1103 C 1.13180 0.46178 0.30664
 H1104 H 1.14707 0.47681 0.29764
 O1105 O 1.07095 0.37110 0.40523
 O1106 O 1.08122 0.33752 0.37413
 C1107 C 1.08707 0.35074 0.39652
 C1108 C 1.11305 0.34271 0.41247
 C1109 C 1.12689 0.31604 0.40794
 H1110 H 1.11807 0.30103 0.39286
 O1111 O 0.93032 0.62649 0.40203
 O1112 O 0.92006 0.65916 0.37029
 C1113 C 0.91411 0.64646 0.39285
 C1114 C 0.88803 0.65473 0.40860
 C1115 C 0.87347 0.68077 0.40308
 H1116 H 0.88168 0.69513 0.38723
 O1117 O 0.83383 0.55380 0.47515
 O1118 O 0.79163 0.57588 0.47543
 C1119 C 0.80844 0.55665 0.46569
 C1120 C 0.79859 0.53821 0.44249
 C1121 C 0.77105 0.54233 0.43124
 H1122 H 0.75661 0.55817 0.44036
 O1123 O 1.16960 0.44556 0.47705
 O1124 O 1.21146 0.42288 0.47686
 C1125 C 1.19476 0.44223 0.46718
 C1126 C 1.20417 0.46021 0.44345
 C1127 C 1.23075 0.45475 0.43043
 H1128 H 1.24495 0.43812 0.43846
 O1129 O 0.94192 0.58842 0.36386
 O1130 O 0.93103 0.62061 0.33190
 C1131 C 0.92905 0.59509 0.34154
 C1132 C 0.91099 0.57307 0.32721
 C1133 C 0.89695 0.57953 0.30213
 H1134 H 0.90002 0.60052 0.29260
 O1135 O 1.06035 0.40870 0.36653
 O1136 O 1.07142 0.37553 0.33534
 C1137 C 1.07365 0.40126 0.34460
 C1138 C 1.09258 0.42257 0.33038
 C1139 C 1.10850 0.41473 0.30663
 H1140 H 1.10622 0.39322 0.29783
 O1141 O 1.14636 0.51748 0.40322
 O1142 O 1.17870 0.52747 0.37115
 C1143 C 1.17172 0.51488 0.39354
 C1144 C 1.19295 0.49598 0.40771
 C1145 C 1.21984 0.49053 0.39538
 H1146 H 1.22530 0.50117 0.37615
 O1147 O 0.85512 0.48079 0.40196
 O1148 O 0.82301 0.47074 0.36960
 C1149 C 0.82987 0.48345 0.39206
 C1150 C 0.80877 0.50233 0.40646
 C1151 C 0.78087 0.50649 0.39569
 H1152 H 0.77430 0.49501 0.37714
 O1153 O 0.85901 0.60391 0.47533
 O1154 O 0.81687 0.62616 0.47564
 C1155 C 0.84236 0.62364 0.46630
 C1156 C 0.85287 0.64358 0.44457
 C1157 C 0.83846 0.66969 0.43882
 H1158 H 0.81950 0.67521 0.45074
 O1159 O 1.14410 0.39555 0.47729
 O1160 O 1.18594 0.37270 0.47726
 C1161 C 1.16034 0.37542 0.46828
 C1162 C 1.14914 0.35493 0.44731
 C1163 C 1.16282 0.32818 0.44257
 H1164 H 1.18186 0.32281 0.45440
 O1165 O 1.09254 0.55942 0.36414
 O1166 O 1.12490 0.57014 0.33235
 C1167 C 1.09942 0.57223 0.34181
 C1168 C 1.07753 0.59019 0.32736
 C1169 C 1.08400 0.60499 0.30257
 H1170 H 1.10519 0.60289 0.29332
 O1171 O 0.90963 0.43803 0.36487
 O1172 O 0.87767 0.42687 0.33273
 C1173 C 0.90305 0.42493 0.34258
 C1174 C 0.92509 0.40679 0.32853
 C1175 C 0.91866 0.39188 0.30384
 H1176 H 0.89763 0.39434 0.29432
 O1177 O 0.98392 0.64335 0.40187
 O1178 O 0.97377 0.67556 0.36969
 C1179 C 0.98639 0.66877 0.39212
 C1180 C 1.00496 0.69027 0.40652
 C1181 C 1.00921 0.71803 0.39528
 H1182 H 0.99802 0.72414 0.37650
 O1183 O 1.01670 0.35557 0.40529
 O1184 O 1.02701 0.32267 0.37357
 C1185 C 1.01390 0.33007 0.39565
 C1186 C 0.99422 0.30907 0.40929
 C1187 C 0.98921 0.28200 0.39678
 H1188 H 1.00063 0.27633 0.37799
 O1189 O 1.10572 0.64253 0.47690
 O1190 O 1.12762 0.68500 0.47715
 C1191 C 1.12536 0.65929 0.46797
 C1192 C 1.14557 0.64863 0.44660
 C1193 C 1.17209 0.66254 0.44197
 H1194 H 1.17763 0.68132 0.45432
 O1195 O 0.89119 0.35719 0.47817
 O1196 O 0.86945 0.31463 0.47769
 C1197 C 0.87189 0.34035 0.46869
 C1198 C 0.85234 0.35090 0.44684
 C1199 C 0.82559 0.33756 0.44213
 H1200 H 0.81935 0.31947 0.45496
 Cu1201 Cu 1.03768 0.38518 0.38878
 Cu1202 Cu 1.05036 0.34540 0.35111
 Cu1203 Cu 0.96390 0.61261 0.38614
 Cu1204 Cu 0.95136 0.65131 0.34763
 Cu1205 Cu 0.88556 0.46039 0.38670
 Cu1206 Cu 0.84710 0.44775 0.34795
 Cu1207 Cu 1.11578 0.53742 0.38725
 Cu1208 Cu 1.15475 0.54965 0.34899
 C1209 C 0.95239 0.40303 0.34074
 H1210 H 0.95744 0.41413 0.35994
 C1211 C 0.93879 0.37276 0.29199
 C1212 C 1.05015 0.59384 0.33946
 H1213 H 1.04519 0.58328 0.35887
 C1214 C 1.06333 0.62317 0.29011
 C1215 C 0.86037 0.37484 0.43084
 H1216 H 0.88108 0.38510 0.43441
 C1217 C 0.80667 0.34822 0.42177
 C1218 C 1.13843 0.62403 0.43096
 H1219 H 1.11795 0.61332 0.43444
 C1220 C 1.19152 0.65180 0.42200
 C1221 C 0.97832 0.31672 0.43312
 H1222 H 0.98167 0.33774 0.44264
 C1223 C 0.96805 0.26317 0.40704
 C1224 C 1.02033 0.68239 0.43047
 H1225 H 1.01752 0.66094 0.43910
 C1226 C 1.02919 0.73727 0.40722
 C1227 C 0.90630 0.54591 0.33956
 H1228 H 0.91655 0.54093 0.35913
 C1229 C 0.87802 0.55945 0.28983
 C1230 C 1.09632 0.45047 0.34171
 H1231 H 1.08456 0.45660 0.36020
 C1232 C 1.12845 0.43411 0.29493
 C1233 C 1.12417 0.36186 0.43235
 H1234 H 1.11362 0.38251 0.43586
 C1235 C 1.15156 0.30834 0.42317
 C1236 C 0.87771 0.63646 0.42949
 H1237 H 0.88883 0.61629 0.43372
 C1238 C 0.84883 0.68871 0.41829
 C1239 C 0.81726 0.51803 0.43012
 H1240 H 0.83881 0.51527 0.43839
 C1241 C 0.76204 0.52667 0.40796
 C1242 C 1.18547 0.48104 0.43200
 H1243 H 1.16454 0.48474 0.44134
 C1244 C 1.23866 0.46972 0.40638
 O1245 O 1.05988 0.40880 0.64124
 O1246 O 1.07166 0.37610 0.67243
 C1247 C 1.07355 0.40172 0.66300
 C1248 C 1.09253 0.42330 0.67682
 C1249 C 1.10884 0.41579 0.70033
 H1250 H 1.10672 0.39440 0.70927
 O1251 O 0.94088 0.58916 0.64079
 O1252 O 0.92973 0.62147 0.67280
 C1253 C 0.92791 0.59591 0.66307
 C1254 C 0.90998 0.57397 0.67734
 C1255 C 0.89551 0.58087 0.70213
 H1256 H 0.89814 0.60211 0.71144
 O1257 O 0.85644 0.47982 0.60301
 O1258 O 0.82423 0.47096 0.63551
 C1259 C 0.83126 0.48310 0.61285
 C1260 C 0.81032 0.50214 0.59844
 C1261 C 0.78292 0.50700 0.60998
 H1262 H 0.77687 0.49591 0.62881
 O1263 O 1.14662 0.51755 0.60409
 O1264 O 1.17837 0.52826 0.63661
 C1265 C 1.17180 0.51514 0.61431
 C1266 C 1.19311 0.49563 0.60098
 C1267 C 1.21912 0.48904 0.61453
 H1268 H 1.22412 0.49955 0.63403
 O1269 O 1.14326 0.39591 0.53070
 O1270 O 1.18489 0.37267 0.53028
 C1271 C 1.15928 0.37550 0.53928
 C1272 C 1.14776 0.35464 0.55959
 C1273 C 1.16010 0.32702 0.56222
 H1274 H 1.17849 0.32145 0.54951
 O1275 O 0.85916 0.60395 0.52906
 O1276 O 0.81697 0.62616 0.52899
 C1277 C 0.84250 0.62368 0.53814
 C1278 C 0.85293 0.64384 0.55961
 C1279 C 0.83882 0.67027 0.56433
 H1280 H 0.82037 0.67572 0.55170
 O1281 O 0.90974 0.43698 0.64166
 O1282 O 0.87790 0.42792 0.67444
 C1283 C 0.90319 0.42516 0.66452
 C1284 C 0.92551 0.40838 0.67961
 C1285 C 0.92240 0.40178 0.70785
 H1286 H 0.90335 0.40889 0.71897
 O1287 O 1.09110 0.55897 0.64166
 O1288 O 1.12296 0.57038 0.67380
 C1289 C 1.09753 0.57190 0.66410
 C1290 C 1.07531 0.58944 0.67854
 C1291 C 1.08132 0.60300 0.70405
 H1292 H 1.10218 0.59998 0.71373
 O1293 O 1.01647 0.35473 0.60350
 O1294 O 1.02652 0.32245 0.63565
 C1295 C 1.01354 0.32947 0.61346
 C1296 C 0.99388 0.30845 0.59981
 C1297 C 0.98856 0.28143 0.61211
 H1298 H 0.99974 0.27567 0.63098
 O1299 O 0.98297 0.64407 0.60339
 O1300 O 0.97264 0.67623 0.63581
 C1301 C 0.98534 0.66946 0.61338
 C1302 C 1.00391 0.69100 0.59935
 C1303 C 1.00868 0.71830 0.61149
 H1304 H 0.99784 0.72389 0.63062
 O1305 O 0.88966 0.35475 0.53193
 O1306 O 0.86815 0.31212 0.53131
 C1307 C 0.87024 0.33767 0.54094
 C1308 C 0.85060 0.34795 0.56323
 C1309 C 0.82454 0.33373 0.56982
 H1310 H 0.81835 0.31478 0.55800
 O1311 O 1.10506 0.64266 0.53059
 O1312 O 1.12695 0.68515 0.53053
 C1313 C 1.12455 0.65953 0.53976
 C1314 C 1.14458 0.64906 0.56130
 C1315 C 1.17099 0.66308 0.56609
 H1316 H 1.17632 0.68195 0.55394
 O1317 O 0.99453 0.60633 0.64115
 O1318 O 0.98364 0.63824 0.67362
 C1319 C 1.00047 0.61905 0.66380
 C1320 C 1.02771 0.61223 0.67834
 C1321 C 1.03408 0.62549 0.70378
 H1322 H 1.01812 0.63936 0.71338
 O1323 O 1.00609 0.39140 0.64255
 O1324 O 1.01744 0.35981 0.67496
 C1325 C 1.00048 0.37892 0.66532
 C1326 C 0.97360 0.38646 0.68021
 C1327 C 0.97036 0.38050 0.70854
 H1328 H 0.98804 0.37102 0.72007
 O1329 O 1.12876 0.57120 0.60350
 O1330 O 1.16130 0.58181 0.63529
 C1331 C 1.14854 0.58763 0.61273
 C1332 C 1.15644 0.61382 0.59699
 C1333 C 1.18283 0.62800 0.60159
 H1334 H 1.19766 0.61957 0.61693
 O1335 O 0.87020 0.42535 0.60495
 O1336 O 0.83801 0.41635 0.63743
 C1337 C 0.85006 0.40974 0.61472
 C1338 C 0.84088 0.38359 0.59944
 C1339 C 0.81489 0.36946 0.60574
 H1340 H 0.80118 0.37801 0.62200
 O1341 O 1.05510 0.66766 0.53034
 O1342 O 1.07676 0.71021 0.53056
 C1343 C 1.05771 0.69312 0.54007
 C1344 C 1.03932 0.70250 0.56352
 C1345 C 1.04400 0.72952 0.57617
 H1346 H 1.06013 0.74408 0.56786
 O1347 O 0.94109 0.33245 0.53205
 O1348 O 0.91981 0.28972 0.53163
 C1349 C 0.93868 0.30695 0.54147
 C1350 C 0.95718 0.29760 0.56481
 C1351 C 0.95205 0.27089 0.57764
 H1352 H 0.93535 0.25667 0.56969
 O1353 O 1.10841 0.50520 0.64071
 O1354 O 1.14018 0.51613 0.67314
 C1355 C 1.12144 0.49896 0.66301
 C1356 C 1.11578 0.47091 0.67668
 C1357 C 1.13201 0.46287 0.69988
 H1358 H 1.14734 0.47800 0.70872
 O1359 O 0.89332 0.49139 0.64139
 O1360 O 0.86133 0.48202 0.67395
 C1361 C 0.88060 0.49834 0.66375
 C1362 C 0.88722 0.52619 0.67757
 C1363 C 0.87290 0.53359 0.70215
 H1364 H 0.85853 0.51807 0.71170
 O1365 O 0.92950 0.62740 0.60300
 O1366 O 0.91895 0.66024 0.63474
 C1367 C 0.91325 0.64747 0.61206
 C1368 C 0.88747 0.65564 0.59591
 C1369 C 0.87320 0.68211 0.60047
 H1370 H 0.88129 0.69695 0.61608
 O1371 O 1.07037 0.37074 0.60278
 O1372 O 1.08083 0.33726 0.63370
 C1373 C 1.08648 0.35033 0.61123
 C1374 C 1.11206 0.34211 0.59467
 C1375 C 1.12467 0.31454 0.59716
 H1376 H 1.11544 0.29900 0.61139
 O1377 O 1.17013 0.44507 0.53153
 O1378 O 1.21189 0.42221 0.53182
 C1379 C 1.19520 0.44155 0.54157
 C1380 C 1.20443 0.45927 0.56565
 C1381 C 1.23008 0.45265 0.57980
 H1382 H 1.24391 0.43542 0.57226
 O1383 O 0.83444 0.55365 0.52942
 O1384 O 0.79227 0.57577 0.52976
 C1385 C 0.80921 0.55653 0.53928
 C1386 C 0.79972 0.53815 0.56271
 C1387 C 0.77263 0.54289 0.57489
 H1388 H 0.75829 0.55917 0.56644
 Cu1389 Cu 1.03723 0.38476 0.61943
 Cu1390 Cu 1.05029 0.34568 0.65739
 Cu1391 Cu 0.96291 0.61343 0.61887
 Cu1392 Cu 0.95010 0.65219 0.65758
 Cu1393 Cu 0.91783 0.34835 0.50513
 Cu1394 Cu 0.89246 0.29698 0.50424
 Cu1395 Cu 1.15272 0.42303 0.50414
 Cu1396 Cu 1.20303 0.39572 0.50410
 Cu1397 Cu 0.85083 0.57654 0.50219
 Cu1398 Cu 0.80003 0.60294 0.50247
 Cu1399 Cu 1.07809 0.65073 0.50347
 Cu1400 Cu 1.10402 0.70194 0.50358
 Cu1401 Cu 0.88579 0.45904 0.61956
 Cu1402 Cu 0.84721 0.44832 0.65863
 Cu1403 Cu 1.11547 0.53739 0.61922
 Cu1404 Cu 1.15372 0.55045 0.65810
 C1405 C 1.09596 0.45108 0.66536
 H1406 H 1.08377 0.45702 0.64710
 C1407 C 1.12892 0.43535 0.71161
 C1408 C 0.90588 0.54642 0.66536
 H1409 H 0.91652 0.54103 0.64605
 C1410 C 0.87662 0.56089 0.71435
 C1411 C 0.81842 0.51757 0.57454
 H1412 H 0.83968 0.51435 0.56576
 C1413 C 0.76416 0.52760 0.59853
 C1414 C 1.18619 0.48095 0.57632
 H1415 H 1.16596 0.48559 0.56602
 C1416 C 1.23750 0.46732 0.60429
 C1417 C 1.12362 0.36188 0.57566
 H1418 H 1.11401 0.38318 0.57362
 C1419 C 1.14832 0.30654 0.58052
 C1420 C 0.87726 0.63679 0.57532
 H1421 H 0.88805 0.61627 0.57177
 C1422 C 0.84899 0.68979 0.58448
 C1423 C 0.95113 0.40045 0.66601
 H1424 H 0.95366 0.40531 0.64422
 C1425 C 0.94493 0.38829 0.72244
 C1426 C 1.04833 0.59403 0.66600
 H1427 H 1.04369 0.58413 0.64612
 C1428 C 1.06090 0.62130 0.71665
 C1429 C 0.97830 0.31623 0.57594
 H1430 H 0.98189 0.33722 0.56659
 C1431 C 0.96740 0.26276 0.60135
 C1432 C 1.01902 0.68345 0.57513
 H1433 H 1.01583 0.66224 0.56593
 C1434 C 1.02898 0.73748 0.60021
 C1435 C 0.85834 0.37280 0.57818
 H1436 H 0.87848 0.38367 0.57350
 C1437 C 0.80628 0.34460 0.59101
 C1438 C 1.13758 0.62441 0.57672
 H1439 H 1.11714 0.61360 0.57317
 C1440 C 1.19060 0.65233 0.58582
 O1441 O 0.50429 0.89020 0.35670
 O1442 O 0.51500 0.85911 0.32342
 C1443 C 0.49830 0.87809 0.33372
 C1444 C 0.47150 0.88594 0.31905
 C1445 C 0.46832 0.87973 0.29077
 H1446 H 0.48592 0.86989 0.27934
 O1447 O 0.49388 1.10825 0.35773
 O1448 O 0.48258 1.13972 0.32521
 C1449 C 0.49959 1.12072 0.33496
 C1450 C 0.52659 1.11315 0.32017
 C1451 C 0.53008 1.11909 0.29183
 H1452 H 0.51254 1.12871 0.28020
 O1453 O 0.36961 0.92623 0.39503
 O1454 O 0.33743 0.91695 0.36252
 C1455 C 0.34958 0.91046 0.38520
 C1456 C 0.34060 0.88422 0.40029
 C1457 C 0.31462 0.87011 0.39388
 H1458 H 0.30083 0.87877 0.37780
 O1459 O 0.62695 1.07135 0.39752
 O1460 O 0.65992 1.08147 0.36608
 C1461 C 0.64720 1.08739 0.38867
 C1462 C 0.65556 1.11321 0.40495
 C1463 C 0.68242 1.12681 0.40123
 H1464 H 0.69743 1.11819 0.38610
 O1465 O 0.44101 0.83144 0.46754
 O1466 O 0.41931 0.78892 0.46738
 C1467 C 0.43849 0.80596 0.45791
 C1468 C 0.45721 0.79645 0.43472
 C1469 C 0.45267 0.76935 0.42223
 H1470 H 0.43634 0.75492 0.43042
 O1471 O 0.55392 1.16772 0.47064
 O1472 O 0.57603 1.21004 0.47104
 C1473 C 0.55696 1.19315 0.46111
 C1474 C 0.53899 1.20268 0.43745
 C1475 C 0.54408 1.22961 0.42492
 H1476 H 0.56036 1.24401 0.43337
 O1477 O 0.39238 0.99212 0.35858
 O1478 O 0.36042 0.98249 0.32598
 C1479 C 0.37961 0.99896 0.33629
 C1480 C 0.38593 1.02691 0.32271
 C1481 C 0.37079 1.03455 0.29872
 H1482 H 0.35606 1.01916 0.28935
 O1483 O 0.60491 1.00625 0.35911
 O1484 O 0.63758 1.01637 0.32739
 C1485 C 0.61822 0.99968 0.33700
 C1486 C 0.61227 0.97174 0.32295
 C1487 C 0.62808 0.96406 0.29932
 H1488 H 0.64325 0.97931 0.29052
 O1489 O 0.56953 0.86823 0.39431
 O1490 O 0.57914 0.83570 0.36202
 C1491 C 0.58534 0.84799 0.38478
 C1492 C 0.61129 0.83905 0.40031
 C1493 C 0.62561 0.81300 0.39407
 H1494 H 0.61731 0.79903 0.37783
 O1495 O 0.42893 1.12810 0.39693
 O1496 O 0.41825 1.16123 0.36575
 C1497 C 0.41258 1.14822 0.38825
 C1498 C 0.38672 1.15619 0.40460
 C1499 C 0.37238 1.18268 0.40036
 H1500 H 0.38048 1.19763 0.38496
 O1501 O 0.33179 1.05420 0.46970
 O1502 O 0.28983 1.07668 0.46942
 C1503 C 0.30671 1.05749 0.45960
 C1504 C 0.29754 1.03975 0.43543
 C1505 C 0.27145 1.04596 0.42183
 H1506 H 0.25747 1.06289 0.42975
 O1507 O 0.66341 0.94027 0.46810
 O1508 O 0.70553 0.91808 0.46799
 C1509 C 0.68870 0.93743 0.45844
 C1510 C 0.69825 0.95603 0.43518
 C1511 C 0.72461 0.95034 0.42190
 H1512 H 0.73839 0.93307 0.42935
 O1513 O 0.44051 1.08979 0.35901
 O1514 O 0.42875 1.12221 0.32755
 C1515 C 0.42709 1.09659 0.33706
 C1516 C 0.40876 1.07469 0.32298
 C1517 C 0.39346 1.08179 0.29876
 H1518 H 0.39581 1.10310 0.28968
 O1519 O 0.55786 0.90846 0.35831
 O1520 O 0.56874 0.87648 0.32593
 C1521 C 0.57088 0.90192 0.33602
 C1522 C 0.58936 0.92391 0.32231
 C1523 C 0.60515 0.91688 0.29831
 H1524 H 0.60303 0.89559 0.28899
 O1525 O 0.64220 1.01696 0.39718
 O1526 O 0.67486 1.02701 0.36542
 C1527 C 0.66749 1.01388 0.38743
 C1528 C 0.68810 0.99369 0.40089
 C1529 C 0.71480 0.98788 0.38829
 H1530 H 0.72067 0.99923 0.36955
 O1531 O 0.35456 0.98063 0.39598
 O1532 O 0.32256 0.97138 0.36332
 C1533 C 0.32947 0.98391 0.38588
 C1534 C 0.30855 1.00359 0.39968
 C1535 C 0.28216 1.00991 0.38674
 H1536 H 0.27682 0.99932 0.36739
 O1537 O 0.35759 1.10390 0.47083
 O1538 O 0.31564 1.12653 0.47100
 C1539 C 0.34120 1.12385 0.46189
 C1540 C 0.35194 1.14412 0.44068
 C1541 C 0.33784 1.17057 0.43619
 H1542 H 0.31924 1.17590 0.44869
 O1543 O 0.64048 0.88882 0.46781
 O1544 O 0.68257 0.86654 0.46810
 C1545 C 0.65716 0.86907 0.45861
 C1546 C 0.64672 0.84934 0.43640
 C1547 C 0.66107 0.82328 0.42979
 H1548 H 0.67998 0.81725 0.44157
 O1549 O 0.58929 1.06091 0.35868
 O1550 O 0.62181 1.07093 0.32680
 C1551 C 0.59632 1.07335 0.33621
 C1552 C 0.57435 1.09053 0.32100
 C1553 C 0.57773 1.09712 0.29276
 H1554 H 0.59671 1.08965 0.28174
 O1555 O 0.40812 0.93754 0.35734
 O1556 O 0.37630 0.92819 0.32455
 C1557 C 0.40157 0.92554 0.33445
 C1558 C 0.42380 0.90854 0.31937
 C1559 C 0.42079 0.90180 0.29105
 H1560 H 0.40195 0.90914 0.27977
 O1561 O 0.48248 1.14470 0.39686
 O1562 O 0.47229 1.17688 0.36465
 C1563 C 0.48496 1.17007 0.38706
 C1564 C 0.50368 1.19146 0.40131
 C1565 C 0.50878 1.21869 0.38938
 H1566 H 0.49808 1.22434 0.37022
 O1567 O 0.51542 0.85386 0.39562
 O1568 O 0.52465 0.82202 0.36262
 C1569 C 0.51234 0.82872 0.38533
 C1570 C 0.49335 0.80747 0.39931
 C1571 C 0.48858 0.78012 0.38733
 H1572 H 0.49971 0.77434 0.36840
 O1573 O 0.60358 1.14221 0.47084
 O1574 O 0.62591 1.18446 0.47163
 C1575 C 0.62339 1.15889 0.46217
 C1576 C 0.64369 1.14827 0.44096
 C1577 C 0.67051 1.16172 0.43712
 H1578 H 0.67600 1.18018 0.44990
 O1579 O 0.38973 0.85439 0.46727
 O1580 O 0.36781 0.81198 0.46731
 C1581 C 0.37018 0.83756 0.45799
 C1582 C 0.35056 0.84817 0.43586
 C1583 C 0.32448 0.83400 0.42911
 H1584 H 0.31832 0.81493 0.44063
 Cu1585 Cu 0.53592 0.88350 0.37941
 Cu1586 Cu 0.54792 0.84518 0.34019
 Cu1587 Cu 0.46248 1.11441 0.38072
 Cu1588 Cu 0.44929 1.15320 0.34255
 Cu1589 Cu 0.38451 0.95981 0.37997
 Cu1590 Cu 0.34603 0.94866 0.34079
 Cu1591 Cu 0.61245 1.03817 0.38127
 Cu1592 Cu 0.65172 1.05014 0.34319
 C1593 C 0.44922 0.90037 0.33314
 H1594 H 0.45175 0.90535 0.35495
 C1595 C 0.44323 0.88780 0.27665
 C1596 C 0.54880 1.09884 0.33446
 H1597 H 0.54610 1.09396 0.35623
 C1598 C 0.55549 1.11095 0.27800
 C1599 C 0.35820 0.87325 0.42134
 H1600 H 0.37832 0.88411 0.42615
 C1601 C 0.30612 0.84511 0.40822
 C1602 C 0.63650 1.12402 0.42495
 H1603 H 0.61573 1.11368 0.42789
 C1604 C 0.69033 1.15087 0.41759
 C1605 C 0.47782 0.81532 0.42326
 H1606 H 0.48095 0.83659 0.43233
 C1607 C 0.46798 0.76116 0.39845
 C1608 C 0.51859 1.18381 0.42558
 H1609 H 0.51516 1.16264 0.43462
 C1610 C 0.52917 1.23771 0.40089
 C1611 C 0.40500 1.04704 0.33469
 H1612 H 0.41625 1.04148 0.35360
 C1613 C 0.37412 1.06194 0.28686
 C1614 C 0.59286 0.95159 0.33429
 H1615 H 0.58115 0.95714 0.35298
 C1616 C 0.62488 0.93671 0.28709
 C1617 C 0.62186 0.85684 0.42157
 H1618 H 0.61090 0.87701 0.42628
 C1619 C 0.65045 0.80473 0.40873
 C1620 C 0.37645 1.13721 0.42500
 H1621 H 0.38728 1.11672 0.42838
 C1622 C 0.34813 1.19028 0.41639
 C1623 C 0.31592 1.01839 0.42424
 H1624 H 0.33645 1.01404 0.43409
 C1625 C 0.26369 1.03130 0.39744
 C1626 C 0.68013 0.97786 0.42456
 H1627 H 0.65936 0.98181 0.43414
 C1628 C 0.73293 0.96598 0.39841
 O1629 O 0.55679 0.90744 0.63508
 O1630 O 0.56768 0.87458 0.66638
 C1631 C 0.57013 0.90015 0.65694
 C1632 C 0.58938 0.92146 0.67081
 C1633 C 0.60563 0.91379 0.69433
 H1634 H 0.60331 0.89241 0.70326
 O1635 O 0.44011 1.08879 0.63675
 O1636 O 0.42941 1.12101 0.66897
 C1637 C 0.42733 1.09549 0.65915
 C1638 C 0.40920 1.07353 0.67329
 C1639 C 0.39553 1.07983 0.69865
 H1640 H 0.39898 1.10065 0.70856
 O1641 O 0.35345 0.98112 0.59714
 O1642 O 0.32102 0.97107 0.62911
 C1643 C 0.32809 0.98374 0.60681
 C1644 C 0.30695 1.00262 0.59263
 C1645 C 0.27974 1.00759 0.60450
 H1646 H 0.27393 0.99656 0.62343
 O1647 O 0.64233 1.01427 0.59547
 O1648 O 0.67505 1.02419 0.62730
 C1649 C 0.66771 1.01140 0.60501
 C1650 C 0.68863 0.99198 0.59092
 C1651 C 0.71587 0.98736 0.60281
 H1652 H 0.72178 0.99904 0.62145
 O1653 O 0.63762 0.89027 0.52167
 O1654 O 0.67963 0.86777 0.52175
 C1655 C 0.65402 0.87050 0.53086
 C1656 C 0.64315 0.85058 0.55239
 C1657 C 0.65675 0.82390 0.55703
 H1658 H 0.67529 0.81821 0.54459
 O1659 O 0.35677 1.10384 0.52464
 O1660 O 0.31486 1.12650 0.52441
 C1661 C 0.34031 1.12373 0.53381
 C1662 C 0.35102 1.14363 0.55569
 C1663 C 0.33718 1.17019 0.56117
 H1664 H 0.31843 1.17602 0.54911
 O1665 O 0.40723 0.93863 0.63557
 O1666 O 0.37470 0.92805 0.66726
 C1667 C 0.40026 0.92607 0.65796
 C1668 C 0.42208 0.90873 0.67302
 C1669 C 0.41594 0.89692 0.69915
 H1670 H 0.39519 0.90111 0.70869
 O1671 O 0.58939 1.05738 0.63496
 O1672 O 0.62229 1.06787 0.66641
 C1673 C 0.59671 1.07023 0.65721
 C1674 C 0.57544 1.08881 0.67188
 C1675 C 0.58306 1.10405 0.69612
 H1676 H 0.60439 1.10140 0.70494
 O1677 O 0.51278 0.85459 0.59650
 O1678 O 0.52257 0.82188 0.62832
 C1679 C 0.50993 0.82914 0.60599
 C1680 C 0.49103 0.80797 0.59158
 C1681 C 0.48662 0.78054 0.60325
 H1682 H 0.49779 0.77481 0.62214
 O1683 O 0.48186 1.14374 0.59894
 O1684 O 0.47180 1.17604 0.63131
 C1685 C 0.48438 1.16919 0.60883
 C1686 C 0.50305 1.19058 0.59458
 C1687 C 0.50772 1.21823 0.60615
 H1688 H 0.49670 1.22438 0.62504
 O1689 O 0.39080 0.85686 0.52105
 O1690 O 0.36871 0.81448 0.52100
 C1691 C 0.37128 0.84018 0.53024
 C1692 C 0.35163 0.85083 0.55204
 C1693 C 0.32504 0.83722 0.55676
 H1694 H 0.31907 0.81886 0.54402
 O1695 O 0.60357 1.14167 0.52437
 O1696 O 0.62591 1.18392 0.52486
 C1697 C 0.62339 1.15811 0.53359
 C1698 C 0.64367 1.14689 0.55460
 C1699 C 0.67044 1.16036 0.55925
 H1700 H 0.67602 1.17926 0.54723
 O1701 O 0.49396 1.10583 0.63634
 O1702 O 0.48360 1.13796 0.66875
 C1703 C 0.50039 1.11884 0.65871
 C1704 C 0.52824 1.11254 0.67249
 C1705 C 0.53638 1.12780 0.69643
 H1706 H 0.52145 1.14304 0.70570
 O1707 O 0.50276 0.89062 0.63658
 O1708 O 0.51322 0.85836 0.66861
 C1709 C 0.49665 0.87793 0.65916
 C1710 C 0.46946 0.88545 0.67385
 C1711 C 0.46296 0.87381 0.70001
 H1712 H 0.47865 0.85995 0.70989
 O1713 O 0.62685 1.06863 0.59630
 O1714 O 0.66013 1.07849 0.62761
 C1715 C 0.64713 1.08465 0.60526
 C1716 C 0.65539 1.11077 0.58953
 C1717 C 0.68210 1.12442 0.59401
 H1718 H 0.69696 1.11546 0.60903
 O1719 O 0.36997 0.92725 0.59662
 O1720 O 0.33697 0.91708 0.62801
 C1721 C 0.34975 0.91115 0.60542
 C1722 C 0.34113 0.88543 0.58899
 C1723 C 0.31451 0.87165 0.59346
 H1724 H 0.30007 0.87999 0.60922
 O1725 O 0.55363 1.16682 0.52497
 O1726 O 0.57573 1.20914 0.52555
 C1727 C 0.55659 1.19210 0.53498
 C1728 C 0.53847 1.20151 0.55855
 C1729 C 0.54309 1.22875 0.57068
 H1730 H 0.55902 1.24330 0.56199
 O1731 O 0.43995 0.83071 0.52189
 O1732 O 0.41834 0.78815 0.52208
 C1733 C 0.43719 0.80541 0.53187
 C1734 C 0.45533 0.79638 0.55574
 C1735 C 0.45079 0.76932 0.56833
 H1736 H 0.43465 0.75463 0.56012
 O1737 O 0.60592 1.00309 0.63435
 O1738 O 0.63854 1.01341 0.66615
 C1739 C 0.61922 0.99665 0.65648
 C1740 C 0.61318 0.96879 0.67044
 C1741 C 0.62931 0.96064 0.69369
 H1742 H 0.64484 0.97566 0.70237
 O1743 O 0.39093 0.99271 0.63519
 O1744 O 0.35866 0.98231 0.66720
 C1745 C 0.37809 0.99897 0.65765
 C1746 C 0.38517 1.02631 0.67237
 C1747 C 0.37171 1.03305 0.69757
 H1748 H 0.35729 1.01741 0.70684
 O1749 O 0.42846 1.12628 0.59842
 O1750 O 0.41824 1.15907 0.63030
 C1751 C 0.41225 1.14626 0.60768
 C1752 C 0.38622 1.15454 0.59188
 C1753 C 0.37218 1.18095 0.59712
 H1754 H 0.38066 1.19540 0.61288
 O1755 O 0.56700 0.86891 0.59687
 O1756 O 0.57704 0.83552 0.62797
 C1757 C 0.58289 0.84834 0.60543
 C1758 C 0.60844 0.83960 0.58890
 C1759 C 0.62229 0.81286 0.59329
 H1760 H 0.61404 0.79823 0.60890
 O1761 O 0.66482 0.93925 0.52246
 O1762 O 0.70701 0.91722 0.52271
 C1763 C 0.69008 0.93640 0.53238
 C1764 C 0.69946 0.95493 0.55598
 C1765 C 0.72635 0.95019 0.56876
 H1766 H 0.74067 0.93353 0.56088
 O1767 O 0.33115 1.05384 0.52414
 O1768 O 0.28916 1.07628 0.52414
 C1769 C 0.30583 1.05690 0.53373
 C1770 C 0.29612 1.03858 0.55707
 C1771 C 0.26919 1.04358 0.56957
 H1772 H 0.25493 1.06003 0.56132
 Cu1773 Cu 0.53391 0.88379 0.61326
 Cu1774 Cu 0.54615 0.84436 0.65105
 Cu1775 Cu 0.46203 1.11286 0.61445
 Cu1776 Cu 0.44960 1.15164 0.65317
 Cu1777 Cu 0.41756 0.84752 0.49431
 Cu1778 Cu 0.39164 0.79646 0.49447
 Cu1779 Cu 0.64745 0.91688 0.49493
 Cu1780 Cu 0.69804 0.89045 0.49524
 Cu1781 Cu 0.34845 1.07658 0.49740
 Cu1782 Cu 0.29797 1.10346 0.49723
 Cu1783 Cu 0.57632 1.15041 0.49765
 Cu1784 Cu 0.60280 1.20136 0.49837
 Cu1785 Cu 0.38372 0.96079 0.61296
 Cu1786 Cu 0.34465 0.94846 0.65114
 Cu1787 Cu 0.61271 1.03502 0.61216
 Cu1788 Cu 0.65221 1.04709 0.65010
 C1789 C 0.59314 0.94915 0.65925
 H1790 H 0.58109 0.95512 0.64092
 C1791 C 0.62596 0.93315 0.70557
 C1792 C 0.40404 1.04658 0.66049
 H1793 H 0.41408 1.04169 0.64077
 C1794 C 0.37651 1.05982 0.71075
 C1795 C 0.31478 1.01788 0.56865
 H1796 H 0.33591 1.01448 0.55962
 C1797 C 0.26091 1.02828 0.59330
 C1798 C 0.68075 0.97597 0.56723
 H1799 H 0.65963 0.97918 0.55813
 C1800 C 0.73466 0.96630 0.59215
 C1801 C 0.61891 0.85813 0.56822
 H1802 H 0.60847 0.87881 0.56475
 C1803 C 0.64620 0.80455 0.57710
 C1804 C 0.37561 1.13617 0.57103
 H1805 H 0.38633 1.11572 0.56697
 C1806 C 0.34793 1.18928 0.58161
 C1807 C 0.44897 0.90313 0.66076
 H1808 H 0.45362 0.91186 0.64046
 C1809 C 0.43619 0.87948 0.71294
 C1810 C 0.54784 1.09297 0.66049
 H1811 H 0.54191 1.08163 0.64165
 C1812 C 0.56378 1.12388 0.70825
 C1813 C 0.47560 0.81559 0.56755
 H1814 H 0.47866 0.83685 0.55859
 C1815 C 0.46631 0.76133 0.59205
 C1816 C 0.51828 1.18259 0.57052
 H1817 H 0.51521 1.16120 0.56168
 C1818 C 0.52795 1.23723 0.59439
 C1819 C 0.35941 0.87497 0.56809
 H1820 H 0.38000 0.88544 0.56455
 C1821 C 0.30605 0.84776 0.57714
 C1822 C 0.63649 1.12202 0.56965
 H1823 H 0.61587 1.11157 0.56613
 C1824 C 0.69007 1.14901 0.57867
 O1825 O 0.51133 0.39148 0.86454
 O1826 O 0.52153 0.35879 0.83261
 C1827 C 0.50485 0.37821 0.84232
 C1828 C 0.47695 0.38437 0.82843
 C1829 C 0.46898 0.36898 0.80449
 H1830 H 0.48417 0.35402 0.79523
 O1831 O 0.50220 0.60443 0.86445
 O1832 O 0.49350 0.63576 0.83110
 C1833 C 0.50977 0.61693 0.84225
 C1834 C 0.53834 0.61074 0.82985
 C1835 C 0.54752 0.62673 0.80690
 H1836 H 0.53301 0.64220 0.79744
 O1837 O 0.37676 0.42965 0.90325
 O1838 O 0.34347 0.41940 0.87205
 C1839 C 0.35635 0.41362 0.89453
 C1840 C 0.34786 0.38788 0.91065
 C1841 C 0.32094 0.37453 0.90659
 H1842 H 0.30606 0.38344 0.89156
 O1843 O 0.63537 0.56663 0.90684
 O1844 O 0.66990 0.57619 0.87679
 C1845 C 0.65595 0.58263 0.89858
 C1846 C 0.66333 0.60915 0.91432
 C1847 C 0.69005 0.62296 0.91060
 H1848 H 0.70562 0.61370 0.89637
 O1849 O 0.44915 0.33099 0.97541
 O1850 O 0.42650 0.28899 0.97532
 C1851 C 0.44578 0.30567 0.96554
 C1852 C 0.46360 0.29609 0.94167
 C1853 C 0.45766 0.26969 0.92818
 H1854 H 0.44078 0.25566 0.93595
 O1855 O 0.55895 0.66908 0.97396
 O1856 O 0.58160 0.71109 0.97326
 C1857 C 0.56249 0.69409 0.96361
 C1858 C 0.54494 0.70298 0.93946
 C1859 C 0.55054 0.72936 0.92605
 H1860 H 0.56698 0.74384 0.93406
 O1861 O 0.39847 0.49380 0.86350
 O1862 O 0.36596 0.48285 0.83179
 C1863 C 0.38554 0.49955 0.84097
 C1864 C 0.39242 0.52655 0.82592
 C1865 C 0.37683 0.53414 0.80212
 H1866 H 0.36104 0.51917 0.79383
 O1867 O 0.61612 0.50125 0.86730
 O1868 O 0.64927 0.51169 0.83613
 C1869 C 0.62943 0.49520 0.84500
 C1870 C 0.62179 0.46853 0.82957
 C1871 C 0.62956 0.46497 0.80165
 H1872 H 0.64068 0.48223 0.79085
 O1873 O 0.57548 0.36969 0.90398
 O1874 O 0.58589 0.33680 0.87227
 C1875 C 0.59148 0.34936 0.89512
 C1876 C 0.61679 0.34037 0.91166
 C1877 C 0.63130 0.31440 0.90578
 H1878 H 0.62376 0.30077 0.88895
 O1879 O 0.43477 0.62680 0.89844
 O1880 O 0.42606 0.65801 0.86499
 C1881 C 0.41876 0.64595 0.88752
 C1882 C 0.39092 0.65348 0.90066
 C1883 C 0.37165 0.67252 0.88759
 H1884 H 0.37770 0.68277 0.86830
 O1885 O 0.33918 0.56132 0.97608
 O1886 O 0.29647 0.58234 0.97558
 C1887 C 0.31379 0.56317 0.96636
 C1888 C 0.30484 0.54406 0.94297
 C1889 C 0.27841 0.54913 0.92951
 H1890 H 0.26406 0.56593 0.93706
 O1891 O 0.66896 0.43753 0.98251
 O1892 O 0.71134 0.41585 0.98371
 C1893 C 0.69467 0.43502 0.97373
 C1894 C 0.70522 0.45406 0.95125
 C1895 C 0.73372 0.45134 0.94183
 H1896 H 0.74815 0.43586 0.95144
 O1897 O 0.44787 0.58857 0.86108
 O1898 O 0.43921 0.61982 0.82767
 C1899 C 0.43608 0.59480 0.83808
 C1900 C 0.41735 0.57315 0.82418
 C1901 C 0.40164 0.58033 0.80019
 H1902 H 0.40443 0.60140 0.79074
 O1903 O 0.56609 0.40684 0.86479
 O1904 O 0.57635 0.37440 0.83263
 C1905 C 0.57905 0.39979 0.84255
 C1906 C 0.59748 0.42150 0.82843
 C1907 C 0.60599 0.41795 0.80065
 H1908 H 0.59886 0.39913 0.78903
 O1909 O 0.65028 0.51216 0.90847
 O1910 O 0.68411 0.52149 0.87768
 C1911 C 0.67599 0.50918 0.89991
 C1912 C 0.69637 0.49053 0.91551
 C1913 C 0.72522 0.48788 0.90689
 H1914 H 0.73285 0.50022 0.88933
 O1915 O 0.36269 0.48450 0.90372
 O1916 O 0.33004 0.47424 0.87195
 C1917 C 0.33737 0.48744 0.89408
 C1918 C 0.31642 0.50722 0.90786
 C1919 C 0.28961 0.51239 0.89526
 H1920 H 0.28414 0.50111 0.87629
 O1921 O 0.36347 0.61125 0.97311
 O1922 O 0.32082 0.63237 0.97151
 C1923 C 0.34616 0.62909 0.96199
 C1924 C 0.35529 0.64515 0.93702
 C1925 C 0.33612 0.66392 0.92345
 H1926 H 0.31499 0.66782 0.93222
 O1927 O 0.64306 0.38796 0.98186
 O1928 O 0.68529 0.36592 0.98258
 C1929 C 0.66004 0.36863 0.97262
 C1930 C 0.65027 0.34958 0.94973
 C1931 C 0.66466 0.32354 0.94354
 H1932 H 0.68289 0.31721 0.95610
 O1933 O 0.59846 0.55505 0.86805
 O1934 O 0.63235 0.56591 0.83779
 C1935 C 0.60648 0.56823 0.84634
 C1936 C 0.58566 0.58718 0.83159
 C1937 C 0.59424 0.60323 0.80824
 H1938 H 0.61591 0.60099 0.80011
 O1939 O 0.41531 0.43974 0.86530
 O1940 O 0.38246 0.42868 0.83398
 C1941 C 0.40803 0.42640 0.84331
 C1942 C 0.42941 0.40756 0.82897
 C1943 C 0.42195 0.39204 0.80483
 H1944 H 0.40061 0.39447 0.79598
 O1945 O 0.48830 0.64408 0.89990
 O1946 O 0.47955 0.67533 0.86648
 C1947 C 0.49123 0.66918 0.88952
 C1948 C 0.50964 0.69096 0.90358
 C1949 C 0.51513 0.71770 0.89085
 H1950 H 0.50461 0.72284 0.87147
 O1951 O 0.52185 0.35358 0.90235
 O1952 O 0.53218 0.32095 0.87036
 C1953 C 0.51915 0.32814 0.89252
 C1954 C 0.49968 0.30708 0.90621
 C1955 C 0.49379 0.28036 0.89344
 H1956 H 0.50451 0.27489 0.87422
 O1957 O 0.60816 0.64247 0.97627
 O1958 O 0.63108 0.68440 0.97603
 C1959 C 0.62858 0.65841 0.96761
 C1960 C 0.64974 0.64642 0.94779
 C1961 C 0.67655 0.65999 0.94389
 H1962 H 0.68142 0.67948 0.95546
 O1963 O 0.39986 0.35724 0.97561
 O1964 O 0.37687 0.31535 0.97595
 C1965 C 0.37974 0.34094 0.96680
 C1966 C 0.35947 0.35210 0.94584
 C1967 C 0.33251 0.33890 0.94165
 H1968 H 0.32687 0.32017 0.95388
 Cu1969 Cu 0.54279 0.38384 0.88696
 Cu1970 Cu 0.55517 0.34461 0.84865
 Cu1971 Cu 0.46906 0.61274 0.88426
 Cu1972 Cu 0.45876 0.65030 0.84414
 Cu1973 Cu 0.39168 0.46283 0.88705
 Cu1974 Cu 0.35224 0.45019 0.84931
 Cu1975 Cu 0.62166 0.53278 0.89066
 Cu1976 Cu 0.66230 0.54478 0.85402
 C1977 C 0.45708 0.40373 0.84039
 H1978 H 0.46288 0.41520 0.85919
 C1979 C 0.44148 0.37243 0.79268
 C1980 C 0.55750 0.59092 0.84206
 H1981 H 0.55074 0.57904 0.86024
 C1982 C 0.57538 0.62340 0.79621
 C1983 C 0.36684 0.37663 0.93042
 H1984 H 0.38771 0.38674 0.93349
 C1985 C 0.31283 0.35026 0.92233
 C1986 C 0.64344 0.62089 0.93314
 H1987 H 0.62275 0.61040 0.93604
 C1988 C 0.69708 0.64815 0.92564
 C1989 C 0.48478 0.31459 0.93057
 H1990 H 0.48889 0.33537 0.94030
 C1991 C 0.47259 0.26173 0.90404
 C1992 C 0.52429 0.68399 0.92815
 H1993 H 0.52051 0.66320 0.93784
 C1994 C 0.53581 0.73680 0.90174
 C1995 C 0.41282 0.54605 0.83661
 H1996 H 0.42444 0.54054 0.85533
 C1997 C 0.38098 0.56110 0.78933
 C1998 C 0.60570 0.44676 0.84268
 H1999 H 0.59947 0.44955 0.86414
 C2000 C 0.62161 0.43984 0.78708
 C2001 C 0.62630 0.35767 0.93378
 H2002 H 0.61526 0.37783 0.93834
 C2003 C 0.65506 0.30557 0.92175
 C2004 C 0.38266 0.64016 0.92550
 H2005 H 0.39735 0.62526 0.93554
 C2006 C 0.34413 0.67760 0.89866
 C2007 C 0.32377 0.52297 0.93196
 H2008 H 0.34462 0.51955 0.94154
 C2009 C 0.27077 0.53356 0.90564
 C2010 C 0.68667 0.47381 0.93804
 H2011 H 0.66442 0.47550 0.94472
 C2012 C 0.74385 0.46817 0.91987
 O2013 O 0.56070 0.41096 1.14271
 O2014 O 0.57004 0.37985 1.17607
 C2015 C 0.57269 0.40500 1.16560
 C2016 C 0.59037 0.42747 1.17971
 C2017 C 0.60468 0.42136 1.20470
 H2018 H 0.60217 0.40033 1.21430
 O2019 O 0.44190 0.59568 1.13870
 O2020 O 0.43081 0.62807 1.17063
 C2021 C 0.42860 0.60256 1.16072
 C2022 C 0.40978 0.58082 1.17432
 C2023 C 0.39297 0.58837 1.19748
 H2024 H 0.39454 0.60994 1.20631
 O2025 O 0.35949 0.48796 1.10026
 O2026 O 0.32645 0.47790 1.13171
 C2027 C 0.33451 0.49184 1.11044
 C2028 C 0.31577 0.51517 1.09971
 C2029 C 0.29553 0.52762 1.11772
 H2030 H 0.29182 0.51762 1.13759
 O2031 O 0.64445 0.51858 1.10454
 O2032 O 0.67649 0.52928 1.13676
 C2033 C 0.66948 0.51558 1.11487
 C2034 C 0.69019 0.49482 1.10231
 C2035 C 0.71693 0.48988 1.11517
 H2036 H 0.72271 0.50229 1.13339
 O2037 O 0.64355 0.38684 1.03585
 O2038 O 0.68563 0.36453 1.03645
 C2039 C 0.65999 0.36709 1.04526
 C2040 C 0.64894 0.34749 1.06700
 C2041 C 0.66129 0.32018 1.07205
 H2042 H 0.67927 0.31338 1.05937
 O2043 O 0.36331 0.61580 1.02705
 O2044 O 0.32139 0.63834 1.02534
 C2045 C 0.34676 0.63618 1.03507
 C2046 C 0.35715 0.65656 1.05679
 C2047 C 0.34387 0.68352 1.06181
 H2048 H 0.32595 0.68987 1.04887
 O2049 O 0.41158 0.44363 1.13923
 O2050 O 0.37809 0.43308 1.17000
 C2051 C 0.40383 0.43086 1.16129
 C2052 C 0.42478 0.41261 1.17646
 C2053 C 0.41654 0.39768 1.20060
 H2054 H 0.39498 0.40028 1.20890
 O2055 O 0.59095 0.56358 1.14133
 O2056 O 0.62290 0.57412 1.17369
 C2057 C 0.59761 0.57642 1.16378
 C2058 C 0.57552 0.59394 1.17845
 C2059 C 0.57864 0.60105 1.20664
 H2060 H 0.59745 0.59370 1.21797
 O2061 O 0.51895 0.35578 1.10531
 O2062 O 0.52692 0.32458 1.13896
 C2063 C 0.51546 0.33085 1.11578
 C2064 C 0.49711 0.30934 1.10128
 C2065 C 0.49168 0.28225 1.11333
 H2066 H 0.50178 0.27679 1.13284
 O2067 O 0.48515 0.64953 1.10161
 O2068 O 0.47595 0.68186 1.13420
 C2069 C 0.48818 0.67483 1.11154
 C2070 C 0.50678 0.69590 1.09695
 C2071 C 0.51120 0.72373 1.10799
 H2072 H 0.50022 0.73003 1.12685
 O2073 O 0.39941 0.35787 1.02894
 O2074 O 0.37640 0.31599 1.02895
 C2075 C 0.37910 0.34185 1.03773
 C2076 C 0.35835 0.35372 1.05812
 C2077 C 0.33127 0.34069 1.06213
 H2078 H 0.32585 0.32147 1.05034
 O2079 O 0.60691 0.64452 1.02968
 O2080 O 0.62969 0.68652 1.02910
 C2081 C 0.62670 0.66112 1.03870
 C2082 C 0.64648 0.65058 1.06042
 C2083 C 0.67287 0.66456 1.06545
 H2084 H 0.67849 0.68323 1.05314
 O2085 O 0.49563 0.61319 1.14066
 O2086 O 0.48495 0.64461 1.17364
 C2087 C 0.50152 0.62535 1.16361
 C2088 C 0.52812 0.61719 1.17851
 C2089 C 0.53136 0.62363 1.20676
 H2090 H 0.51392 0.63387 1.21810
 O2091 O 0.50694 0.39376 1.14269
 O2092 O 0.51603 0.36312 1.17653
 C2093 C 0.49985 0.38197 1.16540
 C2094 C 0.47191 0.38905 1.17838
 C2095 C 0.46320 0.37420 1.20218
 H2096 H 0.47783 0.35907 1.21197
 O2097 O 0.62939 0.57324 1.10321
 O2098 O 0.66170 0.58392 1.13520
 C2099 C 0.64936 0.58952 1.11237
 C2100 C 0.65782 0.61538 1.09631
 C2101 C 0.68423 0.62952 1.10113
 H2102 H 0.69883 0.62114 1.11669
 O2103 O 0.37452 0.43282 1.09962
 O2104 O 0.34068 0.42322 1.13036
 C2105 C 0.35398 0.41696 1.10816
 C2106 C 0.34590 0.39073 1.09229
 C2107 C 0.31896 0.37741 1.09620
 H2108 H 0.30373 0.38677 1.11070
 O2109 O 0.55742 0.67041 1.02830
 O2110 O 0.57999 0.71247 1.02789
 C2111 C 0.56048 0.69601 1.03756
 C2112 C 0.54206 0.70626 1.06065
 C2113 C 0.54643 0.73384 1.07223
 H2114 H 0.56239 0.74824 1.06335
 O2115 O 0.44902 0.33189 1.02999
 O2116 O 0.42629 0.28993 1.03033
 C2117 C 0.44550 0.30679 1.04008
 C2118 C 0.46298 0.29761 1.06421
 C2119 C 0.45766 0.27080 1.07680
 H2120 H 0.44183 0.25617 1.06795
 O2121 O 0.60661 0.50903 1.14231
 O2122 O 0.63868 0.51977 1.17451
 C2123 C 0.61939 0.50298 1.16482
 C2124 C 0.61285 0.47550 1.17927
 C2125 C 0.62715 0.46879 1.20400
 H2126 H 0.64157 0.48452 1.21330
 O2127 O 0.39599 0.49792 1.13857
 O2128 O 0.36287 0.48770 1.16987
 C2129 C 0.38223 0.50450 1.16044
 C2130 C 0.38742 0.53274 1.17415
 C2131 C 0.37042 0.54099 1.19684
 H2132 H 0.35491 0.52591 1.20539
 O2133 O 0.43127 0.63580 1.10226
 O2134 O 0.42157 0.66885 1.13404
 C2135 C 0.41576 0.65655 1.11119
 C2136 C 0.39082 0.66620 1.09455
 C2137 C 0.37755 0.69314 1.09932
 H2138 H 0.38571 0.70721 1.11555
 O2139 O 0.57292 0.36904 1.10822
 O2140 O 0.58126 0.33736 1.14137
 C2141 C 0.58802 0.34871 1.11844
 C2142 C 0.61361 0.33851 1.10319
 C2143 C 0.62589 0.31111 1.10809
 H2144 H 0.61656 0.29707 1.12362
 O2145 O 0.66638 0.43836 1.03651
 O2146 O 0.70857 0.41633 1.03791
 C2147 C 0.69146 0.43590 1.04675
 C2148 C 0.70061 0.45548 1.06958
 C2149 C 0.72706 0.45084 1.08298
 H2150 H 0.74106 0.43345 1.07606
 O2151 O 0.33911 0.56533 1.03047
 O2152 O 0.29714 0.58787 1.03056
 C2153 C 0.31435 0.56945 1.04099
 C2154 C 0.30632 0.55383 1.06654
 C2155 C 0.28660 0.56636 1.08529
 H2156 H 0.27642 0.58685 1.08034
 Cu2157 Cu 0.53927 0.38567 1.12147
 Cu2158 Cu 0.54946 0.34825 1.16176
 Cu2159 Cu 0.46434 0.62016 1.11771
 Cu2160 Cu 0.45230 0.65899 1.15650
 Cu2161 Cu 0.42686 0.34856 1.00248
 Cu2162 Cu 0.39967 0.29803 1.00268
 Cu2163 Cu 0.65123 0.41476 1.00919
 Cu2164 Cu 0.70203 0.38863 1.01028
 Cu2165 Cu 0.35546 0.58628 1.00193
 Cu2166 Cu 0.30454 0.61213 1.00069
 Cu2167 Cu 0.58039 0.65251 1.00207
 Cu2168 Cu 0.60754 0.70308 1.00146
 Cu2169 Cu 0.38880 0.46611 1.11616
 Cu2170 Cu 0.34876 0.45414 1.15361
 Cu2171 Cu 0.61456 0.54031 1.11961
 Cu2172 Cu 0.65313 0.55303 1.15825
 C2173 C 0.59438 0.45477 1.16732
 H2174 H 0.58384 0.45957 1.14785
 C2175 C 0.62342 0.44178 1.21665
 C2176 C 0.40709 0.55276 1.16302
 H2177 H 0.41964 0.54678 1.14497
 C2178 C 0.37297 0.56869 1.20846
 C2179 C 0.32113 0.52840 1.07411
 H2180 H 0.33742 0.51940 1.06047
 C2181 C 0.28191 0.55389 1.11138
 C2182 C 0.68230 0.47766 1.07933
 H2183 H 0.66151 0.48095 1.06959
 C2184 C 0.73525 0.46769 1.10590
 C2185 C 0.62523 0.35631 1.08267
 H2186 H 0.61584 0.37747 1.07902
 C2187 C 0.64967 0.30150 1.09245
 C2188 C 0.38061 0.64832 1.07322
 H2189 H 0.39069 0.62744 1.06973
 C2190 C 0.35421 0.70228 1.08292
 C2191 C 0.45267 0.40839 1.16573
 H2192 H 0.45907 0.41936 1.14692
 C2193 C 0.43553 0.37803 1.21314
 C2194 C 0.55021 0.60223 1.16458
 H2195 H 0.54766 0.59696 1.14284
 C2196 C 0.55640 0.61543 1.22091
 C2197 C 0.48297 0.31667 1.07647
 H2198 H 0.48667 0.33773 1.06729
 C2199 C 0.47175 0.26305 1.10136
 C2200 C 0.52196 0.68753 1.07301
 H2201 H 0.51899 0.66593 1.06461
 C2202 C 0.53122 0.74266 1.09590
 C2203 C 0.36531 0.37887 1.07309
 H2204 H 0.38615 0.38903 1.07009
 C2205 C 0.31117 0.35270 1.08081
 C2206 C 0.63926 0.62596 1.07579
 H2207 H 0.61884 0.61519 1.07202
 C2208 C 0.69216 0.65397 1.08554
 C2209 C 1.09143 1.15763 1.27280
 C2210 C 1.07380 1.18081 1.26639
 C2211 C 1.06016 1.17293 1.24253
 C2212 C 1.07063 1.14568 1.23603
 O2213 O 1.08963 1.13638 1.25441
 H2214 H 1.07109 1.20096 1.27759
 H2215 H 1.04495 1.18588 1.23092
 C2216 C 1.09007 0.64920 0.77857
 C2217 C 1.06892 0.66987 0.77524
 C2218 C 1.05460 0.66189 0.75184
 C2219 C 1.06817 0.63695 0.74256
 O2220 O 1.08979 0.62924 0.75887
 H2221 H 1.06457 0.68857 0.78815
 H2222 H 1.03691 0.67350 0.74240
 C2223 C 0.59486 1.15479 0.76811
 C2224 C 0.57724 1.17784 0.76134
 C2225 C 0.56280 1.16912 0.73819
 C2226 C 0.57279 1.14152 0.73241
 O2227 O 0.59232 1.13280 0.75056
 H2228 H 0.57500 1.19844 0.77188
 H2229 H 0.54729 1.18172 0.72660
 C2230 C 0.57190 0.62080 1.29172
 C2231 C 0.55369 0.59710 1.29243
 C2232 C 0.54341 0.59420 1.26628
 C2233 C 0.55661 0.61579 1.25132
 O2234 O 0.57395 0.63219 1.26664
 H2235 H 0.54938 0.58292 1.30975
 H2236 H 0.52973 0.57701 1.25845
 C2237 C 0.90054 0.84333 1.26439
 C2238 C 0.91772 0.82058 1.25575
 C2239 C 0.93193 0.83075 1.23308
 C2240 C 0.92224 0.85881 1.22944
 O2241 O 0.90307 0.86646 1.24838
 H2242 H 0.91996 0.79933 1.26487
 H2243 H 0.94732 0.81896 1.22050
 C2244 C 0.92903 0.38383 0.79328
 C2245 C 0.94632 0.40824 0.79382
 C2246 C 0.95658 0.41105 0.76766
 C2247 C 0.94440 0.38861 0.75288
 O2248 O 0.92763 0.37182 0.76832
 H2249 H 0.95028 0.42277 0.81105
 H2250 H 0.96970 0.42856 0.75974
 C2251 C 0.40305 0.85199 0.77337
 C2252 C 0.42966 0.83940 0.77730
 C2253 C 0.44621 0.84882 0.75583
 C2254 C 0.42836 0.86627 0.74004
 O2255 O 0.40208 0.86828 0.75089
 H2256 H 0.43596 0.82450 0.79345
 H2257 H 0.46838 0.84279 0.75198
 C2258 C 0.40518 0.34672 1.27262
 C2259 C 0.42102 0.32294 1.26407
 C2260 C 0.43472 0.33170 1.24067
 C2261 C 0.42608 0.36002 1.23658
 O2262 O 0.40806 0.36920 1.25592
 H2263 H 0.42268 0.30187 1.27363
 H2264 H 0.44902 0.31880 1.22788
 C2265 C 0.84388 1.09151 0.72840
 C2266 C 0.82099 1.07447 0.73667
 C2267 C 0.83034 1.06109 0.76012
 C2268 C 0.85809 1.07114 0.76448
 O2269 O 0.86631 1.08966 0.74526
 H2270 H 0.80017 1.07186 0.72686
 H2271 H 0.81815 1.04614 0.77275
 C2272 C 0.84939 0.58895 0.22848
 C2273 C 0.82821 0.56848 0.23269
 C2274 C 0.83627 0.55431 0.25609
 C2275 C 0.86180 0.56720 0.26448
 O2276 O 0.86976 0.58834 0.24766
 H2277 H 0.80920 0.56436 0.22028
 H2278 H 0.82443 0.53707 0.26608
 C2279 C 0.34438 1.09042 0.22591
 C2280 C 0.32174 1.07227 0.23228
 C2281 C 0.32985 1.05894 0.25614
 C2282 C 0.35678 1.07007 0.26249
 O2283 O 0.36557 1.08928 0.24416
 H2284 H 0.30190 1.06897 0.22090
 H2285 H 0.31741 1.04325 0.26768
 C2286 C 0.34820 0.59142 0.73023
 C2287 C 0.32584 0.57329 0.73748
 C2288 C 0.33524 0.55922 0.76050
 C2289 C 0.36265 0.56983 0.76564
 O2290 O 0.37051 0.58953 0.74726
 H2291 H 0.30525 0.57056 0.72727
 H2292 H 0.32319 0.54352 0.77238
 C2293 C 1.15673 0.90932 0.72759
 C2294 C 1.17975 0.92707 0.73397
 C2295 C 1.17233 0.94010 0.75828
 C2296 C 1.14539 0.92923 0.76486
 O2297 O 1.13594 0.91044 0.74626
 H2298 H 1.19941 0.93029 0.72233
 H2299 H 1.18522 0.95542 0.76994
 C2300 C 1.15995 0.40507 0.23445
 C2301 C 1.18270 0.42260 0.24207
 C2302 C 1.17398 0.43579 0.26591
 C2303 C 1.14656 0.42528 0.27109
 O2304 O 1.13804 0.40649 0.25201
 H2305 H 1.20301 0.42571 0.23147
 H2306 H 1.18630 0.45110 0.27814
 C2307 C 0.65626 0.90942 0.22612
 C2308 C 0.67985 0.92511 0.23517
 C2309 C 0.67112 0.93771 0.25930
 C2310 C 0.64303 0.92855 0.26324
 O2311 O 0.63398 0.91132 0.24316
 H2312 H 0.70070 0.92743 0.22539
 H2313 H 0.68385 0.95163 0.27261
 C2314 C 0.62892 0.42324 0.71644
 C2315 C 0.60708 0.44352 0.71469
 C2316 C 0.60406 0.45440 0.74066
 C2317 C 0.62354 0.43938 0.75664
 O2318 O 0.63881 0.42031 0.74206
 H2319 H 0.59411 0.44880 0.69677
 H2320 H 0.58788 0.46966 0.74768
 C2321 C 1.26572 1.17062 1.09654
 C2322 C 1.26304 1.19002 1.07501
 C2323 C 1.23525 1.18704 1.06607
 C2324 C 1.22306 1.16600 1.08279
 O2325 O 1.24163 1.15616 1.10130
 H2326 H 1.27924 1.20438 1.06660
 H2327 H 1.22553 1.19855 1.04900
 C2328 C 1.26217 0.67068 0.60333
 C2329 C 1.25928 0.68977 0.58156
 C2330 C 1.23170 0.68625 0.57246
 C2331 C 1.21974 0.66518 0.58925
 O2332 O 1.23829 0.65581 0.60807
 H2333 H 1.27526 0.70428 0.57300
 H2334 H 1.22202 0.69735 0.55511
 C2335 C 0.76142 1.16719 0.59752
 C2336 C 0.75828 1.18799 0.57735
 C2337 C 0.73085 1.18451 0.56764
 C2338 C 0.71926 1.16177 0.58263
 O2339 O 0.73793 1.15134 0.60081
 H2340 H 0.77399 1.20372 0.57044
 H2341 H 0.72093 1.19699 0.55132
 C2342 C 0.76316 0.67342 1.10432
 C2343 C 0.75891 0.69540 1.08553
 C2344 C 0.73145 0.69158 1.07609
 C2345 C 0.72096 0.66744 1.08980
 O2346 O 0.74031 0.65652 1.10702
 H2347 H 0.77391 0.71215 1.07942
 H2348 H 0.72074 0.70490 1.06087
 C2349 C 1.24345 0.88811 0.84315
 C2350 C 1.21492 0.88000 0.84619
 C2351 C 1.20248 0.90157 0.86107
 C2352 C 1.22427 0.92109 0.86647
 O2353 O 1.24934 0.91318 0.85550
 H2354 H 1.20463 0.86022 0.83921
 H2355 H 1.18057 0.90211 0.86883
 C2356 C 1.29680 0.43443 0.37401
 C2357 C 1.29988 0.46071 0.36071
 C2358 C 1.27917 0.47811 0.37191
 C2359 C 1.26502 0.46120 0.39118
 O2360 O 1.27589 0.43474 0.39260
 H2361 H 1.31488 0.46648 0.34450
 H2362 H 1.27466 0.50030 0.36625
 C2363 C 0.79080 0.93021 0.36608
 C2364 C 0.79460 0.95662 0.35330
 C2365 C 0.77390 0.97418 0.36432
 C2366 C 0.75905 0.95713 0.38299
 O2367 O 0.76943 0.93046 0.38415
 H2368 H 0.81018 0.96233 0.33757
 H2369 H 0.76996 0.99660 0.35906
 C2370 C 0.81024 0.44077 0.89673
 C2371 C 0.81471 0.46922 0.88880
 C2372 C 0.79045 0.48369 0.89685
 C2373 C 0.77323 0.46311 0.90928
 O2374 O 0.78525 0.43713 0.90937
 H2375 H 0.83284 0.47828 0.87772
 H2376 H 0.78574 0.50642 0.89373
 C2377 C 0.73707 0.83561 1.09355
 C2378 C 0.74019 0.81509 1.07297
 C2379 C 0.76791 0.81817 1.06388
 C2380 C 0.77959 0.84044 1.07961
 O2381 O 0.76077 0.85092 1.09764
 H2382 H 0.72429 0.79984 1.06540
 H2383 H 0.77795 0.80587 1.04742
 C2384 C 0.73579 0.32598 0.61330
 C2385 C 0.74102 0.30142 0.59770
 C2386 C 0.76830 0.30467 0.58761
 C2387 C 0.77786 0.33109 0.59763
 O2388 O 0.75807 0.34399 0.61340
 H2389 H 0.72660 0.28341 0.59384
 H2390 H 0.77960 0.28952 0.57436
 C2391 C 0.23472 0.83003 0.59559
 C2392 C 0.23773 0.80905 0.57544
 C2393 C 0.26524 0.81224 0.56589
 C2394 C 0.27692 0.83503 0.58095
 O2395 O 0.25829 0.84570 0.59902
 H2396 H 0.22189 0.79342 0.56848
 H2397 H 0.27517 0.79952 0.54965
 C2398 C 0.23952 0.33463 1.09866
 C2399 C 0.24161 0.31682 1.07569
 C2400 C 0.26901 0.32062 1.06612
 C2401 C 0.28169 0.34048 1.08389
 O2402 O 0.26372 0.34896 1.10366
 H2403 H 0.22526 0.30293 1.06675
 H2404 H 0.27817 0.31055 1.04789
 C2405 C 0.70986 1.06721 0.86251
 C2406 C 0.70757 1.04113 0.84855
 C2407 C 0.72832 1.02389 0.85991
 C2408 C 0.74170 1.04077 0.87989
 O2409 O 0.73031 1.06695 0.88156
 H2410 H 0.69302 1.03539 0.83191
 H2411 H 0.73327 1.00182 0.85395
 C2412 C 0.69710 0.55719 0.38477
 C2413 C 0.69323 0.53015 0.37293
 C2414 C 0.71716 0.51468 0.38007
 C2415 C 0.73367 0.53342 0.39580
 O2416 O 0.72151 0.55920 0.39866
 H2417 H 0.67559 0.52272 0.36009
 H2418 H 0.72195 0.49247 0.37445
 C2419 C 0.20602 1.06794 0.36564
 C2420 C 0.20330 1.04230 0.35101
 C2421 C 0.22400 1.02451 0.36159
 C2422 C 0.23783 1.04061 0.38183
 O2423 O 0.22675 1.06690 0.38442
 H2424 H 0.18842 1.03714 0.33445
 H2425 H 0.22856 1.00255 0.35501
 C2426 C 0.21282 0.56777 0.87202
 C2427 C 0.20925 0.54079 0.85998
 C2428 C 0.23000 0.52383 0.87166
 C2429 C 0.24461 0.54168 0.88995
 O2430 O 0.23407 0.56830 0.89029
 H2431 H 0.19385 0.53424 0.84434
 H2432 H 0.23416 0.50125 0.86707
 C2433 C 1.06974 1.29857 1.12918
 C2434 C 1.04359 1.30226 1.14238
 C2435 C 1.02594 1.28169 1.13119
 C2436 C 1.04266 1.26702 1.11201
 O2437 O 1.06923 1.27740 1.11070
 H2438 H 1.03815 1.31765 1.15849
 H2439 H 1.00369 1.27763 1.13674
 C2440 C 1.06366 0.79762 0.62983
 C2441 C 1.03814 0.80050 0.64428
 C2442 C 1.02091 0.77873 0.63457
 C2443 C 1.03729 0.76431 0.61495
 O2444 O 1.06317 0.77589 0.61203
 H2445 H 1.03288 0.81609 0.66027
 H2446 H 0.99921 0.77379 0.64133
 C2447 C 0.56009 1.30054 0.62062
 C2448 C 0.53329 1.30454 0.63259
 C2449 C 0.51724 1.28134 0.62421
 C2450 C 0.53540 1.26507 0.60770
 O2451 O 0.56139 1.27671 0.60549
 H2452 H 0.52639 1.32178 0.64629
 H2453 H 0.49503 1.27681 0.62960
 C2454 C 0.56508 0.80394 1.12399
 C2455 C 0.53908 0.80752 1.13749
 C2456 C 0.52208 0.78545 1.12806
 C2457 C 0.53907 0.77019 1.10954
 O2458 O 0.56509 0.78153 1.10698
 H2459 H 0.53338 0.82372 1.15278
 H2460 H 0.50018 0.78080 1.13436
 C2461 C 0.83319 1.26645 0.88584
 C2462 C 0.80728 1.25965 0.89825
 C2463 C 0.81019 1.23178 0.90704
 C2464 C 0.83781 1.22356 0.89955
 O2465 O 0.85175 1.24464 0.88645
 H2466 H 0.78868 1.27353 0.90105
 H2467 H 0.79410 1.21924 0.91791
 C2468 C 0.82786 0.75862 0.39644
 C2469 C 0.80686 0.75525 0.41638
 C2470 C 0.81139 0.72834 0.42709
 C2471 C 0.83492 0.71721 0.41294
 O2472 O 0.84483 0.73568 0.39422
 H2473 H 0.79028 0.77048 0.42246
 H2474 H 0.79902 0.71846 0.44349
 C2475 C 0.32863 1.26195 0.39974
 C2476 C 0.30717 1.25748 0.41896
 C2477 C 0.31096 1.22963 0.42759
 C2478 C 0.33460 1.21924 0.41302
 O2479 O 0.34518 1.23895 0.39603
 H2480 H 0.29081 1.27256 0.42587
 H2481 H 0.29800 1.21866 0.44291
 C2482 C 0.30956 0.73106 0.85898
 C2483 C 0.28497 0.71968 0.87085
 C2484 C 0.29445 0.69761 0.88716
 C2485 C 0.32411 0.69726 0.88407
 O2486 O 0.33325 0.71747 0.86680
 H2487 H 0.26292 0.72691 0.86843
 H2488 H 0.28122 0.68364 0.89985
 C2489 C 1.17897 0.73984 0.89680
 C2490 C 1.20192 0.74549 0.91411
 C2491 C 1.19717 0.77287 0.92383
 C2492 C 1.17156 0.78182 0.91175
 O2493 O 1.16066 0.76171 0.89521
 H2494 H 1.21988 0.73147 0.91907
 H2495 H 1.21086 0.78460 0.93812
 C2496 C 1.17027 0.23717 0.40340
 C2497 C 1.19102 0.24020 0.42364
 C2498 C 1.18735 0.26761 0.43378
 C2499 C 1.16456 0.27923 0.41894
 O2500 O 1.15428 0.26065 0.40049
 H2501 H 1.20681 0.22445 0.43032
 H2502 H 1.19971 0.27751 0.45027
 C2503 C 0.66968 0.73362 0.38786
 C2504 C 0.69475 0.74008 0.40199
 C2505 C 0.69133 0.76781 0.41127
 C2506 C 0.66431 0.77634 0.40229
 O2507 O 0.65120 0.75554 0.38788
 H2508 H 0.71318 0.72617 0.40545
 H2509 H 0.70676 0.78009 0.42333
 C2510 C 0.67492 0.23596 0.89831
 C2511 C 0.69643 0.23880 0.91786
 C2512 C 0.69242 0.26561 0.92922
 C2513 C 0.66869 0.27711 0.91577
 O2514 O 0.65818 0.25905 0.89692
 H2515 H 0.71297 0.22329 0.92330
 H2516 H 0.70528 0.27523 0.94551
 C2517 C 0.93424 0.71073 1.13461
 C2518 C 0.96029 0.70795 1.14817
 C2519 C 0.97742 0.72908 1.13734
 C2520 C 0.96054 0.74311 1.11796
 O2521 O 0.93434 0.73187 1.11623
 H2522 H 0.96604 0.69276 1.16425
 H2523 H 0.99948 0.73380 1.14313
 C2524 C 0.93224 0.20335 0.63134
 C2525 C 0.95797 0.20021 0.64539
 C2526 C 0.97532 0.22169 0.63552
 C2527 C 0.95880 0.23624 0.61621
 O2528 O 0.93271 0.22500 0.61361
 H2529 H 0.96335 0.18459 0.66121
 H2530 H 0.99721 0.22630 0.64193
 C2531 C 0.43324 0.70248 0.62503
 C2532 C 0.46025 0.69866 0.63642
 C2533 C 0.47696 0.71955 0.62460
 C2534 C 0.45883 0.73449 0.60694
 O2535 O 0.43233 0.72400 0.60710
 H2536 H 0.46684 0.68312 0.65189
 H2537 H 0.49950 0.72378 0.62884
 C2538 C 0.43598 0.20346 1.13021
 C2539 C 0.46139 0.20023 1.14480
 C2540 C 0.47895 0.22177 1.13540
 C2541 C 0.46289 0.23640 1.11581
 O2542 O 0.43687 0.22519 1.11259
 H2543 H 0.46636 0.18458 1.16072
 H2544 H 0.50067 0.22643 1.14233
 C2545 C 1.09749 1.15454 0.72838
 C2546 C 1.08189 1.17845 0.73700
 C2547 C 1.06936 1.17026 0.76119
 C2548 C 1.07840 1.14214 0.76564
 O2549 O 1.09558 1.13254 0.74579
 H2550 H 1.07952 1.19918 0.72689
 H2551 H 1.05546 1.18335 0.77420
 C2552 C 1.09104 0.65503 0.22900
 C2553 C 1.06670 0.67202 0.23150
 C2554 C 1.05327 0.66253 0.25468
 C2555 C 1.07017 0.64015 0.26478
 O2556 O 1.09334 0.63571 0.24920
 H2557 H 1.05953 0.68946 0.21832
 H2558 H 1.03358 0.67149 0.26311
 C2559 C 0.57143 1.11405 0.20693
 C2560 C 0.55440 1.08945 0.20698
 C2561 C 0.54414 1.08720 0.23318
 C2562 C 0.55605 1.11012 0.24749
 O2563 O 0.57269 1.12669 0.23165
 H2564 H 0.55064 1.07444 0.19009
 H2565 H 0.53125 1.06971 0.24149
 C2566 C 0.60398 0.65493 0.73607
 C2567 C 0.58833 0.67862 0.74491
 C2568 C 0.57579 0.67005 0.76899
 C2569 C 0.58480 0.64182 0.77303
 O2570 O 0.60206 0.63261 0.75309
 H2571 H 0.58589 0.69940 0.73489
 H2572 H 0.56166 0.68285 0.78203
 C2573 C 0.91581 0.85134 0.72216
 C2574 C 0.93660 0.83036 0.72579
 C2575 C 0.95041 0.83785 0.74959
 C2576 C 0.93697 0.86287 0.75881
 O2577 O 0.91585 0.87108 0.74209
 H2578 H 0.94107 0.81173 0.71281
 H2579 H 0.96767 0.82587 0.75934
 C2580 C 0.91038 0.34343 0.23039
 C2581 C 0.92822 0.32046 0.23687
 C2582 C 0.94178 0.32859 0.26070
 C2583 C 0.93105 0.35577 0.26708
 O2584 O 0.91196 0.36478 0.24869
 H2585 H 0.93115 0.30030 0.22572
 H2586 H 0.95718 0.31589 0.27233
 C2587 C 0.43054 0.88287 0.20511
 C2588 C 0.44888 0.90649 0.20527
 C2589 C 0.45770 0.90947 0.23188
 C2590 C 0.44356 0.88803 0.24622
 O2591 O 0.42701 0.87161 0.23011
 H2592 H 0.45417 0.92060 0.18815
 H2593 H 0.47120 0.92650 0.24030
 C2594 C 0.41059 0.34134 0.73272
 C2595 C 0.43012 0.31953 0.73798
 C2596 C 0.44458 0.32831 0.76111
 C2597 C 0.43275 0.35484 0.76830
 O2598 O 0.41201 0.36272 0.75105
 H2599 H 0.43356 0.29975 0.72636
 H2600 H 0.46142 0.31645 0.77165
 C2601 C 1.12661 0.92862 1.28961
 C2602 C 1.10551 0.94941 1.29331
 C2603 C 1.10155 0.96154 1.26802
 C2604 C 1.11970 0.94665 1.25046
 O2605 O 1.13504 0.92650 1.26343
 H2606 H 1.09360 0.95422 1.31204
 H2607 H 1.08550 0.97754 1.26248
 C2608 C 1.16099 0.40637 0.77138
 C2609 C 1.18413 0.42316 0.76324
 C2610 C 1.17512 0.43655 0.73967
 C2611 C 1.14731 0.42676 0.73513
 O2612 O 1.13874 0.40838 0.75433
 H2613 H 1.20487 0.42564 0.77322
 H2614 H 1.18752 0.45140 0.72711
 C2615 C 0.65884 0.90330 0.76471
 C2616 C 0.68123 0.92133 0.75732
 C2617 C 0.67189 0.93507 0.73408
 C2618 C 0.64451 0.92434 0.72902
 O2619 O 0.63659 0.90493 0.74760
 H2620 H 0.70172 0.92433 0.76765
 H2621 H 0.68385 0.95079 0.72212
 C2622 C 0.65251 0.41415 1.27838
 C2623 C 0.67570 0.43138 1.27123
 C2624 C 0.66761 0.44461 1.24731
 C2625 C 0.64025 0.43431 1.24156
 O2626 O 0.63105 0.41579 1.26039
 H2627 H 0.69600 0.43409 1.28199
 H2628 H 0.68047 0.45944 1.23517
 C2629 C 0.84518 1.09537 1.26901
 C2630 C 0.82236 1.07765 1.26196
 C2631 C 0.83034 1.06482 1.23777
 C2632 C 0.85744 1.07568 1.23182
 O2633 O 0.86647 1.09438 1.25078
 H2634 H 0.80239 1.07433 1.27308
 H2635 H 0.81763 1.04966 1.22575
 C2636 C 0.84825 0.58924 0.77625
 C2637 C 0.82568 0.57080 0.77027
 C2638 C 0.83335 0.55747 0.74621
 C2639 C 0.86000 0.56886 0.73931
 O2640 O 0.86904 0.58826 0.75755
 H2641 H 0.80612 0.56735 0.78201
 H2642 H 0.82074 0.54166 0.73487
 C2643 C 0.34947 1.08819 0.77347
 C2644 C 0.32756 1.06863 0.76862
 C2645 C 0.33492 1.05503 0.74460
 C2646 C 0.36078 1.06735 0.73650
 O2647 O 0.36963 1.08759 0.75407
 H2648 H 0.30853 1.06470 0.78101
 H2649 H 0.32245 1.03855 0.73404
 C2650 C 0.34087 0.59692 1.26854
 C2651 C 0.31724 0.58132 1.25944
 C2652 C 0.32614 0.56837 1.23549
 C2653 C 0.35434 0.57729 1.23177
 O2654 O 0.36327 0.59466 1.25174
 H2655 H 0.29627 0.57930 1.26906
 H2656 H 0.31351 0.55435 1.22218
 C2657 C 1.07066 1.29654 0.86915
 C2658 C 1.04510 1.29964 0.85480
 C2659 C 1.02752 1.27840 0.86477
 C2660 C 1.04374 1.26403 0.88444
 O2661 O 1.06987 1.27515 0.88717
 H2662 H 1.03999 1.31505 0.83871
 H2663 H 1.00569 1.27380 0.85818
 C2664 C 1.06011 0.80114 0.38136
 C2665 C 1.03308 0.80488 0.36983
 C2666 C 1.01746 0.78143 0.37815
 C2667 C 1.03609 0.76530 0.39421
 O2668 O 1.06196 0.77725 0.39618
 H2669 H 1.02578 0.82209 0.35640
 H2670 H 0.99524 0.77662 0.37301
 C2671 C 0.56345 1.29822 0.37186
 C2672 C 0.53768 1.30122 0.35785
 C2673 C 0.52069 1.27928 0.36738
 C2674 C 0.53741 1.26464 0.38648
 O2675 O 0.56332 1.27625 0.38926
 H2676 H 0.53208 1.31705 0.34229
 H2677 H 0.49887 1.27442 0.36089
 C2678 C 0.57124 0.79439 0.86885
 C2679 C 0.54489 0.79803 0.85603
 C2680 C 0.52745 0.77744 0.86734
 C2681 C 0.54450 0.76287 0.88621
 O2682 O 0.57105 0.77327 0.88722
 H2683 H 0.53918 0.81332 0.84003
 H2684 H 0.50514 0.77328 0.86208
 C2685 C 0.83318 1.26628 1.09854
 C2686 C 0.81348 1.26421 1.07716
 C2687 C 0.81718 1.23705 1.06652
 C2688 C 0.83891 1.22456 1.08212
 O2689 O 0.84850 1.24236 1.10160
 H2690 H 0.79837 1.28039 1.06999
 H2691 H 0.80561 1.22792 1.04913
 C2692 C 0.82967 0.76144 0.60161
 C2693 C 0.80736 0.75648 0.58336
 C2694 C 0.81103 0.72859 0.57468
 C2695 C 0.83543 0.71865 0.58826
 O2696 O 0.84662 0.73868 0.60472
 H2697 H 0.79052 0.77129 0.57708
 H2698 H 0.79746 0.71726 0.56002
 C2699 C 0.32945 1.26030 0.60272
 C2700 C 0.30972 1.25809 0.58137
 C2701 C 0.31334 1.23087 0.57083
 C2702 C 0.33507 1.21841 0.58643
 O2703 O 0.34475 1.23633 0.60585
 H2704 H 0.29464 1.27424 0.57409
 H2705 H 0.30176 1.22170 0.55345
 C2706 C 0.33731 0.77500 1.10101
 C2707 C 0.31484 0.77037 1.08268
 C2708 C 0.31762 0.74242 1.07405
 C2709 C 0.34169 0.73173 1.08750
 O2710 O 0.35355 0.75153 1.10413
 H2711 H 0.29841 0.78546 1.07605
 H2712 H 0.30375 0.73151 1.05935
 C2713 C 0.93958 0.70179 0.87468
 C2714 C 0.96534 0.69847 0.86070
 C2715 C 0.98267 0.72005 0.87058
 C2716 C 0.96613 0.73482 0.88982
 O2717 O 0.94003 0.72363 0.89238
 H2718 H 0.97070 0.68272 0.84488
 H2719 H 1.00455 0.72466 0.86415
 C2720 C 0.93397 0.20436 0.37418
 C2721 C 0.96041 0.20114 0.36144
 C2722 C 0.97740 0.22222 0.37275
 C2723 C 0.96000 0.23669 0.39152
 O2724 O 0.93368 0.22571 0.39247
 H2725 H 0.96647 0.18575 0.34553
 H2726 H 0.99965 0.22672 0.36754
 C2727 C 0.43241 0.70205 0.36807
 C2728 C 0.45779 0.69932 0.35324
 C2729 C 0.47541 0.72051 0.36341
 C2730 C 0.45945 0.73449 0.38362
 O2731 O 0.43350 0.72309 0.38659
 H2732 H 0.46278 0.68430 0.33668
 H2733 H 0.49702 0.72545 0.35644
 C2734 C 0.43701 0.20376 0.87108
 C2735 C 0.46316 0.20058 0.85768
 C2736 C 0.48059 0.22127 0.86899
 C2737 C 0.46381 0.23555 0.88839
 O2738 O 0.43742 0.22474 0.88981
 H2739 H 0.46886 0.18547 0.84141
 H2740 H 0.50276 0.22563 0.86338
 C2741 C 1.14408 0.73441 1.08952
 C2742 C 1.12054 0.73356 1.07212
 C2743 C 1.11845 0.76073 1.06148
 C2744 C 1.14023 0.77649 1.07390
 O2745 O 1.15554 0.76063 1.09134
 H2746 H 1.10550 0.71585 1.06925
 H2747 H 1.10100 0.76904 1.04889
 C2748 C 1.16446 0.23329 0.59424
 C2749 C 1.18186 0.23597 0.57120
 C2750 C 1.17875 0.26407 0.56308
 C2751 C 1.15966 0.27648 0.58173
 O2752 O 1.15102 0.25771 0.60063
 H2753 H 1.19502 0.21957 0.56132
 H2754 H 1.18883 0.27388 0.54523
 C2755 C 0.66657 0.73359 0.59605
 C2756 C 0.68510 0.73618 0.57392
 C2757 C 0.68048 0.76336 0.56395
 C2758 C 0.65936 0.77541 0.58074
 O2759 O 0.65097 0.75721 0.60029
 H2760 H 0.70009 0.72026 0.56591
 H2761 H 0.69109 0.77276 0.54620
 C2762 C 0.66379 0.22758 1.10771
 C2763 C 0.68732 0.23260 1.09080
 C2764 C 0.68576 0.26099 1.08377
 C2765 C 0.66122 0.27160 1.09654
 O2766 O 0.64797 0.25129 1.11147
 H2767 H 0.70378 0.21750 1.08414
 H2768 H 0.70079 0.27222 1.07048
 C2769 C 1.26683 1.17042 0.90172
 C2770 C 1.26327 1.19151 0.92171
 C2771 C 1.23586 1.18771 0.93132
 C2772 C 1.22474 1.16451 0.91647
 O2773 O 1.24365 1.15411 0.89847
 H2774 H 1.27871 1.20759 0.92856
 H2775 H 1.22563 1.20027 0.94751
 C2776 C 1.26240 0.67058 0.40276
 C2777 C 1.25980 0.69060 0.42385
 C2778 C 1.23250 0.68692 0.43384
 C2779 C 1.22052 0.66484 0.41807
 O2780 O 1.23877 0.65503 0.39919
 H2781 H 1.27581 0.70585 0.43122
 H2782 H 1.22296 0.69870 0.45091
 C2783 C 0.76216 1.16931 0.40126
 C2784 C 0.75862 1.18937 0.42217
 C2785 C 0.73094 1.18571 0.43101
 C2786 C 0.71962 1.16360 0.41481
 O2787 O 0.73869 1.15372 0.39670
 H2788 H 0.77424 1.20471 0.43011
 H2789 H 0.72069 1.19767 0.44758
 C2790 C 0.76838 0.66712 0.90809
 C2791 C 0.76504 0.68745 0.92881
 C2792 C 0.73752 0.68364 0.93817
 C2793 C 0.72617 0.66120 0.92242
 O2794 O 0.74501 0.65127 0.90416
 H2795 H 0.78068 0.70302 0.93628
 H2796 H 0.72738 0.69561 0.95480
 C2797 C 1.30677 0.94870 1.11257
 C2798 C 1.31011 0.97550 1.12505
 C2799 C 1.28545 0.99036 1.11897
 C2800 C 1.26911 0.97150 1.10321
 O2801 O 1.28205 0.94628 1.09933
 H2802 H 1.32789 0.98312 1.13763
 H2803 H 1.28005 1.01219 1.12536
 C2804 C 1.29392 0.43006 0.63738
 C2805 C 1.29736 0.45601 0.65128
 C2806 C 1.27708 0.47402 0.64026
 C2807 C 1.26284 0.45769 0.62046
 O2808 O 1.27317 0.43102 0.61864
 H2809 H 1.31244 0.46114 0.66766
 H2810 H 1.27308 0.49628 0.64620
 C2811 C 0.79461 0.93418 0.62441
 C2812 C 0.79803 0.96140 0.63581
 C2813 C 0.77650 0.97766 0.62449
 C2814 C 0.76161 0.95911 0.60704
 O2815 O 0.77273 0.93273 0.60689
 H2816 H 0.81385 0.96845 0.65086
 H2817 H 0.77201 1.00023 0.62882
 C2818 C 0.79436 0.43362 1.13745
 C2819 C 0.79672 0.45946 1.15171
 C2820 C 0.77527 0.47652 1.14128
 C2821 C 0.76150 0.45970 1.12151
 O2822 O 0.77325 0.43373 1.11916
 H2823 H 0.81184 0.46509 1.16792
 H2824 H 0.77019 0.49842 1.14766
 C2825 C 0.69252 1.05467 1.10416
 C2826 C 0.68941 1.02653 1.11334
 C2827 C 0.71442 1.01290 1.10600
 C2828 C 0.73079 1.03373 1.09285
 O2829 O 0.71746 1.05903 1.09164
 H2830 H 0.67159 1.01725 1.12471
 H2831 H 0.72015 0.99058 1.11007
 C2832 C 0.70410 0.56213 0.62805
 C2833 C 0.70069 0.53597 0.64140
 C2834 C 0.72225 0.51876 0.63140
 C2835 C 0.73714 0.53579 0.61274
 O2836 O 0.72599 0.56206 0.61060
 H2837 H 0.68491 0.53029 0.65696
 H2838 H 0.72682 0.49668 0.63742
 C2839 C 0.20130 1.06270 0.62392
 C2840 C 0.19812 1.03646 0.63718
 C2841 C 0.21951 1.01933 0.62675
 C2842 C 0.23411 1.03645 0.60794
 O2843 O 0.22291 1.06273 0.60612
 H2844 H 0.18257 1.03065 0.65290
 H2845 H 0.22415 0.99719 0.63257
 C2846 C 0.23659 0.59882 1.15160
 C2847 C 0.24676 0.58203 1.17296
 C2848 C 0.26526 0.56300 1.16085
 C2849 C 0.26475 0.56933 1.13281
 O2850 O 0.24750 0.59144 1.12725
 H2851 H 0.24144 0.58354 1.19473
 H2852 H 0.27782 0.54680 1.17157
 C2853 C 0.74373 0.82681 0.89545
 C2854 C 0.74722 0.80594 0.91550
 C2855 C 0.77446 0.81002 0.92545
 C2856 C 0.78558 0.83321 0.91076
 O2857 O 0.76683 0.84330 0.89247
 H2858 H 0.73184 0.78979 0.92219
 H2859 H 0.78454 0.79767 0.94177
 C2860 C 0.73459 0.33199 0.40448
 C2861 C 0.73832 0.30958 0.42290
 C2862 C 0.76617 0.31206 0.43172
 C2863 C 0.77733 0.33591 0.41804
 O2864 O 0.75808 0.34787 0.40141
 H2865 H 0.72276 0.29339 0.42914
 H2866 H 0.77674 0.29807 0.44648
 C2867 C 0.23543 0.82703 0.38615
 C2868 C 0.24093 0.80198 0.40077
 C2869 C 0.26833 0.80497 0.41065
 C2870 C 0.27767 0.83172 0.40150
 O2871 O 0.25765 0.84508 0.38645
 H2872 H 0.22660 0.78382 0.40414
 H2873 H 0.27985 0.78944 0.42320
 C2874 C 0.24134 0.33236 0.90403
 C2875 C 0.24415 0.31229 0.92493
 C2876 C 0.27160 0.31577 0.93456
 C2877 C 0.28351 0.33777 0.91881
 O2878 O 0.26504 0.34776 0.90026
 H2879 H 0.22821 0.29707 0.93236
 H2880 H 0.28134 0.30382 0.95134
   
