data_POSCAR
  _audit_creation_date              2014-09-24
  _audit_creation_method            'ToBaCCo'
  _symmetry_space_group_name_H-M    'P1'
  _symmetry_Int_Tables_number       1
  _symmetry_cell_setting            triclinic
  loop_
  _symmetry_equiv_pos_as_xyz
 x,y,z
_cell_length_a 40.7470
_cell_length_b 39.9376
_cell_length_c 39.3330
_cell_angle_alpha 89.799100
_cell_angle_beta 89.801200
_cell_angle_gamma 89.749600
loop_
  _atom_site_label
  _atom_site_type_symbol
  _atom_site_fract_x
  _atom_site_fract_y
  _atom_site_fract_z
O1 O 0.31572 0.35933 0.03735
 O2 O 0.36033 0.31752 -0.03215
 O3 O 0.31740 0.36535 -0.02723
 O4 O 0.36046 0.31343 0.03458
 O5 O 0.32080 0.27603 0.03284
 O6 O 0.27924 0.32697 -0.03377
 O7 O 0.32222 0.27847 -0.03395
 O8 O 0.27521 0.32321 0.03193
 Cu9 Cu 0.34264 0.34238 0.00346
 Cu10 Cu 0.29555 0.29711 -0.00093
 C11 C 0.28727 0.34916 0.04555
 C12 C 0.34880 0.29092 -0.04503
 C13 C 0.29108 0.35557 -0.04110
 C14 C 0.34779 0.28640 0.04510
 O15 O 0.63752 0.68012 -0.03403
 O16 O 0.68361 0.64057 0.03583
 O17 O 0.64070 0.68511 0.03429
 O18 O 0.68434 0.63187 -0.02615
 O19 O 0.71564 0.67406 -0.04202
 O20 O 0.67656 0.72540 0.02498
 O21 O 0.72339 0.67681 0.02639
 O22 O 0.67410 0.72049 -0.03854
 Cu23 Cu 0.65686 0.65632 0.00175
 Cu24 Cu 0.70211 0.70240 -0.00687
 C25 C 0.64735 0.70722 -0.04769
 C26 C 0.71204 0.65159 0.04236
 C27 C 0.65143 0.71420 0.04050
 C28 C 0.70716 0.64359 -0.04470
 O29 O 0.67828 0.36124 0.97008
 O30 O 0.63274 0.32021 1.03940
 O31 O 0.67939 0.36455 1.03642
 O32 O 0.63271 0.31641 0.97390
 O33 O 0.66928 0.27546 0.97683
 O34 O 0.71755 0.32523 1.03715
 O35 O 0.67041 0.28037 1.04177
 O36 O 0.71568 0.32099 0.97180
 Cu37 Cu 0.65212 0.34474 1.00481
 Cu38 Cu 0.69709 0.29652 1.00711
 C39 C 0.70479 0.34820 0.95935
 C40 C 0.64333 0.29284 1.05178
 C41 C 0.70685 0.35354 1.04694
 C42 C 0.64252 0.28738 0.96553
 O43 O 0.36771 0.68044 1.03474
 O44 O 0.32122 0.63868 0.96683
 O45 O 0.36687 0.68275 0.96846
 O46 O 0.32062 0.63602 1.03297
 O47 O 0.28311 0.67596 1.03474
 O48 O 0.32980 0.72320 0.97015
 O49 O 0.28347 0.67855 0.96957
 O50 O 0.33057 0.72077 1.03652
 Cu51 Cu 0.34792 0.65550 1.00089
 Cu52 Cu 0.30316 0.70385 1.00317
 C53 C 0.35735 0.70797 1.04688
 C54 C 0.29436 0.65152 0.95680
 C55 C 0.35597 0.71068 0.95784
 C56 C 0.29341 0.64730 1.04409
 O57 O 0.02917 0.31758 0.36341
 O58 O -0.03663 0.36295 0.31855
 O59 O -0.03499 0.31719 0.36527
 O60 O 0.02697 0.36446 0.31770
 O61 O 0.02673 0.32627 0.27726
 O62 O -0.03463 0.27784 0.32610
 O63 O -0.03686 0.32406 0.27881
 O64 O 0.02927 0.27882 0.32355
 Cu65 Cu -0.00384 0.34431 0.34530
 Cu66 Cu -0.00383 0.29779 0.29747
 C67 C 0.04053 0.29051 0.35111
 C68 C -0.04788 0.35136 0.29091
 C69 C -0.04555 0.28951 0.35401
 C70 C 0.03713 0.35380 0.28918
 O71 O 0.02690 0.68837 0.64657
 O72 O -0.03671 0.63945 0.69059
 O73 O -0.03693 0.68525 0.64330
 O74 O 0.02698 0.64155 0.69188
 O75 O 0.02334 0.67965 0.73234
 O76 O -0.03952 0.72463 0.68238
 O77 O -0.03979 0.67782 0.73082
 O78 O 0.02368 0.72712 0.68634
 Cu79 Cu -0.00483 0.65983 0.66407
 Cu80 Cu -0.00866 0.70624 0.71197
 C81 C 0.03619 0.71609 0.65893
 C82 C -0.04837 0.64981 0.71864
 C83 C -0.04850 0.71288 0.65389
 C84 C 0.03593 0.65298 0.72042
 O85 O 0.96708 0.68325 0.35868
 O86 O 1.03710 0.64153 0.31661
 O87 O 1.03007 0.68628 0.36422
 O88 O 0.97336 0.63783 0.31232
 O89 O 0.97384 0.67732 0.27290
 O90 O 1.03123 0.72619 0.32532
 O91 O 1.03724 0.68082 0.27703
 O92 O 0.96852 0.72331 0.31988
 Cu93 Cu 1.00197 0.65814 0.34177
 Cu94 Cu 1.00294 0.70582 0.29472
 C95 C 0.95631 0.71080 0.34679
 C96 C 1.04873 0.65379 0.28929
 C97 C 1.03956 0.71496 0.35436
 C98 C 0.96380 0.64919 0.28387
 O99 O 0.97345 0.31594 0.64236
 O100 O 1.03493 0.36549 0.68813
 O101 O 1.03705 0.32081 0.64074
 O102 O 0.97081 0.36054 0.69022
 O103 O 0.97577 0.32135 0.72969
 O104 O 1.04018 0.28032 0.67889
 O105 O 1.03920 0.32552 0.72681
 O106 O 0.97691 0.27610 0.68123
 Cu107 Cu 1.00357 0.34476 0.66156
 Cu108 Cu 1.00833 0.29685 0.70810
 C109 C 0.96492 0.28744 0.65369
 C110 C 1.04778 0.35388 0.71510
 C111 C 1.04972 0.29351 0.65113
 C112 C 0.96228 0.34784 0.71850
 O113 O 0.35685 0.02588 0.32190
 O114 O 0.31200 -0.04135 0.36551
 O115 O 0.35863 -0.03839 0.32012
 O116 O 0.31028 0.02429 0.36658
 O117 O 0.27324 0.02458 0.32578
 O118 O 0.32183 -0.03876 0.27906
 O119 O 0.27472 -0.04108 0.32496
 O120 O 0.32045 0.02552 0.28042
 Cu121 Cu 0.33789 -0.00756 0.34785
 Cu122 Cu 0.29358 -0.00754 0.29864
 C123 C 0.34677 0.03663 0.29336
 C124 C 0.28575 -0.05273 0.35278
 C125 C 0.34915 -0.04845 0.29119
 C126 C 0.28385 0.03563 0.35392
 O127 O 0.68620 -0.02920 0.63562
 O128 O 0.63681 0.03149 0.68362
 O129 O 0.68467 0.03603 0.63964
 O130 O 0.63882 -0.03301 0.67916
 O131 O 0.67448 -0.03435 0.72129
 O132 O 0.72140 0.03362 0.68071
 O133 O 0.67345 0.03073 0.72484
 O134 O 0.72255 -0.03114 0.67711
 Cu135 Cu 0.65810 0.00165 0.65524
 Cu136 Cu 0.70160 -0.00045 0.70522
 C137 C 0.71265 -0.04067 0.64814
 C138 C 0.64647 0.04122 0.71258
 C139 C 0.71099 0.04639 0.65316
 C140 C 0.64868 -0.04530 0.70714
 O141 O 0.31466 1.03592 0.63830
 O142 O 0.36114 0.96823 0.67954
 O143 O 0.31379 0.97024 0.63653
 O144 O 0.36101 1.03240 0.68427
 O145 O 0.32383 1.03164 0.72521
 O146 O 0.27714 0.96858 0.67798
 O147 O 0.32498 0.96715 0.72150
 O148 O 0.27712 1.03357 0.67878
 Cu149 Cu 0.34114 1.00221 0.65532
 Cu150 Cu 0.29695 1.00033 0.70495
 C151 C 0.28773 1.04592 0.65105
 C152 C 0.35123 0.95635 0.70771
 C153 C 0.28772 0.95830 0.64947
 C154 C 0.35109 1.04175 0.71340
 O155 O 0.68288 1.03522 0.36923
 O156 O 0.63760 0.97283 0.31935
 O157 O 0.68278 0.96970 0.36554
 O158 O 0.63610 1.03743 0.32481
 O159 O 0.67358 1.04080 0.28429
 O160 O 0.72028 0.97217 0.32500
 O161 O 0.67472 0.97627 0.27850
 O162 O 0.72096 1.03730 0.32934
 Cu163 Cu 0.65623 1.00347 0.34889
 Cu164 Cu 0.70124 1.00700 0.30030
 C165 C 0.70974 1.04698 0.35787
 C166 C 0.64818 0.96424 0.29021
 C167 C 0.70925 0.95911 0.35223
 C168 C 0.64660 1.05048 0.29744
 C169 C 0.91457 0.77522 0.47939
 C170 C 0.91516 0.77610 0.51430
 C171 C 0.88432 0.78675 0.52472
 N172 N 0.86504 0.79265 0.49746
 C173 C 0.88342 0.78542 0.46978
 C174 C 0.87325 0.78837 0.55874
 C175 C 0.84529 0.80733 0.56810
 C176 C 0.82889 0.80513 0.59899
 C177 C 0.80504 0.82969 0.59882
 C178 C 0.80744 0.84600 0.56775
 N179 N 0.83201 0.83226 0.54923
 C180 C 0.78861 0.87412 0.55784
 C181 C 0.78633 0.88476 0.52370
 C182 C 0.77329 0.91511 0.51296
 C183 C 0.77226 0.91396 0.47812
 C184 C 0.78499 0.88308 0.46883
 N185 N 0.79360 0.86529 0.49669
 C186 C 0.78602 0.87056 0.43535
 C187 C 0.80508 0.84237 0.42619
 C188 C 0.80262 0.82513 0.39577
 C189 C 0.82676 0.80087 0.39610
 C190 C 0.84318 0.80400 0.42674
 N191 N 0.82992 0.82941 0.44482
 C192 C 0.87136 0.78559 0.43625
 H193 H 0.93457 0.76755 0.46294
 H194 H 0.93578 0.76932 0.53021
 H195 H 0.83968 0.83972 0.46680
 H196 H 0.83374 0.78785 0.61964
 H197 H 0.78800 0.83503 0.61928
 H198 H 0.76487 0.93568 0.52862
 H199 H 0.76302 0.93350 0.46154
 H200 H 0.83190 0.78324 0.37591
 H201 H 0.84156 0.84184 0.52664
 H202 H 0.78547 0.82975 0.37532
 C203 C 0.22199 0.08328 0.48443
 C204 C 0.22283 0.08466 0.51930
 C205 C 0.21115 0.11604 0.52824
 N206 N 0.20292 0.13373 0.50017
 C207 C 0.20960 0.11380 0.47336
 C208 C 0.21111 0.12927 0.56140
 C209 C 0.19413 0.15893 0.56998
 C210 C 0.19860 0.17691 0.59967
 C211 C 0.17599 0.20260 0.59925
 C212 C 0.15818 0.19938 0.56943
 N213 N 0.16943 0.17271 0.55175
 C214 C 0.13081 0.21927 0.56023
 C215 C 0.11833 0.21991 0.52677
 C216 C 0.08835 0.23349 0.51724
 C217 C 0.08718 0.23200 0.48242
 C218 C 0.11639 0.21738 0.47191
 N219 N 0.13535 0.20992 0.49902
 C220 C 0.12649 0.21385 0.43775
 C221 C 0.15271 0.19258 0.42805
 C222 C 0.16843 0.19326 0.39674
 C223 C 0.19144 0.16791 0.39713
 C224 C 0.18909 0.15240 0.42865
 N225 N 0.16529 0.16748 0.44725
 C226 C 0.20774 0.12423 0.43909
 H227 H 0.23002 0.06241 0.46896
 H228 H 0.23177 0.06517 0.53612
 H229 H 0.15604 0.15913 0.47046
 H230 H 0.21616 0.17190 0.61965
 H231 H 0.17288 0.22130 0.61885
 H232 H 0.06938 0.24361 0.53360
 H233 H 0.06721 0.24082 0.46663
 H234 H 0.20805 0.16174 0.37654
 H235 H 0.15837 0.16224 0.53051
 H236 H 0.16393 0.21031 0.37581
 C237 C 0.07467 0.78480 0.52980
 C238 C 0.07285 0.78487 0.49497
 C239 C 0.10368 0.79381 0.48299
 N240 N 0.12410 0.79948 0.50926
 C241 C 0.10645 0.79388 0.53783
 C242 C 0.11373 0.79316 0.44858
 C243 C 0.14330 0.80800 0.43745
 C244 C 0.15881 0.80163 0.40669
 C245 C 0.18560 0.82246 0.40502
 C246 C 0.18571 0.84087 0.43484
 N247 N 0.15984 0.83193 0.45443
 C248 C 0.20811 0.86660 0.44260
 C249 C 0.21163 0.87929 0.47581
 C250 C 0.22741 0.90883 0.48407
 C251 C 0.22800 0.91034 0.51890
 C252 C 0.21268 0.88161 0.53070
 N253 N 0.20257 0.86274 0.50433
 C254 C 0.21059 0.87172 0.56513
 C255 C 0.18981 0.84565 0.57630
 C256 C 0.19187 0.82952 0.60753
 C257 C 0.16612 0.80733 0.60908
 C258 C 0.14912 0.81059 0.57878
 N259 N 0.16362 0.83410 0.55905
 C260 C 0.11976 0.79379 0.57079
 H261 H 0.05511 0.77820 0.54724
 H262 H 0.05143 0.77849 0.48020
 H263 H 0.15419 0.84432 0.53675
 H264 H 0.15162 0.78385 0.38743
 H265 H 0.20296 0.82390 0.38419
 H266 H 0.23752 0.92728 0.46680
 H267 H 0.23870 0.93021 0.53379
 H268 H 0.16038 0.79095 0.63024
 H269 H 0.15192 0.84399 0.47642
 H270 H 0.20994 0.83340 0.62720
 C271 C 0.91947 0.22202 0.48378
 C272 C 0.92134 0.22139 0.51859
 C273 C 0.89146 0.20948 0.53029
 N274 N 0.87152 0.20256 0.50386
 C275 C 0.88854 0.21035 0.47542
 C276 C 0.88173 0.20822 0.56475
 C277 C 0.85362 0.19056 0.57569
 C278 C 0.83852 0.19418 0.60711
 C279 C 0.81286 0.17186 0.60798
 C280 C 0.81311 0.15518 0.57710
 N281 N 0.83815 0.16658 0.55769
 C282 C 0.79168 0.12896 0.56811
 C283 C 0.78885 0.11702 0.53453
 C284 C 0.77422 0.08710 0.52549
 C285 C 0.77341 0.08654 0.49064
 C286 C 0.78728 0.11631 0.47959
 N287 N 0.79693 0.13479 0.50647
 C288 C 0.78798 0.12769 0.44554
 C289 C 0.80764 0.15506 0.43527
 C290 C 0.80383 0.17309 0.40534
 C291 C 0.82847 0.19655 0.40449
 C292 C 0.84667 0.19219 0.43391
 N293 N 0.83389 0.16679 0.45247
 C294 C 0.87515 0.21043 0.44235
 H295 H 0.93849 0.23057 0.46658
 H296 H 0.94205 0.22943 0.53361
 H297 H 0.84436 0.15597 0.47400
 H298 H 0.84521 0.21119 0.62727
 H299 H 0.79601 0.16831 0.62900
 H300 H 0.76486 0.06783 0.54230
 H301 H 0.76335 0.06670 0.47525
 H302 H 0.83237 0.21479 0.38450
 H303 H 0.84614 0.15629 0.53482
 H304 H 0.78511 0.16992 0.38618
 C305 C 0.51700 0.76618 0.90868
 C306 C 0.48336 0.76736 0.90950
 C307 C 0.47351 0.78148 0.87894
 N308 N 0.49987 0.78896 0.85952
 C309 C 0.52648 0.77954 0.87761
 C310 C 0.44071 0.78452 0.86804
 C311 C 0.43147 0.80413 0.83971
 C312 C 0.40142 0.80228 0.82340
 C313 C 0.40155 0.82648 0.79846
 C314 C 0.43166 0.84246 0.80029
 N315 N 0.44972 0.82873 0.82555
 C316 C 0.44103 0.87022 0.78019
 C317 C 0.47394 0.88074 0.77711
 C318 C 0.48402 0.91066 0.76259
 C319 C 0.51770 0.90990 0.76215
 C320 C 0.52702 0.87951 0.77634
 N321 N 0.50024 0.86176 0.78552
 C322 C 0.55959 0.86743 0.77836
 C323 C 0.56832 0.83883 0.79762
 C324 C 0.59761 0.82131 0.79434
 C325 C 0.59739 0.79664 0.81882
 C326 C 0.56801 0.79984 0.83644
 N327 N 0.55044 0.82562 0.82335
 C328 C 0.55895 0.78051 0.86513
 H329 H 0.53265 0.75639 0.92858
 H330 H 0.46791 0.75858 0.93009
 H331 H 0.52923 0.83599 0.83380
 H332 H 0.38145 0.78531 0.82888
 H333 H 0.38168 0.83170 0.78102
 H334 H 0.46871 0.93084 0.75317
 H335 H 0.53349 0.92941 0.75231
 H336 H 0.61676 0.77853 0.82319
 H337 H 0.47172 0.83795 0.83497
 H338 H 0.61717 0.82585 0.77624
 C339 C 0.50893 0.23064 0.09179
 C340 C 0.47530 0.22872 0.09118
 C341 C 0.46580 0.21450 0.12184
 N342 N 0.49237 0.20793 0.14123
 C343 C 0.51876 0.21790 0.12298
 C344 C 0.43301 0.21032 0.13270
 C345 C 0.42434 0.18991 0.16070
 C346 C 0.39395 0.19003 0.17669
 C347 C 0.39499 0.16549 0.20131
 C348 C 0.42599 0.15111 0.19968
 N349 N 0.44369 0.16606 0.17481
 C350 C 0.43659 0.12355 0.21947
 C351 C 0.47002 0.11473 0.22288
 C352 C 0.48161 0.08500 0.23671
 C353 C 0.51515 0.08768 0.23812
 C354 C 0.52289 0.11887 0.22489
 N355 N 0.49529 0.13535 0.21557
 C356 C 0.55471 0.13268 0.22361
 C357 C 0.56222 0.16150 0.20422
 C358 C 0.59066 0.18018 0.20730
 C359 C 0.58969 0.20426 0.18224
 C360 C 0.56065 0.19964 0.16462
 N361 N 0.54404 0.17356 0.17819
 C362 C 0.55128 0.21769 0.13527
 H363 H 0.52432 0.24060 0.07173
 H364 H 0.45960 0.23693 0.07059
 H365 H 0.52354 0.16216 0.16770
 H366 H 0.37313 0.20602 0.17116
 H367 H 0.37513 0.15893 0.21838
 H368 H 0.46737 0.06371 0.24518
 H369 H 0.53190 0.06886 0.24780
 H370 H 0.60838 0.22285 0.17736
 H371 H 0.46636 0.15803 0.16562
 H372 H 0.61025 0.17665 0.22549
 C373 C 0.51680 0.07603 0.79142
 C374 C 0.48323 0.07593 0.79041
 C375 C 0.47316 0.10834 0.79746
 N376 N 0.49938 0.12817 0.80294
 C377 C 0.52615 0.10863 0.79844
 C378 C 0.44053 0.12000 0.79519
 C379 C 0.43032 0.15063 0.80952
 C380 C 0.40093 0.16681 0.80260
 C381 C 0.39963 0.19444 0.82337
 C382 C 0.42831 0.19435 0.84228
 N383 N 0.44685 0.16752 0.83371
 C384 C 0.43576 0.21751 0.86815
 C385 C 0.46769 0.22120 0.88161
 C386 C 0.47533 0.24028 0.90982
 C387 C 0.50866 0.23892 0.91323
 C388 C 0.52046 0.21864 0.88729
 N389 N 0.49531 0.20772 0.86806
 C390 C 0.55394 0.20991 0.88305
 C391 C 0.56564 0.18387 0.86175
 C392 C 0.59641 0.16928 0.86456
 C393 C 0.59751 0.14336 0.84185
 C394 C 0.56830 0.14382 0.82404
 N395 N 0.54866 0.16828 0.83689
 C396 C 0.55901 0.12006 0.79910
 H397 H 0.53261 0.05456 0.78728
 H398 H 0.46797 0.05453 0.78489
 H399 H 0.52587 0.17546 0.82756
 H400 H 0.38228 0.15941 0.78464
 H401 H 0.37975 0.21247 0.82452
 H402 H 0.45873 0.25348 0.92664
 H403 H 0.52248 0.25073 0.93330
 H404 H 0.61621 0.12422 0.84182
 H405 H 0.46781 0.15907 0.84621
 H406 H 0.61546 0.17492 0.88268
 C407 C 0.48812 0.77054 0.08596
 C408 C 0.52175 0.77254 0.08469
 C409 C 0.53149 0.78771 0.11460
 N410 N 0.50502 0.79514 0.13402
 C411 C 0.47846 0.78462 0.11660
 C412 C 0.56434 0.79193 0.12497
 C413 C 0.57330 0.81236 0.15261
 C414 C 0.60373 0.81203 0.16831
 C415 C 0.60309 0.83696 0.19241
 C416 C 0.57237 0.85193 0.19054
 N417 N 0.55444 0.83684 0.16615
 C418 C 0.56217 0.88008 0.20953
 C419 C 0.52912 0.89061 0.21100
 C420 C 0.51853 0.92159 0.22243
 C421 C 0.48491 0.92060 0.22274
 C422 C 0.47614 0.88898 0.21157
 N423 N 0.50321 0.87073 0.20427
 C424 C 0.44384 0.87629 0.21120
 C425 C 0.43554 0.84669 0.19373
 C426 C 0.40685 0.82876 0.19844
 C427 C 0.40754 0.80292 0.17537
 C428 C 0.43661 0.80588 0.15711
 N429 N 0.45351 0.83264 0.16851
 C430 C 0.44594 0.78552 0.12927
 H431 H 0.47260 0.75980 0.06661
 H432 H 0.53733 0.76340 0.06436
 H433 H 0.47432 0.84292 0.15723
 H434 H 0.62432 0.79569 0.16282
 H435 H 0.62308 0.84352 0.20912
 H436 H 0.53349 0.94258 0.23007
 H437 H 0.46880 0.94078 0.23060
 H438 H 0.38869 0.78418 0.17234
 H439 H 0.53203 0.84513 0.15667
 H440 H 0.38741 0.83378 0.21657
 C441 C 0.73180 0.50959 0.87169
 C442 C 0.73201 0.47532 0.87237
 C443 C 0.76335 0.46539 0.86311
 N444 N 0.78259 0.49245 0.85797
 C445 C 0.76350 0.51960 0.86371
 C446 C 0.77490 0.43209 0.86327
 C447 C 0.80405 0.42214 0.84655
 C448 C 0.81824 0.39060 0.84899
 C449 C 0.84502 0.39055 0.82766
 C450 C 0.84661 0.42214 0.81297
 N451 N 0.82122 0.44103 0.82415
 C452 C 0.87054 0.43224 0.78907
 C453 C 0.87682 0.46600 0.78039
 C454 C 0.90022 0.47614 0.75697
 C455 C 0.90007 0.51040 0.75713
 C456 C 0.87664 0.52029 0.78083
 N457 N 0.86277 0.49301 0.79534
 C458 C 0.87069 0.55391 0.79069
 C459 C 0.84813 0.56288 0.81661
 C460 C 0.84877 0.59249 0.83487
 C461 C 0.82269 0.59161 0.85713
 C462 C 0.80584 0.56215 0.85095
 N463 N 0.82178 0.54466 0.82639
 C464 C 0.77559 0.55275 0.86625
 H465 H 0.71080 0.52525 0.87745
 H466 H 0.71147 0.45975 0.87939
 H467 H 0.81323 0.52328 0.81431
 H468 H 0.80993 0.36960 0.86414
 H469 H 0.86147 0.36960 0.82353
 H470 H 0.91643 0.46052 0.74193
 H471 H 0.91641 0.52601 0.74234
 H472 H 0.81702 0.61072 0.87567
 H473 H 0.81427 0.46428 0.81462
 H474 H 0.86634 0.61260 0.83295
 C475 C 0.08665 0.52444 0.22640
 C476 C 0.08396 0.49017 0.22610
 C477 C 0.11384 0.47781 0.21464
 N478 N 0.13459 0.50328 0.20781
 C479 C 0.11806 0.53177 0.21514
 C480 C 0.12270 0.44362 0.21313
 C481 C 0.15053 0.43243 0.19492
 C482 C 0.16547 0.40135 0.19855
 C483 C 0.19025 0.39986 0.17463
 C484 C 0.18948 0.42995 0.15702
 N485 N 0.16529 0.44963 0.16956
 C486 C 0.20902 0.43796 0.12854
 C487 C 0.21176 0.47088 0.11583
 C488 C 0.22426 0.47927 0.08415
 C489 C 0.22543 0.51352 0.08295
 C490 C 0.21414 0.52490 0.11419
 N491 N 0.20562 0.49874 0.13418
 C492 C 0.21447 0.55862 0.12505
 C493 C 0.19696 0.56929 0.15418
 C494 C 0.20140 0.59945 0.17087
 C495 C 0.17805 0.60086 0.19630
 C496 C 0.16013 0.57148 0.19443
 N497 N 0.17178 0.55247 0.16868
 C498 C 0.13202 0.56401 0.21411
 H499 H 0.06785 0.54197 0.23444
 H500 H 0.06261 0.47596 0.23380
 H501 H 0.16068 0.53111 0.15903
 H502 H 0.15912 0.38177 0.21646
 H503 H 0.20675 0.37895 0.17050
 H504 H 0.23184 0.46243 0.06407
 H505 H 0.23389 0.52827 0.06155
 H506 H 0.17438 0.62137 0.21384
 H507 H 0.15686 0.47194 0.15888
 H508 H 0.21936 0.61855 0.16518
 C509 C 0.77381 0.48779 0.08133
 C510 C 0.77516 0.52213 0.08122
 C511 C 0.78941 0.53128 0.11170
 N512 N 0.79640 0.50387 0.13060
 C513 C 0.78662 0.47724 0.11221
 C514 C 0.79320 0.56448 0.12300
 C515 C 0.81438 0.57309 0.14987
 C516 C 0.81476 0.60383 0.16614
 C517 C 0.83987 0.60253 0.18942
 C518 C 0.85403 0.57101 0.18672
 N519 N 0.83850 0.55332 0.16242
 C520 C 0.88150 0.55975 0.20535
 C521 C 0.89007 0.52558 0.20814
 C522 C 0.91927 0.51345 0.22145
 C523 C 0.91623 0.47930 0.22337
 C524 C 0.88538 0.47176 0.21089
 N525 N 0.86946 0.50004 0.20154
 C526 C 0.87125 0.43958 0.21093
 C527 C 0.84295 0.43186 0.19187
 C528 C 0.82437 0.40308 0.19568
 C529 C 0.80033 0.40432 0.17119
 C530 C 0.80492 0.43383 0.15313
 N531 N 0.83099 0.45040 0.16583
 C532 C 0.78654 0.44392 0.12442
 H533 H 0.76397 0.47242 0.06123
 H534 H 0.76659 0.53852 0.06112
 H535 H 0.84208 0.47129 0.15495
 H536 H 0.79870 0.62504 0.16169
 H537 H 0.84684 0.62250 0.20642
 H538 H 0.94032 0.52778 0.22955
 H539 H 0.93450 0.46203 0.23308
 H540 H 0.78166 0.38558 0.16712
 H541 H 0.84605 0.53034 0.15267
 H542 H 0.82781 0.38318 0.21408
 C543 C 0.26634 0.52631 0.86435
 C544 C 0.26724 0.49207 0.86315
 C545 C 0.23502 0.48115 0.86418
 N546 N 0.21441 0.50768 0.86303
 C547 C 0.23354 0.53530 0.86339
 C548 C 0.22492 0.44730 0.86644
 C549 C 0.20039 0.43592 0.84365
 C550 C 0.20099 0.40518 0.82740
 C551 C 0.17475 0.40464 0.80563
 C552 C 0.15894 0.43531 0.80849
 N553 N 0.17485 0.45436 0.83163
 C554 C 0.13064 0.44452 0.78960
 C555 C 0.11844 0.47770 0.78696
 C556 C 0.09021 0.48688 0.76957
 C557 C 0.08860 0.52115 0.77026
 C558 C 0.11564 0.53189 0.78844
 N559 N 0.13364 0.50527 0.79885
 C560 C 0.12269 0.56586 0.79537
 C561 C 0.14747 0.57660 0.81797
 C562 C 0.15032 0.60895 0.83041
 C563 C 0.17758 0.60943 0.85079
 C564 C 0.19103 0.57751 0.84998
 N565 N 0.17268 0.55775 0.82970
 C566 C 0.22130 0.56829 0.86486
 H567 H 0.28757 0.54237 0.86451
 H568 H 0.28927 0.47692 0.86133
 H569 H 0.17905 0.53388 0.82160
 H570 H 0.21945 0.38575 0.82926
 H571 H 0.16879 0.38429 0.78867
 H572 H 0.07260 0.47067 0.75743
 H573 H 0.06940 0.53637 0.75908
 H574 H 0.18702 0.63129 0.86358
 H575 H 0.16738 0.47761 0.84066
 H576 H 0.13471 0.63031 0.82528
 C577 C 0.23324 0.36982 0.06708
 C578 C 0.26749 0.36909 0.06955
 C579 C 0.28241 0.39217 0.09162
 C580 C 0.26319 0.41310 0.11243
 C581 C 0.22865 0.41161 0.11151
 C582 C 0.21423 0.39079 0.08731
 C583 C 0.18813 0.36489 0.09131
 C584 C 0.20900 0.34205 0.06913
 H585 H 0.30888 0.39395 0.09293
 H586 H 0.27523 0.43086 0.12893
 H587 H 0.16477 0.37265 0.07901
 H588 H 0.18553 0.35556 0.11781
 H589 H 0.19768 0.33673 0.04406
 H590 H 0.21871 0.31977 0.08290
 C591 C 0.76608 0.63901 0.07023
 C592 C 0.73208 0.63431 0.06825
 C593 C 0.71790 0.61036 0.09023
 C594 C 0.73782 0.58885 0.10973
 C595 C 0.77225 0.59087 0.10758
 C596 C 0.78573 0.61773 0.08950
 C597 C 0.81263 0.61798 0.06371
 C598 C 0.79118 0.64126 0.04256
 H599 H 0.69159 0.60665 0.09065
 H600 H 0.72644 0.56921 0.12465
 H601 H 0.81661 0.59305 0.05183
 H602 H 0.83514 0.63024 0.07344
 H603 H 0.78277 0.62988 0.01836
 H604 H 0.80139 0.66691 0.04007
 C605 C 0.71212 0.37335 0.90146
 C606 C 0.72412 0.36602 0.93371
 C607 C 0.75523 0.37925 0.94178
 C608 C 0.77210 0.40017 0.91840
 C609 C 0.75849 0.40784 0.88620
 C610 C 0.72861 0.39281 0.87869
 C611 C 0.70204 0.39080 0.85284
 C612 C 0.68339 0.36887 0.87874
 H613 H 0.76584 0.37462 0.96658
 H614 H 0.79532 0.41101 0.92575
 H615 H 0.71002 0.37698 0.82975
 H616 H 0.68986 0.41526 0.84792
 H617 H 0.68060 0.34247 0.87049
 H618 H 0.66083 0.38094 0.88902
 C619 C 0.24228 0.62648 0.93706
 C620 C 0.27501 0.63455 0.93071
 C621 C 0.28853 0.62564 0.89894
 C622 C 0.27041 0.60591 0.87597
 C623 C 0.23923 0.59357 0.88526
 C624 C 0.22505 0.60607 0.91512
 C625 C 0.20804 0.58828 0.94347
 C626 C 0.22696 0.61065 0.96768
 H627 H 0.31333 0.63296 0.89242
 H628 H 0.28142 0.59890 0.85194
 H629 H 0.21517 0.56142 0.94524
 H630 H 0.18119 0.59328 0.94360
 H631 H 0.24503 0.59678 0.98360
 H632 H 0.21098 0.62847 0.98182
 C633 C 0.07384 0.23871 0.36253
 C634 C 0.06707 0.27251 0.36908
 C635 C 0.08592 0.28845 0.39427
 C636 C 0.10733 0.26975 0.41508
 C637 C 0.10996 0.23471 0.41142
 C638 C 0.09471 0.22024 0.38329
 C639 C 0.07390 0.18973 0.38121
 C640 C 0.05093 0.20990 0.35856
 H641 H 0.08273 0.31492 0.39923
 H642 H 0.11993 0.28223 0.43563
 H643 H 0.06282 0.18276 0.40612
 H644 H 0.08655 0.16899 0.36761
 H645 H 0.02655 0.21469 0.37038
 H646 H 0.05021 0.20067 0.33195
 C647 C 0.08410 0.72053 0.61899
 C648 C 0.06164 0.73573 0.64112
 C649 C 0.06386 0.77082 0.64500
 C650 C 0.08428 0.78990 0.62327
 C651 C 0.10296 0.77411 0.59765
 C652 C 0.10437 0.73911 0.59806
 C653 C 0.10379 0.71329 0.57068
 C654 C 0.08110 0.69300 0.59365
 H655 H 0.04805 0.78376 0.66286
 H656 H 0.08372 0.81695 0.62491
 H657 H 0.12820 0.70129 0.56697
 H658 H 0.09168 0.72181 0.54695
 H659 H 0.09238 0.66925 0.60280
 H660 H 0.05582 0.69069 0.58337
 C661 C 0.90880 0.71315 0.38770
 C662 C 0.93007 0.72909 0.36487
 C663 C 0.92657 0.76413 0.36117
 C664 C 0.90626 0.78249 0.38356
 C665 C 0.88897 0.76611 0.40984
 C666 C 0.88859 0.73106 0.40934
 C667 C 0.89038 0.70470 0.43634
 C668 C 0.91306 0.68520 0.41256
 H669 H 0.94142 0.77768 0.34290
 H670 H 0.90577 0.80956 0.38178
 H671 H 0.86634 0.69224 0.44043
 H672 H 0.90283 0.71281 0.45991
 H673 H 0.90214 0.66145 0.40337
 H674 H 0.93862 0.68313 0.42219
 C675 C 0.92364 0.28094 0.60725
 C676 C 0.94145 0.26720 0.63406
 C677 C 0.93707 0.23238 0.63973
 C678 C 0.91689 0.21302 0.61786
 C679 C 0.90057 0.22804 0.58989
 C680 C 0.90428 0.26252 0.58648
 C681 C 0.89668 0.29143 0.56377
 C682 C 0.91874 0.31229 0.58726
 H683 H 0.95005 0.21989 0.66016
 H684 H 0.91489 0.18631 0.62214
 H685 H 0.87034 0.29870 0.56489
 H686 H 0.90700 0.28838 0.53778
 H687 H 0.90519 0.33171 0.60192
 H688 H 0.94174 0.32084 0.57475
 C689 C 0.39140 0.07934 0.29039
 C690 C 0.36661 0.06133 0.27461
 C691 C 0.36352 0.06618 0.23903
 C692 C 0.38583 0.08700 0.22095
 C693 C 0.41161 0.10359 0.23804
 C694 C 0.41257 0.09942 0.27317
 C695 C 0.43217 0.10714 0.30406
 C696 C 0.40826 0.08419 0.32352
 H697 H 0.34483 0.05297 0.22499
 H698 H 0.38352 0.08935 0.19363
 H699 H 0.43021 0.13393 0.31137
 H700 H 0.45754 0.09693 0.30284
 H701 H 0.39258 0.09766 0.34221
 H702 H 0.41992 0.06074 0.33297
 C703 C 0.63797 0.08105 0.76073
 C704 C 0.62546 0.06386 0.73275
 C705 C 0.59244 0.06892 0.72426
 C706 C 0.57225 0.08928 0.74434
 C707 C 0.58355 0.10372 0.77501
 C708 C 0.61762 0.10126 0.78125
 C709 C 0.64244 0.12914 0.77887
 C710 C 0.66434 0.10651 0.75830
 H711 H 0.58207 0.05711 0.70203
 H712 H 0.54723 0.09304 0.73596
 H713 H 0.65412 0.13574 0.80338
 H714 H 0.63315 0.15107 0.76421
 H715 H 0.68685 0.09847 0.77202
 H716 H 0.66856 0.11569 0.73191
 C717 C 0.36609 0.92259 0.75917
 C718 C 0.37066 0.93000 0.72467
 C719 C 0.39557 0.91239 0.70713
 C720 C 0.41759 0.89147 0.72485
 C721 C 0.41531 0.88810 0.76046
 C722 C 0.38795 0.90219 0.77663
 C723 C 0.38604 0.92304 0.80793
 C724 C 0.36212 0.94553 0.78884
 H725 H 0.39919 0.91617 0.68010
 H726 H 0.43751 0.87956 0.71111
 H727 H 0.40970 0.93546 0.81391
 H728 H 0.37451 0.90933 0.82948
 H729 H 0.37187 0.97104 0.78373
 H730 H 0.33683 0.94485 0.79949
 C731 C 0.60312 0.92244 0.28353
 C732 C 0.62905 0.94052 0.26965
 C733 C 0.63473 0.93593 0.23434
 C734 C 0.61369 0.91538 0.21461
 C735 C 0.58666 0.89879 0.22977
 C736 C 0.58320 0.90263 0.26477
 C737 C 0.56083 0.89540 0.29390
 C738 C 0.58340 0.91795 0.31515
 H739 H 0.65454 0.94908 0.22173
 H740 H 0.61788 0.91338 0.18749
 H741 H 0.56162 0.86860 0.30158
 H742 H 0.53587 0.90612 0.29036
 H743 H 0.59719 0.90423 0.33520
 H744 H 0.57137 0.94160 0.32342
 C745 C 0.36057 0.24063 0.91909
 C746 C 0.36639 0.27426 0.92684
 C747 C 0.39031 0.29120 0.90736
 C748 C 0.41100 0.27335 0.88496
 C749 C 0.40862 0.23820 0.88249
 C750 C 0.38135 0.22298 0.89760
 C751 C 0.37909 0.19183 0.91845
 C752 C 0.35634 0.21112 0.94211
 H753 H 0.39452 0.31769 0.91107
 H754 H 0.43086 0.28642 0.87233
 H755 H 0.40287 0.18480 0.93037
 H756 H 0.36658 0.17133 0.90461
 H757 H 0.36696 0.21532 0.96769
 H758 H 0.33074 0.20163 0.94204
 C759 C 0.63420 0.75677 0.91583
 C760 C 0.62768 0.72371 0.92563
 C761 C 0.60140 0.70731 0.90954
 C762 C 0.58007 0.72518 0.88785
 C763 C 0.58441 0.75982 0.88231
 C764 C 0.61303 0.77438 0.89481
 C765 C 0.61756 0.80622 0.91385
 C766 C 0.64078 0.78696 0.93705
 H767 H 0.59626 0.68128 0.91509
 H768 H 0.55898 0.71254 0.87730
 H769 H 0.59472 0.81471 0.92683
 H770 H 0.63010 0.82558 0.89822
 H771 H 0.63144 0.78430 0.96352
 H772 H 0.66667 0.79534 0.93485
 C773 C 0.36955 0.75860 0.08211
 C774 C 0.37681 0.72552 0.07294
 C775 C 0.40430 0.71025 0.08845
 C776 C 0.42591 0.72919 0.10861
 C777 C 0.42069 0.76383 0.11326
 C778 C 0.39100 0.77725 0.10163
 C779 C 0.38433 0.80859 0.08214
 C780 C 0.36080 0.78822 0.06061
 H781 H 0.41021 0.68427 0.08344
 H782 H 0.44777 0.71730 0.11867
 H783 H 0.40618 0.81756 0.06782
 H784 H 0.37178 0.82780 0.09796
 H785 H 0.36901 0.78540 0.03381
 H786 H 0.33472 0.79582 0.06393
 C787 C 0.59600 0.28915 0.09248
 C788 C 0.62307 0.27448 0.07666
 C789 C 0.62789 0.23987 0.08315
 C790 C 0.60498 0.22142 0.10294
 C791 C 0.57675 0.23713 0.11684
 C792 C 0.57413 0.27153 0.11156
 C793 C 0.55167 0.30075 0.11594
 C794 C 0.57631 0.32060 0.09405
 H795 H 0.64839 0.22669 0.07172
 H796 H 0.60871 0.19476 0.10638
 H797 H 0.55038 0.30924 0.14279
 H798 H 0.52761 0.29732 0.10327
 H799 H 0.58911 0.34072 0.10816
 H800 H 0.56641 0.32795 0.06879
 C801 C 0.28303 0.09473 0.61097
 C802 C 0.26832 0.07167 0.63308
 C803 C 0.23378 0.07299 0.63612
 C804 C 0.21500 0.09299 0.61369
 C805 C 0.23050 0.11213 0.58813
 C806 C 0.26470 0.11468 0.58940
 C807 C 0.29084 0.11465 0.56268
 C808 C 0.31088 0.09228 0.58636
 H809 H 0.22116 0.05663 0.65382
 H810 H 0.18847 0.09180 0.61483
 H811 H 0.30176 0.13988 0.55907
 H812 H 0.28367 0.10188 0.53887
 H813 H 0.33342 0.10456 0.59600
 H814 H 0.31442 0.06651 0.57635
 C815 C 0.75861 0.08115 0.36737
 C816 C 0.72696 0.07083 0.37682
 C817 C 0.71327 0.08551 0.40635
 C818 C 0.73235 0.10611 0.42748
 C819 C 0.76584 0.11169 0.42024
 C820 C 0.77756 0.10077 0.38868
 C821 C 0.80844 0.08272 0.37975
 C822 C 0.78782 0.06107 0.35640
 H823 H 0.68831 0.08003 0.41402
 H824 H 0.72155 0.11577 0.45068
 H825 H 0.81897 0.06873 0.40167
 H826 H 0.82598 0.09906 0.36581
 H827 H 0.78645 0.03451 0.36476
 H828 H 0.79363 0.06482 0.32902
 C829 C 0.71797 0.91640 0.60252
 C830 C 0.73204 0.93498 0.62847
 C831 C 0.76620 0.93026 0.63343
 C832 C 0.78477 0.90934 0.61127
 C833 C 0.76948 0.89252 0.58395
 C834 C 0.73557 0.89611 0.58165
 C835 C 0.70688 0.88874 0.55954
 C836 C 0.68695 0.91184 0.58322
 H837 H 0.77879 0.94377 0.65328
 H838 H 0.81107 0.90741 0.61464
 H839 H 0.69947 0.86203 0.56105
 H840 H 0.70956 0.89900 0.53341
 H841 H 0.66796 0.89853 0.59839
 H842 H 0.67866 0.93535 0.57065
 C843 C 0.23477 0.91391 0.36388
 C844 C 0.26780 0.92053 0.37082
 C845 C 0.28275 0.90211 0.39729
 C846 C 0.26373 0.88194 0.41912
 C847 C 0.22940 0.88025 0.41514
 C848 C 0.21599 0.89433 0.38566
 C849 C 0.18634 0.91588 0.38127
 C850 C 0.20686 0.93743 0.35745
 H851 H 0.30861 0.90510 0.40266
 H852 H 0.27537 0.87005 0.44076
 H853 H 0.17908 0.92890 0.40511
 H854 H 0.16620 0.90247 0.36815
 H855 H 0.21152 0.96291 0.36751
 H856 H 0.19843 0.93658 0.33063
 C857 C 0.07921 0.36878 0.76755
 C858 C 0.07304 0.37351 0.73287
 C859 C 0.09147 0.39817 0.71564
 C860 C 0.11208 0.41998 0.73376
 C861 C 0.11404 0.41800 0.76950
 C862 C 0.09909 0.39065 0.78546
 C863 C 0.07760 0.38949 0.81618
 C864 C 0.05573 0.36558 0.79662
 H865 H 0.08874 0.40171 0.68849
 H866 H 0.12461 0.43984 0.72020
 H867 H 0.06569 0.41400 0.82166
 H868 H 0.09010 0.37748 0.83817
 H869 H 0.03111 0.37621 0.79077
 H870 H 0.05556 0.33983 0.80744
 C871 C 0.09651 0.61373 0.28725
 C872 C 0.07514 0.63602 0.27090
 C873 C 0.07864 0.63942 0.23530
 C874 C 0.09883 0.61711 0.21681
 C875 C 0.11608 0.59130 0.23365
 C876 C 0.11665 0.59222 0.26924
 C877 C 0.11528 0.56606 0.29648
 C878 C 0.09260 0.58967 0.31605
 H879 H 0.06369 0.65726 0.22141
 H880 H 0.09900 0.61842 0.18930
 H881 H 0.13945 0.56241 0.30899
 H882 H 0.10295 0.54261 0.28878
 H883 H 0.10364 0.59916 0.33994
 H884 H 0.06712 0.58008 0.31849
 C885 C 0.91841 0.36251 0.23879
 C886 C 0.92623 0.37000 0.27258
 C887 C 0.90958 0.39713 0.28787
 C888 C 0.88955 0.41856 0.26831
 C889 C 0.88597 0.41336 0.23308
 C890 C 0.89877 0.38373 0.21950
 C891 C 0.91878 0.37836 0.18818
 C892 C 0.94039 0.35515 0.20924
 H893 H 0.91368 0.40314 0.31434
 H894 H 0.87889 0.44054 0.28010
 H895 H 0.93154 0.40147 0.17958
 H896 H 0.90479 0.36510 0.16814
 H897 H 0.96571 0.36478 0.21285
 H898 H 0.93890 0.32853 0.20124
 C899 C 0.90638 0.60835 0.72101
 C900 C 0.92944 0.62788 0.73794
 C901 C 0.93479 0.62141 0.77277
 C902 C 0.91582 0.59738 0.79026
 C903 C 0.89020 0.58052 0.77359
 C904 C 0.88686 0.58574 0.73857
 C905 C 0.85711 0.59438 0.71843
 C906 C 0.87838 0.61925 0.69912
 H907 H 0.95394 0.63449 0.78626
 H908 H 0.92092 0.59225 0.81678
 H909 H 0.83762 0.60645 0.73407
 H910 H 0.84885 0.57310 0.70251
 H911 H 0.87120 0.64580 0.70344
 H912 H 0.88224 0.61235 0.67204
 C913 C 0.72340 0.58790 0.93834
 C914 C 0.72269 0.62235 0.93212
 C915 C 0.73684 0.63395 0.90143
 C916 C 0.75233 0.61135 0.87878
 C917 C 0.75668 0.57726 0.88775
 C918 C 0.74104 0.56655 0.91760
 C919 C 0.75332 0.54594 0.94655
 C920 C 0.73395 0.56931 0.96961
 H921 H 0.73540 0.66022 0.89461
 H922 H 0.76186 0.62082 0.85491
 H923 H 0.78034 0.54786 0.94983
 H924 H 0.74346 0.52004 0.94619
 H925 H 0.74971 0.58460 0.98653
 H926 H 0.71300 0.55682 0.98255
 C927 C 0.24894 0.36686 0.91566
 C928 C 0.27565 0.37686 0.93539
 C929 C 0.28636 0.41009 0.93146
 C930 C 0.26964 0.43270 0.91043
 C931 C 0.24339 0.42267 0.88919
 C932 C 0.23330 0.38910 0.89336
 C933 C 0.20020 0.37597 0.90326
 C934 C 0.21737 0.35184 0.92718
 H935 H 0.30630 0.41971 0.94671
 H936 H 0.27671 0.45839 0.91337
 H937 H 0.18767 0.36295 0.88206
 H938 H 0.18491 0.39499 0.91661
 H939 H 0.21515 0.32524 0.91934
 H940 H 0.21202 0.35676 0.95447
 C941 C 0.28592 0.59596 0.07639
 C942 C 0.27411 0.62709 0.06531
 C943 C 0.24104 0.63512 0.07304
 C944 C 0.22151 0.61312 0.09259
 C945 C 0.23477 0.58301 0.10553
 C946 C 0.26694 0.57485 0.09619
 C947 C 0.29519 0.56436 0.11769
 C948 C 0.31619 0.58760 0.09610
 H949 H 0.23007 0.65813 0.06374
 H950 H 0.19618 0.61970 0.09777
 H951 H 0.30142 0.53745 0.11427
 H952 H 0.29257 0.57265 0.14453
 H953 H 0.33465 0.57406 0.08038
 H954 H 0.32586 0.60940 0.11039
 C955 C 0.71376 0.40277 0.08273
 C956 C 0.72588 0.37329 0.06846
 C957 C 0.75931 0.36583 0.07552
 C958 C 0.77905 0.38848 0.09419
 C959 C 0.76580 0.41879 0.10698
 C960 C 0.73245 0.42404 0.10123
 C961 C 0.70495 0.44827 0.10648
 C962 C 0.68387 0.42420 0.08535
 H963 H 0.77068 0.34337 0.06548
 H964 H 0.80478 0.38268 0.09788
 H965 H 0.70899 0.47273 0.09367
 H966 H 0.69734 0.44981 0.13359
 H967 H 0.67641 0.43471 0.06032
 H968 H 0.66399 0.41195 0.10021
 C969 C 0.91684 0.71727 0.60363
 C970 C 0.92977 0.73094 0.63324
 C971 C 0.92138 0.76494 0.63951
 C972 C 0.90268 0.78374 0.61558
 C973 C 0.89116 0.76890 0.58519
 C974 C 0.89841 0.73503 0.58115
 C975 C 0.89494 0.70618 0.55748
 C976 C 0.91600 0.68616 0.58289
 H977 H 0.93040 0.77752 0.66193
 H978 H 0.89793 0.80999 0.62047
 H979 H 0.90742 0.71016 0.53266
 H980 H 0.86917 0.69733 0.55587
 H981 H 0.94062 0.67927 0.57277
 H982 H 0.90246 0.66564 0.59586
 C983 C 0.92076 0.23958 0.36352
 C984 C 0.93058 0.27200 0.37257
 C985 C 0.91562 0.28622 0.40169
 C986 C 0.89549 0.26684 0.42310
 C987 C 0.89029 0.23266 0.41631
 C988 C 0.90127 0.22037 0.38500
 C989 C 0.91930 0.18888 0.37680
 C990 C 0.94076 0.20979 0.35327
 H991 H 0.92078 0.31176 0.40906
 H992 H 0.88597 0.27788 0.44626
 H993 H 0.90361 0.17073 0.36305
 H994 H 0.93273 0.17846 0.39904
 H995 H 0.93755 0.20354 0.32597
 H996 H 0.96666 0.21142 0.36184
 C997 C 0.08519 0.24535 0.63992
 C998 C 0.07415 0.27771 0.63180
 C999 C 0.08809 0.29319 0.60278
 C1000 C 0.10867 0.27498 0.58064
 C1001 C 0.11505 0.24072 0.58656
 C1002 C 0.10487 0.22730 0.61771
 C1003 C 0.08807 0.19510 0.62544
 C1004 C 0.06630 0.21475 0.64979
 H1005 H 0.08183 0.31877 0.59612
 H1006 H 0.11759 0.28695 0.55768
 H1007 H 0.10458 0.17699 0.63851
 H1008 H 0.07464 0.18499 0.60319
 H1009 H 0.07016 0.20779 0.67687
 H1010 H 0.04019 0.21597 0.64169
 C1011 C 0.06622 0.72242 0.40883
 C1012 C 0.05779 0.73474 0.37663
 C1013 C 0.06523 0.76864 0.36947
 C1014 C 0.08275 0.78814 0.39307
 C1015 C 0.09356 0.77406 0.42402
 C1016 C 0.08373 0.74145 0.43166
 C1017 C 0.10330 0.71226 0.44393
 C1018 C 0.08421 0.69118 0.41874
 H1019 H 0.05786 0.78004 0.34566
 H1020 H 0.08862 0.81385 0.38678
 H1021 H 0.09774 0.70602 0.47091
 H1022 H 0.12982 0.71445 0.43760
 H1023 H 0.06781 0.67264 0.43123
 H1024 H 0.09964 0.68107 0.39774
 C1025 C 0.63479 0.91885 0.75752
 C1026 C 0.62973 0.92761 0.72344
 C1027 C 0.60479 0.91063 0.70572
 C1028 C 0.58302 0.88922 0.72311
 C1029 C 0.58563 0.88471 0.75855
 C1030 C 0.61321 0.89793 0.77466
 C1031 C 0.61561 0.91748 0.80676
 C1032 C 0.63923 0.94053 0.78803
 H1033 H 0.60081 0.91540 0.67893
 H1034 H 0.56287 0.87806 0.70937
 H1035 H 0.62749 0.90282 0.82744
 H1036 H 0.59206 0.92984 0.81382
 H1037 H 0.66468 0.93922 0.79803
 H1038 H 0.62939 0.96629 0.78423
 C1039 C 0.40130 0.91965 0.28456
 C1040 C 0.37140 0.93028 0.27081
 C1041 C 0.36619 0.92471 0.23579
 C1042 C 0.38947 0.90685 0.21622
 C1043 C 0.41832 0.89418 0.23132
 C1044 C 0.42397 0.90195 0.26540
 C1045 C 0.43287 0.87951 0.29429
 C1046 C 0.40788 0.89879 0.31542
 H1047 H 0.34428 0.93417 0.22351
 H1048 H 0.38492 0.90282 0.18944
 H1049 H 0.45859 0.88335 0.30272
 H1050 H 0.42589 0.85301 0.28975
 H1051 H 0.41922 0.91359 0.33614
 H1052 H 0.38635 0.88352 0.32319
 C1053 C 0.63239 0.08557 0.24657
 C1054 C 0.62689 0.07676 0.28060
 C1055 C 0.60036 0.09237 0.29755
 C1056 C 0.57778 0.11236 0.27947
 C1057 C 0.58118 0.11686 0.24409
 C1058 C 0.61002 0.10512 0.22876
 C1059 C 0.61456 0.08549 0.19691
 C1060 C 0.63903 0.06395 0.21638
 H1061 H 0.59583 0.08746 0.32425
 H1062 H 0.55654 0.12239 0.29263
 H1063 H 0.62609 0.10063 0.17637
 H1064 H 0.59203 0.07178 0.18943
 H1065 H 0.66464 0.06660 0.20695
 H1066 H 0.63071 0.03770 0.22019
 C1067 C 0.40327 0.07261 0.72198
 C1068 C 0.37263 0.06272 0.73446
 C1069 C 0.36556 0.06922 0.76902
 C1070 C 0.38757 0.08772 0.78912
 C1071 C 0.41699 0.10002 0.77501
 C1072 C 0.42476 0.09085 0.74168
 C1073 C 0.43542 0.11205 0.71246
 C1074 C 0.41172 0.09215 0.69073
 H1075 H 0.34299 0.06033 0.78043
 H1076 H 0.38141 0.09290 0.81540
 H1077 H 0.46159 0.10768 0.70570
 H1078 H 0.42822 0.13877 0.71549
 H1079 H 0.42427 0.07644 0.67132
 H1080 H 0.39072 0.10729 0.68111
 C1081 C 0.61678 0.72055 0.09281
 C1082 C 0.63425 0.73503 0.06585
 C1083 C 0.63335 0.77029 0.06309
 C1084 C 0.61152 0.78925 0.08345
 C1085 C 0.59056 0.77320 0.10697
 C1086 C 0.59585 0.73912 0.11307
 C1087 C 0.57311 0.71033 0.11834
 C1088 C 0.59603 0.68995 0.09566
 H1089 H 0.64743 0.78291 0.04351
 H1090 H 0.60947 0.81599 0.07929
 H1091 H 0.54848 0.71420 0.10703
 H1092 H 0.57295 0.70156 0.14519
 H1093 H 0.58463 0.68281 0.07110
 H1094 H 0.60874 0.66932 0.10942
 C1095 C 0.35995 0.23336 0.07773
 C1096 C 0.36483 0.26765 0.07225
 C1097 C 0.38811 0.28390 0.09288
 C1098 C 0.40890 0.26540 0.11438
 C1099 C 0.40700 0.23024 0.11554
 C1100 C 0.38068 0.21504 0.09888
 C1101 C 0.38039 0.18536 0.07604
 C1102 C 0.35783 0.20537 0.05279
 H1103 H 0.39170 0.31069 0.09085
 H1104 H 0.42797 0.27829 0.12822
 H1105 H 0.36814 0.16350 0.08809
 H1106 H 0.40486 0.18005 0.06461
 H1107 H 0.33265 0.19490 0.05126
 H1108 H 0.36931 0.21173 0.02796
 C1109 C 0.60281 0.28181 0.91830
 C1110 C 0.62145 0.26687 0.94395
 C1111 C 0.61555 0.23297 0.95186
 C1112 C 0.59341 0.21413 0.93235
 C1113 C 0.57787 0.22863 0.90390
 C1114 C 0.58180 0.26300 0.89850
 C1115 C 0.59082 0.28132 0.86679
 C1116 C 0.61403 0.30191 0.88839
 H1117 H 0.62780 0.22119 0.97321
 H1118 H 0.58896 0.18819 0.93895
 H1119 H 0.56990 0.29614 0.85654
 H1120 H 0.60362 0.26509 0.84799
 H1121 H 0.60664 0.32865 0.89040
 H1122 H 0.64034 0.29753 0.88220
 C1123 C 0.36816 0.76230 0.92369
 C1124 C 0.37382 0.72836 0.93061
 C1125 C 0.39766 0.71158 0.91083
 C1126 C 0.41811 0.72955 0.88850
 C1127 C 0.41525 0.76462 0.88583
 C1128 C 0.38851 0.78005 0.90181
 C1129 C 0.38736 0.81066 0.92335
 C1130 C 0.36517 0.79125 0.94746
 H1131 H 0.40181 0.68496 0.91399
 H1132 H 0.43761 0.71647 0.87522
 H1133 H 0.37464 0.83180 0.91040
 H1134 H 0.41162 0.81686 0.93450
 H1135 H 0.33972 0.80133 0.94857
 H1136 H 0.37665 0.78612 0.97254
 C1137 C 0.76014 0.92449 0.36095
 C1138 C 0.72721 0.93135 0.36872
 C1139 C 0.71211 0.91160 0.39410
 C1140 C 0.73086 0.88949 0.41416
 C1141 C 0.76505 0.88689 0.40933
 C1142 C 0.77866 0.90277 0.38088
 C1143 C 0.80855 0.92401 0.37808
 C1144 C 0.78832 0.94788 0.35633
 H1145 H 0.68632 0.91484 0.40001
 H1146 H 0.71917 0.87653 0.43516
 H1147 H 0.82854 0.91132 0.36369
 H1148 H 0.81597 0.93487 0.40287
 H1149 H 0.79676 0.94906 0.32945
 H1150 H 0.78397 0.97256 0.36855
 C1151 C 0.23680 0.92525 0.63916
 C1152 C 0.26965 0.93202 0.63138
 C1153 C 0.28473 0.91288 0.60557
 C1154 C 0.26599 0.89112 0.58541
 C1155 C 0.23179 0.88864 0.59036
 C1156 C 0.21827 0.90419 0.61898
 C1157 C 0.18835 0.92557 0.62219
 C1158 C 0.20861 0.94877 0.64430
 H1159 H 0.31054 0.91599 0.59980
 H1160 H 0.27771 0.87817 0.56446
 H1161 H 0.16841 0.91270 0.63640
 H1162 H 0.18088 0.93705 0.59759
 H1163 H 0.20026 0.94932 0.67123
 H1164 H 0.21289 0.97376 0.63257
 C1165 C 0.23302 0.07007 0.36440
 C1166 C 0.26573 0.06226 0.37206
 C1167 C 0.28092 0.08078 0.39809
 C1168 C 0.26246 0.10277 0.41854
 C1169 C 0.22838 0.10642 0.41363
 C1170 C 0.21475 0.09157 0.38481
 C1171 C 0.18441 0.07121 0.38133
 C1172 C 0.20435 0.04754 0.35909
 H1173 H 0.30663 0.07697 0.40388
 H1174 H 0.27432 0.11515 0.43962
 H1175 H 0.16490 0.08484 0.36717
 H1176 H 0.17645 0.05978 0.40582
 H1177 H 0.19619 0.04736 0.33215
 H1178 H 0.20799 0.02244 0.37076
 C1179 C 0.76321 0.07795 0.64365
 C1180 C 0.72992 0.07315 0.63639
 C1181 C 0.71577 0.09338 0.61084
 C1182 C 0.73562 0.11391 0.59021
 C1183 C 0.76995 0.11427 0.59455
 C1184 C 0.78279 0.09799 0.62311
 C1185 C 0.81147 0.07486 0.62598
 C1186 C 0.79008 0.05281 0.64847
 H1187 H 0.68984 0.09161 0.60523
 H1188 H 0.72454 0.12733 0.56917
 H1189 H 0.83221 0.08647 0.63986
 H1190 H 0.81812 0.06304 0.60132
 H1191 H 0.79857 0.05166 0.67527
 H1192 H 0.78433 0.02816 0.63688
 C1193 C 0.92347 0.60292 0.27801
 C1194 C 0.94121 0.62899 0.26345
 C1195 C 0.93738 0.63353 0.22791
 C1196 C 0.91747 0.61141 0.20871
 C1197 C 0.90085 0.58449 0.22471
 C1198 C 0.90427 0.58203 0.25979
 C1199 C 0.89539 0.56126 0.28995
 C1200 C 0.91731 0.58495 0.31063
 H1201 H 0.95044 0.65334 0.21485
 H1202 H 0.91567 0.61485 0.18146
 H1203 H 0.90526 0.53533 0.28845
 H1204 H 0.86888 0.56328 0.29643
 H1205 H 0.93982 0.57264 0.32066
 H1206 H 0.90351 0.60060 0.32916
 C1207 C 0.90580 0.37139 0.72543
 C1208 C 0.93675 0.36426 0.73886
 C1209 C 0.94299 0.37418 0.77257
 C1210 C 0.92066 0.39528 0.78978
 C1211 C 0.89153 0.40595 0.77373
 C1212 C 0.88347 0.39130 0.74263
 C1213 C 0.87017 0.40567 0.71034
 C1214 C 0.89507 0.38395 0.69148
 H1215 H 0.96616 0.36795 0.78448
 H1216 H 0.92699 0.40486 0.81462
 H1217 H 0.87473 0.43291 0.70741
 H1218 H 0.84437 0.39794 0.70587
 H1219 H 0.91438 0.39872 0.67826
 H1220 H 0.88355 0.36399 0.67600
 C1221 C 0.06002 0.63360 0.77543
 C1222 C 0.06116 0.63493 0.73989
 C1223 C 0.08645 0.61721 0.72322
 C1224 C 0.10763 0.59607 0.74168
 C1225 C 0.10349 0.59183 0.77700
 C1226 C 0.08054 0.61224 0.79354
 C1227 C 0.05428 0.60314 0.81829
 C1228 C 0.03165 0.62637 0.79844
 H1229 H 0.08889 0.61851 0.69582
 H1230 H 0.12593 0.58151 0.72816
 H1231 H 0.05973 0.61231 0.84431
 H1232 H 0.04721 0.57632 0.81672
 H1233 H 0.02385 0.64878 0.81311
 H1234 H 0.01153 0.61295 0.78527
 C1235 C 0.07703 0.40091 0.28453
 C1236 C 0.06072 0.37416 0.26968
 C1237 C 0.06690 0.36910 0.23456
 C1238 C 0.08762 0.39125 0.21601
 C1239 C 0.10269 0.41886 0.23216
 C1240 C 0.09691 0.42194 0.26689
 C1241 C 0.10333 0.44354 0.29693
 C1242 C 0.08064 0.41975 0.31690
 H1243 H 0.05508 0.34880 0.22124
 H1244 H 0.09118 0.38730 0.18902
 H1245 H 0.09302 0.46919 0.29408
 H1246 H 0.12940 0.44231 0.30510
 H1247 H 0.05725 0.43170 0.32512
 H1248 H 0.09355 0.40485 0.33673
   
