data_POSCAR
  _audit_creation_date              2014-09-24
  _audit_creation_method            'ToBaCCo'
  _symmetry_space_group_name_H-M    'P1'
  _symmetry_Int_Tables_number       1
  _symmetry_cell_setting            triclinic
  loop_
  _symmetry_equiv_pos_as_xyz
 x,y,z
_cell_length_a 34.4292
_cell_length_b 34.3399
_cell_length_c 37.4668
_cell_angle_alpha 89.976500
_cell_angle_beta 90.021400
_cell_angle_gamma 89.979600
loop_
  _atom_site_label
  _atom_site_type_symbol
  _atom_site_fract_x
  _atom_site_fract_y
  _atom_site_fract_z
C1 C 0.40602 0.00007 0.24974
 C2 C 0.09274 -0.00018 0.75001
 C3 C 0.59305 0.49993 0.25011
 C4 C 0.90640 0.50016 0.74968
 C5 C 0.24999 0.34501 0.99989
 C6 C 0.75003 0.15543 0.99998
 C7 C 0.25023 0.65547 0.49994
 C8 C 0.74980 0.84539 0.49983
 C9 C 0.00034 0.25053 0.37157
 C10 C 0.00032 0.74932 0.12767
 C11 C 0.49998 0.24956 0.62849
 C12 C 0.50002 0.75017 0.87193
 C13 C -0.25017 0.65599 1.00007
 C14 C -0.24969 0.34349 0.49979
 C15 C 0.25022 -0.15670 -0.00051
 C16 C 0.24979 1.15641 0.50037
 C17 C 0.09379 0.50014 0.25010
 C18 C -0.09386 0.99977 0.24953
 C19 C 0.40556 0.49968 -0.25022
 C20 C 0.59418 0.00025 -0.24973
 C21 C -0.00043 0.24944 0.87691
 C22 C 0.50030 0.25048 0.12368
 C23 C 0.00014 0.75078 0.62327
 C24 C 0.49988 0.74974 0.37682
 Zr25 Zr 0.03588 -0.02938 1.04750
 O26 O 0.07942 -0.01234 1.08414
 O27 O 0.02729 -0.08654 1.06269
 O28 O 0.01425 -0.02421 1.10161
 O29 O 0.09983 -0.04952 0.97666
 O30 O -0.04386 0.00700 1.09455
 O31 O 0.09078 -0.05750 1.03663
 O32 O -0.01937 -0.10951 1.02458
 O33 O -0.02448 -0.03715 1.04151
 O34 O 0.02639 -0.05729 0.99843
 O35 O 0.01127 0.02659 1.04923
 O36 O 0.06199 0.00613 1.00831
 Zr37 Zr -0.03517 0.02723 0.95261
 Zr38 Zr -0.04841 0.01884 1.04043
 Zr39 Zr 0.04923 -0.02110 0.95953
 Zr40 Zr -0.03327 -0.06292 0.99152
 O41 O 0.09840 0.00991 0.94104
 O42 O -0.08529 -0.08028 1.01731
 O43 O -0.01050 -0.02898 0.95020
 O44 O -0.06029 -0.00860 0.99174
 O45 O -0.02580 0.05547 1.00151
 O46 O 0.02512 0.03451 0.95891
 C47 C 0.00480 -0.11286 1.05029
 C48 C 0.11051 -0.06238 1.00727
 C49 C -0.01758 -0.00862 1.11393
 O50 O -0.09927 -0.01056 1.05719
 O51 O -0.09718 0.05079 1.02424
 O52 O -0.08930 0.05690 0.96400
 C53 C -0.10829 0.06309 0.99360
 O54 O 0.08145 0.06534 1.04484
 Zr55 Zr 0.03428 0.06038 1.00851
 O56 O -0.02658 0.08486 0.93838
 O57 O -0.05264 0.07139 1.06977
 O58 O 0.02150 0.10572 1.04516
 O59 O 0.08256 0.08241 0.97968
 O60 O 0.01408 0.10883 0.98143
 C61 C -0.00773 0.11201 0.95408
 O62 O -0.07970 0.01122 0.91659
 O63 O 0.05608 -0.07418 0.93138
 O64 O -0.01461 0.02040 0.89837
 O65 O 0.04216 -0.01335 0.90494
 O66 O -0.01662 -0.11051 0.95884
 O67 O -0.07466 -0.07198 0.95022
 C68 C 0.01622 0.00319 0.88576
 H69 H 0.03906 -0.08308 0.99661
 H70 H -0.08855 -0.01182 0.98781
 H71 H 0.03662 0.05031 0.93950
 H72 H 0.01675 0.03971 1.07220
 H73 H -0.08836 -0.10867 1.01353
 H74 H -0.11245 0.00652 1.07475
 H75 H -0.07640 0.06969 1.08465
 H76 H 0.03812 0.12833 1.03903
 H77 H -0.03309 -0.13308 0.96541
 H78 H 0.08034 -0.07217 0.91722
 H79 H 0.11141 -0.00688 0.92315
 H80 H 0.08445 0.11061 0.98502
 H81 H -0.08787 -0.09725 0.95400
 H82 H -0.08497 0.03441 0.90154
 H83 H 0.08512 -0.03546 1.09915
 H84 H 0.09259 0.09187 1.04344
 Zr85 Zr 0.53581 0.47075 0.54823
 O86 O 0.57926 0.48776 0.58497
 O87 O 0.52690 0.41369 0.56356
 O88 O 0.51395 0.47601 0.60220
 O89 O 0.59989 0.45038 0.47760
 O90 O 0.45618 0.50779 0.59490
 O91 O 0.59064 0.44238 0.53752
 O92 O 0.48001 0.39089 0.52560
 O93 O 0.47539 0.46344 0.54217
 O94 O 0.52615 0.44258 0.49934
 O95 O 0.51163 0.52693 0.54964
 O96 O 0.56219 0.50585 0.50891
 Zr97 Zr 0.46536 0.52744 0.45287
 Zr98 Zr 0.45192 0.51960 0.54075
 Zr99 Zr 0.54921 0.47838 0.46032
 Zr100 Zr 0.46644 0.43742 0.49233
 O101 O 0.59825 0.50891 0.44089
 O102 O 0.41431 0.42065 0.51826
 O103 O 0.48948 0.47097 0.45088
 O104 O 0.43993 0.49199 0.49216
 O105 O 0.47485 0.55588 0.50167
 O106 O 0.52567 0.53422 0.45929
 C107 C 0.50422 0.38748 0.55127
 C108 C 0.61047 0.43751 0.50821
 C109 C 0.48218 0.49183 0.61437
 O110 O 0.40074 0.49077 0.55752
 O111 O 0.40341 0.55174 0.52436
 O112 O 0.41124 0.55726 0.46405
 C113 C 0.39227 0.56373 0.49364
 O114 O 0.58192 0.56537 0.54531
 Zr115 Zr 0.53495 0.56034 0.50876
 O116 O 0.47412 0.58505 0.43861
 O117 O 0.44809 0.57230 0.56989
 O118 O 0.52197 0.60601 0.54500
 O119 O 0.58376 0.58150 0.48014
 O120 O 0.51573 0.60876 0.48100
 C121 C 0.49352 0.61207 0.45395
 O122 O 0.42104 0.51139 0.41665
 O123 O 0.55609 0.42474 0.43304
 O124 O 0.48644 0.52069 0.39871
 O125 O 0.54153 0.48460 0.40577
 O126 O 0.48286 0.38967 0.45974
 O127 O 0.42484 0.42825 0.45124
 C128 C 0.51654 0.50205 0.38626
 H129 H 0.53872 0.41673 0.49766
 H130 H 0.41166 0.48894 0.48822
 H131 H 0.53736 0.54976 0.43979
 H132 H 0.51713 0.54008 0.57259
 H133 H 0.41103 0.39224 0.51471
 H134 H 0.38771 0.50801 0.57505
 H135 H 0.42429 0.57085 0.58475
 H136 H 0.53871 0.62853 0.53887
 H137 H 0.46645 0.36713 0.46650
 H138 H 0.58048 0.42634 0.41904
 H139 H 0.61099 0.49178 0.42312
 H140 H 0.58599 0.60971 0.48530
 H141 H 0.41170 0.40295 0.45509
 H142 H 0.41590 0.53456 0.40155
 H143 H 0.58486 0.46464 0.60002
 H144 H 0.59295 0.59196 0.54402
 Zr145 Zr 0.46449 1.02883 0.54832
 O146 O 0.42157 1.01206 0.58566
 O147 O 0.47382 1.08589 0.56334
 O148 O 0.48722 1.02355 0.60206
 O149 O 0.39913 1.04885 0.47858
 O150 O 0.54389 0.99025 0.59408
 O151 O 0.40968 1.05746 0.53828
 O152 O 0.52013 1.10863 0.52477
 O153 O 0.52481 1.03603 0.54150
 O154 O 0.47339 1.05690 0.49923
 O155 O 0.48848 0.97259 0.54945
 O156 O 0.43735 0.99378 0.50938
 Zr157 Zr 0.53328 0.97182 0.45227
 Zr158 Zr 0.54806 0.97980 0.53980
 Zr159 Zr 0.44965 1.02110 0.46056
 Zr160 Zr 0.53299 1.06197 0.49148
 O161 O 0.40041 0.99058 0.44153
 O162 O 0.58559 1.07862 0.51667
 O163 O 0.50926 1.02835 0.45043
 O164 O 0.55936 1.00736 0.49107
 O165 O 0.52444 0.94347 0.50118
 O166 O 0.47303 0.96521 0.45933
 C167 C 0.49630 1.11209 0.55070
 C168 C 0.38926 1.06203 0.50926
 C169 C 0.51857 1.00664 0.61396
 O170 O 0.59888 1.00896 0.55703
 O171 O 0.59715 0.94903 0.52280
 O172 O 0.58739 0.94169 0.46290
 C173 C 0.60737 0.93627 0.49210
 O174 O 0.41785 0.93469 0.54602
 Zr175 Zr 0.46438 0.93922 0.50897
 O176 O 0.52383 0.91423 0.43829
 O177 O 0.55253 0.92637 0.56775
 O178 O 0.47717 0.89352 0.54529
 O179 O 0.41529 0.91819 0.48068
 O180 O 0.48332 0.89055 0.48158
 C181 C 0.50486 0.88721 0.45411
 O182 O 0.57723 0.98738 0.41550
 O183 O 0.44213 1.07476 0.43342
 O184 O 0.51173 0.97874 0.39839
 O185 O 0.45683 1.01502 0.40590
 O186 O 0.51607 1.10965 0.45897
 O187 O 0.57391 1.07100 0.44981
 C188 C 0.48163 0.99754 0.38621
 H189 H 0.46084 1.08277 0.49766
 H190 H 0.58756 1.01043 0.48676
 H191 H 0.46106 0.94969 0.43996
 H192 H 0.48321 0.95938 0.57241
 H193 H 0.58891 1.10701 0.51301
 H194 H 0.61218 0.99157 0.57429
 H195 H 0.57667 0.92743 0.58216
 H196 H 0.46001 0.87123 0.53944
 H197 H 0.53264 1.13219 0.46542
 H198 H 0.41752 1.07309 0.41974
 H199 H 0.38746 1.00775 0.42388
 H200 H 0.41300 0.88999 0.48593
 H201 H 0.58715 1.09628 0.45343
 H202 H 0.58204 0.96411 0.40046
 H203 H 0.41632 1.03522 0.60073
 H204 H 0.40615 0.90841 0.54450
 Zr205 Zr -0.03563 0.52858 1.04773
 O206 O -0.07872 0.51201 1.08499
 O207 O -0.02633 0.58572 1.06254
 O208 O -0.01318 0.52349 1.10163
 O209 O -0.10066 0.54851 0.97769
 O210 O 0.04379 0.49065 1.09394
 O211 O -0.09043 0.55702 1.03746
 O212 O 0.02006 0.60832 1.02399
 O213 O 0.02467 0.53586 1.04106
 O214 O -0.02665 0.55635 0.99849
 O215 O -0.01159 0.47239 1.04922
 O216 O -0.06257 0.49325 1.00885
 Zr217 Zr 0.03373 0.47132 0.95222
 Zr218 Zr 0.04799 0.47965 1.03977
 Zr219 Zr -0.05025 0.52028 0.95987
 Zr220 Zr 0.03297 0.56153 0.99093
 O221 O -0.09969 0.48954 0.94159
 O222 O 0.08551 0.57847 1.01607
 O223 O 0.00942 0.52770 0.94994
 O224 O 0.05954 0.50703 0.99100
 O225 O 0.02467 0.44314 1.00119
 O226 O -0.02655 0.46450 0.95906
 C227 C -0.00378 0.61186 1.04989
 C228 C -0.11070 0.56160 1.00838
 C229 C 0.01825 0.50685 1.11371
 O230 O 0.09894 0.50876 1.05676
 O231 O 0.09675 0.44813 1.02322
 O232 O 0.08804 0.44165 0.96313
 C233 C 0.10749 0.43575 0.99255
 O234 O -0.08221 0.43438 1.04554
 Zr235 Zr -0.03539 0.43877 1.00878
 O236 O 0.02439 0.41370 0.93835
 O237 O 0.05213 0.42656 1.06832
 O238 O -0.02283 0.39332 1.04542
 O239 O -0.08415 0.41727 0.98030
 O240 O -0.01592 0.39003 0.98181
 C241 C 0.00553 0.38669 0.95429
 O242 O 0.07789 0.48653 0.91553
 O243 O -0.05738 0.57351 0.93197
 O244 O 0.01275 0.47852 0.89821
 O245 O -0.04368 0.51273 0.90519
 O246 O 0.01617 0.60920 0.95835
 O247 O 0.07379 0.57014 0.94911
 C248 C -0.01800 0.49606 0.88584
 H249 H -0.03919 0.58221 0.99677
 H250 H 0.08777 0.51012 0.98682
 H251 H -0.03837 0.44880 0.93973
 H252 H -0.01695 0.45930 1.07224
 H253 H 0.08885 0.60680 1.01210
 H254 H 0.11217 0.49146 1.07414
 H255 H 0.07626 0.42764 1.08273
 H256 H -0.03986 0.37094 1.03955
 H257 H 0.03299 0.63162 0.96459
 H258 H -0.08188 0.57163 0.91814
 H259 H -0.11282 0.50650 0.92388
 H260 H -0.08630 0.38910 0.98569
 H261 H 0.08727 0.59531 0.95265
 H262 H 0.08269 0.46317 0.90059
 H263 H -0.08400 0.53522 1.09999
 H264 H -0.09385 0.40807 1.04408
 Zr265 Zr -0.03561 0.47166 0.45233
 O266 O -0.07912 0.48899 0.41576
 O267 O -0.02659 0.41476 0.43658
 O268 O -0.01359 0.47722 0.39832
 O269 O -0.09906 0.44971 0.52310
 O270 O 0.04300 0.51072 0.40582
 O271 O -0.09033 0.44310 0.46294
 O272 O 0.02070 0.39189 0.47413
 O273 O 0.02484 0.46467 0.45817
 O274 O -0.02565 0.44308 0.50105
 O275 O -0.01192 0.52801 0.45137
 O276 O -0.06206 0.50616 0.49210
 Zr277 Zr 0.03501 0.52764 0.54782
 Zr278 Zr 0.04785 0.52099 0.46003
 Zr279 Zr -0.04876 0.47835 0.54050
 Zr280 Zr 0.03410 0.43810 0.50775
 O281 O -0.09834 0.50826 0.55961
 O282 O 0.08623 0.42187 0.48152
 O283 O 0.01108 0.47108 0.54960
 O284 O 0.06036 0.49275 0.50819
 O285 O 0.02495 0.55672 0.49944
 O286 O -0.02540 0.53423 0.54177
 C287 C -0.00366 0.38857 0.44857
 C288 C -0.10987 0.43751 0.49231
 C289 C 0.01759 0.49423 0.38614
 O290 O 0.09881 0.49254 0.44212
 O291 O 0.09660 0.55267 0.47640
 O292 O 0.08923 0.55737 0.53677
 C293 C 0.10801 0.56419 0.50715
 O294 O -0.08215 0.56631 0.45602
 Zr295 Zr -0.03526 0.56083 0.49262
 O296 O 0.02671 0.58527 0.56203
 O297 O 0.05123 0.57447 0.43201
 O298 O -0.02201 0.60712 0.45711
 O299 O -0.08459 0.58088 0.52114
 O300 O -0.01722 0.60883 0.52154
 C301 C 0.00610 0.61212 0.54780
 O302 O 0.07939 0.51132 0.58391
 O303 O -0.05467 0.42471 0.56796
 O304 O 0.01424 0.52055 0.60194
 O305 O -0.04168 0.48550 0.59515
 O306 O 0.01816 0.38981 0.53988
 O307 O 0.07582 0.42880 0.54873
 C308 C -0.01625 0.50265 0.61441
 H309 H -0.03804 0.41714 0.50257
 H310 H 0.08867 0.48971 0.51192
 H311 H -0.03710 0.54963 0.56135
 H312 H -0.01766 0.54140 0.42857
 H313 H 0.08971 0.39346 0.48490
 H314 H 0.11165 0.51019 0.42481
 H315 H 0.07516 0.57373 0.41730
 H316 H -0.03876 0.62956 0.46349
 H317 H 0.03483 0.36752 0.53294
 H318 H -0.07892 0.42612 0.58218
 H319 H -0.11103 0.49096 0.57728
 H320 H -0.08728 0.60912 0.51627
 H321 H 0.08927 0.40372 0.54457
 H322 H 0.08463 0.53441 0.59908
 H323 H -0.08464 0.46603 0.40051
 H324 H -0.09281 0.59306 0.45715
 Zr325 Zr 0.46460 -0.02868 -0.04803
 O326 O 0.42110 -0.01160 -0.08471
 O327 O 0.47413 -0.08556 -0.06384
 O328 O 0.48670 -0.02285 -0.10192
 O329 O 0.40106 -0.05093 0.02252
 O330 O 0.54266 0.01166 -0.09427
 O331 O 0.40998 -0.05754 -0.03759
 O332 O 0.52154 -0.10799 -0.02618
 O333 O 0.52513 -0.03503 -0.04217
 O334 O 0.47486 -0.05741 0.00054
 O335 O 0.48765 0.02796 -0.04866
 O336 O 0.43783 0.00538 -0.00813
 Zr337 Zr 0.53458 0.02758 0.04786
 Zr338 Zr 0.54748 0.02155 -0.04001
 Zr339 Zr 0.45144 -0.02262 0.04008
 Zr340 Zr 0.53468 -0.06172 0.00731
 O341 O 0.40203 0.00678 0.06021
 O342 O 0.58682 -0.07732 -0.01922
 O343 O 0.51131 -0.02925 0.04928
 O344 O 0.56029 -0.00680 0.00803
 O345 O 0.52425 0.05682 -0.00040
 O346 O 0.47411 0.03353 0.04176
 C347 C 0.49707 -0.11160 -0.05157
 C348 C 0.39034 -0.06313 -0.00827
 C349 C 0.51760 -0.00530 -0.11400
 O350 O 0.59867 -0.00629 -0.05817
 O351 O 0.59599 0.05344 -0.02350
 O352 O 0.58873 0.05759 0.03692
 C353 C 0.60745 0.06469 0.00731
 O354 O 0.41711 0.06576 -0.04383
 Zr355 Zr 0.46401 0.06035 -0.00724
 O356 O 0.52603 0.08509 0.06213
 O357 O 0.55036 0.07528 -0.06765
 O358 O 0.47691 0.10699 -0.04248
 O359 O 0.41440 0.07956 0.02135
 O360 O 0.48152 0.10836 0.02205
 C361 C 0.50507 0.11179 0.04813
 O362 O 0.57879 0.01125 0.08411
 O363 O 0.44545 -0.07679 0.06665
 O364 O 0.51327 0.02068 0.10189
 O365 O 0.45938 -0.01713 0.09466
 O366 O 0.51930 -0.11013 0.03952
 O367 O 0.57676 -0.07083 0.04802
 C368 C 0.48364 0.00123 0.11423
 H369 H 0.46259 -0.08342 0.00201
 H370 H 0.58863 -0.00962 0.01173
 H371 H 0.46224 0.04866 0.06144
 H372 H 0.48178 0.04141 -0.07141
 H373 H 0.59061 -0.10571 -0.01597
 H374 H 0.61130 0.01159 -0.07541
 H375 H 0.57422 0.07484 -0.08246
 H376 H 0.46003 0.12926 -0.03595
 H377 H 0.53608 -0.13231 0.03250
 H378 H 0.42112 -0.07574 0.08079
 H379 H 0.38967 -0.01087 0.07779
 H380 H 0.41146 0.10784 0.01677
 H381 H 0.59035 -0.09580 0.04373
 H382 H 0.58390 0.03434 0.09931
 H383 H 0.41576 -0.03458 -0.09997
 H384 H 0.40625 0.09242 -0.04253
 Zr385 Zr 0.53495 0.52966 -0.04836
 O386 O 0.57825 0.51347 -0.08555
 O387 O 0.52516 0.58688 -0.06317
 O388 O 0.51301 0.52436 -0.10227
 O389 O 0.60010 0.54880 0.02166
 O390 O 0.45528 0.49263 -0.09486
 O391 O 0.58971 0.55808 -0.03797
 O392 O 0.47947 0.60946 -0.02387
 O393 O 0.47462 0.53692 -0.04176
 O394 O 0.52585 0.55727 0.00089
 O395 O 0.51096 0.47342 -0.04996
 O396 O 0.56178 0.49411 -0.00956
 Zr397 Zr 0.46550 0.47213 0.04701
 Zr398 Zr 0.45134 0.48070 -0.04069
 Zr399 Zr 0.54940 0.52109 0.03937
 Zr400 Zr 0.46618 0.56234 0.00847
 O401 O 0.59847 0.49024 0.05840
 O402 O 0.41392 0.57960 -0.01701
 O403 O 0.48976 0.52846 0.04937
 O404 O 0.43968 0.50785 0.00819
 O405 O 0.47460 0.44402 -0.00201
 O406 O 0.52577 0.46531 0.04020
 C407 C 0.50309 0.61310 -0.04989
 C408 C 0.61008 0.56224 -0.00891
 C409 C 0.48127 0.50849 -0.11439
 O410 O 0.40019 0.50993 -0.05707
 O411 O 0.40289 0.44865 -0.02425
 O412 O 0.41117 0.44265 0.03596
 C413 C 0.39198 0.43646 0.00645
 O414 O 0.58079 0.43433 -0.04688
 Zr415 Zr 0.53466 0.43957 -0.00950
 O416 O 0.47386 0.41431 0.06033
 O417 O 0.44701 0.42821 -0.07010
 O418 O 0.52021 0.39404 -0.04541
 O419 O 0.58447 0.41892 0.01798
 O420 O 0.51711 0.39108 0.01914
 C421 C 0.49419 0.38755 0.04567
 O422 O 0.42156 0.48770 0.08378
 O423 O 0.55690 0.57453 0.06683
 O424 O 0.48702 0.47854 0.10110
 O425 O 0.54210 0.51462 0.09396
 O426 O 0.48272 0.60961 0.04159
 O427 O 0.42499 0.57061 0.05004
 C428 C 0.51717 0.49715 0.11351
 H429 H 0.53847 0.58308 0.00270
 H430 H 0.41144 0.51091 0.01232
 H431 H 0.53763 0.44962 0.05952
 H432 H 0.51629 0.46038 -0.07299
 H433 H 0.41053 0.60789 -0.01283
 H434 H 0.38693 0.49285 -0.07458
 H435 H 0.42310 0.42985 -0.08480
 H436 H 0.53691 0.37136 -0.03968
 H437 H 0.46588 0.63209 0.03553
 H438 H 0.58152 0.57274 0.08049
 H439 H 0.61146 0.50726 0.07611
 H440 H 0.58700 0.39076 0.01268
 H441 H 0.41146 0.59576 0.04651
 H442 H 0.41659 0.46432 0.09867
 H443 H 0.58350 0.53677 -0.10046
 H444 H 0.59115 0.40743 -0.04635
 Zr445 Zr 0.03528 1.02958 0.45191
 O446 O 0.07852 1.01274 0.41491
 O447 O 0.02658 1.08685 0.43709
 O448 O 0.01332 1.02444 0.39791
 O449 O 0.10026 1.04868 0.52221
 O450 O -0.04482 0.99338 0.40520
 O451 O 0.09023 1.05760 0.46245
 O452 O -0.01943 1.10996 0.47576
 O453 O -0.02497 1.03766 0.45842
 O454 O 0.02648 1.05725 0.50121
 O455 O 0.01045 0.97373 0.45017
 O456 O 0.06170 0.99373 0.49071
 Zr457 Zr -0.03493 0.97280 0.54703
 Zr458 Zr -0.04913 0.98178 0.45943
 Zr459 Zr 0.04960 1.02072 0.53974
 Zr460 Zr -0.03308 1.06317 0.50864
 O461 O 0.09873 0.98937 0.55791
 O462 O -0.08534 1.08099 0.48347
 O463 O -0.00999 1.02885 0.54956
 O464 O -0.06033 1.00900 0.50835
 O465 O -0.02620 0.94473 0.49797
 O466 O 0.02525 0.96526 0.54028
 C467 C 0.00441 1.11327 0.44983
 C468 C 0.11043 1.06195 0.49162
 C469 C -0.01856 1.00886 0.38571
 O470 O -0.09962 1.01198 0.44284
 O471 O -0.09837 0.95083 0.47602
 O472 O -0.08916 0.94329 0.53599
 C473 C -0.10885 0.93796 0.50664
 O474 O 0.07994 0.93421 0.45311
 Zr475 Zr 0.03383 0.93959 0.49050
 O476 O -0.02691 0.91489 0.56041
 O477 O -0.05440 0.92922 0.43027
 O478 O 0.01911 0.89430 0.45443
 O479 O 0.08327 0.91805 0.51799
 O480 O 0.01561 0.89121 0.51880
 C481 C -0.00703 0.88792 0.54552
 O482 O -0.07903 0.98875 0.58350
 O483 O 0.05710 1.07369 0.56793
 O484 O -0.01384 0.97918 0.60115
 O485 O 0.04292 1.01285 0.59440
 O486 O -0.01583 1.11047 0.54141
 O487 O -0.07389 1.07208 0.55042
 C488 C 0.01708 0.99632 0.61367
 H489 H 0.03927 1.08297 0.50303
 H490 H -0.08852 1.01238 0.51256
 H491 H 0.03692 0.94932 0.55953
 H492 H 0.01563 0.96062 0.42715
 H493 H -0.08828 1.10935 0.48751
 H494 H -0.11321 0.99507 0.42540
 H495 H -0.07829 0.93123 0.41558
 H496 H 0.03572 0.87151 0.46005
 H497 H -0.03237 1.13312 0.53520
 H498 H 0.08154 1.07150 0.58182
 H499 H 0.11200 1.00606 0.57572
 H500 H 0.08552 0.88992 0.51241
 H501 H -0.08709 1.09741 0.54693
 H502 H -0.08425 0.96548 0.59846
 H503 H 0.08408 1.03593 0.39995
 H504 H 0.09019 0.90727 0.45360
 Zr505 Zr 0.72099 0.28556 0.20191
 O506 O 0.73708 0.32909 0.16480
 O507 O 0.66387 0.27602 0.18732
 O508 O 0.72601 0.26363 0.14790
 O509 O 0.70174 0.35063 0.27214
 O510 O 0.75735 0.20552 0.15513
 O511 O 0.69245 0.34034 0.21248
 O512 O 0.64152 0.23029 0.22680
 O513 O 0.71359 0.22509 0.20858
 O514 O 0.69390 0.27652 0.25142
 O515 O 0.77695 0.26122 0.19988
 O516 O 0.75681 0.31241 0.24044
 Zr517 Zr 0.77896 0.21571 0.29687
 Zr518 Zr 0.76958 0.20145 0.20924
 Zr519 Zr 0.73036 0.30014 0.28965
 Zr520 Zr 0.68867 0.21675 0.25901
 O521 O 0.76143 0.34966 0.30739
 O522 O 0.67114 0.16435 0.23377
 O523 O 0.72288 0.24031 0.29966
 O524 O 0.74292 0.18991 0.25835
 O525 O 0.80649 0.22470 0.24760
 O526 O 0.78591 0.27614 0.28999
 C527 C 0.63776 0.25399 0.20076
 C528 C 0.68813 0.36062 0.24160
 C529 C 0.74165 0.23174 0.13567
 O530 O 0.74015 0.15029 0.19309
 O531 O 0.80166 0.15277 0.22550
 O532 O 0.80865 0.16144 0.28558
 C533 C 0.81441 0.14204 0.25608
 O534 O 0.81535 0.33181 0.20324
 Zr535 Zr 0.81106 0.28488 0.24004
 O536 O 0.83648 0.22493 0.31050
 O537 O 0.82176 0.19704 0.17957
 O538 O 0.85591 0.27195 0.20303
 O539 O 0.83311 0.33366 0.26826
 O540 O 0.85986 0.26509 0.26673
 C541 C 0.86335 0.24365 0.29432
 O542 O 0.76406 0.17126 0.33348
 O543 O 0.67769 0.30737 0.31818
 O544 O 0.77205 0.23664 0.35103
 O545 O 0.73853 0.29362 0.34426
 O546 O 0.64163 0.23337 0.29224
 O547 O 0.68067 0.17566 0.30082
 C548 C 0.75491 0.26763 0.36355
 H549 H 0.66815 0.28913 0.25344
 H550 H 0.73987 0.16161 0.26256
 H551 H 0.80180 0.28792 0.30919
 H552 H 0.78979 0.26656 0.17677
 H553 H 0.64292 0.16113 0.23807
 H554 H 0.75703 0.13694 0.17549
 H555 H 0.81997 0.17310 0.16485
 H556 H 0.87843 0.28881 0.20876
 H557 H 0.61922 0.21644 0.28630
 H558 H 0.67978 0.33194 0.33196
 H559 H 0.74482 0.36292 0.32525
 H560 H 0.86117 0.33563 0.26265
 H561 H 0.65568 0.16192 0.29735
 H562 H 0.78746 0.16643 0.34831
 H563 H 0.71382 0.33442 0.14993
 H564 H 0.84174 0.34320 0.20436
 Zr565 Zr 0.77996 0.71610 0.70208
 O566 O 0.76393 0.67295 0.66460
 O567 O 0.83687 0.72622 0.68719
 O568 O 0.77434 0.73877 0.64830
 O569 O 0.80044 0.65089 0.77197
 O570 O 0.74051 0.79522 0.65621
 O571 O 0.80868 0.66120 0.71220
 O572 O 0.85912 0.77222 0.72643
 O573 O 0.78649 0.77665 0.70889
 O574 O 0.80773 0.72535 0.75124
 O575 O 0.72358 0.73950 0.70096
 O576 O 0.74521 0.68861 0.74104
 Zr577 Zr 0.72236 0.78465 0.79803
 Zr578 Zr 0.73013 0.79933 0.71050
 Zr579 Zr 0.77224 0.70126 0.78989
 Zr580 Zr 0.81216 0.78518 0.75898
 O581 O 0.74231 0.65162 0.80902
 O582 O 0.82849 0.83774 0.73332
 O583 O 0.77890 0.76107 0.80001
 O584 O 0.75748 0.81110 0.75920
 O585 O 0.69413 0.77534 0.74916
 O586 O 0.71629 0.72417 0.79106
 C587 C 0.86289 0.74847 0.70046
 C588 C 0.81346 0.64085 0.74127
 C589 C 0.75710 0.76999 0.63635
 O590 O 0.75875 0.85053 0.69323
 O591 O 0.69881 0.84817 0.72746
 O592 O 0.69193 0.83863 0.78744
 C593 C 0.68613 0.85842 0.75817
 O594 O 0.68588 0.66877 0.70405
 Zr595 Zr 0.69048 0.71507 0.74146
 O596 O 0.66480 0.77565 0.81136
 O597 O 0.67685 0.80332 0.68245
 O598 O 0.64460 0.72859 0.70567
 O599 O 0.67067 0.66496 0.76912
 O600 O 0.64200 0.73230 0.76999
 C601 C 0.63827 0.75524 0.79649
 O602 O 0.73782 0.82868 0.83483
 O603 O 0.82582 0.69429 0.81707
 O604 O 0.72885 0.76287 0.85192
 O605 O 0.76609 0.70853 0.84451
 O606 O 0.85961 0.76902 0.79195
 O607 O 0.82049 0.82665 0.80039
 C608 C 0.74803 0.73298 0.86416
 H609 H 0.83359 0.71291 0.75293
 H610 H 0.76027 0.83942 0.76343
 H611 H 0.70088 0.71204 0.81041
 H612 H 0.71044 0.73405 0.67800
 H613 H 0.85674 0.84137 0.73715
 H614 H 0.74123 0.86374 0.67604
 H615 H 0.67767 0.82757 0.66809
 H616 H 0.62237 0.71137 0.71147
 H617 H 0.88192 0.78596 0.78571
 H618 H 0.82432 0.66969 0.83089
 H619 H 0.75957 0.63887 0.82669
 H620 H 0.64257 0.66211 0.76397
 H621 H 0.84543 0.84039 0.79664
 H622 H 0.71458 0.83348 0.84985
 H623 H 0.78717 0.66796 0.64962
 H624 H 0.65939 0.65762 0.70497
 Zr625 Zr 0.22093 0.21407 0.79861
 O626 O 0.23761 0.17047 0.83546
 O627 O 0.16404 0.22333 0.81374
 O628 O 0.22632 0.23608 0.85254
 O629 O 0.20014 0.14979 0.72819
 O630 O 0.25853 0.29368 0.84518
 O631 O 0.19214 0.15935 0.78807
 O632 O 0.14155 0.27026 0.77553
 O633 O 0.21400 0.27467 0.79242
 O634 O 0.19296 0.22381 0.74964
 O635 O 0.27710 0.23789 0.80004
 O636 O 0.25575 0.18719 0.75940
 Zr637 Zr 0.27794 0.28395 0.70316
 Zr638 Zr 0.27019 0.29778 0.79099
 Zr639 Zr 0.22850 0.20028 0.71074
 Zr640 Zr 0.18816 0.28368 0.74251
 O641 O 0.25867 0.15085 0.69149
 O642 O 0.17173 0.33601 0.76849
 O643 O 0.22147 0.26019 0.70116
 O644 O 0.24275 0.30985 0.74234
 O645 O 0.30620 0.27437 0.75203
 O646 O 0.28434 0.22346 0.70971
 C647 C 0.13796 0.24600 0.80118
 C648 C 0.18713 0.13944 0.75881
 C649 C 0.24241 0.26778 0.86468
 O650 O 0.24177 0.34931 0.80773
 O651 O 0.30248 0.34618 0.77440
 O652 O 0.30788 0.33811 0.71412
 C653 C 0.31442 0.35720 0.74363
 O654 O 0.31467 0.16693 0.79582
 Zr655 Zr 0.31026 0.21409 0.75928
 O656 O 0.33541 0.27466 0.68915
 O657 O 0.32285 0.30136 0.82004
 O658 O 0.35585 0.22641 0.79571
 O659 O 0.33121 0.16516 0.73056
 O660 O 0.35881 0.23329 0.73198
 C661 C 0.36226 0.25533 0.70480
 O662 O 0.26236 0.32836 0.66673
 O663 O 0.17500 0.19359 0.68337
 O664 O 0.27104 0.26281 0.64905
 O665 O 0.23471 0.20784 0.65616
 O666 O 0.14052 0.26762 0.70976
 O667 O 0.17935 0.32547 0.70141
 C668 C 0.25223 0.23277 0.63663
 H669 H 0.16711 0.21138 0.74789
 H670 H 0.23987 0.33820 0.73833
 H671 H 0.29980 0.21161 0.69025
 H672 H 0.29018 0.23234 0.82301
 H673 H 0.14341 0.33948 0.76491
 H674 H 0.25911 0.36231 0.82518
 H675 H 0.32158 0.32527 0.83483
 H676 H 0.37809 0.20930 0.78966
 H677 H 0.11814 0.28428 0.71641
 H678 H 0.17648 0.16908 0.66945
 H679 H 0.24149 0.13812 0.67375
 H680 H 0.35932 0.16275 0.73582
 H681 H 0.15428 0.33895 0.70530
 H682 H 0.28553 0.33327 0.65165
 H683 H 0.21453 0.16508 0.85052
 H684 H 0.34094 0.15532 0.79435
 Zr685 Zr 0.27938 0.78500 0.29747
 O686 O 0.26314 0.82816 0.33488
 O687 O 0.33665 0.77599 0.31174
 O688 O 0.27455 0.76275 0.35141
 O689 O 0.29796 0.85062 0.22745
 O690 O 0.24364 0.70444 0.34406
 O691 O 0.30732 0.84011 0.28708
 O692 O 0.35933 0.73012 0.27262
 O693 O 0.28730 0.72462 0.29061
 O694 O 0.30652 0.77644 0.24793
 O695 O 0.22364 0.76020 0.29949
 O696 O 0.24332 0.81182 0.25909
 Zr697 Zr 0.22179 0.71539 0.20236
 Zr698 Zr 0.23152 0.70053 0.28989
 Zr699 Zr 0.26982 0.79999 0.20981
 Zr700 Zr 0.31225 0.71675 0.24013
 O701 O 0.23835 0.84936 0.19219
 O702 O 0.33009 0.66417 0.26494
 O703 O 0.27773 0.74028 0.19961
 O704 O 0.25815 0.68955 0.24067
 O705 O 0.19436 0.72382 0.25173
 O706 O 0.21441 0.77570 0.20945
 C707 C 0.36290 0.75384 0.29867
 C708 C 0.31146 0.86056 0.25803
 C709 C 0.25911 0.73072 0.36359
 O710 O 0.26150 0.64960 0.30588
 O711 O 0.20009 0.65154 0.27329
 O712 O 0.19182 0.66134 0.21347
 C713 C 0.18670 0.64143 0.24276
 O714 O 0.18502 0.83073 0.29641
 Zr715 Zr 0.18929 0.78392 0.25950
 O716 O 0.16422 0.72461 0.18873
 O717 O 0.17934 0.69542 0.31945
 O718 O 0.14461 0.77102 0.29669
 O719 O 0.16662 0.83244 0.23125
 O720 O 0.14048 0.76347 0.23327
 C721 C 0.13714 0.74264 0.20530
 O722 O 0.23693 0.67099 0.16580
 O723 O 0.32241 0.80781 0.18131
 O724 O 0.22858 0.73645 0.14826
 O725 O 0.26173 0.79358 0.15516
 O726 O 0.35914 0.73412 0.20705
 O727 O 0.32060 0.67607 0.19808
 C728 C 0.24554 0.76755 0.13582
 H729 H 0.33218 0.78923 0.24599
 H730 H 0.26135 0.66130 0.23627
 H731 H 0.19842 0.78747 0.19030
 H732 H 0.21078 0.76531 0.32263
 H733 H 0.35833 0.66114 0.26064
 H734 H 0.24474 0.63597 0.32340
 H735 H 0.18133 0.67136 0.33401
 H736 H 0.12208 0.78793 0.29106
 H737 H 0.38173 0.71739 0.21293
 H738 H 0.32009 0.83240 0.16757
 H739 H 0.25483 0.86277 0.17432
 H740 H 0.13857 0.83412 0.23697
 H741 H 0.34584 0.66269 0.20133
 H742 H 0.21360 0.66613 0.15090
 H743 H 0.28643 0.83355 0.34968
 H744 H 0.15877 0.84241 0.29503
 Zr745 Zr 0.22082 0.78567 0.70189
 O746 O 0.23728 0.82936 0.66506
 O747 O 0.16373 0.77650 0.68708
 O748 O 0.22593 0.76389 0.64781
 O749 O 0.20087 0.85003 0.77250
 O750 O 0.25746 0.70586 0.65491
 O751 O 0.19227 0.84043 0.71266
 O752 O 0.14123 0.73038 0.72609
 O753 O 0.21346 0.72515 0.70816
 O754 O 0.19347 0.77625 0.75122
 O755 O 0.27682 0.76141 0.70001
 O756 O 0.25637 0.81227 0.74077
 Zr757 Zr 0.27822 0.71520 0.79672
 Zr758 Zr 0.26948 0.70156 0.70902
 Zr759 Zr 0.22965 0.79959 0.78977
 Zr760 Zr 0.18820 0.71644 0.75839
 O761 O 0.26045 0.84913 0.80790
 O762 O 0.17083 0.66432 0.73258
 O763 O 0.22212 0.73972 0.79939
 O764 O 0.24246 0.68964 0.75787
 O765 O 0.30614 0.72460 0.74770
 O766 O 0.28521 0.77566 0.79023
 C767 C 0.13756 0.75440 0.70029
 C768 C 0.18756 0.86036 0.74195
 C769 C 0.24167 0.73207 0.63550
 O770 O 0.24027 0.65041 0.69251
 O771 O 0.30163 0.65290 0.72526
 O772 O 0.30763 0.66085 0.78549
 C773 C 0.31384 0.64180 0.75591
 O774 O 0.31563 0.83153 0.70348
 Zr775 Zr 0.31068 0.78485 0.74048
 O776 O 0.33594 0.72341 0.80999
 O777 O 0.32174 0.69734 0.67944
 O778 O 0.35590 0.77088 0.70419
 O779 O 0.33184 0.83427 0.76834
 O780 O 0.35915 0.76646 0.76852
 C781 C 0.36268 0.74352 0.79508
 O782 O 0.26275 0.67081 0.83319
 O783 O 0.17687 0.80640 0.81821
 O784 O 0.27166 0.73605 0.85094
 O785 O 0.23769 0.79278 0.84436
 O786 O 0.14096 0.73268 0.79154
 O787 O 0.17992 0.67493 0.79981
 C788 C 0.25434 0.76689 0.86355
 H789 H 0.16771 0.78883 0.75324
 H790 H 0.23938 0.66131 0.76188
 H791 H 0.30103 0.78735 0.80952
 H792 H 0.28976 0.76687 0.67697
 H793 H 0.14258 0.66108 0.73667
 H794 H 0.25730 0.63716 0.67497
 H795 H 0.32007 0.67342 0.66470
 H796 H 0.37852 0.78759 0.70996
 H797 H 0.11858 0.71582 0.78534
 H798 H 0.17884 0.83083 0.83221
 H799 H 0.24370 0.86221 0.82577
 H800 H 0.35989 0.83668 0.76285
 H801 H 0.15500 0.66116 0.79603
 H802 H 0.28605 0.66568 0.84807
 H803 H 0.21411 0.83483 0.65012
 H804 H 0.34240 0.84203 0.70407
 Zr805 Zr 0.28005 0.21600 0.20198
 O806 O 0.26443 0.17283 0.16435
 O807 O 0.33708 0.22631 0.18748
 O808 O 0.27467 0.23827 0.14820
 O809 O 0.29899 0.14999 0.27150
 O810 O 0.24292 0.29610 0.15580
 O811 O 0.30859 0.16109 0.21202
 O812 O 0.35937 0.27157 0.22742
 O813 O 0.28713 0.27645 0.20912
 O814 O 0.30727 0.22468 0.25146
 O815 O 0.22394 0.24003 0.20023
 O816 O 0.24448 0.18854 0.24031
 Zr817 Zr 0.22181 0.28437 0.29758
 Zr818 Zr 0.23101 0.29975 0.21004
 Zr819 Zr 0.27103 0.20053 0.28951
 Zr820 Zr 0.31209 0.28443 0.25960
 O821 O 0.24025 0.15109 0.30791
 O822 O 0.32925 0.33718 0.23473
 O823 O 0.27809 0.26024 0.30006
 O824 O 0.25764 0.31086 0.25926
 O825 O 0.19431 0.27581 0.24822
 O826 O 0.21528 0.22401 0.29021
 C827 C 0.36314 0.24826 0.20114
 C828 C 0.31263 0.14035 0.24092
 C829 C 0.25873 0.27009 0.13619
 O830 O 0.26029 0.35105 0.19402
 O831 O 0.19924 0.34837 0.22694
 O832 O 0.19140 0.33832 0.28678
 C833 C 0.18602 0.35833 0.25756
 O834 O 0.18609 0.16914 0.20299
 Zr835 Zr 0.19006 0.21568 0.24020
 O836 O 0.16437 0.27467 0.31110
 O837 O 0.17858 0.30441 0.18075
 O838 O 0.14501 0.22854 0.20334
 O839 O 0.16846 0.16649 0.26814
 O840 O 0.14113 0.23496 0.26696
 C841 C 0.13756 0.25609 0.29470
 O842 O 0.23674 0.32851 0.33447
 O843 O 0.32418 0.19274 0.31722
 O844 O 0.22847 0.26268 0.35154
 O845 O 0.26431 0.20738 0.34415
 O846 O 0.35907 0.26760 0.29285
 O847 O 0.31997 0.32528 0.30161
 C848 C 0.24700 0.23237 0.36381
 H849 H 0.33305 0.21209 0.25329
 H850 H 0.26052 0.33913 0.26374
 H851 H 0.19956 0.21193 0.30937
 H852 H 0.21103 0.23484 0.17711
 H853 H 0.35744 0.34058 0.23906
 H854 H 0.24327 0.36452 0.17658
 H855 H 0.18025 0.32850 0.16622
 H856 H 0.12269 0.21134 0.20891
 H857 H 0.38149 0.28459 0.28709
 H858 H 0.32232 0.16794 0.33069
 H859 H 0.25714 0.13794 0.32563
 H860 H 0.14040 0.16438 0.26257
 H861 H 0.34502 0.33896 0.29833
 H862 H 0.21338 0.33312 0.34938
 H863 H 0.28779 0.16782 0.14954
 H864 H 0.15991 0.15732 0.20424
 Zr865 Zr 0.72136 0.71454 0.29846
 O866 O 0.73807 0.67117 0.33551
 O867 O 0.66454 0.72415 0.31374
 O868 O 0.72685 0.73711 0.35225
 O869 O 0.70032 0.64977 0.22842
 O870 O 0.76084 0.79345 0.34435
 O871 O 0.69230 0.65988 0.28826
 O872 O 0.64213 0.77109 0.27551
 O873 O 0.71483 0.77513 0.29203
 O874 O 0.69317 0.72417 0.24956
 O875 O 0.77774 0.73788 0.29938
 O876 O 0.75580 0.68729 0.25913
 Zr877 Zr 0.77825 0.78375 0.20242
 Zr878 Zr 0.77119 0.79775 0.29012
 Zr879 Zr 0.72836 0.70031 0.21054
 Zr880 Zr 0.68867 0.78405 0.24224
 O881 O 0.75822 0.65078 0.19107
 O882 O 0.67273 0.83657 0.26816
 O883 O 0.72164 0.76023 0.20080
 O884 O 0.74341 0.80990 0.24168
 O885 O 0.80682 0.77407 0.25109
 O886 O 0.78433 0.72321 0.20910
 C887 C 0.63851 0.74691 0.30122
 C888 C 0.68736 0.63969 0.25914
 C889 C 0.74411 0.76830 0.36420
 O890 O 0.74312 0.84921 0.30754
 O891 O 0.80308 0.84628 0.27340
 O892 O 0.80839 0.83796 0.21316
 C893 C 0.81498 0.85720 0.24261
 O894 O 0.81498 0.66667 0.29511
 Zr895 Zr 0.81051 0.71378 0.25851
 O896 O 0.83563 0.77432 0.18826
 O897 O 0.82455 0.80102 0.31812
 O898 O 0.85642 0.72587 0.29465
 O899 O 0.83084 0.66462 0.22975
 O900 O 0.85899 0.73265 0.23087
 C901 C 0.86246 0.75483 0.20378
 O902 O 0.76260 0.82798 0.16583
 O903 O 0.67460 0.69356 0.18365
 O904 O 0.77118 0.76228 0.14849
 O905 O 0.73415 0.70781 0.15591
 O906 O 0.64082 0.76804 0.20972
 O907 O 0.67981 0.82576 0.20109
 C908 C 0.75202 0.73238 0.13625
 H909 H 0.66726 0.71182 0.24800
 H910 H 0.74062 0.83825 0.23766
 H911 H 0.79962 0.71123 0.18959
 H912 H 0.79095 0.73226 0.32228
 H913 H 0.64443 0.84023 0.26470
 H914 H 0.76074 0.86209 0.32483
 H915 H 0.82393 0.82511 0.33269
 H916 H 0.87855 0.70866 0.28846
 H917 H 0.61853 0.78480 0.21642
 H918 H 0.67591 0.66895 0.16986
 H919 H 0.74085 0.63809 0.17347
 H920 H 0.85901 0.66209 0.23471
 H921 H 0.65479 0.83930 0.20504
 H922 H 0.78576 0.83281 0.15072
 H923 H 0.71503 0.66597 0.35067
 H924 H 0.84116 0.65487 0.29343
 Zr925 Zr 0.77939 0.28533 0.79750
 O926 O 0.76318 0.32856 0.83484
 O927 O 0.83664 0.27639 0.81173
 O928 O 0.77462 0.26305 0.85150
 O929 O 0.79810 0.35065 0.72726
 O930 O 0.74366 0.20476 0.84422
 O931 O 0.80743 0.34040 0.78692
 O932 O 0.85926 0.23043 0.77267
 O933 O 0.78729 0.22493 0.79072
 O934 O 0.80648 0.27661 0.74795
 O935 O 0.72366 0.26053 0.79960
 O936 O 0.74334 0.31210 0.75909
 Zr937 Zr 0.72171 0.21555 0.70252
 Zr938 Zr 0.73151 0.20083 0.79007
 Zr939 Zr 0.76978 0.30010 0.70981
 Zr940 Zr 0.81219 0.21692 0.74025
 O941 O 0.73834 0.34946 0.69215
 O942 O 0.83001 0.16442 0.76519
 O943 O 0.77766 0.24037 0.69970
 O944 O 0.75808 0.18975 0.74084
 O945 O 0.69434 0.22409 0.75192
 O946 O 0.71435 0.27587 0.70952
 C947 C 0.86284 0.25422 0.79866
 C948 C 0.81167 0.36072 0.75777
 C949 C 0.75919 0.23102 0.86372
 O950 O 0.76146 0.14991 0.80615
 O951 O 0.70009 0.15182 0.77351
 O952 O 0.69181 0.16152 0.71368
 C953 C 0.68674 0.14165 0.74299
 O954 O 0.68527 0.33120 0.79634
 Zr955 Zr 0.68931 0.28421 0.75960
 O956 O 0.66412 0.22490 0.68897
 O957 O 0.67930 0.19585 0.81962
 O958 O 0.64467 0.27180 0.79697
 O959 O 0.66651 0.33249 0.73110
 O960 O 0.64042 0.26340 0.73378
 C961 C 0.63704 0.24276 0.70571
 O962 O 0.73665 0.17107 0.66598
 O963 O 0.82234 0.30780 0.68122
 O964 O 0.72857 0.23641 0.64838
 O965 O 0.76170 0.29355 0.65519
 O966 O 0.85906 0.23416 0.70709
 O967 O 0.82054 0.17611 0.69830
 C968 C 0.74556 0.26746 0.63589
 H969 H 0.83214 0.28938 0.74594
 H970 H 0.76128 0.16150 0.73649
 H971 H 0.69836 0.28760 0.69034
 H972 H 0.71083 0.26568 0.82275
 H973 H 0.85826 0.16140 0.76093
 H974 H 0.74467 0.13629 0.82365
 H975 H 0.68126 0.17181 0.83419
 H976 H 0.62221 0.28880 0.79130
 H977 H 0.88166 0.21746 0.71302
 H978 H 0.81997 0.33229 0.66734
 H979 H 0.75479 0.36280 0.67421
 H980 H 0.63846 0.33415 0.73685
 H981 H 0.84576 0.16271 0.70160
 H982 H 0.71329 0.16625 0.65111
 H983 H 0.78649 0.33395 0.84961
 H984 H 0.65918 0.34320 0.79473
 C985 C 0.43725 1.02705 0.33675
 C986 C 0.45604 1.03464 0.30006
 C987 C 0.43217 1.00061 0.28437
 C988 C 0.41379 0.99309 0.32133
 C989 C 0.46583 0.97227 0.29384
 C990 C 0.48962 1.00634 0.31037
 C991 C 0.47032 0.99828 0.34688
 C992 C 0.44688 0.96460 0.33075
 H993 H 0.42463 1.05048 0.35356
 H994 H 0.45972 1.06394 0.28805
 H995 H 0.38316 0.98832 0.32901
 H996 H 0.47890 0.94987 0.27625
 H997 H 0.52101 1.01152 0.30565
 H998 H 0.44293 0.93535 0.34286
 C999 C -0.01093 0.48647 0.81004
 C1000 C -0.04809 0.46326 0.80045
 C1001 C -0.06718 0.50028 0.78424
 C1002 C -0.02984 0.52353 0.79316
 C1003 C -0.08410 0.51079 0.82112
 C1004 C -0.06568 0.47373 0.83705
 C1005 C -0.02879 0.49680 0.84656
 C1006 C -0.04709 0.53393 0.83017
 H1007 H 0.01926 0.47640 0.80527
 H1008 H -0.04687 0.43334 0.78953
 H1009 H -0.01485 0.54437 0.77521
 H1010 H -0.11363 0.52156 0.82748
 H1011 H -0.08083 0.45270 0.85475
 H1012 H -0.04664 0.56346 0.84221
 C1013 C 0.00934 0.01297 0.80973
 C1014 C 0.04646 0.03639 0.80039
 C1015 C 0.06589 -0.00050 0.78432
 C1016 C 0.02860 -0.02396 0.79296
 C1017 C 0.08254 -0.01095 0.82134
 C1018 C 0.06379 0.02598 0.83713
 C1019 C 0.02695 0.00269 0.84642
 C1020 C 0.04560 -0.03431 0.83010
 H1021 H -0.02086 0.02287 0.80471
 H1022 H 0.04521 0.06630 0.78942
 H1023 H 0.01389 -0.04488 0.77489
 H1024 H 0.11207 -0.02157 0.82796
 H1025 H 0.07870 0.04709 0.85492
 H1026 H 0.04524 -0.06387 0.84209
 C1027 C 0.50881 0.49344 0.31014
 C1028 C 0.53271 0.52756 0.29379
 C1029 C 0.56647 0.49927 0.28451
 C1030 C 0.54249 0.46521 0.30001
 C1031 C 0.58454 0.50674 0.32162
 C1032 C 0.55136 0.53519 0.33085
 C1033 C 0.52781 0.50147 0.34683
 C1034 C 0.56099 0.47273 0.33683
 H1035 H 0.47746 0.48826 0.30516
 H1036 H 0.51976 0.54997 0.27609
 H1037 H 0.53895 0.43591 0.28797
 H1038 H 0.61511 0.51151 0.32953
 H1039 H 0.55522 0.56443 0.34297
 H1040 H 0.57356 0.44925 0.35363
 C1041 C 0.50919 0.50586 0.18953
 C1042 C 0.53320 0.47192 0.20608
 C1043 C 0.56675 0.50041 0.21548
 C1044 C 0.54265 0.53431 0.19977
 C1045 C 0.58507 0.49293 0.17848
 C1046 C 0.55210 0.46429 0.16914
 C1047 C 0.52843 0.49783 0.15296
 C1048 C 0.56139 0.52677 0.16305
 H1049 H 0.47779 0.51089 0.19435
 H1050 H 0.52027 0.44948 0.22374
 H1051 H 0.53888 0.56361 0.21175
 H1052 H 0.61571 0.48833 0.17076
 H1053 H 0.55620 0.43503 0.15711
 H1054 H 0.57389 0.55025 0.14623
 C1055 C 0.06470 0.97362 0.66255
 C1056 C 0.08322 1.01058 0.67852
 C1057 C 0.06629 1.00009 0.71541
 C1058 C 0.04709 0.96316 0.69917
 C1059 C 0.02900 1.02348 0.70648
 C1060 C 0.04628 1.03386 0.66947
 C1061 C 0.02787 0.99683 0.65302
 C1062 C 0.00998 0.98651 0.68957
 H1063 H 0.07981 0.95255 0.64486
 H1064 H 0.11279 1.02126 0.67217
 H1065 H 0.04583 0.93325 0.71012
 H1066 H 0.01408 1.04437 0.72443
 H1067 H 0.04594 1.06342 0.65746
 H1068 H -0.02022 0.97654 0.69435
 C1069 C -0.04637 0.46552 0.66994
 C1070 C -0.02951 0.47586 0.70712
 C1071 C -0.06669 0.49963 0.71547
 C1072 C -0.08320 0.48921 0.67842
 C1073 C -0.04690 0.53633 0.69940
 C1074 C -0.00989 0.51259 0.69035
 C1075 C -0.02734 0.50232 0.65363
 C1076 C -0.06408 0.52593 0.66260
 H1077 H -0.04613 0.43592 0.65805
 H1078 H -0.01504 0.45488 0.72532
 H1079 H -0.11280 0.47886 0.67172
 H1080 H -0.04552 0.56627 0.71025
 H1081 H 0.02035 0.52227 0.69549
 H1082 H -0.07872 0.54709 0.64464
 C1083 C 0.44850 0.03492 0.16918
 C1084 C 0.41501 0.00680 0.17828
 C1085 C 0.43275 -0.00074 0.21550
 C1086 C 0.46680 0.02724 0.20638
 C1087 C 0.45657 -0.03506 0.20028
 C1088 C 0.43839 -0.02747 0.16333
 C1089 C 0.47189 0.00093 0.15349
 C1090 C 0.49055 -0.00714 0.19030
 H1091 H 0.44499 0.06415 0.15692
 H1092 H 0.38453 0.01184 0.17023
 H1093 H 0.47978 0.04960 0.22409
 H1094 H 0.45980 -0.06435 0.21241
 H1095 H 0.42573 -0.05089 0.14654
 H1096 H 0.52181 -0.01259 0.19549
 C1097 C 0.34484 0.37660 0.02770
 C1098 C 0.30344 0.39254 0.03511
 C1099 C 0.28794 0.37183 0.00097
 C1100 C 0.32945 0.35633 -0.00653
 C1101 C 0.29723 0.40894 -0.02091
 C1102 C 0.31288 0.42948 0.01314
 C1103 C 0.35395 0.41339 0.00609
 C1104 C 0.33872 0.39338 -0.02828
 H1105 H 0.36405 0.36298 0.04798
 H1106 H 0.29040 0.39495 0.06199
 H1107 H 0.33751 0.32672 -0.01572
 H1108 H 0.27817 0.42298 -0.04104
 H1109 H 0.30578 0.45964 0.02153
 H1110 H 0.35321 0.39342 -0.05475
 C1111 C -0.18667 0.93050 0.49414
 C1112 C -0.19252 0.89458 0.46961
 C1113 C -0.21205 0.87206 0.50062
 C1114 C -0.20640 0.90813 0.52513
 C1115 C -0.17146 0.85679 0.51242
 C1116 C -0.15217 0.87926 0.48151
 C1117 C -0.14675 0.91471 0.50634
 C1118 C -0.16603 0.89257 0.53715
 H1119 H -0.19315 0.96111 0.48673
 H1120 H -0.20232 0.89619 0.44146
 H1121 H -0.22844 0.92192 0.54261
 H1122 H -0.16177 0.82701 0.51925
 H1123 H -0.12977 0.86695 0.46343
 H1124 H -0.15555 0.89137 0.56514
 C1125 C -0.18741 0.07065 0.98674
 C1126 C -0.20310 0.09115 1.02079
 C1127 C -0.21208 0.12843 0.99901
 C1128 C -0.19654 0.10776 0.96486
 C1129 C -0.17051 0.14361 1.00675
 C1130 C -0.16154 0.10639 1.02842
 C1131 C -0.14627 0.08641 0.99406
 C1132 C -0.15508 0.12338 0.97254
 H1133 H -0.19467 0.04058 0.97820
 H1134 H -0.22231 0.07713 1.04078
 H1135 H -0.20948 0.10563 0.93791
 H1136 H -0.16236 0.17316 1.01605
 H1137 H -0.14718 0.10612 1.05496
 H1138 H -0.13576 0.13698 0.95238
 C1139 C 0.31316 0.57098 0.48676
 C1140 C 0.29741 0.59145 0.52080
 C1141 C 0.28824 0.62865 0.49897
 C1142 C 0.30384 0.60800 0.46484
 C1143 C 0.32974 0.64405 0.50666
 C1144 C 0.33890 0.60691 0.52836
 C1145 C 0.35424 0.58694 0.49400
 C1146 C 0.34523 0.62383 0.47245
 H1147 H 0.30604 0.54085 0.47827
 H1148 H 0.27828 0.57738 0.54083
 H1149 H 0.29089 0.60572 0.43790
 H1150 H 0.33777 0.67364 0.51592
 H1151 H 0.35329 0.60676 0.55489
 H1152 H 0.36447 0.63749 0.45225
 C1153 C 0.18718 0.57130 0.51423
 C1154 C 0.20301 0.59123 0.47995
 C1155 C 0.21218 0.62874 0.50128
 C1156 C 0.19650 0.60864 0.53567
 C1157 C 0.17071 0.64410 0.49333
 C1158 C 0.16157 0.60666 0.47211
 C1159 C 0.14613 0.58723 0.50671
 C1160 C 0.15513 0.62442 0.52778
 H1161 H 0.19425 0.54130 0.52314
 H1162 H 0.22215 0.57684 0.46013
 H1163 H 0.20940 0.60675 0.56265
 H1164 H 0.16274 0.67357 0.48367
 H1165 H 0.14726 0.60615 0.44556
 H1166 H 0.13582 0.63840 0.54775
 C1167 C 0.66106 0.10706 -0.02773
 C1168 C 0.67044 0.14442 -0.00649
 C1169 C 0.71186 0.12886 0.00133
 C1170 C 0.70246 0.09144 -0.02003
 C1171 C 0.69617 0.10877 0.03573
 C1172 C 0.65485 0.12476 0.02797
 C1173 C 0.64563 0.08764 0.00689
 C1174 C 0.68663 0.07151 0.01426
 H1175 H 0.64667 0.10668 -0.05426
 H1176 H 0.66257 0.17394 -0.01613
 H1177 H 0.72147 0.07701 -0.03993
 H1178 H 0.70912 0.10671 0.06268
 H1179 H 0.63567 0.13879 0.04802
 H1180 H 0.69360 0.04147 0.02312
 C1181 C 0.66503 0.89099 0.46175
 C1182 C 0.70518 0.90718 0.47367
 C1183 C 0.71126 0.87150 0.49860
 C1184 C 0.67090 0.85557 0.48688
 C1185 C 0.69138 0.89414 0.52931
 C1186 C 0.68512 0.92966 0.50438
 C1187 C 0.64541 0.91325 0.49228
 C1188 C 0.65126 0.87818 0.51752
 H1189 H 0.65460 0.88931 0.43376
 H1190 H 0.72707 0.92105 0.45607
 H1191 H 0.66164 0.82559 0.48039
 H1192 H 0.70112 0.89620 0.55745
 H1193 H 0.69120 0.96045 0.51145
 H1194 H 0.62899 0.86580 0.53569
 C1195 C 0.16112 0.39340 1.02747
 C1196 C 0.17049 0.35604 1.00623
 C1197 C 0.21189 0.37160 0.99840
 C1198 C 0.20249 0.40903 1.01975
 C1199 C 0.19619 0.39166 0.96400
 C1200 C 0.15488 0.37569 0.97177
 C1201 C 0.14565 0.41280 0.99287
 C1202 C 0.18663 0.42894 0.98546
 H1203 H 0.14675 0.39379 1.05399
 H1204 H 0.16262 0.32653 1.01584
 H1205 H 0.22153 0.42349 1.03962
 H1206 H 0.20921 0.39356 0.93707
 H1207 H 0.13573 0.36164 0.95172
 H1208 H 0.19356 0.45899 0.97660
 C1209 C -0.03016 0.34311 0.39852
 C1210 C 0.00608 0.32770 0.37921
 C1211 C -0.00218 0.28688 0.39460
 C1212 C -0.03851 0.30234 0.41410
 C1213 C 0.02313 0.29570 0.42757
 C1214 C 0.03151 0.33643 0.41194
 C1215 C -0.00460 0.35161 0.43080
 C1216 C -0.01306 0.31169 0.44700
 H1217 H -0.05219 0.36304 0.38687
 H1218 H 0.01398 0.33686 0.35185
 H1219 H -0.06776 0.28906 0.41583
 H1220 H 0.04482 0.27642 0.44046
 H1221 H 0.06022 0.35113 0.41141
 H1222 H -0.02096 0.30625 0.47529
 C1223 C 0.46060 -0.16668 -0.08696
 C1224 C 0.48595 -0.17350 -0.12020
 C1225 C 0.49805 -0.21344 -0.10501
 C1226 C 0.47266 -0.20678 -0.07166
 C1227 C 0.53327 -0.19495 -0.08599
 C1228 C 0.52124 -0.15520 -0.10147
 C1229 C 0.49595 -0.14877 -0.06876
 C1230 C 0.50788 -0.18789 -0.05280
 H1231 H 0.43081 -0.15431 -0.08679
 H1232 H 0.47667 -0.16546 -0.14751
 H1233 H 0.45293 -0.22790 -0.05855
 H1234 H 0.56370 -0.20503 -0.08388
 H1235 H 0.54118 -0.13333 -0.11335
 H1236 H 0.51672 -0.19283 -0.02467
 C1237 C -0.03046 -0.16497 1.08670
 C1238 C -0.02199 -0.20576 1.07129
 C1239 C 0.00307 -0.21446 1.10445
 C1240 C -0.00527 -0.17357 1.11962
 C1241 C 0.03954 -0.19913 1.08510
 C1242 C 0.01434 -0.18987 1.05199
 C1243 C 0.00578 -0.14988 1.06799
 C1244 C 0.03110 -0.15829 1.10046
 H1245 H -0.05919 -0.15026 1.08700
 H1246 H -0.04360 -0.22506 1.05833
 H1247 H -0.01337 -0.16428 1.14689
 H1248 H 0.06880 -0.21245 1.08360
 H1249 H 0.02244 -0.19544 1.02378
 H1250 H 0.05307 -0.13836 1.11216
 C1251 C 0.46902 0.33530 0.58770
 C1252 C 0.47748 0.29453 0.57221
 C1253 C 0.50265 0.28580 0.60530
 C1254 C 0.49431 0.32666 0.62054
 C1255 C 0.53905 0.30120 0.58589
 C1256 C 0.51375 0.31049 0.55285
 C1257 C 0.50519 0.35044 0.56893
 C1258 C 0.53062 0.34200 0.60132
 H1259 H 0.44028 0.34999 0.58808
 H1260 H 0.45588 0.27522 0.55927
 H1261 H 0.48632 0.33595 0.64783
 H1262 H 0.56832 0.28790 0.58429
 H1263 H 0.52177 0.30498 0.52461
 H1264 H 0.55260 0.36193 0.61300
 C1265 C 0.48706 1.18919 0.55231
 C1266 C 0.46145 1.19830 0.58516
 C1267 C 0.49765 1.21355 0.60498
 C1268 C 0.52314 1.20502 0.57207
 C1269 C 0.50584 1.17259 0.62010
 C1270 C 0.46972 1.15742 0.60050
 C1271 C 0.49546 1.14914 0.56830
 C1272 C 0.53145 1.16414 0.58743
 H1273 H 0.47932 1.19487 0.52403
 H1274 H 0.43219 1.21157 0.58334
 H1275 H 0.54488 1.22443 0.55944
 H1276 H 0.51355 1.16306 0.64740
 H1277 H 0.44760 1.13748 0.61194
 H1278 H 0.56017 1.14942 0.58800
 C1279 C 0.03161 0.66378 1.08662
 C1280 C 0.02347 0.70470 1.07126
 C1281 C -0.00200 0.71331 1.10417
 C1282 C 0.00605 0.67233 1.11929
 C1283 C -0.03826 0.69818 1.08434
 C1284 C -0.01267 0.68899 1.05150
 C1285 C -0.00445 0.64891 1.06749
 C1286 C -0.03014 0.65729 1.09970
 H1287 H 0.06027 0.64895 1.08718
 H1288 H 0.04529 0.72404 1.05867
 H1289 H 0.01378 0.66282 1.14659
 H1290 H -0.06748 0.71151 1.08246
 H1291 H -0.02040 0.69470 1.02322
 H1292 H -0.05233 0.63743 1.11114
 C1293 C 0.53930 0.66824 -0.08500
 C1294 C 0.51437 0.67424 -0.11865
 C1295 C 0.50172 0.71434 -0.10423
 C1296 C 0.52668 0.70846 -0.07045
 C1297 C 0.46639 0.69589 -0.08538
 C1298 C 0.47899 0.65599 -0.10009
 C1299 C 0.50389 0.65032 -0.06699
 C1300 C 0.49135 0.68957 -0.05175
 H1301 H 0.56921 0.65616 -0.08426
 H1302 H 0.52402 0.66566 -0.14569
 H1303 H 0.54608 0.72993 -0.05741
 H1304 H 0.43586 0.70581 -0.08386
 H1305 H 0.45940 0.63377 -0.11191
 H1306 H 0.48208 0.69487 -0.02379
 C1307 C -0.03078 1.16526 0.41314
 C1308 C -0.02246 1.20620 0.42829
 C1309 C 0.00283 1.21461 0.39522
 C1310 C -0.00539 1.17358 0.38032
 C1311 C 0.03917 1.19945 0.41493
 C1312 C 0.01376 1.19046 0.44795
 C1313 C 0.00534 1.15034 0.43218
 C1314 C 0.03087 1.15850 0.39980
 H1315 H -0.05950 1.15054 0.41277
 H1316 H -0.04418 1.22565 0.44090
 H1317 H -0.01328 1.16394 0.35311
 H1318 H 0.06842 1.21277 0.41653
 H1319 H 0.02166 1.19628 0.47617
 H1320 H 0.05295 1.13852 0.38836
 C1321 C 0.77700 0.68793 0.91339
 C1322 C 0.78464 0.70642 0.95020
 C1323 C 0.75053 0.68257 0.96568
 C1324 C 0.74295 0.66451 0.92859
 C1325 C 0.72250 0.71658 0.95642
 C1326 C 0.75666 0.74034 0.94009
 C1327 C 0.74853 0.72135 0.90343
 C1328 C 0.71476 0.69795 0.91937
 H1329 H 0.80032 0.67520 0.89657
 H1330 H 0.81388 0.70981 0.96225
 H1331 H 0.73802 0.63390 0.92067
 H1332 H 0.70023 0.72968 0.97412
 H1333 H 0.76201 0.77174 0.94504
 H1334 H 0.68557 0.69428 0.90721
 C1335 C 0.27656 0.18796 0.41330
 C1336 C 0.28421 0.20676 0.45000
 C1337 C 0.25034 0.18277 0.46576
 C1338 C 0.24276 0.16438 0.42878
 C1339 C 0.22202 0.21651 0.45635
 C1340 C 0.25593 0.24040 0.43974
 C1341 C 0.24778 0.22108 0.40321
 C1342 C 0.21428 0.19753 0.41944
 H1343 H 0.29989 0.17531 0.39645
 H1344 H 0.31346 0.21045 0.46195
 H1345 H 0.23807 0.13368 0.42105
 H1346 H 0.19974 0.22960 0.47403
 H1347 H 0.26106 0.27188 0.44449
 H1348 H 0.18507 0.19353 0.40742
 C1349 C 0.71703 0.29687 0.41907
 C1350 C 0.72700 0.27953 0.45618
 C1351 C 0.75029 0.31686 0.46527
 C1352 C 0.74022 0.33385 0.42828
 C1353 C 0.78725 0.29752 0.44935
 C1354 C 0.76400 0.26037 0.43957
 C1355 C 0.75412 0.27833 0.40292
 C1356 C 0.77722 0.31520 0.41263
 H1357 H 0.68766 0.29659 0.40683
 H1358 H 0.70598 0.26461 0.47397
 H1359 H 0.72965 0.36352 0.42184
 H1360 H 0.81698 0.29616 0.46055
 H1361 H 0.77387 0.23007 0.44446
 H1362 H 0.79843 0.33030 0.39511
 C1363 C 0.21672 0.79632 0.91907
 C1364 C 0.22675 0.77913 0.95622
 C1365 C 0.25013 0.81646 0.96510
 C1366 C 0.24001 0.83329 0.92807
 C1367 C 0.28702 0.79697 0.94919
 C1368 C 0.26367 0.75982 0.93961
 C1369 C 0.25372 0.77762 0.90291
 C1370 C 0.27693 0.81449 0.91243
 H1371 H 0.18731 0.79605 0.90691
 H1372 H 0.20573 0.76435 0.97412
 H1373 H 0.22952 0.86295 0.92151
 H1374 H 0.31677 0.79560 0.96033
 H1375 H 0.27347 0.72952 0.94461
 H1376 H 0.29812 0.82947 0.89480
 C1377 C 0.22330 0.81515 0.08670
 C1378 C 0.26032 0.83371 0.07100
 C1379 C 0.25019 0.81669 0.03405
 C1380 C 0.21322 0.79745 0.05002
 C1381 C 0.27345 0.77933 0.04319
 C1382 C 0.28346 0.79669 0.08026
 C1383 C 0.24637 0.77826 0.09645
 C1384 C 0.23644 0.76027 0.05984
 H1385 H 0.20212 0.83031 0.10421
 H1386 H 0.27093 0.86335 0.07741
 H1387 H 0.18349 0.79611 0.03885
 H1388 H 0.29444 0.76435 0.02541
 H1389 H 0.31283 0.79637 0.09250
 H1390 H 0.22654 0.72997 0.05502
 C1391 C 0.72338 0.31496 0.58681
 C1392 C 0.76039 0.33361 0.57123
 C1393 C 0.75034 0.31669 0.53422
 C1394 C 0.71337 0.29734 0.55010
 C1395 C 0.77364 0.27933 0.54329
 C1396 C 0.78357 0.29660 0.58042
 C1397 C 0.74648 0.27808 0.59652
 C1398 C 0.73663 0.26017 0.55986
 H1399 H 0.70215 0.33005 0.60433
 H1400 H 0.77099 0.36322 0.57775
 H1401 H 0.68365 0.29594 0.53891
 H1402 H 0.79468 0.26444 0.52549
 H1403 H 0.81293 0.29629 0.59269
 H1404 H 0.72678 0.22988 0.55496
 C1405 C 0.28510 0.19794 0.58113
 C1406 C 0.25667 0.16475 0.57187
 C1407 C 0.24917 0.18299 0.53480
 C1408 C 0.27744 0.21677 0.54413
 C1409 C 0.21524 0.20703 0.55039
 C1410 C 0.22281 0.18837 0.58716
 C1411 C 0.25153 0.22154 0.59721
 C1412 C 0.24346 0.24073 0.56058
 H1413 H 0.31429 0.19398 0.59323
 H1414 H 0.26139 0.13409 0.57973
 H1415 H 0.29974 0.22978 0.52643
 H1416 H 0.18602 0.21067 0.53837
 H1417 H 0.19942 0.17576 0.60397
 H1418 H 0.23831 0.27218 0.55569
 C1419 C 0.74329 0.74007 0.06034
 C1420 C 0.77736 0.71624 0.04392
 C1421 C 0.74921 0.68238 0.03458
 C1422 C 0.71519 0.70629 0.05015
 C1423 C 0.75676 0.66412 0.07162
 C1424 C 0.78507 0.69742 0.08091
 C1425 C 0.75138 0.72090 0.09694
 C1426 C 0.72280 0.68762 0.08692
 H1427 H 0.73803 0.77151 0.05548
 H1428 H 0.79967 0.72932 0.02626
 H1429 H 0.68596 0.70986 0.03813
 H1430 H 0.76161 0.63344 0.07938
 H1431 H 0.81425 0.69358 0.09304
 H1432 H 0.69946 0.67494 0.10375
 C1433 C 0.17873 0.56364 0.25534
 C1434 C 0.14300 0.55799 0.28002
 C1435 C 0.12032 0.53843 0.24913
 C1436 C 0.15621 0.54391 0.22447
 C1437 C 0.10519 0.57915 0.23731
 C1438 C 0.12784 0.59848 0.26810
 C1439 C 0.16311 0.60370 0.24313
 C1440 C 0.14080 0.58441 0.21244
 H1441 H 0.20927 0.55701 0.26264
 H1442 H 0.14469 0.54825 0.30819
 H1443 H 0.16985 0.52177 0.20695
 H1444 H 0.07547 0.58889 0.23057
 H1445 H 0.11575 0.62104 0.28618
 H1446 H 0.13952 0.59488 0.18443
 C1447 C 0.67896 0.06387 0.75561
 C1448 C 0.64319 0.05816 0.78022
 C1449 C 0.62064 0.03855 0.74929
 C1450 C 0.65657 0.04408 0.72471
 C1451 C 0.60543 0.07921 0.73742
 C1452 C 0.62795 0.09861 0.76826
 C1453 C 0.66326 0.10388 0.74336
 C1454 C 0.64109 0.08453 0.71262
 H1455 H 0.70950 0.05734 0.76298
 H1456 H 0.64484 0.04844 0.80839
 H1457 H 0.67027 0.02194 0.70723
 H1458 H 0.57571 0.08887 0.73059
 H1459 H 0.61577 0.12115 0.78629
 H1460 H 0.63986 0.09500 0.68461
 C1461 C 0.82180 0.06275 0.26280
 C1462 C 0.84224 0.04707 0.22874
 C1463 C 0.87935 0.03786 0.25055
 C1464 C 0.85873 0.05340 0.28471
 C1465 C 0.89465 0.07952 0.24295
 C1466 C 0.85760 0.08871 0.22126
 C1467 C 0.83767 0.10398 0.25565
 C1468 C 0.87447 0.09494 0.27719
 H1469 H 0.79176 0.05555 0.27128
 H1470 H 0.82823 0.02793 0.20867
 H1471 H 0.85649 0.04035 0.31162
 H1472 H 0.92415 0.08763 0.23367
 H1473 H 0.85743 0.10322 0.19477
 H1474 H 0.88807 0.11418 0.29743
 C1475 C 0.37393 0.59497 0.77702
 C1476 C 0.35830 0.55347 0.78489
 C1477 C 0.37877 0.53772 0.75075
 C1478 C 0.39399 0.57932 0.74281
 C1479 C 0.34156 0.54668 0.72902
 C1480 C 0.32125 0.56258 0.76307
 C1481 C 0.33703 0.60375 0.75555
 C1482 C 0.35683 0.58827 0.72120
 H1483 H 0.38757 0.61448 0.79705
 H1484 H 0.35626 0.54060 0.81189
 H1485 H 0.42346 0.58741 0.73344
 H1486 H 0.32750 0.52735 0.70913
 H1487 H 0.29126 0.55542 0.77169
 H1488 H 0.35651 0.60256 0.69461
 C1489 C 0.35715 0.41096 0.77822
 C1490 C 0.39437 0.41999 0.75676
 C1491 C 0.37900 0.46151 0.74868
 C1492 C 0.34172 0.45246 0.77024
 C1493 C 0.35878 0.44561 0.71447
 C1494 C 0.37454 0.40417 0.72250
 C1495 C 0.33757 0.39529 0.74382
 C1496 C 0.32165 0.43640 0.73613
 H1497 H 0.35678 0.39676 0.80485
 H1498 H 0.42385 0.41206 0.76626
 H1499 H 0.32746 0.47177 0.79002
 H1500 H 0.35691 0.45846 0.68744
 H1501 H 0.38838 0.38474 0.70255
 H1502 H 0.29167 0.44344 0.72734
 C1503 C 0.82218 0.93652 0.23545
 C1504 C 0.84220 0.95234 0.26968
 C1505 C 0.87952 0.96160 0.24823
 C1506 C 0.85933 0.94591 0.21389
 C1507 C 0.89489 0.92001 0.25606
 C1508 C 0.85764 0.91079 0.27740
 C1509 C 0.83811 0.89534 0.24285
 C1510 C 0.87512 0.90442 0.22166
 H1511 H 0.79222 0.94362 0.22666
 H1512 H 0.82792 0.97149 0.28958
 H1513 H 0.85736 0.95891 0.18694
 H1514 H 0.92432 0.91201 0.26563
 H1515 H 0.85727 0.89640 0.30394
 H1516 H 0.88901 0.88517 0.20160
 C1517 C 0.67866 0.93615 0.74564
 C1518 C 0.64305 0.94195 0.72083
 C1519 C 0.62044 0.96180 0.75157
 C1520 C 0.65620 0.95617 0.77637
 C1521 C 0.60498 0.92126 0.76351
 C1522 C 0.62757 0.90164 0.73285
 C1523 C 0.66274 0.89625 0.75795
 C1524 C 0.64049 0.91583 0.78851
 H1525 H 0.70927 0.94251 0.73841
 H1526 H 0.64488 0.95157 0.69264
 H1527 H 0.66991 0.97829 0.79387
 H1528 H 0.57517 0.91179 0.77019
 H1529 H 0.61536 0.87910 0.71483
 H1530 H 0.63908 0.90549 0.81655
 C1531 C 0.12729 0.40156 0.23227
 C1532 C 0.10465 0.42103 0.26301
 C1533 C 0.12006 0.46165 0.25123
 C1534 C 0.14271 0.44196 0.22042
 C1535 C 0.15583 0.45594 0.27602
 C1536 C 0.14017 0.41552 0.28799
 C1537 C 0.16246 0.39611 0.25736
 C1538 C 0.17832 0.43609 0.24521
 H1539 H 0.11512 0.37909 0.21415
 H1540 H 0.07485 0.41151 0.26966
 H1541 H 0.14455 0.45169 0.19226
 H1542 H 0.16953 0.47798 0.29359
 H1543 H 0.13875 0.40504 0.31598
 H1544 H 0.20892 0.44254 0.23801
 C1545 C 0.09204 0.21894 0.85043
 C1546 C 0.07650 0.25513 0.86979
 C1547 C 0.03593 0.24693 0.85404
 C1548 C 0.05153 0.21064 0.83448
 C1549 C 0.04500 0.27250 0.82127
 C1550 C 0.08546 0.28085 0.83727
 C1551 C 0.10082 0.24480 0.81837
 C1552 C 0.06118 0.23636 0.80178
 H1553 H 0.11181 0.19679 0.86212
 H1554 H 0.08555 0.26283 0.89722
 H1555 H 0.03826 0.18133 0.83255
 H1556 H 0.02587 0.29429 0.80830
 H1557 H 0.10008 0.30965 0.83807
 H1558 H 0.05605 0.22861 0.77340
 C1559 C 0.59259 0.71989 0.35048
 C1560 C 0.57679 0.75602 0.36978
 C1561 C 0.53630 0.74754 0.35396
 C1562 C 0.55218 0.71134 0.33446
 C1563 C 0.54531 0.77315 0.32119
 C1564 C 0.58569 0.78175 0.33726
 C1565 C 0.60132 0.74578 0.31842
 C1566 C 0.56176 0.73708 0.30176
 H1567 H 0.61245 0.69788 0.36227
 H1568 H 0.58571 0.76379 0.39723
 H1569 H 0.53909 0.68196 0.33248
 H1570 H 0.52604 0.79478 0.30818
 H1571 H 0.60015 0.81064 0.33807
 H1572 H 0.55674 0.72929 0.27338
 C1573 C 0.59445 0.22939 0.15111
 C1574 C 0.55471 0.21732 0.16632
 C1575 C 0.53638 0.25253 0.14703
 C1576 C 0.57630 0.26464 0.13210
 C1577 C 0.54269 0.27813 0.18034
 C1578 C 0.56145 0.24292 0.19949
 C1579 C 0.60055 0.25490 0.18379
 C1580 C 0.58277 0.29021 0.16530
 H1581 H 0.61638 0.20935 0.13946
 H1582 H 0.54467 0.18681 0.16837
 H1583 H 0.58453 0.27376 0.10480
 H1584 H 0.52150 0.29800 0.19317
 H1585 H 0.55632 0.23418 0.22763
 H1586 H 0.59502 0.32012 0.16548
 C1587 C 0.08251 0.79086 0.66489
 C1588 C 0.07603 0.76529 0.63169
 C1589 C 0.03615 0.75309 0.64666
 C1590 C 0.04246 0.77872 0.67996
 C1591 C 0.05458 0.71793 0.66594
 C1592 C 0.09426 0.73006 0.65067
 C1593 C 0.10036 0.75557 0.68335
 C1594 C 0.06130 0.74353 0.69909
 H1595 H 0.09474 0.82077 0.66503
 H1596 H 0.08416 0.77449 0.60439
 H1597 H 0.02123 0.79853 0.69282
 H1598 H 0.04463 0.68739 0.66808
 H1599 H 0.11620 0.71006 0.63899
 H1600 H 0.05622 0.73479 0.72723
 C1601 C 0.93914 0.76003 0.69906
 C1602 C 0.95808 0.72441 0.68073
 C1603 C 0.96423 0.74914 0.64682
 C1604 C 0.94573 0.78476 0.66531
 C1605 C 0.92434 0.73644 0.63220
 C1606 C 0.91805 0.71174 0.66597
 C1607 C 0.90009 0.74746 0.68360
 C1608 C 0.90604 0.77211 0.65037
 H1609 H 0.94423 0.76954 0.72698
 H1610 H 0.97937 0.70498 0.69401
 H1611 H 0.95560 0.81537 0.66678
 H1612 H 0.91604 0.72646 0.60518
 H1613 H 0.90592 0.68181 0.66682
 H1614 H 0.88401 0.79172 0.63826
 C1615 C 0.40621 0.27212 0.15095
 C1616 C 0.44598 0.28478 0.16575
 C1617 C 0.46438 0.24912 0.14726
 C1618 C 0.42443 0.23644 0.13276
 C1619 C 0.45832 0.22444 0.18121
 C1620 C 0.43947 0.26009 0.19956
 C1621 C 0.40036 0.24750 0.18424
 C1622 C 0.41826 0.21177 0.16657
 H1623 H 0.38414 0.29173 0.13889
 H1624 H 0.45593 0.31538 0.16704
 H1625 H 0.41597 0.22651 0.10576
 H1626 H 0.47962 0.20500 0.19446
 H1627 H 0.44465 0.26964 0.22746
 H1628 H 0.40615 0.18182 0.16750
 C1629 C 0.44004 0.76323 0.30032
 C1630 C 0.44898 0.78862 0.33340
 C1631 C 0.46416 0.75216 0.35303
 C1632 C 0.45584 0.72689 0.31990
 C1633 C 0.42326 0.74379 0.36790
 C1634 C 0.40816 0.78018 0.34852
 C1635 C 0.40003 0.75466 0.31608
 C1636 C 0.41501 0.71841 0.33502
 H1637 H 0.44582 0.77124 0.27211
 H1638 H 0.46220 0.81798 0.33186
 H1639 H 0.47536 0.70523 0.30727
 H1640 H 0.41360 0.73580 0.39508
 H1641 H 0.38823 0.80226 0.36006
 H1642 H 0.40039 0.68959 0.33533
 C1643 C 0.90811 0.28052 0.84851
 C1644 C 0.92293 0.24407 0.86794
 C1645 C 0.96391 0.25217 0.85313
 C1646 C 0.94900 0.28870 0.83345
 C1647 C 0.95551 0.22691 0.82001
 C1648 C 0.91462 0.21870 0.83508
 C1649 C 0.89991 0.25501 0.81608
 C1650 C 0.93999 0.26332 0.80037
 H1651 H 0.88828 0.30274 0.85997
 H1652 H 0.91316 0.23616 0.89511
 H1653 H 0.96239 0.31798 0.83193
 H1654 H 0.97489 0.20510 0.80742
 H1655 H 0.89983 0.18997 0.83539
 H1656 H 0.94585 0.27127 0.77217
 C1657 C 0.56265 0.97584 0.66271
 C1658 C 0.58633 1.00913 0.67897
 C1659 C 0.56789 1.00059 0.71572
 C1660 C 0.54382 0.96721 0.69916
 C1661 C 0.53438 1.02940 0.70695
 C1662 C 0.55345 1.03816 0.67028
 C1663 C 0.52980 1.00521 0.65328
 C1664 C 0.51043 0.99600 0.68953
 H1665 H 0.57521 0.95285 0.64538
 H1666 H 0.61700 1.01363 0.67133
 H1667 H 0.53999 0.93756 0.71038
 H1668 H 0.52116 1.05114 0.72514
 H1669 H 0.55758 1.06777 0.65898
 H1670 H 0.47899 0.99093 0.69410
 C1671 C 0.00992 0.49627 1.18937
 C1672 C 0.04320 0.46735 1.19900
 C1673 C 0.06742 0.50061 1.21557
 C1674 C 0.03401 0.52956 1.20681
 C1675 C 0.08587 0.50910 1.17882
 C1676 C 0.06205 0.47592 1.16256
 C1677 C 0.02932 0.50544 1.15310
 C1678 C 0.05311 0.53827 1.17013
 H1679 H -0.02153 0.49134 1.19395
 H1680 H 0.03925 0.43771 1.21020
 H1681 H 0.02087 0.55134 1.22502
 H1682 H 0.11655 0.51349 1.17115
 H1683 H 0.07455 0.45287 1.14526
 H1684 H 0.05737 0.56787 1.15887
 C1685 C -0.06491 -0.03008 1.16350
 C1686 C -0.04733 -0.03873 1.20053
 C1687 C -0.06688 -0.00120 1.21529
 C1688 C -0.08369 0.00751 1.17798
 C1689 C -0.02969 0.02195 1.20567
 C1690 C -0.01035 -0.01560 1.19020
 C1691 C -0.02822 -0.00718 1.15324
 C1692 C -0.04685 0.03053 1.16826
 H1693 H -0.07979 -0.05204 1.14659
 H1694 H -0.04551 -0.06815 1.21246
 H1695 H -0.11327 0.01793 1.17123
 H1696 H -0.01495 0.04372 1.22285
 H1697 H 0.01988 -0.02524 1.19545
 H1698 H -0.04663 0.05954 1.15516
 C1699 C 0.43456 0.47003 0.66366
 C1700 C 0.45205 0.46122 0.70071
 C1701 C 0.43245 0.49868 0.71554
 C1702 C 0.41570 0.50753 0.67824
 C1703 C 0.46964 0.52190 0.70608
 C1704 C 0.48904 0.48443 0.69054
 C1705 C 0.47126 0.49302 0.65359
 C1706 C 0.45254 0.53064 0.66868
 H1707 H 0.41976 0.44813 0.64661
 H1708 H 0.45375 0.43177 0.71258
 H1709 H 0.38609 0.51786 0.67148
 H1710 H 0.48433 0.54361 0.72337
 H1711 H 0.51927 0.47480 0.69582
 H1712 H 0.45277 0.55970 0.65569
 C1713 C 0.45214 0.46920 -0.16869
 C1714 C 0.41524 0.49207 -0.17858
 C1715 C 0.43221 0.50086 -0.21580
 C1716 C 0.46947 0.47786 -0.20601
 C1717 C 0.45149 0.53847 -0.20096
 C1718 C 0.43377 0.52974 -0.16401
 C1719 C 0.47051 0.50699 -0.15362
 C1720 C 0.48853 0.51549 -0.19047
 H1721 H 0.45246 0.44021 -0.15557
 H1722 H 0.38567 0.48156 -0.17199
 H1723 H 0.48439 0.45616 -0.22313
 H1724 H 0.45319 0.56789 -0.21290
 H1725 H 0.41873 0.55164 -0.14714
 H1726 H 0.51874 0.52526 -0.19556
 C1727 C -0.01100 1.01552 0.30956
 C1728 C -0.03005 0.97786 0.29404
 C1729 C -0.06725 1.00087 0.28404
 C1730 C -0.04797 1.03850 0.29888
 C1731 C -0.08436 0.99220 0.32125
 C1732 C -0.04750 0.96934 0.33134
 C1733 C -0.02916 1.00717 0.34639
 C1734 C -0.06585 1.02990 0.33579
 H1735 H 0.01923 1.02525 0.30452
 H1736 H -0.01507 0.95609 0.27703
 H1737 H -0.04612 1.06790 0.28693
 H1738 H -0.11394 0.98167 0.32776
 H1739 H -0.04727 0.94039 0.34454
 H1740 H -0.08097 1.05186 0.35253
 C1741 C 0.05239 0.46244 0.32989
 C1742 C 0.03354 0.47119 0.29309
 C1743 C 0.06719 0.49988 0.28445
 C1744 C 0.08539 0.49134 0.32131
 C1745 C 0.04310 0.53335 0.30083
 C1746 C 0.00958 0.50470 0.31036
 C1747 C 0.02872 0.49549 0.34675
 C1748 C 0.06171 0.52474 0.33737
 H1749 H 0.05640 0.43283 0.34124
 H1750 H 0.02039 0.44946 0.27485
 H1751 H 0.11600 0.48672 0.32912
 H1752 H 0.03940 0.56301 0.28957
 H1753 H -0.02182 0.50986 0.30560
 H1754 H 0.07430 0.54777 0.35465
 C1755 C 0.55249 -0.03722 -0.17004
 C1756 C 0.53376 -0.02848 -0.20688
 C1757 C 0.56750 0.00010 -0.21548
 C1758 C 0.58559 -0.00842 -0.17858
 C1759 C 0.54346 0.03367 -0.19921
 C1760 C 0.50985 0.00512 -0.18973
 C1761 C 0.52890 -0.00406 -0.15330
 C1762 C 0.56197 0.02508 -0.16262
 H1763 H 0.55639 -0.06681 -0.15863
 H1764 H 0.52062 -0.05021 -0.22513
 H1765 H 0.61617 -0.01310 -0.17070
 H1766 H 0.53986 0.06332 -0.21052
 H1767 H 0.47847 0.01036 -0.19454
 H1768 H 0.57458 0.04809 -0.14534
 C1769 C 0.68731 0.57071 0.00423
 C1770 C 0.70724 0.59333 -0.02646
 C1771 C 0.71186 0.62945 -0.00184
 C1772 C 0.69207 0.60668 0.02883
 C1773 C 0.67144 0.64426 -0.01438
 C1774 C 0.66694 0.60836 -0.03914
 C1775 C 0.64749 0.58591 -0.00860
 C1776 C 0.65184 0.62151 0.01623
 H1777 H 0.69407 0.54018 0.01175
 H1778 H 0.72965 0.57985 -0.04374
 H1779 H 0.70115 0.60520 0.05718
 H1780 H 0.66207 0.67408 -0.02149
 H1781 H 0.65695 0.60930 -0.06730
 H1782 H 0.62888 0.63345 0.03393
 C1783 C 0.16715 1.10815 0.46137
 C1784 C 0.17142 1.14422 0.48597
 C1785 C 0.21190 1.12971 0.49863
 C1786 C 0.20750 1.09341 0.47418
 C1787 C 0.19217 1.10700 0.52938
 C1788 C 0.15188 1.12153 0.51665
 C1789 C 0.14776 1.08577 0.49198
 C1790 C 0.18763 1.07085 0.50495
 H1791 H 0.15723 1.10888 0.43319
 H1792 H 0.16186 1.17394 0.47872
 H1793 H 0.22999 1.07993 0.45700
 H1794 H 0.20116 1.10572 0.55776
 H1795 H 0.12883 1.13344 0.53426
 H1796 H 0.19455 1.04041 0.51262
 C1797 C 0.16213 -0.10690 0.97248
 C1798 C 0.20403 -0.09236 0.97940
 C1799 C 0.21261 -0.12965 1.00129
 C1800 C 0.17068 -0.14412 0.99429
 C1801 C 0.19817 -0.10845 1.03554
 C1802 C 0.18947 -0.07129 1.01354
 C1803 C 0.14796 -0.08623 1.00688
 C1804 C 0.15628 -0.12324 1.02856
 H1805 H 0.14735 -0.10652 0.94615
 H1806 H 0.22302 -0.07880 0.95898
 H1807 H 0.16190 -0.17365 0.98546
 H1808 H 0.21163 -0.10675 1.06231
 H1809 H 0.19749 -0.04130 1.02173
 H1810 H 0.13695 -0.13620 1.04909
 C1811 C 0.66204 0.39324 0.47323
 C1812 C 0.70392 0.40783 0.48009
 C1813 C 0.71265 0.37046 0.50179
 C1814 C 0.67074 0.35594 0.49485
 C1815 C 0.69828 0.39145 0.53617
 C1816 C 0.68944 0.42870 0.51435
 C1817 C 0.64794 0.41370 0.50777
 C1818 C 0.65639 0.37660 0.52925
 H1819 H 0.64718 0.39371 0.44693
 H1820 H 0.72281 0.42153 0.45966
 H1821 H 0.66198 0.32644 0.48587
 H1822 H 0.71179 0.39312 0.56291
 H1823 H 0.69742 0.45866 0.52266
 H1824 H 0.63717 0.36351 0.54978
 C1825 C -0.18878 0.42872 0.48566
 C1826 C -0.19745 0.39154 0.46371
 C1827 C -0.21204 0.37044 0.49797
 C1828 C -0.20349 0.40775 0.51980
 C1829 C -0.17017 0.35589 0.50513
 C1830 C -0.15560 0.37667 0.47087
 C1831 C -0.14732 0.41370 0.49250
 C1832 C -0.16166 0.39312 0.52688
 H1833 H -0.19672 0.45871 0.47737
 H1834 H -0.21084 0.39321 0.43691
 H1835 H -0.22250 0.42142 0.54013
 H1836 H -0.16146 0.32634 0.51405
 H1837 H -0.13620 0.36365 0.45043
 H1838 H -0.14700 0.39350 0.55328
 C1839 C 0.33840 -0.10722 0.02634
 C1840 C 0.29661 -0.09249 0.01919
 C1841 C 0.28795 -0.12988 -0.00248
 C1842 C 0.32977 -0.14453 0.00474
 C1843 C 0.30261 -0.10900 -0.03682
 C1844 C 0.31140 -0.07174 -0.01502
 C1845 C 0.35282 -0.08685 -0.00813
 C1846 C 0.34442 -0.12396 -0.02961
 H1847 H 0.35304 -0.10678 0.05274
 H1848 H 0.27763 -0.07868 0.03948
 H1849 H 0.33839 -0.17406 0.01377
 H1850 H 0.28921 -0.10743 -0.06362
 H1851 H 0.30355 -0.04176 -0.02344
 H1852 H 0.36375 -0.13715 -0.05000
 C1853 C 0.34777 1.12159 0.48430
 C1854 C 0.30751 1.10698 0.47162
 C1855 C 0.28774 1.12978 0.50229
 C1856 C 0.32820 1.14437 0.51490
 C1857 C 0.29220 1.09357 0.52687
 C1858 C 0.31210 1.07093 0.49619
 C1859 C 0.35195 1.08591 0.50910
 C1860 C 0.33254 1.10838 0.53963
 H1861 H 0.37079 1.13347 0.46665
 H1862 H 0.29851 1.10560 0.44325
 H1863 H 0.33770 1.17413 0.52203
 H1864 H 0.26973 1.08013 0.54411
 H1865 H 0.30521 1.04046 0.48863
 H1866 H 0.34246 1.10922 0.56781
 C1867 C -0.16738 0.60771 1.03896
 C1868 C -0.17180 0.64383 1.01441
 C1869 C -0.21229 0.62928 1.00184
 C1870 C -0.20775 0.59296 1.02625
 C1871 C -0.19261 0.60666 0.97102
 C1872 C -0.15232 0.62124 0.98364
 C1873 C -0.14805 0.58543 1.00825
 C1874 C -0.18794 0.57048 0.99540
 H1875 H -0.15735 0.60839 1.06710
 H1876 H -0.16234 0.67356 1.02170
 H1877 H -0.23019 0.57947 1.04350
 H1878 H -0.20171 0.60541 0.94267
 H1879 H -0.12936 0.63322 0.96598
 H1880 H -0.19482 0.54005 0.98771
 C1881 C -0.02993 0.66431 0.58294
 C1882 C -0.00518 0.67371 0.61590
 C1883 C 0.00271 0.71446 0.60027
 C1884 C -0.02203 0.70501 0.56711
 C1885 C 0.03951 0.69933 0.58124
 C1886 C 0.03161 0.65866 0.59718
 C1887 C 0.00678 0.64947 0.56468
 C1888 C 0.01465 0.68932 0.54816
 H1889 H -0.05841 0.64915 0.58325
 H1890 H -0.01377 0.66491 0.64319
 H1891 H -0.04396 0.72385 0.55400
 H1892 H 0.06865 0.71277 0.57918
 H1893 H 0.05385 0.63924 0.60920
 H1894 H 0.02293 0.69458 0.51994
 C1895 C 0.51408 0.18893 0.04853
 C1896 C 0.47759 0.20491 0.06760
 C1897 C 0.50252 0.21412 0.10070
 C1898 C 0.53913 0.19872 0.08155
 C1899 C 0.49434 0.17343 0.11632
 C1900 C 0.46939 0.16426 0.08343
 C1901 C 0.50589 0.14914 0.06503
 C1902 C 0.53093 0.15810 0.09748
 H1903 H 0.52228 0.19415 0.02029
 H1904 H 0.45578 0.22392 0.05453
 H1905 H 0.56837 0.21195 0.07952
 H1906 H 0.48586 0.16469 0.14365
 H1907 H 0.44079 0.14933 0.08380
 H1908 H 0.55305 0.13850 0.10944
 C1909 C -0.04233 0.16808 0.91836
 C1910 C -0.02915 0.20793 0.93337
 C1911 C -0.00309 0.21333 0.90022
 C1912 C -0.01622 0.17358 0.88537
 C1913 C 0.03126 0.19406 0.91984
 C1914 C 0.00522 0.18824 0.95287
 C1915 C -0.00800 0.14936 0.93730
 C1916 C 0.01810 0.15451 0.90481
 H1917 H -0.07251 0.15672 0.91830
 H1918 H -0.04835 0.22978 0.94613
 H1919 H -0.02483 0.16502 0.85804
 H1920 H 0.06197 0.20337 0.92162
 H1921 H 0.01373 0.19333 0.98106
 H1922 H 0.03750 0.13184 0.89343
 C1923 C 0.45867 0.66797 0.41823
 C1924 C 0.47154 0.70791 0.43329
 C1925 C 0.49754 0.71356 0.40014
 C1926 C 0.48473 0.67373 0.38525
 C1927 C 0.53205 0.69452 0.41973
 C1928 C 0.50606 0.68844 0.45276
 C1929 C 0.49315 0.64946 0.43714
 C1930 C 0.51920 0.65488 0.40465
 H1931 H 0.42857 0.65639 0.41815
 H1932 H 0.45219 0.72961 0.44606
 H1933 H 0.47616 0.66516 0.35791
 H1934 H 0.56268 0.70408 0.42156
 H1935 H 0.51454 0.69354 0.48096
 H1936 H 0.53877 0.63238 0.39323
 C1937 C 0.47996 0.84451 0.40444
 C1938 C 0.51489 0.82562 0.38586
 C1939 C 0.50155 0.78577 0.40037
 C1940 C 0.46657 0.80488 0.41916
 C1941 C 0.52663 0.79125 0.43415
 C1942 C 0.54006 0.83116 0.41946
 C1943 C 0.50514 0.84976 0.43752
 C1944 C 0.49166 0.81082 0.45281
 H1945 H 0.46079 0.86712 0.39259
 H1946 H 0.52424 0.83443 0.35880
 H1947 H 0.43588 0.79539 0.42025
 H1948 H 0.54557 0.76946 0.44735
 H1949 H 0.57020 0.84263 0.42017
 H1950 H 0.48238 0.80570 0.48079
 C1951 C 0.04041 0.33049 0.91953
 C1952 C 0.02674 0.29065 0.93420
 C1953 C 0.00155 0.28542 0.90045
 C1954 C 0.01514 0.32519 0.88597
 C1955 C -0.03326 0.30472 0.91933
 C1956 C -0.00806 0.31041 0.95294
 C1957 C 0.00566 0.34928 0.93769
 C1958 C -0.01963 0.34428 0.90465
 H1959 H 0.07061 0.34177 0.92016
 H1960 H 0.04556 0.26873 0.94735
 H1961 H 0.02448 0.33398 0.85891
 H1962 H -0.06402 0.29546 0.92042
 H1963 H -0.01731 0.30532 0.98094
 H1964 H -0.03867 0.36703 0.89287
 C1965 C 0.53057 0.33573 0.08119
 C1966 C 0.50597 0.32721 0.11443
 C1967 C 0.49788 0.28612 0.09975
 C1968 C 0.52249 0.29465 0.06629
 C1969 C 0.46104 0.30085 0.08048
 C1970 C 0.46914 0.34184 0.09552
 C1971 C 0.49382 0.35022 0.06271
 C1972 C 0.48575 0.30999 0.04710
 H1973 H 0.55911 0.35081 0.08106
 H1974 H 0.51465 0.33669 0.14150
 H1975 H 0.54431 0.27538 0.05359
 H1976 H 0.43184 0.28748 0.07891
 H1977 H 0.44695 0.36150 0.10727
 H1978 H 0.47734 0.30403 0.01903
 C1979 C -0.03182 0.84194 0.59536
 C1980 C -0.03960 0.80092 0.58022
 C1981 C -0.00258 0.78644 0.59939
 C1982 C 0.00519 0.82756 0.61415
 C1983 C 0.02188 0.79525 0.56591
 C1984 C -0.01503 0.81035 0.54682
 C1985 C -0.00731 0.85060 0.56254
 C1986 C 0.02963 0.83636 0.58089
 H1987 H -0.05414 0.86141 0.60716
 H1988 H -0.06870 0.78735 0.57853
 H1989 H 0.01393 0.83705 0.64120
 H1990 H 0.04383 0.77618 0.55315
 H1991 H -0.02347 0.80442 0.51875
 H1992 H 0.05803 0.85168 0.58075
 C1993 C 0.21937 0.29904 0.08173
 C1994 C 0.24220 0.33591 0.07155
 C1995 C 0.25098 0.31853 0.03447
 C1996 C 0.22800 0.28131 0.04455
 C1997 C 0.28847 0.29928 0.04952
 C1998 C 0.27976 0.31743 0.08631
 C1999 C 0.25706 0.28074 0.09696
 C2000 C 0.26552 0.26230 0.06027
 H2001 H 0.19046 0.29888 0.09486
 H2002 H 0.23168 0.36561 0.07791
 H2003 H 0.20637 0.26621 0.02751
 H2004 H 0.31784 0.29729 0.03769
 H2005 H 0.30160 0.33264 0.10310
 H2006 H 0.27524 0.23194 0.05546
 C2007 C 0.72602 0.81397 0.58760
 C2008 C 0.75906 0.83774 0.57110
 C2009 C 0.75038 0.81911 0.53445
 C2010 C 0.71725 0.79495 0.55125
 C2011 C 0.77925 0.78560 0.54319
 C2012 C 0.78816 0.80488 0.57976
 C2013 C 0.75546 0.78115 0.59700
 C2014 C 0.74610 0.76158 0.56085
 H2015 H 0.70316 0.82660 0.60500
 H2016 H 0.76347 0.86854 0.57863
 H2017 H 0.68762 0.79097 0.54019
 H2018 H 0.80084 0.77231 0.52492
 H2019 H 0.81774 0.80915 0.59090
 H2020 H 0.74110 0.73003 0.55640
 C2021 C 0.28078 0.70275 0.58119
 C2022 C 0.25790 0.66576 0.57148
 C2023 C 0.24919 0.68257 0.53415
 C2024 C 0.27220 0.71992 0.54377
 C2025 C 0.21171 0.70211 0.54890
 C2026 C 0.22036 0.68452 0.58594
 C2027 C 0.24312 0.72136 0.59620
 C2028 C 0.23470 0.73924 0.55922
 H2029 H 0.30971 0.70303 0.59429
 H2030 H 0.26835 0.63613 0.57825
 H2031 H 0.29388 0.73473 0.52658
 H2032 H 0.18237 0.70388 0.53695
 H2033 H 0.19848 0.66957 0.60286
 H2034 H 0.22502 0.76952 0.55395
 C2035 C 0.78075 0.20236 0.08137
 C2036 C 0.75774 0.16549 0.07154
 C2037 C 0.74912 0.18246 0.03424
 C2038 C 0.77227 0.21968 0.04398
 C2039 C 0.71171 0.20210 0.04902
 C2040 C 0.72025 0.18435 0.08602
 C2041 C 0.74314 0.22105 0.09638
 C2042 C 0.73484 0.23909 0.05945
 H2043 H 0.80966 0.20249 0.09450
 H2044 H 0.76809 0.13582 0.07825
 H2045 H 0.79403 0.23445 0.02684
 H2046 H 0.68239 0.20407 0.03707
 H2047 H 0.69829 0.16944 0.10289
 H2048 H 0.72528 0.26944 0.05427
 C2049 C 0.76604 0.23845 0.93990
 C2050 C 0.72842 0.21949 0.95544
 C2051 C 0.75123 0.18210 0.96543
 C2052 C 0.78883 0.20129 0.95057
 C2053 C 0.74250 0.16499 0.92822
 C2054 C 0.71984 0.20203 0.91814
 C2055 C 0.75762 0.22030 0.90306
 C2056 C 0.78016 0.18341 0.91364
 H2057 H 0.77587 0.26872 0.94495
 H2058 H 0.70677 0.23458 0.97247
 H2059 H 0.81816 0.20299 0.96254
 H2060 H 0.73190 0.13535 0.92175
 H2061 H 0.69094 0.20236 0.90497
 H2062 H 0.80200 0.16818 0.89689
 C2063 C 0.26586 0.73838 0.43969
 C2064 C 0.22832 0.71931 0.45528
 C2065 C 0.25129 0.68206 0.46536
 C2066 C 0.28881 0.70136 0.45045
 C2067 C 0.24264 0.66479 0.42819
 C2068 C 0.21981 0.70169 0.41802
 C2069 C 0.25752 0.72007 0.40291
 C2070 C 0.28022 0.68333 0.41357
 H2071 H 0.27555 0.76872 0.44464
 H2072 H 0.20661 0.73436 0.47227
 H2073 H 0.31813 0.70326 0.46241
 H2074 H 0.23217 0.63509 0.42177
 H2075 H 0.19093 0.70186 0.40484
 H2076 H 0.30213 0.66815 0.39685
 C2077 C 0.71227 0.80326 0.42033
 C2078 C 0.72128 0.78457 0.45716
 C2079 C 0.74965 0.81855 0.46561
 C2080 C 0.74087 0.83660 0.42872
 C2081 C 0.78318 0.79462 0.44922
 C2082 C 0.75484 0.76075 0.43989
 C2083 C 0.74538 0.77976 0.40348
 C2084 C 0.77432 0.81308 0.41264
 H2085 H 0.68268 0.80700 0.40904
 H2086 H 0.69980 0.77126 0.47553
 H2087 H 0.73605 0.86723 0.42080
 H2088 H 0.81282 0.79116 0.46040
 H2089 H 0.76025 0.72933 0.44471
 H2090 H 0.79712 0.82583 0.39526
 C2091 C 0.28115 0.29757 0.91901
 C2092 C 0.25806 0.33453 0.92844
 C2093 C 0.24918 0.31783 0.96577
 C2094 C 0.27240 0.28052 0.95643
 C2095 C 0.21187 0.29813 0.95089
 C2096 C 0.22069 0.31558 0.91383
 C2097 C 0.24366 0.27878 0.90388
 C2098 C 0.23506 0.26103 0.94085
 H2099 H 0.31015 0.29731 0.90607
 H2100 H 0.26839 0.36418 0.92164
 H2101 H 0.29402 0.26584 0.97380
 H2102 H 0.18246 0.29633 0.96265
 H2103 H 0.19886 0.33039 0.89672
 H2104 H 0.22548 0.23073 0.94616
 C2105 C 0.87246 0.40639 0.77930
 C2106 C 0.89359 0.42045 0.74505
 C2107 C 0.87928 0.46261 0.75165
 C2108 C 0.85784 0.44852 0.78588
 C2109 C 0.84223 0.45402 0.72960
 C2110 C 0.85660 0.41190 0.72308
 C2111 C 0.83568 0.39808 0.75744
 C2112 C 0.82090 0.43982 0.76370
 H2113 H 0.88514 0.38710 0.80004
 H2114 H 0.92306 0.41140 0.73644
 H2115 H 0.85609 0.46227 0.81253
 H2116 H 0.82893 0.47296 0.70895
 H2117 H 0.85636 0.39687 0.69685
 H2118 H 0.79096 0.44807 0.77166
 C2119 C 0.35757 0.91726 0.28850
 C2120 C 0.39362 0.92154 0.26401
 C2121 C 0.37926 0.96219 0.25141
 C2122 C 0.34298 0.95778 0.27575
 C2123 C 0.35667 0.94253 0.22055
 C2124 C 0.37106 0.90207 0.23322
 C2125 C 0.33530 0.89795 0.25778
 C2126 C 0.32053 0.93799 0.24488
 H2127 H 0.35819 0.90723 0.31666
 H2128 H 0.42324 0.91194 0.27135
 H2129 H 0.32954 0.98032 0.29296
 H2130 H 0.35550 0.95166 0.19219
 H2131 H 0.38295 0.87899 0.21559
 H2132 H 0.29021 0.94500 0.23714
 C2133 C 0.17808 0.93936 0.73597
 C2134 C 0.14110 0.94803 0.71384
 C2135 C 0.11971 0.96214 0.74806
 C2136 C 0.15681 0.95357 0.77009
 C2137 C 0.10543 0.92001 0.75474
 C2138 C 0.12654 0.90590 0.72050
 C2139 C 0.16337 0.89763 0.74233
 C2140 C 0.14247 0.91146 0.77669
 H2141 H 0.20800 0.94761 0.72797
 H2142 H 0.14279 0.96173 0.68715
 H2143 H 0.17018 0.97247 0.79070
 H2144 H 0.07595 0.91101 0.76338
 H2145 H 0.11384 0.88662 0.69979
 H2146 H 0.14279 0.89645 0.80294
 C2147 C 0.62830 0.40186 0.26659
 C2148 C 0.64255 0.44235 0.27923
 C2149 C 0.61980 0.46198 0.24842
 C2150 C 0.60555 0.42130 0.23586
 C2151 C 0.65604 0.45769 0.22400
 C2152 C 0.67864 0.43794 0.25481
 C2153 C 0.66401 0.39787 0.24194
 C2154 C 0.64157 0.41714 0.21128
 H2155 H 0.61654 0.37872 0.28425
 H2156 H 0.64377 0.45140 0.30759
 H2157 H 0.57595 0.41162 0.22859
 H2158 H 0.66936 0.48026 0.20674
 H2159 H 0.70896 0.44506 0.26248
 H2160 H 0.64090 0.40713 0.18312
 C2161 C 0.64094 0.58286 0.28944
 C2162 C 0.60503 0.57859 0.26471
 C2163 C 0.61956 0.53803 0.25206
 C2164 C 0.65568 0.54242 0.27664
 C2165 C 0.64230 0.55789 0.22141
 C2166 C 0.62777 0.59826 0.23412
 C2167 C 0.66338 0.60236 0.25892
 C2168 C 0.67827 0.56239 0.24597
 H2169 H 0.64012 0.59275 0.31763
 H2170 H 0.57534 0.58811 0.27187
 H2171 H 0.66908 0.51988 0.29390
 H2172 H 0.64365 0.54892 0.19303
 H2173 H 0.61592 0.62139 0.21650
 H2174 H 0.70866 0.55544 0.23839
 C2175 C 0.17777 0.06043 0.76496
 C2176 C 0.14056 0.05172 0.78672
 C2177 C 0.11959 0.03753 0.75227
 C2178 C 0.15692 0.04615 0.73064
 C2179 C 0.10529 0.07964 0.74543
 C2180 C 0.12597 0.09382 0.77988
 C2181 C 0.16303 0.10213 0.75844
 C2182 C 0.14255 0.08822 0.72387
 H2183 H 0.20761 0.05223 0.77329
 H2184 H 0.14200 0.03804 0.81343
 H2185 H 0.17056 0.02727 0.71016
 H2186 H 0.07589 0.08858 0.73647
 H2187 H 0.11300 0.11313 0.80044
 H2188 H 0.14310 0.10317 0.69760
 C2189 C 0.35881 0.08346 0.21048
 C2190 C 0.39454 0.07876 0.23536
 C2191 C 0.37967 0.03822 0.24771
 C2192 C 0.34375 0.04302 0.22296
 C2193 C 0.35687 0.05799 0.27835
 C2194 C 0.37175 0.09834 0.26596
 C2195 C 0.33633 0.10287 0.24102
 C2196 C 0.32109 0.06292 0.25363
 H2197 H 0.35986 0.09360 0.18237
 H2198 H 0.42434 0.08806 0.22836
 H2199 H 0.33037 0.02065 0.20553
 H2200 H 0.35524 0.04881 0.30667
 H2201 H 0.38362 0.12125 0.28378
 H2202 H 0.29061 0.05614 0.26102
 C2203 C 0.87414 0.59456 0.71988
 C2204 C 0.89463 0.58001 0.75430
 C2205 C 0.87986 0.53810 0.74737
 C2206 C 0.85908 0.55263 0.71295
 C2207 C 0.84262 0.54708 0.76901
 C2208 C 0.85747 0.58895 0.77587
 C2209 C 0.83716 0.60326 0.74133
 C2210 C 0.82195 0.56174 0.73472
 H2211 H 0.88734 0.61375 0.69936
 H2212 H 0.92410 0.58861 0.76328
 H2213 H 0.85759 0.53897 0.68624
 H2214 H 0.82878 0.52826 0.78942
 H2215 H 0.85712 0.60380 0.80218
 H2216 H 0.79202 0.55393 0.72636
 C2217 C 0.93861 0.74203 0.20307
 C2218 C 0.94491 0.71656 0.16971
 C2219 C 0.96411 0.75146 0.15079
 C2220 C 0.95826 0.77694 0.18427
 C2221 C 0.92452 0.76467 0.13579
 C2222 C 0.90552 0.72979 0.15450
 C2223 C 0.89989 0.75531 0.18732
 C2224 C 0.91856 0.79020 0.16912
 H2225 H 0.94344 0.73300 0.23117
 H2226 H 0.95438 0.68581 0.17119
 H2227 H 0.97985 0.79609 0.19745
 H2228 H 0.91612 0.77387 0.10857
 H2229 H 0.88315 0.71044 0.14262
 H2230 H 0.90704 0.82039 0.16940
 C2231 C 0.41838 0.29051 0.67004
 C2232 C 0.45808 0.27719 0.68515
 C2233 C 0.46382 0.25167 0.65167
 C2234 C 0.42422 0.26492 0.63673
 C2235 C 0.44461 0.21682 0.67066
 C2236 C 0.43842 0.24234 0.70401
 C2237 C 0.39969 0.25570 0.68832
 C2238 C 0.40521 0.23011 0.65552
 H2239 H 0.40692 0.32072 0.67030
 H2240 H 0.47973 0.29630 0.69829
 H2241 H 0.41574 0.27405 0.60951
 H2242 H 0.45407 0.18605 0.67209
 H2243 H 0.44329 0.23334 0.73211
 H2244 H 0.38277 0.21078 0.64369
 C2245 C 0.44002 0.73491 0.79593
 C2246 C 0.45541 0.77188 0.81480
 C2247 C 0.46429 0.74742 0.84831
 C2248 C 0.44953 0.71034 0.82937
 C2249 C 0.42343 0.75551 0.86329
 C2250 C 0.41457 0.77998 0.83000
 C2251 C 0.40003 0.74300 0.81185
 C2252 C 0.40876 0.71845 0.84470
 H2253 H 0.44570 0.72633 0.76785
 H2254 H 0.47445 0.79371 0.80181
 H2255 H 0.46296 0.68109 0.82782
 H2256 H 0.41415 0.76436 0.89036
 H2257 H 0.39946 0.80856 0.82986
 H2258 H 0.38929 0.69624 0.85669
 C2259 C 0.90585 0.26951 0.34348
 C2260 C 0.92473 0.23495 0.36279
 C2261 C 0.96443 0.24810 0.34810
 C2262 C 0.94535 0.28270 0.32859
 C2263 C 0.95910 0.22219 0.31480
 C2264 C 0.91930 0.20898 0.32967
 C2265 C 0.90073 0.24353 0.31085
 C2266 C 0.93957 0.25680 0.29541
 H2267 H 0.88325 0.28895 0.35490
 H2268 H 0.91608 0.22615 0.39005
 H2269 H 0.95474 0.31347 0.32699
 H2270 H 0.98087 0.20291 0.30204
 H2271 H 0.90792 0.17874 0.32956
 H2272 H 0.94470 0.26547 0.26726
 C2273 C 0.09488 0.23098 0.34407
 C2274 C 0.07596 0.26592 0.36273
 C2275 C 0.03629 0.25251 0.34814
 C2276 C 0.05541 0.21754 0.32926
 C2277 C 0.04172 0.27778 0.31444
 C2278 C 0.08149 0.29125 0.32920
 C2279 C 0.10010 0.25631 0.31104
 C2280 C 0.06131 0.24280 0.29568
 H2281 H 0.11742 0.21174 0.35588
 H2282 H 0.08461 0.27524 0.38984
 H2283 H 0.04603 0.18674 0.32811
 H2284 H 0.01999 0.29684 0.30132
 H2285 H 0.09289 0.32149 0.32855
 H2286 H 0.05626 0.23359 0.26767
 C2287 C 0.56108 0.76378 0.79641
 C2288 C 0.54533 0.72721 0.81568
 C2289 C 0.53606 0.75233 0.84868
 C2290 C 0.55119 0.78901 0.82931
 C2291 C 0.57671 0.74439 0.86428
 C2292 C 0.58594 0.71926 0.83151
 C2293 C 0.60082 0.75585 0.81296
 C2294 C 0.59172 0.78106 0.84527
 H2295 H 0.55583 0.77184 0.76813
 H2296 H 0.52641 0.70521 0.80278
 H2297 H 0.53790 0.81826 0.82706
 H2298 H 0.58564 0.73605 0.89160
 H2299 H 0.60099 0.69066 0.83200
 H2300 H 0.61110 0.80342 0.85715
 C2301 C 0.58091 0.20804 0.67072
 C2302 C 0.54110 0.22138 0.68554
 C2303 C 0.53579 0.24718 0.65214
 C2304 C 0.57550 0.23390 0.63751
 C2305 C 0.55490 0.28181 0.67152
 C2306 C 0.56071 0.25603 0.70480
 C2307 C 0.59953 0.24263 0.68938
 C2308 C 0.59439 0.26850 0.65667
 H2309 H 0.59225 0.17776 0.67101
 H2310 H 0.51927 0.20223 0.69836
 H2311 H 0.58427 0.22502 0.61032
 H2312 H 0.54551 0.31260 0.67300
 H2313 H 0.55560 0.26482 0.73291
 H2314 H 0.61698 0.28787 0.64514
 C2315 C 0.08113 0.70783 0.17017
 C2316 C 0.04127 0.72119 0.18485
 C2317 C 0.03606 0.74693 0.15141
 C2318 C 0.07581 0.73363 0.13690
 C2319 C 0.05511 0.78160 0.17079
 C2320 C 0.06081 0.75587 0.20412
 C2321 C 0.09968 0.74246 0.18884
 C2322 C 0.09465 0.76827 0.15607
 H2323 H 0.09247 0.67755 0.17053
 H2324 H 0.01941 0.70203 0.19763
 H2325 H 0.08460 0.72468 0.10973
 H2326 H 0.04572 0.81238 0.17221
 H2327 H 0.05559 0.76470 0.23221
 H2328 H 0.11728 0.78763 0.14458
   
