data_POSCAR
  _audit_creation_date              2014-09-24
  _audit_creation_method            'ToBaCCo'
  _symmetry_space_group_name_H-M    'P1'
  _symmetry_Int_Tables_number       1
  _symmetry_cell_setting            triclinic
  loop_
  _symmetry_equiv_pos_as_xyz
 x,y,z
_cell_length_a 97.8266
_cell_length_b 98.0721
_cell_length_c 96.5163
_cell_angle_alpha 89.998200
_cell_angle_beta 89.932200
_cell_angle_gamma 90.029000
loop_
  _atom_site_label
  _atom_site_type_symbol
  _atom_site_fract_x
  _atom_site_fract_y
  _atom_site_fract_z
C1 C 0.31174 0.43969 0.92429
 C2 C 0.30583 0.42840 0.93095
 C3 C 0.31147 0.42311 0.94317
 C4 C 0.32300 0.42950 0.94894
 C5 C 0.32943 0.44068 0.94237
 C6 C 0.32355 0.44563 0.92998
 H7 H 0.29691 0.42360 0.92648
 H8 H 0.32661 0.42590 0.95886
 H9 H 0.32855 0.45360 0.92414
 C10 C 0.43966 0.82780 0.44307
 C11 C 0.42706 0.82229 0.44750
 C12 C 0.42078 0.81148 0.44036
 C13 C 0.42718 0.80617 0.42851
 C14 C 0.43981 0.81127 0.42396
 C15 C 0.44607 0.82187 0.43142
 H16 H 0.42234 0.82601 0.45691
 H17 H 0.42208 0.79835 0.42252
 H18 H 0.45565 0.82591 0.42762
 C19 C 0.93824 0.92043 0.80911
 C20 C 0.92698 0.92698 0.80310
 C21 C 0.92069 0.93811 0.80963
 C22 C 0.92618 0.94304 0.82211
 C23 C 0.93786 0.93705 0.82822
 C24 C 0.94369 0.92561 0.82151
 H25 H 0.92307 0.92336 0.79328
 H26 H 0.92070 0.95104 0.82744
 H27 H 0.95263 0.92069 0.82572
 C28 C 0.43784 -0.08058 0.30951
 C29 C 0.44294 -0.07500 0.32188
 C30 C 0.43725 -0.06307 0.32756
 C31 C 0.42615 -0.05687 0.32079
 C32 C 0.42079 -0.06237 0.30850
 C33 C 0.42694 -0.07402 0.30279
 H34 H 0.45102 -0.08023 0.32739
 H35 H 0.42153 -0.04785 0.32523
 H36 H 0.42322 -0.07802 0.29305
 C37 C 0.81206 0.31301 0.32813
 C38 C 0.82428 0.30763 0.32276
 C39 C 0.83094 0.31385 0.31149
 C40 C 0.82525 0.32570 0.30567
 C41 C 0.81294 0.33115 0.31073
 C42 C 0.80632 0.32456 0.32179
 H43 H 0.82873 0.29867 0.32750
 H44 H 0.83070 0.33097 0.29749
 H45 H 0.79661 0.32843 0.32548
 C46 C -0.18730 0.83029 0.81047
 C47 C -0.19358 0.82454 0.82233
 C48 C -0.18791 0.81322 0.82920
 C49 C -0.17589 0.80734 0.82398
 C50 C -0.16948 0.81275 0.81223
 C51 C -0.17518 0.82409 0.80556
 H52 H -0.20265 0.82910 0.82670
 H53 H -0.17118 0.79885 0.82934
 H54 H -0.17029 0.82760 0.79617
 C55 C 0.93796 0.32973 0.43898
 C56 C 0.92619 0.32334 0.44452
 C57 C 0.91959 0.31260 0.43758
 C58 C 0.92512 0.30778 0.42510
 C59 C 0.93709 0.31349 0.41962
 C60 C 0.94340 0.32440 0.42653
 H61 H 0.92229 0.32633 0.45454
 H62 H 0.92009 0.29960 0.41956
 H63 H 0.95207 0.32915 0.42152
 C64 C 0.43911 0.43768 0.82828
 C65 C 0.44511 0.42651 0.82146
 C66 C 0.43964 0.42148 0.80901
 C67 C 0.42826 0.42805 0.80319
 C68 C 0.42188 0.43901 0.80998
 C69 C 0.42740 0.44375 0.82252
 H70 H 0.45393 0.42158 0.82598
 H71 H 0.42434 0.42460 0.79331
 H72 H 0.42229 0.45186 0.82809
 C73 C 0.81266 0.91945 0.94015
 C74 C 0.80659 0.92549 0.92835
 C75 C 0.81240 0.93695 0.92183
 C76 C 0.82434 0.94269 0.92737
 C77 C 0.83054 0.93703 0.93911
 C78 C 0.82467 0.92555 0.94542
 H79 H 0.79758 0.92104 0.92374
 H80 H 0.82917 0.95127 0.92226
 H81 H 0.82935 0.92183 0.95483
 C82 C 0.31243 0.83182 0.31017
 C83 C 0.30563 0.82549 0.32139
 C84 C 0.31116 0.81413 0.32822
 C85 C 0.32345 0.80853 0.32335
 C86 C 0.33035 0.81431 0.31201
 C87 C 0.32484 0.82596 0.30560
 H88 H 0.29566 0.82901 0.32464
 H89 H 0.32774 0.79971 0.32849
 H90 H 0.33079 0.83082 0.29755
 C91 C 0.81344 0.41760 0.43884
 C92 C 0.82489 0.42380 0.44499
 C93 C 0.83145 0.43514 0.43885
 C94 C 0.82587 0.44036 0.42644
 C95 C 0.81416 0.43460 0.42035
 C96 C 0.80807 0.42319 0.42662
 H97 H 0.82828 0.41997 0.45490
 H98 H 0.83101 0.44845 0.42090
 H99 H 0.79921 0.41855 0.42187
 C100 C 0.93892 0.82976 -0.05882
 C101 C 0.92632 0.82428 -0.05437
 C102 C 0.92008 0.81338 -0.06140
 C103 C 0.92651 0.80797 -0.07318
 C104 C 0.93916 0.81303 -0.07775
 C105 C 0.94538 0.82372 -0.07038
 H106 H 0.92158 0.82808 -0.04500
 H107 H 0.92143 0.80007 -0.07909
 H108 H 0.95498 0.82773 -0.07416
 C109 C 0.31071 0.32955 0.80789
 C110 C 0.30522 0.32425 0.82023
 C111 C 0.31082 0.31257 0.82639
 C112 C 0.32227 0.30632 0.82034
 C113 C 0.32810 0.31157 0.80813
 C114 C 0.32199 0.32297 0.80181
 H115 H 0.29665 0.32927 0.82517
 H116 H 0.32695 0.29772 0.82553
 H117 H 0.32603 0.32673 0.79209
 C118 C 0.17106 0.56198 0.56070
 C119 C 0.17663 0.55730 0.57324
 C120 C 0.18834 0.56342 0.57895
 C121 C 0.19429 0.57460 0.57209
 C122 C 0.18876 0.57960 0.55965
 C123 C 0.17738 0.57297 0.55388
 H124 H 0.17154 0.54918 0.57884
 H125 H 0.20313 0.57957 0.57655
 H126 H 0.17341 0.57639 0.54401
 C127 C 0.57701 0.69124 0.05923
 C128 C 0.57153 0.67973 0.05255
 C129 C 0.55977 0.67320 0.05768
 C130 C 0.55339 0.67844 0.06959
 C131 C 0.55867 0.68992 0.07647
 C132 C 0.57043 0.69629 0.07114
 H133 H 0.57658 0.67568 0.04346
 H134 H 0.54440 0.67341 0.07368
 H135 H 0.57462 0.70508 0.07642
 C136 C 0.68907 0.18699 0.67274
 C137 C 0.67712 0.19285 0.67816
 C138 C 0.67129 0.18798 0.69048
 C139 C 0.67753 0.17700 0.69736
 C140 C 0.68921 0.17043 0.69191
 C141 C 0.69502 0.17586 0.67966
 H142 H 0.67208 0.20094 0.67250
 H143 H 0.67340 0.17394 0.70727
 H144 H 0.70391 0.17118 0.67505
 C145 C 1.07775 0.05962 0.19176
 C146 C 1.07253 0.05468 0.17916
 C147 C 1.06100 0.06068 0.17278
 C148 C 1.05501 0.07211 0.17937
 C149 C 1.06016 0.07727 0.19190
 C150 C 1.07130 0.07073 0.19815
 H151 H 1.07812 0.04667 0.17397
 H152 H 1.04617 0.07703 0.17495
 H153 H 1.07499 0.07433 0.20807
 C154 C 0.06104 0.17177 1.05695
 C155 C 0.05425 0.17817 1.06801
 C156 C 0.05985 0.18961 1.07484
 C157 C 0.07221 0.19505 1.06958
 C158 C 0.07905 0.18894 1.05835
 C159 C 0.07346 0.17722 1.05224
 H160 H 0.04428 0.17436 1.07091
 H161 H 0.07693 0.20375 1.07445
 H162 H 0.07901 0.17207 1.04406
 C163 C 0.17153 0.68922 0.68996
 C164 C 0.17768 0.67833 0.69707
 C165 C 0.18993 0.67256 0.69233
 C166 C 0.19631 0.67799 0.68053
 C167 C 0.19031 0.68879 0.67316
 C168 C 0.17789 0.69430 0.67795
 H169 H 0.17301 0.67434 0.70641
 H170 H 0.20582 0.67356 0.67694
 H171 H 0.17290 0.70223 0.67202
 C172 C 1.19194 0.17329 0.19268
 C173 C 1.17965 0.17870 0.19788
 C174 C 1.17304 0.18958 0.19115
 C175 C 1.17886 0.19494 0.17898
 C176 C 1.19123 0.18985 0.17373
 C177 C 1.19780 0.17920 0.18081
 H178 H 1.17510 0.17430 0.20707
 H179 H 1.17346 0.20278 0.17329
 H180 H 1.20755 0.17550 0.17706
 C181 C 0.66883 1.06187 0.55990
 C182 C 0.67442 1.05635 0.57216
 C183 C 0.68670 1.06127 0.57772
 C184 C 0.69360 1.07185 0.57090
 C185 C 0.68820 1.07811 0.55895
 C186 C 0.67590 1.07278 0.55347
 H187 H 0.66886 1.04873 0.57799
 H188 H 0.70349 1.07485 0.57484
 H189 H 0.67173 1.07721 0.54421
 C190 C 0.56003 0.56018 0.17484
 C191 C 0.55410 0.57126 0.18189
 C192 C 0.55979 0.57623 0.19428
 C193 C 0.57138 0.56972 0.19978
 C194 C 0.57756 0.55880 0.19279
 C195 C 0.57186 0.55411 0.18034
 H196 H 0.54516 0.57616 0.17759
 H197 H 0.57584 0.57334 0.20937
 H198 H 0.57677 0.54581 0.17486
 C199 C 0.67272 0.69003 0.19215
 C200 C 0.67901 0.67920 0.19923
 C201 C 0.69139 0.67365 0.19454
 C202 C 0.69776 0.67929 0.18285
 C203 C 0.69163 0.69004 0.17549
 C204 C 0.67909 0.69531 0.18022
 H205 H 0.67433 0.67506 0.20850
 H206 H 0.70737 0.67504 0.17930
 H207 H 0.67401 0.70319 0.17430
 C208 C 0.17253 0.06068 1.05670
 C209 C 0.17819 0.05572 1.06919
 C210 C 0.18960 0.06195 1.07536
 C211 C 0.19535 0.07352 1.06908
 C212 C 0.18990 0.07884 1.05678
 C213 C 0.17876 0.07220 1.05055
 H214 H 0.17328 0.04749 1.07474
 H215 H 0.20398 0.07852 1.07390
 H216 H 0.17533 0.07589 1.04060
 C217 C 0.57802 0.18765 0.55900
 C218 C 0.57229 0.19357 0.57095
 C219 C 0.56008 0.18853 0.57667
 C220 C 0.55358 0.17745 0.57025
 C221 C 0.55937 0.17100 0.55866
 C222 C 0.57147 0.17634 0.55296
 H223 H 0.57765 0.20177 0.57614
 H224 H 0.54395 0.17376 0.57434
 H225 H 0.57594 0.17151 0.54396
 C226 C 0.07916 0.56187 0.69141
 C227 C 0.07370 0.55612 0.67929
 C228 C 0.06151 0.56113 0.67358
 C229 C 0.05490 0.57216 0.67997
 C230 C 0.06032 0.57815 0.69198
 C231 C 0.07233 0.57280 0.69778
 H232 H 0.07883 0.54758 0.67443
 H233 H 0.04562 0.57623 0.67545
 H234 H 0.07672 0.57753 0.70690
 C235 C 0.67391 0.56014 0.05850
 C236 C 0.68011 0.57112 0.05156
 C237 C 0.69234 0.57682 0.05642
 C238 C 0.69868 0.57119 0.06813
 C239 C 0.69262 0.56028 0.07533
 C240 C 0.68021 0.55487 0.07044
 H241 H 0.67548 0.57527 0.04229
 H242 H 0.70818 0.57556 0.07180
 H243 H 0.67514 0.54689 0.07625
 C244 C 0.05827 0.68829 0.57628
 C245 C 0.05322 0.67640 0.57005
 C246 C 0.06006 0.67046 0.55878
 C247 C 0.07214 0.67647 0.55383
 C248 C 0.07728 0.68851 0.55982
 C249 C 0.07014 0.69442 0.57098
 H250 H 0.04405 0.67165 0.57410
 H251 H 0.07757 0.67167 0.54536
 H252 H 0.07394 0.70367 0.57574
 C253 C 0.56226 1.06216 0.67103
 C254 C 0.57357 1.05614 0.67779
 C255 C 0.57941 1.06209 0.68960
 C256 C 0.57371 1.07402 0.69508
 C257 C 0.56244 1.08026 0.68873
 C258 C 0.55686 1.07432 0.67673
 H259 H 0.57791 1.04668 0.67410
 H260 H 0.57802 1.07834 0.70443
 H261 H 0.54881 1.07978 0.67145
 C262 C 0.44061 0.32997 0.94195
 C263 C 0.44602 0.32455 0.92952
 C264 C 0.43964 0.31364 0.92262
 C265 C 0.42768 0.30801 0.92824
 C266 C 0.42223 0.31287 0.94073
 C267 C 0.42884 0.32367 0.94756
 H268 H 0.45494 0.32906 0.92477
 H269 H 0.42235 0.30007 0.92262
 H270 H 0.42497 0.32678 0.95756
 C271 C 0.93794 0.43553 0.32936
 C272 C 0.92623 0.44171 0.32377
 C273 C 0.92051 0.43702 0.31134
 C274 C 0.92652 0.42594 0.30448
 C275 C 0.93799 0.41929 0.31008
 C276 C 0.94371 0.42428 0.32245
 H277 H 0.92145 0.45017 0.32913
 H278 H 0.92207 0.42234 0.29488
 H279 H 0.95258 0.41929 0.32681
 C280 C 0.31075 0.93837 0.42139
 C281 C 0.30457 0.92698 0.42788
 C282 C 0.30944 0.92184 0.44054
 C283 C 0.32048 0.92836 0.44700
 C284 C 0.32709 0.93943 0.44073
 C285 C 0.32217 0.94436 0.42801
 H286 H 0.29580 0.92207 0.42329
 H287 H 0.32395 0.92477 0.45701
 H288 H 0.32790 0.95236 0.42294
 O289 O 0.28743 0.50034 0.76836
 O290 O 0.28259 0.52414 0.76852
 O291 O 0.25184 0.48305 0.78738
 O292 O 0.22919 0.48356 0.78382
 O293 O 0.26827 0.46573 0.75038
 O294 O 0.26676 0.47171 0.72628
 O295 O 0.21518 0.51989 0.75110
 O296 O 0.21936 0.51612 0.77534
 O297 O 0.24956 0.53833 0.73501
 O298 O 0.27425 0.53362 0.73570
 O299 O 0.23300 0.50448 0.71526
 O300 O 0.23395 0.47966 0.71921
 O301 O 0.21484 0.50387 0.73410
 O302 O 0.21979 0.47897 0.73428
 O303 O 0.24920 0.52108 0.71592
 O304 O 0.27442 0.51927 0.72061
 O305 O 0.23334 0.53782 0.75188
 O306 O 0.23564 0.53363 0.77500
 O307 O 0.28717 0.48458 0.75107
 O308 O 0.28195 0.48706 0.72674
 O309 O 0.25186 0.46492 0.76707
 O310 O 0.22736 0.47046 0.76552
 O311 O 0.26841 0.49932 0.78797
 O312 O 0.26778 0.52421 0.78348
 Zr313 Zr 0.26757 0.50865 0.76829
 O314 O 0.25545 0.52223 0.75672
 Zr315 Zr 0.24350 0.48474 0.76741
 O316 O 0.23026 0.49740 0.75595
 Zr317 Zr 0.26732 0.48581 0.74283
 O318 O 0.25512 0.49833 0.73019
 Zr319 Zr 0.23469 0.51797 0.75996
 O320 O 0.24675 0.50535 0.77299
 Zr321 Zr 0.25847 0.51885 0.73545
 O322 O 0.27192 0.50637 0.74703
 Zr323 Zr 0.23437 0.49492 0.73472
 O324 O 0.24659 0.48110 0.74614
 O325 O 0.26415 0.48821 0.76396
 O326 O 0.23771 0.51551 0.73876
 C327 C 0.29313 0.49099 0.76099
 C328 C 0.26152 0.48955 0.79350
 C329 C 0.26148 0.45947 0.75985
 C330 C 0.20930 0.51356 0.74109
 C331 C 0.23987 0.54383 0.74206
 C332 C 0.23944 0.51462 0.70991
 H333 H 0.25761 0.53170 0.75947
 H334 H 0.25724 0.49650 0.72035
 H335 H 0.27002 0.48213 0.76956
 H336 H 0.22065 0.49527 0.75827
 H337 H 0.22387 0.51245 0.78373
 H338 H 0.22144 0.48956 0.78138
 H339 H 0.27277 0.51184 0.71389
 H340 H 0.28653 0.49601 0.72775
 H341 H 0.24041 0.52978 0.78311
 H342 H 0.26049 0.52212 0.79027
 H343 H 0.24221 0.48078 0.71341
 H344 H 0.25771 0.46720 0.72672
 H345 H 0.28668 0.52433 0.75914
 H346 H 0.27344 0.53882 0.74444
 H347 H 0.22872 0.46563 0.75662
 H348 H 0.21381 0.47999 0.74249
 O349 O 0.24951 0.03777 0.23267
 O350 O 0.27349 0.03266 0.23299
 O351 O 0.23271 0.00270 0.21231
 O352 O 0.23258 -0.01988 0.21559
 O353 O 0.21427 0.01847 0.24944
 O354 O 0.21976 0.01632 0.27364
 O355 O 0.26789 -0.03499 0.24829
 O356 O 0.26513 -0.02968 0.22411
 O357 O 0.28680 -0.00080 0.26574
 O358 O 0.28206 0.02383 0.26556
 O359 O 0.25248 -0.01784 0.28447
 O360 O 0.22746 -0.01633 0.28017
 O361 O 0.25215 -0.03523 0.26560
 O362 O 0.22710 -0.03035 0.26484
 O363 O 0.26887 -0.00143 0.28474
 O364 O 0.26756 0.02368 0.28045
 O365 O 0.28604 -0.01728 0.24921
 O366 O 0.28299 -0.01400 0.22592
 O367 O 0.23361 0.03745 0.24988
 O368 O 0.23502 0.03144 0.27393
 O369 O 0.21381 0.00239 0.23246
 O370 O 0.21926 -0.02202 0.23340
 O371 O 0.24855 0.01967 0.21284
 O372 O 0.27337 0.01838 0.21735
 Zr373 Zr 0.25770 0.01794 0.23249
 O374 O 0.27101 0.00547 0.24400
 Zr375 Zr 0.23365 -0.00593 0.23226
 O376 O 0.24594 -0.01949 0.24373
 Zr377 Zr 0.23426 0.01730 0.25742
 O378 O 0.24653 0.00478 0.27004
 Zr379 Zr 0.26664 -0.01513 0.24023
 O380 O 0.25442 -0.00268 0.22721
 Zr381 Zr 0.26723 0.00810 0.26527
 O382 O 0.25500 0.02184 0.25377
 Zr383 Zr 0.24309 -0.01579 0.26500
 O384 O 0.22957 -0.00330 0.25352
 O385 O 0.23708 0.01459 0.23628
 O386 O 0.26380 -0.01251 0.26143
 C387 C 0.24027 0.04350 0.24016
 C388 C 0.23913 0.01277 0.20676
 C389 C 0.20816 0.01177 0.23981
 C390 C 0.26167 -0.04084 0.25840
 C391 C 0.29210 -0.01077 0.25898
 C392 C 0.26241 -0.01146 0.29028
 H393 H 0.28058 0.00759 0.24147
 H394 H 0.24452 0.00669 0.27988
 H395 H 0.23112 0.02063 0.23073
 H396 H 0.24377 -0.02901 0.24116
 H397 H 0.26201 -0.02472 0.21575
 H398 H 0.23894 -0.02742 0.21772
 H399 H 0.25983 0.02210 0.28686
 H400 H 0.24414 0.03581 0.27349
 H401 H 0.27976 -0.00836 0.21812
 H402 H 0.27127 0.01121 0.21045
 H403 H 0.22881 -0.00847 0.28643
 H404 H 0.21529 0.00729 0.27291
 H405 H 0.27326 0.03679 0.24234
 H406 H 0.28746 0.02315 0.25692
 H407 H 0.21439 -0.02102 0.24234
 H408 H 0.22838 -0.03624 0.25663
 O409 O 0.53630 0.73175 0.24997
 O410 O 0.53223 0.73419 0.27439
 O411 O 0.50042 0.71100 0.23618
 O412 O 0.47788 0.71443 0.23639
 O413 O 0.51553 0.74622 0.21383
 O414 O 0.51432 0.77019 0.21783
 O415 O 0.46475 0.75006 0.27098
 O416 O 0.46874 0.72609 0.26934
 O417 O 0.49920 0.76795 0.28653
 O418 O 0.52400 0.76697 0.28082
 O419 O 0.48098 0.78343 0.25151
 O420 O 0.48163 0.77736 0.22637
 O421 O 0.46344 0.76487 0.25293
 O422 O 0.46754 0.76241 0.22767
 O423 O 0.49834 0.78498 0.26704
 O424 O 0.52327 0.78049 0.26515
 O425 O 0.48356 0.75091 0.28834
 O426 O 0.48537 0.72626 0.28487
 O427 O 0.53549 0.74736 0.23255
 O428 O 0.52988 0.77134 0.23271
 O429 O 0.49998 0.72904 0.21553
 O430 O 0.47556 0.73123 0.22154
 O431 O 0.51782 0.71251 0.25173
 O432 O 0.51726 0.71877 0.27591
 Zr433 Zr 0.51681 0.73264 0.25915
 O434 O 0.50505 0.74514 0.27224
 Zr435 Zr 0.49202 0.73076 0.23576
 O436 O 0.47901 0.74302 0.24796
 Zr437 Zr 0.51548 0.75528 0.23359
 O438 O 0.50345 0.76872 0.24547
 Zr439 Zr 0.48420 0.74116 0.26897
 O440 O 0.49602 0.72745 0.25698
 Zr441 Zr 0.50760 0.76566 0.26658
 O442 O 0.52081 0.75327 0.25461
 Zr443 Zr 0.48268 0.76364 0.24328
 O444 O 0.49464 0.75129 0.22996
 O445 O 0.51271 0.73478 0.23816
 O446 O 0.48681 0.76173 0.26434
 C447 C 0.54169 0.73819 0.23973
 C448 C 0.51058 0.70590 0.24287
 C449 C 0.50891 0.73604 0.20879
 C450 C 0.45846 0.75913 0.26378
 C451 C 0.48996 0.76131 0.29318
 C452 C 0.48792 0.78991 0.26069
 H453 H 0.50776 0.74355 0.28196
 H454 H 0.50532 0.77821 0.24258
 H455 H 0.51846 0.72875 0.23236
 H456 H 0.46936 0.74044 0.24641
 H457 H 0.47272 0.71778 0.26513
 H458 H 0.47004 0.71742 0.24210
 H459 H 0.52164 0.78593 0.25668
 H460 H 0.53482 0.77126 0.24166
 H461 H 0.49389 0.72779 0.29014
 H462 H 0.50840 0.71389 0.27582
 H463 H 0.48937 0.78380 0.22717
 H464 H 0.50494 0.76966 0.21401
 H465 H 0.53632 0.74337 0.27336
 H466 H 0.52321 0.75923 0.28734
 H467 H 0.47681 0.73944 0.21571
 H468 H 0.46190 0.75425 0.22956
 O469 O 0.03628 0.73274 0.74865
 O470 O 0.03221 0.73480 0.77301
 O471 O 0.00032 0.71239 0.73445
 O472 O -0.02209 0.71591 0.73418
 O473 O 0.01615 0.74766 0.71283
 O474 O 0.01454 0.77164 0.71690
 O475 O -0.03520 0.75091 0.76973
 O476 O -0.03129 0.72707 0.76786
 O477 O -0.00085 0.76870 0.78554
 O478 O 0.02381 0.76789 0.78011
 O479 O -0.01892 0.78461 0.75064
 O480 O -0.01846 0.77904 0.72570
 O481 O -0.03652 0.76599 0.75191
 O482 O -0.03218 0.76371 0.72642
 O483 O -0.00160 0.78597 0.76624
 O484 O 0.02347 0.78126 0.76429
 O485 O -0.01652 0.75165 0.78710
 O486 O -0.01450 0.72689 0.78321
 O487 O 0.03567 0.74873 0.73158
 O488 O 0.02999 0.77277 0.73206
 O489 O -0.00001 0.73100 0.71385
 O490 O -0.02451 0.73300 0.72012
 O491 O 0.01768 0.71355 0.75007
 O492 O 0.01702 0.71958 0.77438
 Zr493 Zr 0.01677 0.73361 0.75776
 O494 O 0.00505 0.74601 0.77100
 Zr495 Zr -0.00793 0.73221 0.73419
 O496 O -0.02094 0.74424 0.74662
 Zr497 Zr 0.01565 0.75664 0.73258
 O498 O 0.00354 0.76993 0.74454
 Zr499 Zr -0.01577 0.74209 0.76762
 O500 O -0.00402 0.72854 0.75537
 Zr501 Zr 0.00763 0.76660 0.76562
 O502 O 0.02087 0.75430 0.75358
 Zr503 Zr -0.01724 0.76491 0.74223
 O504 O -0.00519 0.75281 0.72875
 O505 O 0.01277 0.73607 0.73679
 O506 O -0.01316 0.76272 0.76327
 C507 C 0.04176 0.73936 0.73857
 C508 C 0.01038 0.70711 0.74114
 C509 C 0.00929 0.73783 0.70743
 C510 C -0.04149 0.76006 0.76267
 C511 C -0.01015 0.76202 0.79206
 C512 C -0.01198 0.79099 0.75989
 H513 H 0.00773 0.74429 0.78071
 H514 H 0.00543 0.77945 0.74178
 H515 H 0.01851 0.73008 0.73094
 H516 H -0.03059 0.74167 0.74502
 H517 H -0.02738 0.71882 0.76346
 H518 H -0.02966 0.71850 0.74045
 H519 H 0.02167 0.78706 0.75610
 H520 H 0.03502 0.77245 0.74095
 H521 H -0.00625 0.72864 0.78884
 H522 H 0.00818 0.71467 0.77412
 H523 H -0.01028 0.78495 0.72611
 H524 H 0.00522 0.77103 0.71295
 H525 H 0.03621 0.74405 0.77227
 H526 H 0.02326 0.75982 0.78623
 H527 H -0.02314 0.74118 0.71426
 H528 H -0.03818 0.75585 0.72850
 O529 O 0.00230 0.03677 0.01553
 O530 O -0.02172 0.03189 0.01478
 O531 O 0.01854 0.00159 0.03598
 O532 O 0.01845 -0.02101 0.03268
 O533 O 0.03757 0.01719 -0.00092
 O534 O 0.03238 0.01527 -0.02512
 O535 O -0.01637 -0.03589 -0.00036
 O536 O -0.01409 -0.03046 0.02380
 O537 O -0.03464 -0.00178 -0.01857
 O538 O -0.03003 0.02302 -0.01783
 O539 O -0.00045 -0.01870 -0.03648
 O540 O 0.02450 -0.01745 -0.03182
 O541 O -0.00060 -0.03610 -0.01768
 O542 O 0.02452 -0.03145 -0.01644
 O543 O -0.01659 -0.00207 -0.03699
 O544 O -0.01523 0.02298 -0.03250
 O545 O -0.03469 -0.01773 -0.00148
 O546 O -0.03179 -0.01482 0.02167
 O547 O 0.01848 0.03633 -0.00142
 O548 O 0.01718 0.03045 -0.02556
 O549 O 0.03766 0.00120 0.01615
 O550 O 0.03202 -0.02321 0.01503
 O551 O 0.00274 0.01856 0.03534
 O552 O -0.02202 0.01758 0.03038
 Zr553 Zr -0.00610 0.01702 0.01551
 O554 O -0.01935 0.00467 0.00377
 Zr555 Zr 0.01774 -0.00702 0.01603
 O556 O 0.00548 -0.02046 0.00436
 Zr557 Zr 0.01767 0.01625 -0.00909
 O558 O 0.00551 0.00383 -0.02192
 Zr559 Zr -0.01524 -0.01597 0.00760
 O560 O -0.00307 -0.00363 0.02080
 Zr561 Zr -0.01521 0.00729 -0.01743
 O562 O -0.00306 0.02094 -0.00573
 Zr563 Zr 0.00867 -0.01677 -0.01686
 O564 O 0.02214 -0.00439 -0.00518
 O565 O 0.01453 0.01352 0.01199
 O566 O -0.01206 -0.01336 -0.01356
 C567 C 0.01176 0.04241 0.00824
 C568 C 0.01208 0.01164 0.04152
 C569 C 0.04349 0.01052 0.00885
 C570 C -0.01010 -0.04172 -0.01045
 C571 C -0.04034 -0.01143 -0.01165
 C572 C -0.01020 -0.01219 -0.04244
 H573 H -0.02894 0.00686 0.00614
 H574 H 0.00768 0.00574 -0.03173
 H575 H 0.02047 0.01949 0.01765
 H576 H 0.00755 -0.02999 0.00696
 H577 H -0.01101 -0.02551 0.03218
 H578 H 0.01206 -0.02850 0.03043
 H579 H -0.00737 0.02144 -0.03876
 H580 H 0.00816 0.03501 -0.02509
 H581 H -0.02871 -0.00902 0.02942
 H582 H -0.02010 0.01040 0.03732
 H583 H 0.02332 -0.00956 -0.03808
 H584 H 0.03669 0.00616 -0.02446
 H585 H -0.02143 0.03588 0.00537
 H586 H -0.03577 0.02209 -0.00944
 H587 H 0.03705 -0.02219 0.00618
 H588 H 0.02301 -0.03740 -0.00830
 O589 O 0.03669 0.51590 0.50151
 O590 O 0.03183 0.51396 0.47724
 O591 O 0.00107 0.53505 0.51761
 O592 O -0.02153 0.53119 0.51764
 O593 O 0.01778 0.50002 0.53802
 O594 O 0.01700 0.47610 0.53356
 O595 O -0.03527 0.49653 0.48323
 O596 O -0.03145 0.52029 0.48479
 O597 O -0.00079 0.47937 0.46561
 O598 O 0.02415 0.48099 0.47022
 O599 O -0.01712 0.46261 0.50098
 O600 O -0.01601 0.46811 0.52602
 O601 O -0.03517 0.48054 0.50027
 O602 O -0.03038 0.48289 0.52566
 O603 O -0.00047 0.46197 0.48458
 O604 O 0.02448 0.46720 0.48570
 O605 O -0.01707 0.49589 0.46487
 O606 O -0.01544 0.52068 0.46872
 O607 O 0.03697 0.49979 0.51847
 O608 O 0.03196 0.47566 0.51793
 O609 O 0.00155 0.51660 0.53745
 O610 O -0.02296 0.51394 0.53231
 O611 O 0.01742 0.53475 0.50083
 O612 O 0.01638 0.52885 0.47659
 Zr613 Zr 0.01691 0.51467 0.49308
 O614 O 0.00503 0.50211 0.48014
 Zr615 Zr -0.00702 0.51519 0.51750
 O616 O -0.02014 0.50290 0.50548
 Zr617 Zr 0.01715 0.49135 0.51808
 O618 O 0.00504 0.47785 0.50637
 Zr619 Zr -0.01578 0.50545 0.48433
 O620 O -0.00391 0.51919 0.49624
 Zr621 Zr 0.00832 0.48154 0.48520
 O622 O 0.02162 0.49405 0.49692
 Zr623 Zr -0.01576 0.48229 0.50948
 O624 O -0.00364 0.49461 0.52265
 O625 O 0.01366 0.51186 0.51414
 O626 O -0.01247 0.48485 0.48834
 C627 C 0.04264 0.50933 0.51132
 C628 C 0.01058 0.54076 0.51045
 C629 C 0.01102 0.50983 0.54361
 C630 C -0.04090 0.48683 0.49013
 C631 C -0.01056 0.48577 0.45956
 C632 C -0.01045 0.45657 0.49130
 H633 H 0.00732 0.50398 0.47036
 H634 H 0.00727 0.46836 0.50894
 H635 H 0.01947 0.51791 0.51986
 H636 H -0.02978 0.50519 0.50750
 H637 H -0.02750 0.52853 0.48916
 H638 H -0.02957 0.52804 0.51232
 H639 H 0.02317 0.46135 0.49395
 H640 H 0.03657 0.47611 0.50881
 H641 H -0.00736 0.51915 0.46277
 H642 H 0.00733 0.53333 0.47701
 H643 H -0.00785 0.46224 0.52509
 H644 H 0.00778 0.47633 0.53780
 H645 H 0.03610 0.50482 0.47778
 H646 H 0.02293 0.48888 0.46396
 H647 H -0.02137 0.50556 0.53780
 H648 H -0.03661 0.49063 0.52386
 O649 O 0.46130 -0.00178 0.48468
 O650 O 0.46588 0.02204 0.48511
 O651 O 0.49692 -0.01706 0.46305
 O652 O 0.51955 -0.01680 0.46617
 O653 O 0.48247 -0.03725 0.50028
 O654 O 0.48395 -0.03201 0.52437
 O655 O 0.53372 0.01839 0.50008
 O656 O 0.52873 0.01566 0.47575
 O657 O 0.49971 0.03517 0.51831
 O658 O 0.47479 0.02989 0.51785
 O659 O 0.51766 0.00130 0.53554
 O660 O 0.51671 -0.02370 0.53054
 O661 O 0.53496 0.00166 0.51631
 O662 O 0.53066 -0.02321 0.51516
 O663 O 0.50051 0.01688 0.53656
 O664 O 0.47555 0.01519 0.53250
 O665 O 0.51518 0.03588 0.50075
 O666 O 0.51224 0.03280 0.47761
 O667 O 0.46256 -0.01877 0.50066
 O668 O 0.46843 -0.01723 0.52490
 O669 O 0.49753 -0.03644 0.48231
 O670 O 0.52205 -0.03058 0.48365
 O671 O 0.47927 -0.00203 0.46431
 O672 O 0.48008 0.02271 0.46949
 Zr673 Zr 0.48103 0.00671 0.48417
 O674 O 0.49324 0.02004 0.49593
 Zr675 Zr 0.50563 -0.01653 0.48295
 O676 O 0.51898 -0.00416 0.49463
 Zr677 Zr 0.48265 -0.01733 0.50839
 O678 O 0.49497 -0.00507 0.52123
 Zr679 Zr 0.51397 0.01643 0.49177
 O680 O 0.50173 0.00420 0.47855
 Zr681 Zr 0.49098 0.01559 0.51710
 O682 O 0.47745 0.00329 0.50541
 Zr683 Zr 0.51563 -0.00770 0.51585
 O684 O 0.50338 -0.02127 0.50412
 O685 O 0.48503 -0.01385 0.48732
 O686 O 0.51169 0.01294 0.51292
 C687 C 0.45606 -0.01171 0.49157
 C688 C 0.48650 -0.01095 0.45784
 C689 C 0.48881 -0.04270 0.49000
 C690 C 0.54005 0.01181 0.50964
 C691 C 0.50898 0.04123 0.51115
 C692 C 0.51089 0.01072 0.54177
 H693 H 0.49079 0.02957 0.49372
 H694 H 0.49322 -0.00740 0.53103
 H695 H 0.47909 -0.01983 0.48166
 H696 H 0.52856 -0.00594 0.49189
 H697 H 0.52395 0.01238 0.46734
 H698 H 0.52711 -0.01053 0.46854
 H699 H 0.47704 0.00700 0.53828
 H700 H 0.46357 -0.00839 0.52442
 H701 H 0.50695 0.02935 0.46964
 H702 H 0.48714 0.02090 0.46237
 H703 H 0.50914 -0.02247 0.53722
 H704 H 0.49326 -0.03593 0.52384
 H705 H 0.46220 0.02188 0.49467
 H706 H 0.47574 0.03604 0.50978
 H707 H 0.52100 -0.03589 0.49231
 H708 H 0.53610 -0.02188 0.50662
 O709 O 0.53782 0.51736 0.00083
 O710 O 0.53327 0.51497 -0.02353
 O711 O 0.50201 0.53787 0.01549
 O712 O 0.47942 0.53414 0.01564
 O713 O 0.51782 0.50275 0.03733
 O714 O 0.51656 0.47867 0.03324
 O715 O 0.46552 0.49935 -0.01794
 O716 O 0.47043 0.52336 -0.01676
 O717 O 0.50000 0.48109 -0.03503
 O718 O 0.52491 0.48257 -0.03019
 O719 O 0.48305 0.46515 0.00040
 O720 O 0.48403 0.47126 0.02548
 O721 O 0.46521 0.48353 -0.00075
 O722 O 0.46966 0.48595 0.02446
 O723 O 0.50004 0.46399 -0.01561
 O724 O 0.52489 0.46889 -0.01454
 O725 O 0.48391 0.49777 -0.03618
 O726 O 0.48637 0.52069 -0.03442
 O727 O 0.53741 0.50170 0.01821
 O728 O 0.53199 0.47778 0.01812
 O729 O 0.50206 0.51975 0.03602
 O730 O 0.47756 0.51757 0.03049
 O731 O 0.51936 0.53648 -0.00014
 O732 O 0.51875 0.53014 -0.02489
 Zr733 Zr 0.51816 0.51647 -0.00793
 O734 O 0.50607 0.50402 -0.02077
 Zr735 Zr 0.49379 0.51804 0.01595
 O736 O 0.48062 0.50563 0.00414
 Zr737 Zr 0.51743 0.49369 0.01756
 O738 O 0.50534 0.48020 0.00583
 Zr739 Zr 0.48529 0.50769 -0.01697
 O740 O 0.49735 0.52155 -0.00535
 Zr741 Zr 0.50896 0.48348 -0.01537
 O742 O 0.52234 0.49585 -0.00358
 Zr743 Zr 0.48457 0.48500 0.00858
 O744 O 0.49665 0.49749 0.02165
 O745 O 0.51445 0.51418 0.01312
 O746 O 0.48817 0.48711 -0.01256
 C747 C 0.54342 0.51092 0.01094
 C748 C 0.51215 0.54302 0.00880
 C749 C 0.51120 0.51286 0.04254
 C750 C 0.45964 0.48987 -0.01092
 C751 C 0.49036 0.48752 -0.04128
 C752 C 0.48992 0.45881 -0.00895
 H753 H 0.50832 0.50585 -0.03059
 H754 H 0.50739 0.47072 0.00861
 H755 H 0.52028 0.52020 0.01885
 H756 H 0.47101 0.50814 0.00600
 H757 H 0.47519 0.53185 -0.01400
 H758 H 0.47191 0.53134 0.00941
 H759 H 0.52362 0.46344 -0.00601
 H760 H 0.53670 0.47786 0.00903
 H761 H 0.49194 0.52862 -0.03163
 H762 H 0.51141 0.53694 -0.02346
 H763 H 0.49190 0.46500 0.02455
 H764 H 0.50737 0.47936 0.03748
 H765 H 0.53745 0.50582 -0.02255
 H766 H 0.52379 0.49036 -0.03660
 H767 H 0.47881 0.50925 0.03615
 H768 H 0.46394 0.49409 0.02276
 O769 O 0.71417 0.22981 0.49970
 O770 O 0.71898 0.23179 0.47542
 O771 O 0.75011 0.21101 0.51556
 O772 O 0.77260 0.21516 0.51576
 O773 O 0.73291 0.24585 0.53612
 O774 O 0.73358 0.26981 0.53167
 O775 O 0.78593 0.24983 0.48111
 O776 O 0.78232 0.22603 0.48278
 O777 O 0.75122 0.26655 0.46356
 O778 O 0.72632 0.26484 0.46837
 O779 O 0.76757 0.28357 0.49887
 O780 O 0.76649 0.27819 0.52389
 O781 O 0.78567 0.26582 0.49815
 O782 O 0.78089 0.26341 0.52363
 O783 O 0.75090 0.28408 0.48252
 O784 O 0.72597 0.27870 0.48378
 O785 O 0.76766 0.25020 0.46280
 O786 O 0.76633 0.22547 0.46673
 O787 O 0.71373 0.24601 0.51657
 O788 O 0.71858 0.27016 0.51611
 O789 O 0.74929 0.22940 0.53546
 O790 O 0.77383 0.23244 0.53030
 O791 O 0.73357 0.21117 0.49902
 O792 O 0.73459 0.21703 0.47473
 Zr793 Zr 0.73393 0.23123 0.49120
 O794 O 0.74568 0.24389 0.47821
 Zr795 Zr 0.75790 0.23097 0.51552
 O796 O 0.77089 0.24335 0.50344
 Zr797 Zr 0.73350 0.25457 0.51618
 O798 O 0.74547 0.26817 0.50440
 Zr799 Zr 0.76652 0.24073 0.48232
 O800 O 0.75479 0.22690 0.49429
 Zr801 Zr 0.74221 0.26444 0.48324
 O802 O 0.72904 0.25182 0.49504
 Zr803 Zr 0.76631 0.26392 0.50744
 O804 O 0.75432 0.25151 0.52068
 O805 O 0.73718 0.23409 0.51224
 O806 O 0.76303 0.26130 0.48631
 C807 C 0.70815 0.23640 0.50947
 C808 C 0.74058 0.20522 0.50854
 C809 C 0.73973 0.23605 0.54165
 C810 C 0.79145 0.25961 0.48799
 C811 C 0.76101 0.26020 0.45747
 C812 C 0.76088 0.28954 0.48917
 H813 H 0.74338 0.24197 0.46844
 H814 H 0.74318 0.27765 0.50696
 H815 H 0.73142 0.22799 0.51796
 H816 H 0.78055 0.24116 0.50543
 H817 H 0.77844 0.21775 0.48716
 H818 H 0.78056 0.21831 0.51030
 H819 H 0.72728 0.28458 0.49199
 H820 H 0.71402 0.26973 0.50697
 H821 H 0.75813 0.22682 0.46091
 H822 H 0.74365 0.21256 0.47519
 H823 H 0.75821 0.28392 0.52304
 H824 H 0.74279 0.26962 0.53590
 H825 H 0.71460 0.24087 0.47600
 H826 H 0.72754 0.25691 0.46216
 H827 H 0.77206 0.24073 0.53587
 H828 H 0.78726 0.25580 0.52175
 O829 O 0.71363 0.73343 0.00248
 O830 O 0.71782 0.73527 -0.02180
 O831 O 0.74983 0.71310 0.01701
 O832 O 0.77241 0.71676 0.01626
 O833 O 0.73433 0.74821 0.03861
 O834 O 0.73535 0.77225 0.03429
 O835 O 0.78557 0.75161 -0.01789
 O836 O 0.78107 0.72756 -0.01619
 O837 O 0.75080 0.76936 -0.03427
 O838 O 0.72597 0.76790 -0.02886
 O839 O 0.76831 0.78560 0.00080
 O840 O 0.76778 0.77967 0.02591
 O841 O 0.78604 0.76757 -0.00082
 O842 O 0.78223 0.76496 0.02462
 O843 O 0.75123 0.78661 -0.01509
 O844 O 0.72631 0.78173 -0.01328
 O845 O 0.76688 0.75270 -0.03565
 O846 O 0.76453 0.72971 -0.03350
 O847 O 0.71453 0.74886 0.02005
 O848 O 0.71966 0.77287 0.01938
 O849 O 0.75018 0.73131 0.03716
 O850 O 0.77453 0.73354 0.03110
 O851 O 0.73268 0.71397 0.00114
 O852 O 0.73233 0.72053 -0.02357
 Zr853 Zr 0.73326 0.73410 -0.00654
 O854 O 0.74508 0.74655 -0.01970
 Zr855 Zr 0.75806 0.73288 0.01690
 O856 O 0.77098 0.74522 0.00470
 Zr857 Zr 0.73435 0.75708 0.01876
 O858 O 0.74618 0.77056 0.00671
 Zr859 Zr 0.76595 0.74299 -0.01629
 O860 O 0.75415 0.72917 -0.00430
 Zr861 Zr 0.74221 0.76714 -0.01440
 O862 O 0.72911 0.75476 -0.00226
 Zr863 Zr 0.76698 0.76583 0.00910
 O864 O 0.75520 0.75342 0.02251
 O865 O 0.73731 0.73656 0.01441
 O866 O 0.76303 0.76356 -0.01195
 C867 C 0.70827 0.73982 0.01278
 C868 C 0.73996 0.70765 0.01018
 C869 C 0.74109 0.73819 0.04379
 C870 C 0.79141 0.76131 -0.01118
 C871 C 0.76033 0.76290 -0.04069
 C872 C 0.76145 0.79182 -0.00862
 H873 H 0.74266 0.74466 -0.02945
 H874 H 0.74415 0.78006 0.00946
 H875 H 0.73161 0.73053 0.02027
 H876 H 0.78065 0.74280 0.00636
 H877 H 0.77652 0.71906 -0.01313
 H878 H 0.78000 0.71971 0.01018
 H879 H 0.72781 0.78731 -0.00489
 H880 H 0.71482 0.77265 0.01038
 H881 H 0.75958 0.72152 -0.03028
 H882 H 0.73979 0.71381 -0.02244
 H883 H 0.75988 0.78590 0.02511
 H884 H 0.74461 0.77165 0.03837
 H885 H 0.71383 0.74452 -0.02109
 H886 H 0.72703 0.76010 -0.03526
 H887 H 0.77339 0.74195 0.03666
 H888 H 0.78818 0.75705 0.02261
 O889 O 1.00106 0.21256 0.23272
 O890 O 0.97721 0.21722 0.23364
 O891 O 1.01645 0.24792 0.21107
 O892 O 1.01677 0.27043 0.21417
 O893 O 1.03652 0.23275 0.24781
 O894 O 1.03190 0.23517 0.27208
 O895 O 0.98165 0.28507 0.24821
 O896 O 0.98404 0.27992 0.22392
 O897 O 0.96469 0.25155 0.26700
 O898 O 0.96937 0.22673 0.26653
 O899 O 0.99882 0.26919 0.28355
 O900 O 1.02379 0.26792 0.27851
 O901 O 0.99862 0.28629 0.26422
 O902 O 1.02357 0.28157 0.26283
 O903 O 0.98318 0.25210 0.28489
 O904 O 0.98460 0.22701 0.28070
 O905 O 0.96399 0.26696 0.24943
 O906 O 0.96671 0.26354 0.22611
 O907 O 1.01789 0.21370 0.24892
 O908 O 1.01671 0.21985 0.27316
 O909 O 1.03617 0.24831 0.23034
 O910 O 1.03045 0.27290 0.23152
 O911 O 1.00097 0.23067 0.21236
 O912 O 0.97624 0.23141 0.21811
 Zr913 Zr 0.99259 0.23232 0.23243
 O914 O 0.97947 0.24470 0.24431
 Zr915 Zr 1.01625 0.25661 0.23097
 O916 O 1.00404 0.27011 0.24264
 Zr917 Zr 1.01685 0.23379 0.25645
 O918 O 1.00488 0.24632 0.26935
 Zr919 Zr 0.98330 0.26530 0.24003
 O920 O 0.99536 0.25292 0.22676
 Zr921 Zr 0.98411 0.24251 0.26544
 O922 O 0.99611 0.22880 0.25366
 Zr923 Zr 1.00774 0.26687 0.26384
 O924 O 1.02111 0.25439 0.25209
 O925 O 1.01325 0.23611 0.23539
 O926 O 0.98700 0.26310 0.26113
 C927 C 1.01092 0.20728 0.23971
 C928 C 1.00996 0.23776 0.20581
 C929 C 1.04215 0.23910 0.23765
 C930 C 0.98842 0.29139 0.25764
 C931 C 0.95872 0.26096 0.26000
 C932 C 0.98941 0.26252 0.28992
 H933 H 0.96985 0.24237 0.24223
 H934 H 1.00728 0.24459 0.27913
 H935 H 1.01906 0.23010 0.22962
 H936 H 1.00592 0.27963 0.23983
 H937 H 0.98723 0.27509 0.21551
 H938 H 1.01024 0.27781 0.21632
 H939 H 0.99263 0.22869 0.28669
 H940 H 1.00786 0.21497 0.27273
 H941 H 0.97012 0.25845 0.21799
 H942 H 0.97796 0.23841 0.21093
 H943 H 1.02269 0.26020 0.28501
 H944 H 1.03606 0.24434 0.27120
 H945 H 0.97739 0.21369 0.24324
 H946 H 0.96337 0.22753 0.25833
 H947 H 1.03595 0.27175 0.24005
 H948 H 1.02210 0.28712 0.25440
 O949 O 0.78596 0.99852 0.76715
 O950 O 0.78037 1.02233 0.76721
 O951 O 0.75082 0.98031 0.78577
 O952 O 0.72820 0.98003 0.78210
 O953 O 0.76792 0.96351 0.74879
 O954 O 0.76641 0.96954 0.72473
 O955 O 0.71316 1.01589 0.74985
 O956 O 0.71743 1.01280 0.77374
 O957 O 0.74757 1.03580 0.73385
 O958 O 0.77220 1.03146 0.73414
 O959 O 0.73181 1.00127 0.71360
 O960 O 0.73321 0.97660 0.71759
 O961 O 0.71369 1.00068 0.73209
 O962 O 0.71900 0.97562 0.73269
 O963 O 0.74730 1.01851 0.71449
 O964 O 0.77264 1.01723 0.71914
 O965 O 0.73077 1.03445 0.75006
 O966 O 0.73292 1.02906 0.77498
 O967 O 0.78625 0.98290 0.74973
 O968 O 0.78110 0.98535 0.72532
 O969 O 0.75148 0.96219 0.76540
 O970 O 0.72687 0.96693 0.76359
 O971 O 0.76670 0.99726 0.78661
 O972 O 0.76508 1.02142 0.78247
 Zr973 Zr 0.76588 1.00634 0.76684
 O974 O 0.75351 1.01966 0.75525
 Zr975 Zr 0.74251 0.98172 0.76574
 O976 O 0.72898 0.99410 0.75432
 Zr977 Zr 0.76644 0.98360 0.74133
 O978 O 0.75393 0.99582 0.72867
 Zr979 Zr 0.73283 1.01477 0.75847
 O980 O 0.74516 1.00236 0.77135
 Zr981 Zr 0.75670 1.01640 0.73399
 O982 O 0.77044 1.00427 0.74561
 Zr983 Zr 0.73327 0.99186 0.73310
 O984 O 0.74582 0.97830 0.74447
 O985 O 0.76307 0.98582 0.76245
 O986 O 0.73602 1.01251 0.73725
 C987 C 0.79194 0.98936 0.75977
 C988 C 0.76016 0.98720 0.79203
 C989 C 0.76127 0.95702 0.75821
 C990 C 0.70769 1.00984 0.73943
 C991 C 0.73745 1.04085 0.74061
 C992 C 0.73785 1.01169 0.70836
 H993 H 0.75559 1.02917 0.75788
 H994 H 0.75613 0.99406 0.71883
 H995 H 0.76906 0.97991 0.76810
 H996 H 0.71942 0.99171 0.75658
 H997 H 0.72165 1.00808 0.78173
 H998 H 0.72004 0.98536 0.77945
 H999 H 0.77108 1.00987 0.71232
 H1000 H 0.78542 0.99442 0.72641
 H1001 H 0.74073 1.03532 0.77367
 H1002 H 0.75599 1.02057 0.78692
 H1003 H 0.74160 0.97776 0.71197
 H1004 H 0.75750 0.96475 0.72509
 H1005 H 0.78478 1.02244 0.75798
 H1006 H 0.77154 1.03644 0.74303
 H1007 H 0.72839 0.96231 0.75460
 H1008 H 0.71267 0.97681 0.74060
 O1009 O 0.71484 0.51887 0.24994
 O1010 O 0.71972 0.51688 0.27420
 O1011 O 0.75067 0.53817 0.23389
 O1012 O 0.77324 0.53416 0.23391
 O1013 O 0.73377 0.50316 0.21345
 O1014 O 0.73472 0.47913 0.21793
 O1015 O 0.78711 0.49972 0.26776
 O1016 O 0.78272 0.52378 0.26617
 O1017 O 0.75246 0.48261 0.28592
 O1018 O 0.72761 0.48430 0.28143
 O1019 O 0.76842 0.46545 0.25025
 O1020 O 0.76727 0.47119 0.22523
 O1021 O 0.78667 0.48339 0.25105
 O1022 O 0.78192 0.48569 0.22574
 O1023 O 0.75226 0.46524 0.26716
 O1024 O 0.72715 0.47036 0.26593
 O1025 O 0.76912 0.49876 0.28636
 O1026 O 0.76696 0.52178 0.28421
 O1027 O 0.71458 0.50261 0.23313
 O1028 O 0.71963 0.47872 0.23335
 O1029 O 0.75010 0.51967 0.21404
 O1030 O 0.77458 0.51721 0.21921
 O1031 O 0.73418 0.53779 0.25050
 O1032 O 0.73448 0.53158 0.27522
 Zr1033 Zr 0.73466 0.51775 0.25838
 O1034 O 0.74672 0.50529 0.27126
 Zr1035 Zr 0.75861 0.51827 0.23401
 O1036 O 0.77174 0.50585 0.24585
 Zr1037 Zr 0.73445 0.49441 0.23338
 O1038 O 0.74647 0.48090 0.24515
 Zr1039 Zr 0.76751 0.50844 0.26700
 O1040 O 0.75553 0.52231 0.25529
 Zr1041 Zr 0.74332 0.48471 0.26633
 O1042 O 0.73000 0.49712 0.25455
 Zr1043 Zr 0.76726 0.48524 0.24189
 O1044 O 0.75522 0.49769 0.22879
 O1045 O 0.73790 0.51494 0.23732
 O1046 O 0.76411 0.48787 0.26303
 C1047 C 0.70885 0.51208 0.24028
 C1048 C 0.74117 0.54387 0.24105
 C1049 C 0.74061 0.51294 0.20787
 C1050 C 0.79258 0.48986 0.26096
 C1051 C 0.76248 0.48879 0.29180
 C1052 C 0.76197 0.45964 0.26024
 H1053 H 0.74469 0.50734 0.28108
 H1054 H 0.74418 0.47141 0.24263
 H1055 H 0.73208 0.52097 0.23160
 H1056 H 0.78137 0.50812 0.24376
 H1057 H 0.77811 0.53230 0.26328
 H1058 H 0.78093 0.53120 0.23983
 H1059 H 0.72863 0.46425 0.25791
 H1060 H 0.71534 0.47879 0.24265
 H1061 H 0.76179 0.52991 0.28125
 H1062 H 0.74208 0.53809 0.27380
 H1063 H 0.75912 0.46530 0.22624
 H1064 H 0.74380 0.47965 0.21342
 H1065 H 0.71538 0.50778 0.27352
 H1066 H 0.72882 0.49234 0.28750
 H1067 H 0.77314 0.50874 0.21383
 H1068 H 0.78807 0.49353 0.22741
 O1069 O 0.53662 0.23350 0.74955
 O1070 O 0.53173 0.23550 0.77386
 O1071 O 0.50101 0.21337 0.73401
 O1072 O 0.47840 0.21707 0.73392
 O1073 O 0.51717 0.24868 0.71299
 O1074 O 0.51607 0.27266 0.71737
 O1075 O 0.46417 0.25159 0.76777
 O1076 O 0.46897 0.22757 0.76638
 O1077 O 0.49857 0.26953 0.78537
 O1078 O 0.52346 0.26805 0.78082
 O1079 O 0.48208 0.28584 0.74997
 O1080 O 0.48331 0.28008 0.72485
 O1081 O 0.46423 0.26767 0.75082
 O1082 O 0.46893 0.26532 0.72552
 O1083 O 0.49888 0.28685 0.76616
 O1084 O 0.52380 0.28179 0.76521
 O1085 O 0.48236 0.25294 0.78620
 O1086 O 0.48477 0.22998 0.78420
 O1087 O 0.53652 0.24930 0.73230
 O1088 O 0.53124 0.27331 0.73276
 O1089 O 0.50124 0.23180 0.71387
 O1090 O 0.47667 0.23389 0.71928
 O1091 O 0.51813 0.21445 0.74988
 O1092 O 0.51701 0.22039 0.77480
 Zr1093 Zr 0.51684 0.23433 0.75806
 O1094 O 0.50468 0.24672 0.77092
 Zr1095 Zr 0.49277 0.23319 0.73391
 O1096 O 0.47951 0.24548 0.74576
 Zr1097 Zr 0.51659 0.25745 0.73288
 O1098 O 0.50438 0.27085 0.74459
 Zr1099 Zr 0.48392 0.24318 0.76689
 O1100 O 0.49604 0.22938 0.75520
 Zr1101 Zr 0.50774 0.26732 0.76578
 O1102 O 0.52120 0.25499 0.75403
 Zr1103 Zr 0.48364 0.26612 0.74158
 O1104 O 0.49584 0.25377 0.72849
 O1105 O 0.51342 0.23693 0.73701
 O1106 O 0.48697 0.26378 0.76273
 C1107 C 0.54239 0.23998 0.73954
 C1108 C 0.51109 0.20810 0.74067
 C1109 C 0.51053 0.23871 0.70756
 C1110 C 0.45849 0.26125 0.76087
 C1111 C 0.48881 0.26311 0.79146
 C1112 C 0.48883 0.29208 0.75947
 H1113 H 0.50680 0.24478 0.78074
 H1114 H 0.50650 0.28035 0.74195
 H1115 H 0.51929 0.23099 0.73124
 H1116 H 0.46991 0.24303 0.74378
 H1117 H 0.47372 0.21909 0.76357
 H1118 H 0.47083 0.21981 0.74012
 H1119 H 0.52256 0.28744 0.75681
 H1120 H 0.53591 0.27299 0.74185
 H1121 H 0.49034 0.22207 0.78136
 H1122 H 0.50974 0.21358 0.77306
 H1123 H 0.49122 0.28628 0.72590
 H1124 H 0.50689 0.27215 0.71308
 H1125 H 0.53594 0.24465 0.77312
 H1126 H 0.52232 0.26011 0.78704
 H1127 H 0.47801 0.24227 0.71373
 H1128 H 0.46296 0.25736 0.72726
 O1129 O 0.26606 0.78677 0.49968
 O1130 O 0.26573 0.78059 0.52383
 O1131 O 0.28422 0.75184 0.48064
 O1132 O 0.28001 0.72936 0.47970
 O1133 O 0.24808 0.76997 0.46357
 O1134 O 0.22416 0.76854 0.46951
 O1135 O 0.24775 0.71391 0.51509
 O1136 O 0.27176 0.71846 0.51220
 O1137 O 0.23244 0.74804 0.53644
 O1138 O 0.23347 0.77278 0.53267
 O1139 O 0.21230 0.73367 0.50095
 O1140 O 0.21650 0.73587 0.47574
 O1141 O 0.23020 0.71528 0.49977
 O1142 O 0.23086 0.72120 0.47459
 O1143 O 0.21343 0.74867 0.51885
 O1144 O 0.21844 0.77376 0.51837
 O1145 O 0.24784 0.73081 0.53452
 O1146 O 0.27082 0.73311 0.53112
 O1147 O 0.24882 0.78792 0.48393
 O1148 O 0.22485 0.78296 0.48571
 O1149 O 0.26411 0.75324 0.46199
 O1150 O 0.26215 0.72866 0.46631
 O1151 O 0.28469 0.76795 0.49759
 O1152 O 0.28060 0.76571 0.52271
 Zr1153 Zr 0.26540 0.76662 0.50715
 O1154 O 0.25375 0.75400 0.52026
 Zr1155 Zr 0.26420 0.74394 0.48166
 O1156 O 0.25245 0.73031 0.49367
 Zr1157 Zr 0.24044 0.76814 0.48390
 O1158 O 0.22764 0.75561 0.49599
 Zr1159 Zr 0.25645 0.73349 0.51476
 O1160 O 0.26965 0.74598 0.50274
 Zr1161 Zr 0.23285 0.75770 0.51699
 O1162 O 0.24456 0.77154 0.50503
 Zr1163 Zr 0.23161 0.73505 0.49140
 O1164 O 0.24329 0.74766 0.47807
 O1165 O 0.26118 0.76440 0.48621
 O1166 O 0.23563 0.73713 0.51246
 C1167 C 0.25886 0.79320 0.49065
 C1168 C 0.29022 0.76136 0.48753
 C1169 C 0.25724 0.76323 0.45689
 C1170 C 0.23734 0.70886 0.50883
 C1171 C 0.23871 0.73754 0.54122
 C1172 C 0.20721 0.73953 0.51169
 H1173 H 0.25649 0.75556 0.52999
 H1174 H 0.21799 0.75804 0.49425
 H1175 H 0.26683 0.77046 0.48035
 H1176 H 0.25453 0.72082 0.49096
 H1177 H 0.28015 0.72326 0.50915
 H1178 H 0.27755 0.72155 0.48568
 H1179 H 0.21183 0.77266 0.51070
 H1180 H 0.22558 0.78677 0.49518
 H1181 H 0.27858 0.73883 0.52813
 H1182 H 0.28701 0.75833 0.52015
 H1183 H 0.21086 0.74407 0.47740
 H1184 H 0.22456 0.75982 0.46435
 H1185 H 0.25677 0.78529 0.52380
 H1186 H 0.24210 0.77160 0.53785
 H1187 H 0.25326 0.73022 0.46168
 H1188 H 0.23872 0.71491 0.47546
 O1189 O 0.28740 0.25207 0.98287
 O1190 O 0.28199 0.22814 0.98289
 O1191 O 0.25169 0.26937 0.96375
 O1192 O 0.22914 0.26968 0.96780
 O1193 O 0.26869 0.28699 1.00081
 O1194 O 0.26720 0.28099 1.02501
 O1195 O 0.21461 0.23408 1.00026
 O1196 O 0.21937 0.23722 0.97593
 O1197 O 0.24928 0.21448 1.01622
 O1198 O 0.27399 0.21909 1.01542
 O1199 O 0.23341 0.24889 1.03642
 O1200 O 0.23466 0.27379 1.03209
 O1201 O 0.21519 0.24913 1.01814
 O1202 O 0.21995 0.27412 1.01747
 O1203 O 0.24913 0.23186 1.03549
 O1204 O 0.27425 0.23319 1.03069
 O1205 O 0.23224 0.21572 1.00030
 O1206 O 0.23478 0.21918 0.97702
 O1207 O 0.28737 0.26796 1.00002
 O1208 O 0.28234 0.26564 1.02432
 O1209 O 0.25227 0.28793 0.98417
 O1210 O 0.22774 0.28274 0.98590
 O1211 O 0.26859 0.25346 0.96352
 O1212 O 0.26735 0.22870 0.96763
 Zr1213 Zr 0.26740 0.24403 0.98307
 O1214 O 0.25504 0.23063 0.99465
 Zr1215 Zr 0.24363 0.26821 0.98397
 O1216 O 0.23026 0.25585 0.99567
 Zr1217 Zr 0.26757 0.26693 1.00841
 O1218 O 0.25532 0.25453 1.02118
 Zr1219 Zr 0.23432 0.23524 0.99164
 O1220 O 0.24659 0.24756 0.97849
 Zr1221 Zr 0.25831 0.23395 1.01589
 O1222 O 0.27189 0.24630 1.00427
 Zr1223 Zr 0.23461 0.25825 1.01686
 O1224 O 0.24689 0.27188 1.00522
 O1225 O 0.26425 0.26453 0.98732
 O1226 O 0.23758 0.23764 1.01279
 C1227 C 0.29321 0.26143 0.99011
 C1228 C 0.26155 0.26297 0.95779
 C1229 C 0.26194 0.29331 0.99137
 C1230 C 0.20921 0.23995 1.01084
 C1231 C 0.23903 0.20939 1.00970
 C1232 C 0.23965 0.23859 1.04167
 H1233 H 0.25699 0.22111 0.99188
 H1234 H 0.25756 0.25635 1.03098
 H1235 H 0.27017 0.27053 0.98165
 H1236 H 0.22067 0.25813 0.99344
 H1237 H 0.22418 0.24044 0.96750
 H1238 H 0.22155 0.26343 0.97013
 H1239 H 0.27292 0.24082 1.03724
 H1240 H 0.28665 0.25655 1.02344
 H1241 H 0.24045 0.22239 0.96921
 H1242 H 0.25989 0.23087 0.96108
 H1243 H 0.24278 0.27240 1.03802
 H1244 H 0.25832 0.28580 1.02447
 H1245 H 0.28648 0.22824 0.99208
 H1246 H 0.27302 0.21387 1.00671
 H1247 H 0.22901 0.28733 0.99493
 H1248 H 0.21387 0.27304 1.00937
 C1249 C 0.29467 0.36711 0.79104
 C1250 C 0.30870 0.36409 0.79020
 C1251 C 0.31384 0.35191 0.79556
 C1252 C 0.30508 0.34228 0.80171
 C1253 C 0.29100 0.34513 0.80225
 C1254 C 0.28587 0.35742 0.79705
 C1255 C 0.28935 0.38042 0.78593
 C1256 C 0.27639 0.38138 0.77968
 C1257 C 0.27145 0.39395 0.77500
 C1258 C 0.27944 0.40577 0.77630
 C1259 C 0.29237 0.40484 0.78251
 C1260 C 0.29722 0.39235 0.78736
 C1261 C 0.27438 0.41911 0.77128
 C1262 C 0.28289 0.42754 0.76329
 C1263 C 0.27849 0.44045 0.75919
 C1264 C 0.26554 0.44530 0.76315
 C1265 C 0.25692 0.43675 0.77095
 C1266 C 0.26126 0.42372 0.77488
 H1267 H 0.31577 0.37116 0.78541
 H1268 H 0.32477 0.35019 0.79512
 H1269 H 0.28391 0.33788 0.80672
 H1270 H 0.27503 0.35943 0.79801
 H1271 H 0.27012 0.37240 0.77822
 H1272 H 0.26148 0.39441 0.77016
 H1273 H 0.29863 0.41386 0.78383
 H1274 H 0.30709 0.39210 0.79242
 H1275 H 0.29301 0.42415 0.76030
 H1276 H 0.28542 0.44680 0.75326
 H1277 H 0.24688 0.44019 0.77415
 H1278 H 0.25455 0.41742 0.78111
 C1279 C 0.29629 -0.13205 0.29166
 C1280 C 0.29283 -0.13564 0.30526
 C1281 C 0.29813 -0.14742 0.31132
 C1282 C 0.30703 -0.15616 0.30391
 C1283 C 0.31044 -0.15240 0.29017
 C1284 C 0.30519 -0.14051 0.28419
 C1285 C 0.29076 -0.11937 0.28545
 C1286 C 0.29933 -0.11040 0.27814
 C1287 C 0.29427 -0.09803 0.27309
 C1288 C 0.28049 -0.09441 0.27515
 C1289 C 0.27186 -0.10360 0.28212
 C1290 C 0.27694 -0.11591 0.28726
 C1291 C 0.27527 -0.08093 0.27050
 C1292 C 0.26595 -0.07362 0.27875
 C1293 C 0.26133 -0.06076 0.27467
 C1294 C 0.26597 -0.05483 0.26226
 C1295 C 0.27520 -0.06218 0.25393
 C1296 C 0.27976 -0.07509 0.25799
 H1297 H 0.28625 -0.12911 0.31139
 H1298 H 0.29560 -0.14918 0.32207
 H1299 H 0.31676 -0.15882 0.28369
 H1300 H 0.30789 -0.13806 0.27359
 H1301 H 0.31005 -0.11275 0.27673
 H1302 H 0.30125 -0.09111 0.26794
 H1303 H 0.26114 -0.10128 0.28364
 H1304 H 0.27006 -0.12274 0.29267
 H1305 H 0.26248 -0.07768 0.28857
 H1306 H 0.25435 -0.05535 0.28142
 H1307 H 0.27896 -0.05793 0.24430
 H1308 H 0.28678 -0.08052 0.25129
 C1309 C 0.79646 0.86623 0.79157
 C1310 C 0.81026 0.86271 0.78989
 C1311 C 0.81555 0.85092 0.79597
 C1312 C 0.80718 0.84209 0.80389
 C1313 C 0.79321 0.84559 0.80521
 C1314 C 0.78798 0.85746 0.79922
 C1315 C 0.79104 0.87915 0.78566
 C1316 C 0.77771 0.87984 0.78026
 C1317 C 0.77256 0.89212 0.77505
 C1318 C 0.78069 0.90392 0.77500
 C1319 C 0.79404 0.90323 0.78027
 C1320 C 0.79913 0.89101 0.78560
 C1321 C 0.77523 0.91705 0.76981
 C1322 C 0.78324 0.92539 0.76120
 C1323 C 0.77848 0.93817 0.75703
 C1324 C 0.76566 0.94295 0.76151
 C1325 C 0.75753 0.93445 0.76988
 C1326 C 0.76223 0.92160 0.77392
 H1327 H 0.81707 0.86913 0.78392
 H1328 H 0.82641 0.84924 0.79487
 H1329 H 0.78602 0.83906 0.81055
 H1330 H 0.77729 0.85987 0.80077
 H1331 H 0.77127 0.87087 0.77993
 H1332 H 0.76227 0.89237 0.77093
 H1333 H 0.80044 0.91224 0.78057
 H1334 H 0.80933 0.89096 0.78995
 H1335 H 0.79325 0.92206 0.75779
 H1336 H 0.78504 0.94446 0.75063
 H1337 H 0.74761 0.93783 0.77350
 H1338 H 0.75591 0.91540 0.78065
 C1339 C 0.45381 0.88142 0.29369
 C1340 C 0.46261 0.89111 0.29970
 C1341 C 0.45749 0.90348 0.30471
 C1342 C 0.44344 0.90643 0.30391
 C1343 C 0.43468 0.89674 0.29788
 C1344 C 0.43980 0.88445 0.29276
 C1345 C 0.45915 0.86815 0.28852
 C1346 C 0.45136 0.85617 0.29001
 C1347 C 0.45620 0.84373 0.28497
 C1348 C 0.46901 0.84293 0.27848
 C1349 C 0.47691 0.85482 0.27711
 C1350 C 0.47200 0.86731 0.28201
 C1351 C 0.47413 0.82967 0.27329
 C1352 C 0.48752 0.82542 0.27622
 C1353 C 0.49209 0.81259 0.27194
 C1354 C 0.48341 0.80382 0.26449
 C1355 C 0.47012 0.80824 0.26127
 C1356 C 0.46550 0.82099 0.26570
 H1357 H 0.47343 0.88906 0.30074
 H1358 H 0.46455 0.91077 0.30916
 H1359 H 0.42378 0.89854 0.29728
 H1360 H 0.43276 0.87735 0.28801
 H1361 H 0.44156 0.85636 0.29524
 H1362 H 0.45001 0.83467 0.28637
 H1363 H 0.48678 0.85447 0.27203
 H1364 H 0.47818 0.87635 0.28049
 H1365 H 0.49433 0.83188 0.28214
 H1366 H 0.50238 0.80948 0.27458
 H1367 H 0.46315 0.80170 0.25562
 H1368 H 0.45517 0.82409 0.26321
 C1369 C -0.04578 0.88296 0.79199
 C1370 C -0.05985 0.88586 0.79153
 C1371 C -0.06495 0.89804 0.79693
 C1372 C -0.05610 0.90779 0.80275
 C1373 C -0.04199 0.90508 0.80287
 C1374 C -0.03689 0.89279 0.79762
 C1375 C -0.04051 0.86963 0.78689
 C1376 C -0.02776 0.86871 0.78017
 C1377 C -0.02286 0.85613 0.77548
 C1378 C -0.03067 0.84424 0.77726
 C1379 C -0.04338 0.84513 0.78395
 C1380 C -0.04820 0.85765 0.78878
 C1381 C -0.02561 0.83089 0.77225
 C1382 C -0.03432 0.82214 0.76485
 C1383 C -0.02976 0.80932 0.76055
 C1384 C -0.01646 0.80491 0.76371
 C1385 C -0.00770 0.81373 0.77101
 C1386 C -0.01221 0.82664 0.77514
 H1387 H -0.06698 0.87867 0.78704
 H1388 H -0.07589 0.89968 0.79680
 H1389 H -0.03485 0.91243 0.80707
 H1390 H -0.02602 0.89088 0.79826
 H1391 H -0.02165 0.87774 0.77834
 H1392 H -0.01307 0.85571 0.77025
 H1393 H -0.04950 0.83607 0.78565
 H1394 H -0.05789 0.85788 0.79421
 H1395 H -0.04466 0.82523 0.76240
 H1396 H -0.03679 0.80275 0.75502
 H1397 H 0.00261 0.81063 0.77359
 H1398 H -0.00534 0.83317 0.78092
 C1399 C -0.04396 -0.13460 -0.04039
 C1400 C -0.03547 -0.14477 -0.04599
 C1401 C -0.04103 -0.15653 -0.05190
 C1402 C -0.05530 -0.15868 -0.05216
 C1403 C -0.06372 -0.14868 -0.04601
 C1404 C -0.05815 -0.13679 -0.04039
 C1405 C -0.03811 -0.12156 -0.03505
 C1406 C -0.04442 -0.11449 -0.02409
 C1407 C -0.03946 -0.10182 -0.01974
 C1408 C -0.02789 -0.09598 -0.02605
 C1409 C -0.02131 -0.10327 -0.03669
 C1410 C -0.02642 -0.11580 -0.04122
 C1411 C -0.02295 -0.08219 -0.02186
 C1412 C -0.01718 -0.07330 -0.03173
 C1413 C -0.01275 -0.06030 -0.02792
 C1414 C -0.01424 -0.05572 -0.01422
 C1415 C -0.02003 -0.06450 -0.00434
 C1416 C -0.02420 -0.07764 -0.00808
 H1417 H -0.02446 -0.14369 -0.04578
 H1418 H -0.03401 -0.16411 -0.05588
 H1419 H -0.07475 -0.14950 -0.04629
 H1420 H -0.06509 -0.12909 -0.03650
 H1421 H -0.05328 -0.11868 -0.01888
 H1422 H -0.04493 -0.09650 -0.01163
 H1423 H -0.01221 -0.09928 -0.04162
 H1424 H -0.02135 -0.12079 -0.04980
 H1425 H -0.01634 -0.07625 -0.04250
 H1426 H -0.00850 -0.05367 -0.03580
 H1427 H -0.02121 -0.06125 0.00632
 H1428 H -0.02834 -0.08424 -0.00012
 C1429 C -0.04512 0.36567 0.45721
 C1430 C -0.05866 0.36179 0.45994
 C1431 C -0.06413 0.34995 0.45414
 C1432 C -0.05620 0.34143 0.44546
 C1433 C -0.04243 0.34524 0.44314
 C1434 C -0.03703 0.35717 0.44888
 C1435 C -0.03965 0.37873 0.46276
 C1436 C -0.02603 0.37976 0.46732
 C1437 C -0.02094 0.39213 0.47238
 C1438 C -0.02940 0.40367 0.47310
 C1439 C -0.04299 0.40266 0.46857
 C1440 C -0.04803 0.39036 0.46340
 C1441 C -0.02411 0.41683 0.47841
 C1442 C -0.03199 0.42468 0.48759
 C1443 C -0.02737 0.43741 0.49207
 C1444 C -0.01480 0.44263 0.48736
 C1445 C -0.00681 0.43466 0.47834
 C1446 C -0.01139 0.42186 0.47397
 H1447 H -0.06515 0.36800 0.46648
 H1448 H -0.07485 0.34803 0.45604
 H1449 H -0.03556 0.33895 0.43713
 H1450 H -0.02654 0.35986 0.44655
 H1451 H -0.01935 0.37097 0.46714
 H1452 H -0.01046 0.39262 0.47593
 H1453 H -0.04966 0.41147 0.46878
 H1454 H -0.05847 0.39004 0.45968
 H1455 H -0.04177 0.42099 0.49127
 H1456 H -0.03381 0.44329 0.49898
 H1457 H 0.00291 0.43838 0.47452
 H1458 H -0.00517 0.41605 0.46680
 C1459 C 0.45684 -0.13655 0.46141
 C1460 C 0.46531 -0.14668 0.45572
 C1461 C 0.45973 -0.15847 0.44989
 C1462 C 0.44547 -0.16068 0.44977
 C1463 C 0.43707 -0.15073 0.45605
 C1464 C 0.44266 -0.13882 0.46161
 C1465 C 0.46268 -0.12346 0.46661
 C1466 C 0.45652 -0.11643 0.47768
 C1467 C 0.46142 -0.10369 0.48187
 C1468 C 0.47276 -0.09771 0.47527
 C1469 C 0.47921 -0.10495 0.46451
 C1470 C 0.47416 -0.11758 0.46016
 C1471 C 0.47754 -0.08381 0.47925
 C1472 C 0.48280 -0.07483 0.46919
 C1473 C 0.48681 -0.06162 0.47278
 C1474 C 0.48543 -0.05697 0.48646
 C1475 C 0.48028 -0.06591 0.49657
 C1476 C 0.47651 -0.07921 0.49304
 H1477 H 0.47632 -0.14553 0.45578
 H1478 H 0.46675 -0.16601 0.44583
 H1479 H 0.42605 -0.15159 0.45591
 H1480 H 0.43574 -0.13115 0.46560
 H1481 H 0.44783 -0.12071 0.48310
 H1482 H 0.45605 -0.09840 0.49008
 H1483 H 0.48813 -0.10084 0.45935
 H1484 H 0.47910 -0.12254 0.45148
 H1485 H 0.48348 -0.07783 0.45842
 H1486 H 0.49059 -0.05489 0.46473
 H1487 H 0.47921 -0.06262 0.50723
 H1488 H 0.47279 -0.08589 0.50114
 C1489 C 0.45769 0.36596 -0.04014
 C1490 C 0.46580 0.35726 -0.04822
 C1491 C 0.46035 0.34529 -0.05383
 C1492 C 0.44651 0.34168 -0.05163
 C1493 C 0.43855 0.35042 -0.04319
 C1494 C 0.44408 0.36232 -0.03754
 C1495 C 0.46322 0.37905 -0.03487
 C1496 C 0.46031 0.38345 -0.02133
 C1497 C 0.46506 0.39607 -0.01661
 C1498 C 0.47276 0.40461 -0.02535
 C1499 C 0.47575 0.40012 -0.03886
 C1500 C 0.47108 0.38747 -0.04355
 C1501 C 0.47742 0.41825 -0.02056
 C1502 C 0.49024 0.42337 -0.02461
 C1503 C 0.49436 0.43645 -0.02068
 C1504 C 0.48581 0.44469 -0.01249
 C1505 C 0.47311 0.43948 -0.00818
 C1506 C 0.46894 0.42643 -0.01221
 H1507 H 0.47644 0.35968 -0.05015
 H1508 H 0.46724 0.33879 -0.05957
 H1509 H 0.42778 0.34866 -0.04148
 H1510 H 0.43750 0.36897 -0.03154
 H1511 H 0.45440 0.37709 -0.01437
 H1512 H 0.46277 0.39910 -0.00608
 H1513 H 0.48142 0.40653 -0.04597
 H1514 H 0.47329 0.38445 -0.05410
 H1515 H 0.49712 0.41726 -0.03083
 H1516 H 0.50425 0.44011 -0.02410
 H1517 H 0.46623 0.44561 -0.00197
 H1518 H 0.45892 0.42289 -0.00907
 C1519 C 0.79624 0.38042 0.45553
 C1520 C 0.81035 0.38302 0.45631
 C1521 C 0.81586 0.39508 0.45101
 C1522 C 0.80738 0.40501 0.44498
 C1523 C 0.79321 0.40258 0.44450
 C1524 C 0.78772 0.39041 0.44963
 C1525 C 0.79052 0.36725 0.46064
 C1526 C 0.77753 0.36664 0.46691
 C1527 C 0.77228 0.35424 0.47172
 C1528 C 0.77999 0.34223 0.47056
 C1529 C 0.79291 0.34278 0.46427
 C1530 C 0.79807 0.35511 0.45927
 C1531 C 0.77469 0.32911 0.47593
 C1532 C 0.78301 0.32083 0.48425
 C1533 C 0.77833 0.30818 0.48889
 C1534 C 0.76529 0.30343 0.48513
 C1535 C 0.75688 0.31181 0.47693
 C1536 C 0.76151 0.32459 0.47247
 H1537 H 0.81722 0.37572 0.46103
 H1538 H 0.82683 0.39647 0.45141
 H1539 H 0.78633 0.41007 0.44014
 H1540 H 0.77683 0.38874 0.44871
 H1541 H 0.77150 0.37579 0.46833
 H1542 H 0.76232 0.35406 0.47663
 H1543 H 0.79896 0.33361 0.46306
 H1544 H 0.80794 0.35507 0.45418
 H1545 H 0.79318 0.32415 0.48714
 H1546 H 0.78508 0.30198 0.49515
 H1547 H 0.74679 0.30844 0.47386
 H1548 H 0.75494 0.33078 0.46600
 C1549 C 0.79632 0.88283 -0.04238
 C1550 C 0.78792 0.89176 -0.04987
 C1551 C 0.79317 0.90386 -0.05539
 C1552 C 0.80709 0.90742 -0.05372
 C1553 C 0.81538 0.89841 -0.04595
 C1554 C 0.81006 0.88640 -0.04035
 C1555 C 0.79088 0.86971 -0.03691
 C1556 C 0.77748 0.86879 -0.03169
 C1557 C 0.77239 0.85639 -0.02672
 C1558 C 0.78064 0.84468 -0.02673
 C1559 C 0.79403 0.84557 -0.03190
 C1560 C 0.79907 0.85791 -0.03700
 C1561 C 0.77534 0.83150 -0.02148
 C1562 C 0.78339 0.82340 -0.01270
 C1563 C 0.77870 0.81070 -0.00822
 C1564 C 0.76590 0.80574 -0.01254
 C1565 C 0.75776 0.81395 -0.02117
 C1566 C 0.76240 0.82674 -0.02553
 H1567 H 0.77728 0.88932 -0.05168
 H1568 H 0.78604 0.91050 -0.06064
 H1569 H 0.82621 0.90013 -0.04462
 H1570 H 0.81681 0.87985 -0.03447
 H1571 H 0.77096 0.87770 -0.03126
 H1572 H 0.76207 0.85598 -0.02266
 H1573 H 0.80053 0.83664 -0.03223
 H1574 H 0.80932 0.85814 -0.04123
 H1575 H 0.79335 0.82690 -0.00933
 H1576 H 0.78524 0.80465 -0.00160
 H1577 H 0.74786 0.81043 -0.02470
 H1578 H 0.75605 0.83276 -0.03238
 C1579 C 0.79469 0.29607 0.36555
 C1580 C 0.80055 0.28749 0.35549
 C1581 C 0.80590 0.29290 0.34321
 C1582 C 0.80565 0.30704 0.34076
 C1583 C 0.79963 0.31557 0.35076
 C1584 C 0.79413 0.31015 0.36292
 C1585 C 0.78942 0.29045 0.37887
 C1586 C 0.79088 0.29790 0.39124
 C1587 C 0.78583 0.29279 0.40374
 C1588 C 0.77939 0.28002 0.40422
 C1589 C 0.77806 0.27244 0.39196
 C1590 C 0.78295 0.27764 0.37939
 C1591 C 0.77414 0.27466 0.41755
 C1592 C 0.77717 0.26130 0.42175
 C1593 C 0.77280 0.25652 0.43467
 C1594 C 0.76512 0.26495 0.44352
 C1595 C 0.76183 0.27822 0.43914
 C1596 C 0.76637 0.28305 0.42633
 H1597 H 0.80127 0.27661 0.35720
 H1598 H 0.81027 0.28599 0.33567
 H1599 H 0.79942 0.32652 0.34936
 H1600 H 0.78947 0.31706 0.37028
 H1601 H 0.79610 0.30764 0.39134
 H1602 H 0.78717 0.29873 0.41310
 H1603 H 0.77303 0.26260 0.39206
 H1604 H 0.78146 0.27170 0.37006
 H1605 H 0.78323 0.25468 0.41519
 H1606 H 0.77548 0.24625 0.43776
 H1607 H 0.75600 0.28499 0.44575
 H1608 H 0.76382 0.29336 0.42326
 C1609 C 0.79441 0.79788 -0.13280
 C1610 C 0.79994 0.78888 -0.14268
 C1611 C 0.80549 0.79382 -0.15506
 C1612 C 0.80577 0.80789 -0.15783
 C1613 C 0.80022 0.81688 -0.14797
 C1614 C 0.79452 0.81193 -0.13568
 C1615 C 0.78875 0.79268 -0.11948
 C1616 C 0.79041 0.80017 -0.10715
 C1617 C 0.78516 0.79530 -0.09463
 C1618 C 0.77830 0.78275 -0.09408
 C1619 C 0.77666 0.77520 -0.10632
 C1620 C 0.78174 0.78015 -0.11890
 C1621 C 0.77310 0.77746 -0.08070
 C1622 C 0.77578 0.76396 -0.07670
 C1623 C 0.77149 0.75917 -0.06376
 C1624 C 0.76425 0.76773 -0.05466
 C1625 C 0.76131 0.78115 -0.05882
 C1626 C 0.76578 0.78599 -0.07167
 H1627 H 0.80021 0.77801 -0.14076
 H1628 H 0.80955 0.78659 -0.16248
 H1629 H 0.80046 0.82779 -0.14961
 H1630 H 0.79018 0.81916 -0.12844
 H1631 H 0.79599 0.80970 -0.10711
 H1632 H 0.78673 0.80122 -0.08529
 H1633 H 0.77129 0.76554 -0.10618
 H1634 H 0.78005 0.77421 -0.12820
 H1635 H 0.78150 0.75722 -0.08344
 H1636 H 0.77391 0.74878 -0.06086
 H1637 H 0.75583 0.78802 -0.05200
 H1638 H 0.76351 0.79642 -0.07456
 C1639 C 0.29512 0.45518 0.88591
 C1640 C 0.30061 0.46411 0.89586
 C1641 C 0.30584 0.45910 0.90834
 C1642 C 0.30588 0.44502 0.91112
 C1643 C 0.30039 0.43610 0.90117
 C1644 C 0.29500 0.44112 0.88878
 C1645 C 0.28970 0.46048 0.87253
 C1646 C 0.29130 0.45292 0.86024
 C1647 C 0.28618 0.45783 0.84769
 C1648 C 0.27953 0.47048 0.84708
 C1649 C 0.27801 0.47813 0.85928
 C1650 C 0.28294 0.47314 0.87189
 C1651 C 0.27429 0.47568 0.83371
 C1652 C 0.27730 0.48901 0.82936
 C1653 C 0.27299 0.49362 0.81637
 C1654 C 0.26540 0.48506 0.80759
 C1655 C 0.26209 0.47184 0.81214
 C1656 C 0.26658 0.46717 0.82502
 H1657 H 0.30107 0.47497 0.89396
 H1658 H 0.30981 0.46629 0.91584
 H1659 H 0.30043 0.42519 0.90283
 H1660 H 0.29066 0.43394 0.88149
 H1661 H 0.29671 0.44330 0.86024
 H1662 H 0.28765 0.45183 0.83838
 H1663 H 0.27280 0.48787 0.85907
 H1664 H 0.28130 0.47913 0.88115
 H1665 H 0.28330 0.49573 0.83586
 H1666 H 0.27569 0.50386 0.81315
 H1667 H 0.25633 0.46496 0.80558
 H1668 H 0.26405 0.45688 0.82820
 C1669 C 0.29608 -0.04624 0.38269
 C1670 C 0.30345 -0.03783 0.39178
 C1671 C 0.30820 -0.04284 0.40444
 C1672 C 0.30584 -0.05651 0.40848
 C1673 C 0.29841 -0.06487 0.39921
 C1674 C 0.29359 -0.05979 0.38660
 C1675 C 0.29104 -0.04092 0.36918
 C1676 C 0.29108 -0.04925 0.35732
 C1677 C 0.28622 -0.04433 0.34467
 C1678 C 0.28132 -0.03092 0.34354
 C1679 C 0.28136 -0.02253 0.35533
 C1680 C 0.28611 -0.02749 0.36802
 C1681 C 0.27618 -0.02574 0.33008
 C1682 C 0.28004 -0.01278 0.32525
 C1683 C 0.27549 -0.00808 0.31238
 C1684 C 0.26686 -0.01617 0.30414
 C1685 C 0.26284 -0.02906 0.30909
 C1686 C 0.26751 -0.03381 0.32189
 H1687 H 0.30564 -0.02734 0.38907
 H1688 H 0.31332 -0.03568 0.41119
 H1689 H 0.29665 -0.07555 0.40125
 H1690 H 0.28784 -0.06655 0.37991
 H1691 H 0.29506 -0.05954 0.35775
 H1692 H 0.28650 -0.05095 0.33569
 H1693 H 0.27749 -0.01220 0.35477
 H1694 H 0.28570 -0.02086 0.37698
 H1695 H 0.28681 -0.00640 0.33132
 H1696 H 0.27878 0.00189 0.30887
 H1697 H 0.25626 -0.03559 0.30298
 H1698 H 0.26428 -0.04378 0.32542
 C1699 C -0.04569 -0.04739 -0.13391
 C1700 C -0.05344 -0.03902 -0.14268
 C1701 C -0.05876 -0.04408 -0.15509
 C1702 C -0.05661 -0.05778 -0.15915
 C1703 C -0.04879 -0.06610 -0.15020
 C1704 C -0.04339 -0.06097 -0.13786
 C1705 C -0.04009 -0.04203 -0.12065
 C1706 C -0.03963 -0.05033 -0.10877
 C1707 C -0.03435 -0.04532 -0.09632
 C1708 C -0.02955 -0.03186 -0.09542
 C1709 C -0.03005 -0.02352 -0.10722
 C1710 C -0.03519 -0.02856 -0.11972
 C1711 C -0.02414 -0.02655 -0.08214
 C1712 C -0.02822 -0.01371 -0.07719
 C1713 C -0.02356 -0.00894 -0.06439
 C1714 C -0.01458 -0.01686 -0.05634
 C1715 C -0.01029 -0.02959 -0.06146
 C1716 C -0.01508 -0.03441 -0.07418
 H1717 H -0.05550 -0.02852 -0.13993
 H1718 H -0.06416 -0.03694 -0.16164
 H1719 H -0.04715 -0.07680 -0.15226
 H1720 H -0.03736 -0.06770 -0.13141
 H1721 H -0.04356 -0.06065 -0.10901
 H1722 H -0.03427 -0.05191 -0.08731
 H1723 H -0.02627 -0.01314 -0.10683
 H1724 H -0.03516 -0.02196 -0.12871
 H1725 H -0.03528 -0.00749 -0.08308
 H1726 H -0.02707 0.00090 -0.06075
 H1727 H -0.00342 -0.03596 -0.05552
 H1728 H -0.01169 -0.04429 -0.07782
 C1729 C -0.04496 0.45062 0.36769
 C1730 C -0.05040 0.45965 0.35782
 C1731 C -0.05577 0.45477 0.34536
 C1732 C -0.05602 0.44071 0.34251
 C1733 C -0.05057 0.43167 0.35237
 C1734 C -0.04504 0.43657 0.36476
 C1735 C -0.03939 0.45582 0.38104
 C1736 C -0.04109 0.44833 0.39336
 C1737 C -0.03596 0.45325 0.40591
 C1738 C -0.02918 0.46585 0.40647
 C1739 C -0.02749 0.47339 0.39423
 C1740 C -0.03245 0.46839 0.38164
 C1741 C -0.02399 0.47114 0.41984
 C1742 C -0.02673 0.48462 0.42390
 C1743 C -0.02228 0.48944 0.43676
 C1744 C -0.01481 0.48093 0.44570
 C1745 C -0.01186 0.46752 0.44149
 C1746 C -0.01649 0.46265 0.42873
 H1747 H -0.05070 0.47052 0.35977
 H1748 H -0.05968 0.46205 0.33793
 H1749 H -0.05074 0.42077 0.35063
 H1750 H -0.04076 0.42931 0.37200
 H1751 H -0.04661 0.43876 0.39338
 H1752 H -0.03754 0.44733 0.41525
 H1753 H -0.02216 0.48307 0.39439
 H1754 H -0.03071 0.47432 0.37234
 H1755 H -0.03258 0.49132 0.41725
 H1756 H -0.02471 0.49981 0.43972
 H1757 H -0.00622 0.46069 0.44819
 H1758 H -0.01419 0.45225 0.42579
 C1759 C 0.45276 -0.04645 0.36592
 C1760 C 0.43868 -0.04622 0.36298
 C1761 C 0.43367 -0.05168 0.35062
 C1762 C 0.44261 -0.05735 0.34077
 C1763 C 0.45669 -0.05751 0.34365
 C1764 C 0.46170 -0.05219 0.35610
 C1765 C 0.45803 -0.04080 0.37920
 C1766 C 0.47067 -0.03395 0.37972
 C1767 C 0.47557 -0.02866 0.39222
 C1768 C 0.46786 -0.02995 0.40443
 C1769 C 0.45524 -0.03675 0.40394
 C1770 C 0.45042 -0.04219 0.39150
 C1771 C 0.47295 -0.02435 0.41770
 C1772 C 0.46422 -0.01681 0.42634
 C1773 C 0.46878 -0.01208 0.43918
 C1774 C 0.48212 -0.01494 0.44373
 C1775 C 0.49093 -0.02230 0.43496
 C1776 C 0.48641 -0.02688 0.42203
 H1777 H 0.43150 -0.04171 0.37018
 H1778 H 0.42274 -0.05157 0.34888
 H1779 H 0.46389 -0.06166 0.33624
 H1780 H 0.47257 -0.05272 0.35807
 H1781 H 0.47670 -0.03249 0.37043
 H1782 H 0.48528 -0.02336 0.39232
 H1783 H 0.44920 -0.03807 0.41326
 H1784 H 0.44081 -0.04765 0.39158
 H1785 H 0.45383 -0.01463 0.42318
 H1786 H 0.46171 -0.00650 0.44570
 H1787 H 0.50127 -0.02466 0.43816
 H1788 H 0.49331 -0.03274 0.41558
 C1789 C 0.45575 0.45258 -0.13312
 C1790 C 0.45030 0.46166 -0.14295
 C1791 C 0.44499 0.45684 -0.15546
 C1792 C 0.44485 0.44280 -0.15842
 C1793 C 0.45023 0.43372 -0.14856
 C1794 C 0.45568 0.43855 -0.13612
 C1795 C 0.46139 0.45771 -0.11977
 C1796 C 0.45971 0.45018 -0.10748
 C1797 C 0.46496 0.45500 -0.09495
 C1798 C 0.47185 0.46755 -0.09438
 C1799 C 0.47352 0.47512 -0.10661
 C1800 C 0.46843 0.47021 -0.11919
 C1801 C 0.47706 0.47281 -0.08102
 C1802 C 0.47443 0.48632 -0.07702
 C1803 C 0.47886 0.49115 -0.06416
 C1804 C 0.48619 0.48261 -0.05514
 C1805 C 0.48906 0.46917 -0.05928
 C1806 C 0.48445 0.46429 -0.07205
 H1807 H 0.44998 0.47251 -0.14093
 H1808 H 0.44109 0.46415 -0.16288
 H1809 H 0.45010 0.42282 -0.15036
 H1810 H 0.45995 0.43126 -0.12890
 H1811 H 0.45412 0.44065 -0.10746
 H1812 H 0.46338 0.44907 -0.08561
 H1813 H 0.47893 0.48476 -0.10646
 H1814 H 0.47016 0.47616 -0.12847
 H1815 H 0.46866 0.49306 -0.08372
 H1816 H 0.47650 0.50156 -0.06127
 H1817 H 0.49460 0.46232 -0.05251
 H1818 H 0.48667 0.45385 -0.07495
 C1819 C 0.45738 0.79600 0.38593
 C1820 C 0.45105 0.78707 0.39537
 C1821 C 0.44555 0.79198 0.40778
 C1822 C 0.44615 0.80594 0.41102
 C1823 C 0.45257 0.81485 0.40162
 C1824 C 0.45818 0.80993 0.38929
 C1825 C 0.46289 0.79087 0.37253
 C1826 C 0.46175 0.79877 0.36042
 C1827 C 0.46677 0.79393 0.34779
 C1828 C 0.47291 0.78102 0.34694
 C1829 C 0.47406 0.77310 0.35900
 C1830 C 0.46917 0.77800 0.37167
 C1831 C 0.47783 0.77577 0.33344
 C1832 C 0.47462 0.76244 0.32924
 C1833 C 0.47869 0.75768 0.31623
 C1834 C 0.48621 0.76610 0.30722
 C1835 C 0.48966 0.77935 0.31156
 C1836 C 0.48544 0.78415 0.32451
 H1837 H 0.45009 0.77632 0.39307
 H1838 H 0.44081 0.78482 0.41485
 H1839 H 0.45304 0.82569 0.40365
 H1840 H 0.46315 0.81707 0.38237
 H1841 H 0.45673 0.80860 0.36061
 H1842 H 0.46557 0.80015 0.33860
 H1843 H 0.47888 0.76316 0.35864
 H1844 H 0.47044 0.77174 0.38082
 H1845 H 0.46865 0.75581 0.33588
 H1846 H 0.47587 0.74743 0.31319
 H1847 H 0.49538 0.78612 0.30484
 H1848 H 0.48813 0.79444 0.32756
 C1849 C -0.04320 0.79725 0.88447
 C1850 C -0.04962 0.78846 0.89399
 C1851 C -0.05511 0.79353 0.90633
 C1852 C -0.05444 0.80753 0.90942
 C1853 C -0.04793 0.81629 0.89995
 C1854 C -0.04231 0.81120 0.88769
 C1855 C -0.03772 0.79195 0.87111
 C1856 C -0.03874 0.79978 0.85894
 C1857 C -0.03371 0.79481 0.84637
 C1858 C -0.02770 0.78184 0.84563
 C1859 C -0.02670 0.77396 0.85773
 C1860 C -0.03159 0.77900 0.87036
 C1861 C -0.02266 0.77651 0.83220
 C1862 C -0.02595 0.76322 0.82794
 C1863 C -0.02176 0.75843 0.81497
 C1864 C -0.01402 0.76679 0.80608
 C1865 C -0.01049 0.77999 0.81050
 C1866 C -0.01484 0.78482 0.82339
 H1867 H -0.05064 0.77769 0.89179
 H1868 H -0.05992 0.78647 0.91346
 H1869 H -0.04740 0.82715 0.90187
 H1870 H -0.03726 0.81824 0.88072
 H1871 H -0.04366 0.80966 0.85904
 H1872 H -0.03479 0.80099 0.83714
 H1873 H -0.02197 0.76398 0.85746
 H1874 H -0.03042 0.77279 0.87955
 H1875 H -0.03207 0.75665 0.83450
 H1876 H -0.02464 0.74822 0.81188
 H1877 H -0.00462 0.78671 0.80387
 H1878 H -0.01208 0.79508 0.82648
 C1879 C 0.36832 0.79678 0.29754
 C1880 C 0.35878 0.80217 0.28812
 C1881 C 0.34650 0.80781 0.29280
 C1882 C 0.34347 0.80834 0.30704
 C1883 C 0.35306 0.80306 0.31646
 C1884 C 0.36528 0.79728 0.31177
 C1885 C 0.38139 0.79069 0.29255
 C1886 C 0.39352 0.79227 0.30021
 C1887 C 0.40577 0.78655 0.29555
 C1888 C 0.40623 0.77926 0.28305
 C1889 C 0.39416 0.77768 0.27535
 C1890 C 0.38186 0.78326 0.28008
 C1891 C 0.41932 0.77352 0.27795
 C1892 C 0.42334 0.77544 0.26412
 C1893 C 0.43597 0.77059 0.25945
 C1894 C 0.44475 0.76354 0.26848
 C1895 C 0.44057 0.76135 0.28225
 C1896 C 0.42802 0.76638 0.28695
 H1897 H 0.36085 0.80216 0.27710
 H1898 H 0.33929 0.81165 0.28524
 H1899 H 0.35120 0.80348 0.32751
 H1900 H 0.37227 0.79308 0.31933
 H1901 H 0.39362 0.79814 0.30971
 H1902 H 0.41498 0.78808 0.30158
 H1903 H 0.39422 0.77198 0.26574
 H1904 H 0.37270 0.78160 0.27404
 H1905 H 0.41687 0.78101 0.25700
 H1906 H 0.43889 0.77245 0.24879
 H1907 H 0.44714 0.75605 0.28949
 H1908 H 0.42510 0.76468 0.29765
 C1909 C -0.13182 0.79556 0.79734
 C1910 C -0.13291 0.80962 0.79984
 C1911 C -0.14519 0.81520 0.80456
 C1912 C -0.15654 0.80678 0.80708
 C1913 C -0.15544 0.79270 0.80470
 C1914 C -0.14321 0.78715 0.79973
 C1915 C -0.11880 0.78972 0.79229
 C1916 C -0.11858 0.78108 0.78069
 C1917 C -0.10620 0.77589 0.77572
 C1918 C -0.09387 0.77905 0.78244
 C1919 C -0.09412 0.78754 0.79415
 C1920 C -0.10646 0.79293 0.79896
 C1921 C -0.08073 0.77365 0.77720
 C1922 C -0.07148 0.76740 0.78631
 C1923 C -0.05888 0.76266 0.78148
 C1924 C -0.05519 0.76430 0.76750
 C1925 C -0.06448 0.77051 0.75838
 C1926 C -0.07720 0.77503 0.76317
 H1927 H -0.12428 0.81631 0.79799
 H1928 H -0.14580 0.82608 0.80640
 H1929 H -0.16409 0.78604 0.80654
 H1930 H -0.14257 0.77627 0.79794
 H1931 H -0.12797 0.77854 0.77535
 H1932 H -0.10624 0.76931 0.76670
 H1933 H -0.08472 0.79019 0.79943
 H1934 H -0.10640 0.79952 0.80796
 H1935 H -0.07401 0.76617 0.79716
 H1936 H -0.05188 0.75802 0.78878
 H1937 H -0.06191 0.77191 0.74755
 H1938 H -0.08415 0.77990 0.75598
 C1939 C 0.88195 0.29564 0.45355
 C1940 C 0.88485 0.30962 0.45493
 C1941 C 0.89702 0.31507 0.44977
 C1942 C 0.90673 0.30666 0.44325
 C1943 C 0.90393 0.29265 0.44203
 C1944 C 0.89167 0.28722 0.44705
 C1945 C 0.86879 0.28996 0.45875
 C1946 C 0.86818 0.27682 0.46460
 C1947 C 0.85580 0.27157 0.46953
 C1948 C 0.84382 0.27942 0.46889
 C1949 C 0.84439 0.29251 0.46306
 C1950 C 0.85670 0.29768 0.45796
 C1951 C 0.83073 0.27402 0.47428
 C1952 C 0.82251 0.28211 0.48293
 C1953 C 0.80993 0.27725 0.48768
 C1954 C 0.80520 0.26429 0.48371
 C1955 C 0.81351 0.25615 0.47515
 C1956 C 0.82621 0.26093 0.47058
 H1957 H 0.87774 0.31640 0.46008
 H1958 H 0.89871 0.32594 0.45072
 H1959 H 0.91125 0.28583 0.43725
 H1960 H 0.88973 0.27644 0.44565
 H1961 H 0.87731 0.27066 0.46559
 H1962 H 0.85562 0.26148 0.47409
 H1963 H 0.83523 0.29867 0.46226
 H1964 H 0.85668 0.30769 0.45323
 H1965 H 0.82583 0.29219 0.48601
 H1966 H 0.80377 0.28379 0.49421
 H1967 H 0.81016 0.24611 0.47193
 H1968 H 0.83235 0.25455 0.46386
 C1969 C 0.88162 0.79690 -0.04694
 C1970 C 0.89163 0.78833 -0.05275
 C1971 C 0.90408 0.79365 -0.05737
 C1972 C 0.90680 0.80771 -0.05648
 C1973 C 0.89674 0.81629 -0.05080
 C1974 C 0.88437 0.81095 -0.04600
 C1975 C 0.86841 0.79124 -0.04184
 C1976 C 0.85624 0.79878 -0.04313
 C1977 C 0.84391 0.79366 -0.03800
 C1978 C 0.84340 0.78079 -0.03167
 C1979 C 0.85544 0.77310 -0.03059
 C1980 C 0.86783 0.77830 -0.03552
 C1981 C 0.83034 0.77553 -0.02606
 C1982 C 0.82587 0.76229 -0.02924
 C1983 C 0.81327 0.75757 -0.02431
 C1984 C 0.80505 0.76592 -0.01590
 C1985 C 0.80970 0.77907 -0.01250
 C1986 C 0.82217 0.78385 -0.01761
 H1987 H 0.88982 0.77749 -0.05384
 H1988 H 0.91164 0.78670 -0.06152
 H1989 H 0.89836 0.82719 -0.05013
 H1990 H 0.87702 0.81785 -0.04141
 H1991 H 0.85620 0.80862 -0.04821
 H1992 H 0.83471 0.79970 -0.03912
 H1993 H 0.85531 0.76319 -0.02562
 H1994 H 0.87701 0.77229 -0.03413
 H1995 H 0.83198 0.75572 -0.03580
 H1996 H 0.80994 0.74740 -0.02711
 H1997 H 0.80357 0.78579 -0.00613
 H1998 H 0.82546 0.79407 -0.01494
 C1999 C -0.13199 -0.04623 -0.04478
 C2000 C -0.13333 -0.06032 -0.04716
 C2001 C -0.14552 -0.06572 -0.05231
 C2002 C -0.15659 -0.05715 -0.05538
 C2003 C -0.15528 -0.04307 -0.05317
 C2004 C -0.14314 -0.03767 -0.04783
 C2005 C -0.11897 -0.04053 -0.03926
 C2006 C -0.11412 -0.02776 -0.04374
 C2007 C -0.10173 -0.02259 -0.03881
 C2008 C -0.09376 -0.03011 -0.02939
 C2009 C -0.09867 -0.04282 -0.02482
 C2010 C -0.11114 -0.04791 -0.02962
 C2011 C -0.08026 -0.02490 -0.02462
 C2012 C -0.07561 -0.02747 -0.01107
 C2013 C -0.06270 -0.02304 -0.00681
 C2014 C -0.05420 -0.01575 -0.01592
 C2015 C -0.05891 -0.01297 -0.02938
 C2016 C -0.07173 -0.01756 -0.03370
 H2017 H -0.12489 -0.06720 -0.04525
 H2018 H -0.14623 -0.07660 -0.05411
 H2019 H -0.16373 -0.03628 -0.05535
 H2020 H -0.14257 -0.02681 -0.04593
 H2021 H -0.11977 -0.02184 -0.05126
 H2022 H -0.09840 -0.01267 -0.04240
 H2023 H -0.09277 -0.04899 -0.01772
 H2024 H -0.11464 -0.05766 -0.02574
 H2025 H -0.08198 -0.03286 -0.00371
 H2026 H -0.05938 -0.02526 0.00365
 H2027 H -0.05253 -0.00753 -0.03671
 H2028 H -0.07481 -0.01562 -0.04429
 C2029 C -0.13215 0.45223 0.45604
 C2030 C -0.13592 0.43876 0.45903
 C2031 C -0.14787 0.43318 0.45350
 C2032 C -0.15654 0.44094 0.44481
 C2033 C -0.15270 0.45460 0.44209
 C2034 C -0.14068 0.46010 0.44756
 C2035 C -0.11919 0.45795 0.46151
 C2036 C -0.11048 0.46552 0.45286
 C2037 C -0.09806 0.47054 0.45785
 C2038 C -0.09410 0.46819 0.47166
 C2039 C -0.10292 0.46076 0.48035
 C2040 C -0.11530 0.45565 0.47532
 C2041 C -0.08070 0.47325 0.47685
 C2042 C -0.07285 0.46532 0.48601
 C2043 C -0.06008 0.46986 0.49054
 C2044 C -0.05478 0.48240 0.48594
 C2045 C -0.06267 0.49040 0.47690
 C2046 C -0.07550 0.48591 0.47246
 H2047 H -0.12939 0.43238 0.46535
 H2048 H -0.14979 0.42252 0.45559
 H2049 H -0.15912 0.46135 0.43610
 H2050 H -0.13815 0.47062 0.44531
 H2051 H -0.11314 0.46728 0.44212
 H2052 H -0.09141 0.47600 0.45079
 H2053 H -0.10031 0.45896 0.49110
 H2054 H -0.12190 0.44998 0.48226
 H2055 H -0.07643 0.45542 0.48942
 H2056 H -0.05421 0.46338 0.49740
 H2057 H -0.05893 0.50014 0.47322
 H2058 H -0.08136 0.49238 0.46560
 C2059 C 0.36355 -0.04350 0.45896
 C2060 C 0.36095 -0.05756 0.45970
 C2061 C 0.34915 -0.06305 0.45381
 C2062 C 0.33955 -0.05459 0.44718
 C2063 C 0.34210 -0.04048 0.44658
 C2064 C 0.35402 -0.03501 0.45234
 C2065 C 0.37637 -0.03784 0.46474
 C2066 C 0.38430 -0.02869 0.45696
 C2067 C 0.39681 -0.02398 0.46204
 C2068 C 0.40160 -0.02819 0.47510
 C2069 C 0.39347 -0.03711 0.48302
 C2070 C 0.38103 -0.04194 0.47786
 C2071 C 0.41522 -0.02364 0.48020
 C2072 C 0.42371 -0.03261 0.48763
 C2073 C 0.43681 -0.02859 0.49173
 C2074 C 0.44178 -0.01556 0.48836
 C2075 C 0.43320 -0.00649 0.48120
 C2076 C 0.42005 -0.01045 0.47725
 H2077 H 0.36825 -0.06436 0.46454
 H2078 H 0.34769 -0.07399 0.45420
 H2079 H 0.33485 -0.03366 0.44173
 H2080 H 0.35574 -0.02412 0.45174
 H2081 H 0.38103 -0.02552 0.44674
 H2082 H 0.40290 -0.01734 0.45554
 H2083 H 0.39671 -0.04037 0.49321
 H2084 H 0.37502 -0.04886 0.48413
 H2085 H 0.42042 -0.04291 0.48991
 H2086 H 0.44321 -0.03586 0.49713
 H2087 H 0.43668 0.00367 0.47856
 H2088 H 0.41370 -0.00318 0.47181
 C2089 C 0.36648 0.45776 -0.04194
 C2090 C 0.35781 0.46553 -0.05037
 C2091 C 0.34557 0.46005 -0.05534
 C2092 C 0.34165 0.44651 -0.05216
 C2093 C 0.35049 0.43885 -0.04355
 C2094 C 0.36264 0.44442 -0.03851
 C2095 C 0.37966 0.46340 -0.03698
 C2096 C 0.38384 0.46138 -0.02322
 C2097 C 0.39651 0.46621 -0.01870
 C2098 C 0.40535 0.47306 -0.02787
 C2099 C 0.40105 0.47522 -0.04160
 C2100 C 0.38832 0.47049 -0.04609
 C2101 C 0.41911 0.47761 -0.02323
 C2102 C 0.42475 0.48992 -0.02807
 C2103 C 0.43786 0.49396 -0.02401
 C2104 C 0.44559 0.48584 -0.01493
 C2105 C 0.43990 0.47361 -0.00998
 C2106 C 0.42685 0.46953 -0.01412
 H2107 H 0.36042 0.47596 -0.05296
 H2108 H 0.33906 0.46673 -0.06132
 H2109 H 0.34853 0.42826 -0.04115
 H2110 H 0.36928 0.43810 -0.03224
 H2111 H 0.37727 0.45611 -0.01594
 H2112 H 0.39937 0.46461 -0.00799
 H2113 H 0.40767 0.48025 -0.04900
 H2114 H 0.38542 0.47204 -0.05680
 H2115 H 0.41900 0.49650 -0.03493
 H2116 H 0.44192 0.50347 -0.02797
 H2117 H 0.44563 0.46704 -0.00309
 H2118 H 0.42294 0.45987 -0.01039
 C2119 C 0.38440 0.45622 0.79403
 C2120 C 0.39418 0.46460 0.80048
 C2121 C 0.40642 0.45910 0.80548
 C2122 C 0.40911 0.44506 0.80427
 C2123 C 0.39934 0.43671 0.79777
 C2124 C 0.38722 0.44223 0.79262
 C2125 C 0.37123 0.46192 0.78894
 C2126 C 0.35914 0.45420 0.78986
 C2127 C 0.34682 0.45931 0.78479
 C2128 C 0.34623 0.47236 0.77886
 C2129 C 0.35819 0.48024 0.77815
 C2130 C 0.37059 0.47505 0.78305
 C2131 C 0.33309 0.47763 0.77348
 C2132 C 0.32842 0.49066 0.77721
 C2133 C 0.31554 0.49517 0.77292
 C2134 C 0.30720 0.48681 0.76464
 C2135 C 0.31212 0.47396 0.76053
 C2136 C 0.32489 0.46939 0.76498
 H2137 H 0.39231 0.47539 0.80189
 H2138 H 0.41377 0.46586 0.81028
 H2139 H 0.40092 0.42583 0.79683
 H2140 H 0.38007 0.43549 0.78750
 H2141 H 0.35914 0.44421 0.79464
 H2142 H 0.33768 0.45314 0.78567
 H2143 H 0.35798 0.49031 0.77354
 H2144 H 0.37971 0.48121 0.78200
 H2145 H 0.33455 0.49716 0.78381
 H2146 H 0.31203 0.50512 0.77624
 H2147 H 0.30593 0.46724 0.75422
 H2148 H 0.32833 0.45935 0.76188
 C2149 C 0.38365 -0.04563 0.29134
 C2150 C 0.39367 -0.03698 0.29699
 C2151 C 0.40587 -0.04232 0.30223
 C2152 C 0.40828 -0.05646 0.30208
 C2153 C 0.39834 -0.06506 0.29623
 C2154 C 0.38625 -0.05971 0.29084
 C2155 C 0.37038 -0.04010 0.28630
 C2156 C 0.35824 -0.04758 0.28818
 C2157 C 0.34579 -0.04257 0.28334
 C2158 C 0.34512 -0.02987 0.27668
 C2159 C 0.35715 -0.02225 0.27496
 C2160 C 0.36968 -0.02735 0.27964
 C2161 C 0.33185 -0.02467 0.27159
 C2162 C 0.32762 -0.01133 0.27467
 C2163 C 0.31474 -0.00673 0.27047
 C2164 C 0.30598 -0.01532 0.26291
 C2165 C 0.31039 -0.02855 0.25957
 C2166 C 0.32315 -0.03321 0.26394
 H2167 H 0.39198 -0.02609 0.29767
 H2168 H 0.41338 -0.03537 0.30647
 H2169 H 0.39971 -0.07601 0.29610
 H2170 H 0.37891 -0.06667 0.28632
 H2171 H 0.35830 -0.05726 0.29357
 H2172 H 0.33660 -0.04853 0.28498
 H2173 H 0.35689 -0.01246 0.26977
 H2174 H 0.37883 -0.02139 0.27785
 H2175 H 0.33413 -0.00460 0.28063
 H2176 H 0.31163 0.00353 0.27318
 H2177 H 0.30384 -0.03545 0.25384
 H2178 H 0.32624 -0.04351 0.26137
 C2179 C 0.11718 0.54668 0.70773
 C2180 C 0.10592 0.54889 0.71655
 C2181 C 0.09360 0.55394 0.71129
 C2182 C 0.09223 0.55672 0.69709
 C2183 C 0.10344 0.55454 0.68828
 C2184 C 0.11579 0.54966 0.69355
 C2185 C 0.13033 0.54130 0.71325
 C2186 C 0.13834 0.53233 0.70530
 C2187 C 0.15087 0.52758 0.71025
 C2188 C 0.15567 0.53152 0.72338
 C2189 C 0.14756 0.54032 0.73145
 C2190 C 0.13508 0.54519 0.72642
 C2191 C 0.16919 0.52668 0.72848
 C2192 C 0.17766 0.53531 0.73634
 C2193 C 0.19055 0.53093 0.74071
 C2194 C 0.19534 0.51788 0.73718
 C2195 C 0.18685 0.50919 0.72945
 C2196 C 0.17389 0.51350 0.72524
 H2197 H 0.10654 0.54652 0.72748
 H2198 H 0.08506 0.55544 0.71827
 H2199 H 0.10270 0.55681 0.67732
 H2200 H 0.12431 0.54840 0.68650
 H2201 H 0.13493 0.52891 0.69521
 H2202 H 0.15690 0.52098 0.70365
 H2203 H 0.15082 0.54343 0.74168
 H2204 H 0.12927 0.55220 0.73278
 H2205 H 0.17451 0.54560 0.73883
 H2206 H 0.19692 0.53791 0.74653
 H2207 H 0.19022 0.49903 0.72667
 H2208 H 0.16755 0.50647 0.71947
 C2209 C 0.11467 0.04258 0.20901
 C2210 C 0.11201 0.05660 0.21000
 C2211 C 0.10005 0.06208 0.20444
 C2212 C 0.09036 0.05364 0.19792
 C2213 C 0.09297 0.03956 0.19711
 C2214 C 0.10505 0.03410 0.20251
 C2215 C 0.12766 0.03695 0.21442
 C2216 C 0.13562 0.02818 0.20623
 C2217 C 0.14831 0.02358 0.21095
 C2218 C 0.15325 0.02751 0.22405
 C2219 C 0.14506 0.03600 0.23238
 C2220 C 0.13245 0.04074 0.22757
 C2221 C 0.16705 0.02314 0.22879
 C2222 C 0.17537 0.03204 0.23651
 C2223 C 0.18857 0.02820 0.24042
 C2224 C 0.19384 0.01543 0.23655
 C2225 C 0.18549 0.00645 0.22901
 C2226 C 0.17223 0.01022 0.22525
 H2227 H 0.11938 0.06338 0.21477
 H2228 H 0.09857 0.07301 0.20498
 H2229 H 0.08565 0.03273 0.19236
 H2230 H 0.10684 0.02323 0.20172
 H2231 H 0.13223 0.02525 0.19597
 H2232 H 0.15442 0.01727 0.20414
 H2233 H 0.14838 0.03900 0.24263
 H2234 H 0.12642 0.04736 0.23415
 H2235 H 0.17185 0.04216 0.23922
 H2236 H 0.19479 0.03540 0.24612
 H2237 H 0.18922 -0.00351 0.22597
 H2238 H 0.16604 0.00299 0.21956
 C2239 C 0.63381 0.70587 0.20604
 C2240 C 0.64371 0.71460 0.20028
 C2241 C 0.65633 0.70951 0.19586
 C2242 C 0.65934 0.69552 0.19695
 C2243 C 0.64940 0.68679 0.20264
 C2244 C 0.63687 0.69190 0.20722
 C2245 C 0.62036 0.71122 0.21082
 C2246 C 0.60845 0.70329 0.20940
 C2247 C 0.59590 0.70805 0.21432
 C2248 C 0.59490 0.72092 0.22058
 C2249 C 0.60667 0.72902 0.22173
 C2250 C 0.61929 0.72419 0.21700
 C2251 C 0.58160 0.72573 0.22601
 C2252 C 0.57663 0.73874 0.22262
 C2253 C 0.56372 0.74292 0.22722
 C2254 C 0.55568 0.73425 0.23550
 C2255 C 0.56087 0.72139 0.23918
 C2256 C 0.57364 0.71714 0.23440
 H2257 H 0.64167 0.72538 0.19904
 H2258 H 0.66379 0.71657 0.19168
 H2259 H 0.65123 0.67593 0.20344
 H2260 H 0.62963 0.68488 0.21181
 H2261 H 0.60877 0.69342 0.20440
 H2262 H 0.58691 0.70170 0.21312
 H2263 H 0.60615 0.73895 0.22661
 H2264 H 0.62826 0.73050 0.21846
 H2265 H 0.58258 0.74551 0.21611
 H2266 H 0.55999 0.75289 0.22423
 H2267 H 0.55489 0.71443 0.24546
 H2268 H 0.57732 0.70710 0.23724
 C2269 C 0.13306 0.70585 0.70406
 C2270 C 0.14308 0.71438 0.69820
 C2271 C 0.15557 0.70902 0.69371
 C2272 C 0.15830 0.69498 0.69483
 C2273 C 0.14825 0.68646 0.70063
 C2274 C 0.13586 0.69183 0.70528
 C2275 C 0.11976 0.71147 0.70891
 C2276 C 0.10769 0.70377 0.70755
 C2277 C 0.09528 0.70874 0.71259
 C2278 C 0.09458 0.72160 0.71891
 C2279 C 0.10650 0.72949 0.71998
 C2280 C 0.11899 0.72444 0.71512
 C2281 C 0.08144 0.72659 0.72455
 C2282 C 0.07657 0.73965 0.72121
 C2283 C 0.06375 0.74395 0.72594
 C2284 C 0.05571 0.73535 0.73430
 C2285 C 0.06082 0.72245 0.73794
 C2286 C 0.07350 0.71808 0.73304
 H2287 H 0.14124 0.72519 0.69694
 H2288 H 0.16313 0.71592 0.68945
 H2289 H 0.14987 0.67558 0.70146
 H2290 H 0.12851 0.68497 0.70995
 H2291 H 0.10779 0.69391 0.70252
 H2292 H 0.08616 0.70257 0.71146
 H2293 H 0.10621 0.73942 0.72490
 H2294 H 0.12809 0.73057 0.71653
 H2295 H 0.08252 0.74635 0.71463
 H2296 H 0.06008 0.75395 0.72297
 H2297 H 0.05485 0.71554 0.74428
 H2298 H 0.07711 0.70801 0.73583
 C2299 C 0.61616 0.20307 0.54261
 C2300 C 0.60635 0.21201 0.54817
 C2301 C 0.59395 0.20704 0.55332
 C2302 C 0.59109 0.19298 0.55319
 C2303 C 0.60090 0.18405 0.54761
 C2304 C 0.61321 0.18903 0.54230
 C2305 C 0.62948 0.20830 0.53731
 C2306 C 0.64151 0.20061 0.53896
 C2307 C 0.65399 0.20541 0.53390
 C2308 C 0.65480 0.21811 0.52726
 C2309 C 0.64288 0.22592 0.52573
 C2310 C 0.63033 0.22103 0.53060
 C2311 C 0.66810 0.22316 0.52204
 C2312 C 0.67261 0.23639 0.52522
 C2313 C 0.68555 0.24081 0.52097
 C2314 C 0.69411 0.23216 0.51324
 C2315 C 0.68939 0.21906 0.50973
 C2316 C 0.67657 0.21458 0.51417
 H2317 H 0.60831 0.22285 0.54877
 H2318 H 0.58657 0.21424 0.55736
 H2319 H 0.59918 0.17314 0.54752
 H2320 H 0.62039 0.18185 0.53789
 H2321 H 0.64134 0.19093 0.54435
 H2322 H 0.66309 0.19929 0.53539
 H2323 H 0.64325 0.23571 0.52054
 H2324 H 0.62128 0.22714 0.52892
 H2325 H 0.66627 0.24315 0.53134
 H2326 H 0.68889 0.25096 0.52382
 H2327 H 0.69577 0.21212 0.50387
 H2328 H 0.67327 0.20437 0.51150
 C2329 C 0.61514 0.70831 0.04462
 C2330 C 0.61212 0.70784 0.05887
 C2331 C 0.59974 0.70243 0.06357
 C2332 C 0.58994 0.69754 0.05415
 C2333 C 0.59280 0.69834 0.03989
 C2334 C 0.60527 0.70357 0.03519
 C2335 C 0.62864 0.71344 0.03969
 C2336 C 0.62980 0.72070 0.02715
 C2337 C 0.64254 0.72531 0.02250
 C2338 C 0.65436 0.72295 0.03038
 C2339 C 0.65324 0.71578 0.04291
 C2340 C 0.64056 0.71099 0.04746
 C2341 C 0.66787 0.72787 0.02559
 C2342 C 0.67659 0.73476 0.03475
 C2343 C 0.68957 0.73895 0.03046
 C2344 C 0.69418 0.73615 0.01695
 C2345 C 0.68538 0.72936 0.00773
 C2346 C 0.67230 0.72536 0.01198
 H2347 H 0.61933 0.71162 0.06644
 H2348 H 0.59802 0.70182 0.07463
 H2349 H 0.58542 0.69487 0.03232
 H2350 H 0.60727 0.70363 0.02416
 H2351 H 0.62085 0.72298 0.02100
 H2352 H 0.64315 0.73093 0.01286
 H2353 H 0.66224 0.71365 0.04906
 H2354 H 0.64016 0.70516 0.05697
 H2355 H 0.67336 0.73690 0.04527
 H2356 H 0.69611 0.74410 0.03784
 H2357 H 0.68864 0.72708 -0.00275
 H2358 H 0.66578 0.71998 0.00475
 C2359 C 0.13655 0.04262 0.03967
 C2360 C 0.14527 0.03500 0.04818
 C2361 C 0.15719 0.04080 0.05357
 C2362 C 0.16071 0.05452 0.05073
 C2363 C 0.15187 0.06201 0.04197
 C2364 C 0.14004 0.05612 0.03651
 C2365 C 0.12361 0.03668 0.03444
 C2366 C 0.11955 0.03876 0.02064
 C2367 C 0.10702 0.03375 0.01592
 C2368 C 0.09820 0.02667 0.02493
 C2369 C 0.10240 0.02442 0.03868
 C2370 C 0.11499 0.02932 0.04336
 C2371 C 0.08448 0.02209 0.02018
 C2372 C 0.07883 0.00977 0.02495
 C2373 C 0.06562 0.00588 0.02110
 C2374 C 0.05779 0.01418 0.01228
 C2375 C 0.06355 0.02634 0.00724
 C2376 C 0.07671 0.03027 0.01118
 H2377 H 0.14294 0.02446 0.05057
 H2378 H 0.16376 0.03425 0.05961
 H2379 H 0.15353 0.07269 0.03978
 H2380 H 0.13335 0.06231 0.03017
 H2381 H 0.12610 0.04424 0.01351
 H2382 H 0.10423 0.03544 0.00521
 H2383 H 0.09578 0.01923 0.04596
 H2384 H 0.11779 0.02774 0.05409
 H2385 H 0.08462 0.00311 0.03170
 H2386 H 0.06152 -0.00360 0.02509
 H2387 H 0.05776 0.03303 0.00052
 H2388 H 0.08062 0.03994 0.00749
 C2389 C 0.13365 0.54450 0.54485
 C2390 C 0.13639 0.55851 0.54342
 C2391 C 0.14848 0.56412 0.54853
 C2392 C 0.15831 0.55585 0.55503
 C2393 C 0.15570 0.54179 0.55627
 C2394 C 0.14349 0.53620 0.55130
 C2395 C 0.12051 0.53870 0.53977
 C2396 C 0.11994 0.52557 0.53389
 C2397 C 0.10757 0.52030 0.52897
 C2398 C 0.09557 0.52812 0.52965
 C2399 C 0.09609 0.54116 0.53559
 C2400 C 0.10837 0.54635 0.54069
 C2401 C 0.08249 0.52280 0.52418
 C2402 C 0.07433 0.53102 0.51562
 C2403 C 0.06161 0.52642 0.51107
 C2404 C 0.05668 0.51355 0.51512
 C2405 C 0.06497 0.50521 0.52346
 C2406 C 0.07781 0.50975 0.52786
 H2407 H 0.12919 0.56519 0.53829
 H2408 H 0.15000 0.57501 0.54758
 H2409 H 0.16310 0.53509 0.56106
 H2410 H 0.14168 0.52540 0.55272
 H2411 H 0.12909 0.51946 0.53285
 H2412 H 0.10742 0.51023 0.52435
 H2413 H 0.08692 0.54728 0.53646
 H2414 H 0.10832 0.55633 0.54547
 H2415 H 0.07778 0.54108 0.51255
 H2416 H 0.05546 0.53314 0.50471
 H2417 H 0.06146 0.49524 0.52673
 H2418 H 0.08391 0.50326 0.53450
 C2419 C 0.63126 0.04659 0.54347
 C2420 C 0.63542 0.06002 0.54078
 C2421 C 0.64768 0.06506 0.54617
 C2422 C 0.65630 0.05679 0.55439
 C2423 C 0.65200 0.04325 0.55697
 C2424 C 0.63970 0.03827 0.55162
 C2425 C 0.61810 0.04133 0.53788
 C2426 C 0.61700 0.02782 0.53312
 C2427 C 0.60458 0.02286 0.52803
 C2428 C 0.59302 0.03133 0.52749
 C2429 C 0.59412 0.04485 0.53215
 C2430 C 0.60650 0.04978 0.53733
 C2431 C 0.57976 0.02603 0.52234
 C2432 C 0.57163 0.03393 0.51344
 C2433 C 0.55889 0.02916 0.50902
 C2434 C 0.55396 0.01643 0.51351
 C2435 C 0.56219 0.00846 0.52228
 C2436 C 0.57498 0.01319 0.52659
 H2437 H 0.62921 0.06670 0.53446
 H2438 H 0.64992 0.07568 0.54423
 H2439 H 0.65828 0.03618 0.56273
 H2440 H 0.63676 0.02789 0.55399
 H2441 H 0.62578 0.02111 0.53317
 H2442 H 0.60405 0.01244 0.52436
 H2443 H 0.58531 0.05153 0.53206
 H2444 H 0.60690 0.06015 0.54115
 H2445 H 0.57512 0.04381 0.50990
 H2446 H 0.55279 0.03559 0.50231
 H2447 H 0.55871 -0.00138 0.52594
 H2448 H 0.58098 0.00694 0.53356
 C2449 C 0.63531 0.54397 0.04421
 C2450 C 0.64526 0.53529 0.04994
 C2451 C 0.65779 0.54050 0.05448
 C2452 C 0.66064 0.55453 0.05355
 C2453 C 0.65065 0.56319 0.04788
 C2454 C 0.63822 0.55798 0.04318
 C2455 C 0.62194 0.53851 0.03935
 C2456 C 0.60994 0.54628 0.04083
 C2457 C 0.59747 0.54142 0.03587
 C2458 C 0.59663 0.52859 0.02950
 C2459 C 0.60849 0.52065 0.02825
 C2460 C 0.62105 0.52559 0.03304
 C2461 C 0.58339 0.52365 0.02410
 C2462 C 0.57855 0.51059 0.02751
 C2463 C 0.56564 0.50630 0.02305
 C2464 C 0.55746 0.51492 0.01489
 C2465 C 0.56252 0.52783 0.01115
 C2466 C 0.57531 0.53218 0.01580
 H2467 H 0.64333 0.52448 0.05107
 H2468 H 0.66529 0.53349 0.05863
 H2469 H 0.65236 0.57408 0.04720
 H2470 H 0.63093 0.56495 0.03862
 H2471 H 0.61014 0.55610 0.04594
 H2472 H 0.58840 0.54764 0.03714
 H2473 H 0.60809 0.51075 0.02329
 H2474 H 0.63009 0.51941 0.03152
 H2475 H 0.58460 0.50386 0.03395
 H2476 H 0.56201 0.49630 0.02608
 H2477 H 0.55644 0.53475 0.00496
 H2478 H 0.57888 0.54225 0.01295
 C2479 C 0.04553 0.04528 0.13440
 C2480 C 0.04316 0.05885 0.13835
 C2481 C 0.04822 0.06391 0.15086
 C2482 C 0.05579 0.05555 0.15999
 C2483 C 0.05802 0.04186 0.15594
 C2484 C 0.05301 0.03686 0.14336
 C2485 C 0.04031 0.04001 0.12094
 C2486 C 0.03533 0.02660 0.11978
 C2487 C 0.03044 0.02170 0.10711
 C2488 C 0.03030 0.03014 0.09536
 C2489 C 0.03527 0.04353 0.09649
 C2490 C 0.04027 0.04839 0.10911
 C2491 C 0.02508 0.02504 0.08190
 C2492 C 0.01646 0.03322 0.07377
 C2493 C 0.01195 0.02870 0.06084
 C2494 C 0.01607 0.01593 0.05567
 C2495 C 0.02453 0.00766 0.06391
 C2496 C 0.02893 0.01214 0.07693
 H2497 H 0.03732 0.06562 0.13176
 H2498 H 0.04654 0.07461 0.15291
 H2499 H 0.06323 0.03469 0.16260
 H2500 H 0.05512 0.02636 0.14062
 H2501 H 0.03500 0.01994 0.12872
 H2502 H 0.02654 0.01138 0.10654
 H2503 H 0.03550 0.05018 0.08754
 H2504 H 0.04430 0.05867 0.10953
 H2505 H 0.01321 0.04315 0.07743
 H2506 H 0.00548 0.03536 0.05476
 H2507 H 0.02789 -0.00223 0.06025
 H2508 H 0.03565 0.00567 0.08295
 C2509 C 0.04504 0.54372 0.63618
 C2510 C 0.05901 0.54699 0.63716
 C2511 C 0.06437 0.55251 0.64934
 C2512 C 0.05585 0.55504 0.66076
 C2513 C 0.04190 0.55183 0.65984
 C2514 C 0.03656 0.54616 0.64771
 C2515 C 0.03933 0.53797 0.62314
 C2516 C 0.02621 0.54169 0.61856
 C2517 C 0.02101 0.53658 0.60612
 C2518 C 0.02885 0.52772 0.59785
 C2519 C 0.04191 0.52389 0.60250
 C2520 C 0.04705 0.52889 0.61501
 C2521 C 0.02361 0.52281 0.58426
 C2522 C 0.02670 0.50961 0.57949
 C2523 C 0.02243 0.50529 0.56639
 C2524 C 0.01481 0.51402 0.55782
 C2525 C 0.01140 0.52708 0.56271
 C2526 C 0.01582 0.53145 0.57574
 H2527 H 0.06580 0.54553 0.62841
 H2528 H 0.07513 0.55507 0.64974
 H2529 H 0.03516 0.55355 0.66857
 H2530 H 0.02581 0.54354 0.64743
 H2531 H 0.02003 0.54877 0.62445
 H2532 H 0.01083 0.53959 0.60297
 H2533 H 0.04832 0.51724 0.59635
 H2534 H 0.05710 0.52562 0.61831
 H2535 H 0.03245 0.50258 0.58588
 H2536 H 0.02513 0.49514 0.56295
 H2537 H 0.00568 0.53411 0.55630
 H2538 H 0.01345 0.54176 0.57894
 C2539 C 0.54573 0.04527 0.63384
 C2540 C 0.55924 0.04251 0.63774
 C2541 C 0.56466 0.04797 0.64993
 C2542 C 0.55669 0.05637 0.65871
 C2543 C 0.54301 0.05892 0.65471
 C2544 C 0.53767 0.05350 0.64246
 C2545 C 0.54015 0.03978 0.62068
 C2546 C 0.53235 0.04811 0.61189
 C2547 C 0.52737 0.04306 0.59933
 C2548 C 0.53000 0.02953 0.59531
 C2549 C 0.53771 0.02116 0.60419
 C2550 C 0.54276 0.02624 0.61671
 C2551 C 0.52488 0.02426 0.58182
 C2552 C 0.53294 0.01545 0.57372
 C2553 C 0.52830 0.01084 0.56086
 C2554 C 0.51550 0.01498 0.55574
 C2555 C 0.50738 0.02366 0.56390
 C2556 C 0.51199 0.02820 0.57680
 H2557 H 0.56578 0.03640 0.63114
 H2558 H 0.57534 0.04603 0.65194
 H2559 H 0.53611 0.06471 0.66119
 H2560 H 0.52711 0.05558 0.63984
 H2561 H 0.53035 0.05864 0.61459
 H2562 H 0.52170 0.04987 0.59264
 H2563 H 0.53973 0.01063 0.60152
 H2564 H 0.54860 0.01954 0.62337
 H2565 H 0.54301 0.01238 0.57717
 H2566 H 0.53487 0.00426 0.55479
 H2567 H 0.49744 0.02700 0.56032
 H2568 H 0.50541 0.03477 0.58287
 C2569 C 0.54335 0.54569 0.13609
 C2570 C 0.54881 0.53650 0.14581
 C2571 C 0.55406 0.54118 0.15840
 C2572 C 0.55413 0.55518 0.16156
 C2573 C 0.54864 0.56436 0.15186
 C2574 C 0.54325 0.55967 0.13934
 C2575 C 0.53796 0.54074 0.12256
 C2576 C 0.53973 0.54855 0.11045
 C2577 C 0.53476 0.54391 0.09774
 C2578 C 0.52806 0.53129 0.09678
 C2579 C 0.52631 0.52343 0.10881
 C2580 C 0.53113 0.52815 0.12158
 C2581 C 0.52310 0.52630 0.08321
 C2582 C 0.52597 0.51294 0.07885
 C2583 C 0.52194 0.50848 0.06571
 C2584 C 0.51478 0.51724 0.05676
 C2585 C 0.51160 0.53049 0.06130
 C2586 C 0.51580 0.53500 0.07435
 H2587 H 0.54924 0.52569 0.14361
 H2588 H 0.55803 0.53379 0.16570
 H2589 H 0.54869 0.57522 0.15382
 H2590 H 0.53894 0.56703 0.13222
 H2591 H 0.54520 0.55814 0.11072
 H2592 H 0.53641 0.55007 0.08857
 H2593 H 0.52105 0.51372 0.10835
 H2594 H 0.52935 0.52197 0.13070
 H2595 H 0.53166 0.50607 0.08547
 H2596 H 0.52452 0.49821 0.06253
 H2597 H 0.50617 0.53751 0.05462
 H2598 H 0.51338 0.54531 0.07752
 C2599 C 0.20487 0.54866 0.61768
 C2600 C 0.20493 0.56267 0.61456
 C2601 C 0.19954 0.56746 0.60208
 C2602 C 0.19411 0.55834 0.59227
 C2603 C 0.19416 0.54432 0.59532
 C2604 C 0.19939 0.53955 0.60789
 C2605 C 0.21039 0.54359 0.63110
 C2606 C 0.21725 0.53100 0.63186
 C2607 C 0.22224 0.52617 0.64451
 C2608 C 0.22067 0.53391 0.65663
 C2609 C 0.21396 0.54653 0.65591
 C2610 C 0.20879 0.55128 0.64331
 C2611 C 0.22590 0.52880 0.67005
 C2612 C 0.23353 0.53736 0.67877
 C2613 C 0.23820 0.53264 0.69158
 C2614 C 0.23514 0.51933 0.69602
 C2615 C 0.22754 0.51075 0.68725
 C2616 C 0.22306 0.51541 0.67434
 H2617 H 0.20923 0.56998 0.62174
 H2618 H 0.19948 0.57834 0.60021
 H2619 H 0.19023 0.53699 0.58795
 H2620 H 0.19897 0.52872 0.60998
 H2621 H 0.21892 0.52492 0.62265
 H2622 H 0.22752 0.51647 0.64479
 H2623 H 0.21246 0.55260 0.66516
 H2624 H 0.20332 0.56087 0.64321
 H2625 H 0.23592 0.54770 0.67564
 H2626 H 0.24397 0.53951 0.69812
 H2627 H 0.22504 0.50044 0.69037
 H2628 H 0.21711 0.50866 0.66783
 C2629 C 0.20543 0.04643 0.11409
 C2630 C 0.20519 0.06053 0.11141
 C2631 C 0.20005 0.06555 0.09891
 C2632 C 0.19520 0.05660 0.08865
 C2633 C 0.19560 0.04250 0.09124
 C2634 C 0.20057 0.03748 0.10383
 C2635 C 0.21060 0.04114 0.12757
 C2636 C 0.21779 0.02871 0.12826
 C2637 C 0.22260 0.02378 0.14095
 C2638 C 0.22053 0.03127 0.15316
 C2639 C 0.21339 0.04365 0.15252
 C2640 C 0.20839 0.04848 0.13989
 C2641 C 0.22582 0.02625 0.16659
 C2642 C 0.23312 0.03504 0.17534
 C2643 C 0.23775 0.03052 0.18822
 C2644 C 0.23500 0.01715 0.19270
 C2645 C 0.22779 0.00831 0.18388
 C2646 C 0.22334 0.01279 0.17088
 H2647 H 0.20905 0.06774 0.11894
 H2648 H 0.19972 0.07648 0.09740
 H2649 H 0.19212 0.03529 0.08352
 H2650 H 0.20041 0.02658 0.10557
 H2651 H 0.21989 0.02289 0.11898
 H2652 H 0.22819 0.01426 0.14119
 H2653 H 0.21150 0.04950 0.16184
 H2654 H 0.20264 0.05790 0.13985
 H2655 H 0.23523 0.04544 0.17221
 H2656 H 0.24320 0.03761 0.19481
 H2657 H 0.22553 -0.00205 0.18705
 H2658 H 0.21767 0.00585 0.16431
 C2659 C 0.70594 0.20224 0.63432
 C2660 C 0.70607 0.18820 0.63731
 C2661 C 0.70060 0.18326 0.64971
 C2662 C 0.69504 0.19224 0.65957
 C2663 C 0.69507 0.20630 0.65667
 C2664 C 0.70037 0.21123 0.64418
 C2665 C 0.71143 0.20745 0.62092
 C2666 C 0.71818 0.22012 0.62019
 C2667 C 0.72317 0.22503 0.60755
 C2668 C 0.72170 0.21730 0.59541
 C2669 C 0.71505 0.20464 0.59610
 C2670 C 0.70989 0.19981 0.60867
 C2671 C 0.72697 0.22242 0.58199
 C2672 C 0.73462 0.21384 0.57330
 C2673 C 0.73911 0.21843 0.56038
 C2674 C 0.73589 0.23165 0.55579
 C2675 C 0.72837 0.24030 0.56457
 C2676 C 0.72405 0.23576 0.57761
 H2677 H 0.71046 0.18098 0.63008
 H2678 H 0.70056 0.17236 0.65145
 H2679 H 0.69101 0.21353 0.66409
 H2680 H 0.69991 0.22208 0.64219
 H2681 H 0.71979 0.22618 0.62942
 H2682 H 0.72838 0.23477 0.60729
 H2683 H 0.71361 0.19858 0.58683
 H2684 H 0.70448 0.19018 0.60873
 H2685 H 0.73708 0.20354 0.57651
 H2686 H 0.74480 0.21149 0.55383
 H2687 H 0.72574 0.25054 0.56133
 H2688 H 0.71810 0.24254 0.58410
 C2689 C 0.70920 0.70516 0.13738
 C2690 C 0.70280 0.71412 0.14674
 C2691 C 0.69731 0.70927 0.15918
 C2692 C 0.69797 0.69533 0.16253
 C2693 C 0.70447 0.68640 0.15321
 C2694 C 0.71009 0.69127 0.14086
 C2695 C 0.71467 0.71020 0.12392
 C2696 C 0.71364 0.70214 0.11191
 C2697 C 0.71866 0.70685 0.09924
 C2698 C 0.72469 0.71980 0.09822
 C2699 C 0.72571 0.72792 0.11015
 C2700 C 0.72082 0.72314 0.12289
 C2701 C 0.72964 0.72486 0.08465
 C2702 C 0.72625 0.73803 0.08010
 C2703 C 0.73018 0.74247 0.06692
 C2704 C 0.73773 0.73389 0.05810
 C2705 C 0.74145 0.72085 0.06284
 C2706 C 0.73738 0.71636 0.07594
 H2707 H 0.70179 0.72485 0.14434
 H2708 H 0.69253 0.71646 0.16619
 H2709 H 0.70501 0.67558 0.15532
 H2710 H 0.71513 0.68410 0.13402
 H2711 H 0.70870 0.69226 0.11222
 H2712 H 0.71756 0.70047 0.09014
 H2713 H 0.73043 0.73790 0.10965
 H2714 H 0.72199 0.72954 0.13195
 H2715 H 0.72021 0.74473 0.08658
 H2716 H 0.72716 0.75257 0.06358
 H2717 H 0.74720 0.71396 0.05628
 H2718 H 0.74021 0.70620 0.07926
 C2719 C 0.54090 0.70413 0.11486
 C2720 C 0.54605 0.71346 0.10508
 C2721 C 0.55159 0.70889 0.09255
 C2722 C 0.55226 0.69488 0.08954
 C2723 C 0.54704 0.68557 0.09928
 C2724 C 0.54134 0.69014 0.11172
 C2725 C 0.53537 0.70891 0.12840
 C2726 C 0.53746 0.70121 0.14052
 C2727 C 0.53237 0.70569 0.15325
 C2728 C 0.52523 0.71805 0.15422
 C2729 C 0.52315 0.72582 0.14218
 C2730 C 0.52808 0.72125 0.12939
 C2731 C 0.52026 0.72293 0.16784
 C2732 C 0.52284 0.73637 0.17213
 C2733 C 0.51896 0.74071 0.18535
 C2734 C 0.51223 0.73175 0.19447
 C2735 C 0.50930 0.71842 0.19000
 C2736 C 0.51337 0.71403 0.17686
 H2737 H 0.54604 0.72429 0.10719
 H2738 H 0.55534 0.71636 0.08521
 H2739 H 0.54756 0.67469 0.09745
 H2740 H 0.53728 0.68266 0.11887
 H2741 H 0.54327 0.69183 0.14024
 H2742 H 0.53429 0.69962 0.16242
 H2743 H 0.51757 0.73534 0.14266
 H2744 H 0.52607 0.72734 0.12026
 H2745 H 0.52823 0.74339 0.16539
 H2746 H 0.52133 0.75105 0.18849
 H2747 H 0.50420 0.71126 0.19681
 H2748 H 0.51118 0.70365 0.17374
 C2749 C 0.03955 0.70461 0.61315
 C2750 C 0.04246 0.71314 0.60178
 C2751 C 0.04848 0.70786 0.58977
 C2752 C 0.05151 0.69391 0.58877
 C2753 C 0.04838 0.68533 0.59997
 C2754 C 0.04257 0.69062 0.61205
 C2755 C 0.03383 0.71028 0.62626
 C2756 C 0.02480 0.70255 0.63448
 C2757 C 0.02021 0.70748 0.64725
 C2758 C 0.02435 0.72036 0.65208
 C2759 C 0.03298 0.72829 0.64363
 C2760 C 0.03773 0.72328 0.63096
 C2761 C 0.02015 0.72527 0.66606
 C2762 C 0.02925 0.73297 0.67419
 C2763 C 0.02558 0.73725 0.68747
 C2764 C 0.01278 0.73379 0.69308
 C2765 C 0.00363 0.72613 0.68501
 C2766 C 0.00724 0.72201 0.67161
 H2767 H 0.04006 0.72391 0.60212
 H2768 H 0.05070 0.71466 0.58120
 H2769 H 0.05080 0.67456 0.59951
 H2770 H 0.04078 0.68377 0.62065
 H2771 H 0.02135 0.69260 0.63110
 H2772 H 0.01369 0.70100 0.65349
 H2773 H 0.03618 0.73837 0.64685
 H2774 H 0.04477 0.72949 0.62503
 H2775 H 0.03940 0.73542 0.67046
 H2776 H 0.03294 0.74299 0.69350
 H2777 H -0.00634 0.72338 0.68902
 H2778 H -0.00013 0.71630 0.66559
 C2779 C 0.54373 0.61333 0.21215
 C2780 C 0.55781 0.61045 0.21257
 C2781 C 0.56294 0.59837 0.20698
 C2782 C 0.55413 0.58869 0.20100
 C2783 C 0.54000 0.59135 0.20097
 C2784 C 0.53487 0.60354 0.20641
 C2785 C 0.53844 0.62664 0.21729
 C2786 C 0.52564 0.62757 0.22391
 C2787 C 0.52072 0.64017 0.22856
 C2788 C 0.52856 0.65204 0.22685
 C2789 C 0.54132 0.65114 0.22026
 C2790 C 0.54616 0.63862 0.21545
 C2791 C 0.52352 0.66542 0.23179
 C2792 C 0.53222 0.67411 0.23925
 C2793 C 0.52783 0.68707 0.24323
 C2794 C 0.51468 0.69170 0.23968
 C2795 C 0.50588 0.68289 0.23244
 C2796 C 0.51023 0.66983 0.22862
 H2797 H 0.56492 0.61760 0.21715
 H2798 H 0.57390 0.59681 0.20703
 H2799 H 0.53288 0.58405 0.19666
 H2800 H 0.52399 0.60543 0.20580
 H2801 H 0.51950 0.61856 0.22567
 H2802 H 0.51088 0.64061 0.23370
 H2803 H 0.54746 0.66019 0.21860
 H2804 H 0.55588 0.63839 0.21009
 H2805 H 0.54247 0.67090 0.24192
 H2806 H 0.53489 0.69361 0.24875
 H2807 H 0.49570 0.68615 0.22956
 H2808 H 0.50337 0.66333 0.22280
 C2809 C 0.04221 0.61444 0.70919
 C2810 C 0.04584 0.60347 0.71784
 C2811 C 0.05168 0.59165 0.71229
 C2812 C 0.05386 0.59049 0.69796
 C2813 C 0.05013 0.60136 0.68930
 C2814 C 0.04445 0.61321 0.69484
 C2815 C 0.03642 0.62725 0.71504
 C2816 C 0.02655 0.63472 0.70766
 C2817 C 0.02178 0.64720 0.71267
 C2818 C 0.02660 0.65248 0.72530
 C2819 C 0.03614 0.64480 0.73291
 C2820 C 0.04104 0.63238 0.72781
 C2821 C 0.02211 0.66618 0.73019
 C2822 C 0.03136 0.67495 0.73690
 C2823 C 0.02741 0.68809 0.74081
 C2824 C 0.01416 0.69285 0.73794
 C2825 C 0.00483 0.68405 0.73143
 C2826 C 0.00873 0.67083 0.72769
 H2827 H 0.04407 0.60396 0.72891
 H2828 H 0.05439 0.58335 0.71916
 H2829 H 0.05193 0.60082 0.67823
 H2830 H 0.04211 0.62155 0.68789
 H2831 H 0.02257 0.63098 0.69792
 H2832 H 0.01457 0.65287 0.70643
 H2833 H 0.03991 0.64843 0.74278
 H2834 H 0.04872 0.62699 0.73373
 H2835 H 0.04181 0.67185 0.73877
 H2836 H 0.03488 0.69467 0.74568
 H2837 H -0.00548 0.68739 0.72919
 H2838 H 0.00125 0.66428 0.72280
 C2839 C 0.04445 0.13505 0.03892
 C2840 C 0.04315 0.13760 0.05316
 C2841 C 0.04859 0.14944 0.05897
 C2842 C 0.05529 0.15914 0.05064
 C2843 C 0.05653 0.15659 0.03634
 C2844 C 0.05125 0.14461 0.03055
 C2845 C 0.03888 0.12231 0.03294
 C2846 C 0.04695 0.11411 0.02427
 C2847 C 0.04203 0.10156 0.01953
 C2848 C 0.02886 0.09704 0.02322
 C2849 C 0.02063 0.10553 0.03150
 C2850 C 0.02562 0.11798 0.03638
 C2851 C 0.02395 0.08328 0.01899
 C2852 C 0.01595 0.07542 0.02810
 C2853 C 0.01173 0.06231 0.02444
 C2854 C 0.01552 0.05665 0.01163
 C2855 C 0.02342 0.06451 0.00244
 C2856 C 0.02752 0.07771 0.00604
 H2857 H 0.03815 0.13026 0.05986
 H2858 H 0.04773 0.15087 0.07006
 H2859 H 0.06145 0.16391 0.02958
 H2860 H 0.05229 0.14290 0.01952
 H2861 H 0.05725 0.11719 0.02159
 H2862 H 0.04873 0.09522 0.01335
 H2863 H 0.01034 0.10255 0.03428
 H2864 H 0.01914 0.12423 0.04290
 H2865 H 0.01325 0.07923 0.03827
 H2866 H 0.00580 0.05647 0.03184
 H2867 H 0.02645 0.06045 -0.00754
 H2868 H 0.03348 0.08355 -0.00132
 C2869 C 0.04421 0.63338 0.54109
 C2870 C 0.03565 0.64472 0.54319
 C2871 C 0.04082 0.65676 0.54888
 C2872 C 0.05469 0.65781 0.55242
 C2873 C 0.06333 0.64662 0.55010
 C2874 C 0.05814 0.63451 0.54458
 C2875 C 0.03859 0.62033 0.53561
 C2876 C 0.04646 0.61197 0.52684
 C2877 C 0.04139 0.59945 0.52221
 C2878 C 0.02826 0.59501 0.52609
 C2879 C 0.02027 0.60352 0.53459
 C2880 C 0.02540 0.61596 0.53935
 C2881 C 0.02310 0.58139 0.52170
 C2882 C 0.01511 0.57346 0.53076
 C2883 C 0.01071 0.56045 0.52691
 C2884 C 0.01433 0.55496 0.51397
 C2885 C 0.02217 0.56291 0.50482
 C2886 C 0.02644 0.57601 0.50860
 H2887 H 0.02496 0.64434 0.54037
 H2888 H 0.03400 0.66533 0.55043
 H2889 H 0.07404 0.64714 0.55290
 H2890 H 0.06499 0.62593 0.54337
 H2891 H 0.05657 0.61509 0.52355
 H2892 H 0.04791 0.59312 0.51582
 H2893 H 0.01004 0.60055 0.53762
 H2894 H 0.01910 0.62201 0.54622
 H2895 H 0.01256 0.57713 0.54102
 H2896 H 0.00482 0.55453 0.53428
 H2897 H 0.02507 0.55899 0.49475
 H2898 H 0.03236 0.58191 0.50126
 C2899 C 0.54258 0.13326 0.54308
 C2900 C 0.54222 0.13633 0.55730
 C2901 C 0.54757 0.14858 0.56226
 C2902 C 0.55322 0.15823 0.55312
 C2903 C 0.55333 0.15532 0.53886
 C2904 C 0.54811 0.14295 0.53390
 C2905 C 0.53740 0.11990 0.53798
 C2906 C 0.53054 0.11887 0.52521
 C2907 C 0.52561 0.10628 0.52057
 C2908 C 0.52729 0.09452 0.52868
 C2909 C 0.53417 0.09551 0.54138
 C2910 C 0.53924 0.10802 0.54594
 C2911 C 0.52201 0.08117 0.52392
 C2912 C 0.51468 0.07274 0.53305
 C2913 C 0.51014 0.05991 0.52878
 C2914 C 0.51301 0.05517 0.51534
 C2915 C 0.52024 0.06368 0.50617
 C2916 C 0.52461 0.07660 0.51039
 H2917 H 0.53781 0.12925 0.56466
 H2918 H 0.54750 0.15033 0.57333
 H2919 H 0.55745 0.16257 0.53151
 H2920 H 0.54867 0.14089 0.52289
 H2921 H 0.52877 0.12783 0.51891
 H2922 H 0.52026 0.10578 0.51077
 H2923 H 0.53580 0.08653 0.54771
 H2924 H 0.54477 0.10834 0.55564
 H2925 H 0.51247 0.07609 0.54351
 H2926 H 0.50467 0.05357 0.53611
 H2927 H 0.52260 0.06032 0.49575
 H2928 H 0.53033 0.08289 0.50320
 C2929 C 0.54469 0.63570 0.03981
 C2930 C 0.53556 0.64558 0.04490
 C2931 C 0.54041 0.65787 0.05035
 C2932 C 0.55452 0.66052 0.05103
 C2933 C 0.56363 0.65073 0.04575
 C2934 C 0.55878 0.63854 0.04012
 C2935 C 0.53962 0.62234 0.03457
 C2936 C 0.54718 0.61035 0.03689
 C2937 C 0.54247 0.59779 0.03204
 C2938 C 0.53000 0.59686 0.02494
 C2939 C 0.52233 0.60875 0.02270
 C2940 C 0.52713 0.62138 0.02737
 C2941 C 0.52505 0.58345 0.02002
 C2942 C 0.51165 0.57914 0.02287
 C2943 C 0.50733 0.56608 0.01903
 C2944 C 0.51627 0.55719 0.01206
 C2945 C 0.52955 0.56171 0.00885
 C2946 C 0.53391 0.57466 0.01288
 H2947 H 0.52465 0.64372 0.04497
 H2948 H 0.53307 0.66526 0.05412
 H2949 H 0.57457 0.65230 0.04626
 H2950 H 0.56612 0.63131 0.03606
 H2951 H 0.55664 0.61061 0.04267
 H2952 H 0.54847 0.58873 0.03408
 H2953 H 0.51273 0.60828 0.01715
 H2954 H 0.52114 0.63039 0.02520
 H2955 H 0.50466 0.58573 0.02844
 H2956 H 0.49704 0.56289 0.02163
 H2957 H 0.53672 0.55509 0.00357
 H2958 H 0.54427 0.57781 0.01048
 C2959 C 0.70653 0.11386 0.54167
 C2960 C 0.69850 0.10525 0.53340
 C2961 C 0.69275 0.09335 0.53889
 C2962 C 0.69474 0.08971 0.55294
 C2963 C 0.70314 0.09834 0.56103
 C2964 C 0.70897 0.11011 0.55547
 C2965 C 0.71205 0.12692 0.53614
 C2966 C 0.71259 0.13854 0.54466
 C2967 C 0.71786 0.15080 0.53965
 C2968 C 0.72257 0.15182 0.52596
 C2969 C 0.72186 0.14032 0.51731
 C2970 C 0.71672 0.12796 0.52238
 C2971 C 0.72808 0.16494 0.52080
 C2972 C 0.72369 0.17037 0.50810
 C2973 C 0.72802 0.18332 0.50388
 C2974 C 0.73695 0.19100 0.51222
 C2975 C 0.74172 0.18529 0.52468
 C2976 C 0.73728 0.17244 0.52894
 H2977 H 0.69641 0.10782 0.52270
 H2978 H 0.68703 0.08696 0.53186
 H2979 H 0.70477 0.09657 0.57195
 H2980 H 0.71530 0.11638 0.56210
 H2981 H 0.70875 0.13824 0.55518
 H2982 H 0.71805 0.15960 0.54644
 H2983 H 0.72551 0.14084 0.50673
 H2984 H 0.71660 0.11918 0.51558
 H2985 H 0.71653 0.16480 0.50168
 H2986 H 0.72417 0.18743 0.49423
 H2987 H 0.74857 0.19092 0.53138
 H2988 H 0.74092 0.16841 0.53871
 C2989 C 0.70861 0.61356 0.03832
 C2990 C 0.69462 0.61239 0.04149
 C2991 C 0.68936 0.60036 0.04708
 C2992 C 0.69798 0.58925 0.04981
 C2993 C 0.71194 0.59031 0.04664
 C2994 C 0.71719 0.60231 0.04086
 C2995 C 0.71420 0.62662 0.03282
 C2996 C 0.72718 0.63129 0.03690
 C2997 C 0.73205 0.64396 0.03245
 C2998 C 0.72399 0.65237 0.02393
 C2999 C 0.71115 0.64756 0.01960
 C3000 C 0.70637 0.63482 0.02390
 C3001 C 0.72870 0.66631 0.02005
 C3002 C 0.72532 0.67199 0.00710
 C3003 C 0.72906 0.68538 0.00383
 C3004 C 0.73645 0.69331 0.01334
 C3005 C 0.74012 0.68756 0.02614
 C3006 C 0.73621 0.67427 0.02949
 H3007 H 0.68774 0.62091 0.04001
 H3008 H 0.67859 0.59987 0.04965
 H3009 H 0.71876 0.58183 0.04856
 H3010 H 0.72797 0.60275 0.03834
 H3011 H 0.73347 0.62534 0.04387
 H3012 H 0.74209 0.64720 0.03579
 H3013 H 0.70458 0.65378 0.01317
 H3014 H 0.69644 0.63146 0.02031
 H3015 H 0.71977 0.66611 -0.00053
 H3016 H 0.72619 0.68951 -0.00616
 H3017 H 0.74569 0.69348 0.03375
 H3018 H 0.73876 0.67038 0.03966
 C3019 C 0.20643 0.63641 0.71131
 C3020 C 0.19245 0.63735 0.70806
 C3021 C 0.18710 0.64920 0.70219
 C3022 C 0.19562 0.66034 0.69924
 C3023 C 0.20957 0.65952 0.70251
 C3024 C 0.21491 0.64771 0.70858
 C3025 C 0.21215 0.62354 0.71707
 C3026 C 0.22523 0.61900 0.71313
 C3027 C 0.23027 0.60652 0.71789
 C3028 C 0.22231 0.59816 0.72658
 C3029 C 0.20935 0.60284 0.73075
 C3030 C 0.20439 0.61539 0.72613
 C3031 C 0.22727 0.58444 0.73085
 C3032 C 0.22401 0.57906 0.74397
 C3033 C 0.22816 0.56591 0.74767
 C3034 C 0.23583 0.55792 0.73842
 C3035 C 0.23931 0.56337 0.72542
 C3036 C 0.23500 0.57642 0.72165
 H3037 H 0.18565 0.62878 0.70970
 H3038 H 0.17634 0.64951 0.69956
 H3039 H 0.21631 0.66804 0.70043
 H3040 H 0.22567 0.64746 0.71116
 H3041 H 0.23146 0.62490 0.70605
 H3042 H 0.24039 0.60339 0.71467
 H3043 H 0.20286 0.59664 0.73730
 H3044 H 0.19439 0.61866 0.72961
 H3045 H 0.21829 0.58501 0.75142
 H3046 H 0.22540 0.56202 0.75779
 H3047 H 0.24509 0.55742 0.71800
 H3048 H 0.23746 0.58006 0.71136
 C3049 C 0.20957 0.13721 0.21102
 C3050 C 0.20329 0.14707 0.21944
 C3051 C 0.19782 0.15893 0.21358
 C3052 C 0.19832 0.16105 0.19916
 C3053 C 0.20461 0.15110 0.19080
 C3054 C 0.21026 0.13939 0.19667
 C3055 C 0.21503 0.12443 0.21700
 C3056 C 0.22802 0.11971 0.21314
 C3057 C 0.23276 0.10710 0.21783
 C3058 C 0.22450 0.09881 0.22632
 C3059 C 0.21163 0.10376 0.23048
 C3060 C 0.20698 0.11648 0.22593
 C3061 C 0.22904 0.08484 0.23023
 C3062 C 0.22563 0.07921 0.24319
 C3063 C 0.22937 0.06583 0.24651
 C3064 C 0.23674 0.05784 0.23699
 C3065 C 0.24035 0.06354 0.22414
 C3066 C 0.23647 0.07682 0.22077
 H3067 H 0.20272 0.14563 0.23055
 H3068 H 0.19326 0.16644 0.22037
 H3069 H 0.20489 0.15216 0.17964
 H3070 H 0.21484 0.13183 0.18994
 H3071 H 0.23448 0.12576 0.20639
 H3072 H 0.24285 0.10379 0.21470
 H3073 H 0.20491 0.09760 0.23684
 H3074 H 0.19686 0.11986 0.22894
 H3075 H 0.22009 0.08514 0.25081
 H3076 H 0.22651 0.06175 0.25652
 H3077 H 0.24588 0.05761 0.21651
 H3078 H 0.23902 0.08067 0.21058
 C3079 C 0.70468 1.13359 0.70965
 C3080 C 0.71322 1.14209 0.70177
 C3081 C 0.70831 1.15432 0.69622
 C3082 C 0.69460 1.15845 0.69828
 C3083 C 0.68621 1.14992 0.70653
 C3084 C 0.69119 1.13778 0.71212
 C3085 C 0.70965 1.12023 0.71494
 C3086 C 0.70096 1.10880 0.71501
 C3087 C 0.70561 1.09619 0.71978
 C3088 C 0.71909 1.09466 0.72449
 C3089 C 0.72781 1.10605 0.72444
 C3090 C 0.72313 1.11871 0.71977
 C3091 C 0.72407 1.08114 0.72916
 C3092 C 0.73685 1.07625 0.72476
 C3093 C 0.74126 1.06324 0.72861
 C3094 C 0.73305 1.05488 0.73705
 C3095 C 0.72038 1.05991 0.74168
 C3096 C 0.71592 1.07287 0.73772
 H3097 H 0.72369 1.13918 0.69963
 H3098 H 0.71551 1.16057 0.69058
 H3099 H 0.67550 1.15209 0.70819
 H3100 H 0.68436 1.13157 0.71831
 H3101 H 0.69062 1.10951 0.71110
 H3102 H 0.69873 1.08753 0.71949
 H3103 H 0.73822 1.10518 0.72815
 H3104 H 0.73003 1.12734 0.72006
 H3105 H 0.74328 1.08235 0.71805
 H3106 H 0.75108 1.05969 0.72487
 H3107 H 0.71378 1.05374 0.74815
 H3108 H 0.70608 1.07645 0.74136
 C3109 C 0.70831 0.63734 0.21282
 C3110 C 0.69427 0.63826 0.20984
 C3111 C 0.68878 0.65018 0.20424
 C3112 C 0.69720 0.66141 0.20133
 C3113 C 0.71121 0.66060 0.20439
 C3114 C 0.71669 0.64872 0.21016
 C3115 C 0.71418 0.62438 0.21824
 C3116 C 0.72715 0.61989 0.21390
 C3117 C 0.73229 0.60733 0.21832
 C3118 C 0.72453 0.59885 0.22708
 C3119 C 0.71169 0.60348 0.23165
 C3120 C 0.70663 0.61611 0.22736
 C3121 C 0.72954 0.58505 0.23102
 C3122 C 0.72655 0.57951 0.24413
 C3123 C 0.73048 0.56621 0.24746
 C3124 C 0.73768 0.55820 0.23785
 C3125 C 0.74102 0.56383 0.22490
 C3126 C 0.73692 0.57706 0.22149
 H3127 H 0.68755 0.62964 0.21144
 H3128 H 0.67798 0.65047 0.20176
 H3129 H 0.71789 0.66918 0.20234
 H3130 H 0.72750 0.64846 0.21254
 H3131 H 0.73321 0.62591 0.20677
 H3132 H 0.74232 0.60422 0.21478
 H3133 H 0.70534 0.59720 0.23826
 H3134 H 0.69672 0.61933 0.23112
 H3135 H 0.72113 0.58544 0.25183
 H3136 H 0.72786 0.56219 0.25757
 H3137 H 0.74643 0.55786 0.21721
 H3138 H 0.73920 0.58085 0.21121
 C3139 C 0.54596 0.11780 0.70528
 C3140 C 0.53727 0.10790 0.69947
 C3141 C 0.54258 0.09572 0.69418
 C3142 C 0.55673 0.09319 0.69443
 C3143 C 0.56541 0.10311 0.70019
 C3144 C 0.56009 0.11519 0.70562
 C3145 C 0.54037 0.13081 0.71089
 C3146 C 0.54780 0.14303 0.70955
 C3147 C 0.54275 0.15520 0.71503
 C3148 C 0.53005 0.15551 0.72181
 C3149 C 0.52249 0.14340 0.72300
 C3150 C 0.52763 0.13116 0.71769
 C3151 C 0.52477 0.16849 0.72752
 C3152 C 0.51136 0.17275 0.72469
 C3153 C 0.50675 0.18549 0.72925
 C3154 C 0.51540 0.19410 0.73692
 C3155 C 0.52866 0.18958 0.74014
 C3156 C 0.53332 0.17696 0.73541
 H3157 H 0.52636 0.10961 0.69885
 H3158 H 0.53557 0.08825 0.68998
 H3159 H 0.57637 0.10163 0.70038
 H3160 H 0.56709 0.12245 0.71021
 H3161 H 0.55748 0.14326 0.70410
 H3162 H 0.54867 0.16446 0.71377
 H3163 H 0.51271 0.14337 0.72828
 H3164 H 0.52172 0.12193 0.71912
 H3165 H 0.50460 0.16642 0.71856
 H3166 H 0.49648 0.18869 0.72660
 H3167 H 0.53562 0.19599 0.74595
 H3168 H 0.54367 0.17384 0.73782
 C3169 C 1.04388 0.11472 0.20879
 C3170 C 1.05792 0.11176 0.20960
 C3171 C 1.06311 0.09960 0.20426
 C3172 C 1.05438 0.08992 0.19815
 C3173 C 1.04028 0.09268 0.19767
 C3174 C 1.03510 0.10496 0.20287
 C3175 C 1.03856 0.12805 0.21382
 C3176 C 1.02564 0.12904 0.22020
 C3177 C 1.02075 0.14164 0.22488
 C3178 C 1.02873 0.15346 0.22343
 C3179 C 1.04159 0.15250 0.21705
 C3180 C 1.04640 0.13998 0.21222
 C3181 C 1.02372 0.16682 0.22843
 C3182 C 1.03236 0.17536 0.23616
 C3183 C 1.02800 0.18831 0.24020
 C3184 C 1.01497 0.19309 0.23646
 C3185 C 1.00623 0.18444 0.22894
 C3186 C 1.01053 0.17138 0.22506
 H3187 H 1.06497 0.11888 0.21433
 H3188 H 1.07404 0.09793 0.20465
 H3189 H 1.03323 0.08538 0.19325
 H3190 H 1.02426 0.10692 0.20196
 H3191 H 1.01940 0.12006 0.22178
 H3192 H 1.01082 0.14212 0.22984
 H3193 H 1.04783 0.16151 0.21560
 H3194 H 1.05622 0.13971 0.20705
 H3195 H 1.04253 0.17202 0.23898
 H3196 H 1.03501 0.19474 0.24593
 H3197 H 0.99613 0.18782 0.22592
 H3198 H 1.00372 0.16500 0.21904
 C3199 C 0.20450 0.61688 0.54188
 C3200 C 0.21344 0.60727 0.54778
 C3201 C 0.20843 0.59504 0.55327
 C3202 C 0.19434 0.59217 0.55309
 C3203 C 0.18545 0.60171 0.54701
 C3204 C 0.19046 0.61383 0.54139
 C3205 C 0.20966 0.63016 0.53653
 C3206 C 0.20184 0.64209 0.53818
 C3207 C 0.20654 0.65457 0.53310
 C3208 C 0.21925 0.65547 0.52641
 C3209 C 0.22719 0.64364 0.52489
 C3210 C 0.22241 0.63109 0.52982
 C3211 C 0.22420 0.66880 0.52121
 C3212 C 0.23755 0.67322 0.52409
 C3213 C 0.24191 0.68615 0.51989
 C3214 C 0.23306 0.69485 0.51257
 C3215 C 0.21982 0.69024 0.50938
 C3216 C 0.21541 0.67739 0.51373
 H3217 H 0.22429 0.60932 0.54845
 H3218 H 0.21560 0.58786 0.55769
 H3219 H 0.17452 0.59998 0.54685
 H3220 H 0.18330 0.62085 0.53670
 H3221 H 0.19214 0.64185 0.54359
 H3222 H 0.20033 0.66359 0.53462
 H3223 H 0.23699 0.64407 0.51967
 H3224 H 0.22862 0.62210 0.52820
 H3225 H 0.24448 0.66681 0.52993
 H3226 H 0.25218 0.68940 0.52250
 H3227 H 0.21273 0.69671 0.50382
 H3228 H 0.20510 0.67417 0.51130
 C3229 C 0.20559 0.11679 1.04047
 C3230 C 0.19158 0.11367 1.03968
 C3231 C 0.18657 0.10134 1.04482
 C3232 C 0.19545 0.09167 1.05072
 C3233 C 0.20951 0.09464 1.05120
 C3234 C 0.21451 0.10707 1.04620
 C3235 C 0.21077 0.13025 1.03560
 C3236 C 0.22363 0.13142 1.02916
 C3237 C 0.22846 0.14412 1.02470
 C3238 C 0.22046 0.15588 1.02644
 C3239 C 0.20762 0.15474 1.03284
 C3240 C 0.20287 0.14210 1.03745
 C3241 C 0.22546 0.16935 1.02168
 C3242 C 0.21681 0.17807 1.01419
 C3243 C 0.22133 0.19095 1.01005
 C3244 C 0.23455 0.19545 1.01346
 C3245 C 0.24324 0.18668 1.02088
 C3246 C 0.23876 0.17371 1.02486
 H3247 H 0.18444 0.12079 1.03511
 H3248 H 0.17567 0.09951 1.04444
 H3249 H 0.21668 0.08736 1.05548
 H3250 H 0.22534 0.10915 1.04710
 H3251 H 0.22991 0.12250 1.02737
 H3252 H 0.23835 0.14472 1.01968
 H3253 H 0.20135 0.16370 1.03450
 H3254 H 0.19307 0.14167 1.04265
 H3255 H 0.20653 0.17490 1.01153
 H3256 H 0.21436 0.19749 1.00442
 H3257 H 0.25348 0.18985 1.02365
 H3258 H 0.24559 0.16720 1.03071
 C3259 C 0.20761 0.70354 0.63479
 C3260 C 0.20830 0.68963 0.63827
 C3261 C 0.20281 0.68488 0.65073
 C3262 C 0.19662 0.69393 0.66013
 C3263 C 0.19618 0.70788 0.65679
 C3264 C 0.20155 0.71261 0.64425
 C3265 C 0.21291 0.70849 0.62124
 C3266 C 0.21928 0.72131 0.62013
 C3267 C 0.22388 0.72609 0.60730
 C3268 C 0.22236 0.71810 0.59533
 C3269 C 0.21616 0.70524 0.59643
 C3270 C 0.21142 0.70051 0.60921
 C3271 C 0.22698 0.72324 0.58168
 C3272 C 0.23435 0.71476 0.57263
 C3273 C 0.23839 0.71949 0.55960
 C3274 C 0.23500 0.73276 0.55528
 C3275 C 0.22768 0.74125 0.56437
 C3276 C 0.22379 0.73657 0.57747
 H3277 H 0.21308 0.68237 0.63134
 H3278 H 0.20318 0.67405 0.65286
 H3279 H 0.19164 0.71517 0.66386
 H3280 H 0.20069 0.72336 0.64187
 H3281 H 0.22082 0.72762 0.62919
 H3282 H 0.22877 0.73599 0.60674
 H3283 H 0.21469 0.69896 0.58732
 H3284 H 0.20632 0.69072 0.60961
 H3285 H 0.23702 0.70447 0.57568
 H3286 H 0.24395 0.71266 0.55281
 H3287 H 0.22491 0.75153 0.56136
 H3288 H 0.21801 0.74327 0.58421
 C3289 C 0.20717 0.20519 1.13500
 C3290 C 0.20100 0.21407 1.14459
 C3291 C 0.19603 0.20916 1.15723
 C3292 C 0.19700 0.19523 1.16054
 C3293 C 0.20325 0.18638 1.15099
 C3294 C 0.20834 0.19131 1.13843
 C3295 C 0.21220 0.21030 1.12140
 C3296 C 0.21090 0.20225 1.10941
 C3297 C 0.21568 0.20697 1.09664
 C3298 C 0.22173 0.21990 1.09553
 C3299 C 0.22294 0.22803 1.10744
 C3300 C 0.21829 0.22326 1.12026
 C3301 C 0.22668 0.22487 1.08194
 C3302 C 0.22346 0.23808 1.07738
 C3303 C 0.22774 0.24259 1.06434
 C3304 C 0.23549 0.23403 1.05567
 C3305 C 0.23889 0.22089 1.06036
 C3306 C 0.23447 0.21634 1.07332
 H3307 H 0.19979 0.22479 1.14224
 H3308 H 0.19143 0.21629 1.16441
 H3309 H 0.20400 0.17556 1.15308
 H3310 H 0.21322 0.18421 1.13141
 H3311 H 0.20599 0.19237 1.10983
 H3312 H 0.21444 0.20059 1.08757
 H3313 H 0.22769 0.23799 1.10686
 H3314 H 0.21966 0.22964 1.12930
 H3315 H 0.21738 0.24482 1.08380
 H3316 H 0.22496 0.25276 1.06103
 H3317 H 0.24478 0.21402 1.05391
 H3318 H 0.23717 0.20614 1.07665
 C3319 C 0.70946 0.54520 0.11376
 C3320 C 0.71042 0.55910 0.11028
 C3321 C 0.70509 0.56394 0.09780
 C3322 C 0.69882 0.55500 0.08836
 C3323 C 0.69815 0.54105 0.09168
 C3324 C 0.70334 0.53622 0.10425
 C3325 C 0.71454 0.54020 0.12738
 C3326 C 0.72060 0.52724 0.12864
 C3327 C 0.72517 0.52253 0.14151
 C3328 C 0.72393 0.53075 0.15335
 C3329 C 0.71795 0.54369 0.15213
 C3330 C 0.71323 0.54833 0.13932
 C3331 C 0.72877 0.52586 0.16701
 C3332 C 0.73657 0.53444 0.17555
 C3333 C 0.74069 0.53009 0.18868
 C3334 C 0.73695 0.51712 0.19361
 C3335 C 0.72926 0.50848 0.18499
 C3336 C 0.72529 0.51278 0.17178
 H3337 H 0.71527 0.56628 0.11722
 H3338 H 0.70563 0.57477 0.09572
 H3339 H 0.69356 0.53384 0.08458
 H3340 H 0.70228 0.52549 0.10662
 H3341 H 0.72198 0.52079 0.11965
 H3342 H 0.72986 0.51255 0.14218
 H3343 H 0.71669 0.55013 0.16115
 H3344 H 0.70833 0.55821 0.13885
 H3345 H 0.73947 0.54453 0.17207
 H3346 H 0.74655 0.53703 0.19508
 H3347 H 0.72624 0.49843 0.18850
 H3348 H 0.71920 0.50601 0.16541
 C3349 C 0.70239 1.04554 0.61638
 C3350 C 0.70338 1.05948 0.61317
 C3351 C 0.69825 1.06453 0.60070
 C3352 C 0.69215 1.05575 0.59099
 C3353 C 0.69122 1.04178 0.59413
 C3354 C 0.69624 1.03674 0.60669
 C3355 C 0.70773 1.04026 0.62978
 C3356 C 0.71410 1.02742 0.63056
 C3357 C 0.71925 1.02260 0.64315
 C3358 C 0.71826 1.03056 0.65520
 C3359 C 0.71189 1.04336 0.65447
 C3360 C 0.70661 1.04812 0.64193
 C3361 C 0.72376 1.02553 0.66855
 C3362 C 0.73156 1.03415 0.67707
 C3363 C 0.73641 1.02955 0.68985
 C3364 C 0.73342 1.01628 0.69446
 C3365 C 0.72570 1.00763 0.68587
 C3366 C 0.72100 1.01218 0.67301
 H3367 H 0.70823 1.06653 0.62026
 H3368 H 0.69895 1.07538 0.59874
 H3369 H 0.68669 1.03472 0.58683
 H3370 H 0.69514 1.02597 0.60888
 H3371 H 0.71534 1.02120 0.62138
 H3372 H 0.72422 1.01274 0.64342
 H3373 H 0.71080 1.04959 0.66366
 H3374 H 0.70151 1.05791 0.64181
 H3375 H 0.73392 1.04446 0.67381
 H3376 H 0.74227 1.03649 0.69625
 H3377 H 0.72323 0.99735 0.68912
 H3378 H 0.71492 1.00537 0.66668
 C3379 C 0.54420 0.20503 0.61493
 C3380 C 0.55016 0.21367 0.60498
 C3381 C 0.55519 0.20839 0.59251
 C3382 C 0.55446 0.19433 0.58974
 C3383 C 0.54847 0.18572 0.59970
 C3384 C 0.54332 0.19101 0.61206
 C3385 C 0.53901 0.21050 0.62832
 C3386 C 0.54036 0.20284 0.64056
 C3387 C 0.53519 0.20772 0.65309
 C3388 C 0.52870 0.22046 0.65373
 C3389 C 0.52754 0.22828 0.64160
 C3390 C 0.53256 0.22332 0.62900
 C3391 C 0.52327 0.22552 0.66709
 C3392 C 0.52623 0.23880 0.67163
 C3393 C 0.52187 0.24321 0.68468
 C3394 C 0.51429 0.23448 0.69334
 C3395 C 0.51097 0.22135 0.68857
 C3396 C 0.51549 0.21689 0.67562
 H3397 H 0.55114 0.22450 0.60690
 H3398 H 0.55961 0.21533 0.58502
 H3399 H 0.54794 0.17482 0.59805
 H3400 H 0.53859 0.18407 0.61935
 H3401 H 0.54556 0.19310 0.64052
 H3402 H 0.53643 0.20161 0.66235
 H3403 H 0.52250 0.23811 0.64184
 H3404 H 0.53118 0.22941 0.61976
 H3405 H 0.53227 0.24561 0.66525
 H3406 H 0.52456 0.25339 0.68805
 H3407 H 0.50521 0.21436 0.69501
 H3408 H 0.51298 0.20665 0.67228
 C3409 C 1.04196 0.20545 0.11193
 C3410 C 1.05016 0.21377 0.10350
 C3411 C 1.05580 0.20874 0.09120
 C3412 C 1.05349 0.19513 0.08691
 C3413 C 1.04494 0.18698 0.09537
 C3414 C 1.03926 0.19207 0.10759
 C3415 C 1.03654 0.21050 0.12539
 C3416 C 1.03604 0.20181 0.13697
 C3417 C 1.03105 0.20648 0.14967
 C3418 C 1.02654 0.21999 0.15114
 C3419 C 1.02706 0.22873 0.13961
 C3420 C 1.03196 0.22402 0.12685
 C3421 C 1.02159 0.22495 0.16477
 C3422 C 1.02590 0.23762 0.16995
 C3423 C 1.02193 0.24190 0.18317
 C3424 C 1.01347 0.23364 0.19146
 C3425 C 1.00886 0.22112 0.18610
 C3426 C 1.01292 0.21681 0.17293
 H3427 H 1.05246 0.22415 0.10654
 H3428 H 1.06172 0.21577 0.08499
 H3429 H 1.04307 0.17635 0.09311
 H3430 H 1.03283 0.18541 0.11374
 H3431 H 1.03976 0.19144 0.13631
 H3432 H 1.03101 0.19959 0.15844
 H3433 H 1.02352 0.23916 0.14043
 H3434 H 1.03203 0.23093 0.11811
 H3435 H 1.03268 0.24405 0.16393
 H3436 H 1.02565 0.25161 0.18696
 H3437 H 1.00235 0.21450 0.19219
 H3438 H 1.00933 0.20706 0.16912
 C3439 C 0.63358 0.20527 0.70589
 C3440 C 0.64352 0.21364 0.69966
 C3441 C 0.65581 0.20810 0.69482
 C3442 C 0.65841 0.19404 0.69597
 C3443 C 0.64847 0.18570 0.70223
 C3444 C 0.63629 0.19125 0.70722
 C3445 C 0.62038 0.21103 0.71089
 C3446 C 0.60825 0.20338 0.70982
 C3447 C 0.59592 0.20852 0.71487
 C3448 C 0.59535 0.22152 0.72092
 C3449 C 0.60733 0.22935 0.72173
 C3450 C 0.61975 0.22412 0.71686
 C3451 C 0.58223 0.22674 0.72642
 C3452 C 0.57750 0.23978 0.72279
 C3453 C 0.56465 0.24425 0.72726
 C3454 C 0.55642 0.23585 0.73565
 C3455 C 0.56141 0.22299 0.73963
 C3456 C 0.57413 0.21846 0.73498
 H3457 H 0.64174 0.22445 0.69832
 H3458 H 0.66330 0.21486 0.69022
 H3459 H 0.64999 0.17480 0.70311
 H3460 H 0.62901 0.18452 0.71218
 H3461 H 0.60824 0.19343 0.70496
 H3462 H 0.58676 0.20239 0.71392
 H3463 H 0.60714 0.23937 0.72644
 H3464 H 0.62889 0.23023 0.71803
 H3465 H 0.58356 0.24631 0.71614
 H3466 H 0.56108 0.25421 0.72404
 H3467 H 0.55531 0.21623 0.74600
 H3468 H 0.57763 0.20841 0.73801
 C3469 C 1.13454 0.20552 0.20603
 C3470 C 1.14440 0.21423 0.20017
 C3471 C 1.15692 0.20909 0.19555
 C3472 C 1.15987 0.19508 0.19650
 C3473 C 1.15003 0.18638 0.20240
 C3474 C 1.13759 0.19154 0.20720
 C3475 C 1.12109 0.21092 0.21077
 C3476 C 1.10915 0.20304 0.20932
 C3477 C 1.09656 0.20797 0.21393
 C3478 C 1.09556 0.22097 0.21992
 C3479 C 1.10737 0.22899 0.22118
 C3480 C 1.12003 0.22398 0.21676
 C3481 C 1.08219 0.22601 0.22495
 C3482 C 1.07742 0.23900 0.22121
 C3483 C 1.06445 0.24339 0.22545
 C3484 C 1.05617 0.23495 0.23373
 C3485 C 1.06115 0.22210 0.23774
 C3486 C 1.07398 0.21764 0.23332
 H3487 H 1.14238 0.22501 0.19894
 H3488 H 1.16432 0.21614 0.19125
 H3489 H 1.15182 0.17552 0.20313
 H3490 H 1.13037 0.18455 0.21187
 H3491 H 1.10948 0.19310 0.20446
 H3492 H 1.08755 0.20168 0.21267
 H3493 H 1.10685 0.23900 0.22588
 H3494 H 1.12901 0.23025 0.21825
 H3495 H 1.08357 0.24560 0.21471
 H3496 H 1.06089 0.25334 0.22221
 H3497 H 1.05499 0.21531 0.24402
 H3498 H 1.07749 0.20763 0.23642
 C3499 C 0.11537 0.70557 0.54507
 C3500 C 0.10593 0.69983 0.53575
 C3501 C 0.09352 0.69450 0.54049
 C3502 C 0.09027 0.69464 0.55469
 C3503 C 0.09967 0.70046 0.56399
 C3504 C 0.11201 0.70591 0.55924
 C3505 C 0.12873 0.71099 0.54007
 C3506 C 0.14062 0.70945 0.54811
 C3507 C 0.15317 0.71449 0.54344
 C3508 C 0.15417 0.72104 0.53054
 C3509 C 0.14235 0.72254 0.52245
 C3510 C 0.12976 0.71765 0.52719
 C3511 C 0.16755 0.72617 0.52554
 C3512 C 0.17190 0.72351 0.51193
 C3513 C 0.18474 0.72793 0.50738
 C3514 C 0.19340 0.73527 0.51629
 C3515 C 0.18892 0.73812 0.52983
 C3516 C 0.17617 0.73355 0.53443
 H3517 H 0.10822 0.69923 0.52479
 H3518 H 0.08646 0.69028 0.53300
 H3519 H 0.09762 0.70059 0.57501
 H3520 H 0.11891 0.71044 0.56670
 H3521 H 0.14030 0.70414 0.55794
 H3522 H 0.16217 0.71302 0.54979
 H3523 H 0.14283 0.72769 0.51253
 H3524 H 0.12079 0.71924 0.52083
 H3525 H 0.16549 0.71775 0.50491
 H3526 H 0.18789 0.72557 0.49689
 H3527 H 0.19538 0.74368 0.53699
 H3528 H 0.17301 0.73582 0.54494
 C3529 C 0.11758 0.20495 1.04352
 C3530 C 0.10785 0.19971 1.03421
 C3531 C 0.09535 0.19464 1.03900
 C3532 C 0.09230 0.19454 1.05325
 C3533 C 0.10204 0.19973 1.06256
 C3534 C 0.11447 0.20495 1.05775
 C3535 C 0.13093 0.21031 1.03845
 C3536 C 0.14291 0.20845 1.04628
 C3537 C 0.15542 0.21361 1.04163
 C3538 C 0.15628 0.22058 1.02896
 C3539 C 0.14440 0.22233 1.02102
 C3540 C 0.13184 0.21733 1.02575
 C3541 C 0.16958 0.22600 1.02408
 C3542 C 0.17402 0.22367 1.01044
 C3543 C 0.18683 0.22832 1.00605
 C3544 C 0.19536 0.23559 1.01516
 C3545 C 0.19076 0.23816 1.02872
 C3546 C 0.17805 0.23333 1.03316
 H3547 H 0.10994 0.19936 1.02320
 H3548 H 0.08803 0.19087 1.03152
 H3549 H 0.10017 0.19962 1.07361
 H3550 H 0.12160 0.20907 1.06523
 H3551 H 0.14269 0.20285 1.05593
 H3552 H 0.16448 0.21196 1.04784
 H3553 H 0.14479 0.22778 1.01127
 H3554 H 0.12281 0.21916 1.01955
 H3555 H 0.16771 0.21796 1.00328
 H3556 H 0.19009 0.22617 0.99555
 H3557 H 0.19711 0.24363 1.03603
 H3558 H 0.17481 0.23535 1.04369
 C3559 C 0.61520 0.54207 0.20848
 C3560 C 0.60388 0.54390 0.21731
 C3561 C 0.59163 0.54926 0.21221
 C3562 C 0.59037 0.55273 0.19816
 C3563 C 0.60158 0.55074 0.18930
 C3564 C 0.61386 0.54554 0.19440
 C3565 C 0.62842 0.53681 0.21393
 C3566 C 0.63669 0.52825 0.20578
 C3567 C 0.64939 0.52383 0.21062
 C3568 C 0.65411 0.52771 0.22380
 C3569 C 0.64570 0.53602 0.23208
 C3570 C 0.63305 0.54056 0.22718
 C3571 C 0.66787 0.52339 0.22870
 C3572 C 0.67606 0.53230 0.23656
 C3573 C 0.68922 0.52849 0.24063
 C3574 C 0.69458 0.51574 0.23680
 C3575 C 0.68636 0.50675 0.22912
 C3576 C 0.67314 0.51049 0.22520
 H3577 H 0.60445 0.54112 0.22815
 H3578 H 0.58309 0.55059 0.21923
 H3579 H 0.60093 0.55354 0.17846
 H3580 H 0.62242 0.54455 0.18736
 H3581 H 0.63338 0.52496 0.19562
 H3582 H 0.65564 0.51759 0.20387
 H3583 H 0.64890 0.53905 0.24236
 H3584 H 0.62704 0.54726 0.23369
 H3585 H 0.67245 0.54239 0.23925
 H3586 H 0.69534 0.53570 0.24644
 H3587 H 0.69015 0.49681 0.22612
 H3588 H 0.66704 0.50326 0.21941
 C3589 C 0.61589 1.04480 0.70734
 C3590 C 0.60453 1.03648 0.70438
 C3591 C 0.59264 1.04207 0.69868
 C3592 C 0.59180 1.05611 0.69598
 C3593 C 0.60304 1.06446 0.69910
 C3594 C 0.61497 1.05887 0.70464
 C3595 C 0.62875 1.03887 0.71295
 C3596 C 0.63675 1.04619 0.72249
 C3597 C 0.64919 1.04095 0.72720
 C3598 C 0.65389 1.02818 0.72261
 C3599 C 0.64573 1.02070 0.71333
 C3600 C 0.63336 1.02600 0.70851
 C3601 C 0.66743 1.02289 0.72718
 C3602 C 0.67583 1.01562 0.71794
 C3603 C 0.68876 1.01111 0.72203
 C3604 C 0.69367 1.01391 0.73541
 C3605 C 0.68525 1.02106 0.74470
 C3606 C 0.67225 1.02542 0.74067
 H3607 H 0.60479 1.02566 0.70654
 H3608 H 0.58405 1.03544 0.69649
 H3609 H 0.60271 1.07529 0.69692
 H3610 H 0.62358 1.06556 0.70649
 H3611 H 0.63343 1.05602 0.72632
 H3612 H 0.65525 1.04709 0.73420
 H3613 H 0.64892 1.01074 0.70973
 H3614 H 0.62756 1.02013 0.70105
 H3615 H 0.67259 1.01370 0.70740
 H3616 H 0.69506 1.00576 0.71457
 H3617 H 0.68870 1.02329 0.75512
 H3618 H 0.66597 1.03076 0.74814
 C3619 C 0.88376 0.45510 0.29507
 C3620 C 0.88471 0.45151 0.30916
 C3621 C 0.89670 0.44581 0.31444
 C3622 C 0.90796 0.44342 0.30575
 C3623 C 0.90706 0.44697 0.29169
 C3624 C 0.89512 0.45282 0.28642
 C3625 C 0.87088 0.46097 0.28944
 C3626 C 0.86633 0.45751 0.27607
 C3627 C 0.85403 0.46270 0.27095
 C3628 C 0.84588 0.47136 0.27911
 C3629 C 0.85050 0.47493 0.29242
 C3630 C 0.86287 0.46986 0.29748
 C3631 C 0.83246 0.47638 0.27394
 C3632 C 0.82778 0.48952 0.27734
 C3633 C 0.81490 0.49397 0.27301
 C3634 C 0.80647 0.48545 0.26501
 C3635 C 0.81125 0.47242 0.26136
 C3636 C 0.82405 0.46791 0.26583
 H3637 H 0.87609 0.45283 0.31607
 H3638 H 0.89707 0.44297 0.32528
 H3639 H 0.91567 0.44535 0.28482
 H3640 H 0.89485 0.45567 0.27559
 H3641 H 0.87214 0.45057 0.26963
 H3642 H 0.85090 0.45989 0.26058
 H3643 H 0.84443 0.48143 0.29908
 H3644 H 0.86614 0.47293 0.30773
 H3645 H 0.83407 0.49641 0.28334
 H3646 H 0.81155 0.50410 0.27591
 H3647 H 0.80493 0.46555 0.25535
 H3648 H 0.82718 0.45765 0.26323
 C3649 C 0.88327 0.95527 0.79342
 C3650 C 0.88603 0.94125 0.79221
 C3651 C 0.89813 0.93574 0.79742
 C3652 C 0.90796 0.94413 0.80377
 C3653 C 0.90535 0.95820 0.80474
 C3654 C 0.89313 0.96369 0.79969
 C3655 C 0.87009 0.96096 0.78832
 C3656 C 0.86943 0.97404 0.78233
 C3657 C 0.85701 0.97920 0.77741
 C3658 C 0.84506 0.97132 0.77820
 C3659 C 0.84566 0.95833 0.78425
 C3660 C 0.85799 0.95325 0.78935
 C3661 C 0.83194 0.97648 0.77268
 C3662 C 0.82393 0.96817 0.76408
 C3663 C 0.81117 0.97260 0.75949
 C3664 C 0.80604 0.98538 0.76356
 C3665 C 0.81418 0.99382 0.77197
 C3666 C 0.82708 0.98945 0.77639
 H3667 H 0.87884 0.93446 0.78721
 H3668 H 0.89965 0.92484 0.79666
 H3669 H 0.91275 0.96500 0.80940
 H3670 H 0.89131 0.97451 0.80094
 H3671 H 0.87855 0.98019 0.78120
 H3672 H 0.85679 0.98923 0.77271
 H3673 H 0.83652 0.95215 0.78518
 H3674 H 0.85799 0.94331 0.79422
 H3675 H 0.82752 0.95817 0.76100
 H3676 H 0.80513 0.96581 0.75310
 H3677 H 0.81051 1.00372 0.77527
 H3678 H 0.83307 0.99601 0.78307
 C3679 C 0.36613 0.29492 0.79273
 C3680 C 0.35613 0.28632 0.79854
 C3681 C 0.34369 0.29162 0.80325
 C3682 C 0.34097 0.30568 0.80240
 C3683 C 0.35092 0.31424 0.79647
 C3684 C 0.36325 0.30893 0.79160
 C3685 C 0.37958 0.28945 0.78808
 C3686 C 0.39155 0.29728 0.78967
 C3687 C 0.40414 0.29239 0.78501
 C3688 C 0.40514 0.27947 0.77886
 C3689 C 0.39330 0.27148 0.77750
 C3690 C 0.38064 0.27645 0.78198
 C3691 C 0.41852 0.27448 0.77379
 C3692 C 0.42321 0.26140 0.77731
 C3693 C 0.43616 0.25702 0.77304
 C3694 C 0.44454 0.26555 0.76495
 C3695 C 0.43966 0.27850 0.76118
 C3696 C 0.42684 0.28296 0.76564
 H3697 H 0.35802 0.27550 0.79970
 H3698 H 0.33621 0.28468 0.80758
 H3699 H 0.34934 0.32514 0.79583
 H3700 H 0.37056 0.31585 0.78695
 H3701 H 0.39123 0.30716 0.79464
 H3702 H 0.41316 0.29865 0.78638
 H3703 H 0.39382 0.26151 0.77270
 H3704 H 0.37164 0.27021 0.78041
 H3705 H 0.41700 0.25472 0.78366
 H3706 H 0.43963 0.24697 0.77610
 H3707 H 0.44588 0.28535 0.75501
 H3708 H 0.42339 0.29304 0.76270
 C3709 C 0.86880 0.29745 0.29550
 C3710 C 0.86597 0.29718 0.30979
 C3711 C 0.85377 0.30256 0.31498
 C3712 C 0.84398 0.30818 0.30599
 C3713 C 0.84675 0.30837 0.29169
 C3714 C 0.85903 0.30314 0.28652
 C3715 C 0.88188 0.29186 0.29002
 C3716 C 0.88231 0.28506 0.27718
 C3717 C 0.89462 0.27984 0.27206
 C3718 C 0.90672 0.28113 0.27975
 C3719 C 0.90633 0.28788 0.29257
 C3720 C 0.89408 0.29326 0.29761
 C3721 C 0.91975 0.27548 0.27445
 C3722 C 0.92823 0.26778 0.28317
 C3723 C 0.94071 0.26276 0.27834
 C3724 C 0.94505 0.26548 0.26472
 C3725 C 0.93650 0.27311 0.25596
 C3726 C 0.92391 0.27797 0.26075
 H3727 H 0.87315 0.29271 0.31701
 H3728 H 0.85210 0.30242 0.32606
 H3729 H 0.83938 0.31248 0.28445
 H3730 H 0.86092 0.30370 0.27548
 H3731 H 0.87310 0.28358 0.27116
 H3732 H 0.89464 0.27456 0.26221
 H3733 H 0.91557 0.28918 0.29859
 H3734 H 0.89422 0.29868 0.30737
 H3735 H 0.92519 0.26564 0.29375
 H3736 H 0.94711 0.25701 0.28539
 H3737 H 0.93957 0.27540 0.24543
 H3738 H 0.91758 0.28396 0.25386
 C3739 C 0.38198 0.79522 0.45417
 C3740 C 0.39199 0.78660 0.44845
 C3741 C 0.40458 0.79184 0.44407
 C3742 C 0.40743 0.80586 0.44516
 C3743 C 0.39740 0.81448 0.45083
 C3744 C 0.38489 0.80922 0.45536
 C3745 C 0.36857 0.78969 0.45886
 C3746 C 0.35656 0.79744 0.45736
 C3747 C 0.34403 0.79247 0.46214
 C3748 C 0.34316 0.77956 0.46834
 C3749 C 0.35504 0.77164 0.46960
 C3750 C 0.36763 0.77669 0.46500
 C3751 C 0.32989 0.77454 0.47369
 C3752 C 0.32516 0.76142 0.47036
 C3753 C 0.31232 0.75700 0.47496
 C3754 C 0.30411 0.76555 0.48319
 C3755 C 0.30905 0.77855 0.48677
 C3756 C 0.32175 0.78302 0.48199
 H3757 H 0.39007 0.77580 0.44719
 H3758 H 0.41211 0.78486 0.43994
 H3759 H 0.39912 0.82535 0.45165
 H3760 H 0.37755 0.81616 0.45992
 H3761 H 0.35679 0.80733 0.45239
 H3762 H 0.33497 0.79868 0.46087
 H3763 H 0.35462 0.76169 0.47445
 H3764 H 0.37667 0.77051 0.46653
 H3765 H 0.33125 0.75472 0.46391
 H3766 H 0.30878 0.74694 0.47203
 H3767 H 0.30295 0.78544 0.49301
 H3768 H 0.32524 0.79314 0.48479
 C3769 C 0.38462 0.29593 0.95677
 C3770 C 0.38755 0.30989 0.95822
 C3771 C 0.39972 0.31534 0.95305
 C3772 C 0.40940 0.30694 0.94648
 C3773 C 0.40659 0.29293 0.94525
 C3774 C 0.39432 0.28750 0.95026
 C3775 C 0.37141 0.29028 0.96188
 C3776 C 0.37068 0.27711 0.96766
 C3777 C 0.35824 0.27193 0.97252
 C3778 C 0.34633 0.27987 0.97189
 C3779 C 0.34701 0.29297 0.96607
 C3780 C 0.35937 0.29807 0.96103
 C3781 C 0.33317 0.27464 0.97729
 C3782 C 0.32510 0.28285 0.98594
 C3783 C 0.31234 0.27832 0.99049
 C3784 C 0.30728 0.26554 0.98631
 C3785 C 0.31548 0.25721 0.97784
 C3786 C 0.32837 0.26168 0.97347
 H3787 H 0.38046 0.31667 0.96339
 H3788 H 0.40142 0.32621 0.95402
 H3789 H 0.41388 0.28612 0.94043
 H3790 H 0.39236 0.27673 0.94883
 H3791 H 0.37976 0.27089 0.96866
 H3792 H 0.35796 0.26183 0.97705
 H3793 H 0.33790 0.29920 0.96526
 H3794 H 0.35943 0.30809 0.95634
 H3795 H 0.32865 0.29284 0.98912
 H3796 H 0.30626 0.28503 0.99693
 H3797 H 0.31187 0.24732 0.97447
 H3798 H 0.33441 0.25521 0.96674
 C3799 C 0.79793 0.45134 0.38232
 C3800 C 0.80349 0.45991 0.39255
 C3801 C 0.80862 0.45450 0.40489
 C3802 C 0.80851 0.44035 0.40726
 C3803 C 0.80300 0.43177 0.39701
 C3804 C 0.79769 0.43720 0.38476
 C3805 C 0.79246 0.45710 0.36914
 C3806 C 0.79382 0.44989 0.35661
 C3807 C 0.78858 0.45520 0.34428
 C3808 C 0.78207 0.46794 0.34414
 C3809 C 0.78082 0.47526 0.35657
 C3810 C 0.78586 0.46986 0.36896
 C3811 C 0.77660 0.47354 0.33103
 C3812 C 0.77971 0.48693 0.32693
 C3813 C 0.77502 0.49197 0.31425
 C3814 C 0.76691 0.48380 0.30555
 C3815 C 0.76354 0.47052 0.30985
 C3816 C 0.76844 0.46540 0.32240
 H3817 H 0.80405 0.47083 0.39098
 H3818 H 0.81260 0.46144 0.41261
 H3819 H 0.80292 0.42082 0.39834
 H3820 H 0.79330 0.43028 0.37725
 H3821 H 0.79910 0.44020 0.35625
 H3822 H 0.78982 0.44945 0.33478
 H3823 H 0.77571 0.48506 0.35672
 H3824 H 0.78438 0.47560 0.37841
 H3825 H 0.78606 0.49336 0.33340
 H3826 H 0.77778 0.50225 0.31122
 H3827 H 0.75737 0.46395 0.30337
 H3828 H 0.76583 0.45508 0.32540
 C3829 C 0.79526 0.95305 0.88394
 C3830 C 0.80074 0.96186 0.89402
 C3831 C 0.80614 0.95668 0.90636
 C3832 C 0.80632 0.94255 0.90888
 C3833 C 0.80084 0.93376 0.89880
 C3834 C 0.79529 0.93894 0.88657
 C3835 C 0.78969 0.95847 0.87067
 C3836 C 0.79131 0.95108 0.85828
 C3837 C 0.78592 0.95599 0.84585
 C3838 C 0.77896 0.96849 0.84546
 C3839 C 0.77749 0.97602 0.85775
 C3840 C 0.78271 0.97102 0.87024
 C3841 C 0.77338 0.97364 0.83221
 C3842 C 0.77598 0.98706 0.82789
 C3843 C 0.77147 0.99159 0.81493
 C3844 C 0.76408 0.98283 0.80615
 C3845 C 0.76113 0.96954 0.81071
 C3846 C 0.76581 0.96496 0.82355
 H3847 H 0.80106 0.97276 0.89230
 H3848 H 0.81014 0.96375 0.91394
 H3849 H 0.80101 0.92282 0.90023
 H3850 H 0.79096 0.93185 0.87918
 H3851 H 0.79690 0.94157 0.85810
 H3852 H 0.78738 0.95011 0.83647
 H3853 H 0.77208 0.98565 0.85771
 H3854 H 0.78108 0.97689 0.87959
 H3855 H 0.78186 0.99391 0.83436
 H3856 H 0.77389 1.00189 0.81172
 H3857 H 0.75553 0.96251 0.80417
 H3858 H 0.76359 0.95459 0.82671
 C3859 C 0.29199 0.79798 0.36511
 C3860 C 0.29821 0.78918 0.35547
 C3861 C 0.30422 0.79434 0.34339
 C3862 C 0.30428 0.80844 0.34073
 C3863 C 0.29796 0.81720 0.35032
 C3864 C 0.29181 0.81204 0.36228
 C3865 C 0.28598 0.79262 0.37821
 C3866 C 0.28700 0.80017 0.39056
 C3867 C 0.28141 0.79522 0.40288
 C3868 C 0.27482 0.78251 0.40322
 C3869 C 0.27384 0.77487 0.39095
 C3870 C 0.27929 0.77991 0.37855
 C3871 C 0.26933 0.77717 0.41645
 C3872 C 0.27228 0.76379 0.42068
 C3873 C 0.26806 0.75913 0.43370
 C3874 C 0.26065 0.76770 0.44265
 C3875 C 0.25728 0.78092 0.43818
 C3876 C 0.26165 0.78563 0.42525
 H3877 H 0.29867 0.77831 0.35736
 H3878 H 0.30882 0.78726 0.33615
 H3879 H 0.29796 0.82813 0.34874
 H3880 H 0.28691 0.81911 0.36931
 H3881 H 0.29236 0.80983 0.39079
 H3882 H 0.28251 0.80120 0.41225
 H3883 H 0.26872 0.76508 0.39094
 H3884 H 0.27812 0.77391 0.36922
 H3885 H 0.27825 0.75711 0.41412
 H3886 H 0.27079 0.74889 0.43683
 H3887 H 0.25164 0.78779 0.44485
 H3888 H 0.25916 0.79595 0.42217
 C3889 C 0.29382 0.29670 0.86430
 C3890 C 0.29684 0.31068 0.86295
 C3891 C 0.30226 0.31583 0.85062
 C3892 C 0.30495 0.30712 0.83941
 C3893 C 0.30202 0.29317 0.84071
 C3894 C 0.29642 0.28803 0.85298
 C3895 C 0.28822 0.29120 0.87753
 C3896 C 0.29210 0.27822 0.88230
 C3897 C 0.28717 0.27321 0.89490
 C3898 C 0.27836 0.28110 0.90318
 C3899 C 0.27434 0.29401 0.89833
 C3900 C 0.27914 0.29896 0.88564
 C3901 C 0.27376 0.27607 0.91698
 C3902 C 0.26063 0.27914 0.92207
 C3903 C 0.25658 0.27481 0.93527
 C3904 C 0.26550 0.26717 0.94360
 C3905 C 0.27854 0.26392 0.93844
 C3906 C 0.28264 0.26838 0.92535
 H3907 H 0.29527 0.31762 0.87152
 H3908 H 0.30459 0.32661 0.84991
 H3909 H 0.30389 0.28628 0.83214
 H3910 H 0.29400 0.27727 0.85352
 H3911 H 0.29920 0.27200 0.87645
 H3912 H 0.29031 0.26313 0.89817
 H3913 H 0.26770 0.30045 0.90446
 H3914 H 0.27572 0.30889 0.88220
 H3915 H 0.25343 0.28484 0.91584
 H3916 H 0.24644 0.27742 0.93893
 H3917 H 0.28574 0.25819 0.94466
 H3918 H 0.29293 0.26607 0.92194
 C3919 C 0.45548 0.29827 0.88382
 C3920 C 0.45589 0.31230 0.88684
 C3921 C 0.45076 0.31729 0.89936
 C3922 C 0.44523 0.30836 0.90930
 C3923 C 0.44494 0.29432 0.90636
 C3924 C 0.44993 0.28935 0.89376
 C3925 C 0.46070 0.29300 0.87035
 C3926 C 0.46732 0.28028 0.86957
 C3927 C 0.47206 0.27528 0.85688
 C3928 C 0.47046 0.28296 0.84473
 C3929 C 0.46394 0.29569 0.84546
 C3930 C 0.45904 0.30061 0.85811
 C3931 C 0.47550 0.27772 0.83127
 C3932 C 0.48308 0.28617 0.82239
 C3933 C 0.48764 0.28133 0.80959
 C3934 C 0.48454 0.26797 0.80532
 C3935 C 0.47697 0.25950 0.81423
 C3936 C 0.47258 0.26430 0.82713
 H3937 H 0.46027 0.31946 0.87954
 H3938 H 0.45096 0.32818 0.90116
 H3939 H 0.44090 0.28713 0.91383
 H3940 H 0.44925 0.27851 0.89174
 H3941 H 0.46901 0.27424 0.87880
 H3942 H 0.47719 0.26550 0.85659
 H3943 H 0.46242 0.30172 0.83619
 H3944 H 0.45374 0.31030 0.85823
 H3945 H 0.48554 0.29653 0.82540
 H3946 H 0.49337 0.28813 0.80292
 H3947 H 0.47442 0.24917 0.81123
 H3948 H 0.46667 0.25762 0.83377
 C3949 C 0.95375 0.29816 0.38134
 C3950 C 0.96224 0.30039 0.39288
 C3951 C 0.95685 0.30547 0.40526
 C3952 C 0.94283 0.30830 0.40642
 C3953 C 0.93432 0.30611 0.39494
 C3954 C 0.93973 0.30116 0.38251
 C3955 C 0.95945 0.29269 0.36816
 C3956 C 0.95184 0.28351 0.36006
 C3957 C 0.95710 0.27848 0.34761
 C3958 C 0.97017 0.28236 0.34300
 C3959 C 0.97783 0.29146 0.35115
 C3960 C 0.97252 0.29660 0.36355
 C3961 C 0.97567 0.27707 0.32966
 C3962 C 0.98352 0.28548 0.32092
 C3963 C 0.98829 0.28064 0.30818
 C3964 C 0.98520 0.26732 0.30382
 C3965 C 0.97751 0.25885 0.31261
 C3966 C 0.97287 0.26364 0.32541
 H3967 H 0.97303 0.29798 0.39243
 H3968 H 0.96359 0.30696 0.41402
 H3969 H 0.92351 0.30840 0.39551
 H3970 H 0.93294 0.29986 0.37377
 H3971 H 0.94183 0.28012 0.36338
 H3972 H 0.95081 0.27166 0.34152
 H3973 H 0.98800 0.29455 0.34801
 H3974 H 0.97861 0.30377 0.36943
 H3975 H 0.98569 0.29594 0.32375
 H3976 H 0.99406 0.28747 0.30158
 H3977 H 0.97503 0.24851 0.30959
 H3978 H 0.96710 0.25679 0.33198
 C3979 C 0.45558 0.38418 0.79151
 C3980 C 0.46445 0.39382 0.79747
 C3981 C 0.45938 0.40607 0.80283
 C3982 C 0.44529 0.40892 0.80249
 C3983 C 0.43647 0.39935 0.79633
 C3984 C 0.44155 0.38722 0.79082
 C3985 C 0.46080 0.37086 0.78633
 C3986 C 0.45291 0.35895 0.78788
 C3987 C 0.45768 0.34644 0.78298
 C3988 C 0.47053 0.34548 0.77659
 C3989 C 0.47853 0.35729 0.77516
 C3990 C 0.47368 0.36987 0.77990
 C3991 C 0.47554 0.33213 0.77157
 C3992 C 0.48874 0.32761 0.77495
 C3993 C 0.49315 0.31465 0.77088
 C3994 C 0.48451 0.30607 0.76317
 C3995 C 0.47143 0.31078 0.75950
 C3996 C 0.46697 0.32364 0.76374
 H3997 H 0.47529 0.39178 0.79830
 H3998 H 0.46650 0.41327 0.80731
 H3999 H 0.42554 0.40107 0.79605
 H4000 H 0.43444 0.38019 0.78606
 H4001 H 0.44311 0.35923 0.79308
 H4002 H 0.45142 0.33744 0.78440
 H4003 H 0.48845 0.35680 0.77018
 H4004 H 0.47995 0.37884 0.77835
 H4005 H 0.49550 0.33396 0.78106
 H4006 H 0.50328 0.31133 0.77385
 H4007 H 0.46451 0.30440 0.75361
 H4008 H 0.45678 0.32695 0.76093
 C4009 C 0.95395 0.38238 0.29170
 C4010 C 0.96282 0.39205 0.29762
 C4011 C 0.95771 0.40414 0.30331
 C4012 C 0.94359 0.40681 0.30335
 C4013 C 0.93475 0.39721 0.29728
 C4014 C 0.93986 0.38523 0.29145
 C4015 C 0.95926 0.36926 0.28609
 C4016 C 0.95164 0.35718 0.28757
 C4017 C 0.95655 0.34485 0.28233
 C4018 C 0.96928 0.34425 0.27565
 C4019 C 0.97700 0.35624 0.27425
 C4020 C 0.97201 0.36864 0.27934
 C4021 C 0.97450 0.33107 0.27034
 C4022 C 0.98791 0.32686 0.27328
 C4023 C 0.99253 0.31405 0.26897
 C4024 C 0.98390 0.30529 0.26146
 C4025 C 0.97060 0.30968 0.25822
 C4026 C 0.96593 0.32240 0.26270
 H4027 H 0.97371 0.39016 0.29814
 H4028 H 0.96485 0.41137 0.30771
 H4029 H 0.92380 0.39880 0.29728
 H4030 H 0.93273 0.37816 0.28675
 H4031 H 0.94195 0.35717 0.29299
 H4032 H 0.95050 0.33569 0.28374
 H4033 H 0.98681 0.35605 0.26904
 H4034 H 0.97807 0.37775 0.27781
 H4035 H 0.99467 0.33333 0.27924
 H4036 H 1.00283 0.31096 0.27162
 H4037 H 0.96366 0.30315 0.25254
 H4038 H 0.95558 0.32546 0.26022
 C4039 C 0.29255 0.88476 0.45763
 C4040 C 0.30661 0.88756 0.45853
 C4041 C 0.31200 0.89959 0.45307
 C4042 C 0.30346 0.90928 0.44675
 C4043 C 0.28933 0.90665 0.44612
 C4044 C 0.28395 0.89451 0.45144
 C4045 C 0.28701 0.87160 0.46289
 C4046 C 0.27408 0.87092 0.46929
 C4047 C 0.26904 0.85850 0.47431
 C4048 C 0.27689 0.84657 0.47318
 C4049 C 0.28974 0.84721 0.46673
 C4050 C 0.29469 0.85955 0.46157
 C4051 C 0.27177 0.83340 0.47859
 C4052 C 0.28038 0.82500 0.48650
 C4053 C 0.27596 0.81216 0.49085
 C4054 C 0.26290 0.80736 0.48725
 C4055 C 0.25417 0.81591 0.47960
 C4056 C 0.25853 0.82885 0.47540
 H4057 H 0.31352 0.88043 0.46345
 H4058 H 0.32294 0.90115 0.45358
 H4059 H 0.28242 0.91397 0.44151
 H4060 H 0.27308 0.89265 0.45046
 H4061 H 0.26796 0.88001 0.47065
 H4062 H 0.25913 0.85825 0.47931
 H4063 H 0.29587 0.83810 0.46550
 H4064 H 0.30451 0.85959 0.45638
 H4065 H 0.29059 0.82834 0.48920
 H4066 H 0.28297 0.80583 0.49667
 H4067 H 0.24404 0.81251 0.47667
 H4068 H 0.25175 0.83512 0.46925
 C4069 C 0.29525 0.38579 0.96046
 C4070 C 0.30932 0.38865 0.96099
 C4071 C 0.31450 0.40078 0.95554
 C4072 C 0.30574 0.41053 0.94961
 C4073 C 0.29161 0.40786 0.94945
 C4074 C 0.28643 0.39561 0.95473
 C4075 C 0.28991 0.37246 0.96555
 C4076 C 0.27706 0.37152 0.97206
 C4077 C 0.27211 0.35893 0.97672
 C4078 C 0.28000 0.34707 0.97513
 C4079 C 0.29280 0.34798 0.96864
 C4080 C 0.29766 0.36049 0.96381
 C4081 C 0.27493 0.33371 0.98009
 C4082 C 0.28353 0.32513 0.98780
 C4083 C 0.27912 0.31219 0.99183
 C4084 C 0.26606 0.30747 0.98809
 C4085 C 0.25736 0.31616 0.98058
 C4086 C 0.26172 0.32921 0.97672
 H4087 H 0.31641 0.38148 0.96557
 H4088 H 0.32545 0.40236 0.95570
 H4089 H 0.28452 0.41520 0.94517
 H4090 H 0.27556 0.39372 0.95403
 H4091 H 0.27089 0.38053 0.97376
 H4092 H 0.26224 0.35848 0.98178
 H4093 H 0.29897 0.33894 0.96708
 H4094 H 0.30742 0.36072 0.95853
 H4095 H 0.29373 0.32842 0.99061
 H4096 H 0.28610 0.30573 0.99755
 H4097 H 0.24724 0.31281 0.97756
 H4098 H 0.25494 0.33562 0.97071
 C4099 C 0.79706 0.36885 0.29405
 C4100 C 0.80341 0.35926 0.28533
 C4101 C 0.80839 0.34697 0.29066
 C4102 C 0.80728 0.34402 0.30488
 C4103 C 0.80090 0.35360 0.31358
 C4104 C 0.79576 0.36578 0.30823
 C4105 C 0.79190 0.38205 0.28850
 C4106 C 0.79269 0.39398 0.29655
 C4107 C 0.78751 0.40630 0.29159
 C4108 C 0.78160 0.40705 0.27838
 C4109 C 0.78103 0.39525 0.27016
 C4110 C 0.78604 0.38285 0.27521
 C4111 C 0.77598 0.42013 0.27331
 C4112 C 0.77951 0.42513 0.26015
 C4113 C 0.77479 0.43788 0.25576
 C4114 C 0.76627 0.44575 0.26437
 C4115 C 0.76244 0.44050 0.27737
 C4116 C 0.76733 0.42788 0.28182
 H4117 H 0.80472 0.36132 0.27439
 H4118 H 0.81308 0.33976 0.28362
 H4119 H 0.80004 0.35182 0.32462
 H4120 H 0.79072 0.37278 0.31524
 H4121 H 0.79744 0.39386 0.30668
 H4122 H 0.78826 0.41532 0.29803
 H4123 H 0.77643 0.39558 0.25996
 H4124 H 0.78507 0.37385 0.26879
 H4125 H 0.78622 0.41934 0.25343
 H4126 H 0.77791 0.44163 0.24569
 H4127 H 0.75592 0.44629 0.28426
 H4128 H 0.76438 0.42417 0.29197
   
