data_POSCAR
  _audit_creation_date              2014-09-24
  _audit_creation_method            'ToBaCCo'
  _symmetry_space_group_name_H-M    'P1'
  _symmetry_Int_Tables_number       1
  _symmetry_cell_setting            triclinic
  loop_
  _symmetry_equiv_pos_as_xyz
 x,y,z
_cell_length_a 94.3816
_cell_length_b 93.8830
_cell_length_c 96.2177
_cell_angle_alpha 90.018700
_cell_angle_beta 89.955600
_cell_angle_gamma 89.975800
loop_
  _atom_site_label
  _atom_site_type_symbol
  _atom_site_fract_x
  _atom_site_fract_y
  _atom_site_fract_z
N1 N 0.35941 0.31993 0.33062
 N2 N 0.35663 0.32742 0.31944
 C3 C 0.36727 0.32592 0.31027
 C4 C 0.37734 0.31693 0.31598
 C5 C 0.37194 0.31330 0.32892
 H6 H 0.36760 0.33105 0.30022
 H7 H 0.37682 0.30649 0.33661
 Cu8 Cu 0.33982 0.33906 0.31813
 Cu9 Cu 0.34642 0.31935 0.34639
 Cu10 Cu 0.31721 0.34188 0.34481
 N11 N 0.32728 0.35523 0.31994
 N12 N 0.31844 0.35655 0.33040
 C13 C 0.31111 0.36879 0.32888
 C14 C 0.31579 0.37554 0.31686
 C15 C 0.32604 0.36653 0.31150
 H16 H 0.30309 0.37251 0.33604
 H17 H 0.33213 0.36795 0.30208
 N18 N 0.32067 0.32870 0.36051
 N19 N 0.33188 0.32030 0.36111
 C20 C 0.33108 0.31230 0.37268
 C21 C 0.31877 0.31573 0.37977
 C22 C 0.31247 0.32626 0.37174
 H23 H 0.33882 0.30437 0.37557
 H24 H 0.30247 0.33151 0.37370
 H25 H 0.32811 0.32474 0.33611
 H26 H 0.33866 0.33980 0.34330
 N27 N 0.35766 0.81683 -0.16885
 N28 N 0.35860 0.82720 -0.17795
 C29 C 0.37052 0.82539 -0.18549
 C30 C 0.37744 0.81316 -0.18086
 C31 C 0.36882 0.80808 -0.17025
 H32 H 0.37381 0.83245 -0.19375
 H33 H 0.37034 0.79865 -0.16399
 Cu34 Cu 0.34388 0.84177 -0.17927
 Cu35 Cu 0.34183 0.81496 -0.15614
 Cu36 Cu 0.32077 0.84487 -0.15255
 N37 N 0.33061 0.85767 -0.17793
 N38 N 0.32186 0.85888 -0.16738
 C39 C 0.31383 0.87057 -0.16907
 C40 C 0.31768 0.87722 -0.18140
 C41 C 0.32847 0.86865 -0.18670
 H42 H 0.30565 0.87378 -0.16187
 H43 H 0.33426 0.87014 -0.19628
 N44 N 0.32106 0.82931 -0.13885
 N45 N 0.32876 0.81773 -0.14049
 C46 C 0.32650 0.80893 -0.12968
 C47 C 0.31681 0.81524 -0.12077
 C48 C 0.31360 0.82817 -0.12697
 H49 H 0.33157 0.79869 -0.12844
 H50 H 0.30639 0.83619 -0.12312
 H51 H 0.32666 0.82853 -0.16507
 H52 H 0.34119 0.83680 -0.15463
 N53 N 0.86016 0.32139 -0.16796
 N54 N 0.85831 0.32934 -0.17904
 C55 C 0.86920 0.32725 -0.18786
 C56 C 0.87838 0.31738 -0.18202
 C57 C 0.87225 0.31393 -0.16936
 H58 H 0.87022 0.33240 -0.19786
 H59 H 0.87620 0.30648 -0.16174
 Cu60 Cu 0.84184 0.34159 -0.18091
 Cu61 Cu 0.84643 0.32071 -0.15286
 Cu62 Cu 0.81694 0.34251 -0.15599
 N63 N 0.82846 0.35728 -0.17952
 N64 N 0.81876 0.35762 -0.16975
 C65 C 0.81070 0.36931 -0.17141
 C66 C 0.81562 0.37685 -0.18289
 C67 C 0.82698 0.36879 -0.18772
 H68 H 0.80185 0.37193 -0.16475
 H69 H 0.83366 0.37097 -0.19659
 N70 N 0.81985 0.32952 -0.14015
 N71 N 0.83122 0.32146 -0.13884
 C72 C 0.83011 0.31381 -0.12706
 C73 C 0.81743 0.31718 -0.12058
 C74 C 0.81123 0.32724 -0.12921
 H75 H 0.83795 0.30624 -0.12357
 H76 H 0.80111 0.33243 -0.12776
 H77 H 0.82912 0.32611 -0.16447
 H78 H 0.83854 0.34116 -0.15587
 N79 N 0.85911 0.82131 0.33109
 N80 N 0.85868 0.83110 0.32135
 C81 C 0.86947 0.82897 0.31243
 C82 C 0.87713 0.81719 0.31676
 C83 C 0.87021 0.81261 0.32868
 H84 H 0.87167 0.83562 0.30353
 H85 H 0.87296 0.80359 0.33511
 Cu86 Cu 0.84419 0.84579 0.32124
 Cu87 Cu 0.84527 0.82072 0.34616
 Cu88 Cu 0.81945 0.84713 0.34627
 N89 N 0.82984 0.86065 0.32156
 N90 N 0.82015 0.86111 0.33134
 C91 C 0.81159 0.87236 0.32908
 C92 C 0.81617 0.87942 0.31720
 C93 C 0.82782 0.87159 0.31276
 H94 H 0.80274 0.87511 0.33568
 H95 H 0.83439 0.87362 0.30378
 N96 N 0.82052 0.83205 0.36049
 N97 N 0.83032 0.82201 0.36049
 C98 C 0.82819 0.81343 0.37152
 C99 C 0.81648 0.81827 0.37885
 C100 C 0.81193 0.83011 0.37150
 H101 H 0.83467 0.80429 0.37398
 H102 H 0.80307 0.83691 0.37403
 H103 H 0.82908 0.83067 0.33555
 H104 H 0.84089 0.84230 0.34616
 N105 N 0.64296 0.67958 0.33181
 N106 N 0.64291 0.66880 0.32311
 C107 C 0.63162 0.66996 0.31463
 C108 C 0.62416 0.68215 0.31818
 C109 C 0.63170 0.68797 0.32918
 H110 H 0.62897 0.66243 0.30656
 H111 H 0.62931 0.69767 0.33477
 Cu112 Cu 0.65757 0.65425 0.32363
 Cu113 Cu 0.65789 0.68210 0.34559
 Cu114 Cu 0.68193 0.65442 0.34917
 N115 N 0.67242 0.63994 0.32457
 N116 N 0.68176 0.63988 0.33469
 C117 C 0.69061 0.62876 0.33293
 C118 C 0.68660 0.62140 0.32107
 C119 C 0.67501 0.62886 0.31605
 H120 H 0.69929 0.62625 0.33982
 H121 H 0.66892 0.62648 0.30684
 N122 N 0.68046 0.67023 0.36256
 N123 N 0.67145 0.68086 0.36111
 C124 C 0.67317 0.69001 0.37177
 C125 C 0.68385 0.68494 0.38035
 C126 C 0.68819 0.67235 0.37412
 H127 H 0.66707 0.69965 0.37313
 H128 H 0.69644 0.66526 0.37766
 H129 H 0.67372 0.66964 0.33640
 H130 H 0.66069 0.66040 0.34797
 N131 N 0.63870 0.17916 -0.16743
 N132 N 0.64073 0.17108 -0.17840
 C133 C 0.62992 0.17301 -0.18735
 C134 C 0.62063 0.18292 -0.18170
 C135 C 0.62660 0.18652 -0.16902
 H136 H 0.62906 0.16778 -0.19733
 H137 H 0.62259 0.19409 -0.16153
 Cu138 Cu 0.65740 0.15900 -0.17995
 Cu139 Cu 0.65236 0.18052 -0.15237
 Cu140 Cu 0.68273 0.16003 -0.15545
 N141 N 0.67136 0.14386 -0.17811
 N142 N 0.68127 0.14436 -0.16856
 C143 C 0.68974 0.13292 -0.16984
 C144 C 0.68489 0.12463 -0.18083
 C145 C 0.67313 0.13200 -0.18579
 H146 H 0.69879 0.13096 -0.16324
 H147 H 0.66637 0.12913 -0.19441
 N148 N 0.67933 0.17304 -0.13977
 N149 N 0.66759 0.18053 -0.13840
 C150 C 0.66837 0.18822 -0.12662
 C151 C 0.68122 0.18545 -0.12021
 C152 C 0.68787 0.17572 -0.12888
 H153 H 0.66019 0.19539 -0.12305
 H154 H 0.69821 0.17099 -0.12746
 H155 H 0.66961 0.17561 -0.16419
 H156 H 0.66107 0.16036 -0.15500
 N157 N 0.14057 0.68020 -0.16641
 N158 N 0.14044 0.67023 -0.17599
 C159 C 0.12935 0.67245 -0.18453
 C160 C 0.12209 0.68447 -0.18005
 C161 C 0.12958 0.68908 -0.16851
 H162 H 0.12678 0.66581 -0.19334
 H163 H 0.12721 0.69814 -0.16199
 Cu164 Cu 0.15474 0.65525 -0.17623
 Cu165 Cu 0.15484 0.68094 -0.15183
 Cu166 Cu 0.18071 0.65477 -0.15235
 N167 N 0.16952 0.64075 -0.17654
 N168 N 0.17961 0.64070 -0.16715
 C169 C 0.18830 0.62962 -0.16952
 C170 C 0.18345 0.62222 -0.18103
 C171 C 0.17148 0.62966 -0.18524
 H172 H 0.19750 0.62718 -0.16327
 H173 H 0.16463 0.62710 -0.19387
 N174 N 0.18003 0.66991 -0.13819
 N175 N 0.17017 0.67987 -0.13797
 C176 C 0.17248 0.68848 -0.12700
 C177 C 0.18437 0.68373 -0.11995
 C178 C 0.18886 0.67193 -0.12739
 H179 H 0.16598 0.69757 -0.12438
 H180 H 0.19780 0.66517 -0.12503
 H181 H 0.17049 0.67082 -0.16313
 H182 H 0.15931 0.65941 -0.15162
 N183 N 0.14053 0.17925 0.33243
 N184 N 0.14081 0.16939 0.32276
 C185 C 0.12978 0.17144 0.31409
 C186 C 0.12218 0.18325 0.31860
 C187 C 0.12940 0.18788 0.33028
 H188 H 0.12743 0.16479 0.30522
 H189 H 0.12678 0.19684 0.33684
 Cu190 Cu 0.15551 0.15481 0.32272
 Cu191 Cu 0.15439 0.18017 0.34731
 Cu192 Cu 0.18064 0.15439 0.34759
 N193 N 0.17035 0.14039 0.32298
 N194 N 0.18011 0.14030 0.33271
 C195 C 0.18892 0.12925 0.33055
 C196 C 0.18449 0.12194 0.31880
 C197 C 0.17264 0.12938 0.31429
 H198 H 0.19783 0.12671 0.33713
 H199 H 0.16615 0.12699 0.30535
 N200 N 0.17931 0.16959 0.36171
 N201 N 0.16929 0.17938 0.36154
 C202 C 0.17105 0.18814 0.37246
 C203 C 0.18277 0.18370 0.37995
 C204 C 0.18773 0.17188 0.37279
 H205 H 0.16419 0.19701 0.37485
 H206 H 0.19682 0.16543 0.37542
 H207 H 0.17069 0.17031 0.33654
 H208 H 0.15921 0.15863 0.34751
 N209 N 0.63873 0.31969 0.66946
 N210 N 0.64036 0.32853 0.67991
 C211 C 0.62950 0.32698 0.68883
 C212 C 0.62051 0.31653 0.68375
 C213 C 0.62676 0.31216 0.67139
 H214 H 0.62833 0.33303 0.69831
 H215 H 0.62299 0.30403 0.66436
 Cu216 Cu 0.65660 0.34106 0.68116
 Cu217 Cu 0.65241 0.31859 0.65431
 Cu218 Cu 0.67894 0.34411 0.65405
 N219 N 0.66974 0.35681 0.67965
 N220 N 0.67853 0.35802 0.66913
 C221 C 0.68647 0.36979 0.67092
 C222 C 0.68242 0.37634 0.68324
 C223 C 0.67173 0.36774 0.68845
 H224 H 0.69465 0.37323 0.66380
 H225 H 0.66576 0.36926 0.69792
 N226 N 0.67739 0.32904 0.63981
 N227 N 0.66729 0.31932 0.63994
 C228 C 0.66914 0.31049 0.62906
 C229 C 0.68098 0.31481 0.62167
 C230 C 0.68593 0.32663 0.62882
 H231 H 0.66231 0.30159 0.62670
 H232 H 0.69517 0.33293 0.62633
 H233 H 0.66992 0.32706 0.66429
 H234 H 0.65750 0.34003 0.65595
 N235 N 0.64010 0.81897 1.17021
 N236 N 0.64125 0.82831 1.18030
 C237 C 0.62994 0.82711 1.18878
 C238 C 0.62123 0.81637 1.18373
 C239 C 0.62809 0.81149 1.17190
 H240 H 0.62827 0.83352 1.19797
 H241 H 0.62482 0.80290 1.16516
 Cu242 Cu 0.65758 0.84093 1.18160
 Cu243 Cu 0.65469 0.81652 1.15612
 Cu244 Cu 0.68139 0.84169 1.15557
 N245 N 0.67088 0.85665 1.17944
 N246 N 0.68003 0.85691 1.16916
 C247 C 0.68812 0.86862 1.17024
 C248 C 0.68386 0.87623 1.18185
 C249 C 0.67282 0.86828 1.18742
 H250 H 0.69655 0.87130 1.16310
 H251 H 0.66681 0.87061 1.19672
 N252 N 0.67900 0.82729 1.14091
 N253 N 0.66881 0.81769 1.14107
 C254 C 0.66997 0.80946 1.12964
 C255 C 0.68147 0.81412 1.12190
 C256 C 0.68690 0.82546 1.12940
 H257 H 0.66291 0.80079 1.12714
 H258 H 0.69601 0.83187 1.12677
 H259 H 0.67168 0.82536 1.16628
 H260 H 0.65988 0.83785 1.15665
 N261 N 0.14201 0.31662 1.16901
 N262 N 0.14064 0.32699 1.17807
 C263 C 0.12861 0.32509 1.18532
 C264 C 0.12205 0.31278 1.18061
 C265 C 0.13094 0.30768 1.17024
 H266 H 0.12500 0.33215 1.19346
 H267 H 0.12962 0.29812 1.16412
 Cu268 Cu 0.15506 0.34159 1.18009
 Cu269 Cu 0.15831 0.31545 1.15665
 Cu270 Cu 0.17520 0.34795 1.15199
 N271 N 0.16805 0.35757 1.17943
 N272 N 0.17587 0.36011 1.16841
 C273 C 0.18344 0.37205 1.17056
 C274 C 0.18022 0.37729 1.18368
 C275 C 0.17039 0.36776 1.18898
 H276 H 0.19063 0.37660 1.16302
 H277 H 0.16525 0.36818 1.19901
 N278 N 0.17722 0.33182 1.13896
 N279 N 0.17106 0.31938 1.14095
 C280 C 0.17459 0.31056 1.13049
 C281 C 0.18349 0.31774 1.12143
 C282 C 0.18495 0.33121 1.12719
 H283 H 0.17092 0.29969 1.12959
 H284 H 0.19111 0.33996 1.12312
 H285 H 0.17256 0.33078 1.16451
 H286 H 0.15629 0.33680 1.15520
 N287 N 0.14194 0.81577 0.67144
 N288 N 0.13998 0.82699 0.67936
 C289 C 0.12766 0.82550 0.68629
 C290 C 0.12159 0.81260 0.68247
 C291 C 0.13105 0.80672 0.67307
 H292 H 0.12343 0.83325 0.69350
 H293 H 0.13021 0.79658 0.66781
 Cu294 Cu 0.15411 0.84208 0.68003
 Cu295 Cu 0.15846 0.81373 0.65956
 Cu296 Cu 0.17455 0.84592 0.65172
 N297 N 0.16756 0.85768 0.67843
 N298 N 0.17559 0.85912 0.66735
 C299 C 0.18375 0.87078 0.66883
 C300 C 0.18073 0.87698 0.68158
 C301 C 0.17037 0.86834 0.68736
 H302 H 0.19124 0.87445 0.66112
 H303 H 0.16533 0.86958 0.69737
 N304 N 0.17645 0.82878 0.63999
 N305 N 0.17075 0.81643 0.64335
 C306 C 0.17375 0.80683 0.63342
 C307 C 0.18175 0.81341 0.62322
 C308 C 0.18333 0.82734 0.62780
 H309 H 0.17007 0.79593 0.63355
 H310 H 0.18883 0.83589 0.62256
 H311 H 0.17217 0.83026 0.66585
 H312 H 0.15585 0.83475 0.65582
 N313 N 0.36105 0.68077 0.66791
 N314 N 0.36039 0.67095 0.67761
 C315 C 0.37138 0.67272 0.68639
 C316 C 0.37933 0.68430 0.68195
 C317 C 0.37240 0.68908 0.67016
 H318 H 0.37338 0.66611 0.69537
 H319 H 0.37535 0.69793 0.66361
 Cu320 Cu 0.34521 0.65687 0.67769
 Cu321 Cu 0.34723 0.68224 0.65308
 Cu322 Cu 0.32062 0.65697 0.65222
 N323 N 0.33045 0.64239 0.67667
 N324 N 0.32091 0.64253 0.66673
 C325 C 0.31209 0.63142 0.66842
 C326 C 0.31628 0.62380 0.68006
 C327 C 0.32801 0.63113 0.68502
 H328 H 0.30327 0.62911 0.66164
 H329 H 0.33436 0.62845 0.69397
 N330 N 0.32217 0.67246 0.63847
 N331 N 0.33234 0.68207 0.63885
 C332 C 0.33063 0.69119 0.62820
 C333 C 0.31881 0.68716 0.62068
 C334 C 0.31371 0.67521 0.62751
 H335 H 0.33760 0.70003 0.62601
 H336 H 0.30447 0.66903 0.62477
 H337 H 0.33057 0.67265 0.66356
 H338 H 0.34211 0.66075 0.65283
 N339 N 0.36099 0.17896 1.16917
 N340 N 0.36026 0.16854 1.17825
 C341 C 0.37095 0.16991 1.18742
 C342 C 0.37885 0.18184 1.18389
 C343 C 0.37215 0.18729 1.17223
 H344 H 0.37288 0.16271 1.19596
 H345 H 0.37508 0.19667 1.16639
 Cu346 Cu 0.34542 0.15417 1.17715
 Cu347 Cu 0.34750 0.18098 1.15398
 Cu348 Cu 0.32065 0.15591 1.15211
 N349 N 0.33004 0.14038 1.17613
 N350 N 0.32042 0.14117 1.16630
 C351 C 0.31112 0.13045 1.16785
 C352 C 0.31505 0.12241 1.17929
 C353 C 0.32714 0.12908 1.18429
 H354 H 0.30219 0.12866 1.16105
 H355 H 0.33338 0.12597 1.19319
 N356 N 0.32264 0.17160 1.13869
 N357 N 0.33283 0.18119 1.13938
 C358 C 0.33136 0.19037 1.12871
 C359 C 0.31970 0.18635 1.12089
 C360 C 0.31445 0.17442 1.12759
 H361 H 0.33839 0.19921 1.12667
 H362 H 0.30527 0.16824 1.12465
 H363 H 0.33095 0.17100 1.16409
 H364 H 0.34223 0.15969 1.15257
 N365 N 0.86030 0.67906 1.16762
 N366 N 0.85885 0.67054 1.17835
 C367 C 0.86986 0.67245 1.18705
 C368 C 0.87872 0.68279 1.18150
 C369 C 0.87226 0.68670 1.16912
 H370 H 0.87117 0.66689 1.19679
 H371 H 0.87581 0.69467 1.16182
 Cu372 Cu 0.84262 0.65793 1.18010
 Cu373 Cu 0.84613 0.68049 1.15297
 Cu374 Cu 0.81600 0.65986 1.15712
 N375 N 0.82860 0.64280 1.17847
 N376 N 0.81819 0.64371 1.16948
 C377 C 0.80978 0.63225 1.17072
 C378 C 0.81521 0.62353 1.18104
 C379 C 0.82720 0.63062 1.18575
 H380 H 0.80030 0.63056 1.16465
 H381 H 0.83436 0.62723 1.19386
 N382 N 0.81868 0.67297 1.14147
 N383 N 0.83031 0.68050 1.13956
 C384 C 0.82902 0.68795 1.12766
 C385 C 0.81596 0.68490 1.12176
 C386 C 0.80973 0.67534 1.13086
 H387 H 0.83702 0.69503 1.12358
 H388 H 0.79944 0.67040 1.12987
 H389 H 0.82975 0.67520 1.16556
 H390 H 0.83769 0.66024 1.15543
 N391 N 0.86244 0.17780 0.66676
 N392 N 0.86101 0.16903 0.67730
 C393 C 0.87096 0.17199 0.68688
 C394 C 0.87917 0.18323 0.68208
 C395 C 0.87341 0.18658 0.66921
 H396 H 0.87213 0.16627 0.69656
 H397 H 0.87688 0.19477 0.66208
 Cu398 Cu 0.84665 0.15418 0.67719
 Cu399 Cu 0.84997 0.17697 0.65059
 Cu400 Cu 0.81780 0.16094 0.65814
 N401 N 0.83044 0.14140 0.67742
 N402 N 0.81915 0.14417 0.66992
 C403 C 0.80942 0.13395 0.67203
 C404 C 0.81490 0.12412 0.68131
 C405 C 0.82830 0.12925 0.68454
 H406 H 0.79910 0.13381 0.66716
 H407 H 0.83597 0.12447 0.69146
 N408 N 0.82062 0.17377 0.64224
 N409 N 0.83296 0.17946 0.63901
 C410 C 0.83159 0.18685 0.62709
 C411 C 0.81770 0.18565 0.62254
 C412 C 0.81107 0.17730 0.63247
 H413 H 0.84015 0.19243 0.62199
 H414 H 0.80017 0.17380 0.63250
 H415 H 0.83483 0.17352 0.66482
 H416 H 0.83855 0.15789 0.65338
 N417 N 0.31816 0.35757 0.67064
 N418 N 0.32882 0.35804 0.67938
 C419 C 0.32795 0.37017 0.68684
 C420 C 0.31609 0.37769 0.68246
 C421 C 0.31014 0.36927 0.67220
 H422 H 0.33543 0.37329 0.69479
 H423 H 0.30058 0.37135 0.66635
 Cu424 Cu 0.34254 0.34253 0.68030
 Cu425 Cu 0.31520 0.34175 0.65803
 Cu426 Cu 0.34483 0.32086 0.65232
 N427 N 0.35828 0.32935 0.67785
 N428 N 0.35925 0.32127 0.66674
 C429 C 0.37088 0.31307 0.66775
 C430 C 0.37764 0.31611 0.68018
 C431 C 0.36932 0.32658 0.68630
 H432 H 0.37399 0.30527 0.66007
 H433 H 0.37097 0.33160 0.69628
 N434 N 0.32873 0.32171 0.63934
 N435 N 0.31721 0.32922 0.64187
 C436 C 0.30793 0.32730 0.63143
 C437 C 0.31384 0.31807 0.62180
 C438 C 0.32706 0.31475 0.62722
 H439 H 0.29766 0.33236 0.63092
 H440 H 0.33490 0.30774 0.62272
 H441 H 0.32899 0.32593 0.66561
 H442 H 0.33682 0.34114 0.65574
 N443 N 0.32262 0.85884 0.16952
 N444 N 0.33258 0.85847 0.17904
 C445 C 0.33062 0.86937 0.18795
 C446 C 0.31879 0.87702 0.18379
 C447 C 0.31400 0.86998 0.17203
 H448 H 0.33740 0.87163 0.19671
 H449 H 0.30488 0.87266 0.16577
 Cu450 Cu 0.34720 0.84384 0.17877
 Cu451 Cu 0.32158 0.84495 0.15450
 Cu452 Cu 0.34754 0.81881 0.15382
 N453 N 0.36171 0.82909 0.17826
 N454 N 0.36175 0.81936 0.16845
 C455 C 0.37278 0.81052 0.17043
 C456 C 0.38013 0.81489 0.18214
 C457 C 0.37275 0.82674 0.18683
 H458 H 0.37523 0.80159 0.16375
 H459 H 0.37517 0.83316 0.19584
 N460 N 0.33229 0.82002 0.13992
 N461 N 0.32239 0.82994 0.14016
 C462 C 0.31360 0.82790 0.12931
 C463 C 0.31817 0.81612 0.12186
 C464 C 0.33005 0.81142 0.12894
 H465 H 0.30449 0.83448 0.12705
 H466 H 0.33670 0.80247 0.12625
 H467 H 0.33160 0.82864 0.16505
 H468 H 0.34297 0.84034 0.15401
 N469 N 0.81988 0.35700 0.17058
 N470 N 0.82967 0.35617 0.18023
 C471 C 0.82862 0.36753 0.18869
 C472 C 0.81748 0.37598 0.18416
 C473 C 0.81218 0.36889 0.17261
 H474 H 0.83548 0.36940 0.19749
 H475 H 0.80331 0.37200 0.16619
 Cu476 Cu 0.84273 0.34023 0.18115
 Cu477 Cu 0.81767 0.34233 0.15642
 Cu478 Cu 0.84707 0.32060 0.15227
 N479 N 0.85912 0.32804 0.17868
 N480 N 0.86092 0.32069 0.16720
 C481 C 0.87296 0.31312 0.16818
 C482 C 0.87910 0.31583 0.18099
 C483 C 0.86999 0.32542 0.18737
 H484 H 0.87682 0.30603 0.16018
 H485 H 0.87101 0.33000 0.19762
 N486 N 0.83176 0.32186 0.13848
 N487 N 0.82036 0.32981 0.14016
 C488 C 0.81157 0.32769 0.12933
 C489 C 0.81771 0.31783 0.12041
 C490 C 0.83052 0.31445 0.12659
 H491 H 0.80136 0.33277 0.12818
 H492 H 0.83832 0.30697 0.12283
 H493 H 0.82978 0.32555 0.16420
 H494 H 0.83922 0.34093 0.15615
 N495 N 0.82021 0.86051 0.67089
 N496 N 0.83085 0.86084 0.67968
 C497 C 0.82942 0.87223 0.68805
 C498 C 0.81719 0.87946 0.68439
 C499 C 0.81162 0.87168 0.67340
 H500 H 0.83676 0.87503 0.69621
 H501 H 0.80194 0.87381 0.66778
 Cu502 Cu 0.84537 0.84619 0.67954
 Cu503 Cu 0.81816 0.84526 0.65725
 Cu504 Cu 0.84599 0.82111 0.65468
 N505 N 0.85967 0.83135 0.67943
 N506 N 0.86005 0.82166 0.66958
 C507 C 0.87105 0.81282 0.67194
 C508 C 0.87793 0.81721 0.68395
 C509 C 0.87036 0.82902 0.68837
 H510 H 0.87369 0.80378 0.66549
 H511 H 0.87252 0.83553 0.69738
 N512 N 0.83056 0.82230 0.64086
 N513 N 0.81989 0.83133 0.64196
 C514 C 0.81111 0.82948 0.63109
 C515 C 0.81643 0.81871 0.62270
 C516 C 0.82879 0.81444 0.62928
 H517 H 0.80156 0.83558 0.62942
 H518 H 0.83602 0.80621 0.62591
 H519 H 0.83035 0.82949 0.66682
 H520 H 0.83971 0.84236 0.65522
 N521 N 0.68093 0.64120 0.66690
 N522 N 0.67160 0.64100 0.67703
 C523 C 0.67440 0.62982 0.68540
 C524 C 0.68616 0.62265 0.68023
 C525 C 0.68996 0.63024 0.66846
 H526 H 0.66838 0.62716 0.69460
 H527 H 0.69859 0.62796 0.66143
 Cu528 Cu 0.65673 0.65543 0.67818
 Cu529 Cu 0.68086 0.65555 0.65235
 Cu530 Cu 0.65424 0.68083 0.65353
 N531 N 0.64150 0.66951 0.67836
 N532 N 0.64068 0.67936 0.66870
 C533 C 0.62934 0.68764 0.67116
 C534 C 0.62255 0.68280 0.68304
 C535 C 0.63063 0.67123 0.68732
 H536 H 0.62632 0.69656 0.66472
 H537 H 0.62873 0.66453 0.69626
 N538 N 0.66894 0.68056 0.63897
 N539 N 0.67907 0.67090 0.63854
 C540 C 0.68740 0.67345 0.62746
 C541 C 0.68230 0.68531 0.62051
 C542 C 0.67057 0.68953 0.62816
 H543 H 0.69658 0.66718 0.62473
 H544 H 0.66366 0.69842 0.62597
 H545 H 0.67097 0.67135 0.66378
 H546 H 0.65930 0.65942 0.65326
 N547 N 0.67894 0.14203 0.16877
 N548 N 0.67095 0.14413 0.17977
 C549 C 0.67250 0.13318 0.18861
 C550 C 0.68203 0.12360 0.18293
 C551 C 0.68595 0.12962 0.17031
 H552 H 0.66705 0.13232 0.19846
 H553 H 0.69322 0.12524 0.16274
 Cu554 Cu 0.65878 0.16056 0.18150
 Cu555 Cu 0.67945 0.15567 0.15340
 Cu556 Cu 0.65664 0.18465 0.15610
 N557 N 0.64256 0.17307 0.17987
 N558 N 0.64169 0.18251 0.16986
 C559 C 0.62960 0.18996 0.17133
 C560 C 0.62242 0.18481 0.18288
 C561 C 0.63103 0.17407 0.18802
 H562 H 0.62635 0.19846 0.16446
 H563 H 0.62923 0.16756 0.19711
 N564 N 0.66966 0.18188 0.14037
 N565 N 0.67828 0.17087 0.13918
 C566 C 0.68572 0.17222 0.12729
 C567 C 0.68151 0.18464 0.12065
 C568 C 0.67130 0.19044 0.12930
 H569 H 0.69361 0.16471 0.12372
 H570 H 0.66557 0.20027 0.12776
 H571 H 0.67361 0.17322 0.16453
 H572 H 0.65891 0.16294 0.15638
 N573 N 0.17874 0.63962 0.16852
 N574 N 0.16860 0.63994 0.17787
 C575 C 0.17041 0.62901 0.18675
 C576 C 0.18234 0.62138 0.18277
 C577 C 0.18733 0.62849 0.17112
 H578 H 0.16351 0.62676 0.19543
 H579 H 0.19653 0.62583 0.16495
 Cu580 Cu 0.15397 0.65457 0.17743
 Cu581 Cu 0.18004 0.65355 0.15359
 Cu582 Cu 0.15445 0.68003 0.15288
 N583 N 0.13984 0.66971 0.17707
 N584 N 0.14012 0.67961 0.16743
 C585 C 0.12925 0.68865 0.16946
 C586 C 0.12167 0.68422 0.18102
 C587 C 0.12875 0.67213 0.18558
 H588 H 0.12701 0.69771 0.16290
 H589 H 0.12609 0.66560 0.19444
 N590 N 0.16979 0.67867 0.13906
 N591 N 0.17953 0.66860 0.13932
 C592 C 0.18841 0.67049 0.12850
 C593 C 0.18405 0.68233 0.12104
 C594 C 0.17220 0.68722 0.12809
 H595 H 0.19730 0.66366 0.12617
 H596 H 0.16582 0.69638 0.12548
 H597 H 0.16999 0.66979 0.16425
 H598 H 0.15871 0.65843 0.15280
 N599 N 0.17902 0.13914 0.66881
 N600 N 0.16928 0.13959 0.67855
 C601 C 0.17119 0.12856 0.68728
 C602 C 0.18279 0.12072 0.68284
 C603 C 0.18749 0.12781 0.67104
 H604 H 0.16454 0.12637 0.69616
 H605 H 0.19640 0.12500 0.66454
 Cu606 Cu 0.15489 0.15441 0.67893
 Cu607 Cu 0.17989 0.15326 0.65394
 Cu608 Cu 0.15393 0.17943 0.65396
 N609 N 0.14021 0.16895 0.67855
 N610 N 0.13986 0.17870 0.66877
 C611 C 0.12867 0.18731 0.67094
 C612 C 0.12155 0.18273 0.68274
 C613 C 0.12923 0.17103 0.68726
 H614 H 0.12598 0.19627 0.66440
 H615 H 0.12696 0.16442 0.69618
 N616 N 0.16904 0.17842 0.63985
 N617 N 0.17894 0.16849 0.63980
 C618 C 0.18761 0.17071 0.62887
 C619 C 0.18296 0.18263 0.62165
 C620 C 0.17115 0.18719 0.62898
 H621 H 0.19664 0.16411 0.62636
 H622 H 0.16452 0.19623 0.62661
 H623 H 0.17015 0.16955 0.66474
 H624 H 0.15847 0.15783 0.65405
 N625 N 0.31929 0.64029 0.33183
 N626 N 0.32938 0.64058 0.32243
 C627 C 0.32728 0.62979 0.31338
 C628 C 0.31516 0.62244 0.31737
 C629 C 0.31046 0.62944 0.32914
 H630 H 0.33395 0.62753 0.30452
 H631 H 0.30136 0.62677 0.33542
 Cu632 Cu 0.34410 0.65520 0.32312
 Cu633 Cu 0.31809 0.65382 0.34700
 Cu634 Cu 0.34391 0.67984 0.34867
 N635 N 0.35858 0.67001 0.32423
 N636 N 0.35836 0.67953 0.33424
 C637 C 0.36936 0.68847 0.33266
 C638 C 0.37700 0.68442 0.32100
 C639 C 0.36981 0.67261 0.31592
 H640 H 0.37161 0.69723 0.33959
 H641 H 0.37248 0.66641 0.30683
 N642 N 0.32838 0.67834 0.36230
 N643 N 0.31856 0.66839 0.36161
 C644 C 0.30946 0.67007 0.37224
 C645 C 0.31369 0.68167 0.38007
 C646 C 0.32576 0.68665 0.37344
 H647 H 0.30047 0.66325 0.37419
 H648 H 0.33211 0.69572 0.37643
 H649 H 0.32839 0.67031 0.33685
 H650 H 0.33955 0.65837 0.34788
 N651 N 0.32060 0.13849 0.83040
 N652 N 0.33097 0.13959 0.82135
 C653 C 0.32986 0.12901 0.81198
 C654 C 0.31815 0.12078 0.81528
 C655 C 0.31253 0.12716 0.82708
 H656 H 0.33715 0.12736 0.80348
 H657 H 0.30326 0.12386 0.83284
 Cu658 Cu 0.34503 0.15460 0.82275
 Cu659 Cu 0.31850 0.15183 0.84585
 Cu660 Cu 0.34353 0.17887 0.84829
 N661 N 0.35893 0.16979 0.82414
 N662 N 0.35833 0.17928 0.83414
 C663 C 0.36922 0.18844 0.83273
 C664 C 0.37712 0.18446 0.82119
 C665 C 0.37020 0.17257 0.81602
 H666 H 0.37128 0.19724 0.83968
 H667 H 0.37310 0.16640 0.80698
 N668 N 0.32776 0.17665 0.86159
 N669 N 0.31826 0.16638 0.86069
 C670 C 0.30903 0.16769 0.87131
 C671 C 0.31288 0.17935 0.87931
 C672 C 0.32481 0.18474 0.87278
 H673 H 0.30021 0.16060 0.87311
 H674 H 0.33093 0.19392 0.87590
 H675 H 0.32834 0.16883 0.83623
 H676 H 0.33963 0.15721 0.84739
 N677 N 0.81908 0.63949 0.83306
 N678 N 0.82856 0.63986 0.82307
 C679 C 0.82636 0.62878 0.81444
 C680 C 0.81484 0.62105 0.81927
 C681 C 0.81052 0.62822 0.83113
 H682 H 0.83264 0.62656 0.80530
 H683 H 0.80187 0.62542 0.83795
 Cu684 Cu 0.84297 0.65468 0.82235
 Cu685 Cu 0.81850 0.65356 0.84785
 Cu686 Cu 0.84448 0.67954 0.84764
 N687 N 0.85784 0.66903 0.82283
 N688 N 0.85836 0.67868 0.83271
 C689 C 0.86968 0.68710 0.83064
 C690 C 0.87673 0.68252 0.81880
 C691 C 0.86886 0.67100 0.81414
 H692 H 0.87257 0.69584 0.83736
 H693 H 0.87098 0.66448 0.80512
 N694 N 0.82950 0.67861 0.86187
 N695 N 0.81962 0.66869 0.86194
 C696 C 0.81102 0.67081 0.87291
 C697 C 0.81567 0.68267 0.88015
 C698 C 0.82743 0.68733 0.87281
 H699 H 0.80208 0.66413 0.87546
 H700 H 0.83398 0.69644 0.87520
 H701 H 0.82814 0.66989 0.83694
 H702 H 0.84000 0.65799 0.84731
 N703 N 0.82050 0.13974 0.33103
 N704 N 0.83032 0.14081 0.32141
 C705 C 0.82879 0.13007 0.31227
 C706 C 0.81736 0.12177 0.31633
 C707 C 0.81237 0.12830 0.32832
 H708 H 0.83556 0.12838 0.30337
 H709 H 0.80349 0.12503 0.33464
 Cu710 Cu 0.84433 0.15599 0.32173
 Cu711 Cu 0.81908 0.15321 0.34638
 Cu712 Cu 0.84443 0.17985 0.34789
 N713 N 0.85877 0.17069 0.32316
 N714 N 0.85878 0.17997 0.33337
 C715 C 0.86995 0.18874 0.33189
 C716 C 0.87743 0.18475 0.32009
 C717 C 0.86996 0.17323 0.31484
 H718 H 0.87246 0.19731 0.33897
 H719 H 0.87247 0.16709 0.30567
 N720 N 0.82907 0.17798 0.36164
 N721 N 0.81942 0.16783 0.36110
 C722 C 0.81050 0.16937 0.37194
 C723 C 0.81472 0.18105 0.37973
 C724 C 0.82654 0.18622 0.37283
 H725 H 0.80164 0.16241 0.37404
 H726 H 0.83285 0.19535 0.37569
 H727 H 0.82862 0.17017 0.33641
 H728 H 0.84044 0.15819 0.34670
 N729 N 0.67968 0.36028 0.33201
 N730 N 0.67008 0.35944 0.32218
 C731 C 0.67202 0.37030 0.31319
 C732 C 0.68350 0.37836 0.31765
 C733 C 0.68803 0.37161 0.32966
 H734 H 0.66560 0.37214 0.30408
 H735 H 0.69676 0.37465 0.33627
 Cu736 Cu 0.65608 0.34416 0.32221
 Cu737 Cu 0.68090 0.34667 0.34713
 Cu738 Cu 0.65586 0.31980 0.34803
 N739 N 0.64174 0.32926 0.32321
 N740 N 0.64176 0.31979 0.33327
 C741 C 0.63080 0.31081 0.33148
 C742 C 0.62344 0.31484 0.31966
 C743 C 0.63072 0.32662 0.31469
 H744 H 0.62832 0.30209 0.33839
 H745 H 0.62826 0.33276 0.30552
 N746 N 0.67102 0.32167 0.36203
 N747 N 0.68050 0.33196 0.36164
 C748 C 0.68939 0.33049 0.37246
 C749 C 0.68536 0.31868 0.38012
 C750 C 0.67364 0.31336 0.37315
 H751 H 0.69812 0.33758 0.37463
 H752 H 0.66750 0.30407 0.37592
 H753 H 0.67159 0.32969 0.33679
 H754 H 0.65954 0.34140 0.34717
 N755 N 0.68043 0.86024 0.83266
 N756 N 0.67143 0.85973 0.82228
 C757 C 0.67373 0.87091 0.81382
 C758 C 0.68481 0.87890 0.81916
 C759 C 0.68880 0.87175 0.83115
 H760 H 0.66777 0.87302 0.80447
 H761 H 0.69708 0.87471 0.83833
 Cu762 Cu 0.65738 0.84472 0.82062
 Cu763 Cu 0.68057 0.84599 0.84731
 Cu764 Cu 0.65438 0.82026 0.84619
 N765 N 0.64210 0.83089 0.82101
 N766 N 0.64089 0.82142 0.83097
 C767 C 0.62935 0.81337 0.82862
 C768 C 0.62292 0.81806 0.81649
 C769 C 0.63135 0.82921 0.81198
 H770 H 0.62597 0.80470 0.83521
 H771 H 0.62970 0.83576 0.80289
 N772 N 0.66900 0.82086 0.86077
 N773 N 0.67897 0.83067 0.86119
 C774 C 0.68728 0.82828 0.87231
 C775 C 0.68232 0.81637 0.87928
 C776 C 0.67070 0.81195 0.87161
 H777 H 0.69634 0.83471 0.87506
 H778 H 0.66390 0.80298 0.87380
 H779 H 0.67135 0.82962 0.83611
 H780 H 0.65908 0.84181 0.84573
 N781 N 0.18010 0.36062 0.83185
 N782 N 0.17009 0.36061 0.82238
 C783 C 0.17219 0.37169 0.81370
 C784 C 0.18417 0.37905 0.81799
 C785 C 0.18888 0.37163 0.82955
 H786 H 0.16543 0.37427 0.80501
 H787 H 0.19803 0.37401 0.83588
 Cu788 Cu 0.15525 0.34618 0.82258
 Cu789 Cu 0.18097 0.34657 0.84667
 Cu790 Cu 0.15503 0.32049 0.84704
 N791 N 0.14092 0.33126 0.82271
 N792 N 0.14089 0.32129 0.83229
 C793 C 0.12990 0.31245 0.83004
 C794 C 0.12258 0.31710 0.81840
 C795 C 0.12993 0.32908 0.81404
 H796 H 0.12743 0.30337 0.83650
 H797 H 0.12752 0.33572 0.80518
 N798 N 0.17027 0.32156 0.86105
 N799 N 0.18013 0.33150 0.86084
 C800 C 0.18889 0.32956 0.87170
 C801 C 0.18439 0.31780 0.87918
 C802 C 0.17252 0.31300 0.87208
 H803 H 0.19781 0.33633 0.87405
 H804 H 0.16600 0.30395 0.87472
 H805 H 0.17075 0.33047 0.83584
 H806 H 0.15950 0.34195 0.84724
 N807 N 0.17702 0.86095 0.33081
 N808 N 0.16872 0.85879 0.32007
 C809 C 0.17051 0.86952 0.31091
 C810 C 0.18055 0.87888 0.31622
 C811 C 0.18435 0.87305 0.32890
 H812 H 0.16513 0.87027 0.30102
 H813 H 0.19208 0.87711 0.33615
 Cu814 Cu 0.15665 0.84200 0.31907
 Cu815 Cu 0.17887 0.84745 0.34595
 Cu816 Cu 0.15844 0.81693 0.34402
 N817 N 0.14181 0.82777 0.32142
 N818 N 0.14261 0.81801 0.33116
 C819 C 0.13134 0.80932 0.33023
 C820 C 0.12287 0.81386 0.31932
 C821 C 0.12991 0.82566 0.31398
 H822 H 0.12961 0.80028 0.33697
 H823 H 0.12672 0.83218 0.30528
 N824 N 0.17185 0.82062 0.35926
 N825 N 0.17939 0.83240 0.36014
 C826 C 0.18748 0.83183 0.37163
 C827 C 0.18490 0.81909 0.37839
 C828 C 0.17487 0.81226 0.37024
 H829 H 0.19475 0.84009 0.37483
 H830 H 0.17022 0.80191 0.37206
 H831 H 0.17361 0.82992 0.33453
 H832 H 0.15873 0.83869 0.34404
 O833 O 0.26302 0.98525 0.24381
 O834 O 0.24371 1.01337 0.26268
 O835 O 0.24249 0.98561 0.26175
 O836 O 0.26426 1.01303 0.24478
 O837 O 0.24865 1.01445 0.22779
 O838 O 0.22701 0.98669 0.24463
 O839 O 0.22807 1.01447 0.24570
 O840 O 0.24758 0.98664 0.22667
 Cu841 Cu 0.25492 0.99918 0.25496
 Cu842 Cu 0.23628 1.00069 0.23448
 C843 C 0.25854 0.98105 0.23205
 C844 C 0.23263 1.01880 0.25738
 C845 C 0.23112 0.98133 0.25606
 C846 C 0.26009 1.01858 0.23346
 O847 O 0.25313 0.51513 0.73096
 O848 O 0.23199 0.48700 0.74771
 O849 O 0.23167 0.51486 0.74785
 O850 O 0.25371 0.48730 0.73112
 O851 O 0.26820 0.48756 0.74909
 O852 O 0.24622 0.51501 0.76576
 O853 O 0.24652 0.48721 0.76564
 O854 O 0.26767 0.51536 0.74889
 Cu855 Cu 0.24117 0.50105 0.73761
 Cu856 Cu 0.25860 0.50131 0.75914
 C857 C 0.26394 0.52016 0.73710
 C858 C 0.23571 0.48218 0.75949
 C859 C 0.23528 0.51975 0.75964
 C860 C 0.26466 0.48262 0.73731
 O861 O 0.74490 -0.01451 0.23437
 O862 O 0.76415 0.01352 0.25358
 O863 O 0.76335 -0.01428 0.25436
 O864 O 0.74650 0.01322 0.23288
 O865 O 0.72896 0.01481 0.24796
 O866 O 0.74570 -0.01315 0.26936
 O867 O 0.74661 0.01459 0.26870
 O868 O 0.72728 -0.01289 0.24936
 Cu869 Cu 0.75649 -0.00065 0.24229
 Cu870 Cu 0.73538 0.00100 0.26034
 C871 C 0.73280 -0.01855 0.23867
 C872 C 0.75860 0.01888 0.26444
 C873 C 0.75739 -0.01856 0.26543
 C874 C 0.73493 0.01884 0.23678
 O875 O 0.75235 0.48601 0.72735
 O876 O 0.77185 0.51319 0.74703
 O877 O 0.77209 0.48539 0.74620
 O878 O 0.75144 0.51380 0.72897
 O879 O 0.73535 0.51241 0.74555
 O880 O 0.75616 0.48461 0.76296
 O881 O 0.75572 0.51239 0.76361
 O882 O 0.73648 0.48465 0.74413
 Cu883 Cu 0.76353 0.49969 0.73571
 Cu884 Cu 0.74432 0.49840 0.75572
 C885 C 0.74119 0.48053 0.73241
 C886 C 0.76706 0.51759 0.75859
 C887 C 0.76759 0.48011 0.75755
 C888 C 0.73989 0.51803 0.73441
 O889 O 0.27110 0.51181 0.24956
 O890 O 0.25134 0.48451 0.23047
 O891 O 0.25223 0.51229 0.22996
 O892 O 0.26900 0.48414 0.25122
 O893 O 0.25161 0.48596 0.26644
 O894 O 0.23472 0.51350 0.24511
 O895 O 0.23394 0.48568 0.24575
 O896 O 0.25360 0.51368 0.26466
 Cu897 Cu 0.26265 0.49801 0.23879
 Cu898 Cu 0.24173 0.49985 0.25702
 C899 C 0.26569 0.51760 0.26023
 C900 C 0.23937 0.48029 0.23484
 C901 C 0.24060 0.51777 0.23401
 C902 C 0.26308 0.48021 0.26247
 O903 O 0.76372 0.98763 0.74645
 O904 O 0.74466 1.01562 0.76595
 O905 O 0.74434 0.98780 0.76555
 O906 O 0.76492 1.01537 0.74766
 O907 O 0.74872 1.01656 0.73119
 O908 O 0.72820 0.98848 0.74899
 O909 O 0.72844 1.01628 0.74947
 O910 O 0.74762 0.98882 0.72989
 Cu911 Cu 0.75603 1.00152 0.75806
 Cu912 Cu 0.73663 1.00264 0.73824
 C913 C 0.75884 0.98339 0.73485
 C914 C 0.73329 1.02077 0.76097
 C915 C 0.73287 0.98326 0.76029
 C916 C 0.76034 1.02079 0.73645
 O917 O 0.72969 0.48669 0.24655
 O918 O 0.75101 0.51477 0.22976
 O919 O 0.74983 0.48705 0.22817
 O920 O 0.73066 0.51446 0.24797
 O921 O 0.74655 0.51316 0.26471
 O922 O 0.76560 0.48542 0.24499
 O923 O 0.76685 0.51316 0.24652
 O924 O 0.74548 0.48538 0.26338
 Cu925 Cu 0.73871 0.50091 0.23643
 Cu926 Cu 0.75770 0.49912 0.25659
 C927 C 0.73403 0.48115 0.25781
 C928 C 0.76253 0.51882 0.23532
 C929 C 0.76091 0.48142 0.23324
 C930 C 0.73537 0.51863 0.25964
 O931 O 0.25597 -0.01681 0.76201
 O932 O 0.23672 0.01132 0.74289
 O933 O 0.23711 -0.01651 0.74236
 O934 O 0.25460 0.01091 0.76334
 O935 O 0.27189 0.01230 0.74796
 O936 O 0.25451 -0.01576 0.72706
 O937 O 0.25400 0.01205 0.72746
 O938 O 0.27335 -0.01553 0.74673
 Cu939 Cu 0.24437 -0.00289 0.75417
 Cu940 Cu 0.26518 -0.00163 0.73578
 C941 C 0.26796 -0.02103 0.75756
 C942 C 0.24215 0.01655 0.73191
 C943 C 0.24281 -0.02098 0.73123
 C944 C 0.26612 0.01646 0.75921
 O945 O 0.24468 0.26554 0.98688
 O946 O 0.26496 0.24687 1.01410
 O947 O 0.26522 0.24715 0.98693
 O948 O 0.24468 0.26553 1.01409
 O949 O 0.22913 0.24801 1.01406
 O950 O 0.24941 0.22986 0.98649
 O951 O 0.24942 0.22934 1.01364
 O952 O 0.22889 0.24823 0.98691
 Cu953 Cu 0.25645 0.25802 1.00051
 Cu954 Cu 0.23765 0.23712 1.00026
 C955 C 0.23338 0.26001 0.98215
 C956 C 0.26058 0.23493 1.01860
 C957 C 0.26075 0.23546 0.98191
 C958 C 0.23350 0.25982 1.01888
 O959 O 0.24709 0.76917 0.48636
 O960 O 0.26639 0.75007 0.51412
 O961 O 0.26725 0.75037 0.48703
 O962 O 0.24745 0.77012 0.51349
 O963 O 0.23122 0.75322 0.51405
 O964 O 0.25065 0.73385 0.48658
 O965 O 0.25015 0.73318 0.51366
 O966 O 0.23050 0.75264 0.48693
 Cu967 Cu 0.25868 0.76161 0.50024
 Cu968 Cu 0.23898 0.74156 0.50031
 C969 C 0.23547 0.76408 0.48188
 C970 C 0.26150 0.73832 0.51863
 C971 C 0.26231 0.73886 0.48211
 C972 C 0.23611 0.76500 0.51850
 O973 O 0.26266 0.75810 -0.01251
 O974 O 0.24329 0.73836 0.01452
 O975 O 0.24327 0.73857 -0.01266
 O976 O 0.26254 0.75804 0.01467
 O977 O 0.24597 0.77462 0.01468
 O978 O 0.22664 0.75508 -0.01251
 O979 O 0.22669 0.75491 0.01460
 O980 O 0.24605 0.77463 -0.01248
 Cu981 Cu 0.25461 0.74661 0.00100
 Cu982 Cu 0.23468 0.76647 0.00108
 C983 C 0.25759 0.76966 -0.01725
 C984 C 0.23175 0.74333 0.01930
 C985 C 0.23171 0.74357 -0.01736
 C986 C 0.25748 0.76960 0.01945
 O987 O 0.26971 0.25009 0.48621
 O988 O 0.25298 0.22906 0.51422
 O989 O 0.25203 0.22893 0.48707
 O990 O 0.27129 0.24966 0.51329
 O991 O 0.25362 0.26500 0.51444
 O992 O 0.23451 0.24448 0.48767
 O993 O 0.23530 0.24442 0.51487
 O994 O 0.25221 0.26562 0.48733
 Cu995 Cu 0.26326 0.23789 0.50010
 Cu996 Cu 0.24214 0.25641 0.50116
 C997 C 0.26377 0.26144 0.48193
 C998 C 0.24130 0.23325 0.51942
 C999 C 0.24008 0.23324 0.48270
 C1000 C 0.26572 0.26075 0.51850
 O1001 O 0.75301 0.77418 0.98682
 O1002 O 0.77281 0.75529 1.01408
 O1003 O 0.77289 0.75509 0.98695
 O1004 O 0.75273 0.77419 1.01394
 O1005 O 0.73667 0.75713 1.01390
 O1006 O 0.75679 0.73807 0.98693
 O1007 O 0.75674 0.73824 1.01410
 O1008 O 0.73693 0.75713 0.98671
 Cu1009 Cu 0.76447 0.76639 1.00045
 Cu1010 Cu 0.74517 0.74593 1.00041
 C1011 C 0.74168 0.76883 0.98198
 C1012 C 0.76810 0.74361 1.01886
 C1013 C 0.76820 0.74337 0.98221
 C1014 C 0.74132 0.76885 1.01864
 O1015 O 0.75000 0.26997 0.48671
 O1016 O 0.77164 0.25289 0.51386
 O1017 O 0.77068 0.25178 0.48677
 O1018 O 0.75112 0.27130 0.51383
 O1019 O 0.73572 0.25370 0.51527
 O1020 O 0.75509 0.23432 0.48783
 O1021 O 0.75621 0.23529 0.51499
 O1022 O 0.73442 0.25253 0.48816
 Cu1023 Cu 0.76240 0.26325 0.50016
 Cu1024 Cu 0.74382 0.24220 0.50170
 C1025 C 0.73858 0.26411 0.48269
 C1026 C 0.76754 0.24120 0.51916
 C1027 C 0.76616 0.23980 0.48253
 C1028 C 0.74019 0.26578 0.51933
 O1029 O 0.76653 0.25541 -0.01334
 O1030 O 0.74962 0.23373 0.01385
 O1031 O 0.74946 0.23379 -0.01327
 O1032 O 0.76643 0.25558 0.01382
 O1033 O 0.74809 0.27015 0.01382
 O1034 O 0.73111 0.24835 -0.01324
 O1035 O 0.73126 0.24827 0.01392
 O1036 O 0.74820 0.26999 -0.01336
 Cu1037 Cu 0.75985 0.24318 0.00027
 Cu1038 Cu 0.73782 0.26065 0.00029
 C1039 C 0.76021 0.26630 -0.01814
 C1040 C 0.73760 0.23735 0.01864
 C1041 C 0.73742 0.23743 -0.01800
 C1042 C 0.76012 0.26651 0.01857
 O1043 O 0.75446 0.72897 0.51436
 O1044 O 0.77440 0.74818 0.48734
 O1045 O 0.77416 0.74826 0.51453
 O1046 O 0.75466 0.72897 0.48726
 O1047 O 0.73834 0.74579 0.48710
 O1048 O 0.75788 0.76512 0.51443
 O1049 O 0.75808 0.76500 0.48716
 O1050 O 0.73818 0.74583 0.51430
 Cu1051 Cu 0.76606 0.73693 0.50089
 Cu1052 Cu 0.74650 0.75714 0.50074
 C1053 C 0.74297 0.73416 0.51905
 C1054 C 0.76955 0.75977 0.48246
 C1055 C 0.76927 0.75990 0.51929
 C1056 C 0.74324 0.73412 0.48241
 O1057 O 1.01394 0.26600 0.24938
 O1058 O 0.98631 0.24559 0.26757
 O1059 O 1.01399 0.24503 0.26692
 O1060 O 0.98636 0.26653 0.25001
 O1061 O 0.98572 0.25120 0.23264
 O1062 O 1.01339 0.22969 0.24957
 O1063 O 0.98570 0.23023 0.25024
 O1064 O 1.01335 0.25065 0.23202
 Cu1065 Cu 1.00022 0.25731 0.26023
 Cu1066 Cu 0.99946 0.23889 0.23938
 C1067 C 1.01845 0.26177 0.23764
 C1068 C 0.98116 0.23450 0.26196
 C1069 C 1.01855 0.23379 0.26109
 C1070 C 0.98124 0.26249 0.23846
 O1071 O 0.48360 0.24898 0.73117
 O1072 O 0.51170 0.22784 0.74806
 O1073 O 0.48408 0.22871 0.74955
 O1074 O 0.51117 0.24787 0.72946
 O1075 O 0.51287 0.26387 0.74617
 O1076 O 0.48532 0.24493 0.76608
 O1077 O 0.51297 0.24387 0.76477
 O1078 O 0.48529 0.26515 0.74771
 Cu1079 Cu 0.49748 0.23673 0.73790
 Cu1080 Cu 0.49927 0.25606 0.75786
 C1081 C 0.47960 0.26066 0.73659
 C1082 C 0.51722 0.23232 0.75928
 C1083 C 0.47992 0.23361 0.76116
 C1084 C 0.51677 0.25906 0.73443
 O1085 O 0.01410 0.25621 0.72632
 O1086 O -0.01313 0.27596 0.74583
 O1087 O 0.01455 0.27548 0.74571
 O1088 O -0.01356 0.25665 0.72653
 O1089 O -0.01377 0.23986 0.74255
 O1090 O 0.01441 0.25863 0.76167
 O1091 O -0.01329 0.25915 0.76184
 O1092 O 0.01396 0.23938 0.74231
 Cu1093 Cu 0.00051 0.26776 0.73450
 Cu1094 Cu 0.00032 0.24756 0.75369
 C1095 C 0.01880 0.24448 0.73103
 C1096 C -0.01799 0.27086 0.75710
 C1097 C 0.01939 0.27021 0.75690
 C1098 C -0.01860 0.24511 0.73134
 O1099 O 0.48681 0.23495 0.24645
 O1100 O 0.51534 0.25360 0.26535
 O1101 O 0.48771 0.25290 0.26696
 O1102 O 0.51444 0.23530 0.24514
 O1103 O 0.51352 0.25312 0.23022
 O1104 O 0.48639 0.27054 0.25188
 O1105 O 0.51399 0.27140 0.25044
 O1106 O 0.48596 0.25260 0.23135
 Cu1107 Cu 0.50119 0.24241 0.25748
 Cu1108 Cu 0.49985 0.26370 0.23948
 C1109 C 0.48148 0.24063 0.23566
 C1110 C 0.51960 0.26567 0.26106
 C1111 C 0.48233 0.26464 0.26308
 C1112 C 0.51868 0.24123 0.23403
 O1113 O 0.98599 0.74590 0.72941
 O1114 O 1.01356 0.72685 0.74889
 O1115 O 0.98586 0.72611 0.74826
 O1116 O 1.01354 0.74739 0.73080
 O1117 O 1.01205 0.76350 0.74742
 O1118 O 0.98491 0.74214 0.76500
 O1119 O 1.01260 0.74303 0.76549
 O1120 O 0.98451 0.76188 0.74616
 Cu1121 Cu 0.99987 0.73494 0.73768
 Cu1122 Cu 0.99839 0.75423 0.75770
 C1123 C 0.98042 0.75706 0.73448
 C1124 C 1.01797 0.73175 0.76041
 C1125 C 0.98056 0.73061 0.75960
 C1126 C 1.01756 0.75908 0.73619
 O1127 O 0.51407 0.77014 0.25582
 O1128 O 0.48588 0.74901 0.27265
 O1129 O 0.51355 0.74998 0.27429
 O1130 O 0.48645 0.76968 0.25476
 O1131 O 0.48739 0.75371 0.23797
 O1132 O 0.51506 0.73426 0.25731
 O1133 O 0.48737 0.73305 0.25588
 O1134 O 0.51501 0.75441 0.23881
 Cu1135 Cu 0.49986 0.76127 0.26608
 Cu1136 Cu 0.50134 0.74226 0.24582
 C1137 C 0.51938 0.76584 0.24442
 C1138 C 0.48171 0.73747 0.26706
 C1139 C 0.51913 0.73889 0.26907
 C1140 C 0.48215 0.76502 0.24311
 O1141 O -0.01356 0.72782 0.25330
 O1142 O 0.01432 0.74879 0.27083
 O1143 O -0.01331 0.74762 0.27217
 O1144 O 0.01411 0.72837 0.25260
 O1145 O 0.01328 0.74460 0.23605
 O1146 O -0.01466 0.76364 0.25547
 O1147 O 0.01298 0.76497 0.25428
 O1148 O -0.01439 0.74388 0.23660
 Cu1149 Cu 0.00050 0.73654 0.26389
 Cu1150 Cu -0.00081 0.75589 0.24394
 C1151 C -0.01880 0.73235 0.24195
 C1152 C 0.01848 0.76044 0.26547
 C1153 C -0.01882 0.75881 0.26712
 C1154 C 0.01853 0.73324 0.24108
 O1155 O 0.51510 0.74341 0.73768
 O1156 O 0.48727 0.76473 0.75447
 O1157 O 0.51489 0.76386 0.75581
 O1158 O 0.48744 0.74365 0.73703
 O1159 O 0.48674 0.72799 0.75410
 O1160 O 0.51366 0.74845 0.77306
 O1161 O 0.48607 0.74910 0.77154
 O1162 O 0.51444 0.72795 0.75492
 Cu1163 Cu 0.50127 0.75546 0.74452
 Cu1164 Cu 0.50013 0.73682 0.76512
 C1165 C 0.51969 0.73216 0.74346
 C1166 C 0.48177 0.76052 0.76579
 C1167 C 0.51901 0.75954 0.76765
 C1168 C 0.48232 0.73241 0.74241
 C1169 C 0.39624 0.31934 0.29779
 C1170 C 0.40879 0.31477 0.29153
 C1171 C 0.41622 0.30314 0.29689
 C1172 C 0.41105 0.29616 0.30877
 C1173 C 0.39850 0.30072 0.31507
 C1174 C 0.39088 0.31231 0.30959
 N1175 N 0.42870 0.29839 0.28982
 N1176 N 0.43588 0.28775 0.29399
 C1177 C 0.44808 0.28275 0.28660
 C1178 C 0.45506 0.27057 0.29140
 C1179 C 0.46642 0.26485 0.28393
 C1180 C 0.47100 0.27128 0.27151
 C1181 C 0.46420 0.28375 0.26692
 C1182 C 0.45282 0.28943 0.27439
 H1183 H 0.39080 0.32840 0.29336
 H1184 H 0.41268 0.32024 0.28238
 H1185 H 0.41661 0.28709 0.31308
 H1186 H 0.39467 0.29500 0.32408
 H1187 H 0.45150 0.26534 0.30080
 H1188 H 0.47144 0.25526 0.28776
 H1189 H 0.46747 0.28896 0.25740
 H1190 H 0.44760 0.29889 0.27049
 C1191 C 0.39572 0.79459 0.82032
 C1192 C 0.40809 0.78830 0.81526
 C1193 C 0.41524 0.79416 0.80393
 C1194 C 0.40995 0.80662 0.79773
 C1195 C 0.39755 0.81300 0.80280
 C1196 C 0.39014 0.80702 0.81414
 N1197 N 0.42763 0.78704 0.79883
 N1198 N 0.43462 0.79142 0.78835
 C1199 C 0.44680 0.78390 0.78329
 C1200 C 0.45370 0.78889 0.77138
 C1201 C 0.46523 0.78144 0.76583
 C1202 C 0.47007 0.76882 0.77213
 C1203 C 0.46328 0.76397 0.78425
 C1204 C 0.45174 0.77143 0.78977
 H1205 H 0.39063 0.78954 0.82908
 H1206 H 0.41208 0.77871 0.82013
 H1207 H 0.41532 0.81136 0.78893
 H1208 H 0.39380 0.82252 0.79767
 H1209 H 0.45001 0.79848 0.76628
 H1210 H 0.47022 0.78548 0.75649
 H1211 H 0.46674 0.75430 0.78935
 H1212 H 0.44660 0.76734 0.79901
 C1213 C -0.10200 0.29930 0.81769
 C1214 C -0.08968 0.29359 0.81185
 C1215 C -0.08349 0.29988 0.80017
 C1216 C -0.08975 0.31209 0.79437
 C1217 C -0.10209 0.31782 0.80018
 C1218 C -0.10840 0.31147 0.81190
 N1219 N -0.07109 0.29348 0.79428
 N1220 N -0.06480 0.29864 0.78372
 C1221 C -0.05261 0.29194 0.77770
 C1222 C -0.04643 0.29797 0.76587
 C1223 C -0.03498 0.29129 0.75932
 C1224 C -0.02949 0.27843 0.76454
 C1225 C -0.03553 0.27256 0.77662
 C1226 C -0.04699 0.27924 0.78314
 H1227 H -0.10656 0.29401 0.82661
 H1228 H -0.08500 0.28414 0.81638
 H1229 H -0.08515 0.31715 0.78531
 H1230 H -0.10663 0.32724 0.79548
 H1231 H -0.05065 0.30775 0.76158
 H1232 H -0.03058 0.29610 0.75004
 H1233 H -0.03157 0.26267 0.78091
 H1234 H -0.05156 0.27437 0.79230
 C1235 C -0.10593 0.81545 0.29669
 C1236 C -0.09389 0.80972 0.29036
 C1237 C -0.08575 0.79946 0.29719
 C1238 C -0.08980 0.79493 0.31054
 C1239 C -0.10187 0.80065 0.31690
 C1240 C -0.11009 0.81101 0.31006
 N1241 N -0.07354 0.79378 0.29029
 N1242 N -0.06571 0.78428 0.29575
 C1243 C -0.05362 0.77855 0.28866
 C1244 C -0.04596 0.76754 0.29492
 C1245 C -0.03448 0.76129 0.28804
 C1246 C -0.03042 0.76603 0.27474
 C1247 C -0.03795 0.77732 0.26861
 C1248 C -0.04947 0.78351 0.27549
 H1249 H -0.11200 0.82327 0.29099
 H1250 H -0.09091 0.81325 0.28005
 H1251 H -0.08366 0.78699 0.31604
 H1252 H -0.10465 0.79703 0.32722
 H1253 H -0.04903 0.76364 0.30507
 H1254 H -0.02888 0.75265 0.29307
 H1255 H -0.03510 0.78121 0.25839
 H1256 H -0.05521 0.79205 0.27044
 C1257 C 0.60650 0.68232 0.29866
 C1258 C 0.59419 0.68754 0.29239
 C1259 C 0.58622 0.69822 0.29883
 C1260 C 0.59069 0.70364 0.31172
 C1261 C 0.60301 0.69844 0.31800
 C1262 C 0.61107 0.68770 0.31155
 N1263 N 0.57385 0.70357 0.29195
 N1264 N 0.56615 0.71329 0.29725
 C1265 C 0.55397 0.71894 0.29030
 C1266 C 0.54638 0.72997 0.29664
 C1267 C 0.53487 0.73626 0.28988
 C1268 C 0.53071 0.73156 0.27661
 C1269 C 0.53817 0.72026 0.27038
 C1270 C 0.54972 0.71401 0.27715
 H1271 H 0.61249 0.67419 0.29326
 H1272 H 0.59091 0.68332 0.28242
 H1273 H 0.58470 0.71192 0.31691
 H1274 H 0.60613 0.70281 0.32794
 H1275 H 0.54956 0.73386 0.30677
 H1276 H 0.52938 0.74495 0.29496
 H1277 H 0.53526 0.71643 0.26015
 H1278 H 0.55542 0.70549 0.27203
 C1279 C 0.60095 0.20090 0.81801
 C1280 C 0.58877 0.20673 0.81210
 C1281 C 0.58287 0.20078 0.80012
 C1282 C 0.58930 0.18878 0.79407
 C1283 C 0.60154 0.18291 0.79998
 C1284 C 0.60754 0.18892 0.81203
 N1285 N 0.57054 0.20735 0.79431
 N1286 N 0.56437 0.20277 0.78343
 C1287 C 0.55219 0.20989 0.77785
 C1288 C 0.54591 0.20471 0.76568
 C1289 C 0.53436 0.21181 0.75973
 C1290 C 0.52891 0.22426 0.76590
 C1291 C 0.53510 0.22928 0.77825
 C1292 C 0.54661 0.22218 0.78417
 H1293 H 0.60524 0.20596 0.82717
 H1294 H 0.58394 0.21602 0.81682
 H1295 H 0.58491 0.18401 0.78478
 H1296 H 0.60624 0.17365 0.79511
 H1297 H 0.55009 0.19525 0.76070
 H1298 H 0.52984 0.20768 0.75021
 H1299 H 0.53117 0.23882 0.78328
 H1300 H 0.55124 0.22641 0.79359
 C1301 C 1.10380 0.70394 0.81893
 C1302 C 1.09160 0.71001 0.81320
 C1303 C 1.08449 0.70327 0.80229
 C1304 C 1.08971 0.69028 0.79714
 C1305 C 1.10190 0.68418 0.80287
 C1306 C 1.10912 0.69093 0.81384
 N1307 N 1.07214 0.70990 0.79656
 N1308 N 1.06532 0.70445 0.78646
 C1309 C 1.05309 0.71116 0.78056
 C1310 C 1.04666 0.70492 0.76898
 C1311 C 1.03509 0.71147 0.76258
 C1312 C 1.02968 0.72441 0.76773
 C1313 C 1.03596 0.73051 0.77956
 C1314 C 1.04760 0.72396 0.78592
 H1315 H 1.10903 0.70955 0.82729
 H1316 H 1.08771 0.72005 0.81723
 H1317 H 1.08440 0.68486 0.78870
 H1318 H 1.10558 0.67415 0.79867
 H1319 H 1.05079 0.69506 0.76476
 H1320 H 1.03049 0.70648 0.75349
 H1321 H 1.03207 0.74047 0.78377
 H1322 H 1.05237 0.72897 0.79490
 C1323 C 1.10262 0.20139 0.31879
 C1324 C 1.09041 0.20739 0.31310
 C1325 C 1.08443 0.20174 0.30104
 C1326 C 1.09080 0.18991 0.29464
 C1327 C 1.10306 0.18387 0.30032
 C1328 C 1.10914 0.18954 0.31248
 N1329 N 1.07203 0.20841 0.29549
 N1330 N 1.06584 0.20404 0.28455
 C1331 C 1.05358 0.21117 0.27919
 C1332 C 1.04743 0.20631 0.26684
 C1333 C 1.03584 0.21347 0.26106
 C1334 C 1.03021 0.22563 0.26759
 C1335 C 1.03624 0.23030 0.28015
 C1336 C 1.04781 0.22315 0.28589
 H1337 H 1.10686 0.20613 0.32814
 H1338 H 1.08560 0.21653 0.31810
 H1339 H 1.08636 0.18539 0.28526
 H1340 H 1.10773 0.17479 0.29513
 H1341 H 1.05177 0.19709 0.26157
 H1342 H 1.03144 0.20960 0.25137
 H1343 H 1.03216 0.23962 0.28544
 H1344 H 1.05234 0.22711 0.29547
 C1345 C 0.60310 0.31589 0.70353
 C1346 C 0.59091 0.31051 0.70985
 C1347 C 0.58272 0.30018 0.70318
 C1348 C 0.58677 0.29534 0.68995
 C1349 C 0.59897 0.30073 0.68358
 C1350 C 0.60735 0.31102 0.69032
 N1351 N 0.57057 0.29457 0.71022
 N1352 N 0.56286 0.28484 0.70498
 C1353 C 0.55092 0.27907 0.71223
 C1354 C 0.54338 0.26785 0.70619
 C1355 C 0.53211 0.26149 0.71329
 C1356 C 0.52816 0.26633 0.72658
 C1357 C 0.53557 0.27782 0.73250
 C1358 C 0.54687 0.28412 0.72540
 H1359 H 0.60920 0.32376 0.70912
 H1360 H 0.58790 0.31429 0.72007
 H1361 H 0.58059 0.28735 0.68457
 H1362 H 0.60179 0.29675 0.67340
 H1363 H 0.54640 0.26386 0.69605
 H1364 H 0.52661 0.25268 0.70843
 H1365 H 0.53280 0.28179 0.74272
 H1366 H 0.55253 0.29281 0.73028
 C1367 C 0.59966 0.80075 0.18259
 C1368 C 0.58743 0.79501 0.18852
 C1369 C 0.58306 0.79919 0.20178
 C1370 C 0.59102 0.80939 0.20907
 C1371 C 0.60331 0.81514 0.20316
 C1372 C 0.60787 0.81079 0.18988
 N1373 N 0.57079 0.79255 0.20768
 N1374 N 0.56583 0.79590 0.21955
 C1375 C 0.55379 0.78870 0.22533
 C1376 C 0.54851 0.79300 0.23826
 C1377 C 0.53715 0.78576 0.24440
 C1378 C 0.53092 0.77402 0.23769
 C1379 C 0.53613 0.76985 0.22460
 C1380 C 0.54743 0.77713 0.21847
 H1381 H 0.60266 0.79720 0.17231
 H1382 H 0.58137 0.78717 0.18280
 H1383 H 0.58785 0.81276 0.21938
 H1384 H 0.60933 0.82281 0.20912
 H1385 H 0.55332 0.80189 0.24367
 H1386 H 0.53341 0.78922 0.25450
 H1387 H 0.53157 0.76088 0.21914
 H1388 H 0.55130 0.77357 0.20846
 C1389 C 1.10256 0.29457 0.17903
 C1390 C 1.09019 0.28831 0.18419
 C1391 C 1.08373 0.29362 0.19620
 C1392 C 1.08973 0.30541 0.20299
 C1393 C 1.10209 0.31168 0.19786
 C1394 C 1.10872 0.30630 0.18585
 N1395 N 1.07135 0.28667 0.20151
 N1396 N 1.06512 0.29099 0.21247
 C1397 C 1.05298 0.28393 0.21812
 C1398 C 1.04705 0.28910 0.23045
 C1399 C 1.03566 0.28206 0.23668
 C1400 C 1.02997 0.26969 0.23061
 C1401 C 1.03576 0.26469 0.21805
 C1402 C 1.04719 0.27173 0.21186
 H1403 H 1.10726 0.29017 0.16972
 H1404 H 1.08567 0.27922 0.17886
 H1405 H 1.08496 0.30970 0.21233
 H1406 H 1.10648 0.32062 0.20347
 H1407 H 1.05144 0.29849 0.23537
 H1408 H 1.03144 0.28621 0.24633
 H1409 H 1.03163 0.25519 0.21312
 H1410 H 1.05159 0.26754 0.20230
 C1411 C 1.10211 0.79458 0.68033
 C1412 C 1.08967 0.78826 0.68516
 C1413 C 1.08293 0.79345 0.69706
 C1414 C 1.08868 0.80526 0.70404
 C1415 C 1.10115 0.81163 0.69921
 C1416 C 1.10809 0.80627 0.68737
 N1417 N 1.07057 0.78624 0.70203
 N1418 N 1.06388 0.79032 0.71281
 C1419 C 1.05180 0.78276 0.71797
 C1420 C 1.04509 0.78772 0.72999
 C1421 C 1.03376 0.78018 0.73575
 C1422 C 1.02896 0.76749 0.72956
 C1423 C 1.03555 0.76268 0.71731
 C1424 C 1.04687 0.77025 0.71156
 H1425 H 1.10701 0.79026 0.67108
 H1426 H 1.08532 0.77918 0.67969
 H1427 H 1.08366 0.80945 0.71330
 H1428 H 1.10546 0.82055 0.70493
 H1429 H 1.04880 0.79733 0.73502
 H1430 H 1.02893 0.78418 0.74518
 H1431 H 1.03209 0.75296 0.71229
 H1432 H 1.05190 0.76620 0.70224
 C1433 C 0.39822 0.70309 0.68305
 C1434 C 0.41039 0.70893 0.68899
 C1435 C 0.41691 0.70232 0.70029
 C1436 C 0.41115 0.68966 0.70564
 C1437 C 0.39895 0.68376 0.69969
 C1438 C 0.39232 0.69042 0.68832
 N1439 N 0.42921 0.70885 0.70619
 N1440 N 0.43565 0.70373 0.71667
 C1441 C 0.44779 0.71065 0.72252
 C1442 C 0.45393 0.70502 0.73454
 C1443 C 0.46535 0.71193 0.74088
 C1444 C 0.47085 0.72459 0.73522
 C1445 C 0.46486 0.73004 0.72295
 C1446 C 0.45342 0.72315 0.71666
 H1447 H 0.39347 0.70865 0.67440
 H1448 H 0.41471 0.71872 0.68481
 H1449 H 0.41603 0.68436 0.71441
 H1450 H 0.39479 0.67400 0.70403
 H1451 H 0.44970 0.69540 0.73915
 H1452 H 0.46973 0.70745 0.75031
 H1453 H 0.46883 0.73977 0.71834
 H1454 H 0.44887 0.72770 0.70734
 C1455 C 0.39619 0.18186 0.20379
 C1456 C 0.40815 0.18736 0.21049
 C1457 C 0.41578 0.19861 0.20459
 C1458 C 0.41136 0.20428 0.19180
 C1459 C 0.39943 0.19880 0.18508
 C1460 C 0.39164 0.18754 0.19100
 N1461 N 0.42782 0.20421 0.21183
 N1462 N 0.43485 0.21472 0.20712
 C1463 C 0.44680 0.22063 0.21425
 C1464 C 0.45340 0.23266 0.20865
 C1465 C 0.46478 0.23905 0.21552
 C1466 C 0.46981 0.23345 0.22814
 C1467 C 0.46331 0.22120 0.23364
 C1468 C 0.45186 0.21485 0.22678
 H1469 H 0.39049 0.17326 0.20874
 H1470 H 0.41143 0.18291 0.22035
 H1471 H 0.41709 0.21296 0.18699
 H1472 H 0.39639 0.20341 0.17523
 H1473 H 0.44960 0.23719 0.19900
 H1474 H 0.46956 0.24844 0.21098
 H1475 H 0.46692 0.21664 0.24335
 H1476 H 0.44693 0.20554 0.23130
 C1477 C -0.10173 0.70095 0.18180
 C1478 C -0.08961 0.70689 0.18776
 C1479 C -0.08364 0.70091 0.19969
 C1480 C -0.08989 0.68876 0.20561
 C1481 C -0.10205 0.68279 0.19965
 C1482 C -0.10817 0.68886 0.18769
 N1483 N -0.07143 0.70759 0.20566
 N1484 N -0.06537 0.70296 0.21658
 C1485 C -0.05333 0.71006 0.22246
 C1486 C -0.04727 0.70476 0.23468
 C1487 C -0.03588 0.71182 0.24094
 C1488 C -0.03035 0.72435 0.23503
 C1489 C -0.03632 0.72950 0.22262
 C1490 C -0.04769 0.72244 0.21639
 H1491 H -0.10610 0.70602 0.17267
 H1492 H -0.08490 0.71628 0.18313
 H1493 H -0.08544 0.68394 0.21485
 H1494 H -0.10660 0.67345 0.20446
 H1495 H -0.05152 0.69523 0.23947
 H1496 H -0.03153 0.70759 0.25050
 H1497 H -0.03233 0.73911 0.21778
 H1498 H -0.05216 0.72677 0.20694
 C1499 C -0.10372 0.18508 0.70207
 C1500 C -0.09196 0.19129 0.70849
 C1501 C -0.08468 0.20247 0.70207
 C1502 C -0.08936 0.20746 0.68910
 C1503 C -0.10112 0.20127 0.68266
 C1504 C -0.10844 0.18996 0.68903
 N1505 N -0.07266 0.20856 0.70894
 N1506 N -0.06564 0.21883 0.70372
 C1507 C -0.05365 0.22496 0.71062
 C1508 C -0.04687 0.23667 0.70458
 C1509 C -0.03536 0.24313 0.71121
 C1510 C -0.03038 0.23791 0.72401
 C1511 C -0.03710 0.22600 0.72995
 C1512 C -0.04865 0.21959 0.72334
 H1513 H -0.10903 0.17645 0.70737
 H1514 H -0.08849 0.18737 0.71851
 H1515 H -0.08393 0.21613 0.68394
 H1516 H -0.10438 0.20539 0.67268
 H1517 H -0.05061 0.24089 0.69477
 H1518 H -0.03044 0.25229 0.70635
 H1519 H -0.03358 0.22175 0.73982
 H1520 H -0.05370 0.21053 0.72821
 C1521 C 0.31880 0.39567 0.30001
 C1522 C 0.31403 0.40816 0.29371
 C1523 C 0.30139 0.41452 0.29798
 C1524 C 0.29358 0.40834 0.30887
 C1525 C 0.29834 0.39579 0.31521
 C1526 C 0.31094 0.38921 0.31073
 N1527 N 0.29657 0.42694 0.29075
 N1528 N 0.28526 0.43350 0.29405
 C1529 C 0.28037 0.44562 0.28638
 C1530 C 0.26793 0.45243 0.29065
 C1531 C 0.26247 0.46384 0.28302
 C1532 C 0.26937 0.46864 0.27092
 C1533 C 0.28201 0.46192 0.26679
 C1534 C 0.28747 0.45052 0.27445
 H1535 H 0.32865 0.39111 0.29638
 H1536 H 0.32016 0.41285 0.28536
 H1537 H 0.28373 0.41308 0.31234
 H1538 H 0.29200 0.39111 0.32339
 H1539 H 0.26236 0.44876 0.29981
 H1540 H 0.25272 0.46876 0.28651
 H1541 H 0.28757 0.46535 0.25753
 H1542 H 0.29712 0.44542 0.27093
 C1543 C 0.30026 -0.10333 0.81926
 C1544 C 0.29411 -0.09126 0.81331
 C1545 C 0.29918 -0.08581 0.80076
 C1546 C 0.31064 -0.09258 0.79418
 C1547 C 0.31681 -0.10473 0.80006
 C1548 C 0.31169 -0.11037 0.81270
 N1549 N 0.29233 -0.07361 0.79486
 N1550 N 0.29670 -0.06768 0.78377
 C1551 C 0.28960 -0.05567 0.77776
 C1552 C 0.29527 -0.04943 0.76579
 C1553 C 0.28837 -0.03802 0.75937
 C1554 C 0.27559 -0.03265 0.76482
 C1555 C 0.27001 -0.03882 0.77696
 C1556 C 0.27696 -0.05022 0.78339
 H1557 H 0.29585 -0.10709 0.82895
 H1558 H 0.28527 -0.08614 0.81848
 H1559 H 0.31475 -0.08856 0.78443
 H1560 H 0.32556 -0.10962 0.79460
 H1561 H 0.30500 -0.05353 0.76134
 H1562 H 0.29296 -0.03353 0.75003
 H1563 H 0.26020 -0.03495 0.78141
 H1564 H 0.27235 -0.05487 0.79264
 C1565 C 0.79836 0.39645 0.81763
 C1566 C 0.79267 0.40884 0.81183
 C1567 C 0.79848 0.41470 0.79977
 C1568 C 0.81026 0.40812 0.79358
 C1569 C 0.81601 0.39573 0.79936
 C1570 C 0.81009 0.38959 0.81144
 N1571 N 0.79199 0.42712 0.79390
 N1572 N 0.79649 0.43303 0.78284
 C1573 C 0.78956 0.44524 0.77700
 C1574 C 0.79470 0.45110 0.76460
 C1575 C 0.78775 0.46261 0.75835
 C1576 C 0.77550 0.46845 0.76444
 C1577 C 0.77053 0.46269 0.77703
 C1578 C 0.77748 0.45121 0.78325
 H1579 H 0.79341 0.39233 0.82692
 H1580 H 0.78359 0.41383 0.81670
 H1581 H 0.81494 0.41248 0.78423
 H1582 H 0.82501 0.39099 0.79418
 H1583 H 0.80401 0.44660 0.75968
 H1584 H 0.79185 0.46679 0.74866
 H1585 H 0.76114 0.46694 0.78202
 H1586 H 0.77329 0.44691 0.79284
 C1587 C 0.81642 -0.10238 0.29888
 C1588 C 0.81057 -0.09032 0.29262
 C1589 C 0.79854 -0.08384 0.29821
 C1590 C 0.79237 -0.08951 0.31028
 C1591 C 0.79820 -0.10158 0.31660
 C1592 C 0.81032 -0.10828 0.31097
 N1593 N 0.79277 -0.07166 0.29129
 N1594 N 0.78172 -0.06521 0.29554
 C1595 C 0.77609 -0.05317 0.28823
 C1596 C 0.76360 -0.04677 0.29300
 C1597 C 0.75759 -0.03535 0.28575
 C1598 C 0.76403 -0.03014 0.27359
 C1599 C 0.77671 -0.03644 0.26898
 C1600 C 0.78268 -0.04784 0.27621
 H1601 H 0.82572 -0.10696 0.29408
 H1602 H 0.81542 -0.08603 0.28331
 H1603 H 0.78303 -0.08466 0.31479
 H1604 H 0.79307 -0.10560 0.32584
 H1605 H 0.75842 -0.05077 0.30226
 H1606 H 0.74783 -0.03072 0.28958
 H1607 H 0.78196 -0.03269 0.25966
 H1608 H 0.79236 -0.05258 0.27231
 C1609 C 0.29832 0.60405 0.67893
 C1610 C 0.29201 0.59182 0.68441
 C1611 C 0.29684 0.58597 0.69689
 C1612 C 0.30818 0.59249 0.70388
 C1613 C 0.31452 0.60474 0.69842
 C1614 C 0.30966 0.61071 0.68587
 N1615 N 0.28991 0.57358 0.70229
 N1616 N 0.29371 0.56761 0.71356
 C1617 C 0.28650 0.55536 0.71895
 C1618 C 0.29100 0.54949 0.73156
 C1619 C 0.28384 0.53788 0.73737
 C1620 C 0.27202 0.53194 0.73061
 C1621 C 0.26769 0.53771 0.71782
 C1622 C 0.27485 0.54932 0.71204
 H1623 H 0.29426 0.60820 0.66925
 H1624 H 0.28327 0.58689 0.67894
 H1625 H 0.31209 0.58818 0.71359
 H1626 H 0.32316 0.60953 0.70412
 H1627 H 0.29997 0.55404 0.73699
 H1628 H 0.28746 0.53369 0.74723
 H1629 H 0.25863 0.53339 0.71235
 H1630 H 0.27117 0.55365 0.70226
 C1631 C 0.29525 1.10450 0.17877
 C1632 C 0.28849 1.09238 0.18394
 C1633 C 0.29414 1.08499 0.19525
 C1634 C 0.30675 1.08985 0.20138
 C1635 C 0.31355 1.10199 0.19621
 C1636 C 0.30788 1.10949 0.18483
 N1637 N 0.28677 1.07273 0.20035
 N1638 N 0.29119 1.06550 0.21066
 C1639 C 0.28359 1.05339 0.21579
 C1640 C 0.28869 1.04628 0.22754
 C1641 C 0.28120 1.03478 0.23315
 C1642 C 0.26846 1.03019 0.22705
 C1643 C 0.26350 1.03718 0.21508
 C1644 C 0.27099 1.04869 0.20951
 H1645 H 0.29047 1.10992 0.17004
 H1646 H 0.27875 1.08875 0.17915
 H1647 H 0.31132 1.08431 0.21016
 H1648 H 0.32324 1.10542 0.20117
 H1649 H 0.29839 1.04978 0.23247
 H1650 H 0.28531 1.02963 0.24237
 H1651 H 0.25373 1.03392 0.21014
 H1652 H 0.26683 1.05400 0.20039
 C1653 C 0.79828 0.60308 0.17863
 C1654 C 0.79214 0.59056 0.18361
 C1655 C 0.79673 0.58454 0.19609
 C1656 C 0.80776 0.59109 0.20352
 C1657 C 0.81393 0.60366 0.19855
 C1658 C 0.80916 0.60989 0.18610
 N1659 N 0.78970 0.57205 0.20115
 N1660 N 0.79333 0.56586 0.21235
 C1661 C 0.78590 0.55364 0.21750
 C1662 C 0.79048 0.54726 0.22983
 C1663 C 0.78306 0.53576 0.23549
 C1664 C 0.77085 0.53046 0.22889
 C1665 C 0.76641 0.53674 0.21637
 C1666 C 0.77387 0.54823 0.21071
 H1667 H 0.79442 0.60739 0.16893
 H1668 H 0.78367 0.58558 0.17778
 H1669 H 0.81148 0.58664 0.21323
 H1670 H 0.82223 0.60859 0.20462
 H1671 H 0.79973 0.55135 0.23517
 H1672 H 0.78677 0.53117 0.24515
 H1673 H 0.75706 0.53291 0.21102
 H1674 H 0.77010 0.55298 0.20115
 C1675 C 0.79550 1.10586 0.68021
 C1676 C 0.78874 1.09370 0.68530
 C1677 C 0.79420 1.08645 0.69679
 C1678 C 0.80665 1.09145 0.70314
 C1679 C 0.81344 1.10362 0.69806
 C1680 C 0.80790 1.11103 0.68658
 N1681 N 0.78675 1.07427 0.70196
 N1682 N 0.79111 1.06723 0.71241
 C1683 C 0.78353 1.05523 0.71780
 C1684 C 0.78880 1.04832 0.72957
 C1685 C 0.78138 1.03697 0.73549
 C1686 C 0.76852 1.03232 0.72969
 C1687 C 0.76337 1.03911 0.71768
 C1688 C 0.77080 1.05049 0.71178
 H1689 H 0.79098 1.11114 0.67126
 H1690 H 0.77916 1.08994 0.68031
 H1691 H 0.81105 1.08605 0.71209
 H1692 H 0.82290 1.10730 0.70328
 H1693 H 0.79859 1.05188 0.73429
 H1694 H 0.78565 1.03198 0.74473
 H1695 H 0.75349 1.03577 0.71297
 H1696 H 0.76652 1.05566 0.70265
 C1697 C 0.70605 0.60303 0.32028
 C1698 C 0.71227 0.59091 0.31443
 C1699 C 0.70583 0.58392 0.30326
 C1700 C 0.69296 0.58916 0.29802
 C1701 C 0.68671 0.60126 0.30385
 C1702 C 0.69320 0.60841 0.31502
 N1703 N 0.71266 0.57173 0.29729
 N1704 N 0.70749 0.56517 0.28688
 C1705 C 0.71436 0.55313 0.28067
 C1706 C 0.70839 0.54703 0.26877
 C1707 C 0.71509 0.53567 0.26207
 C1708 C 0.72792 0.53015 0.26721
 C1709 C 0.73376 0.53612 0.27933
 C1710 C 0.72705 0.54753 0.28600
 H1711 H 0.71142 0.60823 0.32881
 H1712 H 0.72221 0.58699 0.31855
 H1713 H 0.68774 0.58394 0.28940
 H1714 H 0.67678 0.60494 0.29955
 H1715 H 0.69860 0.55124 0.26457
 H1716 H 0.71031 0.53132 0.25277
 H1717 H 0.74364 0.53214 0.28354
 H1718 H 0.73186 0.55206 0.29521
 C1719 C 0.70301 1.10584 0.82015
 C1720 C 0.70906 1.09339 0.81482
 C1721 C 0.70308 1.08658 0.80333
 C1722 C 0.69080 1.09229 0.79726
 C1723 C 0.68472 1.10474 0.80256
 C1724 C 0.69078 1.11182 0.81404
 N1725 N 0.70988 1.07416 0.79780
 N1726 N 0.70499 1.06756 0.78729
 C1727 C 0.71190 1.05538 0.78142
 C1728 C 0.70603 1.04904 0.76962
 C1729 C 0.71284 1.03762 0.76313
 C1730 C 0.72571 1.03231 0.76839
 C1731 C 0.73145 1.03851 0.78045
 C1732 C 0.72461 1.04997 0.78691
 H1733 H 0.70811 1.11072 0.82900
 H1734 H 0.71853 1.08910 0.81959
 H1735 H 0.68596 1.08720 0.78835
 H1736 H 0.67533 1.10876 0.79748
 H1737 H 0.69624 1.05311 0.76530
 H1738 H 0.70811 1.03309 0.75389
 H1739 H 0.74134 1.03467 0.78474
 H1740 H 0.72936 1.05470 0.79605
 C1741 C 0.20064 0.60182 0.81958
 C1742 C 0.20666 0.58964 0.81370
 C1743 C 0.20190 0.58450 0.80091
 C1744 C 0.19091 0.59168 0.79399
 C1745 C 0.18485 0.60391 0.79985
 C1746 C 0.18969 0.60916 0.81272
 N1747 N 0.20862 0.57216 0.79516
 N1748 N 0.20498 0.56667 0.78361
 C1749 C 0.21220 0.55448 0.77807
 C1750 C 0.20805 0.54898 0.76518
 C1751 C 0.21534 0.53749 0.75926
 C1752 C 0.22694 0.53131 0.76619
 C1753 C 0.23089 0.53670 0.77926
 C1754 C 0.22360 0.54815 0.78515
 H1755 H 0.20461 0.60538 0.82952
 H1756 H 0.21512 0.58419 0.81913
 H1757 H 0.18708 0.58791 0.78404
 H1758 H 0.17651 0.60927 0.79422
 H1759 H 0.19928 0.55375 0.75961
 H1760 H 0.21204 0.53360 0.74917
 H1761 H 0.23975 0.53219 0.78489
 H1762 H 0.22702 0.55217 0.79514
 C1763 C 0.20354 1.10319 0.31792
 C1764 C 0.20962 1.09106 0.31195
 C1765 C 0.20332 1.08451 0.30047
 C1766 C 0.19075 1.09021 0.29499
 C1767 C 0.18463 1.10233 0.30095
 C1768 C 0.19095 1.10901 0.31249
 N1769 N 0.20998 1.07223 0.29450
 N1770 N 0.20495 1.06590 0.28389
 C1771 C 0.21172 1.05375 0.27780
 C1772 C 0.20597 1.04780 0.26573
 C1773 C 0.21262 1.03629 0.25920
 C1774 C 0.22517 1.03049 0.26469
 C1775 C 0.23078 1.03633 0.27698
 C1776 C 0.22414 1.04787 0.28347
 H1777 H 0.20879 1.10798 0.32674
 H1778 H 0.21934 1.08679 0.31625
 H1779 H 0.18567 1.08533 0.28611
 H1780 H 0.17495 1.10639 0.29646
 H1781 H 0.19640 1.05222 0.26127
 H1782 H 0.20801 1.03204 0.24977
 H1783 H 0.24044 1.03213 0.28147
 H1784 H 0.22878 1.05227 0.29281
 C1785 C 0.68385 0.39384 0.70296
 C1786 C 0.68949 0.40604 0.70912
 C1787 C 0.69970 0.41414 0.70218
 C1788 C 0.70417 0.40995 0.68886
 C1789 C 0.69852 0.39773 0.68266
 C1790 C 0.68831 0.38947 0.68966
 N1791 N 0.70548 0.42636 0.70902
 N1792 N 0.71509 0.43405 0.70357
 C1793 C 0.72097 0.44608 0.71068
 C1794 C 0.73208 0.45360 0.70447
 C1795 C 0.73850 0.46496 0.71142
 C1796 C 0.73384 0.46905 0.72473
 C1797 C 0.72246 0.46167 0.73082
 C1798 C 0.71609 0.45027 0.72388
 H1799 H 0.67609 0.38782 0.70876
 H1800 H 0.68599 0.40915 0.71940
 H1801 H 0.71206 0.41606 0.68328
 H1802 H 0.70218 0.39480 0.67240
 H1803 H 0.73592 0.45048 0.69430
 H1804 H 0.74722 0.47044 0.70642
 H1805 H 0.71863 0.46453 0.74106
 H1806 H 0.70749 0.44464 0.72890
 C1807 C 0.70313 -0.10534 0.18203
 C1808 C 0.70926 -0.09295 0.18735
 C1809 C 0.70263 -0.08537 0.19802
 C1810 C 0.68964 -0.09028 0.20333
 C1811 C 0.68348 -0.10271 0.19803
 C1812 C 0.69018 -0.11042 0.18734
 N1813 N 0.70948 -0.07296 0.20347
 N1814 N 0.70408 -0.06553 0.21319
 C1815 C 0.71115 -0.05334 0.21885
 C1816 C 0.70476 -0.04594 0.22978
 C1817 C 0.71167 -0.03445 0.23604
 C1818 C 0.72516 -0.03015 0.23142
 C1819 C 0.73144 -0.03742 0.22022
 C1820 C 0.72451 -0.04893 0.21398
 H1821 H 0.70870 -0.11098 0.17391
 H1822 H 0.71930 -0.08930 0.18321
 H1823 H 0.68430 -0.08460 0.21160
 H1824 H 0.67347 -0.10621 0.20232
 H1825 H 0.69448 -0.04923 0.23361
 H1826 H 0.70652 -0.02907 0.24462
 H1827 H 0.74181 -0.03438 0.21642
 H1828 H 0.72966 -0.05449 0.20552
 C1829 C 0.18011 0.39519 0.20315
 C1830 C 0.18558 0.40730 0.20967
 C1831 C 0.19692 0.41473 0.20378
 C1832 C 0.20272 0.40995 0.19116
 C1833 C 0.19727 0.39784 0.18461
 C1834 C 0.18592 0.39027 0.19054
 N1835 N 0.20250 0.42689 0.21091
 N1836 N 0.21296 0.43392 0.20615
 C1837 C 0.21888 0.44591 0.21325
 C1838 C 0.23079 0.45255 0.20757
 C1839 C 0.23729 0.46387 0.21448
 C1840 C 0.23192 0.46881 0.22724
 C1841 C 0.21975 0.46233 0.23281
 C1842 C 0.21329 0.45093 0.22589
 H1843 H 0.17131 0.38977 0.20802
 H1844 H 0.18101 0.41088 0.21940
 H1845 H 0.21153 0.41550 0.18640
 H1846 H 0.20208 0.39439 0.17498
 H1847 H 0.23518 0.44879 0.19783
 H1848 H 0.24662 0.46865 0.20987
 H1849 H 0.21538 0.46587 0.24263
 H1850 H 0.20405 0.44596 0.23049
 C1851 C 0.18113 -0.10362 0.69955
 C1852 C 0.18730 -0.09156 0.70550
 C1853 C 0.19962 -0.08568 0.69985
 C1854 C 0.20572 -0.09196 0.68802
 C1855 C 0.19955 -0.10404 0.68202
 C1856 C 0.18720 -0.11006 0.68776
 N1857 N 0.20577 -0.07350 0.70647
 N1858 N 0.21706 -0.06757 0.70213
 C1859 C 0.22307 -0.05553 0.70916
 C1860 C 0.23576 -0.04966 0.70426
 C1861 C 0.24212 -0.03825 0.71125
 C1862 C 0.23585 -0.03254 0.72330
 C1863 C 0.22298 -0.03834 0.72803
 C1864 C 0.21666 -0.04971 0.72105
 H1865 H 0.17157 -0.10782 0.70420
 H1866 H 0.18249 -0.08680 0.71461
 H1867 H 0.21528 -0.08761 0.68348
 H1868 H 0.20459 -0.10872 0.67302
 H1869 H 0.24081 -0.05404 0.69510
 H1870 H 0.25204 -0.03404 0.70735
 H1871 H 0.21785 -0.03420 0.73726
 H1872 H 0.20684 -0.05403 0.72505
 C1873 C 0.31977 0.29664 0.39805
 C1874 C 0.31453 0.29006 0.41001
 C1875 C 0.30271 0.29560 0.41689
 C1876 C 0.29618 0.30796 0.41170
 C1877 C 0.30142 0.31458 0.39970
 C1878 C 0.31328 0.30897 0.39269
 N1879 N 0.29750 0.28828 0.42893
 N1880 N 0.28669 0.29247 0.43572
 C1881 C 0.28149 0.28484 0.44758
 C1882 C 0.26936 0.28982 0.45440
 C1883 C 0.26372 0.28234 0.46569
 C1884 C 0.27016 0.26971 0.47040
 C1885 C 0.28248 0.26485 0.46366
 C1886 C 0.28809 0.27233 0.45235
 H1887 H 0.32881 0.29186 0.39296
 H1888 H 0.31963 0.28052 0.41387
 H1889 H 0.28701 0.31245 0.41686
 H1890 H 0.29617 0.32407 0.39597
 H1891 H 0.26417 0.29943 0.45084
 H1892 H 0.25423 0.28639 0.47063
 H1893 H 0.28768 0.25516 0.46701
 H1894 H 0.29749 0.26825 0.44727
 C1895 C 0.31708 0.79713 -0.10153
 C1896 C 0.31154 0.79150 -0.08923
 C1897 C 0.29996 0.79796 -0.08271
 C1898 C 0.29398 0.81026 -0.08860
 C1899 C 0.29950 0.81591 -0.10090
 C1900 C 0.31109 0.80939 -0.10757
 N1901 N 0.29431 0.79165 -0.07034
 N1902 N 0.28375 0.79693 -0.06392
 C1903 C 0.27790 0.79039 -0.05176
 C1904 C 0.26591 0.79645 -0.04557
 C1905 C 0.25947 0.78991 -0.03415
 C1906 C 0.26497 0.77715 -0.02870
 C1907 C 0.27722 0.77127 -0.03475
 C1908 C 0.28363 0.77781 -0.04618
 H1909 H 0.32607 0.79185 -0.10624
 H1910 H 0.31625 0.78201 -0.08479
 H1911 H 0.28498 0.81543 -0.08377
 H1912 H 0.29453 0.82529 -0.10523
 H1913 H 0.26141 0.80615 -0.04977
 H1914 H 0.25006 0.79472 -0.02974
 H1915 H 0.28172 0.76145 -0.03081
 H1916 H 0.29291 0.77293 -0.05077
 C1917 C 0.81843 0.29937 -0.10111
 C1918 C 0.81291 0.29335 -0.08899
 C1919 C 0.80054 0.29875 -0.08301
 C1920 C 0.79369 0.31039 -0.08927
 C1921 C 0.79920 0.31645 -0.10142
 C1922 C 0.81164 0.31098 -0.10753
 N1923 N 0.79508 0.29202 -0.07076
 N1924 N 0.78379 0.29612 -0.06473
 C1925 C 0.77843 0.28899 -0.05264
 C1926 C 0.76565 0.29358 -0.04676
 C1927 C 0.75983 0.28641 -0.03535
 C1928 C 0.76675 0.27450 -0.02963
 C1929 C 0.77974 0.27012 -0.03539
 C1930 C 0.78552 0.27728 -0.04679
 H1931 H 0.82794 0.29474 -0.10546
 H1932 H 0.81825 0.28435 -0.08428
 H1933 H 0.78409 0.31475 -0.08482
 H1934 H 0.79369 0.32540 -0.10597
 H1935 H 0.76008 0.30259 -0.05116
 H1936 H 0.74981 0.29006 -0.03117
 H1937 H 0.78535 0.26100 -0.03124
 H1938 H 0.79543 0.27353 -0.05112
 C1939 C 0.79715 0.81731 0.39683
 C1940 C 0.79126 0.81169 0.40898
 C1941 C 0.79822 0.80090 0.41629
 C1942 C 0.81123 0.79573 0.41130
 C1943 C 0.81716 0.80135 0.39915
 C1944 C 0.81020 0.81223 0.39174
 N1945 N 0.79171 0.79527 0.42857
 N1946 N 0.79724 0.78523 0.43561
 C1947 C 0.79051 0.77952 0.44775
 C1948 C 0.79670 0.76788 0.45449
 C1949 C 0.79006 0.76162 0.46595
 C1950 C 0.77709 0.76698 0.47093
 C1951 C 0.77105 0.77889 0.46433
 C1952 C 0.77769 0.78509 0.45283
 H1953 H 0.79136 0.82555 0.39143
 H1954 H 0.78119 0.81572 0.41268
 H1955 H 0.81682 0.78736 0.41677
 H1956 H 0.82723 0.79717 0.39564
 H1957 H 0.80658 0.76349 0.45068
 H1958 H 0.79498 0.75245 0.47079
 H1959 H 0.76106 0.78325 0.46787
 H1960 H 0.77270 0.79411 0.44781
 C1961 C 0.68239 0.29467 0.60450
 C1962 C 0.68813 0.28836 0.59260
 C1963 C 0.69865 0.29533 0.58495
 C1964 C 0.70339 0.30878 0.58934
 C1965 C 0.69766 0.31511 0.60125
 C1966 C 0.68708 0.30813 0.60899
 N1967 N 0.70442 0.28844 0.57292
 N1968 N 0.71408 0.29410 0.56553
 C1969 C 0.71999 0.28708 0.55363
 C1970 C 0.73102 0.29369 0.54638
 C1971 C 0.73742 0.28689 0.53507
 C1972 C 0.73284 0.27333 0.53078
 C1973 C 0.72154 0.26684 0.53792
 C1974 C 0.71518 0.27364 0.54926
 H1975 H 0.67438 0.28887 0.61020
 H1976 H 0.68443 0.27796 0.58936
 H1977 H 0.71152 0.31439 0.58360
 H1978 H 0.70149 0.32551 0.60429
 H1979 H 0.73481 0.30405 0.54963
 H1980 H 0.74608 0.29219 0.52980
 H1981 H 0.71777 0.25639 0.53490
 H1982 H 0.70664 0.26832 0.55468
 C1983 C 0.68196 0.79504 1.10353
 C1984 C 0.68747 0.78927 1.09126
 C1985 C 0.69806 0.79644 1.08389
 C1986 C 0.70299 0.80962 1.08883
 C1987 C 0.69748 0.81541 1.10107
 C1988 C 0.68697 0.80815 1.10865
 N1989 N 0.70389 0.78999 1.07166
 N1990 N 0.71387 0.79579 1.06480
 C1991 C 0.72003 0.78923 1.05278
 C1992 C 0.73152 0.79588 1.04629
 C1993 C 0.73829 0.78941 1.03501
 C1994 C 0.73360 0.77615 1.02999
 C1995 C 0.72183 0.76966 1.03634
 C1996 C 0.71511 0.77612 1.04765
 H1997 H 0.67394 0.78908 1.10907
 H1998 H 0.68361 0.77909 1.08758
 H1999 H 0.71115 0.81540 1.08329
 H2000 H 0.70153 0.82558 1.10454
 H2001 H 0.73540 0.80598 1.05015
 H2002 H 0.74732 0.79470 1.03035
 H2003 H 0.71797 0.75945 1.03274
 H2004 H 0.70622 0.77078 1.05249
 C2005 C 0.20126 0.31945 1.10201
 C2006 C 0.20743 0.31409 1.08986
 C2007 C 0.20244 0.30147 1.08388
 C2008 C 0.19111 0.29423 1.09019
 C2009 C 0.18495 0.29955 1.10234
 C2010 C 0.18997 0.31220 1.10844
 N2011 N 0.20920 0.29610 1.07160
 N2012 N 0.20500 0.28479 1.06556
 C2013 C 0.21189 0.27917 1.05347
 C2014 C 0.20674 0.26658 1.04756
 C2015 C 0.21356 0.26043 1.03614
 C2016 C 0.22572 0.26680 1.03041
 C2017 C 0.23072 0.27961 1.03621
 C2018 C 0.22387 0.28574 1.04764
 H2019 H 0.20548 0.32915 1.10642
 H2020 H 0.21619 0.31975 1.08513
 H2021 H 0.18705 0.28445 1.08577
 H2022 H 0.17621 0.29374 1.10688
 H2023 H 0.19751 0.26141 1.05196
 H2024 H 0.20944 0.25056 1.03193
 H2025 H 0.24006 0.28479 1.03207
 H2026 H 0.22806 0.29549 1.05202
 C2027 C 0.18175 0.79375 0.60554
 C2028 C 0.18665 0.78766 0.59320
 C2029 C 0.19682 0.79465 0.58515
 C2030 C 0.20202 0.80794 0.58953
 C2031 C 0.19711 0.81407 0.60188
 C2032 C 0.18694 0.80702 0.61007
 N2033 N 0.20188 0.78788 0.57278
 N2034 N 0.21126 0.79354 0.56507
 C2035 C 0.21661 0.78659 0.55291
 C2036 C 0.22756 0.79308 0.54546
 C2037 C 0.23366 0.78621 0.53406
 C2038 C 0.22884 0.77269 0.52987
 C2039 C 0.21755 0.76636 0.53713
 C2040 C 0.21150 0.77324 0.54859
 H2041 H 0.17382 0.78805 0.61144
 H2042 H 0.18257 0.77742 0.58993
 H2043 H 0.20993 0.81353 0.58349
 H2044 H 0.20141 0.82424 0.60505
 H2045 H 0.23157 0.80337 0.54868
 H2046 H 0.24231 0.79140 0.52867
 H2047 H 0.21362 0.75596 0.53418
 H2048 H 0.20300 0.76802 0.55418
 C2049 C 0.31772 0.70778 0.60409
 C2050 C 0.31230 0.71438 0.59222
 C2051 C 0.30206 0.70757 0.58413
 C2052 C 0.29725 0.69398 0.58804
 C2053 C 0.30266 0.68735 0.59991
 C2054 C 0.31298 0.69417 0.60809
 N2055 N 0.29659 0.71475 0.57216
 N2056 N 0.28709 0.70923 0.56448
 C2057 C 0.28140 0.71646 0.55264
 C2058 C 0.27041 0.71002 0.54523
 C2059 C 0.26412 0.71702 0.53402
 C2060 C 0.26880 0.73062 0.52997
 C2061 C 0.28009 0.73695 0.53723
 C2062 C 0.28633 0.72994 0.54850
 H2063 H 0.32553 0.71346 0.61016
 H2064 H 0.31604 0.72488 0.58936
 H2065 H 0.28931 0.68849 0.58194
 H2066 H 0.29881 0.67685 0.60258
 H2067 H 0.26654 0.69962 0.54831
 H2068 H 0.25548 0.71182 0.52863
 H2069 H 0.28391 0.74742 0.53437
 H2070 H 0.29485 0.73512 0.55407
 C2071 C 0.31870 0.20679 1.10398
 C2072 C 0.31319 0.21324 1.09204
 C2073 C 0.30298 0.20624 1.08401
 C2074 C 0.29838 0.19262 1.08802
 C2075 C 0.30386 0.18618 1.09994
 C2076 C 0.31405 0.19319 1.10812
 N2077 N 0.29727 0.21323 1.07201
 N2078 N 0.28778 0.20741 1.06453
 C2079 C 0.28169 0.21426 1.05266
 C2080 C 0.27078 0.20735 1.04552
 C2081 C 0.26410 0.21394 1.03428
 C2082 C 0.26829 0.22761 1.02994
 C2083 C 0.27949 0.23441 1.03694
 C2084 C 0.28612 0.22781 1.04823
 H2085 H 0.32646 0.21257 1.11003
 H2086 H 0.31680 0.22376 1.08908
 H2087 H 0.29051 0.18697 1.08198
 H2088 H 0.30011 0.17566 1.10264
 H2089 H 0.26728 0.19690 1.04882
 H2090 H 0.25553 0.20840 1.02911
 H2091 H 0.28294 0.24495 1.03386
 H2092 H 0.29456 0.23335 1.05359
 C2093 C 0.79766 0.68443 1.10281
 C2094 C 0.79177 0.68993 1.09063
 C2095 C 0.79793 0.70164 1.08401
 C2096 C 0.81022 0.70778 1.08967
 C2097 C 0.81615 0.70228 1.10186
 C2098 C 0.80990 0.69058 1.10864
 N2099 N 0.79133 0.70724 1.07177
 N2100 N 0.79627 0.71796 1.06529
 C2101 C 0.78944 0.72372 1.05324
 C2102 C 0.79516 0.73585 1.04696
 C2103 C 0.78839 0.74217 1.03561
 C2104 C 0.77574 0.73640 1.03032
 C2105 C 0.77016 0.72403 1.03648
 C2106 C 0.77694 0.71774 1.04785
 H2107 H 0.79261 0.67533 1.10759
 H2108 H 0.78230 0.68510 1.08636
 H2109 H 0.81516 0.71688 1.08475
 H2110 H 0.82550 0.70736 1.10604
 H2111 H 0.80479 0.74055 1.05101
 H2112 H 0.79297 0.75168 1.03110
 H2113 H 0.76044 0.71933 1.03267
 H2114 H 0.77231 0.70835 1.05253
 C2115 C 0.79844 0.18597 0.60461
 C2116 C 0.79243 0.19133 0.59245
 C2117 C 0.79912 0.20221 0.58504
 C2118 C 0.81206 0.20769 0.58990
 C2119 C 0.81815 0.20229 0.60207
 C2120 C 0.81137 0.19140 0.60960
 N2121 N 0.79241 0.20757 0.57278
 N2122 N 0.79744 0.21783 0.56568
 C2123 C 0.79029 0.22306 0.55357
 C2124 C 0.79555 0.23515 0.54681
 C2125 C 0.78835 0.24091 0.53542
 C2126 C 0.77577 0.23460 0.53057
 C2127 C 0.77073 0.22225 0.53718
 C2128 C 0.77790 0.21654 0.54858
 H2129 H 0.79298 0.17748 0.60999
 H2130 H 0.78246 0.18702 0.58879
 H2131 H 0.81742 0.21614 0.58435
 H2132 H 0.82806 0.20676 0.60564
 H2133 H 0.80510 0.24026 0.55054
 H2134 H 0.79251 0.25044 0.53056
 H2135 H 0.76108 0.21712 0.53372
 H2136 H 0.77364 0.20714 0.55358
 C2137 C 0.68411 0.70460 0.39820
 C2138 C 0.68965 0.71091 0.41019
 C2139 C 0.70073 0.70440 0.41746
 C2140 C 0.70617 0.69138 0.41263
 C2141 C 0.70064 0.68505 0.40066
 C2142 C 0.68956 0.69159 0.39323
 N2143 N 0.70643 0.71132 0.42950
 N2144 N 0.71666 0.70600 0.43640
 C2145 C 0.72266 0.71294 0.44828
 C2146 C 0.73427 0.70666 0.45489
 C2147 C 0.74082 0.71342 0.46612
 C2148 C 0.73580 0.72662 0.47099
 C2149 C 0.72394 0.73279 0.46449
 C2150 C 0.71744 0.72603 0.45321
 H2151 H 0.67560 0.71001 0.39284
 H2152 H 0.68537 0.72095 0.41379
 H2153 H 0.71474 0.68611 0.41806
 H2154 H 0.70516 0.67506 0.39726
 H2155 H 0.73839 0.69658 0.45119
 H2156 H 0.74992 0.70837 0.47089
 H2157 H 0.71983 0.74296 0.46796
 H2158 H 0.70845 0.73109 0.44827
 C2159 C 0.67968 0.20334 -0.10084
 C2160 C 0.68497 0.20949 -0.08869
 C2161 C 0.69736 0.20429 -0.08258
 C2162 C 0.70443 0.19272 -0.08873
 C2163 C 0.69916 0.18654 -0.10090
 C2164 C 0.68673 0.19181 -0.10715
 N2165 N 0.70264 0.21116 -0.07035
 N2166 N 0.71392 0.20716 -0.06426
 C2167 C 0.71922 0.21439 -0.05222
 C2168 C 0.73199 0.20987 -0.04631
 C2169 C 0.73780 0.21716 -0.03500
 C2170 C 0.73087 0.22913 -0.02938
 C2171 C 0.71788 0.23345 -0.03517
 C2172 C 0.71211 0.22616 -0.04648
 H2173 H 0.67017 0.20780 -0.10533
 H2174 H 0.67946 0.21843 -0.08407
 H2175 H 0.71405 0.18851 -0.08418
 H2176 H 0.70484 0.17764 -0.10536
 H2177 H 0.73757 0.20081 -0.05064
 H2178 H 0.74781 0.21356 -0.03079
 H2179 H 0.71227 0.24262 -0.03110
 H2180 H 0.70220 0.22986 -0.05085
 C2181 C 0.20413 0.68507 -0.10247
 C2182 C 0.21020 0.69082 -0.09048
 C2183 C 0.20318 0.70145 -0.08298
 C2184 C 0.18990 0.70627 -0.08759
 C2185 C 0.18379 0.70052 -0.09957
 C2186 C 0.19083 0.68984 -0.10719
 N2187 N 0.20983 0.70726 -0.07086
 N2188 N 0.20417 0.71718 -0.06375
 C2189 C 0.21094 0.72314 -0.05176
 C2190 C 0.20451 0.73463 -0.04497
 C2191 C 0.21112 0.74112 -0.03362
 C2192 C 0.22430 0.73616 -0.02882
 C2193 C 0.23059 0.72440 -0.03548
 C2194 C 0.22399 0.71797 -0.04687
 H2195 H 0.20996 0.67697 -0.10806
 H2196 H 0.22047 0.68705 -0.08706
 H2197 H 0.18424 0.71448 -0.08195
 H2198 H 0.17352 0.70442 -0.10277
 H2199 H 0.19444 0.73870 -0.04863
 H2200 H 0.20598 0.75014 -0.02872
 H2201 H 0.24074 0.72034 -0.03206
 H2202 H 0.22916 0.70907 -0.05193
 C2203 C 0.18326 0.20330 0.39774
 C2204 C 0.18865 0.20943 0.40985
 C2205 C 0.19943 0.20269 0.41730
 C2206 C 0.20480 0.18961 0.41251
 C2207 C 0.19940 0.18343 0.40039
 C2208 C 0.18856 0.19020 0.39284
 N2209 N 0.20485 0.20947 0.42951
 N2210 N 0.21491 0.20416 0.43662
 C2211 C 0.22046 0.21118 0.44866
 C2212 C 0.23225 0.20532 0.45534
 C2213 C 0.23845 0.21232 0.46662
 C2214 C 0.23287 0.22531 0.47146
 C2215 C 0.22077 0.23097 0.46497
 C2216 C 0.21464 0.22399 0.45363
 H2217 H 0.17502 0.20895 0.39223
 H2218 H 0.18447 0.21954 0.41341
 H2219 H 0.21316 0.18419 0.41811
 H2220 H 0.20372 0.17333 0.39703
 H2221 H 0.23682 0.19545 0.45162
 H2222 H 0.24774 0.20767 0.47141
 H2223 H 0.21624 0.24096 0.46843
 H2224 H 0.20549 0.22871 0.44866
 C2225 C 0.30050 0.39913 0.67988
 C2226 C 0.29479 0.41182 0.68494
 C2227 C 0.29906 0.41722 0.69780
 C2228 C 0.30938 0.40988 0.70552
 C2229 C 0.31514 0.39714 0.70045
 C2230 C 0.31062 0.39153 0.68764
 N2231 N 0.29233 0.42985 0.70291
 N2232 N 0.29549 0.43547 0.71454
 C2233 C 0.28822 0.44782 0.71964
 C2234 C 0.29206 0.45347 0.73254
 C2235 C 0.28462 0.46500 0.73816
 C2236 C 0.27315 0.47106 0.73094
 C2237 C 0.26951 0.46555 0.71783
 C2238 C 0.27698 0.45404 0.71222
 H2239 H 0.29691 0.39529 0.66989
 H2240 H 0.28687 0.41740 0.67889
 H2241 H 0.31283 0.41386 0.71552
 H2242 H 0.32287 0.39156 0.70671
 H2243 H 0.30069 0.44877 0.73837
 H2244 H 0.28769 0.46898 0.74828
 H2245 H 0.26075 0.46998 0.71199
 H2246 H 0.27380 0.44987 0.70221
 C2247 C 0.31727 0.89442 0.20363
 C2248 C 0.31141 0.90651 0.20988
 C2249 C 0.30087 0.91434 0.20313
 C2250 C 0.29622 0.90996 0.18993
 C2251 C 0.30206 0.89787 0.18366
 C2252 C 0.31265 0.88992 0.19043
 N2253 N 0.29494 0.92655 0.20993
 N2254 N 0.28519 0.93401 0.20442
 C2255 C 0.27910 0.94610 0.21129
 C2256 C 0.26799 0.95340 0.20484
 C2257 C 0.26144 0.96491 0.21147
 C2258 C 0.26596 0.96935 0.22470
 C2259 C 0.27731 0.96215 0.23106
 C2260 C 0.28382 0.95061 0.22443
 H2261 H 0.32531 0.88857 0.20924
 H2262 H 0.31505 0.90976 0.22008
 H2263 H 0.28808 0.91584 0.18448
 H2264 H 0.29829 0.89486 0.17346
 H2265 H 0.26428 0.95004 0.19471
 H2266 H 0.25274 0.97023 0.20628
 H2267 H 0.28104 0.96528 0.24125
 H2268 H 0.29241 0.94515 0.22962
 C2269 C 0.81777 0.39433 0.20320
 C2270 C 0.81262 0.40680 0.20930
 C2271 C 0.80186 0.41463 0.20288
 C2272 C 0.79636 0.40991 0.19012
 C2273 C 0.80151 0.39743 0.18399
 C2274 C 0.81223 0.38942 0.19049
 N2275 N 0.79647 0.42706 0.20971
 N2276 N 0.78653 0.43453 0.20455
 C2277 C 0.78086 0.44673 0.21157
 C2278 C 0.76954 0.45407 0.20552
 C2279 C 0.76323 0.46553 0.21243
 C2280 C 0.76819 0.46988 0.22554
 C2281 C 0.77980 0.46270 0.23144
 C2282 C 0.78607 0.45121 0.22453
 H2283 H 0.82598 0.38850 0.20859
 H2284 H 0.81692 0.41032 0.21916
 H2285 H 0.78803 0.41579 0.18494
 H2286 H 0.79702 0.39410 0.17418
 H2287 H 0.76544 0.45072 0.19553
 H2288 H 0.75433 0.47084 0.20758
 H2289 H 0.78387 0.46578 0.24152
 H2290 H 0.79485 0.44572 0.22941
 C2291 C 0.81663 0.89725 0.70388
 C2292 C 0.81105 0.90939 0.71024
 C2293 C 0.80006 0.91699 0.70396
 C2294 C 0.79465 0.91230 0.69114
 C2295 C 0.80022 0.90013 0.68476
 C2296 C 0.81128 0.89244 0.69106
 N2297 N 0.79446 0.92925 0.71092
 N2298 N 0.78441 0.93665 0.70587
 C2299 C 0.77867 0.94873 0.71302
 C2300 C 0.76727 0.95603 0.70708
 C2301 C 0.76099 0.96746 0.71406
 C2302 C 0.76605 0.97181 0.72714
 C2303 C 0.77771 0.96463 0.73296
 C2304 C 0.78396 0.95317 0.72597
 H2305 H 0.82502 0.89157 0.70917
 H2306 H 0.81526 0.91287 0.72014
 H2307 H 0.78613 0.91801 0.68608
 H2308 H 0.79588 0.89682 0.67487
 H2309 H 0.76312 0.95271 0.69711
 H2310 H 0.75205 0.97277 0.70927
 H2311 H 0.78185 0.96771 0.74301
 H2312 H 0.79278 0.94769 0.73077
 C2313 C 0.70615 0.60496 0.68023
 C2314 C 0.71283 0.59283 0.68546
 C2315 C 0.70683 0.58520 0.69644
 C2316 C 0.69396 0.58987 0.70221
 C2317 C 0.68722 0.60204 0.69699
 C2318 C 0.69323 0.60975 0.68590
 N2319 N 0.71413 0.57290 0.70157
 N2320 N 0.70944 0.56543 0.71159
 C2321 C 0.71695 0.55325 0.71672
 C2322 C 0.71150 0.54588 0.72816
 C2323 C 0.71882 0.53428 0.73375
 C2324 C 0.73178 0.52981 0.72795
 C2325 C 0.73712 0.53709 0.71630
 C2326 C 0.72979 0.54872 0.71074
 H2327 H 0.71123 0.61059 0.67179
 H2328 H 0.72278 0.58937 0.68096
 H2329 H 0.68911 0.58415 0.71074
 H2330 H 0.67730 0.60532 0.70161
 H2331 H 0.70162 0.54925 0.73286
 H2332 H 0.71440 0.52892 0.74272
 H2333 H 0.74707 0.53394 0.71160
 H2334 H 0.73422 0.55423 0.70187
 C2335 C 0.67945 0.10401 0.20044
 C2336 C 0.68421 0.09149 0.20672
 C2337 C 0.69641 0.08467 0.20189
 C2338 C 0.70375 0.09040 0.19047
 C2339 C 0.69899 0.10294 0.18414
 C2340 C 0.68685 0.10998 0.18916
 N2341 N 0.70130 0.07226 0.20907
 N2342 N 0.71238 0.06550 0.20543
 C2343 C 0.71737 0.05337 0.21301
 C2344 C 0.72974 0.04654 0.20859
 C2345 C 0.73531 0.03514 0.21616
 C2346 C 0.72856 0.03037 0.22835
 C2347 C 0.71597 0.03708 0.23262
 C2348 C 0.71042 0.04848 0.22503
 H2349 H 0.66996 0.10895 0.20449
 H2350 H 0.67845 0.08716 0.21549
 H2351 H 0.71324 0.08530 0.18656
 H2352 H 0.70497 0.10725 0.17552
 H2353 H 0.73520 0.05021 0.19936
 H2354 H 0.74502 0.03020 0.21257
 H2355 H 0.71051 0.03366 0.24195
 H2356 H 0.70082 0.05359 0.22867
 C2357 C 0.18243 0.60291 0.20172
 C2358 C 0.18814 0.59078 0.20800
 C2359 C 0.19990 0.58393 0.20221
 C2360 C 0.20592 0.58933 0.18995
 C2361 C 0.20022 0.60146 0.18363
 C2362 C 0.18840 0.60844 0.18944
 N2363 N 0.20555 0.57165 0.20907
 N2364 N 0.21635 0.56494 0.20457
 C2365 C 0.22194 0.55278 0.21171
 C2366 C 0.23422 0.54620 0.20666
 C2367 C 0.24022 0.53465 0.21373
 C2368 C 0.23396 0.52947 0.22600
 C2369 C 0.22147 0.53595 0.23089
 C2370 C 0.21553 0.54749 0.22384
 H2371 H 0.17338 0.60792 0.20658
 H2372 H 0.18342 0.58673 0.21747
 H2373 H 0.21503 0.58421 0.18527
 H2374 H 0.20513 0.60530 0.17420
 H2375 H 0.23926 0.55016 0.19731
 H2376 H 0.24983 0.52989 0.20969
 H2377 H 0.21637 0.53225 0.24030
 H2378 H 0.20601 0.55236 0.22796
 C2379 C 0.18339 0.10254 0.70205
 C2380 C 0.18905 0.09033 0.70823
 C2381 C 0.20020 0.08298 0.70191
 C2382 C 0.20565 0.08796 0.68922
 C2383 C 0.20000 0.10018 0.68300
 C2384 C 0.18879 0.10766 0.68935
 N2385 N 0.20589 0.07066 0.70871
 N2386 N 0.21624 0.06362 0.70372
 C2387 C 0.22208 0.05146 0.71066
 C2388 C 0.23395 0.04476 0.70492
 C2389 C 0.24032 0.03327 0.71170
 C2390 C 0.23486 0.02820 0.72438
 C2391 C 0.22273 0.03476 0.72999
 C2392 C 0.21641 0.04631 0.72321
 H2393 H 0.17484 0.10796 0.70736
 H2394 H 0.18478 0.08662 0.71803
 H2395 H 0.21430 0.08246 0.68412
 H2396 H 0.20443 0.10370 0.67323
 H2397 H 0.23841 0.04861 0.69525
 H2398 H 0.24963 0.02845 0.70708
 H2399 H 0.21828 0.03114 0.73975
 H2400 H 0.20720 0.05130 0.72785
 C2401 C 0.29452 0.60601 0.31423
 C2402 C 0.28825 0.59396 0.30844
 C2403 C 0.29573 0.58546 0.29906
 C2404 C 0.30965 0.58925 0.29536
 C2405 C 0.31597 0.60137 0.30117
 C2406 C 0.30850 0.60983 0.31076
 N2407 N 0.28886 0.57314 0.29348
 N2408 N 0.29480 0.56483 0.28480
 C2409 C 0.28759 0.55264 0.27931
 C2410 C 0.29424 0.54449 0.26905
 C2411 C 0.28723 0.53291 0.26304
 C2412 C 0.27343 0.52925 0.26728
 C2413 C 0.26691 0.53726 0.27784
 C2414 C 0.27391 0.54888 0.28379
 H2415 H 0.28831 0.61235 0.32138
 H2416 H 0.27749 0.59119 0.31129
 H2417 H 0.31563 0.58283 0.28808
 H2418 H 0.32676 0.60396 0.29830
 H2419 H 0.30479 0.54725 0.26553
 H2420 H 0.29257 0.52695 0.25494
 H2421 H 0.25628 0.53473 0.28131
 H2422 H 0.26855 0.55499 0.29175
 C2423 C 0.31891 0.10396 0.79495
 C2424 C 0.31409 0.09188 0.78791
 C2425 C 0.30325 0.08354 0.79351
 C2426 C 0.29722 0.08741 0.80633
 C2427 C 0.30203 0.09949 0.81340
 C2428 C 0.31296 0.10793 0.80781
 N2429 N 0.29849 0.07133 0.78590
 N2430 N 0.28857 0.06334 0.79032
 C2431 C 0.28364 0.05126 0.78263
 C2432 C 0.27220 0.04346 0.78784
 C2433 C 0.26668 0.03200 0.78035
 C2434 C 0.27258 0.02808 0.76746
 C2435 C 0.28428 0.03574 0.76237
 C2436 C 0.28976 0.04726 0.76987
 H2437 H 0.32724 0.11018 0.79020
 H2438 H 0.31879 0.08904 0.77802
 H2439 H 0.28879 0.08112 0.81087
 H2440 H 0.29721 0.10213 0.82327
 H2441 H 0.26741 0.04643 0.79766
 H2442 H 0.25768 0.02632 0.78458
 H2443 H 0.28904 0.03301 0.75248
 H2444 H 0.29864 0.05313 0.76564
 C2445 C 0.79554 0.60264 0.81818
 C2446 C 0.78951 0.59043 0.81236
 C2447 C 0.79623 0.58336 0.80141
 C2448 C 0.80917 0.58860 0.79632
 C2449 C 0.81524 0.60081 0.80214
 C2450 C 0.80848 0.60801 0.81313
 N2451 N 0.78957 0.57106 0.79551
 N2452 N 0.79495 0.56430 0.78533
 C2453 C 0.78814 0.55217 0.77928
 C2454 C 0.79425 0.54579 0.76758
 C2455 C 0.78753 0.53438 0.76099
 C2456 C 0.77458 0.52910 0.76607
 C2457 C 0.76863 0.53532 0.77802
 C2458 C 0.77533 0.54678 0.78456
 H2459 H 0.78994 0.60789 0.82654
 H2460 H 0.77950 0.58652 0.81634
 H2461 H 0.81458 0.58330 0.78785
 H2462 H 0.82523 0.60452 0.79801
 H2463 H 0.80412 0.54984 0.76343
 H2464 H 0.79241 0.52981 0.75183
 H2465 H 0.75866 0.53151 0.78218
 H2466 H 0.77042 0.55152 0.79362
 C2467 C 0.81745 0.10409 0.29665
 C2468 C 0.81202 0.09201 0.29003
 C2469 C 0.80078 0.08442 0.29592
 C2470 C 0.79505 0.08901 0.30864
 C2471 C 0.80047 0.10107 0.31528
 C2472 C 0.81172 0.10882 0.30936
 N2473 N 0.79522 0.07230 0.28870
 N2474 N 0.78477 0.06522 0.29341
 C2475 C 0.77889 0.05325 0.28623
 C2476 C 0.76693 0.04660 0.29182
 C2477 C 0.76048 0.03529 0.28484
 C2478 C 0.76595 0.03037 0.27211
 C2479 C 0.77816 0.03688 0.26664
 C2480 C 0.78457 0.04826 0.27362
 H2481 H 0.82607 0.10971 0.29169
 H2482 H 0.81652 0.08860 0.28021
 H2483 H 0.78635 0.08332 0.31342
 H2484 H 0.79579 0.10426 0.32505
 H2485 H 0.76247 0.05034 0.30154
 H2486 H 0.75112 0.03049 0.28937
 H2487 H 0.78262 0.03334 0.25686
 H2488 H 0.79384 0.05324 0.26911
 C2489 C 0.70199 0.39755 0.31679
 C2490 C 0.70799 0.40961 0.31071
 C2491 C 0.70197 0.41568 0.29886
 C2492 C 0.68975 0.40953 0.29308
 C2493 C 0.68369 0.39742 0.29916
 C2494 C 0.68976 0.39126 0.31111
 N2495 N 0.70866 0.42792 0.29293
 N2496 N 0.70407 0.43420 0.28211
 C2497 C 0.71131 0.44631 0.27645
 C2498 C 0.70627 0.45262 0.26423
 C2499 C 0.71349 0.46410 0.25824
 C2500 C 0.72590 0.46948 0.26442
 C2501 C 0.73079 0.46325 0.27681
 C2502 C 0.72358 0.45180 0.28277
 H2503 H 0.70708 0.39321 0.32590
 H2504 H 0.71744 0.41423 0.31523
 H2505 H 0.68492 0.41405 0.28388
 H2506 H 0.67429 0.39293 0.29448
 H2507 H 0.69683 0.44850 0.25927
 H2508 H 0.70947 0.46864 0.24868
 H2509 H 0.74030 0.46711 0.28184
 H2510 H 0.72770 0.44716 0.29223
 C2511 C 0.70348 0.89800 0.81893
 C2512 C 0.70941 0.91034 0.81327
 C2513 C 0.70307 0.91704 0.80189
 C2514 C 0.69061 0.91131 0.79623
 C2515 C 0.68465 0.89898 0.80187
 C2516 C 0.69104 0.89212 0.81328
 N2517 N 0.70963 0.92947 0.79616
 N2518 N 0.70461 0.93595 0.78564
 C2519 C 0.71142 0.94821 0.77984
 C2520 C 0.70576 0.95448 0.76787
 C2521 C 0.71255 0.96607 0.76161
 C2522 C 0.72513 0.97158 0.76728
 C2523 C 0.73061 0.96542 0.77947
 C2524 C 0.72384 0.95385 0.78568
 H2525 H 0.70878 0.89303 0.82763
 H2526 H 0.71904 0.91464 0.81770
 H2527 H 0.68550 0.91632 0.78742
 H2528 H 0.67504 0.89489 0.79726
 H2529 H 0.69618 0.95023 0.76327
 H2530 H 0.70805 0.97057 0.75223
 H2531 H 0.74028 0.96941 0.78411
 H2532 H 0.72842 0.94920 0.79495
 C2533 C 0.20173 0.39913 0.81858
 C2534 C 0.20785 0.41129 0.81279
 C2535 C 0.20295 0.41670 0.80015
 C2536 C 0.19175 0.40979 0.79330
 C2537 C 0.18560 0.39758 0.79909
 C2538 C 0.19055 0.39207 0.81180
 N2539 N 0.20972 0.42905 0.79451
 N2540 N 0.20595 0.43477 0.78311
 C2541 C 0.21313 0.44700 0.77764
 C2542 C 0.20876 0.45272 0.76492
 C2543 C 0.21592 0.46432 0.75910
 C2544 C 0.22761 0.47041 0.76596
 C2545 C 0.23182 0.46478 0.77885
 C2546 C 0.22466 0.45320 0.78464
 H2547 H 0.20582 0.39537 0.82841
 H2548 H 0.21648 0.41653 0.81816
 H2549 H 0.18781 0.41377 0.78348
 H2550 H 0.17707 0.39245 0.79351
 H2551 H 0.19989 0.44806 0.75942
 H2552 H 0.21242 0.46840 0.74915
 H2553 H 0.24078 0.46921 0.78440
 H2554 H 0.22825 0.44899 0.79451
 C2555 C 0.19863 0.89841 0.31542
 C2556 C 0.20450 0.91050 0.30931
 C2557 C 0.19853 0.91634 0.29733
 C2558 C 0.18647 0.90996 0.29146
 C2559 C 0.18054 0.89779 0.29759
 C2560 C 0.18657 0.89186 0.30966
 N2561 N 0.20518 0.92858 0.29134
 N2562 N 0.20074 0.93469 0.28038
 C2563 C 0.20804 0.94678 0.27473
 C2564 C 0.20318 0.95296 0.26239
 C2565 C 0.21051 0.96439 0.25639
 C2566 C 0.22283 0.96980 0.26270
 C2567 C 0.22750 0.96372 0.27523
 C2568 C 0.22020 0.95234 0.28118
 H2569 H 0.20373 0.89417 0.32458
 H2570 H 0.21383 0.91530 0.31387
 H2571 H 0.18169 0.91432 0.28217
 H2572 H 0.17124 0.89310 0.29289
 H2573 H 0.19383 0.94880 0.25731
 H2574 H 0.20663 0.96883 0.24673
 H2575 H 0.23694 0.96763 0.28037
 H2576 H 0.22418 0.94779 0.29075
 C2577 C 0.39604 0.29678 0.67955
 C2578 C 0.40798 0.29002 0.68500
 C2579 C 0.41469 0.29539 0.69682
 C2580 C 0.40935 0.30776 0.70317
 C2581 C 0.39736 0.31456 0.69775
 C2582 C 0.39052 0.30912 0.68588
 N2583 N 0.42671 0.28791 0.70223
 N2584 N 0.43342 0.29209 0.71295
 C2585 C 0.44527 0.28433 0.71837
 C2586 C 0.45210 0.28940 0.73027
 C2587 C 0.46339 0.28183 0.73609
 C2588 C 0.46805 0.26899 0.73006
 C2589 C 0.46129 0.26402 0.71798
 C2590 C 0.45000 0.27161 0.71218
 H2591 H 0.39108 0.29216 0.67049
 H2592 H 0.41198 0.28047 0.68003
 H2593 H 0.41437 0.31212 0.71235
 H2594 H 0.39351 0.32406 0.70286
 H2595 H 0.44856 0.29918 0.73514
 H2596 H 0.46836 0.28595 0.74540
 H2597 H 0.46461 0.25418 0.71309
 H2598 H 0.44490 0.26746 0.70296
 C2599 C 0.39854 0.79551 0.18282
 C2600 C 0.41056 0.78922 0.18866
 C2601 C 0.41730 0.79549 0.20004
 C2602 C 0.41191 0.80826 0.20553
 C2603 C 0.39989 0.81458 0.19971
 C2604 C 0.39300 0.80827 0.18828
 N2605 N 0.42942 0.78857 0.20594
 N2606 N 0.43590 0.79358 0.21645
 C2607 C 0.44786 0.78656 0.22252
 C2608 C 0.45399 0.79239 0.23446
 C2609 C 0.46529 0.78553 0.24102
 C2610 C 0.47071 0.77268 0.23568
 C2611 C 0.46472 0.76698 0.22351
 C2612 C 0.45337 0.77385 0.21699
 H2613 H 0.39359 0.79025 0.17409
 H2614 H 0.41459 0.77936 0.18434
 H2615 H 0.41695 0.81332 0.21435
 H2616 H 0.39605 0.82441 0.20419
 H2617 H 0.44985 0.80218 0.23882
 H2618 H 0.46967 0.79021 0.25036
 H2619 H 0.46863 0.75710 0.21915
 H2620 H 0.44882 0.76914 0.20774
 C2621 C 0.89868 0.29777 0.17998
 C2622 C 0.91082 0.29146 0.18549
 C2623 C 0.91677 0.29657 0.19780
 C2624 C 0.91048 0.30822 0.20458
 C2625 C 0.89829 0.31457 0.19909
 C2626 C 0.89220 0.30937 0.18674
 N2627 N 0.92896 0.28949 0.20331
 N2628 N 0.93500 0.29342 0.21448
 C2629 C 0.94698 0.28594 0.21997
 C2630 C 0.95304 0.29058 0.23243
 C2631 C 0.96435 0.28312 0.23835
 C2632 C 0.96977 0.27084 0.23186
 C2633 C 0.96381 0.26635 0.21921
 C2634 C 0.95252 0.27382 0.21331
 H2635 H 0.89431 0.29336 0.17054
 H2636 H 0.91556 0.28245 0.18021
 H2637 H 0.91490 0.31236 0.21414
 H2638 H 0.89369 0.32352 0.20454
 H2639 H 0.94887 0.29990 0.23765
 H2640 H 0.96870 0.28686 0.24809
 H2641 H 0.96774 0.25694 0.21394
 H2642 H 0.94802 0.27001 0.20365
 C2643 C 0.89466 0.81515 0.70413
 C2644 C 0.90653 0.80918 0.71054
 C2645 C 0.91450 0.79873 0.70378
 C2646 C 0.91046 0.79425 0.69042
 C2647 C 0.89858 0.80022 0.68396
 C2648 C 0.89053 0.81077 0.69074
 N2649 N 0.92650 0.79280 0.71079
 N2650 N 0.93415 0.78306 0.70545
 C2651 C 0.94603 0.77711 0.71267
 C2652 C 0.95353 0.76591 0.70654
 C2653 C 0.96484 0.75952 0.71353
 C2654 C 0.96889 0.76429 0.72681
 C2655 C 0.96149 0.77574 0.73284
 C2656 C 0.95014 0.78208 0.72585
 H2657 H 0.88872 0.82310 0.70979
 H2658 H 0.90950 0.81268 0.72087
 H2659 H 0.91648 0.78616 0.68498
 H2660 H 0.89579 0.79662 0.67364
 H2661 H 0.95048 0.76200 0.69638
 H2662 H 0.97034 0.75075 0.70858
 H2663 H 0.96432 0.77965 0.74306
 H2664 H 0.94451 0.79075 0.73081
 C2665 C 0.60600 0.29463 0.31843
 C2666 C 0.59396 0.28821 0.31275
 C2667 C 0.58628 0.29500 0.30226
 C2668 C 0.59077 0.30840 0.29747
 C2669 C 0.60282 0.31484 0.30312
 C2670 C 0.61060 0.30803 0.31367
 N2671 N 0.57410 0.28802 0.29654
 N2672 N 0.56671 0.29362 0.28692
 C2673 C 0.55464 0.28662 0.28102
 C2674 C 0.54737 0.29329 0.27016
 C2675 C 0.53585 0.28658 0.26381
 C2676 C 0.53137 0.27304 0.26826
 C2677 C 0.53856 0.26645 0.27933
 C2678 C 0.55012 0.27317 0.28565
 H2679 H 0.61174 0.28898 0.32644
 H2680 H 0.59064 0.27786 0.31650
 H2681 H 0.58500 0.31389 0.28935
 H2682 H 0.60592 0.32519 0.29925
 H2683 H 0.55075 0.30365 0.26650
 H2684 H 0.53056 0.29196 0.25532
 H2685 H 0.53540 0.25602 0.28299
 H2686 H 0.55557 0.26781 0.29405
 C2687 C 0.60624 0.81651 0.79621
 C2688 C 0.59409 0.81104 0.78986
 C2689 C 0.58542 0.80138 0.79691
 C2690 C 0.58898 0.79727 0.81051
 C2691 C 0.60112 0.80273 0.81688
 C2692 C 0.60993 0.81238 0.80979
 N2693 N 0.57327 0.79569 0.78996
 N2694 N 0.56519 0.78659 0.79572
 C2695 C 0.55320 0.78058 0.78875
 C2696 C 0.54540 0.76997 0.79546
 C2697 C 0.53411 0.76331 0.78871
 C2698 C 0.53038 0.76725 0.77509
 C2699 C 0.53801 0.77818 0.76849
 C2700 C 0.54937 0.78478 0.77524
 H2701 H 0.61278 0.82382 0.79036
 H2702 H 0.59149 0.81425 0.77935
 H2703 H 0.58243 0.78981 0.81619
 H2704 H 0.60351 0.79939 0.82737
 H2705 H 0.54825 0.76667 0.80588
 H2706 H 0.52841 0.75496 0.79410
 H2707 H 0.53542 0.78144 0.75800
 H2708 H 0.55524 0.79300 0.76985
 C2709 C 0.10427 0.29766 0.81697
 C2710 C 0.09221 0.29161 0.81095
 C2711 C 0.08534 0.29838 0.79991
 C2712 C 0.09066 0.31140 0.79494
 C2713 C 0.10272 0.31747 0.80095
 C2714 C 0.10971 0.31068 0.81204
 N2715 N 0.07313 0.29177 0.79386
 N2716 N 0.06651 0.29727 0.78366
 C2717 C 0.05441 0.29057 0.77749
 C2718 C 0.04806 0.29695 0.76593
 C2719 C 0.03654 0.29046 0.75935
 C2720 C 0.03114 0.27745 0.76428
 C2721 C 0.03740 0.27118 0.77605
 C2722 C 0.04895 0.27766 0.78259
 H2723 H 0.10933 0.29203 0.82542
 H2724 H 0.08824 0.28156 0.81486
 H2725 H 0.08553 0.31686 0.78641
 H2726 H 0.10647 0.32752 0.79688
 H2727 H 0.05216 0.30690 0.76191
 H2728 H 0.03196 0.29558 0.75032
 H2729 H 0.03352 0.26115 0.78010
 H2730 H 0.05367 0.27253 0.79153
 C2731 C 0.10360 0.79545 0.32124
 C2732 C 0.09125 0.78898 0.31633
 C2733 C 0.08449 0.79412 0.30443
 C2734 C 0.09018 0.80599 0.29750
 C2735 C 0.10256 0.81248 0.30238
 C2736 C 0.10950 0.80725 0.31428
 N2737 N 0.07212 0.78690 0.29946
 N2738 N 0.06535 0.79105 0.28876
 C2739 C 0.05321 0.78359 0.28359
 C2740 C 0.04641 0.78874 0.27171
 C2741 C 0.03494 0.78138 0.26598
 C2742 C 0.03006 0.76867 0.27207
 C2743 C 0.03675 0.76365 0.28418
 C2744 C 0.04822 0.77104 0.28990
 H2745 H 0.10850 0.79110 0.33046
 H2746 H 0.08697 0.77984 0.32177
 H2747 H 0.08515 0.81016 0.28824
 H2748 H 0.10671 0.82151 0.29672
 H2749 H 0.05014 0.79839 0.26675
 H2750 H 0.03004 0.78555 0.25666
 H2751 H 0.03325 0.75390 0.28913
 H2752 H 0.05330 0.76684 0.29911
 C2753 C 0.60251 0.70043 0.68347
 C2754 C 0.59041 0.70623 0.68960
 C2755 C 0.58503 0.70061 0.70195
 C2756 C 0.59190 0.68896 0.70817
 C2757 C 0.60407 0.68312 0.70204
 C2758 C 0.60956 0.68881 0.68960
 N2759 N 0.57273 0.70712 0.70794
 N2760 N 0.56699 0.70283 0.71915
 C2761 C 0.55479 0.70988 0.72483
 C2762 C 0.54897 0.70506 0.73737
 C2763 C 0.53739 0.71210 0.74336
 C2764 C 0.53144 0.72413 0.73687
 C2765 C 0.53719 0.72879 0.72417
 C2766 C 0.54873 0.72175 0.71821
 H2767 H 0.60627 0.70516 0.67392
 H2768 H 0.58521 0.71522 0.68472
 H2769 H 0.58793 0.68444 0.71776
 H2770 H 0.60915 0.67420 0.70711
 H2771 H 0.55352 0.69592 0.74258
 H2772 H 0.53322 0.70826 0.75315
 H2773 H 0.53287 0.73801 0.71888
 H2774 H 0.55299 0.72571 0.70851
 C2775 C 0.60208 0.18239 0.19954
 C2776 C 0.58953 0.18747 0.20542
 C2777 C 0.58342 0.20011 0.20065
 C2778 C 0.58991 0.20759 0.18972
 C2779 C 0.60248 0.20253 0.18383
 C2780 C 0.60880 0.18993 0.18875
 N2781 N 0.57096 0.20536 0.20741
 N2782 N 0.56485 0.21681 0.20366
 C2783 C 0.55270 0.22224 0.21084
 C2784 C 0.54665 0.23506 0.20640
 C2785 C 0.53536 0.24111 0.21373
 C2786 C 0.52995 0.23440 0.22567
 C2787 C 0.53583 0.22134 0.22990
 C2788 C 0.54711 0.21531 0.22256
 H2789 H 0.60650 0.17259 0.20354
 H2790 H 0.58462 0.18162 0.21384
 H2791 H 0.58538 0.21742 0.18588
 H2792 H 0.60731 0.20867 0.17558
 H2793 H 0.55088 0.24050 0.19738
 H2794 H 0.53106 0.25117 0.21020
 H2795 H 0.53189 0.21588 0.23903
 H2796 H 0.55159 0.20537 0.22620
 C2797 C 0.10371 0.70403 0.18203
 C2798 C 0.09163 0.71033 0.18777
 C2799 C 0.08438 0.70372 0.19868
 C2800 C 0.08935 0.69062 0.20380
 C2801 C 0.10142 0.68429 0.19807
 C2802 C 0.10879 0.69092 0.18711
 N2803 N 0.07218 0.71059 0.20448
 N2804 N 0.06530 0.70525 0.21460
 C2805 C 0.05322 0.71216 0.22061
 C2806 C 0.04673 0.70598 0.23219
 C2807 C 0.03531 0.71270 0.23870
 C2808 C 0.03012 0.72576 0.23367
 C2809 C 0.03647 0.73182 0.22184
 C2810 C 0.04795 0.72510 0.21537
 H2811 H 0.10906 0.70954 0.17368
 H2812 H 0.08793 0.72044 0.18376
 H2813 H 0.08393 0.68529 0.21224
 H2814 H 0.10490 0.67419 0.20224
 H2815 H 0.05069 0.69600 0.23631
 H2816 H 0.03065 0.70773 0.24778
 H2817 H 0.03274 0.74188 0.21772
 H2818 H 0.05278 0.73008 0.20640
 C2819 C 0.10357 0.18395 0.70202
 C2820 C 0.09147 0.18988 0.70810
 C2821 C 0.08418 0.20093 0.70150
 C2822 C 0.08909 0.20599 0.68863
 C2823 C 0.10118 0.20006 0.68252
 C2824 C 0.10861 0.18897 0.68915
 N2825 N 0.07201 0.20696 0.70820
 N2826 N 0.06507 0.21727 0.70296
 C2827 C 0.05307 0.22345 0.70984
 C2828 C 0.04648 0.23531 0.70388
 C2829 C 0.03518 0.24202 0.71064
 C2830 C 0.03022 0.23690 0.72349
 C2831 C 0.03668 0.22478 0.72931
 C2832 C 0.04802 0.21813 0.72256
 H2833 H 0.10897 0.17552 0.70753
 H2834 H 0.08782 0.18593 0.71805
 H2835 H 0.08362 0.21454 0.68332
 H2836 H 0.10464 0.20420 0.67260
 H2837 H 0.05027 0.23950 0.69407
 H2838 H 0.03045 0.25132 0.70587
 H2839 H 0.03314 0.22059 0.73920
 H2840 H 0.05292 0.20894 0.72737
 C2841 C 0.39502 0.70413 0.32112
 C2842 C 0.40719 0.71065 0.31588
 C2843 C 0.41458 0.70461 0.30476
 C2844 C 0.40962 0.69187 0.29885
 C2845 C 0.39741 0.68529 0.30409
 C2846 C 0.38995 0.69133 0.31532
 N2847 N 0.42694 0.71176 0.29966
 N2848 N 0.43426 0.70704 0.28954
 C2849 C 0.44648 0.71448 0.28448
 C2850 C 0.45368 0.70913 0.27289
 C2851 C 0.46529 0.71646 0.26736
 C2852 C 0.46994 0.72929 0.27340
 C2853 C 0.46283 0.73450 0.28521
 C2854 C 0.45121 0.72718 0.29070
 H2855 H 0.38961 0.70923 0.32968
 H2856 H 0.41087 0.72051 0.32049
 H2857 H 0.41515 0.68700 0.29020
 H2858 H 0.39391 0.67547 0.29934
 H2859 H 0.45016 0.69936 0.26801
 H2860 H 0.47050 0.71216 0.25825
 H2861 H 0.46611 0.74435 0.29009
 H2862 H 0.44584 0.73152 0.29970
 C2863 C 0.39492 0.20445 0.82072
 C2864 C 0.40704 0.21090 0.81517
 C2865 C 0.41458 0.20433 0.80441
 C2866 C 0.40992 0.19113 0.79930
 C2867 C 0.39785 0.18468 0.80482
 C2868 C 0.39012 0.19128 0.81556
 N2869 N 0.42673 0.21133 0.79864
 N2870 N 0.43363 0.20592 0.78856
 C2871 C 0.44563 0.21276 0.78238
 C2872 C 0.45196 0.20642 0.77078
 C2873 C 0.46325 0.21308 0.76401
 C2874 C 0.46848 0.22621 0.76882
 C2875 C 0.46230 0.23241 0.78068
 C2876 C 0.45093 0.22576 0.78739
 H2877 H 0.38925 0.20991 0.82892
 H2878 H 0.41050 0.22109 0.81919
 H2879 H 0.41557 0.18580 0.79099
 H2880 H 0.39465 0.17450 0.80062
 H2881 H 0.44797 0.19640 0.76683
 H2882 H 0.46779 0.20800 0.75493
 H2883 H 0.46607 0.24253 0.78462
 H2884 H 0.44621 0.23085 0.79637
 C2885 C 0.89610 0.70088 0.81829
 C2886 C 0.90837 0.70664 0.81245
 C2887 C 0.91464 0.70032 0.80083
 C2888 C 0.90852 0.68805 0.79506
 C2889 C 0.89623 0.68224 0.80090
 C2890 C 0.88983 0.68860 0.81259
 N2891 N 0.92706 0.70674 0.79504
 N2892 N 0.93336 0.70182 0.78437
 C2893 C 0.94563 0.70867 0.77870
 C2894 C 0.95177 0.70330 0.76653
 C2895 C 0.96335 0.71021 0.76042
 C2896 C 0.96897 0.72264 0.76645
 C2897 C 0.96296 0.72781 0.77884
 C2898 C 0.95141 0.72091 0.78490
 H2899 H 0.89156 0.70616 0.82723
 H2900 H 0.91299 0.71614 0.81697
 H2901 H 0.91318 0.68298 0.78605
 H2902 H 0.89180 0.67278 0.79620
 H2903 H 0.94743 0.69387 0.76165
 H2904 H 0.96773 0.70597 0.75087
 H2905 H 0.96703 0.73733 0.78377
 H2906 H 0.94690 0.72527 0.79434
 C2907 C 0.89647 0.20351 0.32053
 C2908 C 0.90873 0.20970 0.31505
 C2909 C 0.91532 0.20383 0.30335
 C2910 C 0.90953 0.19160 0.29718
 C2911 C 0.89728 0.18539 0.30264
 C2912 C 0.89055 0.19128 0.31437
 N2913 N 0.92769 0.21061 0.29783
 N2914 N 0.93405 0.20591 0.28710
 C2915 C 0.94627 0.21283 0.28139
 C2916 C 0.95229 0.20744 0.26919
 C2917 C 0.96381 0.21431 0.26299
 C2918 C 0.96954 0.22671 0.26896
 C2919 C 0.96365 0.23193 0.28139
 C2920 C 0.95210 0.22507 0.28755
 H2921 H 0.89165 0.20842 0.32953
 H2922 H 0.91308 0.21915 0.31989
 H2923 H 0.91443 0.18685 0.28811
 H2924 H 0.89315 0.17598 0.29760
 H2925 H 0.94789 0.19801 0.26435
 H2926 H 0.96810 0.21001 0.25342
 H2927 H 0.96780 0.24145 0.28625
 H2928 H 0.94765 0.22942 0.29702
 C2929 C 0.29426 0.31812 0.60407
 C2930 C 0.28811 0.31298 0.59185
 C2931 C 0.29492 0.30249 0.58399
 C2932 C 0.30810 0.29724 0.58843
 C2933 C 0.31427 0.30236 0.60064
 C2934 C 0.30741 0.31282 0.60867
 N2935 N 0.28811 0.29710 0.57179
 N2936 N 0.29380 0.28753 0.56426
 C2937 C 0.28693 0.28171 0.55228
 C2938 C 0.29366 0.27078 0.54495
 C2939 C 0.28692 0.26420 0.53375
 C2940 C 0.27326 0.26850 0.52966
 C2941 C 0.26667 0.27977 0.53681
 C2942 C 0.27343 0.28632 0.54805
 H2943 H 0.28865 0.32623 0.60986
 H2944 H 0.27794 0.31711 0.58854
 H2945 H 0.31357 0.28909 0.58255
 H2946 H 0.32435 0.29795 0.60380
 H2947 H 0.30407 0.26716 0.54811
 H2948 H 0.29231 0.25558 0.52845
 H2949 H 0.25616 0.28332 0.53391
 H2950 H 0.26802 0.29478 0.55356
 C2951 C 0.31656 0.79667 0.10397
 C2952 C 0.31061 0.79078 0.09199
 C2953 C 0.29981 0.79791 0.08490
 C2954 C 0.29499 0.81110 0.08993
 C2955 C 0.30094 0.81702 0.10192
 C2956 C 0.31181 0.80987 0.10911
 N2957 N 0.29386 0.79143 0.07276
 N2958 N 0.28381 0.79711 0.06591
 C2959 C 0.27783 0.79040 0.05389
 C2960 C 0.26620 0.79675 0.04735
 C2961 C 0.25972 0.79014 0.03599
 C2962 C 0.26484 0.77705 0.03093
 C2963 C 0.27673 0.77086 0.03734
 C2964 C 0.28315 0.77745 0.04873
 H2965 H 0.32480 0.79075 0.10922
 H2966 H 0.31438 0.78058 0.08824
 H2967 H 0.28664 0.81682 0.08461
 H2968 H 0.29704 0.82723 0.10546
 H2969 H 0.26201 0.80674 0.05121
 H2970 H 0.25059 0.79519 0.03128
 H2971 H 0.28093 0.76078 0.03372
 H2972 H 0.29216 0.77235 0.05359
 C2973 C 0.81836 0.29992 0.10106
 C2974 C 0.81275 0.29393 0.08899
 C2975 C 0.80045 0.29947 0.08303
 C2976 C 0.79377 0.31123 0.08925
 C2977 C 0.79938 0.31728 0.10137
 C2978 C 0.81175 0.31167 0.10744
 N2979 N 0.79492 0.29271 0.07085
 N2980 N 0.78367 0.29684 0.06479
 C2981 C 0.77832 0.28960 0.05278
 C2982 C 0.76557 0.29414 0.04684
 C2983 C 0.75976 0.28683 0.03553
 C2984 C 0.76666 0.27482 0.02996
 C2985 C 0.77961 0.27048 0.03577
 C2986 C 0.78539 0.27777 0.04708
 H2987 H 0.82779 0.29515 0.10540
 H2988 H 0.81795 0.28482 0.08432
 H2989 H 0.78421 0.31570 0.08481
 H2990 H 0.79402 0.32634 0.10592
 H2991 H 0.76002 0.30324 0.05113
 H2992 H 0.74976 0.29046 0.03129
 H2993 H 0.78520 0.26128 0.03174
 H2994 H 0.79528 0.27405 0.05146
 C2995 C 0.79777 0.81892 0.60398
 C2996 C 0.79184 0.81340 0.59181
 C2997 C 0.79814 0.80185 0.58501
 C2998 C 0.81057 0.79588 0.59052
 C2999 C 0.81653 0.80137 0.60270
 C3000 C 0.81019 0.81296 0.60964
 N3001 N 0.79158 0.79627 0.57273
 N3002 N 0.79671 0.78571 0.56611
 C3003 C 0.79003 0.77991 0.55399
 C3004 C 0.79603 0.76796 0.54761
 C3005 C 0.78946 0.76163 0.53615
 C3006 C 0.77672 0.76719 0.53084
 C3007 C 0.77086 0.77939 0.53711
 C3008 C 0.77744 0.78569 0.54860
 H3009 H 0.79255 0.82783 0.60892
 H3010 H 0.78224 0.81810 0.58768
 H3011 H 0.81564 0.78691 0.58548
 H3012 H 0.82604 0.79643 0.60667
 H3013 H 0.80573 0.76341 0.55167
 H3014 H 0.79426 0.75225 0.53158
 H3015 H 0.76105 0.78392 0.53330
 H3016 H 0.77259 0.79494 0.55335
 C3017 C 0.29313 0.68272 0.39661
 C3018 C 0.28655 0.68810 0.40851
 C3019 C 0.29337 0.69826 0.41673
 C3020 C 0.30695 0.70301 0.41294
 C3021 C 0.31356 0.69764 0.40104
 C3022 C 0.30673 0.68742 0.39272
 N3023 N 0.28618 0.70372 0.42871
 N3024 N 0.29167 0.71320 0.43646
 C3025 C 0.28441 0.71888 0.44829
 C3026 C 0.29073 0.72995 0.45574
 C3027 C 0.28366 0.73626 0.46691
 C3028 C 0.27011 0.73151 0.47087
 C3029 C 0.26391 0.72013 0.46358
 C3030 C 0.27098 0.71388 0.45235
 H3031 H 0.28743 0.67499 0.39044
 H3032 H 0.27605 0.68441 0.41129
 H3033 H 0.31244 0.71088 0.41915
 H3034 H 0.32405 0.70145 0.39846
 H3035 H 0.30108 0.73387 0.45273
 H3036 H 0.28875 0.74497 0.47234
 H3037 H 0.25348 0.71626 0.46636
 H3038 H 0.26589 0.70529 0.44674
 C3039 C 0.29292 0.17901 0.89671
 C3040 C 0.28629 0.18425 0.90867
 C3041 C 0.29239 0.19539 0.91625
 C3042 C 0.30529 0.20123 0.91174
 C3043 C 0.31194 0.19600 0.89980
 C3044 C 0.30583 0.18484 0.89208
 N3045 N 0.28520 0.20068 0.92833
 N3046 N 0.29007 0.21097 0.93549
 C3047 C 0.28286 0.21647 0.94745
 C3048 C 0.28855 0.22829 0.95432
 C3049 C 0.28151 0.23431 0.96568
 C3050 C 0.26862 0.22855 0.97041
 C3051 C 0.26307 0.21649 0.96366
 C3052 C 0.27011 0.21051 0.95226
 H3053 H 0.28781 0.17047 0.89108
 H3054 H 0.27633 0.17967 0.91202
 H3055 H 0.31023 0.20985 0.91742
 H3056 H 0.32188 0.20075 0.89669
 H3057 H 0.29838 0.23296 0.95072
 H3058 H 0.28609 0.24358 0.97064
 H3059 H 0.25316 0.21181 0.96703
 H3060 H 0.26551 0.20135 0.94713
 C3061 C 0.79633 0.68400 0.89808
 C3062 C 0.79040 0.68991 0.91007
 C3063 C 0.79734 0.70087 0.91715
 C3064 C 0.81039 0.70588 0.91213
 C3065 C 0.81636 0.69997 0.90013
 C3066 C 0.80940 0.68895 0.89293
 N3067 N 0.79079 0.70681 0.92926
 N3068 N 0.79626 0.71706 0.93605
 C3069 C 0.78946 0.72304 0.94802
 C3070 C 0.79550 0.73493 0.95447
 C3071 C 0.78875 0.74142 0.96577
 C3072 C 0.77584 0.73603 0.97084
 C3073 C 0.76997 0.72388 0.96452
 C3074 C 0.77670 0.71745 0.95320
 H3075 H 0.79056 0.67563 0.89284
 H3076 H 0.78031 0.68600 0.91382
 H3077 H 0.81596 0.71436 0.91744
 H3078 H 0.82646 0.70403 0.89659
 H3079 H 0.80534 0.73932 0.95058
 H3080 H 0.79356 0.75075 0.97040
 H3081 H 0.76004 0.71947 0.96816
 H3082 H 0.77183 0.70824 0.94842
 C3083 C 0.79525 0.18116 0.39765
 C3084 C 0.78902 0.18663 0.40973
 C3085 C 0.79547 0.19776 0.41702
 C3086 C 0.80833 0.20338 0.41211
 C3087 C 0.81457 0.19793 0.40005
 C3088 C 0.80811 0.18676 0.39263
 N3089 N 0.78868 0.20332 0.42920
 N3090 N 0.79391 0.21365 0.43607
 C3091 C 0.78713 0.21950 0.44811
 C3092 C 0.79313 0.23144 0.45449
 C3093 C 0.78646 0.23788 0.46584
 C3094 C 0.77365 0.23241 0.47107
 C3095 C 0.76781 0.22020 0.46484
 C3096 C 0.77446 0.21381 0.45343
 H3097 H 0.78988 0.17263 0.39226
 H3098 H 0.77909 0.18223 0.41339
 H3099 H 0.81354 0.21200 0.41755
 H3100 H 0.82448 0.20251 0.39663
 H3101 H 0.80290 0.23590 0.45051
 H3102 H 0.79126 0.24725 0.47041
 H3103 H 0.75794 0.21574 0.46860
 H3104 H 0.76964 0.20455 0.44868
 C3105 C 0.70507 0.31889 0.39765
 C3106 C 0.71156 0.31366 0.40964
 C3107 C 0.70542 0.30251 0.41712
 C3108 C 0.69259 0.29660 0.41249
 C3109 C 0.68605 0.30183 0.40049
 C3110 C 0.69222 0.31306 0.39289
 N3111 N 0.71256 0.29734 0.42923
 N3112 N 0.70785 0.28705 0.43649
 C3113 C 0.71532 0.28192 0.44845
 C3114 C 0.71006 0.27005 0.45556
 C3115 C 0.71746 0.26441 0.46688
 C3116 C 0.73026 0.27061 0.47129
 C3117 C 0.73535 0.28271 0.46430
 C3118 C 0.72797 0.28831 0.45297
 H3119 H 0.71027 0.32744 0.39212
 H3120 H 0.72147 0.31826 0.41309
 H3121 H 0.68764 0.28794 0.41812
 H3122 H 0.67616 0.29709 0.39723
 H3123 H 0.70033 0.26504 0.45219
 H3124 H 0.71325 0.25507 0.47204
 H3125 H 0.74518 0.28773 0.46741
 H3126 H 0.73224 0.29752 0.44765
 C3127 C 0.68326 0.79649 0.89681
 C3128 C 0.68887 0.79030 0.90882
 C3129 C 0.69949 0.79723 0.91636
 C3130 C 0.70442 0.81054 0.91177
 C3131 C 0.69882 0.81675 0.89978
 C3132 C 0.68818 0.80980 0.89211
 N3133 N 0.70522 0.79048 0.92847
 N3134 N 0.71507 0.79616 0.93559
 C3135 C 0.72106 0.78941 0.94757
 C3136 C 0.73239 0.79602 0.95435
 C3137 C 0.73893 0.78947 0.96569
 C3138 C 0.73418 0.77615 0.97050
 C3139 C 0.72259 0.76966 0.96384
 C3140 C 0.71610 0.77622 0.95245
 H3141 H 0.67516 0.79074 0.89119
 H3142 H 0.68501 0.78001 0.91222
 H3143 H 0.71263 0.81613 0.91743
 H3144 H 0.70284 0.82703 0.89661
 H3145 H 0.73630 0.80620 0.95069
 H3146 H 0.74782 0.79476 0.97058
 H3147 H 0.71870 0.75939 0.96727
 H3148 H 0.70733 0.77091 0.94739
 C3149 C 0.20384 0.31713 0.89700
 C3150 C 0.20993 0.31159 0.90907
 C3151 C 0.20324 0.30065 0.91640
 C3152 C 0.19027 0.29527 0.91153
 C3153 C 0.18414 0.30081 0.89945
 C3154 C 0.19085 0.31183 0.89202
 N3155 N 0.20995 0.29513 0.92861
 N3156 N 0.20468 0.28498 0.93569
 C3157 C 0.21164 0.27941 0.94776
 C3158 C 0.20578 0.26761 0.95452
 C3159 C 0.21268 0.26147 0.96589
 C3160 C 0.22557 0.26710 0.97074
 C3161 C 0.23125 0.27918 0.96413
 C3162 C 0.22437 0.28527 0.95272
 H3163 H 0.20944 0.32550 0.89160
 H3164 H 0.21996 0.31578 0.91269
 H3165 H 0.18490 0.28679 0.91703
 H3166 H 0.17412 0.29647 0.89603
 H3167 H 0.19597 0.26301 0.95081
 H3168 H 0.20801 0.25219 0.97075
 H3169 H 0.24117 0.28377 0.96760
 H3170 H 0.22909 0.29442 0.94770
 C3171 C 0.20417 0.82016 0.39632
 C3172 C 0.21060 0.81517 0.40846
 C3173 C 0.20464 0.80386 0.41586
 C3174 C 0.19209 0.79754 0.41099
 C3175 C 0.18567 0.80248 0.39883
 C3176 C 0.19164 0.81386 0.39134
 N3177 N 0.21166 0.79883 0.42811
 N3178 N 0.20663 0.78873 0.43541
 C3179 C 0.21372 0.78336 0.44747
 C3180 C 0.20761 0.77200 0.45469
 C3181 C 0.21454 0.76595 0.46605
 C3182 C 0.22776 0.77121 0.47044
 C3183 C 0.23373 0.78287 0.46338
 C3184 C 0.22678 0.78889 0.45196
 H3185 H 0.20918 0.82882 0.39077
 H3186 H 0.22030 0.82008 0.41206
 H3187 H 0.18728 0.78875 0.41654
 H3188 H 0.17598 0.79744 0.39537
 H3189 H 0.19754 0.76767 0.45133
 H3190 H 0.20962 0.75701 0.47128
 H3191 H 0.24391 0.78714 0.46648
 H3192 H 0.23171 0.79769 0.44653
 C3193 C 0.68326 0.70535 0.60314
 C3194 C 0.68900 0.71170 0.59125
 C3195 C 0.69974 0.70488 0.58374
 C3196 C 0.70464 0.69152 0.58821
 C3197 C 0.69892 0.68516 0.60008
 C3198 C 0.68820 0.69201 0.60775
 N3199 N 0.70565 0.71181 0.57179
 N3200 N 0.71569 0.70627 0.56479
 C3201 C 0.72187 0.71317 0.55298
 C3202 C 0.73337 0.70668 0.54632
 C3203 C 0.74008 0.71337 0.53514
 C3204 C 0.73534 0.72671 0.53037
 C3205 C 0.72358 0.73307 0.53689
 C3206 C 0.71692 0.72638 0.54812
 H3207 H 0.67509 0.71101 0.60876
 H3208 H 0.68515 0.72201 0.58792
 H3209 H 0.71292 0.68600 0.58257
 H3210 H 0.70292 0.67484 0.60315
 H3211 H 0.73727 0.69649 0.54996
 H3212 H 0.74908 0.70816 0.53034
 H3213 H 0.71968 0.74333 0.53348
 H3214 H 0.70802 0.73159 0.55309
 C3215 C 0.67948 0.20180 0.10077
 C3216 C 0.68472 0.20792 0.08859
 C3217 C 0.69742 0.20313 0.08277
 C3218 C 0.70481 0.19192 0.08919
 C3219 C 0.69956 0.18575 0.10140
 C3220 C 0.68688 0.19071 0.10741
 N3221 N 0.70270 0.21012 0.07059
 N3222 N 0.71426 0.20655 0.06473
 C3223 C 0.71954 0.21394 0.05277
 C3224 C 0.73245 0.20970 0.04694
 C3225 C 0.73821 0.21712 0.03567
 C3226 C 0.73111 0.22897 0.03003
 C3227 C 0.71800 0.23304 0.03575
 C3228 C 0.71227 0.22561 0.04701
 H3229 H 0.66960 0.20580 0.10494
 H3230 H 0.67892 0.21653 0.08372
 H3231 H 0.71468 0.18805 0.08489
 H3232 H 0.70559 0.17730 0.10624
 H3233 H 0.73817 0.20074 0.05128
 H3234 H 0.74832 0.21370 0.03152
 H3235 H 0.71226 0.24210 0.03166
 H3236 H 0.70226 0.22910 0.05133
 C3237 C 0.20380 0.68353 0.10350
 C3238 C 0.20994 0.68936 0.09157
 C3239 C 0.20304 0.70017 0.08421
 C3240 C 0.18981 0.70506 0.08889
 C3241 C 0.18363 0.69924 0.10080
 C3242 C 0.19056 0.68842 0.10830
 N3243 N 0.20976 0.70612 0.07219
 N3244 N 0.20418 0.71622 0.06528
 C3245 C 0.21095 0.72237 0.05339
 C3246 C 0.20457 0.73403 0.04685
 C3247 C 0.21118 0.74070 0.03560
 C3248 C 0.22432 0.73576 0.03066
 C3249 C 0.23057 0.72384 0.03707
 C3250 C 0.22396 0.71722 0.04836
 H3251 H 0.20952 0.67529 0.10899
 H3252 H 0.22017 0.68553 0.08809
 H3253 H 0.18424 0.71340 0.08336
 H3254 H 0.17341 0.70323 0.10404
 H3255 H 0.19453 0.73808 0.05063
 H3256 H 0.20608 0.74984 0.03089
 H3257 H 0.24069 0.71978 0.03354
 H3258 H 0.22909 0.70820 0.05323
 C3259 C 0.18302 0.20134 0.60293
 C3260 C 0.18883 0.20751 0.59101
 C3261 C 0.20088 0.20168 0.58477
 C3262 C 0.20712 0.18949 0.59061
 C3263 C 0.20132 0.18327 0.60256
 C3264 C 0.18918 0.18913 0.60891
 N3265 N 0.20654 0.20845 0.57263
 N3266 N 0.21752 0.20394 0.56631
 C3267 C 0.22302 0.21107 0.55427
 C3268 C 0.23543 0.20598 0.54802
 C3269 C 0.24129 0.21301 0.53655
 C3270 C 0.23477 0.22528 0.53110
 C3271 C 0.22218 0.23022 0.53727
 C3272 C 0.21636 0.22320 0.54874
 H3273 H 0.17371 0.20624 0.60740
 H3274 H 0.18393 0.21692 0.58662
 H3275 H 0.21648 0.18479 0.58598
 H3276 H 0.20640 0.17391 0.60679
 H3277 H 0.24067 0.19664 0.55217
 H3278 H 0.25100 0.20894 0.53205
 H3279 H 0.21689 0.23963 0.53336
 H3280 H 0.20674 0.22735 0.55334
   
