data_POSCAR
  _audit_creation_date              2014-09-24
  _audit_creation_method            'ToBaCCo'
  _symmetry_space_group_name_H-M    'P1'
  _symmetry_Int_Tables_number       1
  _symmetry_cell_setting            triclinic
  loop_
  _symmetry_equiv_pos_as_xyz
 x,y,z
_cell_length_a 38.9339
_cell_length_b 39.3558
_cell_length_c 45.4330
_cell_angle_alpha 89.876100
_cell_angle_beta 89.919500
_cell_angle_gamma 90.071600
loop_
  _atom_site_label
  _atom_site_type_symbol
  _atom_site_fract_x
  _atom_site_fract_y
  _atom_site_fract_z
B1 B 0.25852 0.23157 0.27382
 B2 B 0.21877 0.22171 0.26224
 B3 B 0.22778 0.26176 0.27252
 B4 B 0.26812 0.27097 0.26170
 B5 B 0.28415 0.23605 0.24430
 B6 B 0.25330 0.20516 0.24482
 B7 B 0.22839 0.25889 0.21320
 B8 B 0.26805 0.26894 0.22473
 B9 B 0.25929 0.22886 0.21449
 B10 B 0.21888 0.21952 0.22528
 B11 B 0.20284 0.25451 0.24268
 B12 B 0.23365 0.28533 0.24219
 B13 B 0.74659 0.77930 0.22423
 B14 B 0.73732 0.73882 0.23256
 B15 B 0.77799 0.74975 0.22473
 B16 B 0.78519 0.78880 0.23854
 B17 B 0.74824 0.80181 0.25553
 B18 B 0.71845 0.77044 0.25160
 B19 B 0.77172 0.74459 0.28366
 B20 B 0.78095 0.78533 0.27527
 B21 B 0.74035 0.77408 0.28322
 B22 B 0.73319 0.73506 0.26919
 B23 B 0.76996 0.72214 0.25235
 B24 B 0.79990 0.75355 0.25632
 B25 B 0.73314 0.23372 -0.22230
 B26 B 0.72235 0.27309 -0.23301
 B27 B 0.76281 0.26493 -0.22207
 B28 B 0.77366 0.22574 -0.23381
 B29 B 0.73901 0.20989 -0.25226
 B30 B 0.70715 0.23945 -0.25178
 B31 B 0.76167 0.26663 -0.28151
 B32 B 0.77252 0.22721 -0.27065
 B33 B 0.73212 0.23549 -0.28165
 B34 B 0.72139 0.27464 -0.27003
 B35 B 0.75562 0.29056 -0.25125
 B36 B 0.78773 0.26114 -0.25210
 B37 B 0.27141 0.75521 -0.27988
 B38 B 0.23050 0.76426 -0.27022
 B39 B 0.24107 0.72473 -0.28065
 B40 B 0.28082 0.71576 -0.26761
 B41 B 0.29479 0.75074 -0.24901
 B42 B 0.26341 0.78088 -0.25101
 B43 B 0.23715 0.72634 -0.22122
 B44 B 0.27779 0.71703 -0.23083
 B45 B 0.26767 0.75681 -0.22048
 B46 B 0.22810 0.76562 -0.23319
 B47 B 0.21384 0.73080 -0.25206
 B48 B 0.24493 0.70059 -0.25042
 B49 B 1.23595 1.27507 0.72432
 B50 B 1.22765 1.23431 0.73260
 B51 B 1.26748 1.24571 0.72249
 B52 B 1.27573 1.28451 0.73635
 B53 B 1.24032 1.29706 0.75572
 B54 B 1.21028 1.26563 0.75319
 B55 B 1.26609 1.23944 0.78165
 B56 B 1.27464 1.28031 0.77326
 B57 B 1.23472 1.26886 0.78343
 B58 B 1.22643 1.23000 0.76936
 B59 B 1.26182 1.21751 0.75022
 B60 B 1.29197 1.24893 0.75277
 B61 B 0.75521 0.73099 0.77121
 B62 B 0.71495 0.72394 0.75931
 B63 B 0.72658 0.76312 0.77020
 B64 B 0.76758 0.76993 0.75971
 B65 B 0.78125 0.73427 0.74195
 B66 B 0.74841 0.70553 0.74181
 B67 B 0.72751 0.76148 0.71084
 B68 B 0.76776 0.76852 0.72269
 B69 B 0.75620 0.72935 0.71185
 B70 B 0.71519 0.72253 0.72228
 B71 B 0.70147 0.75816 0.74015
 B72 B 0.73437 0.78693 0.74025
 B73 B 1.22495 0.74274 0.27571
 B74 B 1.21934 0.78329 0.26499
 B75 B 1.25875 0.76952 0.27414
 B76 B 1.26295 0.72903 0.26245
 B77 B 1.22529 0.71796 0.24563
 B78 B 1.19823 0.75189 0.24750
 B79 B 1.25436 0.77076 0.21489
 B80 B 1.25975 0.73008 0.22576
 B81 B 1.22046 0.74418 0.21629
 B82 B 1.21618 0.78443 0.22796
 B83 B 1.25357 0.79567 0.24482
 B84 B 1.28087 0.76189 0.24325
 B85 B 0.77689 1.25186 0.22433
 B86 B 0.73782 1.26780 0.23135
 B87 B 0.74176 1.22711 0.22046
 B88 B 0.77776 1.21086 0.23574
 B89 B 0.79590 1.24230 0.25647
 B90 B 0.77085 1.27764 0.25369
 B91 B 0.73220 1.22786 0.27941
 B92 B 0.77140 1.21155 0.27239
 B93 B 0.76743 1.25233 0.28328
 B94 B 0.73148 1.26842 0.26799
 B95 B 0.71344 1.23745 0.24704
 B96 B 0.73814 1.20183 0.25020
 O97 O 0.54713 1.06092 0.04824
 O98 O 0.58724 1.02850 0.02418
 C99 C 0.57862 1.05208 0.04288
 O100 O 0.45270 0.93914 0.05122
 O101 O 0.41456 0.96823 0.02208
 C102 C 0.42176 0.94606 0.04249
 O103 O 0.54755 0.94577 0.05785
 O104 O 0.58759 0.97175 0.02809
 C105 C 0.57893 0.95324 0.05068
 O106 O 0.45209 1.06416 0.04141
 O107 O 0.41408 1.02910 0.01753
 C108 C 0.42117 1.05489 0.03439
 Zr109 Zr 0.50035 1.04311 0.03093
 O110 O 0.49642 1.04449 0.07732
 O111 O 0.50399 1.09670 0.02824
 Zr112 Zr 0.50069 0.95816 0.03748
 O113 O 0.49519 0.96228 0.08367
 O114 O 0.50497 0.90468 0.04099
 O115 O 0.53104 1.00149 0.04072
 O116 O 0.47003 1.00100 0.03895
 O117 O 0.45664 1.05242 -0.06053
 O118 O 0.41663 1.02398 -0.03251
 C119 C 0.42531 1.04487 -0.05352
 O120 O 0.55131 0.93510 -0.05224
 O121 O 0.58942 0.96681 -0.02522
 C122 C 0.58220 0.94435 -0.04533
 O123 O 0.45659 0.92870 -0.04899
 O124 O 0.41673 0.96398 -0.02784
 C125 C 0.42518 0.93783 -0.04382
 O126 O 0.55159 1.05027 -0.05943
 O127 O 0.58938 1.02417 -0.02796
 C128 C 0.58243 1.04342 -0.05046
 Zr129 Zr 0.50332 1.03571 -0.04255
 O130 O 0.50153 1.03169 -0.08901
 O131 O 0.50684 1.08935 -0.04539
 Zr132 Zr 0.50338 0.95055 -0.03569
 O133 O 0.50081 0.94244 -0.08165
 O134 O 0.50631 0.89776 -0.02744
 Zr135 Zr 0.55389 0.99725 -0.00120
 Zr136 Zr 0.44993 0.99671 -0.00379
 O137 O 0.47353 0.99233 -0.04534
 O138 O 0.53420 0.99278 -0.04426
 O139 O 0.47092 1.04602 -0.00721
 O140 O 0.53262 0.94826 0.00210
 O141 O 0.53200 1.04588 -0.00545
 O142 O 0.47110 0.94766 0.00058
 H143 H 0.45374 1.00254 0.05568
 H144 H 0.54861 0.92880 0.00394
 H145 H 0.45907 0.99012 -0.06317
 H146 H 0.54735 1.06595 -0.00639
 H147 H 0.48820 0.89462 0.02716
 H148 H 0.50737 0.88667 -0.04698
 H149 H 0.51388 0.96103 -0.09112
 H150 H 0.52102 1.01733 -0.09531
 H151 H 0.48554 1.09899 -0.03695
 H152 H 0.48768 1.10429 0.01293
 H153 H 0.49595 1.06884 0.08283
 H154 H 0.50916 0.98198 0.08998
 O155 O 1.04276 0.55582 0.55185
 O156 O 1.08366 0.52936 0.52352
 C157 C 1.07437 0.54916 0.54505
 O158 O 0.95289 0.43300 0.54599
 O159 O 0.91310 0.46398 0.52011
 C160 C 0.92152 0.44022 0.53867
 O161 O 1.04810 0.44152 0.55053
 O162 O 1.08617 0.47200 0.52223
 C163 C 1.07897 0.45089 0.54345
 O164 O 0.94798 0.55669 0.54720
 O165 O 0.91052 0.52440 0.52017
 C166 C 0.91719 0.54753 0.53983
 Zr167 Zr 0.99640 0.54019 0.53258
 O168 O 0.99185 0.54378 0.57885
 O169 O 0.99873 0.59391 0.52984
 Zr170 Zr 1.00003 0.45487 0.53277
 O171 O 0.99503 0.45404 0.57920
 O172 O 1.00689 0.40149 0.53248
 O173 O 1.02880 0.49879 0.53875
 O174 O 0.96816 0.49622 0.53811
 O175 O 0.94924 0.55697 0.44350
 O176 O 0.91144 0.52378 0.46983
 C177 C 0.91854 0.54711 0.45045
 O178 O 1.04895 0.44127 0.44177
 O179 O 1.08655 0.47175 0.47033
 C180 C 1.07969 0.45038 0.44925
 O181 O 0.95433 0.43270 0.44554
 O182 O 0.91380 0.46306 0.47105
 C183 C 0.92277 0.43921 0.45275
 O184 O 1.04402 0.55837 0.44191
 O185 O 1.08403 0.53105 0.47045
 C186 C 1.07543 0.55204 0.44951
 Zr187 Zr 0.99724 0.54022 0.45887
 O188 O 0.99395 0.54075 0.41236
 O189 O 0.99864 0.59400 0.46004
 Zr190 Zr 1.00087 0.45510 0.45899
 O191 O 0.99658 0.45530 0.41251
 O192 O 1.00773 0.40173 0.45888
 Zr193 Zr 1.05074 0.49988 0.49617
 Zr194 Zr 0.94676 0.49544 0.49561
 O195 O 0.96895 0.49626 0.45333
 O196 O 1.03005 0.49901 0.45325
 O197 O 0.96555 0.54572 0.49554
 O198 O 1.03092 0.45004 0.49609
 O199 O 1.02691 0.54784 0.49602
 O200 O 0.96997 0.44697 0.49571
 H201 H 0.95266 0.49539 0.55541
 H202 H 1.04717 0.43068 0.49621
 H203 H 0.95374 0.49521 0.43588
 H204 H 1.04182 0.56827 0.49642
 H205 H 0.98769 0.39142 0.52123
 H206 H 0.98964 0.39170 0.47149
 H207 H 1.01538 0.46955 0.40457
 H208 H 1.01302 0.52678 0.40463
 H209 H 0.97787 0.60184 0.47059
 H210 H 0.97671 0.60201 0.52156
 H211 H 1.00443 0.52430 0.58729
 H212 H 1.01360 0.46824 0.58751
 O213 O 0.93340 0.45141 -0.05320
 O214 O 0.96700 0.41520 -0.02594
 C215 C 0.94408 0.42129 -0.04614
 O216 O 1.04839 0.55278 -0.05682
 O217 O 1.01594 0.58981 -0.02932
 C218 C 1.03869 0.58307 -0.04946
 O219 O 1.05014 0.45887 -0.05844
 O220 O 1.02544 0.41902 -0.02800
 C221 C 1.04466 0.42780 -0.05025
 O222 O 0.92278 0.54482 -0.05040
 O223 O 0.95476 0.58589 -0.02733
 C224 C 0.92992 0.57631 -0.04462
 Zr225 Zr 0.94650 0.49955 -0.03653
 O226 O 0.94146 0.50152 -0.08288
 O227 O 0.89292 0.49411 -0.03055
 Zr228 Zr 1.03225 0.50497 -0.04109
 O229 O 1.02515 0.50485 -0.08722
 O230 O 1.08628 0.50948 -0.04559
 O231 O 0.99098 0.47169 -0.04407
 O232 O 0.98716 0.53203 -0.04473
 O233 O 0.92820 0.54730 0.04998
 O234 O 0.95739 0.58719 0.02267
 C235 C 0.93428 0.57840 0.04194
 O236 O 1.05602 0.46097 0.05084
 O237 O 1.02721 0.41991 0.02480
 C238 C 1.04882 0.42955 0.04495
 O239 O 1.05592 0.55484 0.04429
 O240 O 1.01842 0.59068 0.02070
 C241 C 1.04465 0.58490 0.03775
 O242 O 0.94011 0.45384 0.05640
 O243 O 0.96935 0.41640 0.02684
 C244 C 0.94968 0.42342 0.04920
 Zr245 Zr 0.95127 0.50129 0.03698
 O246 O 0.95363 0.50736 0.08324
 O247 O 0.89751 0.49368 0.03941
 Zr248 Zr 1.03734 0.50651 0.03253
 O249 O 1.04157 0.51239 0.07869
 O250 O 1.09152 0.50561 0.02853
 Zr251 Zr 0.99511 0.45163 -0.00114
 Zr252 Zr 0.98870 0.55440 -0.00278
 O253 O 0.99279 0.53380 0.03985
 O254 O 0.99656 0.47377 0.04115
 O255 O 0.94030 0.53049 -0.00001
 O256 O 1.04305 0.47609 -0.00405
 O257 O 0.94443 0.46996 0.00098
 O258 O 1.03964 0.53655 -0.00508
 H259 H 0.98509 0.54680 -0.06234
 H260 H 1.06377 0.46154 -0.00436
 H261 H 0.99282 0.54954 0.05685
 H262 H 0.92542 0.45323 0.00214
 H263 H 1.09727 0.49112 -0.03412
 H264 H 1.09785 0.52214 0.01298
 H265 H 1.02666 0.49507 0.08797
 H266 H 0.96946 0.48991 0.09105
 H267 H 0.88686 0.50857 0.02441
 H268 H 0.88286 0.49287 -0.05054
 H269 H 0.96153 0.48953 -0.09125
 H270 H 1.04835 0.50682 -0.09607
 O271 O 0.54969 0.95451 0.55188
 O272 O 0.52198 0.91761 0.52088
 C273 C 0.54241 0.92412 0.54281
 O274 O 0.42986 1.04869 0.55015
 O275 O 0.46189 1.08877 0.52553
 C276 C 0.43887 1.07983 0.54482
 O277 O 0.43477 0.95493 0.55045
 O278 O 0.46419 0.91763 0.52088
 C279 C 0.44342 0.92451 0.54255
 O280 O 0.55177 1.04869 0.55416
 O281 O 0.52176 1.08862 0.52763
 C282 C 0.54365 1.07978 0.54782
 Zr283 Zr 0.53436 1.00248 0.53611
 O284 O 0.53293 1.00256 0.58270
 O285 O 0.58868 0.99918 0.53657
 Zr286 Zr 0.44785 1.00249 0.53253
 O287 O 0.43828 1.00205 0.57832
 O288 O 0.39420 0.99867 0.52548
 O289 O 0.49097 0.97205 0.53902
 O290 O 0.49082 1.03163 0.54105
 O291 O 0.56092 1.05427 0.45355
 O292 O 0.52583 1.09153 0.47821
 C293 C 0.55210 1.08463 0.46152
 O294 O 0.43898 0.96087 0.43821
 O295 O 0.46501 0.92061 0.46726
 C296 C 0.44598 0.92965 0.44505
 O297 O 0.43450 1.05429 0.44493
 O298 O 0.46425 1.09146 0.47432
 C299 C 0.44243 1.08472 0.45340
 O300 O 0.55481 0.96098 0.44375
 O301 O 0.52346 0.92059 0.46865
 C302 C 0.54588 0.92983 0.44891
 Zr303 Zr 0.53823 1.00681 0.46257
 O304 O 0.53974 1.01486 0.41645
 O305 O 0.59235 1.00196 0.46293
 Zr306 Zr 0.45192 1.00660 0.45943
 O307 O 0.45023 1.01251 0.41320
 O308 O 0.39769 1.00230 0.46049
 Zr309 Zr 0.49337 0.95312 0.49564
 Zr310 Zr 0.49313 1.05604 0.49976
 O311 O 0.49549 1.03680 0.45662
 O312 O 0.49551 0.97672 0.45387
 O313 O 0.54304 1.03512 0.50097
 O314 O 0.44368 0.97413 0.49461
 O315 O 0.54275 0.97476 0.49829
 O316 O 0.44306 1.03554 0.49699
 H317 H 0.49013 1.04517 0.55939
 H318 H 0.42408 0.95809 0.49350
 H319 H 0.49706 1.05307 0.43999
 H320 H 0.56300 0.95953 0.49822
 H321 H 0.38539 1.02184 0.52164
 H322 H 0.38840 1.02361 0.46885
 H323 H 0.47114 1.00169 0.40523
 H324 H 0.52836 0.99531 0.40688
 H325 H 0.60099 1.01566 0.47956
 H326 H 0.59801 1.02106 0.52933
 H327 H 0.51631 0.98490 0.58893
 H328 H 0.46091 1.00323 0.58808
 O329 O 1.04890 1.07398 0.46919
 O330 O 1.02905 1.03477 0.43605
 C331 C 1.04552 1.06236 0.44269
 O332 O 1.08421 0.96174 0.55135
 O333 O 1.04280 0.98017 0.58355
 C334 C 1.07215 0.96612 0.57763
 O335 O 1.08758 0.96530 0.46987
 O336 O 1.04670 0.98142 0.43642
 C337 C 1.07668 0.96937 0.44314
 O338 O 1.04044 1.07727 0.55086
 O339 O 1.02249 1.03624 0.58335
 C340 C 1.03523 1.06589 0.57734
 Zr341 Zr 1.03302 1.05354 0.50973
 O342 O 1.08338 1.07334 0.51337
 O343 O 1.01168 1.10280 0.50721
 Zr344 Zr 1.06223 0.97286 0.51033
 O345 O 1.11478 0.98685 0.51046
 O346 O 1.07530 0.92077 0.51004
 O347 O 1.05466 1.01536 0.48408
 O348 O 1.05318 1.01552 0.53575
 O349 O 0.92990 1.03898 0.54860
 O350 O 0.96852 1.01816 0.58216
 C351 C 0.94054 1.03414 0.57534
 O352 O 0.96946 0.92189 0.46862
 O353 O 0.98956 0.96172 0.43584
 C354 C 0.97469 0.93308 0.44214
 O355 O 0.97157 0.92087 0.55074
 O356 O 0.98806 0.96230 0.58321
 C357 C 0.97538 0.93268 0.57722
 O358 O 0.92947 1.03421 0.46661
 O359 O 0.97128 1.01599 0.43479
 C360 C 0.94152 1.02944 0.44029
 Zr361 Zr 0.95185 1.02454 0.50815
 O362 O 0.90125 1.00489 0.51075
 O363 O 0.93248 1.07460 0.50487
 Zr364 Zr 0.98112 0.94405 0.50949
 O365 O 0.92997 0.92594 0.51198
 O366 O 0.99969 0.89358 0.50738
 Zr367 Zr 1.00817 0.99862 0.46531
 Zr368 Zr 1.00617 0.99902 0.55341
 O369 O 0.95984 0.98243 0.53443
 O370 O 0.96066 0.98184 0.48236
 O371 O 0.98956 1.04540 0.53513
 O372 O 1.02440 0.95248 0.48409
 O373 O 0.99115 1.04494 0.48305
 O374 O 1.02345 0.95232 0.53638
 H375 H 1.07166 1.02257 0.54940
 H376 H 1.03155 0.93365 0.47099
 H377 H 0.94050 0.97603 0.54753
 H378 H 0.98523 1.06378 0.46948
 H379 H 1.10073 0.91988 0.50948
 H380 H 1.01772 0.89122 0.52257
 H381 H 0.91702 0.93647 0.49562
 H382 H 0.89711 0.99138 0.49275
 H383 H 0.94786 1.08931 0.51660
 H384 H 1.03136 1.11879 0.50754
 H385 H 1.09848 1.05878 0.50121
 H386 H 1.11702 1.00810 0.52183
 O387 O 0.57276 0.44856 0.05347
 O388 O 0.53698 0.47774 0.08458
 C389 C 0.56295 0.45801 0.07945
 O390 O 0.56864 0.55949 -0.03387
 O391 O 0.53819 0.52568 -0.06564
 C392 C 0.56092 0.54894 -0.06007
 O393 O 0.57012 0.56140 0.04797
 O394 O 0.53606 0.53393 0.08161
 C395 C 0.56089 0.55431 0.07468
 O396 O 0.56946 0.43808 -0.02773
 O397 O 0.53894 0.46752 -0.06262
 C398 C 0.56182 0.44538 -0.05478
 Zr399 Zr 0.55086 0.45832 0.01204
 O400 O 0.60482 0.45244 0.01137
 O401 O 0.54515 0.40517 0.01650
 Zr402 Zr 0.55030 0.54409 0.00768
 O403 O 0.60454 0.54708 0.00539
 O404 O 0.54719 0.59782 0.00840
 O405 O 0.55697 0.50299 0.03583
 O406 O 0.55774 0.49962 -0.01541
 O407 O 0.45126 0.43402 -0.02890
 O408 O 0.48117 0.46516 -0.06320
 C409 C 0.46030 0.44082 -0.05573
 O410 O 0.44226 0.56014 0.04596
 O411 O 0.47522 0.53329 0.08068
 C412 C 0.45048 0.55347 0.07302
 O413 O 0.44846 0.55931 -0.03562
 O414 O 0.48056 0.52584 -0.06637
 C415 C 0.45804 0.54947 -0.06156
 O416 O 0.44359 0.44623 0.05243
 O417 O 0.47667 0.47755 0.08427
 C418 C 0.45192 0.45657 0.07860
 Zr419 Zr 0.46489 0.45767 0.01084
 O420 O 0.41079 0.45958 0.00747
 O421 O 0.46383 0.40440 0.01728
 Zr422 Zr 0.46418 0.54298 0.00630
 O423 O 0.41003 0.54284 0.00243
 O424 O 0.46463 0.59676 0.00724
 Zr425 Zr 0.50672 0.50357 0.05319
 Zr426 Zr 0.50871 0.49791 -0.03485
 O427 O 0.45874 0.49844 -0.01735
 O428 O 0.45723 0.50196 0.03458
 O429 O 0.50866 0.44965 -0.01460
 O430 O 0.50659 0.55146 0.03254
 O431 O 0.50745 0.45330 0.03773
 O432 O 0.50786 0.54856 -0.01976
 H433 H 0.57863 0.49906 -0.02788
 H434 H 0.50606 0.57202 0.04510
 H435 H 0.43901 0.49712 -0.03106
 H436 H 0.50739 0.43463 0.05242
 H437 H 0.53787 0.60536 -0.01078
 H438 H 0.47841 0.60470 -0.00974
 H439 H 0.40135 0.52418 0.01507
 H440 H 0.40263 0.43579 0.00913
 H441 H 0.48231 0.39467 0.00494
 H442 H 0.56872 0.39589 0.01792
 H443 H 0.61467 0.47544 0.00920
 H444 H 0.61384 0.53114 0.02023
 C445 C 0.31122 1.21688 0.17961
 C446 C 0.32681 1.20139 0.15550
 C447 C 0.30871 1.17824 0.13798
 C448 C 0.27422 1.17119 0.14490
 C449 C 0.25824 1.18744 0.16880
 C450 C 0.27641 1.21098 0.18625
 C451 C 0.32710 1.16280 0.11270
 C452 C 0.32216 1.13085 0.10301
 C453 C 0.34557 1.11342 0.08161
 C454 C 0.33770 1.08020 0.07213
 C455 C 0.36117 1.06142 0.05509
 C456 C 0.39314 1.07549 0.04744
 C457 C 0.40016 1.10919 0.05553
 C458 C 0.37692 1.12786 0.07230
 H459 H 0.32670 1.23364 0.19301
 H460 H 0.35352 1.20707 0.15084
 H461 H 0.25947 1.15357 0.13171
 H462 H 0.23182 1.18114 0.17374
 H463 H 0.34750 1.17815 0.10366
 H464 H 0.30166 1.11588 0.11265
 H465 H 0.31384 1.06827 0.07880
 H466 H 0.35510 1.03543 0.04927
 H467 H 0.42446 1.12091 0.04978
 H468 H 0.38491 1.15300 0.07869
 C469 C 0.80830 0.71261 0.67891
 C470 C 0.82373 0.69515 0.65582
 C471 C 0.80440 0.67427 0.63717
 C472 C 0.76865 0.67220 0.64154
 C473 C 0.75291 0.69051 0.66448
 C474 C 0.77262 0.71092 0.68358
 C475 C 0.82359 0.65473 0.61456
 C476 C 0.81348 0.62542 0.60207
 C477 C 0.83884 0.60381 0.58621
 C478 C 0.82987 0.58511 0.56096
 C479 C 0.85482 0.56590 0.54580
 C480 C 0.88896 0.56493 0.55596
 C481 C 0.89708 0.58229 0.58209
 C482 C 0.87251 0.60121 0.59697
 H483 H 0.82475 0.72720 0.69333
 H484 H 0.85132 0.69716 0.65316
 H485 H 0.75287 0.65653 0.62744
 H486 H 0.72548 0.68798 0.66761
 H487 H 0.84950 0.66350 0.61010
 H488 H 0.78752 0.61612 0.60485
 H489 H 0.80387 0.58610 0.55258
 H490 H 0.84767 0.55258 0.52589
 H491 H 0.92278 0.58152 0.59117
 H492 H 0.88003 0.61384 0.61711
 C493 C 0.75553 0.81796 0.17761
 C494 C 0.74285 0.83739 0.15417
 C495 C 0.70756 0.83820 0.14825
 C496 C 0.68543 0.81748 0.16493
 C497 C 0.69805 0.79795 0.18816
 C498 C 0.73323 0.79828 0.19520
 C499 C 0.69388 0.86167 0.12556
 C500 C 0.66455 0.87862 0.13029
 C501 C 0.64738 0.90185 0.10918
 C502 C 0.61971 0.92098 0.11986
 C503 C 0.59901 0.93946 0.10075
 C504 C 0.60554 0.93953 0.07040
 C505 C 0.63450 0.92236 0.05960
 C506 C 0.65527 0.90339 0.07887
 H507 H 0.78262 0.81945 0.18249
 H508 H 0.76042 0.85299 0.14149
 H509 H 0.65816 0.81676 0.16031
 H510 H 0.67997 0.78305 0.20093
 H511 H 0.70897 0.86627 0.10594
 H512 H 0.65200 0.87539 0.15144
 H513 H 0.61310 0.92049 0.14304
 H514 H 0.57688 0.95266 0.10959
 H515 H 0.63972 0.92181 0.03618
 H516 H 0.67620 0.88878 0.06972
 C517 C 1.18408 0.29007 0.69057
 C518 C 1.16822 0.30839 0.66817
 C519 C 1.18659 0.33228 0.65145
 C520 C 1.22184 0.33672 0.65722
 C521 C 1.23793 0.31793 0.67961
 C522 C 1.21924 0.29429 0.69662
 C523 C 1.16672 0.35318 0.63019
 C524 C 1.17907 0.37807 0.61281
 C525 C 1.15519 0.39981 0.59557
 C526 C 1.16379 0.41124 0.56712
 C527 C 1.13970 0.42929 0.55012
 C528 C 1.10684 0.43613 0.56151
 C529 C 1.09935 0.42660 0.59063
 C530 C 1.12321 0.40895 0.60747
 H531 H 1.16834 0.27291 0.70347
 H532 H 1.14100 0.30452 0.66451
 H533 H 1.23693 0.35516 0.64518
 H534 H 1.26471 0.32287 0.68416
 H535 H 1.13935 0.34817 0.62947
 H536 H 1.20637 0.38258 0.61086
 H537 H 1.18856 0.40507 0.55769
 H538 H 1.14620 0.43660 0.52780
 H539 H 1.07460 0.43232 0.60035
 H540 H 1.11632 0.40206 0.62980
 C541 C 0.68187 1.21692 -0.18842
 C542 C 0.66659 1.19693 -0.16674
 C543 C 0.68603 1.17387 -0.15012
 C544 C 0.72178 1.17259 -0.15471
 C545 C 0.73725 1.19305 -0.17637
 C546 C 0.71737 1.21507 -0.19391
 C547 C 0.66692 1.15012 -0.13057
 C548 C 0.68057 1.12595 -0.11324
 C549 C 0.65794 1.10119 -0.09789
 C550 C 0.66494 1.09061 -0.06894
 C551 C 0.64135 1.07006 -0.05358
 C552 C 0.61063 1.05975 -0.06716
 C553 C 0.60510 1.06833 -0.09679
 C554 C 0.62849 1.08857 -0.11200
 H555 H 0.66537 1.23298 -0.20160
 H556 H 0.63901 1.19852 -0.16382
 H557 H 0.73776 1.15507 -0.14256
 H558 H 0.76454 1.19038 -0.18018
 H559 H 0.63915 1.15207 -0.13131
 H560 H 0.70799 1.12437 -0.10979
 H561 H 0.68780 1.09954 -0.05779
 H562 H 0.64625 1.06373 -0.03075
 H563 H 0.58203 1.06013 -0.10806
 H564 H 0.62309 1.09497 -0.13472
 C565 C 1.17610 0.73392 0.31462
 C566 C 1.16028 0.71522 0.33706
 C567 C 1.17718 0.68780 0.35057
 C568 C 1.21105 0.68047 0.34195
 C569 C 1.22692 0.69924 0.31952
 C570 C 1.20955 0.72599 0.30518
 C571 C 1.15703 0.66537 0.37058
 C572 C 1.16997 0.64018 0.38730
 C573 C 1.14715 0.61561 0.40275
 C574 C 1.15655 0.60156 0.43010
 C575 C 1.13408 0.57951 0.44519
 C576 C 1.10209 0.57103 0.43290
 C577 C 1.09388 0.58354 0.40476
 C578 C 1.11607 0.60537 0.38989
 H579 H 1.16135 0.75354 0.30374
 H580 H 1.13404 0.72130 0.34299
 H581 H 1.22483 0.65914 0.35116
 H582 H 1.25217 0.69131 0.31243
 H583 H 1.12947 0.66926 0.37071
 H584 H 1.19740 0.63733 0.38995
 H585 H 1.18073 0.60852 0.44019
 H586 H 1.14110 0.57022 0.46681
 H587 H 1.06980 0.57688 0.39432
 H588 H 1.10872 0.61431 0.36824
 C589 C 0.29199 0.75726 -0.16611
 C590 C 0.30615 0.77413 -0.14180
 C591 C 0.30972 0.80969 -0.14169
 C592 C 0.29829 0.82802 -0.16635
 C593 C 0.28434 0.81123 -0.19059
 C594 C 0.28158 0.77548 -0.19124
 C595 C 0.32834 0.82643 -0.11703
 C596 C 0.32654 0.85991 -0.11108
 C597 C 0.35018 0.87776 -0.09047
 C598 C 0.34153 0.91031 -0.08001
 C599 C 0.36512 0.92954 -0.06359
 C600 C 0.39807 0.91673 -0.05776
 C601 C 0.40623 0.88376 -0.06743
 C602 C 0.38274 0.86458 -0.08357
 H603 H 0.28926 0.72997 -0.16504
 H604 H 0.31473 0.75928 -0.12311
 H605 H 0.30124 0.85530 -0.16768
 H606 H 0.27635 0.82664 -0.20909
 H607 H 0.34479 0.81037 -0.10381
 H608 H 0.30768 0.87538 -0.12229
 H609 H 0.31676 0.92127 -0.08521
 H610 H 0.35811 0.95488 -0.05657
 H611 H 0.43134 0.87298 -0.06322
 H612 H 0.39102 0.84014 -0.09174
 C613 C 0.81277 0.25828 0.32547
 C614 C 0.82673 0.27500 0.34975
 C615 C 0.80976 0.30266 0.36264
 C616 C 0.77721 0.31180 0.35192
 C617 C 0.76288 0.29456 0.32791
 C618 C 0.78087 0.26802 0.31382
 C619 C 0.82802 0.32186 0.38600
 C620 C 0.82329 0.35509 0.39165
 C621 C 0.84800 0.37527 0.40953
 C622 C 0.83740 0.40535 0.42357
 C623 C 0.86123 0.42602 0.43844
 C624 C 0.89622 0.41723 0.43898
 C625 C 0.90655 0.38698 0.42511
 C626 C 0.88295 0.36645 0.41054
 H627 H 0.82791 0.23877 0.31520
 H628 H 0.85182 0.26729 0.35759
 H629 H 0.76292 0.33243 0.36173
 H630 H 0.73814 0.30291 0.31988
 H631 H 0.84871 0.30859 0.39699
 H632 H 0.80227 0.36865 0.38145
 H633 H 0.81071 0.41302 0.42277
 H634 H 0.85246 0.44919 0.44881
 H635 H 0.93323 0.37923 0.42504
 H636 H 0.89263 0.34436 0.39912
 C637 C 1.19234 0.25222 0.16464
 C638 C 1.17308 0.26597 0.14145
 C639 C 1.17154 0.30124 0.13725
 C640 C 1.19170 0.32232 0.15526
 C641 C 1.21091 0.30866 0.17831
 C642 C 1.21101 0.27345 0.18378
 C643 C 1.14777 0.31588 0.11506
 C644 C 1.13056 0.34464 0.12078
 C645 C 1.10666 0.36259 0.10058
 C646 C 1.08954 0.39105 0.11189
 C647 C 1.06962 0.41157 0.09378
 C648 C 1.06591 0.40413 0.06379
 C649 C 1.08133 0.37469 0.05242
 C650 C 1.10185 0.35409 0.07067
 H651 H 1.19132 0.22508 0.16819
 H652 H 1.15804 0.24917 0.12769
 H653 H 1.19210 0.34957 0.15193
 H654 H 1.22501 0.32598 0.19229
 H655 H 1.14317 0.30188 0.09499
 H656 H 1.13405 0.35613 0.14224
 H657 H 1.09245 0.39818 0.13478
 H658 H 1.05771 0.43396 0.10313
 H659 H 1.07894 0.36864 0.02927
 H660 H 1.11464 0.33245 0.06102
 C661 C 0.71620 0.81310 0.67623
 C662 C 0.69784 0.82969 0.65420
 C663 C 0.67318 0.81239 0.63744
 C664 C 0.66881 0.77726 0.64211
 C665 C 0.68764 0.76044 0.66408
 C666 C 0.71111 0.77831 0.68189
 C667 C 0.65126 0.83313 0.61752
 C668 C 0.62383 0.82214 0.60228
 C669 C 0.60052 0.84678 0.58762
 C670 C 0.58550 0.83950 0.56020
 C671 C 0.56529 0.86399 0.54573
 C672 C 0.55962 0.89594 0.55870
 C673 C 0.57296 0.90212 0.58693
 C674 C 0.59297 0.87792 0.60119
 H675 H 0.73358 0.82805 0.68954
 H676 H 0.70190 0.85672 0.65118
 H677 H 0.65023 0.76282 0.62967
 H678 H 0.68257 0.73376 0.66791
 H679 H 0.65711 0.86006 0.61670
 H680 H 0.61791 0.79538 0.60066
 H681 H 0.59042 0.81540 0.54955
 H682 H 0.55521 0.85845 0.52406
 H683 H 0.56843 0.92610 0.59793
 H684 H 0.60278 0.88377 0.62289
 C685 C 1.21066 0.73322 -0.16820
 C686 C 1.18953 0.72223 -0.14507
 C687 C 1.17286 0.69069 -0.14647
 C688 C 1.17910 0.66961 -0.17082
 C689 C 1.20052 0.68037 -0.19371
 C690 C 1.21679 0.71234 -0.19283
 C691 C 1.14910 0.68019 -0.12250
 C692 C 1.12054 0.66214 -0.12801
 C693 C 1.09677 0.64817 -0.10532
 C694 C 1.06562 0.63397 -0.11493
 C695 C 1.04485 0.61536 -0.09567
 C696 C 1.05458 0.61081 -0.06629
 C697 C 1.08456 0.62655 -0.05597
 C698 C 1.10555 0.64518 -0.07530
 H699 H 1.22101 0.75866 -0.16713
 H700 H 1.18509 0.73900 -0.12658
 H701 H 1.16725 0.64477 -0.17231
 H702 H 1.20337 0.66381 -0.21253
 H703 H 1.15477 0.68863 -0.10040
 H704 H 1.11416 0.65680 -0.15075
 H705 H 1.05819 0.63570 -0.13786
 H706 H 1.02225 0.60265 -0.10418
 H707 H 1.09294 0.62243 -0.03351
 H708 H 1.12948 0.65522 -0.06697
 C709 C 0.67267 1.20858 0.30027
 C710 C 0.65023 1.19951 0.32290
 C711 C 0.66148 1.19782 0.35214
 C712 C 0.69598 1.20611 0.35827
 C713 C 0.71856 1.21534 0.33550
 C714 C 0.70726 1.21676 0.30608
 C715 C 0.63638 1.18629 0.37484
 C716 C 0.64506 1.17418 0.40143
 C717 C 0.62037 1.15560 0.42059
 C718 C 0.63300 1.12890 0.43790
 C719 C 0.61050 1.10717 0.45267
 C720 C 0.57485 1.11209 0.45107
 C721 C 0.56207 1.14043 0.43588
 C722 C 0.58469 1.16203 0.42059
 H723 H 0.66255 1.20894 0.27812
 H724 H 0.62392 1.19321 0.31738
 H725 H 0.70578 1.20566 0.38051
 H726 H 0.74497 1.22071 0.34104
 H727 H 0.60982 1.18439 0.36799
 H728 H 0.67181 1.17340 0.40775
 H729 H 0.66029 1.12356 0.43857
 H730 H 0.62090 1.08551 0.46441
 H731 H 0.53464 1.14463 0.43436
 H732 H 0.57415 1.18307 0.40819
 C733 C 0.82322 0.75662 0.18199
 C734 C 0.84284 0.74357 0.15872
 C735 C 0.83827 0.70995 0.14931
 C736 C 0.81431 0.68937 0.16417
 C737 C 0.79508 0.70222 0.18752
 C738 C 0.79863 0.73625 0.19648
 C739 C 0.86049 0.69575 0.12577
 C740 C 0.84924 0.67117 0.10776
 C741 C 0.87135 0.65034 0.08820
 C742 C 0.85824 0.61890 0.07906
 C743 C 0.87859 0.59627 0.06329
 C744 C 0.91251 0.60467 0.05572
 C745 C 0.92529 0.63689 0.06323
 C746 C 0.90495 0.65956 0.07959
 H747 H 0.82815 0.78237 0.18908
 H748 H 0.86182 0.75967 0.14819
 H749 H 0.81125 0.66282 0.15856
 H750 H 0.77781 0.68508 0.19889
 H751 H 0.88670 0.70475 0.12441
 H752 H 0.82248 0.66374 0.10919
 H753 H 0.83245 0.61116 0.08510
 H754 H 0.86789 0.57178 0.05742
 H755 H 0.95135 0.64397 0.05751
 H756 H 0.91576 0.68387 0.08564
 C757 C 0.30556 1.25503 0.67517
 C758 C 0.32446 1.24259 0.65119
 C759 C 0.32455 1.20776 0.64475
 C760 C 0.30366 1.18594 0.66155
 C761 C 0.28484 1.19827 0.68536
 C762 C 0.28576 1.23295 0.69282
 C763 C 0.34746 1.19409 0.62142
 C764 C 0.36359 1.16433 0.62534
 C765 C 0.38619 1.14689 0.60379
 C766 C 0.40415 1.11836 0.61397
 C767 C 0.42242 1.09789 0.59462
 C768 C 0.42354 1.10542 0.56448
 C769 C 0.40734 1.13497 0.55411
 C770 C 0.38850 1.15557 0.57366
 H771 H 0.30758 1.28173 0.68041
 H772 H 0.34021 1.25996 0.63848
 H773 H 0.30225 1.15907 0.65659
 H774 H 0.27001 1.18031 0.69823
 H775 H 0.35227 1.20935 0.60201
 H776 H 0.36023 1.15153 0.64630
 H777 H 0.40311 1.11108 0.63697
 H778 H 0.43501 1.07540 0.60316
 H779 H 0.40777 1.14109 0.53086
 H780 H 0.37482 1.17723 0.56491
 C781 C 0.77620 0.31606 -0.18754
 C782 C 0.79477 0.33188 -0.16523
 C783 C 0.81861 0.31371 -0.14826
 C784 C 0.82215 0.27858 -0.15325
 C785 C 0.80310 0.26253 -0.17551
 C786 C 0.78024 0.28120 -0.19332
 C787 C 0.84062 0.33357 -0.12777
 C788 C 0.86597 0.32137 -0.11065
 C789 C 0.88924 0.34501 -0.09469
 C790 C 0.90134 0.33738 -0.06624
 C791 C 0.92091 0.36134 -0.05047
 C792 C 0.92866 0.39307 -0.06312
 C793 C 0.91850 0.39948 -0.09226
 C794 C 0.89931 0.37577 -0.10787
 H795 H 0.75937 0.33164 -0.20085
 H796 H 0.79140 0.35895 -0.16205
 H797 H 0.84028 0.26355 -0.14082
 H798 H 0.80743 0.23579 -0.17949
 H799 H 0.83634 0.36078 -0.12769
 H800 H 0.86989 0.29434 -0.10810
 H801 H 0.89448 0.31354 -0.05582
 H802 H 0.92852 0.35575 -0.02806
 H803 H 0.92479 0.42338 -0.10287
 H804 H 0.89189 0.38184 -0.13023
 C805 C 0.29601 0.76062 0.32188
 C806 C 0.31710 0.77289 0.34451
 C807 C 0.32325 0.80784 0.34745
 C808 C 0.30629 0.83041 0.32836
 C809 C 0.28511 0.81824 0.30596
 C810 C 0.27993 0.78311 0.30207
 C811 C 0.34753 0.82045 0.37021
 C812 C 0.36795 0.84731 0.36494
 C813 C 0.39163 0.86368 0.38637
 C814 C 0.41267 0.88997 0.37575
 C815 C 0.43198 0.90981 0.39495
 C816 C 0.43115 0.90373 0.42536
 C817 C 0.41197 0.87614 0.43616
 C818 C 0.39212 0.85629 0.41681
 H819 H 0.29323 0.73347 0.31949
 H820 H 0.32961 0.75497 0.35909
 H821 H 0.30946 0.85761 0.33064
 H822 H 0.27310 0.83655 0.29147
 H823 H 0.34932 0.80663 0.39074
 H824 H 0.36720 0.85857 0.34315
 H825 H 0.41309 0.89622 0.35252
 H826 H 0.44662 0.93094 0.38611
 H827 H 0.41064 0.87130 0.45961
 H828 H 0.37618 0.83641 0.42600
 C829 C 1.17083 1.17541 0.26573
 C830 C 1.14812 1.15503 0.28174
 C831 C 1.14764 1.15662 0.31247
 C832 C 1.16929 1.17977 0.32694
 C833 C 1.19198 1.19989 0.31107
 C834 C 1.19321 1.19801 0.28027
 C835 C 1.12386 1.13493 0.32932
 C836 C 1.13240 1.12394 0.35611
 C837 C 1.10764 1.10933 0.37682
 C838 C 1.11117 1.11814 0.40641
 C839 C 1.08944 1.10430 0.42741
 C840 C 1.06416 1.08060 0.41933
 C841 C 1.06008 1.07216 0.38948
 C842 C 1.08160 1.08671 0.36822
 H843 H 1.17068 1.17334 0.24199
 H844 H 1.13122 1.13774 0.27017
 H845 H 1.16846 1.18283 0.35060
 H846 H 1.20841 1.21703 0.32317
 H847 H 1.09878 1.12942 0.32019
 H848 H 1.15785 1.12911 0.36465
 H849 H 1.13105 1.13567 0.41334
 H850 H 1.09355 1.11120 0.45020
 H851 H 1.04095 1.05377 0.38271
 H852 H 1.07873 1.07937 0.34540
 C853 C 0.66568 0.67873 -0.23792
 C854 C 0.64419 0.65668 -0.22224
 C855 C 0.64520 0.65609 -0.19148
 C856 C 0.66621 0.67935 -0.17654
 C857 C 0.68738 0.70145 -0.19209
 C858 C 0.68816 0.70092 -0.22300
 C859 C 0.62464 0.63114 -0.17486
 C860 C 0.63811 0.61575 -0.15130
 C861 C 0.61812 0.59621 -0.12955
 C862 C 0.63117 0.59459 -0.10091
 C863 C 0.61256 0.57890 -0.07863
 C864 C 0.58055 0.56397 -0.08455
 C865 C 0.56803 0.56403 -0.11353
 C866 C 0.58658 0.58032 -0.13593
 H867 H 0.66504 0.67775 -0.26171
 H868 H 0.62769 0.63929 -0.23410
 H869 H 0.66655 0.68023 -0.15272
 H870 H 0.70381 0.71825 -0.17965
 H871 H 0.59838 0.62660 -0.18153
 H872 H 0.66485 0.62050 -0.14602
 H873 H 0.65552 0.60641 -0.09550
 H874 H 0.62328 0.57862 -0.05664
 H875 H 0.54369 0.55216 -0.11872
 H876 H 0.57622 0.58040 -0.15801
 C877 C 0.82861 1.21648 0.69955
 C878 C 0.85086 1.19542 0.68394
 C879 C 0.84401 1.16061 0.68160
 C880 C 0.81464 1.14704 0.69514
 C881 C 0.79212 1.16813 0.71026
 C882 C 0.79830 1.20328 0.71201
 C883 C 0.86572 1.13965 0.66248
 C884 C 0.87014 1.10630 0.66660
 C885 C 0.88645 1.08564 0.64371
 C886 C 0.91086 1.06096 0.65111
 C887 C 0.92798 1.04316 0.62891
 C888 C 0.92018 1.04942 0.59916
 C889 C 0.89419 1.07274 0.59209
 C890 C 0.87759 1.09072 0.61413
 H891 H 0.83489 1.24319 0.70135
 H892 H 0.87338 1.20635 0.67354
 H893 H 0.80835 1.12034 0.69322
 H894 H 0.76989 1.15662 0.72049
 H895 H 0.87756 1.15199 0.64365
 H896 H 0.86155 1.09400 0.68665
 H897 H 0.91755 1.05645 0.67392
 H898 H 0.94776 1.02514 0.63498
 H899 H 0.88738 1.07805 0.56944
 H900 H 0.85803 1.10897 0.60804
 C901 C 0.26355 0.67554 0.19316
 C902 C 0.28209 0.65090 0.17792
 C903 C 0.31806 0.65080 0.17868
 C904 C 0.33519 0.67534 0.19563
 C905 C 0.31663 0.69995 0.21078
 C906 C 0.28062 0.70148 0.20857
 C907 C 0.33677 0.62698 0.15946
 C908 C 0.36999 0.61911 0.16294
 C909 C 0.38963 0.60108 0.14002
 C910 C 0.41859 0.58194 0.14787
 C911 C 0.43847 0.56617 0.12620
 C912 C 0.42991 0.56980 0.09630
 C913 C 0.40110 0.58929 0.08857
 C914 C 0.38129 0.60484 0.11012
 H915 H 0.23584 0.67405 0.19279
 H916 H 0.26829 0.63198 0.16529
 H917 H 0.36290 0.67651 0.19654
 H918 H 0.33081 0.71822 0.22376
 H919 H 0.32269 0.61638 0.14108
 H920 H 0.38352 0.62645 0.18272
 H921 H 0.42579 0.57921 0.17078
 H922 H 0.46061 0.55141 0.13283
 H923 H 0.39384 0.59280 0.06576
 H924 H 0.36001 0.62056 0.10315
 C925 C 1.17578 0.80189 0.72707
 C926 C 1.15411 0.82488 0.71315
 C927 C 1.16107 0.83538 0.68445
 C928 C 1.18848 0.82069 0.66891
 C929 C 1.20971 0.79687 0.68260
 C930 C 1.20466 0.78838 0.71233
 C931 C 1.13928 0.86152 0.67108
 C932 C 1.15306 0.88767 0.65645
 C933 C 1.13250 0.91296 0.64025
 C934 C 1.14830 0.93001 0.61679
 C935 C 1.12885 0.94966 0.59760
 C936 C 1.09327 0.95288 0.60174
 C937 C 1.07793 0.93875 0.62687
 C938 C 1.09743 0.91885 0.64608
 H939 H 1.16981 0.79512 0.74959
 H940 H 1.13255 0.83538 0.72517
 H941 H 1.19329 0.82751 0.64617
 H942 H 1.22987 0.78527 0.66979
 H943 H 1.11182 0.85923 0.67404
 H944 H 1.18078 0.88909 0.65437
 H945 H 1.17537 0.92643 0.61220
 H946 H 1.14134 0.96084 0.57858
 H947 H 1.05054 0.94114 0.63058
 H948 H 1.08466 0.90731 0.66474
 C949 C 0.72432 0.29784 0.18119
 C950 C 0.70817 0.32288 0.16447
 C951 C 0.68792 0.34782 0.17803
 C952 C 0.68523 0.34803 0.20884
 C953 C 0.70122 0.32290 0.22555
 C954 C 0.72059 0.29708 0.21195
 C955 C 0.67015 0.37289 0.15920
 C956 C 0.64271 0.39098 0.16781
 C957 C 0.62327 0.41266 0.14711
 C958 C 0.58787 0.41748 0.15155
 C959 C 0.56806 0.43403 0.13022
 C960 C 0.58354 0.44568 0.10422
 C961 C 0.61922 0.44307 0.10079
 C962 C 0.63901 0.42715 0.12220
 H963 H 0.73924 0.27879 0.16981
 H964 H 0.71103 0.32240 0.14075
 H965 H 0.67103 0.36755 0.22028
 H966 H 0.69814 0.32390 0.24919
 H967 H 0.67852 0.37428 0.13650
 H968 H 0.63198 0.38737 0.18956
 H969 H 0.57529 0.40700 0.17082
 H970 H 0.54054 0.43603 0.13326
 H971 H 0.63172 0.45275 0.08116
 H972 H 0.66646 0.42557 0.11877
 C973 C 0.81855 0.83930 0.28192
 C974 C 0.84125 0.85951 0.29773
 C975 C 0.84990 0.85075 0.32653
 C976 C 0.83345 0.82320 0.34028
 C977 C 0.81011 0.80336 0.32466
 C978 C 0.80365 0.81014 0.29483
 C979 C 0.87609 0.87065 0.34191
 C980 C 0.90025 0.85542 0.35804
 C981 C 0.92447 0.87441 0.37657
 C982 C 0.93605 0.85889 0.40244
 C983 C 0.95430 0.87760 0.42310
 C984 C 0.96163 0.91206 0.41801
 C985 C 0.95283 0.92680 0.39092
 C986 C 0.93433 0.90807 0.37026
 H987 H 0.81332 0.84639 0.25935
 H988 H 0.85308 0.88126 0.28711
 H989 H 0.83866 0.81705 0.36309
 H990 H 0.79742 0.78282 0.33608
 H991 H 0.87536 0.89800 0.33955
 H992 H 0.90029 0.82793 0.35980
 H993 H 0.92922 0.83281 0.40748
 H994 H 0.96137 0.86547 0.44364
 H995 H 0.95849 0.95326 0.38638
 H996 H 0.92699 0.92032 0.34988
 C997 C 0.31624 0.33189 -0.22148
 C998 C 0.33843 0.35264 -0.20552
 C999 C 0.34435 0.34630 -0.17571
 C1000 C 0.32636 0.31984 -0.16163
 C1001 C 0.30374 0.29934 -0.17749
 C1002 C 0.29898 0.30453 -0.20782
 C1003 C 0.36846 0.36832 -0.15956
 C1004 C 0.38849 0.35613 -0.13814
 C1005 C 0.41011 0.37770 -0.11909
 C1006 C 0.41793 0.36537 -0.09099
 C1007 C 0.43523 0.38570 -0.07090
 C1008 C 0.44557 0.41876 -0.07859
 C1009 C 0.43979 0.43053 -0.10733
 C1010 C 0.42204 0.41016 -0.12749
 H1011 H 0.31284 0.33751 -0.24461
 H1012 H 0.35151 0.37333 -0.21664
 H1013 H 0.32928 0.31533 -0.13825
 H1014 H 0.28980 0.27976 -0.16580
 H1015 H 0.36949 0.39489 -0.16565
 H1016 H 0.38723 0.32928 -0.13286
 H1017 H 0.40948 0.34032 -0.08413
 H1018 H 0.43996 0.37572 -0.04904
 H1019 H 0.44784 0.45581 -0.11383
 H1020 H 0.41751 0.42002 -0.14937
 C1021 C 1.19080 0.25998 -0.17338
 C1022 C 1.17102 0.27188 -0.14987
 C1023 C 1.17451 0.30539 -0.14014
 C1024 C 1.19974 0.32622 -0.15311
 C1025 C 1.22003 0.31412 -0.17626
 C1026 C 1.21572 0.28085 -0.18697
 C1027 C 1.14984 0.31895 -0.11825
 C1028 C 1.13520 0.34935 -0.12238
 C1029 C 1.10806 0.36418 -0.10347
 C1030 C 1.08705 0.38914 -0.11604
 C1031 C 1.06434 0.40766 -0.09875
 C1032 C 1.06212 0.40191 -0.06831
 C1033 C 1.08137 0.37544 -0.05574
 C1034 C 1.10433 0.35663 -0.07325
 H1035 H 1.18517 0.23488 -0.18169
 H1036 H 1.15149 0.25550 -0.14044
 H1037 H 1.20315 0.35219 -0.14583
 H1038 H 1.23802 0.33145 -0.18653
 H1039 H 1.14101 0.30246 -0.10069
 H1040 H 1.14216 0.36370 -0.14191
 H1041 H 1.08917 0.39530 -0.13923
 H1042 H 1.04967 0.42786 -0.10897
 H1043 H 1.08042 0.37092 -0.03223
 H1044 H 1.12044 0.33774 -0.06282
 C1045 C 0.69202 0.76579 0.32274
 C1046 C 0.67116 0.77719 0.34569
 C1047 C 0.67551 0.80983 0.35715
 C1048 C 0.70234 0.83031 0.34631
 C1049 C 0.72380 0.81859 0.32376
 C1050 C 0.71896 0.78611 0.31156
 C1051 C 0.65030 0.82283 0.37878
 C1052 C 0.63693 0.85392 0.37574
 C1053 C 0.60932 0.86815 0.39445
 C1054 C 0.58951 0.89446 0.38255
 C1055 C 0.56650 0.91233 0.40007
 C1056 C 0.56283 0.90451 0.43005
 C1057 C 0.58081 0.87675 0.44182
 C1058 C 0.60404 0.85859 0.42408
 H1059 H 0.68608 0.74132 0.31323
 H1060 H 0.65039 0.76114 0.35344
 H1061 H 0.70630 0.85566 0.35490
 H1062 H 0.74325 0.83560 0.31522
 H1063 H 0.63999 0.80548 0.39509
 H1064 H 0.64534 0.86937 0.35729
 H1065 H 0.59285 0.90217 0.35981
 H1066 H 0.55288 0.93367 0.39054
 H1067 H 0.57877 0.87072 0.46503
 H1068 H 0.61922 0.83863 0.43402
 C1069 C 0.76469 0.68034 -0.19244
 C1070 C 0.77961 0.66521 -0.16780
 C1071 C 0.80252 0.68336 -0.14999
 C1072 C 0.80942 0.71755 -0.15681
 C1073 C 0.79374 0.73303 -0.18118
 C1074 C 0.77102 0.71466 -0.19934
 C1075 C 0.81855 0.66527 -0.12486
 C1076 C 0.85078 0.67089 -0.11536
 C1077 C 0.86893 0.64769 -0.09450
 C1078 C 0.89932 0.65855 -0.08057
 C1079 C 0.91874 0.63603 -0.06320
 C1080 C 0.90826 0.60207 -0.05972
 C1081 C 0.87741 0.59162 -0.07299
 C1082 C 0.85821 0.61387 -0.09021
 H1083 H 0.74826 0.66487 -0.20619
 H1084 H 0.77397 0.63877 -0.16312
 H1085 H 0.82669 0.73237 -0.14330
 H1086 H 0.80010 0.75920 -0.18606
 H1087 H 0.80374 0.64457 -0.11567
 H1088 H 0.86527 0.69195 -0.12443
 H1089 H 0.90845 0.68432 -0.08366
 H1090 H 0.94248 0.64484 -0.05344
 H1091 H 0.86841 0.56568 -0.07081
 H1092 H 0.83585 0.60361 -0.10108
 C1093 C 0.27183 1.18193 0.31015
 C1094 C 0.29031 1.16717 0.33310
 C1095 C 0.31384 1.18625 0.34963
 C1096 C 0.31721 1.22117 0.34348
 C1097 C 0.29832 1.23612 0.32055
 C1098 C 0.27569 1.21658 0.30324
 C1099 C 0.33626 1.16745 0.37055
 C1100 C 0.35983 1.18099 0.38874
 C1101 C 0.38412 1.15865 0.40499
 C1102 C 0.39417 1.16593 0.43407
 C1103 C 0.41480 1.14289 0.44993
 C1104 C 0.42566 1.11247 0.43672
 C1105 C 0.41752 1.10665 0.40704
 C1106 C 0.39726 1.12942 0.39138
 H1107 H 0.25534 1.16567 0.29718
 H1108 H 0.28720 1.14020 0.33713
 H1109 H 0.33531 1.23679 0.35538
 H1110 H 0.30272 1.26266 0.31560
 H1111 H 0.33391 1.14000 0.37012
 H1112 H 0.36149 1.20816 0.39195
 H1113 H 0.38491 1.18866 0.44486
 H1114 H 0.42085 1.14804 0.47275
 H1115 H 0.42622 1.08384 0.39600
 H1116 H 0.39142 1.12379 0.36861
 C1117 C 1.21594 0.72913 0.15988
 C1118 C 1.19823 0.71623 0.13554
 C1119 C 1.16376 0.70608 0.13792
 C1120 C 1.14724 0.70946 0.16530
 C1121 C 1.16499 0.72214 0.18969
 C1122 C 1.19979 0.73181 0.18753
 C1123 C 1.14726 0.68873 0.11253
 C1124 C 1.11311 0.68522 0.10916
 C1125 C 1.09731 0.66232 0.08689
 C1126 C 1.06279 0.66699 0.07862
 C1127 C 1.04591 0.64304 0.06087
 C1128 C 1.06315 0.61362 0.05159
 C1129 C 1.09800 0.60970 0.05886
 C1130 C 1.11487 0.63364 0.07624
 H1131 H 1.24274 0.73545 0.15714
 H1132 H 1.21183 0.71343 0.11486
 H1133 H 1.12105 0.70100 0.16841
 H1134 H 1.15142 0.72345 0.21045
 H1135 H 1.16431 0.67785 0.09624
 H1136 H 1.09587 0.69875 0.12369
 H1137 H 1.04854 0.68869 0.08670
 H1138 H 1.01898 0.64654 0.05581
 H1139 H 1.11197 0.58727 0.05200
 H1140 H 1.14110 0.62842 0.08259
 C1141 C 0.70225 1.24288 0.66703
 C1142 C 0.68246 1.23054 0.64365
 C1143 C 0.67354 1.19608 0.64234
 C1144 C 0.68679 1.17377 0.66368
 C1145 C 0.70675 1.18600 0.68685
 C1146 C 0.71439 1.22082 0.68920
 C1147 C 0.64958 1.18386 0.61929
 C1148 C 0.62572 1.16028 0.62553
 C1149 C 0.60149 1.14470 0.60422
 C1150 C 0.57669 1.12230 0.61557
 C1151 C 0.55626 1.10296 0.59686
 C1152 C 0.55976 1.10585 0.56629
 C1153 C 0.58294 1.12961 0.55456
 C1154 C 0.60386 1.14890 0.57340
 H1155 H 0.70709 1.26994 0.66817
 H1156 H 0.67279 1.24818 0.62733
 H1157 H 0.68117 1.14684 0.66280
 H1158 H 0.71491 1.16812 0.70349
 H1159 H 0.65070 1.19563 0.59779
 H1160 H 0.62382 1.15138 0.64807
 H1161 H 0.57412 1.11855 0.63911
 H1162 H 0.53867 1.08453 0.60628
 H1163 H 0.58637 1.13167 0.53095
 H1164 H 0.62276 1.16564 0.56367
 C1165 C 0.81455 0.24405 0.17636
 C1166 C 0.83511 0.25705 0.15346
 C1167 C 0.84212 0.29201 0.15154
 C1168 C 0.82703 0.31382 0.17230
 C1169 C 0.80651 0.30097 0.19492
 C1170 C 0.79995 0.26587 0.19747
 C1171 C 0.86446 0.30576 0.12761
 C1172 C 0.88493 0.33277 0.13222
 C1173 C 0.90513 0.35166 0.10957
 C1174 C 0.92486 0.37928 0.11938
 C1175 C 0.94072 0.40123 0.09948
 C1176 C 0.93779 0.39604 0.06908
 C1177 C 0.91993 0.36736 0.05888
 C1178 C 0.90346 0.34536 0.07899
 H1179 H 0.81045 0.21693 0.17763
 H1180 H 0.84611 0.23969 0.13758
 H1181 H 0.83068 0.34105 0.17093
 H1182 H 0.79555 0.31892 0.21030
 H1183 H 0.86398 0.29331 0.10643
 H1184 H 0.88641 0.34265 0.15443
 H1185 H 0.92688 0.38483 0.14267
 H1186 H 0.95444 0.42314 0.10787
 H1187 H 0.91709 0.36307 0.03547
 H1188 H 0.88852 0.32446 0.07041
 C1189 C 0.30757 0.74924 0.67140
 C1190 C 0.32630 0.76289 0.64780
 C1191 C 0.32945 0.79814 0.64433
 C1192 C 0.31214 0.81952 0.66418
 C1193 C 0.29319 0.80591 0.68756
 C1194 C 0.29064 0.77050 0.69166
 C1195 C 0.35129 0.81217 0.62031
 C1196 C 0.37033 0.84019 0.62437
 C1197 C 0.39275 0.85655 0.60190
 C1198 C 0.41658 0.88063 0.61189
 C1199 C 0.43494 0.90068 0.59207
 C1200 C 0.43010 0.89719 0.56166
 C1201 C 0.40789 0.87180 0.55124
 C1202 C 0.38920 0.85156 0.57127
 H1203 H 0.30737 0.72202 0.67410
 H1204 H 0.33940 0.74586 0.63284
 H1205 H 0.31322 0.84686 0.66168
 H1206 H 0.28061 0.82332 0.70250
 H1207 H 0.35320 0.79808 0.59995
 H1208 H 0.37013 0.85181 0.64598
 H1209 H 0.41998 0.88503 0.63524
 H1210 H 0.45177 0.92029 0.60058
 H1211 H 0.40334 0.86917 0.52785
 H1212 H 0.37078 0.83355 0.56270
 C1213 C 0.25906 1.20138 -0.17120
 C1214 C 0.27217 1.18079 -0.14877
 C1215 C 0.30763 1.17660 -0.14549
 C1216 C 0.32989 1.19512 -0.16397
 C1217 C 0.31677 1.21619 -0.18613
 C1218 C 0.28109 1.21924 -0.19041
 C1219 C 0.32071 1.15200 -0.12336
 C1220 C 0.34782 1.13212 -0.12912
 C1221 C 0.36215 1.10605 -0.10886
 C1222 C 0.38526 1.08247 -0.12075
 C1223 C 0.40346 1.06040 -0.10256
 C1224 C 0.39895 1.06118 -0.07195
 C1225 C 0.37429 1.08310 -0.05988
 C1226 C 0.35599 1.10553 -0.07821
 H1227 H 0.23162 1.20205 -0.17402
 H1228 H 0.25449 1.16684 -0.13481
 H1229 H 0.35746 1.19311 -0.16147
 H1230 H 0.33469 1.22954 -0.20027
 H1231 H 0.30608 1.14841 -0.10334
 H1232 H 0.35991 1.13433 -0.15055
 H1233 H 0.39046 1.08211 -0.14419
 H1234 H 0.42263 1.04392 -0.11230
 H1235 H 0.37102 1.08461 -0.03624
 H1236 H 0.33870 1.12355 -0.06811
 C1237 C 0.76096 0.70967 0.33212
 C1238 C 0.77211 0.68906 0.35530
 C1239 C 0.80704 0.68186 0.35876
 C1240 C 0.83091 0.69742 0.33979
 C1241 C 0.81983 0.71857 0.31696
 C1242 C 0.78457 0.72455 0.31240
 C1243 C 0.81806 0.65707 0.38139
 C1244 C 0.84170 0.63346 0.37517
 C1245 C 0.85469 0.60766 0.39620
 C1246 C 0.87237 0.57967 0.38462
 C1247 C 0.89036 0.55768 0.40306
 C1248 C 0.89094 0.56310 0.43350
 C1249 C 0.87151 0.58964 0.44555
 C1250 C 0.85339 0.61186 0.42701
 H1251 H 0.73372 0.71263 0.32912
 H1252 H 0.75327 0.67735 0.36968
 H1253 H 0.85817 0.69289 0.34242
 H1254 H 0.83899 0.72958 0.30251
 H1255 H 0.80479 0.65679 0.40233
 H1256 H 0.85198 0.63256 0.35298
 H1257 H 0.87383 0.57582 0.36104
 H1258 H 0.90584 0.53774 0.39336
 H1259 H 0.87251 0.59472 0.46897
 H1260 H 0.84051 0.63343 0.43674
 C1261 C 0.69429 1.22248 0.18004
 C1262 C 0.67829 1.20599 0.15660
 C1263 C 0.69359 1.17785 0.14293
 C1264 C 0.72645 1.16771 0.15239
 C1265 C 0.74274 1.18457 0.17575
 C1266 C 0.72673 1.21203 0.19018
 C1267 C 0.67281 1.15903 0.12075
 C1268 C 0.68044 1.12848 0.10916
 C1269 C 0.65474 1.10887 0.09180
 C1270 C 0.66519 1.08649 0.06937
 C1271 C 0.64080 1.06768 0.05331
 C1272 C 0.60555 1.07069 0.05967
 C1273 C 0.59548 1.09241 0.08270
 C1274 C 0.61959 1.11102 0.09854
 H1275 H 0.68037 1.24263 0.19094
 H1276 H 0.65294 1.21441 0.15002
 H1277 H 0.73938 1.14630 0.14251
 H1278 H 0.76721 1.17495 0.18329
 H1279 H 0.64841 1.17040 0.11495
 H1280 H 0.70520 1.11691 0.11293
 H1281 H 0.69218 1.08390 0.06406
 H1282 H 0.64949 1.05108 0.03585
 H1283 H 0.56871 1.09500 0.08880
 H1284 H 0.61055 1.12663 0.11653
 C1285 C 1.24790 0.68212 0.67541
 C1286 C 1.23501 0.66365 0.65159
 C1287 C 1.20102 0.66805 0.64238
 C1288 C 1.18071 0.69277 0.65638
 C1289 C 1.19379 0.71171 0.67989
 C1290 C 1.22756 0.70655 0.68994
 C1291 C 1.18667 0.64520 0.61952
 C1292 C 1.15502 0.63221 0.62233
 C1293 C 1.13913 0.60713 0.60212
 C1294 C 1.11160 0.58799 0.61310
 C1295 C 1.09248 0.56720 0.59459
 C1296 C 1.10017 0.56506 0.56446
 C1297 C 1.12901 0.58247 0.55349
 C1298 C 1.14842 0.60352 0.57223
 H1299 H 1.27346 0.67608 0.68304
 H1300 H 1.25108 0.64459 0.64131
 H1301 H 1.15445 0.69706 0.64950
 H1302 H 1.17688 0.72946 0.69081
 H1303 H 1.20341 0.63646 0.60208
 H1304 H 1.14021 0.63897 0.64167
 H1305 H 1.10402 0.59001 0.63599
 H1306 H 1.07049 0.55387 0.60365
 H1307 H 1.13515 0.58151 0.53025
 H1308 H 1.16932 0.61820 0.56297
 C1309 C 0.67501 0.78145 -0.19670
 C1310 C 0.66020 0.80032 -0.17408
 C1311 C 0.68033 0.82089 -0.15570
 C1312 C 0.71617 0.82116 -0.15995
 C1313 C 0.73113 0.80188 -0.18259
 C1314 C 0.71070 0.78193 -0.20148
 C1315 C 0.66200 0.84317 -0.13439
 C1316 C 0.67639 0.86437 -0.11469
 C1317 C 0.65474 0.88815 -0.09720
 C1318 C 0.66278 0.89604 -0.06777
 C1319 C 0.64034 0.91609 -0.05071
 C1320 C 0.60974 0.92848 -0.06306
 C1321 C 0.60317 0.92249 -0.09298
 C1322 C 0.62542 0.90290 -0.10986
 H1323 H 0.65815 0.76693 -0.21084
 H1324 H 0.63253 0.79959 -0.17153
 H1325 H 0.73268 0.83689 -0.14657
 H1326 H 0.75858 0.80364 -0.18586
 H1327 H 0.63420 0.84247 -0.13556
 H1328 H 0.70379 0.86419 -0.11089
 H1329 H 0.68560 0.88552 -0.05765
 H1330 H 0.64599 0.92042 -0.02769
 H1331 H 0.58013 0.93235 -0.10325
 H1332 H 0.61923 0.89883 -0.13281
 C1333 C 1.17553 0.27931 0.30527
 C1334 C 1.15998 0.29936 0.32680
 C1335 C 1.17937 0.32182 0.34411
 C1336 C 1.21523 0.32262 0.34013
 C1337 C 1.23090 0.30226 0.31861
 C1338 C 1.21121 0.28066 0.30051
 C1339 C 1.16038 0.34556 0.36378
 C1340 C 1.17433 0.36725 0.38331
 C1341 C 1.15261 0.39206 0.39964
 C1342 C 1.16020 0.40099 0.42894
 C1343 C 1.13777 0.42198 0.44508
 C1344 C 1.10761 0.43443 0.43197
 C1345 C 1.10157 0.42746 0.40211
 C1346 C 1.12380 0.40680 0.38612
 H1347 H 1.15923 0.26344 0.29174
 H1348 H 1.13231 0.29813 0.32922
 H1349 H 1.23119 0.33978 0.35265
 H1350 H 1.25831 0.30466 0.31539
 H1351 H 1.13266 0.34532 0.36162
 H1352 H 1.20151 0.36648 0.38810
 H1353 H 1.18261 0.39049 0.43971
 H1354 H 1.14295 0.42689 0.46810
 H1355 H 1.07883 0.43719 0.39127
 H1356 H 1.11797 0.40188 0.36323
 C1357 C 0.30302 0.77817 0.17571
 C1358 C 0.31800 0.79395 0.15139
 C1359 C 0.30096 0.82008 0.13640
 C1360 C 0.26765 0.82906 0.14541
 C1361 C 0.25220 0.81253 0.16947
 C1362 C 0.26993 0.78708 0.18527
 C1363 C 0.31986 0.83758 0.11239
 C1364 C 0.31645 0.87067 0.10558
 C1365 C 0.34266 0.88895 0.08759
 C1366 C 0.33384 0.91812 0.07129
 C1367 C 0.35912 0.93661 0.05587
 C1368 C 0.39376 0.92655 0.05705
 C1369 C 0.40230 0.89736 0.07337
 C1370 C 0.37730 0.87902 0.08848
 H1371 H 0.31814 0.75981 0.18748
 H1372 H 0.34377 0.78661 0.14503
 H1373 H 0.25355 0.84876 0.13401
 H1374 H 0.22666 0.82030 0.17602
 H1375 H 0.34031 0.82320 0.10213
 H1376 H 0.29571 0.88538 0.11500
 H1377 H 0.30742 0.92667 0.07062
 H1378 H 0.35173 0.95909 0.04364
 H1379 H 0.42864 0.88871 0.07487
 H1380 H 0.38561 0.85767 0.10170
 C1381 C 0.78187 0.26667 0.66308
 C1382 C 0.79587 0.28278 0.63831
 C1383 C 0.80338 0.31766 0.63872
 C1384 C 0.79640 0.33618 0.66443
 C1385 C 0.78279 0.32006 0.68924
 C1386 C 0.77577 0.28492 0.68919
 C1387 C 0.82180 0.33321 0.61346
 C1388 C 0.82124 0.36666 0.60746
 C1389 C 0.84529 0.38317 0.58646
 C1390 C 0.83696 0.41499 0.57426
 C1391 C 0.86107 0.43309 0.55742
 C1392 C 0.89419 0.41993 0.55305
 C1393 C 0.90213 0.38770 0.56454
 C1394 C 0.87804 0.36954 0.58101
 H1395 H 0.77652 0.23975 0.66185
 H1396 H 0.80128 0.26783 0.61886
 H1397 H 0.80272 0.36289 0.66598
 H1398 H 0.77849 0.33538 0.70863
 H1399 H 0.83712 0.31644 0.59990
 H1400 H 0.80335 0.38293 0.61902
 H1401 H 0.81204 0.42622 0.57841
 H1402 H 0.85432 0.45795 0.54896
 H1403 H 0.92742 0.37682 0.56147
 H1404 H 0.88591 0.34564 0.59065
 C1405 C 1.20401 1.21362 0.68194
 C1406 C 1.18073 1.19556 0.66483
 C1407 C 1.15587 1.17473 0.67801
 C1408 C 1.15555 1.17131 0.70881
 C1409 C 1.17890 1.18944 0.72598
 C1410 C 1.20315 1.21127 0.71280
 C1411 C 1.13118 1.15732 0.65855
 C1412 C 1.10244 1.14163 0.66755
 C1413 C 1.07987 1.12478 0.64609
 C1414 C 1.06620 1.09267 0.65252
 C1415 C 1.04967 1.07401 0.63056
 C1416 C 1.04644 1.08749 0.60199
 C1417 C 1.05738 1.12091 0.59650
 C1418 C 1.07385 1.13943 0.61837
 H1419 H 1.22192 1.23024 0.67079
 H1420 H 1.18173 1.19850 0.64112
 H1421 H 1.13750 1.15483 0.71993
 H1422 H 1.17741 1.18659 0.74964
 H1423 H 1.13702 1.15775 0.63521
 H1424 H 1.09610 1.13927 0.69062
 H1425 H 1.07016 1.08122 0.67396
 H1426 H 1.04117 1.04842 0.63554
 H1427 H 1.05455 1.13232 0.57492
 H1428 H 1.08300 1.16477 0.61326
 C1429 C 0.71612 0.71817 0.18126
 C1430 C 0.69576 0.69770 0.16351
 C1431 C 0.67312 0.67405 0.17604
 C1432 C 0.67077 0.67158 0.20681
 C1433 C 0.69124 0.69197 0.22457
 C1434 C 0.71432 0.71546 0.21205
 C1435 C 0.65278 0.65273 0.15602
 C1436 C 0.63547 0.62483 0.16416
 C1437 C 0.61756 0.60423 0.14212
 C1438 C 0.58550 0.58992 0.14878
 C1439 C 0.56696 0.57299 0.12697
 C1440 C 0.58053 0.57022 0.09842
 C1441 C 0.61346 0.58292 0.09238
 C1442 C 0.63192 0.59952 0.11409
 H1443 H 0.73345 0.73586 0.17066
 H1444 H 0.69798 0.70016 0.13982
 H1445 H 0.65310 0.65433 0.21749
 H1446 H 0.68866 0.68920 0.24817
 H1447 H 0.65275 0.66012 0.13302
 H1448 H 0.63353 0.61706 0.18691
 H1449 H 0.57435 0.59290 0.17048
 H1450 H 0.54175 0.56297 0.13219
 H1451 H 0.62497 0.58017 0.07080
 H1452 H 0.65733 0.60898 0.10880
 C1453 C 1.17578 0.83331 0.26966
 C1454 C 1.15827 0.85798 0.28572
 C1455 C 1.16357 0.86103 0.31602
 C1456 C 1.18550 0.83802 0.33034
 C1457 C 1.20257 0.81297 0.31439
 C1458 C 1.19855 0.81068 0.28372
 C1459 C 1.14461 0.88710 0.33256
 C1460 C 1.15870 0.90333 0.35541
 C1461 C 1.13908 0.92518 0.37578
 C1462 C 1.15216 0.92981 0.40420
 C1463 C 1.13256 0.94585 0.42571
 C1464 C 1.09943 0.95781 0.41917
 C1465 C 1.08739 0.95566 0.39011
 C1466 C 1.10706 0.93954 0.36854
 H1467 H 1.17134 0.83219 0.24619
 H1468 H 1.14091 0.87506 0.27440
 H1469 H 1.18891 0.83890 0.35397
 H1470 H 1.21870 0.79534 0.32628
 H1471 H 1.11844 0.89210 0.32593
 H1472 H 1.18522 0.89802 0.36102
 H1473 H 1.17696 0.91946 0.41023
 H1474 H 1.14288 0.94756 0.44778
 H1475 H 1.06219 0.96514 0.38428
 H1476 H 1.09666 0.93778 0.34655
 C1477 C 0.67260 0.31728 -0.22949
 C1478 C 0.65060 0.33826 -0.21350
 C1479 C 0.65256 0.33902 -0.18281
 C1480 C 0.67538 0.31721 -0.16817
 C1481 C 0.69719 0.29625 -0.18403
 C1482 C 0.69658 0.29636 -0.21492
 C1483 C 0.63078 0.36245 -0.16604
 C1484 C 0.64320 0.37794 -0.14219
 C1485 C 0.62181 0.39638 -0.12100
 C1486 C 0.63295 0.39716 -0.09175
 C1487 C 0.61311 0.41272 -0.07029
 C1488 C 0.58190 0.42835 -0.07777
 C1489 C 0.57101 0.42833 -0.10722
 C1490 C 0.59080 0.41232 -0.12875
 H1491 H 0.67085 0.31781 -0.25325
 H1492 H 0.63267 0.35451 -0.22509
 H1493 H 0.67637 0.31629 -0.14436
 H1494 H 0.71460 0.28011 -0.17189
 H1495 H 0.60443 0.36593 -0.17293
 H1496 H 0.66996 0.37432 -0.13638
 H1497 H 0.65683 0.38510 -0.08537
 H1498 H 0.62247 0.41271 -0.04785
 H1499 H 0.54718 0.44047 -0.11352
 H1500 H 0.58193 0.41276 -0.15129
 C1501 C 0.76856 1.15758 0.30629
 C1502 C 0.78386 1.13227 0.32343
 C1503 C 0.81972 1.12981 0.32545
 C1504 C 0.84002 1.15291 0.30936
 C1505 C 0.82468 1.17818 0.29222
 C1506 C 0.78873 1.18185 0.29142
 C1507 C 0.83470 1.10469 0.34619
 C1508 C 0.86766 1.09466 0.34560
 C1509 C 0.88390 1.07410 0.36926
 C1510 C 0.91583 1.05872 0.36382
 C1511 C 0.93394 1.04268 0.38652
 C1512 C 0.92059 1.04195 0.41528
 C1513 C 0.88803 1.05618 0.42046
 C1514 C 0.87000 1.07221 0.39784
 H1515 H 0.74088 1.15789 0.30476
 H1516 H 0.76755 1.11463 0.33533
 H1517 H 0.86773 1.15240 0.31052
 H1518 H 0.84124 1.19532 0.28008
 H1519 H 0.81761 1.09448 0.36279
 H1520 H 0.88394 1.10224 0.32742
 H1521 H 0.92730 1.05998 0.34210
 H1522 H 0.95899 1.03207 0.38178
 H1523 H 0.87693 1.05619 0.44233
 H1524 H 0.84603 1.08444 0.40340
 C1525 C 0.28834 0.66031 -0.20311
 C1526 C 0.30843 0.63819 -0.18665
 C1527 C 0.34225 0.64671 -0.17948
 C1528 C 0.35589 0.67786 -0.18922
 C1529 C 0.33559 0.70026 -0.20558
 C1530 C 0.30134 0.69193 -0.21231
 C1531 C 0.36087 0.62409 -0.15926
 C1532 C 0.39509 0.62246 -0.15722
 C1533 C 0.41122 0.60300 -0.13320
 C1534 C 0.44167 0.58481 -0.13800
 C1535 C 0.45672 0.56640 -0.11495
 C1536 C 0.44182 0.56673 -0.08675
 C1537 C 0.41153 0.58529 -0.08211
 C1538 C 0.39648 0.60324 -0.10500
 H1539 H 0.26259 0.65238 -0.20850
 H1540 H 0.29736 0.61438 -0.17926
 H1541 H 0.38169 0.68553 -0.18337
 H1542 H 0.34654 0.72433 -0.21238
 H1543 H 0.34536 0.60810 -0.14500
 H1544 H 0.41135 0.63539 -0.17304
 H1545 H 0.45357 0.58463 -0.15956
 H1546 H 0.48020 0.55250 -0.11903
 H1547 H 0.39941 0.58618 -0.06065
 H1548 H 0.37354 0.61786 -0.10043
 C1549 C 0.79512 0.79094 0.67382
 C1550 C 0.82093 0.80748 0.65816
 C1551 C 0.84787 0.82385 0.67286
 C1552 C 0.84809 0.82385 0.70382
 C1553 C 0.82206 0.80741 0.71953
 C1554 C 0.79536 0.79038 0.70475
 C1555 C 0.87523 0.83951 0.65471
 C1556 C 0.90081 0.85897 0.66499
 C1557 C 0.92532 0.87543 0.64464
 C1558 C 0.93667 0.90853 0.65052
 C1559 C 0.95505 0.92668 0.62922
 C1560 C 0.96240 0.91180 0.60181
 C1561 C 0.95373 0.87762 0.59710
 C1562 C 0.93557 0.85951 0.61839
 H1563 H 0.77569 0.77758 0.66143
 H1564 H 0.82011 0.80692 0.63433
 H1565 H 0.86848 0.83575 0.71617
 H1566 H 0.82351 0.80741 0.74332
 H1567 H 0.87326 0.83573 0.63116
 H1568 H 0.90218 0.86572 0.68799
 H1569 H 0.92953 0.92105 0.67083
 H1570 H 0.96167 0.95293 0.63356
 H1571 H 0.95979 0.86523 0.57647
 H1572 H 0.92851 0.83343 0.61383
 C1573 C 0.29208 0.29419 0.17581
 C1574 C 0.31292 0.31651 0.16017
 C1575 C 0.33493 0.33890 0.17492
 C1576 C 0.33626 0.33805 0.20580
 C1577 C 0.31537 0.31563 0.22149
 C1578 C 0.29275 0.29359 0.20670
 C1579 C 0.35550 0.36249 0.15688
 C1580 C 0.37430 0.38836 0.16723
 C1581 C 0.39263 0.41074 0.14657
 C1582 C 0.42639 0.42102 0.15259
 C1583 C 0.44570 0.43754 0.13086
 C1584 C 0.43122 0.44366 0.10307
 C1585 C 0.39663 0.43582 0.09805
 C1586 C 0.37737 0.41986 0.11973
 H1587 H 0.27552 0.27741 0.16347
 H1588 H 0.31154 0.31646 0.13635
 H1589 H 0.35324 0.35440 0.21812
 H1590 H 0.31702 0.31587 0.24525
 H1591 H 0.35468 0.35843 0.13329
 H1592 H 0.37764 0.39262 0.19052
 H1593 H 0.43833 0.41464 0.17339
 H1594 H 0.47229 0.44387 0.13519
 H1595 H 0.38467 0.44134 0.07705
 H1596 H 0.35084 0.41355 0.11508
   
