data_POSCAR
  _audit_creation_date              2014-09-24
  _audit_creation_method            'ToBaCCo'
  _symmetry_space_group_name_H-M    'P1'
  _symmetry_Int_Tables_number       1
  _symmetry_cell_setting            triclinic
  loop_
  _symmetry_equiv_pos_as_xyz
 x,y,z
_cell_length_a 61.7207
_cell_length_b 61.7158
_cell_length_c 56.5748
_cell_angle_alpha 90.449600
_cell_angle_beta 89.539600
_cell_angle_gamma 89.737000
loop_
  _atom_site_label
  _atom_site_type_symbol
  _atom_site_fract_x
  _atom_site_fract_y
  _atom_site_fract_z
C1 C 0.38531 0.02205 0.27386
 H2 H 0.38564 0.03126 0.25767
 C3 C 0.39712 0.02911 0.29341
 H4 H 0.40682 0.04366 0.29225
 C5 C 0.37192 -0.00795 0.29540
 H6 H 0.36172 -0.02210 0.29630
 C7 C 0.38344 -0.00146 0.31532
 H8 H 0.38240 -0.01086 0.33138
 N9 N 0.37319 0.00372 0.27514
 C10 C 0.36338 -0.01653 0.20212
 H11 H 0.34587 -0.01733 0.20204
 C12 C 0.37519 -0.02207 0.18182
 H13 H 0.36680 -0.02692 0.16590
 C14 C 0.39577 -0.00925 0.22301
 H15 H 0.40370 -0.00456 0.23919
 C16 C 0.40821 -0.01467 0.20307
 H17 H 0.42572 -0.01375 0.20380
 Zn18 Zn 0.35624 -0.00379 0.24873
 N19 N 0.37376 -0.01002 0.22206
 C20 C 0.33988 0.03173 0.22274
 N21 N 0.33812 0.02019 0.24306
 C22 C 0.32532 0.02709 0.26132
 C23 C 0.31399 0.04662 0.25977
 C24 C 0.32883 0.05138 0.22047
 C25 C 0.35188 -0.04743 0.25774
 C26 C 0.34151 -0.06726 0.26040
 C27 C 0.30701 -0.04883 0.25672
 C28 C 0.31809 -0.02927 0.25418
 N29 N 0.34013 -0.02899 0.25471
 H30 H 0.35062 0.02627 0.20873
 H31 H 0.32465 0.01782 0.27746
 H32 H 0.30442 0.05239 0.27470
 H33 H 0.33090 0.06091 0.20462
 H34 H 0.36939 -0.04671 0.25766
 H35 H 0.35111 -0.08188 0.26245
 H36 H 0.28946 -0.04899 0.25586
 H37 H 0.30913 -0.01448 0.25118
 C38 C 0.39779 -0.02108 0.18231
 C39 C 0.39611 0.01724 0.31431
 C40 C 0.31887 -0.06801 0.25970
 C41 C 0.31607 0.05902 0.23932
 C42 C 0.11352 0.02645 0.72048
 H43 H 0.11272 0.03582 0.73670
 C44 C 0.10129 0.03272 0.70098
 H45 H 0.09081 0.04682 0.70220
 C46 C 0.12831 -0.00330 0.69886
 H47 H 0.13917 -0.01705 0.69791
 C48 C 0.11642 0.00242 0.67900
 H49 H 0.11783 -0.00721 0.66296
 N50 N 0.12647 0.00856 0.71916
 C51 C 0.13666 -0.01126 0.79191
 H52 H 0.15418 -0.01177 0.79190
 C53 C 0.12508 -0.01722 0.81208
 H54 H 0.13367 -0.02207 0.82782
 C55 C 0.10400 -0.00445 0.77132
 H56 H 0.09589 0.00017 0.75527
 C57 C 0.09178 -0.01029 0.79115
 H58 H 0.07425 -0.00975 0.79050
 Zn59 Zn 0.14346 0.00154 0.74563
 N60 N 0.12603 -0.00482 0.77217
 C61 C 0.15924 0.03706 0.77234
 N62 N 0.16119 0.02564 0.75175
 C63 C 0.17422 0.03250 0.73384
 C64 C 0.18574 0.05179 0.73611
 C65 C 0.17048 0.05645 0.77534
 C66 C 0.14846 -0.04207 0.73638
 C67 C 0.15904 -0.06196 0.73417
 C68 C 0.19329 -0.04353 0.73856
 C69 C 0.18204 -0.02388 0.74063
 N70 N 0.16001 -0.02359 0.73961
 H71 H 0.14835 0.03163 0.78608
 H72 H 0.17508 0.02331 0.71749
 H73 H 0.19561 0.05748 0.72153
 H74 H 0.16838 0.06582 0.79148
 H75 H 0.13095 -0.04135 0.73612
 H76 H 0.14968 -0.07666 0.73210
 H77 H 0.21079 -0.04382 0.73996
 H78 H 0.19083 -0.00906 0.74381
 C79 C 0.10246 -0.01671 0.81168
 C80 C 0.10277 0.02054 0.68009
 C81 C 0.18161 -0.06271 0.73552
 C82 C 0.18360 0.06399 0.75694
 C83 C 0.61380 0.52598 0.21963
 H84 H 0.61300 0.53534 0.23587
 C85 C 0.60159 0.53229 0.20013
 H86 H 0.59113 0.54639 0.20136
 C87 C 0.62861 0.49626 0.19799
 H88 H 0.63946 0.48250 0.19704
 C89 C 0.61673 0.50200 0.17812
 H90 H 0.61817 0.49240 0.16207
 N91 N 0.62675 0.50809 0.21830
 C92 C 0.63695 0.48823 0.29103
 H93 H 0.65448 0.48772 0.29100
 C94 C 0.62539 0.48228 0.31121
 H95 H 0.63399 0.47742 0.32694
 C96 C 0.60429 0.49508 0.27048
 H97 H 0.59616 0.49972 0.25445
 C98 C 0.59208 0.48924 0.29033
 H99 H 0.57455 0.48980 0.28970
 Zn100 Zn 0.64374 0.50105 0.24476
 N101 N 0.62631 0.49469 0.27131
 C102 C 0.65955 0.53656 0.27147
 N103 N 0.66148 0.52513 0.25088
 C104 C 0.67450 0.53199 0.23296
 C105 C 0.68602 0.55127 0.23522
 C106 C 0.67078 0.55595 0.27445
 C107 C 0.64871 0.45744 0.23548
 C108 C 0.65927 0.43755 0.23330
 C109 C 0.69353 0.45596 0.23775
 C110 C 0.68229 0.47561 0.23979
 N111 N 0.66027 0.47592 0.23872
 H112 H 0.64866 0.53114 0.28522
 H113 H 0.67535 0.52279 0.21661
 H114 H 0.69588 0.55696 0.22062
 H115 H 0.66869 0.56532 0.29059
 H116 H 0.63120 0.45818 0.23519
 H117 H 0.64991 0.42286 0.23123
 H118 H 0.71102 0.45564 0.23920
 H119 H 0.69109 0.49043 0.24298
 C120 C 0.60277 0.48281 0.31085
 C121 C 0.60310 0.52013 0.17922
 C122 C 0.68184 0.43678 0.23470
 C123 C 0.68390 0.56348 0.25603
 C124 C 0.88701 0.52264 0.77551
 H125 H 0.88751 0.53185 0.75932
 C126 C 0.89878 0.52958 0.79513
 H127 H 0.90861 0.54405 0.79399
 C128 C 0.87322 0.49275 0.79695
 H129 H 0.86288 0.47871 0.79778
 C130 C 0.88469 0.49912 0.81695
 H131 H 0.88343 0.48968 0.83298
 N132 N 0.87471 0.50442 0.77671
 C133 C 0.86484 0.48423 0.70367
 H134 H 0.84733 0.48354 0.70360
 C135 C 0.87660 0.47859 0.68337
 H136 H 0.86816 0.47378 0.66746
 C137 C 0.89730 0.49134 0.72451
 H138 H 0.90527 0.49601 0.74068
 C139 C 0.90969 0.48583 0.70457
 H140 H 0.92720 0.48664 0.70527
 Zn141 Zn 0.85777 0.49708 0.75023
 N142 N 0.87528 0.49070 0.72359
 C143 C 0.84167 0.53266 0.72414
 N144 N 0.83984 0.52118 0.74451
 C145 C 0.82703 0.52818 0.76272
 C146 C 0.81574 0.54772 0.76106
 C147 C 0.83065 0.55232 0.72177
 C148 C 0.85302 0.45346 0.75920
 C149 C 0.84245 0.43373 0.76183
 C150 C 0.80814 0.45245 0.75811
 C151 C 0.81939 0.47191 0.75558
 N152 N 0.84143 0.47201 0.75616
 H153 H 0.85240 0.52712 0.71016
 H154 H 0.82630 0.51896 0.77888
 H155 H 0.80614 0.55355 0.77593
 H156 H 0.83275 0.56177 0.70586
 H157 H 0.87053 0.45401 0.75914
 H158 H 0.85181 0.41898 0.76389
 H159 H 0.79062 0.45233 0.75723
 H160 H 0.81055 0.48677 0.75257
 C161 C 0.89921 0.47946 0.68382
 C162 C 0.89755 0.51771 0.81605
 C163 C 0.81984 0.43320 0.76111
 C164 C 0.81785 0.56004 0.74055
 C165 C 0.22260 0.41618 0.97945
 H166 H 0.23715 0.41780 0.96883
 C167 C 0.20404 0.42816 0.97391
 H168 H 0.20426 0.43918 0.95911
 C169 C 0.20420 0.39957 1.01146
 H170 H 0.20404 0.38812 1.02576
 C171 C 0.18540 0.41115 1.00655
 H172 H 0.17102 0.40878 1.01732
 N173 N 0.22243 0.40248 0.99821
 C174 C 0.28878 0.39352 1.02166
 H175 H 0.28842 0.37615 1.02406
 C176 C 0.30782 0.40492 1.02576
 H177 H 0.32224 0.39633 1.03130
 C178 C 0.27067 0.42581 1.01043
 H179 H 0.25621 0.43384 1.00433
 C180 C 0.28946 0.43785 1.01427
 H181 H 0.28951 0.45510 1.01088
 Zn182 Zn 0.24739 0.38606 1.00548
 N183 N 0.27092 0.40396 1.01349
 C184 C 0.27469 0.37195 0.96802
 N185 N 0.25496 0.36922 0.97854
 C186 C 0.23994 0.35570 0.96908
 C187 C 0.24459 0.34416 0.94829
 C188 C 0.27998 0.36073 0.94725
 C189 C 0.23845 0.37959 1.05282
 C190 C 0.23331 0.36841 1.07339
 C191 C 0.23503 0.33486 1.05108
 C192 C 0.24012 0.34670 1.03083
 N193 N 0.24146 0.36869 1.03204
 H194 H 0.28621 0.38321 0.97532
 H195 H 0.22422 0.35419 0.97750
 H196 H 0.23246 0.33362 0.94069
 H197 H 0.29559 0.36322 0.93884
 H198 H 0.23980 0.39706 1.05326
 H199 H 0.23090 0.37724 1.08984
 H200 H 0.23399 0.31735 1.05010
 H201 H 0.24292 0.33834 1.01423
 C202 C 0.30827 0.42718 1.02156
 C203 C 0.18534 0.42562 0.98773
 C204 C 0.23147 0.34588 1.07249
 C205 C 0.26477 0.34680 0.93726
 C206 C 0.77673 0.08404 0.97611
 H207 H 0.76250 0.08190 0.96531
 C208 C 0.79575 0.07249 0.97078
 H209 H 0.79616 0.06128 0.95595
 C210 C 0.79385 0.10152 1.00839
 H211 H 0.79335 0.11314 1.02272
 C212 C 0.81307 0.09041 1.00371
 H213 H 0.82707 0.09333 1.01473
 N214 N 0.77603 0.09794 0.99492
 C215 C 0.70897 0.10543 1.01796
 H216 H 0.70897 0.12280 1.02073
 C217 C 0.69009 0.09368 1.02181
 H218 H 0.67543 0.10198 1.02753
 C219 C 0.72786 0.07351 1.00614
 H220 H 0.74258 0.06577 0.99993
 C221 C 0.70924 0.06111 1.00971
 H222 H 0.70958 0.04386 1.00602
 Zn223 Zn 0.75049 0.11378 1.00222
 N224 N 0.72716 0.09535 1.00964
 C225 C 0.72370 0.12742 0.96487
 N226 N 0.74314 0.13058 0.97558
 C227 C 0.75802 0.14449 0.96650
 C228 C 0.75351 0.15598 0.94591
 C229 C 0.71855 0.13858 0.94430
 C230 C 0.75809 0.11998 1.04977
 C231 C 0.76313 0.13092 1.07062
 C232 C 0.76209 0.16467 1.04921
 C233 C 0.75707 0.15305 1.02865
 N234 N 0.75551 0.13107 1.02928
 H235 H 0.71231 0.11587 0.97186
 H236 H 0.77353 0.14634 0.97503
 H237 H 0.76552 0.16683 0.93860
 H238 H 0.70317 0.13573 0.93574
 H239 H 0.75663 0.10252 1.04973
 H240 H 0.76533 0.12192 1.08679
 H241 H 0.76346 0.18215 1.04867
 H242 H 0.75468 0.16156 1.01226
 C243 C 0.69012 0.07141 1.01721
 C244 C 0.81403 0.07568 0.98487
 C245 C 0.76534 0.15342 1.07029
 C246 C 0.73361 0.15290 0.93469
 C247 C 0.27614 0.58467 0.47509
 H248 H 0.26185 0.58262 0.46437
 C249 C 0.29508 0.57303 0.46964
 H250 H 0.29542 0.56185 0.45479
 C251 C 0.29350 0.60197 0.50733
 H252 H 0.29313 0.61355 0.52170
 C253 C 0.31264 0.59077 0.50250
 H254 H 0.32673 0.59354 0.51341
 N255 N 0.27560 0.59852 0.49395
 C256 C 0.20865 0.60614 0.51732
 H257 H 0.20866 0.62351 0.52007
 C258 C 0.18977 0.59439 0.52123
 H259 H 0.17513 0.60270 0.52701
 C260 C 0.22749 0.57420 0.50546
 H261 H 0.24219 0.56645 0.49921
 C262 C 0.20888 0.56181 0.50910
 H263 H 0.20920 0.54456 0.50543
 Zn264 Zn 0.25015 0.61442 0.50144
 N265 N 0.22681 0.59605 0.50894
 C266 C 0.22325 0.62822 0.46423
 N267 N 0.24274 0.63130 0.47487
 C268 C 0.25764 0.64517 0.46575
 C269 C 0.25309 0.65671 0.44521
 C270 C 0.21808 0.63942 0.44370
 C271 C 0.25801 0.62055 0.54895
 C272 C 0.26314 0.63146 0.56979
 C273 C 0.26201 0.66523 0.54844
 C274 C 0.25691 0.65364 0.52790
 N275 N 0.25534 0.63166 0.52850
 H276 H 0.21185 0.61669 0.47124
 H277 H 0.27318 0.64696 0.47423
 H278 H 0.26513 0.66753 0.43787
 H279 H 0.20266 0.63664 0.43520
 H280 H 0.25655 0.60308 0.54889
 H281 H 0.26540 0.62244 0.58595
 H282 H 0.26336 0.68272 0.54792
 H283 H 0.25443 0.66217 0.51153
 C284 C 0.18979 0.57212 0.51666
 C285 C 0.31342 0.57610 0.48363
 C286 C 0.26534 0.65396 0.56949
 C287 C 0.23316 0.65371 0.43406
 C288 C 0.72265 0.91557 0.47810
 H289 H 0.73723 0.91719 0.46753
 C290 C 0.70408 0.92750 0.47248
 H291 H 0.70432 0.93848 0.45765
 C292 C 0.70421 0.89901 0.51012
 H293 H 0.70404 0.88760 0.52446
 C294 C 0.68540 0.91054 0.50512
 H295 H 0.67100 0.90818 0.51586
 N296 N 0.72247 0.90193 0.49691
 C297 C 0.78881 0.89324 0.52047
 H298 H 0.78852 0.87587 0.52287
 C299 C 0.80778 0.90472 0.52466
 H300 H 0.82222 0.89620 0.53026
 C301 C 0.77058 0.92545 0.50923
 H302 H 0.75609 0.93342 0.50311
 C303 C 0.78930 0.93758 0.51316
 H304 H 0.78927 0.95484 0.50981
 Zn305 Zn 0.74746 0.88560 0.50431
 N306 N 0.77092 0.90360 0.51226
 C307 C 0.77479 0.87143 0.46691
 N308 N 0.75509 0.86865 0.47747
 C309 C 0.74011 0.85504 0.46810
 C310 C 0.74478 0.84345 0.44734
 C311 C 0.78010 0.86016 0.44618
 C312 C 0.73846 0.87937 0.55167
 C313 C 0.73342 0.86830 0.57234
 C314 C 0.73535 0.83461 0.55029
 C315 C 0.74035 0.84635 0.52993
 N316 N 0.74155 0.86835 0.53098
 H317 H 0.78627 0.88276 0.47415
 H318 H 0.72441 0.85349 0.47654
 H319 H 0.73269 0.83284 0.43979
 H320 H 0.79569 0.86270 0.43773
 H321 H 0.73972 0.89685 0.55198
 H322 H 0.73097 0.87722 0.58872
 H323 H 0.73445 0.81709 0.54945
 H324 H 0.74321 0.83790 0.51340
 C325 C 0.80813 0.92699 0.52052
 C326 C 0.68536 0.92496 0.48626
 C327 C 0.73174 0.84575 0.57162
 C328 C 0.76493 0.84614 0.43626
 C329 C 0.01432 0.27816 0.41270
 H330 H 0.02852 0.26786 0.41346
 C331 C 0.01333 0.29726 0.42620
 H332 H 0.02679 0.30165 0.43740
 C333 C -0.02030 0.28545 0.39666
 H334 H -0.03321 0.28110 0.38480
 C335 C -0.02193 0.30466 0.40985
 H336 H -0.03615 0.31488 0.40818
 N337 N -0.00241 0.27256 0.39837
 C338 C 0.00236 0.20233 0.38717
 H339 H 0.00163 0.20179 0.36807
 C340 C 0.00361 0.18307 0.39991
 H341 H 0.00383 0.16768 0.39054
 C342 C 0.00272 0.22304 0.42264
 H343 H 0.00211 0.23862 0.43145
 C344 C 0.00396 0.20412 0.43610
 H345 H 0.00443 0.20528 0.45521
 Zn346 Zn 0.00031 0.24700 0.37938
 N347 N 0.00217 0.22183 0.39859
 C348 C 0.04227 0.23482 0.36277
 N349 N 0.02601 0.24966 0.36063
 C350 C 0.02829 0.26711 0.34623
 C351 C 0.04739 0.26998 0.33308
 C352 C 0.06157 0.23708 0.34996
 C353 C -0.04372 0.23977 0.37158
 C354 C -0.06294 0.23752 0.35894
 C355 C -0.04271 0.24286 0.32275
 C356 C -0.02380 0.24500 0.33610
 N357 N -0.02469 0.24375 0.36013
 H358 H 0.04051 0.22138 0.37471
 H359 H 0.01533 0.27891 0.34514
 H360 H 0.04909 0.28395 0.32176
 H361 H 0.07441 0.22522 0.35193
 H362 H -0.04397 0.23859 0.39065
 H363 H -0.07803 0.23468 0.36831
 H364 H -0.04192 0.24418 0.30368
 H365 H -0.00850 0.24778 0.32725
 C366 C 0.00449 0.18393 0.42462
 C367 C -0.00496 0.31066 0.42473
 C368 C -0.06250 0.23921 0.33430
 C369 C 0.06421 0.25481 0.33499
 C370 C 0.01327 0.72224 0.08959
 H371 H 0.02764 0.73220 0.08904
 C372 C 0.01225 0.70334 0.07581
 H373 H 0.02586 0.69875 0.06461
 C374 C -0.02180 0.71567 0.10527
 H375 H -0.03490 0.72024 0.11706
 C376 C -0.02347 0.69666 0.09180
 H377 H -0.03790 0.68681 0.09318
 N378 N -0.00368 0.72814 0.10384
 C379 C 0.00192 0.79836 0.11465
 H380 H 0.00101 0.79915 0.13374
 C381 C 0.00369 0.81743 0.10161
 H382 H 0.00414 0.83294 0.11070
 C383 C 0.00222 0.77724 0.07947
 H384 H 0.00137 0.76160 0.07085
 C385 C 0.00398 0.79596 0.06575
 H386 H 0.00462 0.79461 0.04665
 Zn387 Zn -0.00099 0.75365 0.12287
 N388 N 0.00146 0.77873 0.10351
 C389 C 0.04084 0.76498 0.13978
 N390 N 0.02440 0.75043 0.14167
 C391 C 0.02621 0.73285 0.15596
 C392 C 0.04497 0.72958 0.16929
 C393 C 0.05982 0.76232 0.15278
 C394 C -0.04517 0.76160 0.13092
 C395 C -0.06451 0.76399 0.14373
 C396 C -0.04456 0.75831 0.17975
 C397 C -0.02555 0.75604 0.16622
 N398 N -0.02624 0.75736 0.14221
 H399 H 0.03945 0.77854 0.12794
 H400 H 0.01312 0.72128 0.15686
 H401 H 0.04628 0.71552 0.18054
 H402 H 0.07280 0.77397 0.15103
 H403 H -0.04526 0.76283 0.11186
 H404 H -0.07949 0.76700 0.13438
 H405 H -0.04382 0.75689 0.19881
 H406 H -0.01033 0.75306 0.17494
 C407 C 0.00481 0.81625 0.07692
 C408 C -0.00630 0.69041 0.07691
 C409 C -0.06430 0.76218 0.16839
 C410 C 0.06196 0.74447 0.16767
 C411 C 0.51424 0.22171 0.58841
 H412 H 0.52863 0.23163 0.58780
 C413 C 0.51312 0.20282 0.57462
 H414 H 0.52668 0.19821 0.56335
 C415 C 0.47921 0.21520 0.60424
 H416 H 0.46617 0.21979 0.61610
 C417 C 0.47745 0.19620 0.59076
 H418 H 0.46300 0.18639 0.59220
 N419 N 0.49736 0.22763 0.60274
 C420 C 0.50322 0.29783 0.61367
 H421 H 0.50240 0.29858 0.63277
 C422 C 0.50494 0.31693 0.60067
 H423 H 0.50544 0.33241 0.60979
 C424 C 0.50330 0.27679 0.57844
 H425 H 0.50238 0.26116 0.56979
 C426 C 0.50501 0.29553 0.56475
 H427 H 0.50552 0.29422 0.54565
 Zn428 Zn 0.50019 0.25311 0.62180
 N429 N 0.50267 0.27823 0.60248
 C430 C 0.54206 0.26428 0.63874
 N431 N 0.52558 0.24977 0.64055
 C432 C 0.52731 0.23216 0.65481
 C433 C 0.54601 0.22883 0.66822
 C434 C 0.56099 0.26156 0.65182
 C435 C 0.45603 0.26116 0.63007
 C436 C 0.43677 0.26365 0.64301
 C437 C 0.45690 0.25804 0.67889
 C438 C 0.47583 0.25566 0.66526
 N439 N 0.47501 0.25690 0.64124
 H440 H 0.54073 0.27787 0.62693
 H441 H 0.51418 0.22063 0.65566
 H442 H 0.54724 0.21477 0.67948
 H443 H 0.57400 0.27320 0.65016
 H444 H 0.45583 0.26233 0.61100
 H445 H 0.42172 0.26668 0.63387
 H446 H 0.45764 0.25670 0.69794
 H447 H 0.49108 0.25268 0.67390
 C448 C 0.50591 0.31580 0.57597
 C449 C 0.49455 0.18993 0.57579
 C450 C 0.43715 0.26193 0.66765
 C451 C 0.56303 0.24369 0.66671
 C452 C 0.51466 0.77871 0.91125
 H453 H 0.52889 0.76844 0.91200
 C454 C 0.51362 0.79777 0.92480
 H455 H 0.52706 0.80217 0.93603
 C456 C 0.48004 0.78595 0.89520
 H457 H 0.46714 0.78160 0.88332
 C458 C 0.47835 0.80512 0.90844
 H459 H 0.46411 0.81531 0.90679
 N460 N 0.49796 0.77310 0.89690
 C461 C 0.50281 0.70289 0.88572
 H462 H 0.50210 0.70232 0.86662
 C463 C 0.50406 0.68364 0.89849
 H464 H 0.50431 0.66822 0.88920
 C465 C 0.50309 0.72363 0.92117
 H466 H 0.50245 0.73921 0.92997
 C467 C 0.50433 0.70472 0.93464
 H468 H 0.50476 0.70583 0.95375
 Zn469 Zn 0.50072 0.74755 0.87790
 N470 N 0.50258 0.72239 0.89712
 C471 C 0.54272 0.73542 0.86140
 N472 N 0.52645 0.75023 0.85919
 C473 C 0.52875 0.76767 0.84478
 C474 C 0.54789 0.77056 0.83170
 C475 C 0.56205 0.73769 0.84866
 C476 C 0.45672 0.74023 0.87012
 C477 C 0.43749 0.73797 0.85750
 C478 C 0.45766 0.74344 0.82129
 C479 C 0.47659 0.74559 0.83462
 N480 N 0.47573 0.74428 0.85864
 H481 H 0.54094 0.72197 0.87334
 H482 H 0.51578 0.77946 0.84364
 H483 H 0.54961 0.78453 0.82039
 H484 H 0.57491 0.72585 0.85070
 H485 H 0.45650 0.73902 0.88919
 H486 H 0.42242 0.73508 0.86689
 H487 H 0.45841 0.74481 0.80223
 H488 H 0.49186 0.74843 0.82576
 C489 C 0.50489 0.68453 0.92318
 C490 C 0.49529 0.81112 0.92337
 C491 C 0.43790 0.73972 0.83287
 C492 C 0.56473 0.75542 0.83370
 C493 C -0.22731 0.63678 0.97610
 H494 H -0.21822 0.63718 0.99237
 C495 C -0.22018 0.64861 0.95659
 H496 H -0.20571 0.65840 0.95785
 C497 C -0.25709 0.62320 0.95432
 H498 H -0.27116 0.61292 0.95332
 C499 C -0.25052 0.63474 0.93444
 H500 H -0.25981 0.63363 0.91831
 N501 N -0.24557 0.62455 0.97468
 C502 C -0.26632 0.61468 1.04753
 H503 H -0.26709 0.59717 1.04759
 C504 C -0.27197 0.62646 1.06782
 H505 H -0.27685 0.61799 1.08369
 C506 C -0.25898 0.64710 1.02671
 H507 H -0.25421 0.65505 1.01055
 C508 C -0.26449 0.65952 1.04662
 H509 H -0.26355 0.67704 1.04586
 Zn510 Zn -0.25319 0.60759 1.00105
 N511 N -0.25972 0.62509 1.02764
 C512 C -0.21786 0.59133 1.02742
 N513 N -0.22919 0.58959 1.00695
 C514 C -0.22210 0.57681 0.98876
 C515 C -0.20260 0.56546 0.99055
 C516 C -0.19825 0.58026 1.02993
 C517 C -0.29674 0.60291 0.99161
 C518 C -0.31645 0.59235 0.98873
 C519 C -0.29778 0.55803 0.99260
 C520 C -0.27834 0.56927 0.99537
 N521 N -0.27823 0.59131 0.99483
 H522 H -0.22347 0.60205 1.04138
 H523 H -0.23120 0.57615 0.97252
 H524 H -0.19669 0.55589 0.97569
 H525 H -0.18890 0.58229 1.04591
 H526 H -0.29618 0.62043 0.99170
 H527 H -0.33117 0.60173 0.98653
 H528 H -0.29791 0.54050 0.99346
 H529 H -0.26352 0.56041 0.99854
 C530 C -0.27097 0.64908 1.06737
 C531 C -0.23191 0.64751 0.93559
 C532 C -0.31698 0.56974 0.98940
 C533 C -0.19043 0.56749 1.01117
 C534 C -0.22388 0.36261 0.53084
 H535 H -0.21458 0.36164 0.51456
 C536 C -0.21780 0.35112 0.54965
 H537 H -0.20363 0.34073 0.54859
 C538 C -0.25402 0.37837 0.55160
 H539 H -0.26765 0.38937 0.55256
 C540 C -0.24803 0.36590 0.57267
 H541 H -0.25787 0.36740 0.58858
 N542 N -0.24275 0.37638 0.53214
 C543 C -0.26222 0.38623 0.45924
 H544 H -0.26268 0.40376 0.45912
 C545 C -0.26814 0.37455 0.43913
 H546 H -0.27290 0.38306 0.42330
 C547 C -0.25557 0.35368 0.48009
 H548 H -0.25101 0.34566 0.49622
 C549 C -0.26136 0.34136 0.46032
 H550 H -0.26086 0.32383 0.46109
 Zn551 Zn -0.24958 0.39327 0.50552
 N552 N -0.25588 0.37571 0.47908
 C553 C -0.21385 0.40869 0.47888
 N554 N -0.22535 0.41083 0.49940
 C555 C -0.21849 0.42394 0.51724
 C556 C -0.19913 0.43533 0.51497
 C557 C -0.19438 0.41980 0.47588
 C558 C -0.29321 0.39857 0.51448
 C559 C -0.31306 0.40925 0.51647
 C560 C -0.29442 0.44339 0.51186
 C561 C -0.27483 0.43201 0.51002
 N562 N -0.27466 0.40999 0.51126
 H563 H -0.21928 0.39774 0.46519
 H564 H -0.22775 0.42495 0.53353
 H565 H -0.19345 0.44528 0.52950
 H566 H -0.18497 0.41755 0.45980
 H567 H -0.29258 0.38105 0.51492
 H568 H -0.32779 0.39993 0.51856
 H569 H -0.29456 0.46088 0.51029
 H570 H -0.25994 0.44070 0.50685
 C571 C -0.26768 0.35193 0.43968
 C572 C -0.23065 0.35282 0.57175
 C573 C -0.31370 0.43183 0.51489
 C574 C -0.18686 0.43301 0.49422
 C575 C 0.27610 -0.13679 0.03000
 H576 H 0.28542 -0.13774 0.01374
 C577 C 0.28215 -0.14832 0.04880
 H578 H 0.29632 -0.15872 0.04773
 C579 C 0.24595 -0.12105 0.05077
 H580 H 0.23233 -0.11004 0.05173
 C581 C 0.25191 -0.13356 0.07182
 H582 H 0.24205 -0.13208 0.08771
 N583 N 0.25723 -0.12301 0.03131
 C584 C 0.23777 -0.11306 -0.04159
 H585 H 0.23729 -0.09553 -0.04168
 C586 C 0.23188 -0.12472 -0.06172
 H587 H 0.22711 -0.11619 -0.07754
 C588 C 0.24446 -0.14563 -0.02079
 H589 H 0.24902 -0.15367 -0.00467
 C590 C 0.23869 -0.15793 -0.04058
 H591 H 0.23921 -0.17546 -0.03984
 Zn592 Zn 0.25041 -0.10608 0.00472
 N593 N 0.24412 -0.12361 -0.02176
 C594 C 0.28612 -0.09061 -0.02190
 N595 N 0.27463 -0.08849 -0.00137
 C596 C 0.28149 -0.07540 0.01649
 C597 C 0.30085 -0.06401 0.01423
 C598 C 0.30559 -0.07949 -0.02488
 C599 C 0.20677 -0.10087 0.01367
 C600 C 0.18691 -0.09023 0.01575
 C601 C 0.20549 -0.05603 0.01132
 C602 C 0.22510 -0.06738 0.00938
 N603 N 0.22530 -0.08940 0.01050
 H604 H 0.28069 -0.10154 -0.03560
 H605 H 0.27223 -0.07441 0.03279
 H606 H 0.30653 -0.05409 0.02878
 H607 H 0.31500 -0.08173 -0.04096
 H608 H 0.20743 -0.11839 0.01402
 H609 H 0.17220 -0.09958 0.01781
 H610 H 0.20532 -0.03853 0.00988
 H611 H 0.23997 -0.05865 0.00626
 C612 C 0.23237 -0.14734 -0.06121
 C613 C 0.26928 -0.14665 0.07089
 C614 C 0.18623 -0.06764 0.01432
 C615 C 0.31312 -0.06631 -0.00652
 C616 C 0.27283 1.13620 0.47635
 H617 H 0.28197 1.13663 0.49258
 C618 C 0.27989 1.14800 0.45679
 H619 H 0.29437 1.15780 0.45798
 C620 C 0.24299 1.12257 0.45472
 H621 H 0.22892 1.11228 0.45379
 C622 C 0.24949 1.13408 0.43479
 H623 H 0.24015 1.13294 0.41870
 N624 N 0.25457 1.12397 0.47503
 C625 C 0.23407 1.11420 0.54797
 H626 H 0.23334 1.09669 0.54808
 C627 C 0.22840 1.12602 0.56822
 H628 H 0.22353 1.11763 0.58414
 C629 C 0.24129 1.14659 0.52705
 H630 H 0.24601 1.15452 0.51087
 C631 C 0.23575 1.15904 0.54693
 H632 H 0.23660 1.17655 0.54618
 Zn633 Zn 0.24703 1.10705 0.50145
 N634 N 0.24061 1.12458 0.52804
 C635 C 0.28245 1.09078 0.52765
 N636 N 0.27101 1.08901 0.50726
 C637 C 0.27799 1.07619 0.48905
 C638 C 0.29749 1.06484 0.49072
 C639 C 0.30208 1.07970 0.53004
 C640 C 0.20345 1.10249 0.49221
 C641 C 0.18370 1.09201 0.48943
 C642 C 0.20225 1.05762 0.49326
 C643 C 0.22174 1.06879 0.49593
 N644 N 0.22193 1.09083 0.49537
 H645 H 0.27693 1.10152 0.54162
 H646 H 0.26880 1.07552 0.47286
 H647 H 0.30332 1.05525 0.47584
 H648 H 0.31152 1.08176 0.54595
 H649 H 0.20408 1.12001 0.49228
 H650 H 0.16900 1.10144 0.48728
 H651 H 0.20206 1.04010 0.49414
 H652 H 0.23655 1.05988 0.49904
 C653 C 0.22930 1.14863 0.56769
 C654 C 0.26810 1.14687 0.43584
 C655 C 0.18308 1.06940 0.49013
 C656 C 0.30978 1.06691 0.51125
 C657 C 0.16557 0.47264 0.27020
 H658 H 0.16710 0.48706 0.28106
 C659 C 0.17741 0.45396 0.27565
 H660 H 0.18823 0.45396 0.29062
 C661 C 0.14928 0.45468 0.23770
 H662 H 0.13799 0.45474 0.22325
 C663 C 0.16073 0.43578 0.24251
 H664 H 0.15843 0.42153 0.23152
 N665 N 0.15207 0.47274 0.25127
 C666 C 0.14325 0.53943 0.22879
 H667 H 0.12590 0.53910 0.22628
 C668 C 0.15468 0.55850 0.22493
 H669 H 0.14613 0.57296 0.21945
 C670 C 0.17548 0.52120 0.23997
 H671 H 0.18347 0.50666 0.24595
 C672 C 0.18755 0.54001 0.23637
 H673 H 0.20479 0.54001 0.23980
 Zn674 Zn 0.13569 0.49782 0.24429
 N675 N 0.15364 0.52148 0.23679
 C676 C 0.12135 0.52461 0.28209
 N677 N 0.11869 0.50502 0.27124
 C678 C 0.10514 0.48986 0.28039
 C679 C 0.09350 0.49422 0.30119
 C680 C 0.11003 0.52961 0.30287
 C681 C 0.12949 0.48955 0.19675
 C682 C 0.11844 0.48474 0.17600
 C683 C 0.08474 0.48618 0.19813
 C684 C 0.09649 0.49094 0.21854
 N685 N 0.11848 0.49227 0.21749
 H686 H 0.13263 0.53624 0.27503
 H687 H 0.10368 0.47425 0.27172
 H688 H 0.08293 0.48198 0.30854
 H689 H 0.11247 0.54512 0.31154
 H690 H 0.14696 0.49089 0.19645
 H691 H 0.12746 0.48258 0.15961
 H692 H 0.06722 0.48517 0.19910
 H693 H 0.08805 0.49351 0.23514
 C694 C 0.17693 0.55889 0.22919
 C695 C 0.17495 0.43542 0.26155
 C696 C 0.09587 0.48292 0.17669
 C697 C 0.09607 0.51426 0.31255
 C698 C -0.16464 1.02572 0.27436
 H699 H -0.16661 1.01130 0.28490
 C700 C -0.17645 1.04451 0.27999
 H701 H -0.18768 1.04460 0.29480
 C702 C -0.14739 1.04354 0.24238
 H703 H -0.13577 1.04339 0.22804
 C704 C -0.15877 1.06254 0.24740
 H705 H -0.15608 1.07676 0.23666
 N706 N -0.15074 1.02548 0.25553
 C707 C -0.14279 0.95877 0.23148
 H708 H -0.12541 0.95883 0.22884
 C709 C -0.15448 0.93989 0.22736
 H710 H -0.14612 0.92530 0.22154
 C711 C -0.17482 0.97749 0.24329
 H712 H -0.18263 0.99214 0.24959
 C713 C -0.18715 0.95888 0.23943
 H714 H -0.20442 0.95915 0.24302
 Zn715 Zn -0.13469 1.00019 0.24778
 N716 N -0.15296 0.97686 0.23995
 C717 C -0.12096 0.97303 0.28479
 N718 N -0.11788 0.99260 0.27433
 C719 C -0.10411 1.00748 0.28366
 C720 C -0.09271 1.00284 0.30427
 C721 C -0.10989 0.96776 0.30537
 C722 C -0.12852 1.00858 0.20040
 C723 C -0.11760 1.01389 0.17963
 C724 C -0.08383 1.01262 0.20101
 C725 C -0.09545 1.00734 0.22149
 N726 N -0.11742 1.00574 0.22084
 H727 H -0.13242 0.96164 0.27761
 H728 H -0.10233 1.02309 0.27532
 H729 H -0.08199 1.01487 0.31180
 H730 H -0.11270 0.95228 0.31375
 H731 H -0.14597 1.00707 0.20043
 H732 H -0.12665 1.01626 0.16350
 H733 H -0.06634 1.01396 0.20162
 H734 H -0.08694 1.00472 0.23784
 C735 C -0.17677 0.93985 0.23182
 C736 C -0.17350 1.06301 0.26622
 C737 C -0.09508 1.01611 0.17996
 C738 C -0.09574 0.98283 0.31525
 C739 C 0.33473 0.52586 -0.22575
 H740 H 0.33266 0.51151 -0.21513
 C741 C 0.32306 0.54476 -0.22020
 H742 H 0.31183 0.54499 -0.20539
 C743 C 0.35208 0.54342 -0.25783
 H744 H 0.36369 0.54314 -0.27218
 C745 C 0.34084 0.56252 -0.25291
 H746 H 0.34362 0.57668 -0.26373
 N747 N 0.34861 0.52544 -0.24458
 C748 C 0.35690 0.45762 -0.26895
 H749 H 0.37422 0.45783 -0.27201
 C750 C 0.34569 0.43952 -0.27285
 H751 H 0.35395 0.42502 -0.27910
 C752 C 0.32520 0.47741 -0.25697
 H753 H 0.31740 0.49200 -0.25052
 C754 C 0.31217 0.45771 -0.26088
 H755 H 0.29498 0.45802 -0.25681
 Zn756 Zn 0.36451 0.50002 -0.25224
 N757 N 0.34615 0.47676 -0.26002
 C758 C 0.37819 0.47278 -0.21530
 N759 N 0.38128 0.49238 -0.22569
 C760 C 0.39507 0.50722 -0.21633
 C761 C 0.40650 0.50252 -0.19575
 C762 C 0.38929 0.46744 -0.19475
 C763 C 0.37079 0.50817 -0.29966
 C764 C 0.38177 0.51343 -0.32042
 C765 C 0.41546 0.51222 -0.29895
 C766 C 0.40381 0.50699 -0.27848
 N767 N 0.38184 0.50539 -0.27918
 H768 H 0.36674 0.46142 -0.22253
 H769 H 0.39687 0.52286 -0.22463
 H770 H 0.41724 0.51451 -0.18821
 H771 H 0.38649 0.45194 -0.18642
 H772 H 0.35333 0.50668 -0.29968
 H773 H 0.37280 0.51578 -0.33659
 H774 H 0.43294 0.51360 -0.29835
 H775 H 0.41228 0.50443 -0.26210
 C776 C 0.32215 0.43942 -0.26801
 C777 C 0.32612 0.56318 -0.23408
 C778 C 0.40426 0.51566 -0.32002
 C779 C 0.40347 0.48248 -0.18484
 C780 C 0.66777 -0.02736 -0.22883
 H781 H 0.66940 -0.01297 -0.21794
 C782 C 0.67903 -0.04533 -0.22373
 H783 H 0.68985 -0.04548 -0.20875
 C784 C 0.65057 -0.04437 -0.26177
 H785 H 0.63918 -0.04430 -0.27610
 C786 C 0.66262 -0.06439 -0.25688
 H787 H 0.66018 -0.07848 -0.26812
 N788 N 0.65340 -0.02711 -0.24877
 C789 C 0.64454 0.03968 -0.27085
 H790 H 0.62719 0.03934 -0.27339
 C791 C 0.65595 0.05877 -0.27463
 H792 H 0.64735 0.07322 -0.28008
 C793 C 0.67676 0.02143 -0.25967
 H794 H 0.68474 0.00688 -0.25372
 C795 C 0.68884 0.04026 -0.26318
 H796 H 0.70608 0.04020 -0.25971
 Zn797 Zn 0.63700 -0.00196 -0.25550
 N798 N 0.65493 0.02171 -0.26290
 C799 C 0.62277 0.02467 -0.21752
 N800 N 0.62010 0.00511 -0.22843
 C801 C 0.60657 -0.01009 -0.21931
 C802 C 0.59494 -0.00577 -0.19849
 C803 C 0.61146 0.02962 -0.19672
 C804 C 0.63059 -0.00989 -0.30308
 C805 C 0.61947 -0.01474 -0.32376
 C806 C 0.58589 -0.01364 -0.30145
 C807 C 0.59769 -0.00882 -0.28109
 N808 N 0.61967 -0.00733 -0.28225
 H809 H 0.63403 0.03632 -0.22457
 H810 H 0.60510 -0.02567 -0.22802
 H811 H 0.58436 -0.01802 -0.19117
 H812 H 0.61389 0.04512 -0.18802
 H813 H 0.64805 -0.00844 -0.30347
 H814 H 0.62832 -0.01684 -0.34024
 H815 H 0.56840 -0.01485 -0.30049
 H816 H 0.58930 -0.00639 -0.26444
 C817 C 0.67821 0.05918 -0.27032
 C818 C 0.67633 -0.06489 -0.23868
 C819 C 0.59695 -0.01678 -0.32291
 C820 C 0.59749 0.01425 -0.18708
 C821 C 0.02942 0.26545 0.83866
 H822 H 0.01913 0.27966 0.83787
 C823 C 0.04852 0.26443 0.82516
 H824 H 0.05292 0.27788 0.81393
 C825 C 0.03668 0.23084 0.85474
 H826 H 0.03232 0.21794 0.86661
 C827 C 0.05589 0.22918 0.84155
 H828 H 0.06609 0.21495 0.84324
 N829 N 0.02380 0.24874 0.85300
 C830 C -0.04644 0.25351 0.86402
 H831 H -0.04704 0.25281 0.88311
 C832 C -0.06566 0.25471 0.85120
 H833 H -0.08110 0.25494 0.86046
 C834 C -0.02564 0.25380 0.82861
 H835 H -0.01004 0.25318 0.81984
 C836 C -0.04452 0.25500 0.81510
 H837 H -0.04338 0.25541 0.79599
 Zn838 Zn -0.00179 0.25147 0.87193
 N839 N -0.02691 0.25330 0.85266
 C840 C -0.01402 0.29343 0.88850
 N841 N 0.00082 0.27718 0.89068
 C842 C 0.01823 0.27946 0.90513
 C843 C 0.02105 0.29855 0.91831
 C844 C -0.01181 0.31272 0.90134
 C845 C -0.00905 0.20744 0.87974
 C846 C -0.01134 0.18823 0.89240
 C847 C -0.00609 0.20848 0.92859
 C848 C -0.00390 0.22738 0.91522
 N849 N -0.00509 0.22648 0.89120
 H850 H -0.02743 0.29167 0.87653
 H851 H 0.03003 0.26650 0.90625
 H852 H 0.03498 0.30025 0.92968
 H853 H -0.02367 0.32556 0.89934
 H854 H -0.01017 0.20719 0.86067
 H855 H -0.01416 0.17314 0.88303
 H856 H -0.00482 0.20927 0.94766
 H857 H -0.00114 0.24268 0.92407
 C858 C -0.06473 0.25552 0.82652
 C859 C 0.06190 0.24613 0.82664
 C860 C -0.00972 0.18869 0.91704
 C861 C 0.00587 0.31536 0.91637
 C862 C 0.47122 0.26333 0.16133
 H863 H 0.48119 0.27769 0.16197
 C864 C 0.45227 0.26228 0.17504
 H865 H 0.44767 0.27586 0.18627
 C866 C 0.46467 0.22832 0.14549
 H867 H 0.46927 0.21525 0.13367
 C868 C 0.44561 0.22662 0.15889
 H869 H 0.43576 0.21220 0.15741
 N870 N 0.47715 0.24642 0.14704
 C871 C 0.54739 0.25212 0.13644
 H872 H 0.54822 0.25130 0.11734
 C873 C 0.56643 0.25383 0.14953
 H874 H 0.58196 0.25431 0.14049
 C875 C 0.52621 0.25223 0.17158
 H876 H 0.51055 0.25134 0.18015
 C877 C 0.54489 0.25393 0.18535
 H878 H 0.54350 0.25446 0.20445
 Zn879 Zn 0.50271 0.24919 0.12810
 N880 N 0.52774 0.25160 0.14754
 C881 C 0.51405 0.29106 0.11126
 N882 N 0.49951 0.27461 0.10936
 C883 C 0.48197 0.27640 0.09502
 C884 C 0.47874 0.29513 0.08162
 C885 C 0.51143 0.31001 0.09820
 C886 C 0.51067 0.20500 0.11982
 C887 C 0.51319 0.18576 0.10686
 C888 C 0.50783 0.20596 0.07098
 C889 C 0.50540 0.22487 0.08463
 N890 N 0.50652 0.22402 0.10865
 H891 H 0.52758 0.28968 0.12313
 H892 H 0.47041 0.26330 0.09410
 H893 H 0.46473 0.29640 0.07030
 H894 H 0.52308 0.32299 0.09994
 H895 H 0.51174 0.20477 0.13890
 H896 H 0.51614 0.17068 0.11600
 H897 H 0.50659 0.20673 0.05192
 H898 H 0.50251 0.24015 0.07599
 C899 C 0.56520 0.25481 0.17423
 C900 C 0.43933 0.24374 0.17382
 C901 C 0.51161 0.18618 0.08221
 C902 C 0.49363 0.31211 0.08323
 C903 C -0.02911 0.76439 0.66217
 H904 H -0.01906 0.77871 0.66280
 C905 C -0.04723 0.76343 0.67534
 H906 H -0.05179 0.77699 0.68663
 C907 C -0.03488 0.72919 0.64562
 H908 H -0.03041 0.71613 0.63375
 C909 C -0.05499 0.72743 0.65985
 H910 H -0.06479 0.71295 0.65828
 N911 N -0.02290 0.74650 0.64704
 C912 C 0.04729 0.75223 0.63621
 H913 H 0.04810 0.75137 0.61712
 C914 C 0.06636 0.75396 0.64927
 H915 H 0.08187 0.75443 0.64019
 C916 C 0.02616 0.75242 0.67138
 H917 H 0.01050 0.75155 0.67998
 C918 C 0.04486 0.75415 0.68512
 H919 H 0.04350 0.75472 0.70422
 Zn920 Zn 0.00259 0.74930 0.62799
 N921 N 0.02767 0.75173 0.64734
 C922 C 0.01386 0.79119 0.61121
 N923 N -0.00068 0.77475 0.60930
 C924 C -0.01826 0.77657 0.59502
 C925 C -0.02153 0.79533 0.58169
 C926 C 0.01119 0.81018 0.59821
 C927 C 0.01066 0.70514 0.61963
 C928 C 0.01316 0.68590 0.60666
 C929 C 0.00752 0.70608 0.57082
 C930 C 0.00513 0.72499 0.58448
 N931 N 0.00639 0.72414 0.60849
 H932 H 0.02742 0.78980 0.62303
 H933 H -0.02981 0.76346 0.59409
 H934 H -0.03557 0.79663 0.57042
 H935 H 0.02285 0.82316 0.59995
 H936 H 0.01185 0.70492 0.63870
 H937 H 0.01620 0.67084 0.61578
 H938 H 0.00616 0.70684 0.55176
 H939 H 0.00213 0.74025 0.57586
 C940 C 0.06516 0.75500 0.67396
 C941 C -0.06097 0.74387 0.67413
 C942 C 0.01143 0.68631 0.58203
 C943 C -0.00665 0.81232 0.58330
 C944 C 0.52940 0.76492 0.33718
 H945 H 0.51911 0.77913 0.33639
 C946 C 0.54850 0.76391 0.32369
 H947 H 0.55290 0.77736 0.31246
 C948 C 0.53667 0.73033 0.35329
 H949 H 0.53231 0.71743 0.36517
 C950 C 0.55588 0.72867 0.34011
 H951 H 0.56609 0.71445 0.34181
 N952 N 0.52378 0.74822 0.35154
 C953 C 0.45354 0.75299 0.36265
 H954 H 0.45297 0.75226 0.38175
 C955 C 0.43429 0.75425 0.34988
 H956 H 0.41888 0.75448 0.35917
 C957 C 0.47428 0.75335 0.32721
 H958 H 0.48987 0.75274 0.31841
 C959 C 0.45537 0.75460 0.31374
 H960 H 0.45649 0.75507 0.29463
 Zn961 Zn 0.49820 0.75096 0.37050
 N962 N 0.47304 0.75279 0.35126
 C963 C 0.48598 0.79293 0.38704
 N964 N 0.50083 0.77668 0.38922
 C965 C 0.51825 0.77899 0.40365
 C966 C 0.52108 0.79810 0.41680
 C967 C 0.48819 0.81224 0.39985
 C968 C 0.49096 0.70692 0.37836
 C969 C 0.48870 0.68772 0.39104
 C970 C 0.49399 0.70800 0.42720
 C971 C 0.49615 0.72690 0.41381
 N972 N 0.49493 0.72597 0.38979
 H973 H 0.47256 0.79115 0.37509
 H974 H 0.53006 0.76604 0.40477
 H975 H 0.53502 0.79981 0.42815
 H976 H 0.47632 0.82507 0.39785
 H977 H 0.48981 0.70665 0.35929
 H978 H 0.48588 0.67262 0.38170
 H979 H 0.49529 0.70882 0.44627
 H980 H 0.49891 0.74221 0.42264
 C981 C 0.43519 0.75513 0.32520
 C982 C 0.56190 0.74561 0.32519
 C983 C 0.49036 0.68820 0.41568
 C984 C 0.50589 0.81490 0.41486
 B985 B -0.01320 0.01323 1.01443
 B986 B -0.02521 0.00787 0.98880
 B987 B -0.00536 0.02606 0.99006
 B988 B 0.01334 0.01770 1.00960
 B989 B 0.00450 -0.00660 1.02034
 B990 B -0.01976 -0.01249 1.00744
 B991 B 0.01101 -0.01109 0.97286
 B992 B 0.02301 -0.00570 0.99848
 B993 B 0.00316 -0.02390 0.99725
 B994 B -0.01554 -0.01555 0.97767
 B995 B -0.00669 0.00876 0.96692
 B996 B 0.01755 0.01466 0.97984
 B997 B 0.48702 0.51289 0.51348
 B998 B 0.47509 0.50748 0.48781
 B999 B 0.49493 0.52570 0.48911
 B1000 B 0.51357 0.51738 0.50874
 B1001 B 0.50472 0.49310 0.51949
 B1002 B 0.48051 0.48716 0.50652
 B1003 B 0.51138 0.48854 0.47204
 B1004 B 0.52329 0.49398 0.49769
 B1005 B 0.50346 0.47576 0.49643
 B1006 B 0.48482 0.48406 0.47677
 B1007 B 0.49368 0.50836 0.46600
 B1008 B 0.51788 0.51430 0.47899
 B1009 B 0.51277 0.99128 0.51281
 B1010 B 0.52502 0.99659 0.48718
 B1011 B 0.50504 0.97854 0.48826
 B1012 B 0.48625 0.98700 0.50812
 B1013 B 0.49518 1.01122 0.51926
 B1014 B 0.51958 1.01696 0.50626
 B1015 B 0.48906 1.01582 0.47191
 B1016 B 0.47683 1.01048 0.49753
 B1017 B 0.49682 1.02855 0.49647
 B1018 B 0.51561 1.02009 0.47658
 B1019 B 0.50667 0.99586 0.46544
 B1020 B 0.48229 0.99012 0.47846
 B1021 B 0.01254 0.49175 1.01435
 B1022 B 0.02488 0.49703 0.98876
 B1023 B 0.00491 0.47895 0.98980
 B1024 B -0.01396 0.48742 1.00955
 B1025 B -0.00511 0.51168 1.02068
 B1026 B 0.01933 0.51742 1.00777
 B1027 B -0.01105 0.51617 0.97328
 B1028 B -0.02337 0.51087 0.99886
 B1029 B -0.00341 0.52896 0.99785
 B1030 B 0.01547 0.52049 0.97806
 B1031 B 0.00661 0.49622 0.96694
 B1032 B -0.01781 0.49047 0.97986
 B1033 B 0.01476 0.51084 0.48068
 B1034 B 0.02734 0.50577 0.50600
 B1035 B 0.00745 0.52412 0.50525
 B1036 B -0.01168 0.51561 0.48621
 B1037 B -0.00306 0.49106 0.47527
 B1038 B 0.02149 0.48517 0.48754
 B1039 B -0.00850 0.48739 0.52292
 B1040 B -0.02107 0.49246 0.49763
 B1041 B -0.00118 0.47412 0.49837
 B1042 B 0.01794 0.48262 0.51742
 B1043 B 0.00931 0.50716 0.52836
 B1044 B -0.01522 0.51306 0.51609
 B1045 B 0.51507 0.01094 -0.01961
 B1046 B 0.52747 0.00573 0.00577
 B1047 B 0.50767 0.02418 0.00496
 B1048 B 0.48861 0.01583 -0.01425
 B1049 B 0.49718 -0.00873 -0.02523
 B1050 B 0.52163 -0.01478 -0.01281
 B1051 B 0.49146 -0.01254 0.02237
 B1052 B 0.47905 -0.00732 -0.00299
 B1053 B 0.49886 -0.02575 -0.00218
 B1054 B 0.51790 -0.01741 0.01703
 B1055 B 0.50932 0.00713 0.02802
 B1056 B 0.48489 0.01319 0.01559
 B1057 B 0.48378 0.48588 -0.01798
 B1058 B 0.47143 0.49148 0.00765
 B1059 B 0.49139 0.47319 0.00651
 B1060 B 0.51030 0.48134 -0.01316
 B1061 B 0.50147 0.50560 -0.02410
 B1062 B 0.47701 0.51168 -0.01118
 B1063 B 0.50733 0.51040 0.02333
 B1064 B 0.51969 0.50478 -0.00226
 B1065 B 0.49973 0.52305 -0.00113
 B1066 B 0.48083 0.51493 0.01855
 B1067 B 0.48967 0.49068 0.02950
 B1068 B 0.51411 0.48459 0.01657
 B1069 B -0.01642 0.98638 0.48272
 B1070 B -0.02889 0.99194 0.50829
 B1071 B -0.00892 0.97366 0.50723
 B1072 B 0.01006 0.98184 0.48765
 B1073 B 0.00128 1.00611 0.47671
 B1074 B -0.02323 1.01217 0.48952
 B1075 B 0.00696 1.01086 0.52417
 B1076 B 0.01941 1.00527 0.49863
 B1077 B -0.00055 1.02354 0.49969
 B1078 B -0.01953 1.01539 0.51927
 B1079 B -0.01073 0.99112 0.53024
 B1080 B 0.01376 0.98506 0.51741
 B1081 B 0.76200 0.23595 0.23704
 B1082 B 0.75664 0.22407 0.26275
 B1083 B 0.77486 0.24388 0.26135
 B1084 B 0.76653 0.26250 0.24171
 B1085 B 0.74221 0.25365 0.23105
 B1086 B 0.73628 0.22947 0.24409
 B1087 B 0.73777 0.26040 0.27849
 B1088 B 0.74316 0.27226 0.25280
 B1089 B 0.72492 0.25245 0.25416
 B1090 B 0.73325 0.23384 0.27384
 B1091 B 0.75758 0.24269 0.28451
 B1092 B 0.76352 0.26686 0.27145
 B1093 B 0.74131 0.76269 0.73642
 B1094 B 0.74664 0.77533 0.76181
 B1095 B 0.72870 0.75522 0.76115
 B1096 B 0.73720 0.73621 0.74157
 B1097 B 0.76132 0.74511 0.73016
 B1098 B 0.76697 0.76972 0.74273
 B1099 B 0.76613 0.73969 0.77759
 B1100 B 0.76077 0.72707 0.75221
 B1101 B 0.77872 0.74717 0.75285
 B1102 B 0.77023 0.76619 0.77247
 B1103 B 0.74609 0.75727 0.78387
 B1104 B 0.74044 0.73268 0.77129
 B1105 B 0.26197 0.26548 0.76947
 B1106 B 0.25674 0.27794 0.74412
 B1107 B 0.27507 0.25802 0.74483
 B1108 B 0.26667 0.23900 0.76406
 B1109 B 0.24220 0.24771 0.77516
 B1110 B 0.23626 0.27221 0.76279
 B1111 B 0.23819 0.24205 0.72758
 B1112 B 0.24342 0.22959 0.75290
 B1113 B 0.22511 0.24951 0.75219
 B1114 B 0.23350 0.26852 0.73296
 B1115 B 0.25795 0.25979 0.72185
 B1116 B 0.26390 0.23531 0.73423
 B1117 B 0.23648 0.73441 0.26724
 B1118 B 0.24188 0.72197 0.24161
 B1119 B 0.22361 0.74196 0.24284
 B1120 B 0.23192 0.76091 0.26237
 B1121 B 0.25626 0.75210 0.27312
 B1122 B 0.26223 0.72761 0.26024
 B1123 B 0.26070 0.75784 0.22563
 B1124 B 0.25528 0.77026 0.25123
 B1125 B 0.27354 0.75029 0.25000
 B1126 B 0.26526 0.73134 0.23046
 B1127 B 0.24093 0.74017 0.21970
 B1128 B 0.23495 0.76464 0.23260
 B1129 B 0.26212 0.73645 0.73625
 B1130 B 0.25681 0.72454 0.76195
 B1131 B 0.27502 0.74437 0.76054
 B1132 B 0.26663 0.76300 0.74095
 B1133 B 0.24231 0.75415 0.73032
 B1134 B 0.23642 0.72994 0.74335
 B1135 B 0.23794 0.76084 0.77779
 B1136 B 0.24328 0.77273 0.75210
 B1137 B 0.22506 0.75291 0.75347
 B1138 B 0.23343 0.73427 0.77311
 B1139 B 0.25778 0.74314 0.78374
 B1140 B 0.26367 0.76733 0.77070
 B1141 B 0.24035 0.26194 0.23669
 B1142 B 0.24577 0.27453 0.26209
 B1143 B 0.22782 0.25445 0.26145
 B1144 B 0.23624 0.23546 0.24180
 B1145 B 0.26034 0.24437 0.23032
 B1146 B 0.26604 0.26895 0.24292
 B1147 B 0.26528 0.23885 0.27772
 B1148 B 0.25983 0.22628 0.25233
 B1149 B 0.27780 0.24637 0.25295
 B1150 B 0.26939 0.26536 0.27264
 B1151 B 0.24528 0.25644 0.28411
 B1152 B 0.23957 0.23188 0.27149
 B1153 B 0.76204 0.76502 0.26832
 B1154 B 0.75685 0.77748 0.24296
 B1155 B 0.77518 0.75757 0.24370
 B1156 B 0.76676 0.73855 0.26292
 B1157 B 0.74228 0.74725 0.27397
 B1158 B 0.73634 0.77175 0.26159
 B1159 B 0.73833 0.74158 0.22639
 B1160 B 0.74353 0.72913 0.25172
 B1161 B 0.72521 0.74904 0.25098
 B1162 B 0.73362 0.76805 0.23176
 B1163 B 0.75809 0.75933 0.22070
 B1164 B 0.76404 0.73486 0.23309
 B1165 B 0.73683 0.23362 0.76788
 B1166 B 0.74237 0.22124 0.74226
 B1167 B 0.72401 0.24113 0.74343
 B1168 B 0.73216 0.26011 0.76303
 B1169 B 0.75650 0.25140 0.77386
 B1170 B 0.76263 0.22695 0.76097
 B1171 B 0.76108 0.25721 0.72640
 B1172 B 0.75551 0.26958 0.75199
 B1173 B 0.77387 0.24970 0.75081
 B1174 B 0.76575 0.23073 0.73121
 B1175 B 0.74141 0.23945 0.72036
 B1176 B 0.73528 0.26389 0.73327
 C1177 C 0.45133 1.01249 0.39713
 C1178 C 0.42679 1.01698 0.39560
 C1179 C 0.43101 1.03099 0.37374
 C1180 C 0.45545 1.02648 0.37507
 C1181 C 0.45375 1.03279 0.41280
 C1182 C 0.45807 1.04683 0.39100
 C1183 C 0.42930 1.03729 0.41153
 C1184 C 0.43331 1.05138 0.38929
 C1185 C 0.41849 1.02794 0.35215
 C1186 C 0.40828 1.02374 0.33468
 C1187 C 0.46649 1.03090 0.43432
 C1188 C 0.47679 1.02627 0.45151
 H1189 H 0.45886 0.99645 0.40055
 H1190 H 0.41385 1.00464 0.39730
 H1191 H 0.46607 1.02195 0.35987
 H1192 H 0.47105 1.05914 0.38941
 H1193 H 0.41873 1.04177 0.42679
 H1194 H 0.42572 1.06735 0.38574
 C1195 C -0.07047 0.53745 0.91239
 C1196 C -0.06631 0.55151 0.89015
 C1197 C -0.06848 0.53109 0.87462
 C1198 C -0.07284 0.51712 0.89647
 C1199 C -0.04602 0.53297 0.91387
 C1200 C -0.04831 0.51265 0.89821
 C1201 C -0.04157 0.54699 0.89207
 C1202 C -0.04405 0.52661 0.87616
 C1203 C -0.08086 0.52800 0.85294
 C1204 C -0.09099 0.52377 0.83541
 C1205 C -0.03343 0.53114 0.93550
 C1206 C -0.02323 0.52655 0.95278
 H1207 H -0.08115 0.54194 0.92754
 H1208 H -0.07390 0.56746 0.88651
 H1209 H -0.08578 0.50476 0.89808
 H1210 H -0.04080 0.49662 0.90172
 H1211 H -0.02859 0.55931 0.89058
 H1212 H -0.03332 0.52207 0.86105
 C1213 C 0.04781 -0.00840 0.89648
 C1214 C 0.07240 -0.01254 0.89413
 C1215 C 0.06807 -0.02728 0.87271
 C1216 C 0.04359 -0.02313 0.87484
 C1217 C 0.04599 -0.02826 0.91261
 C1218 C 0.04157 -0.04303 0.89124
 C1219 C 0.07048 -0.03240 0.91053
 C1220 C 0.06636 -0.04722 0.88872
 C1221 C 0.08027 -0.02498 0.85062
 C1222 C 0.09032 -0.02171 0.83269
 C1223 C 0.03356 -0.02612 0.93457
 C1224 C 0.02339 -0.02144 0.95209
 H1225 H 0.04006 0.00761 0.89988
 H1226 H 0.08515 0.00006 0.89510
 H1227 H 0.03267 -0.01924 0.85994
 H1228 H 0.02878 -0.05559 0.89037
 H1229 H 0.08136 -0.03624 0.92547
 H1230 H 0.07416 -0.06317 0.88520
 C1231 C 0.57095 0.46744 0.40978
 C1232 C 0.56697 0.45242 0.38809
 C1233 C 0.56845 0.47227 0.37192
 C1234 C 0.57264 0.48720 0.39322
 C1235 C 0.54642 0.47132 0.41185
 C1236 C 0.54801 0.49109 0.39556
 C1237 C 0.54214 0.45635 0.39060
 C1238 C 0.54393 0.47617 0.37404
 C1239 C 0.58062 0.47456 0.34981
 C1240 C 0.59065 0.47781 0.33187
 C1241 C 0.53399 0.47347 0.43382
 C1242 C 0.52381 0.47817 0.45132
 H1243 H 0.58188 0.46381 0.42474
 H1244 H 0.57495 0.43653 0.38469
 H1245 H 0.58525 0.49995 0.39408
 H1246 H 0.54009 0.50703 0.39885
 H1247 H 0.52949 0.44365 0.38984
 H1248 H 0.53295 0.47983 0.35913
 C1249 C 0.56679 0.53644 0.08259
 C1250 C 0.56170 0.55024 0.10508
 C1251 C 0.56650 0.53031 0.12035
 C1252 C 0.57180 0.51662 0.09825
 C1253 C 0.54294 0.52951 0.08185
 C1254 C 0.54784 0.50970 0.09723
 C1255 C 0.53755 0.54324 0.10389
 C1256 C 0.54265 0.52338 0.11952
 C1257 C 0.57956 0.52869 0.14170
 C1258 C 0.59028 0.52557 0.15902
 C1259 C 0.52991 0.52640 0.06068
 C1260 C 0.51953 0.52110 0.04373
 H1261 H 0.57652 0.54182 0.06714
 H1262 H 0.56759 0.56690 0.10862
 H1263 H 0.58598 0.50562 0.09613
 H1264 H 0.54203 0.49297 0.09380
 H1265 H 0.52333 0.55420 0.10590
 H1266 H 0.53287 0.51796 0.13491
 C1267 C 0.06637 1.03673 0.58349
 C1268 C 0.06135 1.05058 0.60595
 C1269 C 0.06609 1.03067 0.62125
 C1270 C 0.07132 1.01692 0.59918
 C1271 C 0.04249 1.02989 0.58278
 C1272 C 0.04734 1.01008 0.59820
 C1273 C 0.03717 1.04368 0.60480
 C1274 C 0.04222 1.02383 0.62047
 C1275 C 0.07917 1.02905 0.64259
 C1276 C 0.08993 1.02594 0.65990
 C1277 C 0.02946 1.02681 0.56161
 C1278 C 0.01910 1.02153 0.54464
 H1279 H 0.07611 1.04205 0.56802
 H1280 H 0.06730 1.06724 0.60945
 H1281 H 0.08545 1.00587 0.59706
 H1282 H 0.04145 0.99337 0.59481
 H1283 H 0.02299 1.05469 0.60681
 H1284 H 0.03243 1.01847 0.63588
 C1285 C -0.06716 0.46387 0.58499
 C1286 C -0.06182 0.45016 0.60713
 C1287 C -0.06573 0.47033 0.62273
 C1288 C -0.07127 0.48396 0.60098
 C1289 C -0.04317 0.47018 0.58312
 C1290 C -0.04718 0.49027 0.59883
 C1291 C -0.03756 0.45653 0.60482
 C1292 C -0.04176 0.47665 0.62080
 C1293 C -0.07821 0.47212 0.64474
 C1294 C -0.08846 0.47494 0.66270
 C1295 C -0.03061 0.47261 0.56133
 C1296 C -0.02051 0.47733 0.54388
 H1297 H -0.07741 0.45859 0.56999
 H1298 H -0.06803 0.43368 0.61087
 H1299 H -0.08522 0.49528 0.59961
 H1300 H -0.04103 0.50680 0.59520
 H1301 H -0.02357 0.44524 0.60609
 H1302 H -0.03145 0.48197 0.63573
 C1303 C 0.43243 -0.03709 0.08379
 C1304 C 0.43803 -0.05021 0.10629
 C1305 C 0.43321 -0.02994 0.12142
 C1306 C 0.42740 -0.01690 0.09933
 C1307 C 0.45618 -0.02991 0.08210
 C1308 C 0.45126 -0.00973 0.09734
 C1309 C 0.46206 -0.04297 0.10415
 C1310 C 0.45695 -0.02275 0.11965
 C1311 C 0.42055 -0.02825 0.14332
 C1312 C 0.41018 -0.02551 0.16121
 C1313 C 0.46897 -0.02740 0.06048
 C1314 C 0.47925 -0.02263 0.04317
 H1315 H 0.42255 -0.04301 0.06878
 H1316 H 0.43240 -0.06685 0.11028
 H1317 H 0.41306 -0.00613 0.09756
 H1318 H 0.45683 0.00696 0.09345
 H1319 H 0.47644 -0.05370 0.10582
 H1320 H 0.46688 -0.01679 0.13460
 C1321 C 0.40166 0.44863 0.02771
 C1322 C 0.38309 0.45949 0.04216
 C1323 C 0.36785 0.45590 0.02118
 C1324 C 0.38610 0.44491 0.00679
 C1325 C 0.40749 0.47082 0.01744
 C1326 C 0.39224 0.46721 -0.00351
 C1327 C 0.38930 0.48187 0.03185
 C1328 C 0.37367 0.47810 0.01090
 C1329 C 0.34608 0.44681 0.02246
 C1330 C 0.32855 0.43839 0.02258
 C1331 C 0.42964 0.47859 0.01476
 C1332 C 0.44799 0.48453 0.01198
 H1333 H 0.41346 0.43662 0.03454
 H1334 H 0.37904 0.45623 0.06094
 H1335 H 0.38453 0.42962 -0.00351
 H1336 H 0.39631 0.47046 -0.02231
 H1337 H 0.39095 0.49716 0.04211
 H1338 H 0.36189 0.49010 0.00403
 C1339 C -0.09867 0.94892 0.52772
 C1340 C -0.11743 0.95971 0.54194
 C1341 C -0.13244 0.95603 0.52077
 C1342 C -0.11400 0.94512 0.50661
 C1343 C -0.09284 0.97113 0.51751
 C1344 C -0.10785 0.96744 0.49637
 C1345 C -0.11122 0.98210 0.53169
 C1346 C -0.12661 0.97825 0.51054
 C1347 C -0.15417 0.94683 0.52180
 C1348 C -0.17166 0.93832 0.52173
 C1349 C -0.07069 0.97899 0.51508
 C1350 C -0.05234 0.98497 0.51246
 H1351 H -0.08689 0.93697 0.53472
 H1352 H -0.12166 0.95644 0.56068
 H1353 H -0.11539 0.92981 0.49631
 H1354 H -0.10361 0.97069 0.47763
 H1355 H -0.10975 0.99742 0.54196
 H1356 H -0.13837 0.99019 0.50352
 C1357 C -0.10754 0.01968 0.96599
 C1358 C -0.12277 0.02334 0.98762
 C1359 C -0.12829 0.04598 0.97827
 C1360 C -0.11346 0.04253 0.95663
 C1361 C -0.08892 0.02978 0.98009
 C1362 C -0.09444 0.05242 0.97076
 C1363 C -0.10378 0.03327 1.00168
 C1364 C -0.10960 0.05601 0.99234
 C1365 C -0.14988 0.05578 0.97871
 C1366 C -0.16716 0.06472 0.98076
 C1367 C -0.06688 0.02139 0.98209
 C1368 C -0.04861 0.01506 0.98459
 H1369 H -0.10637 0.00462 0.95519
 H1370 H -0.13468 0.01149 0.99452
 H1371 H -0.11773 0.04643 0.93812
 H1372 H -0.08250 0.06427 0.96390
 H1373 H -0.09952 0.02940 1.02021
 H1374 H -0.11067 0.07106 1.00318
 C1375 C 0.39650 0.53293 0.50040
 C1376 C 0.39075 0.55567 0.49102
 C1377 C 0.37208 0.54566 0.47689
 C1378 C 0.37754 0.52302 0.48628
 C1379 C 0.41142 0.52941 0.47886
 C1380 C 0.39283 0.51933 0.46470
 C1381 C 0.40597 0.55205 0.46949
 C1382 C 0.38697 0.54218 0.45531
 C1383 C 0.35051 0.55549 0.47724
 C1384 C 0.33323 0.56444 0.47921
 C1385 C 0.43344 0.52099 0.48095
 C1386 C 0.45170 0.51466 0.48351
 H1387 H 0.40070 0.52906 0.51894
 H1388 H 0.38967 0.57073 0.50184
 H1389 H 0.36559 0.51119 0.49314
 H1390 H 0.39401 0.50426 0.45392
 H1391 H 0.41794 0.56388 0.46266
 H1392 H 0.38277 0.54608 0.43678
 C1393 C 0.09684 0.54928 0.52410
 C1394 C 0.11559 0.53886 0.53816
 C1395 C 0.13072 0.54233 0.51685
 C1396 C 0.11229 0.55288 0.50285
 C1397 C 0.09127 0.52685 0.51397
 C1398 C 0.10640 0.53035 0.49269
 C1399 C 0.10964 0.51626 0.52799
 C1400 C 0.12515 0.51991 0.50670
 C1401 C 0.15235 0.55177 0.51777
 C1402 C 0.16972 0.56051 0.51773
 C1403 C 0.06917 0.51883 0.51185
 C1404 C 0.05084 0.51276 0.50959
 H1405 H 0.08492 0.56123 0.53119
 H1406 H 0.11965 0.54246 0.55685
 H1407 H 0.11362 0.56804 0.49251
 H1408 H 0.10232 0.52677 0.47398
 H1409 H 0.10822 0.50109 0.53830
 H1410 H 0.13706 0.50796 0.49959
 C1411 C 0.60970 0.01586 0.02835
 C1412 C 0.62536 0.01930 0.00713
 C1413 C 0.63099 0.04176 0.01716
 C1414 C 0.61572 0.03849 0.03838
 C1415 C 0.59147 0.02647 0.01412
 C1416 C 0.59711 0.04892 0.02412
 C1417 C 0.60675 0.02975 -0.00709
 C1418 C 0.61270 0.05231 0.00295
 C1419 C 0.65266 0.05111 0.01816
 C1420 C 0.67005 0.05981 0.01819
 C1421 C 0.56934 0.01857 0.01189
 C1422 C 0.55098 0.01260 0.00953
 H1423 H 0.60814 0.00077 0.03875
 H1424 H 0.63725 0.00725 0.00019
 H1425 H 0.61969 0.04218 0.05708
 H1426 H 0.58521 0.06099 0.03104
 H1427 H 0.60276 0.02609 -0.02579
 H1428 H 0.61418 0.06740 -0.00749
 C1429 C 0.60760 0.98239 0.46436
 C1430 C 0.62239 0.97975 0.48620
 C1431 C 0.62754 0.95645 0.47817
 C1432 C 0.61314 0.95887 0.45634
 C1433 C 0.58853 0.97361 0.47895
 C1434 C 0.59367 0.95031 0.47094
 C1435 C 0.60296 0.97114 0.50075
 C1436 C 0.60839 0.94773 0.49274
 C1437 C 0.64887 0.94616 0.47915
 C1438 C 0.66589 0.93690 0.48152
 C1439 C 0.56662 0.98250 0.48049
 C1440 C 0.54840 0.98915 0.48282
 H1441 H 0.60695 0.99677 0.45271
 H1442 H 0.63447 0.99173 0.49245
 H1443 H 0.61761 0.95372 0.43809
 H1444 H 0.58157 0.93833 0.46473
 H1445 H 0.59849 0.97626 0.51901
 H1446 H 0.60894 0.93337 0.50442
 C1447 C 0.10745 0.48293 0.96597
 C1448 C 0.12232 0.48041 0.98777
 C1449 C 0.12749 0.45709 0.97983
 C1450 C 0.11302 0.45940 0.95803
 C1451 C 0.08844 0.47416 0.98067
 C1452 C 0.09361 0.45084 0.97275
 C1453 C 0.10294 0.47181 1.00242
 C1454 C 0.10840 0.44839 0.99450
 C1455 C 0.14883 0.44683 0.98075
 C1456 C 0.16586 0.43757 0.98307
 C1457 C 0.06652 0.48301 0.98222
 C1458 C 0.04828 0.48962 0.98450
 H1459 H 0.10673 0.49726 0.95426
 H1460 H 0.13439 0.49243 0.99393
 H1461 H 0.11745 0.45418 0.93980
 H1462 H 0.08152 0.43882 0.96663
 H1463 H 0.09852 0.47699 1.02068
 H1464 H 0.10902 0.43407 1.00624
 C1465 C -0.02773 0.39700 0.46959
 C1466 C -0.01522 0.39028 0.44682
 C1467 C -0.00726 0.36970 0.45926
 C1468 C -0.01977 0.37606 0.48192
 C1469 C -0.00741 0.40880 0.47838
 C1470 C 0.00057 0.38826 0.49087
 C1471 C 0.00507 0.40235 0.45574
 C1472 C 0.01303 0.38154 0.46805
 C1473 C -0.00669 0.34826 0.44774
 C1474 C -0.00596 0.33097 0.43757
 C1475 C -0.00662 0.43107 0.48769
 C1476 C -0.00496 0.44979 0.49369
 H1477 H -0.04449 0.40359 0.47036
 H1478 H -0.02168 0.39095 0.42859
 H1479 H -0.02999 0.36500 0.49258
 H1480 H 0.00703 0.38765 0.50910
 H1481 H 0.01530 0.41337 0.44503
 H1482 H 0.02982 0.37502 0.46730
 C1483 C 0.47243 -0.10237 -0.03234
 C1484 C 0.48572 -0.10922 -0.05453
 C1485 C 0.49280 -0.12998 -0.04183
 C1486 C 0.47949 -0.12350 -0.01976
 C1487 C 0.49256 -0.09097 -0.02251
 C1488 C 0.49966 -0.11170 -0.00976
 C1489 C 0.50583 -0.09755 -0.04457
 C1490 C 0.51292 -0.11855 -0.03199
 C1491 C 0.49342 -0.15138 -0.05346
 C1492 C 0.49422 -0.16862 -0.06370
 C1493 C 0.49333 -0.06874 -0.01309
 C1494 C 0.49500 -0.05005 -0.00699
 H1495 H 0.45577 -0.09550 -0.03234
 H1496 H 0.48003 -0.10836 -0.07306
 H1497 H 0.46866 -0.13442 -0.00966
 H1498 H 0.50536 -0.11249 0.00878
 H1499 H 0.51668 -0.08667 -0.05471
 H1500 H 0.52959 -0.12536 -0.03198
 C1501 C 0.00211 -0.10972 1.00701
 C1502 C 0.02210 -0.12125 1.01783
 C1503 C 0.00845 -0.12658 1.03989
 C1504 C -0.01149 -0.11541 1.02925
 C1505 C 0.00903 -0.08849 1.01908
 C1506 C -0.00457 -0.09391 1.04114
 C1507 C 0.02900 -0.09962 1.02972
 C1508 C 0.01536 -0.10531 1.05190
 C1509 C 0.00756 -0.14740 1.05235
 C1510 C 0.00644 -0.16413 1.06325
 C1511 C 0.00842 -0.06666 1.00890
 C1512 C 0.00687 -0.04815 1.00233
 H1513 H -0.00332 -0.11134 0.98842
 H1514 H 0.03307 -0.13273 1.00835
 H1515 H -0.02818 -0.12205 1.02919
 H1516 H -0.01556 -0.08247 1.05067
 H1517 H 0.04566 -0.09292 1.02976
 H1518 H 0.02078 -0.10363 1.07049
 C1519 C 0.50276 0.38992 0.50620
 C1520 C 0.52281 0.37850 0.51700
 C1521 C 0.50920 0.37306 0.53905
 C1522 C 0.48919 0.38412 0.52843
 C1523 C 0.50955 0.41118 0.51830
 C1524 C 0.49599 0.40565 0.54035
 C1525 C 0.52958 0.40016 0.52892
 C1526 C 0.51598 0.39436 0.55110
 C1527 C 0.50844 0.35221 0.55147
 C1528 C 0.50742 0.33545 0.56234
 C1529 C 0.50883 0.43302 0.50814
 C1530 C 0.50721 0.45152 0.50155
 H1531 H 0.49734 0.38829 0.48761
 H1532 H 0.53386 0.36710 0.50751
 H1533 H 0.47255 0.37738 0.52836
 H1534 H 0.48492 0.41701 0.54989
 H1535 H 0.54621 0.40696 0.52898
 H1536 H 0.52139 0.39605 0.56969
 C1537 C 0.49863 1.11432 0.50672
 C1538 C 0.47851 1.12627 0.51723
 C1539 C 0.49166 1.13185 0.53943
 C1540 C 0.51174 1.12026 0.52909
 C1541 C 0.49116 1.09339 0.51880
 C1542 C 0.50428 1.09906 0.54099
 C1543 C 0.47106 1.10494 0.52913
 C1544 C 0.48421 1.11089 0.55146
 C1545 C 0.49242 1.15293 0.55172
 C1546 C 0.49332 1.16993 0.56242
 C1547 C 0.49175 1.07141 0.50863
 C1548 C 0.49323 1.05283 0.50193
 H1549 H 0.50453 1.11553 0.48819
 H1550 H 0.46790 1.13769 0.50757
 H1551 H 0.52850 1.12672 0.52920
 H1552 H 0.51490 1.08767 0.55070
 H1553 H 0.45433 1.09843 0.52901
 H1554 H 0.47831 1.10962 0.56999
 C1555 C -0.00176 0.61475 1.00795
 C1556 C -0.02195 0.62668 1.01832
 C1557 C -0.00892 0.63230 1.04059
 C1558 C 0.01122 0.62073 1.03040
 C1559 C -0.00927 0.59382 1.02001
 C1560 C 0.00372 0.59953 1.04228
 C1561 C -0.02943 0.60536 1.03020
 C1562 C -0.01642 0.61135 1.05260
 C1563 C -0.00826 0.65339 1.05286
 C1564 C -0.00743 0.67040 1.06356
 C1565 C -0.00860 0.57183 1.00988
 C1566 C -0.00705 0.55325 1.00323
 H1567 H 0.00424 0.61594 0.98946
 H1568 H -0.03251 0.63808 1.00857
 H1569 H 0.02797 0.62721 1.03061
 H1570 H 0.01430 0.58817 1.05207
 H1571 H -0.04616 0.59883 1.02997
 H1572 H -0.02241 0.61010 1.07109
 C1573 C 0.49423 0.59398 -0.04440
 C1574 C 0.48637 0.61514 -0.03222
 C1575 C 0.50687 0.62657 -0.04124
 C1576 C 0.51473 0.60564 -0.05355
 C1577 C 0.50642 0.58790 -0.02178
 C1578 C 0.52695 0.59929 -0.03079
 C1579 C 0.49855 0.60880 -0.00942
 C1580 C 0.51910 0.62058 -0.01861
 C1581 C 0.50657 0.64772 -0.05302
 C1582 C 0.50594 0.66470 -0.06349
 C1583 C 0.50533 0.56585 -0.01229
 C1584 C 0.50351 0.54727 -0.00612
 H1585 H 0.48398 0.58284 -0.05495
 H1586 H 0.46966 0.62182 -0.03293
 H1587 H 0.52136 0.60450 -0.07182
 H1588 H 0.54364 0.59255 -0.03007
 H1589 H 0.49191 0.60987 0.00884
 H1590 H 0.52934 0.63177 -0.00811
 C1591 C 0.02657 1.09973 0.46983
 C1592 C 0.01417 1.10610 0.44719
 C1593 C 0.00647 1.12705 0.45955
 C1594 C 0.01887 1.12105 0.48207
 C1595 C 0.00609 1.08840 0.47906
 C1596 C -0.00163 1.10932 0.49147
 C1597 C -0.00628 1.09449 0.45655
 C1598 C -0.01399 1.11569 0.46879
 C1599 C 0.00613 1.14819 0.44774
 C1600 C 0.00548 1.16515 0.43722
 C1601 C 0.00502 1.06635 0.48856
 C1602 C 0.00322 1.04776 0.49473
 H1603 H 0.04324 1.09295 0.47039
 H1604 H 0.02065 1.10493 0.42886
 H1605 H 0.02923 1.13222 0.49245
 H1606 H -0.00812 1.11043 0.50980
 H1607 H -0.01664 1.08337 0.44612
 H1608 H -0.03069 1.12241 0.46824
 C1609 C 0.78836 0.68063 0.83841
 C1610 C 0.80227 0.68495 0.86072
 C1611 C 0.78185 0.68240 0.87616
 C1612 C 0.76802 0.67787 0.85424
 C1613 C 0.78349 0.70500 0.83699
 C1614 C 0.76316 0.70233 0.85257
 C1615 C 0.79736 0.70963 0.85886
 C1616 C 0.77697 0.70677 0.87469
 C1617 C 0.77885 0.66992 0.89779
 C1618 C 0.77465 0.65971 0.91526
 C1619 C 0.78148 0.71761 0.81540
 C1620 C 0.77672 0.72774 0.79812
 H1621 H 0.79307 0.67006 0.82324
 H1622 H 0.81834 0.67762 0.86439
 H1623 H 0.75589 0.66474 0.85254
 H1624 H 0.74702 0.70959 0.84902
 H1625 H 0.80945 0.72281 0.86044
 H1626 H 0.77221 0.71738 0.88981
 C1627 C 0.26281 0.20188 0.35302
 C1628 C 0.26729 0.17735 0.35464
 C1629 C 0.28155 0.18166 0.37628
 C1630 C 0.27706 0.20610 0.37485
 C1631 C 0.28293 0.20419 0.33705
 C1632 C 0.29723 0.20860 0.35862
 C1633 C 0.28741 0.17974 0.33842
 C1634 C 0.30176 0.18385 0.36043
 C1635 C 0.27868 0.16922 0.39795
 C1636 C 0.27457 0.15903 0.41546
 C1637 C 0.28079 0.21676 0.31544
 C1638 C 0.27594 0.22688 0.29819
 H1639 H 0.24674 0.20942 0.34977
 H1640 H 0.25491 0.16442 0.35320
 H1641 H 0.27272 0.21681 0.39004
 H1642 H 0.30957 0.22157 0.35995
 H1643 H 0.29170 0.16907 0.32317
 H1644 H 0.31776 0.17624 0.36381
 C1645 C 0.72338 0.32012 0.34056
 C1646 C 0.70488 0.32086 0.35929
 C1647 C 0.72178 0.31742 0.37874
 C1648 C 0.74019 0.31688 0.36033
 C1649 C 0.72077 0.29543 0.33878
 C1650 C 0.73760 0.29209 0.35832
 C1651 C 0.70228 0.29587 0.35710
 C1652 C 0.71917 0.29273 0.37698
 C1653 C 0.72409 0.32961 0.40082
 C1654 C 0.72735 0.33970 0.41873
 C1655 C 0.72284 0.28303 0.31678
 C1656 C 0.72748 0.27286 0.29924
 H1657 H 0.72507 0.33123 0.32533
 H1658 H 0.69145 0.33287 0.36000
 H1659 H 0.75583 0.32559 0.36186
 H1660 H 0.75108 0.28013 0.35771
 H1661 H 0.68669 0.28711 0.35545
 H1662 H 0.71751 0.28160 0.39220
 C1663 C 0.24069 0.79760 0.85425
 C1664 C 0.23680 0.82224 0.85652
 C1665 C 0.22190 0.81810 0.87786
 C1666 C 0.22580 0.79357 0.87581
 C1667 C 0.22091 0.79596 0.83800
 C1668 C 0.20597 0.79174 0.85928
 C1669 C 0.21702 0.82050 0.84000
 C1670 C 0.20203 0.81657 0.86172
 C1671 C 0.22419 0.83034 0.89992
 C1672 C 0.22742 0.84044 0.91782
 C1673 C 0.22301 0.78350 0.81605
 C1674 C 0.22766 0.77329 0.79854
 H1675 H 0.25663 0.78968 0.85096
 H1676 H 0.24954 0.83485 0.85560
 H1677 H 0.22949 0.78263 0.89075
 H1678 H 0.19327 0.77909 0.86010
 H1679 H 0.21337 0.83140 0.82501
 H1680 H 0.18615 0.82455 0.86513
 C1681 C 0.28592 0.81741 0.16618
 C1682 C 0.29962 0.81250 0.14358
 C1683 C 0.27956 0.81718 0.12848
 C1684 C 0.26596 0.82230 0.15070
 C1685 C 0.27920 0.79349 0.16690
 C1686 C 0.25925 0.79828 0.15169
 C1687 C 0.29283 0.78829 0.14473
 C1688 C 0.27283 0.79328 0.12927
 C1689 C 0.27771 0.83033 0.10720
 C1690 C 0.27442 0.84113 0.08996
 C1691 C 0.27634 0.78041 0.18807
 C1692 C 0.27122 0.77001 0.20508
 H1693 H 0.29132 0.82714 0.18162
 H1694 H 0.31621 0.81854 0.13993
 H1695 H 0.25486 0.83638 0.15296
 H1696 H 0.24259 0.79232 0.15522
 H1697 H 0.30389 0.77416 0.14258
 H1698 H 0.26739 0.78350 0.11389
 C1699 C 0.75950 0.29789 0.65269
 C1700 C 0.76630 0.32188 0.65167
 C1701 C 0.77976 0.31672 0.62936
 C1702 C 0.77294 0.29284 0.63018
 C1703 C 0.77951 0.29301 0.66777
 C1704 C 0.79301 0.28776 0.64551
 C1705 C 0.78633 0.31690 0.66702
 C1706 C 0.79988 0.31195 0.64433
 C1707 C 0.77785 0.32986 0.60808
 C1708 C 0.77453 0.34064 0.59084
 C1709 C 0.77670 0.27990 0.68892
 C1710 C 0.77160 0.26946 0.70591
 H1711 H 0.74284 0.29199 0.65632
 H1712 H 0.75527 0.33601 0.65400
 H1713 H 0.76738 0.28309 0.61483
 H1714 H 0.80400 0.27360 0.64328
 H1715 H 0.79184 0.32660 0.68243
 H1716 H 0.81648 0.31793 0.64058
 C1717 C 0.21411 0.18296 0.66634
 C1718 C 0.20027 0.18811 0.64425
 C1719 C 0.22034 0.18404 0.62854
 C1720 C 0.23410 0.17869 0.65024
 C1721 C 0.22046 0.20695 0.66789
 C1722 C 0.24044 0.20279 0.65208
 C1723 C 0.20668 0.21239 0.64624
 C1724 C 0.22669 0.20803 0.63016
 C1725 C 0.22202 0.17139 0.60664
 C1726 C 0.22480 0.16103 0.58876
 C1727 C 0.22307 0.21970 0.68952
 C1728 C 0.22794 0.22993 0.70682
 H1729 H 0.20892 0.17285 0.68149
 H1730 H 0.18376 0.18188 0.64071
 H1731 H 0.24542 0.16474 0.65167
 H1732 H 0.25700 0.20895 0.65551
 H1733 H 0.19539 0.22637 0.64490
 H1734 H 0.23193 0.21819 0.61507
 C1735 C 0.70690 0.71209 0.14497
 C1736 C 0.72692 0.70768 0.12891
 C1737 C 0.72047 0.68372 0.12722
 C1738 C 0.70040 0.68784 0.14291
 C1739 C 0.72063 0.70655 0.16663
 C1740 C 0.71419 0.68259 0.16501
 C1741 C 0.74061 0.70234 0.15084
 C1742 C 0.73417 0.67827 0.14893
 C1743 C 0.72212 0.67112 0.10529
 C1744 C 0.72488 0.66079 0.08737
 C1745 C 0.72325 0.71926 0.18828
 C1746 C 0.72811 0.72946 0.20561
 H1747 H 0.69567 0.72612 0.14365
 H1748 H 0.73221 0.71785 0.11385
 H1749 H 0.68386 0.68168 0.13932
 H1750 H 0.70893 0.67246 0.18013
 H1751 H 0.75720 0.70843 0.15431
 H1752 H 0.74544 0.66427 0.15034
 C1753 C 0.19861 0.65221 0.22272
 C1754 C 0.20918 0.63355 0.20816
 C1755 C 0.20587 0.61840 0.22929
 C1756 C 0.19517 0.63675 0.24379
 C1757 C 0.22098 0.65801 0.23252
 C1758 C 0.21765 0.64286 0.25362
 C1759 C 0.23174 0.63973 0.21801
 C1760 C 0.22825 0.62420 0.23911
 C1761 C 0.19669 0.59665 0.22822
 C1762 C 0.18820 0.57915 0.22818
 C1763 C 0.22885 0.68017 0.23492
 C1764 C 0.23486 0.69851 0.23748
 H1765 H 0.18653 0.66402 0.21604
 H1766 H 0.20561 0.62943 0.18947
 H1767 H 0.18003 0.63528 0.25438
 H1768 H 0.22121 0.64699 0.27233
 H1769 H 0.24687 0.64127 0.20744
 H1770 H 0.24032 0.61241 0.24581
 C1771 C 0.69936 0.15138 0.72324
 C1772 C 0.70998 0.13271 0.70875
 C1773 C 0.70664 0.11759 0.72989
 C1774 C 0.69588 0.13595 0.74433
 C1775 C 0.72171 0.15721 0.73310
 C1776 C 0.71834 0.14209 0.75422
 C1777 C 0.73251 0.13891 0.71864
 C1778 C 0.72898 0.12341 0.73976
 C1779 C 0.69743 0.09584 0.72884
 C1780 C 0.68889 0.07836 0.72881
 C1781 C 0.72953 0.17938 0.73549
 C1782 C 0.73548 0.19775 0.73808
 H1783 H 0.68729 0.16317 0.71652
 H1784 H 0.70645 0.12856 0.69005
 H1785 H 0.68073 0.13448 0.75488
 H1786 H 0.72185 0.14625 0.77292
 H1787 H 0.74767 0.14046 0.70812
 H1788 H 0.74105 0.11163 0.74652
 C1789 C 0.80172 0.15526 0.28039
 C1790 C 0.79232 0.13627 0.29495
 C1791 C 0.79543 0.12129 0.27338
 C1792 C 0.80496 0.13996 0.25886
 C1793 C 0.77882 0.16049 0.27161
 C1794 C 0.78197 0.14548 0.25008
 C1795 C 0.76921 0.14189 0.28616
 C1796 C 0.77254 0.12652 0.26458
 C1797 C 0.80548 0.09982 0.27289
 C1798 C 0.81463 0.08265 0.27080
 C1799 C 0.77024 0.18245 0.26960
 C1800 C 0.76383 0.20069 0.26706
 H1801 H 0.81359 0.16736 0.28681
 H1802 H 0.79668 0.13219 0.31339
 H1803 H 0.81978 0.13895 0.24764
 H1804 H 0.77764 0.14956 0.23162
 H1805 H 0.75439 0.14301 0.29734
 H1806 H 0.76066 0.11444 0.25812
 C1807 C 0.28264 0.64610 0.74929
 C1808 C 0.30537 0.64044 0.75877
 C1809 C 0.29540 0.62167 0.77278
 C1810 C 0.27277 0.62704 0.76329
 C1811 C 0.27894 0.66093 0.77087
 C1812 C 0.26890 0.64224 0.78490
 C1813 C 0.30156 0.65557 0.78034
 C1814 C 0.29173 0.63648 0.79440
 C1815 C 0.30534 0.60015 0.77240
 C1816 C 0.31438 0.58292 0.77040
 C1817 C 0.27042 0.68292 0.76880
 C1818 C 0.26403 0.70116 0.76624
 H1819 H 0.27884 0.65033 0.73074
 H1820 H 0.32048 0.63948 0.74803
 H1821 H 0.26105 0.61504 0.75632
 H1822 H 0.25377 0.64330 0.79561
 H1823 H 0.31329 0.66760 0.78727
 H1824 H 0.29557 0.63224 0.81294
 C1825 C 0.26713 0.36013 0.72167
 C1826 C 0.27100 0.37570 0.74286
 C1827 C 0.29332 0.38123 0.73241
 C1828 C 0.28963 0.36605 0.71121
 C1829 C 0.27786 0.34179 0.73561
 C1830 C 0.30018 0.34734 0.72519
 C1831 C 0.28158 0.35698 0.75680
 C1832 C 0.30401 0.36284 0.74635
 C1833 C 0.30271 0.40288 0.73132
 C1834 C 0.31138 0.42030 0.73122
 C1835 C 0.26984 0.31972 0.73792
 C1836 C 0.26375 0.30140 0.74033
 H1837 H 0.25186 0.35869 0.71156
 H1838 H 0.25913 0.38763 0.75008
 H1839 H 0.29303 0.37007 0.69245
 H1840 H 0.31207 0.33539 0.71800
 H1841 H 0.27820 0.35295 0.77556
 H1842 H 0.31928 0.36420 0.75648
 C1843 C 0.76728 0.85973 0.22065
 C1844 C 0.77116 0.87522 0.24190
 C1845 C 0.79350 0.88076 0.23150
 C1846 C 0.78980 0.86565 0.21023
 C1847 C 0.77798 0.84133 0.23454
 C1848 C 0.80032 0.84687 0.22416
 C1849 C 0.78170 0.85644 0.25579
 C1850 C 0.80414 0.86230 0.24538
 C1851 C 0.80294 0.90238 0.23055
 C1852 C 0.81167 0.91977 0.23063
 C1853 C 0.76994 0.81926 0.23679
 C1854 C 0.76385 0.80094 0.23918
 H1855 H 0.75202 0.85834 0.21052
 H1856 H 0.75930 0.88715 0.24916
 H1857 H 0.79323 0.86972 0.19150
 H1858 H 0.81219 0.83493 0.21693
 H1859 H 0.77829 0.85235 0.27452
 H1860 H 0.81941 0.86360 0.25553
 C1861 C 0.72298 0.85391 0.74754
 C1862 C 0.69910 0.85934 0.75355
 C1863 C 0.70677 0.87809 0.76939
 C1864 C 0.73056 0.87295 0.76336
 C1865 C 0.72368 0.83896 0.76908
 C1866 C 0.73143 0.85763 0.78496
 C1867 C 0.69990 0.84411 0.77509
 C1868 C 0.70743 0.86316 0.79097
 C1869 C 0.69663 0.89948 0.76822
 C1870 C 0.68747 0.91655 0.76572
 C1871 C 0.73249 0.81700 0.76784
 C1872 C 0.73912 0.79874 0.76580
 H1873 H 0.72944 0.84982 0.72967
 H1874 H 0.68570 0.86027 0.74062
 H1875 H 0.74304 0.88508 0.75856
 H1876 H 0.74485 0.85660 0.79785
 H1877 H 0.68742 0.83196 0.77986
 H1878 H 0.70093 0.86725 0.80881
 C1879 C 0.22079 0.35255 0.24755
 C1880 C 0.19730 0.35815 0.25511
 C1881 C 0.20590 0.37729 0.26977
 C1882 C 0.22929 0.37197 0.26220
 C1883 C 0.22282 0.33816 0.26945
 C1884 C 0.23149 0.35722 0.28414
 C1885 C 0.19943 0.34347 0.27700
 C1886 C 0.20789 0.36293 0.29170
 C1887 C 0.19578 0.39870 0.26863
 C1888 C 0.18669 0.41581 0.26622
 C1889 C 0.23163 0.31620 0.26820
 C1890 C 0.23827 0.29795 0.26614
 H1891 H 0.22617 0.34800 0.22940
 H1892 H 0.18313 0.35876 0.24316
 H1893 H 0.24144 0.38396 0.25612
 H1894 H 0.24567 0.35652 0.29605
 H1895 H 0.18728 0.33147 0.28304
 H1896 H 0.20248 0.36748 0.30983
 C1897 C 0.14803 0.22313 0.78139
 C1898 C 0.14144 0.23557 0.80425
 C1899 C 0.12086 0.24369 0.79194
 C1900 C 0.12708 0.23124 0.76920
 C1901 C 0.15988 0.24344 0.77265
 C1902 C 0.13934 0.25156 0.76030
 C1903 C 0.15358 0.25584 0.79538
 C1904 C 0.13275 0.26396 0.78320
 C1905 C 0.09945 0.24430 0.80354
 C1906 C 0.08219 0.24508 0.81376
 C1907 C 0.18211 0.24417 0.76322
 C1908 C 0.20081 0.24578 0.75709
 H1909 H 0.15453 0.20634 0.78050
 H1910 H 0.14214 0.22902 0.82245
 H1911 H 0.11593 0.22112 0.75854
 H1912 H 0.13869 0.25811 0.74210
 H1913 H 0.16468 0.26598 0.80609
 H1914 H 0.12632 0.28078 0.78407
 C1915 C 0.64816 0.72267 0.28025
 C1916 C 0.64150 0.73526 0.30299
 C1917 C 0.62090 0.74320 0.29058
 C1918 C 0.62720 0.73061 0.26796
 C1919 C 0.65995 0.74295 0.27135
 C1920 C 0.63939 0.75091 0.25889
 C1921 C 0.65357 0.75551 0.29396
 C1922 C 0.63273 0.76345 0.28167
 C1923 C 0.59948 0.74381 0.30215
 C1924 C 0.58220 0.74458 0.31234
 C1925 C 0.68220 0.74369 0.26195
 C1926 C 0.70090 0.74530 0.25585
 H1927 H 0.65473 0.70590 0.27953
 H1928 H 0.64221 0.72885 0.32125
 H1929 H 0.61611 0.72036 0.25737
 H1930 H 0.63874 0.75732 0.24063
 H1931 H 0.66462 0.76577 0.30460
 H1932 H 0.62623 0.78025 0.28238
 C1933 C 0.64955 0.27848 0.22120
 C1934 C 0.64371 0.26456 0.19928
 C1935 C 0.62232 0.25815 0.21139
 C1936 C 0.62780 0.27209 0.23318
 C1937 C 0.66037 0.25854 0.23226
 C1938 C 0.63902 0.25212 0.24443
 C1939 C 0.65480 0.24465 0.21047
 C1940 C 0.63318 0.23824 0.22245
 C1941 C 0.60151 0.25737 0.19889
 C1942 C 0.58480 0.25634 0.18795
 C1943 C 0.68219 0.25783 0.24247
 C1944 C 0.70068 0.25622 0.24907
 H1945 H 0.65649 0.29504 0.22083
 H1946 H 0.64549 0.26963 0.18058
 H1947 H 0.61647 0.28338 0.24241
 H1948 H 0.63729 0.24704 0.26313
 H1949 H 0.66609 0.23334 0.20119
 H1950 H 0.62630 0.22166 0.22284
 C1951 C 0.14943 0.77888 0.72101
 C1952 C 0.14364 0.76518 0.69891
 C1953 C 0.12234 0.75844 0.71099
 C1954 C 0.12777 0.77216 0.73296
 C1955 C 0.16045 0.75890 0.73175
 C1956 C 0.13918 0.75215 0.74388
 C1957 C 0.15493 0.74523 0.70977
 C1958 C 0.13340 0.73849 0.72172
 C1959 C 0.10151 0.75763 0.69855
 C1960 C 0.08477 0.75656 0.68764
 C1961 C 0.18229 0.75823 0.74189
 C1962 C 0.20080 0.75664 0.74844
 H1963 H 0.15622 0.79550 0.72086
 H1964 H 0.14534 0.77050 0.68029
 H1965 H 0.11636 0.78325 0.74239
 H1966 H 0.13755 0.74682 0.76250
 H1967 H 0.16630 0.73413 0.70029
 H1968 H 0.12667 0.72184 0.72189
 C1969 C 0.84918 0.75418 0.70799
 C1970 C 0.87037 0.76189 0.71972
 C1971 C 0.88199 0.74167 0.70979
 C1972 C 0.86105 0.73396 0.69792
 C1973 C 0.84355 0.74143 0.73045
 C1974 C 0.85514 0.72119 0.72052
 C1975 C 0.86446 0.74915 0.74237
 C1976 C 0.87644 0.72889 0.73226
 C1977 C 0.90307 0.74224 0.69748
 C1978 C 0.92007 0.74296 0.68675
 C1979 C 0.82157 0.74212 0.74064
 C1980 C 0.80300 0.74363 0.74736
 H1981 H 0.83777 0.76460 0.69807
 H1982 H 0.87678 0.77866 0.71926
 H1983 H 0.85979 0.72775 0.67952
 H1984 H 0.84867 0.70444 0.72099
 H1985 H 0.86566 0.75537 0.76077
 H1986 H 0.88790 0.71847 0.74213
 C1987 C 0.34832 0.25357 0.20817
 C1988 C 0.36947 0.26123 0.22002
 C1989 C 0.38113 0.24107 0.20998
 C1990 C 0.36022 0.23342 0.19800
 C1991 C 0.34264 0.24070 0.23053
 C1992 C 0.35426 0.22052 0.22050
 C1993 C 0.36352 0.24837 0.24256
 C1994 C 0.37554 0.22816 0.23235
 C1995 C 0.40225 0.24175 0.19775
 C1996 C 0.41928 0.24259 0.18710
 C1997 C 0.32065 0.24133 0.24068
 C1998 C 0.30208 0.24283 0.24740
 H1999 H 0.33692 0.26405 0.19829
 H2000 H 0.37588 0.27801 0.21969
 H2001 H 0.35901 0.22731 0.17956
 H2002 H 0.34780 0.20376 0.22085
 H2003 H 0.36467 0.25448 0.26100
 H2004 H 0.38697 0.21770 0.24218
 C2005 C 0.35929 0.74869 0.25801
 C2006 C 0.37127 0.76925 0.26688
 C2007 C 0.37719 0.75723 0.28967
 C2008 C 0.36557 0.73672 0.28097
 C2009 C 0.33849 0.75688 0.27030
 C2010 C 0.34450 0.74491 0.29308
 C2011 C 0.35006 0.77741 0.27900
 C2012 C 0.35635 0.76541 0.30191
 C2013 C 0.39836 0.75688 0.30142
 C2014 C 0.41535 0.75621 0.31187
 C2015 C 0.31640 0.75584 0.26089
 C2016 C 0.29779 0.75406 0.25480
 H2017 H 0.36029 0.74183 0.23984
 H2018 H 0.38252 0.77926 0.25621
 H2019 H 0.37211 0.71997 0.28190
 H2020 H 0.33329 0.73488 0.30380
 H2021 H 0.34346 0.79415 0.27806
 H2022 H 0.35530 0.77226 0.32009
 C2023 C 0.85966 0.24899 0.75896
 C2024 C 0.87131 0.26958 0.76827
 C2025 C 0.87735 0.25728 0.79084
 C2026 C 0.86607 0.23674 0.78170
 C2027 C 0.83871 0.25667 0.77134
 C2028 C 0.84485 0.24442 0.79391
 C2029 C 0.84995 0.27723 0.78047
 C2030 C 0.85637 0.26495 0.80317
 C2031 C 0.89849 0.25706 0.80264
 C2032 C 0.91546 0.25650 0.81314
 C2033 C 0.81666 0.25548 0.76186
 C2034 C 0.79808 0.25359 0.75571
 H2035 H 0.86079 0.24244 0.74066
 H2036 H 0.88243 0.27993 0.75783
 H2037 H 0.87285 0.22007 0.78233
 H2038 H 0.83376 0.23405 0.80439
 H2039 H 0.84311 0.29388 0.77984
 H2040 H 0.85517 0.27149 0.82147
 C2041 C 0.54676 0.99348 0.59011
 C2042 C 0.54084 0.97898 0.61129
 C2043 C 0.56502 0.97409 0.61463
 C2044 C 0.57105 0.98860 0.59367
 C2045 C 0.54530 0.97362 0.57362
 C2046 C 0.56950 0.96874 0.57690
 C2047 C 0.53919 0.95908 0.59453
 C2048 C 0.56365 0.95415 0.59826
 C2049 C 0.57603 0.97603 0.63732
 C2050 C 0.58534 0.97887 0.65569
 C2051 C 0.53407 0.97598 0.55117
 C2052 C 0.52466 0.98080 0.53345
 H2053 H 0.53972 1.00970 0.58653
 H2054 H 0.52918 0.98326 0.62565
 H2055 H 0.58420 1.00081 0.59355
 H2056 H 0.58111 0.96450 0.56250
 H2057 H 0.52600 0.94691 0.59455
 H2058 H 0.57075 0.93799 0.60196
 C2059 C 0.03895 0.45960 1.09613
 C2060 C 0.06340 0.45458 1.09980
 C2061 C 0.06487 0.47451 1.11618
 C2062 C 0.04070 0.47948 1.11291
 C2063 C 0.04505 0.47413 1.07522
 C2064 C 0.04662 0.49397 1.09172
 C2065 C 0.06924 0.46917 1.07844
 C2066 C 0.07090 0.48901 1.09521
 C2067 C 0.07595 0.47638 1.13884
 C2068 C 0.08532 0.47916 1.15719
 C2069 C 0.03379 0.47651 1.05279
 C2070 C 0.02438 0.48133 1.03506
 H2071 H 0.02571 0.44748 1.09619
 H2072 H 0.07045 0.43839 1.10346
 H2073 H 0.02909 0.48379 1.12730
 H2074 H 0.03963 0.51022 1.08817
 H2075 H 0.08081 0.46490 1.06399
 H2076 H 0.08410 0.50116 1.09506
 C2077 C -0.04091 0.04485 1.09728
 C2078 C -0.06572 0.04699 1.10182
 C2079 C -0.06458 0.02727 1.11821
 C2080 C -0.04005 0.02515 1.11409
 C2081 C -0.04554 0.02938 1.07656
 C2082 C -0.04451 0.00973 1.09308
 C2083 C -0.07008 0.03148 1.08065
 C2084 C -0.06913 0.01184 1.09743
 C2085 C -0.07523 0.02442 1.14114
 C2086 C -0.08430 0.02087 1.15961
 C2087 C -0.03457 0.02780 1.05365
 C2088 C -0.02523 0.02344 1.03550
 H2089 H -0.02922 0.05847 1.09688
 H2090 H -0.07459 0.06230 1.10576
 H2091 H -0.02783 0.02246 1.12807
 H2092 H -0.03569 -0.00564 1.08926
 H2093 H -0.08228 0.03413 1.06663
 H2094 H -0.08078 -0.00182 1.09772
 C2095 C 0.45557 0.50951 0.59207
 C2096 C 0.45994 0.52500 0.61305
 C2097 C 0.43540 0.52705 0.61710
 C2098 C 0.43094 0.51154 0.59637
 C2099 C 0.45450 0.52911 0.57549
 C2100 C 0.42995 0.53113 0.57952
 C2101 C 0.45905 0.54466 0.59617
 C2102 C 0.43422 0.54672 0.60064
 C2103 C 0.42473 0.52423 0.64003
 C2104 C 0.41567 0.52072 0.65851
 C2105 C 0.46552 0.52751 0.55261
 C2106 C 0.47492 0.52313 0.53450
 H2107 H 0.46446 0.49416 0.58832
 H2108 H 0.47215 0.52239 0.62705
 H2109 H 0.41934 0.49784 0.59668
 H2110 H 0.41777 0.53370 0.56547
 H2111 H 0.47068 0.55831 0.59575
 H2112 H 0.42529 0.56200 0.60452
 C2113 C 0.45596 0.45374 -0.10015
 C2114 C 0.43112 0.45255 -0.10431
 C2115 C 0.43293 0.47186 -0.12121
 C2116 C 0.45750 0.47303 -0.11746
 C2117 C 0.45177 0.46982 -0.07976
 C2118 C 0.45349 0.48906 -0.09678
 C2119 C 0.42719 0.46867 -0.08347
 C2120 C 0.42882 0.48790 -0.10076
 C2121 C 0.42257 0.47454 -0.14418
 C2122 C 0.41399 0.47782 -0.16287
 C2123 C 0.46268 0.47136 -0.05698
 C2124 C 0.47195 0.47566 -0.03895
 H2125 H 0.46720 0.43966 -0.09958
 H2126 H 0.42176 0.43755 -0.10774
 H2127 H 0.46986 0.47492 -0.13166
 H2128 H 0.46280 0.50412 -0.09346
 H2129 H 0.41487 0.46682 -0.06923
 H2130 H 0.41762 0.50202 -0.10124
 C2131 C -0.07264 0.96984 0.41683
 C2132 C -0.07036 0.98878 0.39925
 C2133 C -0.06660 0.97236 0.37908
 C2134 C -0.06906 0.95334 0.39628
 C2135 C -0.04805 0.97034 0.42070
 C2136 C -0.04421 0.95388 0.40059
 C2137 C -0.04569 0.98929 0.40339
 C2138 C -0.04202 0.97289 0.38298
 C2139 C -0.07681 0.97502 0.35603
 C2140 C -0.08529 0.97826 0.33729
 C2141 C -0.03730 0.97188 0.44356
 C2142 C -0.02815 0.97618 0.46167
 H2143 H -0.08509 0.96853 0.43102
 H2144 H -0.08115 1.00320 0.39848
 H2145 H -0.07882 0.93858 0.39302
 H2146 H -0.03339 0.93950 0.40146
 H2147 H -0.03597 1.00412 0.40653
 H2148 H -0.02954 0.97423 0.36883
 C2149 C 0.04578 0.50667 0.40123
 C2150 C 0.04137 0.52230 0.38062
 C2151 C 0.06591 0.52424 0.37662
 C2152 C 0.07042 0.50859 0.39699
 C2153 C 0.04675 0.52618 0.41827
 C2154 C 0.07130 0.52810 0.41430
 C2155 C 0.04216 0.54186 0.39795
 C2156 C 0.06697 0.54382 0.39354
 C2157 C 0.07649 0.52170 0.35352
 C2158 C 0.08528 0.51861 0.33470
 C2159 C 0.03575 0.52471 0.44116
 C2160 C 0.02648 0.52060 0.45935
 H2161 H 0.03695 0.49135 0.40462
 H2162 H 0.02917 0.51983 0.36654
 H2163 H 0.08208 0.49485 0.39636
 H2164 H 0.08346 0.53053 0.42842
 H2165 H 0.03047 0.55557 0.39867
 H2166 H 0.07585 0.55908 0.39005
 C2167 C 0.57214 0.02827 -0.08547
 C2168 C 0.57147 0.00870 -0.10272
 C2169 C 0.56704 0.02426 -0.12319
 C2170 C 0.56789 0.04390 -0.10634
 C2171 C 0.54757 0.02625 -0.08171
 C2172 C 0.54306 0.04184 -0.10213
 C2173 C 0.54681 0.00668 -0.09868
 C2174 C 0.54248 0.02222 -0.11939
 C2175 C 0.57776 0.02170 -0.14621
 C2176 C 0.58663 0.01860 -0.16497
 C2177 C 0.53639 0.02482 -0.05892
 C2178 C 0.52697 0.02072 -0.04082
 H2179 H 0.58418 0.03082 -0.07126
 H2180 H 0.58320 -0.00499 -0.10319
 H2181 H 0.57672 0.05919 -0.10982
 H2182 H 0.53130 0.05550 -0.10157
 H2183 H 0.53802 -0.00866 -0.09530
 H2184 H 0.53040 0.01964 -0.13356
 C2185 C 0.59913 0.52664 0.01104
 C2186 C 0.61754 0.51796 -0.00527
 C2187 C 0.62320 0.54139 -0.01171
 C2188 C 0.60512 0.55018 0.00459
 C2189 C 0.58363 0.52601 -0.01005
 C2190 C 0.58930 0.54945 -0.01647
 C2191 C 0.60165 0.51718 -0.02637
 C2192 C 0.60770 0.54079 -0.03281
 C2193 C 0.64496 0.55058 -0.01207
 C2194 C 0.66254 0.55889 -0.01174
 C2195 C 0.56149 0.51796 -0.00845
 C2196 C 0.54315 0.51183 -0.00632
 H2197 H 0.59529 0.52073 0.02908
 H2198 H 0.62942 0.50514 -0.00068
 H2199 H 0.60679 0.56383 0.01733
 H2200 H 0.57740 0.56226 -0.02103
 H2201 H 0.59991 0.50352 -0.03907
 H2202 H 0.61151 0.54672 -0.05084
 C2203 C 0.09897 1.02678 0.51202
 C2204 C 0.11730 1.01798 0.49568
 C2205 C 0.12311 1.04138 0.48922
 C2206 C 0.10511 1.05029 0.50556
 C2207 C 0.08344 1.02627 0.49096
 C2208 C 0.08926 1.04966 0.48453
 C2209 C 0.10138 1.01732 0.47461
 C2210 C 0.10757 1.04088 0.46816
 C2211 C 0.14493 1.05042 0.48881
 C2212 C 0.16256 1.05864 0.48907
 C2213 C 0.06126 1.01835 0.49257
 C2214 C 0.04288 1.01229 0.49467
 H2215 H 0.09512 1.02090 0.53007
 H2216 H 0.12910 1.00508 0.50025
 H2217 H 0.10689 1.06393 0.51830
 H2218 H 0.07744 1.06256 0.47999
 H2219 H 0.09952 1.00367 0.46191
 H2220 H 0.11140 1.04679 0.45012
 C2221 C 0.10323 -0.02838 0.98732
 C2222 C 0.12096 -0.01789 1.00284
 C2223 C 0.12703 -0.04047 1.01196
 C2224 C 0.10964 -0.05106 0.99645
 C2225 C 0.08713 -0.02609 1.00802
 C2226 C 0.09322 -0.04867 1.01712
 C2227 C 0.10447 -0.01546 1.02354
 C2228 C 0.11093 -0.03820 1.03267
 C2229 C 0.14898 -0.04923 1.01359
 C2230 C 0.16670 -0.05739 1.01427
 C2231 C 0.06486 -0.01855 1.00536
 C2232 C 0.04646 -0.01270 1.00268
 H2233 H 0.09976 -0.02427 0.96865
 H2234 H 0.13264 -0.00536 0.99701
 H2235 H 0.11202 -0.06579 0.98533
 H2236 H 0.08152 -0.06121 1.02292
 H2237 H 0.10201 -0.00073 1.03463
 H2238 H 0.11438 -0.04232 1.05133
 C2239 C 0.60353 0.47104 0.48710
 C2240 C 0.62122 0.48161 0.50261
 C2241 C 0.62717 0.45910 0.51201
 C2242 C 0.60983 0.44842 0.49652
 C2243 C 0.58734 0.47356 0.50769
 C2244 C 0.59331 0.45105 0.51707
 C2245 C 0.60464 0.48428 0.52319
 C2246 C 0.61098 0.46161 0.53261
 C2247 C 0.64909 0.45030 0.51384
 C2248 C 0.66679 0.44211 0.51468
 C2249 C 0.56511 0.48114 0.50484
 C2250 C 0.54673 0.48700 0.50201
 H2251 H 0.60016 0.47498 0.46837
 H2252 H 0.63296 0.49406 0.49671
 H2253 H 0.61222 0.43358 0.48557
 H2254 H 0.58155 0.43860 0.52294
 H2255 H 0.60218 0.49912 0.53411
 H2256 H 0.61433 0.45765 0.55134
 C2257 C -0.09211 0.44900 0.48545
 C2258 C -0.10762 0.44889 0.50707
 C2259 C -0.12563 0.45827 0.49154
 C2260 C -0.11045 0.45825 0.46989
 C2261 C -0.08551 0.47223 0.49195
 C2262 C -0.10347 0.48164 0.47640
 C2263 C -0.10069 0.47223 0.51359
 C2264 C -0.11903 0.48151 0.49805
 C2265 C -0.14778 0.45002 0.49182
 C2266 C -0.16577 0.44263 0.49261
 C2267 C -0.06312 0.47968 0.49283
 C2268 C -0.04464 0.48551 0.49434
 H2269 H -0.08075 0.43575 0.48029
 H2270 H -0.10958 0.43535 0.51971
 H2271 H -0.11475 0.45241 0.45193
 H2272 H -0.10144 0.49519 0.46380
 H2273 H -0.09637 0.47806 0.53155
 H2274 H -0.13037 0.49476 0.50324
 C2275 C 0.39651 -0.01759 -0.02409
 C2276 C 0.38943 -0.04086 -0.03098
 C2277 C 0.37439 -0.04114 -0.00922
 C2278 C 0.38109 -0.01803 -0.00233
 C2279 C 0.41455 -0.02729 -0.00886
 C2280 C 0.39951 -0.02759 0.01289
 C2281 C 0.40785 -0.05041 -0.01573
 C2282 C 0.39247 -0.05081 0.00600
 C2283 C 0.35221 -0.04934 -0.00892
 C2284 C 0.33421 -0.05671 -0.00812
 C2285 C 0.43696 -0.01991 -0.00798
 C2286 C 0.45547 -0.01416 -0.00642
 H2287 H 0.39849 -0.00385 -0.03645
 H2288 H 0.38500 -0.04641 -0.04901
 H2289 H 0.36982 -0.00483 0.00319
 H2290 H 0.40396 -0.02206 0.03092
 H2291 H 0.41914 -0.06360 -0.02122
 H2292 H 0.39056 -0.06454 0.01839
 C2293 C 0.39641 1.03062 0.48645
 C2294 C 0.37894 1.02031 0.50257
 C2295 C 0.37182 1.04311 0.51054
 C2296 C 0.38895 1.05351 0.49443
 C2297 C 0.41232 1.03018 0.50717
 C2298 C 0.40520 1.05298 0.51512
 C2299 C 0.39523 1.01975 0.52328
 C2300 C 0.38772 1.04270 0.53127
 C2301 C 0.34941 1.05078 0.51175
 C2302 C 0.33117 1.05773 0.51196
 C2303 C 0.43483 1.02319 0.50468
 C2304 C 0.45335 1.01754 0.50198
 H2305 H 0.40028 1.02559 0.46800
 H2306 H 0.36787 1.00698 0.49744
 H2307 H 0.38611 1.06747 0.48258
 H2308 H 0.41630 1.06630 0.52022
 H2309 H 0.39814 1.00578 0.53510
 H2310 H 0.38385 1.04774 0.54971
 C2311 C -0.10515 0.52024 1.02400
 C2312 C -0.11268 0.54322 1.03184
 C2313 C -0.12844 0.54359 1.01097
 C2314 C -0.12129 0.52076 1.00315
 C2315 C -0.08793 0.53060 1.00799
 C2316 C -0.10370 0.53099 0.98714
 C2317 C -0.09507 0.55343 1.01579
 C2318 C -0.11117 0.55392 0.99497
 C2319 C -0.15084 0.55130 1.01197
 C2320 C -0.16907 0.55829 1.01203
 C2321 C -0.06541 0.52357 1.00571
 C2322 C -0.04688 0.51792 1.00316
 H2323 H -0.10235 0.50631 1.03590
 H2324 H -0.11667 0.54833 1.05023
 H2325 H -0.13235 0.50743 0.99798
 H2326 H -0.09970 0.52590 0.96874
 H2327 H -0.08399 0.56675 1.02094
 H2328 H -0.11391 0.56785 0.98304
 C2329 C 0.03452 0.60046 0.53559
 C2330 C 0.02733 0.62178 0.52348
 C2331 C 0.01442 0.62804 0.54591
 C2332 C 0.02164 0.60708 0.55815
 C2333 C 0.01418 0.58925 0.52600
 C2334 C 0.00132 0.59560 0.54843
 C2335 C 0.00695 0.61017 0.51372
 C2336 C -0.00590 0.61679 0.53632
 C2337 C 0.01392 0.64929 0.55793
 C2338 C 0.01300 0.66635 0.56856
 C2339 C 0.01314 0.56710 0.51631
 C2340 C 0.01132 0.54844 0.51007
 H2341 H 0.05116 0.59353 0.53516
 H2342 H 0.03804 0.63278 0.51333
 H2343 H 0.02765 0.60596 0.57654
 H2344 H -0.00941 0.58465 0.55863
 H2345 H 0.00093 0.61124 0.49533
 H2346 H -0.02256 0.62365 0.53674
 C2347 C 0.50741 0.11019 0.01372
 C2348 C 0.49443 0.11678 0.03623
 C2349 C 0.51471 0.12796 0.04602
 C2350 C 0.52775 0.12172 0.02367
 C2351 C 0.51450 0.08922 0.02599
 C2352 C 0.53481 0.10035 0.03578
 C2353 C 0.50151 0.09554 0.04834
 C2354 C 0.52179 0.10695 0.05825
 C2355 C 0.51418 0.14918 0.05809
 C2356 C 0.51323 0.16622 0.06874
 C2357 C 0.51346 0.06710 0.01622
 C2358 C 0.51162 0.04847 0.00989
 H2359 H 0.50151 0.11132 -0.00472
 H2360 H 0.47779 0.12369 0.03654
 H2361 H 0.53855 0.13272 0.01364
 H2362 H 0.55143 0.09338 0.03545
 H2363 H 0.49069 0.08459 0.05842
 H2364 H 0.52768 0.10576 0.07669
 C2365 C 0.00060 0.09772 0.94805
 C2366 C -0.01977 0.10953 0.93888
 C2367 C -0.01244 0.13026 0.95170
 C2368 C 0.00794 0.11868 0.96076
 C2369 C -0.01210 0.09125 0.97038
 C2370 C -0.00476 0.11194 0.98325
 C2371 C -0.03251 0.10278 0.96133
 C2372 C -0.02520 0.12387 0.97404
 C2373 C -0.01201 0.15161 0.94033
 C2374 C -0.01117 0.16873 0.93014
 C2375 C -0.01103 0.06903 0.97946
 C2376 C -0.00919 0.05035 0.98534
 H2377 H 0.01124 0.08677 0.93741
 H2378 H -0.02593 0.10870 0.92051
 H2379 H 0.02459 0.12539 0.96041
 H2380 H 0.00140 0.11271 1.00162
 H2381 H -0.04914 0.09601 0.96169
 H2382 H -0.03582 0.13487 0.98463
 C2383 C 0.46771 0.60230 0.46011
 C2384 C 0.47495 0.62345 0.47278
 C2385 C 0.48773 0.62981 0.45046
 C2386 C 0.48047 0.60904 0.43767
 C2387 C 0.48812 0.59084 0.46924
 C2388 C 0.50085 0.59729 0.44692
 C2389 C 0.49539 0.61158 0.48208
 C2390 C 0.50812 0.61830 0.45959
 C2391 C 0.48813 0.65114 0.43903
 C2392 C 0.48894 0.66825 0.42881
 C2393 C 0.48922 0.56864 0.47838
 C2394 C 0.49107 0.54998 0.48433
 H2395 H 0.45109 0.59551 0.46046
 H2396 H 0.46429 0.63444 0.48332
 H2397 H 0.47435 0.60815 0.41929
 H2398 H 0.51153 0.58635 0.43634
 H2399 H 0.50152 0.61241 0.50045
 H2400 H 0.52476 0.62504 0.45926
 C2401 C 0.50248 0.89294 0.48020
 C2402 C 0.49067 0.88641 0.45718
 C2403 C 0.51101 0.87392 0.44894
 C2404 C 0.52287 0.88010 0.47182
 C2405 C 0.51126 0.91316 0.46773
 C2406 C 0.53164 0.90073 0.45950
 C2407 C 0.49944 0.90689 0.44486
 C2408 C 0.51977 0.89417 0.43650
 C2409 C 0.51005 0.85239 0.43762
 C2410 C 0.50852 0.83510 0.42760
 C2411 C 0.51042 0.93548 0.47697
 C2412 C 0.50873 0.95421 0.48309
 H2413 H 0.49538 0.89264 0.49828
 H2414 H 0.47379 0.88036 0.45611
 H2415 H 0.53252 0.86885 0.48280
 H2416 H 0.54849 0.90685 0.46059
 H2417 H 0.48977 0.91810 0.43383
 H2418 H 0.52687 0.89452 0.41842
 C2419 C -0.00065 0.40729 0.94651
 C2420 C 0.01969 0.39461 0.93809
 C2421 C 0.01098 0.37434 0.95053
 C2422 C -0.00936 0.38679 0.95883
 C2423 C 0.01121 0.41357 0.96935
 C2424 C 0.00250 0.39333 0.98183
 C2425 C 0.03159 0.40117 0.96106
 C2426 C 0.02288 0.38052 0.97338
 C2427 C 0.01002 0.35283 0.93919
 C2428 C 0.00850 0.33555 0.92914
 C2429 C 0.01036 0.43589 0.97859
 C2430 C 0.00865 0.45461 0.98469
 H2431 H -0.01035 0.41850 0.93551
 H2432 H 0.02674 0.39498 0.91998
 H2433 H -0.02623 0.38073 0.95780
 H2434 H -0.00456 0.39301 0.99993
 H2435 H 0.04844 0.40731 0.96211
 H2436 H 0.03257 0.36927 0.98433
 C2437 C 0.49956 0.40265 0.04962
 C2438 C 0.47980 0.39082 0.06030
 C2439 C 0.48722 0.36986 0.04771
 C2440 C 0.50699 0.38148 0.03715
 C2441 C 0.48600 0.40836 0.02782
 C2442 C 0.49343 0.38744 0.01519
 C2443 C 0.46619 0.39680 0.03837
 C2444 C 0.47361 0.37548 0.02591
 C2445 C 0.48870 0.34879 0.05963
 C2446 C 0.49062 0.33188 0.07008
 C2447 C 0.48636 0.43037 0.01805
 C2448 C 0.48778 0.44894 0.01165
 H2449 H 0.51027 0.41401 0.05931
 H2450 H 0.47423 0.39206 0.07897
 H2451 H 0.52382 0.37503 0.03677
 H2452 H 0.49901 0.38625 -0.00348
 H2453 H 0.44939 0.40332 0.03874
 H2454 H 0.46292 0.36407 0.01627
 C2455 C -0.00669 0.88793 0.51566
 C2456 C 0.00670 0.88194 0.53773
 C2457 C -0.01312 0.87019 0.54802
 C2458 C -0.02655 0.87583 0.52611
 C2459 C -0.01433 0.90876 0.52831
 C2460 C -0.03418 0.89707 0.53859
 C2461 C -0.00093 0.90303 0.55022
 C2462 C -0.02074 0.89106 0.56063
 C2463 C -0.01162 0.84907 0.55984
 C2464 C -0.00969 0.83212 0.57022
 C2465 C -0.01396 0.93081 0.51863
 C2466 C -0.01253 0.94940 0.51230
 H2467 H -0.00094 0.88684 0.49704
 H2468 H 0.02355 0.87557 0.53750
 H2469 H -0.03709 0.86441 0.51629
 H2470 H -0.05100 0.90351 0.53880
 H2471 H 0.00963 0.91440 0.56008
 H2472 H -0.02648 0.89220 0.57925
 C2473 C 0.24195 0.29580 0.15935
 C2474 C 0.22755 0.28968 0.13816
 C2475 C 0.22232 0.31380 0.13483
 C2476 C 0.23673 0.32002 0.15580
 C2477 C 0.22211 0.29405 0.17583
 C2478 C 0.21690 0.31818 0.17256
 C2479 C 0.20767 0.28775 0.15492
 C2480 C 0.20240 0.31214 0.15119
 C2481 C 0.22417 0.32485 0.11216
 C2482 C 0.22702 0.33421 0.09382
 C2483 C 0.22466 0.28287 0.19827
 C2484 C 0.22967 0.27357 0.21601
 H2485 H 0.25827 0.28899 0.16293
 H2486 H 0.23199 0.27809 0.12380
 H2487 H 0.24875 0.33335 0.15593
 H2488 H 0.21249 0.32973 0.18697
 H2489 H 0.19569 0.27439 0.15489
 H2490 H 0.18614 0.31902 0.14749
 C2491 C 0.70828 0.78825 0.65470
 C2492 C 0.70322 0.81267 0.65086
 C2493 C 0.72299 0.81402 0.63425
 C2494 C 0.72801 0.78988 0.63768
 C2495 C 0.72300 0.79452 0.67538
 C2496 C 0.74268 0.79597 0.65866
 C2497 C 0.71800 0.81868 0.67200
 C2498 C 0.73768 0.82022 0.65500
 C2499 C 0.72471 0.82494 0.61148
 C2500 C 0.72744 0.83419 0.59306
 C2501 C 0.72563 0.78346 0.69789
 C2502 C 0.73065 0.77424 0.71567
 H2503 H 0.69617 0.77501 0.65491
 H2504 H 0.68699 0.81969 0.64731
 H2505 H 0.73219 0.77816 0.62335
 H2506 H 0.75897 0.78900 0.66209
 H2507 H 0.71386 0.83036 0.68639
 H2508 H 0.74983 0.83342 0.65489
 C2509 C 0.28049 0.67945 0.67010
 C2510 C 0.26091 0.68035 0.65324
 C2511 C 0.27640 0.68495 0.63252
 C2512 C 0.29607 0.68385 0.64900
 C2513 C 0.27832 0.70398 0.67418
 C2514 C 0.29386 0.70866 0.65353
 C2515 C 0.25873 0.70497 0.65759
 C2516 C 0.27421 0.70947 0.63664
 C2517 C 0.27369 0.67432 0.60956
 C2518 C 0.27027 0.66530 0.59103
 C2519 C 0.27668 0.71497 0.69708
 C2520 C 0.27230 0.72435 0.71520
 H2521 H 0.28312 0.66726 0.68413
 H2522 H 0.24729 0.66867 0.65289
 H2523 H 0.31141 0.67502 0.64511
 H2524 H 0.30744 0.72037 0.65398
 H2525 H 0.24333 0.71376 0.66135
 H2526 H 0.27154 0.72170 0.62265
 C2527 C 0.78044 0.17891 0.17091
 C2528 C 0.76085 0.17979 0.15406
 C2529 C 0.77632 0.18442 0.13334
 C2530 C 0.79599 0.18336 0.14980
 C2531 C 0.77823 0.20344 0.17501
 C2532 C 0.79374 0.20816 0.15434
 C2533 C 0.75863 0.20441 0.15842
 C2534 C 0.77409 0.20894 0.13747
 C2535 C 0.77362 0.17380 0.11037
 C2536 C 0.77023 0.16478 0.09184
 C2537 C 0.77658 0.21443 0.19790
 C2538 C 0.77219 0.22382 0.21602
 H2539 H 0.78310 0.16672 0.18493
 H2540 H 0.74724 0.16809 0.15372
 H2541 H 0.81135 0.17455 0.14590
 H2542 H 0.80731 0.21990 0.15479
 H2543 H 0.74321 0.21316 0.16220
 H2544 H 0.77139 0.22117 0.12349
 C2545 C 0.71956 0.17696 0.83343
 C2546 C 0.73900 0.17823 0.85048
 C2547 C 0.72324 0.18259 0.87113
 C2548 C 0.70372 0.18114 0.85447
 C2549 C 0.72110 0.20153 0.82973
 C2550 C 0.70530 0.20596 0.85032
 C2551 C 0.74054 0.20288 0.84651
 C2552 C 0.72479 0.20714 0.86739
 C2553 C 0.72591 0.17217 0.89407
 C2554 C 0.72912 0.16352 0.91274
 C2555 C 0.72254 0.21248 0.80697
 C2556 C 0.72675 0.22177 0.78892
 H2557 H 0.71735 0.16470 0.81920
 H2558 H 0.75293 0.16679 0.85077
 H2559 H 0.68860 0.17204 0.85808
 H2560 H 0.69141 0.21744 0.84995
 H2561 H 0.75572 0.21194 0.84301
 H2562 H 0.72704 0.21944 0.88158
 C2563 C 0.20487 0.70686 0.34973
 C2564 C 0.20329 0.68203 0.35386
 C2565 C 0.22278 0.68348 0.37055
 C2566 C 0.22434 0.70804 0.36683
 C2567 C 0.22070 0.70243 0.32916
 C2568 C 0.24012 0.70378 0.34597
 C2569 C 0.21916 0.67786 0.33285
 C2570 C 0.23857 0.67913 0.34993
 C2571 C 0.22543 0.67303 0.39348
 C2572 C 0.22865 0.66437 0.41213
 C2573 C 0.22218 0.71337 0.30640
 C2574 C 0.22640 0.72263 0.28833
 H2575 H 0.19098 0.71833 0.34933
 H2576 H 0.18816 0.67293 0.35744
 H2577 H 0.22656 0.72033 0.38103
 H2578 H 0.25531 0.71284 0.34251
 H2579 H 0.21697 0.66561 0.31861
 H2580 H 0.25250 0.66769 0.35024
 C2581 C 0.79400 0.79348 0.35040
 C2582 C 0.79458 0.81838 0.35475
 C2583 C 0.77552 0.81619 0.37222
 C2584 C 0.77495 0.79155 0.36829
 C2585 C 0.77757 0.79709 0.33055
 C2586 C 0.75859 0.79500 0.34814
 C2587 C 0.77813 0.82173 0.33446
 C2588 C 0.75914 0.81972 0.35232
 C2589 C 0.77285 0.82671 0.39533
 C2590 C 0.76957 0.83543 0.41414
 C2591 C 0.77611 0.78610 0.30766
 C2592 C 0.77194 0.77681 0.28952
 H2593 H 0.80835 0.78261 0.34928
 H2594 H 0.80936 0.82816 0.35780
 H2595 H 0.77356 0.77926 0.38244
 H2596 H 0.74375 0.78526 0.34520
 H2597 H 0.77949 0.83399 0.32027
 H2598 H 0.74475 0.83055 0.35333
 C2599 C 0.25800 0.29655 0.84865
 C2600 C 0.27362 0.29224 0.86928
 C2601 C 0.27541 0.31680 0.87326
 C2602 C 0.25977 0.32120 0.85286
 C2603 C 0.27752 0.29762 0.83164
 C2604 C 0.27929 0.32219 0.83558
 C2605 C 0.29320 0.29314 0.85198
 C2606 C 0.29500 0.31797 0.85637
 C2607 C 0.27271 0.32736 0.89634
 C2608 C 0.26942 0.33609 0.91514
 C2609 C 0.27607 0.28658 0.80877
 C2610 C 0.27190 0.27727 0.79065
 H2611 H 0.24274 0.28763 0.84525
 H2612 H 0.27120 0.28004 0.88337
 H2613 H 0.24596 0.33279 0.85346
 H2614 H 0.28168 0.33435 0.82145
 H2615 H 0.30697 0.28152 0.85129
 H2616 H 0.31020 0.32693 0.85988
 C2617 C 0.77695 0.34926 0.73881
 C2618 C 0.76821 0.36755 0.75526
 C2619 C 0.79163 0.37329 0.76169
 C2620 C 0.80048 0.35534 0.74524
 C2621 C 0.77645 0.33364 0.75980
 C2622 C 0.79986 0.33940 0.76620
 C2623 C 0.76756 0.35154 0.77625
 C2624 C 0.79114 0.35767 0.78268
 C2625 C 0.80073 0.39510 0.76220
 C2626 C 0.80900 0.41271 0.76203
 C2627 C 0.76851 0.31146 0.75813
 C2628 C 0.76247 0.29308 0.75599
 H2629 H 0.77103 0.34550 0.72076
 H2630 H 0.75532 0.37939 0.75077
 H2631 H 0.81410 0.35715 0.73248
 H2632 H 0.81275 0.32755 0.77066
 H2633 H 0.75393 0.34965 0.78898
 H2634 H 0.79708 0.36141 0.80072
 C2635 C 0.29997 0.83999 0.26481
 C2636 C 0.30032 0.85595 0.24386
 C2637 C 0.29172 0.87389 0.26045
 C2638 C 0.29150 0.85826 0.28144
 C2639 C 0.27646 0.83427 0.25878
 C2640 C 0.26782 0.85217 0.27539
 C2641 C 0.27670 0.84991 0.23780
 C2642 C 0.26821 0.86819 0.25441
 C2643 C 0.30085 0.89569 0.26085
 C2644 C 0.30914 0.91329 0.26057
 C2645 C 0.26846 0.81211 0.25722
 C2646 C 0.26235 0.79374 0.25516
 H2647 H 0.31290 0.82811 0.26905
 H2648 H 0.31377 0.85775 0.23088
 H2649 H 0.29769 0.86197 0.29938
 H2650 H 0.25436 0.85029 0.28833
 H2651 H 0.27053 0.84616 0.21985
 H2652 H 0.25527 0.88005 0.25014
 C2653 C 0.23387 0.85409 0.72666
 C2654 C 0.21120 0.86064 0.71738
 C2655 C 0.20894 0.87683 0.73802
 C2656 C 0.23144 0.87067 0.74727
 C2657 C 0.22308 0.83687 0.74220
 C2658 C 0.22079 0.85306 0.76282
 C2659 C 0.20058 0.84304 0.73297
 C2660 C 0.19819 0.85955 0.75355
 C2661 C 0.20033 0.89883 0.73628
 C2662 C 0.19233 0.91661 0.73553
 C2663 C 0.23052 0.81458 0.74500
 C2664 C 0.23631 0.79618 0.74780
 H2665 H 0.24863 0.85152 0.71564
 H2666 H 0.20718 0.86405 0.69869
 H2667 H 0.24402 0.88230 0.75310
 H2668 H 0.22481 0.84963 0.78152
 H2669 H 0.18800 0.83139 0.72716
 H2670 H 0.18342 0.86206 0.76460
 C2671 C 0.73493 0.35392 0.22823
 C2672 C 0.71304 0.36050 0.21701
 C2673 C 0.70906 0.37631 0.23770
 C2674 C 0.73079 0.37012 0.24889
 C2675 C 0.72310 0.33636 0.24237
 C2676 C 0.71910 0.35218 0.26304
 C2677 C 0.70137 0.34256 0.23120
 C2678 C 0.69727 0.35870 0.25183
 C2679 C 0.70050 0.39831 0.23573
 C2680 C 0.69253 0.41610 0.23484
 C2681 C 0.73048 0.31409 0.24543
 C2682 C 0.73623 0.29570 0.24839
 H2683 H 0.75051 0.35163 0.21858
 H2684 H 0.71046 0.36421 0.19807
 H2685 H 0.74277 0.38173 0.25611
 H2686 H 0.72166 0.34846 0.28198
 H2687 H 0.68939 0.33093 0.22401
 H2688 H 0.68169 0.36092 0.26151
 C2689 C 0.72324 0.64948 0.23632
 C2690 C 0.73253 0.63119 0.25192
 C2691 C 0.70930 0.62464 0.25853
 C2692 C 0.69991 0.64259 0.24293
 C2693 C 0.72330 0.66474 0.25789
 C2694 C 0.70007 0.65819 0.26448
 C2695 C 0.73272 0.64684 0.27350
 C2696 C 0.70934 0.63990 0.28011
 C2697 C 0.70103 0.60250 0.25835
 C2698 C 0.69359 0.58452 0.25761
 C2699 C 0.73075 0.68711 0.25686
 C2700 C 0.73658 0.70559 0.25520
 H2701 H 0.72903 0.65373 0.21832
 H2702 H 0.74576 0.61982 0.24675
 H2703 H 0.68634 0.64059 0.23035
 H2704 H 0.68685 0.66958 0.26962
 H2705 H 0.74630 0.64890 0.28605
 H2706 H 0.70354 0.63566 0.29810
 C2707 C 0.19986 0.15868 0.76545
 C2708 C 0.19979 0.14309 0.74390
 C2709 C 0.20908 0.12512 0.75955
 C2710 C 0.20903 0.14038 0.78113
 C2711 C 0.22313 0.16521 0.75900
 C2712 C 0.23245 0.14729 0.77466
 C2713 C 0.22316 0.14995 0.73743
 C2714 C 0.23235 0.13165 0.75307
 C2715 C 0.20077 0.10299 0.75931
 C2716 C 0.19332 0.08503 0.75854
 C2717 C 0.23061 0.18758 0.75801
 C2718 C 0.23646 0.20605 0.75638
 H2719 H 0.18663 0.17009 0.77052
 H2720 H 0.18628 0.14112 0.73123
 H2721 H 0.20313 0.13615 0.79909
 H2722 H 0.24597 0.14933 0.78729
 H2723 H 0.22904 0.15420 0.71946
 H2724 H 0.24559 0.12027 0.74798
 C2725 C 0.28015 0.14590 0.26416
 C2726 C 0.26969 0.12835 0.24827
 C2727 C 0.29242 0.12114 0.24014
 C2728 C 0.30298 0.13836 0.25601
 C2729 C 0.27958 0.16169 0.24332
 C2730 C 0.30230 0.15448 0.23520
 C2731 C 0.26899 0.14451 0.22745
 C2732 C 0.29186 0.13691 0.21929
 C2733 C 0.30002 0.09870 0.23897
 C2734 C 0.30693 0.08044 0.23873
 C2735 C 0.27261 0.18423 0.24565
 C2736 C 0.26696 0.20277 0.24816
 H2737 H 0.27528 0.14991 0.28262
 H2738 H 0.25639 0.11734 0.25362
 H2739 H 0.31702 0.13557 0.26775
 H2740 H 0.31560 0.16552 0.22988
 H2741 H 0.25493 0.14736 0.21574
 H2742 H 0.29674 0.13292 0.20083
 C2743 C 0.78123 0.64684 0.76455
 C2744 C 0.77106 0.62915 0.74862
 C2745 C 0.79391 0.62204 0.74083
 C2746 C 0.80419 0.63940 0.75675
 C2747 C 0.78080 0.66252 0.74362
 C2748 C 0.80366 0.65542 0.73586
 C2749 C 0.77050 0.64521 0.72770
 C2750 C 0.79350 0.63772 0.71989
 C2751 C 0.80166 0.59964 0.73988
 C2752 C 0.80865 0.58142 0.73979
 C2753 C 0.77369 0.68504 0.74575
 C2754 C 0.76795 0.70356 0.74814
 H2755 H 0.77613 0.65089 0.78293
 H2756 H 0.75776 0.61808 0.75384
 H2757 H 0.81812 0.63674 0.76870
 H2758 H 0.81695 0.66652 0.73066
 H2759 H 0.75656 0.64792 0.71578
 H2760 H 0.79862 0.63368 0.70152
 C2761 C 0.86121 0.75721 0.23518
 C2762 C 0.86793 0.74438 0.21261
 C2763 C 0.87913 0.76474 0.20303
 C2764 C 0.87276 0.77763 0.22543
 C2765 C 0.84029 0.76435 0.22282
 C2766 C 0.85145 0.78474 0.21325
 C2767 C 0.84675 0.75151 0.20043
 C2768 C 0.85818 0.77187 0.19073
 C2769 C 0.90041 0.76432 0.19108
 C2770 C 0.91750 0.76347 0.18049
 C2771 C 0.81814 0.76326 0.23249
 C2772 C 0.79949 0.76142 0.23875
 H2773 H 0.86225 0.75120 0.25358
 H2774 H 0.87486 0.72775 0.21222
 H2775 H 0.88369 0.78839 0.23561
 H2776 H 0.84446 0.80135 0.21365
 H2777 H 0.83587 0.74073 0.19020
 H2778 H 0.85709 0.77787 0.17233
 C2779 C 0.35116 0.28496 0.71375
 C2780 C 0.37255 0.27811 0.72596
 C2781 C 0.37888 0.26492 0.70375
 C2782 C 0.35786 0.27179 0.69142
 C2783 C 0.34012 0.26468 0.72373
 C2784 C 0.34654 0.25153 0.70153
 C2785 C 0.36110 0.25780 0.73611
 C2786 C 0.36779 0.24466 0.71373
 C2787 C 0.40011 0.26442 0.69172
 C2788 C 0.41718 0.26351 0.68110
 C2789 C 0.31800 0.26365 0.73349
 C2790 C 0.29936 0.26184 0.73983
 H2791 H 0.34411 0.30154 0.71390
 H2792 H 0.38347 0.28906 0.73590
 H2793 H 0.35667 0.27752 0.67292
 H2794 H 0.33566 0.24057 0.69153
 H2795 H 0.36223 0.25206 0.75461
 H2796 H 0.37479 0.22806 0.71360
 C2797 C 0.36090 0.74499 0.76703
 C2798 C 0.36772 0.75755 0.78958
 C2799 C 0.37936 0.73713 0.79843
 C2800 C 0.37290 0.72451 0.77604
 C2801 C 0.34027 0.73754 0.77996
 C2802 C 0.35186 0.71709 0.78880
 C2803 C 0.34683 0.75012 0.80234
 C2804 C 0.35870 0.72969 0.81131
 C2805 C 0.40076 0.73752 0.80970
 C2806 C 0.41791 0.73832 0.81982
 C2807 C 0.31802 0.73866 0.77099
 C2808 C 0.29932 0.74051 0.76519
 H2809 H 0.36159 0.75127 0.74871
 H2810 H 0.37441 0.77422 0.79002
 H2811 H 0.38386 0.71397 0.76531
 H2812 H 0.34512 0.70045 0.78835
 H2813 H 0.33591 0.76067 0.81311
 H2814 H 0.35794 0.72342 0.82963
 C2815 C 0.86098 0.24257 0.26750
 C2816 C 0.86827 0.25666 0.28878
 C2817 C 0.87906 0.23662 0.29967
 C2818 C 0.87214 0.22248 0.27855
 C2819 C 0.84005 0.23703 0.28101
 C2820 C 0.85080 0.21698 0.29189
 C2821 C 0.84706 0.25112 0.30212
 C2822 C 0.85809 0.23110 0.31312
 C2823 C 0.90042 0.23701 0.31103
 C2824 C 0.91754 0.23781 0.32121
 C2825 C 0.81783 0.23815 0.27195
 C2826 C 0.79915 0.24001 0.26606
 H2827 H 0.86195 0.24727 0.24863
 H2828 H 0.87561 0.27300 0.28762
 H2829 H 0.88269 0.21069 0.26896
 H2830 H 0.84341 0.20065 0.29305
 H2831 H 0.83655 0.26293 0.31176
 H2832 H 0.85706 0.22640 0.33200
 C2833 C 0.15623 0.24864 0.30502
 C2834 C 0.14343 0.26895 0.31335
 C2835 C 0.12322 0.26009 0.30092
 C2836 C 0.13578 0.23979 0.29272
 C2837 C 0.16246 0.26046 0.28214
 C2838 C 0.14227 0.25160 0.26968
 C2839 C 0.14995 0.28081 0.29033
 C2840 C 0.12936 0.27195 0.27803
 C2841 C 0.10170 0.25907 0.31224
 C2842 C 0.08441 0.25749 0.32226
 C2843 C 0.18478 0.25970 0.27288
 C2844 C 0.20349 0.25807 0.26672
 H2845 H 0.16747 0.23903 0.31607
 H2846 H 0.14375 0.27607 0.33142
 H2847 H 0.12980 0.22288 0.29382
 H2848 H 0.14201 0.24447 0.25161
 H2849 H 0.15601 0.29768 0.28922
 H2850 H 0.11807 0.28154 0.26703
 C2851 C 0.65068 0.78152 0.78961
 C2852 C 0.63016 0.77267 0.77716
 C2853 C 0.62390 0.76078 0.79999
 C2854 C 0.64404 0.76963 0.81257
 C2855 C 0.66324 0.76119 0.78148
 C2856 C 0.65688 0.74934 0.80430
 C2857 C 0.64313 0.75234 0.76886
 C2858 C 0.63651 0.74049 0.79184
 C2859 C 0.60231 0.75973 0.81117
 C2860 C 0.58497 0.75813 0.82108
 C2861 C 0.68561 0.76044 0.77236
 C2862 C 0.70436 0.75883 0.76631
 H2863 H 0.65674 0.79840 0.78857
 H2864 H 0.61894 0.78228 0.76610
 H2865 H 0.64425 0.77672 0.83066
 H2866 H 0.66806 0.73972 0.81540
 H2867 H 0.64297 0.74524 0.75078
 H2868 H 0.63053 0.72359 0.79287
 C2869 C 0.63829 0.24333 0.73480
 C2870 C 0.63243 0.25680 0.71274
 C2871 C 0.62070 0.23704 0.70231
 C2872 C 0.62622 0.22352 0.72421
 C2873 C 0.65918 0.23570 0.72224
 C2874 C 0.64751 0.21590 0.71182
 C2875 C 0.65357 0.24918 0.70035
 C2876 C 0.64162 0.22942 0.68979
 C2877 C 0.59965 0.23860 0.69037
 C2878 C 0.58277 0.24059 0.67989
 C2879 C 0.68118 0.23603 0.73202
 C2880 C 0.69976 0.23745 0.73839
 H2881 H 0.63712 0.24902 0.75343
 H2882 H 0.62609 0.27367 0.71300
 H2883 H 0.61473 0.21296 0.73392
 H2884 H 0.65392 0.19906 0.71158
 H2885 H 0.66500 0.25976 0.69059
 H2886 H 0.64285 0.22374 0.67116
 C2887 C 0.13783 0.74424 0.23499
 C2888 C 0.13174 0.75769 0.21297
 C2889 C 0.11993 0.73790 0.20271
 C2890 C 0.12566 0.72441 0.22457
 C2891 C 0.15860 0.73662 0.22220
 C2892 C 0.14684 0.71679 0.21195
 C2893 C 0.15277 0.75006 0.20035
 C2894 C 0.14074 0.73028 0.18997
 C2895 C 0.09877 0.73942 0.19100
 C2896 C 0.08179 0.74138 0.18069
 C2897 C 0.18069 0.73695 0.23174
 C2898 C 0.19932 0.73836 0.23795
 H2899 H 0.13683 0.74996 0.25362
 H2900 H 0.12538 0.77454 0.21328
 H2901 H 0.11429 0.71386 0.23442
 H2902 H 0.15327 0.69996 0.21166
 H2903 H 0.16410 0.76064 0.19045
 H2904 H 0.14179 0.72457 0.17134
   
