data_POSCAR
  _audit_creation_date              2014-09-24
  _audit_creation_method            'ToBaCCo'
  _symmetry_space_group_name_H-M    'P1'
  _symmetry_Int_Tables_number       1
  _symmetry_cell_setting            triclinic
  loop_
  _symmetry_equiv_pos_as_xyz
 x,y,z
_cell_length_a 68.6061
_cell_length_b 66.0785
_cell_length_c 69.9334
_cell_angle_alpha 89.952900
_cell_angle_beta 90.073100
_cell_angle_gamma 90.027400
loop_
  _atom_site_label
  _atom_site_type_symbol
  _atom_site_fract_x
  _atom_site_fract_y
  _atom_site_fract_z
C1 C 0.36230 0.33177 0.34089
 C2 C 0.35240 0.34770 0.33176
 C3 C 0.33613 0.35693 0.34027
 C4 C 0.32941 0.34952 0.35794
 C5 C 0.33879 0.33329 0.36716
 C6 C 0.35553 0.32493 0.35873
 H7 H 0.35696 0.35247 0.31765
 H8 H 0.31663 0.35621 0.36439
 H9 H 0.36336 0.31303 0.36611
 C10 C 0.36121 0.83006 -0.16339
 C11 C 0.35158 0.84632 -0.17251
 C12 C 0.33502 0.85579 -0.16448
 C13 C 0.32771 0.84797 -0.14713
 C14 C 0.33682 0.83173 -0.13775
 C15 C 0.35369 0.82325 -0.14575
 H16 H 0.35595 0.85055 -0.18678
 H17 H 0.31510 0.85471 -0.14048
 H18 H 0.36130 0.81177 -0.13765
 C19 C 0.85843 0.33189 -0.16409
 C20 C 0.84963 0.34893 -0.17255
 C21 C 0.83302 0.35818 -0.16448
 C22 C 0.82549 0.34973 -0.14750
 C23 C 0.83328 0.33203 -0.13940
 C24 C 0.84997 0.32338 -0.14764
 H25 H 0.85530 0.35413 -0.18610
 H26 H 0.81375 0.35718 -0.14000
 H27 H 0.85630 0.30995 -0.14134
 C28 C 0.86389 0.83348 0.33445
 C29 C 0.85609 0.82467 0.35107
 C30 C 0.83986 0.83328 0.36019
 C31 C 0.83111 0.85055 0.35216
 C32 C 0.83870 0.85999 0.33567
 C33 C 0.85550 0.85139 0.32734
 H34 H 0.86254 0.81104 0.35684
 H35 H 0.81763 0.85580 0.35839
 H36 H 0.86269 0.85889 0.31556
 C37 C 0.63866 0.66634 0.33735
 C38 C 0.64805 0.64977 0.32885
 C39 C 0.66482 0.64117 0.33708
 C40 C 0.67266 0.64997 0.35371
 C41 C 0.66375 0.66686 0.36227
 C42 C 0.64645 0.67453 0.35423
 H43 H 0.64261 0.64389 0.31542
 H44 H 0.68584 0.64378 0.35988
 H45 H 0.63896 0.68690 0.36120
 C46 C 0.63739 0.16409 -0.16113
 C47 C 0.64672 0.14795 -0.17042
 C48 C 0.66373 0.13886 -0.16283
 C49 C 0.67168 0.14721 -0.14588
 C50 C 0.66271 0.16358 -0.13653
 C51 C 0.64520 0.17130 -0.14391
 H52 H 0.64127 0.14343 -0.18428
 H53 H 0.68475 0.14098 -0.13964
 H54 H 0.63769 0.18321 -0.13629
 C55 C 0.14140 0.66807 -0.16411
 C56 C 0.14972 0.65082 -0.17257
 C57 C 0.16626 0.64122 -0.16467
 C58 C 0.17435 0.64963 -0.14790
 C59 C 0.16688 0.66743 -0.13967
 C60 C 0.15024 0.67640 -0.14778
 H61 H 0.14374 0.64569 -0.18602
 H62 H 0.18615 0.64200 -0.14062
 H63 H 0.14422 0.68997 -0.14148
 C64 C 0.13651 0.16679 0.33770
 C65 C 0.14504 0.14971 0.32914
 C66 C 0.16152 0.14041 0.33715
 C67 C 0.16954 0.14853 0.35394
 C68 C 0.16203 0.16628 0.36218
 C69 C 0.14526 0.17513 0.35413
 H70 H 0.13917 0.14403 0.31581
 H71 H 0.18179 0.14099 0.36063
 H72 H 0.13917 0.18863 0.36048
 C73 C 0.63783 0.33408 0.66624
 C74 C 0.64427 0.32621 0.64869
 C75 C 0.66136 0.33344 0.63998
 C76 C 0.67150 0.34950 0.64863
 C77 C 0.66511 0.35795 0.66597
 C78 C 0.64839 0.34991 0.67477
 H79 H 0.63592 0.31442 0.64172
 H80 H 0.68460 0.35529 0.64197
 H81 H 0.64396 0.35554 0.68863
 C82 C 0.64220 0.83252 1.16419
 C83 C 0.64988 0.82513 1.14688
 C84 C 0.66740 0.83248 1.13933
 C85 C 0.67685 0.84859 1.14852
 C86 C 0.66936 0.85715 1.16550
 C87 C 0.65215 0.84863 1.17324
 H88 H 0.64203 0.81384 1.13875
 H89 H 0.68996 0.85450 1.14207
 H90 H 0.64749 0.85331 1.18727
 C91 C 0.13873 0.33287 1.16476
 C92 C 0.14637 0.32522 1.14746
 C93 C 0.16340 0.33334 1.13929
 C94 C 0.17274 0.34965 1.14836
 C95 C 0.16548 0.35768 1.16548
 C96 C 0.14876 0.34900 1.17364
 H97 H 0.13866 0.31357 1.13967
 H98 H 0.18575 0.35609 1.14209
 H99 H 0.14424 0.35434 1.18755
 C100 C 0.13744 0.83517 0.66029
 C101 C 0.14554 0.82739 0.64331
 C102 C 0.16332 0.83447 0.63608
 C103 C 0.17281 0.85043 0.64545
 C104 C 0.16482 0.85954 0.66192
 C105 C 0.14709 0.85164 0.66911
 H106 H 0.13782 0.81599 0.63519
 H107 H 0.18710 0.85480 0.64043
 H108 H 0.14090 0.85820 0.68177
 C109 C 0.36219 0.66677 0.66184
 C110 C 0.35463 0.67586 0.64521
 C111 C 0.33754 0.66852 0.63649
 C112 C 0.32803 0.65176 0.64465
 C113 C 0.33525 0.64240 0.66126
 C114 C 0.35242 0.64996 0.66963
 H115 H 0.36194 0.68887 0.63913
 H116 H 0.31477 0.64612 0.63818
 H117 H 0.35806 0.64286 0.68242
 C118 C 0.35900 0.16935 1.16244
 C119 C 0.35230 0.17633 1.14467
 C120 C 0.33538 0.16836 1.13635
 C121 C 0.32558 0.15247 1.14563
 C122 C 0.33215 0.14466 1.16334
 C123 C 0.34887 0.15362 1.17163
 H124 H 0.36034 0.18802 1.13721
 H125 H 0.31294 0.14610 1.13867
 H126 H 0.35349 0.14934 1.18585
 C127 C 0.86192 0.66314 1.16300
 C128 C 0.85394 0.67209 1.14649
 C129 C 0.83697 0.66416 1.13795
 C130 C 0.82772 0.64744 1.14651
 C131 C 0.83562 0.63807 1.16279
 C132 C 0.85303 0.64570 1.17050
 H133 H 0.86080 0.68533 1.14037
 H134 H 0.81400 0.64208 1.14078
 H135 H 0.85971 0.63802 1.18251
 C136 C 0.86203 0.16521 0.66303
 C137 C 0.85382 0.17384 0.64643
 C138 C 0.83595 0.16713 0.63904
 C139 C 0.82631 0.15102 0.64804
 C140 C 0.83428 0.14129 0.66424
 C141 C 0.85220 0.14865 0.67148
 H142 H 0.86161 0.18544 0.63865
 H143 H 0.81196 0.14694 0.64293
 H144 H 0.85846 0.14157 0.68390
 C145 C 0.33534 0.35834 0.66253
 C146 C 0.32705 0.34869 0.64656
 C147 C 0.33536 0.33101 0.63891
 C148 C 0.35229 0.32308 0.64744
 C149 C 0.36080 0.33240 0.66347
 C150 C 0.35226 0.35010 0.67078
 H151 H 0.31396 0.35485 0.64020
 H152 H 0.35873 0.30942 0.64173
 H153 H 0.35868 0.35737 0.68313
 C154 C 0.33504 0.85973 0.16400
 C155 C 0.32657 0.85047 0.14795
 C156 C 0.33545 0.83368 0.13914
 C157 C 0.35259 0.82558 0.14722
 C158 C 0.36108 0.83441 0.16352
 C159 C 0.35266 0.85201 0.17112
 H160 H 0.31269 0.85590 0.14268
 H161 H 0.35916 0.81227 0.14098
 H162 H 0.35976 0.85964 0.18292
 C163 C 0.83429 0.35783 0.16362
 C164 C 0.82613 0.34950 0.14694
 C165 C 0.83601 0.33448 0.13651
 C166 C 0.85421 0.32761 0.14316
 C167 C 0.86235 0.33529 0.16012
 C168 C 0.85240 0.35059 0.17004
 H169 H 0.81176 0.35427 0.14240
 H170 H 0.86215 0.31637 0.13506
 H171 H 0.85868 0.35669 0.18301
 C172 C 0.83632 0.85970 0.66186
 C173 C 0.82921 0.85133 0.64477
 C174 C 0.83769 0.83388 0.63682
 C175 C 0.85349 0.82472 0.64634
 C176 C 0.86078 0.83279 0.66354
 C177 C 0.85219 0.85039 0.67100
 H178 H 0.81690 0.85836 0.63771
 H179 H 0.86000 0.81120 0.64045
 H180 H 0.85772 0.85677 0.68417
 C181 C 0.66809 0.64345 0.66150
 C182 C 0.67474 0.65236 0.64450
 C183 C 0.66705 0.67080 0.63789
 C184 C 0.65165 0.67980 0.64806
 C185 C 0.64400 0.67062 0.66461
 C186 C 0.65245 0.65249 0.67123
 H187 H 0.68606 0.64488 0.63638
 H188 H 0.64606 0.69432 0.64345
 H189 H 0.64703 0.64555 0.68418
 C190 C 0.66381 0.14088 0.16443
 C191 C 0.64738 0.15038 0.17232
 C192 C 0.63895 0.16743 0.16356
 C193 C 0.64774 0.17555 0.14708
 C194 C 0.66439 0.16646 0.13907
 C195 C 0.67185 0.14877 0.14755
 H196 H 0.64142 0.14481 0.18565
 H197 H 0.64169 0.18902 0.14059
 H198 H 0.68399 0.14104 0.14092
 C199 C 0.16649 0.63667 0.16155
 C200 C 0.17378 0.64544 0.14472
 C201 C 0.16523 0.66294 0.13687
 C202 C 0.14915 0.67170 0.14624
 C203 C 0.14168 0.66325 0.16319
 C204 C 0.15038 0.64563 0.17055
 H205 H 0.18628 0.63870 0.13779
 H206 H 0.14256 0.68525 0.14042
 H207 H 0.14473 0.63897 0.18355
 C208 C 0.16469 0.14111 0.66538
 C209 C 0.17126 0.14792 0.64745
 C210 C 0.16165 0.16364 0.63771
 C211 C 0.14485 0.17212 0.64593
 C212 C 0.13824 0.16592 0.66403
 C213 C 0.14831 0.15040 0.67364
 H214 H 0.18411 0.14116 0.64118
 H215 H 0.13686 0.18362 0.63816
 H216 H 0.14382 0.14603 0.68789
 C217 C 0.33549 0.64477 0.33392
 C218 C 0.35292 0.65318 0.32688
 C219 C 0.36216 0.66931 0.33636
 C220 C 0.35404 0.67659 0.35346
 C221 C 0.33643 0.66877 0.36055
 C222 C 0.32724 0.65294 0.35061
 H223 H 0.35918 0.64732 0.31384
 H224 H 0.36151 0.68836 0.36135
 H225 H 0.31329 0.64737 0.35558
 C226 C 0.33305 0.14025 0.83939
 C227 C 0.34968 0.14828 0.83046
 C228 C 0.35886 0.16579 0.83748
 C229 C 0.35132 0.17510 0.85396
 C230 C 0.33473 0.16733 0.86322
 C231 C 0.32578 0.14985 0.85583
 H232 H 0.35529 0.14108 0.81772
 H233 H 0.35819 0.18866 0.85942
 H234 H 0.31288 0.14388 0.86269
 C235 C 0.83783 0.64181 0.83626
 C236 C 0.85435 0.65119 0.82841
 C237 C 0.86292 0.66814 0.83720
 C238 C 0.85416 0.67629 0.85367
 C239 C 0.83738 0.66737 0.86159
 C240 C 0.82977 0.64977 0.85308
 H241 H 0.86028 0.64561 0.81508
 H242 H 0.86033 0.68968 0.86019
 H243 H 0.81751 0.64216 0.85964
 C244 C 0.83204 0.14524 0.33797
 C245 C 0.82470 0.15447 0.35458
 C246 C 0.83389 0.17149 0.36261
 C247 C 0.85075 0.17920 0.35382
 C248 C 0.85842 0.17024 0.33723
 C249 C 0.84896 0.15322 0.32949
 H250 H 0.81165 0.14851 0.36116
 H251 H 0.85783 0.19237 0.35984
 H252 H 0.85469 0.14626 0.31668
 C253 C 0.66395 0.35712 0.33857
 C254 C 0.64742 0.34837 0.33005
 C255 C 0.63709 0.33275 0.33919
 C256 C 0.64373 0.32558 0.35696
 C257 C 0.66055 0.33369 0.36549
 C258 C 0.67039 0.34962 0.35629
 H259 H 0.64286 0.35335 0.31599
 H260 H 0.63564 0.31385 0.36429
 H261 H 0.68325 0.35605 0.36288
 C262 C 0.66495 0.85797 0.83786
 C263 C 0.64797 0.84948 0.82995
 C264 C 0.63832 0.83331 0.83890
 C265 C 0.64610 0.82539 0.85592
 C266 C 0.66361 0.83290 0.86365
 C267 C 0.67279 0.84940 0.85462
 H268 H 0.64252 0.85516 0.81644
 H269 H 0.63841 0.81337 0.86324
 H270 H 0.68613 0.85548 0.86053
 C271 C 0.16529 0.35914 0.83529
 C272 C 0.14830 0.35103 0.82700
 C273 C 0.13776 0.33556 0.83611
 C274 C 0.14453 0.32807 0.85370
 C275 C 0.16195 0.33523 0.86186
 C276 C 0.17205 0.35099 0.85267
 H277 H 0.14361 0.35635 0.81309
 H278 H 0.13618 0.31660 0.86112
 H279 H 0.18536 0.35676 0.85892
 C280 C 0.16617 0.85795 0.33503
 C281 C 0.14979 0.84914 0.32629
 C282 C 0.13942 0.83342 0.33522
 C283 C 0.14595 0.82617 0.35302
 C284 C 0.16273 0.83421 0.36172
 C285 C 0.17256 0.85028 0.35271
 H286 H 0.14539 0.85418 0.31220
 H287 H 0.13783 0.81439 0.36026
 H288 H 0.18536 0.85671 0.35941
 O289 O 0.22556 0.98065 0.25214
 O290 O 0.24942 1.02142 0.22488
 O291 O 0.25138 0.98186 0.22479
 O292 O 0.22338 1.01983 0.25188
 O293 O 0.24724 1.02176 0.27301
 O294 O 0.27440 0.98275 0.24685
 O295 O 0.27329 1.02218 0.24604
 O296 O 0.24890 0.98223 0.27384
 Cu297 Cu 0.23511 1.00081 0.23621
 Cu298 Cu 0.26331 1.00243 0.26210
 C299 C 0.23318 0.97446 0.26764
 C300 C 0.26543 1.02880 0.23082
 C301 C 0.26750 0.97552 0.23145
 C302 C 0.23062 1.02739 0.26700
 O303 O 0.22604 0.48015 0.75138
 O304 O 0.25001 0.52016 0.72326
 O305 O 0.25121 0.48046 0.72362
 O306 O 0.22485 0.51931 0.75100
 O307 O 0.24897 0.52042 0.77187
 O308 O 0.27553 0.48187 0.74428
 O309 O 0.27423 0.52095 0.74406
 O310 O 0.25039 0.48073 0.77203
 Cu311 Cu 0.23565 0.49992 0.73517
 Cu312 Cu 0.26465 0.50111 0.76022
 C313 C 0.23417 0.47353 0.76646
 C314 C 0.26619 0.52741 0.72888
 C315 C 0.26786 0.47451 0.72929
 C316 C 0.23240 0.52653 0.76611
 O317 O 0.72397 0.01887 0.24935
 O318 O 0.75167 -0.01882 0.27714
 O319 O 0.74930 0.02069 0.27694
 O320 O 0.72618 -0.02034 0.24944
 O321 O 0.74980 -0.01857 0.22810
 O322 O 0.77378 0.02121 0.25649
 O323 O 0.77506 -0.01810 0.25552
 O324 O 0.74831 0.02103 0.22885
 Cu325 Cu 0.73541 -0.00005 0.26537
 Cu326 Cu 0.76410 0.00158 0.24010
 C327 C 0.73154 0.02658 0.23447
 C328 C 0.76796 -0.02514 0.27090
 C329 C 0.76552 0.02791 0.27145
 C330 C 0.73403 -0.02646 0.23404
 O331 O 0.72852 0.52113 0.74322
 O332 O 0.75293 0.48226 0.77230
 O333 O 0.75377 0.52188 0.77111
 O334 O 0.72802 0.48194 0.74436
 O335 O 0.75236 0.48067 0.72379
 O336 O 0.77819 0.52029 0.75066
 O337 O 0.77722 0.48114 0.75169
 O338 O 0.75295 0.52038 0.72272
 Cu339 Cu 0.73841 0.50196 0.75986
 Cu340 Cu 0.76756 0.50057 0.73507
 C341 C 0.73658 0.52744 0.72801
 C342 C 0.76912 0.47490 0.76692
 C343 C 0.77042 0.52784 0.76549
 C344 C 0.73589 0.47437 0.72958
 O345 O 0.22820 0.51818 0.24804
 O346 O 0.25353 0.47962 0.27652
 O347 O 0.25457 0.51928 0.27501
 O348 O 0.22779 0.47923 0.24939
 O349 O 0.25160 0.47729 0.22827
 O350 O 0.27744 0.51857 0.25285
 O351 O 0.27749 0.47897 0.25550
 O352 O 0.25136 0.51677 0.22618
 Cu353 Cu 0.23877 0.49925 0.26450
 Cu354 Cu 0.26687 0.49774 0.23858
 C355 C 0.23529 0.52392 0.23218
 C356 C 0.26971 0.47253 0.27083
 C357 C 0.27038 0.52607 0.26804
 C358 C 0.23517 0.47136 0.23449
 O359 O 0.74724 1.01863 0.77379
 O360 O 0.77450 0.98050 0.74631
 O361 O 0.77308 1.01982 0.74690
 O362 O 0.74844 0.97898 0.77344
 O363 O 0.72455 0.97926 0.75227
 O364 O 0.75017 1.01859 0.72476
 O365 O 0.75058 0.97907 0.72521
 O366 O 0.72412 1.01844 0.75183
 Cu367 Cu 0.76315 0.99947 0.76231
 Cu368 Cu 0.73504 0.99877 0.73632
 C369 C 0.73112 1.02525 0.76737
 C370 C 0.76714 0.97316 0.73114
 C371 C 0.76586 1.02616 0.73127
 C372 C 0.73216 0.97230 0.76747
 O373 O 0.74804 0.51897 0.27545
 O374 O 0.77422 0.47898 0.24948
 O375 O 0.77363 0.51856 0.24829
 O376 O 0.74855 0.47938 0.27640
 O377 O 0.72494 0.47843 0.25494
 O378 O 0.75024 0.51743 0.22661
 O379 O 0.75087 0.47812 0.22775
 O380 O 0.72439 0.51777 0.25405
 Cu381 Cu 0.76348 0.49910 0.26456
 Cu382 Cu 0.73524 0.49787 0.23868
 C383 C 0.73174 0.52522 0.26918
 C384 C 0.76698 0.47163 0.23427
 C385 C 0.76623 0.52472 0.23268
 C386 C 0.73254 0.47208 0.27040
 O387 O 0.24919 -0.01991 0.72627
 O388 O 0.27427 0.01824 0.75596
 O389 O 0.27484 -0.02089 0.75377
 O390 O 0.24950 0.01965 0.72794
 O391 O 0.22491 0.01785 0.74818
 O392 O 0.25114 -0.02198 0.77503
 O393 O 0.24970 0.01761 0.77630
 O394 O 0.22565 -0.02166 0.74766
 Cu395 Cu 0.26432 -0.00062 0.73884
 Cu396 Cu 0.23544 -0.00217 0.76389
 C397 C 0.23325 -0.02754 0.73210
 C398 C 0.26609 0.02462 0.77109
 C399 C 0.26745 -0.02833 0.76885
 C400 C 0.23296 0.02579 0.73362
 O401 O 0.24357 0.27787 0.98138
 O402 O 0.27314 0.25222 1.01827
 O403 O 0.27282 0.25302 0.98078
 O404 O 0.24432 0.27788 1.01844
 O405 O 0.22393 0.25204 1.01897
 O406 O 0.25245 0.22715 0.98097
 O407 O 0.25270 0.22642 1.01790
 O408 O 0.22317 0.25204 0.98144
 Cu409 Cu 0.26057 0.26780 0.99975
 Cu410 Cu 0.23593 0.23689 0.99985
 C411 C 0.22837 0.26918 0.97499
 C412 C 0.26795 0.23488 1.02434
 C413 C 0.26747 0.23594 0.97434
 C414 C 0.22931 0.26924 1.02520
 O415 O 0.24582 0.77703 0.48036
 O416 O 0.27553 0.75195 0.51711
 O417 O 0.27459 0.75129 0.47953
 O418 O 0.24622 0.77671 0.51739
 O419 O 0.22584 0.75087 0.51776
 O420 O 0.25417 0.72550 0.48037
 O421 O 0.25516 0.72609 0.51744
 O422 O 0.22542 0.75120 0.48028
 Cu423 Cu 0.26267 0.76677 0.49850
 Cu424 Cu 0.23805 0.73587 0.49897
 C425 C 0.23056 0.76848 0.47403
 C426 C 0.27034 0.73490 0.52376
 C427 C 0.26917 0.73402 0.47349
 C428 C 0.23122 0.76797 0.52413
 O429 O 0.27652 0.75080 -0.01721
 O430 O 0.24751 0.72295 0.01841
 O431 O 0.24933 0.72401 -0.01878
 O432 O 0.27508 0.75000 0.02027
 O433 O 0.25357 0.77480 0.01915
 O434 O 0.22661 0.74765 -0.01860
 O435 O 0.22604 0.74781 0.01891
 O436 O 0.25420 0.77485 -0.01796
 Cu437 Cu 0.26434 0.73452 0.00079
 Cu438 Cu 0.23784 0.76368 0.00033
 C439 C 0.27014 0.76740 -0.02393
 C440 C 0.23198 0.73076 0.02496
 C441 C 0.23366 0.73141 -0.02545
 C442 C 0.26880 0.76690 0.02632
 O443 O 0.22493 0.24678 0.48185
 O444 O 0.25264 0.27183 0.52046
 O445 O 0.25332 0.27315 0.48339
 O446 O 0.22428 0.24579 0.51930
 O447 O 0.24504 0.22032 0.51829
 O448 O 0.27491 0.24839 0.48341
 O449 O 0.27337 0.24629 0.52076
 O450 O 0.24692 0.22242 0.48111
 Cu451 Cu 0.23660 0.26186 0.50125
 Cu452 Cu 0.26220 0.23185 0.50089
 C453 C 0.23147 0.23048 0.47465
 C454 C 0.26762 0.26316 0.52734
 C455 C 0.26910 0.26547 0.47729
 C456 C 0.22972 0.22842 0.52500
 O457 O 0.72701 0.74855 1.01988
 O458 O 0.75371 0.72349 0.98120
 O459 O 0.75530 0.72251 1.01835
 O460 O 0.72568 0.74919 0.98253
 O461 O 0.74713 0.77408 0.98182
 O462 O 0.77602 0.74806 1.01904
 O463 O 0.77568 0.74791 0.98147
 O464 O 0.74765 0.77416 1.01909
 Cu465 Cu 0.73829 0.73345 1.00059
 Cu466 Cu 0.76380 0.76356 1.00033
 C467 C 0.73268 0.76562 1.02611
 C468 C 0.76916 0.73142 0.97462
 C469 C 0.77055 0.73080 1.02503
 C470 C 0.73150 0.76598 0.97575
 O471 O 0.74376 0.27778 0.48459
 O472 O 0.77346 0.25241 0.52119
 O473 O 0.77339 0.25339 0.48360
 O474 O 0.74373 0.27672 0.52146
 O475 O 0.72397 0.25035 0.52099
 O476 O 0.75378 0.22690 0.48332
 O477 O 0.75373 0.22605 0.52048
 O478 O 0.72408 0.25137 0.48357
 Cu479 Cu 0.76068 0.26764 0.50277
 Cu480 Cu 0.73689 0.23604 0.50202
 C481 C 0.72885 0.26893 0.47781
 C482 C 0.76857 0.23501 0.52727
 C483 C 0.76857 0.23624 0.47688
 C484 C 0.72877 0.26752 0.52769
 O485 O 0.77372 0.25078 -0.01921
 O486 O 0.74764 0.22354 0.01891
 O487 O 0.74623 0.22339 -0.01853
 O488 O 0.77457 0.25087 0.01814
 O489 O 0.75226 0.27492 0.01841
 O490 O 0.72404 0.24756 -0.01795
 O491 O 0.72503 0.24729 0.01931
 O492 O 0.75106 0.27449 -0.01886
 Cu493 Cu 0.76277 0.23472 -0.00026
 Cu494 Cu 0.73586 0.26346 0.00036
 C495 C 0.76669 0.26719 -0.02571
 C496 C 0.73201 0.23084 0.02575
 C497 C 0.73039 0.23100 -0.02469
 C498 C 0.76816 0.26755 0.02460
 O499 O 0.77643 0.75163 0.47896
 O500 O 0.74815 0.72738 0.51737
 O501 O 0.74732 0.72630 0.48002
 O502 O 0.77699 0.75239 0.51649
 O503 O 0.75612 0.77782 0.51644
 O504 O 0.72727 0.75239 0.47921
 O505 O 0.72697 0.75251 0.51664
 O506 O 0.75627 0.77765 0.47944
 Cu507 Cu 0.76429 0.73684 0.49817
 Cu508 Cu 0.73953 0.76761 0.49790
 C509 C 0.77123 0.76887 0.47273
 C510 C 0.73284 0.73584 0.52367
 C511 C 0.73236 0.73505 0.47318
 C512 C 0.77146 0.76946 0.52285
 O513 O 1.01675 0.22516 0.25413
 O514 O 0.98022 0.25208 0.22516
 O515 O 1.01827 0.25123 0.22614
 O516 O 0.97873 0.22640 0.25305
 O517 O 0.97973 0.25095 0.27443
 O518 O 1.01777 0.27665 0.24656
 O519 O 0.98005 0.27697 0.24619
 O520 O 1.01778 0.25077 0.27435
 Cu521 Cu 0.99851 0.23618 0.23754
 Cu522 Cu 0.99879 0.26632 0.26251
 C523 C 1.02372 0.23347 0.26902
 C524 C 0.97380 0.26908 0.23079
 C525 C 1.02467 0.26830 0.23170
 C526 C 0.97254 0.23443 0.26838
 O527 O 0.48136 0.25025 0.72679
 O528 O 0.51783 0.22353 0.75626
 O529 O 0.47979 0.22353 0.75394
 O530 O 0.51926 0.25026 0.72902
 O531 O 0.51692 0.27553 0.74949
 O532 O 0.47963 0.24707 0.77632
 O533 O 0.51761 0.24887 0.77679
 O534 O 0.47890 0.27376 0.74906
 Cu535 Cu 0.49971 0.23441 0.73937
 Cu536 Cu 0.49814 0.26377 0.76507
 C537 C 0.47359 0.26635 0.73313
 C538 C 0.52428 0.23189 0.77135
 C539 C 0.47301 0.23067 0.76941
 C540 C 0.52474 0.26754 0.73487
 O541 O 0.01815 0.25163 0.77425
 O542 O -0.01898 0.22414 0.74648
 O543 O 0.01880 0.22539 0.74659
 O544 O -0.02014 0.25030 0.77424
 O545 O -0.02047 0.27546 0.75347
 O546 O 0.01819 0.25051 0.72579
 O547 O -0.01995 0.24924 0.72568
 O548 O 0.01725 0.27669 0.75339
 Cu549 Cu -0.00048 0.23540 0.76255
 Cu550 Cu -0.00135 0.26544 0.73744
 C551 C 0.02416 0.26878 0.76850
 C552 C -0.02585 0.23202 0.73133
 C553 C 0.02521 0.23377 0.73149
 C554 C -0.02696 0.26714 0.76854
 O555 O 0.51875 0.24942 0.27388
 O556 O 0.48033 0.22464 0.24521
 O557 O 0.51814 0.22436 0.24512
 O558 O 0.48060 0.24891 0.27432
 O559 O 0.48033 0.27507 0.25469
 O560 O 0.51855 0.25060 0.22558
 O561 O 0.48027 0.25079 0.22556
 O562 O 0.51806 0.27561 0.25430
 Cu563 Cu 0.49953 0.23424 0.26164
 Cu564 Cu 0.49931 0.26558 0.23799
 C565 C 0.52488 0.26683 0.26899
 C566 C 0.47362 0.23364 0.23055
 C567 C 0.52484 0.23324 0.23043
 C568 C 0.47389 0.26607 0.26946
 O569 O 1.01985 0.77756 0.74554
 O570 O 0.98347 0.75129 0.77551
 O571 O 1.02167 0.75187 0.77383
 O572 O 0.98179 0.77689 0.74771
 O573 O 0.98158 0.75211 0.72655
 O574 O 1.02033 0.72622 0.75366
 O575 O 0.98263 0.72624 0.75466
 O576 O 1.01958 0.75185 0.72544
 Cu577 Cu 1.00184 0.76696 0.76271
 Cu578 Cu 1.00097 0.73661 0.73798
 C579 C 1.02608 0.76904 0.73045
 C580 C 0.97669 0.73435 0.77003
 C581 C 1.02771 0.73467 0.76829
 C582 C 0.97480 0.76874 0.73276
 O583 O 0.52076 0.77734 0.24526
 O584 O 0.48323 0.75234 0.27446
 O585 O 0.52126 0.75131 0.27313
 O586 O 0.48271 0.77771 0.24643
 O587 O 0.48196 0.75296 0.22526
 O588 O 0.51948 0.72574 0.25292
 O589 O 0.48172 0.72727 0.25366
 O590 O 0.52008 0.75177 0.22501
 Cu591 Cu 0.50215 0.76722 0.26187
 Cu592 Cu 0.50069 0.73695 0.23709
 C593 C 0.52705 0.76870 0.23027
 C594 C 0.47592 0.73566 0.26897
 C595 C 0.52688 0.73394 0.26766
 C596 C 0.47565 0.76982 0.23139
 O597 O -0.01765 0.77245 0.24947
 O598 O 0.02111 0.74486 0.22412
 O599 O -0.01679 0.74436 0.22355
 O600 O 0.02049 0.77306 0.25027
 O601 O 0.02091 0.74935 0.27252
 O602 O -0.01742 0.72170 0.24675
 O603 O 0.02088 0.72152 0.24673
 O604 O -0.01698 0.74985 0.27271
 Cu605 Cu 0.00182 0.76105 0.23460
 Cu606 Cu 0.00180 0.73322 0.26190
 C607 C -0.02395 0.76588 0.26539
 C608 C 0.02769 0.72852 0.23118
 C609 C -0.02372 0.72828 0.23082
 C610 C 0.02728 0.76593 0.26582
 O611 O 0.48112 0.77240 0.75409
 O612 O 0.52097 0.74783 0.72725
 O613 O 0.48300 0.74657 0.72589
 O614 O 0.51903 0.77414 0.75495
 O615 O 0.51967 0.74896 0.77570
 O616 O 0.48280 0.72183 0.74713
 O617 O 0.52113 0.72290 0.74828
 O618 O 0.48168 0.74747 0.77507
 Cu619 Cu 0.50098 0.76272 0.73843
 Cu620 Cu 0.50133 0.73274 0.76359
 C621 C 0.47457 0.76408 0.76918
 C622 C 0.52803 0.73127 0.73340
 C623 C 0.47652 0.72965 0.73170
 C624 C 0.52568 0.76619 0.77016
 C625 C 0.41057 0.30224 0.31259
 C626 C 0.40780 0.32337 0.31068
 C627 C 0.39241 0.33297 0.32032
 C628 C 0.37919 0.32176 0.33144
 C629 C 0.38182 0.30074 0.33298
 C630 C 0.39729 0.29112 0.32381
 C631 C 0.42721 0.29258 0.30214
 C632 C 0.43192 0.27192 0.30403
 C633 C 0.44725 0.26352 0.29363
 C634 C 0.45821 0.27540 0.28097
 C635 C 0.45392 0.29609 0.27926
 C636 C 0.43872 0.30478 0.28991
 C637 C 0.42013 0.33472 0.29886
 C638 C 0.43507 0.32558 0.28848
 H639 H 0.41798 0.35089 0.29732
 H640 H 0.44399 0.33499 0.27928
 H641 H 0.39071 0.34922 0.31908
 H642 H 0.37161 0.29156 0.34099
 H643 H 0.45032 0.24753 0.29530
 H644 H 0.46252 0.30548 0.26974
 H645 H 0.39833 0.27493 0.32538
 H646 H 0.42403 0.26198 0.31350
 C647 C 0.40989 0.80083 0.81010
 C648 C 0.40530 0.82113 0.80563
 C649 C 0.38958 0.83081 0.81468
 C650 C 0.37767 0.82050 0.82801
 C651 C 0.38244 0.80018 0.83221
 C652 C 0.39821 0.79058 0.82349
 C653 C 0.42678 0.79105 0.80009
 C654 C 0.43296 0.77114 0.80404
 C655 C 0.44854 0.76260 0.79412
 C656 C 0.45838 0.77358 0.77992
 C657 C 0.45254 0.79352 0.77604
 C658 C 0.43699 0.80236 0.78611
 C659 C 0.41631 0.83166 0.79198
 C660 C 0.43167 0.82242 0.78230
 H661 H 0.41282 0.84723 0.78852
 H662 H 0.43955 0.83116 0.77170
 H663 H 0.38712 0.84664 0.81155
 H664 H 0.37352 0.79107 0.84160
 H665 H 0.45276 0.74720 0.79746
 H666 H 0.46017 0.80225 0.76525
 H667 H 0.40071 0.77495 0.82719
 H668 H 0.42601 0.76189 0.81475
 C669 C -0.09055 0.30618 0.80892
 C670 C -0.10429 0.29344 0.81803
 C671 C -0.12086 0.30180 0.82681
 C672 C -0.12377 0.32287 0.82715
 C673 C -0.10957 0.33544 0.81889
 C674 C -0.09327 0.32727 0.80985
 C675 C -0.07368 0.29662 0.79874
 C676 C -0.06040 0.30782 0.78759
 C677 C -0.04524 0.29818 0.77795
 C678 C -0.04271 0.27718 0.77936
 C679 C -0.05575 0.26586 0.79052
 C680 C -0.07142 0.27535 0.79985
 C681 C -0.10138 0.27245 0.81837
 C682 C -0.08512 0.26364 0.80977
 H683 H -0.11177 0.26268 0.82551
 H684 H -0.08349 0.24735 0.81053
 H685 H -0.13165 0.29182 0.83307
 H686 H -0.11102 0.35174 0.81946
 H687 H -0.03540 0.30722 0.76935
 H688 H -0.05410 0.24956 0.79138
 H689 H -0.08291 0.33776 0.80382
 H690 H -0.06168 0.32397 0.78579
 C691 C -0.08829 0.80593 0.30364
 C692 C -0.08926 0.80433 0.32379
 C693 C -0.10460 0.81359 0.33385
 C694 C -0.11954 0.82386 0.32405
 C695 C -0.11887 0.82459 0.30398
 C696 C -0.10346 0.81592 0.29392
 C697 C -0.07144 0.79636 0.29345
 C698 C -0.06819 0.79877 0.27369
 C699 C -0.05254 0.78918 0.26476
 C700 C -0.03984 0.77678 0.27523
 C701 C -0.04264 0.77466 0.29502
 C702 C -0.05809 0.78465 0.30423
 C703 C -0.07512 0.79318 0.33373
 C704 C -0.06011 0.78322 0.32412
 H705 H -0.07590 0.79179 0.34915
 H706 H -0.04978 0.77445 0.33244
 H707 H -0.10482 0.81282 0.34932
 H708 H -0.13048 0.83168 0.29589
 H709 H -0.05060 0.79117 0.24951
 H710 H -0.03265 0.76543 0.30329
 H711 H -0.10394 0.81688 0.27853
 H712 H -0.07745 0.80810 0.26487
 C713 C 0.58882 0.69289 0.30895
 C714 C 0.60221 0.70525 0.31900
 C715 C 0.61831 0.69653 0.32828
 C716 C 0.62113 0.67546 0.32818
 C717 C 0.60734 0.66321 0.31890
 C718 C 0.59145 0.67175 0.30937
 C719 C 0.57244 0.70291 0.29835
 C720 C 0.55941 0.69219 0.28649
 C721 C 0.54464 0.70229 0.27659
 C722 C 0.54232 0.72328 0.27842
 C723 C 0.55517 0.73410 0.29023
 C724 C 0.57036 0.72417 0.29989
 C725 C 0.59948 0.72624 0.31974
 C726 C 0.58372 0.73545 0.31064
 H727 H 0.60962 0.73569 0.32758
 H728 H 0.58220 0.75174 0.31174
 H729 H 0.62885 0.70625 0.33526
 H730 H 0.60878 0.64689 0.31902
 H731 H 0.53495 0.69362 0.26751
 H732 H 0.55369 0.75038 0.29148
 H733 H 0.58137 0.66153 0.30253
 H734 H 0.56054 0.67606 0.28441
 C735 C 0.58832 0.19429 0.81241
 C736 C 0.59068 0.17312 0.81042
 C737 C 0.60632 0.16326 0.81951
 C738 C 0.62020 0.17428 0.83003
 C739 C 0.61802 0.19536 0.83149
 C740 C 0.60229 0.20521 0.82295
 C741 C 0.57139 0.20425 0.80263
 C742 C 0.56695 0.22492 0.80492
 C743 C 0.55143 0.23366 0.79503
 C744 C 0.53999 0.22211 0.78250
 C745 C 0.54393 0.20138 0.78049
 C746 C 0.55932 0.19233 0.79068
 C747 C 0.57773 0.16202 0.79901
 C748 C 0.56260 0.17148 0.78908
 H749 H 0.57957 0.14583 0.79738
 H750 H 0.55324 0.16228 0.78011
 H751 H 0.60771 0.14698 0.81826
 H752 H 0.62876 0.20444 0.83892
 H753 H 0.54861 0.24966 0.79694
 H754 H 0.53493 0.19224 0.77111
 H755 H 0.60164 0.22144 0.82441
 H756 H 0.57522 0.23461 0.81431
 C757 C 1.09084 0.69466 0.80876
 C758 C 1.10491 0.70719 0.81767
 C759 C 1.12130 0.69854 0.82658
 C760 C 1.12370 0.67742 0.82722
 C761 C 1.10914 0.66509 0.81922
 C762 C 1.09300 0.67352 0.81007
 C763 C 1.07419 0.70449 0.79840
 C764 C 1.06062 0.69346 0.78740
 C765 C 1.04560 0.70332 0.77769
 C766 C 1.04352 0.72438 0.77886
 C767 C 1.05693 0.73554 0.78978
 C768 C 1.07243 0.72581 0.79919
 C769 C 1.10251 0.72824 0.81766
 C770 C 1.08644 0.73733 0.80892
 H771 H 1.11315 0.73786 0.82464
 H772 H 1.08519 0.75367 0.80943
 H773 H 1.13236 0.70832 0.83267
 H774 H 1.11019 0.64876 0.82005
 H775 H 1.03548 0.69440 0.76929
 H776 H 1.05563 0.75188 0.79046
 H777 H 1.08236 0.66322 0.80424
 H778 H 1.06154 0.67725 0.78582
 C779 C 1.08597 0.19324 0.31047
 C780 C 1.09989 0.20577 0.31961
 C781 C 1.11625 0.19715 0.32857
 C782 C 1.11879 0.17605 0.32903
 C783 C 1.10439 0.16369 0.32080
 C784 C 1.08827 0.17211 0.31160
 C785 C 1.06940 0.20307 0.30001
 C786 C 1.05601 0.19207 0.28878
 C787 C 1.04115 0.20198 0.27884
 C788 C 1.03908 0.22303 0.28005
 C789 C 1.05225 0.23413 0.29128
 C790 C 1.06758 0.22438 0.30091
 C791 C 1.09739 0.22681 0.31976
 C792 C 1.08140 0.23588 0.31089
 H793 H 1.10791 0.23642 0.32693
 H794 H 1.08009 0.25222 0.31149
 H795 H 1.12720 0.20695 0.33482
 H796 H 1.10556 0.14736 0.32147
 H797 H 1.03122 0.19311 0.27019
 H798 H 1.05097 0.25047 0.29199
 H799 H 1.07775 0.16179 0.30557
 H800 H 1.05696 0.17588 0.28715
 C801 C 0.58811 0.30821 0.69535
 C802 C 0.60080 0.29582 0.68453
 C803 C 0.61693 0.30433 0.67521
 C804 C 0.62050 0.32525 0.67598
 C805 C 0.60757 0.33758 0.68627
 C806 C 0.59163 0.32921 0.69587
 C807 C 0.57143 0.29834 0.70565
 C808 C 0.55877 0.30901 0.71791
 C809 C 0.54363 0.29902 0.72737
 C810 C 0.54058 0.27823 0.72469
 C811 C 0.55309 0.26749 0.71252
 C812 C 0.56858 0.27727 0.70326
 C813 C 0.59731 0.27501 0.68300
 C814 C 0.58141 0.26598 0.69195
 H815 H 0.60696 0.26554 0.67461
 H816 H 0.57928 0.24983 0.69021
 H817 H 0.62689 0.29454 0.66755
 H818 H 0.60967 0.35381 0.68679
 H819 H 0.53421 0.30762 0.73676
 H820 H 0.55105 0.25135 0.71058
 H821 H 0.58219 0.33947 0.70346
 H822 H 0.56045 0.32498 0.72058
 C823 C 0.59224 0.80463 0.18963
 C824 C 0.59713 0.82486 0.19411
 C825 C 0.61333 0.83414 0.18545
 C826 C 0.62536 0.82345 0.17255
 C827 C 0.62037 0.80315 0.16851
 C828 C 0.60416 0.79397 0.17680
 C829 C 0.57490 0.79524 0.19920
 C830 C 0.56837 0.77548 0.19507
 C831 C 0.55261 0.76713 0.20489
 C832 C 0.54293 0.77819 0.21910
 C833 C 0.54893 0.79810 0.22292
 C834 C 0.56468 0.80672 0.21300
 C835 C 0.58598 0.83565 0.20743
 C836 C 0.57026 0.82671 0.21684
 H837 H 0.58968 0.85117 0.21091
 H838 H 0.56234 0.83559 0.22727
 H839 H 0.61609 0.84992 0.18856
 H840 H 0.62945 0.79369 0.15960
 H841 H 0.54822 0.75179 0.20155
 H842 H 0.54139 0.80691 0.23369
 H843 H 0.60154 0.77833 0.17326
 H844 H 0.57523 0.76617 0.18437
 C845 C 1.08822 0.30798 0.19166
 C846 C 1.09939 0.29607 0.17896
 C847 C 1.11585 0.30436 0.16989
 C848 C 1.12158 0.32461 0.17316
 C849 C 1.10978 0.33646 0.18530
 C850 C 1.09348 0.32834 0.19435
 C851 C 1.07135 0.29834 0.20178
 C852 C 1.06011 0.30863 0.21553
 C853 C 1.04493 0.29885 0.22500
 C854 C 1.04040 0.27860 0.22099
 C855 C 1.05135 0.26824 0.20716
 C856 C 1.06688 0.27787 0.19772
 C857 C 1.09420 0.27588 0.17555
 C858 C 1.07820 0.26703 0.18459
 H859 H 1.10265 0.26673 0.16574
 H860 H 1.07483 0.25135 0.18148
 H861 H 1.12463 0.29450 0.16105
 H862 H 1.11261 0.35239 0.18749
 H863 H 1.03672 0.30722 0.23559
 H864 H 1.04809 0.25252 0.20406
 H865 H 1.08515 0.33839 0.20331
 H866 H 1.06293 0.32413 0.21943
 C867 C 1.08840 0.80659 0.68684
 C868 C 1.09261 0.82713 0.69061
 C869 C 1.10827 0.83675 0.68134
 C870 C 1.12056 0.82608 0.66863
 C871 C 1.11607 0.80554 0.66510
 C872 C 1.10033 0.79605 0.67392
 C873 C 1.07180 0.79677 0.69724
 C874 C 1.06603 0.77661 0.69392
 C875 C 1.05100 0.76788 0.70450
 C876 C 1.04131 0.77893 0.71872
 C877 C 1.04656 0.79921 0.72180
 C878 C 1.06157 0.80822 0.71107
 C879 C 1.08142 0.83788 0.70394
 C880 C 1.06641 0.82857 0.71412
 H881 H 1.08460 0.85364 0.70687
 H882 H 1.05847 0.83744 0.72455
 H883 H 1.11043 0.85272 0.68395
 H884 H 1.12529 0.79611 0.65631
 H885 H 1.04718 0.75225 0.70171
 H886 H 1.03899 0.80799 0.73256
 H887 H 1.09816 0.78023 0.67081
 H888 H 1.07291 0.76726 0.68327
 C889 C 0.41327 0.69205 0.68946
 C890 C 0.39843 0.68277 0.70041
 C891 C 0.38183 0.67481 0.69138
 C892 C 0.37997 0.67513 0.67134
 C893 C 0.39519 0.68354 0.66050
 C894 C 0.41154 0.69199 0.66938
 C895 C 0.43023 0.70140 0.69977
 C896 C 0.44460 0.71303 0.69044
 C897 C 0.45972 0.72201 0.70081
 C898 C 0.46113 0.71928 0.72064
 C899 C 0.44705 0.70758 0.73005
 C900 C 0.43140 0.69908 0.71988
 C901 C 0.40029 0.68133 0.72032
 C902 C 0.41660 0.68894 0.72979
 H903 H 0.38903 0.67402 0.72871
 H904 H 0.41740 0.68731 0.74520
 H905 H 0.37022 0.66861 0.70009
 H906 H 0.39459 0.68348 0.64503
 H907 H 0.47037 0.73113 0.69330
 H908 H 0.44781 0.70582 0.74546
 H909 H 0.42274 0.69816 0.66027
 H910 H 0.44416 0.71578 0.67524
 C911 C 0.40839 0.19817 0.18961
 C912 C 0.40530 0.17711 0.19174
 C913 C 0.38945 0.16773 0.18259
 C914 C 0.37613 0.17913 0.17174
 C915 C 0.37899 0.20010 0.17013
 C916 C 0.39490 0.20949 0.17882
 C917 C 0.42560 0.20758 0.19939
 C918 C 0.43069 0.22809 0.19704
 C919 C 0.44649 0.23631 0.20689
 C920 C 0.45760 0.22439 0.21941
 C921 C 0.45300 0.20380 0.22147
 C922 C 0.43728 0.19528 0.21138
 C923 C 0.41783 0.16562 0.20328
 C924 C 0.43328 0.17457 0.21313
 H925 H 0.41543 0.14951 0.20501
 H926 H 0.44233 0.16509 0.22215
 H927 H 0.38751 0.15151 0.18394
 H928 H 0.36869 0.20943 0.16239
 H929 H 0.44980 0.25221 0.20494
 H930 H 0.46170 0.19437 0.23088
 H931 H 0.39612 0.22566 0.17720
 H932 H 0.42271 0.23805 0.18766
 C933 C -0.08901 0.68933 0.19307
 C934 C -0.09026 0.69096 0.17293
 C935 C -0.10601 0.68212 0.16308
 C936 C -0.12106 0.67231 0.17311
 C937 C -0.12011 0.67165 0.19317
 C938 C -0.10432 0.67985 0.20301
 C939 C -0.07178 0.69843 0.20304
 C940 C -0.06825 0.69579 0.22274
 C941 C -0.05236 0.70510 0.23153
 C942 C -0.03966 0.71742 0.22099
 C943 C -0.04267 0.71965 0.20124
 C944 C -0.05839 0.70992 0.19215
 C945 C -0.07603 0.70179 0.16283
 C946 C -0.06067 0.71144 0.17228
 H947 H -0.07701 0.70323 0.14742
 H948 H -0.05030 0.72002 0.16387
 H949 H -0.10648 0.68290 0.14761
 H950 H -0.13180 0.66501 0.20146
 H951 H -0.05026 0.70302 0.24676
 H952 H -0.03267 0.72880 0.19291
 H953 H -0.10461 0.67900 0.21840
 H954 H -0.07750 0.68652 0.23161
 C955 C -0.08766 0.19056 0.69013
 C956 C -0.09934 0.20247 0.67786
 C957 C -0.11563 0.19395 0.66873
 C958 C -0.12066 0.17337 0.67132
 C959 C -0.10827 0.16149 0.68290
 C960 C -0.09213 0.16989 0.69213
 C961 C -0.07113 0.20057 0.70054
 C962 C -0.05958 0.19043 0.71421
 C963 C -0.04482 0.20063 0.72402
 C964 C -0.04104 0.22113 0.72038
 C965 C -0.05229 0.23132 0.70664
 C966 C -0.06742 0.22131 0.69695
 C967 C -0.09489 0.22294 0.67494
 C968 C -0.07914 0.23209 0.68410
 H969 H -0.10375 0.23206 0.66542
 H970 H -0.07635 0.24797 0.68136
 H971 H -0.12489 0.20392 0.66047
 H972 H -0.11050 0.14539 0.68456
 H973 H -0.03637 0.19241 0.73456
 H974 H -0.04965 0.24723 0.70386
 H975 H -0.08330 0.15987 0.70069
 H976 H -0.06190 0.17474 0.71779
 C977 C 0.30622 0.40627 0.31200
 C978 C 0.32666 0.40415 0.31029
 C979 C 0.33632 0.38830 0.31977
 C980 C 0.32586 0.37391 0.33046
 C981 C 0.30549 0.37570 0.33151
 C982 C 0.29581 0.39167 0.32254
 C983 C 0.29652 0.42369 0.30207
 C984 C 0.27657 0.42814 0.30428
 C985 C 0.26810 0.44425 0.29440
 C986 C 0.27920 0.45624 0.28195
 C987 C 0.29919 0.45225 0.27997
 C988 C 0.30796 0.43633 0.29018
 C989 C 0.33729 0.41763 0.29886
 C990 C 0.32809 0.43313 0.28873
 H991 H 0.35293 0.41595 0.29742
 H992 H 0.33691 0.44292 0.27980
 H993 H 0.35205 0.38725 0.31883
 H994 H 0.29688 0.36453 0.33905
 H995 H 0.25267 0.44708 0.29626
 H996 H 0.30796 0.46166 0.27063
 H997 H 0.28014 0.39206 0.32374
 H998 H 0.26727 0.41947 0.31362
 C999 C 0.30828 -0.09381 0.80733
 C1000 C 0.29731 -0.10610 0.81989
 C1001 C 0.30608 -0.12273 0.82904
 C1002 C 0.32598 -0.12743 0.82622
 C1003 C 0.33677 -0.11469 0.81394
 C1004 C 0.32813 -0.09828 0.80468
 C1005 C 0.29825 -0.07654 0.79745
 C1006 C 0.30766 -0.06410 0.78394
 C1007 C 0.29763 -0.04844 0.77487
 C1008 C 0.27799 -0.04462 0.77907
 C1009 C 0.26848 -0.05682 0.79259
 C1010 C 0.27837 -0.07284 0.80161
 C1011 C 0.27761 -0.10175 0.82326
 C1012 C 0.26841 -0.08538 0.81446
 H1013 H 0.26918 -0.11109 0.83294
 H1014 H 0.25317 -0.08264 0.81761
 H1015 H 0.29692 -0.13236 0.83774
 H1016 H 0.35227 -0.11673 0.81190
 H1017 H 0.30533 -0.03928 0.76448
 H1018 H 0.25324 -0.05414 0.79580
 H1019 H 0.33739 -0.08915 0.79571
 H1020 H 0.32269 -0.06630 0.77997
 C1021 C 0.80482 0.40853 0.80866
 C1022 C 0.82468 0.40444 0.80499
 C1023 C 0.83402 0.38813 0.81411
 C1024 C 0.82380 0.37513 0.82665
 C1025 C 0.80385 0.37926 0.82980
 C1026 C 0.79460 0.39562 0.82108
 C1027 C 0.79540 0.42611 0.79872
 C1028 C 0.77601 0.43209 0.80222
 C1029 C 0.76770 0.44815 0.79215
 C1030 C 0.77843 0.45865 0.77827
 C1031 C 0.79792 0.45319 0.77503
 C1032 C 0.80651 0.43720 0.78527
 C1033 C 0.83507 0.41647 0.79200
 C1034 C 0.82611 0.43231 0.78216
 H1035 H 0.85029 0.41335 0.78911
 H1036 H 0.83470 0.44091 0.77200
 H1037 H 0.84946 0.38610 0.81165
 H1038 H 0.79481 0.36938 0.83834
 H1039 H 0.75267 0.45213 0.79502
 H1040 H 0.80645 0.46141 0.76454
 H1041 H 0.77927 0.39756 0.82393
 H1042 H 0.76698 0.42460 0.81267
 C1043 C 0.80939 -0.08925 0.31071
 C1044 C 0.82208 -0.10130 0.29962
 C1045 C 0.83171 -0.11789 0.30789
 C1046 C 0.82943 -0.12272 0.32746
 C1047 C 0.81736 -0.10995 0.33850
 C1048 C 0.80750 -0.09362 0.33030
 C1049 C 0.79862 -0.07232 0.30107
 C1050 C 0.78437 -0.06054 0.31040
 C1051 C 0.77446 -0.04522 0.30062
 C1052 C 0.77866 -0.04108 0.28140
 C1053 C 0.79283 -0.05268 0.27200
 C1054 C 0.80254 -0.06841 0.28154
 C1055 C 0.82510 -0.09679 0.28027
 C1056 C 0.81577 -0.08052 0.27151
 H1057 H 0.83494 -0.10592 0.27177
 H1058 H 0.81870 -0.07760 0.25653
 H1059 H 0.84026 -0.12745 0.29858
 H1060 H 0.81582 -0.11198 0.35376
 H1061 H 0.76351 -0.03653 0.30816
 H1062 H 0.79594 -0.04983 0.25704
 H1063 H 0.79864 -0.08447 0.33963
 H1064 H 0.78043 -0.06311 0.32512
 C1065 C 0.30397 0.59299 0.68795
 C1066 C 0.32458 0.59362 0.68849
 C1067 C 0.33467 0.60936 0.67930
 C1068 C 0.32455 0.62517 0.67019
 C1069 C 0.30407 0.62473 0.67019
 C1070 C 0.29391 0.60885 0.67879
 C1071 C 0.29376 0.57580 0.69775
 C1072 C 0.27344 0.57279 0.69666
 C1073 C 0.26458 0.55683 0.70648
 C1074 C 0.27570 0.54365 0.71778
 C1075 C 0.29599 0.54620 0.71859
 C1076 C 0.30510 0.56188 0.70840
 C1077 C 0.33499 0.57885 0.69860
 C1078 C 0.32545 0.56355 0.70865
 H1079 H 0.35077 0.57938 0.69913
 H1080 H 0.33416 0.55275 0.71661
 H1081 H 0.35046 0.60929 0.67935
 H1082 H 0.29576 0.63695 0.66385
 H1083 H 0.24891 0.55505 0.70553
 H1084 H 0.30473 0.53578 0.72697
 H1085 H 0.27821 0.60954 0.67850
 H1086 H 0.26414 0.58250 0.68825
 C1087 C 0.30218 1.09572 0.19068
 C1088 C 0.32199 1.09961 0.19484
 C1089 C 0.33179 1.11562 0.18574
 C1090 C 0.32213 1.12847 0.17263
 C1091 C 0.30220 1.12466 0.16906
 C1092 C 0.29245 1.10862 0.17784
 C1093 C 0.29237 1.07823 0.20041
 C1094 C 0.27303 1.07236 0.19641
 C1095 C 0.26446 1.05616 0.20609
 C1096 C 0.27487 1.04543 0.22007
 C1097 C 0.29425 1.05090 0.22392
 C1098 C 0.30310 1.06700 0.21408
 C1099 C 0.33194 1.08758 0.20817
 C1100 C 0.32263 1.07180 0.21775
 H1101 H 0.34712 1.09057 0.21143
 H1102 H 0.33092 1.06313 0.22811
 H1103 H 0.34721 1.11739 0.18854
 H1104 H 0.29357 1.13448 0.16005
 H1105 H 0.24951 1.05220 0.20278
 H1106 H 0.30254 1.04254 0.23451
 H1107 H 0.27718 1.10683 0.17460
 H1108 H 0.26427 1.08001 0.18584
 C1109 C 0.80559 0.58838 0.19040
 C1110 C 0.81633 0.60257 0.20129
 C1111 C 0.82576 0.61877 0.19222
 C1112 C 0.82541 0.62081 0.17221
 C1113 C 0.81523 0.60634 0.16140
 C1114 C 0.80538 0.59040 0.17033
 C1115 C 0.79517 0.57169 0.20077
 C1116 C 0.78266 0.55786 0.19154
 C1117 C 0.77320 0.54267 0.20192
 C1118 C 0.77621 0.54072 0.22167
 C1119 C 0.78855 0.55446 0.23100
 C1120 C 0.79770 0.57009 0.22081
 C1121 C 0.81782 0.60042 0.22116
 C1122 C 0.80899 0.58433 0.23067
 H1123 H 0.82618 0.61121 0.22948
 H1124 H 0.81079 0.58321 0.24603
 H1125 H 0.83328 0.62992 0.20087
 H1126 H 0.81504 0.60717 0.14594
 H1127 H 0.76363 0.53230 0.19445
 H1128 H 0.79063 0.55330 0.24634
 H1129 H 0.79793 0.57970 0.16126
 H1130 H 0.77977 0.55866 0.17639
 C1131 C 0.80444 1.09171 0.69070
 C1132 C 0.81754 1.10376 0.70136
 C1133 C 0.82710 1.12017 0.69269
 C1134 C 0.82435 1.12480 0.67314
 C1135 C 0.81145 1.11237 0.66264
 C1136 C 0.80167 1.09621 0.67123
 C1137 C 0.79422 1.07458 0.70064
 C1138 C 0.78009 1.06236 0.69162
 C1139 C 0.77093 1.04668 0.70157
 C1140 C 0.77572 1.04264 0.72070
 C1141 C 0.78973 1.05474 0.72982
 C1142 C 0.79879 1.07075 0.72006
 C1143 C 0.82114 1.09937 0.72065
 C1144 C 0.81214 1.08309 0.72973
 H1145 H 0.83123 1.10855 0.72884
 H1146 H 0.81555 1.08024 0.74463
 H1147 H 0.83609 1.12968 0.70168
 H1148 H 0.80932 1.11443 0.64744
 H1149 H 0.76011 1.03762 0.69422
 H1150 H 0.79335 1.05194 0.74469
 H1151 H 0.79226 1.08724 0.66224
 H1152 H 0.77575 1.06474 0.67697
 C1153 C 0.69151 0.58984 0.30911
 C1154 C 0.70322 0.60435 0.31859
 C1155 C 0.69452 0.62103 0.32765
 C1156 C 0.67415 0.62325 0.32796
 C1157 C 0.66260 0.60825 0.31932
 C1158 C 0.67110 0.59186 0.30996
 C1159 C 0.70138 0.57285 0.29874
 C1160 C 0.69118 0.55887 0.28724
 C1161 C 0.70109 0.54348 0.27765
 C1162 C 0.72133 0.54144 0.27947
 C1163 C 0.73165 0.55529 0.29083
 C1164 C 0.72190 0.57117 0.30012
 C1165 C 0.72351 0.60206 0.31906
 C1166 C 0.73262 0.58563 0.31033
 H1167 H 0.73250 0.61305 0.32648
 H1168 H 0.74835 0.58445 0.31127
 H1169 H 0.70371 0.63245 0.33418
 H1170 H 0.64685 0.60912 0.31985
 H1171 H 0.69284 0.53303 0.26886
 H1172 H 0.74737 0.55405 0.29200
 H1173 H 0.66143 0.58085 0.30365
 H1174 H 0.67562 0.55974 0.28520
 C1175 C 0.69024 1.08910 0.80792
 C1176 C 0.70139 1.10132 0.82040
 C1177 C 0.69268 1.11769 0.82996
 C1178 C 0.67265 1.12213 0.82770
 C1179 C 0.66164 1.10929 0.81569
 C1180 C 0.67024 1.09318 0.80597
 C1181 C 0.70025 1.07227 0.79741
 C1182 C 0.69075 1.06020 0.78364
 C1183 C 0.70079 1.04494 0.77401
 C1184 C 0.72050 1.04116 0.77794
 C1185 C 0.73010 1.05304 0.79166
 C1186 C 0.72023 1.06871 0.80117
 C1187 C 0.72121 1.09715 0.82329
 C1188 C 0.73035 1.08105 0.81408
 H1189 H 0.72978 1.10641 0.83294
 H1190 H 0.74568 1.07841 0.81689
 H1191 H 0.70199 1.12732 0.83850
 H1192 H 0.64605 1.11103 0.81416
 H1193 H 0.69306 1.03603 0.76344
 H1194 H 0.74541 1.05044 0.79461
 H1195 H 0.66084 1.08395 0.79722
 H1196 H 0.67566 1.06245 0.77987
 C1197 C 0.19187 0.59037 0.80707
 C1198 C 0.20313 0.60252 0.81950
 C1199 C 0.19462 0.61910 0.82888
 C1200 C 0.17470 0.62392 0.82640
 C1201 C 0.16353 0.61114 0.81449
 C1202 C 0.17192 0.59475 0.80501
 C1203 C 0.20174 0.57341 0.79661
 C1204 C 0.19212 0.56132 0.78294
 C1205 C 0.20208 0.54608 0.77321
 C1206 C 0.22185 0.54233 0.77693
 C1207 C 0.23154 0.55415 0.79063
 C1208 C 0.22174 0.56978 0.80026
 C1209 C 0.22291 0.59818 0.82241
 C1210 C 0.23195 0.58203 0.81317
 H1211 H 0.23156 0.60739 0.83203
 H1212 H 0.24728 0.57931 0.81594
 H1213 H 0.20402 0.62870 0.83737
 H1214 H 0.14799 0.61323 0.81279
 H1215 H 0.19425 0.53720 0.76270
 H1216 H 0.24688 0.55155 0.79346
 H1217 H 0.16243 0.58561 0.79625
 H1218 H 0.17699 0.56355 0.77931
 C1219 C 0.18877 1.09016 0.30797
 C1220 C 0.20019 1.10439 0.31814
 C1221 C 0.19123 1.12066 0.32753
 C1222 C 0.17084 1.12278 0.32755
 C1223 C 0.15953 1.10817 0.31808
 C1224 C 0.16832 1.09214 0.30836
 C1225 C 0.19902 1.07358 0.29735
 C1226 C 0.18920 1.05979 0.28535
 C1227 C 0.19948 1.04483 0.27551
 C1228 C 0.21974 1.04306 0.27758
 C1229 C 0.22965 1.05669 0.28948
 C1230 C 0.21954 1.07210 0.29905
 C1231 C 0.22048 1.10228 0.31896
 C1232 C 0.22991 1.08630 0.30989
 H1233 H 0.22921 1.11308 0.32689
 H1234 H 0.24563 1.08525 0.31109
 H1235 H 0.20025 1.13187 0.33457
 H1236 H 0.14377 1.10905 0.31824
 H1237 H 0.19153 1.03452 0.26632
 H1238 H 0.24536 1.05566 0.29089
 H1239 H 0.15885 1.08139 0.30140
 H1240 H 0.17366 1.06047 0.28312
 C1241 C 0.69705 0.40732 0.69185
 C1242 C 0.67652 0.40627 0.69348
 C1243 C 0.66622 0.39034 0.68484
 C1244 C 0.67609 0.37486 0.67505
 C1245 C 0.69653 0.37561 0.67408
 C1246 C 0.70687 0.39162 0.68224
 C1247 C 0.70745 0.42485 0.70085
 C1248 C 0.72762 0.42822 0.69867
 C1249 C 0.73670 0.44454 0.70770
 C1250 C 0.72598 0.45780 0.71925
 C1251 C 0.70581 0.45488 0.72116
 C1252 C 0.69646 0.43876 0.71182
 C1253 C 0.66641 0.42094 0.70397
 C1254 C 0.67620 0.43662 0.71323
 H1255 H 0.65069 0.42008 0.70534
 H1256 H 0.66775 0.44738 0.72146
 H1257 H 0.65045 0.39008 0.68568
 H1258 H 0.70466 0.36362 0.66720
 H1259 H 0.75226 0.44655 0.70592
 H1260 H 0.69735 0.46529 0.72978
 H1261 H 0.72254 0.39122 0.68114
 H1262 H 0.73663 0.41851 0.69001
 C1263 C 0.69844 -0.09350 0.19316
 C1264 C 0.67841 -0.09706 0.19635
 C1265 C 0.66889 -0.11312 0.18705
 C1266 C 0.67907 -0.12646 0.17481
 C1267 C 0.69921 -0.12296 0.17222
 C1268 C 0.70867 -0.10681 0.18113
 C1269 C 0.70797 -0.07595 0.20307
 C1270 C 0.72750 -0.07030 0.19984
 C1271 C 0.73579 -0.05405 0.20968
 C1272 C 0.72489 -0.04310 0.22310
 C1273 C 0.70532 -0.04835 0.22616
 C1274 C 0.69674 -0.06444 0.21609
 C1275 C 0.66796 -0.08469 0.20898
 C1276 C 0.67700 -0.06894 0.21885
 H1277 H 0.65260 -0.08743 0.21152
 H1278 H 0.66833 -0.06003 0.22868
 H1279 H 0.65332 -0.11462 0.18904
 H1280 H 0.70820 -0.13311 0.16395
 H1281 H 0.75090 -0.05025 0.20699
 H1282 H 0.69668 -0.03976 0.23628
 H1283 H 0.72412 -0.10529 0.17869
 H1284 H 0.73663 -0.07814 0.18972
 C1285 C 0.19349 0.40767 0.19447
 C1286 C 0.20480 0.39325 0.18447
 C1287 C 0.19568 0.37696 0.17513
 C1288 C 0.17527 0.37508 0.17507
 C1289 C 0.16412 0.38996 0.18430
 C1290 C 0.17304 0.40595 0.19393
 C1291 C 0.20379 0.42430 0.20499
 C1292 C 0.19399 0.43821 0.21684
 C1293 C 0.20425 0.45335 0.22644
 C1294 C 0.22449 0.45520 0.22433
 C1295 C 0.23443 0.44136 0.21267
 C1296 C 0.22431 0.42574 0.20332
 C1297 C 0.22512 0.39525 0.18374
 C1298 C 0.23462 0.41135 0.19267
 H1299 H 0.23380 0.38433 0.17594
 H1300 H 0.25035 0.41233 0.19150
 H1301 H 0.20455 0.36562 0.16812
 H1302 H 0.14835 0.38934 0.18400
 H1303 H 0.19627 0.46380 0.23544
 H1304 H 0.25013 0.44245 0.21124
 H1305 H 0.16364 0.41690 0.20066
 H1306 H 0.17847 0.43751 0.21911
 C1307 C 0.19464 -0.09164 0.68961
 C1308 C 0.18164 -0.10408 0.69997
 C1309 C 0.17207 -0.12022 0.69089
 C1310 C 0.17467 -0.12416 0.67120
 C1311 C 0.18739 -0.11128 0.66098
 C1312 C 0.19721 -0.09541 0.66999
 C1313 C 0.20494 -0.07488 0.70001
 C1314 C 0.21911 -0.06240 0.69134
 C1315 C 0.22833 -0.04707 0.70175
 C1316 C 0.22352 -0.04365 0.72095
 C1317 C 0.20951 -0.05604 0.72971
 C1318 C 0.20044 -0.07171 0.71952
 C1319 C 0.17815 -0.10036 0.71938
 C1320 C 0.18715 -0.08437 0.72888
 H1321 H 0.16812 -0.10984 0.72734
 H1322 H 0.18381 -0.08202 0.74385
 H1323 H 0.16321 -0.13008 0.69965
 H1324 H 0.18936 -0.11279 0.64571
 H1325 H 0.23917 -0.03777 0.69470
 H1326 H 0.20591 -0.05375 0.74465
 H1327 H 0.20649 -0.08606 0.66122
 H1328 H 0.22343 -0.06434 0.67664
 C1329 C 0.31176 0.30700 0.41723
 C1330 C 0.32199 0.29468 0.40411
 C1331 C 0.33098 0.30337 0.38806
 C1332 C 0.33046 0.32440 0.38498
 C1333 C 0.32120 0.33666 0.39862
 C1334 C 0.31193 0.32813 0.41448
 C1335 C 0.30112 0.29693 0.43338
 C1336 C 0.28878 0.30753 0.44599
 C1337 C 0.27855 0.29731 0.46031
 C1338 C 0.28058 0.27634 0.46265
 C1339 C 0.29301 0.26567 0.45035
 C1340 C 0.30292 0.27570 0.43554
 C1341 C 0.32309 0.27373 0.40698
 C1342 C 0.31404 0.26449 0.42254
 H1343 H 0.33112 0.26431 0.39705
 H1344 H 0.31536 0.24823 0.42413
 H1345 H 0.33793 0.29360 0.37766
 H1346 H 0.32105 0.35296 0.39704
 H1347 H 0.26899 0.30586 0.46960
 H1348 H 0.29439 0.24940 0.45183
 H1349 H 0.30501 0.33833 0.42440
 H1350 H 0.28648 0.32363 0.44477
 C1351 C 0.31055 0.80695 -0.08657
 C1352 C 0.32029 0.79419 -0.09969
 C1353 C 0.32885 0.80238 -0.11620
 C1354 C 0.32846 0.82332 -0.11971
 C1355 C 0.31967 0.83602 -0.10613
 C1356 C 0.31075 0.82799 -0.08985
 C1357 C 0.30046 0.79743 -0.06980
 C1358 C 0.28855 0.80845 -0.05711
 C1359 C 0.27888 0.79872 -0.04212
 C1360 C 0.28109 0.77786 -0.03920
 C1361 C 0.29307 0.76678 -0.05160
 C1362 C 0.30237 0.77629 -0.06706
 C1363 C 0.32143 0.77334 -0.09628
 C1364 C 0.31297 0.76464 -0.08014
 H1365 H 0.32908 0.76359 -0.10620
 H1366 H 0.31434 0.74843 -0.07812
 H1367 H 0.33549 0.79229 -0.12652
 H1368 H 0.31968 0.85228 -0.10803
 H1369 H 0.26960 0.80755 -0.03278
 H1370 H 0.29453 0.75056 -0.04968
 H1371 H 0.30422 0.83852 -0.07997
 H1372 H 0.28616 0.82449 -0.05876
 C1373 C 0.80370 0.30517 -0.09102
 C1374 C 0.82419 0.30350 -0.09266
 C1375 C 0.83390 0.31246 -0.10825
 C1376 C 0.82335 0.32244 -0.12272
 C1377 C 0.80292 0.32301 -0.12143
 C1378 C 0.79324 0.31468 -0.10581
 C1379 C 0.79393 0.29617 -0.07387
 C1380 C 0.77400 0.29905 -0.06991
 C1381 C 0.76540 0.28997 -0.05403
 C1382 C 0.77637 0.27763 -0.04178
 C1383 C 0.79637 0.27508 -0.04526
 C1384 C 0.80529 0.28462 -0.06097
 C1385 C 0.83477 0.29257 -0.07895
 C1386 C 0.82546 0.28294 -0.06369
 H1387 H 0.85044 0.29108 -0.08025
 H1388 H 0.83424 0.27432 -0.05370
 H1389 H 0.84965 0.31171 -0.10900
 H1390 H 0.79425 0.32977 -0.13269
 H1391 H 0.74998 0.29228 -0.05156
 H1392 H 0.80503 0.26590 -0.03560
 H1393 H 0.77755 0.31551 -0.10580
 H1394 H 0.76480 0.30839 -0.07880
 C1395 C 0.81326 0.80755 0.41067
 C1396 C 0.82171 0.79475 0.39675
 C1397 C 0.83056 0.80311 0.38042
 C1398 C 0.83154 0.82420 0.37791
 C1399 C 0.82411 0.83678 0.39233
 C1400 C 0.81505 0.82864 0.40843
 C1401 C 0.80275 0.79808 0.42720
 C1402 C 0.79201 0.80946 0.44057
 C1403 C 0.78194 0.79990 0.45536
 C1404 C 0.78251 0.77882 0.45739
 C1405 C 0.79327 0.76731 0.44426
 C1406 C 0.80301 0.77673 0.42897
 C1407 C 0.82126 0.77371 0.39922
 C1408 C 0.81241 0.76492 0.41515
 H1409 H 0.82792 0.76387 0.38870
 H1410 H 0.81252 0.74857 0.41642
 H1411 H 0.83625 0.79314 0.36947
 H1412 H 0.82526 0.85308 0.39117
 H1413 H 0.77366 0.80908 0.46528
 H1414 H 0.79347 0.75096 0.44553
 H1415 H 0.80964 0.83914 0.41896
 H1416 H 0.79084 0.82570 0.43966
 C1417 C 0.68624 0.30389 0.59056
 C1418 C 0.68776 0.32513 0.59273
 C1419 C 0.67892 0.33477 0.60837
 C1420 C 0.66916 0.32351 0.62247
 C1421 C 0.66783 0.30242 0.62029
 C1422 C 0.67610 0.29275 0.60455
 C1423 C 0.69618 0.29413 0.57385
 C1424 C 0.69470 0.27329 0.56982
 C1425 C 0.70495 0.26479 0.55457
 C1426 C 0.71704 0.27679 0.54307
 C1427 C 0.71814 0.29766 0.54658
 C1428 C 0.70765 0.30642 0.56167
 C1429 C 0.69861 0.33655 0.57964
 C1430 C 0.70858 0.32737 0.56462
 H1431 H 0.69982 0.35281 0.58131
 H1432 H 0.71716 0.33682 0.55516
 H1433 H 0.67992 0.35108 0.60967
 H1434 H 0.66085 0.29320 0.63111
 H1435 H 0.70374 0.24866 0.55205
 H1436 H 0.72716 0.30713 0.53752
 H1437 H 0.67486 0.27650 0.60392
 H1438 H 0.68574 0.26327 0.57824
 C1439 C 0.69326 0.80276 1.09047
 C1440 C 0.69509 0.82396 1.09268
 C1441 C 0.68625 0.83372 1.10830
 C1442 C 0.67616 0.82254 1.12225
 C1443 C 0.67496 0.80143 1.12023
 C1444 C 0.68324 0.79168 1.10457
 C1445 C 0.70264 0.79292 1.07353
 C1446 C 0.70031 0.77222 1.06929
 C1447 C 0.70981 0.76360 1.05369
 C1448 C 0.72196 0.77529 1.04197
 C1449 C 0.72399 0.79605 1.04574
 C1450 C 0.71418 0.80498 1.06122
 C1451 C 0.70608 0.83520 1.07955
 C1452 C 0.71571 0.82587 1.06436
 H1453 H 0.70761 0.85143 1.08127
 H1454 H 0.72435 0.83518 1.05483
 H1455 H 0.68731 0.85003 1.10956
 H1456 H 0.66787 0.79227 1.13102
 H1457 H 0.70789 0.74757 1.05101
 H1458 H 0.73307 0.80529 1.03654
 H1459 H 0.68198 0.77543 1.10404
 H1460 H 0.69118 0.76242 1.07775
 C1461 C 0.18900 0.30827 1.08807
 C1462 C 0.17966 0.29550 1.10148
 C1463 C 0.17121 0.30375 1.11802
 C1464 C 0.17152 0.32473 1.12131
 C1465 C 0.18000 0.33740 1.10751
 C1466 C 0.18866 0.32933 1.09116
 C1467 C 0.19893 0.29875 1.07124
 C1468 C 0.21020 0.30994 1.05814
 C1469 C 0.21981 0.30030 1.04313
 C1470 C 0.21826 0.27931 1.04060
 C1471 C 0.20684 0.26803 1.05338
 C1472 C 0.19752 0.27752 1.06886
 C1473 C 0.17886 0.27457 1.09835
 C1474 C 0.18735 0.26581 1.08225
 H1475 H 0.17153 0.26479 1.10851
 H1476 H 0.18631 0.24955 1.08049
 H1477 H 0.16476 0.29373 1.12854
 H1478 H 0.17993 0.35367 1.10930
 H1479 H 0.22856 0.30933 1.03346
 H1480 H 0.20582 0.25175 1.05171
 H1481 H 0.19492 0.33987 1.08112
 H1482 H 0.21216 0.32607 1.05942
 C1483 C 0.19022 0.80475 0.58777
 C1484 C 0.19227 0.82590 0.59027
 C1485 C 0.18312 0.83559 0.60572
 C1486 C 0.17242 0.82443 0.61923
 C1487 C 0.17091 0.80337 0.61693
 C1488 C 0.17956 0.79368 0.60142
 C1489 C 0.20002 0.79498 0.57101
 C1490 C 0.19770 0.77434 0.56653
 C1491 C 0.20757 0.76579 0.55111
 C1492 C 0.22011 0.77752 0.53980
 C1493 C 0.22216 0.79822 0.54383
 C1494 C 0.21201 0.80707 0.55913
 C1495 C 0.20376 0.83715 0.57757
 C1496 C 0.21368 0.82789 0.56253
 H1497 H 0.20543 0.85333 0.57951
 H1498 H 0.22268 0.83721 0.55334
 H1499 H 0.18440 0.85186 0.60723
 H1500 H 0.16332 0.79422 0.62739
 H1501 H 0.20563 0.74981 0.54824
 H1502 H 0.23156 0.80750 0.53496
 H1503 H 0.17804 0.77746 0.60064
 H1504 H 0.18829 0.76452 0.57468
 C1505 C 0.31191 0.69844 0.58742
 C1506 C 0.31074 0.67716 0.58937
 C1507 C 0.31970 0.66748 0.60497
 C1508 C 0.32920 0.67873 0.61928
 C1509 C 0.33000 0.69988 0.61743
 C1510 C 0.32162 0.70960 0.60171
 C1511 C 0.30213 0.70818 0.57056
 C1512 C 0.30362 0.72903 0.56656
 C1513 C 0.29365 0.73750 0.55109
 C1514 C 0.28181 0.72549 0.53932
 C1515 C 0.28067 0.70462 0.54283
 C1516 C 0.29096 0.69586 0.55813
 C1517 C 0.30017 0.66571 0.57606
 C1518 C 0.29021 0.67489 0.56098
 H1519 H 0.29919 0.64942 0.57759
 H1520 H 0.28187 0.66541 0.55134
 H1521 H 0.31909 0.65113 0.60600
 H1522 H 0.33670 0.70909 0.62842
 H1523 H 0.29487 0.75364 0.54860
 H1524 H 0.27183 0.69515 0.53358
 H1525 H 0.32248 0.72589 0.60129
 H1526 H 0.31240 0.73906 0.57515
 C1527 C 0.30981 0.19432 1.08546
 C1528 C 0.31936 0.20679 1.09897
 C1529 C 0.32791 0.19820 1.11532
 C1530 C 0.32748 0.17717 1.11834
 C1531 C 0.31888 0.16478 1.10440
 C1532 C 0.31013 0.17319 1.08820
 C1533 C 0.29960 0.20423 1.06895
 C1534 C 0.28804 0.19336 1.05585
 C1535 C 0.27804 0.20337 1.04127
 C1536 C 0.27950 0.22442 1.03918
 C1537 C 0.29127 0.23538 1.05190
 C1538 C 0.30098 0.22552 1.06696
 C1539 C 0.32018 0.22778 1.09620
 C1540 C 0.31144 0.23690 1.08038
 H1541 H 0.32769 0.23732 1.10643
 H1542 H 0.31246 0.25320 1.07892
 H1543 H 0.33443 0.20801 1.12597
 H1544 H 0.31885 0.14848 1.10601
 H1545 H 0.26904 0.19458 1.03162
 H1546 H 0.29223 0.25170 1.05055
 H1547 H 0.30371 0.16287 1.07805
 H1548 H 0.28613 0.17719 1.05684
 C1549 C 0.81094 0.69053 1.08736
 C1550 C 0.82028 0.70303 1.10101
 C1551 C 0.82880 0.69444 1.11741
 C1552 C 0.82857 0.67338 1.12031
 C1553 C 0.82006 0.66102 1.10627
 C1554 C 0.81133 0.66941 1.09008
 C1555 C 0.80101 0.70035 1.07064
 C1556 C 0.78974 0.68942 1.05732
 C1557 C 0.78013 0.69934 1.04242
 C1558 C 0.78171 0.72036 1.04021
 C1559 C 0.79313 0.73139 1.05320
 C1560 C 0.80243 0.72162 1.06858
 C1561 C 0.82104 0.72401 1.09821
 C1562 C 0.81257 0.73307 1.08220
 H1563 H 0.82836 0.73360 1.10854
 H1564 H 0.81359 0.74936 1.08070
 H1565 H 0.83525 0.70425 1.12810
 H1566 H 0.82019 0.64471 1.10774
 H1567 H 0.77135 0.69051 1.03260
 H1568 H 0.79414 0.74770 1.05179
 H1569 H 0.80507 0.65907 1.07985
 H1570 H 0.78777 0.67327 1.05836
 C1571 C 0.80969 0.19756 0.59066
 C1572 C 0.80761 0.17638 0.59294
 C1573 C 0.81653 0.16650 0.60844
 C1574 C 0.82705 0.17748 0.62222
 C1575 C 0.82868 0.19855 0.62011
 C1576 C 0.82024 0.20845 0.60455
 C1577 C 0.80004 0.20753 0.57387
 C1578 C 0.80227 0.22826 0.56964
 C1579 C 0.79240 0.23699 0.55424
 C1580 C 0.77998 0.22534 0.54273
 C1581 C 0.77811 0.20455 0.54645
 C1582 C 0.78821 0.19555 0.56173
 C1583 C 0.79631 0.16526 0.57997
 C1584 C 0.78657 0.17469 0.56488
 H1585 H 0.79463 0.14906 0.58174
 H1586 H 0.77768 0.16546 0.55548
 H1587 H 0.81521 0.15021 0.60977
 H1588 H 0.83621 0.20754 0.63074
 H1589 H 0.79419 0.25303 0.55160
 H1590 H 0.76880 0.19535 0.53743
 H1591 H 0.82183 0.22467 0.60390
 H1592 H 0.81154 0.23802 0.57802
 C1593 C 0.69077 0.69731 0.41026
 C1594 C 0.69217 0.67603 0.40845
 C1595 C 0.68292 0.66609 0.39315
 C1596 C 0.67283 0.67712 0.37906
 C1597 C 0.67199 0.69829 0.38070
 C1598 C 0.68069 0.70824 0.39608
 C1599 C 0.70066 0.70734 0.42687
 C1600 C 0.69887 0.72819 0.43072
 C1601 C 0.70887 0.73696 0.44599
 C1602 C 0.72101 0.72527 0.45775
 C1603 C 0.72249 0.70439 0.45438
 C1604 C 0.71219 0.69532 0.43925
 C1605 C 0.70317 0.66487 0.42166
 C1606 C 0.71324 0.67435 0.43652
 H1607 H 0.70436 0.64858 0.42025
 H1608 H 0.72187 0.66508 0.44611
 H1609 H 0.68369 0.64975 0.39221
 H1610 H 0.66493 0.70736 0.36981
 H1611 H 0.70736 0.75309 0.44835
 H1612 H 0.73157 0.69516 0.46361
 H1613 H 0.67971 0.72452 0.39632
 H1614 H 0.68980 0.73799 0.42218
 C1615 C 0.68993 0.19334 -0.08828
 C1616 C 0.69184 0.17217 -0.09059
 C1617 C 0.68258 0.16236 -0.10599
 C1618 C 0.67203 0.17351 -0.11968
 C1619 C 0.67092 0.19463 -0.11764
 C1620 C 0.67958 0.20439 -0.10217
 C1621 C 0.69960 0.20321 -0.07149
 C1622 C 0.69694 0.22379 -0.06700
 C1623 C 0.70668 0.23250 -0.05158
 C1624 C 0.71945 0.22103 -0.04028
 C1625 C 0.72183 0.20035 -0.04427
 C1626 C 0.71171 0.19130 -0.05956
 C1627 C 0.70336 0.16103 -0.07778
 C1628 C 0.71341 0.17046 -0.06285
 H1629 H 0.70500 0.14483 -0.07958
 H1630 H 0.72247 0.16124 -0.05360
 H1631 H 0.68366 0.14607 -0.10728
 H1632 H 0.66361 0.20382 -0.12828
 H1633 H 0.70448 0.24845 -0.04874
 H1634 H 0.73139 0.19128 -0.03536
 H1635 H 0.67836 0.22064 -0.10163
 H1636 H 0.68731 0.23343 -0.07512
 C1637 C 0.19664 0.69386 -0.09110
 C1638 C 0.17617 0.69566 -0.09284
 C1639 C 0.16643 0.68679 -0.10845
 C1640 C 0.17691 0.67674 -0.12289
 C1641 C 0.19733 0.67589 -0.12146
 C1642 C 0.20704 0.68416 -0.10580
 C1643 C 0.20643 0.70287 -0.07395
 C1644 C 0.22637 0.70000 -0.06995
 C1645 C 0.23494 0.70900 -0.05401
 C1646 C 0.22397 0.72125 -0.04171
 C1647 C 0.20399 0.72386 -0.04527
 C1648 C 0.19508 0.71441 -0.06106
 C1649 C 0.16561 0.70663 -0.07918
 C1650 C 0.17492 0.71617 -0.06387
 H1651 H 0.14995 0.70821 -0.08055
 H1652 H 0.16615 0.72480 -0.05390
 H1653 H 0.15069 0.68767 -0.10926
 H1654 H 0.20596 0.66900 -0.13265
 H1655 H 0.25037 0.70666 -0.05150
 H1656 H 0.19533 0.73299 -0.03561
 H1657 H 0.22273 0.68313 -0.10569
 H1658 H 0.23557 0.69074 -0.07885
 C1659 C 0.19290 0.19358 0.40957
 C1660 C 0.17237 0.19521 0.40841
 C1661 C 0.16225 0.18608 0.39316
 C1662 C 0.17240 0.17591 0.37858
 C1663 C 0.19285 0.17530 0.37940
 C1664 C 0.20295 0.18385 0.39467
 C1665 C 0.20313 0.20272 0.42641
 C1666 C 0.22317 0.19992 0.42986
 C1667 C 0.23213 0.20882 0.44563
 C1668 C 0.22144 0.22091 0.45830
 C1669 C 0.20139 0.22359 0.45521
 C1670 C 0.19209 0.21421 0.43960
 C1671 C 0.16216 0.20622 0.42229
 C1672 C 0.17186 0.21587 0.43731
 H1673 H 0.14646 0.20769 0.42134
 H1674 H 0.16333 0.22448 0.44750
 H1675 H 0.14649 0.18685 0.39275
 H1676 H 0.20122 0.16839 0.36803
 H1677 H 0.24760 0.20643 0.44778
 H1678 H 0.19296 0.23259 0.46517
 H1679 H 0.21864 0.18298 0.39431
 H1680 H 0.23217 0.19071 0.42072
 C1681 C 0.30850 0.41046 0.68900
 C1682 C 0.29686 0.39534 0.68036
 C1683 C 0.30565 0.37847 0.67174
 C1684 C 0.32605 0.37663 0.67100
 C1685 C 0.33753 0.39222 0.67875
 C1686 C 0.32893 0.40884 0.68769
 C1687 C 0.29853 0.42755 0.69914
 C1688 C 0.30872 0.44211 0.70996
 C1689 C 0.29871 0.45737 0.71963
 C1690 C 0.27835 0.45871 0.71852
 C1691 C 0.26805 0.44441 0.70768
 C1692 C 0.27792 0.42862 0.69837
 C1693 C 0.27651 0.39712 0.68035
 C1694 C 0.26727 0.41360 0.68885
 H1695 H 0.26758 0.38566 0.67355
 H1696 H 0.25149 0.41434 0.68836
 H1697 H 0.29651 0.36658 0.66595
 H1698 H 0.35327 0.39162 0.67787
 H1699 H 0.30695 0.46821 0.72799
 H1700 H 0.25227 0.44513 0.70707
 H1701 H 0.33853 0.42030 0.69334
 H1702 H 0.32435 0.44175 0.71149
 C1703 C 0.30706 0.90903 0.19391
 C1704 C 0.30502 0.90726 0.17385
 C1705 C 0.31436 0.89140 0.16405
 C1706 C 0.32517 0.87674 0.17408
 C1707 C 0.32623 0.87808 0.19411
 C1708 C 0.31747 0.89400 0.20387
 C1709 C 0.29754 0.92650 0.20380
 C1710 C 0.30052 0.93073 0.22331
 C1711 C 0.29101 0.94689 0.23203
 C1712 C 0.27816 0.95916 0.22161
 C1713 C 0.27544 0.95543 0.20203
 C1714 C 0.28535 0.93946 0.19298
 C1715 C 0.29338 0.92108 0.16380
 C1716 C 0.28341 0.93656 0.17322
 H1717 H 0.29162 0.91966 0.14845
 H1718 H 0.27427 0.94661 0.16485
 H1719 H 0.31324 0.89057 0.14862
 H1720 H 0.33367 0.86660 0.20240
 H1721 H 0.29346 0.94955 0.24713
 H1722 H 0.26583 0.96512 0.19379
 H1723 H 0.31870 0.89401 0.21924
 H1724 H 0.31025 0.92188 0.23209
 C1725 C 0.80553 0.40527 0.19544
 C1726 C 0.80357 0.40426 0.17532
 C1727 C 0.81299 0.38885 0.16503
 C1728 C 0.82386 0.37387 0.17454
 C1729 C 0.82485 0.37438 0.19460
 C1730 C 0.81595 0.38988 0.20490
 C1731 C 0.79609 0.42249 0.20582
 C1732 C 0.79898 0.42609 0.22547
 C1733 C 0.78976 0.44226 0.23454
 C1734 C 0.77725 0.45509 0.22432
 C1735 C 0.77451 0.45188 0.20467
 C1736 C 0.78415 0.43598 0.19530
 C1737 C 0.79206 0.41848 0.16564
 C1738 C 0.78222 0.43373 0.17546
 H1739 H 0.79037 0.41761 0.15025
 H1740 H 0.77325 0.44417 0.16735
 H1741 H 0.81201 0.38871 0.14956
 H1742 H 0.83244 0.36266 0.20245
 H1743 H 0.79217 0.44452 0.24970
 H1744 H 0.76516 0.46200 0.19661
 H1745 H 0.81718 0.38936 0.22027
 H1746 H 0.80846 0.41676 0.23406
 C1747 C 0.80889 0.91067 0.68966
 C1748 C 0.79752 0.89647 0.67940
 C1749 C 0.80651 0.88006 0.67021
 C1750 C 0.82687 0.87775 0.67061
 C1751 C 0.83814 0.89249 0.67996
 C1752 C 0.82933 0.90867 0.68940
 C1753 C 0.79863 0.92721 0.70032
 C1754 C 0.80843 0.94079 0.71254
 C1755 C 0.79816 0.95565 0.72250
 C1756 C 0.77793 0.95754 0.72037
 C1757 C 0.76802 0.94414 0.70822
 C1758 C 0.77813 0.92879 0.69852
 C1759 C 0.77724 0.89871 0.67841
 C1760 C 0.76779 0.91472 0.68748
 H1761 H 0.76852 0.88797 0.67039
 H1762 H 0.75209 0.91584 0.68618
 H1763 H 0.79756 0.86882 0.66312
 H1764 H 0.85390 0.89153 0.68001
 H1765 H 0.80612 0.96578 0.73186
 H1766 H 0.75232 0.94527 0.70674
 H1767 H 0.83878 0.91945 0.69633
 H1768 H 0.82395 0.94000 0.71488
 C1769 C 0.69858 0.59256 0.68656
 C1770 C 0.67812 0.59437 0.68859
 C1771 C 0.66814 0.61048 0.67982
 C1772 C 0.67832 0.62545 0.66960
 C1773 C 0.69866 0.62372 0.66794
 C1774 C 0.70864 0.60750 0.67614
 C1775 C 0.70872 0.57525 0.69625
 C1776 C 0.72881 0.57136 0.69411
 C1777 C 0.73771 0.55555 0.70410
 C1778 C 0.72688 0.54333 0.71656
 C1779 C 0.70676 0.54666 0.71832
 C1780 C 0.69759 0.56228 0.70809
 C1781 C 0.66783 0.58044 0.69982
 C1782 C 0.67739 0.56495 0.70962
 H1783 H 0.65218 0.58183 0.70146
 H1784 H 0.66882 0.55487 0.71849
 H1785 H 0.65244 0.61143 0.68117
 H1786 H 0.70708 0.63526 0.66069
 H1787 H 0.75323 0.55317 0.70237
 H1788 H 0.69819 0.53701 0.72764
 H1789 H 0.72427 0.60727 0.67458
 H1790 H 0.73791 0.58032 0.68483
 C1791 C 0.69046 0.09013 0.19355
 C1792 C 0.70205 0.10429 0.18349
 C1793 C 0.69329 0.12075 0.17415
 C1794 C 0.67293 0.12315 0.17410
 C1795 C 0.66144 0.10866 0.18352
 C1796 C 0.67004 0.09243 0.19317
 C1797 C 0.70050 0.07329 0.20406
 C1798 C 0.69050 0.05946 0.21586
 C1799 C 0.70060 0.04429 0.22566
 C1800 C 0.72085 0.04236 0.22375
 C1801 C 0.73094 0.05599 0.21199
 C1802 C 0.72101 0.07160 0.20246
 C1803 C 0.72232 0.10194 0.18273
 C1804 C 0.73156 0.08576 0.19176
 H1805 H 0.73119 0.11268 0.17489
 H1806 H 0.74727 0.08455 0.19062
 H1807 H 0.70244 0.13188 0.16715
 H1808 H 0.64570 0.10976 0.18335
 H1809 H 0.69250 0.03399 0.23472
 H1810 H 0.74665 0.05482 0.21070
 H1811 H 0.66043 0.08178 0.20008
 H1812 H 0.67495 0.06026 0.21798
 C1813 C 0.19389 0.58553 0.18918
 C1814 C 0.20532 0.59987 0.17918
 C1815 C 0.19634 0.61635 0.17002
 C1816 C 0.17596 0.61854 0.17017
 C1817 C 0.16466 0.60357 0.17914
 C1818 C 0.17345 0.58735 0.18857
 C1819 C 0.20409 0.56905 0.20000
 C1820 C 0.19419 0.55555 0.21221
 C1821 C 0.20440 0.54090 0.22252
 C1822 C 0.22467 0.53911 0.22073
 C1823 C 0.23469 0.55234 0.20851
 C1824 C 0.22463 0.56756 0.19851
 C1825 C 0.22562 0.59772 0.17845
 C1826 C 0.23503 0.58169 0.18760
 H1827 H 0.23439 0.60855 0.17060
 H1828 H 0.25076 0.58065 0.18654
 H1829 H 0.20533 0.62773 0.16318
 H1830 H 0.14890 0.60441 0.17893
 H1831 H 0.19638 0.53088 0.23193
 H1832 H 0.25042 0.55127 0.20735
 H1833 H 0.16397 0.57639 0.19521
 H1834 H 0.17865 0.55631 0.21434
 C1835 C 0.19550 0.09282 0.69429
 C1836 C 0.17501 0.09449 0.69594
 C1837 C 0.16506 0.11015 0.68644
 C1838 C 0.17526 0.12466 0.67566
 C1839 C 0.19566 0.12336 0.67473
 C1840 C 0.20565 0.10768 0.68382
 C1841 C 0.20552 0.07548 0.70405
 C1842 C 0.22557 0.07154 0.70193
 C1843 C 0.23427 0.05528 0.71138
 C1844 C 0.22330 0.04259 0.72332
 C1845 C 0.20325 0.04620 0.72536
 C1846 C 0.19425 0.06231 0.71558
 C1847 C 0.16462 0.08064 0.70719
 C1848 C 0.17407 0.06511 0.71704
 H1849 H 0.14894 0.08198 0.70858
 H1850 H 0.16538 0.05495 0.72573
 H1851 H 0.14930 0.11088 0.68731
 H1852 H 0.20405 0.13466 0.66711
 H1853 H 0.24975 0.05280 0.70950
 H1854 H 0.19458 0.03628 0.73432
 H1855 H 0.22132 0.10763 0.68263
 H1856 H 0.23479 0.08069 0.69293
 C1857 C 0.30818 0.59479 0.30413
 C1858 C 0.30673 0.59639 0.32424
 C1859 C 0.31582 0.61251 0.33385
 C1860 C 0.32578 0.62770 0.32367
 C1861 C 0.32636 0.62648 0.30362
 C1862 C 0.31782 0.61025 0.29399
 C1863 C 0.29896 0.57692 0.29448
 C1864 C 0.30134 0.57282 0.27486
 C1865 C 0.29230 0.55611 0.26648
 C1866 C 0.28048 0.54319 0.27735
 C1867 C 0.27826 0.54690 0.29698
 C1868 C 0.28774 0.56338 0.30567
 C1869 C 0.29599 0.58207 0.33461
 C1870 C 0.28636 0.56617 0.32548
 H1871 H 0.29471 0.58337 0.35000
 H1872 H 0.27796 0.55570 0.33411
 H1873 H 0.31523 0.61310 0.34932
 H1874 H 0.33324 0.63825 0.29524
 H1875 H 0.29431 0.55349 0.25132
 H1876 H 0.26944 0.53674 0.30555
 H1877 H 0.31866 0.61028 0.27859
 H1878 H 0.31026 0.58220 0.26576
 C1879 C 0.30288 0.08984 0.81326
 C1880 C 0.32346 0.09098 0.81269
 C1881 C 0.33322 0.10693 0.82189
 C1882 C 0.32276 0.12248 0.83097
 C1883 C 0.30231 0.12147 0.83115
 C1884 C 0.29250 0.10535 0.82257
 C1885 C 0.29302 0.07259 0.80325
 C1886 C 0.27276 0.06921 0.80423
 C1887 C 0.26418 0.05336 0.79408
 C1888 C 0.27550 0.04062 0.78256
 C1889 C 0.29575 0.04348 0.78189
 C1890 C 0.30460 0.05910 0.79240
 C1891 C 0.33416 0.07655 0.80245
 C1892 C 0.32491 0.06120 0.79222
 H1893 H 0.34993 0.07747 0.80192
 H1894 H 0.33382 0.05072 0.78413
 H1895 H 0.34901 0.10732 0.82174
 H1896 H 0.29374 0.13346 0.83748
 H1897 H 0.24853 0.05134 0.79494
 H1898 H 0.30464 0.03341 0.77332
 H1899 H 0.27679 0.10564 0.82293
 H1900 H 0.26330 0.07856 0.81278
 C1901 C 0.81112 0.59128 0.80688
 C1902 C 0.79951 0.60542 0.81690
 C1903 C 0.80827 0.62180 0.82637
 C1904 C 0.82865 0.62412 0.82656
 C1905 C 0.84014 0.60960 0.81723
 C1906 C 0.83155 0.59346 0.80747
 C1907 C 0.80112 0.57457 0.79618
 C1908 C 0.81119 0.56085 0.78436
 C1909 C 0.80116 0.54575 0.77444
 C1910 C 0.78090 0.54375 0.77622
 C1911 C 0.77071 0.55730 0.78796
 C1912 C 0.78059 0.57287 0.79763
 C1913 C 0.77922 0.60310 0.81749
 C1914 C 0.77000 0.58699 0.80832
 H1915 H 0.77033 0.61382 0.82530
 H1916 H 0.75428 0.58579 0.80934
 H1917 H 0.79912 0.63292 0.83334
 H1918 H 0.85589 0.61062 0.81755
 H1919 H 0.80934 0.53551 0.76542
 H1920 H 0.75500 0.55608 0.78916
 H1921 H 0.84118 0.58280 0.80064
 H1922 H 0.82674 0.56168 0.78233
 C1923 C 0.80190 0.09480 0.31173
 C1924 C 0.82248 0.09601 0.31111
 C1925 C 0.83221 0.11209 0.32014
 C1926 C 0.82173 0.12766 0.32918
 C1927 C 0.80128 0.12664 0.32928
 C1928 C 0.79149 0.11042 0.32082
 C1929 C 0.79209 0.07725 0.30210
 C1930 C 0.77186 0.07372 0.30325
 C1931 C 0.76336 0.05746 0.29359
 C1932 C 0.77475 0.04446 0.28239
 C1933 C 0.79496 0.04754 0.28152
 C1934 C 0.80373 0.06356 0.29154
 C1935 C 0.83322 0.08145 0.30109
 C1936 C 0.82402 0.06580 0.29121
 H1937 H 0.84898 0.08243 0.30050
 H1938 H 0.83297 0.05518 0.28333
 H1939 H 0.84800 0.11248 0.32003
 H1940 H 0.79270 0.13865 0.33558
 H1941 H 0.74775 0.05529 0.29458
 H1942 H 0.80392 0.03729 0.27320
 H1943 H 0.77578 0.11067 0.32118
 H1944 H 0.76236 0.08325 0.31158
 C1945 C 0.69493 0.40600 0.31077
 C1946 C 0.67446 0.40431 0.30895
 C1947 C 0.66446 0.38859 0.31825
 C1948 C 0.67461 0.37389 0.32887
 C1949 C 0.69501 0.37525 0.33004
 C1950 C 0.70503 0.39110 0.32123
 C1951 C 0.70499 0.42332 0.30103
 C1952 C 0.72502 0.42738 0.30334
 C1953 C 0.73379 0.44346 0.29366
 C1954 C 0.72289 0.45577 0.28131
 C1955 C 0.70285 0.45215 0.27923
 C1956 C 0.69379 0.43630 0.28923
 C1957 C 0.66411 0.41811 0.29760
 C1958 C 0.67361 0.43352 0.28767
 H1959 H 0.64844 0.41675 0.29609
 H1960 H 0.66499 0.44358 0.27881
 H1961 H 0.64871 0.38788 0.31725
 H1962 H 0.70336 0.36385 0.33757
 H1963 H 0.74927 0.44602 0.29558
 H1964 H 0.69425 0.46185 0.26997
 H1965 H 0.72070 0.39118 0.32253
 H1966 H 0.73416 0.41842 0.31262
 C1967 C 0.69196 0.90861 0.80892
 C1968 C 0.70362 0.89415 0.81853
 C1969 C 0.69484 0.87766 0.82790
 C1970 C 0.67444 0.87562 0.82837
 C1971 C 0.66297 0.89060 0.81960
 C1972 C 0.67155 0.90679 0.80995
 C1973 C 0.70189 0.92535 0.79821
 C1974 C 0.69169 0.93918 0.78656
 C1975 C 0.70161 0.95432 0.77663
 C1976 C 0.72188 0.95629 0.77824
 C1977 C 0.73222 0.94261 0.78977
 C1978 C 0.72244 0.92693 0.79941
 C1979 C 0.72394 0.89631 0.81883
 C1980 C 0.73311 0.91255 0.80978
 H1981 H 0.73289 0.88537 0.82634
 H1982 H 0.74885 0.91363 0.81059
 H1983 H 0.70396 0.86628 0.83455
 H1984 H 0.64722 0.88991 0.82028
 H1985 H 0.69333 0.96465 0.76773
 H1986 H 0.74795 0.94380 0.79078
 H1987 H 0.66191 0.91779 0.80358
 H1988 H 0.67612 0.93836 0.78464
 C1989 C 0.19662 0.40771 0.80732
 C1990 C 0.17606 0.40659 0.80617
 C1991 C 0.16599 0.39099 0.81557
 C1992 C 0.17610 0.37583 0.82561
 C1993 C 0.19655 0.37665 0.82619
 C1994 C 0.20668 0.39239 0.81729
 C1995 C 0.20677 0.42489 0.79744
 C1996 C 0.22699 0.42837 0.79902
 C1997 C 0.23578 0.44439 0.78923
 C1998 C 0.22471 0.45717 0.77747
 C1999 C 0.20452 0.45410 0.77611
 C2000 C 0.19547 0.43834 0.78623
 C2001 C 0.16566 0.42083 0.79539
 C2002 C 0.17518 0.43614 0.78535
 H2003 H 0.14991 0.41991 0.79440
 H2004 H 0.16650 0.44656 0.77693
 H2005 H 0.15020 0.39072 0.81506
 H2006 H 0.20486 0.36492 0.83329
 H2007 H 0.25137 0.44655 0.79059
 H2008 H 0.19580 0.46417 0.76734
 H2009 H 0.22238 0.39207 0.81811
 H2010 H 0.23624 0.41900 0.80781
 C2011 C 0.19659 0.90752 0.30768
 C2012 C 0.17614 0.90554 0.30583
 C2013 C 0.16635 0.88963 0.31504
 C2014 C 0.17666 0.87499 0.32557
 C2015 C 0.19703 0.87667 0.32684
 C2016 C 0.20687 0.89273 0.31814
 C2017 C 0.20643 0.92501 0.29799
 C2018 C 0.22641 0.92935 0.30028
 C2019 C 0.23494 0.94563 0.29068
 C2020 C 0.22385 0.95784 0.27840
 C2021 C 0.20387 0.95391 0.27630
 C2022 C 0.19505 0.93787 0.28624
 C2023 C 0.16561 0.91923 0.29453
 C2024 C 0.17491 0.93482 0.28467
 H2025 H 0.14996 0.91764 0.29300
 H2026 H 0.16615 0.94478 0.27584
 H2027 H 0.15061 0.88871 0.31400
 H2028 H 0.20552 0.86536 0.33435
 H2029 H 0.25038 0.94844 0.29260
 H2030 H 0.19512 0.96353 0.26711
 H2031 H 0.22252 0.89306 0.31950
 H2032 H 0.23568 0.92047 0.30950
 C2033 C 0.41075 0.30486 0.69097
 C2034 C 0.39647 0.31507 0.70191
 C2035 C 0.38026 0.32383 0.69289
 C2036 C 0.37822 0.32329 0.67290
 C2037 C 0.39282 0.31384 0.66204
 C2038 C 0.40881 0.30467 0.67091
 C2039 C 0.42736 0.29489 0.70128
 C2040 C 0.44131 0.28271 0.69197
 C2041 C 0.45631 0.27346 0.70232
 C2042 C 0.45796 0.27638 0.72210
 C2043 C 0.44419 0.28848 0.73149
 C2044 C 0.42875 0.29737 0.72134
 C2045 C 0.39850 0.31660 0.72179
 C2046 C 0.41447 0.30825 0.73125
 H2047 H 0.38766 0.32457 0.73015
 H2048 H 0.41545 0.31002 0.74663
 H2049 H 0.36907 0.33085 0.70157
 H2050 H 0.39201 0.31364 0.64658
 H2051 H 0.46672 0.26408 0.69479
 H2052 H 0.44513 0.29047 0.74686
 H2053 H 0.41956 0.29772 0.66180
 H2054 H 0.44070 0.27985 0.67681
 C2055 C 0.40992 0.80763 0.19343
 C2056 C 0.40842 0.80561 0.17334
 C2057 C 0.39272 0.81458 0.16348
 C2058 C 0.37798 0.82488 0.17351
 C2059 C 0.37909 0.82569 0.19357
 C2060 C 0.39483 0.81739 0.20337
 C2061 C 0.42720 0.79865 0.20338
 C2062 C 0.43112 0.80202 0.22290
 C2063 C 0.44710 0.79294 0.23171
 C2064 C 0.45950 0.78014 0.22140
 C2065 C 0.45609 0.77711 0.20180
 C2066 C 0.44029 0.78666 0.19265
 C2067 C 0.42236 0.79429 0.16334
 C2068 C 0.43768 0.78461 0.17285
 H2069 H 0.42117 0.79251 0.14798
 H2070 H 0.44782 0.77566 0.16453
 H2071 H 0.39207 0.81356 0.14804
 H2072 H 0.36756 0.83258 0.20188
 H2073 H 0.44952 0.79564 0.24681
 H2074 H 0.46588 0.76758 0.19364
 H2075 H 0.39466 0.81840 0.21876
 H2076 H 0.42214 0.81174 0.23158
 C2077 C 0.91325 0.30971 0.18725
 C2078 C 0.90044 0.29726 0.17660
 C2079 C 0.88422 0.30575 0.16733
 C2080 C 0.88067 0.32667 0.16815
 C2081 C 0.89413 0.33910 0.17769
 C2082 C 0.91016 0.33078 0.18716
 C2083 C 0.92941 0.29985 0.19830
 C2084 C 0.94154 0.31057 0.21104
 C2085 C 0.95594 0.30055 0.22153
 C2086 C 0.95879 0.27967 0.21941
 C2087 C 0.94688 0.26887 0.20668
 C2088 C 0.93202 0.27869 0.19644
 C2089 C 0.90376 0.27638 0.17544
 C2090 C 0.91941 0.26735 0.18488
 H2091 H 0.89410 0.26686 0.16710
 H2092 H 0.92135 0.25114 0.18352
 H2093 H 0.87399 0.29591 0.16003
 H2094 H 0.89217 0.35535 0.17804
 H2095 H 0.96492 0.30921 0.23130
 H2096 H 0.94877 0.25265 0.20519
 H2097 H 0.91990 0.34110 0.19435
 H2098 H 0.93992 0.32660 0.21340
 C2099 C 0.90853 0.80522 0.69449
 C2100 C 0.90787 0.80413 0.67430
 C2101 C 0.89242 0.81323 0.66423
 C2102 C 0.87707 0.82275 0.67404
 C2103 C 0.87730 0.82265 0.69413
 C2104 C 0.89281 0.81418 0.70422
 C2105 C 0.92573 0.79634 0.70468
 C2106 C 0.92889 0.79890 0.72444
 C2107 C 0.94503 0.79020 0.73334
 C2108 C 0.95829 0.77851 0.72288
 C2109 C 0.95552 0.77615 0.70312
 C2110 C 0.93962 0.78539 0.69389
 C2111 C 0.92248 0.79373 0.66435
 C2112 C 0.93776 0.78415 0.67397
 H2113 H 0.92191 0.79266 0.64889
 H2114 H 0.94849 0.77598 0.66565
 H2115 H 0.89251 0.81302 0.64874
 H2116 H 0.86533 0.82902 0.70220
 H2117 H 0.94696 0.79232 0.74859
 H2118 H 0.96597 0.76748 0.69488
 H2119 H 0.89205 0.81452 0.71962
 H2120 H 0.91922 0.80777 0.73323
 C2121 C 0.58697 0.30680 0.31092
 C2122 C 0.59976 0.29435 0.32161
 C2123 C 0.61597 0.30287 0.33089
 C2124 C 0.61956 0.32379 0.32997
 C2125 C 0.60642 0.33615 0.31995
 C2126 C 0.59038 0.32783 0.31054
 C2127 C 0.57042 0.29701 0.30041
 C2128 C 0.55783 0.30787 0.28823
 C2129 C 0.54302 0.29800 0.27826
 C2130 C 0.54019 0.27709 0.28027
 C2131 C 0.55247 0.26612 0.29254
 C2132 C 0.56771 0.27585 0.30236
 C2133 C 0.59633 0.27349 0.32291
 C2134 C 0.58052 0.26448 0.31368
 H2135 H 0.60602 0.26397 0.33122
 H2136 H 0.57852 0.24829 0.31515
 H2137 H 0.62603 0.29311 0.33851
 H2138 H 0.60850 0.35239 0.31943
 H2139 H 0.53374 0.30682 0.26889
 H2140 H 0.55054 0.24991 0.29400
 H2141 H 0.58085 0.33816 0.30312
 H2142 H 0.55934 0.32392 0.28591
 C2143 C 0.58769 0.80715 0.81147
 C2144 C 0.60085 0.79476 0.82177
 C2145 C 0.61719 0.80336 0.83077
 C2146 C 0.62050 0.82435 0.83010
 C2147 C 0.60691 0.83666 0.82059
 C2148 C 0.59078 0.82823 0.81136
 C2149 C 0.57109 0.79721 0.80111
 C2150 C 0.55827 0.80791 0.78899
 C2151 C 0.54346 0.79784 0.77913
 C2152 C 0.54084 0.77691 0.78127
 C2153 C 0.55336 0.76615 0.79346
 C2154 C 0.56863 0.77603 0.80306
 C2155 C 0.59769 0.77386 0.82301
 C2156 C 0.58176 0.76475 0.81410
 H2157 H 0.60765 0.76439 0.83105
 H2158 H 0.57995 0.74852 0.81553
 H2159 H 0.62756 0.79358 0.83793
 H2160 H 0.60871 0.85294 0.82029
 H2161 H 0.53402 0.80647 0.76975
 H2162 H 0.55166 0.74990 0.79495
 H2163 H 0.58089 0.83850 0.80430
 H2164 H 0.55966 0.82397 0.78662
 C2165 C 0.08718 0.30965 0.80840
 C2166 C 0.09987 0.29735 0.81934
 C2167 C 0.11625 0.30588 0.82828
 C2168 C 0.12009 0.32673 0.82695
 C2169 C 0.10710 0.33898 0.81661
 C2170 C 0.09091 0.33061 0.80742
 C2171 C 0.07036 0.29975 0.79834
 C2172 C 0.05779 0.31032 0.78589
 C2173 C 0.04272 0.30026 0.77640
 C2174 C 0.03961 0.27950 0.77923
 C2175 C 0.05188 0.26888 0.79176
 C2176 C 0.06737 0.27873 0.80104
 C2177 C 0.09617 0.27661 0.82132
 C2178 C 0.08013 0.26755 0.81257
 H2179 H 0.10581 0.26722 0.82983
 H2180 H 0.07790 0.25145 0.81458
 H2181 H 0.12622 0.29613 0.83603
 H2182 H 0.10938 0.35517 0.81569
 H2183 H 0.03346 0.30879 0.76676
 H2184 H 0.04978 0.25276 0.79383
 H2185 H 0.08147 0.34082 0.79974
 H2186 H 0.05954 0.32624 0.78300
 C2187 C 0.08986 0.80709 0.30612
 C2188 C 0.10224 0.79489 0.31752
 C2189 C 0.11829 0.80353 0.32696
 C2190 C 0.12204 0.82439 0.32568
 C2191 C 0.10925 0.83654 0.31498
 C2192 C 0.09345 0.82806 0.30527
 C2193 C 0.07342 0.79709 0.29556
 C2194 C 0.06132 0.80749 0.28252
 C2195 C 0.04637 0.79738 0.27285
 C2196 C 0.04295 0.77676 0.27611
 C2197 C 0.05493 0.76627 0.28902
 C2198 C 0.07027 0.77615 0.29847
 C2199 C 0.09851 0.77416 0.31952
 C2200 C 0.08269 0.76506 0.31044
 H2201 H 0.10788 0.76485 0.32838
 H2202 H 0.08035 0.74899 0.31256
 H2203 H 0.12805 0.79387 0.33505
 H2204 H 0.11139 0.85276 0.31416
 H2205 H 0.03738 0.80577 0.26287
 H2206 H 0.05264 0.75022 0.29137
 H2207 H 0.08415 0.83820 0.29734
 H2208 H 0.06332 0.82334 0.27937
 C2209 C 0.59542 0.69650 0.69556
 C2210 C 0.59677 0.69887 0.67550
 C2211 C 0.61252 0.69036 0.66549
 C2212 C 0.62750 0.68009 0.67524
 C2213 C 0.62656 0.67881 0.69528
 C2214 C 0.61074 0.68675 0.70529
 C2215 C 0.57791 0.70491 0.70561
 C2216 C 0.57414 0.70133 0.72512
 C2217 C 0.55774 0.70961 0.73390
 C2218 C 0.54480 0.72188 0.72358
 C2219 C 0.54819 0.72526 0.70405
 C2220 C 0.56439 0.71650 0.69493
 C2221 C 0.58252 0.70992 0.66561
 C2222 C 0.56692 0.71892 0.67518
 H2223 H 0.58362 0.71194 0.65027
 H2224 H 0.55648 0.72761 0.66692
 H2225 H 0.61296 0.69158 0.65004
 H2226 H 0.63819 0.67178 0.70337
 H2227 H 0.55537 0.70671 0.74897
 H2228 H 0.53804 0.73441 0.69588
 H2229 H 0.61094 0.68534 0.72065
 H2230 H 0.58354 0.69200 0.73381
 C2231 C 0.58774 0.19374 0.18952
 C2232 C 0.60189 0.20635 0.18085
 C2233 C 0.61849 0.19778 0.17229
 C2234 C 0.62109 0.17668 0.17189
 C2235 C 0.60652 0.16427 0.17971
 C2236 C 0.59013 0.17261 0.18843
 C2237 C 0.57088 0.20346 0.19955
 C2238 C 0.55713 0.19230 0.21018
 C2239 C 0.54213 0.20206 0.21991
 C2240 C 0.54021 0.22316 0.21915
 C2241 C 0.55362 0.23446 0.20838
 C2242 C 0.56913 0.22481 0.19893
 C2243 C 0.59939 0.22739 0.18083
 C2244 C 0.58322 0.23640 0.18942
 H2245 H 0.61009 0.23707 0.17402
 H2246 H 0.58197 0.25274 0.18899
 H2247 H 0.62958 0.20761 0.16633
 H2248 H 0.60776 0.14794 0.17906
 H2249 H 0.53198 0.19303 0.22816
 H2250 H 0.55242 0.25081 0.20799
 H2251 H 0.57951 0.16221 0.19414
 H2252 H 0.55792 0.17607 0.21153
 C2253 C 0.09332 0.69017 0.19364
 C2254 C 0.09423 0.69139 0.17346
 C2255 C 0.10983 0.68243 0.16357
 C2256 C 0.12511 0.67291 0.17354
 C2257 C 0.12456 0.67272 0.19363
 C2258 C 0.10888 0.68106 0.20354
 C2259 C 0.07609 0.69920 0.20363
 C2260 C 0.07278 0.69682 0.22339
 C2261 C 0.05677 0.70594 0.23214
 C2262 C 0.04379 0.71784 0.22149
 C2263 C 0.04663 0.71987 0.20171
 C2264 C 0.06241 0.71029 0.19267
 C2265 C 0.07976 0.70186 0.16333
 C2266 C 0.06444 0.71149 0.17277
 H2267 H 0.08050 0.70298 0.14789
 H2268 H 0.05385 0.71976 0.16431
 H2269 H 0.10996 0.68280 0.14808
 H2270 H 0.13643 0.66629 0.20183
 H2271 H 0.05479 0.70407 0.24741
 H2272 H 0.03641 0.72870 0.19332
 H2273 H 0.10942 0.68054 0.21894
 H2274 H 0.08229 0.68788 0.23232
 C2275 C 0.08964 0.19635 0.69094
 C2276 C 0.09260 0.17536 0.69379
 C2277 C 0.10816 0.16545 0.68470
 C2278 C 0.12134 0.17624 0.67318
 C2279 C 0.11859 0.19715 0.67079
 C2280 C 0.10296 0.20706 0.67943
 C2281 C 0.07274 0.20633 0.70072
 C2282 C 0.06779 0.22680 0.69780
 C2283 C 0.05219 0.23551 0.70758
 C2284 C 0.04119 0.22414 0.72061
 C2285 C 0.04573 0.20362 0.72333
 C2286 C 0.06120 0.19460 0.71332
 C2287 C 0.08024 0.16447 0.70597
 C2288 C 0.06506 0.17394 0.71574
 H2289 H 0.08253 0.14842 0.70825
 H2290 H 0.05612 0.16490 0.72524
 H2291 H 0.10998 0.14929 0.68664
 H2292 H 0.12878 0.20606 0.66249
 H2293 H 0.04893 0.25134 0.70514
 H2294 H 0.03711 0.19460 0.73315
 H2295 H 0.10181 0.22316 0.67718
 H2296 H 0.07570 0.23634 0.68800
 C2297 C 0.41193 0.69888 0.31061
 C2298 C 0.40941 0.67772 0.30875
 C2299 C 0.39364 0.66804 0.31774
 C2300 C 0.37972 0.67924 0.32799
 C2301 C 0.38213 0.70029 0.32945
 C2302 C 0.39802 0.70997 0.32104
 C2303 C 0.42890 0.70866 0.30076
 C2304 C 0.43346 0.72934 0.30284
 C2305 C 0.44897 0.73790 0.29280
 C2306 C 0.46025 0.72615 0.28034
 C2307 C 0.45621 0.70542 0.27858
 C2308 C 0.44085 0.69655 0.28890
 C2309 C 0.42230 0.66643 0.29748
 C2310 C 0.43747 0.67570 0.28750
 H2311 H 0.42035 0.65023 0.29597
 H2312 H 0.44676 0.66637 0.27862
 H2313 H 0.39215 0.65176 0.31656
 H2314 H 0.37140 0.70950 0.33672
 H2315 H 0.45190 0.75391 0.29451
 H2316 H 0.46510 0.69613 0.26925
 H2317 H 0.39883 0.72619 0.32245
 H2318 H 0.42528 0.73917 0.31214
 C2319 C 0.40770 0.19180 0.80704
 C2320 C 0.40665 0.19327 0.82719
 C2321 C 0.39101 0.18437 0.83708
 C2322 C 0.37579 0.17473 0.82713
 C2323 C 0.37657 0.17411 0.80706
 C2324 C 0.39231 0.18235 0.79716
 C2325 C 0.42485 0.20101 0.79705
 C2326 C 0.42824 0.19854 0.77732
 C2327 C 0.44413 0.20785 0.76855
 C2328 C 0.45692 0.22002 0.77914
 C2329 C 0.45401 0.22216 0.79889
 C2330 C 0.43833 0.21240 0.80796
 C2331 C 0.42095 0.20401 0.83729
 C2332 C 0.43621 0.21375 0.82784
 H2333 H 0.42010 0.20530 0.85272
 H2334 H 0.44666 0.22225 0.83626
 H2335 H 0.39073 0.18501 0.85256
 H2336 H 0.36477 0.16754 0.79885
 H2337 H 0.44618 0.20587 0.75331
 H2338 H 0.46410 0.23121 0.80723
 H2339 H 0.39190 0.18157 0.78176
 H2340 H 0.41889 0.18939 0.76843
 C2341 C 0.91413 0.69442 0.81111
 C2342 C 0.90021 0.70698 0.82012
 C2343 C 0.88360 0.69843 0.82868
 C2344 C 0.88082 0.67735 0.82884
 C2345 C 0.89521 0.66494 0.82074
 C2346 C 0.91158 0.67329 0.81195
 C2347 C 0.93096 0.70418 0.80101
 C2348 C 0.94438 0.69314 0.78991
 C2349 C 0.95933 0.70299 0.78012
 C2350 C 0.96151 0.72403 0.78136
 C2351 C 0.94843 0.73518 0.79260
 C2352 C 0.93295 0.72548 0.80206
 C2353 C 0.90293 0.72800 0.82050
 C2354 C 0.91912 0.73701 0.81194
 H2355 H 0.89240 0.73764 0.82758
 H2356 H 0.92056 0.75333 0.81267
 H2357 H 0.87266 0.70827 0.83485
 H2358 H 0.89386 0.64862 0.82120
 H2359 H 0.96921 0.69410 0.77146
 H2360 H 0.94981 0.75151 0.79332
 H2361 H 0.92208 0.66292 0.80600
 H2362 H 0.94334 0.67696 0.78820
 C2363 C 0.90891 0.19676 0.30986
 C2364 C 0.89421 0.18734 0.29880
 C2365 C 0.87779 0.17893 0.30775
 C2366 C 0.87601 0.17896 0.32778
 C2367 C 0.89112 0.18748 0.33872
 C2368 C 0.90727 0.19636 0.32993
 C2369 C 0.92569 0.20651 0.29967
 C2370 C 0.93990 0.21823 0.30916
 C2371 C 0.95507 0.22729 0.29895
 C2372 C 0.95665 0.22461 0.27914
 C2373 C 0.94259 0.21301 0.26955
 C2374 C 0.92693 0.20438 0.27957
 C2375 C 0.89605 0.18620 0.27888
 C2376 C 0.91226 0.19417 0.26952
 H2377 H 0.88490 0.17880 0.27041
 H2378 H 0.91310 0.19269 0.25410
 H2379 H 0.86627 0.17258 0.29900
 H2380 H 0.89057 0.18718 0.35418
 H2381 H 0.96570 0.23632 0.30661
 H2382 H 0.94350 0.21127 0.25416
 H2383 H 0.91840 0.20258 0.33911
 H2384 H 0.93937 0.22090 0.32436
 C2385 C 0.30790 0.30027 0.59136
 C2386 C 0.30752 0.32164 0.59253
 C2387 C 0.31688 0.33157 0.60774
 C2388 C 0.32604 0.32051 0.62240
 C2389 C 0.32582 0.29928 0.62145
 C2390 C 0.31702 0.28929 0.60614
 C2391 C 0.29809 0.29027 0.57470
 C2392 C 0.29913 0.26927 0.57132
 C2393 C 0.28945 0.26063 0.55578
 C2394 C 0.27833 0.27261 0.54334
 C2395 C 0.27748 0.29358 0.54633
 C2396 C 0.28756 0.30251 0.56166
 C2397 C 0.29745 0.33296 0.57874
 C2398 C 0.28737 0.32358 0.56386
 H2399 H 0.29702 0.34932 0.57969
 H2400 H 0.27950 0.33299 0.55377
 H2401 H 0.31698 0.34796 0.60812
 H2402 H 0.33216 0.29025 0.63278
 H2403 H 0.29042 0.24442 0.55368
 H2404 H 0.26922 0.30300 0.53654
 H2405 H 0.31716 0.27297 0.60638
 H2406 H 0.30744 0.25928 0.58040
 C2407 C 0.30802 0.80726 0.08930
 C2408 C 0.31782 0.79481 0.10269
 C2409 C 0.32665 0.80341 0.11891
 C2410 C 0.32641 0.82446 0.12181
 C2411 C 0.31737 0.83678 0.10804
 C2412 C 0.30824 0.82836 0.09208
 C2413 C 0.29796 0.79740 0.07269
 C2414 C 0.28628 0.80822 0.05960
 C2415 C 0.27691 0.79828 0.04457
 C2416 C 0.27912 0.77738 0.04202
 C2417 C 0.29074 0.76644 0.05492
 C2418 C 0.29982 0.77620 0.07039
 C2419 C 0.31883 0.77386 0.09978
 C2420 C 0.31030 0.76481 0.08381
 H2421 H 0.32648 0.76432 0.10992
 H2422 H 0.31163 0.74856 0.08215
 H2423 H 0.33346 0.79361 0.12939
 H2424 H 0.31743 0.85309 0.10953
 H2425 H 0.26794 0.80703 0.03485
 H2426 H 0.29223 0.75020 0.05326
 H2427 H 0.30162 0.83866 0.08203
 H2428 H 0.28392 0.82429 0.06089
 C2429 C 0.80850 0.30855 0.08652
 C2430 C 0.82009 0.29639 0.09871
 C2431 C 0.82904 0.30491 0.11489
 C2432 C 0.82704 0.32562 0.11901
 C2433 C 0.81615 0.33777 0.10645
 C2434 C 0.80696 0.32940 0.09048
 C2435 C 0.79834 0.29864 0.06999
 C2436 C 0.78516 0.30901 0.05800
 C2437 C 0.77557 0.29892 0.04318
 C2438 C 0.77904 0.27834 0.03975
 C2439 C 0.79230 0.26792 0.05144
 C2440 C 0.80167 0.27778 0.06668
 C2441 C 0.82268 0.27580 0.09472
 C2442 C 0.81389 0.26676 0.07891
 H2443 H 0.83170 0.26651 0.10395
 H2444 H 0.81638 0.25078 0.07643
 H2445 H 0.83727 0.29526 0.12448
 H2446 H 0.81476 0.35388 0.10892
 H2447 H 0.76536 0.30729 0.03439
 H2448 H 0.79484 0.25191 0.04908
 H2449 H 0.79883 0.33954 0.08140
 H2450 H 0.78175 0.32478 0.06002
 C2451 C 0.81221 0.80844 0.58557
 C2452 C 0.82032 0.79562 0.59971
 C2453 C 0.82868 0.80395 0.61628
 C2454 C 0.82965 0.82503 0.61885
 C2455 C 0.82252 0.83766 0.60427
 C2456 C 0.81386 0.82954 0.58792
 C2457 C 0.80220 0.79894 0.56874
 C2458 C 0.79175 0.81027 0.55507
 C2459 C 0.78199 0.80066 0.54009
 C2460 C 0.78267 0.77956 0.53814
 C2461 C 0.79324 0.76813 0.55150
 C2462 C 0.80258 0.77759 0.56699
 C2463 C 0.82002 0.77459 0.59723
 C2464 C 0.81167 0.76579 0.58106
 H2465 H 0.82644 0.76476 0.60794
 H2466 H 0.81187 0.74944 0.57980
 H2467 H 0.83404 0.79392 0.62737
 H2468 H 0.82365 0.85395 0.60546
 H2469 H 0.77383 0.80977 0.52998
 H2470 H 0.79348 0.75177 0.55030
 H2471 H 0.80866 0.84004 0.57726
 H2472 H 0.79051 0.82651 0.55593
 C2473 C 0.30921 0.69426 0.41080
 C2474 C 0.31951 0.70681 0.39790
 C2475 C 0.32830 0.69843 0.38161
 C2476 C 0.32740 0.67752 0.37805
 C2477 C 0.31769 0.66505 0.39121
 C2478 C 0.30869 0.67325 0.40733
 C2479 C 0.29926 0.70395 0.42755
 C2480 C 0.28743 0.69303 0.44037
 C2481 C 0.27793 0.70284 0.45535
 C2482 C 0.28013 0.72373 0.45813
 C2483 C 0.29212 0.73473 0.44564
 C2484 C 0.30140 0.72508 0.43023
 C2485 C 0.32099 0.72765 0.40131
 C2486 C 0.31233 0.73654 0.41724
 H2487 H 0.32901 0.73724 0.39151
 H2488 H 0.31392 0.75273 0.41923
 H2489 H 0.33558 0.70833 0.37151
 H2490 H 0.31715 0.64882 0.38913
 H2491 H 0.26875 0.69400 0.46479
 H2492 H 0.29369 0.75094 0.44752
 H2493 H 0.30151 0.66286 0.41690
 H2494 H 0.28499 0.67698 0.43891
 C2495 C 0.30867 0.19837 0.91127
 C2496 C 0.30825 0.17699 0.91022
 C2497 C 0.31736 0.16698 0.89494
 C2498 C 0.32622 0.17794 0.88006
 C2499 C 0.32619 0.19917 0.88098
 C2500 C 0.31769 0.20926 0.89638
 C2501 C 0.29886 0.20848 0.92785
 C2502 C 0.29976 0.22952 0.93102
 C2503 C 0.28986 0.23828 0.94634
 C2504 C 0.27866 0.22637 0.95876
 C2505 C 0.27806 0.20535 0.95604
 C2506 C 0.28832 0.19631 0.94092
 C2507 C 0.29830 0.16575 0.92412
 C2508 C 0.28824 0.17523 0.93893
 H2509 H 0.29788 0.14938 0.92327
 H2510 H 0.28039 0.16587 0.94907
 H2511 H 0.31736 0.15058 0.89460
 H2512 H 0.33234 0.20814 0.86952
 H2513 H 0.29066 0.25453 0.94825
 H2514 H 0.26975 0.19599 0.96582
 H2515 H 0.31790 0.22557 0.89609
 H2516 H 0.30808 0.23946 0.92191
 C2517 C 0.80709 0.69408 0.90955
 C2518 C 0.82760 0.69577 0.90819
 C2519 C 0.83752 0.68676 0.89279
 C2520 C 0.82719 0.67672 0.87821
 C2521 C 0.80675 0.67604 0.87925
 C2522 C 0.79685 0.68443 0.89470
 C2523 C 0.79708 0.70317 0.92651
 C2524 C 0.77710 0.70028 0.93017
 C2525 C 0.76831 0.70927 0.94596
 C2526 C 0.77911 0.72152 0.95843
 C2527 C 0.79913 0.72421 0.95518
 C2528 C 0.80826 0.71474 0.93955
 C2529 C 0.83798 0.70677 0.92199
 C2530 C 0.82846 0.71643 0.93709
 H2531 H 0.85367 0.70828 0.92089
 H2532 H 0.83711 0.72508 0.94717
 H2533 H 0.85328 0.68755 0.89225
 H2534 H 0.79823 0.66924 0.86791
 H2535 H 0.75286 0.70687 0.94823
 H2536 H 0.80764 0.73334 0.96500
 H2537 H 0.78116 0.68354 0.89450
 H2538 H 0.76802 0.69097 0.92116
 C2539 C 0.80893 0.20087 0.41216
 C2540 C 0.80813 0.17956 0.41026
 C2541 C 0.81675 0.17007 0.39442
 C2542 C 0.82558 0.18153 0.37986
 C2543 C 0.82594 0.20270 0.38162
 C2544 C 0.81787 0.21224 0.39755
 C2545 C 0.79958 0.21039 0.42931
 C2546 C 0.80075 0.23128 0.43326
 C2547 C 0.79112 0.23952 0.44901
 C2548 C 0.77994 0.22722 0.46111
 C2549 C 0.77920 0.20632 0.45767
 C2550 C 0.78914 0.19781 0.44209
 C2551 C 0.79830 0.16787 0.42391
 C2552 C 0.78872 0.17683 0.43929
 H2553 H 0.79760 0.15156 0.42243
 H2554 H 0.78093 0.16716 0.44921
 H2555 H 0.81647 0.15371 0.39342
 H2556 H 0.83211 0.21204 0.37044
 H2557 H 0.79202 0.25568 0.45145
 H2558 H 0.77089 0.19663 0.46718
 H2559 H 0.81838 0.22855 0.39792
 H2560 H 0.80901 0.24151 0.42438
 C2561 C 0.68623 0.30847 0.41660
 C2562 C 0.67671 0.29577 0.40325
 C2563 C 0.66801 0.30411 0.38686
 C2564 C 0.66832 0.32510 0.38363
 C2565 C 0.67684 0.33771 0.39745
 C2566 C 0.68569 0.32956 0.41369
 C2567 C 0.69667 0.29884 0.43311
 C2568 C 0.70821 0.30997 0.44605
 C2569 C 0.71842 0.30020 0.46064
 C2570 C 0.71720 0.27916 0.46290
 C2571 C 0.70549 0.26795 0.45032
 C2572 C 0.69555 0.27756 0.43527
 C2573 C 0.67613 0.27481 0.40621
 C2574 C 0.68510 0.26593 0.42202
 H2575 H 0.66865 0.26509 0.39610
 H2576 H 0.68427 0.24964 0.42362
 H2577 H 0.66153 0.29414 0.37632
 H2578 H 0.67676 0.35399 0.39567
 H2579 H 0.72737 0.30918 0.47017
 H2580 H 0.70469 0.25163 0.45180
 H2581 H 0.69205 0.34005 0.42372
 H2582 H 0.70993 0.32614 0.44492
 C2583 C 0.69030 0.80317 0.91227
 C2584 C 0.69231 0.82432 0.90981
 C2585 C 0.68317 0.83406 0.89431
 C2586 C 0.67261 0.82290 0.88065
 C2587 C 0.67123 0.80182 0.88291
 C2588 C 0.67978 0.79211 0.89850
 C2589 C 0.70004 0.79336 0.92909
 C2590 C 0.69756 0.77276 0.93365
 C2591 C 0.70746 0.76414 0.94906
 C2592 C 0.72021 0.77574 0.96026
 C2593 C 0.72237 0.79644 0.95621
 C2594 C 0.71214 0.80537 0.94094
 C2595 C 0.70382 0.83553 0.92255
 C2596 C 0.71382 0.82620 0.93755
 H2597 H 0.70549 0.85172 0.92063
 H2598 H 0.72288 0.83548 0.94674
 H2599 H 0.68438 0.85034 0.89290
 H2600 H 0.66383 0.79262 0.87235
 H2601 H 0.70543 0.74817 0.95195
 H2602 H 0.73192 0.80561 0.96502
 H2603 H 0.67837 0.77587 0.89922
 H2604 H 0.68800 0.76302 0.92556
 C2605 C 0.18695 0.30600 0.91152
 C2606 C 0.18918 0.32710 0.90884
 C2607 C 0.18043 0.33670 0.89307
 C2608 C 0.17005 0.32545 0.87936
 C2609 C 0.16822 0.30446 0.88196
 C2610 C 0.17639 0.29488 0.89781
 C2611 C 0.19660 0.29629 0.92843
 C2612 C 0.19419 0.27567 0.93302
 C2613 C 0.20418 0.26711 0.94841
 C2614 C 0.21689 0.27880 0.95957
 C2615 C 0.21890 0.29951 0.95554
 C2616 C 0.20866 0.30836 0.94025
 C2617 C 0.20060 0.33839 0.92158
 C2618 C 0.21040 0.32917 0.93676
 H2619 H 0.20240 0.35454 0.91952
 H2620 H 0.21943 0.33849 0.94594
 H2621 H 0.18191 0.35293 0.89141
 H2622 H 0.16085 0.29521 0.87141
 H2623 H 0.20225 0.25113 0.95131
 H2624 H 0.22842 0.30876 0.96431
 H2625 H 0.17471 0.27869 0.89876
 H2626 H 0.18470 0.26587 0.92494
 C2627 C 0.18824 0.80851 0.41280
 C2628 C 0.17866 0.79594 0.39939
 C2629 C 0.17002 0.80443 0.38301
 C2630 C 0.17045 0.82544 0.37985
 C2631 C 0.17903 0.83791 0.39375
 C2632 C 0.18783 0.82962 0.40997
 C2633 C 0.19860 0.79873 0.42930
 C2634 C 0.21024 0.80971 0.44226
 C2635 C 0.22035 0.79982 0.45685
 C2636 C 0.21894 0.77879 0.45911
 C2637 C 0.20712 0.76771 0.44651
 C2638 C 0.19730 0.77745 0.43143
 C2639 C 0.17791 0.77497 0.40229
 C2640 C 0.18678 0.76596 0.41812
 H2641 H 0.17038 0.76534 0.39215
 H2642 H 0.18581 0.74967 0.41968
 H2643 H 0.16349 0.79454 0.37243
 H2644 H 0.17904 0.85420 0.39207
 H2645 H 0.22939 0.80870 0.46639
 H2646 H 0.20619 0.75140 0.44797
 H2647 H 0.19425 0.84001 0.42005
 H2648 H 0.21212 0.82587 0.44115
 C2649 C 0.69262 0.69954 0.58822
 C2650 C 0.70426 0.68829 0.60112
 C2651 C 0.69588 0.67949 0.61738
 C2652 C 0.67575 0.68087 0.62082
 C2653 C 0.66414 0.69172 0.60781
 C2654 C 0.67244 0.70101 0.59178
 C2655 C 0.70235 0.70910 0.57123
 C2656 C 0.69252 0.72196 0.55831
 C2657 C 0.70238 0.73063 0.54284
 C2658 C 0.72215 0.72643 0.53970
 C2659 C 0.73204 0.71367 0.55246
 C2660 C 0.72244 0.70534 0.56831
 C2661 C 0.72418 0.68560 0.59763
 C2662 C 0.73300 0.69367 0.58142
 H2663 H 0.73305 0.67687 0.60746
 H2664 H 0.74843 0.69095 0.57926
 H2665 H 0.70517 0.67154 0.62743
 H2666 H 0.64854 0.69279 0.60984
 H2667 H 0.69450 0.74057 0.53324
 H2668 H 0.74743 0.71070 0.55037
 H2669 H 0.66278 0.70898 0.58221
 H2670 H 0.67733 0.72573 0.56006
 C2671 C 0.69449 0.19261 0.09065
 C2672 C 0.67401 0.19451 0.09223
 C2673 C 0.66417 0.18568 0.10778
 C2674 C 0.67454 0.17562 0.12231
 C2675 C 0.69496 0.17467 0.12104
 C2676 C 0.70478 0.18287 0.10543
 C2677 C 0.70441 0.20164 0.07360
 C2678 C 0.72435 0.19869 0.06973
 C2679 C 0.73308 0.20785 0.05395
 C2680 C 0.72224 0.22034 0.04172
 C2681 C 0.70224 0.22296 0.04511
 C2682 C 0.69319 0.21336 0.06071
 C2683 C 0.66358 0.20559 0.07852
 C2684 C 0.67302 0.21519 0.06334
 H2685 H 0.64792 0.20724 0.07978
 H2686 H 0.66435 0.22394 0.05336
 H2687 H 0.64842 0.18665 0.10848
 H2688 H 0.70352 0.16780 0.13232
 H2689 H 0.74851 0.20548 0.05154
 H2690 H 0.69368 0.23226 0.03547
 H2691 H 0.72046 0.18179 0.10543
 H2692 H 0.73345 0.18926 0.07862
 C2693 C 0.19133 0.68976 0.08657
 C2694 C 0.18267 0.70215 0.10069
 C2695 C 0.17413 0.69338 0.11696
 C2696 C 0.17349 0.67224 0.11921
 C2697 C 0.18117 0.66002 0.10462
 C2698 C 0.19004 0.66859 0.08859
 C2699 C 0.20147 0.69976 0.07009
 C2700 C 0.21247 0.68891 0.05651
 C2701 C 0.22222 0.69900 0.04181
 C2702 C 0.22098 0.72009 0.04004
 C2703 C 0.20994 0.73103 0.05336
 C2704 C 0.20059 0.72111 0.06857
 C2705 C 0.18255 0.72323 0.09849
 C2706 C 0.19099 0.73247 0.08259
 H2707 H 0.17572 0.73274 0.10917
 H2708 H 0.19043 0.74882 0.08151
 H2709 H 0.16836 0.70311 0.12805
 H2710 H 0.18031 0.64369 0.10555
 H2711 H 0.23077 0.69026 0.03175
 H2712 H 0.20927 0.74739 0.05232
 H2713 H 0.19566 0.65839 0.07791
 H2714 H 0.21411 0.67269 0.05725
 C2715 C 0.18798 0.18838 0.58659
 C2716 C 0.17779 0.20106 0.59944
 C2717 C 0.16903 0.19284 0.61583
 C2718 C 0.16978 0.17195 0.61956
 C2719 C 0.17906 0.15930 0.60625
 C2720 C 0.18808 0.16736 0.59003
 C2721 C 0.19833 0.19799 0.57000
 C2722 C 0.21050 0.18707 0.55748
 C2723 C 0.22049 0.19691 0.54275
 C2724 C 0.21839 0.21781 0.53994
 C2725 C 0.20607 0.22877 0.55213
 C2726 C 0.19638 0.21914 0.56729
 C2727 C 0.17650 0.22189 0.59597
 C2728 C 0.18534 0.23068 0.58008
 H2729 H 0.16851 0.23157 0.60571
 H2730 H 0.18390 0.24688 0.57805
 H2731 H 0.16210 0.20291 0.62598
 H2732 H 0.17941 0.14308 0.60838
 H2733 H 0.22997 0.18814 0.53357
 H2734 H 0.20459 0.24499 0.55028
 H2735 H 0.19504 0.15689 0.58039
 H2736 H 0.21286 0.17102 0.55906
   
