data_POSCAR
  _audit_creation_date              2014-09-24
  _audit_creation_method            'ToBaCCo'
  _symmetry_space_group_name_H-M    'P1'
  _symmetry_Int_Tables_number       1
  _symmetry_cell_setting            triclinic
  loop_
  _symmetry_equiv_pos_as_xyz
 x,y,z
_cell_length_a 76.2869
_cell_length_b 76.5274
_cell_length_c 76.3324
_cell_angle_alpha 89.887100
_cell_angle_beta 90.002600
_cell_angle_gamma 89.911400
loop_
  _atom_site_label
  _atom_site_type_symbol
  _atom_site_fract_x
  _atom_site_fract_y
  _atom_site_fract_z
C1 C 0.19426 0.21868 0.21339
 C2 C 0.20404 0.22347 0.19859
 C3 C 0.21858 0.21378 0.19381
 C4 C 0.22351 0.19913 0.20374
 C5 C 0.21387 0.19442 0.21833
 C6 C 0.19912 0.20425 0.22318
 C7 C 0.17953 0.22566 0.22107
 N8 N 0.17530 0.21584 0.23531
 C9 C 0.18726 0.20270 0.23668
 C10 C 0.22163 0.17975 0.22536
 N11 N 0.23576 0.17543 0.21539
 C12 C 0.23697 0.18727 0.20212
 C13 C 0.22549 0.22143 0.17903
 N14 N 0.21552 0.23554 0.17471
 C15 C 0.20235 0.23685 0.18665
 H16 H 0.17228 0.23692 0.21642
 H17 H 0.18749 0.19286 0.24687
 H18 H 0.21712 0.17261 0.23674
 H19 H 0.24704 0.18741 0.19213
 H20 H 0.23682 0.21687 0.17182
 H21 H 0.19240 0.24694 0.18684
 C22 C 0.69370 0.71751 0.71209
 C23 C 0.70361 0.72248 0.69743
 C24 C 0.71820 0.71287 0.69266
 C25 C 0.72307 0.69811 0.70245
 C26 C 0.71326 0.69317 0.71686
 C27 C 0.69848 0.70294 0.72171
 C28 C 0.67894 0.72442 0.71980
 N29 N 0.67462 0.71440 0.73388
 C30 C 0.68654 0.70122 0.73511
 C31 C 0.72097 0.67844 0.72378
 N32 N 0.73525 0.67431 0.71396
 C33 C 0.73661 0.68633 0.70088
 C34 C 0.72526 0.72071 0.67804
 N35 N 0.71530 0.73486 0.67379
 C36 C 0.70202 0.73601 0.68563
 H37 H 0.67177 0.73578 0.71530
 H38 H 0.68673 0.69124 0.74517
 H39 H 0.71659 0.67141 0.73529
 H40 H 0.74657 0.68639 0.69078
 H41 H 0.73666 0.71626 0.67089
 H42 H 0.69205 0.74608 0.68584
 C43 C 0.30643 0.78309 0.71294
 C44 C 0.29669 0.77809 0.69820
 C45 C 0.28222 0.78776 0.69317
 C46 C 0.27725 0.80253 0.70284
 C47 C 0.28683 0.80745 0.71730
 C48 C 0.30155 0.79768 0.72241
 C49 C 0.32105 0.77615 0.72090
 N50 N 0.32521 0.78618 0.73498
 C51 C 0.31331 0.79940 0.73596
 C52 C 0.27901 0.82215 0.72407
 N53 N 0.26475 0.82644 0.71411
 C54 C 0.26374 0.81430 0.70104
 C55 C 0.27531 0.77990 0.67852
 N56 N 0.28523 0.76567 0.67454
 C57 C 0.29834 0.76449 0.68655
 H58 H 0.32825 0.76474 0.71658
 H59 H 0.31303 0.80942 0.74595
 H60 H 0.28354 0.82888 0.73564
 H61 H 0.25411 0.81388 0.69068
 H62 H 0.26374 0.78412 0.67147
 H63 H 0.30851 0.75461 0.68672
 C64 C 0.80285 0.27944 0.21628
 C65 C 0.79298 0.27435 0.20166
 C66 C 0.77842 0.28394 0.19671
 C67 C 0.77355 0.29878 0.20631
 C68 C 0.78331 0.30379 0.22069
 C69 C 0.79804 0.29400 0.22572
 C70 C 0.81767 0.27269 0.22401
 N71 N 0.82216 0.28278 0.23806
 C72 C 0.81001 0.29589 0.23904
 C73 C 0.77570 0.31867 0.22735
 N74 N 0.76152 0.32283 0.21736
 C75 C 0.76013 0.31068 0.20445
 C76 C 0.77150 0.27609 0.18207
 N77 N 0.78152 0.26196 0.17797
 C78 C 0.79469 0.26083 0.18993
 H79 H 0.82442 0.26114 0.21948
 H80 H 0.80969 0.30635 0.24850
 H81 H 0.78008 0.32580 0.23876
 H82 H 0.75028 0.31064 0.19425
 H83 H 0.76018 0.28055 0.17478
 H84 H 0.80472 0.25082 0.19022
 C85 C 0.80555 0.71901 0.28479
 C86 C 0.79572 0.72400 0.29949
 C87 C 0.78111 0.71447 0.30431
 C88 C 0.77611 0.69985 0.29447
 C89 C 0.78582 0.69495 0.28000
 C90 C 0.80067 0.70463 0.27514
 C91 C 0.82037 0.72580 0.27713
 N92 N 0.82480 0.71589 0.26292
 C93 C 0.81261 0.70287 0.26176
 C94 C 0.77805 0.68026 0.27311
 N95 N 0.76384 0.67613 0.28305
 C96 C 0.76258 0.68810 0.29614
 C97 C 0.77421 0.72223 0.31903
 N98 N 0.78425 0.73628 0.32325
 C99 C 0.79745 0.73741 0.31133
 H100 H 0.82732 0.73707 0.28198
 H101 H 0.81204 0.69279 0.25190
 H102 H 0.78235 0.67323 0.26160
 H103 H 0.75275 0.68810 0.30637
 H104 H 0.76257 0.71806 0.32598
 H105 H 0.80775 0.74711 0.31138
 C106 C 0.30672 0.21701 -0.21254
 C107 C 0.29688 0.22198 -0.19784
 C108 C 0.28224 0.21247 -0.19309
 C109 C 0.27723 0.19788 -0.20298
 C110 C 0.28693 0.19301 -0.21739
 C111 C 0.30181 0.20265 -0.22220
 C112 C 0.32149 0.22384 -0.22026
 N113 N 0.32584 0.21398 -0.23453
 C114 C 0.31368 0.20093 -0.23564
 C115 C 0.27906 0.17847 -0.22441
 N116 N 0.26466 0.17421 -0.21463
 C117 C 0.26362 0.18623 -0.20145
 C118 C 0.27525 0.22026 -0.17843
 N119 N 0.28528 0.23430 -0.17417
 C120 C 0.29855 0.23542 -0.18602
 H121 H 0.32850 0.23509 -0.21541
 H122 H 0.31304 0.19092 -0.24557
 H123 H 0.28375 0.17174 -0.23591
 H124 H 0.25383 0.18675 -0.19125
 H125 H 0.26356 0.21613 -0.17156
 H126 H 0.30883 0.24515 -0.18595
 C127 C 0.69356 0.28213 -0.21263
 C128 C 0.70321 0.27730 -0.19773
 C129 C 0.71769 0.28697 -0.19282
 C130 C 0.72268 0.30161 -0.20270
 C131 C 0.71315 0.30637 -0.21728
 C132 C 0.69847 0.29654 -0.22229
 C133 C 0.67896 0.27518 -0.22052
 N134 N 0.67469 0.28500 -0.23488
 C135 C 0.68676 0.29814 -0.23590
 C136 C 0.72096 0.32099 -0.22423
 N137 N 0.73517 0.32539 -0.21427
 C138 C 0.73615 0.31338 -0.20102
 C139 C 0.72453 0.27929 -0.17800
 N140 N 0.71455 0.26519 -0.17376
 C141 C 0.70147 0.26391 -0.18580
 H142 H 0.67203 0.26385 -0.21572
 H143 H 0.68741 0.30820 -0.24582
 H144 H 0.71649 0.32760 -0.23593
 H145 H 0.74572 0.31309 -0.19059
 H146 H 0.73582 0.28381 -0.17073
 H147 H 0.69153 0.25383 -0.18606
 C148 C 0.19465 0.78199 0.28633
 C149 C 0.20439 0.77713 0.30114
 C150 C 0.21887 0.78681 0.30602
 C151 C 0.22378 0.80152 0.29618
 C152 C 0.21417 0.80633 0.28167
 C153 C 0.19949 0.79651 0.27668
 C154 C 0.18000 0.77504 0.27850
 N155 N 0.17579 0.78498 0.26432
 C156 C 0.18768 0.79817 0.26315
 C157 C 0.22187 0.82105 0.27478
 N158 N 0.23610 0.82545 0.28472
 C159 C 0.23719 0.81336 0.29789
 C160 C 0.22576 0.77912 0.32080
 N161 N 0.21582 0.76499 0.32504
 C162 C 0.20270 0.76371 0.31304
 H163 H 0.17281 0.76371 0.28299
 H164 H 0.18789 0.80814 0.25308
 H165 H 0.21730 0.82772 0.26317
 H166 H 0.24680 0.81304 0.30828
 H167 H 0.23704 0.78368 0.32806
 H168 H 0.19277 0.75363 0.31280
 C169 C 0.46835 0.44416 0.46464
 C170 C 0.47326 0.45412 0.45000
 C171 C 0.46361 0.46872 0.44537
 C172 C 0.44892 0.47355 0.45527
 C173 C 0.44405 0.46371 0.46966
 C174 C 0.45384 0.44890 0.47439
 C175 C 0.47523 0.42931 0.47216
 N176 N 0.46525 0.42490 0.48626
 C177 C 0.45213 0.43686 0.48768
 C178 C 0.42931 0.47136 0.47667
 N179 N 0.42511 0.48565 0.46690
 C180 C 0.43709 0.48706 0.45378
 C181 C 0.47130 0.47579 0.43069
 N182 N 0.48542 0.46585 0.42627
 C183 C 0.48669 0.45256 0.43806
 H184 H 0.48652 0.42210 0.46751
 H185 H 0.44217 0.43698 0.49777
 H186 H 0.42230 0.46693 0.48817
 H187 H 0.43709 0.49701 0.44368
 H188 H 0.46675 0.48717 0.42359
 H189 H 0.49676 0.44258 0.43813
 C190 C -0.03208 -0.05587 0.96328
 C191 C -0.02715 -0.04612 0.94851
 C192 C -0.03674 -0.03154 0.94371
 C193 C -0.05142 -0.02656 0.95358
 C194 C -0.05623 -0.03615 0.96809
 C195 C -0.04647 -0.05093 0.97299
 C196 C -0.02521 -0.07060 0.97102
 N197 N -0.03505 -0.07491 0.98535
 C198 C -0.04812 -0.06272 0.98650
 C199 C -0.07084 -0.02828 0.97511
 N200 N -0.07520 -0.01401 0.96522
 C201 C -0.06318 -0.01303 0.95197
 C202 C -0.02898 -0.02464 0.92898
 N203 N -0.01490 -0.03469 0.92469
 C204 C -0.01372 -0.04787 0.93661
 H205 H -0.01368 -0.07736 0.96637
 H206 H -0.05839 -0.06227 0.99623
 H207 H -0.07770 -0.03301 0.98654
 H208 H -0.06259 -0.00318 0.94184
 H209 H -0.03344 -0.01327 0.92179
 H210 H -0.00369 -0.05788 0.93680
 C211 C 1.03198 0.55658 0.96383
 C212 C 1.02701 0.54685 0.94908
 C213 C 1.03663 0.53233 0.94424
 C214 C 1.05138 0.52736 0.95404
 C215 C 1.05627 0.53695 0.96849
 C216 C 1.04648 0.55168 0.97343
 C217 C 1.02510 0.57125 0.97161
 N218 N 1.03505 0.57557 0.98585
 C219 C 1.04821 0.56346 0.98689
 C220 C 1.07097 0.52915 0.97540
 N221 N 1.07531 0.51491 0.96552
 C222 C 1.06318 0.51388 0.95238
 C223 C 1.02879 0.52542 0.92958
 N224 N 1.01463 0.53539 0.92538
 C225 C 1.01347 0.54855 0.93728
 H226 H 1.01372 0.57818 0.96683
 H227 H 1.05838 0.56285 0.99671
 H228 H 1.07769 0.53369 0.98698
 H229 H 1.06278 0.50426 0.94206
 H230 H 1.03325 0.51407 0.92239
 H231 H 1.00338 0.55849 0.93754
 C232 C 0.53203 0.05620 0.46387
 C233 C 0.52699 0.04640 0.44922
 C234 C 0.53665 0.03191 0.44434
 C235 C 0.55152 0.02706 0.45402
 C236 C 0.55648 0.03669 0.46841
 C237 C 0.54670 0.05141 0.47338
 C238 C 0.52512 0.07087 0.47167
 N239 N 0.53524 0.07513 0.48569
 C240 C 0.54848 0.06325 0.48680
 C241 C 0.57127 0.02897 0.47522
 N242 N 0.57561 0.01472 0.46533
 C243 C 0.56338 0.01363 0.45228
 C244 C 0.52875 0.02495 0.42974
 N245 N 0.51452 0.03486 0.42561
 C246 C 0.51338 0.04802 0.43750
 H247 H 0.51370 0.07804 0.46727
 H248 H 0.55856 0.06305 0.49678
 H249 H 0.57825 0.03376 0.48654
 H250 H 0.56274 0.00380 0.44217
 H251 H 0.53324 0.01364 0.42251
 H252 H 0.50326 0.05795 0.43779
 C253 C -0.03191 0.05651 0.53543
 C254 C -0.02689 0.04677 0.55018
 C255 C -0.03646 0.03223 0.55509
 C256 C -0.05114 0.02720 0.54528
 C257 C -0.05605 0.03677 0.53070
 C258 C -0.04637 0.05154 0.52575
 C259 C -0.02512 0.07126 0.52766
 N260 N -0.03511 0.07537 0.51347
 C261 C -0.04814 0.06333 0.51223
 C262 C -0.07069 0.02891 0.52377
 N263 N -0.07481 0.01479 0.53379
 C264 C -0.06288 0.01368 0.54699
 C265 C -0.02868 0.02543 0.56987
 N266 N -0.01459 0.03547 0.57405
 C267 C -0.01344 0.04856 0.56203
 H268 H -0.01361 0.07831 0.53192
 H269 H -0.05834 0.06326 0.50238
 H270 H -0.07793 0.03334 0.51240
 H271 H -0.06258 0.00365 0.55699
 H272 H -0.03288 0.01388 0.57691
 H273 H -0.00370 0.05882 0.56203
 C274 C 0.46985 0.55449 0.03464
 C275 C 0.47480 0.54462 0.04934
 C276 C 0.46521 0.53005 0.05408
 C277 C 0.45055 0.52513 0.04417
 C278 C 0.44573 0.53485 0.02965
 C279 C 0.45548 0.54964 0.02487
 C280 C 0.47668 0.56929 0.02705
 N281 N 0.46683 0.57371 0.01274
 C282 C 0.45380 0.56155 0.01147
 C283 C 0.43105 0.52714 0.02264
 N284 N 0.42680 0.51298 0.03256
 C285 C 0.43871 0.51169 0.04576
 C286 C 0.47289 0.52314 0.06886
 N287 N 0.48695 0.53315 0.07322
 C288 C 0.48817 0.54632 0.06130
 H289 H 0.48819 0.57600 0.03175
 H290 H 0.44350 0.56123 0.00177
 H291 H 0.42383 0.53172 0.01132
 H292 H 0.43889 0.50161 0.05572
 H293 H 0.46865 0.51154 0.07579
 H294 H 0.49789 0.55661 0.06145
 C295 C 0.53270 -0.05794 0.03724
 C296 C 0.52783 -0.04821 0.05202
 C297 C 0.53755 -0.03378 0.05689
 C298 C 0.55229 -0.02889 0.04707
 C299 C 0.55712 -0.03850 0.03255
 C300 C 0.54726 -0.05312 0.02759
 C301 C 0.52571 -0.07253 0.02940
 N302 N 0.53567 -0.07670 0.01523
 C303 C 0.54888 -0.06485 0.01406
 C304 C 0.57184 -0.03078 0.02560
 N305 N 0.57606 -0.01666 0.03552
 C306 C 0.56411 -0.01543 0.04869
 C307 C 0.52978 -0.02686 0.07159
 N308 N 0.51557 -0.03672 0.07578
 C309 C 0.51431 -0.04982 0.06384
 H310 H 0.51435 -0.07971 0.03389
 H311 H 0.55884 -0.06458 0.00396
 H312 H 0.57878 -0.03502 0.01399
 H313 H 0.56410 -0.00560 0.05886
 H314 H 0.53432 -0.01558 0.07881
 H315 H 0.50414 -0.05967 0.06355
 C316 C 1.03117 0.44505 0.53583
 C317 C 1.02627 0.45466 0.55068
 C318 C 1.03588 0.46915 0.55557
 C319 C 1.05055 0.47420 0.54572
 C320 C 1.05535 0.46477 0.53112
 C321 C 1.04559 0.45009 0.52611
 C322 C 1.02434 0.43036 0.52805
 N323 N 1.03426 0.42635 0.51380
 C324 C 1.04728 0.43840 0.51254
 C325 C 1.07001 0.47262 0.52421
 N326 N 1.07443 0.48672 0.53425
 C327 C 1.06237 0.48762 0.54747
 C328 C 1.02819 0.47586 0.57041
 N329 N 1.01415 0.46579 0.57469
 C330 C 1.01291 0.45277 0.56264
 H331 H 1.01287 0.42326 0.53236
 H332 H 1.05746 0.43853 0.50265
 H333 H 1.07686 0.46798 0.51275
 H334 H 1.06184 0.49731 0.55773
 H335 H 1.03270 0.48711 0.57770
 H336 H 1.00291 0.44277 0.56242
 C337 C 0.40194 0.00797 0.22644
 H338 H 0.40266 0.01988 0.23402
 C339 C 0.41340 0.00535 0.21243
 H340 H 0.42300 0.01530 0.20935
 C341 C 0.38890 -0.01970 0.22170
 H342 H 0.37950 -0.02954 0.22549
 C343 C 0.40013 -0.02287 0.20761
 H344 H 0.39897 -0.03503 0.20047
 N345 N 0.38987 -0.00439 0.23068
 C346 C 0.34843 0.02362 0.25827
 H347 H 0.34770 0.01592 0.27016
 C348 C 0.33704 0.03770 0.25582
 H349 H 0.32748 0.04070 0.26586
 C350 C 0.36144 0.02861 0.23053
 H351 H 0.37081 0.02489 0.22061
 C352 C 0.35029 0.04278 0.22752
 H353 H 0.35146 0.05006 0.21540
 Zn354 Zn 0.37513 -0.00002 0.25015
 N355 N 0.36046 0.01948 0.24581
 C356 C 0.38890 0.01948 0.27871
 N357 N 0.38983 0.00421 0.26967
 C358 C 0.40182 -0.00827 0.27390
 C359 C 0.41321 -0.00583 0.28799
 C360 C 0.40006 0.02248 0.29288
 C361 C 0.34826 -0.02343 0.24201
 C362 C 0.33679 -0.03741 0.24448
 C363 C 0.35009 -0.04264 0.27274
 C364 C 0.36130 -0.02854 0.26973
 N365 N 0.36034 -0.01940 0.25446
 H366 H 0.37957 0.02942 0.27493
 H367 H 0.40250 -0.02015 0.26627
 H368 H 0.42274 -0.01588 0.29107
 H369 H 0.39892 0.03461 0.30009
 H370 H 0.34762 -0.01578 0.23009
 H371 H 0.32750 -0.04061 0.23426
 H372 H 0.35095 -0.04966 0.28504
 H373 H 0.37064 -0.02486 0.27968
 C374 C 0.33792 0.04754 0.24029
 C375 C 0.41258 -0.01024 0.20279
 C376 C 0.33765 -0.04727 0.26000
 C377 C 0.41240 0.00971 0.29772
 C378 C 0.09811 -0.00742 0.72595
 H379 H 0.09740 -0.01932 0.73360
 C380 C 0.08668 -0.00485 0.71190
 H381 H 0.07733 -0.01497 0.70865
 C382 C 0.11130 0.02015 0.72092
 H383 H 0.12069 0.03001 0.72465
 C384 C 0.10013 0.02325 0.70675
 H385 H 0.10107 0.03552 0.69972
 N386 N 0.11024 0.00492 0.73006
 C387 C 0.15183 -0.02310 0.75752
 H388 H 0.15254 -0.01554 0.76946
 C389 C 0.16330 -0.03709 0.75492
 H390 H 0.17266 -0.04038 0.76507
 C391 C 0.13866 -0.02795 0.72984
 H392 H 0.12928 -0.02415 0.71995
 C393 C 0.14987 -0.04204 0.72671
 H394 H 0.14896 -0.04895 0.71438
 Zn395 Zn 0.12497 0.00051 0.74954
 N396 N 0.13969 -0.01893 0.74515
 C397 C 0.11128 -0.01911 0.77815
 N398 N 0.11026 -0.00386 0.76903
 C399 C 0.09815 0.00853 0.77315
 C400 C 0.08670 0.00599 0.78718
 C401 C 0.10007 -0.02221 0.79227
 C402 C 0.15182 0.02404 0.74153
 C403 C 0.16325 0.03803 0.74406
 C404 C 0.14981 0.04311 0.77226
 C405 C 0.13865 0.02900 0.76919
 N406 N 0.13969 0.01992 0.75392
 H407 H 0.12073 -0.02896 0.77447
 H408 H 0.09740 0.02040 0.76547
 H409 H 0.07706 0.01595 0.79016
 H410 H 0.10127 -0.03431 0.79954
 H411 H 0.15253 0.01644 0.72961
 H412 H 0.17259 0.04129 0.73390
 H413 H 0.14888 0.05008 0.78456
 H414 H 0.12928 0.02524 0.77910
 C415 C 0.16237 -0.04680 0.73936
 C416 C 0.08763 0.01064 0.70205
 C417 C 0.16229 0.04782 0.75958
 C418 C 0.08759 -0.00954 0.79699
 C419 C 0.59732 0.49274 0.22765
 H420 H 0.59589 0.48145 0.23610
 C421 C 0.58595 0.49509 0.21351
 H422 H 0.57565 0.48565 0.21124
 C423 C 0.61212 0.51908 0.22080
 H424 H 0.62221 0.52849 0.22378
 C425 C 0.60111 0.52189 0.20645
 H426 H 0.60309 0.53332 0.19831
 N427 N 0.61018 0.50457 0.23094
 C428 C 0.65194 0.47712 0.25873
 H429 H 0.65313 0.48514 0.27032
 C430 C 0.66319 0.46290 0.25631
 H431 H 0.67287 0.45991 0.26624
 C432 C 0.63775 0.47127 0.23176
 H433 H 0.62800 0.47470 0.22209
 C434 C 0.64870 0.45693 0.22883
 H435 H 0.64727 0.44951 0.21685
 Zn436 Zn 0.62481 0.50054 0.25059
 N437 N 0.63941 0.48090 0.24662
 C438 C 0.61170 0.48199 0.28019
 N439 N 0.61005 0.49663 0.27017
 C440 C 0.59728 0.50860 0.27341
 C441 C 0.58568 0.50624 0.28737
 C442 C 0.60042 0.47915 0.29431
 C443 C 0.65247 0.52320 0.24271
 C444 C 0.66393 0.53722 0.24505
 C445 C 0.64857 0.54451 0.27174
 C446 C 0.63751 0.53026 0.26898
 N447 N 0.63951 0.52006 0.25453
 H448 H 0.62172 0.47246 0.27726
 H449 H 0.59606 0.51997 0.26505
 H450 H 0.57548 0.51584 0.28956
 H451 H 0.60217 0.46757 0.30231
 H452 H 0.65388 0.51478 0.23143
 H453 H 0.67405 0.53963 0.23540
 H454 H 0.64683 0.55246 0.28334
 H455 H 0.62739 0.52736 0.27843
 C456 C 0.66158 0.45254 0.24123
 C457 C 0.58782 0.50980 0.20263
 C458 C 0.66200 0.54812 0.25970
 C459 C 0.58717 0.49135 0.29806
 C460 C 0.90161 0.50746 0.72695
 H461 H 0.90222 0.51935 0.73456
 C462 C 0.91308 0.50500 0.71292
 H463 H 0.92259 0.51505 0.70988
 C464 C 0.88878 0.47971 0.72208
 H465 H 0.87945 0.46979 0.72581
 C466 C 0.90003 0.47669 0.70797
 H467 H 0.89896 0.46457 0.70076
 N468 N 0.88963 0.49499 0.73111
 C469 C 0.84794 0.52297 0.75837
 H470 H 0.84724 0.51543 0.77035
 C471 C 0.83652 0.53700 0.75573
 H472 H 0.82720 0.54034 0.76589
 C473 C 0.86108 0.52778 0.73065
 H474 H 0.87044 0.52396 0.72076
 C475 C 0.84992 0.54191 0.72748
 H476 H 0.85084 0.54882 0.71512
 Zn477 Zn 0.87478 0.49934 0.75050
 N478 N 0.86004 0.51876 0.74599
 C479 C 0.88839 0.51907 0.77898
 N480 N 0.88939 0.50374 0.77005
 C481 C 0.90142 0.49133 0.77438
 C482 C 0.91280 0.49393 0.78845
 C483 C 0.89955 0.52223 0.79312
 C484 C 0.84813 0.47571 0.74233
 C485 C 0.83669 0.46171 0.74484
 C486 C 0.84980 0.45676 0.77324
 C487 C 0.86099 0.47087 0.77018
 N488 N 0.86009 0.47989 0.75484
 H489 H 0.87903 0.52895 0.77512
 H490 H 0.90215 0.47940 0.76684
 H491 H 0.92237 0.48394 0.79160
 H492 H 0.89837 0.53440 0.80023
 H493 H 0.84754 0.48326 0.73035
 H494 H 0.82748 0.45840 0.73459
 H495 H 0.85059 0.44985 0.78560
 H496 H 0.87024 0.47467 0.78017
 C497 C 0.83745 0.54671 0.74013
 C498 C 0.91236 0.48946 0.70318
 C499 C 0.83746 0.45200 0.76046
 C500 C 0.91194 0.50954 0.79805
 C501 C 0.22665 0.40203 0.00779
 H502 H 0.23445 0.40271 0.01961
 C503 C 0.21258 0.41349 0.00543
 H504 H 0.20949 0.42281 0.01563
 C505 C 0.22122 0.38893 -0.01978
 H506 H 0.22482 0.37957 -0.02971
 C507 C 0.20704 0.40013 -0.02268
 H508 H 0.19986 0.39924 -0.03488
 N509 N 0.23057 0.38994 -0.00464
 C510 C 0.25849 0.34855 0.02314
 H511 H 0.27031 0.34782 0.01535
 C512 C 0.25609 0.33712 0.03720
 H513 H 0.26613 0.32752 0.04011
 C514 C 0.23079 0.36161 0.02835
 H515 H 0.22086 0.37101 0.02473
 C516 C 0.22784 0.35041 0.04250
 H517 H 0.21576 0.35157 0.04986
 Zn518 Zn 0.25011 0.37522 -0.00050
 N519 N 0.24600 0.36061 0.01910
 C520 C 0.27902 0.38885 0.01867
 N521 N 0.26970 0.38982 0.00350
 C522 C 0.27374 0.40176 -0.00908
 C523 C 0.28790 0.41306 -0.00686
 C524 C 0.29328 0.39992 0.02144
 C525 C 0.24168 0.34846 -0.02390
 C526 C 0.24409 0.33693 -0.03785
 C527 C 0.27236 0.35006 -0.04324
 C528 C 0.26942 0.36133 -0.02918
 N529 N 0.25419 0.36047 -0.01996
 H530 H 0.27540 0.37956 0.02869
 H531 H 0.26590 0.40246 -0.02088
 H532 H 0.29082 0.42254 -0.01699
 H533 H 0.30071 0.39875 0.03347
 H534 H 0.22980 0.34788 -0.01619
 H535 H 0.23384 0.32766 -0.04096
 H536 H 0.28464 0.35083 -0.05030
 H537 H 0.27942 0.37061 -0.02556
 C538 C 0.24060 0.33797 0.04710
 C539 C 0.20254 0.41260 -0.00996
 C540 C 0.25959 0.33765 -0.04775
 C541 C 0.29792 0.41221 0.00855
 C542 C 0.72645 0.09781 -0.00777
 H543 H 0.73414 0.09743 -0.01968
 C544 C 0.71253 0.08619 -0.00549
 H545 H 0.70943 0.07705 -0.01584
 C546 C 0.72118 0.11031 0.02011
 H547 H 0.72478 0.11948 0.03021
 C548 C 0.70717 0.09894 0.02294
 H549 H 0.70013 0.09951 0.03525
 N550 N 0.73036 0.10969 0.00485
 C551 C 0.75763 0.15190 -0.02224
 H552 H 0.76944 0.15265 -0.01442
 C553 C 0.75509 0.16353 -0.03613
 H554 H 0.76499 0.17329 -0.03886
 C555 C 0.73015 0.13860 -0.02770
 H556 H 0.72035 0.12903 -0.02425
 C557 C 0.72706 0.14999 -0.04169
 H558 H 0.71502 0.14878 -0.04909
 Zn559 Zn 0.74968 0.12469 0.00090
 N560 N 0.74534 0.13963 -0.01842
 C561 C 0.77871 0.11167 -0.01859
 N562 N 0.76945 0.11034 -0.00341
 C563 C 0.77360 0.09814 0.00889
 C564 C 0.78777 0.08688 0.00633
 C565 C 0.79299 0.10066 -0.02168
 C566 C 0.74087 0.15094 0.02471
 C567 C 0.74297 0.16213 0.03897
 C568 C 0.77132 0.14908 0.04438
 C569 C 0.76868 0.13813 0.03001
 N570 N 0.75355 0.13911 0.02063
 H571 H 0.77501 0.12119 -0.02837
 H572 H 0.76581 0.09715 0.02069
 H573 H 0.79074 0.07715 0.01622
 H574 H 0.80035 0.10210 -0.03372
 H575 H 0.72907 0.15158 0.01688
 H576 H 0.73258 0.17123 0.04218
 H577 H 0.78351 0.14822 0.05159
 H578 H 0.77880 0.12898 0.02631
 C579 C 0.73965 0.16263 -0.04610
 C580 C 0.70265 0.08670 0.01002
 C581 C 0.75834 0.16125 0.04906
 C582 C 0.79771 0.08807 -0.00912
 C583 C 0.22594 0.59881 0.49222
 H584 H 0.23376 0.59801 0.48042
 C585 C 0.21178 0.58752 0.49459
 H586 H 0.20883 0.57798 0.48456
 C587 C 0.22074 0.61187 0.51986
 H588 H 0.22440 0.62121 0.52978
 C589 C 0.20648 0.60082 0.52278
 H590 H 0.19909 0.60205 0.53482
 N591 N 0.23002 0.61081 0.50468
 C592 C 0.25824 0.65204 0.47706
 H593 H 0.27008 0.65263 0.48485
 C594 C 0.25593 0.66353 0.46303
 H595 H 0.26602 0.67304 0.46015
 C596 C 0.23047 0.63925 0.47180
 H597 H 0.22048 0.62994 0.47538
 C598 C 0.22760 0.65052 0.45768
 H599 H 0.21552 0.64947 0.45031
 Zn600 Zn 0.24968 0.62532 0.50058
 N601 N 0.24568 0.64008 0.48105
 C602 C 0.27851 0.61150 0.48137
 N603 N 0.26912 0.61049 0.49649
 C604 C 0.27294 0.59834 0.50894
 C605 C 0.28694 0.58682 0.50662
 C606 C 0.29264 0.60025 0.47852
 C607 C 0.24154 0.65210 0.52409
 C608 C 0.24405 0.66354 0.53808
 C609 C 0.27214 0.64994 0.54350
 C610 C 0.26910 0.63877 0.52938
 N611 N 0.25390 0.63992 0.52012
 H612 H 0.27499 0.62091 0.47142
 H613 H 0.26510 0.59767 0.52073
 H614 H 0.28996 0.57745 0.51683
 H615 H 0.29987 0.60115 0.46635
 H616 H 0.22968 0.65288 0.51635
 H617 H 0.23392 0.67296 0.54120
 H618 H 0.28440 0.64896 0.55059
 H619 H 0.27898 0.62934 0.52576
 C620 C 0.24044 0.66285 0.45310
 C621 C 0.20181 0.58845 0.51003
 C622 C 0.25952 0.66254 0.54802
 C623 C 0.29704 0.58771 0.49126
 C624 C 0.72691 0.90175 0.50741
 H625 H 0.73465 0.90234 0.51927
 C626 C 0.71286 0.91323 0.50505
 H627 H 0.70993 0.92272 0.51514
 C628 C 0.72178 0.88899 0.47963
 H629 H 0.72541 0.87969 0.46965
 C630 C 0.70764 0.90025 0.47670
 H631 H 0.70033 0.89922 0.46459
 N632 N 0.73096 0.88981 0.49487
 C633 C 0.75870 0.84826 0.52261
 H634 H 0.77060 0.84758 0.51492
 C635 C 0.75624 0.83679 0.53663
 H636 H 0.76628 0.82721 0.53959
 C637 C 0.73094 0.86124 0.52765
 H638 H 0.72101 0.87062 0.52398
 C639 C 0.72792 0.85000 0.54176
 H640 H 0.71579 0.85113 0.54903
 Zn641 Zn 0.75047 0.87504 0.49904
 N642 N 0.74623 0.86030 0.51852
 C643 C 0.77916 0.88862 0.51856
 N644 N 0.77001 0.88964 0.50330
 C645 C 0.77412 0.90169 0.49084
 C646 C 0.78817 0.91308 0.49332
 C647 C 0.79330 0.89977 0.52159
 C648 C 0.74215 0.84850 0.47534
 C649 C 0.74458 0.83714 0.46125
 C650 C 0.77295 0.85020 0.45621
 C651 C 0.76997 0.86131 0.47040
 N652 N 0.75467 0.86042 0.47950
 H653 H 0.77548 0.87923 0.52847
 H654 H 0.76641 0.90244 0.47897
 H655 H 0.79114 0.92267 0.48331
 H656 H 0.80058 0.89858 0.53371
 H657 H 0.73021 0.84789 0.48296
 H658 H 0.73431 0.82796 0.45797
 H659 H 0.78528 0.85100 0.44924
 H660 H 0.77999 0.87051 0.47420
 C661 C 0.74068 0.83759 0.54644
 C662 C 0.70300 0.91255 0.48953
 C663 C 0.76013 0.83794 0.45144
 C664 C 0.79799 0.91219 0.50886
 C665 C 0.00785 0.22800 0.40216
 H666 H 0.01939 0.23610 0.40341
 C667 C 0.00537 0.21388 0.41350
 H668 H 0.01521 0.21103 0.42333
 C669 C -0.01895 0.22189 0.38773
 H670 H -0.02854 0.22519 0.37786
 C671 C -0.02193 0.20762 0.39876
 H672 H -0.03385 0.20012 0.39726
 N673 N -0.00416 0.23163 0.38948
 C674 C 0.02255 0.25904 0.34711
 H675 H 0.01417 0.27038 0.34578
 C676 C 0.03650 0.25658 0.33553
 H677 H 0.03869 0.26607 0.32523
 C678 C 0.02938 0.23259 0.36180
 H679 H 0.02647 0.22317 0.37193
 C680 C 0.04349 0.22964 0.35054
 H681 H 0.05150 0.21810 0.35240
 Zn682 Zn -0.00017 0.25123 0.37481
 N683 N 0.01934 0.24719 0.36001
 C684 C 0.01833 0.28100 0.38718
 N685 N 0.00392 0.27078 0.38941
 C686 C -0.00772 0.27392 0.40253
 C687 C -0.00521 0.28793 0.41394
 C688 C 0.02127 0.29525 0.39819
 C689 C -0.02317 0.24354 0.34736
 C690 C -0.03740 0.24590 0.33610
 C691 C -0.04454 0.27252 0.35151
 C692 C -0.03009 0.26972 0.36240
 N693 N -0.01988 0.25528 0.36029
 H694 H 0.02763 0.27811 0.37692
 H695 H -0.01899 0.26549 0.40410
 H696 H -0.01470 0.29033 0.42421
 H697 H 0.03284 0.30320 0.39627
 H698 H -0.01466 0.23232 0.34580
 H699 H -0.03965 0.23651 0.32575
 H700 H -0.05274 0.28388 0.35366
 H701 H -0.02712 0.27906 0.37255
 C702 C 0.04721 0.24172 0.33717
 C703 C -0.00966 0.20343 0.41183
 C704 C -0.04839 0.26050 0.33817
 C705 C 0.00943 0.29883 0.41180
 C706 C -0.00766 0.72686 0.09772
 H707 H -0.01954 0.73458 0.09696
 C708 C -0.00523 0.71277 0.08637
 H709 H -0.01527 0.70980 0.07681
 C710 C 0.02007 0.72180 0.11076
 H711 H 0.03000 0.72548 0.12013
 C712 C 0.02306 0.70764 0.09964
 H713 H 0.03518 0.70034 0.10085
 N714 N 0.00480 0.73096 0.10975
 C715 C -0.02310 0.75845 0.15132
 H716 H -0.01544 0.77031 0.15204
 C717 C -0.03720 0.75594 0.16272
 H718 H -0.04046 0.76608 0.17204
 C719 C -0.02813 0.73089 0.13816
 H720 H -0.02438 0.72100 0.12882
 C721 C -0.04234 0.72785 0.14930
 H722 H -0.04936 0.71561 0.14836
 Zn723 Zn 0.00052 0.75040 0.12447
 N724 N -0.01898 0.74609 0.13921
 C725 C -0.01914 0.77898 0.11078
 N726 N -0.00384 0.76988 0.10975
 C727 C 0.00855 0.77400 0.09763
 C728 C 0.00599 0.78803 0.08619
 C729 C -0.02224 0.79312 0.09960
 C730 C 0.02415 0.74224 0.15127
 C731 C 0.03825 0.74466 0.16266
 C732 C 0.04349 0.77277 0.14920
 C733 C 0.02928 0.76981 0.13806
 N734 N 0.02007 0.75464 0.13915
 H735 H -0.02905 0.77523 0.12015
 H736 H 0.02049 0.76638 0.09693
 H737 H 0.01617 0.79129 0.07685
 H738 H -0.03456 0.80010 0.10050
 H739 H 0.01638 0.73045 0.15207
 H740 H 0.04120 0.73468 0.17230
 H741 H 0.05085 0.78479 0.14792
 H742 H 0.02563 0.77968 0.12862
 C743 C -0.04707 0.74050 0.16175
 C744 C 0.01030 0.70292 0.08727
 C745 C 0.04817 0.76008 0.16169
 C746 C -0.00956 0.79783 0.08712
 C747 C 0.49198 0.22579 0.59904
 H748 H 0.47998 0.23332 0.59845
 C749 C 0.49451 0.21178 0.58763
 H750 H 0.48439 0.20865 0.57820
 C751 C 0.51996 0.22116 0.61173
 H752 H 0.52996 0.22499 0.62096
 C753 C 0.52305 0.20707 0.60053
 H754 H 0.53530 0.19998 0.60155
 N755 N 0.50454 0.23006 0.61093
 C756 C 0.47633 0.25763 0.65224
 H757 H 0.48381 0.26962 0.65279
 C758 C 0.46231 0.25507 0.66371
 H759 H 0.45913 0.26514 0.67314
 C760 C 0.47185 0.22972 0.63964
 H761 H 0.47574 0.21977 0.63042
 C762 C 0.45776 0.22660 0.65089
 H763 H 0.45072 0.21436 0.64993
 Zn764 Zn 0.50015 0.24949 0.62562
 N765 N 0.48069 0.24513 0.64038
 C766 C 0.48036 0.27786 0.61161
 N767 N 0.49575 0.26889 0.61082
 C768 C 0.50828 0.27307 0.59887
 C769 C 0.50579 0.28706 0.58737
 C770 C 0.47731 0.29194 0.60033
 C771 C 0.52401 0.24137 0.65223
 C772 C 0.53811 0.24390 0.66360
 C773 C 0.54273 0.27231 0.65058
 C774 C 0.52856 0.26923 0.63942
 N775 N 0.51966 0.25387 0.64030
 H776 H 0.47038 0.27411 0.62090
 H777 H 0.52025 0.26549 0.59830
 H778 H 0.51589 0.29010 0.57789
 H779 H 0.46510 0.29910 0.60134
 H780 H 0.51649 0.22942 0.65287
 H781 H 0.54129 0.23383 0.67307
 H782 H 0.54982 0.28451 0.64949
 H783 H 0.52467 0.27918 0.63015
 C784 C 0.45279 0.23938 0.66310
 C785 C 0.51020 0.20218 0.58831
 C786 C 0.54770 0.25953 0.66285
 C787 C 0.49015 0.29674 0.58805
 C788 C 0.50872 0.72578 0.90125
 H789 H 0.52070 0.73332 0.90175
 C790 C 0.50637 0.71167 0.91262
 H791 H 0.51674 0.70826 0.92169
 C792 C 0.48075 0.72106 0.88864
 H793 H 0.47065 0.72494 0.87951
 C794 C 0.47785 0.70685 0.89977
 H795 H 0.46549 0.69995 0.89906
 N796 N 0.49608 0.73006 0.88943
 C797 C 0.52381 0.75790 0.84794
 H798 H 0.51625 0.76986 0.84744
 C799 C 0.53775 0.75540 0.83635
 H800 H 0.54079 0.76550 0.82688
 C801 C 0.52859 0.72998 0.86056
 H802 H 0.52485 0.72000 0.86984
 C803 C 0.54260 0.72693 0.84920
 H804 H 0.54974 0.71472 0.85014
 Zn805 Zn 0.50027 0.74960 0.87477
 N806 N 0.51963 0.74535 0.85986
 C807 C 0.52002 0.77795 0.88859
 N808 N 0.50471 0.76891 0.88956
 C809 C 0.49229 0.77300 0.90165
 C810 C 0.49483 0.78694 0.91313
 C811 C 0.52312 0.79197 0.89985
 C812 C 0.47622 0.74172 0.84829
 C813 C 0.46207 0.74439 0.83699
 C814 C 0.45751 0.77271 0.85019
 C815 C 0.47173 0.76948 0.86126
 N816 N 0.48063 0.75410 0.86025
 H817 H 0.52991 0.77428 0.87917
 H818 H 0.48037 0.76539 0.90235
 H819 H 0.48482 0.78991 0.92274
 H820 H 0.53527 0.79918 0.89869
 H821 H 0.48375 0.72976 0.84753
 H822 H 0.45885 0.73443 0.82748
 H823 H 0.45043 0.78492 0.85136
 H824 H 0.47567 0.77933 0.87055
 C825 C 0.54738 0.73975 0.83691
 C826 C 0.49077 0.70196 0.91195
 C827 C 0.45249 0.76005 0.83787
 C828 C 0.51040 0.79667 0.91229
 C829 C 0.13201 0.22470 0.26938
 C830 C 0.13853 0.20776 0.26704
 C831 C 0.15277 0.20484 0.25589
 C832 C 0.16068 0.21884 0.24690
 C833 C 0.15401 0.23582 0.24936
 C834 C 0.13979 0.23871 0.26054
 C835 C 0.11735 0.22770 0.28086
 C836 C 0.10509 0.23021 0.29049
 C837 C 0.09048 0.23314 0.30204
 C838 C 0.08013 0.21908 0.30752
 C839 C 0.06603 0.22186 0.31888
 C840 C 0.06211 0.23878 0.32496
 C841 C 0.07256 0.25284 0.31930
 C842 C 0.08664 0.25003 0.30791
 H843 H 0.13257 0.19681 0.27379
 H844 H 0.15743 0.19160 0.25411
 H845 H 0.15993 0.24690 0.24284
 H846 H 0.13488 0.25189 0.26230
 H847 H 0.08295 0.20596 0.30300
 H848 H 0.05809 0.21079 0.32275
 H849 H 0.07003 0.26599 0.32388
 H850 H 0.09458 0.26101 0.30376
 C851 C 0.63155 0.72295 0.76832
 C852 C 0.63800 0.70603 0.76571
 C853 C 0.65214 0.70320 0.75440
 C854 C 0.66001 0.71729 0.74552
 C855 C 0.65340 0.73425 0.74823
 C856 C 0.63928 0.73705 0.75956
 C857 C 0.61705 0.72585 0.78003
 C858 C 0.60491 0.72828 0.78985
 C859 C 0.59045 0.73117 0.80160
 C860 C 0.57883 0.71756 0.80543
 C861 C 0.56482 0.72033 0.81691
 C862 C 0.56224 0.73679 0.82470
 C863 C 0.57398 0.75040 0.82073
 C864 C 0.58799 0.74759 0.80927
 H865 H 0.63208 0.69501 0.77239
 H866 H 0.65674 0.68997 0.75243
 H867 H 0.65929 0.74540 0.74180
 H868 H 0.63442 0.75021 0.76153
 H869 H 0.58058 0.70481 0.79952
 H870 H 0.55588 0.70966 0.81951
 H871 H 0.57248 0.76314 0.82669
 H872 H 0.59694 0.75821 0.80643
 C873 C 0.36794 0.77759 0.76986
 C874 C 0.36155 0.79453 0.76711
 C875 C 0.34750 0.79736 0.75568
 C876 C 0.33967 0.78328 0.74681
 C877 C 0.34621 0.76631 0.74968
 C878 C 0.36024 0.76350 0.76113
 C879 C 0.38241 0.77467 0.78161
 C880 C 0.39454 0.77218 0.79143
 C881 C 0.40902 0.76917 0.80314
 C882 C 0.42068 0.78272 0.80700
 C883 C 0.43480 0.77979 0.81832
 C884 C 0.43744 0.76322 0.82592
 C885 C 0.42563 0.74968 0.82195
 C886 C 0.41152 0.75265 0.81064
 H887 H 0.36745 0.80554 0.77376
 H888 H 0.34295 0.81060 0.75359
 H889 H 0.34034 0.75516 0.74327
 H890 H 0.36506 0.75033 0.76320
 H891 H 0.41890 0.79554 0.80121
 H892 H 0.44378 0.79041 0.82092
 H893 H 0.42719 0.73686 0.82777
 H894 H 0.40255 0.74208 0.80777
 C895 C -0.13471 0.27521 0.27172
 C896 C -0.14669 0.28862 0.27496
 C897 C -0.16102 0.29115 0.26384
 C898 C -0.16374 0.28028 0.24909
 C899 C -0.15140 0.26675 0.24610
 C900 C -0.13710 0.26430 0.25729
 C901 C -0.11997 0.27267 0.28321
 C902 C -0.10761 0.27058 0.29284
 C903 C -0.09284 0.26808 0.30430
 C904 C -0.08270 0.28240 0.30947
 C905 C -0.06826 0.27997 0.32049
 C906 C -0.06376 0.26314 0.32650
 C907 C -0.07410 0.24884 0.32129
 C908 C -0.08853 0.25131 0.31027
 H909 H -0.14497 0.29714 0.28615
 H910 H -0.16988 0.30164 0.26712
 H911 H -0.15245 0.25799 0.23510
 H912 H -0.12785 0.25386 0.25464
 H913 H -0.08591 0.29544 0.30492
 H914 H -0.06047 0.29122 0.32410
 H915 H -0.07116 0.23577 0.32590
 H916 H -0.09635 0.24014 0.30642
 C917 C -0.13223 0.72397 0.22920
 C918 C -0.14280 0.70924 0.22723
 C919 C -0.15706 0.70650 0.23840
 C920 C -0.16112 0.71852 0.25190
 C921 C -0.15017 0.73335 0.25365
 C922 C -0.13593 0.73600 0.24242
 C923 C -0.11760 0.72676 0.21763
 C924 C -0.10535 0.72912 0.20794
 C925 C -0.09073 0.73194 0.19636
 C926 C -0.09181 0.72692 0.17877
 C927 C -0.07762 0.72969 0.16751
 C928 C -0.06215 0.73754 0.17370
 C929 C -0.06120 0.74253 0.19142
 C930 C -0.07539 0.73973 0.20265
 H931 H -0.14001 0.69980 0.21704
 H932 H -0.16462 0.69479 0.23634
 H933 H -0.15246 0.74320 0.26348
 H934 H -0.12782 0.74750 0.24405
 H935 H -0.10363 0.72091 0.17375
 H936 H -0.07885 0.72590 0.15391
 H937 H -0.04939 0.74837 0.19664
 H938 H -0.07439 0.74361 0.21626
 C939 C 0.36838 0.22234 0.73132
 C940 C 0.35816 0.20731 0.72974
 C941 C 0.34404 0.20448 0.74106
 C942 C 0.33978 0.21669 0.75433
 C943 C 0.35038 0.23182 0.75568
 C944 C 0.36447 0.23456 0.74431
 C945 C 0.38287 0.22523 0.71961
 C946 C 0.39501 0.22767 0.70979
 C947 C 0.40949 0.23060 0.69808
 C948 C 0.42122 0.21703 0.69437
 C949 C 0.43531 0.21987 0.68300
 C950 C 0.43784 0.23635 0.67519
 C951 C 0.42597 0.24991 0.67902
 C952 C 0.41189 0.24703 0.69038
 H953 H 0.36112 0.19772 0.71974
 H954 H 0.33677 0.19253 0.73934
 H955 H 0.34785 0.24184 0.76528
 H956 H 0.37230 0.24629 0.74561
 H957 H 0.41951 0.20427 0.70030
 H958 H 0.44435 0.20924 0.68050
 H959 H 0.42744 0.26267 0.67305
 H960 H 0.40285 0.25761 0.69312
 C961 C 0.63240 0.27644 0.73071
 C962 C 0.64282 0.29131 0.72887
 C963 C 0.65687 0.29419 0.74025
 C964 C 0.66086 0.28220 0.75385
 C965 C 0.65009 0.26721 0.75543
 C966 C 0.63606 0.26442 0.74399
 C967 C 0.61791 0.27354 0.71900
 C968 C 0.60575 0.27110 0.70922
 C969 C 0.59120 0.26820 0.69758
 C970 C 0.57953 0.28181 0.69381
 C971 C 0.56538 0.27901 0.68252
 C972 C 0.56272 0.26252 0.67485
 C973 C 0.57452 0.24891 0.67875
 C974 C 0.58867 0.25174 0.69003
 H975 H 0.64005 0.30075 0.71863
 H976 H 0.66431 0.30601 0.73829
 H977 H 0.65237 0.25736 0.76529
 H978 H 0.62807 0.25282 0.74551
 H979 H 0.58133 0.29458 0.69965
 H980 H 0.55639 0.28968 0.67999
 H981 H 0.57295 0.23613 0.67289
 H982 H 0.59765 0.24112 0.69283
 C983 C 0.13291 0.77640 0.22968
 C984 C 0.14057 0.76232 0.23856
 C985 C 0.15464 0.76512 0.24995
 C986 C 0.16126 0.78208 0.25260
 C987 C 0.15344 0.79614 0.24359
 C988 C 0.13937 0.79330 0.23222
 C989 C 0.11839 0.77352 0.21799
 C990 C 0.10622 0.77116 0.20820
 C991 C 0.09169 0.76839 0.19651
 C992 C 0.08882 0.75187 0.18926
 C993 C 0.07468 0.74915 0.17793
 C994 C 0.06322 0.76296 0.17369
 C995 C 0.06625 0.77954 0.18104
 C996 C 0.08039 0.78222 0.19238
 H997 H 0.13571 0.74916 0.23666
 H998 H 0.16049 0.75399 0.25648
 H999 H 0.15804 0.80936 0.24551
 H1000 H 0.13349 0.80431 0.22545
 H1001 H 0.09752 0.74109 0.19233
 H1002 H 0.07285 0.73631 0.17230
 H1003 H 0.05755 0.79037 0.17823
 H1004 H 0.08247 0.79506 0.19795
 C1005 C 0.27008 0.13233 0.22403
 C1006 C 0.26749 0.13879 0.20707
 C1007 C 0.25624 0.15294 0.20422
 C1008 C 0.24738 0.16084 0.21832
 C1009 C 0.25006 0.15422 0.23533
 C1010 C 0.26134 0.14007 0.23815
 C1011 C 0.28172 0.11779 0.22693
 C1012 C 0.29149 0.10562 0.22928
 C1013 C 0.30316 0.09108 0.23203
 C1014 C 0.31060 0.08821 0.24855
 C1015 C 0.32191 0.07407 0.25124
 C1016 C 0.32594 0.06260 0.23742
 C1017 C 0.31842 0.06562 0.22085
 C1018 C 0.30710 0.07977 0.21820
 H1019 H 0.27414 0.13285 0.19604
 H1020 H 0.25429 0.15755 0.19095
 H1021 H 0.24364 0.16012 0.24649
 H1022 H 0.26329 0.13520 0.25135
 H1023 H 0.30769 0.09693 0.25934
 H1024 H 0.32768 0.07223 0.26407
 H1025 H 0.32107 0.05691 0.21001
 H1026 H 0.30138 0.08185 0.20537
 C1027 C 0.76970 0.63132 0.72266
 C1028 C 0.77587 0.64649 0.71449
 C1029 C 0.76458 0.66061 0.71162
 C1030 C 0.74692 0.65975 0.71691
 C1031 C 0.74086 0.64443 0.72514
 C1032 C 0.75218 0.63032 0.72798
 C1033 C 0.78134 0.61680 0.72562
 C1034 C 0.79108 0.60464 0.72811
 C1035 C 0.80271 0.59011 0.73111
 C1036 C 0.82030 0.59117 0.72604
 C1037 C 0.83160 0.57707 0.72896
 C1038 C 0.82545 0.56170 0.73702
 C1039 C 0.80773 0.56077 0.74208
 C1040 C 0.79645 0.57489 0.73913
 H1041 H 0.78943 0.64742 0.71037
 H1042 H 0.76972 0.67228 0.70548
 H1043 H 0.72731 0.64324 0.72916
 H1044 H 0.74725 0.61862 0.73428
 H1045 H 0.82529 0.60291 0.71986
 H1046 H 0.84521 0.57827 0.72513
 H1047 H 0.80254 0.54905 0.74810
 H1048 H 0.78284 0.57392 0.74306
 C1049 C 0.76936 0.36773 0.77726
 C1050 C 0.75439 0.36582 0.76692
 C1051 C 0.74302 0.35178 0.76969
 C1052 C 0.74636 0.33924 0.78295
 C1053 C 0.76164 0.34148 0.79326
 C1054 C 0.77295 0.35555 0.79040
 C1055 C 0.78103 0.38220 0.77437
 C1056 C 0.79083 0.39432 0.77196
 C1057 C 0.80251 0.40878 0.76909
 C1058 C 0.79639 0.42402 0.76098
 C1059 C 0.80774 0.43808 0.75817
 C1060 C 0.82539 0.43707 0.76345
 C1061 C 0.83140 0.42169 0.77163
 C1062 C 0.82003 0.40765 0.77442
 H1063 H 0.75145 0.37524 0.75671
 H1064 H 0.73157 0.35112 0.76143
 H1065 H 0.76523 0.33238 0.80346
 H1066 H 0.78456 0.35689 0.79846
 H1067 H 0.78284 0.42506 0.75686
 H1068 H 0.80264 0.44982 0.75207
 H1069 H 0.84496 0.42043 0.77565
 H1070 H 0.82491 0.39589 0.78068
 C1071 C 0.26998 -0.13193 0.27643
 C1072 C 0.27366 -0.14415 0.28953
 C1073 C 0.26244 -0.15830 0.29233
 C1074 C 0.24718 -0.16061 0.28201
 C1075 C 0.24375 -0.14802 0.26881
 C1076 C 0.25502 -0.13389 0.26610
 C1077 C 0.28157 -0.11739 0.27359
 C1078 C 0.29129 -0.10520 0.27122
 C1079 C 0.30290 -0.09067 0.26841
 C1080 C 0.32045 -0.09180 0.27360
 C1081 C 0.33176 -0.07769 0.27089
 C1082 C 0.32563 -0.06225 0.26292
 C1083 C 0.30795 -0.06124 0.25775
 C1084 C 0.29667 -0.07537 0.26049
 H1085 H 0.28526 -0.14276 0.29760
 H1086 H 0.26609 -0.16740 0.30250
 H1087 H 0.23230 -0.14871 0.26055
 H1088 H 0.25202 -0.12445 0.25593
 H1089 H 0.32542 -0.10360 0.27972
 H1090 H 0.34534 -0.07895 0.27481
 H1091 H 0.30278 -0.04945 0.25181
 H1092 H 0.28308 -0.07434 0.25647
 C1093 C 0.23045 -0.13116 0.72225
 C1094 C 0.22691 -0.14336 0.70916
 C1095 C 0.23827 -0.15744 0.70640
 C1096 C 0.25353 -0.15967 0.71676
 C1097 C 0.25681 -0.14711 0.72996
 C1098 C 0.24540 -0.13306 0.73262
 C1099 C 0.21874 -0.11667 0.72507
 C1100 C 0.20896 -0.10453 0.72748
 C1101 C 0.19729 -0.09004 0.73041
 C1102 C 0.17969 -0.09118 0.72539
 C1103 C 0.16833 -0.07713 0.72830
 C1104 C 0.17444 -0.06174 0.73628
 C1105 C 0.19216 -0.06073 0.74128
 C1106 C 0.20351 -0.07479 0.73834
 H1107 H 0.21532 -0.14203 0.70107
 H1108 H 0.23474 -0.16653 0.69622
 H1109 H 0.26823 -0.14776 0.73826
 H1110 H 0.24828 -0.12364 0.74280
 H1111 H 0.17473 -0.10295 0.71929
 H1112 H 0.15471 -0.07840 0.72452
 H1113 H 0.19732 -0.04899 0.74725
 H1114 H 0.21712 -0.07375 0.74223
 C1115 C 0.72768 0.36645 0.22507
 C1116 C 0.74518 0.36726 0.23047
 C1117 C 0.75631 0.35295 0.22793
 C1118 C 0.75006 0.33761 0.21994
 C1119 C 0.73244 0.33696 0.21451
 C1120 C 0.72133 0.35128 0.21707
 C1121 C 0.71624 0.38117 0.22778
 C1122 C 0.70670 0.39352 0.23011
 C1123 C 0.69537 0.40831 0.23294
 C1124 C 0.70219 0.42384 0.23975
 C1125 C 0.69121 0.43823 0.24250
 C1126 C 0.67325 0.43726 0.23841
 C1127 C 0.66652 0.42157 0.23160
 C1128 C 0.67752 0.40719 0.22890
 H1129 H 0.75025 0.37896 0.23661
 H1130 H 0.76984 0.35399 0.23202
 H1131 H 0.72716 0.32529 0.20853
 H1132 H 0.70779 0.35050 0.21288
 H1133 H 0.71600 0.42485 0.24290
 H1134 H 0.69682 0.45018 0.24759
 H1135 H 0.65271 0.42035 0.22857
 H1136 H 0.67208 0.39520 0.22370
 C1137 C 0.72964 0.63290 0.27530
 C1138 C 0.74713 0.63192 0.26984
 C1139 C 0.75835 0.64613 0.27232
 C1140 C 0.75224 0.66152 0.28034
 C1141 C 0.73462 0.66237 0.28576
 C1142 C 0.72342 0.64815 0.28325
 C1143 C 0.71809 0.61828 0.27271
 C1144 C 0.70838 0.60606 0.27050
 C1145 C 0.69676 0.59151 0.26783
 C1146 C 0.70343 0.57537 0.26234
 C1147 C 0.69213 0.56126 0.25964
 C1148 C 0.67400 0.56311 0.26247
 C1149 C 0.66741 0.57936 0.26801
 C1150 C 0.67873 0.59348 0.27064
 H1151 H 0.75210 0.62015 0.26372
 H1152 H 0.77187 0.64496 0.26820
 H1153 H 0.72944 0.67409 0.29175
 H1154 H 0.70989 0.64907 0.28748
 H1155 H 0.71737 0.57369 0.26018
 H1156 H 0.69758 0.54884 0.25557
 H1157 H 0.65349 0.58122 0.27008
 H1158 H 0.67342 0.60593 0.27481
 C1159 C 0.23016 0.13219 0.77654
 C1160 C 0.22723 0.14364 0.79044
 C1161 C 0.23864 0.15759 0.79342
 C1162 C 0.25337 0.16046 0.78248
 C1163 C 0.25606 0.14864 0.76846
 C1164 C 0.24458 0.13472 0.76558
 C1165 C 0.21843 0.11779 0.77358
 C1166 C 0.20863 0.10569 0.77111
 C1167 C 0.19699 0.09120 0.76819
 C1168 C 0.17938 0.09236 0.77319
 C1169 C 0.16809 0.07826 0.77040
 C1170 C 0.17428 0.06280 0.76256
 C1171 C 0.19201 0.06179 0.75758
 C1172 C 0.20328 0.07590 0.76039
 H1173 H 0.21607 0.14179 0.79904
 H1174 H 0.23564 0.16599 0.80434
 H1175 H 0.26698 0.14985 0.75958
 H1176 H 0.24699 0.12589 0.75476
 H1177 H 0.17436 0.10416 0.77920
 H1178 H 0.15446 0.07952 0.77418
 H1179 H 0.19723 0.05000 0.75173
 H1180 H 0.21691 0.07484 0.75654
 C1181 C 0.22406 0.26977 0.13153
 C1182 C 0.20710 0.26723 0.13801
 C1183 C 0.20428 0.25600 0.15219
 C1184 C 0.21841 0.24711 0.16007
 C1185 C 0.23541 0.24976 0.15342
 C1186 C 0.23820 0.26102 0.13926
 C1187 C 0.22695 0.28139 0.11698
 C1188 C 0.22935 0.29115 0.10481
 C1189 C 0.23220 0.30284 0.09030
 C1190 C 0.21839 0.30691 0.07893
 C1191 C 0.22111 0.31834 0.06488
 C1192 C 0.23770 0.32584 0.06203
 C1193 C 0.25150 0.32163 0.07353
 C1194 C 0.24875 0.31021 0.08758
 H1195 H 0.19605 0.27392 0.13209
 H1196 H 0.19101 0.25409 0.15683
 H1197 H 0.24659 0.24333 0.15933
 H1198 H 0.25140 0.26294 0.13438
 H1199 H 0.20554 0.30123 0.08089
 H1200 H 0.21029 0.32112 0.05612
 H1201 H 0.26436 0.32736 0.07181
 H1202 H 0.25951 0.30717 0.09634
 C1203 C 0.72403 0.76942 0.63089
 C1204 C 0.70704 0.76681 0.63727
 C1205 C 0.70416 0.75547 0.65136
 C1206 C 0.71826 0.74657 0.65927
 C1207 C 0.73530 0.74928 0.65273
 C1208 C 0.73815 0.76064 0.63865
 C1209 C 0.72696 0.78109 0.61639
 C1210 C 0.72937 0.79089 0.60424
 C1211 C 0.73221 0.80258 0.58974
 C1212 C 0.71842 0.80662 0.57833
 C1213 C 0.72116 0.81800 0.56425
 C1214 C 0.73775 0.82550 0.56139
 C1215 C 0.75153 0.82135 0.57295
 C1216 C 0.74876 0.80997 0.58702
 H1217 H 0.69601 0.77349 0.63132
 H1218 H 0.69088 0.75350 0.65590
 H1219 H 0.74645 0.74283 0.65866
 H1220 H 0.75136 0.76261 0.63385
 H1221 H 0.70557 0.80093 0.58029
 H1222 H 0.71036 0.82074 0.55546
 H1223 H 0.76438 0.82708 0.57124
 H1224 H 0.75951 0.80697 0.59581
 C1225 C 0.77612 0.77063 0.36634
 C1226 C 0.78449 0.77665 0.35118
 C1227 C 0.78715 0.76539 0.33703
 C1228 C 0.78143 0.74792 0.33783
 C1229 C 0.77297 0.74202 0.35312
 C1230 C 0.77036 0.75330 0.36727
 C1231 C 0.77344 0.78222 0.38093
 C1232 C 0.77118 0.79190 0.39317
 C1233 C 0.76846 0.80343 0.40780
 C1234 C 0.77370 0.82091 0.40675
 C1235 C 0.77102 0.83213 0.42093
 C1236 C 0.76301 0.82601 0.43638
 C1237 C 0.75779 0.80840 0.43730
 C1238 C 0.76051 0.79720 0.42310
 H1239 H 0.78895 0.79006 0.35029
 H1240 H 0.79346 0.77042 0.32538
 H1241 H 0.76860 0.72863 0.35426
 H1242 H 0.76392 0.74849 0.37897
 H1243 H 0.77982 0.82589 0.39495
 H1244 H 0.77497 0.84567 0.41973
 H1245 H 0.75181 0.80323 0.44908
 H1246 H 0.75644 0.78367 0.42408
 C1247 C 0.27655 0.26888 -0.13140
 C1248 C 0.27085 0.25154 -0.13042
 C1249 C 0.27370 0.24017 -0.14445
 C1250 C 0.28232 0.24601 -0.15968
 C1251 C 0.28799 0.26349 -0.16052
 C1252 C 0.28512 0.27483 -0.14648
 C1253 C 0.27359 0.28059 -0.11697
 C1254 C 0.27113 0.29044 -0.10492
 C1255 C 0.26821 0.30227 -0.09059
 C1256 C 0.26028 0.29631 -0.07517
 C1257 C 0.25744 0.30781 -0.06124
 C1258 C 0.26251 0.32544 -0.06256
 C1259 C 0.27047 0.33129 -0.07814
 C1260 C 0.27329 0.31977 -0.09205
 H1261 H 0.26424 0.24679 -0.11878
 H1262 H 0.26937 0.22677 -0.14328
 H1263 H 0.29442 0.26848 -0.17213
 H1264 H 0.28953 0.28825 -0.14740
 H1265 H 0.25635 0.28277 -0.07388
 H1266 H 0.25151 0.30286 -0.04935
 H1267 H 0.27432 0.34483 -0.07964
 H1268 H 0.27939 0.32452 -0.10395
 C1269 C 0.72289 0.23096 -0.13049
 C1270 C 0.73705 0.23972 -0.13812
 C1271 C 0.73433 0.25098 -0.15231
 C1272 C 0.71736 0.25361 -0.15909
 C1273 C 0.70321 0.24474 -0.15130
 C1274 C 0.70596 0.23351 -0.13710
 C1275 C 0.72573 0.21932 -0.11593
 C1276 C 0.72813 0.20954 -0.10376
 C1277 C 0.73102 0.19783 -0.08926
 C1278 C 0.74768 0.19068 -0.08639
 C1279 C 0.75050 0.17926 -0.07234
 C1280 C 0.73667 0.17482 -0.06098
 C1281 C 0.71997 0.18208 -0.06399
 C1282 C 0.71718 0.19350 -0.07804
 H1283 H 0.75022 0.23780 -0.13315
 H1284 H 0.74553 0.25741 -0.15814
 H1285 H 0.68997 0.24666 -0.15604
 H1286 H 0.69489 0.22683 -0.13125
 H1287 H 0.75847 0.19389 -0.09504
 H1288 H 0.76344 0.17371 -0.07053
 H1289 H 0.70911 0.17909 -0.05536
 H1290 H 0.70424 0.19898 -0.08013
 C1291 C 0.22433 0.73082 0.36832
 C1292 C 0.23845 0.73963 0.36067
 C1293 C 0.23568 0.75085 0.34646
 C1294 C 0.21870 0.75341 0.33969
 C1295 C 0.20458 0.74448 0.34748
 C1296 C 0.20739 0.73328 0.36171
 C1297 C 0.22720 0.71923 0.38290
 C1298 C 0.22957 0.70948 0.39511
 C1299 C 0.23233 0.69783 0.40967
 C1300 C 0.24886 0.69042 0.41255
 C1301 C 0.25152 0.67907 0.42668
 C1302 C 0.23765 0.67496 0.43812
 C1303 C 0.22108 0.68251 0.43511
 C1304 C 0.21845 0.69386 0.42098
 H1305 H 0.25163 0.73778 0.36565
 H1306 H 0.24685 0.75731 0.34061
 H1307 H 0.19134 0.74632 0.34275
 H1308 H 0.19635 0.72656 0.36756
 H1309 H 0.25968 0.69336 0.40384
 H1310 H 0.26437 0.67331 0.42851
 H1311 H 0.21021 0.67981 0.44382
 H1312 H 0.20561 0.69955 0.41889
 C1313 C 0.27662 0.73086 0.63197
 C1314 C 0.27125 0.74831 0.63072
 C1315 C 0.27407 0.75975 0.64469
 C1316 C 0.28232 0.75388 0.66012
 C1317 C 0.28768 0.73630 0.66122
 C1318 C 0.28484 0.72488 0.64724
 C1319 C 0.27370 0.71911 0.61758
 C1320 C 0.27124 0.70928 0.60551
 C1321 C 0.26830 0.69756 0.59110
 C1322 C 0.26057 0.70372 0.57565
 C1323 C 0.25769 0.69234 0.56164
 C1324 C 0.26254 0.67463 0.56290
 C1325 C 0.27034 0.66858 0.57849
 C1326 C 0.27318 0.67998 0.59249
 H1327 H 0.26493 0.75308 0.61894
 H1328 H 0.27001 0.77323 0.64332
 H1329 H 0.29384 0.73131 0.67298
 H1330 H 0.28900 0.71139 0.64836
 H1331 H 0.25680 0.71732 0.57441
 H1332 H 0.25190 0.69745 0.54973
 H1333 H 0.27403 0.65499 0.57994
 H1334 H 0.27915 0.67508 0.60441
 C1335 C 0.77341 0.22775 0.13483
 C1336 C 0.79031 0.23031 0.14146
 C1337 C 0.79298 0.24151 0.15565
 C1338 C 0.77876 0.25033 0.16340
 C1339 C 0.76182 0.24765 0.15663
 C1340 C 0.75918 0.23643 0.14244
 C1341 C 0.77069 0.21629 0.12017
 C1342 C 0.76844 0.20671 0.10787
 C1343 C 0.76580 0.19528 0.09317
 C1344 C 0.77110 0.17780 0.09413
 C1345 C 0.76866 0.16672 0.07980
 C1346 C 0.76087 0.17300 0.06431
 C1347 C 0.75554 0.19060 0.06349
 C1348 C 0.75800 0.20166 0.07784
 H1349 H 0.80143 0.22370 0.13562
 H1350 H 0.80620 0.24347 0.16037
 H1351 H 0.75057 0.25404 0.16242
 H1352 H 0.74603 0.23450 0.13743
 H1353 H 0.77710 0.17272 0.10596
 H1354 H 0.77268 0.15319 0.08092
 H1355 H 0.74971 0.19589 0.05168
 H1356 H 0.75390 0.21519 0.07695
 C1357 C 0.47370 0.38144 0.52016
 C1358 C 0.45676 0.38806 0.51772
 C1359 C 0.45397 0.40231 0.50658
 C1360 C 0.46810 0.41015 0.49770
 C1361 C 0.48508 0.40336 0.50023
 C1362 C 0.48784 0.38911 0.51139
 C1363 C 0.47656 0.36685 0.53173
 C1364 C 0.47895 0.35465 0.54147
 C1365 C 0.48177 0.34011 0.55312
 C1366 C 0.46802 0.32861 0.55689
 C1367 C 0.47073 0.31451 0.56825
 C1368 C 0.48724 0.31172 0.57598
 C1369 C 0.50098 0.32336 0.57210
 C1370 C 0.49824 0.33746 0.56075
 H1371 H 0.44571 0.38218 0.52441
 H1372 H 0.44072 0.40705 0.50474
 H1373 H 0.49626 0.40922 0.49379
 H1374 H 0.50101 0.38413 0.51323
 H1375 H 0.45523 0.33053 0.55102
 H1376 H 0.45996 0.30566 0.57080
 H1377 H 0.51377 0.32170 0.57803
 H1378 H 0.50895 0.34633 0.55797
 C1379 C -0.02667 0.88251 0.01939
 C1380 C -0.03989 0.89462 0.02294
 C1381 C -0.04273 0.90876 0.01167
 C1382 C -0.03232 0.91115 -0.00352
 C1383 C -0.01900 0.89867 -0.00683
 C1384 C -0.01625 0.88456 0.00450
 C1385 C -0.02377 0.86798 0.03103
 C1386 C -0.02132 0.85580 0.04076
 C1387 C -0.01838 0.84126 0.05238
 C1388 C -0.02339 0.84237 0.06997
 C1389 C -0.02052 0.82825 0.08127
 C1390 C -0.01258 0.81283 0.07511
 C1391 C -0.00758 0.81186 0.05739
 C1392 C -0.01047 0.82599 0.04611
 H1393 H -0.04803 0.89315 0.03449
 H1394 H -0.05303 0.91774 0.01520
 H1395 H -0.01064 0.89943 -0.01820
 H1396 H -0.00598 0.87521 0.00161
 H1397 H -0.02947 0.85415 0.07496
 H1398 H -0.02430 0.82949 0.09489
 H1399 H -0.00164 0.80010 0.05220
 H1400 H -0.00659 0.82498 0.03249
 C1401 C 0.02679 0.61804 0.01991
 C1402 C 0.04158 0.60746 0.02186
 C1403 C 0.04437 0.59335 0.01059
 C1404 C 0.03235 0.58946 -0.00300
 C1405 C 0.01745 0.60041 -0.00470
 C1406 C 0.01475 0.61449 0.00662
 C1407 C 0.02395 0.63255 0.03154
 C1408 C 0.02156 0.64473 0.04125
 C1409 C 0.01872 0.65930 0.05280
 C1410 C 0.03254 0.67065 0.05673
 C1411 C 0.02980 0.68484 0.06792
 C1412 C 0.01319 0.68787 0.07533
 C1413 C -0.00063 0.67640 0.07127
 C1414 C 0.00214 0.66221 0.06009
 H1415 H 0.05103 0.61013 0.03211
 H1416 H 0.05612 0.58576 0.01266
 H1417 H 0.00759 0.59823 -0.01458
 H1418 H 0.00321 0.62261 0.00501
 H1419 H 0.04541 0.66855 0.05111
 H1420 H 0.04063 0.69357 0.07057
 H1421 H -0.01351 0.67826 0.07693
 H1422 H -0.00864 0.65349 0.05716
 C1423 C 0.52684 0.11799 0.52017
 C1424 C 0.54381 0.11162 0.51739
 C1425 C 0.54659 0.09754 0.50607
 C1426 C 0.53240 0.08966 0.49735
 C1427 C 0.51539 0.09620 0.50023
 C1428 C 0.51264 0.11026 0.51157
 C1429 C 0.52399 0.13244 0.53187
 C1430 C 0.52161 0.14454 0.54168
 C1431 C 0.51876 0.15897 0.55340
 C1432 C 0.53244 0.17055 0.55712
 C1433 C 0.52969 0.18459 0.56849
 C1434 C 0.51318 0.18724 0.57628
 C1435 C 0.49951 0.17552 0.57245
 C1436 C 0.50230 0.16148 0.56109
 H1437 H 0.55490 0.11755 0.52394
 H1438 H 0.55985 0.09300 0.50396
 H1439 H 0.50418 0.09029 0.49392
 H1440 H 0.49944 0.11506 0.51367
 H1441 H 0.54522 0.16875 0.55119
 H1442 H 0.54040 0.19351 0.57099
 H1443 H 0.48672 0.17709 0.57840
 H1444 H 0.49164 0.15257 0.55834
 C1445 C -0.02695 0.11844 0.47905
 C1446 C -0.03507 0.10326 0.47291
 C1447 C -0.03778 0.08911 0.48421
 C1448 C -0.03238 0.08997 0.50182
 C1449 C -0.02425 0.10532 0.50786
 C1450 C -0.02157 0.11945 0.49654
 C1451 C -0.02404 0.13296 0.46741
 C1452 C -0.02153 0.14515 0.45771
 C1453 C -0.01848 0.15974 0.44619
 C1454 C -0.02220 0.15832 0.42829
 C1455 C -0.01930 0.17251 0.41711
 C1456 C -0.01260 0.18832 0.42368
 C1457 C -0.00882 0.18958 0.44168
 C1458 C -0.01178 0.17539 0.45285
 H1459 H -0.03925 0.10232 0.45938
 H1460 H -0.04386 0.07742 0.47909
 H1461 H -0.02018 0.10650 0.52138
 H1462 H -0.01533 0.13116 0.50145
 H1463 H -0.02732 0.14624 0.42298
 H1464 H -0.02209 0.17106 0.40328
 H1465 H -0.00384 0.20163 0.44716
 H1466 H -0.00889 0.17663 0.46669
 C1467 C 0.47493 0.61672 0.97921
 C1468 C 0.46206 0.60439 0.97531
 C1469 C 0.45934 0.59009 0.98639
 C1470 C 0.46951 0.58777 1.00176
 C1471 C 0.48251 0.60045 1.00541
 C1472 C 0.48514 0.61471 0.99426
 C1473 C 0.47767 0.63142 0.96776
 C1474 C 0.47994 0.64371 0.95813
 C1475 C 0.48264 0.65833 0.94658
 C1476 C 0.47715 0.65741 0.92911
 C1477 C 0.47978 0.67159 0.91785
 C1478 C 0.48796 0.68690 0.92392
 C1479 C 0.49343 0.68769 0.94151
 C1480 C 0.49077 0.67350 0.95275
 H1481 H 0.45410 0.60580 0.96362
 H1482 H 0.44935 0.58091 0.98257
 H1483 H 0.49066 0.59973 1.01693
 H1484 H 0.49515 0.62423 0.99743
 H1485 H 0.47088 0.64572 0.92419
 H1486 H 0.47564 0.67048 0.90433
 H1487 H 0.49956 0.69936 0.94664
 H1488 H 0.49502 0.67436 0.96627
 C1489 C 0.52711 0.88064 0.98057
 C1490 C 0.51297 0.88827 0.98939
 C1491 C 0.51576 0.90227 1.00079
 C1492 C 0.53276 0.90885 1.00350
 C1493 C 0.54689 0.90108 0.99455
 C1494 C 0.54407 0.88707 0.98318
 C1495 C 0.52424 0.86623 0.96885
 C1496 C 0.52185 0.85416 0.95903
 C1497 C 0.51899 0.83975 0.94730
 C1498 C 0.50245 0.83713 0.93988
 C1499 C 0.49964 0.82312 0.92849
 C1500 C 0.51339 0.81155 0.92437
 C1501 C 0.52999 0.81432 0.93190
 C1502 C 0.53276 0.82833 0.94330
 H1503 H 0.49977 0.88343 0.98742
 H1504 H 0.50458 0.90810 1.00727
 H1505 H 0.56015 0.90566 0.99651
 H1506 H 0.55512 0.88123 0.97645
 H1507 H 0.49172 0.84593 0.94285
 H1508 H 0.48678 0.82148 0.92273
 H1509 H 0.54077 0.80551 0.92918
 H1510 H 0.54561 0.83022 0.94901
 C1511 C 0.02622 0.38334 0.47941
 C1512 C 0.03424 0.39859 0.47325
 C1513 C 0.03689 0.41272 0.48452
 C1514 C 0.03151 0.41179 0.50214
 C1515 C 0.02345 0.39639 0.50819
 C1516 C 0.02083 0.38227 0.49690
 C1517 C 0.02345 0.36881 0.46779
 C1518 C 0.02109 0.35664 0.45807
 C1519 C 0.01821 0.34212 0.44646
 C1520 C 0.02066 0.34415 0.42840
 C1521 C 0.01782 0.33007 0.41711
 C1522 C 0.01241 0.31379 0.42376
 C1523 C 0.00995 0.31188 0.44193
 C1524 C 0.01287 0.32596 0.45320
 H1525 H 0.03841 0.39957 0.45971
 H1526 H 0.04291 0.42445 0.47938
 H1527 H 0.01938 0.39515 0.52172
 H1528 H 0.01465 0.37051 0.50183
 H1529 H 0.02472 0.35662 0.42304
 H1530 H 0.01962 0.33196 0.40317
 H1531 H 0.00600 0.29944 0.44742
 H1532 H 0.01100 0.32423 0.46717
 C1533 C 0.38190 0.51983 0.47556
 C1534 C 0.38098 0.50237 0.48093
 C1535 C 0.39517 0.49114 0.47812
 C1536 C 0.41049 0.49724 0.46987
 C1537 C 0.41128 0.51485 0.46455
 C1538 C 0.39708 0.52605 0.46738
 C1539 C 0.36726 0.53136 0.47838
 C1540 C 0.35503 0.54107 0.48069
 C1541 C 0.34048 0.55274 0.48336
 C1542 C 0.32496 0.54660 0.49095
 C1543 C 0.31082 0.55795 0.49352
 C1544 C 0.31203 0.57562 0.48851
 C1545 C 0.32769 0.58165 0.48088
 C1546 C 0.34181 0.57028 0.47834
 H1547 H 0.36927 0.49741 0.48724
 H1548 H 0.39404 0.47764 0.48216
 H1549 H 0.42295 0.52003 0.45840
 H1550 H 0.39794 0.53957 0.46322
 H1551 H 0.32377 0.53302 0.49483
 H1552 H 0.29887 0.55286 0.49920
 H1553 H 0.32911 0.59522 0.47709
 H1554 H 0.35378 0.57518 0.47249
 C1555 C 0.88250 0.02035 -0.02613
 C1556 C 0.89291 0.02218 -0.04105
 C1557 C 0.90697 0.01081 -0.04396
 C1558 C 0.91096 -0.00276 -0.03195
 C1559 C 0.90019 -0.00433 -0.01691
 C1560 C 0.88617 0.00709 -0.01408
 C1561 C 0.86801 0.03205 -0.02320
 C1562 C 0.85586 0.04184 -0.02076
 C1563 C 0.84134 0.05350 -0.01785
 C1564 C 0.83011 0.05785 -0.03169
 C1565 C 0.81594 0.06911 -0.02888
 C1566 C 0.81281 0.07617 -0.01215
 C1567 C 0.82421 0.07173 0.00167
 C1568 C 0.83837 0.06047 -0.00118
 H1569 H 0.89015 0.03240 -0.05050
 H1570 H 0.91441 0.01277 -0.05581
 H1571 H 0.90247 -0.01419 -0.00704
 H1572 H 0.87818 0.00559 -0.00244
 H1573 H 0.83227 0.05249 -0.04464
 H1574 H 0.80729 0.07208 -0.03973
 H1575 H 0.82230 0.07713 0.01463
 H1576 H 0.84702 0.05723 0.00961
 C1577 C 0.61888 0.01786 0.02665
 C1578 C 0.60377 0.02387 0.03510
 C1579 C 0.58971 0.01254 0.03803
 C1580 C 0.59058 -0.00498 0.03254
 C1581 C 0.60586 -0.01089 0.02405
 C1582 C 0.61990 0.00046 0.02114
 C1583 C 0.63333 0.02956 0.02365
 C1584 C 0.64538 0.03942 0.02119
 C1585 C 0.65972 0.05127 0.01830
 C1586 C 0.65832 0.06872 0.02359
 C1587 C 0.67225 0.08025 0.02086
 C1588 C 0.68779 0.07447 0.01279
 C1589 C 0.68905 0.05691 0.00748
 C1590 C 0.67511 0.04540 0.01024
 H1591 H 0.60282 0.03733 0.03938
 H1592 H 0.57807 0.01758 0.04437
 H1593 H 0.60706 -0.02434 0.01988
 H1594 H 0.63157 -0.00434 0.01462
 H1595 H 0.64644 0.07341 0.02980
 H1596 H 0.67078 0.09373 0.02489
 H1597 H 0.70092 0.05201 0.00144
 H1598 H 0.67635 0.03191 0.00614
 C1599 C 0.11699 0.52077 0.52609
 C1600 C 0.10642 0.52261 0.54090
 C1601 C 0.09229 0.51134 0.54365
 C1602 C 0.08835 0.49785 0.53158
 C1603 C 0.09930 0.49626 0.51667
 C1604 C 0.11341 0.50759 0.51401
 C1605 C 0.13152 0.53242 0.52330
 C1606 C 0.14369 0.54218 0.52098
 C1607 C 0.15823 0.55382 0.51824
 C1608 C 0.16952 0.55780 0.53211
 C1609 C 0.18368 0.56907 0.52947
 C1610 C 0.18674 0.57652 0.51287
 C1611 C 0.17531 0.57242 0.49901
 C1612 C 0.16115 0.56115 0.50169
 H1613 H 0.10913 0.53277 0.55038
 H1614 H 0.08472 0.51332 0.55541
 H1615 H 0.09711 0.48645 0.50679
 H1616 H 0.12152 0.50606 0.50245
 H1617 H 0.16742 0.55213 0.54496
 H1618 H 0.19239 0.57176 0.54033
 H1619 H 0.17719 0.57810 0.48614
 H1620 H 0.15247 0.55819 0.49087
 C1621 C 0.11787 0.48076 -0.02609
 C1622 C 0.10576 0.47732 -0.03933
 C1623 C 0.09162 0.48862 -0.04216
 C1624 C 0.08924 0.50373 -0.03173
 C1625 C 0.10172 0.50693 -0.01837
 C1626 C 0.11583 0.49556 -0.01563
 C1627 C 0.13241 0.46908 -0.02325
 C1628 C 0.14458 0.45929 -0.02090
 C1629 C 0.15911 0.44758 -0.01814
 C1630 C 0.15780 0.43004 -0.02314
 C1631 C 0.17192 0.41866 -0.02050
 C1632 C 0.18754 0.42468 -0.01279
 C1633 C 0.18870 0.44234 -0.00780
 C1634 C 0.17458 0.45370 -0.01047
 H1635 H 0.10721 0.46584 -0.04750
 H1636 H 0.08262 0.48516 -0.05247
 H1637 H 0.10096 0.51823 -0.00999
 H1638 H 0.12519 0.49837 -0.00534
 H1639 H 0.14587 0.42516 -0.02905
 H1640 H 0.17053 0.40510 -0.02428
 H1641 H 0.20062 0.44742 -0.00206
 H1642 H 0.17575 0.46726 -0.00660
 C1643 C 0.61836 0.98076 0.47347
 C1644 C 0.60754 0.97863 0.45889
 C1645 C 0.59335 0.98988 0.45614
 C1646 C 0.58960 1.00362 0.46799
 C1647 C 0.60079 1.00550 0.48268
 C1648 C 0.61496 0.99419 0.48534
 C1649 C 0.63294 0.96912 0.47627
 C1650 C 0.64514 0.95936 0.47860
 C1651 C 0.65968 0.94767 0.48136
 C1652 C 0.66243 0.94012 0.49784
 C1653 C 0.67651 0.92871 0.50052
 C1654 C 0.68803 0.92468 0.48670
 C1655 C 0.68516 0.93235 0.47018
 C1656 C 0.67108 0.94377 0.46754
 H1657 H 0.61009 0.96826 0.44958
 H1658 H 0.58556 0.98764 0.44457
 H1659 H 0.59877 1.01552 0.49238
 H1660 H 0.62327 0.99594 0.49672
 H1661 H 0.65365 0.94302 0.50862
 H1662 H 0.67824 0.92285 0.51333
 H1663 H 0.69393 0.92970 0.45935
 H1664 H 0.66911 0.94959 0.45474
 C1665 C 0.88244 0.98013 0.52535
 C1666 C 0.88890 0.98277 0.54229
 C1667 C 0.90294 0.99414 0.54507
 C1668 C 0.91071 1.00306 0.53092
 C1669 C 0.90410 1.00031 0.51393
 C1670 C 0.89007 0.98891 0.51118
 C1671 C 0.86797 0.96844 0.52252
 C1672 C 0.85584 0.95865 0.52016
 C1673 C 0.84136 0.94697 0.51735
 C1674 C 0.82993 0.94300 0.53112
 C1675 C 0.81583 0.93168 0.52838
 C1676 C 0.81298 0.92419 0.51180
 C1677 C 0.82455 0.92828 0.49804
 C1678 C 0.83865 0.93959 0.50081
 H1679 H 0.88305 0.97608 0.55335
 H1680 H 0.90754 0.99615 0.55832
 H1681 H 0.90992 1.00677 0.50274
 H1682 H 0.88519 0.98692 0.49800
 H1683 H 0.83188 0.94869 0.54396
 H1684 H 0.80702 0.92898 0.53917
 H1685 H 0.82284 0.92255 0.48520
 H1686 H 0.84746 0.94254 0.49008
 C1687 C 0.38342 0.47909 0.02405
 C1688 C 0.39113 0.48785 0.00992
 C1689 C 0.40538 0.49897 0.01269
 C1690 C 0.41214 0.50146 0.02967
 C1691 C 0.40431 0.49254 0.04378
 C1692 C 0.39005 0.48145 0.04097
 C1693 C 0.36872 0.46769 0.02122
 C1694 C 0.35640 0.45812 0.01892
 C1695 C 0.34170 0.44667 0.01628
 C1696 C 0.33045 0.44281 0.03023
 C1697 C 0.31621 0.43161 0.02774
 C1698 C 0.31304 0.42412 0.01122
 C1699 C 0.32442 0.42810 -0.00274
 C1700 C 0.33865 0.43931 -0.00020
 H1701 H 0.38613 0.48607 -0.00324
 H1702 H 0.41125 0.50543 0.00153
 H1703 H 0.40901 0.49434 0.05702
 H1704 H 0.38415 0.47475 0.05202
 H1705 H 0.33266 0.44849 0.04303
 H1706 H 0.30756 0.42899 0.03867
 H1707 H 0.32247 0.42236 -0.01554
 H1708 H 0.34732 0.44217 -0.01108
 C1709 C 0.51926 0.47475 0.38282
 C1710 C 0.51060 0.48878 0.39076
 C1711 C 0.49951 0.48588 0.40505
 C1712 C 0.49694 0.46886 0.41161
 C1713 C 0.50575 0.45485 0.40354
 C1714 C 0.51682 0.45779 0.38924
 C1715 C 0.53069 0.47775 0.36813
 C1716 C 0.54031 0.48021 0.35585
 C1717 C 0.55188 0.48305 0.34124
 C1718 C 0.55789 0.49989 0.33740
 C1719 C 0.56933 0.50262 0.32335
 C1720 C 0.57491 0.48850 0.31293
 C1721 C 0.56869 0.47163 0.31686
 C1722 C 0.55727 0.46894 0.33092
 H1723 H 0.51244 0.50198 0.38594
 H1724 H 0.49314 0.49696 0.41110
 H1725 H 0.50389 0.44159 0.40810
 H1726 H 0.52343 0.44683 0.38316
 H1727 H 0.55381 0.51091 0.34532
 H1728 H 0.57402 0.51572 0.32082
 H1729 H 0.57249 0.46053 0.30894
 H1730 H 0.55264 0.45586 0.33375
 C1731 C 0.01955 -0.02629 0.88160
 C1732 C 0.01689 -0.04319 0.88809
 C1733 C 0.00558 -0.04596 0.90223
 C1734 C -0.00326 -0.03184 0.91008
 C1735 C -0.00051 -0.01490 0.90343
 C1736 C 0.01082 -0.01215 0.88930
 C1737 C 0.03123 -0.02344 0.86708
 C1738 C 0.04103 -0.02104 0.85492
 C1739 C 0.05272 -0.01817 0.84040
 C1740 C 0.05678 -0.03189 0.82901
 C1741 C 0.06812 -0.02910 0.81489
 C1742 C 0.07555 -0.01253 0.81199
 C1743 C 0.07139 0.00118 0.82354
 C1744 C 0.06005 -0.00164 0.83765
 H1745 H 0.02354 -0.05423 0.88219
 H1746 H 0.00358 -0.05918 0.90685
 H1747 H -0.00691 -0.00373 0.90930
 H1748 H 0.01282 0.00100 0.88441
 H1749 H 0.05114 -0.04473 0.83100
 H1750 H 0.07088 -0.03986 0.80611
 H1751 H 0.07708 0.01402 0.82180
 H1752 H 0.05704 0.00906 0.84643
 C1753 C 0.01986 0.02738 0.61721
 C1754 C 0.00244 0.02177 0.61818
 C1755 C -0.00889 0.02441 0.60402
 C1756 C -0.00293 0.03273 0.58867
 C1757 C 0.01462 0.03833 0.58785
 C1758 C 0.02592 0.03567 0.60202
 C1759 C 0.03151 0.02460 0.63177
 C1760 C 0.04127 0.02224 0.64397
 C1761 C 0.05289 0.01937 0.65854
 C1762 C 0.04661 0.01160 0.67391
 C1763 C 0.05789 0.00875 0.68807
 C1764 C 0.07563 0.01367 0.68703
 C1765 C 0.08181 0.02149 0.67152
 C1766 C 0.07051 0.02430 0.65737
 H1767 H -0.00240 0.01539 0.62990
 H1768 H -0.02235 0.02016 0.60518
 H1769 H 0.01969 0.04454 0.57616
 H1770 H 0.03940 0.04002 0.60112
 H1771 H 0.03298 0.00776 0.67496
 H1772 H 0.05268 0.00291 0.69990
 H1773 H 0.09544 0.02521 0.67024
 H1774 H 0.07552 0.03027 0.64551
 C1775 C 0.52093 0.52505 0.11677
 C1776 C 0.52713 0.53341 0.10168
 C1777 C 0.51599 0.53606 0.08737
 C1778 C 0.49847 0.53036 0.08795
 C1779 C 0.49238 0.52194 0.10319
 C1780 C 0.50354 0.51931 0.11749
 C1781 C 0.53241 0.52240 0.13150
 C1782 C 0.54205 0.52021 0.14384
 C1783 C 0.55356 0.51761 0.15855
 C1784 C 0.55838 0.53179 0.16905
 C1785 C 0.56954 0.52927 0.18337
 C1786 C 0.57599 0.51250 0.18741
 C1787 C 0.57107 0.49833 0.17677
 C1788 C 0.55995 0.50089 0.16243
 H1789 H 0.54059 0.53786 0.10096
 H1790 H 0.52117 0.54236 0.07578
 H1791 H 0.47892 0.51761 0.10417
 H1792 H 0.49858 0.51287 0.12912
 H1793 H 0.55349 0.54479 0.16619
 H1794 H 0.57293 0.54040 0.19142
 H1795 H 0.57601 0.48531 0.17940
 H1796 H 0.55637 0.48983 0.15434
 C1797 C 0.48092 -0.02793 0.11862
 C1798 C 0.48990 -0.01392 0.11101
 C1799 C 0.50130 -0.01679 0.09696
 C1800 C 0.50385 -0.03375 0.09031
 C1801 C 0.49475 -0.04775 0.09808
 C1802 C 0.48338 -0.04485 0.11215
 C1803 C 0.46919 -0.02493 0.13308
 C1804 C 0.45936 -0.02239 0.14518
 C1805 C 0.44764 -0.01933 0.15963
 C1806 C 0.44028 -0.00277 0.16213
 C1807 C 0.42889 0.00021 0.17617
 C1808 C 0.42470 -0.01337 0.18789
 C1809 C 0.43220 -0.02998 0.18526
 C1810 C 0.44359 -0.03292 0.17122
 H1811 H 0.48807 -0.00076 0.11589
 H1812 H 0.50790 -0.00571 0.09114
 H1813 H 0.49660 -0.06098 0.09346
 H1814 H 0.47654 -0.05580 0.11799
 H1815 H 0.44330 0.00784 0.15321
 H1816 H 0.42318 0.01308 0.17772
 H1817 H 0.42944 -0.04064 0.19419
 H1818 H 0.44927 -0.04578 0.16944
 C1819 C 0.98008 0.47357 0.61818
 C1820 C 0.98874 0.48781 0.61059
 C1821 C 0.99994 0.48526 0.59632
 C1822 C 1.00261 0.46842 0.58942
 C1823 C 0.99383 0.45420 0.59716
 C1824 C 0.98265 0.45678 0.61144
 C1825 C 0.96851 0.47622 0.63283
 C1826 C 0.95880 0.47846 0.64508
 C1827 C 0.94718 0.48120 0.65967
 C1828 C 0.93968 0.49766 0.66243
 C1829 C 0.92837 0.50036 0.67658
 C1830 C 0.92439 0.48659 0.68816
 C1831 C 0.93201 0.47008 0.68527
 C1832 C 0.94333 0.46742 0.67111
 H1833 H 0.98679 0.50088 0.61567
 H1834 H 1.00629 0.49651 0.59054
 H1835 H 0.99578 0.44106 0.59234
 H1836 H 0.97605 0.44566 0.61725
 H1837 H 0.94254 0.50841 0.65363
 H1838 H 0.92255 0.51315 0.67832
 H1839 H 0.92940 0.45929 0.69408
 H1840 H 0.94910 0.45464 0.66911
 C1841 C 0.97997 0.52679 0.88252
 C1842 C 0.98880 0.51271 0.89024
 C1843 C 1.00018 0.51552 0.90431
 C1844 C 1.00287 0.53248 0.91088
 C1845 C 0.99390 0.54655 0.90303
 C1846 C 0.98254 0.54371 0.88895
 C1847 C 0.96829 0.52389 0.86802
 C1848 C 0.95851 0.52143 0.85586
 C1849 C 0.94683 0.51846 0.84137
 C1850 C 0.93939 0.50194 0.83886
 C1851 C 0.92805 0.49903 0.82478
 C1852 C 0.92398 0.51263 0.81302
 C1853 C 0.93152 0.52919 0.81566
 C1854 C 0.94288 0.53206 0.82974
 H1855 H 0.98686 0.49955 0.88540
 H1856 H 1.00668 0.50439 0.91019
 H1857 H 0.99584 0.55977 0.90760
 H1858 H 0.97580 0.55471 0.88303
 H1859 H 0.94233 0.49133 0.84781
 H1860 H 0.92228 0.48621 0.82323
 H1861 H 0.92884 0.53985 0.80671
 H1862 H 0.94860 0.54488 0.83153
 C1863 C 0.47991 0.02629 0.38272
 C1864 C 0.48242 0.04319 0.38920
 C1865 C 0.49375 0.04602 0.40331
 C1866 C 0.50275 0.03195 0.41112
 C1867 C 0.50010 0.01500 0.40452
 C1868 C 0.48875 0.01220 0.39042
 C1869 C 0.46832 0.02340 0.36815
 C1870 C 0.45862 0.02100 0.35592
 C1871 C 0.44705 0.01816 0.34131
 C1872 C 0.44321 0.03187 0.32978
 C1873 C 0.43195 0.02914 0.31560
 C1874 C 0.42439 0.01262 0.31276
 C1875 C 0.42837 -0.00109 0.32442
 C1876 C 0.43962 0.00168 0.33860
 H1877 H 0.47567 0.05420 0.38330
 H1878 H 0.49567 0.05924 0.40791
 H1879 H 0.50662 0.00387 0.41039
 H1880 H 0.48685 -0.00095 0.38555
 H1881 H 0.44893 0.04467 0.33173
 H1882 H 0.42934 0.03989 0.30673
 H1883 H 0.42259 -0.01389 0.32272
 H1884 H 0.44248 -0.00902 0.34748
   
