data_POSCAR
  _audit_creation_date              2014-09-24
  _audit_creation_method            'ToBaCCo'
  _symmetry_space_group_name_H-M    'P1'
  _symmetry_Int_Tables_number       1
  _symmetry_cell_setting            triclinic
  loop_
  _symmetry_equiv_pos_as_xyz
 x,y,z
_cell_length_a 61.1160
_cell_length_b 61.1835
_cell_length_c 61.0793
_cell_angle_alpha 90.001800
_cell_angle_beta 89.991600
_cell_angle_gamma 89.988100
loop_
  _atom_site_label
  _atom_site_type_symbol
  _atom_site_fract_x
  _atom_site_fract_y
  _atom_site_fract_z
C1 C 0.34003 1.36813 0.34017
 C2 C 0.35015 1.37787 0.32199
 C3 C 0.36807 1.36778 0.31137
 C4 C 0.37598 1.34783 0.31998
 C5 C 0.36618 1.33808 0.33829
 C6 C 0.34799 1.34813 0.34828
 C7 C 0.32166 1.37787 0.34994
 C8 C 0.31071 1.36780 0.36767
 C9 C 0.31919 1.34787 0.37576
 C10 C 0.33765 1.33809 0.36626
 C11 C 0.34586 1.31831 0.37447
 C12 C 0.36416 1.30827 0.36478
 C13 C 0.37421 1.31828 0.34667
 H14 H 0.34311 1.39276 0.31550
 H15 H 0.39027 1.34006 0.31295
 H16 H 0.31530 1.39275 0.34276
 H17 H 0.31194 1.34011 0.38994
 H18 H 0.33810 1.31078 0.38853
 H19 H 0.38807 1.31044 0.33885
 C20 C 0.33663 0.86476 0.83760
 C21 C 0.34673 0.87494 0.81966
 C22 C 0.36565 0.86592 0.81011
 C23 C 0.37464 0.84669 0.81896
 C24 C 0.36473 0.83632 0.83687
 C25 C 0.34558 0.84531 0.84613
 C26 C 0.31746 0.87350 0.84681
 C27 C 0.30665 0.86286 0.86429
 C28 C 0.31603 0.84347 0.87269
 C29 C 0.33525 0.83472 0.86378
 C30 C 0.34416 0.81536 0.87219
 C31 C 0.36316 0.80619 0.86303
 C32 C 0.37342 0.81685 0.84540
 H33 H 0.33987 0.88990 0.81308
 H34 H 0.38904 0.83947 0.81154
 H35 H 0.31047 0.88799 0.83941
 H36 H 0.30887 0.83535 0.88671
 H37 H 0.33630 0.80740 0.88596
 H38 H 0.38790 0.80974 0.83802
 C39 C 0.83901 1.36640 0.83857
 C40 C 0.84843 1.37544 0.81967
 C41 C 0.86782 1.36669 0.81056
 C42 C 0.87752 1.34849 0.82104
 C43 C 0.86809 1.33913 0.83976
 C44 C 0.84879 1.34811 0.84860
 C45 C 0.81990 1.37539 0.84759
 C46 C 0.81033 1.36626 0.86643
 C47 C 0.82009 1.34788 0.87621
 C48 C 0.83921 1.33872 0.86740
 C49 C 0.84885 1.32027 0.87705
 C50 C 0.86795 1.31101 0.86814
 C51 C 0.87752 1.32065 0.84956
 H52 H 0.84095 1.38988 0.81267
 H53 H 0.89189 1.34076 0.81414
 H54 H 0.81227 1.38933 0.83974
 H55 H 0.81293 1.34083 0.89083
 H56 H 0.84153 1.31314 0.89155
 H57 H 0.89208 1.31346 0.84243
 C58 C 0.83932 0.86764 0.33993
 C59 C 0.84905 0.87725 0.32150
 C60 C 0.86706 0.86732 0.31087
 C61 C 0.87530 0.84755 0.31960
 C62 C 0.86589 0.83792 0.33820
 C63 C 0.84777 0.84794 0.34834
 C64 C 0.82092 0.87723 0.34977
 C65 C 0.81083 0.86740 0.36798
 C66 C 0.81963 0.84795 0.37652
 C67 C 0.83795 0.83814 0.36680
 C68 C 0.84644 0.81854 0.37510
 C69 C 0.86455 0.80844 0.36513
 C70 C 0.87424 0.81830 0.34672
 H71 H 0.84169 0.89192 0.31487
 H72 H 0.88959 0.83986 0.31248
 H73 H 0.81409 0.89208 0.34290
 H74 H 0.81219 0.84043 0.39076
 H75 H 0.83900 0.81117 0.38942
 H76 H 0.88800 0.81043 0.33875
 C77 C 0.66254 0.63510 0.33773
 C78 C 0.65309 0.62562 0.31907
 C79 C 0.63333 0.63374 0.31017
 C80 C 0.62326 0.65174 0.32065
 C81 C 0.63270 0.66155 0.33913
 C82 C 0.65236 0.65318 0.34776
 C83 C 0.68212 0.62683 0.34644
 C84 C 0.69178 0.63652 0.36494
 C85 C 0.68154 0.65460 0.37480
 C86 C 0.66194 0.66301 0.36632
 C87 C 0.65193 0.68125 0.37598
 C88 C 0.63249 0.68992 0.36726
 C89 C 0.62291 0.67987 0.34891
 H90 H 0.66089 0.61134 0.31208
 H91 H 0.60860 0.65903 0.31389
 H92 H 0.69010 0.61310 0.33855
 H93 H 0.68875 0.66205 0.38919
 H94 H 0.65956 0.68904 0.38997
 H95 H 0.60777 0.68630 0.34227
 C96 C 0.66214 0.13331 0.83895
 C97 C 0.65342 0.12498 0.81939
 C98 C 0.63534 0.13507 0.80935
 C99 C 0.62587 0.15356 0.81921
 C100 C 0.63437 0.16205 0.83875
 C101 C 0.65252 0.15183 0.84871
 C102 C 0.68052 0.12357 0.84867
 C103 C 0.68952 0.13190 0.86832
 C104 C 0.67938 0.15026 0.87803
 C105 C 0.66124 0.16034 0.86827
 C106 C 0.65206 0.17922 0.87751
 C107 C 0.63428 0.18977 0.86744
 C108 C 0.62531 0.18089 0.84821
 H109 H 0.66103 0.11094 0.81169
 H110 H 0.61182 0.16134 0.81168
 H111 H 0.68730 0.10904 0.84115
 H112 H 0.68625 0.15769 0.89258
 H113 H 0.65885 0.18583 0.89251
 H114 H 0.61174 0.18905 0.84023
 C115 C 1.16303 0.63454 0.83847
 C116 C 1.15407 0.62552 0.81931
 C117 C 1.13543 0.63486 0.80956
 C118 C 1.12542 0.65300 0.81952
 C119 C 1.13415 0.66217 0.83862
 C120 C 1.15316 0.65306 0.84802
 C121 C 1.18208 0.62571 0.84782
 C122 C 1.19187 0.63540 0.86642
 C123 C 1.18159 0.65387 0.87580
 C124 C 1.16242 0.66265 0.86680
 C125 C 1.15251 0.68108 0.87623
 C126 C 1.13352 0.69021 0.86700
 C127 C 1.12441 0.68059 0.84820
 H128 H 1.16197 0.61165 0.81161
 H129 H 1.11084 0.66007 0.81229
 H130 H 1.18982 0.61200 0.83972
 H131 H 1.18800 0.66119 0.89061
 H132 H 1.15955 0.68832 0.89082
 H133 H 1.11002 0.68777 0.84072
 C134 C 1.16172 0.13372 0.33842
 C135 C 1.15209 0.12384 0.32005
 C136 C 1.13251 0.13208 0.31086
 C137 C 1.12267 0.15046 0.32087
 C138 C 1.13229 0.16065 0.33904
 C139 C 1.15193 0.15232 0.34778
 C140 C 1.18118 0.12537 0.34737
 C141 C 1.19148 0.13567 0.36536
 C142 C 1.18143 0.15443 0.37437
 C143 C 1.16186 0.16271 0.36579
 C144 C 1.15212 0.18134 0.37495
 C145 C 1.13265 0.18991 0.36622
 C146 C 1.12278 0.17938 0.34830
 H147 H 1.15963 0.10924 0.31345
 H148 H 1.10810 0.15776 0.31393
 H149 H 1.18877 0.11146 0.33947
 H150 H 1.18829 0.16231 0.38869
 H151 H 1.15968 0.18915 0.38897
 H152 H 1.10793 0.18605 0.34126
 C153 C 0.66200 1.36617 0.66064
 C154 C 0.65269 1.37516 0.67961
 C155 C 0.63382 1.36593 0.68898
 C156 C 0.62431 1.34743 0.67918
 C157 C 0.63341 1.33828 0.66019
 C158 C 0.65224 1.34778 0.65078
 C159 C 0.68093 1.37531 0.65143
 C160 C 0.69033 1.36659 0.63216
 C161 C 0.68010 1.34831 0.62235
 C162 C 0.66135 1.33882 0.63160
 C163 C 0.65181 1.32023 0.62211
 C164 C 0.63322 1.31047 0.63154
 C165 C 0.62403 1.31973 0.65050
 H166 H 0.66033 1.38919 0.68729
 H167 H 0.60967 1.34030 0.68621
 H168 H 0.68773 1.38982 0.65896
 H169 H 0.68721 1.34063 0.60806
 H170 H 0.65914 1.31305 0.60764
 H171 H 0.60950 1.31253 0.65769
 C172 C 0.66047 0.86610 1.16220
 C173 C 0.65039 0.87480 1.18091
 C174 C 0.63217 0.86439 1.19065
 C175 C 0.62395 0.84524 1.18062
 C176 C 0.63371 0.83656 1.16174
 C177 C 0.65211 0.84694 1.15255
 C178 C 0.67921 0.87597 1.15337
 C179 C 0.68979 0.86690 1.13504
 C180 C 0.68107 0.84803 1.12523
 C181 C 0.66235 0.83796 1.13389
 C182 C 0.65400 0.81878 1.12449
 C183 C 0.63560 0.80834 1.13355
 C184 C 0.62550 0.81742 1.15213
 H185 H 0.65771 0.88903 1.18850
 H186 H 0.60948 0.83727 1.18700
 H187 H 0.68568 0.89069 1.16084
 H188 H 0.68926 0.84078 1.11125
 H189 H 0.66181 0.81197 1.11009
 H190 H 0.61157 0.80924 1.15945
 C191 C 1.16155 1.36645 1.16094
 C192 C 1.15177 1.37609 1.17936
 C193 C 1.13271 1.36710 1.18863
 C194 C 1.12325 1.34847 1.17903
 C195 C 1.13282 1.33866 1.16063
 C196 C 1.15211 1.34761 1.15163
 C197 C 1.18088 1.37510 1.15204
 C198 C 1.19137 1.36497 1.13406
 C199 C 1.18150 1.34620 1.12486
 C200 C 1.16206 1.33758 1.13342
 C201 C 1.15253 1.31892 1.12411
 C202 C 1.13327 1.30995 1.13290
 C203 C 1.12352 1.31992 1.15120
 H204 H 1.15929 1.39029 1.18684
 H205 H 1.10839 1.34163 1.18588
 H206 H 1.18825 1.38909 1.16001
 H207 H 1.18843 1.33853 1.11046
 H208 H 1.16036 1.31107 1.11025
 H209 H 1.10860 1.31317 1.15801
 C210 C 1.16068 0.86696 0.66207
 C211 C 1.15044 0.87604 0.68049
 C212 C 1.13149 0.86648 0.68934
 C213 C 1.12279 0.84761 0.67951
 C214 C 1.13280 0.83839 0.66100
 C215 C 1.15176 0.84818 0.65217
 C216 C 1.17984 0.87629 0.65359
 C217 C 1.19038 0.86733 0.63504
 C218 C 1.18090 0.84877 0.62502
 C219 C 1.16194 0.83906 0.63360
 C220 C 1.15330 0.82001 0.62418
 C221 C 1.13466 0.80989 0.63312
 C222 C 1.12437 0.81934 0.65141
 H223 H 1.15750 0.89033 0.68825
 H224 H 1.10813 0.84019 0.68618
 H225 H 1.18602 0.89105 0.66118
 H226 H 1.18886 0.84098 0.61124
 H227 H 1.16114 0.81300 0.60989
 H228 H 1.11015 0.81152 0.65856
 C229 C 0.34013 0.63189 0.66013
 C230 C 0.34993 0.62256 0.67866
 C231 C 0.36831 0.63235 0.68844
 C232 C 0.37696 0.65163 0.67934
 C233 C 0.36732 0.66118 0.66082
 C234 C 0.34882 0.65129 0.65118
 C235 C 0.32154 0.62234 0.65065
 C236 C 0.31144 0.63193 0.63232
 C237 C 0.32033 0.65117 0.62339
 C238 C 0.33885 0.66094 0.63274
 C239 C 0.34738 0.68038 0.62411
 C240 C 0.36568 0.69046 0.63373
 C241 C 0.37567 0.68064 0.65199
 H242 H 0.34295 0.60790 0.68577
 H243 H 0.39126 0.65916 0.68664
 H244 H 0.31462 0.60770 0.65785
 H245 H 0.31282 0.65853 0.60910
 H246 H 0.33975 0.68770 0.60986
 H247 H 0.38962 0.68846 0.65967
 C248 C 0.33936 0.13204 1.16016
 C249 C 0.34908 0.12254 1.17865
 C250 C 0.36701 0.13257 1.18929
 C251 C 0.37519 0.15235 1.18053
 C252 C 0.36578 0.16188 1.16188
 C253 C 0.34774 0.15176 1.15172
 C254 C 0.32104 0.12235 1.15029
 C255 C 0.31097 0.13209 1.13202
 C256 C 0.31969 0.15156 1.12346
 C257 C 0.33793 0.16148 1.13322
 C258 C 0.34633 0.18110 1.12490
 C259 C 0.36436 0.19131 1.13490
 C260 C 0.37405 0.18153 1.15335
 H261 H 0.34176 0.10786 1.18530
 H262 H 0.38943 0.16011 1.18765
 H263 H 0.31426 0.10749 1.15717
 H264 H 0.31226 0.15901 1.10918
 H265 H 0.33889 0.18842 1.11055
 H266 H 0.38774 0.18948 1.16134
 C267 C 0.83785 0.63391 1.16252
 C268 C 0.84781 0.62427 1.18082
 C269 C 0.86669 0.63353 1.19017
 C270 C 0.87573 0.65251 1.18083
 C271 C 0.86597 0.66235 1.16255
 C272 C 0.84695 0.65303 1.15336
 C273 C 0.81865 0.62504 1.15357
 C274 C 0.80837 0.63507 1.13558
 C275 C 0.81775 0.65393 1.12636
 C276 C 0.83684 0.66303 1.13519
 C277 C 0.84572 0.68221 1.12638
 C278 C 0.86450 0.69178 1.13560
 C279 C 0.87466 0.68161 1.15358
 H280 H 0.84055 0.60985 1.18813
 H281 H 0.89040 0.65962 1.18782
 H282 H 0.81139 0.61065 1.16095
 H283 H 0.81010 0.66160 1.11231
 H284 H 0.83795 0.68979 1.11234
 H285 H 0.88897 0.68902 1.16096
 C286 C 0.83788 0.13354 0.66146
 C287 C 0.84741 0.12367 0.67991
 C288 C 0.86589 0.13296 0.69030
 C289 C 0.87497 0.15217 0.68120
 C290 C 0.86581 0.16200 0.66261
 C291 C 0.84705 0.15281 0.65286
 C292 C 0.81894 0.12470 0.65190
 C293 C 0.80865 0.13501 0.63391
 C294 C 0.81840 0.15413 0.62531
 C295 C 0.83740 0.16299 0.63457
 C296 C 0.84685 0.18197 0.62582
 C297 C 0.86574 0.19109 0.63524
 C298 C 0.87508 0.18100 0.65369
 H299 H 0.83952 0.10938 0.68676
 H300 H 0.88971 0.15923 0.68803
 H301 H 0.81167 0.11040 0.65939
 H302 H 0.81169 0.16194 0.61089
 H303 H 0.83961 0.18955 0.61150
 H304 H 0.88940 0.18817 0.66132
 C305 C 1.36673 0.33784 0.66150
 C306 C 1.37643 0.34757 0.67991
 C307 C 1.36812 0.36722 0.68887
 C308 C 1.34985 0.37700 0.67859
 C309 C 1.33983 0.36727 0.66040
 C310 C 1.34822 0.34758 0.65189
 C311 C 1.37513 0.31831 0.65278
 C312 C 1.36497 0.30790 0.63479
 C313 C 1.34629 0.31790 0.62551
 C314 C 1.33797 0.33754 0.63385
 C315 C 1.31942 0.34724 0.62443
 C316 C 1.31080 0.36677 0.63294
 C317 C 1.32118 0.37673 0.65089
 H318 H 1.39095 0.34006 0.68675
 H319 H 1.34249 0.39162 0.68535
 H320 H 1.38898 0.31077 0.66086
 H321 H 1.33853 0.31094 0.61118
 H322 H 1.31171 0.33959 0.61040
 H323 H 1.31446 0.39162 0.65778
 C324 C 1.36796 0.83880 1.16018
 C325 C 1.37728 0.84857 1.17877
 C326 C 1.36770 0.86718 1.18831
 C327 C 1.34878 0.87618 1.17882
 C328 C 1.33929 0.86659 1.16026
 C329 C 1.34879 0.84771 1.15100
 C330 C 1.37736 0.82005 1.15091
 C331 C 1.36775 0.80960 1.13263
 C332 C 1.34845 0.81876 1.12371
 C333 C 1.33906 0.83770 1.13265
 C334 C 1.32008 0.84683 1.12346
 C335 C 1.31063 0.86579 1.13245
 C336 C 1.32034 0.87552 1.15090
 H337 H 1.39173 0.84139 1.18612
 H338 H 1.34150 0.89074 1.18584
 H339 H 1.39163 0.81310 1.15877
 H340 H 1.34104 0.81176 1.10922
 H341 H 1.31278 0.83932 1.10914
 H342 H 1.31294 0.88988 1.15820
 C343 C 0.86644 0.33779 1.16179
 C344 C 0.87616 0.34751 1.18020
 C345 C 0.86715 0.36650 1.18957
 C346 C 0.84846 0.37595 1.18007
 C347 C 0.83858 0.36643 1.16168
 C348 C 0.84749 0.34718 1.15261
 C349 C 0.87513 0.31854 1.15276
 C350 C 0.86494 0.30811 1.13479
 C351 C 0.84602 0.31791 1.12576
 C352 C 0.83735 0.33725 1.13447
 C353 C 0.81857 0.34676 1.12531
 C354 C 0.80961 0.36598 1.13419
 C355 C 0.81975 0.37572 1.15240
 H356 H 0.89043 0.34000 1.18757
 H357 H 0.84161 0.39077 1.18699
 H358 H 0.88920 0.31120 1.16062
 H359 H 0.83828 0.31101 1.11139
 H360 H 0.81098 0.33926 1.11113
 H361 H 0.81275 0.39033 1.15961
 C362 C 0.86581 0.83745 0.66266
 C363 C 0.87537 0.84744 0.68099
 C364 C 0.86610 0.86637 0.69021
 C365 C 0.84719 0.87543 0.68071
 C366 C 0.83743 0.86564 0.66239
 C367 C 0.84676 0.84657 0.65334
 C368 C 0.87470 0.81822 0.65383
 C369 C 0.86474 0.80791 0.63582
 C370 C 0.84595 0.81730 0.62645
 C371 C 0.83685 0.83645 0.63514
 C372 C 0.81775 0.84538 0.62614
 C373 C 0.80818 0.86421 0.63521
 C374 C 0.81826 0.87437 0.65324
 H375 H 0.88974 0.84016 0.68842
 H376 H 0.84007 0.89014 0.68759
 H377 H 0.88904 0.81094 0.66131
 H378 H 0.83833 0.80963 0.61238
 H379 H 0.81026 0.83760 0.61206
 H380 H 0.81084 0.88873 0.66052
 C381 C 0.63406 0.66277 0.66159
 C382 C 0.62455 0.65385 0.68048
 C383 C 0.63367 0.63530 0.69057
 C384 C 0.65230 0.62547 0.68131
 C385 C 0.66201 0.63423 0.66245
 C386 C 0.65290 0.65296 0.65254
 C387 C 0.62535 0.68166 0.65192
 C388 C 0.63530 0.69102 0.63341
 C389 C 0.65395 0.68101 0.62435
 C390 C 0.66285 0.66212 0.63383
 C391 C 0.68186 0.65255 0.62521
 C392 C 0.69119 0.63404 0.63516
 C393 C 0.68102 0.62487 0.65367
 H394 H 0.61007 0.66140 0.68740
 H395 H 0.65964 0.61139 0.68919
 H396 H 0.61119 0.68946 0.65922
 H397 H 0.66160 0.68800 0.60995
 H398 H 0.68978 0.65991 0.61114
 H399 H 0.68798 0.61046 0.66130
 C400 C 0.63166 1.16045 1.15987
 C401 C 0.62198 1.15056 1.17821
 C402 C 0.63180 1.13236 1.18829
 C403 C 0.65131 1.12386 1.17954
 C404 C 0.66122 1.13364 1.16131
 C405 C 0.65144 1.15208 1.15149
 C406 C 0.62210 1.17889 1.15015
 C407 C 0.63214 1.18956 1.13223
 C408 C 0.65197 1.18086 1.12404
 C409 C 0.66157 1.16227 1.13346
 C410 C 0.68129 1.15383 1.12522
 C411 C 0.69113 1.13547 1.13494
 C412 C 0.68092 1.12543 1.15294
 H413 H 0.60708 1.15738 1.18499
 H414 H 0.65882 1.10963 1.18697
 H415 H 0.60738 1.18549 1.15746
 H416 H 0.65974 1.18800 1.10981
 H417 H 0.68924 1.16184 1.11153
 H418 H 0.68829 1.11113 1.16040
 C419 C 0.13309 0.66165 1.16109
 C420 C 0.12328 0.65200 1.17950
 C421 C 0.13256 0.63339 1.18965
 C422 C 0.15172 0.62434 1.18037
 C423 C 0.16151 0.63365 1.16182
 C424 C 0.15229 0.65249 1.15228
 C425 C 0.12426 0.68071 1.15178
 C426 C 0.13454 0.69113 1.13385
 C427 C 0.15357 0.68138 1.12501
 C428 C 0.16237 0.66223 1.13399
 C429 C 0.18125 0.65278 1.12500
 C430 C 0.19038 0.63381 1.13420
 C431 C 0.18045 0.62439 1.15270
 H432 H 0.10904 0.65987 1.18651
 H433 H 0.15879 0.60954 1.18704
 H434 H 0.11003 0.68797 1.15943
 H435 H 0.16132 0.68819 1.11060
 H436 H 0.18908 0.66041 1.11103
 H437 H 0.18735 0.60970 1.15984
 C438 C 0.13349 1.16185 0.66125
 C439 C 0.12476 1.15331 0.68067
 C440 C 0.13378 1.13449 0.69062
 C441 C 0.15181 1.12429 0.68029
 C442 C 0.16091 1.13289 0.66102
 C443 C 0.15171 1.15173 0.65145
 C444 C 0.12432 1.18053 0.65159
 C445 C 0.13326 1.18939 0.63234
 C446 C 0.15157 1.17931 0.62273
 C447 C 0.16084 1.16055 0.63215
 C448 C 0.17926 1.15063 0.62273
 C449 C 0.18875 1.13202 0.63234
 C450 C 0.17936 1.12317 0.65141
 H451 H 0.11036 1.16106 0.68749
 H452 H 0.15966 1.11028 0.68776
 H453 H 0.11045 1.18845 0.65930
 H454 H 0.15849 1.18597 0.60781
 H455 H 0.18654 1.15773 0.60819
 H456 H 0.18642 1.10866 0.65875
 C457 C 1.36668 0.66291 0.33860
 C458 C 1.37608 0.65383 0.31975
 C459 C 1.36671 0.63546 0.30931
 C460 C 1.34781 0.62603 0.31875
 C461 C 1.33804 0.63519 0.33743
 C462 C 1.34745 0.65379 0.34729
 C463 C 1.37611 0.68128 0.34859
 C464 C 1.36633 0.69126 0.36702
 C465 C 1.34685 0.68201 0.37537
 C466 C 1.33748 0.66342 0.36572
 C467 C 1.31814 0.65444 0.37414
 C468 C 1.30847 0.63604 0.36431
 C469 C 1.31864 0.62640 0.34604
 H470 H 1.39116 0.66086 0.31366
 H471 H 1.33978 0.61231 0.31093
 H472 H 1.39051 0.68841 0.34110
 H473 H 1.33922 0.68869 0.38991
 H474 H 1.31056 0.66178 0.38841
 H475 H 1.31113 0.61239 0.33819
 C476 C 1.36645 1.16217 0.83962
 C477 C 1.37608 1.15334 0.82075
 C478 C 1.36707 1.13482 0.81051
 C479 C 1.34850 1.12482 0.81970
 C480 C 1.33870 1.13344 0.83858
 C481 C 1.34758 1.15232 0.84846
 C482 C 1.37510 1.18104 0.84941
 C483 C 1.36491 1.19072 0.86780
 C484 C 1.34606 1.18050 0.87648
 C485 C 1.33744 1.16148 0.86702
 C486 C 1.31867 1.15160 0.87576
 C487 C 1.30970 1.13279 0.86605
 C488 C 1.31987 1.12378 0.84747
 H489 H 1.39058 1.16095 0.81394
 H490 H 1.34130 1.11069 0.81178
 H491 H 1.38909 1.18876 0.84177
 H492 H 1.33830 1.18684 0.89110
 H493 H 1.31105 1.15852 0.89021
 H494 H 1.31285 1.10950 0.83965
 C495 C 0.86607 0.66267 0.83901
 C496 C 0.87577 0.65394 0.82012
 C497 C 0.86693 0.63531 0.80991
 C498 C 0.84838 0.62523 0.81905
 C499 C 0.83849 0.63378 0.83792
 C500 C 0.84733 0.65258 0.84794
 C501 C 0.87451 0.68162 0.84879
 C502 C 0.86437 0.69076 0.86733
 C503 C 0.84583 0.68047 0.87626
 C504 C 0.83721 0.66152 0.86667
 C505 C 0.81832 0.65166 0.87520
 C506 C 0.80927 0.63307 0.86515
 C507 C 0.81959 0.62413 0.84662
 H508 H 0.89019 0.66169 0.81330
 H509 H 0.84125 0.61109 0.81109
 H510 H 0.88860 0.68963 0.84159
 H511 H 0.83805 0.68729 0.89068
 H512 H 0.81028 0.65885 0.88929
 H513 H 0.81284 0.60967 0.83891
 C514 C 0.86696 1.16205 0.33961
 C515 C 0.87592 1.15359 0.32027
 C516 C 0.86697 1.13486 0.31009
 C517 C 0.84880 1.12464 0.32014
 C518 C 0.83950 1.13315 0.33936
 C519 C 0.84859 1.15193 0.34913
 C520 C 0.87606 1.18063 0.34948
 C521 C 0.86693 1.18943 0.36867
 C522 C 0.84844 1.17938 0.37798
 C523 C 0.83921 1.16072 0.36833
 C524 C 0.82064 1.15081 0.37746
 C525 C 0.81126 1.13224 0.36765
 C526 C 0.82091 1.12342 0.34869
 H527 H 0.89042 1.16133 0.31367
 H528 H 0.84102 1.11069 0.31250
 H529 H 0.89005 1.18855 0.34197
 H530 H 0.84136 1.18601 0.39284
 H531 H 0.81350 1.15752 0.39224
 H532 H 0.81361 1.10928 0.34089
 C533 C 0.63396 0.33735 0.33875
 C534 C 0.62409 0.34688 0.32033
 C535 C 0.63342 0.36533 0.30996
 C536 C 0.65273 0.37430 0.31899
 C537 C 0.66259 0.36509 0.33754
 C538 C 0.65326 0.34651 0.34742
 C539 C 0.62516 0.31840 0.34825
 C540 C 0.63543 0.30847 0.36630
 C541 C 0.65438 0.31804 0.37516
 C542 C 0.66339 0.33693 0.36583
 C543 C 0.68263 0.34610 0.37432
 C544 C 0.69204 0.36465 0.36453
 C545 C 0.68183 0.37410 0.34620
 H546 H 0.60976 0.33903 0.31349
 H547 H 0.65988 0.38896 0.31210
 H548 H 0.61069 0.31099 0.34117
 H549 H 0.66220 0.31069 0.38929
 H550 H 0.69060 0.33849 0.38823
 H551 H 0.68889 0.38851 0.33868
 C552 C 0.63431 0.83676 0.83840
 C553 C 0.62525 0.84553 0.81923
 C554 C 0.63429 0.86431 0.80948
 C555 C 0.65237 0.87452 0.81938
 C556 C 0.66160 0.86597 0.83859
 C557 C 0.65259 0.84697 0.84810
 C558 C 0.62567 0.81768 0.84775
 C559 C 0.63518 0.80851 0.86659
 C560 C 0.65326 0.81891 0.87629
 C561 C 0.66206 0.83800 0.86715
 C562 C 0.68040 0.84805 0.87655
 C563 C 0.68960 0.86687 0.86709
 C564 C 0.68000 0.87581 0.84816
 H565 H 0.61115 0.83771 0.81186
 H566 H 0.65963 0.88881 0.81181
 H567 H 0.61192 0.80959 0.84000
 H568 H 0.66054 0.81207 0.89096
 H569 H 0.68755 0.84120 0.89127
 H570 H 0.68718 0.89013 0.84058
 C571 C 0.13366 0.33757 0.83896
 C572 C 0.12396 0.34717 0.82047
 C573 C 0.13283 0.36622 0.81111
 C574 C 0.15138 0.37586 0.82070
 C575 C 0.16126 0.36647 0.83915
 C576 C 0.15246 0.34717 0.84823
 C577 C 0.12513 0.31825 0.84797
 C578 C 0.13534 0.30794 0.86601
 C579 C 0.15409 0.31796 0.87514
 C580 C 0.16257 0.33740 0.86648
 C581 C 0.18117 0.34713 0.87576
 C582 C 0.18998 0.36641 0.86689
 C583 C 0.17992 0.37597 0.84854
 H584 H 0.10980 0.33951 0.81303
 H585 H 0.15812 0.39073 0.81378
 H586 H 0.11117 0.31075 0.84005
 H587 H 0.16182 0.31115 0.88956
 H588 H 0.18908 0.33945 0.88966
 H589 H 0.18655 0.39091 0.84167
 C590 C 0.13240 0.83857 0.34008
 C591 C 0.12341 0.84734 0.32088
 C592 C 0.13263 0.86592 0.31069
 C593 C 0.15094 0.87587 0.32074
 C594 C 0.16026 0.86705 0.33981
 C595 C 0.15106 0.84822 0.34941
 C596 C 0.12308 0.82003 0.34984
 C597 C 0.13245 0.81040 0.36866
 C598 C 0.15143 0.82012 0.37760
 C599 C 0.16064 0.83894 0.36823
 C600 C 0.17934 0.84860 0.37738
 C601 C 0.18867 0.86736 0.36791
 C602 C 0.17897 0.87652 0.34915
 H603 H 0.10872 0.83991 0.31434
 H604 H 0.15887 0.88977 0.31317
 H605 H 0.10912 0.81253 0.34192
 H606 H 0.15871 0.81365 0.39241
 H607 H 0.18657 0.84159 0.39199
 H608 H 0.18628 0.89076 0.34154
 O609 O 1.07948 1.02057 1.10932
 O610 O 1.10508 1.02056 1.13477
 C611 C 1.08724 1.02803 1.12710
 C612 C 1.07568 1.04596 1.13860
 C613 C 1.08273 1.05310 1.15929
 H614 H 1.09602 1.04463 1.16738
 O615 O 0.92131 0.97943 1.11007
 O616 O 0.89595 0.97971 1.13576
 C617 C 0.91363 0.97206 1.12793
 C618 C 0.92517 0.95408 1.13939
 C619 C 0.91780 0.94653 1.15982
 H620 H 0.90367 0.95411 1.16736
 O621 O 1.02214 1.10862 1.07908
 O622 O 1.02251 1.13427 1.10445
 C623 C 1.02974 1.12642 1.08659
 C624 C 1.04757 1.13776 1.07473
 C625 C 1.05517 1.15821 1.08188
 H626 H 1.04721 1.16622 1.09554
 O627 O 0.97827 0.89152 1.08008
 O628 O 0.97812 0.86602 1.10559
 C629 C 0.97063 0.87383 1.08782
 C630 C 0.95244 0.86264 1.07636
 C631 C 0.94412 0.84273 1.08428
 H632 H 0.95142 0.83517 1.09856
 O633 O 1.10908 1.07791 1.02101
 O634 O 1.13484 1.10315 1.02085
 C635 C 1.12698 1.08546 1.02840
 C636 C 1.13846 1.07382 1.04631
 C637 C 1.15902 1.08101 1.05365
 H638 H 1.16696 1.09463 1.04556
 O639 O 0.89025 0.92207 1.02265
 O640 O 0.86452 0.89681 1.02287
 C641 C 0.87244 0.91453 1.03027
 C642 C 0.86122 0.92620 1.04832
 C643 C 0.84113 0.91860 1.05657
 H644 H 0.83349 0.90436 1.04932
 O645 O 0.97972 1.07894 1.10967
 O646 O 0.98009 1.10447 1.13516
 C647 C 0.97246 1.08671 1.12753
 C648 C 0.95444 1.07538 1.13911
 C649 C 0.94662 1.08334 1.15920
 H650 H 0.95480 1.09702 1.16691
 O651 O 1.02127 0.92122 1.10985
 O652 O 1.02116 0.89581 1.13546
 C653 C 1.02875 0.91351 1.12765
 C654 C 1.04694 0.92485 1.13896
 C655 C 1.05487 0.91702 1.15904
 H656 H 1.04667 0.90344 1.16691
 O657 O 1.10918 0.97786 1.07921
 O658 O 1.13500 0.97786 1.10443
 C659 C 1.12707 0.97039 1.08671
 C660 C 1.13839 0.95248 1.07494
 C661 C 1.15887 0.94487 1.08207
 H662 H 1.16670 0.95247 1.09605
 O663 O 0.89176 1.02232 1.08000
 O664 O 0.86626 1.02262 1.10556
 C665 C 0.87405 1.02999 1.08773
 C666 C 0.86277 1.04807 1.07620
 C667 C 0.84291 1.05636 1.08422
 H668 H 0.83527 1.04876 1.09829
 O669 O 0.92202 1.10917 1.02170
 O670 O 0.89672 1.13487 1.02174
 C671 C 0.91445 1.12699 1.02922
 C672 C 0.92594 1.13824 1.04737
 C673 C 0.91793 1.15812 1.05559
 H674 H 0.90415 1.16589 1.04762
 O675 O 1.07808 0.89096 1.02178
 O676 O 1.10341 0.86528 1.02168
 C677 C 1.08572 0.87315 1.02927
 C678 C 1.07432 0.86186 1.04745
 C679 C 1.08226 0.84188 1.05548
 H680 H 1.09598 0.83410 1.04740
 O681 O 0.92153 1.02212 1.11015
 O682 O 0.89612 1.02243 1.13580
 C683 C 0.91393 1.02974 1.12795
 C684 C 0.92565 1.04768 1.13925
 C685 C 0.91784 1.05610 1.15919
 H686 H 0.90327 1.04916 1.16650
 O687 O 1.07956 0.97794 1.10949
 O688 O 1.10524 0.97783 1.13485
 C689 C 1.08738 0.97040 1.12722
 C690 C 1.07580 0.95248 1.13870
 C691 C 1.08373 0.94418 1.15865
 H692 H 1.09835 0.95116 1.16583
 O693 O 1.02101 0.89116 1.08005
 O694 O 1.02095 0.86564 1.10555
 C695 C 1.02847 0.87337 1.08776
 C696 C 1.04647 0.86196 1.07618
 C697 C 1.05487 0.84210 1.08418
 H698 H 1.04787 0.83489 1.09878
 O699 O 0.97943 1.10887 1.07971
 O700 O 0.97973 1.13448 1.10511
 C701 C 0.97202 1.12668 1.08744
 C702 C 0.95387 1.13804 1.07602
 C703 C 0.94539 1.15779 1.08422
 H704 H 0.95239 1.16491 1.09886
 O705 O 0.89169 1.07966 1.02193
 O706 O 0.86630 1.10527 1.02197
 C707 C 0.87400 1.08751 1.02952
 C708 C 0.86268 1.07619 1.04774
 C709 C 0.84282 1.08429 1.05607
 H710 H 0.83542 1.09862 1.04876
 O711 O 1.10852 0.92045 1.02147
 O712 O 1.13393 0.89485 1.02131
 C713 C 1.12634 0.91268 1.02882
 C714 C 1.13802 0.92422 1.04665
 C715 C 1.15849 0.91682 1.05402
 H716 H 1.16628 0.90309 1.04597
 O717 O 0.97862 0.92151 1.11002
 O718 O 0.97848 0.89613 1.13566
 C719 C 0.97117 0.91397 1.12790
 C720 C 0.95339 0.92577 1.13942
 C721 C 0.94598 0.91864 1.15997
 H722 H 0.95415 0.90510 1.16796
 O723 O 1.02239 1.07884 1.10924
 O724 O 1.02279 1.10435 1.13475
 C725 C 1.03006 1.08649 1.12699
 C726 C 1.04786 1.07467 1.13845
 C727 C 1.05531 1.08174 1.15902
 H728 H 1.04785 1.09591 1.16658
 O729 O 0.89120 0.97970 1.08023
 O730 O 0.86573 0.97996 1.10581
 C731 C 0.87335 0.97241 1.08799
 C732 C 0.86172 0.95453 1.07653
 C733 C 0.84162 0.94677 1.08447
 H734 H 0.83405 0.95467 1.09842
 O735 O 1.10922 1.02046 1.07911
 O736 O 1.13499 1.02053 1.10437
 C737 C 1.12711 1.02791 1.08659
 C738 C 1.13856 1.04567 1.07473
 C739 C 1.15914 1.05307 1.08179
 H740 H 1.16691 1.04544 1.09577
 O741 O 0.92026 0.89216 1.02261
 O742 O 0.89461 0.86682 1.02282
 C743 C 0.91249 0.87447 1.03019
 C744 C 0.92400 0.86302 1.04820
 C745 C 0.91595 0.84314 1.05634
 H746 H 0.90185 0.83560 1.04869
 O747 O 1.07942 1.10817 1.02098
 O748 O 1.10506 1.13353 1.02083
 C749 C 1.08723 1.12594 1.02838
 C750 C 1.07571 1.13754 1.04629
 C751 C 1.08314 1.15797 1.05372
 H752 H 1.09719 1.16552 1.04601
 Cu753 Cu 1.09178 0.99921 1.09176
 Cu754 Cu 1.12266 0.99922 1.12216
 Cu755 Cu 0.90901 1.00086 1.09257
 Cu756 Cu 0.87846 1.00120 1.12330
 Cu757 Cu 1.00090 1.09127 1.09187
 Cu758 Cu 1.00134 1.12197 1.12242
 Cu759 Cu 0.99980 0.90888 1.09242
 Cu760 Cu 0.99965 0.87833 1.12312
 C761 C 1.05807 1.05668 1.12845
 H762 H 1.05267 1.05138 1.11242
 C763 C 1.07268 1.07102 1.16965
 C764 C 0.94306 0.94367 1.12940
 H765 H 0.94857 0.94913 1.11346
 C766 C 0.92812 0.92883 1.17030
 C767 C 1.05780 1.12768 1.05679
 H768 H 1.05221 1.11177 1.05137
 C769 C 1.07296 1.16843 1.07151
 C770 C 0.94238 0.87254 1.05819
 H771 H 0.94847 0.88806 1.05222
 C772 C 0.92581 0.83293 1.07442
 C773 C 1.12846 1.05602 1.05684
 H774 H 1.11246 1.05059 1.05148
 C775 C 1.16948 1.07073 1.07136
 C776 C 0.87127 0.94429 1.05831
 H777 H 0.88693 0.95000 1.05230
 C778 C 0.83125 0.92875 1.07470
 C779 C 0.94403 1.05736 1.12943
 H780 H 0.94984 1.05128 1.11382
 C781 C 0.92820 1.07396 1.16931
 C782 C 1.05733 0.94276 1.12907
 H783 H 1.05141 0.94875 1.11347
 C784 C 1.07339 0.92640 1.16895
 C785 C 1.12822 0.94218 1.05709
 H786 H 1.11229 0.94778 1.05170
 C787 C 1.16906 0.92705 1.07170
 C788 C 0.87241 1.05796 1.05782
 H789 H 0.88790 1.05185 1.05174
 C790 C 0.83287 1.07452 1.07436
 C791 C 0.94409 1.12848 1.05753
 H792 H 0.95020 1.11302 1.05141
 C793 C 0.92735 1.16793 1.07415
 C794 C 1.05625 0.87162 1.05773
 H795 H 1.05020 0.88715 1.05175
 C796 C 1.07283 0.83195 1.07397
 O797 O 1.07784 0.97795 0.89063
 O798 O 1.10314 0.97765 0.86489
 C799 C 1.08532 0.97038 0.87278
 C800 C 1.07344 0.95255 0.86146
 C801 C 1.08040 0.94503 0.84088
 H802 H 1.09431 0.95265 0.83298
 O803 O 0.92049 1.02159 0.89137
 O804 O 0.89485 1.02169 0.86598
 C805 C 0.91271 1.02909 0.87361
 C806 C 0.92436 1.04688 0.86200
 C807 C 0.91693 1.05442 0.84159
 H808 H 0.90263 1.04698 0.83423
 O809 O 0.97897 1.10863 0.92074
 O810 O 0.97898 1.13418 0.89528
 C811 C 0.97160 1.12650 0.91315
 C812 C 0.95391 1.13813 0.92497
 C813 C 0.94654 1.15867 0.91778
 H814 H 0.95416 1.16630 0.90371
 O815 O 1.01996 0.89066 0.92161
 O816 O 1.01969 0.86497 0.89629
 C817 C 1.02728 0.87278 0.91401
 C818 C 1.04518 0.86130 0.92564
 C819 C 1.05273 0.84089 0.91827
 H820 H 1.04508 0.83324 0.90423
 O821 O 1.10798 0.92056 0.97869
 O822 O 1.13331 0.89489 0.97856
 C823 C 1.12563 0.91268 0.97106
 C824 C 1.13696 0.92392 0.95280
 C825 C 1.15684 0.91578 0.94467
 H826 H 1.16453 0.90198 0.95268
 O827 O 0.89153 1.07946 0.97918
 O828 O 0.86613 1.10505 0.97919
 C829 C 0.87373 1.08720 0.97175
 C830 C 0.86207 1.07552 0.95399
 C831 C 0.84154 1.08279 0.94661
 H832 H 0.83408 1.09698 0.95415
 O833 O 1.02120 1.07826 0.89052
 O834 O 1.02122 1.10368 0.86493
 C835 C 1.02865 1.08588 0.87267
 C836 C 1.04664 1.07435 0.86123
 C837 C 1.05475 1.08232 0.84128
 H838 H 1.04681 1.09614 0.83357
 O839 O 0.97743 0.92077 0.89165
 O840 O 0.97714 0.89526 0.86614
 C841 C 0.96988 0.91315 0.87384
 C842 C 0.95215 0.92498 0.86231
 C843 C 0.94469 0.91784 0.84177
 H844 H 0.95225 0.90378 0.83410
 O845 O 1.10838 1.02020 0.92051
 O846 O 1.13395 1.01987 0.89504
 C847 C 1.12627 1.02743 0.91284
 C848 C 1.13791 1.04522 0.92448
 C849 C 1.15831 1.05270 0.91701
 H850 H 1.16585 1.04507 0.90289
 O851 O 0.89061 0.97909 0.92163
 O852 O 0.86486 0.97914 0.89633
 C853 C 0.87269 0.97172 0.91412
 C854 C 0.86113 0.95403 0.92595
 C855 C 0.84065 0.94655 0.91869
 H856 H 0.83305 0.95406 0.90454
 O857 O 1.07916 1.10791 0.97824
 O858 O 1.10485 1.13321 0.97807
 C859 C 1.08698 1.12559 0.97065
 C860 C 1.07558 1.13701 0.95255
 C861 C 1.08360 1.15695 0.94451
 H862 H 1.09740 1.16463 0.95254
 O863 O 0.91996 0.89191 0.97987
 O864 O 0.89430 0.86658 0.98007
 C865 C 0.91210 0.87417 0.97247
 C866 C 0.92342 0.86261 0.95441
 C867 C 0.91536 0.84260 0.94659
 H868 H 0.90143 0.83506 0.95453
 O869 O 0.92042 0.97892 0.89149
 O870 O 0.89481 0.97897 0.86606
 C871 C 0.91262 0.97146 0.87373
 C872 C 0.92413 0.95349 0.86225
 C873 C 0.91688 0.94612 0.84171
 H874 H 0.90331 0.95426 0.83374
 O875 O 1.07868 1.02062 0.89030
 O876 O 1.10411 1.02040 0.86470
 C877 C 1.08645 1.02809 0.87252
 C878 C 1.07509 1.04627 0.86121
 C879 C 1.08321 1.05472 0.84139
 H880 H 1.09775 1.04764 0.83416
 O881 O 0.97726 0.89096 0.92173
 O882 O 0.97689 0.86531 0.89637
 C883 C 0.96955 0.87322 0.91416
 C884 C 0.95148 0.86209 0.92588
 C885 C 0.94314 0.84207 0.91826
 H886 H 0.95030 0.83442 0.90395
 O887 O 1.02169 1.10831 0.92032
 O888 O 1.02176 1.13383 0.89483
 C889 C 1.02933 1.12599 0.91255
 C890 C 1.04756 1.13717 0.92399
 C891 C 1.05606 1.15696 0.91596
 H892 H 1.04901 1.16424 0.90142
 O893 O 0.89022 0.92206 0.97990
 O894 O 0.86446 0.89683 0.98011
 C895 C 0.87233 0.91449 0.97252
 C896 C 0.86093 0.92605 0.95452
 C897 C 0.84046 0.91880 0.94702
 H898 H 0.83246 0.90522 0.95511
 O899 O 1.10899 1.07781 0.97826
 O900 O 1.13477 1.10302 0.97809
 C901 C 1.12684 1.08529 0.97069
 C902 C 1.13815 1.07355 0.95273
 C903 C 1.15855 1.08079 0.94501
 H904 H 1.16654 1.09450 0.95289
 O905 O 1.02005 0.92045 0.89148
 O906 O 1.01981 0.89491 0.86601
 C907 C 1.02738 0.91269 0.87364
 C908 C 1.04518 0.92426 0.86194
 C909 C 1.05237 0.91698 0.84136
 H910 H 1.04424 0.90332 0.83355
 O911 O 0.97854 1.07869 0.89071
 O912 O 0.97850 1.10409 0.86509
 C913 C 0.97101 1.08635 0.87291
 C914 C 0.95296 1.07479 0.86158
 C915 C 0.94549 1.08191 0.84103
 H916 H 0.95379 1.09527 0.83290
 O917 O 0.89090 1.02165 0.92172
 O918 O 0.86512 1.02174 0.89646
 C919 C 0.87303 1.02913 0.91422
 C920 C 0.86169 1.04700 0.92599
 C921 C 0.84104 1.05429 0.91905
 H922 H 0.83288 1.04592 0.90573
 O923 O 1.10811 0.97756 0.92025
 O924 O 1.13356 0.97715 0.89465
 C925 C 1.12577 0.96981 0.91247
 C926 C 1.13699 0.95170 0.92403
 C927 C 1.15675 0.94313 0.91597
 H928 H 1.16400 0.95005 0.90135
 O929 O 1.07794 0.89067 0.97905
 O930 O 1.10320 0.86493 0.97897
 C931 C 1.08542 0.87278 0.97159
 C932 C 1.07362 0.86134 0.95378
 C933 C 1.08092 0.84093 0.94619
 H934 H 1.09468 0.83304 0.95410
 O935 O 0.92173 1.10919 0.97896
 O936 O 0.89645 1.13491 0.97897
 C937 C 0.91416 1.12702 0.97146
 C938 C 0.92580 1.13835 0.95346
 C939 C 0.91866 1.15887 0.94603
 H940 H 0.90510 1.16690 0.95413
 Cu941 Cu 1.09070 0.99912 0.90797
 Cu942 Cu 1.12125 0.99873 0.87724
 Cu943 Cu 0.90820 1.00030 0.90907
 Cu944 Cu 0.87734 1.00039 0.87865
 Cu945 Cu 1.09159 1.09042 0.99965
 Cu946 Cu 1.12246 1.12077 0.99945
 Cu947 Cu 1.09060 0.90824 1.00027
 Cu948 Cu 1.12100 0.87741 1.00012
 Cu949 Cu 0.90927 1.09179 1.00041
 Cu950 Cu 0.87886 1.12261 1.00045
 Cu951 Cu 0.90773 0.90960 1.00124
 Cu952 Cu 0.87690 0.87921 1.00149
 Cu953 Cu 1.00007 1.09094 0.90813
 Cu954 Cu 1.00009 1.12151 0.87747
 Cu955 Cu 0.99870 0.90825 0.90917
 Cu956 Cu 0.99836 0.87752 0.87866
 C957 C 1.05569 0.94218 0.87175
 H958 H 1.05042 0.94769 0.88776
 C959 C 1.06995 0.92727 0.83069
 C960 C 0.94246 1.05710 0.87178
 H961 H 0.94802 1.05164 0.88771
 C962 C 0.92741 1.07188 0.83090
 C963 C 0.94356 1.12822 0.94296
 H964 H 0.94895 1.11226 0.94841
 C965 C 0.92892 1.16915 0.92820
 C966 C 1.05562 0.87128 0.94354
 H967 H 1.05011 0.88716 0.94910
 C968 C 1.07060 0.83060 0.92843
 C969 C 1.12730 0.94205 0.94254
 H970 H 1.11184 0.94827 0.94857
 C971 C 1.16680 0.92512 0.92615
 C972 C 0.87193 1.05754 0.94365
 H973 H 0.88794 1.05211 0.94896
 C974 C 0.83084 1.07224 0.92916
 C975 C 1.05673 1.05615 0.87091
 H976 H 1.05069 1.05006 0.88643
 C977 C 1.07317 1.07280 0.83130
 C978 C 0.94190 0.94294 0.87230
 H979 H 0.94738 0.94834 0.88827
 C980 C 0.92709 0.92832 0.83134
 C981 C 1.12807 1.05562 0.94248
 H982 H 1.11219 1.05016 0.94814
 C983 C 1.16874 1.07049 0.92715
 C984 C 0.87103 0.94381 0.94400
 H985 H 0.88696 0.94929 0.94950
 C986 C 0.83019 0.92895 0.92911
 C987 C 1.05737 1.12740 0.94235
 H988 H 1.05123 1.11191 0.94835
 C989 C 1.07412 1.16700 0.92610
 C990 C 0.94161 0.87211 0.94409
 H991 H 0.94771 0.88771 0.94984
 C992 C 0.92503 0.83226 0.92847
 O993 O 0.97846 0.42115 0.39108
 O994 O 0.97825 0.39565 0.36556
 C995 C 0.97092 0.41350 0.37329
 C996 C 0.95312 0.42524 0.36178
 C997 C 0.94568 0.41806 0.34126
 H998 H 0.95330 0.40402 0.33359
 O999 O 1.02183 0.57925 0.39110
 O1000 O 1.02186 0.60475 0.36558
 C1001 C 1.02927 0.58692 0.37326
 C1002 C 1.04698 0.57516 0.36160
 C1003 C 1.05443 0.58247 0.34112
 H1004 H 1.04703 0.59678 0.33376
 O1005 O 0.89147 0.47906 0.42142
 O1006 O 0.86593 0.47909 0.39592
 C1007 C 0.87369 0.47158 0.41371
 C1008 C 0.86231 0.45352 0.42518
 C1009 C 0.84247 0.44531 0.41704
 H1010 H 0.83491 0.45299 0.40297
 O1011 O 1.10895 0.52106 0.42006
 O1012 O 1.13437 0.52107 0.39444
 C1013 C 1.12669 0.52858 0.41225
 C1014 C 1.13807 0.54664 0.42371
 C1015 C 1.15784 0.55510 0.41554
 H1016 H 1.16515 0.54801 0.40102
 O1017 O 0.92107 0.39147 0.47916
 O1018 O 0.89557 0.36597 0.47925
 C1019 C 0.91336 0.37367 0.47174
 C1020 C 0.92494 0.36216 0.45382
 C1021 C 0.91769 0.34163 0.44653
 H1022 H 0.90412 0.33372 0.45473
 O1023 O 1.07954 0.60846 0.47878
 O1024 O 1.10510 0.63391 0.47878
 C1025 C 1.08719 0.62632 0.47144
 C1026 C 1.07543 0.63801 0.45376
 C1027 C 1.08247 0.65869 0.44670
 H1028 H 1.09586 0.66664 0.45513
 O1029 O 0.92143 0.52162 0.39132
 O1030 O 0.89601 0.52169 0.36571
 C1031 C 0.91382 0.52909 0.37348
 C1032 C 0.92556 0.54689 0.36197
 C1033 C 0.91834 0.55434 0.34146
 H1034 H 0.90432 0.54671 0.33377
 O1035 O 1.07882 0.47836 0.39037
 O1036 O 1.10417 0.47822 0.36467
 C1037 C 1.08639 0.47083 0.37253
 C1038 C 1.07463 0.45298 0.36113
 C1039 C 1.08172 0.44553 0.34057
 H1040 H 1.09570 0.45317 0.33280
 O1041 O 1.02115 0.39120 0.42100
 O1042 O 1.02099 0.36556 0.39562
 C1043 C 1.02855 0.37336 0.41336
 C1044 C 1.04649 0.36192 0.42496
 C1045 C 1.05390 0.34145 0.41768
 H1046 H 1.04611 0.33372 0.40376
 O1047 O 0.97913 0.60914 0.42116
 O1048 O 0.97904 0.63471 0.39571
 C1049 C 0.97154 0.62689 0.41346
 C1050 C 0.95338 0.63812 0.42496
 C1051 C 0.94488 0.65791 0.41692
 H1052 H 0.95202 0.66533 0.40249
 O1053 O 0.89146 0.57885 0.47902
 O1054 O 0.86597 0.60435 0.47921
 C1055 C 0.87368 0.58663 0.47159
 C1056 C 0.86227 0.57537 0.45341
 C1057 C 0.84248 0.58362 0.44517
 H1058 H 0.83492 0.59763 0.45296
 O1059 O 1.10917 0.42120 0.47841
 O1060 O 1.13476 0.39578 0.47828
 C1061 C 1.12699 0.41358 0.47090
 C1062 C 1.13844 0.42526 0.45299
 C1063 C 1.15907 0.41823 0.44571
 H1064 H 1.16716 0.40486 0.45404
 O1065 O 0.97919 0.57916 0.39127
 O1066 O 0.97916 0.60459 0.36569
 C1067 C 0.97172 0.58681 0.37345
 C1068 C 0.95384 0.57515 0.36198
 C1069 C 0.94640 0.58236 0.34146
 H1070 H 0.95442 0.59601 0.33352
 O1071 O 1.02111 0.42088 0.39077
 O1072 O 1.02096 0.39537 0.36526
 C1073 C 1.02849 0.41315 0.37293
 C1074 C 1.04634 0.42474 0.36133
 C1075 C 1.05365 0.41752 0.34075
 H1076 H 1.04555 0.40389 0.33285
 O1077 O 1.10885 0.47843 0.42028
 O1078 O 1.13436 0.47835 0.39475
 C1079 C 1.12666 0.47096 0.41261
 C1080 C 1.13822 0.45322 0.42439
 C1081 C 1.15876 0.44581 0.41720
 H1082 H 1.16629 0.45332 0.40303
 O1083 O 0.89115 0.52173 0.42100
 O1084 O 0.86560 0.52185 0.39551
 C1085 C 0.87338 0.52930 0.41329
 C1086 C 0.86209 0.54738 0.42483
 C1087 C 0.84230 0.55593 0.41679
 H1088 H 0.83491 0.54888 0.40230
 O1089 O 0.92150 0.60870 0.47895
 O1090 O 0.89606 0.63426 0.47912
 C1091 C 0.91378 0.62649 0.47150
 C1092 C 0.92515 0.63786 0.45335
 C1093 C 0.91695 0.65765 0.44510
 H1094 H 0.90287 0.66519 0.45280
 O1095 O 1.07921 0.39123 0.47835
 O1096 O 1.10466 0.36567 0.47818
 C1097 C 1.08684 0.37345 0.47080
 C1098 C 1.07508 0.36201 0.45295
 C1099 C 1.08230 0.34156 0.44539
 H1100 H 1.09610 0.33366 0.45322
 O1101 O 1.07880 0.52099 0.39031
 O1102 O 1.10409 0.52091 0.36455
 C1103 C 1.08636 0.52841 0.37242
 C1104 C 1.07473 0.54639 0.36107
 C1105 C 1.08176 0.55375 0.34045
 H1106 H 1.09503 0.54535 0.33226
 O1107 O 0.92104 0.47899 0.39105
 O1108 O 0.89560 0.47905 0.36544
 C1109 C 0.91336 0.47155 0.37320
 C1110 C 0.92496 0.45362 0.36173
 C1111 C 0.91775 0.44621 0.34119
 H1112 H 0.90414 0.45428 0.33322
 O1113 O 1.02187 0.60902 0.42123
 O1114 O 1.02188 0.63467 0.39587
 C1115 C 1.02937 0.62683 0.41363
 C1116 C 1.04728 0.63819 0.42536
 C1117 C 1.05477 0.65871 0.41828
 H1118 H 1.04723 0.66634 0.40418
 O1119 O 0.97845 0.39122 0.42107
 O1120 O 0.97825 0.36557 0.39570
 C1121 C 0.97090 0.37340 0.41352
 C1122 C 0.95306 0.36201 0.42535
 C1123 C 0.94555 0.34149 0.41827
 H1124 H 0.95313 0.33374 0.40424
 O1125 O 1.10928 0.57826 0.47824
 O1126 O 1.13491 0.60362 0.47814
 C1127 C 1.12700 0.58597 0.47058
 C1128 C 1.13816 0.57467 0.45226
 C1129 C 1.15791 0.58284 0.44387
 H1130 H 1.16557 0.59683 0.45156
 O1131 O 0.89111 0.42140 0.47920
 O1132 O 0.86550 0.39602 0.47916
 C1133 C 0.87333 0.41374 0.47164
 C1134 C 0.86207 0.42523 0.45348
 C1135 C 0.84223 0.41722 0.44503
 H1136 H 0.83479 0.40284 0.45221
 Cu1137 Cu 0.99981 0.40866 0.40853
 Cu1138 Cu 0.99958 0.37796 0.37799
 Cu1139 Cu 1.00052 0.59161 0.40875
 Cu1140 Cu 1.00050 0.62227 0.37817
 Cu1141 Cu 0.90881 0.50036 0.40875
 Cu1142 Cu 0.87820 0.50042 0.37810
 Cu1143 Cu 1.09132 0.49971 0.40782
 Cu1144 Cu 1.12180 0.49961 0.37703
 C1145 C 0.94279 0.44316 0.37178
 H1146 H 0.94825 0.44860 0.38775
 C1147 C 0.92803 0.42844 0.33082
 C1148 C 1.05715 0.55703 0.37136
 H1149 H 1.05177 0.55157 0.38735
 C1150 C 1.07178 0.57185 0.33033
 C1151 C 0.87186 0.44351 0.44354
 H1152 H 0.88734 0.44955 0.44970
 C1153 C 0.83238 0.42710 0.42674
 C1154 C 1.12847 0.55644 0.44219
 H1155 H 1.11306 0.55026 0.44837
 C1156 C 1.16780 0.57327 0.42545
 C1157 C 0.94276 0.37211 0.44326
 H1158 H 0.94825 0.38807 0.44862
 C1159 C 0.92789 0.33117 0.42877
 C1160 C 1.05764 0.62805 0.44318
 H1161 H 1.05224 0.61203 0.44845
 C1162 C 1.07231 0.66918 0.42890
 C1163 C 0.94345 0.55727 0.37199
 H1164 H 0.94891 0.55181 0.38795
 C1165 C 0.92866 0.57206 0.33108
 C1166 C 1.05681 0.44261 0.37126
 H1167 H 1.05145 0.44808 0.38726
 C1168 C 1.07132 0.42783 0.33023
 C1169 C 1.05704 0.37196 0.44274
 H1170 H 1.05159 0.38787 0.44827
 C1171 C 1.07179 0.33115 0.42778
 C1172 C 0.94350 0.62834 0.44330
 H1173 H 0.94971 0.61291 0.44937
 C1174 C 0.92660 0.66773 0.42682
 C1175 C 0.87182 0.55711 0.44327
 H1176 H 0.88726 0.55087 0.44933
 C1177 C 0.83243 0.57412 0.42681
 C1178 C 1.12828 0.44293 0.44239
 H1179 H 1.11227 0.44829 0.44778
 C1180 C 1.16937 0.42835 0.42778
 O1181 O 1.02181 0.42079 0.60922
 O1182 O 1.02189 0.39527 0.63472
 C1183 C 1.02929 0.41310 0.62702
 C1184 C 1.04711 0.42477 0.63858
 C1185 C 1.05450 0.41755 0.65912
 H1186 H 1.04683 0.40352 0.66675
 O1187 O 0.97970 0.57897 0.60912
 O1188 O 0.97980 0.60447 0.63464
 C1189 C 0.97227 0.58670 0.62693
 C1190 C 0.95426 0.57527 0.63845
 C1191 C 0.94628 0.58333 0.65842
 H1192 H 0.95409 0.59733 0.66596
 O1193 O 0.89213 0.52141 0.57978
 O1194 O 0.86666 0.52151 0.60536
 C1195 C 0.87438 0.52893 0.58752
 C1196 C 0.86293 0.54691 0.57600
 C1197 C 0.84296 0.55494 0.58398
 H1198 H 0.83537 0.54722 0.59802
 O1199 O 1.10920 0.47821 0.57929
 O1200 O 1.13490 0.47808 0.60464
 C1201 C 1.12705 0.47070 0.58685
 C1202 C 1.13848 0.45290 0.57505
 C1203 C 1.15901 0.44545 0.58219
 H1204 H 1.16675 0.45305 0.59621
 O1205 O 1.07924 0.39113 0.52106
 O1206 O 1.10466 0.36555 0.52093
 C1207 C 1.08689 0.37330 0.52846
 C1208 C 1.07529 0.36181 0.54638
 C1209 C 1.08253 0.34129 0.55374
 H1210 H 1.09613 0.33336 0.54559
 O1211 O 0.92174 0.60862 0.52170
 O1212 O 0.89627 0.63416 0.52186
 C1213 C 0.91408 0.62639 0.52926
 C1214 C 0.92562 0.63778 0.54728
 C1215 C 0.91752 0.65759 0.55555
 H1216 H 0.90339 0.66513 0.54797
 O1217 O 0.92198 0.47871 0.60980
 O1218 O 0.89661 0.47877 0.63548
 C1219 C 0.91436 0.47127 0.62766
 C1220 C 0.92595 0.45329 0.63904
 C1221 C 0.91879 0.44585 0.65959
 H1222 H 0.90539 0.45415 0.66768
 O1223 O 1.07970 0.52107 0.60940
 O1224 O 1.10529 0.52105 0.63484
 C1225 C 1.08753 0.52861 0.62712
 C1226 C 1.07616 0.54677 0.63844
 C1227 C 1.08418 0.55508 0.65834
 H1228 H 1.09852 0.54781 0.66578
 O1229 O 0.97907 0.39098 0.57920
 O1230 O 0.97913 0.36532 0.60456
 C1231 C 0.97159 0.37317 0.58683
 C1232 C 0.95357 0.36182 0.57526
 C1233 C 0.94591 0.34150 0.58269
 H1234 H 0.95358 0.33381 0.59670
 O1235 O 1.02240 0.60892 0.57918
 O1236 O 1.02252 0.63453 0.60458
 C1237 C 1.02997 0.62669 0.58683
 C1238 C 1.04808 0.63790 0.57525
 C1239 C 1.05633 0.65793 0.58295
 H1240 H 1.04904 0.66558 0.59718
 O1241 O 0.89135 0.42148 0.52200
 O1242 O 0.86564 0.39620 0.52201
 C1243 C 0.87353 0.41389 0.52953
 C1244 C 0.86218 0.42553 0.54753
 C1245 C 0.84170 0.41834 0.55504
 H1246 H 0.83409 0.40428 0.54741
 O1247 O 1.10967 0.57805 0.52105
 O1248 O 1.13544 0.60328 0.52095
 C1249 C 1.12759 0.58556 0.52844
 C1250 C 1.13904 0.57386 0.54632
 C1251 C 1.15958 0.58101 0.55373
 H1252 H 1.16758 0.59460 0.54567
 O1253 O 1.02238 0.57893 0.60908
 O1254 O 1.02251 0.60444 0.63458
 C1255 C 1.02993 0.58664 0.62685
 C1256 C 1.04796 0.57513 0.63825
 C1257 C 1.05617 0.58314 0.65815
 H1258 H 1.04850 0.59719 0.66576
 O1259 O 0.97914 0.42075 0.60930
 O1260 O 0.97917 0.39522 0.63479
 C1261 C 0.97170 0.41303 0.62711
 C1262 C 0.95388 0.42469 0.63870
 C1263 C 0.94631 0.41731 0.65912
 H1264 H 0.95374 0.40304 0.66653
 O1265 O 1.10939 0.52077 0.57916
 O1266 O 1.13513 0.52069 0.60447
 C1267 C 1.12733 0.52810 0.58667
 C1268 C 1.13891 0.54577 0.57480
 C1269 C 1.15948 0.55313 0.58194
 H1270 H 1.16715 0.54552 0.59600
 O1271 O 0.89180 0.47882 0.57998
 O1272 O 0.86628 0.47887 0.60551
 C1273 C 0.87394 0.47144 0.58765
 C1274 C 0.86232 0.45370 0.57590
 C1275 C 0.84168 0.44646 0.58300
 H1276 H 0.83373 0.45468 0.59654
 O1277 O 1.07987 0.60817 0.52144
 O1278 O 1.10556 0.63349 0.52142
 C1279 C 1.08774 0.62587 0.52894
 C1280 C 1.07637 0.63738 0.54698
 C1281 C 1.08436 0.65739 0.55487
 H1282 H 1.09836 0.66493 0.54703
 O1283 O 0.92106 0.39132 0.52185
 O1284 O 0.89549 0.36589 0.52198
 C1285 C 0.91334 0.37355 0.52937
 C1286 C 0.92501 0.36204 0.54724
 C1287 C 0.91757 0.34171 0.55492
 H1288 H 0.90370 0.33392 0.54710
 O1289 O 1.07938 0.47840 0.60943
 O1290 O 1.10491 0.47829 0.63493
 C1291 C 1.08706 0.47091 0.62723
 C1292 C 1.07537 0.45305 0.63870
 C1293 C 1.08252 0.44560 0.65925
 H1294 H 1.09615 0.45363 0.66725
 O1295 O 0.92195 0.52139 0.60987
 O1296 O 0.89658 0.52153 0.63555
 C1297 C 0.91433 0.52897 0.62767
 C1298 C 0.92592 0.54707 0.63890
 C1299 C 0.91813 0.55543 0.65888
 H1300 H 0.90383 0.54824 0.66648
 O1301 O 0.97967 0.60896 0.57921
 O1302 O 0.97974 0.63455 0.60464
 C1303 C 0.97218 0.62674 0.58690
 C1304 C 0.95404 0.63803 0.57545
 C1305 C 0.94566 0.65787 0.58351
 H1306 H 0.95291 0.66532 0.59786
 O1307 O 1.02178 0.39099 0.57907
 O1308 O 1.02189 0.36533 0.60442
 C1309 C 1.02929 0.37316 0.58662
 C1310 C 1.04713 0.36174 0.57482
 C1311 C 1.05464 0.34124 0.58197
 H1312 H 1.04706 0.33354 0.59602
 O1313 O 1.10923 0.42098 0.52114
 O1314 O 1.13480 0.39553 0.52105
 C1315 C 1.12703 0.41326 0.52861
 C1316 C 1.13847 0.42479 0.54660
 C1317 C 1.15896 0.41751 0.55404
 H1318 H 1.16690 0.40386 0.54599
 O1319 O 0.89159 0.57885 0.52182
 O1320 O 0.86606 0.60432 0.52200
 C1321 C 0.87385 0.58656 0.52945
 C1322 C 0.86259 0.57508 0.54761
 C1323 C 0.84261 0.58293 0.55590
 H1324 H 0.83505 0.59720 0.54860
 Cu1325 Cu 1.00046 0.40843 0.59165
 Cu1326 Cu 1.00054 0.37771 0.62217
 Cu1327 Cu 1.00103 0.59141 0.59157
 Cu1328 Cu 1.00114 0.62206 0.62217
 Cu1329 Cu 0.90869 0.40897 0.50055
 Cu1330 Cu 0.87796 0.37849 0.50061
 Cu1331 Cu 1.09167 0.40869 0.49974
 Cu1332 Cu 1.12228 0.37807 0.49959
 Cu1333 Cu 0.90911 0.59118 0.50037
 Cu1334 Cu 0.87853 0.62184 0.50057
 Cu1335 Cu 1.09204 0.59068 0.49988
 Cu1336 Cu 1.12286 0.62109 0.49982
 Cu1337 Cu 0.90953 0.50005 0.59232
 Cu1338 Cu 0.87899 0.50016 0.62306
 Cu1339 Cu 1.09183 0.49962 0.59181
 Cu1340 Cu 1.12262 0.49951 0.62230
 C1341 C 1.05752 0.44266 0.62863
 H1342 H 1.05210 0.44812 0.61265
 C1343 C 1.07218 0.42786 0.66959
 C1344 C 0.94412 0.55700 0.62893
 H1345 H 0.94999 0.55091 0.61334
 C1346 C 0.92816 0.57363 0.66869
 C1347 C 0.87250 0.55694 0.55767
 H1348 H 0.88808 0.55103 0.55162
 C1349 C 0.83274 0.57301 0.57415
 C1350 C 1.12846 0.44261 0.55710
 H1351 H 1.11251 0.44811 0.55167
 C1352 C 1.16936 0.42777 0.57180
 C1353 C 1.05744 0.37178 0.55690
 H1354 H 1.05195 0.38773 0.55149
 C1355 C 1.07232 0.33088 0.57152
 C1356 C 0.94402 0.62824 0.55720
 H1357 H 0.95014 0.61276 0.55113
 C1358 C 0.92733 0.66769 0.57373
 C1359 C 0.94367 0.44277 0.62888
 H1360 H 0.94915 0.44830 0.61295
 C1361 C 0.92880 0.42781 0.66976
 C1362 C 1.05793 0.55680 0.62864
 H1363 H 1.05188 0.55074 0.61312
 C1364 C 1.07433 0.57333 0.66826
 C1365 C 0.94315 0.37185 0.55740
 H1366 H 0.94878 0.38767 0.55178
 C1367 C 0.92792 0.33131 0.57263
 C1368 C 1.05809 0.62789 0.55714
 H1369 H 1.05205 0.61229 0.55132
 C1370 C 1.07454 0.66775 0.57289
 C1371 C 0.87228 0.44330 0.55798
 H1372 H 0.88827 0.44867 0.55253
 C1373 C 0.83122 0.42874 0.57270
 C1374 C 1.12894 0.55610 0.55684
 H1375 H 1.11295 0.55071 0.55143
 C1376 C 1.16992 0.57074 0.57152
 O1377 O 0.47741 0.92122 0.39089
 O1378 O 0.47722 0.89563 0.36546
 C1379 C 0.46990 0.91351 0.37310
 C1380 C 0.45213 0.92523 0.36153
 C1381 C 0.44480 0.91810 0.34094
 H1382 H 0.45251 0.90412 0.33324
 O1383 O 0.52095 1.07859 0.39041
 O1384 O 0.52103 1.10403 0.36483
 C1385 C 0.52838 1.08619 0.37254
 C1386 C 0.54609 1.07438 0.36094
 C1387 C 0.55341 1.08150 0.34034
 H1388 H 0.54574 1.09549 0.33264
 O1389 O 0.39042 0.97919 0.42103
 O1390 O 0.36469 0.97922 0.39573
 C1391 C 0.37251 0.97181 0.41353
 C1392 C 0.36097 0.95411 0.42541
 C1393 C 0.34048 0.94662 0.41821
 H1394 H 0.33284 0.95413 0.40409
 O1395 O 0.60856 1.02082 0.41989
 O1396 O 0.63403 1.02069 0.39432
 C1397 C 0.62639 1.02818 0.41216
 C1398 C 0.63804 1.04591 0.42387
 C1399 C 0.65854 1.05332 0.41655
 H1400 H 0.66608 1.04576 0.40239
 O1401 O 0.41992 0.89196 0.47939
 O1402 O 0.39436 0.86652 0.47947
 C1403 C 0.41218 0.87416 0.47198
 C1404 C 0.42377 0.86261 0.45409
 C1405 C 0.41662 0.84199 0.44692
 H1406 H 0.40322 0.83402 0.45532
 O1407 O 0.57913 1.10764 0.47804
 O1408 O 0.60474 1.13303 0.47785
 C1409 C 0.58688 1.12535 0.47046
 C1410 C 0.57538 1.13683 0.45247
 C1411 C 0.58342 1.15676 0.44445
 H1412 H 0.59750 1.16427 0.45217
 O1413 O 0.42040 1.02155 0.39071
 O1414 O 0.39488 1.02161 0.36519
 C1415 C 0.41272 1.02901 0.37289
 C1416 C 0.42446 1.04679 0.36135
 C1417 C 0.41721 1.05429 0.34086
 H1418 H 0.40304 1.04679 0.33332
 O1419 O 0.57842 0.97809 0.39029
 O1420 O 0.60379 0.97777 0.36462
 C1421 C 0.58604 0.97039 0.37254
 C1422 C 0.57435 0.95231 0.36138
 C1423 C 0.58209 0.94383 0.34143
 H1424 H 0.59659 0.95079 0.33399
 O1425 O 0.51998 0.89123 0.42101
 O1426 O 0.51974 0.86548 0.39575
 C1427 C 0.52732 0.87333 0.41345
 C1428 C 0.54526 0.86189 0.42508
 C1429 C 0.55261 0.84134 0.41791
 H1430 H 0.54444 0.83333 0.40438
 O1431 O 0.47842 1.10869 0.42047
 O1432 O 0.47842 1.13425 0.39502
 C1433 C 0.47091 1.12647 0.41279
 C1434 C 0.45281 1.13777 0.42433
 C1435 C 0.44432 1.15755 0.41626
 H1436 H 0.45142 1.16493 0.40179
 O1437 O 0.39101 1.07882 0.47886
 O1438 O 0.36557 1.10438 0.47900
 C1439 C 0.37321 1.08660 0.47146
 C1440 C 0.36170 1.07529 0.45337
 C1441 C 0.34175 1.08338 0.44538
 H1442 H 0.33409 1.09715 0.45347
 O1443 O 0.60832 0.92112 0.47828
 O1444 O 0.63378 0.89557 0.47819
 C1445 C 0.62609 0.91338 0.47077
 C1446 C 0.63762 0.92497 0.45287
 C1447 C 0.65821 0.91780 0.44558
 H1448 H 0.66615 0.90421 0.45371
 O1449 O 0.47833 1.07875 0.39051
 O1450 O 0.47837 1.10417 0.36491
 C1451 C 0.47089 1.08641 0.37267
 C1452 C 0.45298 1.07479 0.36121
 C1453 C 0.44567 1.08190 0.34060
 H1454 H 0.45398 1.09531 0.33256
 O1455 O 0.52009 0.92117 0.39103
 O1456 O 0.51990 0.89552 0.36567
 C1457 C 0.52749 0.91331 0.37327
 C1458 C 0.54558 0.92457 0.36172
 C1459 C 0.55333 0.91656 0.34164
 H1460 H 0.54511 0.90287 0.33398
 O1461 O 0.60838 0.97829 0.42021
 O1462 O 0.63392 0.97808 0.39470
 C1463 C 0.62620 0.97079 0.41259
 C1464 C 0.63771 0.95309 0.42444
 C1465 C 0.65832 0.94573 0.41742
 H1466 H 0.66610 0.95337 0.40344
 O1467 O 0.39050 1.02181 0.42067
 O1468 O 0.36483 1.02195 0.39530
 C1469 C 0.37274 1.02942 0.41302
 C1470 C 0.36154 1.04751 0.42462
 C1471 C 0.34174 1.05607 0.41665
 H1472 H 0.33447 1.04915 0.40204
 O1473 O 0.42113 1.10860 0.47858
 O1474 O 0.39572 1.13420 0.47873
 C1475 C 0.41340 1.12637 0.47108
 C1476 C 0.42471 1.13765 0.45284
 C1477 C 0.41649 1.15742 0.44455
 H1478 H 0.40246 1.16500 0.45228
 O1479 O 0.57808 0.89138 0.47837
 O1480 O 0.60344 0.86572 0.47824
 C1481 C 0.58562 0.87353 0.47088
 C1482 C 0.57378 0.86201 0.45313
 C1483 C 0.58094 0.84148 0.44570
 H1484 H 0.59503 0.83385 0.45327
 O1485 O 0.57837 1.02076 0.39014
 O1486 O 0.60367 1.02057 0.36439
 C1487 C 0.58595 1.02812 0.37224
 C1488 C 0.57428 1.04601 0.36080
 C1489 C 0.58140 1.05339 0.34022
 H1490 H 0.59501 1.04535 0.33221
 O1491 O 0.42004 0.97892 0.39069
 O1492 O 0.39448 0.97891 0.36521
 C1493 C 0.41229 0.97144 0.37291
 C1494 C 0.42388 0.95352 0.36145
 C1495 C 0.41675 0.94614 0.34087
 H1496 H 0.40315 0.95421 0.33286
 O1497 O 0.52117 1.10848 0.42044
 O1498 O 0.52129 1.13406 0.39501
 C1499 C 0.52879 1.12620 0.41275
 C1500 C 0.54697 1.13736 0.42428
 C1501 C 0.55530 1.15732 0.41648
 H1502 H 0.54801 1.16496 0.40223
 O1503 O 0.47725 0.89166 0.42125
 O1504 O 0.47701 0.86595 0.39595
 C1505 C 0.46964 0.87387 0.41372
 C1506 C 0.45177 0.86254 0.42553
 C1507 C 0.44422 0.84206 0.41841
 H1508 H 0.45170 0.83445 0.40426
 O1509 O 0.60928 1.07787 0.47806
 O1510 O 0.63496 1.10318 0.47795
 C1511 C 0.62710 1.08546 0.47050
 C1512 C 0.63841 1.07386 0.45246
 C1513 C 0.65890 1.08103 0.44493
 H1514 H 0.66698 1.09453 0.45306
 O1515 O 0.39014 0.92212 0.47944
 O1516 O 0.36445 0.89682 0.47953
 C1517 C 0.37228 0.91453 0.47200
 C1518 C 0.36086 0.92611 0.45400
 C1519 C 0.34037 0.91886 0.44654
 H1520 H 0.33239 0.90529 0.45466
 Cu1521 Cu 0.49869 0.90888 0.40859
 Cu1522 Cu 0.49844 0.87807 0.37816
 Cu1523 Cu 0.49972 1.09111 0.40803
 Cu1524 Cu 0.49979 1.12172 0.37741
 Cu1525 Cu 0.40790 1.00035 0.40831
 Cu1526 Cu 0.37713 1.00040 0.37781
 Cu1527 Cu 0.59087 0.99952 0.40767
 Cu1528 Cu 0.62139 0.99927 0.37690
 C1529 C 0.44170 0.94308 0.37153
 H1530 H 0.44709 0.94848 0.38753
 C1531 C 0.42715 0.92846 0.33046
 C1532 C 0.55649 1.05649 0.37092
 H1533 H 0.55112 1.05110 0.38693
 C1534 C 0.57104 1.07111 0.32987
 C1535 C 0.37092 0.94388 0.44345
 H1536 H 0.38687 0.94936 0.44891
 C1537 C 0.33005 0.92901 0.42867
 C1538 C 0.62823 1.05616 0.44195
 H1539 H 0.61229 1.05074 0.44749
 C1540 C 0.66910 1.07087 0.42698
 C1541 C 0.44152 0.87261 0.44347
 H1542 H 0.44699 0.88858 0.44880
 C1543 C 0.42671 0.83158 0.42904
 C1544 C 0.55702 1.12736 0.44241
 H1545 H 0.55094 1.11180 0.44830
 C1546 C 0.57360 1.16706 0.42641
 C1547 C 0.44244 1.05706 0.37130
 H1548 H 0.44787 1.05163 0.38728
 C1549 C 0.42774 1.07180 0.33029
 C1550 C 0.55602 0.94262 0.37132
 H1551 H 0.55024 0.94875 0.38692
 C1552 C 0.57170 0.92591 0.33143
 C1553 C 0.55581 0.87197 0.44284
 H1554 H 0.55042 0.88794 0.44827
 C1555 C 0.57045 0.83100 0.42812
 C1556 C 0.44300 1.12807 0.44274
 H1557 H 0.44921 1.11264 0.44884
 C1558 C 0.42609 1.16743 0.42621
 C1559 C 0.37131 1.05717 0.44305
 H1560 H 0.38682 1.05098 0.44900
 C1561 C 0.33170 1.07405 0.42690
 C1562 C 0.62762 0.94275 0.44232
 H1563 H 0.61160 0.94815 0.44766
 C1564 C 0.66869 0.92810 0.42789
 O1565 O 0.52129 0.92103 0.60909
 O1566 O 0.52131 0.89551 0.63459
 C1567 C 0.52885 0.91326 0.62683
 C1568 C 0.54700 0.92461 0.63819
 C1569 C 0.55514 0.91651 0.65808
 H1570 H 0.54740 0.90249 0.66566
 O1571 O 0.47947 1.07907 0.60910
 O1572 O 0.47972 1.10469 0.63450
 C1573 C 0.47215 1.08689 0.62691
 C1574 C 0.45418 1.07552 0.63854
 C1575 C 0.44636 1.08353 0.65859
 H1576 H 0.45428 1.09745 0.66615
 O1577 O 0.39159 1.02193 0.57994
 O1578 O 0.36608 1.02214 0.60548
 C1579 C 0.37380 1.02945 0.58760
 C1580 C 0.36227 1.04719 0.57580
 C1581 C 0.34170 1.05454 0.58290
 H1582 H 0.33378 1.04659 0.59663
 O1583 O 0.60893 0.97841 0.57925
 O1584 O 0.63464 0.97822 0.60458
 C1585 C 0.62673 0.97082 0.58682
 C1586 C 0.63793 0.95276 0.57514
 C1587 C 0.65785 0.94435 0.58295
 H1588 H 0.66540 0.95146 0.59732
 O1589 O 0.57822 0.89137 0.52110
 O1590 O 0.60360 0.86574 0.52094
 C1591 C 0.58589 0.87355 0.52853
 C1592 C 0.57448 0.86213 0.54661
 C1593 C 0.58254 0.84221 0.55462
 H1594 H 0.59650 0.83462 0.54677
 O1595 O 0.42145 1.10872 0.52135
 O1596 O 0.39600 1.13428 0.52149
 C1597 C 0.41381 1.12652 0.52888
 C1598 C 0.42534 1.13790 0.54692
 C1599 C 0.41731 1.15779 0.55509
 H1600 H 0.40345 1.16547 0.54717
 O1601 O 0.42145 0.97921 0.60988
 O1602 O 0.39616 0.97944 0.63563
 C1603 C 0.41385 0.97184 0.62777
 C1604 C 0.42542 0.95385 0.63916
 C1605 C 0.41813 0.94635 0.65963
 H1606 H 0.40453 0.95443 0.66762
 O1607 O 0.57937 1.02116 0.60942
 O1608 O 0.60493 1.02110 0.63490
 C1609 C 0.58719 1.02869 0.62715
 C1610 C 0.57586 1.04694 0.63838
 C1611 C 0.58390 1.05534 0.65822
 H1612 H 0.59819 1.04803 0.66575
 O1613 O 0.47819 0.89132 0.57944
 O1614 O 0.47815 0.86573 0.60486
 C1615 C 0.47060 0.87359 0.58714
 C1616 C 0.45240 0.86240 0.57569
 C1617 C 0.44414 0.84242 0.58351
 H1618 H 0.45148 0.83484 0.59775
 O1619 O 0.52191 1.10880 0.57857
 O1620 O 0.52210 1.13458 0.60380
 C1621 C 0.52944 1.12666 0.58603
 C1622 C 0.54731 1.13797 0.57419
 C1623 C 0.55487 1.15846 0.58127
 H1624 H 0.54691 1.16652 0.59490
 O1625 O 0.39024 0.92195 0.52226
 O1626 O 0.36455 0.89664 0.52240
 C1627 C 0.37249 0.91431 0.52992
 C1628 C 0.36137 0.92580 0.54816
 C1629 C 0.34144 0.91801 0.55658
 H1630 H 0.33402 0.90360 0.54945
 O1631 O 0.60918 1.07779 0.52087
 O1632 O 0.63475 1.10321 0.52072
 C1633 C 0.62698 1.08550 0.52832
 C1634 C 0.63838 1.07418 0.54649
 C1635 C 0.65837 1.08217 0.55446
 H1636 H 0.66611 1.09587 0.54633
 O1637 O 0.52215 1.07910 0.60883
 O1638 O 0.52242 1.10479 0.63416
 C1639 C 0.52979 1.08693 0.62651
 C1640 C 0.54783 1.07547 0.63795
 C1641 C 0.55608 1.08359 0.65778
 H1642 H 0.54851 1.09774 0.66529
 O1643 O 0.47861 0.92117 0.60951
 O1644 O 0.47858 0.89571 0.63506
 C1645 C 0.47120 0.91356 0.62738
 C1646 C 0.45347 0.92534 0.63899
 C1647 C 0.44593 0.91806 0.65946
 H1648 H 0.45344 0.90392 0.66705
 O1649 O 0.60921 1.02103 0.57939
 O1650 O 0.63490 1.02098 0.60473
 C1651 C 0.62705 1.02849 0.58699
 C1652 C 0.63839 1.04647 0.57533
 C1653 C 0.65826 1.05493 0.58326
 H1654 H 0.66552 1.04800 0.59787
 O1655 O 0.39130 0.97936 0.58007
 O1656 O 0.36588 0.97952 0.60570
 C1657 C 0.37348 0.97202 0.58784
 C1658 C 0.36183 0.95415 0.57635
 C1659 C 0.34172 0.94639 0.58426
 H1660 H 0.33410 0.95448 0.59806
 O1661 O 0.57950 1.10809 0.52075
 O1662 O 0.60500 1.13359 0.52053
 C1663 C 0.58720 1.12595 0.52807
 C1664 C 0.57556 1.13763 0.54585
 C1665 C 0.58289 1.15814 0.55316
 H1666 H 0.59694 1.16570 0.54543
 O1667 O 0.42019 0.89206 0.52206
 O1668 O 0.39458 0.86666 0.52216
 C1669 C 0.41244 0.87431 0.52957
 C1670 C 0.42398 0.86281 0.54752
 C1671 C 0.41601 0.84285 0.55554
 H1672 H 0.40196 0.83529 0.54782
 O1673 O 0.57920 0.97848 0.60944
 O1674 O 0.60476 0.97828 0.63492
 C1675 C 0.58694 0.97088 0.62718
 C1676 C 0.57538 0.95280 0.63847
 C1677 C 0.58330 0.94441 0.65839
 H1678 H 0.59766 0.95159 0.66590
 O1679 O 0.42155 1.02189 0.60993
 O1680 O 0.39618 1.02218 0.63561
 C1681 C 0.41397 1.02951 0.62774
 C1682 C 0.42569 1.04749 0.63899
 C1683 C 0.41804 1.05579 0.65905
 H1684 H 0.40373 1.04863 0.66667
 O1685 O 0.47917 1.10892 0.57908
 O1686 O 0.47933 1.13460 0.60440
 C1687 C 0.47166 1.12670 0.58676
 C1688 C 0.45345 1.13794 0.57537
 C1689 C 0.44493 1.15767 0.58354
 H1690 H 0.45199 1.16486 0.59812
 O1691 O 0.52092 0.89100 0.57922
 O1692 O 0.52097 0.86538 0.60461
 C1693 C 0.52841 0.87318 0.58682
 C1694 C 0.54640 0.86185 0.57514
 C1695 C 0.55476 0.84191 0.58296
 H1696 H 0.54763 0.83439 0.59734
 O1697 O 0.60829 0.92119 0.52106
 O1698 O 0.63372 0.89561 0.52093
 C1699 C 0.62605 0.91337 0.52852
 C1700 C 0.63754 0.92469 0.54663
 C1701 C 0.65744 0.91654 0.55468
 H1702 H 0.66497 0.90252 0.54689
 O1703 O 0.39128 1.07894 0.52162
 O1704 O 0.36575 1.10442 0.52171
 C1705 C 0.37351 1.08665 0.52917
 C1706 C 0.36209 1.07510 0.54716
 C1707 C 0.34151 1.08223 0.55451
 H1708 H 0.33370 1.09607 0.54666
 Cu1709 Cu 0.49974 0.90866 0.59175
 Cu1710 Cu 0.49975 0.87801 0.62233
 Cu1711 Cu 0.50067 1.09142 0.59134
 Cu1712 Cu 0.50094 1.12225 0.62176
 Cu1713 Cu 0.40766 0.90958 0.50076
 Cu1714 Cu 0.37689 0.87913 0.50087
 Cu1715 Cu 0.59070 0.90884 0.49968
 Cu1716 Cu 0.62119 0.87810 0.49954
 Cu1717 Cu 0.40876 1.09121 0.50010
 Cu1718 Cu 0.37822 1.12190 0.50026
 Cu1719 Cu 0.59173 1.09029 0.49946
 Cu1720 Cu 0.62244 1.12079 0.49925
 Cu1721 Cu 0.40903 1.00058 0.59241
 Cu1722 Cu 0.37854 1.00084 0.62320
 Cu1723 Cu 0.59161 0.99978 0.59185
 Cu1724 Cu 0.62237 0.99962 0.62235
 C1725 C 0.55710 0.94289 0.62863
 H1726 H 0.55111 0.94902 0.61310
 C1727 C 0.57334 0.92620 0.66824
 C1728 C 0.44389 1.05736 0.62899
 H1729 H 0.44964 1.05130 0.61335
 C1730 C 0.42824 1.07387 0.66892
 C1731 C 0.37223 1.05744 0.55779
 H1732 H 0.38823 1.05204 0.55240
 C1733 C 0.33117 1.07204 0.57236
 C1734 C 0.62802 0.94294 0.55684
 H1735 H 0.61249 0.94910 0.55093
 C1736 C 0.66766 0.92617 0.57288
 C1737 C 0.55627 0.87172 0.55684
 H1738 H 0.55018 0.88727 0.55094
 C1739 C 0.57292 0.83204 0.57285
 C1740 C 0.44360 1.12826 0.55699
 H1741 H 0.44974 1.11280 0.55090
 C1742 C 0.42681 1.16772 0.57354
 C1743 C 0.44323 0.94337 0.62909
 H1744 H 0.44874 0.94888 0.61316
 C1745 C 0.42827 0.92845 0.66990
 C1746 C 0.55769 1.05700 0.62849
 H1747 H 0.55161 1.05086 0.61301
 C1748 C 0.57416 1.07373 0.66799
 C1749 C 0.44231 0.87235 0.55756
 H1750 H 0.44835 0.88791 0.55166
 C1751 C 0.42589 0.83258 0.57358
 C1752 C 0.55763 1.12780 0.55634
 H1753 H 0.55209 1.11185 0.55100
 C1754 C 0.57266 1.16867 0.57086
 C1755 C 0.37137 0.94394 0.55811
 H1756 H 0.38698 0.94973 0.55203
 C1757 C 0.33145 0.92819 0.57466
 C1758 C 0.62866 1.05614 0.55686
 H1759 H 0.61312 1.05004 0.55094
 C1760 C 0.66837 1.07284 0.57297
 O1761 O 0.47827 0.42060 0.89065
 O1762 O 0.47804 0.39506 0.86516
 C1763 C 0.47075 0.41295 0.87285
 C1764 C 0.45295 0.42471 0.86134
 C1765 C 0.44568 0.41768 0.84071
 H1766 H 0.45398 0.40425 0.83267
 O1767 O 0.52138 0.57831 0.89114
 O1768 O 0.52147 0.60389 0.86570
 C1769 C 0.52888 0.58605 0.87337
 C1770 C 0.54683 0.57454 0.86184
 C1771 C 0.55491 0.58263 0.84194
 H1772 H 0.54724 0.59674 0.83446
 O1773 O 0.39114 0.47881 0.92083
 O1774 O 0.36543 0.47890 0.89549
 C1775 C 0.37322 0.47146 0.91329
 C1776 C 0.36171 0.45371 0.92509
 C1777 C 0.34122 0.44625 0.91787
 H1778 H 0.33330 0.45421 0.90415
 O1779 O 0.60839 0.51997 0.92026
 O1780 O 0.63394 0.51992 0.89476
 C1781 C 0.62623 0.52736 0.91259
 C1782 C 0.63778 0.54522 0.92416
 C1783 C 0.65780 0.55315 0.91619
 H1784 H 0.66535 0.54540 0.90215
 O1785 O 0.42095 0.39156 0.97898
 O1786 O 0.39530 0.36622 0.97908
 C1787 C 0.41314 0.37380 0.97157
 C1788 C 0.42451 0.36221 0.95355
 C1789 C 0.41657 0.34209 0.94589
 H1790 H 0.40290 0.33443 0.95416
 O1791 O 0.57934 0.60736 0.97843
 O1792 O 0.60500 0.63270 0.97834
 C1793 C 0.58712 0.62511 0.97095
 C1794 C 0.57561 0.63670 0.95304
 C1795 C 0.58364 0.65667 0.94510
 H1796 H 0.59769 0.66416 0.95289
 O1797 O 0.42126 0.52105 0.89055
 O1798 O 0.39577 0.52117 0.86500
 C1799 C 0.41363 0.52852 0.87272
 C1800 C 0.42538 0.54632 0.86124
 C1801 C 0.41828 0.55374 0.84067
 H1802 H 0.40436 0.54604 0.83286
 O1803 O 0.57836 0.47753 0.89009
 O1804 O 0.60379 0.47748 0.86447
 C1805 C 0.58600 0.47006 0.87225
 C1806 C 0.57434 0.45217 0.86081
 C1807 C 0.58163 0.44460 0.84037
 H1808 H 0.59565 0.45223 0.83267
 O1809 O 0.52079 0.39053 0.92066
 O1810 O 0.52065 0.36482 0.89537
 C1811 C 0.52823 0.37269 0.91307
 C1812 C 0.54630 0.36142 0.92467
 C1813 C 0.55457 0.34143 0.91688
 H1814 H 0.54735 0.33390 0.90255
 O1815 O 0.47873 0.60833 0.92114
 O1816 O 0.47871 0.63392 0.89572
 C1817 C 0.47121 0.62610 0.91347
 C1818 C 0.45308 0.63737 0.92497
 C1819 C 0.44455 0.65710 0.91683
 H1820 H 0.45168 0.66448 0.90237
 O1821 O 0.39143 0.57816 0.97931
 O1822 O 0.36590 0.60364 0.97941
 C1823 C 0.37364 0.58589 0.97185
 C1824 C 0.36226 0.57459 0.95365
 C1825 C 0.34225 0.58260 0.94571
 H1826 H 0.33447 0.59621 0.95395
 O1827 O 0.60869 0.42053 0.97852
 O1828 O 0.63422 0.39505 0.97855
 C1829 C 0.62647 0.41279 0.97101
 C1830 C 0.63785 0.42423 0.95291
 C1831 C 0.65831 0.41691 0.94538
 H1832 H 0.66631 0.40336 0.95352
 O1833 O 0.47875 0.57864 0.89091
 O1834 O 0.47881 0.60412 0.86537
 C1835 C 0.47135 0.58632 0.87306
 C1836 C 0.45355 0.57467 0.86146
 C1837 C 0.44622 0.58188 0.84091
 H1838 H 0.45424 0.59557 0.83303
 O1839 O 0.52087 0.42008 0.89034
 O1840 O 0.52072 0.39451 0.86489
 C1841 C 0.52826 0.41230 0.87253
 C1842 C 0.54616 0.42384 0.86097
 C1843 C 0.55367 0.41648 0.84051
 H1844 H 0.54570 0.40275 0.83265
 O1845 O 0.60831 0.47739 0.92011
 O1846 O 0.63388 0.47730 0.89463
 C1847 C 0.62613 0.46991 0.91247
 C1848 C 0.63765 0.45213 0.92425
 C1849 C 0.65809 0.44458 0.91696
 H1850 H 0.66568 0.45206 0.90279
 O1851 O 0.39138 0.52142 0.92059
 O1852 O 0.36575 0.52162 0.89519
 C1853 C 0.37363 0.52905 0.91295
 C1854 C 0.36235 0.54707 0.92463
 C1855 C 0.34251 0.55559 0.91669
 H1856 H 0.33532 0.54876 0.90200
 O1857 O 0.42129 0.60815 0.97911
 O1858 O 0.39582 0.63368 0.97916
 C1859 C 0.41354 0.62589 0.97157
 C1860 C 0.42486 0.63719 0.95335
 C1861 C 0.41657 0.65688 0.94495
 H1862 H 0.40242 0.66440 0.95254
 O1863 O 0.57840 0.39095 0.97855
 O1864 O 0.60383 0.36538 0.97853
 C1865 C 0.58605 0.37316 0.97105
 C1866 C 0.57453 0.36173 0.95305
 C1867 C 0.58245 0.34172 0.94511
 H1868 H 0.59638 0.33409 0.95297
 O1869 O 0.57858 0.52023 0.89018
 O1870 O 0.60402 0.52025 0.86457
 C1871 C 0.58632 0.52782 0.87243
 C1872 C 0.57491 0.54607 0.86127
 C1873 C 0.58283 0.55449 0.84136
 H1874 H 0.59709 0.54721 0.83375
 O1875 O 0.42086 0.47840 0.89063
 O1876 O 0.39532 0.47846 0.86513
 C1877 C 0.41308 0.47090 0.87286
 C1878 C 0.42463 0.45293 0.86140
 C1879 C 0.41738 0.44546 0.84089
 H1880 H 0.40328 0.45306 0.83332
 O1881 O 0.52148 0.60838 0.92096
 O1882 O 0.52153 0.63405 0.89562
 C1883 C 0.52905 0.62615 0.91333
 C1884 C 0.54722 0.63730 0.92486
 C1885 C 0.55557 0.65726 0.91708
 H1886 H 0.54829 0.66488 0.90282
 O1887 O 0.47806 0.39069 0.92061
 O1888 O 0.47777 0.36499 0.89530
 C1889 C 0.47038 0.37294 0.91304
 C1890 C 0.45230 0.36181 0.92477
 C1891 C 0.44387 0.34185 0.91711
 H1892 H 0.45086 0.33440 0.90262
 O1893 O 0.60926 0.57731 0.97832
 O1894 O 0.63497 0.60259 0.97820
 C1895 C 0.62706 0.58490 0.97072
 C1896 C 0.63827 0.57336 0.95258
 C1897 C 0.65829 0.58110 0.94430
 H1898 H 0.66591 0.59533 0.95161
 O1899 O 0.39098 0.42159 0.97894
 O1900 O 0.36527 0.39631 0.97901
 C1901 C 0.37311 0.41401 0.97149
 C1902 C 0.36165 0.42563 0.95356
 C1903 C 0.34118 0.41835 0.94606
 H1904 H 0.33351 0.40436 0.95375
 Cu1905 Cu 0.49952 0.40801 0.90812
 Cu1906 Cu 0.49926 0.37724 0.87765
 Cu1907 Cu 0.50006 0.59088 0.90861
 Cu1908 Cu 0.50013 0.62159 0.87806
 Cu1909 Cu 0.40872 0.49990 0.90818
 Cu1910 Cu 0.37799 0.50004 0.87765
 Cu1911 Cu 0.59083 0.49877 0.90768
 Cu1912 Cu 0.62146 0.49871 0.87703
 C1913 C 0.44251 0.44252 0.87141
 H1914 H 0.44793 0.44791 0.88740
 C1915 C 0.42784 0.42787 0.83034
 C1916 C 0.55679 0.55612 0.87127
 H1917 H 0.55082 0.54999 0.88680
 C1918 C 0.57298 0.57285 0.83165
 C1919 C 0.37168 0.44344 0.94308
 H1920 H 0.38761 0.44893 0.94856
 C1921 C 0.33083 0.42856 0.92823
 C1922 C 0.62826 0.55529 0.94250
 H1923 H 0.61264 0.54946 0.94853
 C1924 C 0.66812 0.57115 0.92605
 C1925 C 0.44256 0.37179 0.94307
 H1926 H 0.44863 0.38742 0.94879
 C1927 C 0.42597 0.33184 0.92755
 C1928 C 0.55725 0.62727 0.94297
 H1929 H 0.55117 0.61170 0.94882
 C1930 C 0.57384 0.66702 0.92706
 C1931 C 0.44316 0.55675 0.87138
 H1932 H 0.44853 0.55131 0.88738
 C1933 C 0.42861 0.57151 0.83038
 C1934 C 0.55647 0.44182 0.87086
 H1935 H 0.55096 0.44739 0.88676
 C1936 C 0.57139 0.42678 0.83007
 C1937 C 0.55630 0.37134 0.94287
 H1938 H 0.55030 0.38694 0.94873
 C1939 C 0.57272 0.33152 0.92695
 C1940 C 0.44324 0.62767 0.94337
 H1941 H 0.44950 0.61229 0.94952
 C1942 C 0.42623 0.66689 0.92665
 C1943 C 0.37203 0.55664 0.94318
 H1944 H 0.38757 0.55051 0.94910
 C1945 C 0.33233 0.57340 0.92710
 C1946 C 0.62777 0.44198 0.94236
 H1947 H 0.61187 0.44753 0.94789
 C1948 C 0.66857 0.42700 0.92743
 O1949 O 0.52154 0.42041 1.10944
 O1950 O 0.52155 0.39485 1.13491
 C1951 C 0.52906 0.41262 1.12719
 C1952 C 0.54698 0.42418 1.13870
 C1953 C 0.55453 0.41677 1.15911
 H1954 H 0.54704 0.40253 1.16652
 O1955 O 0.47946 0.57855 1.10943
 O1956 O 0.47955 0.60418 1.13482
 C1957 C 0.47203 0.58636 1.12721
 C1958 C 0.45398 0.57499 1.13873
 C1959 C 0.44611 0.58295 1.15879
 H1960 H 0.45429 0.59664 1.16649
 O1961 O 0.39145 0.52113 1.08007
 O1962 O 0.36588 0.52118 1.10554
 C1963 C 0.37362 0.52858 1.08771
 C1964 C 0.36216 0.54643 1.07601
 C1965 C 0.34174 0.55401 1.08332
 H1966 H 0.33381 0.54607 1.09705
 O1967 O 0.60867 0.47794 1.07955
 O1968 O 0.63439 0.47780 1.10487
 C1969 C 0.62651 0.47042 1.08708
 C1970 C 0.63789 0.45258 1.07528
 C1971 C 0.65835 0.44501 1.08249
 H1972 H 0.66608 0.45258 1.09654
 O1973 O 0.57854 0.39072 1.02124
 O1974 O 0.60390 0.36508 1.02121
 C1975 C 0.58611 0.37285 1.02864
 C1976 C 0.57437 0.36134 1.04646
 C1977 C 0.58144 0.34072 1.05368
 H1978 H 0.59488 0.33270 1.04536
 O1979 O 0.42158 0.60827 1.02185
 O1980 O 0.39617 0.63386 1.02188
 C1981 C 0.41401 0.62614 1.02926
 C1982 C 0.42576 0.63769 1.04705
 C1983 C 0.41862 0.65826 1.05436
 H1984 H 0.40513 0.66623 1.04609
 O1985 O 0.42156 0.47871 1.11013
 O1986 O 0.39625 0.47880 1.13587
 C1987 C 0.41400 0.47131 1.12803
 C1988 C 0.42574 0.45347 1.13948
 C1989 C 0.41866 0.44607 1.16006
 H1990 H 0.40464 0.45371 1.16775
 O1991 O 0.57915 0.52069 1.10978
 O1992 O 0.60466 0.52055 1.13531
 C1993 C 0.58689 0.52810 1.12759
 C1994 C 0.57537 0.54608 1.13904
 C1995 C 0.58258 0.55348 1.15958
 H1996 H 0.59601 0.54518 1.16764
 O1997 O 0.47839 0.39100 1.07966
 O1998 O 0.47826 0.36538 1.10506
 C1999 C 0.47074 0.37328 1.08735
 C2000 C 0.45252 0.36215 1.07586
 C2001 C 0.44404 0.34233 1.08382
 H2002 H 0.45119 0.33485 1.09822
 O2003 O 0.52212 0.60830 1.07921
 O2004 O 0.52237 0.63398 1.10454
 C2005 C 0.52977 0.62606 1.08678
 C2006 C 0.54786 0.63721 1.07510
 C2007 C 0.55627 0.65717 1.08280
 H2008 H 0.54911 0.66479 1.09712
 O2009 O 0.39112 0.42177 1.02174
 O2010 O 0.36545 0.39644 1.02174
 C2011 C 0.37332 0.41413 1.02928
 C2012 C 0.36206 0.42546 1.04753
 C2013 C 0.34210 0.41749 1.05561
 H2014 H 0.33427 0.40385 1.04747
 O2015 O 0.60927 0.57727 1.02115
 O2016 O 0.63496 0.60258 1.02100
 C2017 C 0.62709 0.58493 1.02862
 C2018 C 0.63837 0.57364 1.04686
 C2019 C 0.65821 0.58177 1.05507
 H2020 H 0.66588 0.59570 1.04727
 O2021 O 0.52212 0.57866 1.10947
 O2022 O 0.52226 0.60422 1.13493
 C2023 C 0.52964 0.58638 1.12725
 C2024 C 0.54746 0.57468 1.13880
 C2025 C 0.55503 0.58200 1.15924
 H2026 H 0.54759 0.59623 1.16670
 O2027 O 0.47893 0.42091 1.10968
 O2028 O 0.47890 0.39543 1.13522
 C2029 C 0.47158 0.41332 1.12758
 C2030 C 0.45396 0.42516 1.13928
 C2031 C 0.44683 0.41815 1.15998
 H2032 H 0.45509 0.40465 1.16793
 O2033 O 0.60901 0.52053 1.07970
 O2034 O 0.63466 0.52049 1.10509
 C2035 C 0.62687 0.52795 1.08730
 C2036 C 0.63830 0.54583 1.07562
 C2037 C 0.65818 0.55422 1.08359
 H2038 H 0.66553 0.54720 1.09811
 O2039 O 0.39147 0.47854 1.08032
 O2040 O 0.36601 0.47846 1.10590
 C2041 C 0.37373 0.47100 1.08809
 C2042 C 0.36233 0.45303 1.07649
 C2043 C 0.34250 0.44458 1.08455
 H2044 H 0.33536 0.45146 1.09924
 O2045 O 0.57949 0.60738 1.02115
 O2046 O 0.60514 0.63274 1.02101
 C2047 C 0.58733 0.62512 1.02857
 C2048 C 0.57599 0.63667 1.04662
 C2049 C 0.58410 0.65662 1.05452
 H2050 H 0.59807 0.66413 1.04663
 O2051 O 0.42086 0.39160 1.02176
 O2052 O 0.39521 0.36625 1.02179
 C2053 C 0.41302 0.37390 1.02930
 C2054 C 0.42435 0.36249 1.04745
 C2055 C 0.41616 0.34266 1.05561
 H2056 H 0.40212 0.33513 1.04784
 O2057 O 0.57897 0.47807 1.10978
 O2058 O 0.60453 0.47787 1.13527
 C2059 C 0.58667 0.47053 1.12756
 C2060 C 0.57501 0.45264 1.13899
 C2061 C 0.58215 0.44520 1.15954
 H2062 H 0.59558 0.45345 1.16762
 O2063 O 0.42140 0.52138 1.10999
 O2064 O 0.39597 0.52158 1.13561
 C2065 C 0.41371 0.52904 1.12773
 C2066 C 0.42528 0.54716 1.13892
 C2067 C 0.41738 0.55565 1.15880
 H2068 H 0.40280 0.54870 1.16609
 O2069 O 0.47937 0.60847 1.07945
 O2070 O 0.47956 0.63423 1.10471
 C2071 C 0.47196 0.62634 1.08703
 C2072 C 0.45400 0.63774 1.07538
 C2073 C 0.44642 0.65817 1.08267
 H2074 H 0.45396 0.66571 1.09682
 O2075 O 0.52111 0.39074 1.07925
 O2076 O 0.52107 0.36504 1.10456
 C2077 C 0.52851 0.37286 1.08677
 C2078 C 0.54627 0.36136 1.07494
 C2079 C 0.55373 0.34085 1.08209
 H2080 H 0.54620 0.33327 1.09623
 O2081 O 0.60857 0.42066 1.02134
 O2082 O 0.63404 0.39512 1.02137
 C2083 C 0.62633 0.41291 1.02886
 C2084 C 0.63779 0.42442 1.04686
 C2085 C 0.65824 0.41705 1.05436
 H2086 H 0.66613 0.40336 1.04634
 O2087 O 0.39143 0.57843 1.02211
 O2088 O 0.36591 0.60391 1.02218
 C2089 C 0.37365 0.58614 1.02964
 C2090 C 0.36219 0.57458 1.04761
 C2091 C 0.34177 0.58196 1.05517
 H2092 H 0.33414 0.59599 1.04752
 Cu2093 Cu 0.49999 0.40830 1.09195
 Cu2094 Cu 0.49994 0.37758 1.12247
 Cu2095 Cu 0.50076 0.59095 1.09184
 Cu2096 Cu 0.50094 0.62173 1.12229
 Cu2097 Cu 0.40854 0.40918 1.00032
 Cu2098 Cu 0.37774 0.37876 1.00039
 Cu2099 Cu 0.59103 0.40830 0.99993
 Cu2100 Cu 0.62156 0.37760 0.99993
 Cu2101 Cu 0.40898 0.59069 1.00063
 Cu2102 Cu 0.37839 0.62133 1.00069
 Cu2103 Cu 0.59179 0.58977 0.99975
 Cu2104 Cu 0.62261 0.62018 0.99962
 Cu2105 Cu 0.40902 0.49993 1.09258
 Cu2106 Cu 0.37848 0.50000 1.12332
 Cu2107 Cu 0.59138 0.49932 1.09217
 Cu2108 Cu 0.62214 0.49915 1.12269
 C2109 C 0.55724 0.44219 1.12885
 H2110 H 0.55177 0.44773 1.11293
 C2111 C 0.57207 0.42720 1.16973
 C2112 C 0.44364 0.55690 1.12909
 H2113 H 0.44952 0.55078 1.11352
 C2114 C 0.42767 0.57359 1.16888
 C2115 C 0.37214 0.55669 1.05801
 H2116 H 0.38803 0.55112 1.05247
 C2117 C 0.33141 0.57177 1.07301
 C2118 C 0.62786 0.44231 1.05732
 H2119 H 0.61195 0.44788 1.05184
 C2120 C 0.66865 0.42727 1.07214
 C2121 C 0.55661 0.37139 1.05703
 H2122 H 0.55122 0.38739 1.05168
 C2123 C 0.57128 0.33034 1.07154
 C2124 C 0.44363 0.62771 1.05749
 H2125 H 0.44911 0.61177 1.05204
 C2126 C 0.42877 0.66864 1.07223
 C2127 C 0.44349 0.44300 1.12931
 H2128 H 0.44877 0.44835 1.11325
 C2129 C 0.42913 0.42844 1.17050
 C2130 C 0.55764 0.55662 1.12893
 H2131 H 0.55213 0.55113 1.11300
 C2132 C 0.57255 0.57147 1.16983
 C2133 C 0.44267 0.37199 1.05755
 H2134 H 0.44887 0.38745 1.05154
 C2135 C 0.42580 0.33251 1.07385
 C2136 C 0.55773 0.62720 1.05688
 H2137 H 0.55160 0.61164 1.05106
 C2138 C 0.57445 0.66694 1.07266
 C2139 C 0.37190 0.44342 1.05791
 H2140 H 0.38741 0.44951 1.05189
 C2141 C 0.33227 0.42675 1.07424
 C2142 C 0.62865 0.55553 1.05712
 H2143 H 0.61315 0.54940 1.05109
 C2144 C 0.66816 0.57227 1.07349
 C2145 C 1.10467 1.10456 1.25294
 C2146 C 1.12749 1.10362 1.25659
 C2147 C 1.13648 1.11219 1.27594
 C2148 C 1.12321 1.12247 1.29181
 C2149 C 1.10050 1.12342 1.28785
 C2150 C 1.09138 1.11455 1.26887
 C2151 C 1.09576 1.09537 1.23197
 C2152 C 1.07322 1.09469 1.22713
 C2153 C 1.06582 1.08654 1.20710
 C2154 C 1.08063 1.07892 1.19128
 C2155 C 1.10310 1.07914 1.19615
 C2156 C 1.11070 1.08708 1.21633
 C2157 C 1.14134 1.09466 1.24066
 C2158 C 1.13316 1.08679 1.22088
 H2159 H 1.15885 1.09402 1.24338
 H2160 H 1.14460 1.08031 1.20898
 H2161 H 1.15410 1.11190 1.27784
 H2162 H 1.08938 1.13038 1.29975
 H2163 H 1.04837 1.08610 1.20406
 H2164 H 1.11478 1.07350 1.18405
 H2165 H 1.07390 1.11587 1.26697
 H2166 H 1.06101 1.10028 1.23857
 C2167 C 1.10997 0.61054 0.74831
 C2168 C 1.11642 0.59578 0.76497
 C2169 C 1.12484 0.60373 0.78486
 C2170 C 1.12681 0.62629 0.78852
 C2171 C 1.12049 0.64084 0.77195
 C2172 C 1.11220 0.63314 0.75214
 C2173 C 1.10092 0.60144 0.72739
 C2174 C 1.09410 0.61477 0.70986
 C2175 C 1.08558 0.60556 0.69080
 C2176 C 1.08357 0.58283 0.68863
 C2177 C 1.09051 0.56936 0.70590
 C2178 C 1.09911 0.57847 0.72520
 C2179 C 1.11431 0.57321 0.76172
 C2180 C 1.10583 0.56475 0.74229
 H2181 H 1.11924 0.56189 0.77445
 H2182 H 1.10448 0.54716 0.74063
 H2183 H 1.12952 0.59236 0.79764
 H2184 H 1.12218 0.65831 0.77422
 H2185 H 1.08076 0.61631 0.67757
 H2186 H 1.08889 0.55177 0.70445
 H2187 H 1.10766 0.64520 0.74012
 H2188 H 1.09520 0.63233 0.71043
 C2189 C 0.60972 1.11096 0.74806
 C2190 C 0.61572 1.09620 0.76487
 C2191 C 0.62412 1.10411 0.78477
 C2192 C 0.62661 1.12665 0.78829
 C2193 C 0.62074 1.14121 0.77157
 C2194 C 0.61242 1.13355 0.75174
 C2195 C 0.60067 1.10187 0.72713
 C2196 C 0.59417 1.11519 0.70946
 C2197 C 0.58566 1.10598 0.69040
 C2198 C 0.58338 1.08326 0.68835
 C2199 C 0.58996 1.06981 0.70576
 C2200 C 0.59852 1.07892 0.72507
 C2201 C 0.61323 1.07365 0.76178
 C2202 C 0.60482 1.06520 0.74232
 H2203 H 0.61782 1.06233 0.77463
 H2204 H 0.60318 1.04763 0.74076
 H2205 H 0.62842 1.09273 0.79767
 H2206 H 0.62282 1.15866 0.77373
 H2207 H 0.58107 1.11670 0.67706
 H2208 H 0.58810 1.05224 0.70440
 H2209 H 0.60824 1.14560 0.73958
 H2210 H 0.59550 1.13275 0.70996
 C2211 C 0.60519 0.60617 1.25239
 C2212 C 0.62807 0.60556 1.25575
 C2213 C 0.63719 0.61427 1.27498
 C2214 C 0.62397 0.62429 1.29106
 C2215 C 0.60120 0.62496 1.28736
 C2216 C 0.59198 0.61600 1.26848
 C2217 C 0.59613 0.59674 1.23159
 C2218 C 0.57354 0.59576 1.22704
 C2219 C 0.56599 0.58733 1.20719
 C2220 C 0.58068 0.57969 1.19127
 C2221 C 0.60321 0.58024 1.19583
 C2222 C 0.61098 0.58850 1.21583
 C2223 C 0.64183 0.59672 1.23968
 C2224 C 0.63349 0.58857 1.22007
 H2225 H 0.65938 0.59633 1.24217
 H2226 H 0.64487 0.58215 1.20807
 H2227 H 0.65483 0.61421 1.27666
 H2228 H 0.59012 0.63170 1.29942
 H2229 H 0.54851 0.58666 1.20436
 H2230 H 0.61480 0.57461 1.18364
 H2231 H 0.57445 0.61707 1.26681
 H2232 H 0.56141 0.60132 1.23858
 C2233 C 0.89396 0.89580 1.25295
 C2234 C 0.89464 0.87292 1.25618
 C2235 C 0.88620 0.86370 1.27548
 C2236 C 0.87634 0.87680 1.29175
 C2237 C 0.87560 0.89957 1.28819
 C2238 C 0.88432 0.90890 1.26924
 C2239 C 0.90312 0.90497 1.23208
 C2240 C 0.90407 0.92756 1.22764
 C2241 C 0.91235 0.93522 1.20776
 C2242 C 0.91984 0.92062 1.19169
 C2243 C 0.91922 0.89809 1.19611
 C2244 C 0.91117 0.89022 1.21614
 C2245 C 0.90327 0.85927 1.23992
 C2246 C 0.91115 0.86771 1.22025
 H2247 H 0.90370 0.84172 1.24231
 H2248 H 0.91742 0.85642 1.20810
 H2249 H 0.88629 0.84607 1.27707
 H2250 H 0.86897 0.91055 1.30038
 H2251 H 0.91305 0.95269 1.20504
 H2252 H 0.92471 0.88657 1.18379
 H2253 H 0.88321 0.92642 1.26767
 H2254 H 0.89863 0.93961 1.23931
 C2255 C 0.89604 0.39337 0.75241
 C2256 C 0.87320 0.39443 0.75594
 C2257 C 0.86406 0.38600 0.77529
 C2258 C 0.87720 0.37577 0.79129
 C2259 C 0.89992 0.37454 0.78737
 C2260 C 0.90917 0.38325 0.76839
 C2261 C 0.90513 0.40263 0.73155
 C2262 C 0.92771 0.40333 0.72691
 C2263 C 0.93530 0.41171 0.70704
 C2264 C 0.92064 0.41954 0.69119
 C2265 C 0.89813 0.41922 0.69583
 C2266 C 0.89034 0.41108 0.71586
 C2267 C 0.85949 0.40346 0.73993
 C2268 C 0.86785 0.41138 0.72024
 H2269 H 0.84197 0.40418 0.74255
 H2270 H 0.85651 0.41796 0.70829
 H2271 H 0.84645 0.38645 0.77714
 H2272 H 0.91094 0.36757 0.79934
 H2273 H 0.95278 0.41220 0.70417
 H2274 H 0.88656 0.42500 0.68370
 H2275 H 0.92665 0.38178 0.76655
 H2276 H 0.93982 0.39763 0.73841
 C2277 C 0.39473 0.89416 0.75221
 C2278 C 0.37170 0.89255 0.75424
 C2279 C 0.36238 0.88366 0.77327
 C2280 C 0.37563 0.87615 0.79046
 C2281 C 0.39843 0.87794 0.78851
 C2282 C 0.40789 0.88684 0.76969
 C2283 C 0.40401 0.90333 0.73138
 C2284 C 0.42667 0.90540 0.72756
 C2285 C 0.43446 0.91366 0.70771
 C2286 C 0.41992 0.92013 0.69117
 C2287 C 0.39733 0.91830 0.69489
 C2288 C 0.38931 0.90998 0.71474
 C2289 C 0.35808 0.89959 0.73721
 C2290 C 0.36670 0.90811 0.71789
 H2291 H 0.34046 0.89839 0.73878
 H2292 H 0.35545 0.91323 0.70517
 H2293 H 0.34475 0.88208 0.77447
 H2294 H 0.40900 0.87250 0.80165
 H2295 H 0.45196 0.91514 0.70535
 H2296 H 0.38594 0.92295 0.68210
 H2297 H 0.42549 0.88772 0.76918
 H2298 H 0.43867 0.90070 0.73960
 C2299 C 0.39537 0.39596 1.25351
 C2300 C 0.39578 0.37309 1.25675
 C2301 C 0.38723 0.36397 1.27603
 C2302 C 0.37753 0.37719 1.29231
 C2303 C 0.37709 0.39997 1.28876
 C2304 C 0.38592 0.40919 1.26981
 C2305 C 0.40456 0.40499 1.23258
 C2306 C 0.40568 0.42756 1.22808
 C2307 C 0.41388 0.43509 1.20812
 C2308 C 0.42112 0.42038 1.19204
 C2309 C 0.42039 0.39788 1.19654
 C2310 C 0.41239 0.39014 1.21664
 C2311 C 0.40424 0.35931 1.24049
 C2312 C 0.41216 0.36764 1.22079
 H2313 H 0.40447 0.34176 1.24290
 H2314 H 0.41827 0.35626 1.20864
 H2315 H 0.38708 0.34634 1.27760
 H2316 H 0.37059 0.41102 1.30096
 H2317 H 0.41467 0.45255 1.20532
 H2318 H 0.42569 0.38628 1.18422
 H2319 H 0.38503 0.42672 1.26824
 H2320 H 0.40041 0.43969 1.23975
 C2321 C 0.89251 1.10460 0.74841
 C2322 C 0.89381 1.12738 0.74479
 C2323 C 0.88537 1.13653 0.72547
 C2324 C 0.87489 1.12348 0.70956
 C2325 C 0.87332 1.10084 0.71360
 C2326 C 0.88206 1.09156 0.73257
 C2327 C 0.90189 1.09550 0.76922
 C2328 C 0.90251 1.07296 0.77390
 C2329 C 0.91102 1.06537 0.79371
 C2330 C 0.91905 1.08001 0.80949
 C2331 C 0.91882 1.10248 0.80479
 C2332 C 0.91057 1.11026 0.78480
 C2333 C 0.90308 1.14105 0.76068
 C2334 C 0.91104 1.13271 0.78036
 H2335 H 0.90396 1.15854 0.75800
 H2336 H 0.91780 1.14401 0.79222
 H2337 H 0.88601 1.15412 0.72356
 H2338 H 0.86606 1.08989 0.70174
 H2339 H 0.91145 1.04792 0.79661
 H2340 H 0.92474 1.11405 0.81685
 H2341 H 0.88034 1.07413 0.73453
 H2342 H 0.89666 1.06088 0.76245
 C2343 C 0.89444 0.60496 0.24854
 C2344 C 0.89246 0.62793 0.24648
 C2345 C 0.88363 0.63708 0.22736
 C2346 C 0.87660 0.62372 0.21006
 C2347 C 0.87869 0.60098 0.21206
 C2348 C 0.88751 0.59168 0.23099
 C2349 C 0.90361 0.59585 0.26943
 C2350 C 0.90605 0.57326 0.27327
 C2351 C 0.91430 0.56562 0.29317
 C2352 C 0.92041 0.58026 0.30974
 C2353 C 0.91823 0.60278 0.30602
 C2354 C 0.90989 0.61065 0.28612
 C2355 C 0.89912 0.64165 0.26357
 C2356 C 0.90764 0.63320 0.28295
 H2357 H 0.89762 0.65923 0.26198
 H2358 H 0.91247 0.64452 0.29572
 H2359 H 0.88180 0.65466 0.22612
 H2360 H 0.87362 0.59032 0.19884
 H2361 H 0.91606 0.54817 0.29555
 H2362 H 0.92260 0.61423 0.31885
 H2363 H 0.88868 0.57411 0.23152
 H2364 H 0.90164 0.56119 0.26119
 C2365 C 0.39390 1.10441 0.24737
 C2366 C 0.39454 1.12726 0.24403
 C2367 C 0.38609 1.13638 0.22469
 C2368 C 0.37628 1.12319 0.20847
 C2369 C 0.37560 1.10044 0.21213
 C2370 C 0.38431 1.09121 0.23113
 C2371 C 0.40303 1.09535 0.26830
 C2372 C 0.40393 1.07279 0.27288
 C2373 C 0.41214 1.06523 0.29282
 C2374 C 0.41962 1.07991 0.30881
 C2375 C 0.41908 1.10241 0.30425
 C2376 C 0.41107 1.11017 0.28417
 C2377 C 0.40316 1.14100 0.26023
 C2378 C 0.41105 1.13267 0.27993
 H2379 H 0.40358 1.15854 0.25775
 H2380 H 0.41731 1.14402 0.29202
 H2381 H 0.38614 1.15400 0.22303
 H2382 H 0.36902 1.08939 0.19998
 H2383 H 0.41279 1.04777 0.29567
 H2384 H 0.42457 1.11399 0.31651
 H2385 H 0.38324 1.07370 0.23277
 H2386 H 0.39849 1.06067 0.26128
 C2387 C 0.39551 0.60412 0.74727
 C2388 C 0.39320 0.62706 0.74523
 C2389 C 0.38457 0.63613 0.72595
 C2390 C 0.37812 0.62270 0.70848
 C2391 C 0.38066 0.60000 0.71043
 C2392 C 0.38924 0.59080 0.72951
 C2393 C 0.40435 0.59510 0.76833
 C2394 C 0.40690 0.57252 0.77222
 C2395 C 0.41486 0.56495 0.79227
 C2396 C 0.42056 0.57964 0.80894
 C2397 C 0.41822 0.60214 0.80520
 C2398 C 0.41014 0.60994 0.78515
 C2399 C 0.39932 0.64084 0.76247
 C2400 C 0.40764 0.63247 0.78198
 H2401 H 0.39759 0.65840 0.76090
 H2402 H 0.41208 0.64383 0.79485
 H2403 H 0.38243 0.65368 0.72474
 H2404 H 0.37610 0.58929 0.69707
 H2405 H 0.41673 0.54751 0.79469
 H2406 H 0.42226 0.61362 0.81810
 H2407 H 0.39077 0.57325 0.72999
 H2408 H 0.40280 0.56041 0.76008
 C2409 C 1.10314 0.89458 0.74764
 C2410 C 1.10519 0.87162 0.74549
 C2411 C 1.11407 0.86256 0.72632
 C2412 C 1.12114 0.87605 0.70913
 C2413 C 1.11884 0.89876 0.71118
 C2414 C 1.10994 0.90794 0.73011
 C2415 C 1.09411 0.90360 0.76863
 C2416 C 1.09171 0.92619 0.77256
 C2417 C 1.08372 0.93376 0.79258
 C2418 C 1.07785 0.91909 0.80921
 C2419 C 1.07994 0.89657 0.80538
 C2420 C 1.08802 0.88875 0.78533
 C2421 C 1.09864 0.85783 0.76257
 C2422 C 1.09025 0.86621 0.78206
 H2423 H 1.10017 0.84026 0.76092
 H2424 H 1.08555 0.85484 0.79483
 H2425 H 1.11600 0.84500 0.72500
 H2426 H 1.12389 0.90950 0.69802
 H2427 H 1.08200 0.95121 0.79503
 H2428 H 1.07574 0.88508 0.81822
 H2429 H 1.10868 0.92550 0.73069
 H2430 H 1.09596 0.93830 0.76047
 C2431 C 1.10528 0.39538 0.24734
 C2432 C 1.10697 0.37242 0.24502
 C2433 C 1.11571 0.36337 0.22579
 C2434 C 1.12299 0.37683 0.20867
 C2435 C 1.12125 0.39958 0.21096
 C2436 C 1.11250 0.40877 0.22998
 C2437 C 1.09611 0.40436 0.26830
 C2438 C 1.09379 0.42694 0.27232
 C2439 C 1.08558 0.43445 0.29229
 C2440 C 1.07940 0.41973 0.30877
 C2441 C 1.08141 0.39722 0.30483
 C2442 C 1.08967 0.38947 0.28483
 C2443 C 1.10012 0.35859 0.26195
 C2444 C 1.09170 0.36692 0.28143
 H2445 H 1.10141 0.34101 0.26017
 H2446 H 1.08674 0.35552 0.29408
 H2447 H 1.11728 0.34578 0.22434
 H2448 H 1.12653 0.41032 0.19790
 H2449 H 1.08392 0.45190 0.29480
 H2450 H 1.07696 0.38568 0.31755
 H2451 H 1.11161 0.42635 0.23074
 H2452 H 1.09825 0.43908 0.26034
 C2453 C 0.60525 0.88857 0.25043
 C2454 C 0.61467 0.90310 0.23512
 C2455 C 0.62352 0.89509 0.21546
 C2456 C 0.62277 0.87260 0.21029
 C2457 C 0.61261 0.85844 0.22541
 C2458 C 0.60410 0.86623 0.24510
 C2459 C 0.59665 0.89767 0.27155
 C2460 C 0.58848 0.88436 0.28849
 C2461 C 0.58058 0.89359 0.30781
 C2462 C 0.58043 0.91634 0.31080
 C2463 C 0.58885 0.92973 0.29413
 C2464 C 0.59715 0.92058 0.27472
 C2465 C 0.61496 0.92561 0.23939
 C2466 C 0.60614 0.93418 0.25862
 H2467 H 0.62200 0.93682 0.22759
 H2468 H 0.60664 0.95172 0.26105
 H2469 H 0.63018 0.90669 0.20385
 H2470 H 0.61207 0.84098 0.22272
 H2471 H 0.57483 0.88277 0.32061
 H2472 H 0.58881 0.94733 0.29616
 H2473 H 0.59674 0.85441 0.25592
 H2474 H 0.58828 0.86678 0.28733
 C2475 C 0.60613 0.39412 0.74760
 C2476 C 0.60796 0.37115 0.74537
 C2477 C 0.61685 0.36209 0.72620
 C2478 C 0.62412 0.37556 0.70908
 C2479 C 0.62225 0.39830 0.71131
 C2480 C 0.61337 0.40749 0.73026
 C2481 C 0.59677 0.40313 0.76846
 C2482 C 0.59427 0.42571 0.77235
 C2483 C 0.58586 0.43327 0.79221
 C2484 C 0.57967 0.41859 0.80872
 C2485 C 0.58184 0.39607 0.80491
 C2486 C 0.59031 0.38827 0.78501
 C2487 C 0.60110 0.35735 0.76232
 C2488 C 0.59249 0.36572 0.78172
 H2489 H 0.60250 0.33978 0.76061
 H2490 H 0.58752 0.35434 0.79438
 H2491 H 0.61848 0.34450 0.72476
 H2492 H 0.62749 0.40904 0.69823
 H2493 H 0.58408 0.45072 0.79462
 H2494 H 0.57736 0.38457 0.81766
 H2495 H 0.61238 0.42507 0.73095
 H2496 H 0.59873 0.43783 0.76035
 C2497 C 1.25231 1.10355 1.10483
 C2498 C 1.25422 1.12649 1.10722
 C2499 C 1.27341 1.13562 1.11591
 C2500 C 1.29097 1.12228 1.12230
 C2501 C 1.28914 1.09957 1.11971
 C2502 C 1.27012 1.09030 1.11109
 C2503 C 1.23132 1.09446 1.09588
 C2504 C 1.22752 1.07187 1.09329
 C2505 C 1.20754 1.06425 1.08523
 C2506 C 1.19086 1.07890 1.07946
 C2507 C 1.19452 1.10141 1.08184
 C2508 C 1.21448 1.10926 1.09004
 C2509 C 1.23694 1.14021 1.10107
 C2510 C 1.21753 1.13179 1.09262
 H2511 H 1.23843 1.15778 1.10286
 H2512 H 1.20463 1.14311 1.08816
 H2513 H 1.27450 1.15317 1.11811
 H2514 H 1.30256 1.08893 1.12423
 H2515 H 1.20518 1.04681 1.08335
 H2516 H 1.18160 1.11285 1.07775
 H2517 H 1.26973 1.07275 1.10950
 H2518 H 1.23968 1.05980 1.09745
 C2519 C 1.25263 0.60346 0.60540
 C2520 C 1.25464 0.62641 0.60762
 C2521 C 1.27385 0.63552 0.61628
 C2522 C 1.29133 0.62214 0.62281
 C2523 C 1.28938 0.59942 0.62046
 C2524 C 1.27034 0.59017 0.61187
 C2525 C 1.23166 0.59439 0.59638
 C2526 C 1.22782 0.57181 0.59385
 C2527 C 1.20787 0.56421 0.58568
 C2528 C 1.19127 0.57888 0.57973
 C2529 C 1.19498 0.60139 0.58206
 C2530 C 1.21491 0.60922 0.59035
 C2531 C 1.23744 0.64016 0.60131
 C2532 C 1.21803 0.63175 0.59283
 H2533 H 1.23899 0.65772 0.60298
 H2534 H 1.20520 0.64309 0.58822
 H2535 H 1.27504 0.65308 0.61831
 H2536 H 1.30274 0.58875 0.62510
 H2537 H 1.20547 0.54677 0.58384
 H2538 H 1.18212 0.61286 0.57783
 H2539 H 1.26986 0.57261 0.61045
 H2540 H 1.23991 0.55972 0.59813
 C2541 C 0.74871 1.11057 0.60758
 C2542 C 0.76409 1.09610 0.61700
 C2543 C 0.78374 1.10420 0.62581
 C2544 C 0.78885 1.12670 0.62495
 C2545 C 0.77354 1.14081 0.61500
 C2546 C 0.75387 1.13294 0.60656
 C2547 C 0.72773 1.10136 0.59880
 C2548 C 0.71082 1.11458 0.59040
 C2549 C 0.69168 1.10526 0.58223
 C2550 C 0.68882 1.08249 0.58201
 C2551 C 0.70544 1.06918 0.59067
 C2552 C 0.72469 1.07843 0.59923
 C2553 C 0.75993 1.07357 0.61727
 C2554 C 0.74079 1.06491 0.60835
 H2555 H 0.77176 1.06241 0.62433
 H2556 H 0.73845 1.04736 0.60880
 H2557 H 0.79543 1.09265 0.63241
 H2558 H 0.77611 1.15829 0.61449
 H2559 H 0.67892 1.11601 0.57630
 H2560 H 0.70350 1.05157 0.59060
 H2561 H 0.74295 1.14474 0.59931
 H2562 H 0.71189 1.13216 0.59020
 C2563 C 0.74756 0.61022 1.10960
 C2564 C 0.76449 0.59563 1.11570
 C2565 C 0.78425 0.60377 1.12420
 C2566 C 0.78748 0.62634 1.12677
 C2567 C 0.77057 0.64070 1.12093
 C2568 C 0.75091 0.63282 1.11247
 C2569 C 0.72683 0.60092 1.10034
 C2570 C 0.70919 0.61409 1.09349
 C2571 C 0.69030 0.60470 1.08483
 C2572 C 0.68840 0.58196 1.08276
 C2573 C 0.70580 0.56865 1.08964
 C2574 C 0.72497 0.57794 1.09830
 C2575 C 0.76163 0.57305 1.11323
 C2576 C 0.74228 0.56440 1.10477
 H2577 H 0.77456 0.56186 1.11791
 H2578 H 0.74089 0.54681 1.10319
 H2579 H 0.79727 0.59252 1.12851
 H2580 H 0.77244 0.65816 1.12315
 H2581 H 0.67696 0.61531 1.07997
 H2582 H 0.70454 0.55106 1.08792
 H2583 H 0.73860 0.64474 1.10836
 H2584 H 0.70958 0.63166 1.09462
 C2585 C 1.24664 0.88727 0.89054
 C2586 C 1.26221 0.90179 0.88152
 C2587 C 1.28184 0.89370 0.87264
 C2588 C 1.28672 0.87114 0.87302
 C2589 C 1.27113 0.85694 0.88238
 C2590 C 1.25149 0.86481 0.89090
 C2591 C 1.22578 0.89650 0.89961
 C2592 C 1.20883 0.88330 0.90794
 C2593 C 1.18982 0.89265 0.91639
 C2594 C 1.18714 0.91542 0.91694
 C2595 C 1.20383 0.92873 0.90841
 C2596 C 1.22296 0.91947 0.89963
 C2597 C 1.25826 0.92436 0.88172
 C2598 C 1.23917 0.93301 0.89076
 H2599 H 1.27022 0.93555 0.87493
 H2600 H 1.23701 0.95060 0.89067
 H2601 H 1.29370 0.90528 0.86642
 H2602 H 1.27348 0.83942 0.88241
 H2603 H 1.17701 0.88192 0.92227
 H2604 H 1.20203 0.94636 0.90879
 H2605 H 1.24037 0.85294 0.89770
 H2606 H 1.20977 0.86571 0.90790
 C2607 C 1.25245 0.39594 0.39418
 C2608 C 1.25575 0.37308 0.39470
 C2609 C 1.27512 0.36398 0.38635
 C2610 C 1.29148 0.37720 0.37681
 C2611 C 1.28787 0.39997 0.37623
 C2612 C 1.26880 0.40917 0.38482
 C2613 C 1.23146 0.40496 0.40321
 C2614 C 1.22685 0.42752 0.40415
 C2615 C 1.20686 0.43503 0.41230
 C2616 C 1.19088 0.42031 0.41969
 C2617 C 1.19545 0.39782 0.41908
 C2618 C 1.21556 0.39010 0.41110
 C2619 C 1.23950 0.35930 0.40314
 C2620 C 1.21977 0.36761 0.41098
 H2621 H 1.24196 0.34176 0.40346
 H2622 H 1.20765 0.35622 0.41712
 H2623 H 1.27672 0.34636 0.38628
 H2624 H 1.30010 0.41103 0.36984
 H2625 H 1.20398 0.45248 0.41297
 H2626 H 1.18318 0.38622 0.42449
 H2627 H 1.26720 0.42669 0.38388
 H2628 H 1.23845 0.43966 0.39877
 C2629 C 0.75189 0.89564 0.39492
 C2630 C 0.75394 0.87271 0.39255
 C2631 C 0.77323 0.86367 0.38396
 C2632 C 0.79075 0.87710 0.37765
 C2633 C 0.78879 0.89980 0.38025
 C2634 C 0.76967 0.90898 0.38876
 C2635 C 0.73079 0.90464 0.40373
 C2636 C 0.72685 0.92721 0.40626
 C2637 C 0.70678 0.93474 0.41419
 C2638 C 0.69015 0.92002 0.41989
 C2639 C 0.69395 0.89752 0.41756
 C2640 C 0.71400 0.88977 0.40949
 C2641 C 0.73670 0.85891 0.39861
 C2642 C 0.71719 0.86725 0.40695
 H2643 H 0.73829 0.84136 0.39684
 H2644 H 0.70433 0.85587 0.41135
 H2645 H 0.77442 0.84613 0.38176
 H2646 H 0.80218 0.91051 0.37580
 H2647 H 0.70431 0.95218 0.41603
 H2648 H 0.68107 0.88602 0.42160
 H2649 H 0.76919 0.92652 0.39035
 H2650 H 0.73897 0.93934 0.40214
 C2651 C 0.75130 0.39444 0.89327
 C2652 C 0.75371 0.37147 0.89175
 C2653 C 0.77299 0.36242 0.88311
 C2654 C 0.79008 0.37590 0.87581
 C2655 C 0.78769 0.39865 0.87739
 C2656 C 0.76862 0.40783 0.88600
 C2657 C 0.73034 0.40344 0.90239
 C2658 C 0.72626 0.42602 0.90452
 C2659 C 0.70633 0.43356 0.91278
 C2660 C 0.68994 0.41885 0.91919
 C2661 C 0.69392 0.39632 0.91734
 C2662 C 0.71388 0.38855 0.90901
 C2663 C 0.73682 0.35765 0.89871
 C2664 C 0.71734 0.36600 0.90713
 H2665 H 0.73865 0.34007 0.89755
 H2666 H 0.70475 0.35460 0.91221
 H2667 H 0.77454 0.34482 0.88171
 H2668 H 0.80074 0.40941 0.87214
 H2669 H 0.70379 0.45101 0.91431
 H2670 H 0.68126 0.38480 0.92197
 H2671 H 0.76781 0.42541 0.88677
 H2672 H 0.73817 0.43816 0.89989
 C2673 C 0.75049 0.89420 1.11138
 C2674 C 0.73411 0.88748 1.09643
 C2675 C 0.71430 0.87874 1.10420
 C2676 C 0.71045 0.87662 1.12676
 C2677 C 0.72665 0.88344 1.14150
 C2678 C 0.74637 0.89211 1.13399
 C2679 C 0.77150 0.90320 1.10244
 C2680 C 0.78890 0.91003 1.11594
 C2681 C 0.80814 0.91826 1.10685
 C2682 C 0.81062 0.91998 1.08409
 C2683 C 0.79343 0.91315 1.07047
 C2684 C 0.77398 0.90479 1.07944
 C2685 C 0.73758 0.88949 1.07385
 C2686 C 0.75706 0.89800 1.06555
 H2687 H 0.72504 0.88439 1.06240
 H2688 H 0.75893 0.89921 1.04794
 H2689 H 0.70178 0.87374 1.09266
 H2690 H 0.72424 0.88170 1.15898
 H2691 H 0.82129 0.92302 1.11774
 H2692 H 0.79511 0.91456 1.05285
 H2693 H 0.75815 0.89696 1.14619
 H2694 H 0.78811 0.90907 1.13354
 C2695 C 0.74845 0.39393 0.60462
 C2696 C 0.74474 0.39477 0.62744
 C2697 C 0.72540 0.38612 0.63636
 C2698 C 0.70962 0.37582 0.62300
 C2699 C 0.71377 0.37472 0.60032
 C2700 C 0.73273 0.38369 0.59128
 C2701 C 0.76927 0.40349 0.59576
 C2702 C 0.77397 0.40460 0.57320
 C2703 C 0.79384 0.41311 0.56582
 C2704 C 0.80966 0.42064 0.58068
 C2705 C 0.80490 0.42005 0.60317
 C2706 C 0.78484 0.41179 0.61076
 C2707 C 0.76058 0.40378 0.64136
 C2708 C 0.78030 0.41184 0.63323
 H2709 H 0.75783 0.40431 0.65889
 H2710 H 0.79214 0.41833 0.64473
 H2711 H 0.72338 0.38644 0.65397
 H2712 H 0.70200 0.36765 0.58915
 H2713 H 0.79677 0.41388 0.54836
 H2714 H 0.81697 0.42565 0.61489
 H2715 H 0.73478 0.38229 0.57380
 H2716 H 0.76250 0.39913 0.56096
 C2717 C 0.25041 0.89405 0.61138
 C2718 C 0.23547 0.88419 0.59675
 C2719 C 0.21580 0.87523 0.60462
 C2720 C 0.21019 0.87648 0.62700
 C2721 C 0.22494 0.88704 0.64125
 C2722 C 0.24469 0.89556 0.63364
 C2723 C 0.27153 0.90279 0.60246
 C2724 C 0.28821 0.91123 0.61592
 C2725 C 0.30754 0.91928 0.60685
 C2726 C 0.31077 0.91937 0.58409
 C2727 C 0.29434 0.91069 0.57055
 C2728 C 0.27497 0.90216 0.57956
 C2729 C 0.24006 0.88366 0.57427
 C2730 C 0.25922 0.89275 0.56583
 H2731 H 0.22854 0.87630 0.56297
 H2732 H 0.26188 0.89211 0.54829
 H2733 H 0.20448 0.86818 0.59295
 H2734 H 0.22189 0.88797 0.65867
 H2735 H 0.32015 0.92517 0.61781
 H2736 H 0.29652 0.91066 0.55294
 H2737 H 0.25520 0.90330 0.64550
 H2738 H 0.28686 0.91148 0.63352
 C2739 C 0.25185 0.38917 1.10878
 C2740 C 0.23652 0.40365 1.11827
 C2741 C 0.21674 0.39561 1.12684
 C2742 C 0.21144 0.37317 1.12561
 C2743 C 0.22673 0.35905 1.11567
 C2744 C 0.24654 0.36685 1.10750
 C2745 C 0.27290 0.39833 1.10013
 C2746 C 0.28974 0.38509 1.09164
 C2747 C 0.30890 0.39437 1.08347
 C2748 C 0.31185 0.41712 1.08337
 C2749 C 0.29533 0.43046 1.09219
 C2750 C 0.27606 0.42124 1.10073
 C2751 C 0.24083 0.42615 1.11879
 C2752 C 0.26004 0.43477 1.10997
 H2753 H 0.22904 0.43732 1.12591
 H2754 H 0.26247 0.45231 1.11057
 H2755 H 0.20508 0.40717 1.13349
 H2756 H 0.22400 0.34160 1.11492
 H2757 H 0.32160 0.38360 1.07744
 H2758 H 0.29734 0.44806 1.09222
 H2759 H 0.25742 0.35504 1.10020
 H2760 H 0.28860 0.36751 1.09133
 C2761 C 0.74758 1.10524 0.89662
 C2762 C 0.74405 1.10414 0.87377
 C2763 C 0.72464 1.11237 0.86462
 C2764 C 0.70858 1.12250 0.87777
 C2765 C 0.71237 1.12356 0.90052
 C2766 C 0.73142 1.11501 0.90979
 C2767 C 0.76863 1.09642 0.90568
 C2768 C 0.77340 1.09597 0.92826
 C2769 C 0.79344 1.08799 0.93581
 C2770 C 0.80933 1.08033 0.92110
 C2771 C 0.80460 1.08050 0.89859
 C2772 C 0.78441 1.08823 0.89085
 C2773 C 0.76017 1.09535 0.86003
 C2774 C 0.77999 1.08777 0.86836
 H2775 H 0.75755 1.09458 0.84250
 H2776 H 0.79202 1.08138 0.85700
 H2777 H 0.72284 1.11199 0.84699
 H2778 H 0.70031 1.13038 0.91155
 H2779 H 0.79641 1.08763 0.95328
 H2780 H 0.81678 1.07490 0.88698
 H2781 H 0.73318 1.11640 0.92729
 H2782 H 0.76187 1.10155 0.94040
 C2783 C 0.75273 0.61203 0.39104
 C2784 C 0.73612 0.59736 0.38431
 C2785 C 0.71635 0.60542 0.37576
 C2786 C 0.71274 0.62800 0.37383
 C2787 C 0.72924 0.64247 0.38046
 C2788 C 0.74895 0.63467 0.38894
 C2789 C 0.77356 0.60278 0.40019
 C2790 C 0.79106 0.61597 0.40730
 C2791 C 0.81003 0.60660 0.41585
 C2792 C 0.81214 0.58383 0.41758
 C2793 C 0.79488 0.57051 0.41039
 C2794 C 0.77568 0.57978 0.40177
 C2795 C 0.73928 0.57477 0.38625
 C2796 C 0.75861 0.56617 0.39480
 H2797 H 0.72658 0.56353 0.38112
 H2798 H 0.76021 0.54857 0.39599
 H2799 H 0.70361 0.59408 0.37090
 H2800 H 0.72700 0.65996 0.37886
 H2801 H 0.82326 0.61725 0.42089
 H2802 H 0.79627 0.55290 0.41181
 H2803 H 0.76095 0.64666 0.39371
 H2804 H 0.79052 0.63356 0.40640
 C2805 C 0.25159 1.11162 0.39159
 C2806 C 0.23636 1.09709 0.38202
 C2807 C 0.21673 1.10511 0.37310
 C2808 C 0.21147 1.12756 0.37405
 C2809 C 0.22665 1.14175 0.38405
 C2810 C 0.24634 1.13398 0.39256
 C2811 C 0.27250 1.10248 0.40061
 C2812 C 0.28927 1.11573 0.40920
 C2813 C 0.30836 1.10645 0.41758
 C2814 C 0.31127 1.08370 0.41782
 C2815 C 0.29475 1.07035 0.40902
 C2816 C 0.27560 1.07955 0.40024
 C2817 C 0.24060 1.07458 0.38179
 C2818 C 0.25966 1.06598 0.39093
 H2819 H 0.22888 1.06338 0.37461
 H2820 H 0.26205 1.04843 0.39052
 H2821 H 0.20514 1.09351 0.36641
 H2822 H 0.22393 1.15921 0.38461
 H2823 H 0.32104 1.11723 0.42362
 H2824 H 0.29671 1.05274 0.40913
 H2825 H 0.25715 1.14582 0.39988
 H2826 H 0.28816 1.13331 0.40938
 C2827 C 0.25191 0.61105 0.89255
 C2828 C 0.23688 0.59667 0.88247
 C2829 C 0.21723 0.60477 0.87364
 C2830 C 0.21174 0.62713 0.87524
 C2831 C 0.22667 0.64113 0.88589
 C2832 C 0.24637 0.63329 0.89429
 C2833 C 0.27291 0.60188 0.90131
 C2834 C 0.28960 0.61509 0.91012
 C2835 C 0.30876 0.60579 0.91827
 C2836 C 0.31185 0.58305 0.91808
 C2837 C 0.29545 0.56976 0.90897
 C2838 C 0.27622 0.57900 0.90037
 C2839 C 0.24134 0.57421 0.88163
 C2840 C 0.26043 0.56554 0.89066
 H2841 H 0.22976 0.56311 0.87408
 H2842 H 0.26298 0.54803 0.88979
 H2843 H 0.20581 0.59329 0.86645
 H2844 H 0.22375 0.65853 0.88702
 H2845 H 0.32137 0.61656 0.92450
 H2846 H 0.29755 0.55217 0.90870
 H2847 H 0.25698 0.64499 0.90213
 H2848 H 0.28836 0.63265 0.91063
 C2849 C 1.10652 1.25119 1.10438
 C2850 C 1.10781 1.25357 1.12741
 C2851 C 1.11624 1.27286 1.13657
 C2852 C 1.12364 1.28993 1.12314
 C2853 C 1.12224 1.28759 1.10035
 C2854 C 1.11377 1.26854 1.09105
 C2855 C 1.09769 1.23018 1.09527
 C2856 C 1.09574 1.22611 1.07263
 C2857 C 1.08768 1.20616 1.06500
 C2858 C 1.08130 1.18973 1.07968
 C2859 C 1.08308 1.19366 1.10226
 C2860 C 1.09115 1.21365 1.11012
 C2861 C 1.10092 1.23662 1.14118
 C2862 C 1.09280 1.21709 1.13273
 H2863 H 1.10191 1.23843 1.15881
 H2864 H 1.08777 1.20444 1.14409
 H2865 H 1.11752 1.27439 1.15421
 H2866 H 1.12761 1.30064 1.08964
 H2867 H 1.08621 1.20365 1.04751
 H2868 H 1.07852 1.18097 1.11377
 H2869 H 1.11317 1.26775 1.07343
 H2870 H 1.10033 1.23807 1.06051
 C2871 C 1.11112 0.74869 0.60692
 C2872 C 1.09617 0.76530 0.61300
 C2873 C 1.10391 0.78525 0.62137
 C2874 C 1.12644 0.78901 0.62382
 C2875 C 1.14118 0.77253 0.61772
 C2876 C 1.13370 0.75268 0.60937
 C2877 C 1.10220 0.72758 0.59817
 C2878 C 1.11570 0.71002 0.59178
 C2879 C 1.10663 0.69073 0.58367
 C2880 C 1.08390 0.68835 0.58168
 C2881 C 1.07028 0.70567 0.58812
 C2882 C 1.07923 0.72520 0.59629
 C2883 C 1.07362 0.76192 0.61071
 C2884 C 1.06533 0.74231 0.60253
 H2885 H 1.06217 0.77463 0.61534
 H2886 H 1.04775 0.74052 0.60109
 H2887 H 1.09237 0.79796 0.62582
 H2888 H 1.15863 0.77486 0.61975
 H2889 H 1.11750 0.67749 0.57918
 H2890 H 1.05269 0.70406 0.58647
 H2891 H 1.14589 0.74069 0.60508
 H2892 H 1.13328 0.71075 0.59293
 C2893 C 0.60645 1.25152 0.60326
 C2894 C 0.60836 1.25376 0.62626
 C2895 C 0.61691 1.27305 0.63531
 C2896 C 0.62369 1.29034 0.62183
 C2897 C 0.62165 1.28815 0.59906
 C2898 C 0.61315 1.26905 0.58986
 C2899 C 0.59753 1.23049 0.59427
 C2900 C 0.59521 1.22645 0.57166
 C2901 C 0.58707 1.20648 0.56414
 C2902 C 0.58098 1.19002 0.57892
 C2903 C 0.58314 1.19391 0.60146
 C2904 C 0.59135 1.21389 0.60920
 C2905 C 0.60188 1.23672 0.64011
 C2906 C 0.59355 1.21723 0.63178
 H2907 H 0.60332 1.23844 0.65772
 H2908 H 0.58882 1.20453 0.64320
 H2909 H 0.61868 1.27443 0.65292
 H2910 H 0.62650 1.30136 0.58829
 H2911 H 0.58536 1.20396 0.54668
 H2912 H 0.57880 1.18118 0.61302
 H2913 H 0.61199 1.26839 0.57226
 H2914 H 0.59959 1.23843 0.55949
 C2915 C 0.61170 0.74752 1.10684
 C2916 C 0.59687 0.76409 1.11329
 C2917 C 0.60474 0.78391 1.12180
 C2918 C 0.62731 0.78760 1.12403
 C2919 C 0.64195 0.77122 1.11747
 C2920 C 0.63432 0.75147 1.10899
 C2921 C 0.60262 0.72650 1.09802
 C2922 C 0.61598 0.70894 1.09139
 C2923 C 0.60676 0.68974 1.08325
 C2924 C 0.58399 0.68746 1.08147
 C2925 C 0.57050 0.70478 1.08816
 C2926 C 0.57961 0.72421 1.09638
 C2927 C 0.57428 0.76079 1.11123
 C2928 C 0.56584 0.74130 1.10294
 H2929 H 0.56292 0.77348 1.11614
 H2930 H 0.54824 0.73957 1.10169
 H2931 H 0.59328 0.79658 1.12656
 H2932 H 0.65943 0.77353 1.11928
 H2933 H 0.61753 0.67647 1.07858
 H2934 H 0.55289 0.70325 1.08669
 H2935 H 0.64644 0.73953 1.10435
 H2936 H 0.63357 0.70960 1.09238
 C2937 C 0.89629 1.25219 0.89509
 C2938 C 0.87330 1.25437 0.89317
 C2939 C 0.86421 1.27365 0.88464
 C2940 C 0.87765 1.29099 0.87789
 C2941 C 0.90041 1.28889 0.88006
 C2942 C 0.90964 1.26980 0.88855
 C2943 C 0.90534 1.23111 0.90386
 C2944 C 0.92796 1.22708 0.90605
 C2945 C 0.93553 1.20705 0.91401
 C2946 C 0.92081 1.19054 0.92005
 C2947 C 0.89827 1.19442 0.91802
 C2948 C 0.89047 1.21445 0.90997
 C2949 C 0.85951 1.23726 0.89958
 C2950 C 0.86790 1.21776 0.90783
 H2951 H 0.84191 1.23895 0.89814
 H2952 H 0.85651 1.20500 0.91251
 H2953 H 0.84661 1.27497 0.88279
 H2954 H 0.91114 1.30214 0.87527
 H2955 H 0.95300 1.20454 0.91562
 H2956 H 0.88675 1.18165 0.92232
 H2957 H 0.92722 1.26921 0.88978
 H2958 H 0.94009 1.23910 0.90168
 C2959 C 0.88893 0.74738 0.39087
 C2960 C 0.90366 0.76400 0.38433
 C2961 C 0.89565 0.78380 0.37582
 C2962 C 0.87306 0.78741 0.37379
 C2963 C 0.85853 0.77087 0.38019
 C2964 C 0.86629 0.75113 0.38859
 C2965 C 0.89812 0.72656 0.40005
 C2966 C 0.88486 0.70906 0.40704
 C2967 C 0.89417 0.69011 0.41565
 C2968 C 0.91694 0.68801 0.41756
 C2969 C 0.93034 0.70526 0.41050
 C2970 C 0.92113 0.72445 0.40182
 C2971 C 0.92626 0.76085 0.38644
 C2972 C 0.93480 0.74152 0.39500
 H2973 H 0.93755 0.77356 0.38143
 H2974 H 0.95242 0.73992 0.39633
 H2975 H 0.90702 0.79657 0.37113
 H2976 H 0.84103 0.77311 0.37848
 H2977 H 0.88347 0.67689 0.42059
 H2978 H 0.94796 0.70388 0.41206
 H2979 H 0.85425 0.73911 0.39319
 H2980 H 0.86726 0.70960 0.40600
 C2981 C 0.38844 1.24714 0.39047
 C2982 C 0.40317 1.26384 0.38414
 C2983 C 0.39518 1.28366 0.37570
 C2984 C 0.37260 1.28723 0.37347
 C2985 C 0.35806 1.27061 0.37966
 C2986 C 0.36580 1.25085 0.38802
 C2987 C 0.39763 1.22629 0.39958
 C2988 C 0.38436 1.20875 0.40645
 C2989 C 0.39367 1.18977 0.41500
 C2990 C 0.41644 1.18769 0.41696
 C2991 C 0.42984 1.20499 0.41002
 C2992 C 0.42063 1.22421 0.40143
 C2993 C 0.42577 1.26072 0.38634
 C2994 C 0.43431 1.24134 0.39479
 H2995 H 0.43706 1.27349 0.38149
 H2996 H 0.45192 1.23976 0.39619
 H2997 H 0.40657 1.29648 0.37120
 H2998 H 0.34057 1.27281 0.37780
 H2999 H 0.38298 1.17652 0.41988
 H3000 H 0.44745 1.20361 0.41164
 H3001 H 0.35376 1.23876 0.39244
 H3002 H 0.36676 1.20928 0.40537
 C3003 C 0.38812 0.74559 0.88926
 C3004 C 0.40267 0.76261 0.88338
 C3005 C 0.39451 0.78226 0.87468
 C3006 C 0.37193 0.78527 0.87169
 C3007 C 0.35761 0.76823 0.87721
 C3008 C 0.36553 0.74868 0.88587
 C3009 C 0.39744 0.72504 0.89889
 C3010 C 0.38430 0.70738 0.90571
 C3011 C 0.39372 0.68867 0.91471
 C3012 C 0.41646 0.68698 0.91716
 C3013 C 0.42974 0.70443 0.91037
 C3014 C 0.42042 0.72341 0.90138
 C3015 C 0.42525 0.75998 0.88631
 C3016 C 0.43394 0.74078 0.89504
 H3017 H 0.43641 0.77298 0.88177
 H3018 H 0.45153 0.73957 0.89696
 H3019 H 0.40571 0.79537 0.87060
 H3020 H 0.34016 0.76995 0.87467
 H3021 H 0.38314 0.67530 0.91952
 H3022 H 0.44733 0.70334 0.91240
 H3023 H 0.35365 0.73625 0.88974
 H3024 H 0.36673 0.70762 0.90429
 C3025 C 1.10433 0.74852 0.89412
 C3026 C 1.12735 0.74664 0.89223
 C3027 C 1.13671 0.72756 0.88357
 C3028 C 1.12351 0.71012 0.87664
 C3029 C 1.10072 0.71195 0.87862
 C3030 C 1.09122 0.73084 0.88725
 C3031 C 1.09500 0.76933 0.90318
 C3032 C 1.07233 0.77297 0.90558
 C3033 C 1.06450 0.79276 0.91384
 C3034 C 1.07899 0.80943 0.91999
 C3035 C 1.10157 0.80594 0.91777
 C3036 C 1.10964 0.78614 0.90945
 C3037 C 1.14091 0.76387 0.89882
 C3038 C 1.13226 0.78318 0.90724
 H3039 H 1.15853 0.76243 0.89738
 H3040 H 1.14346 0.79604 0.91204
 H3041 H 1.15433 0.72645 0.88182
 H3042 H 1.09018 0.69862 0.87362
 H3043 H 1.04700 0.79498 0.91561
 H3044 H 1.11292 0.81884 0.92216
 H3045 H 1.07362 0.73123 0.88836
 H3046 H 1.06037 0.76080 0.90116
 C3047 C 1.10431 0.24874 0.39320
 C3048 C 1.12724 0.24688 0.39045
 C3049 C 1.13630 0.22770 0.38168
 C3050 C 1.12289 0.21010 0.37559
 C3051 C 1.10019 0.21193 0.37840
 C3052 C 1.09098 0.23094 0.38708
 C3053 C 1.09531 0.26963 0.40242
 C3054 C 1.07275 0.27332 0.40550
 C3055 C 1.06520 0.29319 0.41385
 C3056 C 1.07991 0.30987 0.41944
 C3057 C 1.10241 0.30632 0.41658
 C3058 C 1.11018 0.28646 0.40809
 C3059 C 1.14103 0.26416 0.39640
 C3060 C 1.13269 0.28350 0.40507
 H3061 H 1.15859 0.26272 0.39432
 H3062 H 1.14406 0.29639 0.40939
 H3063 H 1.15384 0.22662 0.37928
 H3064 H 1.08950 0.19848 0.37410
 H3065 H 1.04777 0.29547 0.41609
 H3066 H 1.11388 0.31924 0.42054
 H3067 H 1.07344 0.23132 0.38889
 H3068 H 1.06063 0.26116 0.40151
 C3069 C 0.60460 0.74831 0.39560
 C3070 C 0.60590 0.74583 0.37259
 C3071 C 0.61472 0.72667 0.36351
 C3072 C 0.62250 0.70980 0.37700
 C3073 C 0.62113 0.71224 0.39979
 C3074 C 0.61228 0.73118 0.40901
 C3075 C 0.59538 0.76921 0.40461
 C3076 C 0.59340 0.77336 0.42723
 C3077 C 0.58514 0.79328 0.43476
 C3078 C 0.57860 0.80959 0.42001
 C3079 C 0.58027 0.80551 0.39745
 C3080 C 0.58856 0.78556 0.38969
 C3081 C 0.59864 0.76257 0.35874
 C3082 C 0.59020 0.78201 0.36710
 H3083 H 0.59963 0.76067 0.34112
 H3084 H 0.58494 0.79450 0.35567
 H3085 H 0.61600 0.72509 0.34588
 H3086 H 0.62681 0.69937 0.41055
 H3087 H 0.58374 0.79588 0.45225
 H3088 H 0.57555 0.81809 0.38588
 H3089 H 0.61171 0.73207 0.42662
 H3090 H 0.59814 0.76151 0.43940
 C3091 C 0.60999 0.25086 0.89304
 C3092 C 0.59520 0.23443 0.88615
 C3093 C 0.60316 0.21452 0.87787
 C3094 C 0.62575 0.21060 0.87649
 C3095 C 0.64033 0.22684 0.88349
 C3096 C 0.63262 0.24669 0.89165
 C3097 C 0.60087 0.27195 0.90160
 C3098 C 0.61422 0.28945 0.90838
 C3099 C 0.60499 0.30867 0.91643
 C3100 C 0.58222 0.31103 0.91802
 C3101 C 0.56873 0.29382 0.91105
 C3102 C 0.57785 0.27438 0.90285
 C3103 C 0.57260 0.23791 0.88766
 C3104 C 0.56411 0.25741 0.89591
 H3105 H 0.56126 0.22533 0.88244
 H3106 H 0.54650 0.25926 0.89681
 H3107 H 0.59177 0.20195 0.87272
 H3108 H 0.65783 0.22434 0.88233
 H3109 H 0.61577 0.32187 0.92123
 H3110 H 0.55110 0.29543 0.91229
 H3111 H 0.64470 0.25847 0.89672
 H3112 H 0.63182 0.28875 0.90755
 C3113 C 0.88868 0.75292 1.10992
 C3114 C 0.90346 0.73607 1.11577
 C3115 C 0.89554 0.71620 1.12417
 C3116 C 0.87299 0.71277 1.12684
 C3117 C 0.85842 0.72955 1.12118
 C3118 C 0.86609 0.74933 1.11284
 C3119 C 0.89775 0.77381 1.10085
 C3120 C 0.88440 0.79145 1.09439
 C3121 C 0.89359 0.81050 1.08589
 C3122 C 0.91632 0.81255 1.08356
 C3123 C 0.92982 0.79515 1.09005
 C3124 C 0.92073 0.77585 1.09859
 C3125 C 0.92603 0.73913 1.11314
 C3126 C 0.93447 0.75859 1.10476
 H3127 H 0.93736 0.72626 1.11762
 H3128 H 0.95205 0.76012 1.10304
 H3129 H 0.90693 0.70327 1.12833
 H3130 H 0.84097 0.72749 1.12345
 H3131 H 0.88284 0.82382 1.08135
 H3132 H 0.94740 0.79652 1.08814
 H3133 H 0.85402 0.76154 1.10886
 H3134 H 0.86683 0.79095 1.09576
 C3135 C 0.89456 0.24954 0.60801
 C3136 C 0.87156 0.24767 0.61018
 C3137 C 0.86232 0.22862 0.61904
 C3138 C 0.87562 0.21121 0.62589
 C3139 C 0.89839 0.21309 0.62373
 C3140 C 0.90777 0.23195 0.61492
 C3141 C 0.90376 0.27024 0.59856
 C3142 C 0.92638 0.27381 0.59577
 C3143 C 0.93412 0.29350 0.58720
 C3144 C 0.91957 0.31016 0.58113
 C3145 C 0.89700 0.30671 0.58366
 C3146 C 0.88904 0.28699 0.59230
 C3147 C 0.85791 0.26484 0.60359
 C3148 C 0.86645 0.28407 0.59486
 H3149 H 0.84031 0.26341 0.60525
 H3150 H 0.85518 0.29688 0.59006
 H3151 H 0.84472 0.22747 0.62092
 H3152 H 0.90900 0.19979 0.62864
 H3153 H 0.95159 0.29567 0.58518
 H3154 H 0.88562 0.31959 0.57930
 H3155 H 0.92536 0.23236 0.61366
 H3156 H 0.93840 0.26166 0.60011
 C3157 C 0.38930 0.75194 0.60831
 C3158 C 0.40424 0.73533 0.61444
 C3159 C 0.39649 0.71536 0.62274
 C3160 C 0.37395 0.71155 0.62500
 C3161 C 0.35922 0.72806 0.61896
 C3162 C 0.36672 0.74796 0.61074
 C3163 C 0.39822 0.77300 0.59944
 C3164 C 0.38473 0.79051 0.59293
 C3165 C 0.39379 0.80971 0.58463
 C3166 C 0.41653 0.81205 0.58256
 C3167 C 0.43015 0.79479 0.58914
 C3168 C 0.42120 0.77534 0.59751
 C3169 C 0.42680 0.73872 0.61216
 C3170 C 0.43509 0.75827 0.60388
 H3171 H 0.43824 0.72602 0.61684
 H3172 H 0.45267 0.76005 0.60242
 H3173 H 0.40801 0.70262 0.62716
 H3174 H 0.34176 0.72568 0.62086
 H3175 H 0.38293 0.82293 0.58004
 H3176 H 0.44774 0.79637 0.58745
 H3177 H 0.35453 0.75994 0.60644
 H3178 H 0.36715 0.78980 0.59411
 C3179 C 0.38845 0.25252 1.10930
 C3180 C 0.40326 0.23595 1.11583
 C3181 C 0.39534 0.21610 1.12427
 C3182 C 0.37276 0.21237 1.12625
 C3183 C 0.35815 0.22885 1.11985
 C3184 C 0.36583 0.24864 1.11151
 C3185 C 0.39756 0.27342 1.10024
 C3186 C 0.38422 0.29089 1.09331
 C3187 C 0.39345 0.30993 1.08482
 C3188 C 0.41622 0.31215 1.08297
 C3189 C 0.42969 0.29491 1.08996
 C3190 C 0.42056 0.27564 1.09852
 C3191 C 0.42585 0.23922 1.11378
 C3192 C 0.43431 0.25862 1.10530
 H3193 H 0.43719 0.22654 1.11876
 H3194 H 0.45191 0.26031 1.10401
 H3195 H 0.40676 0.20338 1.12896
 H3196 H 0.34067 0.22651 1.12151
 H3197 H 0.38270 0.32313 1.07993
 H3198 H 0.44730 0.29639 1.08843
 H3199 H 0.35373 0.26061 1.10690
 H3200 H 0.36662 0.29027 1.09432
 C3201 C 1.10803 1.11032 0.75093
 C3202 C 1.11748 1.09581 0.73560
 C3203 C 1.12620 1.10385 0.71587
 C3204 C 1.12514 1.12630 0.71061
 C3205 C 1.11517 1.14045 0.72587
 C3206 C 1.10687 1.13266 0.74565
 C3207 C 1.09930 1.10117 0.77197
 C3208 C 1.09097 1.11444 0.78887
 C3209 C 1.08274 1.10517 0.80802
 C3210 C 1.08238 1.08241 0.81089
 C3211 C 1.09105 1.06905 0.79430
 C3212 C 1.09968 1.07825 0.77505
 C3213 C 1.11780 1.07330 0.73985
 C3214 C 1.10884 1.06469 0.75900
 H3215 H 1.12487 1.06211 0.72805
 H3216 H 1.10928 1.04714 0.76138
 H3217 H 1.13284 1.09227 0.70422
 H3218 H 1.11450 1.15791 0.72315
 H3219 H 1.07685 1.11596 0.82078
 H3220 H 1.09089 1.05144 0.79624
 H3221 H 1.09956 1.14447 0.75651
 H3222 H 1.09087 1.13203 0.78779
 C3223 C 1.10430 0.60653 0.24769
 C3224 C 1.12709 0.60513 0.24395
 C3225 C 1.13620 0.61361 0.22464
 C3226 C 1.12311 0.62426 0.20886
 C3227 C 1.10047 0.62589 0.21299
 C3228 C 1.09122 0.61709 0.23196
 C3229 C 1.09525 0.59716 0.26852
 C3230 C 1.07269 0.59666 0.27331
 C3231 C 1.06515 0.58820 0.29316
 C3232 C 1.07984 0.58010 0.30886
 C3233 C 1.10232 0.58018 0.30404
 C3234 C 1.11005 0.58838 0.28401
 C3235 C 1.14079 0.59573 0.25975
 C3236 C 1.13249 0.58778 0.27945
 H3237 H 1.15828 0.59477 0.25698
 H3238 H 1.14383 0.58094 0.29124
 H3239 H 1.15379 0.61290 0.22264
 H3240 H 1.08949 0.63326 0.20122
 H3241 H 1.04769 0.58788 0.29616
 H3242 H 1.11392 0.57419 0.31604
 H3243 H 1.07378 0.61888 0.23400
 H3244 H 1.06058 0.60258 0.26193
 C3245 C 0.60349 1.10499 0.24701
 C3246 C 0.62644 1.10746 0.24503
 C3247 C 0.63549 1.11625 0.22584
 C3248 C 0.62205 1.12263 0.20833
 C3249 C 0.59934 1.11997 0.21023
 C3250 C 0.59014 1.11127 0.22927
 C3251 C 0.59449 1.09592 0.26801
 C3252 C 0.57191 1.09323 0.27188
 C3253 C 0.56438 1.08507 0.29186
 C3254 C 0.57912 1.07928 0.30846
 C3255 C 0.60163 1.08174 0.30473
 C3256 C 0.60939 1.09005 0.28477
 C3257 C 0.64026 1.10130 0.26224
 C3258 C 0.63192 1.09273 0.28165
 H3259 H 0.65783 1.10316 0.26070
 H3260 H 0.64332 1.08825 0.29449
 H3261 H 0.65304 1.11851 0.22470
 H3262 H 0.58862 1.12449 0.19685
 H3263 H 0.54693 1.08313 0.29429
 H3264 H 0.61314 1.07763 0.31760
 H3265 H 0.57259 1.10962 0.22971
 H3266 H 0.55977 1.09741 0.25978
 C3267 C 0.60738 0.61071 0.75137
 C3268 C 0.61368 0.59607 0.73456
 C3269 C 0.62208 0.60415 0.71473
 C3270 C 0.62428 0.62673 0.71127
 C3271 C 0.61787 0.64118 0.72790
 C3272 C 0.60953 0.63334 0.74765
 C3273 C 0.59866 0.60143 0.77236
 C3274 C 0.59225 0.61461 0.79015
 C3275 C 0.58408 0.60524 0.80928
 C3276 C 0.58204 0.58249 0.81127
 C3277 C 0.58861 0.56917 0.79375
 C3278 C 0.59687 0.57844 0.77438
 C3279 C 0.61155 0.57347 0.73762
 C3280 C 0.60328 0.56486 0.75707
 H3281 H 0.61634 0.56225 0.72474
 H3282 H 0.60193 0.54726 0.75860
 H3283 H 0.62675 0.59285 0.70188
 H3284 H 0.61968 0.65866 0.72578
 H3285 H 0.57954 0.61588 0.82271
 H3286 H 0.58698 0.55157 0.79508
 H3287 H 0.60498 0.64532 0.75976
 H3288 H 0.59343 0.63218 0.78973
 C3289 C 0.89445 0.89425 0.74863
 C3290 C 0.87146 0.89238 0.74644
 C3291 C 0.86238 0.88351 0.72730
 C3292 C 0.87584 0.87633 0.71012
 C3293 C 0.89859 0.87832 0.71225
 C3294 C 0.90782 0.88717 0.73119
 C3295 C 0.90348 0.90344 0.76955
 C3296 C 0.92609 0.90576 0.77351
 C3297 C 0.93366 0.91399 0.79345
 C3298 C 0.91894 0.92019 0.80994
 C3299 C 0.89640 0.91817 0.80607
 C3300 C 0.88860 0.90985 0.78612
 C3301 C 0.85765 0.89918 0.76342
 C3302 C 0.86603 0.90773 0.78283
 H3303 H 0.84005 0.89778 0.76173
 H3304 H 0.85464 0.91265 0.79551
 H3305 H 0.84478 0.88177 0.72596
 H3306 H 0.90932 0.87314 0.69912
 H3307 H 0.95113 0.91563 0.79593
 H3308 H 0.88489 0.92263 0.81882
 H3309 H 0.92541 0.88825 0.73183
 H3310 H 0.93823 0.90127 0.76152
 C3311 C 0.89552 0.39399 0.24819
 C3312 C 0.87253 0.39226 0.24592
 C3313 C 0.86346 0.38344 0.22675
 C3314 C 0.87693 0.37617 0.20961
 C3315 C 0.89970 0.37793 0.21186
 C3316 C 0.90891 0.38673 0.23084
 C3317 C 0.90452 0.40327 0.26909
 C3318 C 0.92712 0.40563 0.27307
 C3319 C 0.93465 0.41397 0.29298
 C3320 C 0.91991 0.42024 0.30943
 C3321 C 0.89738 0.41819 0.30553
 C3322 C 0.88961 0.40978 0.28560
 C3323 C 0.85869 0.39915 0.26284
 C3324 C 0.86705 0.40770 0.28225
 H3325 H 0.84110 0.39783 0.26109
 H3326 H 0.85564 0.41270 0.29488
 H3327 H 0.84585 0.38185 0.22533
 H3328 H 0.91044 0.37265 0.19878
 H3329 H 0.95212 0.41564 0.29547
 H3330 H 0.88584 0.42270 0.31824
 H3331 H 0.92651 0.38765 0.23157
 H3332 H 0.93927 0.40110 0.26111
 C3333 C 0.39540 0.89466 0.24728
 C3334 C 0.37244 0.89260 0.24490
 C3335 C 0.36358 0.88383 0.22561
 C3336 C 0.37722 0.87695 0.20844
 C3337 C 0.39994 0.87913 0.21076
 C3338 C 0.40895 0.88787 0.22986
 C3339 C 0.40420 0.90377 0.26833
 C3340 C 0.42675 0.90625 0.27249
 C3341 C 0.43410 0.91441 0.29253
 C3342 C 0.41922 0.92038 0.30896
 C3343 C 0.39672 0.91818 0.30491
 C3344 C 0.38914 0.90992 0.28485
 C3345 C 0.35845 0.89912 0.26184
 C3346 C 0.36662 0.90760 0.28137
 H3347 H 0.34088 0.89757 0.26001
 H3348 H 0.35509 0.91233 0.29401
 H3349 H 0.34600 0.88194 0.22413
 H3350 H 0.41082 0.87421 0.19766
 H3351 H 0.45154 0.91620 0.29515
 H3352 H 0.38508 0.92246 0.31760
 H3353 H 0.42653 0.88912 0.23063
 H3354 H 0.43901 0.90194 0.26055
 C3355 C 0.39479 0.39541 0.74701
 C3356 C 0.39575 0.37258 0.74353
 C3357 C 0.38750 0.36347 0.72410
 C3358 C 0.37749 0.37663 0.70798
 C3359 C 0.37653 0.39936 0.71175
 C3360 C 0.38510 0.40858 0.73081
 C3361 C 0.40366 0.40444 0.76807
 C3362 C 0.40430 0.42699 0.77278
 C3363 C 0.41230 0.43451 0.79283
 C3364 C 0.41979 0.41981 0.80880
 C3365 C 0.41946 0.39733 0.80412
 C3366 C 0.41172 0.38961 0.78392
 C3367 C 0.40443 0.35884 0.75970
 C3368 C 0.41202 0.36714 0.77953
 H3369 H 0.40508 0.34133 0.75711
 H3370 H 0.41831 0.35578 0.79161
 H3371 H 0.38779 0.34586 0.72231
 H3372 H 0.36979 0.41038 0.69966
 H3373 H 0.41279 0.45196 0.79575
 H3374 H 0.42495 0.38572 0.81635
 H3375 H 0.38380 0.42607 0.73256
 H3376 H 0.39885 0.43911 0.76120
 C3377 C 1.10719 0.88967 1.25011
 C3378 C 1.11686 0.90425 1.26522
 C3379 C 1.12543 0.89637 1.28507
 C3380 C 1.12398 0.87402 1.29067
 C3381 C 1.11373 0.85983 1.27565
 C3382 C 1.10558 0.86745 1.25576
 C3383 C 1.09870 0.89861 1.22888
 C3384 C 1.09027 0.88520 1.21216
 C3385 C 1.08231 0.89428 1.19281
 C3386 C 1.08233 0.91699 1.18957
 C3387 C 1.09111 0.93049 1.20598
 C3388 C 1.09949 0.92147 1.22542
 C3389 C 1.11758 0.92668 1.26061
 C3390 C 1.10881 0.93513 1.24129
 H3391 H 1.12482 0.93794 1.27223
 H3392 H 1.10956 0.95263 1.23862
 H3393 H 1.13230 0.90799 1.29654
 H3394 H 1.11276 0.84242 1.27863
 H3395 H 1.07633 0.88337 1.18019
 H3396 H 1.09125 0.94806 1.20375
 H3397 H 1.09804 0.85561 1.24509
 H3398 H 1.08990 0.86764 1.21352
 C3399 C 1.10453 0.39342 0.75232
 C3400 C 1.12752 0.39181 0.75468
 C3401 C 1.13656 0.38308 0.77391
 C3402 C 1.12307 0.37576 0.79100
 C3403 C 1.10030 0.37736 0.78865
 C3404 C 1.09111 0.38609 0.76961
 C3405 C 1.09556 0.40266 0.73138
 C3406 C 1.07296 0.40496 0.72732
 C3407 C 1.06547 0.41329 0.70740
 C3408 C 1.08024 0.41961 0.69100
 C3409 C 1.10277 0.41760 0.69496
 C3410 C 1.11050 0.40922 0.71492
 C3411 C 1.14138 0.39875 0.73781
 C3412 C 1.13306 0.40723 0.71835
 H3413 H 1.15898 0.39751 0.73962
 H3414 H 1.14449 0.41227 0.70576
 H3415 H 1.15417 0.38160 0.77541
 H3416 H 1.08954 0.37203 0.80168
 H3417 H 1.04801 0.41494 0.70486
 H3418 H 1.11434 0.42214 0.68230
 H3419 H 1.07351 0.38690 0.76880
 H3420 H 1.06079 0.40040 0.73925
 C3421 C 0.60831 0.88867 0.74842
 C3422 C 0.61432 0.90337 0.76529
 C3423 C 0.62270 0.89537 0.78516
 C3424 C 0.62523 0.87282 0.78859
 C3425 C 0.61930 0.85832 0.77182
 C3426 C 0.61095 0.86607 0.75204
 C3427 C 0.59939 0.89784 0.72747
 C3428 C 0.59289 0.88459 0.70976
 C3429 C 0.58454 0.89388 0.69066
 C3430 C 0.58243 0.91661 0.68862
 C3431 C 0.58900 0.93000 0.70608
 C3432 C 0.59738 0.92082 0.72544
 C3433 C 0.61192 0.92593 0.76223
 C3434 C 0.60365 0.93447 0.74275
 H3435 H 0.61651 0.93720 0.77513
 H3436 H 0.60211 0.95205 0.74122
 H3437 H 0.62703 0.90672 0.79809
 H3438 H 0.62143 0.84087 0.77388
 H3439 H 0.57994 0.88320 0.67730
 H3440 H 0.58727 0.94759 0.70472
 H3441 H 0.60678 0.85406 0.73983
 H3442 H 0.59410 0.86702 0.71024
 C3443 C 0.60496 0.39215 1.25203
 C3444 C 0.62779 0.39329 1.25554
 C3445 C 0.63697 0.38478 1.27480
 C3446 C 0.62391 0.37438 1.29075
 C3447 C 0.60122 0.37294 1.28682
 C3448 C 0.59190 0.38176 1.26790
 C3449 C 0.59581 0.40160 1.23128
 C3450 C 0.57322 0.40239 1.22673
 C3451 C 0.56560 0.41094 1.20695
 C3452 C 0.58023 0.41885 1.19111
 C3453 C 0.60275 0.41847 1.19569
 C3454 C 0.61058 0.41018 1.21563
 C3455 C 0.64146 0.40248 1.23959
 C3456 C 0.63307 0.41049 1.21996
 H3457 H 0.65898 0.40324 1.24219
 H3458 H 0.64438 0.41718 1.20805
 H3459 H 0.65459 0.38529 1.27662
 H3460 H 0.59028 0.36573 1.29872
 H3461 H 0.54811 0.41149 1.20413
 H3462 H 0.61431 0.42430 1.18356
 H3463 H 0.57443 0.38015 1.26602
 H3464 H 0.56115 0.39664 1.23824
 C3465 C 0.89342 1.11104 1.24994
 C3466 C 0.88374 1.09645 1.26505
 C3467 C 0.87481 1.10438 1.28473
 C3468 C 0.87585 1.12679 1.29015
 C3469 C 0.88603 1.14102 1.27511
 C3470 C 0.89456 1.13334 1.25539
 C3471 C 0.90234 1.10202 1.22892
 C3472 C 0.91093 1.11537 1.21222
 C3473 C 0.91917 1.10621 1.19301
 C3474 C 0.91928 1.08348 1.18990
 C3475 C 0.91049 1.07004 1.20636
 C3476 C 0.90183 1.07913 1.22564
 C3477 C 0.88338 1.07398 1.26064
 C3478 C 0.89247 1.06548 1.24149
 H3479 H 0.87614 1.06273 1.27227
 H3480 H 0.89195 1.04795 1.23896
 H3481 H 0.86800 1.09274 1.29622
 H3482 H 0.88669 1.15846 1.27795
 H3483 H 0.92519 1.11707 1.18038
 H3484 H 0.91050 1.05245 1.20425
 H3485 H 0.90201 1.14521 1.24469
 H3486 H 0.91119 1.13294 1.21347
 C3487 C 0.89375 0.61110 0.74917
 C3488 C 0.88741 0.59637 0.76588
 C3489 C 0.87888 0.60433 0.78570
 C3490 C 0.87654 0.62688 0.78924
 C3491 C 0.88298 0.64143 0.77271
 C3492 C 0.89148 0.63371 0.75297
 C3493 C 0.90258 0.60194 0.72817
 C3494 C 0.90912 0.61522 0.71049
 C3495 C 0.91730 0.60594 0.69131
 C3496 C 0.91923 0.58320 0.68917
 C3497 C 0.91261 0.56979 0.70659
 C3498 C 0.90435 0.57896 0.72601
 C3499 C 0.88958 0.57379 0.76271
 C3500 C 0.89789 0.56528 0.74322
 H3501 H 0.88476 0.56250 0.77550
 H3502 H 0.89924 0.54769 0.74160
 H3503 H 0.87420 0.59295 0.79847
 H3504 H 0.88106 0.65889 0.77488
 H3505 H 0.92191 0.61665 0.67797
 H3506 H 0.91418 0.55220 0.70514
 H3507 H 0.89602 0.64576 0.74093
 H3508 H 0.90802 0.63279 0.71104
 C3509 C 0.39384 1.11089 0.74962
 C3510 C 0.38740 1.09606 0.76621
 C3511 C 0.37884 1.10392 0.78607
 C3512 C 0.37658 1.12646 0.78975
 C3513 C 0.38306 1.14109 0.77332
 C3514 C 0.39158 1.13348 0.75355
 C3515 C 0.40275 1.10186 0.72860
 C3516 C 0.40945 1.11524 0.71106
 C3517 C 0.41764 1.10608 0.69183
 C3518 C 0.41944 1.08334 0.68950
 C3519 C 0.41272 1.06983 0.70681
 C3520 C 0.40443 1.07889 0.72627
 C3521 C 0.38951 1.07351 0.76288
 C3522 C 0.39786 1.06511 0.74336
 H3523 H 0.38461 1.06214 0.77558
 H3524 H 0.39915 1.04753 0.74161
 H3525 H 0.37410 1.09247 0.79876
 H3526 H 0.38118 1.15854 0.77559
 H3527 H 0.42234 1.11686 0.67858
 H3528 H 0.41419 1.05224 0.70523
 H3529 H 0.39616 1.14559 0.74159
 H3530 H 0.40845 1.13281 0.71175
 C3531 C 0.39326 0.61106 1.24948
 C3532 C 0.38300 0.59669 1.26441
 C3533 C 0.37405 0.60480 1.28401
 C3534 C 0.37577 0.62713 1.28958
 C3535 C 0.38670 0.64108 1.27481
 C3536 C 0.39519 0.63325 1.25514
 C3537 C 0.40199 0.60192 1.22845
 C3538 C 0.41075 0.61517 1.21176
 C3539 C 0.41886 0.60592 1.19255
 C3540 C 0.41870 0.58319 1.18942
 C3541 C 0.40963 0.56986 1.20583
 C3542 C 0.40103 0.57906 1.22509
 C3543 C 0.38210 0.57424 1.25989
 C3544 C 0.39123 0.56558 1.24083
 H3545 H 0.37444 0.56314 1.27140
 H3546 H 0.39032 0.54808 1.23823
 H3547 H 0.36666 0.59335 1.29534
 H3548 H 0.38796 0.65846 1.27779
 H3549 H 0.42501 0.61673 1.17993
 H3550 H 0.40937 0.55227 1.20372
 H3551 H 0.40324 0.64490 1.24464
 H3552 H 0.41121 0.63274 1.21302
 C3553 C 1.11141 1.24754 0.89159
 C3554 C 1.09683 1.26278 0.88211
 C3555 C 1.10479 1.28253 0.87344
 C3556 C 1.12724 1.28791 0.87458
 C3557 C 1.14145 1.27273 0.88456
 C3558 C 1.13374 1.25293 0.89281
 C3559 C 1.10234 1.22647 0.90027
 C3560 C 1.11568 1.20966 0.90863
 C3561 C 1.10646 1.19046 0.91679
 C3562 C 1.08369 1.18747 0.91703
 C3563 C 1.07027 1.20400 0.90837
 C3564 C 1.07941 1.22328 0.89981
 C3565 C 1.07432 1.25842 0.88172
 C3566 C 1.06577 1.23924 0.89063
 H3567 H 1.06307 1.27015 0.87463
 H3568 H 1.04822 1.23678 0.89013
 H3569 H 1.09316 1.29411 0.86679
 H3570 H 1.15891 1.27555 0.88528
 H3571 H 1.11732 1.17777 0.92269
 H3572 H 1.05265 1.20198 0.90846
 H3573 H 1.14560 1.24213 0.90013
 H3574 H 1.13327 1.21083 0.90881
 C3575 C 1.10456 0.75238 0.39565
 C3576 C 1.12732 0.75623 0.39712
 C3577 C 1.13634 0.77564 0.38877
 C3578 C 1.12317 0.79127 0.37804
 C3579 C 1.10054 0.78705 0.37645
 C3580 C 1.09139 0.76807 0.38518
 C3581 C 1.09559 0.73143 0.40474
 C3582 C 1.07305 0.72659 0.40521
 C3583 C 1.06559 0.70659 0.41330
 C3584 C 1.08034 0.69078 0.42103
 C3585 C 1.10281 0.69567 0.42101
 C3586 C 1.11047 0.71587 0.41323
 C3587 C 1.14109 0.74040 0.40635
 C3588 C 1.13289 0.72054 0.41395
 H3589 H 1.15856 0.74325 0.40738
 H3590 H 1.14428 0.70871 0.42061
 H3591 H 1.15391 0.77780 0.38956
 H3592 H 1.08951 0.79877 0.36909
 H3593 H 1.04814 0.70358 0.41363
 H3594 H 1.11447 0.68361 0.42674
 H3595 H 1.07397 0.76596 0.38334
 H3596 H 1.06089 0.73803 0.39957
 C3597 C 0.61105 1.24742 0.39206
 C3598 C 0.59633 1.26434 0.38629
 C3599 C 0.60432 1.28424 0.37803
 C3600 C 0.62689 1.28762 0.37538
 C3601 C 0.64140 1.27081 0.38111
 C3602 C 0.63366 1.25102 0.38934
 C3603 C 0.60188 1.22642 0.40080
 C3604 C 0.61516 1.20864 0.40700
 C3605 C 0.60589 1.18950 0.41518
 C3606 C 0.58314 1.18749 0.41744
 C3607 C 0.56972 1.20501 0.41115
 C3608 C 0.57889 1.22441 0.40293
 C3609 C 0.57375 1.26131 0.38880
 C3610 C 0.56522 1.24179 0.39693
 H3611 H 0.56246 1.27425 0.38439
 H3612 H 0.54762 1.24028 0.39855
 H3613 H 0.59297 1.29720 0.37385
 H3614 H 0.65887 1.27284 0.37889
 H3615 H 0.61659 1.17608 0.41957
 H3616 H 0.55212 1.20365 0.41298
 H3617 H 0.64569 1.23878 0.39335
 H3618 H 0.63274 1.20910 0.40567
 C3619 C 0.61108 0.74750 0.89262
 C3620 C 0.59626 0.76402 0.88601
 C3621 C 0.60418 0.78388 0.87757
 C3622 C 0.62676 0.78766 0.87571
 C3623 C 0.64137 0.77130 0.88239
 C3624 C 0.63371 0.75151 0.89072
 C3625 C 0.60198 0.72648 0.90142
 C3626 C 0.61534 0.70895 0.90811
 C3627 C 0.60613 0.68978 0.91631
 C3628 C 0.58336 0.68750 0.91813
 C3629 C 0.56987 0.70478 0.91132
 C3630 C 0.57898 0.72418 0.90299
 C3631 C 0.57367 0.76067 0.88791
 C3632 C 0.56522 0.74121 0.89627
 H3633 H 0.56231 0.77332 0.88289
 H3634 H 0.54761 0.73946 0.89745
 H3635 H 0.59275 0.79653 0.87269
 H3636 H 0.65886 0.77369 0.88085
 H3637 H 0.61691 0.67654 0.92102
 H3638 H 0.55226 0.70325 0.91277
 H3639 H 0.64581 0.73962 0.89550
 H3640 H 0.63293 0.70959 0.90711
 C3641 C 0.88941 1.24793 1.10916
 C3642 C 0.90386 1.26331 1.11860
 C3643 C 0.89573 1.28299 1.12727
 C3644 C 0.87323 1.28816 1.12619
 C3645 C 0.85913 1.27283 1.11627
 C3646 C 0.86702 1.25311 1.10800
 C3647 C 0.89867 1.22697 1.10043
 C3648 C 0.88547 1.21006 1.09204
 C3649 C 0.89484 1.19100 1.08377
 C3650 C 0.91764 1.18822 1.08346
 C3651 C 0.93094 1.20480 1.09221
 C3652 C 0.92163 1.22397 1.10085
 C3653 C 0.92642 1.25915 1.11896
 C3654 C 0.93513 1.24004 1.11003
 H3655 H 0.93756 1.27098 1.12603
 H3656 H 0.95270 1.23773 1.11050
 H3657 H 0.90727 1.29469 1.13388
 H3658 H 0.84164 1.27547 1.11561
 H3659 H 0.88410 1.17825 1.07782
 H3660 H 0.94857 1.20291 1.09209
 H3661 H 0.85524 1.24220 1.10073
 H3662 H 0.86786 1.21108 1.09189
 C3663 C 0.88952 0.74704 0.61005
 C3664 C 0.90415 0.76397 0.61601
 C3665 C 0.89604 0.78374 0.62450
 C3666 C 0.87345 0.78698 0.62714
 C3667 C 0.85905 0.77007 0.62142
 C3668 C 0.86690 0.75040 0.61300
 C3669 C 0.89878 0.72630 0.60079
 C3670 C 0.88558 0.70861 0.59416
 C3671 C 0.89493 0.68974 0.58546
 C3672 C 0.91768 0.68789 0.58309
 C3673 C 0.93103 0.70533 0.58978
 C3674 C 0.92177 0.72448 0.59851
 C3675 C 0.92674 0.76112 0.61336
 C3676 C 0.93536 0.74180 0.60484
 H3677 H 0.93795 0.77406 0.61794
 H3678 H 0.95295 0.74043 0.60310
 H3679 H 0.90730 0.79676 0.62872
 H3680 H 0.84157 0.77198 0.62367
 H3681 H 0.88429 0.67638 0.58077
 H3682 H 0.94862 0.70412 0.58786
 H3683 H 0.85495 0.73810 0.60896
 H3684 H 0.86800 0.70895 0.59553
 C3685 C 0.38912 1.24763 0.60909
 C3686 C 0.40363 1.26288 0.61864
 C3687 C 0.39558 1.28254 0.62745
 C3688 C 0.37311 1.28784 0.62632
 C3689 C 0.35894 1.27262 0.61635
 C3690 C 0.36674 1.25290 0.60799
 C3691 C 0.39830 1.22672 0.60015
 C3692 C 0.38504 1.20992 0.59164
 C3693 C 0.39435 1.19089 0.58322
 C3694 C 0.41714 1.18805 0.58285
 C3695 C 0.43049 1.20455 0.59167
 C3696 C 0.42125 1.22366 0.60050
 C3697 C 0.42617 1.25865 0.61893
 C3698 C 0.43481 1.23961 0.60981
 H3699 H 0.43736 1.27038 0.62610
 H3700 H 0.45238 1.23725 0.61023
 H3701 H 0.40716 1.29415 0.63413
 H3702 H 0.34147 1.27536 0.61568
 H3703 H 0.38356 1.17820 0.57721
 H3704 H 0.44812 1.20264 0.59150
 H3705 H 0.35492 1.24207 0.60066
 H3706 H 0.36744 1.21098 0.59153
 C3707 C 0.39598 0.75138 1.10624
 C3708 C 0.37315 0.75495 1.10508
 C3709 C 0.36401 0.77433 1.11337
 C3710 C 0.37713 0.79032 1.12363
 C3711 C 0.39983 0.78636 1.12498
 C3712 C 0.40909 0.76735 1.11636
 C3713 C 0.40508 0.73050 1.09708
 C3714 C 0.42766 0.72587 1.09639
 C3715 C 0.43525 0.70599 1.08811
 C3716 C 0.42060 0.69009 1.08040
 C3717 C 0.39808 0.69473 1.08072
 C3718 C 0.39028 0.71479 1.08873
 C3719 C 0.35945 0.73892 1.09610
 C3720 C 0.36780 0.71918 1.08835
 H3721 H 0.34193 0.74155 1.09531
 H3722 H 0.35646 0.70722 1.08182
 H3723 H 0.34640 0.77622 1.11283
 H3724 H 0.41084 0.79830 1.13198
 H3725 H 0.45273 0.70314 1.08760
 H3726 H 0.38650 0.68257 1.07504
 H3727 H 0.42656 0.76547 1.11794
 H3728 H 0.43976 0.73740 1.10199
 C3729 C 0.88811 0.75159 0.89417
 C3730 C 0.90301 0.73504 0.88778
 C3731 C 0.89520 0.71521 0.87920
 C3732 C 0.87265 0.71150 0.87686
 C3733 C 0.85796 0.72789 0.88331
 C3734 C 0.86551 0.74763 0.89185
 C3735 C 0.89711 0.77260 0.90308
 C3736 C 0.88367 0.79010 0.90974
 C3737 C 0.89281 0.80932 0.91792
 C3738 C 0.91557 0.81168 0.91973
 C3739 C 0.92912 0.79440 0.91306
 C3740 C 0.92010 0.77495 0.90480
 C3741 C 0.92558 0.73839 0.88994
 C3742 C 0.93393 0.75789 0.89828
 H3743 H 0.93699 0.72572 0.88507
 H3744 H 0.95153 0.75966 0.89959
 H3745 H 0.90670 0.70255 0.87450
 H3746 H 0.84049 0.72559 0.88138
 H3747 H 0.88199 0.82254 0.92259
 H3748 H 0.94673 0.79599 0.91456
 H3749 H 0.85336 0.75956 0.89640
 H3750 H 0.86608 0.78938 0.90873
 C3751 C 0.89517 0.24804 0.39604
 C3752 C 0.87216 0.24568 0.39455
 C3753 C 0.86306 0.22640 0.38600
 C3754 C 0.87655 0.20934 0.37867
 C3755 C 0.89932 0.21162 0.38037
 C3756 C 0.90854 0.23065 0.38896
 C3757 C 0.90422 0.26910 0.40481
 C3758 C 0.92684 0.27320 0.40676
 C3759 C 0.93443 0.29324 0.41462
 C3760 C 0.91972 0.30972 0.42081
 C3761 C 0.89717 0.30574 0.41911
 C3762 C 0.88935 0.28566 0.41119
 C3763 C 0.85836 0.26264 0.40134
 C3764 C 0.86676 0.28220 0.40947
 H3765 H 0.84075 0.26084 0.40023
 H3766 H 0.85537 0.29487 0.41438
 H3767 H 0.84545 0.22490 0.38451
 H3768 H 0.91007 0.19857 0.37510
 H3769 H 0.95190 0.29580 0.41604
 H3770 H 0.88565 0.31847 0.42355
 H3771 H 0.92614 0.23140 0.38977
 H3772 H 0.93897 0.26122 0.40227
 C3773 C 0.39431 0.74888 0.39481
 C3774 C 0.37146 0.74534 0.39567
 C3775 C 0.36240 0.72611 0.38698
 C3776 C 0.37564 0.71028 0.37661
 C3777 C 0.39836 0.71417 0.37565
 C3778 C 0.40753 0.73302 0.38466
 C3779 C 0.40330 0.76968 0.40422
 C3780 C 0.42587 0.77431 0.40511
 C3781 C 0.43337 0.79419 0.41344
 C3782 C 0.41863 0.81006 0.42104
 C3783 C 0.39613 0.80538 0.42065
 C3784 C 0.38842 0.78534 0.41254
 C3785 C 0.35767 0.76127 0.40470
 C3786 C 0.36594 0.78093 0.41271
 H3787 H 0.34014 0.75865 0.40527
 H3788 H 0.35454 0.79285 0.41922
 H3789 H 0.34479 0.72425 0.38726
 H3790 H 0.40943 0.70230 0.36859
 H3791 H 0.45084 0.79708 0.41404
 H3792 H 0.38450 0.81752 0.42629
 H3793 H 0.42502 0.73487 0.38333
 H3794 H 0.43803 0.76281 0.39957
 C3795 C 0.38889 0.25072 0.89424
 C3796 C 0.40346 0.23557 0.88460
 C3797 C 0.39550 0.21588 0.87584
 C3798 C 0.37306 0.21047 0.87696
 C3799 C 0.35888 0.22544 0.88732
 C3800 C 0.36660 0.24518 0.89571
 C3801 C 0.39791 0.27187 0.90276
 C3802 C 0.38454 0.28868 0.91106
 C3803 C 0.39370 0.30803 0.91890
 C3804 C 0.41646 0.31117 0.91888
 C3805 C 0.42991 0.29462 0.91032
 C3806 C 0.42082 0.27520 0.90204
 C3807 C 0.42595 0.24002 0.88404
 C3808 C 0.43447 0.25926 0.89285
 H3809 H 0.43719 0.22835 0.87685
 H3810 H 0.45200 0.26182 0.89217
 H3811 H 0.40712 0.20439 0.86899
 H3812 H 0.34143 0.22256 0.88814
 H3813 H 0.38282 0.32072 0.92473
 H3814 H 0.44752 0.29676 0.91021
 H3815 H 0.35477 0.25587 0.90325
 H3816 H 0.36695 0.28740 0.91140
 C3817 C 1.11030 0.75142 1.10826
 C3818 C 1.09576 0.73605 1.11757
 C3819 C 1.10380 0.71629 1.12617
 C3820 C 1.12630 0.71107 1.12517
 C3821 C 1.14047 0.72639 1.11534
 C3822 C 1.13267 0.74617 1.10712
 C3823 C 1.10116 0.77249 1.09966
 C3824 C 1.11446 0.78939 1.09141
 C3825 C 1.10519 0.80858 1.08332
 C3826 C 1.08241 0.81150 1.08305
 C3827 C 1.06902 0.79492 1.09164
 C3828 C 1.07822 0.77561 1.10010
 C3829 C 1.07323 0.74031 1.11791
 C3830 C 1.06462 0.75953 1.10913
 H3831 H 1.06201 0.72848 1.12489
 H3832 H 1.04706 0.76192 1.10960
 H3833 H 1.09220 0.70461 1.13270
 H3834 H 1.15796 0.72372 1.11474
 H3835 H 1.11601 0.82133 1.07747
 H3836 H 1.05140 0.79691 1.09154
 H3837 H 1.14451 0.75707 1.09993
 H3838 H 1.13206 0.78828 1.09125
 C3839 C 1.10499 0.24802 0.60498
 C3840 C 1.12800 0.24561 0.60639
 C3841 C 1.13709 0.22636 0.61502
 C3842 C 1.12360 0.20937 0.62251
 C3843 C 1.10083 0.21173 0.62097
 C3844 C 1.09161 0.23074 0.61231
 C3845 C 1.09596 0.26899 0.59600
 C3846 C 1.07334 0.27308 0.59397
 C3847 C 1.06577 0.29305 0.58590
 C3848 C 1.08048 0.30948 0.57960
 C3849 C 1.10303 0.30549 0.58135
 C3850 C 1.11084 0.28548 0.58945
 C3851 C 1.14181 0.26249 0.59943
 C3852 C 1.13342 0.28200 0.59118
 H3853 H 1.15942 0.26065 0.60050
 H3854 H 1.14482 0.29460 0.58613
 H3855 H 1.15471 0.22481 0.61639
 H3856 H 1.09008 0.19875 0.62640
 H3857 H 1.04829 0.29560 0.58444
 H3858 H 1.11456 0.31817 0.57680
 H3859 H 1.07401 0.23155 0.61162
 H3860 H 1.06120 0.26114 0.59853
 C3861 C 0.61074 0.75180 0.60715
 C3862 C 0.59607 0.73505 0.61348
 C3863 C 0.60413 0.71523 0.62186
 C3864 C 0.62674 0.71173 0.62404
 C3865 C 0.64122 0.72832 0.61765
 C3866 C 0.63340 0.74806 0.60932
 C3867 C 0.60148 0.77276 0.59842
 C3868 C 0.61470 0.79045 0.59184
 C3869 C 0.60534 0.80957 0.58369
 C3870 C 0.58256 0.81165 0.58184
 C3871 C 0.56920 0.79424 0.58854
 C3872 C 0.57846 0.77487 0.59676
 C3873 C 0.57345 0.73817 0.61144
 C3874 C 0.56484 0.75764 0.60324
 H3875 H 0.56220 0.72536 0.61627
 H3876 H 0.54722 0.75922 0.60198
 H3877 H 0.59280 0.70242 0.62652
 H3878 H 0.65872 0.72619 0.61947
 H3879 H 0.61601 0.82291 0.57902
 H3880 H 0.55158 0.79565 0.58704
 H3881 H 0.64540 0.76014 0.60479
 H3882 H 0.63230 0.78994 0.59286
 C3883 C 0.60393 0.24754 1.10535
 C3884 C 0.62682 0.24424 1.10477
 C3885 C 0.63595 0.22494 1.11322
 C3886 C 0.62274 0.20871 1.12297
 C3887 C 0.59996 0.21234 1.12363
 C3888 C 0.59072 0.23130 1.11491
 C3889 C 0.59486 0.26843 1.09621
 C3890 C 0.57226 0.27297 1.09524
 C3891 C 0.56470 0.29288 1.08703
 C3892 C 0.57940 0.30888 1.07962
 C3893 C 0.60192 0.30436 1.08022
 C3894 C 0.60970 0.28431 1.08823
 C3895 C 0.64058 0.26044 1.09620
 C3896 C 0.63222 0.28011 1.08831
 H3897 H 0.65814 0.25799 1.09583
 H3898 H 0.64359 0.29221 1.08210
 H3899 H 0.65360 0.22331 1.11320
 H3900 H 0.58890 0.20018 1.13018
 H3901 H 0.54722 0.29570 1.08634
 H3902 H 0.61351 0.31662 1.07479
 H3903 H 0.57319 0.23292 1.11595
 H3904 H 0.56014 0.26136 1.10062
 C3905 C 1.25086 1.10379 0.89233
 C3906 C 1.25283 1.12677 0.89048
 C3907 C 1.27202 1.13605 0.88193
 C3908 C 1.28949 1.12280 0.87511
 C3909 C 1.28751 1.10004 0.87693
 C3910 C 1.26850 1.09062 0.88542
 C3911 C 1.23001 1.09456 0.90147
 C3912 C 1.22630 1.07195 0.90392
 C3913 C 1.20651 1.06421 0.91234
 C3914 C 1.18991 1.07877 0.91859
 C3915 C 1.19348 1.10131 0.91630
 C3916 C 1.21328 1.10927 0.90783
 C3917 C 1.23565 1.14040 0.89710
 C3918 C 1.21631 1.13184 0.90558
 H3919 H 1.23717 1.15800 0.89568
 H3920 H 1.20350 1.14310 0.91043
 H3921 H 1.27323 1.15365 0.88029
 H3922 H 1.30084 1.08946 0.87201
 H3923 H 1.20424 1.04675 0.91414
 H3924 H 1.18063 1.11270 0.92077
 H3925 H 1.26800 1.07304 0.88646
 H3926 H 1.23841 1.05994 0.89945
 C3927 C 1.24734 0.61123 0.38957
 C3928 C 1.26418 0.59662 0.38326
 C3929 C 1.28402 0.60475 0.37493
 C3930 C 1.28745 0.62734 0.37282
 C3931 C 1.27067 0.64173 0.37893
 C3932 C 1.25091 0.63386 0.38718
 C3933 C 1.22651 0.60193 0.39862
 C3934 C 1.20889 0.61510 0.40551
 C3935 C 1.18996 0.60571 0.41408
 C3936 C 1.18800 0.58296 0.41607
 C3937 C 1.20536 0.56965 0.40907
 C3938 C 1.22455 0.57894 0.40045
 C3939 C 1.26117 0.57402 0.38541
 C3940 C 1.24179 0.56538 0.39380
 H3941 H 1.27403 0.56282 0.38056
 H3942 H 1.24031 0.54778 0.39518
 H3943 H 1.29696 0.59348 0.37042
 H3944 H 1.27274 0.65922 0.37712
 H3945 H 1.17665 0.61633 0.41900
 H3946 H 1.20406 0.55205 0.41068
 H3947 H 1.23871 0.64581 0.39155
 H3948 H 1.20931 0.63267 0.40444
 C3949 C 0.75209 1.10362 0.39365
 C3950 C 0.75445 1.12661 0.39232
 C3951 C 0.77381 1.13576 0.38402
 C3952 C 0.79105 1.12239 0.37688
 C3953 C 0.78873 1.09963 0.37829
 C3954 C 0.76956 1.09033 0.38657
 C3955 C 0.73101 1.09453 0.40240
 C3956 C 0.72690 1.07193 0.40428
 C3957 C 0.70689 1.06433 0.41231
 C3958 C 0.69046 1.07900 0.41872
 C3959 C 0.69442 1.10153 0.41699
 C3960 C 0.71445 1.10936 0.40892
 C3961 C 0.73744 1.14036 0.39912
 C3962 C 0.71788 1.13193 0.40723
 H3963 H 0.73924 1.15795 0.39810
 H3964 H 0.70520 1.14328 0.41223
 H3965 H 0.77529 1.15337 0.38271
 H3966 H 0.80189 1.08895 0.37312
 H3967 H 0.70434 1.04687 0.41371
 H3968 H 0.68172 1.11303 0.42158
 H3969 H 0.76879 1.07274 0.38724
 H3970 H 0.73886 1.05983 0.39966
 C3971 C 0.74856 0.60602 0.88903
 C3972 C 0.76513 0.61242 0.90390
 C3973 C 0.78493 0.62109 0.89606
 C3974 C 0.78857 0.62348 0.87349
 C3975 C 0.77216 0.61701 0.85881
 C3976 C 0.75245 0.60840 0.86641
 C3977 C 0.72759 0.59701 0.89807
 C3978 C 0.71004 0.59041 0.88465
 C3979 C 0.69088 0.58210 0.89382
 C3980 C 0.68862 0.58008 0.91658
 C3981 C 0.70594 0.58673 0.93012
 C3982 C 0.72533 0.59514 0.92107
 C3983 C 0.76187 0.61014 0.92649
 C3984 C 0.74242 0.60166 0.93488
 H3985 H 0.77456 0.61501 0.93788
 H3986 H 0.74072 0.60024 0.95249
 H3987 H 0.79761 0.62581 0.90753
 H3988 H 0.77442 0.61897 0.84134
 H3989 H 0.67762 0.57748 0.88301
 H3990 H 0.70442 0.58509 0.94773
 H3991 H 0.74051 0.60383 0.85427
 H3992 H 0.71067 0.59158 0.86706
 C3993 C 1.25190 0.89409 1.10515
 C3994 C 1.25396 0.87113 1.10727
 C3995 C 1.27319 0.86201 1.11596
 C3996 C 1.29056 0.87543 1.12270
 C3997 C 1.28855 0.89815 1.12038
 C3998 C 1.26954 0.90739 1.11173
 C3999 C 1.23092 0.90318 1.09617
 C4000 C 1.22708 0.92578 1.09370
 C4001 C 1.20711 0.93341 1.08564
 C4002 C 1.19045 0.91880 1.07977
 C4003 C 1.19416 0.89626 1.08199
 C4004 C 1.21415 0.88839 1.09015
 C4005 C 1.23677 0.85740 1.10089
 C4006 C 1.21731 0.86584 1.09251
 H4007 H 1.23835 0.83983 1.10249
 H4008 H 1.20449 0.85451 1.08789
 H4009 H 1.27445 0.84444 1.11790
 H4010 H 1.30184 0.90885 1.12514
 H4011 H 1.20474 0.95087 1.08385
 H4012 H 1.18128 0.88482 1.07779
 H4013 H 1.26904 0.92495 1.11039
 H4014 H 1.23920 0.93785 1.09793
 C4015 C 1.25203 0.39511 0.60576
 C4016 C 1.25389 0.37219 0.60842
 C4017 C 1.27308 0.36312 0.61720
 C4018 C 1.29068 0.37650 0.62336
 C4019 C 1.28888 0.39918 0.62053
 C4020 C 1.26986 0.40840 0.61186
 C4021 C 1.23108 0.40414 0.59667
 C4022 C 1.22733 0.42671 0.59383
 C4023 C 1.20739 0.43428 0.58564
 C4024 C 1.19071 0.41961 0.57997
 C4025 C 1.19431 0.39712 0.58258
 C4026 C 1.21423 0.38932 0.59093
 C4027 C 1.23660 0.35844 0.60240
 C4028 C 1.21723 0.36681 0.59379
 H4029 H 1.23805 0.34090 0.60440
 H4030 H 1.20432 0.35547 0.58942
 H4031 H 1.27414 0.34560 0.61958
 H4032 H 1.30234 0.40985 0.62486
 H4033 H 1.20506 0.45171 0.58359
 H4034 H 1.18138 0.38568 0.57855
 H4035 H 1.26951 0.42592 0.61006
 H4036 H 1.23949 0.43880 0.59791
 C4037 C 0.74738 0.88864 0.60880
 C4038 C 0.76423 0.90333 0.61487
 C4039 C 0.78399 0.89533 0.62350
 C4040 C 0.78730 0.87278 0.62621
 C4041 C 0.77050 0.85831 0.62035
 C4042 C 0.75084 0.86606 0.61177
 C4043 C 0.72660 0.89781 0.59949
 C4044 C 0.70900 0.88455 0.59275
 C4045 C 0.69003 0.89383 0.58413
 C4046 C 0.68802 0.91656 0.58197
 C4047 C 0.70542 0.92995 0.58868
 C4048 C 0.72465 0.92077 0.59733
 C4049 C 0.76127 0.92589 0.61226
 C4050 C 0.74191 0.93441 0.60373
 H4051 H 0.77415 0.93715 0.61692
 H4052 H 0.74044 0.95199 0.60206
 H4053 H 0.79693 0.90665 0.62782
 H4054 H 0.77246 0.84087 0.62266
 H4055 H 0.67671 0.88315 0.57940
 H4056 H 0.70410 0.94753 0.58689
 H4057 H 0.73860 0.85407 0.60765
 H4058 H 0.70946 0.86698 0.59398
 C4059 C 0.75100 0.39440 1.10673
 C4060 C 0.75291 0.37147 1.10916
 C4061 C 0.77203 0.36236 1.11805
 C4062 C 0.78950 0.37573 1.12461
 C4063 C 0.78762 0.39844 1.12208
 C4064 C 0.76868 0.40769 1.11327
 C4065 C 0.73016 0.40348 1.09743
 C4066 C 0.72645 0.42605 1.09464
 C4067 C 0.70660 0.43367 1.08628
 C4068 C 0.68995 0.41904 1.08039
 C4069 C 0.69354 0.39653 1.08290
 C4070 C 0.71339 0.38868 1.09140
 C4071 C 0.73572 0.35774 1.10281
 C4072 C 0.71640 0.36615 1.09410
 H4073 H 0.73719 0.34018 1.10464
 H4074 H 0.70357 0.35482 1.08949
 H4075 H 0.77317 0.34480 1.12019
 H4076 H 0.80098 0.40911 1.12673
 H4077 H 0.70430 0.45111 1.08428
 H4078 H 0.68066 0.38510 1.07868
 H4079 H 0.76827 0.42523 1.11172
 H4080 H 0.73857 0.43812 1.09888
 C4081 C 0.75266 1.11018 1.11117
 C4082 C 0.73610 1.11654 1.09626
 C4083 C 0.71615 1.12492 1.10407
 C4084 C 0.71231 1.12696 1.12663
 C4085 C 0.72879 1.12074 1.14134
 C4086 C 0.74867 1.11248 1.13378
 C4087 C 0.77364 1.10114 1.10219
 C4088 C 0.79109 1.09437 1.11565
 C4089 C 0.81019 1.08584 1.10654
 C4090 C 0.81248 1.08378 1.08379
 C4091 C 0.79529 1.09066 1.07019
 C4092 C 0.77595 1.09927 1.07920
 C4093 C 0.73947 1.11438 1.07368
 C4094 C 0.75895 1.10591 1.06534
 H4095 H 0.72680 1.11924 1.06225
 H4096 H 0.76071 1.10451 1.04773
 H4097 H 0.70343 1.12949 1.09257
 H4098 H 0.72636 1.12246 1.15882
 H4099 H 0.82337 1.08104 1.11738
 H4100 H 0.79683 1.08900 1.05259
 H4101 H 0.76062 1.10800 1.14595
 H4102 H 0.79041 1.09552 1.13324
 C4103 C 0.75222 0.60773 0.61119
 C4104 C 0.73559 0.61404 0.59634
 C4105 C 0.71571 0.62251 0.60421
 C4106 C 0.71203 0.62477 0.62678
 C4107 C 0.72852 0.61845 0.64144
 C4108 C 0.74831 0.61004 0.63382
 C4109 C 0.77324 0.59885 0.60214
 C4110 C 0.79082 0.59229 0.61555
 C4111 C 0.81000 0.58402 0.60638
 C4112 C 0.81225 0.58201 0.58361
 C4113 C 0.79493 0.58866 0.57007
 C4114 C 0.77551 0.59702 0.57914
 C4115 C 0.73888 0.61184 0.57375
 C4116 C 0.75839 0.60349 0.56534
 H4117 H 0.72616 0.61664 0.56236
 H4118 H 0.76010 0.60210 0.54773
 H4119 H 0.70298 0.62714 0.59274
 H4120 H 0.72624 0.62033 0.65892
 H4121 H 0.82326 0.57940 0.61718
 H4122 H 0.79645 0.58704 0.55246
 H4123 H 0.76030 0.60555 0.64595
 H4124 H 0.79018 0.59344 0.63314
 C4125 C 0.24777 1.10496 0.60443
 C4126 C 0.24549 1.10708 0.62740
 C4127 C 0.22613 1.11561 0.63636
 C4128 C 0.20883 1.12222 0.62278
 C4129 C 0.21103 1.11993 0.60003
 C4130 C 0.23019 1.11140 0.59095
 C4131 C 0.26892 1.09618 0.59554
 C4132 C 0.27301 1.09370 0.57295
 C4133 C 0.29312 1.08579 0.56551
 C4134 C 0.30967 1.08008 0.58035
 C4135 C 0.30572 1.08235 0.60287
 C4136 C 0.28560 1.09034 0.61053
 C4137 C 0.26259 1.10087 0.64133
 C4138 C 0.28220 1.09268 0.63308
 H4139 H 0.26084 1.10247 0.65892
 H4140 H 0.29496 1.08819 0.64456
 H4141 H 0.22472 1.11759 0.65394
 H4142 H 0.19782 1.12465 0.58921
 H4143 H 0.29567 1.08396 0.54806
 H4144 H 0.31852 1.07829 0.61447
 H4145 H 0.23087 1.11007 0.57336
 H4146 H 0.26096 1.09780 0.56073
 C4147 C 0.24892 0.60618 1.10587
 C4148 C 0.24667 0.60787 1.12888
 C4149 C 0.22749 0.61666 1.13800
 C4150 C 0.21039 0.62399 1.12454
 C4151 C 0.21261 0.62219 1.10175
 C4152 C 0.23156 0.61340 1.09251
 C4153 C 0.26981 0.59698 1.09679
 C4154 C 0.27374 0.59467 1.07416
 C4155 C 0.29362 0.58637 1.06654
 C4156 C 0.31010 0.58010 1.08122
 C4157 C 0.30628 0.58214 1.10380
 C4158 C 0.28637 0.59049 1.11165
 C4159 C 0.26363 0.60100 1.14267
 C4160 C 0.28305 0.59252 1.13424
 H4161 H 0.26191 0.60228 1.16029
 H4162 H 0.29571 0.58753 1.14562
 H4163 H 0.22605 0.61823 1.15563
 H4164 H 0.19954 0.62747 1.09101
 H4165 H 0.29604 0.58469 1.04906
 H4166 H 0.31901 0.57763 1.11530
 H4167 H 0.23225 0.61249 1.07490
 H4168 H 0.26175 0.59919 1.06204
 C4169 C 0.74801 0.89577 0.89438
 C4170 C 0.74596 0.87278 0.89263
 C4171 C 0.72688 0.86355 0.88384
 C4172 C 0.70959 0.87683 0.87665
 C4173 C 0.71161 0.89959 0.87842
 C4174 C 0.73052 0.90898 0.88718
 C4175 C 0.76882 0.90495 0.90366
 C4176 C 0.77261 0.92757 0.90598
 C4177 C 0.79242 0.93527 0.91438
 C4178 C 0.80893 0.92068 0.92076
 C4179 C 0.80525 0.89814 0.91870
 C4180 C 0.78544 0.89021 0.91022
 C4181 C 0.76300 0.85912 0.89953
 C4182 C 0.78231 0.86764 0.90812
 H4183 H 0.76142 0.84152 0.89819
 H4184 H 0.79503 0.85636 0.91315
 H4185 H 0.72564 0.84594 0.88223
 H4186 H 0.69841 0.91020 0.87321
 H4187 H 0.79477 0.95274 0.91604
 H4188 H 0.81803 0.88673 0.92328
 H4189 H 0.73107 0.92656 0.88813
 H4190 H 0.76058 0.93960 0.90137
 C4191 C 0.75272 0.39125 0.38898
 C4192 C 0.73608 0.38468 0.40370
 C4193 C 0.71635 0.37602 0.39567
 C4194 C 0.71284 0.37384 0.37306
 C4195 C 0.72936 0.38037 0.35854
 C4196 C 0.74902 0.38895 0.36632
 C4197 C 0.77353 0.40043 0.39821
 C4198 C 0.79109 0.40733 0.38495
 C4199 C 0.81006 0.41589 0.39430
 C4200 C 0.81210 0.41786 0.41708
 C4201 C 0.79479 0.41089 0.43047
 C4202 C 0.77559 0.40224 0.42123
 C4203 C 0.73916 0.38685 0.42632
 C4204 C 0.75847 0.39546 0.43489
 H4205 H 0.72642 0.38184 0.43760
 H4206 H 0.76003 0.39683 0.45252
 H4207 H 0.70359 0.37124 0.40702
 H4208 H 0.72720 0.37856 0.34103
 H4209 H 0.82333 0.42076 0.38360
 H4210 H 0.79614 0.41248 0.44810
 H4211 H 0.76104 0.39361 0.35429
 H4212 H 0.79061 0.40623 0.36735
 C4213 C 0.24744 0.89600 0.39475
 C4214 C 0.24529 0.87302 0.39305
 C4215 C 0.22607 0.86384 0.38444
 C4216 C 0.20878 0.87719 0.37739
 C4217 C 0.21090 0.89995 0.37918
 C4218 C 0.22991 0.90927 0.38775
 C4219 C 0.26838 0.90514 0.40378
 C4220 C 0.27229 0.92774 0.40598
 C4221 C 0.29220 0.93540 0.41417
 C4222 C 0.30872 0.92078 0.42044
 C4223 C 0.30494 0.89824 0.41846
 C4224 C 0.28502 0.89035 0.41020
 C4225 C 0.26236 0.85931 0.39978
 C4226 C 0.28178 0.86779 0.40817
 H4227 H 0.26070 0.84172 0.39849
 H4228 H 0.29451 0.85647 0.41309
 H4229 H 0.22475 0.84624 0.38285
 H4230 H 0.19768 0.91060 0.37411
 H4231 H 0.29462 0.95287 0.41576
 H4232 H 0.31772 0.88680 0.42296
 H4233 H 0.23052 0.92685 0.38871
 H4234 H 0.26025 0.93981 0.40145
 C4235 C 0.24835 0.39419 0.89535
 C4236 C 0.24605 0.39268 0.87232
 C4237 C 0.22690 0.38389 0.86318
 C4238 C 0.20989 0.37633 0.87662
 C4239 C 0.21216 0.37790 0.89941
 C4240 C 0.23107 0.38674 0.90869
 C4241 C 0.26921 0.40342 0.90444
 C4242 C 0.27316 0.40564 0.92708
 C4243 C 0.29303 0.41393 0.93470
 C4244 C 0.30950 0.42027 0.92002
 C4245 C 0.30565 0.41833 0.89745
 C4246 C 0.28573 0.41002 0.88959
 C4247 C 0.26295 0.39972 0.85854
 C4248 C 0.28237 0.40815 0.86699
 H4249 H 0.26120 0.39857 0.84092
 H4250 H 0.29500 0.41325 0.85562
 H4251 H 0.22543 0.38247 0.84554
 H4252 H 0.19916 0.37240 0.91013
 H4253 H 0.29547 0.41554 0.95219
 H4254 H 0.31836 0.42290 0.88594
 H4255 H 0.23182 0.38746 0.92631
 H4256 H 0.26118 0.40106 0.93919
   
