data_POSCAR
  _audit_creation_date              2014-09-24
  _audit_creation_method            'ToBaCCo'
  _symmetry_space_group_name_H-M    'P1'
  _symmetry_Int_Tables_number       1
  _symmetry_cell_setting            triclinic
  loop_
  _symmetry_equiv_pos_as_xyz
 x,y,z
_cell_length_a 80.3324
_cell_length_b 80.2079
_cell_length_c 80.3695
_cell_angle_alpha 90.080600
_cell_angle_beta 90.042200
_cell_angle_gamma 90.049300
loop_
  _atom_site_label
  _atom_site_type_symbol
  _atom_site_fract_x
  _atom_site_fract_y
  _atom_site_fract_z
C1 C 0.30788 0.44254 0.92189
 N2 N 0.32184 0.44932 0.92866
 C3 C 0.32880 0.44277 0.94263
 N4 N 0.32157 0.42922 0.94978
 C5 C 0.30760 0.42228 0.94319
 N6 N 0.30086 0.42900 0.92922
 C7 C 0.44499 0.82627 0.44493
 N8 N 0.45180 0.81926 0.43111
 C9 C 0.44502 0.80540 0.42410
 N10 N 0.43121 0.79854 0.43104
 C11 C 0.42423 0.80532 0.44487
 N12 N 0.43118 0.81919 0.45170
 C13 C 0.94309 0.92236 0.80786
 N14 N 0.92950 0.92962 0.80091
 C15 C 0.92267 0.94354 0.80771
 N16 N 0.92957 0.95015 0.82168
 C17 C 0.94317 0.94307 0.82886
 N18 N 0.94982 0.92915 0.82183
 C19 C 0.44370 -0.07669 0.30549
 N20 N 0.45069 -0.06959 0.31919
 C21 C 0.44387 -0.05585 0.32635
 N22 N 0.42982 -0.04920 0.31968
 C23 C 0.42265 -0.05608 0.30598
 N24 N 0.42965 -0.06982 0.29899
 C25 C 0.80846 0.30823 0.32902
 N26 N 0.80163 0.32203 0.32201
 C27 C 0.80843 0.32898 0.30818
 N28 N 0.82227 0.32200 0.30141
 C29 C 0.82927 0.30820 0.30826
 N30 N 0.82230 0.30142 0.32208
 C31 C -0.19343 0.82777 0.80662
 N32 N -0.20042 0.82063 0.82028
 C33 C -0.19358 0.80689 0.82745
 N34 N -0.17952 0.80029 0.82073
 C35 C -0.17234 0.80721 0.80708
 N36 N -0.17937 0.82094 0.80014
 C37 C 0.94290 0.32667 0.44279
 N38 N 0.92896 0.31971 0.44938
 C39 C 0.92183 0.30610 0.44225
 N40 N 0.92876 0.29948 0.42831
 C41 C 0.94270 0.30626 0.42155
 N42 N 0.94966 0.31988 0.42885
 C43 C 0.44170 0.44185 0.82961
 N44 N 0.42792 0.44873 0.82260
 C45 C 0.42098 0.44206 0.80867
 N46 N 0.42796 0.42828 0.80174
 C47 C 0.44175 0.42123 0.80853
 N48 N 0.44850 0.42807 0.82246
 C49 C 0.80718 0.92282 0.94366
 N50 N 0.80014 0.93003 0.93008
 C51 C 0.80704 0.94375 0.92296
 N52 N 0.82121 0.95025 0.92955
 C53 C 0.82848 0.94326 0.94314
 N54 N 0.82135 0.92955 0.95008
 C55 C 0.30597 0.82782 0.30632
 N56 N 0.31966 0.82062 0.29943
 C57 C 0.32638 0.80657 0.30605
 N58 N 0.31929 0.79971 0.31977
 C59 C 0.30560 0.80669 0.32683
 N60 N 0.29905 0.82074 0.32004
 C61 C 0.80675 0.42170 0.44261
 N62 N 0.82031 0.42900 0.44964
 C63 C 0.82714 0.44295 0.44291
 N64 N 0.82029 0.44955 0.42894
 C65 C 0.80673 0.44242 0.42174
 N66 N 0.80006 0.42847 0.42863
 C67 C 0.94310 0.82842 -0.05786
 N68 N 0.92955 0.82106 -0.05089
 C69 C 0.92276 0.80708 -0.05763
 N70 N 0.92965 0.80045 -0.07157
 C71 C 0.94321 0.80758 -0.07878
 N72 N 0.94982 0.82156 -0.07181
 C73 C 0.30728 0.32778 0.80732
 N74 N 0.32122 0.32086 0.80069
 C75 C 0.32807 0.30695 0.80746
 N76 N 0.32085 0.30000 0.82108
 C77 C 0.30692 0.30675 0.82788
 N78 N 0.30024 0.32066 0.82094
 C79 C 0.17199 0.55738 0.55713
 N80 N 0.17894 0.57133 0.55052
 C81 C 0.19289 0.57812 0.55729
 N82 N 0.19986 0.57084 0.57086
 C83 C 0.19307 0.55689 0.57764
 N84 N 0.17912 0.55027 0.57071
 C85 C 0.57811 0.69369 0.05710
 N86 N 0.57131 0.70049 0.07101
 C87 C 0.55740 0.69382 0.07796
 N88 N 0.55033 0.68016 0.07086
 C89 C 0.55697 0.67319 0.05695
 N90 N 0.57088 0.68002 0.05017
 C91 C 0.69414 0.19408 0.67338
 N92 N 0.68042 0.20093 0.68051
 C93 C 0.67341 0.19397 0.69423
 N94 N 0.68025 0.17994 0.70077
 C95 C 0.69396 0.17291 0.69380
 N96 N 0.70081 0.18005 0.68009
 C97 C 1.07689 0.05491 0.19409
 N98 N 1.06980 0.06873 0.20085
 C99 C 1.05595 0.07562 0.19402
 N100 N 1.04919 0.06857 0.18020
 C101 C 1.05605 0.05474 0.17321
 N102 N 1.06990 0.04803 0.18026
 C103 C 0.05649 0.17233 1.05664
 N104 N 0.07049 0.17912 1.04996
 C105 C 0.07758 0.19293 1.05673
 N106 N 0.07055 0.19996 1.07041
 C107 C 0.05656 0.19341 1.07732
 N108 N 0.04964 0.17959 1.07032
 C109 C 0.17310 0.69407 0.69377
 N110 N 0.18025 0.68036 0.70065
 C111 C 0.19392 0.67327 0.69367
 N112 N 0.20041 0.68001 0.67959
 C113 C 0.19343 0.69371 0.67253
 N114 N 0.17976 0.70064 0.67969
 C115 C 1.19453 0.17338 0.19340
 N116 N 1.18085 0.18046 0.20037
 C117 C 1.17376 0.19421 0.19353
 N118 N 1.18047 0.20084 0.17951
 C119 C 1.19416 0.19394 0.17231
 N120 N 1.20107 0.18019 0.17937
 C121 C 0.67090 1.05749 0.55779
 N122 N 0.67775 1.05082 0.57175
 C123 C 0.69167 1.05751 0.57867
 N124 N 0.69877 1.07109 0.57149
 C125 C 0.69216 1.07798 0.55752
 N126 N 0.67822 1.07107 0.55079
 C127 C 0.55560 0.55613 0.17358
 N128 N 0.56935 0.54930 0.18067
 C129 C 0.57644 0.55631 0.19434
 N130 N 0.56966 0.57038 0.20089
 C131 C 0.55591 0.57739 0.19396
 N132 N 0.54899 0.57020 0.18029
 C133 C 0.67135 0.69303 0.19186
 N134 N 0.67817 0.69974 0.17791
 C135 C 0.69212 0.69308 0.17105
 N136 N 0.69922 0.67952 0.17826
 C137 C 0.69258 0.67266 0.19220
 N138 N 0.67862 0.67947 0.19890
 C139 C 0.17248 0.05602 1.05672
 N140 N 0.17932 0.07012 1.05027
 C141 C 0.19303 0.07716 1.05728
 N142 N 0.19990 0.06997 1.07095
 C143 C 0.19329 0.05587 1.07762
 N144 N 0.17958 0.04902 1.07039
 C145 C 0.57609 0.19423 0.55554
 N146 N 0.56909 0.20124 0.56926
 C147 C 0.55537 0.19440 0.57640
 N148 N 0.54869 0.18034 0.56970
 C149 C 0.55552 0.17316 0.55599
 N150 N 0.56924 0.18017 0.54902
 C151 C 0.07660 0.55585 0.69363
 N152 N 0.06945 0.56960 0.70047
 C153 C 0.05578 0.57665 0.69345
 N154 N 0.04929 0.56984 0.67938
 C155 C 0.05627 0.55610 0.67236
 N156 N 0.06994 0.54921 0.67956
 C157 C 0.67334 0.55660 0.05581
 N158 N 0.68014 0.57065 0.04927
 C159 C 0.69390 0.57769 0.05620
 N160 N 0.70081 0.57054 0.06987
 C161 C 0.69418 0.55649 0.07658
 N162 N 0.68043 0.54962 0.06948
 C163 C 0.05706 0.69315 0.57746
 N164 N 0.07097 0.69988 0.57058
 C165 C 0.07813 0.69287 0.55695
 N166 N 0.07124 0.67892 0.55024
 C167 C 0.05733 0.67202 0.55695
 N168 N 0.05034 0.67920 0.57058
 C169 C 0.55760 1.05690 0.67107
 N170 N 0.57148 1.05019 0.67807
 C171 C 0.57820 1.05681 0.69212
 N172 N 0.57092 1.07037 0.69918
 C173 C 0.55704 1.07725 0.69240
 N174 N 0.55049 1.07045 0.67835
 C175 C 0.44278 0.32861 0.94278
 N176 N 0.44945 0.32171 0.92882
 C177 C 0.44278 0.30774 0.92194
 N178 N 0.42922 0.30064 0.92914
 C179 C 0.42239 0.30731 0.94310
 N180 N 0.42923 0.32129 0.94981
 C181 C 0.94276 0.44247 0.32794
 N182 N 0.92887 0.44930 0.32109
 C183 C 0.92163 0.44244 0.30741
 N184 N 0.92841 0.42851 0.30057
 C185 C 0.94230 0.42150 0.30720
 N186 N 0.94936 0.42854 0.32088
 C187 C 0.30707 0.94373 0.42215
 N188 N 0.30010 0.93010 0.42937
 C189 C 0.30667 0.92348 0.44346
 N190 N 0.32042 0.93060 0.45029
 C191 C 0.32762 0.94423 0.44326
 N192 N 0.32083 0.95068 0.42916
 O193 O 0.20539 0.52142 0.74916
 O194 O 0.21117 0.51899 0.77819
 O195 O 0.24904 0.54442 0.72933
 O196 O 0.27650 0.53946 0.72868
 O197 O 0.22842 0.50063 0.70582
 O198 O 0.22959 0.47162 0.71198
 O199 O 0.29325 0.49917 0.77208
 O200 O 0.28845 0.52758 0.76883
 O201 O 0.25096 0.47824 0.79366
 O202 O 0.22242 0.48060 0.78923
 O203 O 0.27113 0.45631 0.75143
 O204 O 0.27038 0.46209 0.72163
 O205 O 0.29330 0.47901 0.75204
 O206 O 0.28724 0.48063 0.72123
 O207 O 0.25095 0.45612 0.77131
 O208 O 0.22025 0.46268 0.76915
 O209 O 0.27126 0.49808 0.79366
 O210 O 0.26595 0.52814 0.78856
 O211 O 0.20523 0.50098 0.72939
 O212 O 0.21155 0.47142 0.73085
 O213 O 0.24846 0.52074 0.70574
 O214 O 0.27853 0.51817 0.71258
 O215 O 0.22833 0.54434 0.74873
 O216 O 0.23374 0.53793 0.77862
 Zr217 Zr 0.22957 0.52032 0.75926
 O218 O 0.24404 0.50528 0.77512
 Zr219 Zr 0.25875 0.52004 0.72986
 O220 O 0.27466 0.50559 0.74486
 Zr221 Zr 0.22941 0.49078 0.73006
 O222 O 0.24426 0.47480 0.74458
 Zr223 Zr 0.26933 0.50945 0.77015
 O224 O 0.25494 0.52569 0.75517
 Zr225 Zr 0.24019 0.47998 0.76987
 O226 O 0.22401 0.49488 0.75536
 Zr227 Zr 0.26959 0.48022 0.74079
 O228 O 0.25473 0.49466 0.72445
 O229 O 0.23362 0.51598 0.73406
 O230 O 0.26547 0.48409 0.76604
 C231 C 0.19827 0.51275 0.73773
 C232 C 0.23716 0.55141 0.73744
 C233 C 0.23688 0.51220 0.69874
 C234 C 0.30015 0.48725 0.76395
 C235 C 0.26301 0.48622 0.80050
 C236 C 0.26291 0.44932 0.76319
 H237 H 0.24126 0.50783 0.78685
 H238 H 0.24160 0.46310 0.74177
 H239 H 0.22653 0.52307 0.72691
 H240 H 0.28638 0.50844 0.74239
 H241 H 0.28307 0.53815 0.76543
 H242 H 0.28501 0.53703 0.73722
 H243 H 0.22242 0.45471 0.76000
 H244 H 0.20571 0.47247 0.74164
 H245 H 0.27559 0.52770 0.79626
 H246 H 0.22551 0.54709 0.77769
 H247 H 0.25991 0.45561 0.72217
 H248 H 0.24077 0.47184 0.70681
 H249 H 0.20398 0.52901 0.77752
 H250 H 0.21396 0.48890 0.78588
 H251 H 0.27660 0.50790 0.70601
 H252 H 0.29497 0.49001 0.72332
 O253 O 0.20545 0.02125 0.24857
 O254 O 0.21130 0.01894 0.27760
 O255 O 0.24910 0.04410 0.22855
 O256 O 0.27654 0.03909 0.22777
 O257 O 0.22833 0.00021 0.20529
 O258 O 0.22952 -0.02877 0.21160
 O259 O 0.29339 -0.00092 0.27135
 O260 O 0.28857 0.02746 0.26800
 O261 O 0.25111 -0.02171 0.29320
 O262 O 0.22257 -0.01938 0.28883
 O263 O 0.27114 -0.04392 0.25103
 O264 O 0.27035 -0.03832 0.22124
 O265 O 0.29337 -0.02119 0.25143
 O266 O 0.28717 -0.01977 0.22063
 O267 O 0.25101 -0.04399 0.27095
 O268 O 0.22032 -0.03740 0.26886
 O269 O 0.27144 -0.00190 0.29304
 O270 O 0.26612 0.02813 0.28778
 O271 O 0.20522 0.00070 0.22892
 O272 O 0.21153 -0.02886 0.23053
 O273 O 0.24839 0.02030 0.20505
 O274 O 0.27849 0.01772 0.21181
 O275 O 0.22844 0.04414 0.24799
 O276 O 0.23388 0.03787 0.27789
 Zr277 Zr 0.22966 0.02018 0.25862
 O278 O 0.24416 0.00521 0.27452
 Zr279 Zr 0.25876 0.01970 0.22914
 O280 O 0.27470 0.00533 0.24418
 Zr281 Zr 0.22940 -0.00952 0.22958
 O282 O 0.24428 -0.02543 0.24415
 Zr283 Zr 0.26945 0.00933 0.26946
 O284 O 0.25502 0.02550 0.25444
 Zr285 Zr 0.24029 -0.02011 0.26943
 O286 O 0.22407 -0.00528 0.25488
 Zr287 Zr 0.26961 -0.02007 0.24026
 O288 O 0.25471 -0.00570 0.22389
 O289 O 0.23364 0.01570 0.23344
 O290 O 0.26557 -0.01605 0.26551
 C291 C 0.19830 0.01252 0.23721
 C292 C 0.23726 0.05116 0.23666
 C293 C 0.23677 0.01174 0.19813
 C294 C 0.30027 -0.01287 0.26325
 C295 C 0.26318 -0.01370 0.29998
 C296 C 0.26292 -0.05085 0.26283
 H297 H 0.24143 0.00783 0.28624
 H298 H 0.24160 -0.03714 0.24141
 H299 H 0.22654 0.02277 0.22627
 H300 H 0.28641 0.00816 0.24165
 H301 H 0.28318 0.03800 0.26454
 H302 H 0.28505 0.03673 0.23634
 H303 H 0.22243 -0.04540 0.25973
 H304 H 0.20571 -0.02774 0.24132
 H305 H 0.27578 0.02772 0.29546
 H306 H 0.22565 0.04702 0.27694
 H307 H 0.25984 -0.04472 0.22177
 H308 H 0.24068 -0.02858 0.20639
 H309 H 0.20412 0.02897 0.27689
 H310 H 0.21411 -0.01109 0.28547
 H311 H 0.27650 0.00742 0.20529
 H312 H 0.29491 -0.01038 0.22263
 O313 O 0.49875 0.77213 0.29429
 O314 O 0.52711 0.77007 0.28889
 O315 O 0.47856 0.79502 0.25054
 O316 O 0.47787 0.78999 0.22317
 O317 O 0.45524 0.75123 0.27124
 O318 O 0.46146 0.72221 0.27000
 O319 O 0.52150 0.74993 0.20643
 O320 O 0.51824 0.77822 0.21119
 O321 O 0.54322 0.72916 0.24862
 O322 O 0.53748 0.73027 0.27860
 O323 O 0.50091 0.70695 0.22843
 O324 O 0.47123 0.71262 0.22912
 O325 O 0.50154 0.72969 0.20633
 O326 O 0.47065 0.73127 0.21242
 O327 O 0.52085 0.70684 0.24856
 O328 O 0.51909 0.71323 0.27915
 O329 O 0.54313 0.74898 0.22837
 O330 O 0.53766 0.77912 0.23398
 O331 O 0.47901 0.75164 0.29441
 O332 O 0.48031 0.72208 0.28806
 O333 O 0.45508 0.77129 0.25122
 O334 O 0.46190 0.76863 0.22114
 O335 O 0.49821 0.79504 0.27100
 O336 O 0.52822 0.78848 0.26728
 Zr337 Zr 0.50863 0.77094 0.27010
 O338 O 0.52463 0.75603 0.25562
 Zr339 Zr 0.47920 0.77062 0.24093
 O340 O 0.49425 0.75623 0.22501
 Zr341 Zr 0.47950 0.74141 0.27021
 O342 O 0.49410 0.72545 0.25535
 Zr343 Zr 0.51954 0.76018 0.23036
 O344 O 0.50453 0.77639 0.24476
 Zr345 Zr 0.51941 0.73068 0.25942
 O346 O 0.50480 0.74551 0.27555
 Zr347 Zr 0.49027 0.73085 0.23002
 O348 O 0.47388 0.74524 0.24490
 O349 O 0.48342 0.76663 0.26608
 O350 O 0.51554 0.73479 0.23415
 C351 C 0.48737 0.76341 0.30139
 C352 C 0.48682 0.80208 0.26228
 C353 C 0.44811 0.76277 0.26279
 C354 C 0.51341 0.73798 0.19950
 C355 C 0.55003 0.73716 0.23659
 C356 C 0.51271 0.69999 0.23664
 H357 H 0.53634 0.75880 0.25827
 H358 H 0.49132 0.71374 0.25799
 H359 H 0.47629 0.77375 0.27318
 H360 H 0.49176 0.75907 0.21331
 H361 H 0.51465 0.78877 0.21650
 H362 H 0.48647 0.78763 0.21471
 H363 H 0.50964 0.70554 0.27726
 H364 H 0.49122 0.72301 0.29374
 H365 H 0.54554 0.77869 0.22450
 H366 H 0.52720 0.79709 0.27610
 H367 H 0.47160 0.70634 0.23970
 H368 H 0.45624 0.72244 0.25884
 H369 H 0.52697 0.75861 0.29346
 H370 H 0.54423 0.74054 0.27764
 H371 H 0.45531 0.75839 0.22313
 H372 H 0.47278 0.74055 0.20462
 O373 O 0.00084 0.70575 0.72845
 O374 O -0.02819 0.71161 0.73094
 O375 O 0.02085 0.74939 0.70559
 O376 O 0.02149 0.77692 0.71056
 O377 O 0.04431 0.72877 0.74921
 O378 O 0.03816 0.72989 0.77816
 O379 O -0.02177 0.79379 0.75095
 O380 O -0.01858 0.78900 0.72258
 O381 O -0.04350 0.75141 0.77171
 O382 O -0.03913 0.72284 0.76931
 O383 O -0.00116 0.77157 0.79360
 O384 O 0.02867 0.77074 0.78777
 O385 O -0.00169 0.79379 0.77101
 O386 O 0.02908 0.78767 0.76936
 O387 O -0.02111 0.75141 0.79378
 O388 O -0.01904 0.72065 0.78715
 O389 O -0.04346 0.77177 0.75199
 O390 O -0.03838 0.76649 0.72197
 O391 O 0.02066 0.70555 0.74879
 O392 O 0.01922 0.71186 0.77832
 O393 O 0.04444 0.74886 0.72920
 O394 O 0.03767 0.77896 0.73179
 O395 O 0.00135 0.72870 0.70565
 O396 O -0.02854 0.73421 0.71208
 Zr397 Zr -0.00918 0.72998 0.72962
 O398 O -0.02498 0.74450 0.74470
 Zr399 Zr 0.02032 0.75916 0.72993
 O400 O 0.00539 0.77512 0.74443
 Zr401 Zr 0.02006 0.72976 0.75906
 O402 O 0.00559 0.74465 0.77508
 Zr403 Zr -0.01994 0.76982 0.74061
 O404 O -0.00502 0.75539 0.72433
 Zr405 Zr -0.01973 0.74062 0.76994
 O406 O -0.00527 0.72440 0.75499
 Zr407 Zr 0.00947 0.77002 0.76973
 O408 O 0.02574 0.75512 0.75524
 O409 O 0.01605 0.73400 0.73393
 O410 O -0.01581 0.76594 0.76590
 C411 C 0.01227 0.69860 0.73705
 C412 C 0.01270 0.73749 0.69860
 C413 C 0.05142 0.73725 0.73769
 C414 C -0.01359 0.80068 0.76284
 C415 C -0.05033 0.76348 0.76378
 C416 C -0.01295 0.76336 0.80058
 H417 H -0.03672 0.74174 0.74216
 H418 H 0.00841 0.74198 0.78674
 H419 H 0.02318 0.72689 0.72683
 H420 H 0.00789 0.78685 0.74161
 H421 H -0.01519 0.78362 0.71201
 H422 H 0.01304 0.78551 0.71308
 H423 H -0.00988 0.72281 0.79511
 H424 H 0.00841 0.70603 0.77727
 H425 H -0.04606 0.77615 0.72245
 H426 H -0.02764 0.72597 0.70293
 H427 H 0.02805 0.76030 0.79427
 H428 H 0.04334 0.74110 0.77800
 H429 H -0.02755 0.70440 0.72092
 H430 H -0.03582 0.71437 0.76100
 H431 H 0.04421 0.77704 0.74206
 H432 H 0.02704 0.79540 0.75999
 O433 O 0.00127 0.04393 0.02216
 O434 O -0.02777 0.03812 0.01965
 O435 O 0.02117 0.00010 0.04477
 O436 O 0.02181 -0.02739 0.03960
 O437 O 0.04463 0.02102 0.00128
 O438 O 0.03845 0.02003 -0.02769
 O439 O -0.02161 -0.04396 -0.00085
 O440 O -0.01836 -0.03933 0.02755
 O441 O -0.04326 -0.00144 -0.02136
 O442 O -0.03882 0.02711 -0.01878
 O443 O -0.00101 -0.02150 -0.04338
 O444 O 0.02882 -0.02074 -0.03755
 O445 O -0.00156 -0.04386 -0.02092
 O446 O 0.02923 -0.03777 -0.01923
 O447 O -0.02091 -0.00132 -0.04342
 O448 O -0.01874 0.02940 -0.03661
 O449 O -0.04324 -0.02192 -0.00177
 O450 O -0.03810 -0.01681 0.02829
 O451 O 0.02104 0.04423 0.00180
 O452 O 0.01956 0.03809 -0.02776
 O453 O 0.04475 0.00082 0.02117
 O454 O 0.03792 -0.02928 0.01836
 O455 O 0.00175 0.02081 0.04484
 O456 O -0.02816 0.01540 0.03836
 Zr457 Zr -0.00881 0.01971 0.02085
 O458 O -0.02468 0.00530 0.00569
 Zr459 Zr 0.02062 -0.00949 0.02036
 O460 O 0.00561 -0.02535 0.00577
 Zr461 Zr 0.02037 0.02008 -0.00859
 O462 O 0.00584 0.00530 -0.02469
 Zr463 Zr -0.01970 -0.02006 0.00963
 O464 O -0.00471 -0.00573 0.02599
 Zr465 Zr -0.01946 0.00932 -0.01952
 O466 O -0.00494 0.02544 -0.00449
 Zr467 Zr 0.00966 -0.02011 -0.01950
 O468 O 0.02600 -0.00530 -0.00493
 O469 O 0.01639 0.01569 0.01652
 O470 O -0.01560 -0.01603 -0.01564
 C471 C 0.01270 0.05112 0.01359
 C472 C 0.01306 0.01195 0.05184
 C473 C 0.05174 0.01249 0.01276
 C474 C -0.01347 -0.05079 -0.01278
 C475 C -0.05011 -0.01356 -0.01352
 C476 C -0.01279 -0.01324 -0.05030
 H477 H -0.03641 0.00805 0.00825
 H478 H 0.00865 0.00804 -0.03634
 H479 H 0.02355 0.02276 0.02366
 H480 H 0.00809 -0.03710 0.00852
 H481 H -0.01494 -0.03402 0.03815
 H482 H 0.01329 -0.03592 0.03707
 H483 H -0.00962 0.02728 -0.04459
 H484 H 0.00876 0.04392 -0.02667
 H485 H -0.04581 -0.02646 0.02775
 H486 H -0.02723 0.02358 0.04757
 H487 H 0.02824 -0.01024 -0.04397
 H488 H 0.04361 0.00883 -0.02757
 H489 H -0.02709 0.04526 0.02972
 H490 H -0.03548 0.03553 -0.01042
 H491 H 0.04447 -0.02728 0.00812
 H492 H 0.02719 -0.04555 -0.00991
 O493 O -0.00100 0.47784 0.45531
 O494 O 0.02742 0.48006 0.46067
 O495 O -0.02111 0.45512 0.49906
 O496 O -0.02166 0.46020 0.52644
 O497 O -0.04442 0.49885 0.47831
 O498 O -0.03816 0.52786 0.47937
 O499 O 0.02191 0.50044 0.54309
 O500 O 0.01868 0.47213 0.53841
 O501 O 0.04361 0.52107 0.50077
 O502 O 0.03780 0.51991 0.47084
 O503 O 0.00135 0.54327 0.52098
 O504 O -0.02839 0.53757 0.52021
 O505 O 0.00191 0.52060 0.54312
 O506 O -0.02894 0.51901 0.53700
 O507 O 0.02125 0.54336 0.50084
 O508 O 0.01938 0.53690 0.47023
 O509 O 0.04353 0.50136 0.52113
 O510 O 0.03807 0.47119 0.51563
 O511 O -0.02075 0.49828 0.45512
 O512 O -0.01932 0.52790 0.46131
 O513 O -0.04455 0.47883 0.49838
 O514 O -0.03768 0.48154 0.52843
 O515 O -0.00144 0.45507 0.47864
 O516 O 0.02857 0.46168 0.48234
 Zr517 Zr 0.00898 0.47919 0.47947
 O518 O 0.02499 0.49417 0.49391
 Zr519 Zr -0.02041 0.47954 0.50864
 O520 O -0.00534 0.49402 0.52451
 Zr521 Zr -0.02014 0.50867 0.47926
 O522 O -0.00554 0.52471 0.49407
 Zr523 Zr 0.01994 0.49010 0.51918
 O524 O 0.00492 0.47381 0.50483
 Zr525 Zr 0.01976 0.51950 0.49002
 O526 O 0.00514 0.50459 0.47392
 Zr527 Zr -0.00934 0.51938 0.51941
 O528 O -0.02574 0.50490 0.50458
 O529 O -0.01623 0.48347 0.48349
 O530 O 0.01593 0.51547 0.51530
 C531 C -0.01244 0.48646 0.44819
 C532 C -0.01286 0.44804 0.48734
 C533 C -0.05154 0.48733 0.48679
 C534 C 0.01378 0.51236 0.54999
 C535 C 0.05043 0.51314 0.51283
 C536 C 0.01315 0.55022 0.51278
 H537 H 0.03669 0.49142 0.49126
 H538 H -0.00831 0.53640 0.49140
 H539 H -0.02338 0.47632 0.47642
 H540 H -0.00782 0.49121 0.53622
 H541 H 0.01508 0.46155 0.53314
 H542 H -0.01310 0.46266 0.53494
 H543 H 0.00997 0.54461 0.47214
 H544 H -0.00844 0.52692 0.45562
 H545 H 0.04597 0.47168 0.52511
 H546 H 0.02754 0.45306 0.47353
 H547 H -0.02793 0.54392 0.50968
 H548 H -0.04332 0.52772 0.49055
 H549 H 0.02718 0.49146 0.45598
 H550 H 0.04448 0.50959 0.47174
 H551 H -0.04426 0.49178 0.52643
 H552 H -0.02685 0.50971 0.54479
 O553 O 0.47853 -0.04468 0.49882
 O554 O 0.48063 -0.03928 0.52719
 O555 O 0.45564 -0.00086 0.47871
 O556 O 0.46063 0.02656 0.47813
 O557 O 0.49936 -0.02157 0.45538
 O558 O 0.52833 -0.02037 0.46163
 O559 O 0.50066 0.04337 0.52172
 O560 O 0.47243 0.03856 0.51852
 O561 O 0.52146 0.00103 0.54340
 O562 O 0.52039 -0.02899 0.53755
 O563 O 0.54355 0.02138 0.50122
 O564 O 0.53793 0.02059 0.47151
 O565 O 0.52080 0.04348 0.50174
 O566 O 0.51927 0.03729 0.47089
 O567 O 0.54371 0.00118 0.52108
 O568 O 0.53740 -0.02950 0.51918
 O569 O 0.50172 0.02137 0.54333
 O570 O 0.47161 0.01573 0.53788
 O571 O 0.49896 -0.04481 0.47909
 O572 O 0.52847 -0.03845 0.48044
 O573 O 0.47931 -0.00151 0.45527
 O574 O 0.48193 0.02862 0.46217
 O575 O 0.45565 -0.02135 0.49832
 O576 O 0.46223 -0.01762 0.52834
 Zr577 Zr 0.47973 -0.02045 0.50876
 O578 O 0.49463 -0.00594 0.52478
 Zr579 Zr 0.47999 0.00878 0.47941
 O580 O 0.49437 0.02472 0.49449
 Zr581 Zr 0.50918 -0.02056 0.47965
 O582 O 0.52513 -0.00567 0.49427
 Zr583 Zr 0.49047 0.01937 0.51976
 O584 O 0.47427 0.00494 0.50471
 Zr585 Zr 0.51994 -0.00975 0.51956
 O586 O 0.50511 -0.02592 0.50492
 Zr587 Zr 0.51971 0.01970 0.49050
 O588 O 0.50533 0.00480 0.47409
 O589 O 0.48399 -0.01642 0.48356
 O590 O 0.51582 0.01557 0.51575
 C591 C 0.48721 -0.05180 0.48742
 C592 C 0.44860 -0.01263 0.48694
 C593 C 0.48783 -0.01310 0.44828
 C594 C 0.51253 0.05033 0.51360
 C595 C 0.51350 0.01309 0.55023
 C596 C 0.55051 0.01318 0.51302
 H597 H 0.49189 -0.00861 0.53648
 H598 H 0.53682 -0.00831 0.49151
 H599 H 0.47689 -0.02354 0.47642
 H600 H 0.49151 0.03645 0.49201
 H601 H 0.46189 0.03323 0.51492
 H602 H 0.46300 0.03504 0.48675
 H603 H 0.54510 -0.02756 0.50978
 H604 H 0.52756 -0.04413 0.49133
 H605 H 0.47206 0.02523 0.54579
 H606 H 0.45364 -0.02645 0.52729
 H607 H 0.54425 0.01003 0.47191
 H608 H 0.52813 -0.00916 0.45648
 H609 H 0.49205 -0.04388 0.52702
 H610 H 0.51014 -0.02807 0.54429
 H611 H 0.49214 0.02663 0.45556
 H612 H 0.50997 0.04509 0.47298
 O613 O 0.54423 0.52170 0.00118
 O614 O 0.53840 0.51925 -0.02785
 O615 O 0.50063 0.54463 0.02114
 O616 O 0.47315 0.53967 0.02172
 O617 O 0.52119 0.50088 0.04452
 O618 O 0.52008 0.47189 0.03828
 O619 O 0.45634 0.49928 -0.02169
 O620 O 0.46115 0.52771 -0.01840
 O621 O 0.49863 0.47841 -0.04335
 O622 O 0.52717 0.48084 -0.03895
 O623 O 0.47850 0.45648 -0.00118
 O624 O 0.47929 0.46231 0.02867
 O625 O 0.45631 0.47913 -0.00171
 O626 O 0.46238 0.48076 0.02908
 O627 O 0.49867 0.45631 -0.02105
 O628 O 0.52936 0.46293 -0.01890
 O629 O 0.47831 0.49819 -0.04329
 O630 O 0.48363 0.52828 -0.03815
 O631 O 0.54440 0.50131 0.02094
 O632 O 0.53809 0.47172 0.01940
 O633 O 0.50114 0.52095 0.04466
 O634 O 0.47110 0.51839 0.03782
 O635 O 0.52131 0.54457 0.00170
 O636 O 0.51584 0.53815 -0.02820
 Zr637 Zr 0.52004 0.52056 -0.00889
 O638 O 0.50556 0.50548 -0.02476
 Zr639 Zr 0.49088 0.52025 0.02053
 O640 O 0.47495 0.50575 0.00552
 Zr641 Zr 0.52022 0.49104 0.02025
 O642 O 0.50536 0.47502 0.00571
 Zr643 Zr 0.48027 0.50960 -0.01977
 O644 O 0.49467 0.52589 -0.00478
 Zr645 Zr 0.50942 0.48019 -0.01958
 O646 O 0.52561 0.49513 -0.00504
 Zr647 Zr 0.48003 0.48039 0.00953
 O648 O 0.49490 0.49488 0.02587
 O649 O 0.51600 0.51623 0.01630
 O650 O 0.48413 0.48425 -0.01571
 C651 C 0.55135 0.51307 0.01260
 C652 C 0.51251 0.55164 0.01303
 C653 C 0.51271 0.51242 0.05164
 C654 C 0.44945 0.48735 -0.01359
 C655 C 0.48656 0.48635 -0.05016
 C656 C 0.48672 0.44949 -0.01295
 H657 H 0.50832 0.50803 -0.03649
 H658 H 0.50803 0.46333 0.00849
 H659 H 0.52310 0.52333 0.02348
 H660 H 0.46324 0.50859 0.00800
 H661 H 0.46653 0.53828 -0.01499
 H662 H 0.46459 0.53718 0.01322
 H663 H 0.52722 0.45497 -0.00976
 H664 H 0.54394 0.47279 0.00861
 H665 H 0.47398 0.52781 -0.04585
 H666 H 0.52407 0.54732 -0.02726
 H667 H 0.48971 0.45577 0.02805
 H668 H 0.50888 0.47204 0.04342
 H669 H 0.54559 0.52928 -0.02716
 H670 H 0.53565 0.48914 -0.03558
 H671 H 0.47299 0.50809 0.04431
 H672 H 0.45467 0.49015 0.02705
 O673 O 0.70532 0.22794 0.50080
 O674 O 0.71072 0.22996 0.47242
 O675 O 0.74896 0.20492 0.52101
 O676 O 0.77639 0.20978 0.52152
 O677 O 0.72852 0.24882 0.54427
 O678 O 0.72980 0.27781 0.53802
 O679 O 0.79328 0.24982 0.47797
 O680 O 0.78842 0.22153 0.48123
 O681 O 0.75111 0.27074 0.45631
 O682 O 0.72111 0.26971 0.46205
 O683 O 0.77141 0.29287 0.49854
 O684 O 0.77068 0.28719 0.52828
 O685 O 0.79344 0.27007 0.49792
 O686 O 0.78741 0.26855 0.52877
 O687 O 0.75124 0.29304 0.47865
 O688 O 0.72060 0.28675 0.48045
 O689 O 0.77132 0.25086 0.45638
 O690 O 0.76560 0.22073 0.46182
 O691 O 0.70529 0.24842 0.52055
 O692 O 0.71171 0.27796 0.51919
 O693 O 0.74849 0.22869 0.54442
 O694 O 0.77856 0.23115 0.53754
 O695 O 0.72850 0.20496 0.50135
 O696 O 0.73228 0.21143 0.47134
 Zr697 Zr 0.72952 0.22903 0.49089
 O698 O 0.74404 0.24388 0.47489
 Zr699 Zr 0.75872 0.22925 0.52028
 O700 O 0.77468 0.24359 0.50522
 Zr701 Zr 0.72953 0.25859 0.52000
 O702 O 0.74443 0.27449 0.50540
 Zr703 Zr 0.76930 0.23964 0.47995
 O704 O 0.75485 0.22349 0.49497
 Zr705 Zr 0.74031 0.26924 0.48011
 O706 O 0.72413 0.25448 0.49473
 Zr707 Zr 0.76975 0.26899 0.50920
 O708 O 0.75484 0.25466 0.52560
 O709 O 0.73358 0.23335 0.51609
 O710 O 0.76558 0.26505 0.48396
 C711 C 0.69826 0.23667 0.51220
 C712 C 0.73716 0.19790 0.51278
 C713 C 0.73696 0.23728 0.55139
 C714 C 0.80024 0.26176 0.48605
 C715 C 0.76312 0.26272 0.44950
 C716 C 0.76321 0.29984 0.48676
 H717 H 0.74136 0.24111 0.46319
 H718 H 0.74182 0.28620 0.50817
 H719 H 0.72646 0.22628 0.52324
 H720 H 0.78639 0.24071 0.50770
 H721 H 0.78307 0.21100 0.48481
 H722 H 0.78492 0.21217 0.51298
 H723 H 0.72254 0.29446 0.48988
 H724 H 0.70600 0.27702 0.50831
 H725 H 0.77509 0.22113 0.45393
 H726 H 0.72342 0.20287 0.47237
 H727 H 0.76019 0.29362 0.52781
 H728 H 0.74098 0.27758 0.54320
 H729 H 0.70616 0.24142 0.47258
 H730 H 0.72204 0.25943 0.45530
 H731 H 0.77667 0.24144 0.54409
 H732 H 0.79514 0.25920 0.52667
 O733 O 0.77190 0.79484 -0.00149
 O734 O 0.76976 0.78946 0.02689
 O735 O 0.79455 0.75095 -0.02168
 O736 O 0.78944 0.72353 -0.02233
 O737 O 0.75089 0.77184 -0.04496
 O738 O 0.72193 0.77076 -0.03873
 O739 O 0.74935 0.70691 0.02123
 O740 O 0.77761 0.71157 0.01800
 O741 O 0.72879 0.74933 0.04298
 O742 O 0.72998 0.77934 0.03723
 O743 O 0.70655 0.72911 0.00071
 O744 O 0.71218 0.72983 -0.02899
 O745 O 0.72918 0.70689 0.00125
 O746 O 0.73075 0.71303 -0.02961
 O747 O 0.70651 0.74930 0.02063
 O748 O 0.71297 0.77995 0.01883
 O749 O 0.74846 0.72892 0.04287
 O750 O 0.77859 0.73441 0.03742
 O751 O 0.75146 0.79506 -0.02122
 O752 O 0.72189 0.78885 -0.01985
 O753 O 0.77086 0.75170 -0.04513
 O754 O 0.76810 0.72158 -0.03832
 O755 O 0.79464 0.77143 -0.00200
 O756 O 0.78808 0.76773 0.02800
 Zr757 Zr 0.77057 0.77062 0.00842
 O758 O 0.75563 0.75618 0.02439
 Zr759 Zr 0.77016 0.74140 -0.02102
 O760 O 0.75572 0.72551 -0.00599
 Zr761 Zr 0.74110 0.77087 -0.02070
 O762 O 0.72510 0.75604 -0.00613
 Zr763 Zr 0.75968 0.73086 0.01929
 O764 O 0.77592 0.74522 0.00430
 Zr765 Zr 0.73034 0.76011 0.01917
 O766 O 0.74521 0.77621 0.00458
 Zr767 Zr 0.73040 0.73064 -0.00997
 O768 O 0.74483 0.74549 -0.02634
 O769 O 0.76626 0.76661 -0.01679
 O770 O 0.73434 0.73477 0.01529
 C771 C 0.76326 0.80199 -0.01289
 C772 C 0.80164 0.76269 -0.01342
 C773 C 0.76239 0.76334 -0.05208
 C774 C 0.73742 0.70001 0.01311
 C775 C 0.73671 0.73724 0.04978
 C776 C 0.69964 0.73735 0.01252
 H777 H 0.75840 0.75884 0.03610
 H778 H 0.71342 0.75874 -0.00890
 H779 H 0.77340 0.77369 -0.02391
 H780 H 0.75852 0.71377 -0.00849
 H781 H 0.78817 0.71684 0.01441
 H782 H 0.78703 0.71505 -0.01376
 H783 H 0.70527 0.77805 0.00941
 H784 H 0.72288 0.79456 -0.00896
 H785 H 0.77810 0.72491 0.04530
 H786 H 0.79670 0.77654 0.02698
 H787 H 0.70592 0.74043 -0.02857
 H788 H 0.72208 0.75956 -0.04392
 H789 H 0.75836 0.79415 0.02669
 H790 H 0.74026 0.77839 0.04394
 H791 H 0.75789 0.72361 -0.04492
 H792 H 0.74000 0.70518 -0.02750
 O793 O 1.00128 0.20521 0.22780
 O794 O 0.97288 0.21053 0.22995
 O795 O 1.02131 0.24911 0.20501
 O796 O 1.02182 0.27655 0.21003
 O797 O 1.04474 0.22846 0.24866
 O798 O 1.03854 0.22958 0.27762
 O799 O 0.97828 0.29315 0.25018
 O800 O 0.98152 0.28843 0.22191
 O801 O 0.95672 0.25077 0.27086
 O802 O 0.96255 0.22074 0.26967
 O803 O 0.99897 0.27111 0.29296
 O804 O 1.02872 0.27044 0.28723
 O805 O 0.99828 0.29327 0.27033
 O806 O 1.02916 0.28729 0.26871
 O807 O 0.97911 0.25087 0.29307
 O808 O 0.98098 0.22022 0.28666
 O809 O 0.95673 0.27111 0.25113
 O810 O 0.96214 0.26555 0.22102
 O811 O 1.02107 0.20513 0.24820
 O812 O 1.01975 0.21142 0.27772
 O813 O 1.04480 0.24855 0.22866
 O814 O 1.03788 0.27863 0.23133
 O815 O 1.00170 0.22857 0.20500
 O816 O 0.97169 0.23221 0.21158
 Zr817 Zr 0.99130 0.22942 0.22906
 O818 O 0.97529 0.24386 0.24399
 Zr819 Zr 1.02064 0.25874 0.22936
 O820 O 1.00558 0.27462 0.24379
 Zr821 Zr 1.02048 0.22936 0.25848
 O822 O 1.00587 0.24417 0.27446
 Zr823 Zr 0.98030 0.26919 0.23988
 O824 O 0.99532 0.25483 0.22365
 Zr825 Zr 0.98057 0.24002 0.26927
 O826 O 0.99520 0.22392 0.25442
 Zr827 Zr 1.00961 0.26956 0.26911
 O828 O 1.02602 0.25474 0.25468
 O829 O 1.01652 0.23353 0.23332
 O830 O 0.98436 0.26535 0.26521
 C831 C 1.01272 0.19813 0.23645
 C832 C 1.01308 0.23732 0.19796
 C833 C 1.05183 0.23697 0.23716
 C834 C 0.98637 0.30009 0.26211
 C835 C 0.94988 0.26283 0.26293
 C836 C 0.98720 0.26286 0.29991
 H837 H 0.96359 0.24117 0.24124
 H838 H 1.00866 0.24151 0.28613
 H839 H 1.02366 0.22645 0.22620
 H840 H 1.00803 0.28636 0.24097
 H841 H 0.98509 0.28314 0.21136
 H842 H 1.01327 0.28505 0.21248
 H843 H 0.99042 0.22214 0.29433
 H844 H 1.00886 0.20570 0.27679
 H845 H 0.95424 0.27503 0.22149
 H846 H 0.97272 0.22338 0.20298
 H847 H 1.02827 0.25991 0.29360
 H848 H 1.04369 0.24080 0.27744
 H849 H 0.97309 0.20591 0.24136
 H850 H 0.95577 0.22170 0.25944
 H851 H 1.04446 0.27669 0.24156
 H852 H 1.02702 0.29508 0.25943
 O853 O 0.77170 0.95570 0.75139
 O854 O 0.76929 0.96141 0.72234
 O855 O 0.79449 0.99954 0.77128
 O856 O 0.78945 1.02705 0.77184
 O857 O 0.75084 0.97882 0.79465
 O858 O 0.72187 0.97988 0.78841
 O859 O 0.74926 1.04359 0.72840
 O860 O 0.77762 1.03882 0.73165
 O861 O 0.72846 1.00106 0.70673
 O862 O 0.73096 0.97250 0.71117
 O863 O 0.70647 1.02131 0.74882
 O864 O 0.71218 1.02065 0.77865
 O865 O 0.72910 1.04362 0.74836
 O866 O 0.73063 1.03759 0.77915
 O867 O 0.70637 1.00101 0.72900
 O868 O 0.71304 0.97030 0.73121
 O869 O 0.74815 1.02151 0.70678
 O870 O 0.77820 1.01626 0.71192
 O871 O 0.75129 0.95553 0.77111
 O872 O 0.72175 0.96175 0.76955
 O873 O 0.77084 0.99897 0.79478
 O874 O 0.76819 1.02905 0.78791
 O875 O 0.79450 0.97874 0.75189
 O876 O 0.78813 0.98407 0.72197
 Zr877 Zr 0.77054 0.97988 0.74127
 O878 O 0.75548 0.99428 0.72535
 Zr879 Zr 0.77012 1.00919 0.77064
 O880 O 0.75565 1.02503 0.75559
 Zr881 Zr 0.74101 0.97971 0.77038
 O882 O 0.72502 0.99448 0.75579
 Zr883 Zr 0.75954 1.01964 0.73031
 O884 O 0.77580 1.00533 0.74535
 Zr885 Zr 0.73023 0.99034 0.73052
 O886 O 0.74515 0.97423 0.74510
 Zr887 Zr 0.73032 1.01988 0.75958
 O888 O 0.74479 1.00510 0.77597
 O889 O 0.76616 0.98401 0.76645
 O890 O 0.73423 1.01570 0.73435
 C891 C 0.76307 0.94858 0.76281
 C892 C 0.80152 0.98763 0.76321
 C893 C 0.76236 0.98735 0.80176
 C894 C 0.73735 1.05049 0.73651
 C895 C 0.73635 1.01317 0.69991
 C896 C 0.69953 1.01300 0.73706
 H897 H 0.75805 0.99148 0.71363
 H898 H 0.71335 0.99177 0.75857
 H899 H 0.77326 0.97695 0.77363
 H900 H 0.75846 1.03678 0.75807
 H901 H 0.78817 1.03347 0.73509
 H902 H 0.78699 1.03555 0.76330
 H903 H 0.70507 0.97246 0.74033
 H904 H 0.72284 0.95586 0.75877
 H905 H 0.77772 1.02589 0.70421
 H906 H 0.79730 0.97587 0.72294
 H907 H 0.70575 1.01014 0.77810
 H908 H 0.72203 0.99110 0.79355
 H909 H 0.77933 0.95424 0.72306
 H910 H 0.73924 0.96404 0.71457
 H911 H 0.75793 1.02710 0.79444
 H912 H 0.74001 1.04532 0.77714
 O913 O 0.70563 0.52176 0.24869
 O914 O 0.71141 0.51938 0.27772
 O915 O 0.74928 0.54477 0.22886
 O916 O 0.77677 0.53984 0.22836
 O917 O 0.72875 0.50101 0.20534
 O918 O 0.72988 0.47201 0.21148
 O919 O 0.79345 0.49948 0.27173
 O920 O 0.78868 0.52789 0.26849
 O921 O 0.75104 0.47861 0.29322
 O922 O 0.72253 0.48096 0.28870
 O923 O 0.77136 0.45667 0.25106
 O924 O 0.77062 0.46245 0.22122
 O925 O 0.79353 0.47935 0.25167
 O926 O 0.78752 0.48095 0.22087
 O927 O 0.75115 0.45649 0.27090
 O928 O 0.72044 0.46303 0.26862
 O929 O 0.77139 0.49840 0.29328
 O930 O 0.76614 0.52847 0.28817
 O931 O 0.70550 0.50136 0.22889
 O932 O 0.71181 0.47179 0.23032
 O933 O 0.74882 0.52109 0.20530
 O934 O 0.77885 0.51856 0.21221
 O935 O 0.72854 0.54468 0.24823
 O936 O 0.73398 0.53831 0.27814
 Zr937 Zr 0.72980 0.52069 0.25879
 O938 O 0.74423 0.50563 0.27467
 Zr939 Zr 0.75903 0.52040 0.22945
 O940 O 0.77491 0.50593 0.24447
 Zr941 Zr 0.72968 0.49115 0.22958
 O942 O 0.74449 0.47516 0.24413
 Zr943 Zr 0.76954 0.50978 0.26976
 O944 O 0.75518 0.52605 0.25476
 Zr945 Zr 0.74037 0.48033 0.26941
 O946 O 0.72423 0.49525 0.25487
 Zr947 Zr 0.76983 0.48056 0.24038
 O948 O 0.75501 0.49502 0.22403
 O949 O 0.73390 0.51635 0.23360
 O950 O 0.76567 0.48443 0.26563
 C951 C 0.69853 0.51311 0.23725
 C952 C 0.73736 0.55175 0.23694
 C953 C 0.73724 0.51256 0.19827
 C954 C 0.80036 0.48757 0.26359
 C955 C 0.76309 0.48657 0.30010
 C956 C 0.76313 0.44969 0.26283
 H957 H 0.74143 0.50818 0.28640
 H958 H 0.74183 0.46346 0.24131
 H959 H 0.72681 0.52343 0.22643
 H960 H 0.78663 0.50878 0.24203
 H961 H 0.78332 0.53846 0.26507
 H962 H 0.78531 0.53736 0.23686
 H963 H 0.72265 0.45503 0.25951
 H964 H 0.70596 0.47283 0.24111
 H965 H 0.77576 0.52801 0.29589
 H966 H 0.72576 0.54747 0.27719
 H967 H 0.76019 0.45591 0.22180
 H968 H 0.74109 0.47218 0.20638
 H969 H 0.70422 0.52940 0.27704
 H970 H 0.71407 0.48924 0.28532
 H971 H 0.77696 0.50826 0.20566
 H972 H 0.79523 0.49035 0.22294
 O973 O 0.54439 0.22828 0.74912
 O974 O 0.53900 0.23038 0.77750
 O975 O 0.50067 0.20533 0.72889
 O976 O 0.47327 0.21025 0.72832
 O977 O 0.52129 0.24919 0.70569
 O978 O 0.52015 0.27818 0.71199
 O979 O 0.45651 0.25041 0.77195
 O980 O 0.46125 0.22210 0.76865
 O981 O 0.49879 0.27120 0.79369
 O982 O 0.52875 0.27018 0.78791
 O983 O 0.47850 0.29333 0.75146
 O984 O 0.47928 0.28764 0.72170
 O985 O 0.45643 0.27059 0.75200
 O986 O 0.46250 0.26901 0.72115
 O987 O 0.49864 0.29350 0.77138
 O988 O 0.52928 0.28721 0.76954
 O989 O 0.47849 0.25137 0.79357
 O990 O 0.48406 0.22123 0.78805
 O991 O 0.54452 0.24873 0.72940
 O992 O 0.53821 0.27830 0.73084
 O993 O 0.50126 0.22908 0.70550
 O994 O 0.47119 0.23161 0.71236
 O995 O 0.52111 0.20536 0.74856
 O996 O 0.51737 0.21190 0.77858
 Zr997 Zr 0.52020 0.22946 0.75903
 O998 O 0.50572 0.24435 0.77505
 Zr999 Zr 0.49102 0.22969 0.72963
 O1000 O 0.47510 0.24407 0.74469
 Zr1001 Zr 0.52032 0.25897 0.72997
 O1002 O 0.50546 0.27491 0.74458
 Zr1003 Zr 0.48045 0.24015 0.76996
 O1004 O 0.49485 0.22396 0.75493
 Zr1005 Zr 0.50954 0.26970 0.76986
 O1006 O 0.52568 0.25489 0.75524
 Zr1007 Zr 0.48013 0.26946 0.74075
 O1008 O 0.49500 0.25508 0.72435
 O1009 O 0.51617 0.23374 0.73383
 O1010 O 0.48426 0.26555 0.76599
 C1011 C 0.55149 0.23697 0.73773
 C1012 C 0.51242 0.19830 0.73714
 C1013 C 0.51282 0.23765 0.69854
 C1014 C 0.44959 0.26233 0.76387
 C1015 C 0.48675 0.26319 0.80049
 C1016 C 0.48669 0.30030 0.76328
 H1017 H 0.50839 0.24159 0.78674
 H1018 H 0.50811 0.28662 0.74183
 H1019 H 0.52327 0.22664 0.72668
 H1020 H 0.46338 0.24120 0.74220
 H1021 H 0.46654 0.21155 0.76504
 H1022 H 0.46477 0.21265 0.73688
 H1023 H 0.52735 0.29492 0.76015
 H1024 H 0.54390 0.27736 0.74173
 H1025 H 0.47458 0.22166 0.79593
 H1026 H 0.52621 0.20332 0.77754
 H1027 H 0.48977 0.29407 0.72222
 H1028 H 0.50896 0.27799 0.70682
 H1029 H 0.54364 0.24182 0.77732
 H1030 H 0.52784 0.25988 0.79460
 H1031 H 0.47314 0.24187 0.70581
 H1032 H 0.45472 0.25969 0.72324
 O1033 O 0.27181 0.79475 0.49909
 O1034 O 0.26938 0.78899 0.52812
 O1035 O 0.29467 0.75099 0.47920
 O1036 O 0.28963 0.72350 0.47844
 O1037 O 0.25094 0.77166 0.45577
 O1038 O 0.22199 0.77051 0.46198
 O1039 O 0.24943 0.70677 0.52193
 O1040 O 0.27780 0.71156 0.51865
 O1041 O 0.22866 0.74918 0.54362
 O1042 O 0.23104 0.77774 0.53921
 O1043 O 0.20666 0.72894 0.50139
 O1044 O 0.21241 0.72965 0.47159
 O1045 O 0.22930 0.70671 0.50192
 O1046 O 0.23088 0.71277 0.47113
 O1047 O 0.20653 0.74916 0.52129
 O1048 O 0.21314 0.77990 0.51916
 O1049 O 0.24842 0.72883 0.54356
 O1050 O 0.27844 0.73412 0.53840
 O1051 O 0.25138 0.79490 0.47936
 O1052 O 0.22185 0.78858 0.48088
 O1053 O 0.27098 0.75160 0.45561
 O1054 O 0.26836 0.72147 0.46241
 O1055 O 0.29464 0.77174 0.49863
 O1056 O 0.28824 0.76639 0.52851
 Zr1057 Zr 0.27067 0.77054 0.50917
 O1058 O 0.25564 0.75606 0.52503
 Zr1059 Zr 0.27029 0.74130 0.47972
 O1060 O 0.25585 0.72537 0.49473
 Zr1061 Zr 0.24114 0.77069 0.48002
 O1062 O 0.22517 0.75583 0.49455
 Zr1063 Zr 0.25974 0.73073 0.52002
 O1064 O 0.27597 0.74513 0.50504
 Zr1065 Zr 0.23038 0.75992 0.51984
 O1066 O 0.24527 0.77612 0.50532
 Zr1067 Zr 0.23052 0.73045 0.49071
 O1068 O 0.24495 0.74533 0.47437
 O1069 O 0.26631 0.76647 0.48397
 O1070 O 0.23442 0.73459 0.51596
 C1071 C 0.26316 0.80186 0.48769
 C1072 C 0.30169 0.76288 0.48734
 C1073 C 0.26246 0.76319 0.44864
 C1074 C 0.23752 0.69985 0.51380
 C1075 C 0.23662 0.73712 0.55044
 C1076 C 0.19970 0.73719 0.51317
 H1077 H 0.25820 0.75885 0.53676
 H1078 H 0.21349 0.75850 0.49176
 H1079 H 0.27340 0.77355 0.47682
 H1080 H 0.25868 0.71364 0.49224
 H1081 H 0.28835 0.71694 0.51523
 H1082 H 0.28724 0.71502 0.48702
 H1083 H 0.20517 0.77773 0.51003
 H1084 H 0.22294 0.79445 0.49167
 H1085 H 0.27798 0.72448 0.54609
 H1086 H 0.29740 0.77463 0.52758
 H1087 H 0.20596 0.74014 0.47214
 H1088 H 0.22216 0.75931 0.45680
 H1089 H 0.27940 0.79619 0.52744
 H1090 H 0.23935 0.78620 0.53587
 H1091 H 0.25811 0.72342 0.45586
 H1092 H 0.24024 0.70503 0.47317
 O1093 O 0.29443 0.25083 0.97892
 O1094 O 0.28864 0.22173 0.98140
 O1095 O 0.25081 0.27070 0.95600
 O1096 O 0.22334 0.27134 0.96095
 O1097 O 0.27145 0.29425 0.99967
 O1098 O 0.27027 0.28810 1.02863
 O1099 O 0.20655 0.22791 1.00118
 O1100 O 0.21137 0.23111 0.97283
 O1101 O 0.24887 0.20626 1.02208
 O1102 O 0.27739 0.21068 1.01972
 O1103 O 0.22874 0.24862 1.04396
 O1104 O 0.22946 0.27844 1.03816
 O1105 O 0.20652 0.24800 1.02128
 O1106 O 0.21262 0.27885 1.01966
 O1107 O 0.24891 0.22871 1.04416
 O1108 O 0.27960 0.23082 1.03756
 O1109 O 0.22855 0.20625 1.00229
 O1110 O 0.23386 0.21135 0.97229
 O1111 O 0.29460 0.27066 0.99930
 O1112 O 0.28830 0.26917 1.02883
 O1113 O 0.25140 0.29434 0.97961
 O1114 O 0.22132 0.28750 0.98219
 O1115 O 0.27150 0.25124 0.95609
 O1116 O 0.26608 0.22129 0.96249
 Zr1117 Zr 0.27026 0.24070 0.98005
 O1118 O 0.25578 0.22483 0.99508
 Zr1119 Zr 0.24109 0.27017 0.98033
 O1120 O 0.22517 0.25515 0.99476
 Zr1121 Zr 0.27043 0.26997 1.00952
 O1122 O 0.25558 0.25544 1.02548
 Zr1123 Zr 0.23049 0.22981 0.99093
 O1124 O 0.24488 0.24480 0.97470
 Zr1125 Zr 0.25963 0.23009 1.02032
 O1126 O 0.27583 0.24462 1.00544
 Zr1127 Zr 0.23024 0.25925 1.02008
 O1128 O 0.24512 0.27560 1.00565
 O1129 O 0.26621 0.26595 0.98437
 O1130 O 0.23434 0.23394 1.01624
 C1131 C 0.30154 0.26231 0.98755
 C1132 C 0.26269 0.26257 0.94902
 C1133 C 0.26300 0.30135 0.98812
 C1134 C 0.19965 0.23608 1.01305
 C1135 C 0.23682 0.19939 1.01412
 C1136 C 0.23698 0.23686 1.05096
 H1137 H 0.25855 0.21307 0.99254
 H1138 H 0.25825 0.25827 1.03715
 H1139 H 0.27330 0.27311 0.97729
 H1140 H 0.21346 0.25763 0.99191
 H1141 H 0.21674 0.23453 0.96229
 H1142 H 0.21481 0.26280 0.96339
 H1143 H 0.27747 0.24002 1.04549
 H1144 H 0.29417 0.25837 1.02774
 H1145 H 0.22422 0.20362 0.97274
 H1146 H 0.27431 0.22222 0.95336
 H1147 H 0.23995 0.27795 1.04459
 H1148 H 0.25910 0.29329 1.02841
 H1149 H 0.29584 0.22240 0.97139
 H1150 H 0.28583 0.21400 1.01141
 H1151 H 0.22326 0.29409 0.99243
 H1152 H 0.20489 0.27678 1.01030
 C1153 C 0.27993 0.36585 0.80115
 C1154 C 0.28774 0.37360 0.78767
 C1155 C 0.30164 0.36614 0.78028
 C1156 C 0.30785 0.35110 0.78649
 C1157 C 0.30024 0.34332 0.80022
 C1158 C 0.28610 0.35081 0.80738
 C1159 C 0.28188 0.38950 0.78182
 C1160 C 0.27717 0.40298 0.77717
 C1161 C 0.27192 0.41895 0.77200
 C1162 C 0.26767 0.43273 0.76784
 H1163 H 0.26918 0.37153 0.80698
 H1164 H 0.30781 0.37206 0.76986
 H1165 H 0.31873 0.34571 0.78065
 H1166 H 0.27992 0.34518 0.81794
 C1167 C 0.27947 -0.13438 0.30090
 C1168 C 0.28715 -0.12679 0.28726
 C1169 C 0.30076 -0.13451 0.27963
 C1170 C 0.30684 -0.14963 0.28574
 C1171 C 0.29942 -0.15731 0.29969
 C1172 C 0.28550 -0.14951 0.30707
 C1173 C 0.28144 -0.11081 0.28147
 C1174 C 0.27687 -0.09728 0.27684
 C1175 C 0.27176 -0.08126 0.27168
 C1176 C 0.26761 -0.06745 0.26751
 H1177 H 0.26893 -0.12850 0.30692
 H1178 H 0.30681 -0.12872 0.26906
 H1179 H 0.31751 -0.15515 0.27961
 H1180 H 0.27934 -0.15492 0.31776
 C1181 C 0.80086 0.86501 0.77946
 C1182 C 0.78690 0.87242 0.78675
 C1183 C 0.77912 0.86472 0.80027
 C1184 C 0.78541 0.84980 0.80667
 C1185 C 0.79970 0.84234 0.79967
 C1186 C 0.80721 0.85010 0.78581
 C1187 C 0.78105 0.88831 0.78086
 C1188 C 0.77644 0.90183 0.77622
 C1189 C 0.77140 0.91789 0.77115
 C1190 C 0.76741 0.93180 0.76715
 H1191 H 0.80700 0.87090 0.76900
 H1192 H 0.76832 0.87038 0.80603
 H1193 H 0.77918 0.84431 0.81728
 H1194 H 0.81815 0.84484 0.77997
 C1195 C 0.44929 0.88598 0.27831
 C1196 C 0.46322 0.87854 0.28564
 C1197 C 0.47103 0.88626 0.29916
 C1198 C 0.46479 0.90122 0.30554
 C1199 C 0.45052 0.90871 0.29852
 C1200 C 0.44300 0.90094 0.28464
 C1201 C 0.46900 0.86259 0.27981
 C1202 C 0.47356 0.84901 0.27526
 C1203 C 0.47856 0.83289 0.27032
 C1204 C 0.48251 0.81892 0.26645
 H1205 H 0.44313 0.88008 0.26785
 H1206 H 0.48180 0.88058 0.30495
 H1207 H 0.47104 0.90672 0.31616
 H1208 H 0.43207 0.90623 0.27878
 C1209 C -0.03021 0.88379 0.80189
 C1210 C -0.03771 0.87647 0.78796
 C1211 C -0.05115 0.88439 0.78022
 C1212 C -0.05723 0.89946 0.78652
 C1213 C -0.04995 0.90681 0.80069
 C1214 C -0.03626 0.89886 0.80822
 C1215 C -0.03202 0.86054 0.78198
 C1216 C -0.02748 0.84704 0.77720
 C1217 C -0.02241 0.83106 0.77188
 C1218 C -0.01828 0.81726 0.76759
 H1219 H -0.01982 0.87774 0.80800
 H1220 H -0.05707 0.87881 0.76945
 H1221 H -0.06776 0.90521 0.78039
 H1222 H -0.03034 0.90414 0.81913
 C1223 C -0.03041 -0.13375 -0.05215
 C1224 C -0.03788 -0.12643 -0.03824
 C1225 C -0.05135 -0.13433 -0.03054
 C1226 C -0.05749 -0.14938 -0.03685
 C1227 C -0.05027 -0.15679 -0.05106
 C1228 C -0.03650 -0.14880 -0.05851
 C1229 C -0.03212 -0.11053 -0.03221
 C1230 C -0.02753 -0.09706 -0.02738
 C1231 C -0.02239 -0.08111 -0.02199
 C1232 C -0.01821 -0.06734 -0.01763
 H1233 H -0.01998 -0.12772 -0.05822
 H1234 H -0.05724 -0.12875 -0.01977
 H1235 H -0.06804 -0.15504 -0.03066
 H1236 H -0.03051 -0.15401 -0.06941
 C1237 C -0.05077 0.36430 0.47080
 C1238 C -0.03693 0.37186 0.46342
 C1239 C -0.02932 0.36436 0.44967
 C1240 C -0.03567 0.34949 0.44314
 C1241 C -0.04979 0.34193 0.45027
 C1242 C -0.05716 0.34942 0.46430
 C1243 C -0.03104 0.38772 0.46942
 C1244 C -0.02639 0.40123 0.47411
 C1245 C -0.02129 0.41729 0.47918
 C1246 C -0.01725 0.43122 0.48313
 H1247 H -0.05680 0.37003 0.48142
 H1248 H -0.01863 0.37014 0.44382
 H1249 H -0.02966 0.34408 0.43236
 H1250 H -0.06801 0.34396 0.47013
 C1251 C 0.47185 -0.13619 0.45064
 C1252 C 0.46420 -0.12857 0.46428
 C1253 C 0.45055 -0.13623 0.47190
 C1254 C 0.44437 -0.15132 0.46573
 C1255 C 0.45173 -0.15899 0.45173
 C1256 C 0.46573 -0.15127 0.44441
 C1257 C 0.46985 -0.11251 0.46998
 C1258 C 0.47429 -0.09886 0.47444
 C1259 C 0.47916 -0.08267 0.47933
 C1260 C 0.48301 -0.06866 0.48319
 H1261 H 0.48241 -0.13033 0.44463
 H1262 H 0.44451 -0.13041 0.48246
 H1263 H 0.43366 -0.15679 0.47181
 H1264 H 0.47184 -0.15670 0.43369
 C1265 C 0.46943 0.36634 -0.05168
 C1266 C 0.46203 0.37373 -0.03777
 C1267 C 0.44855 0.36591 -0.03002
 C1268 C 0.44233 0.35087 -0.03626
 C1269 C 0.44948 0.34339 -0.05047
 C1270 C 0.46326 0.35130 -0.05798
 C1271 C 0.46786 0.38964 -0.03184
 C1272 C 0.47253 0.40313 -0.02711
 C1273 C 0.47774 0.41910 -0.02187
 C1274 C 0.48197 0.43289 -0.01764
 H1275 H 0.47987 0.37231 -0.05780
 H1276 H 0.44270 0.37155 -0.01925
 H1277 H 0.43177 0.34527 -0.03003
 H1278 H 0.46921 0.34603 -0.06887
 C1279 C 0.80097 0.38362 0.46999
 C1280 C 0.78754 0.37571 0.46219
 C1281 C 0.78005 0.38306 0.44830
 C1282 C 0.78611 0.39816 0.44208
 C1283 C 0.79979 0.40611 0.44967
 C1284 C 0.80705 0.39872 0.46381
 C1285 C 0.78183 0.35975 0.46805
 C1286 C 0.77727 0.34623 0.47272
 C1287 C 0.77215 0.33023 0.47791
 C1288 C 0.76796 0.31643 0.48210
 H1289 H 0.80687 0.37801 0.48074
 H1290 H 0.76967 0.37702 0.44214
 H1291 H 0.78020 0.40348 0.43120
 H1292 H 0.81758 0.40447 0.46998
 C1293 C 0.80141 0.88549 -0.02929
 C1294 C 0.78734 0.87819 -0.03652
 C1295 C 0.77951 0.88600 -0.04995
 C1296 C 0.78586 0.90091 -0.05633
 C1297 C 0.80026 0.90826 -0.04940
 C1298 C 0.80781 0.90040 -0.03562
 C1299 C 0.78142 0.86230 -0.03069
 C1300 C 0.77676 0.84878 -0.02611
 C1301 C 0.77166 0.83271 -0.02111
 C1302 C 0.76763 0.81879 -0.01716
 H1303 H 0.80759 0.87952 -0.01890
 H1304 H 0.76862 0.88043 -0.05567
 H1305 H 0.77958 0.90649 -0.06687
 H1306 H 0.81885 0.90557 -0.02982
 C1307 C 0.78097 0.30205 0.36692
 C1308 C 0.78851 0.28827 0.37446
 C1309 C 0.80228 0.28073 0.36693
 C1310 C 0.80863 0.28705 0.35202
 C1311 C 0.80129 0.30106 0.34444
 C1312 C 0.78728 0.30840 0.35201
 C1313 C 0.78251 0.28225 0.39022
 C1314 C 0.77771 0.27742 0.40357
 C1315 C 0.77235 0.27201 0.41939
 C1316 C 0.76800 0.26762 0.43306
 H1317 H 0.77033 0.30801 0.37267
 H1318 H 0.80824 0.27008 0.37268
 H1319 H 0.81940 0.28107 0.34655
 H1320 H 0.78131 0.31918 0.34654
 C1321 C 0.77867 0.80073 -0.13585
 C1322 C 0.78630 0.78714 -0.12811
 C1323 C 0.80025 0.77972 -0.13542
 C1324 C 0.80674 0.78603 -0.15027
 C1325 C 0.79939 0.79998 -0.15806
 C1326 C 0.78511 0.80710 -0.15071
 C1327 C 0.78033 0.78130 -0.11227
 C1328 C 0.77566 0.77671 -0.09879
 C1329 C 0.77059 0.77167 -0.08275
 C1330 C 0.76663 0.76768 -0.06886
 H1331 H 0.76788 0.80660 -0.13027
 H1332 H 0.80628 0.76920 -0.12950
 H1333 H 0.81767 0.78009 -0.15545
 H1334 H 0.77899 0.81777 -0.15623
 C1335 C 0.30206 0.46913 0.88329
 C1336 C 0.28817 0.46158 0.87595
 C1337 C 0.28042 0.44812 0.88385
 C1338 C 0.28665 0.44208 0.89893
 C1339 C 0.30078 0.44942 0.90630
 C1340 C 0.30833 0.46312 0.89836
 C1341 C 0.28222 0.46729 0.86005
 C1342 C 0.27746 0.47188 0.84660
 C1343 C 0.27214 0.47707 0.83069
 C1344 C 0.26784 0.48134 0.81697
 H1345 H 0.30818 0.47954 0.87726
 H1346 H 0.26967 0.44216 0.87826
 H1347 H 0.28052 0.43154 0.90467
 H1348 H 0.31921 0.46909 0.90367
 C1349 C 0.30164 -0.02993 0.38332
 C1350 C 0.28793 -0.03764 0.37580
 C1351 C 0.28017 -0.05113 0.38365
 C1352 C 0.28622 -0.05703 0.39885
 C1353 C 0.30017 -0.04953 0.40642
 C1354 C 0.30772 -0.03581 0.39852
 C1355 C 0.28215 -0.03208 0.35979
 C1356 C 0.27750 -0.02761 0.34625
 C1357 C 0.27227 -0.02259 0.33026
 C1358 C 0.26800 -0.01845 0.31649
 H1359 H 0.30776 -0.01950 0.37733
 H1360 H 0.26957 -0.05721 0.37792
 H1361 H 0.28009 -0.06760 0.40456
 H1362 H 0.31846 -0.02972 0.40397
 C1363 C -0.03003 -0.05164 -0.13355
 C1364 C -0.03742 -0.03778 -0.12604
 C1365 C -0.05094 -0.02996 -0.13373
 C1366 C -0.05721 -0.03611 -0.14876
 C1367 C -0.05008 -0.05028 -0.15637
 C1368 C -0.03625 -0.05785 -0.14859
 C1369 C -0.03155 -0.03195 -0.11013
 C1370 C -0.02686 -0.02729 -0.09665
 C1371 C -0.02166 -0.02210 -0.08068
 C1372 C -0.01747 -0.01791 -0.06689
 H1373 H -0.01957 -0.05781 -0.12768
 H1374 H -0.05677 -0.01922 -0.12799
 H1375 H -0.06780 -0.02983 -0.15426
 H1376 H -0.03031 -0.06871 -0.15395
 C1377 C -0.02952 0.44843 0.36475
 C1378 C -0.03690 0.46227 0.37234
 C1379 C -0.05067 0.46987 0.36492
 C1380 C -0.05724 0.46353 0.35009
 C1381 C -0.05015 0.44937 0.34244
 C1382 C -0.03604 0.44204 0.34992
 C1383 C -0.03083 0.46817 0.38815
 C1384 C -0.02607 0.47285 0.40160
 C1385 C -0.02089 0.47798 0.41759
 C1386 C -0.01682 0.48205 0.43145
 H1387 H -0.01886 0.44242 0.37042
 H1388 H -0.05651 0.48058 0.37072
 H1389 H -0.06804 0.46964 0.34482
 H1390 H -0.03011 0.43119 0.34450
 C1391 C 0.45019 -0.02873 0.36458
 C1392 C 0.46411 -0.03624 0.37188
 C1393 C 0.47178 -0.04976 0.36400
 C1394 C 0.46541 -0.05594 0.34901
 C1395 C 0.45121 -0.04869 0.34172
 C1396 C 0.44379 -0.03488 0.34960
 C1397 C 0.47002 -0.03059 0.38783
 C1398 C 0.47465 -0.02615 0.40140
 C1399 C 0.47969 -0.02127 0.41751
 C1400 C 0.48363 -0.01738 0.43146
 H1401 H 0.44413 -0.01829 0.37061
 H1402 H 0.48253 -0.05570 0.36957
 H1403 H 0.47146 -0.06657 0.34331
 H1404 H 0.43287 -0.02898 0.34435
 C1405 C 0.44755 0.46876 -0.13294
 C1406 C 0.46128 0.46114 -0.12544
 C1407 C 0.46881 0.44742 -0.13308
 C1408 C 0.46252 0.44117 -0.14807
 C1409 C 0.44849 0.44855 -0.15566
 C1410 C 0.44121 0.46257 -0.14792
 C1411 C 0.46726 0.46702 -0.10960
 C1412 C 0.47204 0.47175 -0.09619
 C1413 C 0.47738 0.47706 -0.08031
 C1414 C 0.48171 0.48141 -0.06662
 H1415 H 0.44161 0.47939 -0.12710
 H1416 H 0.47944 0.44141 -0.12735
 H1417 H 0.46858 0.43043 -0.15354
 H1418 H 0.43046 0.46869 -0.15328
 C1419 C 0.47214 0.79974 0.38586
 C1420 C 0.46448 0.78610 0.37815
 C1421 C 0.45085 0.77837 0.38574
 C1422 C 0.44472 0.78442 0.40086
 C1423 C 0.45213 0.79835 0.40858
 C1424 C 0.46604 0.80582 0.40098
 C1425 C 0.47010 0.78054 0.36207
 C1426 C 0.47453 0.77617 0.34842
 C1427 C 0.47936 0.77139 0.33223
 C1428 C 0.48319 0.76758 0.31824
 H1429 H 0.48268 0.80585 0.38006
 H1430 H 0.44479 0.76783 0.37985
 H1431 H 0.43401 0.77834 0.40635
 H1432 H 0.47207 0.81654 0.40655
 C1433 C -0.03005 0.80226 0.88363
 C1434 C -0.03741 0.78831 0.87619
 C1435 C -0.05088 0.78046 0.88393
 C1436 C -0.05714 0.78665 0.89894
 C1437 C -0.05004 0.80090 0.90647
 C1438 C -0.03627 0.80850 0.89864
 C1439 C -0.03155 0.78243 0.86031
 C1440 C -0.02690 0.77770 0.84685
 C1441 C -0.02174 0.77242 0.83091
 C1442 C -0.01758 0.76814 0.81715
 H1443 H -0.01963 0.80845 0.87772
 H1444 H -0.05668 0.76966 0.87826
 H1445 H -0.06769 0.78034 0.90448
 H1446 H -0.03036 0.81943 0.90395
 C1447 C 0.36407 0.77874 0.29982
 C1448 C 0.37183 0.78642 0.28627
 C1449 C 0.36445 0.80032 0.27880
 C1450 C 0.34950 0.80669 0.28502
 C1451 C 0.34173 0.79926 0.29885
 C1452 C 0.34911 0.78508 0.30607
 C1453 C 0.38775 0.78054 0.28054
 C1454 C 0.40130 0.77592 0.27602
 C1455 C 0.41738 0.77091 0.27106
 C1456 C 0.43131 0.76698 0.26711
 H1457 H 0.36970 0.76800 0.30573
 H1458 H 0.37039 0.80640 0.26833
 H1459 H 0.34418 0.81760 0.27914
 H1460 H 0.34350 0.77902 0.31671
 C1461 C -0.13381 0.78035 0.80183
 C1462 C -0.12607 0.78803 0.78825
 C1463 C -0.13368 0.80166 0.78052
 C1464 C -0.14886 0.80775 0.78647
 C1465 C -0.15664 0.80028 0.80027
 C1466 C -0.14899 0.78641 0.80780
 C1467 C -0.11008 0.78227 0.78260
 C1468 C -0.09655 0.77766 0.77804
 C1469 C -0.08058 0.77248 0.77289
 C1470 C -0.06682 0.76826 0.76865
 H1471 H -0.12801 0.76981 0.80792
 H1472 H -0.12778 0.80772 0.77002
 H1473 H -0.15438 0.81842 0.78036
 H1474 H -0.15461 0.78034 0.81843
 C1475 C 0.88365 0.29987 0.46936
 C1476 C 0.87593 0.28636 0.46147
 C1477 C 0.88344 0.27899 0.44759
 C1478 C 0.89851 0.28522 0.44149
 C1479 C 0.90626 0.29897 0.44918
 C1480 C 0.89872 0.30613 0.46329
 C1481 C 0.86002 0.28048 0.46722
 C1482 C 0.84654 0.27579 0.47185
 C1483 C 0.83057 0.27058 0.47703
 C1484 C 0.81680 0.26640 0.48126
 H1485 H 0.87792 0.30570 0.48009
 H1486 H 0.87755 0.26854 0.44136
 H1487 H 0.90395 0.27938 0.43062
 H1488 H 0.90432 0.31671 0.46954
 C1489 C 0.88522 0.80026 -0.02980
 C1490 C 0.87770 0.78647 -0.03741
 C1491 C 0.88522 0.77904 -0.05125
 C1492 C 0.90006 0.78552 -0.05764
 C1493 C 0.90756 0.79960 -0.05029
 C1494 C 0.90005 0.80678 -0.03617
 C1495 C 0.86187 0.78050 -0.03153
 C1496 C 0.84838 0.77584 -0.02689
 C1497 C 0.83234 0.77080 -0.02180
 C1498 C 0.81843 0.76687 -0.01778
 H1499 H 0.87947 0.80615 -0.01912
 H1500 H 0.87948 0.76839 -0.05727
 H1501 H 0.90548 0.77966 -0.06850
 H1502 H 0.90546 0.81760 -0.03017
 C1503 C -0.13362 -0.03026 -0.05181
 C1504 C -0.12589 -0.03799 -0.03827
 C1505 C -0.13351 -0.05164 -0.03061
 C1506 C -0.14871 -0.05771 -0.03658
 C1507 C -0.15655 -0.05022 -0.05040
 C1508 C -0.14882 -0.03628 -0.05783
 C1509 C -0.10988 -0.03225 -0.03257
 C1510 C -0.09635 -0.02765 -0.02795
 C1511 C -0.08037 -0.02251 -0.02273
 C1512 C -0.06661 -0.01832 -0.01843
 H1513 H -0.12780 -0.01969 -0.05785
 H1514 H -0.12762 -0.05772 -0.02012
 H1515 H -0.15416 -0.06840 -0.03042
 H1516 H -0.15435 -0.03008 -0.06844
 C1517 C -0.13522 0.44970 0.47070
 C1518 C -0.12772 0.46348 0.46312
 C1519 C -0.13529 0.47095 0.44933
 C1520 C -0.15015 0.46449 0.44295
 C1521 C -0.15764 0.45041 0.45027
 C1522 C -0.15009 0.44321 0.46434
 C1523 C -0.11186 0.46943 0.46896
 C1524 C -0.09834 0.47408 0.47354
 C1525 C -0.08227 0.47914 0.47855
 C1526 C -0.06834 0.48309 0.48250
 H1527 H -0.12944 0.44379 0.48135
 H1528 H -0.12955 0.48159 0.44334
 H1529 H -0.15561 0.47037 0.43212
 H1530 H -0.15549 0.43239 0.47031
 C1531 C 0.36501 -0.02872 0.44893
 C1532 C 0.37233 -0.03599 0.46294
 C1533 C 0.36452 -0.04945 0.47076
 C1534 C 0.34959 -0.05581 0.46446
 C1535 C 0.34221 -0.04884 0.45012
 C1536 C 0.35007 -0.03503 0.44258
 C1537 C 0.38825 -0.03018 0.46881
 C1538 C 0.40178 -0.02564 0.47346
 C1539 C 0.41787 -0.02071 0.47855
 C1540 C 0.43180 -0.01683 0.48258
 H1541 H 0.37098 -0.01831 0.44276
 H1542 H 0.37012 -0.05520 0.48160
 H1543 H 0.34401 -0.06637 0.47073
 H1544 H 0.34487 -0.02921 0.43159
 C1545 C 0.36640 0.46964 -0.05221
 C1546 C 0.37387 0.46235 -0.03828
 C1547 C 0.36615 0.44888 -0.03040
 C1548 C 0.35112 0.44255 -0.03653
 C1549 C 0.34357 0.44957 -0.05074
 C1550 C 0.35138 0.46335 -0.05839
 C1551 C 0.38975 0.46830 -0.03246
 C1552 C 0.40321 0.47306 -0.02780
 C1553 C 0.41914 0.47834 -0.02259
 C1554 C 0.43290 0.48261 -0.01836
 H1555 H 0.37230 0.48006 -0.05842
 H1556 H 0.37184 0.44313 -0.01961
 H1557 H 0.34559 0.43200 -0.03019
 H1558 H 0.34606 0.46921 -0.06929
 C1559 C 0.38309 0.44849 0.78119
 C1560 C 0.37553 0.46219 0.78888
 C1561 C 0.38308 0.46963 0.80272
 C1562 C 0.39801 0.46327 0.80900
 C1563 C 0.40559 0.44932 0.80153
 C1564 C 0.39802 0.44210 0.78744
 C1565 C 0.35972 0.46819 0.78298
 C1566 C 0.34631 0.47296 0.77826
 C1567 C 0.33041 0.47826 0.77301
 C1568 C 0.31667 0.48252 0.76874
 H1569 H 0.37733 0.44261 0.77049
 H1570 H 0.37730 0.48022 0.80879
 H1571 H 0.40347 0.46916 0.81984
 H1572 H 0.40350 0.43137 0.78136
 C1573 C 0.38398 -0.05049 0.27940
 C1574 C 0.37636 -0.03689 0.28719
 C1575 C 0.38409 -0.02924 0.30081
 C1576 C 0.39929 -0.03529 0.30676
 C1577 C 0.40695 -0.04913 0.29918
 C1578 C 0.39917 -0.05657 0.28532
 C1579 C 0.36032 -0.03119 0.28159
 C1580 C 0.34675 -0.02664 0.27710
 C1581 C 0.33070 -0.02157 0.27205
 C1582 C 0.31687 -0.01747 0.26793
 H1583 H 0.37808 -0.05654 0.26886
 H1584 H 0.37828 -0.01872 0.30696
 H1585 H 0.40490 -0.02924 0.31743
 H1586 H 0.40470 -0.06723 0.27916
 C1587 C 0.11424 0.54970 0.72153
 C1588 C 0.12202 0.53612 0.71387
 C1589 C 0.11467 0.52860 0.69997
 C1590 C 0.09972 0.53480 0.69357
 C1591 C 0.09194 0.54867 0.70098
 C1592 C 0.09929 0.55594 0.71516
 C1593 C 0.13794 0.53040 0.71978
 C1594 C 0.15148 0.52589 0.72441
 C1595 C 0.16756 0.52095 0.72945
 C1596 C 0.18149 0.51703 0.73343
 H1597 H 0.11986 0.55565 0.73226
 H1598 H 0.12062 0.51810 0.69392
 H1599 H 0.09443 0.52888 0.68267
 H1600 H 0.09365 0.56661 0.72119
 C1601 C 0.11434 0.02804 0.19993
 C1602 C 0.12189 0.03574 0.21362
 C1603 C 0.11422 0.04942 0.22119
 C1604 C 0.09920 0.05560 0.21494
 C1605 C 0.09159 0.04819 0.20092
 C1606 C 0.09932 0.03417 0.19363
 C1607 C 0.13786 0.03006 0.21942
 C1608 C 0.15144 0.02559 0.22399
 C1609 C 0.16755 0.02068 0.22899
 C1610 C 0.18150 0.01678 0.23293
 H1611 H 0.12020 0.01745 0.19395
 H1612 H 0.11998 0.05550 0.23178
 H1613 H 0.09373 0.06635 0.22101
 H1614 H 0.09394 0.02801 0.18289
 C1615 C 0.63332 0.69890 0.21926
 C1616 C 0.62548 0.71237 0.21148
 C1617 C 0.63284 0.71983 0.19758
 C1618 C 0.64789 0.71372 0.19134
 C1619 C 0.65578 0.70001 0.19892
 C1620 C 0.64838 0.69276 0.21304
 C1621 C 0.60960 0.71817 0.21741
 C1622 C 0.59615 0.72283 0.22216
 C1623 C 0.58024 0.72805 0.22747
 C1624 C 0.56652 0.73232 0.23177
 H1625 H 0.62771 0.69302 0.23000
 H1626 H 0.62685 0.73024 0.19145
 H1627 H 0.65322 0.71962 0.18047
 H1628 H 0.65408 0.68222 0.21920
 C1629 C 0.13498 0.72129 0.70001
 C1630 C 0.12768 0.71387 0.71395
 C1631 C 0.13552 0.70036 0.72167
 C1632 C 0.15047 0.69412 0.71532
 C1633 C 0.15777 0.70129 0.70109
 C1634 C 0.14993 0.71508 0.69362
 C1635 C 0.11177 0.71959 0.71985
 C1636 C 0.09823 0.72409 0.72448
 C1637 C 0.08214 0.72902 0.72952
 C1638 C 0.06821 0.73295 0.73346
 H1639 H 0.12899 0.73172 0.69390
 H1640 H 0.12995 0.69449 0.73245
 H1641 H 0.15615 0.68351 0.72140
 H1642 H 0.15518 0.72092 0.68267
 C1643 C 0.61415 0.19992 0.52819
 C1644 C 0.62173 0.21378 0.53561
 C1645 C 0.61409 0.22163 0.54915
 C1646 C 0.59906 0.21549 0.55544
 C1647 C 0.59149 0.20136 0.54828
 C1648 C 0.59913 0.19376 0.53445
 C1649 C 0.63772 0.21943 0.52984
 C1650 C 0.65132 0.22386 0.52531
 C1651 C 0.66746 0.22869 0.52036
 C1652 C 0.68143 0.23251 0.51645
 H1653 H 0.61999 0.19372 0.51773
 H1654 H 0.61987 0.23234 0.55502
 H1655 H 0.59355 0.22167 0.56607
 H1656 H 0.59367 0.18288 0.52861
 C1657 C 0.61657 0.72057 0.05117
 C1658 C 0.62395 0.71299 0.03733
 C1659 C 0.61612 0.69943 0.02965
 C1660 C 0.60107 0.69331 0.03589
 C1661 C 0.59365 0.70067 0.04997
 C1662 C 0.60152 0.71448 0.05745
 C1663 C 0.63986 0.71873 0.03142
 C1664 C 0.65334 0.72333 0.02670
 C1665 C 0.66930 0.72846 0.02145
 C1666 C 0.68308 0.73264 0.01722
 H1667 H 0.62254 0.73105 0.05724
 H1668 H 0.62175 0.69344 0.01895
 H1669 H 0.59538 0.68268 0.02981
 H1670 H 0.59618 0.72046 0.06828
 C1671 C 0.13557 0.02850 0.05020
 C1672 C 0.12789 0.03631 0.03667
 C1673 C 0.13531 0.05029 0.02942
 C1674 C 0.15021 0.05666 0.03583
 C1675 C 0.15793 0.04914 0.04971
 C1676 C 0.15046 0.03481 0.05666
 C1677 C 0.11202 0.03045 0.03075
 C1678 C 0.09850 0.02584 0.02610
 C1679 C 0.08244 0.02080 0.02103
 C1680 C 0.06853 0.01681 0.01704
 H1681 H 0.12990 0.01768 0.05593
 H1682 H 0.12945 0.05646 0.01896
 H1683 H 0.15548 0.06763 0.03002
 H1684 H 0.15593 0.02856 0.06727
 C1685 C 0.13379 0.53016 0.55098
 C1686 C 0.12603 0.53806 0.53754
 C1687 C 0.13353 0.55196 0.53018
 C1688 C 0.14861 0.55810 0.53636
 C1689 C 0.15640 0.55041 0.55005
 C1690 C 0.14887 0.53627 0.55719
 C1691 C 0.11012 0.53224 0.53169
 C1692 C 0.09663 0.52756 0.52702
 C1693 C 0.08069 0.52230 0.52182
 C1694 C 0.06694 0.51801 0.51759
 H1695 H 0.12808 0.51941 0.55679
 H1696 H 0.12761 0.55819 0.51979
 H1697 H 0.15403 0.56899 0.53054
 H1698 H 0.15450 0.53003 0.56772
 C1699 C 0.63329 0.03074 0.55210
 C1700 C 0.62596 0.03815 0.53817
 C1701 C 0.63377 0.05166 0.53045
 C1702 C 0.64876 0.05792 0.53676
 C1703 C 0.65618 0.05077 0.55099
 C1704 C 0.64827 0.03695 0.55846
 C1705 C 0.61011 0.03226 0.53217
 C1706 C 0.59668 0.02755 0.52738
 C1707 C 0.58078 0.02228 0.52206
 C1708 C 0.56704 0.01800 0.51778
 H1709 H 0.62732 0.02028 0.55819
 H1710 H 0.62818 0.05751 0.51967
 H1711 H 0.65436 0.06850 0.53056
 H1712 H 0.65349 0.03099 0.56936
 C1713 C 0.63513 0.55071 0.02860
 C1714 C 0.62772 0.53676 0.03597
 C1715 C 0.63550 0.52894 0.04944
 C1716 C 0.65051 0.53519 0.05570
 C1717 C 0.65793 0.54940 0.04858
 C1718 C 0.65014 0.55698 0.03484
 C1719 C 0.61176 0.53096 0.03022
 C1720 C 0.59819 0.52638 0.02571
 C1721 C 0.58208 0.52136 0.02077
 C1722 C 0.56815 0.51738 0.01686
 H1723 H 0.62919 0.55689 0.01820
 H1724 H 0.62984 0.51817 0.05527
 H1725 H 0.65614 0.52902 0.06627
 H1726 H 0.65549 0.56792 0.02904
 C1727 C 0.05047 0.02759 0.13587
 C1728 C 0.03674 0.03512 0.12827
 C1729 C 0.02906 0.04878 0.13587
 C1730 C 0.03523 0.05510 0.15087
 C1731 C 0.04930 0.04787 0.15854
 C1732 C 0.05669 0.03385 0.15089
 C1733 C 0.03101 0.02932 0.11230
 C1734 C 0.02647 0.02480 0.09872
 C1735 C 0.02146 0.01990 0.08260
 C1736 C 0.01745 0.01607 0.06866
 H1737 H 0.05653 0.01701 0.13007
 H1738 H 0.01844 0.05473 0.13006
 H1739 H 0.02908 0.06583 0.15628
 H1740 H 0.06746 0.02783 0.15630
 C1741 C 0.02985 0.55047 0.63357
 C1742 C 0.03760 0.53680 0.62602
 C1743 C 0.05113 0.52913 0.63384
 C1744 C 0.05705 0.53522 0.64905
 C1745 C 0.04950 0.54913 0.65664
 C1746 C 0.03573 0.55659 0.64878
 C1747 C 0.03204 0.53102 0.60999
 C1748 C 0.02758 0.52639 0.59642
 C1749 C 0.02258 0.52123 0.58039
 C1750 C 0.01847 0.51704 0.56657
 H1751 H 0.01937 0.55653 0.62761
 H1752 H 0.05725 0.51856 0.62809
 H1753 H 0.06766 0.52915 0.65473
 H1754 H 0.02961 0.56730 0.65425
 C1755 C 0.53074 0.05128 0.63357
 C1756 C 0.53856 0.03781 0.62578
 C1757 C 0.55241 0.03036 0.63324
 C1758 C 0.55858 0.03649 0.64832
 C1759 C 0.55100 0.05026 0.65621
 C1760 C 0.53686 0.05746 0.64866
 C1761 C 0.53270 0.03199 0.60987
 C1762 C 0.52798 0.02733 0.59640
 C1763 C 0.52269 0.02213 0.58046
 C1764 C 0.51837 0.01789 0.56673
 H1765 H 0.52001 0.05715 0.62789
 H1766 H 0.55857 0.01992 0.62729
 H1767 H 0.56943 0.03051 0.65365
 H1768 H 0.53057 0.06802 0.65424
 C1769 C 0.52839 0.54986 0.13546
 C1770 C 0.53588 0.53595 0.12808
 C1771 C 0.54942 0.52826 0.13587
 C1772 C 0.55563 0.53461 0.15085
 C1773 C 0.54840 0.54879 0.15823
 C1774 C 0.53457 0.55623 0.15044
 C1775 C 0.53020 0.53010 0.11212
 C1776 C 0.52574 0.52551 0.09854
 C1777 C 0.52086 0.52052 0.08242
 C1778 C 0.51697 0.51661 0.06846
 H1779 H 0.51793 0.55594 0.12950
 H1780 H 0.55534 0.51752 0.13024
 H1781 H 0.56627 0.52855 0.15649
 H1782 H 0.52868 0.56715 0.15575
 C1783 C 0.22075 0.55010 0.61532
 C1784 C 0.21314 0.53628 0.62273
 C1785 C 0.19935 0.52883 0.61511
 C1786 C 0.19301 0.53532 0.60027
 C1787 C 0.20036 0.54942 0.59286
 C1788 C 0.21443 0.55662 0.60048
 C1789 C 0.21896 0.53028 0.63856
 C1790 C 0.22355 0.52557 0.65204
 C1791 C 0.22857 0.52046 0.66807
 C1792 C 0.23254 0.51646 0.68197
 H1793 H 0.23140 0.55600 0.62115
 H1794 H 0.19333 0.51816 0.62077
 H1795 H 0.18218 0.52944 0.59476
 H1796 H 0.22043 0.56746 0.59514
 C1797 C 0.19937 0.02803 0.11428
 C1798 C 0.21294 0.03567 0.12209
 C1799 C 0.22036 0.04966 0.11484
 C1800 C 0.21409 0.05618 0.09998
 C1801 C 0.20017 0.04882 0.09213
 C1802 C 0.19304 0.03450 0.09942
 C1803 C 0.21874 0.02966 0.13793
 C1804 C 0.22333 0.02497 0.15142
 C1805 C 0.22837 0.01989 0.16745
 C1806 C 0.23238 0.01594 0.18135
 H1807 H 0.19350 0.01721 0.11981
 H1808 H 0.23086 0.05570 0.12080
 H1809 H 0.22003 0.06715 0.09485
 H1810 H 0.18238 0.02837 0.09384
 C1811 C 0.70016 0.22174 0.63558
 C1812 C 0.71373 0.21407 0.62782
 C1813 C 0.72129 0.20024 0.63525
 C1814 C 0.71514 0.19393 0.65024
 C1815 C 0.70128 0.20135 0.65800
 C1816 C 0.69398 0.21546 0.65057
 C1817 C 0.71940 0.21987 0.61186
 C1818 C 0.72387 0.22439 0.59828
 C1819 C 0.72878 0.22930 0.58216
 C1820 C 0.73269 0.23315 0.56821
 H1821 H 0.69418 0.23242 0.62990
 H1822 H 0.73177 0.19418 0.62932
 H1823 H 0.72108 0.18308 0.65559
 H1824 H 0.68331 0.22150 0.65618
 C1825 C 0.69767 0.71994 0.13259
 C1826 C 0.71160 0.71255 0.12520
 C1827 C 0.71945 0.69911 0.13301
 C1828 C 0.71328 0.69293 0.14806
 C1829 C 0.69913 0.70011 0.15549
 C1830 C 0.69147 0.71380 0.14764
 C1831 C 0.71748 0.71837 0.10932
 C1832 C 0.72221 0.72302 0.09588
 C1833 C 0.72752 0.72823 0.07997
 C1834 C 0.73184 0.73246 0.06626
 H1835 H 0.69147 0.73033 0.12662
 H1836 H 0.73022 0.69327 0.12738
 H1837 H 0.71950 0.68240 0.15374
 H1838 H 0.68057 0.71964 0.15299
 C1839 C 0.55193 0.72091 0.11634
 C1840 C 0.53807 0.71349 0.12382
 C1841 C 0.53021 0.69998 0.11608
 C1842 C 0.53632 0.69374 0.10102
 C1843 C 0.55042 0.70094 0.09351
 C1844 C 0.55807 0.71470 0.10128
 C1845 C 0.53228 0.71934 0.13973
 C1846 C 0.52763 0.72398 0.15322
 C1847 C 0.52242 0.72915 0.16918
 C1848 C 0.51818 0.73331 0.18295
 H1849 H 0.55814 0.73136 0.12225
 H1850 H 0.51948 0.69412 0.12178
 H1851 H 0.53010 0.68315 0.09540
 H1852 H 0.56894 0.72056 0.09586
 C1853 C 0.05062 0.72103 0.61511
 C1854 C 0.03685 0.71349 0.62265
 C1855 C 0.02932 0.69966 0.61513
 C1856 C 0.03569 0.69322 0.60026
 C1857 C 0.04973 0.70052 0.59273
 C1858 C 0.05702 0.71462 0.60025
 C1859 C 0.03094 0.71943 0.63848
 C1860 C 0.02628 0.72411 0.65196
 C1861 C 0.02117 0.72920 0.66797
 C1862 C 0.01712 0.73320 0.68185
 H1863 H 0.05658 0.73171 0.62086
 H1864 H 0.01868 0.69369 0.62088
 H1865 H 0.02975 0.68238 0.59483
 H1866 H 0.06782 0.72057 0.59481
 C1867 C 0.55044 0.61619 0.22050
 C1868 C 0.53679 0.62377 0.21278
 C1869 C 0.52906 0.61596 0.19925
 C1870 C 0.53510 0.60073 0.19329
 C1871 C 0.54899 0.59312 0.20079
 C1872 C 0.55650 0.60097 0.21457
 C1873 C 0.53108 0.63984 0.21837
 C1874 C 0.52652 0.65343 0.22285
 C1875 C 0.52144 0.66951 0.22786
 C1876 C 0.51732 0.68336 0.23197
 H1877 H 0.55653 0.62215 0.23096
 H1878 H 0.51851 0.62173 0.19316
 H1879 H 0.52900 0.59506 0.18268
 H1880 H 0.56720 0.59548 0.22066
 C1881 C 0.02846 0.61481 0.69928
 C1882 C 0.03576 0.62223 0.71327
 C1883 C 0.04922 0.61447 0.72112
 C1884 C 0.05555 0.59948 0.71488
 C1885 C 0.04849 0.59205 0.70063
 C1886 C 0.03475 0.59982 0.69301
 C1887 C 0.02995 0.63818 0.71908
 C1888 C 0.02540 0.65174 0.72367
 C1889 C 0.02044 0.66785 0.72871
 C1890 C 0.01652 0.68179 0.73271
 H1891 H 0.01806 0.62074 0.69307
 H1892 H 0.05501 0.62013 0.73193
 H1893 H 0.06611 0.59386 0.72108
 H1894 H 0.02900 0.59446 0.68205
 C1895 C 0.05049 0.13481 0.02979
 C1896 C 0.03661 0.12745 0.03728
 C1897 C 0.02898 0.13527 0.05083
 C1898 C 0.03534 0.15026 0.05706
 C1899 C 0.04955 0.15767 0.04986
 C1900 C 0.05691 0.14979 0.03598
 C1901 C 0.03069 0.11150 0.03155
 C1902 C 0.02604 0.09794 0.02700
 C1903 C 0.02098 0.08185 0.02199
 C1904 C 0.01700 0.06791 0.01799
 H1905 H 0.05653 0.12883 0.01931
 H1906 H 0.01823 0.12965 0.05674
 H1907 H 0.02921 0.15584 0.06770
 H1908 H 0.06779 0.15502 0.02998
 C1909 C 0.03004 0.63380 0.55098
 C1910 C 0.03778 0.62606 0.53743
 C1911 C 0.05159 0.63357 0.52994
 C1912 C 0.05780 0.64865 0.53610
 C1913 C 0.05027 0.65643 0.54990
 C1914 C 0.03622 0.64889 0.55717
 C1915 C 0.03193 0.61012 0.53160
 C1916 C 0.02726 0.59661 0.52694
 C1917 C 0.02206 0.58062 0.52173
 C1918 C 0.01786 0.56681 0.51751
 H1919 H 0.01936 0.62808 0.55689
 H1920 H 0.05770 0.62766 0.51947
 H1921 H 0.06862 0.65409 0.53018
 H1922 H 0.03010 0.65451 0.56778
 C1923 C 0.52870 0.13450 0.55088
 C1924 C 0.53635 0.12671 0.53730
 C1925 C 0.54991 0.13435 0.52949
 C1926 C 0.55597 0.14960 0.53537
 C1927 C 0.54856 0.15742 0.54920
 C1928 C 0.53474 0.14976 0.55679
 C1929 C 0.53067 0.11061 0.53178
 C1930 C 0.52616 0.09698 0.52734
 C1931 C 0.52114 0.08086 0.52236
 C1932 C 0.51708 0.06698 0.51827
 H1933 H 0.51821 0.12868 0.55704
 H1934 H 0.55594 0.12841 0.51899
 H1935 H 0.56661 0.15513 0.52922
 H1936 H 0.52871 0.15540 0.56744
 C1937 C 0.55028 0.63532 0.02937
 C1938 C 0.53651 0.62784 0.03697
 C1939 C 0.52906 0.63548 0.05073
 C1940 C 0.53550 0.65040 0.05705
 C1941 C 0.54955 0.65787 0.04969
 C1942 C 0.55675 0.65024 0.03565
 C1943 C 0.53054 0.61195 0.03115
 C1944 C 0.52585 0.59842 0.02655
 C1945 C 0.52076 0.58235 0.02150
 C1946 C 0.51678 0.56843 0.01746
 H1947 H 0.55618 0.62948 0.01873
 H1948 H 0.51843 0.62977 0.05675
 H1949 H 0.52962 0.65592 0.06785
 H1950 H 0.56755 0.65563 0.02966
 C1951 C 0.72002 0.11467 0.55115
 C1952 C 0.71263 0.12213 0.53728
 C1953 C 0.69881 0.11465 0.52978
 C1954 C 0.69219 0.09990 0.53626
 C1955 C 0.69929 0.09239 0.55047
 C1956 C 0.71346 0.09992 0.55769
 C1957 C 0.71873 0.13789 0.53125
 C1958 C 0.72352 0.15131 0.52650
 C1959 C 0.72873 0.16728 0.52131
 C1960 C 0.73280 0.18115 0.51721
 H1961 H 0.73071 0.12039 0.55709
 H1962 H 0.69296 0.12036 0.51905
 H1963 H 0.68135 0.09458 0.53024
 H1964 H 0.71939 0.09461 0.56856
 C1965 C 0.69947 0.61634 0.02955
 C1966 C 0.71312 0.62397 0.03726
 C1967 C 0.72079 0.61626 0.05085
 C1968 C 0.71473 0.60107 0.05686
 C1969 C 0.70084 0.59339 0.04935
 C1970 C 0.69338 0.60115 0.03552
 C1971 C 0.71886 0.64000 0.03161
 C1972 C 0.72346 0.65356 0.02706
 C1973 C 0.72858 0.66959 0.02197
 C1974 C 0.73274 0.68341 0.01781
 H1975 H 0.69342 0.62222 0.01904
 H1976 H 0.73134 0.62208 0.05694
 H1977 H 0.72079 0.59547 0.06751
 H1978 H 0.68269 0.59561 0.02943
 C1979 C 0.22120 0.63512 0.69960
 C1980 C 0.21389 0.62776 0.71357
 C1981 C 0.20043 0.63557 0.72140
 C1982 C 0.19413 0.65054 0.71514
 C1983 C 0.20119 0.65790 0.70089
 C1984 C 0.21493 0.65010 0.69330
 C1985 C 0.21966 0.61182 0.71939
 C1986 C 0.22417 0.59826 0.72399
 C1987 C 0.22909 0.58216 0.72904
 C1988 C 0.23296 0.56822 0.73306
 H1989 H 0.23159 0.62915 0.69341
 H1990 H 0.19464 0.62995 0.73220
 H1991 H 0.18357 0.65619 0.72131
 H1992 H 0.22069 0.65540 0.68234
 C1993 C 0.20084 0.13547 0.22088
 C1994 C 0.21429 0.12768 0.21304
 C1995 C 0.22168 0.13512 0.19914
 C1996 C 0.21548 0.15016 0.19294
 C1997 C 0.20174 0.15795 0.20054
 C1998 C 0.19461 0.15051 0.21470
 C1999 C 0.21999 0.11168 0.21876
 C2000 C 0.22445 0.09807 0.22329
 C2001 C 0.22930 0.08193 0.22828
 C2002 C 0.23312 0.06797 0.23227
 H2003 H 0.19499 0.12979 0.23161
 H2004 H 0.23208 0.12916 0.19295
 H2005 H 0.22130 0.15552 0.18203
 H2006 H 0.18404 0.15615 0.22088
 C2007 C 0.72083 1.13436 0.69903
 C2008 C 0.71319 1.12662 0.71262
 C2009 C 0.69960 1.13424 0.72039
 C2010 C 0.69350 1.14944 0.71446
 C2011 C 0.70093 1.15722 0.70063
 C2012 C 0.71477 1.14956 0.69307
 C2013 C 0.71892 1.11057 0.71821
 C2014 C 0.72349 1.09699 0.72269
 C2015 C 0.72858 1.08094 0.72771
 C2016 C 0.73271 1.06710 0.73183
 H2017 H 0.73135 1.12855 0.69290
 H2018 H 0.69357 1.12833 0.73090
 H2019 H 0.68285 1.15496 0.72059
 H2020 H 0.72080 1.15518 0.68242
 C2021 C 0.72063 0.63518 0.19878
 C2022 C 0.71319 0.62765 0.21258
 C2023 C 0.69936 0.63512 0.22009
 C2024 C 0.69284 0.64993 0.21367
 C2025 C 0.70004 0.65746 0.19959
 C2026 C 0.71414 0.64999 0.19232
 C2027 C 0.71921 0.61185 0.21854
 C2028 C 0.72393 0.59839 0.22323
 C2029 C 0.72906 0.58239 0.22838
 C2030 C 0.73308 0.56851 0.23247
 H2031 H 0.73131 0.62947 0.19283
 H2032 H 0.69346 0.62936 0.23076
 H2033 H 0.68200 0.65532 0.21960
 H2034 H 0.72002 0.65543 0.18149
 C2035 C 0.55017 0.11472 0.72046
 C2036 C 0.53644 0.12227 0.71286
 C2037 C 0.52907 0.11481 0.69894
 C2038 C 0.53555 0.09998 0.69246
 C2039 C 0.54956 0.09244 0.69982
 C2040 C 0.55668 0.09990 0.71402
 C2041 C 0.53045 0.13809 0.71882
 C2042 C 0.52576 0.15157 0.72352
 C2043 C 0.52066 0.16760 0.72866
 C2044 C 0.51668 0.18151 0.73273
 H2045 H 0.55600 0.12043 0.73121
 H2046 H 0.51847 0.12058 0.69292
 H2047 H 0.52974 0.09460 0.68154
 H2048 H 0.56745 0.09445 0.72001
 C2049 C 1.04989 0.11396 0.22109
 C2050 C 1.03619 0.12150 0.21341
 C2051 C 1.02858 0.11375 0.19978
 C2052 C 1.03479 0.09866 0.19366
 C2053 C 1.04876 0.09113 0.20109
 C2054 C 1.05613 0.09888 0.21500
 C2055 C 1.03044 0.13753 0.21904
 C2056 C 1.02590 0.15116 0.22347
 C2057 C 1.02093 0.16732 0.22833
 C2058 C 1.01700 0.18129 0.23220
 H2059 H 1.05591 0.11988 0.23162
 H2060 H 1.01800 0.11950 0.19371
 H2061 H 1.02879 0.09306 0.18295
 H2062 H 1.06688 0.09344 0.22104
 C2063 C 0.22039 0.61621 0.55163
 C2064 C 0.21268 0.62407 0.53814
 C2065 C 0.19882 0.61667 0.53058
 C2066 C 0.19253 0.60159 0.53663
 C2067 C 0.20003 0.59370 0.55036
 C2068 C 0.21413 0.60113 0.55770
 C2069 C 0.21861 0.64000 0.53243
 C2070 C 0.22334 0.65350 0.52785
 C2071 C 0.22858 0.66948 0.52272
 C2072 C 0.23281 0.68327 0.51853
 H2073 H 0.23111 0.62185 0.55759
 H2074 H 0.19273 0.62267 0.52015
 H2075 H 0.18168 0.59625 0.53066
 H2076 H 0.22023 0.59542 0.56827
 C2077 C 0.21987 0.11579 1.05216
 C2078 C 0.21224 0.12352 1.03855
 C2079 C 0.19864 0.11588 1.03076
 C2080 C 0.19255 0.10067 1.03667
 C2081 C 0.19997 0.09290 1.05051
 C2082 C 0.21380 0.10058 1.05810
 C2083 C 0.21802 0.13954 1.03291
 C2084 C 0.22264 0.15309 1.02836
 C2085 C 0.22782 0.16909 1.02321
 C2086 C 0.23204 0.18287 1.01897
 H2087 H 0.23039 0.12161 1.05830
 H2088 H 0.19263 0.12177 1.02023
 H2089 H 0.18190 0.09513 1.03052
 H2090 H 0.21983 0.09496 1.06876
 C2091 C 0.21998 0.69915 0.63386
 C2092 C 0.21223 0.71275 0.62622
 C2093 C 0.19863 0.72043 0.63393
 C2094 C 0.19267 0.71442 0.64912
 C2095 C 0.20022 0.70059 0.65681
 C2096 C 0.21405 0.69311 0.64905
 C2097 C 0.21787 0.71846 0.61022
 C2098 C 0.22243 0.72304 0.59669
 C2099 C 0.22756 0.72818 0.58071
 C2100 C 0.23179 0.73237 0.56695
 H2101 H 0.23050 0.69308 0.62798
 H2102 H 0.19252 0.73095 0.62810
 H2103 H 0.18202 0.72050 0.65472
 H2104 H 0.22018 0.68246 0.65460
 C2105 C 0.19932 0.22059 1.13465
 C2106 C 0.21290 0.21291 1.12694
 C2107 C 0.22060 0.19926 1.13454
 C2108 C 0.21459 0.19314 1.14967
 C2109 C 0.20070 0.20056 1.15746
 C2110 C 0.19327 0.21452 1.14978
 C2111 C 0.21857 0.21863 1.11095
 C2112 C 0.22311 0.22318 1.09740
 C2113 C 0.22819 0.22822 1.08138
 C2114 C 0.23232 0.23230 1.06756
 H2115 H 0.19326 0.23116 1.12885
 H2116 H 0.23112 0.19321 1.12866
 H2117 H 0.22076 0.18244 1.15509
 H2118 H 0.18261 0.22068 1.15528
 C2119 C 0.72143 0.55025 0.11467
 C2120 C 0.71396 0.53631 0.12200
 C2121 C 0.70041 0.52860 0.11419
 C2122 C 0.69417 0.53496 0.09925
 C2123 C 0.70139 0.54917 0.09192
 C2124 C 0.71522 0.55663 0.09972
 C2125 C 0.71968 0.53042 0.13791
 C2126 C 0.72417 0.52579 0.15145
 C2127 C 0.72908 0.52074 0.16754
 C2128 C 0.73298 0.51679 0.18147
 H2129 H 0.73189 0.55634 0.12064
 H2130 H 0.69450 0.51784 0.11978
 H2131 H 0.68353 0.52888 0.09359
 H2132 H 0.72109 0.56756 0.09445
 C2133 C 0.71894 1.05151 0.61679
 C2134 C 0.71111 1.03802 0.62455
 C2135 C 0.69721 1.03059 0.61709
 C2136 C 0.69103 1.03675 0.60204
 C2137 C 0.69866 1.05048 0.59424
 C2138 C 0.71279 1.05770 0.60174
 C2139 C 0.71699 1.03216 0.64042
 C2140 C 0.72172 1.02747 0.65386
 C2141 C 0.72705 1.02223 0.66975
 C2142 C 0.73141 1.01797 0.68345
 H2143 H 0.72969 1.05738 0.62247
 H2144 H 0.69103 1.02015 0.62301
 H2145 H 0.68015 1.03087 0.59664
 H2146 H 0.71899 1.06827 0.59610
 C2147 C 0.54945 0.22212 0.61425
 C2148 C 0.53587 0.21445 0.62201
 C2149 C 0.52827 0.20063 0.61456
 C2150 C 0.53439 0.19430 0.59955
 C2151 C 0.54825 0.20170 0.59179
 C2152 C 0.55560 0.21582 0.59923
 C2153 C 0.53025 0.22025 0.63800
 C2154 C 0.52582 0.22477 0.65159
 C2155 C 0.52094 0.22968 0.66774
 C2156 C 0.51707 0.23352 0.68171
 H2157 H 0.55546 0.23280 0.61994
 H2158 H 0.51778 0.19457 0.62049
 H2159 H 0.52841 0.18345 0.59419
 H2160 H 0.56627 0.22185 0.59362
 C2161 C 1.02917 0.19986 0.11424
 C2162 C 1.03688 0.21353 0.12183
 C2163 C 1.05076 0.22090 0.11435
 C2164 C 1.05710 0.21447 0.09948
 C2165 C 1.04968 0.20045 0.09184
 C2166 C 1.03546 0.19338 0.09937
 C2167 C 1.03105 0.21948 0.13770
 C2168 C 1.02645 0.22413 0.15120
 C2169 C 1.02141 0.22917 0.16726
 C2170 C 1.01742 0.23311 0.18117
 H2171 H 1.01843 0.19404 0.11996
 H2172 H 1.05685 0.23147 0.12015
 H2173 H 1.06800 0.22037 0.09416
 H2174 H 1.02928 0.18265 0.09396
 C2175 C 0.63553 0.22148 0.70066
 C2176 C 0.62786 0.21368 0.71420
 C2177 C 0.63537 0.19981 0.72160
 C2178 C 0.65036 0.19358 0.71532
 C2179 C 0.65803 0.20113 0.70150
 C2180 C 0.65052 0.21528 0.69436
 C2181 C 0.61191 0.21941 0.71999
 C2182 C 0.59834 0.22391 0.72455
 C2183 C 0.58223 0.22884 0.72953
 C2184 C 0.56829 0.23273 0.73346
 H2185 H 0.62979 0.23219 0.69481
 H2186 H 0.62951 0.19364 0.73206
 H2187 H 0.65577 0.18270 0.72115
 H2188 H 0.65606 0.22142 0.68373
 C2189 C 1.13561 0.22141 0.19973
 C2190 C 1.12826 0.21392 0.21362
 C2191 C 1.13607 0.20039 0.22131
 C2192 C 1.15105 0.19418 0.21500
 C2193 C 1.15840 0.20141 0.20083
 C2194 C 1.15059 0.21523 0.19339
 C2195 C 1.11230 0.21959 0.21946
 C2196 C 1.09873 0.22404 0.22405
 C2197 C 1.08261 0.22890 0.22904
 C2198 C 1.06865 0.23275 0.23295
 H2199 H 1.12964 0.23186 0.19365
 H2200 H 1.13045 0.19446 0.23204
 H2201 H 1.15670 0.18355 0.22106
 H2202 H 1.15589 0.22112 0.18249
 C2203 C 0.11623 0.72025 0.55103
 C2204 C 0.12398 0.71247 0.53751
 C2205 C 0.11650 0.69860 0.53001
 C2206 C 0.10145 0.69238 0.53615
 C2207 C 0.09367 0.69995 0.54992
 C2208 C 0.10118 0.71406 0.55720
 C2209 C 0.13989 0.71833 0.53172
 C2210 C 0.15338 0.72302 0.52711
 C2211 C 0.16935 0.72823 0.52197
 C2212 C 0.18313 0.73246 0.51781
 H2213 H 0.12193 0.73097 0.55695
 H2214 H 0.12241 0.69247 0.51956
 H2215 H 0.09604 0.68152 0.53023
 H2216 H 0.09556 0.72021 0.56780
 C2217 C 0.11609 0.21976 1.05092
 C2218 C 0.12371 0.21193 1.03736
 C2219 C 0.11602 0.19822 1.02980
 C2220 C 0.10087 0.19220 1.03591
 C2221 C 0.09322 0.19981 1.04972
 C2222 C 0.10095 0.21377 1.05707
 C2223 C 0.13970 0.21759 1.03158
 C2224 C 0.15324 0.22213 1.02698
 C2225 C 0.16926 0.22722 1.02184
 C2226 C 0.18306 0.23137 1.01769
 H2227 H 0.12196 0.23036 1.05690
 H2228 H 0.12183 0.19204 1.01930
 H2229 H 0.09530 0.18145 1.02993
 H2230 H 0.09543 0.21994 1.06770
 C2231 C 0.61427 0.52871 0.20064
 C2232 C 0.62210 0.53659 0.21407
 C2233 C 0.61472 0.55056 0.22145
 C2234 C 0.59970 0.55680 0.21526
 C2235 C 0.59187 0.54915 0.20154
 C2236 C 0.59925 0.53491 0.19442
 C2237 C 0.63808 0.53083 0.21976
 C2238 C 0.65166 0.52629 0.22423
 C2239 C 0.66778 0.52131 0.22911
 C2240 C 0.68173 0.51737 0.23299
 H2241 H 0.61990 0.51792 0.19481
 H2242 H 0.62071 0.55679 0.23182
 H2243 H 0.59438 0.56776 0.22106
 H2244 H 0.59358 0.52870 0.18388
 C2245 C 0.61665 1.02996 0.69798
 C2246 C 0.62392 1.03735 0.71200
 C2247 C 0.61601 1.05077 0.71982
 C2248 C 0.60100 1.05694 0.71353
 C2249 C 0.59370 1.04977 0.69928
 C2250 C 0.60164 1.03610 0.69166
 C2251 C 0.63980 1.03158 0.71797
 C2252 C 0.65326 1.02697 0.72275
 C2253 C 0.66920 1.02184 0.72805
 C2254 C 0.68296 1.01768 0.73233
 H2255 H 0.62269 1.01959 0.69181
 H2256 H 0.62155 1.05661 0.73066
 H2257 H 0.59525 1.06746 0.71972
 H2258 H 0.59639 1.03027 0.68069
 C2259 C 0.88325 0.44862 0.28054
 C2260 C 0.87589 0.46247 0.28815
 C2261 C 0.88371 0.47008 0.30175
 C2262 C 0.89873 0.46374 0.30786
 C2263 C 0.90612 0.44965 0.30045
 C2264 C 0.89827 0.44226 0.28662
 C2265 C 0.86002 0.46848 0.28241
 C2266 C 0.84657 0.47327 0.27779
 C2267 C 0.83064 0.47858 0.27262
 C2268 C 0.81690 0.48284 0.26839
 H2269 H 0.87728 0.44261 0.27003
 H2270 H 0.87810 0.48078 0.30776
 H2271 H 0.90441 0.46976 0.31851
 H2272 H 0.90359 0.43142 0.28060
 C2273 C 0.88510 0.95028 0.77987
 C2274 C 0.87752 0.96398 0.78754
 C2275 C 0.88500 0.97138 0.80144
 C2276 C 0.89986 0.96495 0.80783
 C2277 C 0.90743 0.95097 0.80040
 C2278 C 0.89996 0.94382 0.78623
 C2279 C 0.86168 0.96991 0.78164
 C2280 C 0.84820 0.97453 0.77696
 C2281 C 0.83217 0.97953 0.77180
 C2282 C 0.81828 0.98344 0.76769
 H2283 H 0.87939 0.94442 0.76914
 H2284 H 0.87921 0.98195 0.80751
 H2285 H 0.90526 0.97078 0.81873
 H2286 H 0.90542 0.93308 0.78017
 C2287 C 0.36611 0.27949 0.80175
 C2288 C 0.37395 0.28720 0.78826
 C2289 C 0.36656 0.30106 0.78072
 C2290 C 0.35150 0.30734 0.78678
 C2291 C 0.34363 0.29984 0.80052
 C2292 C 0.35105 0.28574 0.80784
 C2293 C 0.38985 0.28126 0.78254
 C2294 C 0.40333 0.27652 0.77796
 C2295 C 0.41928 0.27125 0.77283
 C2296 C 0.43304 0.26701 0.76863
 H2297 H 0.37173 0.26877 0.80770
 H2298 H 0.37255 0.30715 0.77029
 H2299 H 0.34616 0.31820 0.78083
 H2300 H 0.34535 0.27963 0.81841
 C2301 C 0.86721 0.30196 0.28082
 C2302 C 0.87476 0.28821 0.28839
 C2303 C 0.86722 0.28070 0.30217
 C2304 C 0.85229 0.28703 0.30848
 C2305 C 0.84471 0.30102 0.30111
 C2306 C 0.85228 0.30832 0.28711
 C2307 C 0.89054 0.28219 0.28241
 C2308 C 0.90391 0.27737 0.27761
 C2309 C 0.91974 0.27200 0.27224
 C2310 C 0.93342 0.26766 0.26786
 H2311 H 0.87297 0.30790 0.27017
 H2312 H 0.87298 0.27007 0.30815
 H2313 H 0.84682 0.28108 0.31926
 H2314 H 0.84681 0.31908 0.28111
 C2315 C 0.38598 0.79941 0.47193
 C2316 C 0.37834 0.78575 0.46421
 C2317 C 0.38598 0.77810 0.45056
 C2318 C 0.40108 0.78425 0.44446
 C2319 C 0.40873 0.79818 0.45192
 C2320 C 0.40108 0.80558 0.46586
 C2321 C 0.36229 0.78009 0.46981
 C2322 C 0.34866 0.77565 0.47424
 C2323 C 0.33249 0.77081 0.47912
 C2324 C 0.31851 0.76700 0.48302
 H2325 H 0.38014 0.80545 0.48248
 H2326 H 0.38015 0.76755 0.44446
 H2327 H 0.40661 0.77823 0.43373
 H2328 H 0.40660 0.81630 0.47193
 C2329 C 0.38493 0.27921 0.94967
 C2330 C 0.37740 0.28671 0.96348
 C2331 C 0.38487 0.30057 0.97099
 C2332 C 0.39968 0.30710 0.96457
 C2333 C 0.40720 0.29985 0.95049
 C2334 C 0.39973 0.28571 0.94323
 C2335 C 0.36161 0.28068 0.96941
 C2336 C 0.34816 0.27594 0.97408
 C2337 C 0.33216 0.27076 0.97918
 C2338 C 0.31829 0.26669 0.98319
 H2339 H 0.37922 0.26851 0.94373
 H2340 H 0.37911 0.30651 0.98164
 H2341 H 0.40506 0.31797 0.97049
 H2342 H 0.40517 0.27979 0.93240
 C2343 C 0.80084 0.46958 0.38356
 C2344 C 0.78744 0.46166 0.37571
 C2345 C 0.78002 0.44775 0.38313
 C2346 C 0.78610 0.44164 0.39824
 C2347 C 0.79974 0.44936 0.40613
 C2348 C 0.80695 0.46350 0.39867
 C2349 C 0.78170 0.46745 0.35977
 C2350 C 0.77711 0.47212 0.34628
 C2351 C 0.77199 0.47738 0.33033
 C2352 C 0.76782 0.48168 0.31659
 H2353 H 0.80670 0.48035 0.37790
 H2354 H 0.76965 0.44150 0.37714
 H2355 H 0.78024 0.43075 0.40362
 H2356 H 0.81745 0.46977 0.40437
 C2357 C 0.77879 0.95031 0.88566
 C2358 C 0.78652 0.96382 0.87782
 C2359 C 0.80059 0.97116 0.88504
 C2360 C 0.80709 0.96486 0.89990
 C2361 C 0.79961 0.95106 0.90773
 C2362 C 0.78526 0.94398 0.90052
 C2363 C 0.78050 0.96962 0.86198
 C2364 C 0.77578 0.97416 0.84849
 C2365 C 0.77064 0.97913 0.83245
 C2366 C 0.76663 0.98306 0.81855
 H2367 H 0.76792 0.94450 0.88016
 H2368 H 0.80670 0.98159 0.87904
 H2369 H 0.81812 0.97063 0.90508
 H2370 H 0.77916 0.93337 0.90619
 C2371 C 0.27833 0.80081 0.36494
 C2372 C 0.28570 0.78687 0.37235
 C2373 C 0.29919 0.77905 0.36459
 C2374 C 0.30547 0.78529 0.34962
 C2375 C 0.29835 0.79950 0.34221
 C2376 C 0.28458 0.80708 0.34997
 C2377 C 0.27994 0.78107 0.38828
 C2378 C 0.27543 0.77650 0.40183
 C2379 C 0.27051 0.77148 0.41792
 C2380 C 0.26664 0.76750 0.43185
 H2381 H 0.26792 0.80699 0.37087
 H2382 H 0.30503 0.76828 0.37025
 H2383 H 0.31606 0.77912 0.34401
 H2384 H 0.27878 0.81801 0.34463
 C2385 C 0.27907 0.30045 0.86550
 C2386 C 0.28655 0.28665 0.87306
 C2387 C 0.30031 0.27906 0.86557
 C2388 C 0.30676 0.28539 0.85070
 C2389 C 0.29953 0.29946 0.84314
 C2390 C 0.28549 0.30681 0.85064
 C2391 C 0.28061 0.28078 0.88890
 C2392 C 0.27596 0.27614 0.90237
 C2393 C 0.27090 0.27104 0.91839
 C2394 C 0.26694 0.26699 0.93227
 H2395 H 0.26844 0.30646 0.87123
 H2396 H 0.30623 0.26840 0.87134
 H2397 H 0.31755 0.27940 0.84530
 H2398 H 0.27959 0.31764 0.84517
 C2399 C 0.46957 0.30217 0.88345
 C2400 C 0.46215 0.28824 0.87602
 C2401 C 0.44871 0.28038 0.88383
 C2402 C 0.44256 0.28655 0.89889
 C2403 C 0.44978 0.30072 0.90636
 C2404 C 0.46346 0.30837 0.89852
 C2405 C 0.46794 0.28236 0.86012
 C2406 C 0.47257 0.27764 0.84665
 C2407 C 0.47775 0.27235 0.83072
 C2408 C 0.48198 0.26804 0.81699
 H2409 H 0.47997 0.30837 0.87749
 H2410 H 0.44284 0.26961 0.87816
 H2411 H 0.43203 0.28033 0.90457
 H2412 H 0.46933 0.31928 0.90389
 C2413 C 0.94857 0.27954 0.38298
 C2414 C 0.96243 0.28711 0.37563
 C2415 C 0.97015 0.30062 0.38353
 C2416 C 0.96392 0.30669 0.39860
 C2417 C 0.94982 0.29933 0.40598
 C2418 C 0.94231 0.28558 0.39805
 C2419 C 0.96835 0.28141 0.35971
 C2420 C 0.97306 0.27685 0.34622
 C2421 C 0.97830 0.27174 0.33025
 C2422 C 0.98251 0.26757 0.31647
 H2423 H 0.94248 0.26910 0.37695
 H2424 H 0.98087 0.30660 0.37793
 H2425 H 0.97002 0.31728 0.40434
 H2426 H 0.93145 0.27960 0.40335
 C2427 C 0.44791 0.38338 0.78082
 C2428 C 0.46163 0.37576 0.78836
 C2429 C 0.46918 0.38326 0.80217
 C2430 C 0.46290 0.39819 0.80857
 C2431 C 0.44892 0.40583 0.80125
 C2432 C 0.44159 0.39831 0.78719
 C2433 C 0.46756 0.35994 0.78235
 C2434 C 0.47231 0.34651 0.77758
 C2435 C 0.47760 0.33060 0.77229
 C2436 C 0.48189 0.31685 0.76803
 H2437 H 0.44194 0.37765 0.77015
 H2438 H 0.47980 0.37744 0.80812
 H2439 H 0.46887 0.40361 0.81938
 H2440 H 0.43084 0.40383 0.78123
 C2441 C 0.96943 0.38330 0.30081
 C2442 C 0.96162 0.37569 0.28721
 C2443 C 0.94778 0.38328 0.27984
 C2444 C 0.94165 0.39831 0.28616
 C2445 C 0.94926 0.40596 0.30000
 C2446 C 0.96333 0.39834 0.30716
 C2447 C 0.96741 0.35980 0.28122
 C2448 C 0.97206 0.34633 0.27644
 C2449 C 0.97728 0.33040 0.27113
 C2450 C 0.98155 0.31664 0.26686
 H2451 H 0.98013 0.37751 0.30664
 H2452 H 0.94161 0.37747 0.26933
 H2453 H 0.93082 0.40381 0.28032
 H2454 H 0.96951 0.40386 0.31780
 C2455 C 0.30028 0.88594 0.47146
 C2456 C 0.28670 0.87814 0.46379
 C2457 C 0.27926 0.88546 0.44986
 C2458 C 0.28553 0.90038 0.44343
 C2459 C 0.29939 0.90818 0.45085
 C2460 C 0.30658 0.90087 0.46506
 C2461 C 0.28093 0.86223 0.46971
 C2462 C 0.27639 0.84869 0.47436
 C2463 C 0.27141 0.83260 0.47942
 C2464 C 0.26746 0.81867 0.48339
 H2465 H 0.30617 0.88035 0.48222
 H2466 H 0.26877 0.87950 0.44380
 H2467 H 0.27967 0.90565 0.43250
 H2468 H 0.31724 0.90651 0.47110
 C2469 C 0.30112 0.38486 0.97132
 C2470 C 0.28724 0.37731 0.96395
 C2471 C 0.27966 0.38476 0.95017
 C2472 C 0.28607 0.39956 0.94360
 C2473 C 0.30023 0.40710 0.95072
 C2474 C 0.30757 0.39966 0.96479
 C2475 C 0.28130 0.36151 0.96999
 C2476 C 0.27660 0.34804 0.97472
 C2477 C 0.27146 0.33203 0.97984
 C2478 C 0.26739 0.31813 0.98384
 H2479 H 0.30713 0.37916 0.98197
 H2480 H 0.26894 0.37899 0.94432
 H2481 H 0.28009 0.40493 0.93279
 H2482 H 0.31845 0.40511 0.97060
 C2483 C 0.78086 0.36687 0.30184
 C2484 C 0.78839 0.37438 0.28806
 C2485 C 0.80217 0.36682 0.28055
 C2486 C 0.80854 0.35191 0.28692
 C2487 C 0.80122 0.34437 0.30094
 C2488 C 0.78720 0.35196 0.30824
 C2489 C 0.78238 0.39016 0.28202
 C2490 C 0.77759 0.40354 0.27721
 C2491 C 0.77225 0.41942 0.27186
 C2492 C 0.76794 0.43315 0.26757
 H2493 H 0.77021 0.37264 0.30777
 H2494 H 0.80812 0.37255 0.26990
 H2495 H 0.81932 0.34644 0.28098
 H2496 H 0.78124 0.34652 0.31902
   
