data_POSCAR
  _audit_creation_date              2014-09-24
  _audit_creation_method            'ToBaCCo'
  _symmetry_space_group_name_H-M    'P1'
  _symmetry_Int_Tables_number       1
  _symmetry_cell_setting            triclinic
  loop_
  _symmetry_equiv_pos_as_xyz
 x,y,z
_cell_length_a 85.1471
_cell_length_b 85.9823
_cell_length_c 85.0164
_cell_angle_alpha 90.017900
_cell_angle_beta 89.943600
_cell_angle_gamma 90.026000
loop_
  _atom_site_label
  _atom_site_type_symbol
  _atom_site_fract_x
  _atom_site_fract_y
  _atom_site_fract_z
C1 C 0.30154 0.43588 0.92541
 C2 C 0.30152 0.42459 0.93730
 C3 C 0.31302 0.42476 0.94877
 C4 C 0.32478 0.43621 0.94844
 C5 C 0.32487 0.44724 0.93665
 C6 C 0.31312 0.44716 0.92511
 C7 C 0.29229 0.43807 0.91233
 N8 N 0.29793 0.45045 0.90413
 C9 C 0.31068 0.45607 0.91189
 C10 C 0.33811 0.45616 0.93865
 N11 N 0.34620 0.45094 0.95146
 C12 C 0.33791 0.43871 0.95751
 C13 C 0.31059 0.41195 0.95818
 N14 N 0.29795 0.40398 0.95265
 C15 C 0.29232 0.41170 0.93989
 H16 H 0.28225 0.43108 0.90901
 H17 H 0.31798 0.46561 0.90795
 H18 H 0.34139 0.46582 0.93120
 H19 H 0.34142 0.43152 0.96732
 H20 H 0.31791 0.40836 0.96793
 H21 H 0.28239 0.40810 0.93283
 C22 C 0.43581 0.82851 0.44722
 C23 C 0.42452 0.81664 0.44770
 C24 C 0.42440 0.80524 0.43623
 C25 C 0.43554 0.80559 0.42408
 C26 C 0.44658 0.81737 0.42354
 C27 C 0.44668 0.82893 0.43520
 C28 C 0.43831 0.84141 0.45644
 N29 N 0.45043 0.84987 0.45030
 C30 C 0.45554 0.84215 0.43722
 C31 C 0.45535 0.81522 0.41012
 N32 N 0.44994 0.80240 0.40249
 C33 C 0.43781 0.79644 0.41098
 C34 C 0.41168 0.79578 0.43916
 N35 N 0.40402 0.80122 0.45208
 C36 C 0.41185 0.81396 0.45739
 H37 H 0.43121 0.84458 0.46649
 H38 H 0.46511 0.84563 0.42964
 H39 H 0.46496 0.82251 0.40621
 H40 H 0.43081 0.78645 0.40766
 H41 H 0.40790 0.78607 0.43200
 H42 H 0.40847 0.82096 0.46743
 C43 C 0.93591 0.92183 0.80300
 C44 C 0.92405 0.93314 0.80309
 C45 C 0.92428 0.94487 0.81420
 C46 C 0.93634 0.94541 0.82541
 C47 C 0.94811 0.93439 0.82519
 C48 C 0.94790 0.92250 0.81387
 C49 C 0.93812 0.90864 0.79416
 N50 N 0.95126 0.90111 0.79931
 C51 C 0.95730 0.90971 0.81139
 C52 C 0.95776 0.93739 0.83781
 N53 N 0.95207 0.94991 0.84591
 C54 C 0.93893 0.95484 0.83819
 C55 C 0.91106 0.95379 0.81189
 N56 N 0.90280 0.94773 0.79965
 C57 C 0.91068 0.93506 0.79424
 H58 H 0.93058 0.90503 0.78461
 H59 H 0.96736 0.90668 0.81850
 H60 H 0.96770 0.93031 0.84116
 H61 H 0.93161 0.96460 0.84144
 H62 H 0.90752 0.96370 0.81889
 H63 H 0.90698 0.92776 0.78455
 C64 C 0.43564 -0.07801 0.30303
 C65 C 0.42420 -0.06628 0.30279
 C66 C 0.42418 -0.05486 0.31424
 C67 C 0.43559 -0.05505 0.32614
 C68 C 0.44676 -0.06671 0.32644
 C69 C 0.44675 -0.07828 0.31481
 C70 C 0.43810 -0.09091 0.29378
 N71 N 0.45042 -0.09921 0.29969
 C72 C 0.45571 -0.09140 0.31264
 C73 C 0.45579 -0.06447 0.33964
 N74 N 0.45041 -0.05170 0.34739
 C75 C 0.43804 -0.04587 0.33918
 C76 C 0.41130 -0.04556 0.31157
 N77 N 0.40345 -0.05112 0.29883
 C78 C 0.41132 -0.06378 0.29338
 H79 H 0.43084 -0.09420 0.28390
 H80 H 0.46547 -0.09474 0.32001
 H81 H 0.46554 -0.07166 0.34335
 H82 H 0.43103 -0.03595 0.34266
 H83 H 0.40758 -0.03586 0.31878
 H84 H 0.40783 -0.07082 0.28342
 C85 C 0.79973 0.31380 0.32339
 C86 C 0.80014 0.32538 0.31178
 C87 C 0.81178 0.32519 0.30042
 C88 C 0.82312 0.31336 0.30046
 C89 C 0.82270 0.30194 0.31190
 C90 C 0.81090 0.30214 0.32342
 C91 C 0.79043 0.31166 0.33645
 N92 N 0.79567 0.29897 0.34441
 C93 C 0.80819 0.29307 0.33647
 C94 C 0.83563 0.29261 0.30969
 N95 N 0.84391 0.29806 0.29717
 C96 C 0.83629 0.31075 0.29143
 C97 C 0.80987 0.33831 0.29135
 N98 N 0.79735 0.34644 0.29690
 C99 C 0.79133 0.33857 0.30940
 H100 H 0.78069 0.31895 0.34000
 H101 H 0.81523 0.28328 0.34024
 H102 H 0.83886 0.28269 0.31682
 H103 H 0.84035 0.31793 0.28180
 H104 H 0.81719 0.34173 0.28152
 H105 H 0.78160 0.34244 0.31662
 C106 C -0.18516 0.82730 0.80330
 C107 C -0.17331 0.81595 0.80354
 C108 C -0.17312 0.80488 0.81533
 C109 C -0.18479 0.80493 0.82697
 C110 C -0.19648 0.81601 0.82667
 C111 C -0.19658 0.82738 0.81483
 C112 C -0.18780 0.84000 0.79383
 N113 N -0.20049 0.84802 0.79939
 C114 C -0.20589 0.84018 0.81227
 C115 C -0.20583 0.81355 0.83964
 N116 N -0.20008 0.80125 0.84800
 C117 C -0.18712 0.79599 0.84016
 C118 C -0.15993 0.79592 0.81316
 N119 N -0.15206 0.80125 0.80033
 C120 C -0.16020 0.81350 0.79435
 H121 H -0.18038 0.84343 0.78410
 H122 H -0.21589 0.84335 0.81942
 H123 H -0.21570 0.82076 0.84293
 H124 H -0.17985 0.78624 0.84352
 H125 H -0.15630 0.78627 0.82048
 H126 H -0.15660 0.82047 0.78438
 C127 C 0.94978 0.32425 0.43883
 C128 C 0.94969 0.31266 0.42722
 C129 C 0.93842 0.30109 0.42755
 C130 C 0.92702 0.30099 0.43948
 C131 C 0.92714 0.31242 0.45092
 C132 C 0.93867 0.32408 0.45064
 C133 C 0.95870 0.33742 0.44082
 N134 N 0.95339 0.34538 0.45366
 C135 C 0.94110 0.33710 0.45972
 C136 C 0.91411 0.31013 0.46023
 N137 N 0.90608 0.29760 0.45471
 C138 C 0.91396 0.29191 0.44204
 C139 C 0.94063 0.29202 0.41439
 N140 N 0.95294 0.29782 0.40606
 C141 C 0.95854 0.31046 0.41387
 H142 H 0.96840 0.34075 0.43333
 H143 H 0.93379 0.34053 0.46953
 H144 H 0.91060 0.31728 0.47011
 H145 H 0.91009 0.28232 0.43475
 H146 H 0.93341 0.28226 0.41085
 H147 H 0.96826 0.31766 0.41006
 C148 C 0.44774 0.43418 0.82605
 C149 C 0.44767 0.42246 0.81457
 C150 C 0.43653 0.42267 0.80276
 C151 C 0.42536 0.43462 0.80222
 C152 C 0.42552 0.44625 0.81345
 C153 C 0.43684 0.44603 0.82544
 C154 C 0.45656 0.43638 0.83940
 N155 N 0.45136 0.44936 0.84706
 C156 C 0.43927 0.45531 0.83839
 C157 C 0.41284 0.45575 0.81052
 N158 N 0.40495 0.45011 0.79784
 C159 C 0.41260 0.43720 0.79268
 C160 C 0.43869 0.40951 0.79382
 N161 N 0.45092 0.40131 0.79987
 C162 C 0.45649 0.40918 0.81258
 H163 H 0.46611 0.42894 0.84305
 H164 H 0.43212 0.46523 0.84149
 H165 H 0.40926 0.46565 0.81753
 H166 H 0.40903 0.43004 0.78284
 H167 H 0.43180 0.40614 0.78369
 H168 H 0.46594 0.40531 0.82013
 C169 C 0.80198 0.92432 0.93697
 C170 C 0.80223 0.93529 0.92478
 C171 C 0.81357 0.94678 0.92460
 C172 C 0.82488 0.94741 0.93656
 C173 C 0.82453 0.93672 0.94866
 C174 C 0.81296 0.92507 0.94888
 C175 C 0.79292 0.91136 0.93961
 N176 N 0.79803 0.90405 0.95290
 C177 C 0.81031 0.91257 0.95863
 C178 C 0.83731 0.93970 0.95810
 N179 N 0.84562 0.95186 0.95195
 C180 C 0.83789 0.95660 0.93874
 C181 C 0.81141 0.95536 0.91112
 N182 N 0.79901 0.94935 0.90309
 C183 C 0.79336 0.93703 0.91137
 H184 H 0.78327 0.90773 0.93221
 H185 H 0.81745 0.90964 0.96871
 H186 H 0.84061 0.93282 0.96821
 H187 H 0.84128 0.96607 0.93110
 H188 H 0.81862 0.96500 0.90725
 H189 H 0.78352 0.92983 0.90791
 C190 C 0.30147 0.82618 0.31181
 C191 C 0.30087 0.81446 0.32327
 C192 C 0.31228 0.80303 0.32361
 C193 C 0.32448 0.80320 0.31252
 C194 C 0.32508 0.81477 0.30125
 C195 C 0.31353 0.82640 0.30097
 C196 C 0.29244 0.83916 0.30922
 N197 N 0.29873 0.84750 0.29708
 C198 C 0.31170 0.83960 0.29202
 C199 C 0.33852 0.81244 0.29257
 N200 N 0.34612 0.79976 0.29833
 C201 C 0.33759 0.79406 0.31056
 C202 C 0.30930 0.79380 0.33649
 N203 N 0.29640 0.79940 0.34404
 C204 C 0.29117 0.81203 0.33598
 H205 H 0.28246 0.84252 0.31632
 H206 H 0.31937 0.84298 0.28248
 H207 H 0.34272 0.81974 0.28308
 H208 H 0.34071 0.78403 0.31759
 H209 H 0.31642 0.78415 0.34045
 H210 H 0.28119 0.81912 0.33926
 C211 C 0.80100 0.42485 0.43727
 C212 C 0.80079 0.43627 0.42549
 C213 C 0.81213 0.44779 0.42531
 C214 C 0.82391 0.44799 0.43685
 C215 C 0.82422 0.43664 0.44830
 C216 C 0.81267 0.42502 0.44856
 C217 C 0.79193 0.41186 0.43996
 N218 N 0.79783 0.40413 0.45259
 C219 C 0.81054 0.41213 0.45790
 C220 C 0.83744 0.43908 0.45722
 N221 N 0.84530 0.45174 0.45156
 C222 C 0.83690 0.45725 0.43908
 C223 C 0.80959 0.45669 0.41211
 N224 N 0.79703 0.45081 0.40422
 C225 C 0.79157 0.43833 0.41238
 H226 H 0.78208 0.40805 0.43290
 H227 H 0.81781 0.40878 0.46778
 H228 H 0.84085 0.43202 0.46716
 H229 H 0.84023 0.46681 0.43152
 H230 H 0.81678 0.46632 0.40819
 H231 H 0.78175 0.43110 0.40893
 C232 C 0.93831 0.82456 -0.05068
 C233 C 0.92681 0.81289 -0.05035
 C234 C 0.92657 0.80155 -0.06189
 C235 C 0.93780 0.80179 -0.07399
 C236 C 0.94899 0.81338 -0.07439
 C237 C 0.94930 0.82482 -0.06264
 C238 C 0.94084 0.83749 -0.04150
 N239 N 0.95310 0.84563 -0.04761
 C240 C 0.95834 0.83792 -0.06056
 C241 C 0.95762 0.81136 -0.08791
 N242 N 0.95204 0.79872 -0.09587
 C243 C 0.93988 0.79282 -0.08723
 C244 C 0.91357 0.79240 -0.05916
 N245 N 0.90589 0.79797 -0.04631
 C246 C 0.91397 0.81049 -0.04084
 H247 H 0.93388 0.84101 -0.03145
 H248 H 0.96792 0.84163 -0.06804
 H249 H 0.96731 0.81868 -0.09145
 H250 H 0.93246 0.78315 -0.09053
 H251 H 0.90962 0.78284 -0.06644
 H252 H 0.91062 0.81754 -0.03083
 C253 C 0.30168 0.32519 0.81256
 C254 C 0.30157 0.31375 0.82431
 C255 C 0.31305 0.30239 0.82450
 C256 C 0.32485 0.30237 0.81299
 C257 C 0.32495 0.31363 0.80137
 C258 C 0.31326 0.32513 0.80114
 C259 C 0.29253 0.33813 0.81008
 N260 N 0.29825 0.34596 0.79743
 C261 C 0.31092 0.33805 0.79187
 C262 C 0.33821 0.31126 0.79240
 N263 N 0.34619 0.29888 0.79833
 C264 C 0.33805 0.29338 0.81092
 C265 C 0.31054 0.29341 0.83766
 N266 N 0.29784 0.29908 0.84549
 C267 C 0.29229 0.31153 0.83737
 H268 H 0.28255 0.34165 0.81712
 H269 H 0.31828 0.34172 0.78217
 H270 H 0.34207 0.31840 0.78265
 H271 H 0.34153 0.28365 0.81820
 H272 H 0.31780 0.28383 0.84155
 H273 H 0.28234 0.31860 0.84079
 C274 C 0.17272 0.56703 0.55333
 C275 C 0.18422 0.57872 0.55330
 C276 C 0.19593 0.57867 0.56455
 C277 C 0.19627 0.56697 0.57603
 C278 C 0.18497 0.55542 0.57604
 C279 C 0.17311 0.55544 0.56460
 C280 C 0.15957 0.56459 0.54429
 N281 N 0.15194 0.55179 0.54977
 C282 C 0.16019 0.54612 0.56219
 C283 C 0.18779 0.54609 0.58887
 N284 N 0.20048 0.55173 0.59671
 C285 C 0.20574 0.56451 0.58889
 C286 C 0.20502 0.59168 0.56206
 N287 N 0.19909 0.59965 0.54960
 C288 C 0.18634 0.59177 0.54419
 H289 H 0.15581 0.57169 0.53448
 H290 H 0.15679 0.53623 0.56931
 H291 H 0.18075 0.53625 0.59254
 H292 H 0.21566 0.57160 0.59236
 H293 H 0.21494 0.59531 0.56913
 H294 H 0.17908 0.59528 0.53437
 C295 C 0.57466 0.68642 0.05097
 C296 C 0.56290 0.67500 0.05057
 C297 C 0.55099 0.67516 0.06164
 C298 C 0.55072 0.68668 0.07331
 C299 C 0.56228 0.69797 0.07367
 C300 C 0.57433 0.69785 0.06241
 C301 C 0.58813 0.68861 0.04229
 N302 N 0.59599 0.70110 0.04816
 C303 C 0.58758 0.70682 0.06048
 C304 C 0.55957 0.70704 0.08674
 N305 N 0.54670 0.70147 0.09436
 C306 C 0.54121 0.68902 0.08618
 C307 C 0.54175 0.66230 0.05895
 N308 N 0.54776 0.65430 0.04653
 C309 C 0.56072 0.66202 0.04135
 H310 H 0.59197 0.68153 0.03249
 H311 H 0.59111 0.71645 0.06788
 H312 H 0.56685 0.71657 0.09075
 H313 H 0.53117 0.68200 0.08946
 H314 H 0.53173 0.65874 0.06591
 H315 H 0.56813 0.65840 0.03167
 C316 C 0.68773 0.19696 0.67589
 C317 C 0.67624 0.19706 0.68772
 C318 C 0.67632 0.18570 0.69923
 C319 C 0.68793 0.17415 0.69913
 C320 C 0.69930 0.17407 0.68751
 C321 C 0.69915 0.18552 0.67576
 C322 C 0.68995 0.20594 0.66267
 N323 N 0.70239 0.20020 0.65448
 C324 C 0.70809 0.18771 0.66245
 C325 C 0.70846 0.16109 0.68987
 N326 N 0.70288 0.15327 0.70261
 C327 C 0.69032 0.16122 0.70833
 C328 C 0.66331 0.18804 0.70852
 N329 N 0.65530 0.20055 0.70296
 C330 C 0.66317 0.20616 0.69025
 H331 H 0.68264 0.21556 0.65898
 H332 H 0.71791 0.18060 0.65877
 H333 H 0.71810 0.15732 0.68249
 H334 H 0.68330 0.15778 0.71836
 H335 H 0.65984 0.18100 0.71849
 H336 H 0.65936 0.21577 0.68297
 C337 C 1.07583 0.06537 0.19682
 C338 C 1.06410 0.07682 0.19697
 C339 C 1.05261 0.07687 0.18547
 C340 C 1.05275 0.06552 0.17360
 C341 C 1.06440 0.05439 0.17337
 C342 C 1.07598 0.05426 0.18507
 C343 C 1.08883 0.06283 0.20609
 N344 N 1.09688 0.05047 0.20021
 C345 C 1.08907 0.04518 0.18734
 C346 C 1.06222 0.04552 0.16012
 N347 N 1.04941 0.05088 0.15214
 C348 C 1.04357 0.06315 0.16051
 C349 C 1.04333 0.08973 0.18806
 N350 N 1.04895 0.09752 0.20079
 C351 C 1.06164 0.08964 0.20632
 H352 H 1.09242 0.06980 0.21606
 H353 H 1.09265 0.03546 0.18008
 H354 H 1.06952 0.03578 0.15679
 H355 H 1.03379 0.07042 0.15712
 H356 H 1.03359 0.09347 0.18081
 H357 H 1.06873 0.09308 0.21630
 C358 C 0.06598 0.17173 1.05432
 C359 C 0.07735 0.18356 1.05419
 C360 C 0.07710 0.19498 1.06564
 C361 C 0.06548 0.19478 1.07734
 C362 C 0.05441 0.18308 1.07756
 C363 C 0.05463 0.17149 1.06596
 C364 C 0.06368 0.15878 1.04508
 N365 N 0.05122 0.15067 1.05085
 C366 C 0.04564 0.15840 1.06364
 C367 C 0.04522 0.18533 1.09067
 N368 N 0.05034 0.19823 1.09851
 C369 C 0.06278 0.20404 1.09024
 C370 C 0.08995 0.20436 1.06320
 N371 N 0.09804 0.19894 1.05055
 C372 C 0.09036 0.18623 1.04493
 H373 H 0.07084 0.15529 1.03516
 H374 H 0.03577 0.15478 1.07078
 H375 H 0.03543 0.17802 1.09399
 H376 H 0.06995 0.21388 1.09357
 H377 H 0.09325 0.21431 1.07028
 H378 H 0.09426 0.17908 1.03521
 C379 C 0.17544 0.69632 0.68658
 C380 C 0.18659 0.69625 0.67443
 C381 C 0.19779 0.68462 0.67377
 C382 C 0.19803 0.67294 0.68527
 C383 C 0.18707 0.67303 0.69727
 C384 C 0.17566 0.68477 0.69790
 C385 C 0.16263 0.70561 0.68965
 N386 N 0.15503 0.69992 0.70249
 C387 C 0.16296 0.68718 0.70761
 C388 C 0.18962 0.65995 0.70623
 N389 N 0.20185 0.65190 0.69994
 C390 C 0.20705 0.65980 0.68710
 C391 C 0.20646 0.68694 0.66032
 N392 N 0.20083 0.69970 0.65276
 C393 C 0.18868 0.70548 0.66136
 H394 H 0.15878 0.71540 0.68265
 H395 H 0.15964 0.68003 0.71755
 H396 H 0.18272 0.65631 0.71628
 H397 H 0.21662 0.65622 0.67955
 H398 H 0.21609 0.67975 0.65630
 H399 H 0.18151 0.71535 0.65808
 C400 C 1.18583 0.17350 0.19799
 C401 C 1.17380 0.18461 0.19774
 C402 C 1.17356 0.19585 0.18612
 C403 C 1.18530 0.19606 0.17454
 C404 C 1.19722 0.18520 0.17486
 C405 C 1.19749 0.17379 0.18666
 C406 C 1.18846 0.16070 0.20731
 N407 N 1.20142 0.15316 0.20193
 C408 C 1.20705 0.16115 0.18931
 C409 C 1.20650 0.18780 0.16187
 N410 N 1.20048 0.19995 0.15346
 C411 C 1.18745 0.20501 0.16132
 C412 C 1.16022 0.20461 0.18838
 N413 N 1.15235 0.19893 0.20106
 C414 C 1.16060 0.18666 0.20683
 H415 H 1.18130 0.15706 0.21717
 H416 H 1.21698 0.15768 0.18217
 H417 H 1.21647 0.18074 0.15856
 H418 H 1.17995 0.21457 0.15792
 H419 H 1.15630 0.21412 0.18103
 H420 H 1.15723 0.17969 0.21688
 C421 C 0.67647 1.05288 0.56160
 C422 C 0.68789 1.05298 0.57348
 C423 C 0.69897 1.06473 0.57396
 C424 C 0.69884 1.07650 0.56255
 C425 C 0.68772 1.07633 0.55078
 C426 C 0.67638 1.06449 0.55034
 C427 C 0.66359 1.04359 0.55888
 N428 N 0.65562 1.04931 0.54629
 C429 C 0.66343 1.06208 0.54099
 C430 C 0.68997 1.08948 0.54185
 N431 N 0.70217 1.09784 0.54796
 C432 C 0.70760 1.08981 0.56069
 C433 C 0.70794 1.06243 0.58720
 N434 N 0.70261 1.04954 0.59478
 C435 C 0.69033 1.04369 0.58643
 H436 H 0.65992 1.03381 0.56600
 H437 H 0.65982 1.06930 0.53121
 H438 H 0.68263 1.09291 0.53208
 H439 H 0.71729 1.09315 0.56817
 H440 H 0.71757 1.06969 0.59106
 H441 H 0.68333 1.03373 0.58981
 C442 C 0.56035 0.55074 0.17736
 C443 C 0.57216 0.55055 0.18884
 C444 C 0.57244 0.56183 0.20043
 C445 C 0.56095 0.57351 0.20065
 C446 C 0.54930 0.57370 0.18933
 C447 C 0.54903 0.56226 0.17757
 C448 C 0.55778 0.54183 0.16417
 N449 N 0.54521 0.54767 0.15631
 C450 C 0.53978 0.56018 0.16446
 C451 C 0.54037 0.58680 0.19187
 N452 N 0.54634 0.59461 0.20442
 C453 C 0.55894 0.58653 0.20986
 C454 C 0.58568 0.55931 0.20935
 N455 N 0.59348 0.54682 0.20341
 C456 C 0.58524 0.54139 0.19086
 H457 H 0.56497 0.53219 0.16025
 H458 H 0.52997 0.56741 0.16102
 H459 H 0.53063 0.59067 0.18470
 H460 H 0.56626 0.58995 0.21967
 H461 H 0.58967 0.56645 0.21904
 H462 H 0.58861 0.53162 0.18358
 C463 C 0.67663 0.68707 0.20042
 C464 C 0.68818 0.67546 0.20039
 C465 C 0.69964 0.67536 0.18886
 C466 C 0.69964 0.68683 0.17714
 C467 C 0.68827 0.69832 0.17719
 C468 C 0.67668 0.69844 0.18893
 C469 C 0.66350 0.68937 0.20955
 N470 N 0.65554 0.70188 0.20390
 C471 C 0.66357 0.70752 0.19130
 C472 C 0.69058 0.70725 0.16396
 N473 N 0.70303 0.70143 0.15584
 C474 C 0.70864 0.68894 0.16386
 C475 C 0.70864 0.66227 0.19119
 N476 N 0.70289 0.65441 0.20381
 C477 C 0.69036 0.66244 0.20950
 H478 H 0.65990 0.68229 0.21944
 H479 H 0.65982 0.71712 0.18397
 H480 H 0.68332 0.71689 0.16020
 H481 H 0.71842 0.68175 0.16022
 H482 H 0.71828 0.65844 0.18383
 H483 H 0.68320 0.65897 0.21942
 C484 C 0.17468 0.06495 1.05186
 C485 C 0.18630 0.07651 1.05179
 C486 C 0.19817 0.07620 1.06286
 C487 C 0.19856 0.06437 1.07419
 C488 C 0.18713 0.05294 1.07425
 C489 C 0.17510 0.05322 1.06298
 C490 C 0.16129 0.06287 1.04309
 N491 N 0.15354 0.05016 1.04858
 C492 C 0.16195 0.04417 1.06075
 C493 C 0.18993 0.04356 1.08706
 N494 N 0.20273 0.04908 1.09483
 C495 C 0.20808 0.06180 1.08698
 C496 C 0.20726 0.08924 1.06052
 N497 N 0.20116 0.09748 1.04833
 C498 C 0.18832 0.08974 1.04293
 H499 H 0.15742 0.07019 1.03349
 H500 H 0.15848 0.03429 1.06784
 H501 H 0.18277 0.03384 1.09082
 H502 H 0.21805 0.06884 1.09043
 H503 H 0.21723 0.09274 1.06757
 H504 H 0.18089 0.09350 1.03334
 C505 C 0.57317 0.19946 0.56099
 C506 C 0.56137 0.19962 0.57252
 C507 C 0.54976 0.18838 0.57238
 C508 C 0.54973 0.17687 0.56070
 C509 C 0.56133 0.17673 0.54932
 C510 C 0.57317 0.18807 0.54950
 C511 C 0.58653 0.20823 0.55889
 N512 N 0.59467 0.20240 0.54644
 C513 C 0.58654 0.19007 0.54064
 C514 C 0.55896 0.16370 0.54021
 N515 N 0.54624 0.15591 0.54583
 C516 C 0.54053 0.16393 0.55837
 C517 C 0.54063 0.19064 0.58553
 N518 N 0.54638 0.20299 0.59367
 C519 C 0.55907 0.20858 0.58575
 H520 H 0.59037 0.21774 0.56629
 H521 H 0.59017 0.18290 0.53082
 H522 H 0.56637 0.15984 0.53062
 H523 H 0.53055 0.16051 0.56546
 H524 H 0.53066 0.18361 0.58902
 H525 H 0.56650 0.21803 0.58966
 C526 C 0.07674 0.56481 0.69614
 C527 C 0.06499 0.57624 0.69659
 C528 C 0.05332 0.57637 0.68528
 C529 C 0.05328 0.56513 0.67333
 C530 C 0.06484 0.55386 0.67289
 C531 C 0.07668 0.55373 0.68435
 C532 C 0.08992 0.56227 0.70514
 N533 N 0.09790 0.54995 0.69908
 C534 C 0.08984 0.54466 0.68635
 C535 C 0.06225 0.54495 0.65970
 N536 N 0.04943 0.55058 0.65207
 C537 C 0.04388 0.56294 0.66036
 C538 C 0.04398 0.58910 0.68819
 N539 N 0.04970 0.59674 0.70096
 C540 C 0.06257 0.58892 0.70616
 H541 H 0.09367 0.56923 0.71507
 H542 H 0.09333 0.53498 0.67900
 H543 H 0.06950 0.53540 0.65568
 H544 H 0.03379 0.56991 0.65715
 H545 H 0.03407 0.59281 0.68117
 H546 H 0.06974 0.59225 0.71611
 C547 C 0.67508 0.55366 0.06245
 C548 C 0.68681 0.55359 0.07403
 C549 C 0.69803 0.56524 0.07429
 C550 C 0.69772 0.57708 0.06295
 C551 C 0.68612 0.57717 0.05158
 C552 C 0.67474 0.56539 0.05133
 C553 C 0.66217 0.54437 0.05985
 N554 N 0.65398 0.55020 0.04747
 C555 C 0.66163 0.56307 0.04219
 C556 C 0.68813 0.59042 0.04274
 N557 N 0.70069 0.59839 0.04844
 C558 C 0.70663 0.59027 0.06081
 C559 C 0.70728 0.56277 0.08731
 N560 N 0.70198 0.54992 0.09497
 C561 C 0.68948 0.54422 0.08687
 H562 H 0.65870 0.53443 0.06685
 H563 H 0.65788 0.57033 0.03251
 H564 H 0.68089 0.59403 0.03295
 H565 H 0.71639 0.59395 0.06807
 H566 H 0.71705 0.56996 0.09101
 H567 H 0.68241 0.53434 0.09039
 C568 C 0.06381 0.69603 0.57487
 C569 C 0.07547 0.69600 0.56319
 C570 C 0.07565 0.68440 0.55192
 C571 C 0.06416 0.67271 0.55212
 C572 C 0.05271 0.67272 0.56365
 C573 C 0.05254 0.68446 0.57511
 C574 C 0.06126 0.70535 0.58779
 N575 N 0.04874 0.69968 0.59591
 C576 C 0.04334 0.68690 0.58819
 C577 C 0.04370 0.65961 0.56147
 N578 N 0.04938 0.65165 0.54886
 C579 C 0.06190 0.65963 0.54308
 C580 C 0.08872 0.68675 0.54271
 N581 N 0.09649 0.69950 0.54809
 C582 C 0.08841 0.70524 0.56061
 H583 H 0.06838 0.71518 0.59131
 H584 H 0.03352 0.67977 0.59188
 H585 H 0.03378 0.65610 0.56861
 H586 H 0.06919 0.65593 0.53333
 H587 H 0.09238 0.67958 0.53290
 H588 H 0.09199 0.71507 0.56771
 C589 C 0.56254 1.05216 0.67584
 C590 C 0.57444 1.05232 0.68721
 C591 C 0.57446 1.06356 0.69883
 C592 C 0.56257 1.07486 0.69917
 C593 C 0.55074 1.07457 0.68809
 C594 C 0.55073 1.06311 0.67631
 C595 C 0.56025 1.04327 0.66262
 N596 N 0.54724 1.04847 0.65486
 C597 C 0.54134 1.06062 0.66338
 C598 C 0.54135 1.08730 0.69079
 N599 N 0.54723 1.09555 0.70319
 C600 C 0.56026 1.08783 0.70835
 C601 C 0.58779 1.06132 0.70772
 N602 N 0.59585 1.04901 0.70174
 C603 C 0.58774 1.04347 0.68917
 H604 H 0.56769 1.03370 0.65911
 H605 H 0.53145 1.06780 0.66014
 H606 H 0.53147 1.09061 0.68356
 H607 H 0.56768 1.09121 0.71807
 H608 H 0.59156 1.06844 0.71752
 H609 H 0.59125 1.03373 0.68191
 C610 C 0.44784 0.32723 0.93601
 C611 C 0.44766 0.31567 0.92436
 C612 C 0.43672 0.30380 0.92505
 C613 C 0.42575 0.30336 0.93736
 C614 C 0.42595 0.31476 0.94883
 C615 C 0.43715 0.32672 0.94819
 C616 C 0.45657 0.34056 0.93787
 N617 N 0.45155 0.34825 0.95099
 C618 C 0.43962 0.33967 0.95734
 C619 C 0.41341 0.31204 0.95866
 N620 N 0.40556 0.29928 0.95343
 C621 C 0.41310 0.29386 0.94043
 C622 C 0.43883 0.29470 0.91190
 N623 N 0.45079 0.30076 0.90322
 C624 C 0.45623 0.31361 0.91080
 H625 H 0.46597 0.34414 0.93013
 H626 H 0.43261 0.34281 0.96746
 H627 H 0.41009 0.31904 0.96870
 H628 H 0.40926 0.28416 0.93329
 H629 H 0.43185 0.28467 0.90866
 H630 H 0.46571 0.32098 0.90674
 C631 C 0.94849 0.43650 0.32320
 C632 C 0.94844 0.42491 0.31157
 C633 C 0.93661 0.42457 0.30045
 C634 C 0.92471 0.43582 0.30075
 C635 C 0.92476 0.44724 0.31220
 C636 C 0.93670 0.44750 0.32356
 C637 C 0.95794 0.43914 0.33604
 N638 N 0.95214 0.45144 0.34440
 C639 C 0.93910 0.45657 0.33665
 C640 C 0.91142 0.45603 0.31012
 N641 N 0.90325 0.45020 0.29772
 C642 C 0.91133 0.43781 0.29193
 C643 C 0.93888 0.41155 0.29135
 N644 N 0.95180 0.40391 0.29666
 C645 C 0.95775 0.41206 0.30901
 H646 H 0.96784 0.43198 0.33932
 H647 H 0.93172 0.46622 0.34007
 H648 H 0.90768 0.46563 0.31746
 H649 H 0.90771 0.43068 0.28209
 H650 H 0.93149 0.40781 0.28171
 H651 H 0.96772 0.40855 0.31607
 C652 C 0.30280 0.93641 0.42428
 C653 C 0.30275 0.92495 0.43604
 C654 C 0.31450 0.92474 0.44726
 C655 C 0.32639 0.93603 0.44695
 C656 C 0.32635 0.94735 0.43548
 C657 C 0.31456 0.94745 0.42398
 C658 C 0.29350 0.93891 0.41130
 N659 N 0.29940 0.95114 0.40290
 C660 C 0.31232 0.95639 0.41078
 C661 C 0.33952 0.95633 0.43767
 N662 N 0.34777 0.95072 0.45021
 C663 C 0.33967 0.93821 0.45587
 C664 C 0.31206 0.91190 0.45657
 N665 N 0.29910 0.90426 0.45130
 C666 C 0.29332 0.91221 0.43875
 H667 H 0.28365 0.93170 0.40795
 H668 H 0.31971 0.96604 0.40738
 H669 H 0.34303 0.96582 0.43011
 H670 H 0.34292 0.93115 0.46587
 H671 H 0.31930 0.90831 0.46637
 H672 H 0.28335 0.90868 0.43172
 O673 O 0.27079 0.45808 0.74975
 O674 O 0.26970 0.46396 0.72225
 O675 O 0.29276 0.49856 0.76898
 O676 O 0.28839 0.52418 0.76938
 O677 O 0.25146 0.47942 0.79079
 O678 O 0.22406 0.48074 0.78485
 O679 O 0.25002 0.54039 0.72900
 O680 O 0.27732 0.53578 0.73174
 O681 O 0.23090 0.50131 0.70786
 O682 O 0.23203 0.47302 0.71312
 O683 O 0.21003 0.51982 0.74771
 O684 O 0.21544 0.51831 0.77626
 O685 O 0.23103 0.54030 0.74778
 O686 O 0.23254 0.53453 0.77656
 O687 O 0.20991 0.50118 0.72879
 O688 O 0.21555 0.47271 0.73006
 O689 O 0.24984 0.51992 0.70802
 O690 O 0.27815 0.51782 0.71325
 O691 O 0.25164 0.45786 0.76841
 O692 O 0.22398 0.46381 0.76704
 O693 O 0.27060 0.49785 0.79098
 O694 O 0.26804 0.52579 0.78523
 O695 O 0.29278 0.47992 0.75001
 O696 O 0.28701 0.48137 0.72230
 Zr697 Zr 0.27000 0.48074 0.74042
 O698 O 0.25621 0.49452 0.72536
 Zr699 Zr 0.26989 0.50777 0.76834
 O700 O 0.25633 0.52291 0.75436
 Zr701 Zr 0.24220 0.48050 0.76787
 O702 O 0.22725 0.49448 0.75413
 Zr703 Zr 0.26006 0.51812 0.73044
 O704 O 0.27528 0.50437 0.74436
 Zr705 Zr 0.23229 0.49093 0.73021
 O706 O 0.24607 0.47557 0.74392
 Zr707 Zr 0.23240 0.51808 0.75803
 O708 O 0.24597 0.50407 0.77335
 O709 O 0.26601 0.48428 0.76424
 O710 O 0.23615 0.51453 0.73410
 C711 C 0.26272 0.45129 0.76055
 C712 C 0.29949 0.48772 0.76103
 C713 C 0.26253 0.48704 0.79761
 C714 C 0.23871 0.54686 0.73657
 C715 C 0.23853 0.51251 0.70138
 C716 C 0.20343 0.51239 0.73640
 H717 H 0.25874 0.49198 0.71431
 H718 H 0.21620 0.49200 0.75665
 H719 H 0.27270 0.47756 0.77089
 H720 H 0.25898 0.53384 0.75683
 H721 H 0.28662 0.53111 0.73688
 H722 H 0.28514 0.53332 0.76313
 H723 H 0.20850 0.47421 0.73919
 H724 H 0.22469 0.45873 0.75661
 H725 H 0.27663 0.50861 0.70645
 H726 H 0.29220 0.49165 0.72300
 H727 H 0.20872 0.50901 0.77497
 H728 H 0.22438 0.49113 0.78987
 H729 H 0.25914 0.45914 0.72248
 H730 H 0.24150 0.47421 0.70648
 H731 H 0.25816 0.52402 0.79111
 H732 H 0.24167 0.54148 0.77498
 O733 O 0.24987 0.04153 0.22974
 O734 O 0.27730 0.03563 0.23088
 O735 O 0.23065 0.00113 0.20761
 O736 O 0.23011 -0.02447 0.21191
 O737 O 0.20890 0.02038 0.24886
 O738 O 0.21463 0.01874 0.27635
 O739 O 0.27034 -0.04094 0.25020
 O740 O 0.26784 -0.03612 0.22297
 O741 O 0.29154 -0.00188 0.26971
 O742 O 0.28643 0.02634 0.26870
 O743 O 0.25164 -0.02042 0.29042
 O744 O 0.22325 -0.01893 0.28499
 O745 O 0.25174 -0.04078 0.26938
 O746 O 0.22291 -0.03500 0.26767
 O747 O 0.27040 -0.00163 0.29075
 O748 O 0.26936 0.02681 0.28498
 O749 O 0.29141 -0.02040 0.25066
 O750 O 0.28625 -0.01818 0.22228
 O751 O 0.23126 0.04173 0.24894
 O752 O 0.23251 0.03564 0.27664
 O753 O 0.20860 0.00178 0.22986
 O754 O 0.21437 -0.02618 0.23226
 O755 O 0.24966 0.01972 0.20766
 O756 O 0.27731 0.01825 0.21353
 Zr757 Zr 0.25916 0.01885 0.23050
 O758 O 0.27414 0.00502 0.24432
 Zr759 Zr 0.23122 -0.00813 0.23049
 O760 O 0.24515 -0.02334 0.24403
 Zr761 Zr 0.23170 0.01906 0.25828
 O762 O 0.24534 0.00500 0.27324
 Zr763 Zr 0.26905 -0.01857 0.24036
 O764 O 0.25518 -0.00475 0.22515
 Zr765 Zr 0.26924 0.00854 0.26827
 O766 O 0.25562 0.02397 0.25448
 Zr767 Zr 0.24144 -0.01858 0.26800
 O768 O 0.22618 -0.00450 0.25445
 O769 O 0.23536 0.01534 0.23443
 O770 O 0.26535 -0.01506 0.26433
 C771 C 0.23910 0.04832 0.23784
 C772 C 0.23866 0.01194 0.20089
 C773 C 0.20205 0.01272 0.23784
 C774 C 0.26283 -0.04738 0.26158
 C775 C 0.29803 -0.01301 0.26201
 C776 C 0.26279 -0.01288 0.29716
 H777 H 0.28517 0.00756 0.24182
 H778 H 0.24278 0.00746 0.28430
 H779 H 0.22875 0.02209 0.22773
 H780 H 0.24267 -0.03425 0.24132
 H781 H 0.26267 -0.03143 0.21369
 H782 H 0.23647 -0.03357 0.21506
 H783 H 0.26021 0.02536 0.29201
 H784 H 0.24287 0.04081 0.27589
 H785 H 0.29309 -0.00903 0.22391
 H786 H 0.27660 0.00798 0.20830
 H787 H 0.22435 -0.00951 0.29157
 H788 H 0.20956 0.00838 0.27590
 H789 H 0.27707 0.04041 0.24147
 H790 H 0.29292 0.02531 0.25911
 H791 H 0.20847 -0.02444 0.24215
 H792 H 0.22466 -0.04208 0.25866
 O793 O 0.54162 0.72985 0.24922
 O794 O 0.53582 0.73122 0.27672
 O795 O 0.50039 0.70771 0.23062
 O796 O 0.47450 0.71221 0.23064
 O797 O 0.51975 0.74807 0.20800
 O798 O 0.51854 0.77539 0.21351
 O799 O 0.45849 0.75096 0.26990
 O800 O 0.46359 0.72354 0.26768
 O801 O 0.49846 0.77004 0.29076
 O802 O 0.52685 0.76849 0.28541
 O803 O 0.47958 0.79013 0.25080
 O804 O 0.48118 0.78428 0.22212
 O805 O 0.45878 0.76961 0.25099
 O806 O 0.46439 0.76768 0.22233
 O807 O 0.49873 0.79052 0.26938
 O808 O 0.52739 0.78452 0.26810
 O809 O 0.47910 0.75187 0.29083
 O810 O 0.48175 0.72559 0.28808
 O811 O 0.54167 0.74820 0.22998
 O812 O 0.53595 0.77557 0.23107
 O813 O 0.50082 0.72942 0.20824
 O814 O 0.47275 0.73174 0.21447
 O815 O 0.51961 0.70802 0.24915
 O816 O 0.51884 0.71444 0.27741
 Zr817 Zr 0.51876 0.73064 0.25867
 O818 O 0.50490 0.74461 0.27355
 Zr819 Zr 0.49122 0.73040 0.23108
 O820 O 0.47610 0.74430 0.24482
 Zr821 Zr 0.51892 0.75768 0.23074
 O822 O 0.50506 0.77284 0.24437
 Zr823 Zr 0.48102 0.74105 0.26876
 O824 O 0.49479 0.72546 0.25516
 Zr825 Zr 0.50877 0.76819 0.26834
 O826 O 0.52408 0.75425 0.25470
 Zr827 Zr 0.48118 0.76787 0.24069
 O828 O 0.49505 0.75396 0.22554
 O829 O 0.51500 0.73419 0.23482
 O830 O 0.48487 0.76460 0.26464
 C831 C 0.54839 0.73750 0.23812
 C832 C 0.51149 0.70117 0.23845
 C833 C 0.51178 0.73718 0.20138
 C834 C 0.45207 0.76216 0.26224
 C835 C 0.48690 0.76294 0.29732
 C836 C 0.48731 0.79683 0.26186
 H837 H 0.50727 0.74211 0.28466
 H838 H 0.50766 0.78371 0.24166
 H839 H 0.52169 0.72744 0.22818
 H840 H 0.46505 0.74170 0.24244
 H841 H 0.46891 0.71386 0.26430
 H842 H 0.46582 0.71528 0.23771
 H843 H 0.52593 0.79135 0.25886
 H844 H 0.54116 0.77502 0.24147
 H845 H 0.48781 0.71642 0.28460
 H846 H 0.51021 0.70697 0.27550
 H847 H 0.49035 0.79120 0.22357
 H848 H 0.50805 0.77494 0.20852
 H849 H 0.54078 0.74163 0.27623
 H850 H 0.52564 0.75912 0.29205
 H851 H 0.47430 0.74149 0.20848
 H852 H 0.45744 0.75860 0.22396
 O853 O 0.04221 0.72921 0.74984
 O854 O 0.03613 0.73033 0.77739
 O855 O 0.00096 0.70790 0.73051
 O856 O -0.02497 0.71269 0.73061
 O857 O 0.02099 0.74823 0.70876
 O858 O 0.01993 0.77560 0.71468
 O859 O -0.04085 0.75110 0.77008
 O860 O -0.03608 0.72360 0.76742
 O861 O -0.00063 0.76898 0.79186
 O862 O 0.02775 0.76741 0.78641
 O863 O -0.01864 0.79050 0.75151
 O864 O -0.01725 0.78467 0.72291
 O865 O -0.04006 0.77019 0.75163
 O866 O -0.03440 0.76856 0.72302
 O867 O -0.00045 0.78990 0.77103
 O868 O 0.02827 0.78396 0.76958
 O869 O -0.02053 0.75139 0.79121
 O870 O -0.01822 0.72513 0.78810
 O871 O 0.04266 0.74790 0.73094
 O872 O 0.03729 0.77526 0.73233
 O873 O 0.00176 0.72987 0.70858
 O874 O -0.02628 0.73247 0.71451
 O875 O 0.01997 0.70772 0.74926
 O876 O 0.01903 0.71362 0.77756
 Zr877 Zr 0.01928 0.73018 0.75914
 O878 O 0.00542 0.74404 0.77413
 Zr879 Zr -0.00803 0.73068 0.73132
 O880 O -0.02309 0.74461 0.74509
 Zr881 Zr 0.02001 0.75762 0.73163
 O882 O 0.00627 0.77273 0.74543
 Zr883 Zr -0.01846 0.74090 0.76901
 O884 O -0.00473 0.72533 0.75534
 Zr885 Zr 0.00964 0.76764 0.76937
 O886 O 0.02491 0.75376 0.75559
 Zr887 Zr -0.01764 0.76818 0.74140
 O888 O -0.00385 0.75428 0.72616
 O889 O 0.01576 0.73413 0.73533
 O890 O -0.01427 0.76446 0.76534
 C891 C 0.04916 0.73696 0.73891
 C892 C 0.01194 0.70114 0.73832
 C893 C 0.01293 0.73752 0.70194
 C894 C -0.04701 0.76259 0.76265
 C895 C -0.01247 0.76204 0.79808
 C896 C -0.01128 0.79672 0.76311
 H897 H 0.00764 0.74129 0.78520
 H898 H 0.00904 0.78361 0.74292
 H899 H 0.02243 0.72742 0.72864
 H900 H -0.03416 0.74221 0.74257
 H901 H -0.03082 0.71390 0.76400
 H902 H -0.03382 0.71594 0.73739
 H903 H 0.02683 0.79104 0.76053
 H904 H 0.04214 0.77473 0.74289
 H905 H -0.01208 0.71603 0.78462
 H906 H 0.01024 0.70636 0.77550
 H907 H -0.00783 0.79126 0.72432
 H908 H 0.00963 0.77508 0.70931
 H909 H 0.04144 0.74057 0.77690
 H910 H 0.02642 0.75793 0.79285
 H911 H -0.02465 0.74238 0.70881
 H912 H -0.04141 0.75949 0.72441
 O913 O -0.04159 -0.00178 -0.02051
 O914 O -0.03581 0.02547 -0.02007
 O915 O -0.00018 -0.02089 -0.04184
 O916 O 0.02571 -0.02056 -0.03722
 O917 O -0.01979 -0.04186 -0.00058
 O918 O -0.01870 -0.03552 0.02691
 O919 O 0.04118 0.01984 0.00074
 O920 O 0.03680 0.01673 -0.02662
 O921 O 0.00106 0.04081 0.01896
 O922 O -0.02750 0.03504 0.01750
 O923 O 0.01966 0.00171 0.04104
 O924 O 0.01882 -0.02652 0.03583
 O925 O 0.04091 0.00179 0.02024
 O926 O 0.03556 -0.02672 0.01912
 O927 O 0.00111 0.02067 0.04028
 O928 O -0.02757 0.01877 0.03454
 O929 O 0.02048 0.04035 0.00064
 O930 O 0.01856 0.03490 -0.02779
 O931 O -0.04165 -0.02022 -0.00133
 O932 O -0.03617 -0.01814 0.02639
 O933 O -0.00069 -0.04218 -0.01928
 O934 O 0.02729 -0.03606 -0.01664
 O935 O -0.01906 -0.00218 -0.04251
 O936 O -0.01814 0.02522 -0.03717
 Zr937 Zr -0.01873 0.00764 -0.01981
 O938 O -0.00514 0.02295 -0.00609
 Zr939 Zr 0.00891 -0.01962 -0.01889
 O940 O 0.02384 -0.00542 -0.00529
 Zr941 Zr -0.01900 -0.01907 0.00844
 O942 O -0.00531 -0.00501 0.02338
 Zr943 Zr 0.01881 0.01811 -0.00950
 O944 O 0.00526 0.00395 -0.02469
 Zr945 Zr -0.00908 0.01851 0.01787
 O946 O -0.02422 0.00449 0.00414
 Zr947 Zr 0.01863 -0.00869 0.01867
 O948 O 0.00491 -0.02425 0.00509
 O949 O -0.01491 -0.01580 -0.01541
 O950 O 0.01486 0.01485 0.01445
 C951 C -0.04832 -0.01256 -0.01245
 C952 C -0.01103 -0.01318 -0.04890
 C953 C -0.01174 -0.04871 -0.01135
 C954 C 0.04759 0.01271 0.01236
 C955 C 0.01264 0.04709 0.01162
 C956 C 0.01215 0.01315 0.04720
 H957 H -0.00778 0.03379 -0.00883
 H958 H -0.00797 -0.00734 0.03445
 H959 H -0.02153 -0.02257 -0.02209
 H960 H 0.03493 -0.00778 -0.00775
 H961 H 0.03218 0.01155 -0.03594
 H962 H 0.03489 -0.01434 -0.03385
 H963 H -0.02603 0.00988 0.04175
 H964 H -0.04130 -0.00784 0.02551
 H965 H 0.00933 0.04171 -0.02630
 H966 H -0.00754 0.02482 -0.04197
 H967 H 0.00921 -0.02540 0.04228
 H968 H -0.00828 -0.04060 0.02655
 H969 H -0.04084 0.02540 -0.00957
 H970 H -0.02608 0.04165 0.00809
 H971 H 0.02561 -0.04158 -0.00656
 H972 H 0.04264 -0.02526 0.01001
 O973 O -0.00084 0.47892 0.45745
 O974 O 0.02661 0.48015 0.46338
 O975 O -0.02050 0.45842 0.49857
 O976 O -0.02090 0.46319 0.52439
 O977 O -0.04159 0.49869 0.47798
 O978 O -0.03575 0.52589 0.47909
 O979 O 0.01972 0.50150 0.54019
 O980 O 0.01688 0.47441 0.53622
 O981 O 0.04111 0.51929 0.50023
 O982 O 0.03601 0.51794 0.47192
 O983 O 0.00105 0.54066 0.51841
 O984 O -0.02723 0.53539 0.51713
 O985 O 0.00093 0.52023 0.53972
 O986 O -0.02788 0.51861 0.53363
 O987 O 0.02037 0.54018 0.50000
 O988 O 0.01885 0.53401 0.47104
 O989 O 0.04064 0.50129 0.51976
 O990 O 0.03531 0.47301 0.51797
 O991 O -0.01901 0.49828 0.45654
 O992 O -0.01774 0.52576 0.46216
 O993 O -0.04227 0.48068 0.49755
 O994 O -0.03643 0.48347 0.52574
 O995 O -0.00111 0.45773 0.48016
 O996 O 0.02654 0.46352 0.48146
 Zr997 Zr 0.00845 0.48032 0.48035
 O998 O 0.02349 0.49428 0.49402
 Zr999 Zr -0.01962 0.48121 0.50750
 O1000 O -0.00563 0.49487 0.52260
 Zr1001 Zr -0.01877 0.50797 0.47929
 O1002 O -0.00511 0.52304 0.49323
 Zr1003 Zr 0.01828 0.49103 0.51794
 O1004 O 0.00433 0.47570 0.50434
 Zr1005 Zr 0.01876 0.51789 0.48986
 O1006 O 0.00515 0.50392 0.47456
 Zr1007 Zr -0.00918 0.51846 0.51719
 O1008 O -0.02446 0.50482 0.50318
 O1009 O -0.01534 0.48447 0.48369
 O1010 O 0.01471 0.51463 0.51379
 C1011 C -0.01134 0.48698 0.45027
 C1012 C -0.01234 0.45139 0.48800
 C1013 C -0.04865 0.48823 0.48617
 C1014 C 0.01214 0.51280 0.54651
 C1015 C 0.04741 0.51215 0.51190
 C1016 C 0.01257 0.54694 0.51100
 H1017 H 0.03452 0.49169 0.49155
 H1018 H -0.00756 0.53393 0.49048
 H1019 H -0.02198 0.47771 0.47700
 H1020 H -0.00816 0.49249 0.53369
 H1021 H 0.01172 0.46508 0.53173
 H1022 H -0.01448 0.46644 0.53351
 H1023 H 0.01018 0.54147 0.47278
 H1024 H -0.00729 0.52497 0.45711
 H1025 H 0.04249 0.47464 0.50897
 H1026 H 0.02584 0.45869 0.49201
 H1027 H -0.02626 0.54143 0.50728
 H1028 H -0.04095 0.52567 0.48951
 H1029 H 0.02637 0.49045 0.45818
 H1030 H 0.04211 0.50820 0.47285
 H1031 H -0.04229 0.49322 0.52376
 H1032 H -0.02618 0.50994 0.54108
 O1033 O 0.54213 0.02070 0.50060
 O1034 O 0.53656 0.01924 0.47311
 O1035 O 0.50064 0.04322 0.51841
 O1036 O 0.47489 0.03875 0.51886
 O1037 O 0.51947 0.00268 0.54196
 O1038 O 0.51855 -0.02452 0.53650
 O1039 O 0.45948 -0.00047 0.47882
 O1040 O 0.46389 0.02677 0.48123
 O1041 O 0.49923 -0.01960 0.45903
 O1042 O 0.52779 -0.01826 0.46492
 O1043 O 0.47958 -0.03919 0.49883
 O1044 O 0.48086 -0.03329 0.52746
 O1045 O 0.45893 -0.01831 0.49853
 O1046 O 0.46443 -0.01644 0.52716
 O1047 O 0.49906 -0.03991 0.48057
 O1048 O 0.52762 -0.03429 0.48208
 O1049 O 0.48037 -0.00095 0.45846
 O1050 O 0.48244 0.02723 0.46300
 O1051 O 0.54187 0.00259 0.52008
 O1052 O 0.53601 -0.02487 0.51907
 O1053 O 0.50117 0.02192 0.54119
 O1054 O 0.47304 0.01905 0.53505
 O1055 O 0.52020 0.04264 0.50019
 O1056 O 0.51904 0.03637 0.47259
 Zr1057 Zr 0.51936 0.01990 0.49104
 O1058 O 0.50573 0.00586 0.47606
 Zr1059 Zr 0.49154 0.02050 0.51843
 O1060 O 0.47651 0.00669 0.50452
 Zr1061 Zr 0.51907 -0.00690 0.51918
 O1062 O 0.50522 -0.02206 0.50553
 Zr1063 Zr 0.48181 0.00975 0.48061
 O1064 O 0.49543 0.02519 0.49439
 Zr1065 Zr 0.50929 -0.01768 0.48157
 O1066 O 0.52451 -0.00369 0.49525
 Zr1067 Zr 0.48132 -0.01690 0.50888
 O1068 O 0.49516 -0.00305 0.52411
 O1069 O 0.51534 0.01659 0.51490
 O1070 O 0.48538 -0.01381 0.48494
 C1071 C 0.54874 0.01315 0.51185
 C1072 C 0.51190 0.04964 0.51067
 C1073 C 0.51175 0.01390 0.54831
 C1074 C 0.45268 -0.01125 0.48678
 C1075 C 0.48799 -0.01226 0.45221
 C1076 C 0.48744 -0.04606 0.48795
 H1077 H 0.50851 0.00809 0.46500
 H1078 H 0.50767 -0.03294 0.50837
 H1079 H 0.52200 0.02338 0.52151
 H1080 H 0.46543 0.00937 0.50672
 H1081 H 0.46851 0.03616 0.48614
 H1082 H 0.46585 0.03545 0.51236
 H1083 H 0.52615 -0.04082 0.49155
 H1084 H 0.54137 -0.02434 0.50875
 H1085 H 0.49187 0.02558 0.45643
 H1086 H 0.50864 0.04150 0.47301
 H1087 H 0.49001 -0.04026 0.52618
 H1088 H 0.50789 -0.02430 0.54115
 H1089 H 0.54137 0.00878 0.47356
 H1090 H 0.52652 -0.00924 0.45782
 H1091 H 0.47482 0.00951 0.54131
 H1092 H 0.45767 -0.00723 0.52551
 O1093 O 0.54110 0.52043 0.00085
 O1094 O 0.53527 0.51905 -0.02670
 O1095 O 0.49991 0.54209 0.01963
 O1096 O 0.47401 0.53752 0.01969
 O1097 O 0.51939 0.50174 0.04203
 O1098 O 0.51835 0.47446 0.03638
 O1099 O 0.45817 0.49892 -0.01991
 O1100 O 0.46273 0.52595 -0.01774
 O1101 O 0.49841 0.48025 -0.04095
 O1102 O 0.52689 0.48169 -0.03522
 O1103 O 0.47945 0.45964 -0.00093
 O1104 O 0.48083 0.46541 0.02769
 O1105 O 0.45856 0.48005 -0.00121
 O1106 O 0.46402 0.48196 0.02754
 O1107 O 0.49850 0.45950 -0.01965
 O1108 O 0.52700 0.46538 -0.01837
 O1109 O 0.47889 0.49827 -0.04084
 O1110 O 0.48091 0.52653 -0.03618
 O1111 O 0.54129 0.50193 0.01996
 O1112 O 0.53572 0.47446 0.01873
 O1113 O 0.50039 0.52029 0.04193
 O1114 O 0.47241 0.51765 0.03592
 O1115 O 0.51881 0.54204 0.00071
 O1116 O 0.51762 0.53603 -0.02685
 Zr1117 Zr 0.51826 0.51937 -0.00858
 O1118 O 0.50457 0.50539 -0.02357
 Zr1119 Zr 0.49075 0.51935 0.01915
 O1120 O 0.47572 0.50550 0.00527
 Zr1121 Zr 0.51859 0.49225 0.01923
 O1122 O 0.50480 0.47709 0.00553
 Zr1123 Zr 0.48065 0.50894 -0.01867
 O1124 O 0.49430 0.52436 -0.00487
 Zr1125 Zr 0.50851 0.48184 -0.01842
 O1126 O 0.52374 0.49580 -0.00473
 Zr1127 Zr 0.48087 0.48191 0.00921
 O1128 O 0.49470 0.49576 0.02447
 O1129 O 0.51454 0.51573 0.01528
 O1130 O 0.48458 0.48536 -0.01474
 C1131 C 0.54792 0.51277 0.01191
 C1132 C 0.51083 0.54876 0.01162
 C1133 C 0.51138 0.51255 0.04873
 C1134 C 0.45182 0.48759 -0.01236
 C1135 C 0.48683 0.48736 -0.04744
 C1136 C 0.48718 0.45305 -0.01208
 H1137 H 0.50719 0.50780 -0.03462
 H1138 H 0.50742 0.46621 0.00819
 H1139 H 0.52119 0.52251 0.02192
 H1140 H 0.46464 0.50802 0.00766
 H1141 H 0.46737 0.53530 -0.01276
 H1142 H 0.46483 0.53407 0.01348
 H1143 H 0.52572 0.45873 -0.00896
 H1144 H 0.54092 0.47511 0.00833
 H1145 H 0.49012 0.52484 -0.04307
 H1146 H 0.50706 0.54083 -0.02648
 H1147 H 0.49015 0.45868 0.02636
 H1148 H 0.50784 0.47478 0.04136
 H1149 H 0.54042 0.50874 -0.02620
 H1150 H 0.52559 0.49091 -0.04203
 H1151 H 0.47403 0.50781 0.04173
 H1152 H 0.45697 0.49095 0.02587
 O1153 O 0.75052 0.27065 0.45851
 O1154 O 0.72307 0.26950 0.46450
 O1155 O 0.76935 0.29217 0.49998
 O1156 O 0.76964 0.28743 0.52581
 O1157 O 0.79169 0.25184 0.48006
 O1158 O 0.78598 0.22457 0.48098
 O1159 O 0.72956 0.24858 0.54135
 O1160 O 0.73221 0.27580 0.53721
 O1161 O 0.70875 0.23055 0.50111
 O1162 O 0.71454 0.23193 0.47264
 O1163 O 0.74897 0.20952 0.51973
 O1164 O 0.77732 0.21538 0.51868
 O1165 O 0.74863 0.23012 0.54109
 O1166 O 0.77728 0.23189 0.53539
 O1167 O 0.72970 0.20986 0.50129
 O1168 O 0.73139 0.21557 0.47253
 O1169 O 0.70877 0.24867 0.52055
 O1170 O 0.71371 0.27669 0.51907
 O1171 O 0.76956 0.25212 0.45817
 O1172 O 0.76833 0.22466 0.46366
 O1173 O 0.79164 0.27029 0.49921
 O1174 O 0.78561 0.26748 0.52728
 O1175 O 0.75074 0.29218 0.48082
 O1176 O 0.72312 0.28640 0.48231
 Zr1177 Zr 0.74123 0.26961 0.48144
 O1178 O 0.72621 0.25560 0.49508
 Zr1179 Zr 0.76890 0.26935 0.50893
 O1180 O 0.75498 0.25549 0.52393
 Zr1181 Zr 0.76889 0.24239 0.48088
 O1182 O 0.75518 0.22722 0.49467
 Zr1183 Zr 0.73109 0.25901 0.51905
 O1184 O 0.74493 0.27447 0.50546
 Zr1185 Zr 0.73127 0.23205 0.49105
 O1186 O 0.74497 0.24605 0.47583
 Zr1187 Zr 0.75890 0.23191 0.51864
 O1188 O 0.77416 0.24578 0.50482
 O1189 O 0.76503 0.26587 0.48509
 O1190 O 0.73498 0.23543 0.51502
 C1191 C 0.76150 0.26297 0.45160
 C1192 C 0.76154 0.29887 0.48894
 C1193 C 0.79841 0.26258 0.48815
 C1194 C 0.73729 0.23744 0.54778
 C1195 C 0.70217 0.23777 0.51260
 C1196 C 0.73753 0.20317 0.51227
 H1197 H 0.71519 0.25807 0.49247
 H1198 H 0.75780 0.21634 0.49198
 H1199 H 0.77168 0.27264 0.47843
 H1200 H 0.75736 0.25795 0.53504
 H1201 H 0.73714 0.28520 0.53262
 H1202 H 0.76332 0.28402 0.53495
 H1203 H 0.74050 0.20861 0.47409
 H1204 H 0.75786 0.22522 0.45864
 H1205 H 0.70724 0.27552 0.50949
 H1206 H 0.72376 0.29135 0.49281
 H1207 H 0.77628 0.20898 0.50907
 H1208 H 0.79106 0.22491 0.49144
 H1209 H 0.72345 0.25919 0.45931
 H1210 H 0.70781 0.24122 0.47391
 H1211 H 0.79151 0.25772 0.52549
 H1212 H 0.77567 0.24086 0.54250
 O1213 O 0.75137 0.77227 -0.03992
 O1214 O 0.72383 0.77088 -0.03422
 O1215 O 0.77058 0.79266 0.00135
 O1216 O 0.77060 0.78782 0.02720
 O1217 O 0.79203 0.75236 -0.01901
 O1218 O 0.78613 0.72523 -0.01832
 O1219 O 0.73014 0.74931 0.04259
 O1220 O 0.73282 0.77639 0.03871
 O1221 O 0.70911 0.73158 0.00226
 O1222 O 0.71444 0.73302 -0.02592
 O1223 O 0.74888 0.71034 0.02087
 O1224 O 0.77734 0.71563 0.01954
 O1225 O 0.74909 0.73073 0.04218
 O1226 O 0.77778 0.73222 0.03623
 O1227 O 0.73006 0.71068 0.00198
 O1228 O 0.73170 0.71713 -0.02686
 O1229 O 0.70930 0.74951 0.02189
 O1230 O 0.71457 0.77776 0.02037
 O1231 O 0.76970 0.75305 -0.04076
 O1232 O 0.76831 0.72549 -0.03538
 O1233 O 0.79237 0.77054 0.00040
 O1234 O 0.78633 0.76759 0.02854
 O1235 O 0.75134 0.79333 -0.01718
 O1236 O 0.72370 0.78747 -0.01608
 Zr1237 Zr 0.74184 0.77072 -0.01712
 O1238 O 0.72673 0.75666 -0.00363
 Zr1239 Zr 0.76964 0.76985 0.01022
 O1240 O 0.75557 0.75606 0.02515
 Zr1241 Zr 0.76915 0.74316 -0.01810
 O1242 O 0.75541 0.72800 -0.00434
 Zr1243 Zr 0.73168 0.75982 0.02035
 O1244 O 0.74570 0.77527 0.00692
 Zr1245 Zr 0.73157 0.73308 -0.00788
 O1246 O 0.74528 0.74716 -0.02301
 Zr1247 Zr 0.75923 0.73250 0.01966
 O1248 O 0.77459 0.74626 0.00585
 O1249 O 0.76561 0.76664 -0.01362
 O1250 O 0.73535 0.73625 0.01611
 C1251 C 0.76204 0.76435 -0.04703
 C1252 C 0.76251 0.79968 -0.00928
 C1253 C 0.79895 0.76291 -0.01084
 C1254 C 0.73782 0.73810 0.04895
 C1255 C 0.70262 0.73870 0.01387
 C1256 C 0.73761 0.70398 0.01317
 H1257 H 0.71572 0.75923 -0.00618
 H1258 H 0.75793 0.71712 -0.00712
 H1259 H 0.77231 0.77342 -0.02021
 H1260 H 0.75800 0.75842 0.03626
 H1261 H 0.73803 0.78573 0.03430
 H1262 H 0.76423 0.78444 0.03631
 H1263 H 0.74046 0.70976 -0.02519
 H1264 H 0.75796 0.72640 -0.04059
 H1265 H 0.70757 0.77624 0.01122
 H1266 H 0.72429 0.79227 -0.00551
 H1267 H 0.77616 0.70931 0.00989
 H1268 H 0.79106 0.72523 -0.00778
 H1269 H 0.72423 0.76064 -0.03954
 H1270 H 0.70843 0.74282 -0.02510
 H1271 H 0.79223 0.75787 0.02655
 H1272 H 0.77621 0.74106 0.04352
 O1273 O 0.95708 0.25102 0.26977
 O1274 O 0.96259 0.22377 0.26892
 O1275 O 0.99845 0.26905 0.29231
 O1276 O 1.02426 0.26925 0.28794
 O1277 O 0.97980 0.29133 0.25081
 O1278 O 0.98107 0.28540 0.22336
 O1279 O 1.03994 0.22892 0.24944
 O1280 O 1.03519 0.23172 0.27683
 O1281 O 1.00018 0.20888 0.23009
 O1282 O 0.97161 0.21474 0.23125
 O1283 O 1.01989 0.24781 0.20951
 O1284 O 1.01875 0.27617 0.21492
 O1285 O 1.04033 0.24759 0.23054
 O1286 O 1.03512 0.27610 0.23207
 O1287 O 1.00047 0.22969 0.20911
 O1288 O 0.97186 0.23137 0.21465
 O1289 O 1.01878 0.20860 0.24922
 O1290 O 1.01672 0.21376 0.27749
 O1291 O 0.95751 0.26982 0.25097
 O1292 O 0.96352 0.26819 0.22328
 O1293 O 0.99820 0.29107 0.27017
 O1294 O 1.02630 0.28478 0.26765
 O1295 O 0.97891 0.25102 0.29207
 O1296 O 0.98001 0.22359 0.28635
 Zr1297 Zr 0.97983 0.24146 0.26928
 O1298 O 0.99352 0.22629 0.25549
 Zr1299 Zr 1.00773 0.26847 0.26939
 O1300 O 1.02280 0.25436 0.25583
 Zr1301 Zr 0.98035 0.26865 0.24154
 O1302 O 0.99424 0.25478 0.22658
 Zr1303 Zr 1.01744 0.23080 0.25946
 O1304 O 1.00375 0.24482 0.27467
 Zr1305 Zr 0.99012 0.23120 0.23154
 O1306 O 0.97483 0.24507 0.24530
 Zr1307 Zr 1.01811 0.25813 0.23186
 O1308 O 1.00424 0.27356 0.24544
 O1309 O 0.98395 0.26495 0.26540
 O1310 O 1.01401 0.23454 0.23551
 C1311 C 0.95056 0.26199 0.26183
 C1312 C 0.98717 0.26155 0.29893
 C1313 C 0.98754 0.29789 0.26197
 C1314 C 1.04668 0.23633 0.23816
 C1315 C 1.01125 0.20221 0.23783
 C1316 C 1.01210 0.23688 0.20279
 H1317 H 0.99070 0.21543 0.25799
 H1318 H 0.99185 0.25734 0.21551
 H1319 H 0.97726 0.27166 0.27209
 H1320 H 1.03387 0.25656 0.25853
 H1321 H 1.03051 0.23684 0.28615
 H1322 H 1.03329 0.26273 0.28480
 H1323 H 0.97340 0.24056 0.20782
 H1324 H 0.95813 0.25801 0.22400
 H1325 H 1.00714 0.20742 0.27608
 H1326 H 0.99036 0.22411 0.29161
 H1327 H 1.00954 0.27491 0.20796
 H1328 H 0.99169 0.29009 0.22369
 H1329 H 0.95784 0.22400 0.25829
 H1330 H 0.97283 0.20793 0.24054
 H1331 H 1.02467 0.29068 0.25779
 H1332 H 1.04200 0.27444 0.24129
 O1333 O 0.70886 1.01962 0.74850
 O1334 O 0.71452 1.01805 0.77600
 O1335 O 0.75012 1.04096 0.72978
 O1336 O 0.77593 1.03631 0.72954
 O1337 O 0.73026 1.00076 0.70738
 O1338 O 0.73126 0.97352 0.71286
 O1339 O 0.79136 0.99734 0.76965
 O1340 O 0.78729 1.02449 0.76719
 O1341 O 0.75142 0.97886 0.79016
 O1342 O 0.72306 0.98028 0.78470
 O1343 O 0.77040 0.95854 0.75019
 O1344 O 0.76902 0.96419 0.72167
 O1345 O 0.79129 0.97903 0.75039
 O1346 O 0.78560 0.98098 0.72160
 O1347 O 0.75122 0.95828 0.76878
 O1348 O 0.72253 0.96442 0.76737
 O1349 O 0.77064 0.99719 0.79030
 O1350 O 0.76886 1.02545 0.78546
 O1351 O 0.70844 1.00091 0.72959
 O1352 O 0.71405 0.97336 0.73063
 O1353 O 0.74937 1.01924 0.70748
 O1354 O 0.77748 1.01635 0.71349
 O1355 O 0.73124 1.04102 0.74871
 O1356 O 0.73243 1.03485 0.77636
 Zr1357 Zr 0.73164 1.01831 0.75797
 O1358 O 0.74519 1.00420 0.77293
 Zr1359 Zr 0.75912 1.01819 0.73022
 O1360 O 0.77411 1.00435 0.74413
 Zr1361 Zr 0.73114 0.99120 0.73014
 O1362 O 0.74496 0.97597 0.74373
 Zr1363 Zr 0.76912 1.00774 0.76807
 O1364 O 0.75560 1.02322 0.75426
 Zr1365 Zr 0.74124 0.98064 0.76769
 O1366 O 0.72605 0.99475 0.75410
 Zr1367 Zr 0.76890 0.98079 0.74007
 O1368 O 0.75505 0.99464 0.72485
 O1369 O 0.73532 1.01466 0.73412
 O1370 O 0.76516 0.98417 0.76402
 C1371 C 0.70194 1.01190 0.73755
 C1372 C 0.73925 1.04769 0.73779
 C1373 C 0.73828 1.01159 0.70071
 C1374 C 0.79784 0.98624 0.76190
 C1375 C 0.76285 0.98610 0.79678
 C1376 C 0.76262 0.95190 0.76127
 H1377 H 0.74257 1.00658 0.78399
 H1378 H 0.74232 0.96511 0.74103
 H1379 H 0.72869 1.02148 0.72751
 H1380 H 0.78520 1.00686 0.74179
 H1381 H 0.78282 1.03387 0.76214
 H1382 H 0.78503 1.03293 0.73589
 H1383 H 0.72408 0.95747 0.75823
 H1384 H 0.70876 0.97408 0.74098
 H1385 H 0.75965 1.02379 0.79235
 H1386 H 0.74289 1.03986 0.77578
 H1387 H 0.75954 0.95764 0.72284
 H1388 H 0.74182 0.97372 0.70798
 H1389 H 0.70946 1.00769 0.77558
 H1390 H 0.72411 0.98973 0.79125
 H1391 H 0.77560 1.00669 0.70743
 H1392 H 0.79279 0.98985 0.72338
 O1393 O 0.70761 0.51975 0.24878
 O1394 O 0.71322 0.51828 0.27628
 O1395 O 0.74897 0.54144 0.23018
 O1396 O 0.77481 0.53680 0.23012
 O1397 O 0.72926 0.50120 0.20776
 O1398 O 0.73051 0.47383 0.21328
 O1399 O 0.79044 0.49807 0.26979
 O1400 O 0.78572 0.52549 0.26722
 O1401 O 0.75034 0.47957 0.29069
 O1402 O 0.72208 0.48092 0.28517
 O1403 O 0.76910 0.45888 0.25039
 O1404 O 0.76795 0.46476 0.22196
 O1405 O 0.79027 0.47955 0.25073
 O1406 O 0.78461 0.48135 0.22205
 O1407 O 0.75044 0.45892 0.26949
 O1408 O 0.72165 0.46481 0.26792
 O1409 O 0.76977 0.49766 0.29065
 O1410 O 0.76734 0.52391 0.28758
 O1411 O 0.70736 0.50100 0.22993
 O1412 O 0.71311 0.47368 0.23085
 O1413 O 0.74834 0.51969 0.20791
 O1414 O 0.77645 0.51712 0.21407
 O1415 O 0.72977 0.54132 0.24877
 O1416 O 0.73037 0.53491 0.27709
 Zr1417 Zr 0.73040 0.51872 0.25832
 O1418 O 0.74416 0.50476 0.27326
 Zr1419 Zr 0.75798 0.51870 0.23071
 O1420 O 0.77301 0.50482 0.24451
 Zr1421 Zr 0.73015 0.49156 0.23051
 O1422 O 0.74394 0.47642 0.24420
 Zr1423 Zr 0.76806 0.50820 0.26844
 O1424 O 0.75440 0.52379 0.25477
 Zr1425 Zr 0.74025 0.48117 0.26816
 O1426 O 0.72500 0.49512 0.25447
 Zr1427 Zr 0.76785 0.48125 0.24047
 O1428 O 0.75404 0.49513 0.22526
 O1429 O 0.73418 0.51505 0.23449
 O1430 O 0.76417 0.48464 0.26443
 C1431 C 0.70075 0.51192 0.23788
 C1432 C 0.73792 0.54808 0.23802
 C1433 C 0.73729 0.51204 0.20110
 C1434 C 0.79692 0.48694 0.26206
 C1435 C 0.76186 0.48673 0.29724
 C1436 C 0.76155 0.45236 0.26169
 H1437 H 0.74177 0.50735 0.28434
 H1438 H 0.74130 0.46554 0.24153
 H1439 H 0.72751 0.52181 0.22785
 H1440 H 0.78408 0.50736 0.24214
 H1441 H 0.78053 0.53518 0.26369
 H1442 H 0.78350 0.53370 0.23714
 H1443 H 0.72332 0.45775 0.25889
 H1444 H 0.70806 0.47409 0.24134
 H1445 H 0.76162 0.53320 0.28388
 H1446 H 0.73898 0.54240 0.27514
 H1447 H 0.75842 0.45827 0.22304
 H1448 H 0.74093 0.47439 0.20813
 H1449 H 0.70816 0.50792 0.27576
 H1450 H 0.72309 0.49047 0.29158
 H1451 H 0.77475 0.50742 0.20804
 H1452 H 0.79163 0.49038 0.22368
 O1453 O 0.54182 0.22910 0.74915
 O1454 O 0.53594 0.23019 0.77667
 O1455 O 0.50059 0.20781 0.72989
 O1456 O 0.47467 0.21249 0.73012
 O1457 O 0.52038 0.24830 0.70821
 O1458 O 0.51942 0.27554 0.71418
 O1459 O 0.45879 0.25074 0.76977
 O1460 O 0.46366 0.22332 0.76717
 O1461 O 0.49896 0.26901 0.79126
 O1462 O 0.52730 0.26738 0.78593
 O1463 O 0.48064 0.29019 0.75130
 O1464 O 0.48204 0.28460 0.72266
 O1465 O 0.45939 0.26978 0.75127
 O1466 O 0.46509 0.26825 0.72262
 O1467 O 0.49920 0.28980 0.77045
 O1468 O 0.52796 0.28375 0.76889
 O1469 O 0.47929 0.25116 0.79088
 O1470 O 0.48168 0.22491 0.78773
 O1471 O 0.54216 0.24784 0.73028
 O1472 O 0.53673 0.27524 0.73186
 O1473 O 0.50120 0.22989 0.70803
 O1474 O 0.47316 0.23231 0.71416
 O1475 O 0.51948 0.20752 0.74877
 O1476 O 0.51883 0.21357 0.77708
 Zr1477 Zr 0.51894 0.23004 0.75857
 O1478 O 0.50514 0.24389 0.77362
 Zr1479 Zr 0.49153 0.23054 0.73083
 O1480 O 0.47650 0.24437 0.74473
 Zr1481 Zr 0.51951 0.25754 0.73111
 O1482 O 0.50574 0.27261 0.74493
 Zr1483 Zr 0.48124 0.24067 0.76864
 O1484 O 0.49493 0.22517 0.75485
 Zr1485 Zr 0.50925 0.26751 0.76883
 O1486 O 0.52450 0.25365 0.75503
 Zr1487 Zr 0.48182 0.26797 0.74102
 O1488 O 0.49564 0.25416 0.72571
 O1489 O 0.51533 0.23403 0.73477
 O1490 O 0.48534 0.26424 0.76494
 C1491 C 0.54872 0.23689 0.73822
 C1492 C 0.51145 0.20099 0.73779
 C1493 C 0.51230 0.23763 0.70136
 C1494 C 0.45252 0.26214 0.76229
 C1495 C 0.48724 0.26199 0.79762
 C1496 C 0.48814 0.29650 0.76275
 H1497 H 0.50741 0.24117 0.78469
 H1498 H 0.50846 0.28350 0.74242
 H1499 H 0.52198 0.22733 0.72804
 H1500 H 0.46543 0.24192 0.74224
 H1501 H 0.46892 0.21365 0.76366
 H1502 H 0.46591 0.21561 0.73708
 H1503 H 0.52641 0.29091 0.75992
 H1504 H 0.54178 0.27453 0.74232
 H1505 H 0.48769 0.21575 0.78415
 H1506 H 0.51008 0.20626 0.77509
 H1507 H 0.49142 0.29125 0.72409
 H1508 H 0.50900 0.27521 0.70903
 H1509 H 0.54108 0.24051 0.77629
 H1510 H 0.52606 0.25785 0.79233
 H1511 H 0.47478 0.24218 0.70840
 H1512 H 0.45805 0.25921 0.72407
 O1513 O 0.29143 0.75282 0.47964
 O1514 O 0.28597 0.72553 0.48060
 O1515 O 0.25000 0.77088 0.45752
 O1516 O 0.22423 0.77122 0.46207
 O1517 O 0.26909 0.79294 0.49896
 O1518 O 0.26774 0.78701 0.52642
 O1519 O 0.20864 0.73073 0.50025
 O1520 O 0.21335 0.73356 0.47292
 O1521 O 0.24844 0.71050 0.51945
 O1522 O 0.27697 0.71624 0.51823
 O1523 O 0.22905 0.74946 0.54043
 O1524 O 0.23000 0.77769 0.53509
 O1525 O 0.20836 0.74919 0.51937
 O1526 O 0.21367 0.77777 0.51792
 O1527 O 0.24825 0.73115 0.54047
 O1528 O 0.27692 0.73289 0.53483
 O1529 O 0.22967 0.71036 0.50048
 O1530 O 0.23178 0.71560 0.47213
 O1531 O 0.29125 0.77124 0.49884
 O1532 O 0.28520 0.76975 0.52650
 O1533 O 0.25055 0.79281 0.47974
 O1534 O 0.22239 0.78662 0.48246
 O1535 O 0.26947 0.75279 0.45758
 O1536 O 0.26843 0.72536 0.46322
 Zr1537 Zr 0.26871 0.74319 0.48034
 O1538 O 0.25504 0.72798 0.49410
 Zr1539 Zr 0.24088 0.77026 0.48051
 O1540 O 0.22584 0.75611 0.49405
 Zr1541 Zr 0.26838 0.77026 0.50823
 O1542 O 0.25452 0.75634 0.52317
 Zr1543 Zr 0.23113 0.73256 0.49026
 O1544 O 0.24478 0.74664 0.47507
 Zr1545 Zr 0.25856 0.73278 0.51805
 O1546 O 0.27382 0.74669 0.50432
 Zr1547 Zr 0.23062 0.75975 0.51804
 O1548 O 0.24448 0.77522 0.50448
 O1549 O 0.26467 0.76667 0.48437
 O1550 O 0.23465 0.73618 0.51422
 C1551 C 0.29807 0.76360 0.48776
 C1552 C 0.26121 0.76335 0.45080
 C1553 C 0.26134 0.79955 0.48785
 C1554 C 0.20195 0.73804 0.51161
 C1555 C 0.23724 0.70391 0.51181
 C1556 C 0.23679 0.73842 0.54701
 H1557 H 0.25782 0.71712 0.49154
 H1558 H 0.25697 0.75885 0.53424
 H1559 H 0.27135 0.77337 0.47766
 H1560 H 0.21477 0.75834 0.49140
 H1561 H 0.21801 0.73875 0.46362
 H1562 H 0.21523 0.76463 0.46519
 H1563 H 0.27529 0.74192 0.54186
 H1564 H 0.29051 0.75954 0.52581
 H1565 H 0.24120 0.70905 0.47365
 H1566 H 0.25802 0.72584 0.45807
 H1567 H 0.23947 0.77665 0.54174
 H1568 H 0.25718 0.79180 0.52605
 H1569 H 0.29079 0.72579 0.49119
 H1570 H 0.27579 0.70958 0.50882
 H1571 H 0.22415 0.79251 0.49231
 H1572 H 0.20671 0.77610 0.50878
 O1573 O 0.27078 0.29168 1.00037
 O1574 O 0.26942 0.28568 1.02788
 O1575 O 0.29288 0.25131 0.98115
 O1576 O 0.28852 0.22570 0.98057
 O1577 O 0.25170 0.27048 0.95917
 O1578 O 0.22426 0.26914 0.96499
 O1579 O 0.24976 0.20925 1.02066
 O1580 O 0.27711 0.21387 1.01807
 O1581 O 0.23079 0.24846 1.04204
 O1582 O 0.23159 0.27653 1.03677
 O1583 O 0.21001 0.22984 1.00180
 O1584 O 0.21563 0.23160 0.97326
 O1585 O 0.23108 0.20936 1.00160
 O1586 O 0.23265 0.21535 0.97297
 O1587 O 0.20976 0.24834 1.02087
 O1588 O 0.21539 0.27691 1.01966
 O1589 O 0.24928 0.22942 1.04161
 O1590 O 0.27777 0.23178 1.03670
 O1591 O 0.25172 0.29195 0.98166
 O1592 O 0.22408 0.28599 0.98284
 O1593 O 0.27086 0.25209 0.95899
 O1594 O 0.26832 0.22414 0.96459
 O1595 O 0.29276 0.26982 1.00026
 O1596 O 0.28675 0.26831 1.02786
 Zr1597 Zr 0.26989 0.26897 1.00964
 O1598 O 0.25599 0.25509 1.02455
 Zr1599 Zr 0.27001 0.24208 0.98158
 O1600 O 0.25633 0.22685 0.99539
 Zr1601 Zr 0.24230 0.26931 0.98204
 O1602 O 0.22725 0.25526 0.99563
 Zr1603 Zr 0.25985 0.23150 1.01937
 O1604 O 0.27518 0.24536 1.00562
 Zr1605 Zr 0.23212 0.25870 1.01960
 O1606 O 0.24599 0.27414 1.00603
 Zr1607 Zr 0.23244 0.23169 0.99160
 O1608 O 0.24613 0.24578 0.97644
 O1609 O 0.26609 0.26555 0.98577
 O1610 O 0.23597 0.23511 1.01558
 C1611 C 0.26275 0.29851 0.98958
 C1612 C 0.29957 0.26207 0.98925
 C1613 C 0.26280 0.26289 0.95235
 C1614 C 0.23858 0.20277 1.01289
 C1615 C 0.23818 0.23703 1.04836
 C1616 C 0.20333 0.23718 1.01313
 H1617 H 0.25845 0.25758 1.03562
 H1618 H 0.21622 0.25774 0.99306
 H1619 H 0.27284 0.27230 0.97919
 H1620 H 0.25901 0.21594 0.99288
 H1621 H 0.28648 0.21860 1.01308
 H1622 H 0.28525 0.21655 0.98680
 H1623 H 0.20828 0.27532 1.01060
 H1624 H 0.22467 0.29098 0.99332
 H1625 H 0.27598 0.24077 1.04372
 H1626 H 0.29179 0.25796 1.02729
 H1627 H 0.20882 0.24081 0.97465
 H1628 H 0.22462 0.25878 0.95991
 H1629 H 0.25894 0.29065 1.02746
 H1630 H 0.24127 0.27568 1.04313
 H1631 H 0.25849 0.22592 0.95866
 H1632 H 0.24186 0.20850 0.97445
 C1633 C 0.28148 0.38950 0.78012
 C1634 C 0.27991 0.38561 0.79610
 C1635 C 0.28529 0.37132 0.80172
 C1636 C 0.29242 0.36057 0.79151
 C1637 C 0.29396 0.36441 0.77552
 C1638 C 0.28852 0.37871 0.76987
 C1639 C 0.27613 0.40492 0.77431
 C1640 C 0.28509 0.41324 0.76326
 C1641 C 0.28053 0.42812 0.75848
 C1642 C 0.26691 0.43506 0.76469
 C1643 C 0.25775 0.42659 0.77547
 C1644 C 0.26229 0.41169 0.78019
 H1645 H 0.28419 0.36884 0.81415
 H1646 H 0.29922 0.35629 0.76734
 H1647 H 0.28791 0.43433 0.75021
 H1648 H 0.24714 0.43152 0.78041
 H1649 H 0.28972 0.38126 0.75746
 H1650 H 0.29592 0.40845 0.75864
 H1651 H 0.27485 0.39378 0.80437
 H1652 H 0.25497 0.40548 0.78851
 C1653 C 0.28251 -0.10908 0.28069
 C1654 C 0.29749 -0.11454 0.27651
 C1655 C 0.30278 -0.12904 0.28169
 C1656 C 0.29333 -0.13851 0.29145
 C1657 C 0.27821 -0.13299 0.29542
 C1658 C 0.27289 -0.11857 0.29006
 C1659 C 0.27708 -0.09343 0.27555
 C1660 C 0.26792 -0.08413 0.28561
 C1661 C 0.26307 -0.06931 0.28095
 C1662 C 0.26741 -0.06335 0.26619
 C1663 C 0.27651 -0.07263 0.25609
 C1664 C 0.28122 -0.08753 0.26068
 H1665 H 0.31456 -0.13240 0.27845
 H1666 H 0.27019 -0.13985 0.30240
 H1667 H 0.25620 -0.06239 0.28908
 H1668 H 0.27997 -0.06841 0.24459
 H1669 H 0.26112 -0.11492 0.29318
 H1670 H 0.26476 -0.08814 0.29726
 H1671 H 0.30535 -0.10743 0.26954
 H1672 H 0.28802 -0.09446 0.25251
 C1673 C 0.78244 0.89067 0.78177
 C1674 C 0.79255 0.88138 0.77270
 C1675 C 0.79815 0.86721 0.77848
 C1676 C 0.79367 0.86174 0.79350
 C1677 C 0.78320 0.87100 0.80237
 C1678 C 0.77779 0.88525 0.79664
 C1679 C 0.77706 0.90612 0.77593
 C1680 C 0.76192 0.91166 0.77950
 C1681 C 0.75717 0.92645 0.77462
 C1682 C 0.76735 0.93597 0.76588
 C1683 C 0.78237 0.93034 0.76204
 C1684 C 0.78719 0.91564 0.76708
 H1685 H 0.80573 0.86049 0.77089
 H1686 H 0.77954 0.86770 0.81406
 H1687 H 0.74548 0.93042 0.77768
 H1688 H 0.79057 0.93747 0.75547
 H1689 H 0.77027 0.89222 0.80410
 H1690 H 0.75370 0.90455 0.78604
 H1691 H 0.79609 0.88500 0.76103
 H1692 H 0.79903 0.91191 0.76436
 C1693 C 0.46727 0.85794 0.28239
 C1694 C 0.45746 0.86734 0.27314
 C1695 C 0.45190 0.88156 0.27884
 C1696 C 0.45612 0.88695 0.29395
 C1697 C 0.46624 0.87755 0.30304
 C1698 C 0.47162 0.86326 0.29738
 C1699 C 0.47269 0.84252 0.27657
 C1700 C 0.48777 0.83696 0.28029
 C1701 C 0.49260 0.82221 0.27538
 C1702 C 0.48253 0.81273 0.26647
 C1703 C 0.46757 0.81838 0.26248
 C1704 C 0.46268 0.83306 0.26754
 H1705 H 0.44459 0.88838 0.27109
 H1706 H 0.46966 0.88078 0.31482
 H1707 H 0.50423 0.81822 0.27856
 H1708 H 0.45946 0.81129 0.25577
 H1709 H 0.47890 0.85618 0.30497
 H1710 H 0.49590 0.84404 0.28698
 H1711 H 0.45416 0.86379 0.26138
 H1712 H 0.45089 0.83682 0.26469
 C1713 C -0.03148 0.85807 0.78283
 C1714 C -0.04651 0.86326 0.77859
 C1715 C -0.05215 0.87760 0.78385
 C1716 C -0.04300 0.88720 0.79374
 C1717 C -0.02785 0.88192 0.79788
 C1718 C -0.02218 0.86763 0.79245
 C1719 C -0.02569 0.84261 0.77749
 C1720 C -0.01660 0.83323 0.78752
 C1721 C -0.01165 0.81848 0.78272
 C1722 C -0.01580 0.81268 0.76783
 C1723 C -0.02475 0.82209 0.75774
 C1724 C -0.02956 0.83691 0.76247
 H1725 H -0.06397 0.88071 0.78050
 H1726 H -0.02007 0.88887 0.80504
 H1727 H -0.00489 0.81146 0.79084
 H1728 H -0.02805 0.81801 0.74615
 H1729 H -0.01040 0.86416 0.79568
 H1730 H -0.01362 0.83712 0.79926
 H1731 H -0.05415 0.85606 0.77147
 H1732 H -0.03629 0.84391 0.75433
 C1733 C -0.03025 -0.11064 -0.03066
 C1734 C -0.02909 -0.11446 -0.04670
 C1735 C -0.03439 -0.12883 -0.05221
 C1736 C -0.04103 -0.13972 -0.04183
 C1737 C -0.04211 -0.13595 -0.02577
 C1738 C -0.03677 -0.12158 -0.02024
 C1739 C -0.02499 -0.09517 -0.02495
 C1740 C -0.03383 -0.08697 -0.01371
 C1741 C -0.02933 -0.07204 -0.00899
 C1742 C -0.01589 -0.06497 -0.01542
 C1743 C -0.00685 -0.07334 -0.02639
 C1744 C -0.01133 -0.08826 -0.03107
 H1745 H -0.03365 -0.13125 -0.06468
 H1746 H -0.04696 -0.14419 -0.01745
 H1747 H -0.03662 -0.06591 -0.00058
 H1748 H 0.00363 -0.06829 -0.03153
 H1749 H -0.03762 -0.11908 -0.00779
 H1750 H -0.04452 -0.09189 -0.00891
 H1751 H -0.02441 -0.10618 -0.05507
 H1752 H -0.00412 -0.09438 -0.03955
 C1753 C -0.03042 0.38889 0.46997
 C1754 C -0.04006 0.37952 0.47946
 C1755 C -0.04536 0.36507 0.47412
 C1756 C -0.04106 0.35940 0.45912
 C1757 C -0.03105 0.36875 0.44982
 C1758 C -0.02593 0.38327 0.45512
 C1759 C -0.02542 0.40463 0.47531
 C1760 C -0.01053 0.41053 0.47132
 C1761 C -0.00619 0.42563 0.47562
 C1762 C -0.01656 0.43511 0.48418
 C1763 C -0.03129 0.42910 0.48852
 C1764 C -0.03570 0.41408 0.48407
 H1765 H -0.05257 0.35830 0.48202
 H1766 H -0.02755 0.36530 0.43812
 H1767 H 0.00529 0.42988 0.47219
 H1768 H -0.03961 0.43616 0.49499
 H1769 H -0.01878 0.39029 0.44734
 H1770 H -0.00219 0.40349 0.46485
 H1771 H -0.04345 0.38330 0.49112
 H1772 H -0.04735 0.41005 0.48712
 C1773 C 0.46722 -0.10718 0.46747
 C1774 C 0.47144 -0.11244 0.45241
 C1775 C 0.46607 -0.12676 0.44679
 C1776 C 0.45610 -0.13624 0.45598
 C1777 C 0.45201 -0.13089 0.47116
 C1778 C 0.45754 -0.11664 0.47681
 C1779 C 0.47267 -0.09175 0.47327
 C1780 C 0.46273 -0.08232 0.48242
 C1781 C 0.46765 -0.06764 0.48747
 C1782 C 0.48259 -0.06197 0.48337
 C1783 C 0.49260 -0.07143 0.47435
 C1784 C 0.48773 -0.08618 0.46943
 H1785 H 0.46940 -0.12995 0.43497
 H1786 H 0.44482 -0.13776 0.47899
 H1787 H 0.45959 -0.06058 0.49427
 H1788 H 0.50422 -0.06745 0.47108
 H1789 H 0.45435 -0.11312 0.48861
 H1790 H 0.45096 -0.08611 0.48537
 H1791 H 0.47862 -0.10532 0.44475
 H1792 H 0.49581 -0.09323 0.46266
 C1793 C 0.46785 0.39156 -0.03229
 C1794 C 0.45855 0.38194 -0.02274
 C1795 C 0.45319 0.36757 -0.02823
 C1796 C 0.45709 0.36224 -0.04347
 C1797 C 0.46672 0.37188 -0.05287
 C1798 C 0.47191 0.38632 -0.04740
 C1799 C 0.47306 0.40712 -0.02665
 C1800 C 0.48791 0.41303 -0.03079
 C1801 C 0.49256 0.42787 -0.02595
 C1802 C 0.48254 0.43709 -0.01669
 C1803 C 0.46781 0.43111 -0.01231
 C1804 C 0.46310 0.41634 -0.01729
 H1805 H 0.44628 0.36059 -0.02024
 H1806 H 0.46989 0.36869 -0.06474
 H1807 H 0.50402 0.43210 -0.02944
 H1808 H 0.45975 0.43798 -0.00532
 H1809 H 0.47880 0.39355 -0.05522
 H1810 H 0.49600 0.40615 -0.03773
 H1811 H 0.45550 0.38543 -0.01088
 H1812 H 0.45148 0.41231 -0.01411
 C1813 C 0.78094 0.36076 0.47023
 C1814 C 0.79694 0.36465 0.47137
 C1815 C 0.80243 0.37892 0.46575
 C1816 C 0.79207 0.38962 0.45880
 C1817 C 0.77606 0.38580 0.45779
 C1818 C 0.77054 0.37156 0.46347
 C1819 C 0.77525 0.34530 0.47563
 C1820 C 0.76396 0.33711 0.46687
 C1821 C 0.75922 0.32222 0.47143
 C1822 C 0.76571 0.31512 0.48484
 C1823 C 0.77675 0.32345 0.49379
 C1824 C 0.78145 0.33837 0.48926
 H1825 H 0.81486 0.38140 0.46648
 H1826 H 0.76777 0.39391 0.45271
 H1827 H 0.75076 0.31614 0.46419
 H1828 H 0.78193 0.31837 0.50423
 H1829 H 0.75811 0.36902 0.46264
 H1830 H 0.75912 0.34201 0.45620
 H1831 H 0.80531 0.35650 0.47623
 H1832 H 0.78998 0.34447 0.49641
 C1833 C 0.78126 0.86151 -0.02883
 C1834 C 0.79103 0.87115 -0.01977
 C1835 C 0.79652 0.88530 -0.02576
 C1836 C 0.79231 0.89035 -0.04100
 C1837 C 0.78221 0.88070 -0.04987
 C1838 C 0.77689 0.86651 -0.04392
 C1839 C 0.77600 0.84609 -0.02283
 C1840 C 0.76103 0.84026 -0.02662
 C1841 C 0.75653 0.82533 -0.02194
 C1842 C 0.76680 0.81592 -0.01319
 C1843 C 0.78156 0.82192 -0.00895
 C1844 C 0.78614 0.83679 -0.01377
 H1845 H 0.80383 0.89230 -0.01817
 H1846 H 0.77878 0.88364 -0.06172
 H1847 H 0.74502 0.82110 -0.02529
 H1848 H 0.78981 0.81492 -0.00233
 H1849 H 0.76966 0.85925 -0.05139
 H1850 H 0.75280 0.84721 -0.03328
 H1851 H 0.79436 0.86783 -0.00796
 H1852 H 0.79783 0.84077 -0.01083
 C1853 C 0.77909 0.28241 0.38875
 C1854 C 0.78555 0.27207 0.37768
 C1855 C 0.79081 0.27747 0.36309
 C1856 C 0.78969 0.29331 0.35921
 C1857 C 0.78301 0.30361 0.37017
 C1858 C 0.77781 0.29823 0.38477
 C1859 C 0.77411 0.27684 0.40453
 C1860 C 0.76062 0.28292 0.41181
 C1861 C 0.75637 0.27823 0.42697
 C1862 C 0.76549 0.26729 0.43519
 C1863 C 0.77881 0.26098 0.42778
 C1864 C 0.78308 0.26571 0.41264
 H1865 H 0.79569 0.26922 0.35480
 H1866 H 0.78222 0.31592 0.36764
 H1867 H 0.74599 0.28327 0.43228
 H1868 H 0.78617 0.25260 0.43379
 H1869 H 0.77315 0.30655 0.39312
 H1870 H 0.75331 0.29132 0.40579
 H1871 H 0.78646 0.25978 0.38027
 H1872 H 0.79367 0.26096 0.40747
 C1873 C 0.78212 0.78418 -0.10900
 C1874 C 0.77305 0.79408 -0.11847
 C1875 C 0.77891 0.79972 -0.13273
 C1876 C 0.79402 0.79550 -0.13811
 C1877 C 0.80293 0.78530 -0.12864
 C1878 C 0.79711 0.77984 -0.11430
 C1879 C 0.77619 0.77873 -0.09347
 C1880 C 0.77987 0.76376 -0.08790
 C1881 C 0.77506 0.75898 -0.07294
 C1882 C 0.76628 0.76899 -0.06326
 C1883 C 0.76223 0.78378 -0.06897
 C1884 C 0.76719 0.78863 -0.08386
 H1885 H 0.77129 0.80710 -0.13961
 H1886 H 0.81470 0.78186 -0.13185
 H1887 H 0.77827 0.74746 -0.06893
 H1888 H 0.75561 0.79183 -0.06175
 H1889 H 0.80459 0.77250 -0.10717
 H1890 H 0.78650 0.75571 -0.09510
 H1891 H 0.76130 0.79740 -0.11493
 H1892 H 0.76435 0.80031 -0.08762
 C1893 C 0.28094 0.46726 0.86008
 C1894 C 0.27937 0.45147 0.86412
 C1895 C 0.28476 0.44601 0.87862
 C1896 C 0.29191 0.45618 0.88940
 C1897 C 0.29335 0.47198 0.88544
 C1898 C 0.28790 0.47747 0.87096
 C1899 C 0.27574 0.47292 0.84441
 C1900 C 0.28476 0.48389 0.83611
 C1901 C 0.28028 0.48873 0.82108
 C1902 C 0.26669 0.48266 0.81395
 C1903 C 0.25753 0.47188 0.82236
 C1904 C 0.26198 0.46710 0.83742
 H1905 H 0.28370 0.43374 0.88122
 H1906 H 0.29859 0.48013 0.89360
 H1907 H 0.28768 0.49696 0.81492
 H1908 H 0.24695 0.46703 0.81727
 H1909 H 0.28905 0.48973 0.86833
 H1910 H 0.29554 0.48844 0.84104
 H1911 H 0.27434 0.44324 0.85591
 H1912 H 0.25464 0.45882 0.84360
 C1913 C 0.28259 -0.03250 0.35927
 C1914 C 0.29750 -0.02816 0.36476
 C1915 C 0.30297 -0.03336 0.37931
 C1916 C 0.29379 -0.04331 0.38883
 C1917 C 0.27875 -0.04753 0.38326
 C1918 C 0.27324 -0.04214 0.36877
 C1919 C 0.27699 -0.02722 0.34357
 C1920 C 0.26799 -0.03714 0.33398
 C1921 C 0.26314 -0.03237 0.31905
 C1922 C 0.26732 -0.01763 0.31326
 C1923 C 0.27622 -0.00766 0.32284
 C1924 C 0.28091 -0.01235 0.33786
 H1925 H 0.31471 -0.02994 0.38265
 H1926 H 0.27095 -0.05473 0.39015
 H1927 H 0.25642 -0.04038 0.31189
 H1928 H 0.27953 0.00382 0.31876
 H1929 H 0.26153 -0.04544 0.36508
 H1930 H 0.26499 -0.04876 0.33785
 H1931 H 0.30519 -0.02102 0.35762
 H1932 H 0.28756 -0.00429 0.34501
 C1933 C -0.03017 -0.03257 -0.11128
 C1934 C -0.04514 -0.02827 -0.11663
 C1935 C -0.05091 -0.03380 -0.13095
 C1936 C -0.04197 -0.04406 -0.14035
 C1937 C -0.02682 -0.04815 -0.13499
 C1938 C -0.02102 -0.04243 -0.12074
 C1939 C -0.02439 -0.02717 -0.09567
 C1940 C -0.01544 -0.03710 -0.08606
 C1941 C -0.01072 -0.03237 -0.07106
 C1942 C -0.01499 -0.01767 -0.06523
 C1943 C -0.02369 -0.00763 -0.07491
 C1944 C -0.02824 -0.01228 -0.08999
 H1945 H -0.06269 -0.03043 -0.13415
 H1946 H -0.01918 -0.05555 -0.14184
 H1947 H -0.00415 -0.04044 -0.06384
 H1948 H -0.02704 0.00383 -0.07081
 H1949 H -0.00927 -0.04570 -0.11717
 H1950 H -0.01247 -0.04873 -0.08991
 H1951 H -0.05268 -0.02095 -0.10952
 H1952 H -0.03484 -0.00421 -0.09717
 C1953 C -0.03044 0.46812 0.38770
 C1954 C -0.04536 0.47254 0.38231
 C1955 C -0.05103 0.46726 0.36785
 C1956 C -0.04203 0.45715 0.35834
 C1957 C -0.02695 0.45291 0.36377
 C1958 C -0.02125 0.45837 0.37816
 C1959 C -0.02472 0.47333 0.40339
 C1960 C -0.01588 0.46327 0.41296
 C1961 C -0.01118 0.46787 0.42801
 C1962 C -0.01533 0.48257 0.43391
 C1963 C -0.02392 0.49274 0.42427
 C1964 C -0.02848 0.48821 0.40916
 H1965 H -0.06277 0.47073 0.36461
 H1966 H -0.01926 0.44561 0.35686
 H1967 H -0.00468 0.45970 0.43519
 H1968 H -0.02720 0.50420 0.42842
 H1969 H -0.00954 0.45501 0.38177
 H1970 H -0.01299 0.45165 0.40903
 H1971 H -0.05292 0.47978 0.38947
 H1972 H -0.03499 0.49638 0.40200
 C1973 C 0.46772 -0.03411 0.39101
 C1974 C 0.46107 -0.02403 0.37983
 C1975 C 0.45545 -0.02978 0.36552
 C1976 C 0.45641 -0.04573 0.36204
 C1977 C 0.46318 -0.05578 0.37315
 C1978 C 0.46875 -0.05005 0.38748
 C1979 C 0.47329 -0.02810 0.40642
 C1980 C 0.48700 -0.03404 0.41339
 C1981 C 0.49191 -0.02876 0.42814
 C1982 C 0.48325 -0.01737 0.43625
 C1983 C 0.46966 -0.01128 0.42917
 C1984 C 0.46473 -0.01660 0.41445
 H1985 H 0.45051 -0.02172 0.35710
 H1986 H 0.46386 -0.06816 0.37093
 H1987 H 0.50246 -0.03368 0.43322
 H1988 H 0.46262 -0.00259 0.43511
 H1989 H 0.47354 -0.05817 0.39594
 H1990 H 0.49398 -0.04275 0.40741
 H1991 H 0.46033 -0.01166 0.38208
 H1992 H 0.45399 -0.01195 0.40953
 C1993 C 0.46755 0.46652 -0.10935
 C1994 C 0.47188 0.45164 -0.11459
 C1995 C 0.46674 0.44603 -0.12913
 C1996 C 0.45687 0.45506 -0.13887
 C1997 C 0.45269 0.47007 -0.13355
 C1998 C 0.45800 0.47570 -0.11908
 C1999 C 0.47272 0.47229 -0.09368
 C2000 C 0.46261 0.48135 -0.08433
 C2001 C 0.46730 0.48645 -0.06945
 C2002 C 0.48216 0.48250 -0.06348
 C2003 C 0.49231 0.47352 -0.07283
 C2004 C 0.48768 0.46855 -0.08778
 H2005 H 0.47013 0.43435 -0.13228
 H2006 H 0.44558 0.47777 -0.14062
 H2007 H 0.45913 0.49322 -0.06248
 H2008 H 0.50388 0.47036 -0.06862
 H2009 H 0.45473 0.48737 -0.11559
 H2010 H 0.45090 0.48421 -0.08834
 H2011 H 0.47897 0.44410 -0.10728
 H2012 H 0.49588 0.46183 -0.09476
 C2013 C 0.46660 0.78486 0.35854
 C2014 C 0.46004 0.77477 0.36979
 C2015 C 0.45464 0.78051 0.38420
 C2016 C 0.45570 0.79645 0.38772
 C2017 C 0.46233 0.80651 0.37651
 C2018 C 0.46769 0.80079 0.36209
 C2019 C 0.47209 0.77885 0.34310
 C2020 C 0.48584 0.78474 0.33612
 C2021 C 0.49075 0.77943 0.32138
 C2022 C 0.48206 0.76807 0.31326
 C2023 C 0.46842 0.76204 0.32034
 C2024 C 0.46349 0.76737 0.33507
 H2025 H 0.44981 0.77243 0.39268
 H2026 H 0.46307 0.81888 0.37874
 H2027 H 0.50134 0.78431 0.31632
 H2028 H 0.46137 0.75336 0.31439
 H2029 H 0.47241 0.80891 0.35357
 H2030 H 0.49286 0.79341 0.34210
 H2031 H 0.45925 0.76241 0.36752
 H2032 H 0.45274 0.76275 0.34001
 C2033 C -0.03216 0.78225 0.86011
 C2034 C -0.04198 0.77307 0.86960
 C2035 C -0.04721 0.77849 0.88419
 C2036 C -0.04266 0.79326 0.88988
 C2037 C -0.03260 0.80231 0.88033
 C2038 C -0.02753 0.79692 0.86568
 C2039 C -0.02693 0.77667 0.84437
 C2040 C -0.01181 0.78021 0.83871
 C2041 C -0.00708 0.77540 0.82373
 C2042 C -0.01729 0.76677 0.81412
 C2043 C -0.03232 0.76303 0.81984
 C2044 C -0.03711 0.76798 0.83475
 H2045 H -0.05452 0.77080 0.89108
 H2046 H -0.02894 0.81385 0.88374
 H2047 H 0.00461 0.77839 0.81971
 H2048 H -0.04053 0.75655 0.81266
 H2049 H -0.02025 0.80446 0.85854
 H2050 H -0.00356 0.78663 0.84590
 H2051 H -0.04550 0.76155 0.86584
 H2052 H -0.04892 0.76528 0.83859
 C2053 C 0.39031 0.78259 0.28216
 C2054 C 0.38595 0.78109 0.29804
 C2055 C 0.37143 0.78659 0.30330
 C2056 C 0.36095 0.79379 0.29283
 C2057 C 0.36526 0.79524 0.27694
 C2058 C 0.37975 0.78966 0.27165
 C2059 C 0.40591 0.77704 0.27665
 C2060 C 0.41455 0.78568 0.26560
 C2061 C 0.42940 0.78071 0.26073
 C2062 C 0.43601 0.76700 0.26686
 C2063 C 0.42731 0.75829 0.27782
 C2064 C 0.41242 0.76323 0.28262
 H2065 H 0.36855 0.78553 0.31565
 H2066 H 0.35733 0.80052 0.26856
 H2067 H 0.43582 0.78779 0.25238
 H2068 H 0.43201 0.74765 0.28274
 H2069 H 0.38263 0.79077 0.25930
 H2070 H 0.41000 0.79650 0.26095
 H2071 H 0.39391 0.77596 0.30650
 H2072 H 0.40598 0.75618 0.29097
 C2073 C -0.10825 0.78391 0.78325
 C2074 C -0.11206 0.78297 0.79931
 C2075 C -0.12641 0.78859 0.80487
 C2076 C -0.13731 0.79534 0.79452
 C2077 C -0.13352 0.79632 0.77846
 C2078 C -0.11916 0.79065 0.77288
 C2079 C -0.09287 0.77808 0.77743
 C2080 C -0.08445 0.78632 0.76590
 C2081 C -0.06971 0.78114 0.76089
 C2082 C -0.06302 0.76761 0.76731
 C2083 C -0.07155 0.75924 0.77867
 C2084 C -0.08630 0.76440 0.78365
 H2085 H -0.12884 0.78792 0.81734
 H2086 H -0.14175 0.80128 0.77017
 H2087 H -0.06344 0.78794 0.75219
 H2088 H -0.06680 0.74874 0.78384
 H2089 H -0.11668 0.79136 0.76040
 H2090 H -0.08907 0.79701 0.76103
 H2091 H -0.10380 0.77815 0.80766
 H2092 H -0.09259 0.75764 0.79236
 C2093 C 0.86145 0.28137 0.47073
 C2094 C 0.86568 0.29709 0.47239
 C2095 C 0.88037 0.30234 0.46737
 C2096 C 0.89118 0.29203 0.46049
 C2097 C 0.88702 0.27628 0.45895
 C2098 C 0.87234 0.27100 0.46404
 C2099 C 0.84560 0.27594 0.47562
 C2100 C 0.83727 0.26514 0.46642
 C2101 C 0.82208 0.26057 0.47063
 C2102 C 0.81483 0.26674 0.48413
 C2103 C 0.82327 0.27735 0.49347
 C2104 C 0.83847 0.28186 0.48928
 H2105 H 0.88309 0.31459 0.46846
 H2106 H 0.89518 0.26802 0.45390
 H2107 H 0.81591 0.25245 0.46311
 H2108 H 0.81810 0.28226 0.50400
 H2109 H 0.86954 0.25877 0.46281
 H2110 H 0.84234 0.26052 0.45570
 H2111 H 0.85747 0.30544 0.47723
 H2112 H 0.84466 0.29000 0.49677
 C2113 C 0.86170 0.78156 -0.02931
 C2114 C 0.86589 0.79730 -0.02778
 C2115 C 0.88043 0.80261 -0.03316
 C2116 C 0.89112 0.79234 -0.04027
 C2117 C 0.88701 0.77658 -0.04172
 C2118 C 0.87247 0.77123 -0.03627
 C2119 C 0.84598 0.77609 -0.02407
 C2120 C 0.83751 0.76526 -0.03309
 C2121 C 0.82239 0.76073 -0.02861
 C2122 C 0.81535 0.76696 -0.01503
 C2123 C 0.82395 0.77756 -0.00584
 C2124 C 0.83909 0.78204 -0.01030
 H2125 H 0.88311 0.81487 -0.03213
 H2126 H 0.89509 0.76836 -0.04696
 H2127 H 0.81609 0.75260 -0.03602
 H2128 H 0.81894 0.78253 0.00474
 H2129 H 0.86970 0.75899 -0.03742
 H2130 H 0.84238 0.76061 -0.04388
 H2131 H 0.85776 0.80562 -0.02277
 H2132 H 0.84541 0.79021 -0.00295
 C2133 C -0.11101 -0.03113 -0.03128
 C2134 C -0.12060 -0.04046 -0.02170
 C2135 C -0.13503 -0.04602 -0.02719
 C2136 C -0.14045 -0.04227 -0.04242
 C2137 C -0.13090 -0.03251 -0.05179
 C2138 C -0.11641 -0.02715 -0.04635
 C2139 C -0.09523 -0.02597 -0.02581
 C2140 C -0.08918 -0.01135 -0.03016
 C2141 C -0.07402 -0.00690 -0.02570
 C2142 C -0.06463 -0.01688 -0.01662
 C2143 C -0.07078 -0.03134 -0.01198
 C2144 C -0.08585 -0.03587 -0.01659
 H2145 H -0.14197 -0.05300 -0.01923
 H2146 H -0.13415 -0.02943 -0.06366
 H2147 H -0.06966 0.00437 -0.02936
 H2148 H -0.06379 -0.03938 -0.00512
 H2149 H -0.10921 -0.02025 -0.05419
 H2150 H -0.09616 -0.00331 -0.03700
 H2151 H -0.11701 -0.04345 -0.00987
 H2152 H -0.08996 -0.04732 -0.01327
 C2153 C -0.11119 0.46902 0.46765
 C2154 C -0.11665 0.45437 0.47247
 C2155 C -0.13116 0.44874 0.46737
 C2156 C -0.14066 0.45751 0.45704
 C2157 C -0.13513 0.47229 0.45235
 C2158 C -0.12068 0.47796 0.45765
 C2159 C -0.09548 0.47472 0.47274
 C2160 C -0.08591 0.48326 0.46237
 C2161 C -0.07087 0.48799 0.46688
 C2162 C -0.06497 0.48416 0.48181
 C2163 C -0.07459 0.47583 0.49228
 C2164 C -0.08969 0.47126 0.48784
 H2165 H -0.13448 0.43721 0.47115
 H2166 H -0.14202 0.47979 0.44486
 H2167 H -0.06370 0.49427 0.45848
 H2168 H -0.07042 0.47281 0.50392
 H2169 H -0.11702 0.48946 0.45397
 H2170 H -0.08985 0.48592 0.45057
 H2171 H -0.10951 0.44699 0.47990
 H2172 H -0.09684 0.46498 0.49625
 C2173 C 0.39119 -0.03217 0.46670
 C2174 C 0.38182 -0.02321 0.45659
 C2175 C 0.36743 -0.02885 0.45114
 C2176 C 0.36181 -0.04361 0.45578
 C2177 C 0.37117 -0.05241 0.46620
 C2178 C 0.38565 -0.04682 0.47146
 C2179 C 0.40676 -0.02638 0.47206
 C2180 C 0.41224 -0.02966 0.48731
 C2181 C 0.42708 -0.02465 0.49214
 C2182 C 0.43673 -0.01607 0.48191
 C2183 C 0.43118 -0.01257 0.46675
 C2184 C 0.41642 -0.01774 0.46186
 H2185 H 0.36064 -0.02131 0.44360
 H2186 H 0.36775 -0.06393 0.46995
 H2187 H 0.43099 -0.02745 0.50392
 H2188 H 0.43841 -0.00614 0.45852
 H2189 H 0.39269 -0.05419 0.47900
 H2190 H 0.40502 -0.03605 0.49557
 H2191 H 0.38554 -0.01171 0.45298
 H2192 H 0.41273 -0.01524 0.44994
 C2193 C 0.38988 0.46754 -0.03217
 C2194 C 0.38050 0.45790 -0.02269
 C2195 C 0.36601 0.45242 -0.02807
 C2196 C 0.36030 0.45656 -0.04309
 C2197 C 0.36968 0.46651 -0.05241
 C2198 C 0.38425 0.47180 -0.04707
 C2199 C 0.40558 0.47291 -0.02667
 C2200 C 0.41123 0.48778 -0.03068
 C2201 C 0.42619 0.49259 -0.02598
 C2202 C 0.43578 0.48273 -0.01697
 C2203 C 0.43007 0.46797 -0.01275
 C2204 C 0.41519 0.46309 -0.01761
 H2205 H 0.35922 0.44524 -0.02017
 H2206 H 0.36622 0.46986 -0.06414
 H2207 H 0.43021 0.50407 -0.02934
 H2208 H 0.43723 0.46003 -0.00596
 H2209 H 0.39128 0.47894 -0.05485
 H2210 H 0.40405 0.49577 -0.03739
 H2211 H 0.38428 0.45468 -0.01098
 H2212 H 0.41139 0.45147 -0.01455
 C2213 C 0.36156 0.46777 0.78016
 C2214 C 0.36518 0.45186 0.77896
 C2215 C 0.37945 0.44613 0.78459
 C2216 C 0.39045 0.45615 0.79160
 C2217 C 0.38690 0.47207 0.79271
 C2218 C 0.37263 0.47783 0.78703
 C2219 C 0.34612 0.47368 0.77466
 C2220 C 0.33789 0.48490 0.78343
 C2221 C 0.32294 0.48976 0.77878
 C2222 C 0.31583 0.48349 0.76527
 C2223 C 0.32422 0.47255 0.75629
 C2224 C 0.33919 0.46773 0.76091
 H2225 H 0.38168 0.43377 0.78381
 H2226 H 0.39523 0.48011 0.79787
 H2227 H 0.31680 0.49815 0.78603
 H2228 H 0.31916 0.46754 0.74576
 H2229 H 0.37030 0.49017 0.78793
 H2230 H 0.34280 0.48957 0.79419
 H2231 H 0.35680 0.44374 0.77403
 H2232 H 0.34533 0.45927 0.75375
 C2233 C 0.35966 -0.03387 0.28177
 C2234 C 0.36348 -0.04972 0.28034
 C2235 C 0.37788 -0.05532 0.28577
 C2236 C 0.38880 -0.04523 0.29281
 C2237 C 0.38504 -0.02937 0.29416
 C2238 C 0.37064 -0.02375 0.28867
 C2239 C 0.34414 -0.02805 0.27635
 C2240 C 0.33589 -0.01688 0.28517
 C2241 C 0.32105 -0.01182 0.28038
 C2242 C 0.31408 -0.01784 0.26668
 C2243 C 0.32242 -0.02886 0.25776
 C2244 C 0.33728 -0.03388 0.26252
 H2245 H 0.38030 -0.06763 0.28480
 H2246 H 0.39330 -0.02129 0.29934
 H2247 H 0.31493 -0.00339 0.28760
 H2248 H 0.31744 -0.03369 0.24710
 H2249 H 0.36817 -0.01144 0.28973
 H2250 H 0.34074 -0.01232 0.29600
 H2251 H 0.35517 -0.05788 0.27536
 H2252 H 0.34342 -0.04230 0.25532
 C2253 C 0.14190 0.53283 0.71578
 C2254 C 0.13795 0.53173 0.69977
 C2255 C 0.12349 0.53721 0.69433
 C2256 C 0.11266 0.54398 0.70476
 C2257 C 0.11657 0.54503 0.72079
 C2258 C 0.13101 0.53950 0.72624
 C2259 C 0.15743 0.52728 0.72148
 C2260 C 0.16576 0.53571 0.73293
 C2261 C 0.18056 0.53075 0.73795
 C2262 C 0.18741 0.51724 0.73161
 C2263 C 0.17901 0.50872 0.72028
 C2264 C 0.16419 0.51367 0.71530
 H2265 H 0.12095 0.53647 0.68189
 H2266 H 0.10838 0.54998 0.72914
 H2267 H 0.18674 0.53767 0.74660
 H2268 H 0.18389 0.49824 0.71518
 H2269 H 0.13358 0.54029 0.73868
 H2270 H 0.16101 0.54637 0.73775
 H2271 H 0.14618 0.52693 0.69135
 H2272 H 0.15798 0.50677 0.70665
 C2273 C 0.14036 0.03288 0.21772
 C2274 C 0.12938 0.03970 0.22798
 C2275 C 0.11512 0.04543 0.22226
 C2276 C 0.11150 0.04442 0.20617
 C2277 C 0.12244 0.03753 0.19593
 C2278 C 0.13670 0.03186 0.20163
 C2279 C 0.15573 0.02717 0.22363
 C2280 C 0.16244 0.01352 0.21750
 C2281 C 0.17731 0.00863 0.22237
 C2282 C 0.18581 0.01725 0.23355
 C2283 C 0.17891 0.03068 0.24000
 C2284 C 0.16407 0.03559 0.23508
 H2285 H 0.10683 0.05048 0.23046
 H2286 H 0.12013 0.03683 0.18344
 H2287 H 0.18220 -0.00182 0.21722
 H2288 H 0.18515 0.03765 0.24858
 H2289 H 0.14502 0.02697 0.19336
 H2290 H 0.15621 0.00661 0.20886
 H2291 H 0.13175 0.04047 0.24046
 H2292 H 0.15932 0.04626 0.23990
 C2293 C 0.61116 0.71844 0.22019
 C2294 C 0.61523 0.70268 0.22174
 C2295 C 0.62982 0.69730 0.21656
 C2296 C 0.64068 0.70755 0.20964
 C2297 C 0.63666 0.72333 0.20816
 C2298 C 0.62207 0.72872 0.21340
 C2299 C 0.59542 0.72399 0.22527
 C2300 C 0.58710 0.73485 0.21617
 C2301 C 0.57198 0.73949 0.22052
 C2302 C 0.56479 0.73333 0.23405
 C2303 C 0.57323 0.72268 0.24331
 C2304 C 0.58837 0.71809 0.23899
 H2305 H 0.63243 0.68504 0.21761
 H2306 H 0.64486 0.73153 0.20308
 H2307 H 0.56580 0.74765 0.21306
 H2308 H 0.56810 0.71776 0.25386
 H2309 H 0.61939 0.74098 0.21225
 H2310 H 0.59210 0.73946 0.20542
 H2311 H 0.60698 0.69439 0.22662
 H2312 H 0.59457 0.70989 0.24639
 C2313 C 0.11150 0.71709 0.72037
 C2314 C 0.11529 0.70122 0.72157
 C2315 C 0.12964 0.69565 0.71594
 C2316 C 0.14052 0.70579 0.70890
 C2317 C 0.13683 0.72168 0.70787
 C2318 C 0.12250 0.72728 0.71357
 C2319 C 0.09591 0.72284 0.72569
 C2320 C 0.08777 0.73405 0.71686
 C2321 C 0.07277 0.73889 0.72136
 C2322 C 0.06550 0.73259 0.73479
 C2323 C 0.07375 0.72159 0.74380
 C2324 C 0.08880 0.71680 0.73931
 H2325 H 0.13203 0.68331 0.71667
 H2326 H 0.14508 0.72981 0.70273
 H2327 H 0.06673 0.74731 0.71408
 H2328 H 0.06855 0.71656 0.75425
 H2329 H 0.12006 0.73960 0.71271
 H2330 H 0.09280 0.73877 0.70617
 H2331 H 0.10698 0.69301 0.72647
 H2332 H 0.09485 0.70833 0.74651
 C2333 C 0.63967 0.21815 0.53103
 C2334 C 0.62882 0.22863 0.53760
 C2335 C 0.61404 0.22349 0.54256
 C2336 C 0.60976 0.20778 0.54100
 C2337 C 0.62056 0.19733 0.53432
 C2338 C 0.63535 0.20245 0.52942
 C2339 C 0.65552 0.22350 0.52608
 C2340 C 0.66256 0.21756 0.51238
 C2341 C 0.67763 0.22227 0.50794
 C2342 C 0.68601 0.23310 0.51707
 C2343 C 0.67891 0.23915 0.53070
 C2344 C 0.66385 0.23439 0.53516
 H2345 H 0.60589 0.23184 0.54746
 H2346 H 0.61774 0.18511 0.53322
 H2347 H 0.68271 0.21741 0.49734
 H2348 H 0.68506 0.24742 0.53807
 H2349 H 0.64353 0.19403 0.52468
 H2350 H 0.65637 0.20932 0.50500
 H2351 H 0.63168 0.24084 0.53877
 H2352 H 0.65887 0.23901 0.54590
 C2353 C 0.64062 0.71796 0.03279
 C2354 C 0.62958 0.72812 0.03953
 C2355 C 0.61494 0.72262 0.04450
 C2356 C 0.61098 0.70684 0.04279
 C2357 C 0.62199 0.69669 0.03598
 C2358 C 0.63664 0.70218 0.03106
 C2359 C 0.65629 0.72371 0.02769
 C2360 C 0.66324 0.71807 0.01381
 C2361 C 0.67817 0.72308 0.00924
 C2362 C 0.68651 0.73390 0.01842
 C2363 C 0.67947 0.73971 0.03219
 C2364 C 0.66454 0.73466 0.03677
 H2365 H 0.60663 0.73076 0.04950
 H2366 H 0.61942 0.68443 0.03476
 H2367 H 0.68318 0.71841 -0.00147
 H2368 H 0.68560 0.74797 0.03959
 H2369 H 0.64497 0.69398 0.02617
 H2370 H 0.65709 0.70982 0.00642
 H2371 H 0.63220 0.74038 0.04081
 H2372 H 0.65961 0.73907 0.04764
 C2373 C 0.10923 0.03342 0.03230
 C2374 C 0.12033 0.02312 0.03872
 C2375 C 0.13486 0.02859 0.04401
 C2376 C 0.13864 0.04447 0.04297
 C2377 C 0.12756 0.05474 0.03650
 C2378 C 0.11303 0.04929 0.03126
 C2379 C 0.09367 0.02770 0.02689
 C2380 C 0.08671 0.03382 0.01325
 C2381 C 0.07185 0.02883 0.00843
 C2382 C 0.06361 0.01755 0.01712
 C2383 C 0.07067 0.01127 0.03066
 C2384 C 0.08551 0.01630 0.03549
 H2385 H 0.14323 0.02036 0.04874
 H2386 H 0.12999 0.06708 0.03580
 H2387 H 0.06681 0.03389 -0.00208
 H2388 H 0.06463 0.00264 0.03769
 H2389 H 0.10463 0.05758 0.02666
 H2390 H 0.09278 0.04245 0.00623
 H2391 H 0.11786 0.01078 0.03947
 H2392 H 0.09045 0.01151 0.04617
 C2393 C 0.10841 0.53384 0.53269
 C2394 C 0.11195 0.54976 0.53136
 C2395 C 0.12623 0.55560 0.53686
 C2396 C 0.13731 0.54568 0.54387
 C2397 C 0.13380 0.52976 0.54519
 C2398 C 0.11951 0.52390 0.53965
 C2399 C 0.09310 0.52773 0.52701
 C2400 C 0.08485 0.51647 0.53571
 C2401 C 0.07016 0.51119 0.53066
 C2402 C 0.06338 0.51705 0.51680
 C2403 C 0.07177 0.52812 0.50798
 C2404 C 0.08645 0.53337 0.51301
 H2405 H 0.12844 0.56796 0.53592
 H2406 H 0.14218 0.52180 0.55033
 H2407 H 0.06399 0.50273 0.53781
 H2408 H 0.06695 0.53285 0.49721
 H2409 H 0.11723 0.51155 0.54065
 H2410 H 0.08955 0.51204 0.54665
 H2411 H 0.10353 0.55777 0.52634
 H2412 H 0.09262 0.54186 0.50591
 C2413 C 0.61143 0.03244 0.52982
 C2414 C 0.61539 0.04825 0.52834
 C2415 C 0.62993 0.05372 0.53354
 C2416 C 0.64087 0.04353 0.54039
 C2417 C 0.63698 0.02770 0.54175
 C2418 C 0.62243 0.02221 0.53651
 C2419 C 0.59573 0.02680 0.52474
 C2420 C 0.58745 0.01584 0.53380
 C2421 C 0.57234 0.01115 0.52944
 C2422 C 0.56514 0.01733 0.51594
 C2423 C 0.57357 0.02805 0.50671
 C2424 C 0.58868 0.03270 0.51104
 H2425 H 0.63243 0.06602 0.53258
 H2426 H 0.64523 0.01954 0.54678
 H2427 H 0.56618 0.00292 0.53687
 H2428 H 0.56844 0.03298 0.49619
 H2429 H 0.61983 0.00993 0.53760
 H2430 H 0.59247 0.01121 0.54451
 H2431 H 0.60708 0.05649 0.52353
 H2432 H 0.59484 0.04095 0.50366
 C2433 C 0.61014 0.53288 0.03053
 C2434 C 0.61380 0.54879 0.02942
 C2435 C 0.62820 0.55442 0.03482
 C2436 C 0.63929 0.54430 0.04153
 C2437 C 0.63569 0.52838 0.04256
 C2438 C 0.62128 0.52272 0.03710
 C2439 C 0.59459 0.52704 0.02522
 C2440 C 0.58649 0.51574 0.03400
 C2441 C 0.57151 0.51084 0.02947
 C2442 C 0.56424 0.51716 0.01607
 C2443 C 0.57248 0.52823 0.00711
 C2444 C 0.58748 0.53309 0.01161
 H2445 H 0.63049 0.56677 0.03411
 H2446 H 0.64407 0.52026 0.04746
 H2447 H 0.56549 0.50236 0.03671
 H2448 H 0.56728 0.53328 -0.00333
 H2449 H 0.61892 0.51038 0.03791
 H2450 H 0.59154 0.51100 0.04465
 H2451 H 0.60536 0.55697 0.02471
 H2452 H 0.59351 0.54162 0.00445
 C2453 C 0.03237 0.03403 0.10876
 C2454 C 0.02317 0.04398 0.11809
 C2455 C 0.02879 0.04957 0.13246
 C2456 C 0.04377 0.04526 0.13809
 C2457 C 0.05283 0.03508 0.12871
 C2458 C 0.04726 0.02967 0.11427
 C2459 C 0.02662 0.02843 0.09322
 C2460 C 0.03030 0.01338 0.08788
 C2461 C 0.02549 0.00836 0.07301
 C2462 C 0.01671 0.01820 0.06320
 C2463 C 0.01275 0.03314 0.06863
 C2464 C 0.01772 0.03822 0.08343
 H2465 H 0.02108 0.05697 0.13924
 H2466 H 0.06454 0.03161 0.13208
 H2467 H 0.02863 -0.00325 0.06921
 H2468 H 0.00614 0.04107 0.06128
 H2469 H 0.05483 0.02231 0.10725
 H2470 H 0.03687 0.00542 0.09522
 H2471 H 0.01149 0.04733 0.11437
 H2472 H 0.01490 0.04997 0.08701
 C2473 C 0.03201 0.53376 0.60818
 C2474 C 0.03903 0.52355 0.61901
 C2475 C 0.04463 0.52904 0.63343
 C2476 C 0.04326 0.54485 0.63739
 C2477 C 0.03605 0.55502 0.62668
 C2478 C 0.03052 0.54955 0.61223
 C2479 C 0.02659 0.52804 0.59259
 C2480 C 0.01274 0.53383 0.58577
 C2481 C 0.00794 0.52878 0.57089
 C2482 C 0.01684 0.51776 0.56253
 C2483 C 0.03060 0.51185 0.56944
 C2484 C 0.03542 0.51695 0.58427
 H2485 H 0.04991 0.52089 0.64155
 H2486 H 0.03504 0.56730 0.62929
 H2487 H -0.00274 0.53354 0.56595
 H2488 H 0.03783 0.50346 0.56328
 H2489 H 0.02542 0.55777 0.60405
 H2490 H 0.00555 0.54222 0.59196
 H2491 H 0.04011 0.51128 0.61639
 H2492 H 0.04629 0.51245 0.58906
 C2493 C 0.53034 0.03234 0.61115
 C2494 C 0.52103 0.04197 0.62070
 C2495 C 0.52656 0.04726 0.63523
 C2496 C 0.54158 0.04296 0.64078
 C2497 C 0.55071 0.03301 0.63122
 C2498 C 0.54521 0.02789 0.61664
 C2499 C 0.52480 0.02727 0.59536
 C2500 C 0.52865 0.01244 0.58951
 C2501 C 0.52424 0.00802 0.57432
 C2502 C 0.51572 0.01825 0.56468
 C2503 C 0.51151 0.03291 0.57065
 C2504 C 0.51606 0.03740 0.58578
 H2505 H 0.51879 0.05446 0.64215
 H2506 H 0.56242 0.02952 0.63453
 H2507 H 0.52755 -0.00341 0.57011
 H2508 H 0.50505 0.04112 0.56348
 H2509 H 0.55287 0.02076 0.60946
 H2510 H 0.53509 0.00422 0.59666
 H2511 H 0.50935 0.04536 0.61700
 H2512 H 0.51311 0.04899 0.58978
 C2513 C 0.52896 0.53152 0.11172
 C2514 C 0.52746 0.54727 0.11593
 C2515 C 0.53256 0.55251 0.13062
 C2516 C 0.53934 0.54215 0.14143
 C2517 C 0.54069 0.52638 0.13731
 C2518 C 0.53553 0.52111 0.12263
 C2519 C 0.52403 0.52609 0.09587
 C2520 C 0.53310 0.51516 0.08758
 C2521 C 0.52884 0.51053 0.07241
 C2522 C 0.51542 0.51678 0.06515
 C2523 C 0.50621 0.52753 0.07354
 C2524 C 0.51045 0.53210 0.08873
 H2525 H 0.53159 0.56477 0.13333
 H2526 H 0.54565 0.51808 0.14548
 H2527 H 0.53626 0.50230 0.06627
 H2528 H 0.49575 0.53250 0.06835
 H2529 H 0.53661 0.50887 0.11987
 H2530 H 0.54375 0.51047 0.09265
 H2531 H 0.52271 0.55564 0.10770
 H2532 H 0.50306 0.54035 0.09489
 C2533 C 0.21820 0.53400 0.64009
 C2534 C 0.21944 0.54991 0.63650
 C2535 C 0.21381 0.55568 0.62222
 C2536 C 0.20673 0.54569 0.61122
 C2537 C 0.20559 0.52977 0.61475
 C2538 C 0.21128 0.52398 0.62901
 C2539 C 0.22380 0.52798 0.65549
 C2540 C 0.21515 0.51663 0.66366
 C2541 C 0.22008 0.51140 0.67841
 C2542 C 0.23378 0.51742 0.68537
 C2543 C 0.24255 0.52862 0.67709
 C2544 C 0.23764 0.53380 0.66232
 H2545 H 0.21462 0.56804 0.61997
 H2546 H 0.20041 0.52176 0.60642
 H2547 H 0.21297 0.50285 0.68449
 H2548 H 0.25319 0.53346 0.68206
 H2549 H 0.21038 0.51163 0.63131
 H2550 H 0.20432 0.51207 0.65884
 H2551 H 0.22444 0.55799 0.64488
 H2552 H 0.24470 0.54237 0.65622
 C2553 C 0.22008 0.03167 0.13849
 C2554 C 0.21315 0.02158 0.12748
 C2555 C 0.20759 0.02725 0.11312
 C2556 C 0.20889 0.04312 0.10941
 C2557 C 0.21599 0.05317 0.12033
 C2558 C 0.22149 0.04752 0.13470
 C2559 C 0.22541 0.02585 0.15406
 C2560 C 0.23915 0.03173 0.16103
 C2561 C 0.24364 0.02698 0.17608
 C2562 C 0.23453 0.01616 0.18450
 C2563 C 0.22101 0.00996 0.17735
 C2564 C 0.21650 0.01477 0.16232
 H2565 H 0.20237 0.01920 0.10485
 H2566 H 0.21692 0.06550 0.11796
 H2567 H 0.25417 0.03192 0.18118
 H2568 H 0.21367 0.00168 0.18352
 H2569 H 0.22648 0.05567 0.14303
 H2570 H 0.24642 0.04008 0.15487
 H2571 H 0.21210 0.00926 0.12994
 H2572 H 0.20574 0.01016 0.15738
 C2573 C 0.71827 0.21681 0.60988
 C2574 C 0.71985 0.20103 0.61393
 C2575 C 0.71480 0.19563 0.62858
 C2576 C 0.70798 0.20586 0.63953
 C2577 C 0.70646 0.22165 0.63553
 C2578 C 0.71157 0.22706 0.62088
 C2579 C 0.72340 0.22246 0.59416
 C2580 C 0.71443 0.23350 0.58592
 C2581 C 0.71903 0.23851 0.57097
 C2582 C 0.73270 0.23257 0.56388
 C2583 C 0.74174 0.22163 0.57218
 C2584 C 0.73716 0.21666 0.58715
 H2585 H 0.71588 0.18337 0.63119
 H2586 H 0.70147 0.22984 0.64379
 H2587 H 0.71172 0.24686 0.56488
 H2588 H 0.75237 0.21686 0.56712
 H2589 H 0.71042 0.23933 0.61824
 H2590 H 0.70365 0.23802 0.59089
 H2591 H 0.72470 0.19277 0.60563
 H2592 H 0.74446 0.20833 0.59328
 C2593 C 0.71897 0.71772 0.11116
 C2594 C 0.71244 0.72809 0.12216
 C2595 C 0.70732 0.72278 0.13683
 C2596 C 0.70867 0.70699 0.14087
 C2597 C 0.71533 0.69665 0.12994
 C2598 C 0.72040 0.70194 0.11525
 C2599 C 0.72405 0.72326 0.09540
 C2600 C 0.73769 0.71728 0.08829
 C2601 C 0.74223 0.72217 0.07329
 C2602 C 0.73327 0.73323 0.06505
 C2603 C 0.71971 0.73932 0.07222
 C2604 C 0.71515 0.73438 0.08720
 H2605 H 0.70244 0.73105 0.14509
 H2606 H 0.71628 0.68438 0.13259
 H2607 H 0.75276 0.71728 0.06815
 H2608 H 0.71246 0.74776 0.06617
 H2609 H 0.72511 0.69360 0.10696
 H2610 H 0.74493 0.70887 0.09438
 H2611 H 0.71142 0.74036 0.11948
 H2612 H 0.70445 0.73903 0.09223
 C2613 C 0.52980 0.71799 0.13858
 C2614 C 0.53667 0.72829 0.12772
 C2615 C 0.54206 0.72291 0.11317
 C2616 C 0.54063 0.70713 0.10911
 C2617 C 0.53354 0.69689 0.11985
 C2618 C 0.52822 0.70224 0.13442
 C2619 C 0.52471 0.72352 0.15435
 C2620 C 0.51101 0.71760 0.16140
 C2621 C 0.50667 0.72221 0.17656
 C2622 C 0.51589 0.73292 0.18499
 C2623 C 0.52940 0.73909 0.17780
 C2624 C 0.53377 0.73442 0.16268
 H2625 H 0.54727 0.73111 0.10503
 H2626 H 0.53250 0.68462 0.11718
 H2627 H 0.49614 0.71729 0.18170
 H2628 H 0.53683 0.74728 0.18398
 H2629 H 0.52325 0.69394 0.14261
 H2630 H 0.50364 0.70937 0.15521
 H2631 H 0.53782 0.74054 0.13045
 H2632 H 0.54451 0.73903 0.15769
 C2633 C 0.03186 0.71729 0.63974
 C2634 C 0.03873 0.72732 0.62864
 C2635 C 0.04415 0.72158 0.61423
 C2636 C 0.04280 0.70569 0.61059
 C2637 C 0.03580 0.69569 0.62163
 C2638 C 0.03043 0.70141 0.63604
 C2639 C 0.02651 0.72322 0.65527
 C2640 C 0.01269 0.71746 0.66221
 C2641 C 0.00811 0.72236 0.67719
 C2642 C 0.01721 0.73319 0.68560
 C2643 C 0.03082 0.73926 0.67849
 C2644 C 0.03542 0.73431 0.66351
 H2645 H 0.04928 0.72961 0.60587
 H2646 H 0.03484 0.68336 0.61932
 H2647 H -0.00249 0.71751 0.68225
 H2648 H 0.03816 0.74755 0.68465
 H2649 H 0.02548 0.69332 0.64445
 H2650 H 0.00542 0.70911 0.65606
 H2651 H 0.03980 0.73964 0.63103
 H2652 H 0.04623 0.73884 0.65858
 C2653 C 0.53022 0.63873 0.22084
 C2654 C 0.51964 0.62794 0.21434
 C2655 C 0.52490 0.61344 0.20909
 C2656 C 0.54083 0.60935 0.21030
 C2657 C 0.55136 0.62004 0.21700
 C2658 C 0.54613 0.63457 0.22218
 C2659 C 0.52480 0.65442 0.22584
 C2660 C 0.53107 0.66155 0.23933
 C2661 C 0.52655 0.67660 0.24358
 C2662 C 0.51560 0.68487 0.23447
 C2663 C 0.50907 0.67761 0.22117
 C2664 C 0.51364 0.66258 0.21689
 H2665 H 0.51647 0.60535 0.20419
 H2666 H 0.56374 0.61736 0.21786
 H2667 H 0.53175 0.68179 0.25395
 H2668 H 0.50067 0.68366 0.21383
 H2669 H 0.55464 0.64270 0.22686
 H2670 H 0.53949 0.65548 0.24662
 H2671 H 0.50727 0.63068 0.21337
 H2672 H 0.50874 0.65753 0.20631
 C2673 C 0.03199 0.63970 0.71887
 C2674 C 0.02183 0.62884 0.71183
 C2675 C 0.02760 0.61471 0.70611
 C2676 C 0.04365 0.61109 0.70732
 C2677 C 0.05377 0.62185 0.71454
 C2678 C 0.04801 0.63599 0.72021
 C2679 C 0.02603 0.65500 0.72442
 C2680 C 0.03192 0.66173 0.73828
 C2681 C 0.02706 0.67654 0.74299
 C2682 C 0.01613 0.68495 0.73398
 C2683 C 0.00990 0.67804 0.72036
 C2684 C 0.01481 0.66325 0.71562
 H2685 H 0.01948 0.60656 0.70082
 H2686 H 0.06622 0.61953 0.71542
 H2687 H 0.03203 0.68145 0.75360
 H2688 H 0.00153 0.68421 0.71309
 H2689 H 0.05621 0.64421 0.72529
 H2690 H 0.04036 0.65558 0.74547
 H2691 H 0.00939 0.63124 0.71084
 H2692 H 0.01019 0.65848 0.70478
 C2693 C 0.03376 0.10757 0.03305
 C2694 C 0.03258 0.11115 0.04914
 C2695 C 0.03824 0.12528 0.05494
 C2696 C 0.04527 0.13615 0.04481
 C2697 C 0.04647 0.13259 0.02872
 C2698 C 0.04075 0.11847 0.02290
 C2699 C 0.02793 0.09241 0.02698
 C2700 C 0.03644 0.08420 0.01549
 C2701 C 0.03130 0.06966 0.01025
 C2702 C 0.01754 0.06295 0.01641
 C2703 C 0.00889 0.07128 0.02772
 C2704 C 0.01402 0.08584 0.03292
 H2705 H 0.03739 0.12755 0.06743
 H2706 H 0.05163 0.14082 0.02059
 H2707 H 0.03832 0.06354 0.00162
 H2708 H -0.00178 0.06650 0.03269
 H2709 H 0.04164 0.11616 0.01041
 H2710 H 0.04732 0.08884 0.01084
 H2711 H 0.02755 0.10289 0.05734
 H2712 H 0.00705 0.09197 0.04159
 C2713 C 0.03271 0.60798 0.53174
 C2714 C 0.03114 0.61192 0.54771
 C2715 C 0.03648 0.62626 0.55329
 C2716 C 0.04357 0.63699 0.54304
 C2717 C 0.04511 0.63309 0.52705
 C2718 C 0.03972 0.61876 0.52146
 C2719 C 0.02723 0.59261 0.52591
 C2720 C 0.03608 0.58426 0.51479
 C2721 C 0.03119 0.56956 0.50972
 C2722 C 0.01734 0.56286 0.51569
 C2723 C 0.00838 0.57133 0.52665
 C2724 C 0.01325 0.58603 0.53167
 H2725 H 0.03537 0.62880 0.56571
 H2726 H 0.05031 0.64120 0.51883
 H2727 H 0.03844 0.56333 0.50136
 H2728 H -0.00238 0.56657 0.53144
 H2729 H 0.04088 0.61618 0.50905
 H2730 H 0.04701 0.58891 0.51028
 H2731 H 0.02607 0.60378 0.55600
 H2732 H 0.00603 0.59227 0.54005
 C2733 C 0.52987 0.11197 0.52920
 C2734 C 0.53687 0.12264 0.51880
 C2735 C 0.54213 0.13708 0.52422
 C2736 C 0.54046 0.14120 0.54013
 C2737 C 0.53333 0.13059 0.55048
 C2738 C 0.52812 0.11614 0.54509
 C2739 C 0.52474 0.09638 0.52365
 C2740 C 0.51090 0.08960 0.52950
 C2741 C 0.50656 0.07457 0.52503
 C2742 C 0.51593 0.06597 0.51454
 C2743 C 0.52956 0.07292 0.50836
 C2744 C 0.53393 0.08794 0.51288
 H2745 H 0.54739 0.14510 0.51593
 H2746 H 0.53213 0.13328 0.56286
 H2747 H 0.49593 0.06964 0.52995
 H2748 H 0.53710 0.06661 0.50032
 H2749 H 0.52307 0.10808 0.55347
 H2750 H 0.50342 0.09591 0.53760
 H2751 H 0.53818 0.11986 0.50645
 H2752 H 0.54476 0.09275 0.50831
 C2753 C 0.53052 0.61074 0.02969
 C2754 C 0.52020 0.62175 0.03624
 C2755 C 0.52582 0.63608 0.04160
 C2756 C 0.54188 0.63975 0.04052
 C2757 C 0.55215 0.62882 0.03379
 C2758 C 0.54655 0.61449 0.02847
 C2759 C 0.52470 0.59526 0.02451
 C2760 C 0.53080 0.58819 0.01091
 C2761 C 0.52603 0.57326 0.00653
 C2762 C 0.51498 0.56504 0.01562
 C2763 C 0.50857 0.57228 0.02900
 C2764 C 0.51339 0.58721 0.03340
 H2765 H 0.51758 0.64435 0.04651
 H2766 H 0.56461 0.63117 0.03303
 H2767 H 0.53115 0.56810 -0.00390
 H2768 H 0.50010 0.56628 0.03632
 H2769 H 0.55486 0.60616 0.02376
 H2770 H 0.53933 0.59419 0.00366
 H2771 H 0.50775 0.61933 0.03712
 H2772 H 0.50860 0.59225 0.04404
 C2773 C 0.71826 0.14143 0.53180
 C2774 C 0.72273 0.13581 0.54663
 C2775 C 0.71761 0.12127 0.55191
 C2776 C 0.70762 0.11193 0.54259
 C2777 C 0.70328 0.11764 0.52763
 C2778 C 0.70859 0.13210 0.52232
 C2779 C 0.72343 0.15709 0.52637
 C2780 C 0.71329 0.16657 0.51753
 C2781 C 0.71798 0.18140 0.51273
 C2782 C 0.73287 0.18719 0.51680
 C2783 C 0.74305 0.17772 0.52558
 C2784 C 0.73843 0.16282 0.53023
 H2785 H 0.72111 0.11779 0.56359
 H2786 H 0.69608 0.11090 0.51972
 H2787 H 0.70978 0.18848 0.50613
 H2788 H 0.75464 0.18181 0.52882
 H2789 H 0.70521 0.13590 0.51066
 H2790 H 0.70156 0.16269 0.51460
 H2791 H 0.72991 0.14280 0.55440
 H2792 H 0.74665 0.15574 0.53678
 C2793 C 0.71721 0.64246 0.03224
 C2794 C 0.72767 0.63161 0.03881
 C2795 C 0.72227 0.61715 0.04406
 C2796 C 0.70631 0.61319 0.04280
 C2797 C 0.69588 0.62398 0.03612
 C2798 C 0.70125 0.63845 0.03094
 C2799 C 0.72283 0.65800 0.02703
 C2800 C 0.71672 0.66498 0.01339
 C2801 C 0.72163 0.67981 0.00878
 C2802 C 0.73284 0.68799 0.01766
 C2803 C 0.73912 0.68092 0.03119
 C2804 C 0.73415 0.66612 0.03582
 H2805 H 0.73062 0.60900 0.04895
 H2806 H 0.68348 0.62138 0.03523
 H2807 H 0.71660 0.68487 -0.00173
 H2808 H 0.74768 0.68693 0.03838
 H2809 H 0.69283 0.64664 0.02621
 H2810 H 0.70816 0.65894 0.00622
 H2811 H 0.74007 0.63423 0.03975
 H2812 H 0.73892 0.66119 0.04651
 C2813 C 0.21879 0.60811 0.71635
 C2814 C 0.21973 0.61202 0.70032
 C2815 C 0.21432 0.62641 0.69498
 C2816 C 0.20778 0.63721 0.70552
 C2817 C 0.20692 0.63335 0.72156
 C2818 C 0.21238 0.61897 0.72692
 C2819 C 0.22423 0.59265 0.72195
 C2820 C 0.21567 0.58447 0.73342
 C2821 C 0.22050 0.56973 0.73834
 C2822 C 0.23400 0.56279 0.73188
 C2823 C 0.24266 0.57105 0.72053
 C2824 C 0.23784 0.58581 0.71564
 H2825 H 0.21491 0.62892 0.68252
 H2826 H 0.20216 0.64152 0.72999
 H2827 H 0.21347 0.56367 0.74702
 H2828 H 0.25314 0.56609 0.71534
 H2829 H 0.21172 0.61642 0.73937
 H2830 H 0.20500 0.58931 0.73834
 H2831 H 0.22435 0.60381 0.69184
 H2832 H 0.24483 0.59190 0.70696
 C2833 C 0.21923 0.10996 0.21905
 C2834 C 0.22938 0.12093 0.21215
 C2835 C 0.22357 0.13513 0.20663
 C2836 C 0.20751 0.13869 0.20792
 C2837 C 0.19741 0.12777 0.21492
 C2838 C 0.20319 0.11358 0.22039
 C2839 C 0.22519 0.09463 0.22446
 C2840 C 0.21925 0.08778 0.23825
 C2841 C 0.22405 0.07291 0.24280
 C2842 C 0.23496 0.06455 0.23370
 C2843 C 0.24125 0.07160 0.22015
 C2844 C 0.23640 0.08645 0.21558
 H2845 H 0.23167 0.14339 0.20148
 H2846 H 0.18494 0.13001 0.21582
 H2847 H 0.21904 0.06790 0.25336
 H2848 H 0.24962 0.06548 0.21282
 H2849 H 0.19500 0.10527 0.22533
 H2850 H 0.21081 0.09389 0.24551
 H2851 H 0.24183 0.11858 0.21113
 H2852 H 0.24107 0.09132 0.20480
 C2853 C 0.71999 1.10967 0.71941
 C2854 C 0.73027 1.12045 0.71239
 C2855 C 0.72468 1.13477 0.70696
 C2856 C 0.70873 1.13866 0.70849
 C2857 C 0.69850 1.12795 0.71563
 C2858 C 0.70405 1.11362 0.72099
 C2859 C 0.72573 1.09420 0.72469
 C2860 C 0.71980 1.08736 0.73848
 C2861 C 0.72446 1.07241 0.74293
 C2862 C 0.73522 1.06397 0.73373
 C2863 C 0.74148 1.07099 0.72016
 C2864 C 0.73677 1.08592 0.71568
 H2865 H 0.73288 1.14287 0.70170
 H2866 H 0.68610 1.13048 0.71673
 H2867 H 0.71947 1.06741 0.75351
 H2868 H 0.74972 1.06481 0.71274
 H2869 H 0.69576 1.10548 0.72604
 H2870 H 0.71150 1.09353 0.74584
 H2871 H 0.74265 1.11786 0.71120
 H2872 H 0.74141 1.09076 0.70488
 C2873 C 0.71926 0.61037 0.22011
 C2874 C 0.72974 0.62113 0.21339
 C2875 C 0.72440 0.63560 0.20814
 C2876 C 0.70848 0.63966 0.20955
 C2877 C 0.69804 0.62897 0.21641
 C2878 C 0.70335 0.61449 0.22159
 C2879 C 0.72474 0.59476 0.22521
 C2880 C 0.71861 0.58780 0.23885
 C2881 C 0.72310 0.57277 0.24317
 C2882 C 0.73391 0.56437 0.23399
 C2883 C 0.74035 0.57148 0.22056
 C2884 C 0.73579 0.58649 0.21620
 H2885 H 0.73275 0.64367 0.20309
 H2886 H 0.68566 0.63164 0.21742
 H2887 H 0.71799 0.56770 0.25365
 H2888 H 0.74863 0.56532 0.21316
 H2889 H 0.69490 0.60638 0.22642
 H2890 H 0.71029 0.59396 0.24620
 H2891 H 0.74211 0.61840 0.21229
 H2892 H 0.74059 0.59143 0.20551
 C2893 C 0.53023 0.13871 0.71965
 C2894 C 0.54514 0.13332 0.72409
 C2895 C 0.55066 0.11889 0.71892
 C2896 C 0.54152 0.10942 0.70889
 C2897 C 0.52644 0.11484 0.70467
 C2898 C 0.52088 0.12919 0.71003
 C2899 C 0.52467 0.15437 0.72467
 C2900 C 0.51572 0.16368 0.71444
 C2901 C 0.51109 0.17864 0.71886
 C2902 C 0.51544 0.18475 0.73356
 C2903 C 0.52418 0.17540 0.74390
 C2904 C 0.52865 0.16036 0.73955
 H2905 H 0.56240 0.11563 0.72238
 H2906 H 0.51865 0.10795 0.69746
 H2907 H 0.50448 0.18560 0.71056
 H2908 H 0.52760 0.17973 0.75536
 H2909 H 0.50917 0.13278 0.70668
 H2910 H 0.51266 0.15958 0.70279
 H2911 H 0.55282 0.14045 0.73123
 H2912 H 0.53525 0.15343 0.74786
 C2913 C 1.03174 0.14103 0.21782
 C2914 C 1.04770 0.13712 0.21933
 C2915 C 1.05329 0.12282 0.21390
 C2916 C 1.04307 0.11209 0.20677
 C2917 C 1.02710 0.11596 0.20531
 C2918 C 1.02149 0.13025 0.21080
 C2919 C 1.02593 0.15641 0.22332
 C2920 C 1.01479 0.16473 0.21449
 C2921 C 1.00980 0.17947 0.21935
 C2922 C 1.01587 0.18625 0.23312
 C2923 C 1.02684 0.17781 0.24206
 C2924 C 1.03177 0.16307 0.23723
 H2925 H 1.06569 0.12033 0.21494
 H2926 H 1.01891 0.10785 0.20006
 H2927 H 1.00142 0.18566 0.21211
 H2928 H 1.03170 0.18263 0.25277
 H2929 H 1.00909 0.13280 0.20967
 H2930 H 1.01021 0.16003 0.20361
 H2931 H 1.05597 0.14527 0.22440
 H2932 H 1.04017 0.15686 0.24444
 C2933 C 0.21631 0.64304 0.53229
 C2934 C 0.20029 0.63927 0.53112
 C2935 C 0.19468 0.62502 0.53667
 C2936 C 0.20494 0.61421 0.54358
 C2937 C 0.22098 0.61794 0.54470
 C2938 C 0.22661 0.63217 0.53909
 C2939 C 0.22218 0.65834 0.52667
 C2940 C 0.23360 0.66655 0.53526
 C2941 C 0.23871 0.68119 0.53028
 C2942 C 0.23249 0.68801 0.51660
 C2943 C 0.22124 0.67970 0.50789
 C2944 C 0.21617 0.66504 0.51284
 H2945 H 0.18223 0.62261 0.53588
 H2946 H 0.22921 0.60976 0.54975
 H2947 H 0.24730 0.68730 0.53735
 H2948 H 0.21624 0.68456 0.49726
 H2949 H 0.23905 0.63461 0.53994
 H2950 H 0.23831 0.66182 0.54608
 H2951 H 0.19200 0.64749 0.52622
 H2952 H 0.20755 0.65892 0.50582
 C2953 C 0.21797 0.14141 1.03209
 C2954 C 0.22839 0.13042 1.03846
 C2955 C 0.22290 0.11600 1.04370
 C2956 C 0.20688 0.11222 1.04264
 C2957 C 0.19648 0.12316 1.03615
 C2958 C 0.20195 0.13759 1.03096
 C2959 C 0.22369 0.15689 1.02684
 C2960 C 0.21758 0.16387 1.01322
 C2961 C 0.22256 0.17866 1.00857
 C2962 C 0.23383 0.18680 1.01742
 C2963 C 0.24011 0.17973 1.03094
 C2964 C 0.23509 0.16495 1.03560
 H2965 H 0.23122 0.10773 1.04843
 H2966 H 0.18404 0.12072 1.03542
 H2967 H 0.21751 0.18372 0.99808
 H2968 H 0.24872 0.18571 1.03810
 H2969 H 0.19357 0.14590 1.02638
 H2970 H 0.20896 0.15787 1.00609
 H2971 H 0.24083 0.13292 1.03927
 H2972 H 0.23987 0.16000 1.04627
 C2973 C 0.21685 0.71713 0.60855
 C2974 C 0.21807 0.70122 0.61216
 C2975 C 0.21289 0.69555 0.62665
 C2976 C 0.20632 0.70563 0.63788
 C2977 C 0.20506 0.72153 0.63428
 C2978 C 0.21029 0.72722 0.61978
 C2979 C 0.22227 0.72307 0.59305
 C2980 C 0.21359 0.73442 0.58494
 C2981 C 0.21843 0.73960 0.57012
 C2982 C 0.23206 0.73353 0.56305
 C2983 C 0.24084 0.72233 0.57128
 C2984 C 0.23603 0.71719 0.58610
 H2985 H 0.21375 0.68320 0.62893
 H2986 H 0.20024 0.72961 0.64277
 H2987 H 0.21132 0.74816 0.56409
 H2988 H 0.25143 0.71744 0.56623
 H2989 H 0.20938 0.73957 0.61745
 H2990 H 0.20284 0.73904 0.58988
 H2991 H 0.22278 0.69309 0.60365
 H2992 H 0.24311 0.70863 0.59214
 C2993 C 0.21755 0.21676 1.11005
 C2994 C 0.22687 0.20711 1.11954
 C2995 C 0.22126 0.20158 1.13395
 C2996 C 0.20615 0.20565 1.13945
 C2997 C 0.19699 0.21561 1.12995
 C2998 C 0.20256 0.22097 1.11548
 C2999 C 0.22329 0.22219 1.09444
 C3000 C 0.21946 0.23711 1.08885
 C3001 C 0.22437 0.24198 1.07395
 C3002 C 0.23340 0.23212 1.06436
 C3003 C 0.23746 0.21730 1.07002
 C3004 C 0.23240 0.21237 1.08485
 H3005 H 0.22907 0.19439 1.14083
 H3006 H 0.18521 0.21892 1.13325
 H3007 H 0.22114 0.25351 1.06996
 H3008 H 0.24425 0.20935 1.06285
 H3009 H 0.19492 0.22813 1.10835
 H3010 H 0.21271 0.24510 1.09602
 H3011 H 0.23863 0.20392 1.11591
 H3012 H 0.23533 0.20071 1.08862
 C3013 C 0.71880 0.53237 0.13882
 C3014 C 0.71212 0.52230 0.12765
 C3015 C 0.70673 0.52802 0.11323
 C3016 C 0.70795 0.54393 0.10964
 C3017 C 0.71478 0.55397 0.12074
 C3018 C 0.72011 0.54827 0.13516
 C3019 C 0.72405 0.52646 0.15439
 C3020 C 0.73769 0.53238 0.16152
 C3021 C 0.74216 0.52747 0.17652
 C3022 C 0.73312 0.51646 0.18477
 C3023 C 0.71968 0.51025 0.17748
 C3024 C 0.71519 0.51521 0.16249
 H3025 H 0.70173 0.51997 0.10483
 H3026 H 0.71564 0.56632 0.11847
 H3027 H 0.75263 0.53244 0.18172
 H3028 H 0.71240 0.50181 0.18351
 H3029 H 0.72492 0.55640 0.14361
 H3030 H 0.74492 0.54086 0.15549
 H3031 H 0.71115 0.50996 0.13000
 H3032 H 0.70451 0.51056 0.15743
 C3033 C 0.71939 1.03201 0.63862
 C3034 C 0.71285 1.02190 0.62739
 C3035 C 0.70743 1.02763 0.61299
 C3036 C 0.70845 1.04357 0.60949
 C3037 C 0.71508 1.05365 0.62068
 C3038 C 0.72046 1.04794 0.63508
 C3039 C 0.72475 1.02608 0.65413
 C3040 C 0.73836 1.03210 0.66122
 C3041 C 0.74294 1.02716 0.67619
 C3042 C 0.73404 1.01603 0.68441
 C3043 C 0.72063 1.00972 0.67714
 C3044 C 0.71604 1.01470 0.66219
 H3045 H 0.70258 1.01955 0.60452
 H3046 H 0.71579 1.06602 0.61847
 H3047 H 0.75337 1.03221 0.68137
 H3048 H 0.71345 1.00118 0.68315
 H3049 H 0.72514 1.05608 0.64359
 H3050 H 0.74548 1.04068 0.65521
 H3051 H 0.71206 1.00954 0.62967
 H3052 H 0.70539 1.00997 0.65714
 C3053 C 0.53028 0.21912 0.63834
 C3054 C 0.53714 0.22949 0.62754
 C3055 C 0.54232 0.22423 0.61286
 C3056 C 0.54070 0.20852 0.60863
 C3057 C 0.53371 0.19819 0.61937
 C3058 C 0.52859 0.20342 0.63405
 C3059 C 0.52521 0.22452 0.65416
 C3060 C 0.51146 0.21862 0.66112
 C3061 C 0.50713 0.22307 0.67632
 C3062 C 0.51641 0.23359 0.68491
 C3063 C 0.52998 0.23976 0.67782
 C3064 C 0.53434 0.23526 0.66264
 H3065 H 0.54748 0.23249 0.60476
 H3066 H 0.53256 0.18597 0.61659
 H3067 H 0.49655 0.21816 0.68137
 H3068 H 0.53745 0.24782 0.68412
 H3069 H 0.52365 0.19507 0.64220
 H3070 H 0.50403 0.21053 0.65480
 H3071 H 0.53840 0.24170 0.63039
 H3072 H 0.54511 0.23986 0.65771
 C3073 C 1.03285 0.21573 0.14146
 C3074 C 1.04276 0.22481 0.13197
 C3075 C 1.04851 0.21905 0.11772
 C3076 C 1.04441 0.20404 0.11237
 C3077 C 1.03415 0.19513 0.12184
 C3078 C 1.02857 0.20085 0.13618
 C3079 C 1.02727 0.22162 0.15696
 C3080 C 1.01212 0.21799 0.16248
 C3081 C 1.00713 0.22306 0.17729
 C3082 C 1.01709 0.23203 0.18684
 C3083 C 1.03212 0.23589 0.18123
 C3084 C 1.03718 0.23068 0.16651
 H3085 H 1.05590 0.22667 0.11083
 H3086 H 1.03078 0.18344 0.11863
 H3087 H 0.99544 0.21996 0.18124
 H3088 H 1.04016 0.24262 0.18838
 H3089 H 1.02120 0.19340 0.14332
 H3090 H 1.00408 0.21128 0.15534
 H3091 H 1.04600 0.23648 0.13548
 H3092 H 1.04901 0.23345 0.16279
 C3093 C 0.61122 0.21736 0.71984
 C3094 C 0.61521 0.20156 0.72130
 C3095 C 0.62971 0.19610 0.71594
 C3096 C 0.64055 0.20630 0.70892
 C3097 C 0.63664 0.22211 0.70756
 C3098 C 0.62215 0.22759 0.71299
 C3099 C 0.59556 0.22300 0.72505
 C3100 C 0.58730 0.23402 0.71609
 C3101 C 0.57226 0.23878 0.72055
 C3102 C 0.56506 0.23258 0.73407
 C3103 C 0.57343 0.22176 0.74319
 C3104 C 0.58851 0.21706 0.73876
 H3105 H 0.63226 0.18382 0.71692
 H3106 H 0.64484 0.23027 0.70241
 H3107 H 0.56613 0.24706 0.71319
 H3108 H 0.56829 0.21682 0.75372
 H3109 H 0.61955 0.23987 0.71191
 H3110 H 0.59229 0.23867 0.70535
 H3111 H 0.60696 0.19331 0.72624
 H3112 H 0.59465 0.20874 0.74606
 C3113 C 1.10827 0.21553 0.21809
 C3114 C 1.11232 0.19974 0.21955
 C3115 C 1.12681 0.19434 0.21410
 C3116 C 1.13755 0.20457 0.20699
 C3117 C 1.13355 0.22035 0.20559
 C3118 C 1.11909 0.22578 0.21112
 C3119 C 1.09269 0.22119 0.22354
 C3120 C 1.08437 0.23230 0.21474
 C3121 C 1.06957 0.23737 0.21962
 C3122 C 1.06268 0.23141 0.23340
 C3123 C 1.07103 0.22038 0.24227
 C3124 C 1.08588 0.21536 0.23742
 H3125 H 1.12945 0.18207 0.21512
 H3126 H 1.14169 0.22854 0.20038
 H3127 H 1.06342 0.24577 0.21242
 H3128 H 1.06610 0.21558 0.25296
 H3129 H 1.11645 0.23805 0.21006
 H3130 H 1.08915 0.23684 0.20387
 H3131 H 1.10415 0.19148 0.22460
 H3132 H 1.09208 0.20696 0.24459
 C3133 C 0.14036 0.71682 0.53122
 C3134 C 0.13666 0.70094 0.52996
 C3135 C 0.12223 0.69530 0.53532
 C3136 C 0.11118 0.70540 0.54214
 C3137 C 0.11483 0.72130 0.54333
 C3138 C 0.12925 0.72695 0.53790
 C3139 C 0.15588 0.72271 0.52586
 C3140 C 0.16398 0.73400 0.53464
 C3141 C 0.17881 0.73915 0.52988
 C3142 C 0.18591 0.73311 0.51625
 C3143 C 0.17772 0.72195 0.50737
 C3144 C 0.16288 0.71683 0.51210
 H3145 H 0.11989 0.68296 0.53449
 H3146 H 0.10647 0.72939 0.54832
 H3147 H 0.18482 0.74768 0.53707
 H3148 H 0.18280 0.71708 0.49677
 H3149 H 0.13164 0.73929 0.53882
 H3150 H 0.15903 0.73859 0.54541
 H3151 H 0.14507 0.69278 0.52514
 H3152 H 0.15684 0.70830 0.50495
 C3153 C 0.14180 0.21643 1.03352
 C3154 C 0.13106 0.20936 1.02319
 C3155 C 0.11669 0.20368 1.02875
 C3156 C 0.11271 0.20502 1.04474
 C3157 C 0.12340 0.21219 1.05503
 C3158 C 0.13778 0.21780 1.04950
 C3159 C 0.15727 0.22212 1.02777
 C3160 C 0.16380 0.23593 1.03374
 C3161 C 0.17864 0.24093 1.02884
 C3162 C 0.18728 0.23229 1.01778
 C3163 C 0.18063 0.21861 1.01160
 C3164 C 0.16582 0.21358 1.01655
 H3165 H 0.10861 0.19840 1.02051
 H3166 H 0.12082 0.21314 1.06746
 H3167 H 0.18336 0.25156 1.03379
 H3168 H 0.18699 0.21160 1.00315
 H3169 H 0.14590 0.22290 1.05783
 H3170 H 0.15742 0.24292 1.04220
 H3171 H 0.13370 0.20833 1.01077
 H3172 H 0.16123 0.20278 1.01188
 C3173 C 0.63794 0.53026 0.21939
 C3174 C 0.62720 0.53692 0.23001
 C3175 C 0.61258 0.54224 0.22480
 C3176 C 0.60836 0.54096 0.20888
 C3177 C 0.61902 0.53415 0.19830
 C3178 C 0.63365 0.52890 0.20349
 C3179 C 0.65372 0.52511 0.22476
 C3180 C 0.66062 0.51159 0.21853
 C3181 C 0.67577 0.50716 0.22298
 C3182 C 0.68436 0.51611 0.23383
 C3183 C 0.67731 0.52945 0.24031
 C3184 C 0.66219 0.53391 0.23581
 H3185 H 0.60453 0.54724 0.23325
 H3186 H 0.61623 0.53324 0.18593
 H3187 H 0.68078 0.49677 0.21782
 H3188 H 0.68361 0.53667 0.24863
 H3189 H 0.64175 0.52410 0.19495
 H3190 H 0.65431 0.50441 0.21019
 H3191 H 0.63004 0.53793 0.24238
 H3192 H 0.65731 0.54449 0.24067
 C3193 C 0.63988 1.03187 0.71829
 C3194 C 0.63587 1.03078 0.70229
 C3195 C 0.62143 1.03633 0.69691
 C3196 C 0.61067 1.04317 0.70737
 C3197 C 0.61465 1.04426 0.72337
 C3198 C 0.62908 1.03864 0.72878
 C3199 C 0.65541 1.02625 0.72390
 C3200 C 0.66388 1.03470 0.73522
 C3201 C 0.67881 1.02983 0.73993
 C3202 C 0.68566 1.01642 0.73338
 C3203 C 0.67705 1.00780 0.72229
 C3204 C 0.66209 1.01264 0.71763
 H3205 H 0.61884 1.03557 0.68448
 H3206 H 0.60651 1.04927 0.73173
 H3207 H 0.68513 1.03681 0.74843
 H3208 H 0.68192 0.99737 0.71706
 H3209 H 0.63171 1.03946 0.74121
 H3210 H 0.65917 1.04534 0.74013
 H3211 H 0.64404 1.02593 0.69385
 H3212 H 0.65576 1.00572 0.70909
 C3213 C 0.85881 0.46658 0.28151
 C3214 C 0.86287 0.45080 0.28007
 C3215 C 0.87746 0.44547 0.28527
 C3216 C 0.88832 0.45577 0.29210
 C3217 C 0.88428 0.47155 0.29350
 C3218 C 0.86971 0.47691 0.28824
 C3219 C 0.84316 0.47217 0.27624
 C3220 C 0.83485 0.48325 0.28511
 C3221 C 0.81996 0.48820 0.28039
 C3222 C 0.81299 0.48216 0.26669
 C3223 C 0.82136 0.47118 0.25774
 C3224 C 0.83628 0.46627 0.26244
 H3225 H 0.88011 0.43320 0.28427
 H3226 H 0.89249 0.47980 0.29850
 H3227 H 0.81381 0.49658 0.28764
 H3228 H 0.81638 0.46633 0.24710
 H3229 H 0.86704 0.48917 0.28930
 H3230 H 0.83971 0.48784 0.29592
 H3231 H 0.85464 0.44249 0.27521
 H3232 H 0.84246 0.45790 0.25522
 C3233 C 0.85898 0.96479 0.78249
 C3234 C 0.86265 0.94888 0.78151
 C3235 C 0.87703 0.94331 0.78704
 C3236 C 0.88807 0.95351 0.79373
 C3237 C 0.88444 0.96943 0.79465
 C3238 C 0.87007 0.97501 0.78907
 C3239 C 0.84355 0.97065 0.77689
 C3240 C 0.83545 0.98215 0.78541
 C3241 C 0.82075 0.98738 0.78040
 C3242 C 0.81377 0.98121 0.76677
 C3243 C 0.82194 0.96981 0.75817
 C3244 C 0.83666 0.96462 0.76316
 H3245 H 0.87937 0.93096 0.78639
 H3246 H 0.89279 0.97760 0.79951
 H3247 H 0.81475 0.99607 0.78739
 H3248 H 0.81693 0.96483 0.74761
 H3249 H 0.86772 0.98737 0.78976
 H3250 H 0.84031 0.98686 0.79616
 H3251 H 0.85426 0.94066 0.77677
 H3252 H 0.84270 0.95591 0.75622
 C3253 C 0.39058 0.28227 0.78207
 C3254 C 0.37984 0.28901 0.77154
 C3255 C 0.36527 0.29440 0.77685
 C3256 C 0.36110 0.29313 0.79279
 C3257 C 0.37181 0.28632 0.80330
 C3258 C 0.38638 0.28098 0.79801
 C3259 C 0.40621 0.27680 0.77655
 C3260 C 0.41287 0.26313 0.78268
 C3261 C 0.42779 0.25827 0.77792
 C3262 C 0.43641 0.26693 0.76685
 C3263 C 0.42966 0.28049 0.76055
 C3264 C 0.41475 0.28537 0.76535
 H3265 H 0.35719 0.29941 0.76844
 H3266 H 0.36908 0.28542 0.81569
 H3267 H 0.43259 0.24774 0.78299
 H3268 H 0.43599 0.28751 0.75208
 H3269 H 0.39450 0.27614 0.80649
 H3270 H 0.40650 0.25613 0.79114
 H3271 H 0.38261 0.28997 0.75914
 H3272 H 0.41006 0.29607 0.76056
 C3273 C 0.88802 0.28096 0.28069
 C3274 C 0.88376 0.27948 0.29661
 C3275 C 0.86925 0.28491 0.30195
 C3276 C 0.85866 0.29203 0.29153
 C3277 C 0.86285 0.29342 0.27560
 C3278 C 0.87734 0.28792 0.27023
 C3279 C 0.90369 0.27561 0.27517
 C3280 C 0.91226 0.28441 0.26419
 C3281 C 0.92732 0.27980 0.25958
 C3282 C 0.93419 0.26631 0.26591
 C3283 C 0.92549 0.25735 0.27667
 C3284 C 0.91041 0.26193 0.28121
 H3285 H 0.86650 0.28391 0.31433
 H3286 H 0.85484 0.29865 0.26726
 H3287 H 0.93371 0.28703 0.25134
 H3288 H 0.93037 0.24685 0.28170
 H3289 H 0.88015 0.28902 0.25786
 H3290 H 0.90752 0.29511 0.25947
 H3291 H 0.89182 0.27445 0.30504
 H3292 H 0.90401 0.25475 0.28949
 C3293 C 0.36044 0.78365 0.46947
 C3294 C 0.36424 0.79949 0.47102
 C3295 C 0.37860 0.80518 0.46555
 C3296 C 0.38950 0.79520 0.45833
 C3297 C 0.38580 0.77933 0.45693
 C3298 C 0.37144 0.77361 0.46246
 C3299 C 0.34486 0.77778 0.47470
 C3300 C 0.33665 0.76678 0.46563
 C3301 C 0.32163 0.76190 0.47008
 C3302 C 0.31443 0.76794 0.48366
 C3303 C 0.32278 0.77869 0.49290
 C3304 C 0.33783 0.78352 0.48849
 H3305 H 0.38097 0.81751 0.46657
 H3306 H 0.39405 0.77132 0.45162
 H3307 H 0.31551 0.75367 0.46263
 H3308 H 0.31765 0.78351 0.50349
 H3309 H 0.36899 0.76131 0.46130
 H3310 H 0.34163 0.76229 0.45483
 H3311 H 0.35592 0.80759 0.47609
 H3312 H 0.34394 0.79180 0.49587
 C3313 C 0.36206 0.28175 0.97103
 C3314 C 0.36588 0.29758 0.97257
 C3315 C 0.38022 0.30326 0.96704
 C3316 C 0.39108 0.29326 0.95977
 C3317 C 0.38736 0.27739 0.95840
 C3318 C 0.37303 0.27169 0.96399
 C3319 C 0.34647 0.27591 0.97628
 C3320 C 0.33821 0.26496 0.96722
 C3321 C 0.32316 0.26016 0.97164
 C3322 C 0.31598 0.26626 0.98521
 C3323 C 0.32439 0.27695 0.99446
 C3324 C 0.33946 0.28169 0.99007
 H3325 H 0.38261 0.31558 0.96803
 H3326 H 0.39559 0.26938 0.95305
 H3327 H 0.31700 0.25198 0.96418
 H3328 H 0.31926 0.28182 1.00504
 H3329 H 0.37055 0.25939 0.96284
 H3330 H 0.34318 0.26043 0.95642
 H3331 H 0.35758 0.30570 0.97765
 H3332 H 0.34562 0.28995 0.99745
 C3333 C 0.78076 0.46678 0.35957
 C3334 C 0.77925 0.45106 0.36383
 C3335 C 0.78439 0.44587 0.37852
 C3336 C 0.79121 0.45627 0.38929
 C3337 C 0.79261 0.47202 0.38509
 C3338 C 0.78741 0.47722 0.37041
 C3339 C 0.77567 0.47220 0.34376
 C3340 C 0.78465 0.48315 0.33540
 C3341 C 0.78009 0.48799 0.32039
 C3342 C 0.76644 0.48195 0.31336
 C3343 C 0.75741 0.47105 0.32176
 C3344 C 0.76196 0.46626 0.33679
 H3345 H 0.78339 0.43363 0.38129
 H3346 H 0.79760 0.48034 0.39322
 H3347 H 0.78740 0.49630 0.31423
 H3348 H 0.74680 0.46620 0.31674
 H3349 H 0.78851 0.48946 0.36760
 H3350 H 0.79541 0.48777 0.34032
 H3351 H 0.77443 0.44266 0.35566
 H3352 H 0.75466 0.45797 0.34300
 C3353 C 0.78245 0.96553 0.85864
 C3354 C 0.78104 0.94977 0.86279
 C3355 C 0.78633 0.94449 0.87740
 C3356 C 0.79321 0.95484 0.88817
 C3357 C 0.79452 0.97062 0.88408
 C3358 C 0.78917 0.97591 0.86950
 C3359 C 0.77717 0.97108 0.84296
 C3360 C 0.78604 0.98214 0.83463
 C3361 C 0.78128 0.98715 0.81975
 C3362 C 0.76755 0.98119 0.81281
 C3363 C 0.75863 0.97019 0.82119
 C3364 C 0.76337 0.96522 0.83610
 H3365 H 0.78537 0.93223 0.88011
 H3366 H 0.79953 0.97892 0.89223
 H3367 H 0.78852 0.99554 0.81359
 H3368 H 0.74797 0.96539 0.81623
 H3369 H 0.79018 0.98817 0.86678
 H3370 H 0.79686 0.98670 0.83946
 H3371 H 0.77615 0.94142 0.85460
 H3372 H 0.75616 0.95684 0.84230
 C3373 C 0.27911 0.78256 0.38798
 C3374 C 0.28601 0.77233 0.37708
 C3375 C 0.29149 0.77781 0.36260
 C3376 C 0.29014 0.79362 0.35866
 C3377 C 0.28299 0.80379 0.36945
 C3378 C 0.27758 0.79834 0.38394
 C3379 C 0.27400 0.77695 0.40371
 C3380 C 0.26028 0.78279 0.41076
 C3381 C 0.25596 0.77816 0.42591
 C3382 C 0.26523 0.76753 0.43436
 C3383 C 0.27877 0.76141 0.42716
 C3384 C 0.28311 0.76609 0.41203
 H3385 H 0.29673 0.76966 0.35443
 H3386 H 0.28201 0.81608 0.36688
 H3387 H 0.24541 0.78304 0.43105
 H3388 H 0.28624 0.75327 0.43334
 H3389 H 0.27258 0.80658 0.39217
 H3390 H 0.25287 0.79098 0.40456
 H3391 H 0.28714 0.76006 0.37972
 H3392 H 0.29387 0.76153 0.40704
 C3393 C 0.28108 0.28246 0.88974
 C3394 C 0.28791 0.27219 0.87883
 C3395 C 0.29328 0.27761 0.86428
 C3396 C 0.29188 0.29340 0.86029
 C3397 C 0.28486 0.30363 0.87110
 C3398 C 0.27956 0.29824 0.88566
 C3399 C 0.27594 0.27687 0.90547
 C3400 C 0.26223 0.28276 0.91251
 C3401 C 0.25782 0.27804 0.92762
 C3402 C 0.26698 0.26727 0.93601
 C3403 C 0.28052 0.26115 0.92883
 C3404 C 0.28496 0.26592 0.91376
 H3405 H 0.29842 0.26942 0.85610
 H3406 H 0.28385 0.31590 0.86848
 H3407 H 0.24727 0.28292 0.93275
 H3408 H 0.28792 0.25291 0.93498
 H3409 H 0.27462 0.30651 0.89389
 H3410 H 0.25489 0.29102 0.90634
 H3411 H 0.28902 0.25993 0.88150
 H3412 H 0.29571 0.26133 0.90877
 C3413 C 0.46700 0.28345 0.85902
 C3414 C 0.46059 0.27330 0.87028
 C3415 C 0.45531 0.27896 0.88477
 C3416 C 0.45635 0.29489 0.88834
 C3417 C 0.46279 0.30503 0.87709
 C3418 C 0.46803 0.29938 0.86260
 C3419 C 0.47247 0.27752 0.84353
 C3420 C 0.48618 0.28349 0.83657
 C3421 C 0.49108 0.27829 0.82179
 C3422 C 0.48241 0.26696 0.81362
 C3423 C 0.46881 0.26082 0.82068
 C3424 C 0.46390 0.26605 0.83546
 H3425 H 0.45062 0.27082 0.89328
 H3426 H 0.46349 0.31739 0.87935
 H3427 H 0.50163 0.28325 0.81675
 H3428 H 0.46178 0.25215 0.81469
 H3429 H 0.47263 0.30755 0.85407
 H3430 H 0.49317 0.29216 0.84259
 H3431 H 0.45984 0.26094 0.86797
 H3432 H 0.45317 0.26136 0.84042
 C3433 C 0.96900 0.28099 0.36162
 C3434 C 0.96236 0.27076 0.37268
 C3435 C 0.95718 0.27625 0.38727
 C3436 C 0.95855 0.29208 0.39114
 C3437 C 0.96528 0.30228 0.38012
 C3438 C 0.97042 0.29681 0.36553
 C3439 C 0.97413 0.27531 0.34592
 C3440 C 0.98782 0.28123 0.33886
 C3441 C 0.99222 0.27653 0.32375
 C3442 C 0.98306 0.26575 0.31535
 C3443 C 0.96956 0.25955 0.32257
 C3444 C 0.96515 0.26429 0.33766
 H3445 H 0.95224 0.26807 0.39559
 H3446 H 0.96625 0.31459 0.38262
 H3447 H 1.00273 0.28148 0.31861
 H3448 H 0.96219 0.25129 0.31642
 H3449 H 0.97519 0.30506 0.35717
 H3450 H 0.99514 0.28953 0.34501
 H3451 H 0.96130 0.25847 0.37011
 H3452 H 0.95444 0.25965 0.34269
 C3453 C 0.46772 0.35754 0.78319
 C3454 C 0.47800 0.36815 0.79043
 C3455 C 0.47251 0.38249 0.79588
 C3456 C 0.45663 0.38658 0.79416
 C3457 C 0.44637 0.37602 0.78686
 C3458 C 0.45183 0.36166 0.78148
 C3459 C 0.47344 0.34216 0.77763
 C3460 C 0.46774 0.33570 0.76356
 C3461 C 0.47267 0.32099 0.75862
 C3462 C 0.48350 0.31242 0.76758
 C3463 C 0.48940 0.31899 0.78153
 C3464 C 0.48441 0.33368 0.78650
 H3465 H 0.48073 0.39048 0.80126
 H3466 H 0.43402 0.37871 0.78560
 H3467 H 0.46793 0.31632 0.74778
 H3468 H 0.49766 0.31267 0.78879
 H3469 H 0.44354 0.35364 0.77624
 H3470 H 0.45947 0.34203 0.75632
 H3471 H 0.49035 0.36544 0.79172
 H3472 H 0.48887 0.33822 0.79751
 C3473 C 0.96856 0.36003 0.28020
 C3474 C 0.95257 0.36391 0.27902
 C3475 C 0.94713 0.37832 0.28428
 C3476 C 0.95753 0.38920 0.29089
 C3477 C 0.97354 0.38537 0.29201
 C3478 C 0.97900 0.37095 0.28671
 C3479 C 0.97417 0.34449 0.27499
 C3480 C 0.98536 0.33630 0.28386
 C3481 C 0.98997 0.32132 0.27944
 C3482 C 0.98348 0.31417 0.26606
 C3483 C 0.97255 0.32252 0.25699
 C3484 C 0.96798 0.33750 0.26140
 H3485 H 0.93470 0.38078 0.28352
 H3486 H 0.98186 0.39358 0.29686
 H3487 H 0.99837 0.31522 0.28674
 H3488 H 0.96737 0.31743 0.24656
 H3489 H 0.99141 0.36839 0.28759
 H3490 H 0.99021 0.34127 0.29450
 H3491 H 0.94417 0.35566 0.27437
 H3492 H 0.95953 0.34361 0.25416
 C3493 C 0.28143 0.86110 0.46877
 C3494 C 0.27124 0.87205 0.46195
 C3495 C 0.27700 0.88623 0.45632
 C3496 C 0.29307 0.88980 0.45742
 C3497 C 0.30323 0.87891 0.46436
 C3498 C 0.29749 0.86473 0.46994
 C3499 C 0.27550 0.84577 0.47425
 C3500 C 0.28152 0.83889 0.48797
 C3501 C 0.27666 0.82406 0.49259
 C3502 C 0.26561 0.81575 0.48362
 C3503 C 0.25926 0.82281 0.47013
 C3504 C 0.26417 0.83763 0.46549
 H3505 H 0.26886 0.89447 0.45123
 H3506 H 0.31570 0.88118 0.46513
 H3507 H 0.28173 0.81903 0.50310
 H3508 H 0.25078 0.81674 0.46289
 H3509 H 0.30571 0.85644 0.47483
 H3510 H 0.29006 0.84497 0.49513
 H3511 H 0.25878 0.86971 0.46108
 H3512 H 0.25944 0.84251 0.45475
 C3513 C 0.28135 0.36040 0.97010
 C3514 C 0.27975 0.36425 0.95411
 C3515 C 0.28505 0.37857 0.94845
 C3516 C 0.29214 0.38937 0.95862
 C3517 C 0.29371 0.38556 0.97462
 C3518 C 0.28835 0.37124 0.98030
 C3519 C 0.27604 0.34497 0.97593
 C3520 C 0.28504 0.33666 0.98694
 C3521 C 0.28052 0.32174 0.99170
 C3522 C 0.26691 0.31477 0.98551
 C3523 C 0.25771 0.32325 0.97480
 C3524 C 0.26220 0.33817 0.97010
 H3525 H 0.28395 0.38100 0.93602
 H3526 H 0.29894 0.39373 0.98277
 H3527 H 0.28793 0.31553 0.99991
 H3528 H 0.24709 0.31830 0.96988
 H3529 H 0.28956 0.36871 0.99271
 H3530 H 0.29586 0.34148 0.99152
 H3531 H 0.27472 0.35605 0.94587
 H3532 H 0.25485 0.34437 0.96183
 C3533 C 0.78128 0.39061 0.28059
 C3534 C 0.79718 0.38641 0.27916
 C3535 C 0.80240 0.37188 0.28433
 C3536 C 0.79187 0.36123 0.29111
 C3537 C 0.77596 0.36536 0.29244
 C3538 C 0.77072 0.37987 0.28722
 C3539 C 0.77582 0.40622 0.27545
 C3540 C 0.76469 0.41448 0.28436
 C3541 C 0.75989 0.42934 0.27978
 C3542 C 0.76614 0.43633 0.26619
 C3543 C 0.77716 0.42800 0.25719
 C3544 C 0.78192 0.41311 0.26175
 H3545 H 0.81477 0.36915 0.28337
 H3546 H 0.76753 0.35731 0.29740
 H3547 H 0.75146 0.43546 0.28705
 H3548 H 0.78217 0.43298 0.24662
 H3549 H 0.75835 0.38264 0.28825
 H3550 H 0.75994 0.40961 0.29510
 H3551 H 0.80567 0.39450 0.27437
 H3552 H 0.79033 0.40697 0.25449
   
