data_POSCAR
  _audit_creation_date              2014-09-24
  _audit_creation_method            'ToBaCCo'
  _symmetry_space_group_name_H-M    'P1'
  _symmetry_Int_Tables_number       1
  _symmetry_cell_setting            triclinic
  loop_
  _symmetry_equiv_pos_as_xyz
 x,y,z
_cell_length_a 51.0805
_cell_length_b 51.1404
_cell_length_c 51.8186
_cell_angle_alpha 89.988300
_cell_angle_beta 90.010800
_cell_angle_gamma 89.999600
loop_
  _atom_site_label
  _atom_site_type_symbol
  _atom_site_fract_x
  _atom_site_fract_y
  _atom_site_fract_z
C1 C 0.27090 0.37093 -0.00177
 C2 C 0.27645 0.35835 0.02168
 C3 C 0.29178 0.33559 0.02148
 C4 C 0.30416 0.32693 -0.00120
 C5 C 0.29864 0.34026 -0.02443
 C6 C 0.28136 0.36183 -0.02532
 C7 C 0.32446 0.30561 -0.00036
 C8 C 0.33122 0.29158 -0.02279
 C9 C 0.35342 0.27516 -0.02370
 C10 C 0.36693 0.27042 -0.00040
 C11 C 0.35947 0.28257 0.02272
 C12 C 0.33874 0.30059 0.02238
 H13 H 0.26001 0.38904 -0.00125
 H14 H 0.29446 0.32511 0.03939
 H15 H 0.30765 0.33353 -0.04196
 H16 H 0.31894 0.29323 -0.03965
 H17 H 0.38461 0.25884 -0.00025
 H18 H 0.33418 0.31094 0.03994
 C19 C 0.72850 0.62721 -0.00427
 C20 C 0.71703 0.63432 0.01930
 C21 C 0.69990 0.65581 0.02001
 C22 C 0.69495 0.67095 -0.00221
 C23 C 0.70832 0.66444 -0.02513
 C24 C 0.72400 0.64190 -0.02674
 C25 C 0.67402 0.69161 -0.00205
 C26 C 0.65964 0.69711 -0.02462
 C27 C 0.63817 0.71452 -0.02460
 C28 C 0.63055 0.72550 -0.00079
 C29 C 0.64428 0.72012 0.02210
 C30 C 0.66667 0.70421 0.02097
 H31 H 0.73990 0.60940 -0.00530
 H32 H 0.69002 0.66024 0.03790
 H33 H 0.70616 0.67651 -0.04212
 H34 H 0.66544 0.68788 -0.04238
 H35 H 0.61262 0.73666 0.00043
 H36 H 0.67799 0.70128 0.03835
 C37 C 0.72928 0.36678 1.00410
 C38 C 0.71768 0.35982 0.98052
 C39 C 0.70014 0.33862 0.97988
 C40 C 0.69506 0.32355 1.00211
 C41 C 0.70888 0.32967 1.02488
 C42 C 0.72469 0.35209 1.02654
 C43 C 0.67354 0.30347 1.00230
 C44 C 0.65974 0.29809 1.02526
 C45 C 0.63804 0.28102 1.02581
 C46 C 0.62944 0.27035 1.00218
 C47 C 0.64245 0.27574 0.97889
 C48 C 0.66514 0.29128 0.97940
 H49 H 0.74084 0.38448 1.00513
 H50 H 0.69009 0.33438 0.96204
 H51 H 0.70687 0.31748 1.04179
 H52 H 0.66618 0.30708 1.04291
 H53 H 0.61133 0.25943 1.00146
 H54 H 0.67587 0.29418 0.96166
 C55 C 0.27188 0.62937 1.00354
 C56 C 0.28338 0.63665 0.98004
 C57 C 0.30055 0.65809 0.97952
 C58 C 0.30554 0.67308 1.00181
 C59 C 0.29223 0.66635 1.02472
 C60 C 0.27643 0.64385 1.02614
 C61 C 0.32639 0.69387 1.00159
 C62 C 0.34064 0.69979 1.02414
 C63 C 0.36220 0.71712 1.02389
 C64 C 0.37011 0.72747 0.99986
 C65 C 0.35648 0.72164 0.97702
 C66 C 0.33387 0.70612 0.97842
 H67 H 0.26039 0.61161 1.00439
 H68 H 0.31038 0.66260 0.96164
 H69 H 0.29443 0.67825 1.04181
 H70 H 0.33467 0.69097 1.04204
 H71 H 0.38813 0.73847 0.99847
 H72 H 0.32254 0.70312 0.96106
 C73 C -0.00061 0.27435 0.37383
 C74 C 0.02329 0.28485 0.36545
 C75 C 0.02350 0.30149 0.34386
 C76 C 0.00044 0.30682 0.32985
 C77 C -0.02291 0.29448 0.33771
 C78 C -0.02393 0.27933 0.36034
 C79 C 0.00038 0.32696 0.30873
 C80 C -0.02224 0.34192 0.30360
 C81 C -0.02212 0.36264 0.28554
 C82 C 0.00192 0.36907 0.27375
 C83 C 0.02480 0.35470 0.27869
 C84 C 0.02343 0.33291 0.29510
 H85 H -0.00117 0.26330 0.39164
 H86 H 0.04173 0.31062 0.33841
 H87 H -0.04063 0.29696 0.32659
 H88 H -0.04008 0.33717 0.31359
 H89 H 0.00340 0.38660 0.26220
 H90 H 0.04073 0.32102 0.29765
 C91 C -0.00368 0.72454 0.62851
 C92 C 0.02049 0.71422 0.63628
 C93 C 0.02135 0.69740 0.65771
 C94 C -0.00136 0.69162 0.67208
 C95 C -0.02504 0.70372 0.66478
 C96 C -0.02665 0.71920 0.64241
 C97 C -0.00068 0.67124 0.69297
 C98 C -0.02290 0.65579 0.69825
 C99 C -0.02207 0.63480 0.71599
 C100 C 0.00226 0.62871 0.72738
 C101 C 0.02480 0.64356 0.72222
 C102 C 0.02273 0.66553 0.70612
 H103 H -0.00473 0.73573 0.61080
 H104 H 0.03980 0.68843 0.66270
 H105 H -0.04253 0.70080 0.67615
 H106 H -0.04100 0.66037 0.68863
 H107 H 0.00425 0.61110 0.73875
 H108 H 0.03976 0.67777 0.70343
 C109 C 0.99717 0.72615 0.37081
 C110 C 0.97331 0.71499 0.36312
 C111 C 0.97305 0.69757 0.34222
 C112 C 0.99595 0.69200 0.32817
 C113 C 1.01931 0.70472 0.33538
 C114 C 1.02071 0.72082 0.35750
 C115 C 0.99581 0.67149 0.30740
 C116 C 1.01843 0.65659 0.30218
 C117 C 1.01822 0.63571 0.28432
 C118 C 0.99408 0.62902 0.27285
 C119 C 0.97116 0.64330 0.27794
 C120 C 0.97262 0.66526 0.29411
 H121 H 0.99734 0.73746 0.38842
 H122 H 0.95486 0.68806 0.33728
 H123 H 1.03642 0.70239 0.32339
 H124 H 1.03635 0.66160 0.31192
 H125 H 0.99257 0.61142 0.26141
 H126 H 0.95530 0.67711 0.29669
 C127 C 1.00301 0.27348 0.62851
 C128 C 0.97903 0.28390 0.63680
 C129 C 0.97870 0.30061 0.65832
 C130 C 1.00169 0.30620 0.67233
 C131 C 1.02514 0.29399 0.66455
 C132 C 1.02630 0.27868 0.64201
 C133 C 1.00152 0.32648 0.69334
 C134 C 1.02396 0.34169 0.69844
 C135 C 1.02356 0.36263 0.71625
 C136 C 0.99940 0.36895 0.72791
 C137 C 0.97666 0.35432 0.72297
 C138 C 0.97836 0.33234 0.70683
 H139 H 1.00365 0.26233 0.61077
 H140 H 0.96040 0.30963 0.66373
 H141 H 1.04282 0.29667 0.67570
 H142 H 1.04188 0.33694 0.68860
 H143 H 0.99771 0.38654 0.73934
 H144 H 0.96121 0.32022 0.70438
 C145 C 0.36933 0.00056 0.27080
 C146 C 0.35535 0.02357 0.27619
 C147 C 0.33314 0.02217 0.29199
 C148 C 0.32669 -0.00088 0.30530
 C149 C 0.34121 -0.02371 0.29975
 C150 C 0.36214 -0.02366 0.28182
 C151 C 0.30655 -0.00045 0.32652
 C152 C 0.29415 -0.02358 0.33484
 C153 C 0.27887 -0.02407 0.35741
 C154 C 0.27383 -0.00053 0.37041
 C155 C 0.28438 0.02317 0.36162
 C156 C 0.30117 0.02288 0.34013
 H157 H 0.38706 0.00205 0.25953
 H158 H 0.32141 0.03957 0.29444
 H159 H 0.33595 -0.04162 0.30930
 H160 H 0.29662 -0.04153 0.32415
 H161 H 0.26270 -0.00075 0.38818
 H162 H 0.31035 0.04098 0.33445
 C163 C 0.62927 -0.00148 0.72930
 C164 C 0.64252 0.02203 0.72420
 C165 C 0.66480 0.02156 0.70839
 C166 C 0.67229 -0.00128 0.69523
 C167 C 0.65830 -0.02454 0.70038
 C168 C 0.63723 -0.02531 0.71805
 C169 C 0.69304 -0.00048 0.67461
 C170 C 0.70589 -0.02350 0.66678
 C171 C 0.72093 -0.02428 0.64413
 C172 C 0.72597 -0.00087 0.63090
 C173 C 0.71546 0.02294 0.63954
 C174 C 0.69846 0.02279 0.66092
 H175 H 0.61147 -0.00072 0.74055
 H176 H 0.67586 0.03940 0.70596
 H177 H 0.66410 -0.04222 0.69075
 H178 H 0.70376 -0.04130 0.67781
 H179 H 0.73704 -0.00128 0.61310
 H180 H 0.68917 0.04089 0.66643
 C181 C 0.36902 0.99766 0.72646
 C182 C 0.36097 0.97391 0.71553
 C183 C 0.33978 0.97383 0.69826
 C184 C 0.32581 0.99689 0.69259
 C185 C 0.33320 1.02010 0.70543
 C186 C 0.35549 1.02097 0.72137
 C187 C 0.30549 0.99711 0.67155
 C188 C 0.30074 1.02003 0.65719
 C189 C 0.28370 1.02027 0.63573
 C190 C 0.27242 0.99634 0.62800
 C191 C 0.27710 0.97309 0.64167
 C192 C 0.29250 0.97401 0.66411
 H193 H 0.38669 0.99812 0.73798
 H194 H 0.33471 0.95569 0.68888
 H195 H 0.32203 1.03784 0.70277
 H196 H 0.31020 1.03787 0.66298
 H197 H 0.26157 0.99528 0.61012
 H198 H 0.29469 0.95636 0.67535
 C199 C 0.62999 0.99994 0.27284
 C200 C 0.64410 0.97693 0.27787
 C201 C 0.66609 0.97811 0.29402
 C202 C 0.67234 1.00102 0.30765
 C203 C 0.65765 1.02382 0.30247
 C204 C 0.63683 1.02394 0.28445
 C205 C 0.69250 1.00058 0.32880
 C206 C 0.70493 1.02373 0.33694
 C207 C 0.71998 1.02444 0.35963
 C208 C 0.72494 1.00100 0.37287
 C209 C 0.71445 0.97722 0.36418
 C210 C 0.69779 0.97733 0.34257
 H211 H 0.61235 0.99859 0.26140
 H212 H 0.67785 0.96072 0.29645
 H213 H 0.66268 1.04159 0.31240
 H214 H 0.70257 1.04157 0.32602
 H215 H 0.73594 1.00137 0.39072
 H216 H 0.68862 0.95921 0.33692
 O217 O 0.81310 0.85032 0.52625
 O218 O 0.84768 0.81286 0.47598
 O219 O 0.81160 0.84962 0.47611
 O220 O 0.84854 0.81396 0.52618
 O221 O 0.81758 0.78391 0.52738
 O222 O 0.78083 0.81941 0.47742
 O223 O 0.81688 0.78268 0.47739
 O224 O 0.78233 0.82006 0.52741
 Cu225 Cu 0.83334 0.83472 0.50083
 Cu226 Cu 0.79631 0.79850 0.50231
 C227 C 0.79183 0.84149 0.53551
 C228 C 0.83848 0.79105 0.46852
 C229 C 0.78958 0.84088 0.46862
 C230 C 0.83927 0.79289 0.53545
 O231 O 0.15121 0.18649 0.47588
 O232 O 0.18828 0.14800 0.52372
 O233 O 0.15172 0.18368 0.52602
 O234 O 0.18744 0.15007 0.47381
 O235 O 0.21786 0.18064 0.47491
 O236 O 0.18232 0.21408 0.52711
 O237 O 0.21867 0.17863 0.52463
 O238 O 0.18167 0.21702 0.47711
 Cu239 Cu 0.16656 0.16403 0.49968
 Cu240 Cu 0.20311 0.20070 0.50094
 C241 C 0.15993 0.20857 0.46863
 C242 C 0.21001 0.15663 0.53211
 C243 C 0.16091 0.20469 0.53547
 C244 C 0.20910 0.15926 0.46588
 O245 O 0.18139 0.85244 0.47409
 O246 O 0.14460 0.81386 0.52233
 O247 O 0.18010 0.85084 0.52450
 O248 O 0.14476 0.81702 0.47234
 O249 O 0.17561 0.78686 0.47097
 O250 O 0.21048 0.82021 0.52385
 O251 O 0.17515 0.78342 0.52084
 O252 O 0.21196 0.82200 0.47363
 Cu253 Cu 0.15969 0.83665 0.49850
 Cu254 Cu 0.19640 0.80014 0.49732
 C255 C 0.20298 0.84362 0.46552
 C256 C 0.15345 0.79175 0.52944
 C257 C 0.20137 0.84137 0.53308
 C258 C 0.15410 0.79617 0.46273
 O259 O 0.85072 0.18534 0.52688
 O260 O 0.81498 0.14834 0.47696
 O261 O 0.85111 0.18411 0.47674
 O262 O 0.81401 0.14908 0.52718
 O263 O 0.78369 0.17975 0.52606
 O264 O 0.82057 0.21460 0.47580
 O265 O 0.78469 0.17908 0.47605
 O266 O 0.82031 0.21592 0.52574
 Cu267 Cu 0.83575 0.16362 0.50222
 Cu268 Cu 0.79927 0.20039 0.50102
 C269 C 0.84193 0.20731 0.53436
 C270 C 0.79376 0.15750 0.46787
 C271 C 0.84208 0.20535 0.46758
 C272 C 0.79218 0.15816 0.53483
 O273 O 0.47432 0.84843 0.81343
 O274 O 0.52381 0.81203 0.85100
 O275 O 0.52499 0.84833 0.81507
 O276 O 0.47293 0.81410 0.85074
 O277 O 0.47264 0.78302 0.82125
 O278 O 0.52494 0.81719 0.78563
 O279 O 0.52350 0.78106 0.82140
 O280 O 0.47455 0.81719 0.78406
 Cu281 Cu 0.49909 0.83382 0.83555
 Cu282 Cu 0.49896 0.79643 0.80023
 C283 C 0.46631 0.83914 0.79206
 C284 C 0.53186 0.79007 0.84266
 C285 C 0.53346 0.83897 0.79396
 C286 C 0.46389 0.79268 0.84215
 O287 O 0.52460 0.18459 0.15032
 O288 O 0.47138 0.14979 0.18345
 O289 O 0.47397 0.18661 0.14868
 O290 O 0.52222 0.14863 0.18646
 O291 O 0.52148 0.17906 0.21658
 O292 O 0.47400 0.21703 0.17887
 O293 O 0.47068 0.18030 0.21352
 O294 O 0.52437 0.21487 0.18063
 Cu295 Cu 0.49815 0.16431 0.16424
 Cu296 Cu 0.49764 0.20077 0.20050
 C297 C 0.53321 0.20596 0.15947
 C298 C 0.46192 0.15906 0.20416
 C299 C 0.46608 0.20856 0.15722
 C300 C 0.52985 0.15729 0.20820
 O301 O 0.52400 0.14319 0.82136
 O302 O 0.47202 0.17786 0.85684
 O303 O 0.47290 0.14247 0.82061
 O304 O 0.52313 0.17886 0.85741
 O305 O 0.52266 0.20973 0.82770
 O306 O 0.47302 0.17347 0.79102
 O307 O 0.47164 0.20855 0.82691
 O308 O 0.52386 0.17428 0.79186
 Cu309 Cu 0.49805 0.15749 0.84206
 Cu310 Cu 0.49782 0.19462 0.80644
 C311 C 0.53281 0.15283 0.80050
 C312 C 0.46280 0.19905 0.84781
 C313 C 0.46435 0.15184 0.79949
 C314 C 0.53148 0.20058 0.84876
 O315 O 0.47677 0.81682 0.14622
 O316 O 0.52827 0.85304 0.18108
 O317 O 0.52771 0.81727 0.14541
 O318 O 0.47729 0.85319 0.18238
 O319 O 0.47815 0.82244 0.21220
 O320 O 0.52826 0.78675 0.17549
 O321 O 0.52890 0.82226 0.21091
 O322 O 0.47753 0.78636 0.17633
 Cu323 Cu 0.50227 0.83818 0.16076
 Cu324 Cu 0.50312 0.80141 0.19672
 C325 C 0.46872 0.79510 0.15511
 C326 C 0.53747 0.84372 0.20193
 C327 C 0.53667 0.79587 0.15425
 C328 C 0.46945 0.84413 0.20389
 O329 O 0.81574 0.47374 0.85488
 O330 O 0.85508 0.51931 0.81523
 O331 O 0.82003 0.52434 0.85172
 O332 O 0.85230 0.46873 0.81976
 O333 O 0.82131 0.46827 0.79012
 O334 O 0.78948 0.52449 0.82163
 O335 O 0.82426 0.51865 0.78543
 O336 O 0.78494 0.47416 0.82505
 Cu337 Cu 0.83888 0.49652 0.83840
 Cu338 Cu 0.80194 0.49634 0.80258
 C339 C 0.79337 0.46648 0.84680
 C340 C 0.84637 0.52658 0.79337
 C341 C 0.79917 0.53385 0.84225
 C342 C 0.84249 0.45913 0.79934
 O343 O 0.18066 0.47616 0.14534
 O344 O 0.14289 0.52334 0.18439
 O345 O 0.17833 0.52711 0.14785
 O346 O 0.14534 0.47265 0.18137
 O347 O 0.17662 0.47244 0.21073
 O348 O 0.20918 0.52704 0.17763
 O349 O 0.17402 0.52290 0.21388
 O350 O 0.21170 0.47627 0.17493
 Cu351 Cu 0.15870 0.49994 0.16173
 Cu352 Cu 0.19602 0.49974 0.19719
 C353 C 0.20262 0.46801 0.15362
 C354 C 0.15186 0.53086 0.20604
 C355 C 0.19951 0.53630 0.15697
 C356 C 0.15536 0.46325 0.20181
 O357 O 0.85329 0.47566 0.18605
 O358 O 0.81378 0.52052 0.14588
 O359 O 0.84967 0.52617 0.18145
 O360 O 0.81872 0.47002 0.14921
 O361 O 0.78785 0.46944 0.17896
 O362 O 0.81835 0.52620 0.21074
 O363 O 0.78261 0.51970 0.17532
 O364 O 0.82217 0.47586 0.21554
 Cu365 Cu 0.83700 0.49813 0.16269
 Cu366 Cu 0.79964 0.49780 0.19809
 C367 C 0.84449 0.46828 0.20783
 C368 C 0.79122 0.52749 0.15368
 C369 C 0.83945 0.53569 0.20171
 C370 C 0.79791 0.46021 0.15846
 O371 O 0.14792 0.47776 0.81393
 O372 O 0.18629 0.52498 0.85240
 O373 O 0.14992 0.52856 0.81714
 O374 O 0.18392 0.47454 0.85003
 O375 O 0.21433 0.47468 0.81981
 O376 O 0.18072 0.52918 0.78731
 O377 O 0.21696 0.52489 0.82243
 O378 O 0.17851 0.47848 0.78392
 Cu379 Cu 0.16387 0.50137 0.83633
 Cu380 Cu 0.20060 0.50181 0.80028
 C381 C 0.15659 0.47027 0.79215
 C382 C 0.20846 0.53261 0.84415
 C383 C 0.15950 0.53813 0.79658
 C384 C 0.20525 0.46577 0.84088
 C385 C 0.23984 0.39790 0.07204
 C386 C 0.25755 0.39729 0.09201
 C387 C 0.28095 0.38355 0.09073
 C388 C 0.28653 0.37015 0.06778
 C389 C 0.26874 0.37055 0.04665
 C390 C 0.24483 0.38446 0.04911
 O391 O 0.21930 0.41309 0.07684
 C392 C 0.22425 0.42230 0.10030
 C393 C 0.24741 0.41319 0.11042
 C394 C 0.25687 0.42098 0.13435
 C395 C 0.24185 0.43893 0.14847
 C396 C 0.21787 0.44876 0.13850
 C397 C 0.20896 0.44014 0.11403
 H398 H 0.29476 0.38369 0.10657
 H399 H 0.30523 0.36032 0.06620
 H400 H 0.23078 0.38528 0.03349
 H401 H 0.27527 0.41369 0.14180
 H402 H 0.24904 0.44523 0.16711
 H403 H 0.19088 0.44735 0.10575
 C404 C 0.75152 0.59360 0.07003
 C405 C 0.73141 0.58918 0.08710
 C406 C 0.70622 0.59866 0.08318
 C407 C 0.70158 0.61337 0.06076
 C408 C 0.72207 0.61852 0.04290
 C409 C 0.74742 0.60836 0.04776
 O410 O 0.77387 0.58245 0.07712
 C411 C 0.76773 0.57074 0.09916
 C412 C 0.74201 0.57435 0.10617
 C413 C 0.73141 0.56377 0.12854
 C414 C 0.74794 0.54872 0.14427
 C415 C 0.77451 0.54438 0.13734
 C416 C 0.78449 0.55571 0.11442
 H417 H 0.69063 0.59468 0.09676
 H418 H 0.68191 0.62037 0.05720
 H419 H 0.76357 0.61200 0.03473
 H420 H 0.71110 0.56688 0.13366
 H421 H 0.73988 0.54016 0.16165
 H422 H 0.80462 0.55281 0.10853
 C423 C 0.75285 0.40020 0.92995
 C424 C 0.73290 0.40472 0.91273
 C425 C 0.70761 0.39542 0.91647
 C426 C 0.70269 0.38079 0.93887
 C427 C 0.72301 0.37550 0.95689
 C428 C 0.74848 0.38547 0.95219
 O429 O 0.77531 0.41125 0.92307
 C430 C 0.76941 0.42301 0.90098
 C431 C 0.74373 0.41951 0.89375
 C432 C 0.73334 0.43017 0.87132
 C433 C 0.75004 0.44521 0.85578
 C434 C 0.77657 0.44948 0.86293
 C435 C 0.78634 0.43805 0.88590
 H436 H 0.69215 0.39952 0.90277
 H437 H 0.68294 0.37398 0.94230
 H438 H 0.76452 0.38174 0.96535
 H439 H 0.71306 0.42715 0.86604
 H440 H 0.74213 0.45384 0.83836
 H441 H 0.80642 0.44091 0.89197
 C442 C 0.24846 0.59734 0.92855
 C443 C 0.26842 0.59342 0.91120
 C444 C 0.29370 0.60258 0.91527
 C445 C 0.29856 0.61652 0.93810
 C446 C 0.27819 0.62127 0.95621
 C447 C 0.25277 0.61136 0.95123
 O448 O 0.22603 0.58645 0.92131
 C449 C 0.23198 0.57544 0.89887
 C450 C 0.25764 0.57926 0.89175
 C451 C 0.26807 0.56930 0.86903
 C452 C 0.25146 0.55455 0.85312
 C453 C 0.22499 0.54987 0.86024
 C454 C 0.21515 0.56071 0.88344
 H455 H 0.30919 0.59894 0.90148
 H456 H 0.31830 0.62327 0.94175
 H457 H 0.23671 0.61469 0.96446
 H458 H 0.28833 0.57255 0.86384
 H459 H 0.25942 0.54633 0.83554
 H460 H 0.19513 0.55748 0.88951
 C461 C 0.07549 0.24923 0.40367
 C462 C 0.09384 0.26866 0.40663
 C463 C 0.09037 0.29375 0.39689
 C464 C 0.06706 0.29900 0.38348
 C465 C 0.04786 0.27920 0.37986
 C466 C 0.05233 0.25392 0.39020
 O467 O 0.08219 0.22696 0.41506
 C468 C 0.10530 0.23246 0.42545
 C469 C 0.11337 0.25767 0.42076
 C470 C 0.13681 0.26763 0.43019
 C471 C 0.15241 0.25103 0.44534
 C472 C 0.14430 0.22504 0.45090
 C473 C 0.12043 0.21564 0.44051
 H474 H 0.10493 0.30884 0.39978
 H475 H 0.06386 0.31863 0.37633
 H476 H 0.03827 0.23828 0.38774
 H477 H 0.14273 0.28757 0.42630
 H478 H 0.17052 0.25865 0.45317
 H479 H 0.11355 0.19602 0.44445
 C480 C 0.07115 0.75040 0.59665
 C481 C 0.08952 0.73111 0.59305
 C482 C 0.08662 0.70599 0.60288
 C483 C 0.06384 0.70053 0.61704
 C484 C 0.04461 0.72017 0.62130
 C485 C 0.04853 0.74551 0.61088
 O486 O 0.07727 0.77272 0.58504
 C487 C 0.10003 0.76740 0.57386
 C488 C 0.10844 0.74224 0.57827
 C489 C 0.13160 0.73243 0.56810
 C490 C 0.14659 0.74915 0.55254
 C491 C 0.13817 0.77511 0.54730
 C492 C 0.11457 0.78434 0.55835
 H493 H 0.10119 0.69102 0.59948
 H494 H 0.06103 0.68086 0.62423
 H495 H 0.03443 0.76103 0.61382
 H496 H 0.13778 0.71253 0.57180
 H497 H 0.16452 0.74165 0.54421
 H498 H 0.10748 0.80395 0.55469
 C499 C 0.92121 0.75083 0.40132
 C500 C 0.90317 0.73124 0.40499
 C501 C 0.90681 0.70599 0.39574
 C502 C 0.92997 0.70074 0.38209
 C503 C 0.94884 0.72071 0.37770
 C504 C 0.94418 0.74616 0.38753
 O505 O 0.91452 0.77317 0.41255
 C506 C 0.89174 0.76756 0.42354
 C507 C 0.88384 0.74221 0.41938
 C508 C 0.86081 0.73207 0.42958
 C509 C 0.84549 0.74864 0.44503
 C510 C 0.85350 0.77475 0.45014
 C511 C 0.87688 0.78434 0.43891
 H512 H 0.89253 0.69076 0.39925
 H513 H 0.93333 0.68097 0.37542
 H514 H 0.95798 0.76193 0.38452
 H515 H 0.85503 0.71202 0.42611
 H516 H 0.82776 0.74087 0.45353
 H517 H 0.88370 0.80405 0.44252
 C518 C 0.92670 0.24797 0.59893
 C519 C 0.90819 0.26729 0.59622
 C520 C 0.91167 0.29241 0.60585
 C521 C 0.93511 0.29781 0.61895
 C522 C 0.95445 0.27811 0.62242
 C523 C 0.95002 0.25281 0.61211
 O524 O 0.91996 0.22568 0.58761
 C525 C 0.89667 0.23105 0.57754
 C526 C 0.88852 0.25620 0.58238
 C527 C 0.86491 0.26607 0.57326
 C528 C 0.84924 0.24946 0.55821
 C529 C 0.85744 0.22356 0.55241
 C530 C 0.88145 0.21421 0.56256
 H531 H 0.89699 0.30742 0.60312
 H532 H 0.93828 0.31747 0.62601
 H533 H 0.96419 0.23724 0.61443
 H534 H 0.85894 0.28596 0.57727
 H535 H 0.83104 0.25705 0.55056
 H536 H 0.88843 0.19468 0.55840
 C537 C 0.39126 0.07638 0.23890
 C538 C 0.38926 0.09695 0.25587
 C539 C 0.37555 0.09527 0.27893
 C540 C 0.36375 0.07130 0.28496
 C541 C 0.36561 0.04954 0.26791
 C542 C 0.37930 0.05246 0.24428
 O543 O 0.40672 0.08148 0.21895
 C544 C 0.41471 0.10575 0.22350
 C545 C 0.40453 0.11614 0.24581
 C546 C 0.41147 0.14072 0.25502
 C547 C 0.42989 0.15508 0.24076
 C548 C 0.44102 0.14465 0.21786
 C549 C 0.43295 0.11971 0.20900
 H550 H 0.37474 0.11155 0.29225
 H551 H 0.35414 0.06947 0.30349
 H552 H 0.38130 0.03641 0.23081
 H553 H 0.40343 0.14833 0.27282
 H554 H 0.43584 0.17407 0.24790
 H555 H 0.44129 0.11097 0.19183
 C556 C 0.60499 0.07268 0.76276
 C557 C 0.60603 0.09362 0.74615
 C558 C 0.61965 0.09295 0.72298
 C559 C 0.63236 0.06959 0.71641
 C560 C 0.63145 0.04745 0.73305
 C561 C 0.61785 0.04937 0.75684
 O562 O 0.58959 0.07681 0.78298
 C563 C 0.58064 0.10085 0.77898
 C564 C 0.59017 0.11202 0.75674
 C565 C 0.58236 0.13655 0.74815
 C566 C 0.56382 0.15008 0.76300
 C567 C 0.55341 0.13889 0.78591
 C568 C 0.56225 0.11397 0.79408
 H569 H 0.61974 0.10953 0.70998
 H570 H 0.64193 0.06849 0.69781
 H571 H 0.61662 0.03301 0.77003
 H572 H 0.58992 0.14479 0.73041
 H573 H 0.55732 0.16908 0.75639
 H574 H 0.55452 0.10471 0.81125
 C575 C 0.39908 0.92197 0.75146
 C576 C 0.40271 0.90374 0.73231
 C577 C 0.39342 0.90717 0.70733
 C578 C 0.37977 0.93033 0.70188
 C579 C 0.37543 0.94939 0.72141
 C580 C 0.38528 0.94492 0.74660
 O581 O 0.41040 0.91546 0.77360
 C582 C 0.42142 0.89260 0.76831
 C583 C 0.41716 0.88448 0.74335
 C584 C 0.42734 0.86132 0.73357
 C585 C 0.44284 0.84608 0.75010
 C586 C 0.44804 0.85431 0.77580
 C587 C 0.43687 0.87784 0.78503
 H588 H 0.39691 0.89272 0.69246
 H589 H 0.37308 0.93356 0.68232
 H590 H 0.38229 0.95888 0.76202
 H591 H 0.42379 0.85539 0.71383
 H592 H 0.45129 0.82821 0.74262
 H593 H 0.44055 0.88478 0.80444
 C594 C 0.60838 0.92528 0.23894
 C595 C 0.61015 0.90429 0.25541
 C596 C 0.62383 0.90523 0.27855
 C597 C 0.63578 0.92895 0.28523
 C598 C 0.63408 0.95117 0.26876
 C599 C 0.62053 0.94894 0.24496
 O600 O 0.59288 0.92086 0.21885
 C601 C 0.58461 0.89658 0.22281
 C602 C 0.59468 0.88555 0.24489
 C603 C 0.58752 0.86084 0.25352
 C604 C 0.56905 0.84698 0.23890
 C605 C 0.55806 0.85802 0.21618
 C606 C 0.56627 0.88312 0.20793
 H607 H 0.62446 0.88860 0.29146
 H608 H 0.64529 0.93023 0.30386
 H609 H 0.61869 0.96534 0.23189
 H610 H 0.59548 0.85272 0.27114
 H611 H 0.56303 0.82784 0.24555
 H612 H 0.55807 0.89228 0.19091
 C613 C 0.39176 0.23643 0.92816
 C614 C 0.38704 0.25062 0.90617
 C615 C 0.37014 0.27184 0.90563
 C616 C 0.35808 0.27917 0.92884
 C617 C 0.36312 0.26543 0.95239
 C618 C 0.37986 0.24316 0.95142
 O619 O 0.40944 0.21771 0.92486
 C620 C 0.41619 0.22033 0.90028
 C621 C 0.40307 0.24022 0.88796
 C622 C 0.40822 0.24734 0.86257
 C623 C 0.42778 0.23346 0.84939
 C624 C 0.44168 0.21287 0.86169
 C625 C 0.43552 0.20611 0.88748
 H626 H 0.36705 0.28297 0.88813
 H627 H 0.34635 0.29675 0.92840
 H628 H 0.38388 0.23122 0.96817
 H629 H 0.39788 0.26330 0.85339
 H630 H 0.43220 0.23889 0.82967
 H631 H 0.44598 0.19078 0.89756
 C632 C 0.59718 0.74946 0.92646
 C633 C 0.59753 0.73173 0.90660
 C634 C 0.61043 0.70795 0.90824
 C635 C 0.62373 0.70220 0.93122
 C636 C 0.62418 0.72025 0.95230
 C637 C 0.61032 0.74429 0.94949
 O638 O 0.58337 0.77079 0.92111
 C639 C 0.57477 0.76633 0.89734
 C640 C 0.58294 0.74271 0.88758
 C641 C 0.57596 0.73390 0.86318
 C642 C 0.55960 0.74997 0.84831
 C643 C 0.55054 0.77435 0.85802
 C644 C 0.55852 0.78268 0.88288
 H645 H 0.61001 0.69408 0.89246
 H646 H 0.63260 0.68308 0.93259
 H647 H 0.61039 0.75922 0.96427
 H648 H 0.58262 0.71519 0.85595
 H649 H 0.55373 0.74320 0.82938
 H650 H 0.55186 0.80103 0.89097
 C651 C 0.40297 0.75310 0.07232
 C652 C 0.40227 0.73594 0.09267
 C653 C 0.38919 0.71222 0.09154
 C654 C 0.37610 0.70594 0.06857
 C655 C 0.37601 0.72338 0.04698
 C656 C 0.39004 0.74738 0.04929
 O657 O 0.41696 0.77443 0.07721
 C658 C 0.42532 0.77055 0.10117
 C659 C 0.41682 0.74730 0.11152
 C660 C 0.42363 0.73909 0.13619
 C661 C 0.44017 0.75535 0.15067
 C662 C 0.44958 0.77932 0.14033
 C663 C 0.44172 0.78708 0.11524
 H664 H 0.38935 0.69878 0.10768
 H665 H 0.36709 0.68685 0.06765
 H666 H 0.39028 0.76188 0.03410
 H667 H 0.41674 0.72066 0.14389
 H668 H 0.44597 0.74901 0.16977
 H669 H 0.44869 0.80508 0.10664
 C670 C 0.59862 0.24595 0.07582
 C671 C 0.59983 0.26342 0.09588
 C672 C 0.61286 0.28713 0.09403
 C673 C 0.62536 0.29302 0.07063
 C674 C 0.62485 0.27521 0.04934
 C675 C 0.61093 0.25127 0.05240
 O676 O 0.58468 0.22477 0.08129
 C677 C 0.57683 0.22906 0.10533
 C678 C 0.58561 0.25241 0.11519
 C679 C 0.57912 0.26106 0.13982
 C680 C 0.56253 0.24518 0.15470
 C681 C 0.55281 0.22117 0.14476
 C682 C 0.56046 0.21292 0.11979
 H683 H 0.61309 0.30084 0.10994
 H684 H 0.63435 0.31208 0.06915
 H685 H 0.61028 0.23652 0.03746
 H686 H 0.58618 0.27959 0.14713
 H687 H 0.55684 0.25189 0.17370
 H688 H 0.55321 0.19491 0.11145
 C689 C 0.24987 0.07052 0.59526
 C690 C 0.26791 0.09039 0.59583
 C691 C 0.29163 0.08831 0.60868
 C692 C 0.29694 0.06485 0.62169
 C693 C 0.27853 0.04377 0.62190
 C694 C 0.25463 0.04704 0.60808
 O695 O 0.22862 0.07636 0.58169
 C696 C 0.23344 0.10046 0.57345
 C697 C 0.25721 0.10997 0.58161
 C698 C 0.26629 0.13470 0.57503
 C699 C 0.25031 0.15017 0.55915
 C700 C 0.22579 0.14071 0.55016
 C701 C 0.21722 0.11549 0.55768
 H702 H 0.30574 0.10410 0.60847
 H703 H 0.31598 0.06312 0.63061
 H704 H 0.23945 0.03229 0.60799
 H705 H 0.28510 0.14174 0.58168
 H706 H 0.25726 0.16936 0.55359
 H707 H 0.19873 0.10758 0.55110
 C708 C 0.75730 0.07562 0.39766
 C709 C 0.74028 0.09638 0.39601
 C710 C 0.71718 0.09537 0.38192
 C711 C 0.71115 0.07187 0.36933
 C712 C 0.72823 0.04994 0.37086
 C713 C 0.75189 0.05216 0.38500
 O714 O 0.77744 0.08015 0.41323
 C715 C 0.77296 0.10425 0.42165
 C716 C 0.75049 0.11506 0.41164
 C717 C 0.74145 0.13966 0.41872
 C718 C 0.75610 0.15367 0.43697
 C719 C 0.77926 0.14289 0.44782
 C720 C 0.78786 0.11785 0.43978
 H721 H 0.70386 0.11183 0.38130
 H722 H 0.69261 0.07052 0.35929
 H723 H 0.76541 0.03595 0.38668
 H724 H 0.72356 0.14764 0.41076
 H725 H 0.74917 0.17276 0.44286
 H726 H 0.80526 0.10891 0.44782
 C727 C 0.75729 0.92403 0.60585
 C728 C 0.74005 0.90348 0.60776
 C729 C 0.71710 0.90480 0.62204
 C730 C 0.71148 0.92840 0.63459
 C731 C 0.72882 0.95013 0.63286
 C732 C 0.75230 0.94760 0.61849
 O733 O 0.77719 0.91919 0.59009
 C734 C 0.77231 0.89511 0.58181
 C735 C 0.74984 0.88462 0.59210
 C736 C 0.74038 0.86012 0.58520
 C737 C 0.75461 0.84588 0.56683
 C738 C 0.77778 0.85633 0.55569
 C739 C 0.78681 0.88127 0.56356
 H740 H 0.70359 0.88851 0.62284
 H741 H 0.69304 0.92999 0.64476
 H742 H 0.76598 0.96365 0.61661
 H743 H 0.72248 0.85241 0.59339
 H744 H 0.74736 0.82686 0.56108
 H745 H 0.80423 0.88996 0.55529
 C746 C 0.24094 0.92533 0.39565
 C747 C 0.25794 0.90453 0.39447
 C748 C 0.28119 0.90528 0.38060
 C749 C 0.28742 0.92858 0.36775
 C750 C 0.27039 0.95058 0.36881
 C751 C 0.24655 0.94859 0.38272
 O752 O 0.22057 0.92100 0.41100
 C753 C 0.22489 0.89698 0.41976
 C754 C 0.24748 0.88605 0.41017
 C755 C 0.25636 0.86149 0.41755
 C756 C 0.24137 0.84762 0.43560
 C757 C 0.21800 0.85845 0.44598
 C758 C 0.20961 0.88350 0.43772
 H759 H 0.29445 0.88878 0.38033
 H760 H 0.30605 0.92975 0.35788
 H761 H 0.23306 0.96486 0.38402
 H762 H 0.27434 0.85342 0.40990
 H763 H 0.24815 0.82851 0.44162
 H764 H 0.19205 0.89245 0.44537
 C765 C 0.07234 0.40464 0.75081
 C766 C 0.09210 0.40559 0.73291
 C767 C 0.09044 0.39325 0.70914
 C768 C 0.06754 0.37918 0.70358
 C769 C 0.04656 0.37741 0.72178
 C770 C 0.04940 0.39073 0.74581
 O771 O 0.07774 0.41790 0.77220
 C772 C 0.10145 0.42749 0.76762
 C773 C 0.11112 0.42049 0.74385
 C774 C 0.13553 0.42848 0.73503
 C775 C 0.15051 0.44453 0.75129
 C776 C 0.14093 0.45231 0.77587
 C777 C 0.11601 0.44345 0.78413
 H778 H 0.10614 0.39463 0.69518
 H779 H 0.06613 0.37071 0.68454
 H780 H 0.03476 0.38964 0.76085
 H781 H 0.14272 0.42271 0.71623
 H782 H 0.16947 0.45109 0.74455
 H783 H 0.10802 0.44905 0.80268
 C784 C 0.06730 0.59491 0.24890
 C785 C 0.08733 0.59421 0.26652
 C786 C 0.08578 0.60637 0.29039
 C787 C 0.06269 0.61996 0.29635
 C788 C 0.04142 0.62141 0.27844
 C789 C 0.04418 0.60833 0.25429
 O790 O 0.07262 0.58188 0.22736
 C791 C 0.09655 0.57270 0.23155
 C792 C 0.10646 0.57974 0.25522
 C793 C 0.13113 0.57210 0.26365
 C794 C 0.14611 0.55638 0.24709
 C795 C 0.13626 0.54857 0.22261
 C796 C 0.11110 0.55708 0.21475
 H797 H 0.10170 0.60520 0.30413
 H798 H 0.06138 0.62829 0.31545
 H799 H 0.02934 0.60924 0.23944
 H800 H 0.13851 0.57788 0.28238
 H801 H 0.16527 0.55007 0.25352
 H802 H 0.10290 0.55144 0.19631
 C803 C 0.92896 0.40391 0.25046
 C804 C 0.90923 0.40513 0.26837
 C805 C 0.91089 0.39307 0.29229
 C806 C 0.93379 0.37906 0.29801
 C807 C 0.95477 0.37713 0.27983
 C808 C 0.95187 0.39007 0.25562
 O809 O 0.92356 0.41685 0.22888
 C810 C 0.89988 0.42652 0.23334
 C811 C 0.89022 0.41989 0.25723
 C812 C 0.86580 0.42800 0.26591
 C813 C 0.85078 0.44370 0.24935
 C814 C 0.86035 0.45102 0.22462
 C815 C 0.88531 0.44214 0.21655
 H816 H 0.89519 0.39461 0.30624
 H817 H 0.93523 0.37079 0.31714
 H818 H 0.96646 0.38876 0.24055
 H819 H 0.85860 0.42252 0.28480
 H820 H 0.83178 0.45029 0.25594
 H821 H 0.89326 0.44736 0.19788
 C822 C 0.93005 0.59218 0.75092
 C823 C 0.91022 0.59086 0.73311
 C824 C 0.91153 0.60318 0.70930
 C825 C 0.93416 0.61761 0.70360
 C826 C 0.95520 0.61973 0.72168
 C827 C 0.95273 0.60643 0.74576
 O828 O 0.92493 0.57899 0.77242
 C829 C 0.90133 0.56906 0.76800
 C830 C 0.89147 0.57578 0.74422
 C831 C 0.86710 0.56752 0.73557
 C832 C 0.85233 0.55154 0.75206
 C833 C 0.86207 0.54411 0.77670
 C834 C 0.88699 0.55316 0.78474
 H835 H 0.89576 0.60153 0.69544
 H836 H 0.93533 0.62609 0.68454
 H837 H 0.96743 0.60782 0.76072
 H838 H 0.85975 0.57308 0.71676
 H839 H 0.83336 0.54484 0.74549
 H840 H 0.89506 0.54787 0.80334
 C841 C 0.76319 0.60609 0.92214
 C842 C 0.74682 0.60858 0.90121
 C843 C 0.72371 0.62287 0.90209
 C844 C 0.71694 0.63467 0.92561
 C845 C 0.73328 0.63214 0.94773
 C846 C 0.75707 0.61800 0.94560
 O847 O 0.78319 0.59009 0.91785
 C848 C 0.77928 0.58223 0.89374
 C849 C 0.75734 0.59302 0.88265
 C850 C 0.74869 0.58618 0.85812
 C851 C 0.76308 0.56723 0.84457
 C852 C 0.78559 0.55547 0.85574
 C853 C 0.79395 0.56348 0.88059
 H854 H 0.71085 0.62410 0.88553
 H855 H 0.69833 0.64470 0.92680
 H856 H 0.77005 0.61551 0.96193
 H857 H 0.73114 0.59466 0.84993
 H858 H 0.75631 0.56134 0.82565
 H859 H 0.81074 0.55463 0.88989
 C860 C 0.24558 0.40043 0.92446
 C861 C 0.26274 0.39880 0.90415
 C862 C 0.28640 0.38561 0.90583
 C863 C 0.29261 0.37346 0.92934
 C864 C 0.27517 0.37448 0.95092
 C865 C 0.25121 0.38845 0.94797
 O866 O 0.22445 0.41454 0.91915
 C867 C 0.22843 0.42206 0.89496
 C868 C 0.25156 0.41291 0.88484
 C869 C 0.25994 0.41911 0.86005
 C870 C 0.24405 0.43580 0.84528
 C871 C 0.22030 0.44594 0.85547
 C872 C 0.21229 0.43854 0.88060
 H873 H 0.29987 0.38505 0.88971
 H874 H 0.31165 0.36438 0.93064
 H875 H 0.23669 0.38946 0.96312
 H876 H 0.27830 0.41178 0.85254
 H877 H 0.25059 0.44129 0.82616
 H878 H 0.19450 0.44613 0.88915
 C879 C 0.23678 0.60783 0.07684
 C880 C 0.25299 0.61022 0.09788
 C881 C 0.27614 0.62445 0.09722
 C882 C 0.28313 0.63632 0.07379
 C883 C 0.26695 0.63394 0.05155
 C884 C 0.24310 0.61983 0.05346
 O885 O 0.21665 0.59193 0.08097
 C886 C 0.22033 0.58402 0.10511
 C887 C 0.24225 0.59470 0.11634
 C888 C 0.25064 0.58792 0.14097
 C889 C 0.23599 0.56917 0.15449
 C890 C 0.21346 0.55753 0.14323
 C891 C 0.20538 0.56543 0.11825
 H892 H 0.28887 0.62560 0.11388
 H893 H 0.30178 0.64632 0.07279
 H894 H 0.23022 0.61748 0.03705
 H895 H 0.26817 0.59634 0.14927
 H896 H 0.24254 0.56339 0.17353
 H897 H 0.18857 0.55669 0.10890
 C898 C 0.76343 0.38788 0.07807
 C899 C 0.74700 0.38506 0.09890
 C900 C 0.72402 0.37061 0.09782
 C901 C 0.71743 0.35897 0.07419
 C902 C 0.73385 0.36177 0.05215
 C903 C 0.75751 0.37609 0.05448
 O904 O 0.78322 0.40407 0.08256
 C905 C 0.77911 0.41172 0.10670
 C906 C 0.75725 0.40060 0.11761
 C907 C 0.74836 0.40720 0.14212
 C908 C 0.76240 0.42627 0.15583
 C909 C 0.78480 0.43840 0.14485
 C910 C 0.79344 0.43061 0.12003
 H911 H 0.71109 0.36917 0.11430
 H912 H 0.69887 0.34885 0.07287
 H913 H 0.77053 0.37881 0.03823
 H914 H 0.73087 0.39845 0.15015
 H915 H 0.75543 0.43200 0.17473
 H916 H 0.81014 0.43975 0.11085
 C917 C 0.92129 0.75680 0.60584
 C918 C 0.90061 0.73968 0.60749
 C919 C 0.90187 0.71649 0.62141
 C920 C 0.92558 0.71045 0.63373
 C921 C 0.94747 0.72758 0.63205
 C922 C 0.94490 0.75140 0.61826
 O923 O 0.91662 0.77694 0.59034
 C924 C 0.89250 0.77236 0.58194
 C925 C 0.88181 0.74984 0.59189
 C926 C 0.85725 0.74068 0.58470
 C927 C 0.84320 0.75525 0.56640
 C928 C 0.85388 0.77846 0.55560
 C929 C 0.87887 0.78719 0.56376
 H930 H 0.88549 0.70309 0.62204
 H931 H 0.92716 0.69183 0.64355
 H932 H 0.96105 0.76499 0.61649
 H933 H 0.84936 0.72273 0.59258
 H934 H 0.82415 0.74821 0.56042
 H935 H 0.88775 0.80461 0.55575
 C936 C 0.92452 0.24180 0.39781
 C937 C 0.90367 0.25867 0.39589
 C938 C 0.90472 0.28173 0.38176
 C939 C 0.92837 0.28787 0.36942
 C940 C 0.95042 0.27095 0.37123
 C941 C 0.94813 0.24731 0.38539
 O942 O 0.91993 0.22170 0.41340
 C943 C 0.89567 0.22607 0.42156
 C944 C 0.88484 0.24841 0.41136
 C945 C 0.86010 0.25735 0.41819
 C946 C 0.84599 0.24274 0.43640
 C947 C 0.85678 0.21970 0.44746
 C948 C 0.88196 0.21118 0.43965
 H949 H 0.88819 0.29494 0.38092
 H950 H 0.92974 0.30637 0.35937
 H951 H 0.96440 0.23389 0.38728
 H952 H 0.85211 0.27515 0.41009
 H953 H 0.82680 0.24961 0.44209
 H954 H 0.89093 0.19390 0.44787
 C955 C 0.07820 0.24099 0.60502
 C956 C 0.09909 0.25778 0.60718
 C957 C 0.09792 0.28087 0.62124
 C958 C 0.07414 0.28712 0.63328
 C959 C 0.05205 0.27026 0.63128
 C960 C 0.05445 0.24660 0.61716
 O961 O 0.08290 0.22088 0.58948
 C962 C 0.10728 0.22515 0.58160
 C963 C 0.11808 0.24743 0.59193
 C964 C 0.14293 0.25628 0.58534
 C965 C 0.15715 0.24168 0.56719
 C966 C 0.14635 0.21875 0.55593
 C967 C 0.12109 0.21028 0.56357
 H968 H 0.11449 0.29403 0.62224
 H969 H 0.07273 0.30564 0.64327
 H970 H 0.03817 0.23322 0.61511
 H971 H 0.15091 0.27404 0.59352
 H972 H 0.17638 0.24854 0.56160
 H973 H 0.11209 0.19310 0.55517
 C974 C 0.07072 0.75867 0.39484
 C975 C 0.09278 0.74423 0.38982
 C976 C 0.09271 0.72290 0.37329
 C977 C 0.06884 0.71582 0.36183
 C978 C 0.04524 0.72993 0.36707
 C979 C 0.04680 0.75216 0.38358
 O980 O 0.07466 0.77755 0.41197
 C981 C 0.09975 0.77481 0.41805
 C982 C 0.11176 0.75469 0.40505
 C983 C 0.13764 0.74754 0.40952
 C984 C 0.15163 0.76160 0.42829
 C985 C 0.13962 0.78239 0.44208
 C986 C 0.11333 0.78919 0.43658
 H987 H 0.11028 0.71156 0.36993
 H988 H 0.06885 0.69823 0.35027
 H989 H 0.03005 0.76436 0.38776
 H990 H 0.14660 0.73141 0.39928
 H991 H 0.17170 0.75609 0.43224
 H992 H 0.10342 0.80466 0.44697
 C993 C 0.59814 0.92396 0.75320
 C994 C 0.59874 0.90376 0.73578
 C995 C 0.61129 0.90572 0.71212
 C996 C 0.62389 0.92937 0.70620
 C997 C 0.62399 0.95083 0.72391
 C998 C 0.61059 0.94762 0.74784
 O999 O 0.58465 0.91836 0.77439
 C1000 C 0.57648 0.89409 0.77018
 C1001 C 0.58462 0.88420 0.74686
 C1002 C 0.57781 0.85931 0.73837
 C1003 C 0.56161 0.84417 0.75441
 C1004 C 0.55255 0.85409 0.77842
 C1005 C 0.56046 0.87937 0.78645
 H1006 H 0.61108 0.88969 0.69848
 H1007 H 0.63247 0.93090 0.68721
 H1008 H 0.61044 0.96261 0.76256
 H1009 H 0.58437 0.85197 0.71989
 H1010 H 0.55572 0.82495 0.74784
 H1011 H 0.55376 0.88771 0.80448
 C1012 C 0.40312 0.92747 0.24602
 C1013 C 0.40320 0.90707 0.26320
 C1014 C 0.39047 0.90822 0.28682
 C1015 C 0.37697 0.93130 0.29300
 C1016 C 0.37616 0.95300 0.27559
 C1017 C 0.38974 0.95059 0.25164
 O1018 O 0.41682 0.92258 0.22476
 C1019 C 0.42582 0.89854 0.22869
 C1020 C 0.41800 0.88815 0.25192
 C1021 C 0.42547 0.86337 0.26012
 C1022 C 0.44193 0.84882 0.24385
 C1023 C 0.45063 0.85916 0.21987
 C1024 C 0.44216 0.88439 0.21217
 H1025 H 0.39120 0.89202 0.30024
 H1026 H 0.36826 0.93222 0.31196
 H1027 H 0.38937 0.96576 0.23711
 H1028 H 0.41911 0.85563 0.27851
 H1029 H 0.44816 0.82962 0.25018
 H1030 H 0.44853 0.89301 0.19414
 C1031 C 0.59571 0.07320 0.24948
 C1032 C 0.59511 0.09310 0.26721
 C1033 C 0.60755 0.09146 0.29095
 C1034 C 0.62129 0.06841 0.29668
 C1035 C 0.62261 0.04724 0.27869
 C1036 C 0.60932 0.05013 0.25464
 O1037 O 0.58231 0.07854 0.22814
 C1038 C 0.57297 0.10234 0.23258
 C1039 C 0.58029 0.11215 0.25621
 C1040 C 0.57248 0.13663 0.26493
 C1041 C 0.55627 0.15152 0.24873
 C1042 C 0.54813 0.14178 0.22431
 C1043 C 0.55686 0.11682 0.21613
 H1044 H 0.60644 0.10728 0.30479
 H1045 H 0.62979 0.06705 0.31572
 H1046 H 0.61011 0.03539 0.23971
 H1047 H 0.57847 0.14393 0.28362
 H1048 H 0.54982 0.17052 0.25541
 H1049 H 0.55096 0.10869 0.19773
 C1050 C 0.39286 0.07140 0.76042
 C1051 C 0.39186 0.09247 0.74398
 C1052 C 0.37811 0.09202 0.72084
 C1053 C 0.36530 0.06874 0.71410
 C1054 C 0.36628 0.04644 0.73050
 C1055 C 0.37991 0.04818 0.75431
 O1056 O 0.40825 0.07536 0.78071
 C1057 C 0.41725 0.09942 0.77693
 C1058 C 0.40776 0.11075 0.75475
 C1059 C 0.41555 0.13538 0.74642
 C1060 C 0.43393 0.14886 0.76152
 C1061 C 0.44425 0.13757 0.78444
 C1062 C 0.43553 0.11249 0.79228
 H1063 H 0.37800 0.10872 0.70800
 H1064 H 0.35565 0.06781 0.69553
 H1065 H 0.38115 0.03172 0.76738
 H1066 H 0.40801 0.14378 0.72874
 H1067 H 0.44030 0.16799 0.75514
 H1068 H 0.44314 0.10317 0.80948
 C1069 C 0.60716 0.75841 0.07307
 C1070 C 0.60863 0.74139 0.09355
 C1071 C 0.62247 0.71803 0.09246
 C1072 C 0.63494 0.71172 0.06916
 C1073 C 0.63355 0.72876 0.04748
 C1074 C 0.61976 0.75274 0.04983
 O1075 O 0.59172 0.77879 0.07761
 C1076 C 0.58319 0.77447 0.10145
 C1077 C 0.59302 0.75186 0.11207
 C1078 C 0.58576 0.74293 0.13636
 C1079 C 0.56751 0.75784 0.15025
 C1080 C 0.55681 0.78116 0.13969
 C1081 C 0.56505 0.78965 0.11495
 H1082 H 0.62294 0.70472 0.10869
 H1083 H 0.64467 0.69298 0.06777
 H1084 H 0.61819 0.76627 0.03384
 H1085 H 0.59357 0.72493 0.14419
 H1086 H 0.56150 0.75097 0.16911
 H1087 H 0.55711 0.80715 0.10617
 C1088 C 0.39832 0.24767 0.07465
 C1089 C 0.40266 0.26774 0.09176
 C1090 C 0.39355 0.29300 0.08759
 C1091 C 0.37938 0.29778 0.06486
 C1092 C 0.37432 0.27733 0.04693
 C1093 C 0.38397 0.25187 0.05215
 O1094 O 0.40948 0.22535 0.08173
 C1095 C 0.42112 0.23146 0.10382
 C1096 C 0.41742 0.25712 0.11089
 C1097 C 0.42817 0.26775 0.13317
 C1098 C 0.44359 0.25134 0.14867
 C1099 C 0.44818 0.22489 0.14157
 C1100 C 0.43654 0.21483 0.11884
 H1101 H 0.39758 0.30859 0.10115
 H1102 H 0.37288 0.31755 0.06106
 H1103 H 0.38043 0.23573 0.03909
 H1104 H 0.42504 0.28802 0.13830
 H1105 H 0.45242 0.25946 0.16589
 H1106 H 0.43969 0.19481 0.11278
 C1107 C 0.60340 0.23808 0.92884
 C1108 C 0.60421 0.25531 0.90849
 C1109 C 0.61815 0.27862 0.90935
 C1110 C 0.63144 0.28467 0.93229
 C1111 C 0.63074 0.26742 0.95383
 C1112 C 0.61678 0.24352 0.95172
 O1113 O 0.58791 0.21767 0.92452
 C1114 C 0.57868 0.22219 0.90097
 C1115 C 0.58810 0.24495 0.89031
 C1116 C 0.58020 0.25402 0.86626
 C1117 C 0.56178 0.23907 0.85264
 C1118 C 0.55155 0.21554 0.86320
 C1119 C 0.56037 0.20696 0.88773
 H1120 H 0.61814 0.29207 0.89322
 H1121 H 0.64133 0.30334 0.93353
 H1122 H 0.61573 0.22983 0.96762
 H1123 H 0.58771 0.27214 0.85839
 H1124 H 0.55534 0.24602 0.83395
 H1125 H 0.55284 0.18927 0.89649
 C1126 C 0.39377 0.75796 0.92470
 C1127 C 0.39202 0.74033 0.90474
 C1128 C 0.37813 0.71707 0.90669
 C1129 C 0.36583 0.71157 0.93028
 C1130 C 0.36742 0.72930 0.95140
 C1131 C 0.38138 0.75307 0.94824
 O1132 O 0.40918 0.77816 0.91936
 C1133 C 0.41739 0.77310 0.89556
 C1134 C 0.40742 0.75021 0.88571
 C1135 C 0.41443 0.74057 0.86159
 C1136 C 0.43261 0.75501 0.84709
 C1137 C 0.44347 0.77857 0.85691
 C1138 C 0.43542 0.78780 0.88146
 H1139 H 0.37744 0.70326 0.89088
 H1140 H 0.35597 0.69295 0.93231
 H1141 H 0.38315 0.76708 0.96379
 H1142 H 0.40652 0.72235 0.85436
 H1143 H 0.43853 0.74757 0.82842
 H1144 H 0.44350 0.80549 0.88972
 C1145 C 0.74990 0.92483 0.40243
 C1146 C 0.73050 0.90639 0.40498
 C1147 C 0.70552 0.90980 0.39489
 C1148 C 0.70033 0.93316 0.38155
 C1149 C 0.72009 0.95248 0.37835
 C1150 C 0.74528 0.94804 0.38903
 O1151 O 0.77201 0.91823 0.41423
 C1152 C 0.76644 0.89509 0.42447
 C1153 C 0.74135 0.88690 0.41929
 C1154 C 0.73130 0.86345 0.42858
 C1155 C 0.74766 0.84800 0.44414
 C1156 C 0.77351 0.85625 0.45025
 C1157 C 0.78303 0.88009 0.43994
 H1158 H 0.69043 0.89518 0.39748
 H1159 H 0.68076 0.93630 0.37419
 H1160 H 0.76090 0.96218 0.38692
 H1161 H 0.71145 0.85744 0.42432
 H1162 H 0.73993 0.82992 0.45190
 H1163 H 0.80253 0.88710 0.44432
 C1164 C 0.23868 0.92200 0.60439
 C1165 C 0.25547 0.90104 0.60592
 C1166 C 0.27867 0.90183 0.61990
 C1167 C 0.28507 0.92531 0.63243
 C1168 C 0.26829 0.94748 0.63092
 C1169 C 0.24447 0.94544 0.61698
 O1170 O 0.21844 0.91774 0.58886
 C1171 C 0.22261 0.89362 0.58033
 C1172 C 0.24498 0.88250 0.59022
 C1173 C 0.25374 0.85786 0.58283
 C1174 C 0.23895 0.84420 0.56438
 C1175 C 0.21589 0.85533 0.55366
 C1176 C 0.20755 0.88035 0.56207
 H1177 H 0.29181 0.88524 0.62045
 H1178 H 0.30369 0.92648 0.64233
 H1179 H 0.23115 0.96181 0.61530
 H1180 H 0.27158 0.84963 0.59065
 H1181 H 0.24570 0.82514 0.55820
 H1182 H 0.19029 0.88961 0.55409
 C1183 C 0.24861 0.07584 0.39915
 C1184 C 0.26789 0.09443 0.40151
 C1185 C 0.29292 0.09101 0.39153
 C1186 C 0.29826 0.06751 0.37852
 C1187 C 0.27860 0.04805 0.37550
 C1188 C 0.25337 0.05251 0.38604
 O1189 O 0.22650 0.08240 0.41096
 C1190 C 0.23195 0.10565 0.42100
 C1191 C 0.25696 0.11397 0.41567
 C1192 C 0.26693 0.13749 0.42488
 C1193 C 0.25061 0.15282 0.44057
 C1194 C 0.22489 0.14438 0.44692
 C1195 C 0.21540 0.12053 0.43660
 H1196 H 0.30794 0.10573 0.39402
 H1197 H 0.31788 0.06437 0.37130
 H1198 H 0.23781 0.03827 0.38408
 H1199 H 0.28674 0.14359 0.42052
 H1200 H 0.25832 0.17090 0.44836
 H1201 H 0.19602 0.11333 0.44121
 C1202 C 0.75160 0.07500 0.60147
 C1203 C 0.73241 0.09364 0.59881
 C1204 C 0.70735 0.09049 0.60883
 C1205 C 0.70187 0.06721 0.62217
 C1206 C 0.72142 0.04768 0.62547
 C1207 C 0.74670 0.05187 0.61491
 O1208 O 0.77379 0.08131 0.58967
 C1209 C 0.76850 0.10446 0.57932
 C1210 C 0.74349 0.11295 0.58444
 C1211 C 0.73370 0.13645 0.57501
 C1212 C 0.75023 0.15164 0.55938
 C1213 C 0.77598 0.14308 0.55332
 C1214 C 0.78525 0.11920 0.56376
 H1215 H 0.69242 0.10526 0.60613
 H1216 H 0.68223 0.06427 0.62942
 H1217 H 0.76218 0.03759 0.61709
 H1218 H 0.71391 0.14269 0.57922
 H1219 H 0.74268 0.16975 0.55152
 H1220 H 0.80467 0.11194 0.55941
 C1221 C 0.91939 0.60839 0.23840
 C1222 C 0.89822 0.61016 0.25470
 C1223 C 0.89911 0.62367 0.27793
 C1224 C 0.92292 0.63542 0.28489
 C1225 C 0.94529 0.63364 0.26860
 C1226 C 0.94311 0.62033 0.24469
 O1227 O 0.91513 0.59292 0.21828
 C1228 C 0.89080 0.58465 0.22202
 C1229 C 0.87952 0.59469 0.24398
 C1230 C 0.85478 0.58725 0.25245
 C1231 C 0.84127 0.56844 0.23788
 C1232 C 0.85268 0.55738 0.21539
 C1233 C 0.87769 0.56604 0.20720
 H1234 H 0.88239 0.62429 0.29074
 H1235 H 0.92414 0.64481 0.30357
 H1236 H 0.95961 0.61843 0.23174
 H1237 H 0.84646 0.59513 0.27001
 H1238 H 0.82223 0.56202 0.24453
 H1239 H 0.88720 0.55774 0.19042
 C1240 C 0.92432 0.38855 0.76247
 C1241 C 0.90312 0.38619 0.74628
 C1242 C 0.90423 0.37257 0.72312
 C1243 C 0.92825 0.36131 0.71614
 C1244 C 0.95065 0.36365 0.73233
 C1245 C 0.94829 0.37711 0.75615
 O1246 O 0.91974 0.40398 0.78257
 C1247 C 0.89517 0.41160 0.77891
 C1248 C 0.88407 0.40120 0.75703
 C1249 C 0.85909 0.40791 0.74866
 C1250 C 0.84511 0.42636 0.76325
 C1251 C 0.85630 0.43778 0.78568
 C1252 C 0.88159 0.42986 0.79377
 H1253 H 0.88746 0.37148 0.71039
 H1254 H 0.92958 0.35184 0.69751
 H1255 H 0.96480 0.37944 0.76904
 H1256 H 0.85090 0.39974 0.73116
 H1257 H 0.82586 0.43220 0.75668
 H1258 H 0.89094 0.43847 0.81048
 C1259 C 0.07760 0.60930 0.76096
 C1260 C 0.09851 0.61147 0.74439
 C1261 C 0.09713 0.62515 0.72127
 C1262 C 0.07308 0.63660 0.71470
 C1263 C 0.05095 0.63437 0.73125
 C1264 C 0.05364 0.62094 0.75505
 O1265 O 0.08236 0.59378 0.78094
 C1266 C 0.10676 0.58588 0.77683
 C1267 C 0.11757 0.59621 0.75477
 C1268 C 0.14231 0.58923 0.74595
 C1269 C 0.15636 0.57063 0.76029
 C1270 C 0.14547 0.55933 0.78292
 C1271 C 0.12040 0.56747 0.79143
 H1272 H 0.11368 0.62610 0.70826
 H1273 H 0.07147 0.64609 0.69609
 H1274 H 0.03732 0.61870 0.76819
 H1275 H 0.15027 0.59734 0.72832
 H1276 H 0.17545 0.56464 0.75341
 H1277 H 0.11129 0.55899 0.80834
 C1278 C 0.07601 0.38991 0.23879
 C1279 C 0.09727 0.38831 0.25497
 C1280 C 0.09671 0.37465 0.27813
 C1281 C 0.07308 0.36263 0.28520
 C1282 C 0.05058 0.36428 0.26907
 C1283 C 0.05249 0.37766 0.24515
 O1284 O 0.07994 0.40559 0.21874
 C1285 C 0.10417 0.41417 0.22243
 C1286 C 0.11568 0.40412 0.24427
 C1287 C 0.14035 0.41177 0.25270
 C1288 C 0.15360 0.43076 0.23815
 C1289 C 0.14199 0.44180 0.21573
 C1290 C 0.11701 0.43301 0.20763
 H1291 H 0.11352 0.37417 0.29084
 H1292 H 0.07208 0.35320 0.30387
 H1293 H 0.03587 0.37945 0.23231
 H1294 H 0.14885 0.40386 0.27017
 H1295 H 0.17266 0.43723 0.24471
 H1296 H 0.10739 0.44126 0.19088
   
