data_POSCAR
  _audit_creation_date              2014-09-24
  _audit_creation_method            'ToBaCCo'
  _symmetry_space_group_name_H-M    'P1'
  _symmetry_Int_Tables_number       1
  _symmetry_cell_setting            triclinic
  loop_
  _symmetry_equiv_pos_as_xyz
 x,y,z
_cell_length_a 52.5648
_cell_length_b 52.6058
_cell_length_c 52.5802
_cell_angle_alpha 90.000700
_cell_angle_beta 89.999300
_cell_angle_gamma 89.999600
loop_
  _atom_site_label
  _atom_site_type_symbol
  _atom_site_fract_x
  _atom_site_fract_y
  _atom_site_fract_z
C1 C 0.24855 1.08013 -0.01310
 C2 C 0.25006 1.08019 0.01291
 C3 C 0.25053 1.05493 0.02056
 N4 N 0.24942 1.03956 -0.00002
 C5 C 0.24824 1.05485 -0.02063
 C6 C 0.25114 1.04668 0.04619
 C7 C 0.25039 1.02086 0.05402
 C8 C 0.24693 1.01301 0.07901
 C9 C 0.24677 0.98693 0.07886
 C10 C 0.25016 0.97934 0.05381
 N11 N 0.25276 1.00015 0.03886
 C12 C 0.25075 0.95363 0.04580
 C13 C 0.25066 0.94535 0.02021
 C14 C 0.25048 0.92007 0.01269
 C15 C 0.24948 0.92001 -0.01335
 C16 C 0.24913 0.94528 -0.02100
 N17 N 0.24986 0.96064 -0.00041
 C18 C 0.24892 0.95354 -0.04664
 C19 C 0.24930 0.97938 -0.05445
 C20 C 0.25266 0.98729 -0.07943
 C21 C 0.25231 1.01337 -0.07929
 C22 C 0.24876 1.02090 -0.05424
 N23 N 0.24652 1.00004 -0.03930
 C24 C 0.24779 1.04659 -0.04621
 H25 H 0.24796 1.09684 -0.02510
 H26 H 0.25057 1.09695 0.02485
 H27 H 0.24149 0.99997 -0.02027
 H28 H 0.24442 1.02486 0.09565
 H29 H 0.24415 0.97494 0.09538
 H30 H 0.25086 0.90337 0.02470
 H31 H 0.24918 0.90325 -0.02529
 H32 H 0.25476 1.02542 -0.09580
 H33 H 0.25777 1.00017 0.01982
 H34 H 0.25541 0.97549 -0.09608
 C35 C 0.74915 0.48685 0.58035
 C36 C 0.75078 0.51287 0.58030
 C37 C 0.75106 0.52040 0.55501
 N38 N 0.74973 0.49981 0.53972
 C39 C 0.74857 0.47926 0.55509
 C40 C 0.75166 0.54596 0.54671
 C41 C 0.75075 0.55393 0.52099
 C42 C 0.74732 0.57896 0.51336
 C43 C 0.74702 0.57901 0.48725
 C44 C 0.75031 0.55402 0.47947
 N45 N 0.75299 0.53892 0.50018
 C46 C 0.75072 0.54615 0.45369
 C47 C 0.75039 0.52058 0.44545
 C48 C 0.75011 0.51298 0.42019
 C49 C 0.74899 0.48694 0.42023
 C50 C 0.74866 0.47941 0.44552
 N51 N 0.74949 0.50002 0.46081
 C52 C 0.74843 0.45385 0.45383
 C53 C 0.74882 0.44588 0.47958
 C54 C 0.75205 0.42084 0.48728
 C55 C 0.75183 0.42079 0.51338
 C56 C 0.74850 0.44579 0.52110
 N57 N 0.74623 0.46090 0.50035
 C58 C 0.74785 0.45369 0.54686
 H59 H 0.74864 0.47491 0.59711
 H60 H 0.75149 0.52485 0.59702
 H61 H 0.74135 0.47995 0.50032
 H62 H 0.74491 0.59551 0.52536
 H63 H 0.74437 0.59560 0.47537
 H64 H 0.75054 0.52493 0.40343
 H65 H 0.74862 0.47494 0.40351
 H66 H 0.75425 0.40419 0.52531
 H67 H 0.75798 0.51989 0.50016
 H68 H 0.75464 0.40428 0.47533
 C69 C 0.74955 0.91992 0.98716
 C70 C 0.75052 0.91979 1.01321
 C71 C 0.75103 0.94503 1.02092
 N72 N 0.75041 0.96044 1.00037
 C73 C 0.74953 0.94522 0.97970
 C74 C 0.75131 0.95323 1.04658
 C75 C 0.75111 0.97904 1.05447
 C76 C 0.74792 0.98691 1.07949
 C77 C 0.74836 1.01299 1.07942
 C78 C 0.75178 1.02057 1.05437
 N79 N 0.75387 0.99974 1.03936
 C80 C 0.75272 1.04628 1.04639
 C81 C 0.75225 1.05461 1.02082
 C82 C 0.75189 1.07990 1.01337
 C83 C 0.75039 1.08003 0.98735
 C84 C 0.74998 1.05479 0.97964
 N85 N 0.75113 1.03937 1.00017
 C86 C 0.74941 1.04660 0.95399
 C87 C 0.75019 1.02081 0.94610
 C88 C 0.75376 1.01301 0.92111
 C89 C 0.75384 0.98693 0.92119
 C90 C 0.75029 0.97929 0.94620
 N91 N 0.74767 1.00007 0.96119
 C92 C 0.74953 0.95356 0.95414
 H93 H 0.74907 0.90324 0.97511
 H94 H 0.75072 0.90300 1.02511
 H95 H 0.74252 1.00005 0.98019
 H96 H 0.74524 0.97507 1.09612
 H97 H 0.74605 1.02499 1.09598
 H98 H 0.75243 1.09658 1.02541
 H99 H 0.74984 1.09682 0.97546
 H100 H 0.75652 0.97497 0.90465
 H101 H 0.75874 0.99971 1.02029
 H102 H 0.75639 1.02490 0.90451
 C103 C 0.25057 0.51317 0.57986
 C104 C 0.24904 0.48715 0.57981
 C105 C 0.24868 0.47962 0.55452
 N106 N 0.24985 0.50021 0.53923
 C107 C 0.25099 0.52076 0.55460
 C108 C 0.24813 0.45406 0.54622
 C109 C 0.24900 0.44608 0.52049
 C110 C 0.25245 0.42106 0.51286
 C111 C 0.25271 0.42101 0.48675
 C112 C 0.24939 0.44599 0.47897
 N113 N 0.24672 0.46109 0.49969
 C114 C 0.24895 0.45386 0.45319
 C115 C 0.24920 0.47944 0.44494
 C116 C 0.24949 0.48703 0.41968
 C117 C 0.25051 0.51308 0.41973
 C118 C 0.25078 0.52061 0.44502
 N119 N 0.24999 0.50001 0.46031
 C120 C 0.25090 0.54617 0.45333
 C121 C 0.25042 0.55413 0.47908
 C122 C 0.24700 0.57914 0.48678
 C123 C 0.24724 0.57920 0.51288
 C124 C 0.25077 0.55422 0.52060
 N125 N 0.25313 0.53913 0.49984
 C126 C 0.25154 0.54634 0.54636
 H127 H 0.25110 0.52512 0.59661
 H128 H 0.24847 0.47516 0.59653
 H129 H 0.25819 0.52012 0.49981
 H130 H 0.25490 0.40451 0.52485
 H131 H 0.25538 0.40442 0.47487
 H132 H 0.24912 0.47508 0.40293
 H133 H 0.25085 0.52508 0.40301
 H134 H 0.24471 0.59578 0.52481
 H135 H 0.24172 0.48012 0.49967
 H136 H 0.24429 0.59568 0.47484
 C137 C 1.08036 0.25066 -0.01373
 C138 C 1.08053 0.24965 0.01230
 C139 C 1.05529 0.24850 0.02004
 N140 N 1.03984 0.24872 -0.00051
 C141 C 1.05503 0.25004 -0.02121
 C142 C 1.04717 0.24785 0.04572
 C143 C 1.02138 0.24777 0.05378
 C144 C 1.01366 0.25028 0.07893
 C145 C 0.98756 0.25000 0.07900
 C146 C 0.97982 0.24736 0.05390
 N147 N 1.00057 0.24556 0.03873
 C148 C 0.95403 0.24704 0.04602
 C149 C 0.94562 0.24791 0.02049
 C150 C 0.92030 0.24905 0.01315
 C151 C 0.92010 0.25049 -0.01287
 C152 C 0.94533 0.25009 -0.02069
 N153 N 0.96081 0.24850 -0.00023
 C154 C 0.95344 0.25017 -0.04637
 C155 C 0.97919 0.24881 -0.05435
 C156 C 0.98679 0.24451 -0.07928
 C157 C 1.01288 0.24433 -0.07939
 C158 C 1.02076 0.24856 -0.05452
 N159 N 1.00006 0.25163 -0.03945
 C160 C 1.04660 0.24973 -0.04679
 H161 H 1.09703 0.25155 -0.02579
 H162 H 1.09734 0.24985 0.02418
 H163 H 1.00019 0.25746 -0.02064
 H164 H 1.02560 0.25247 0.09557
 H165 H 0.97565 0.25197 0.09568
 H166 H 0.90365 0.24901 0.02526
 H167 H 0.90327 0.25150 -0.02470
 H168 H 1.02472 0.24122 -0.09594
 H169 H 1.00051 0.24148 0.01949
 H170 H 0.97476 0.24153 -0.09572
 C171 C 0.48731 0.74994 0.58003
 C172 C 0.51338 0.74886 0.57995
 C173 C 0.52088 0.74852 0.55466
 N174 N 0.50023 0.74931 0.53939
 C175 C 0.47967 0.75017 0.55478
 C176 C 0.54645 0.74832 0.54631
 C177 C 0.55434 0.74877 0.52054
 C178 C 0.57935 0.75214 0.51277
 C179 C 0.57933 0.75193 0.48667
 C180 C 0.55430 0.74847 0.47901
 N181 N 0.53926 0.74612 0.49981
 C182 C 0.54634 0.74775 0.45327
 C183 C 0.52073 0.74828 0.44508
 C184 C 0.51309 0.74871 0.41983
 C185 C 0.48705 0.75020 0.41991
 C186 C 0.47955 0.75054 0.44521
 N187 N 0.50018 0.74937 0.46047
 C188 C 0.45399 0.75106 0.45355
 C189 C 0.44609 0.75021 0.47930
 C190 C 0.42107 0.74672 0.48701
 C191 C 0.42110 0.74651 0.51312
 C192 C 0.44612 0.74990 0.52082
 N193 N 0.46116 0.75256 0.50006
 C194 C 0.45407 0.75042 0.54657
 H195 H 0.47537 0.75036 0.59680
 H196 H 0.52541 0.74853 0.59666
 H197 H 0.48019 0.75760 0.50004
 H198 H 0.59595 0.75481 0.52467
 H199 H 0.59590 0.75444 0.47469
 H200 H 0.52503 0.74820 0.40305
 H201 H 0.47502 0.75078 0.40321
 H202 H 0.40453 0.74384 0.52505
 H203 H 0.52022 0.74112 0.49988
 H204 H 0.40448 0.74422 0.47507
 C205 C -0.01306 0.75192 -0.08071
 C206 C 0.01296 0.75057 -0.08067
 C207 C 0.02051 0.75004 -0.05537
 N208 N -0.00014 0.75095 -0.04007
 C209 C -0.02072 0.75207 -0.05543
 C210 C 0.04614 0.74951 -0.04705
 C211 C 0.05397 0.75027 -0.02123
 C212 C 0.07898 0.75368 -0.01337
 C213 C 0.07884 0.75384 0.01272
 C214 C 0.05378 0.75050 0.02031
 N215 N 0.03881 0.74793 -0.00051
 C216 C 0.04576 0.74995 0.04603
 C217 C 0.02016 0.75010 0.05427
 C218 C 0.01260 0.75046 0.07954
 C219 C -0.01345 0.75138 0.07955
 C220 C -0.02107 0.75149 0.05426
 N221 N -0.00045 0.75072 0.03893
 C222 C -0.04670 0.75146 0.04595
 C223 C -0.05452 0.75085 0.02011
 C224 C -0.07948 0.74717 0.01226
 C225 C -0.07940 0.74744 -0.01382
 C226 C -0.05438 0.75125 -0.02145
 N227 N -0.03942 0.75372 -0.00060
 C228 C -0.04638 0.75231 -0.04721
 H229 H -0.02499 0.75250 -0.09748
 H230 H 0.02496 0.75019 -0.09740
 H231 H -0.02045 0.75899 -0.00053
 H232 H 0.09564 0.75617 -0.02523
 H233 H 0.09537 0.75645 0.02472
 H234 H 0.02459 0.75024 0.09628
 H235 H -0.02543 0.75175 0.09630
 H236 H -0.09592 0.74479 -0.02582
 H237 H 0.01975 0.74300 -0.00056
 H238 H -0.09608 0.74430 0.02411
 C239 C 0.57984 0.25050 0.51366
 C240 C 0.57996 0.25158 0.48760
 C241 C 0.55471 0.25175 0.47991
 N242 N 0.53929 0.25086 0.50043
 C243 C 0.55453 0.25008 0.52110
 C244 C 0.54656 0.25187 0.45429
 C245 C 0.52084 0.25133 0.44620
 C246 C 0.51327 0.24786 0.42115
 C247 C 0.48715 0.24805 0.42097
 C248 C 0.47931 0.25161 0.44592
 N249 N 0.49999 0.25404 0.46111
 C250 C 0.45350 0.25238 0.45368
 C251 C 0.44511 0.25189 0.47922
 C252 C 0.41980 0.25155 0.48667
 C253 C 0.41968 0.25005 0.51270
 C254 C 0.44493 0.24960 0.52039
 N255 N 0.46036 0.25071 0.49987
 C256 C 0.45307 0.24900 0.54601
 C257 C 0.47877 0.24975 0.55412
 C258 C 0.48629 0.25305 0.57921
 C259 C 0.51240 0.25329 0.57938
 C260 C 0.52031 0.25010 0.55440
 N261 N 0.49965 0.24752 0.53919
 C262 C 0.54613 0.24972 0.54664
 H263 H 0.59653 0.25018 0.52572
 H264 H 0.59676 0.25203 0.47570
 H265 H 0.49978 0.24266 0.52012
 H266 H 0.52529 0.24514 0.40466
 H267 H 0.47530 0.24547 0.40434
 H268 H 0.40311 0.25213 0.47462
 H269 H 0.40288 0.24952 0.52460
 H270 H 0.52421 0.25585 0.59605
 H271 H 0.49991 0.25915 0.48012
 H272 H 0.47422 0.25543 0.59572
 C273 C 1.08113 -0.01309 0.24962
 C274 C 1.08113 0.01291 0.25113
 C275 C 1.05583 0.02051 0.25162
 N276 N 1.04050 -0.00009 0.25055
 C277 C 1.05583 -0.02069 0.24934
 C278 C 1.04756 0.04613 0.25220
 C279 C 1.02175 0.05404 0.25147
 C280 C 1.01396 0.07906 0.24804
 C281 C 0.98786 0.07901 0.24793
 C282 C 0.98019 0.05399 0.25131
 N283 N 1.00099 0.03897 0.25387
 C284 C 0.95443 0.04607 0.25189
 C285 C 0.94617 0.02051 0.25170
 C286 C 0.92088 0.01294 0.25147
 C287 C 0.92088 -0.01310 0.25041
 C288 C 0.94617 -0.02066 0.25008
 N289 N 0.96151 -0.00008 0.25086
 C290 C 0.95444 -0.04622 0.24986
 C291 C 0.98020 -0.05415 0.25027
 C292 C 0.98789 -0.07917 0.25361
 C293 C 1.01399 -0.07922 0.25330
 C294 C 1.02175 -0.05422 0.24979
 N295 N 1.00097 -0.03914 0.24754
 C296 C 1.04755 -0.04631 0.24885
 H297 H 1.09788 -0.02504 0.24900
 H298 H 1.09788 0.02487 0.25160
 H299 H 1.00095 -0.02011 0.24253
 H300 H 1.02587 0.09566 0.24552
 H301 H 0.97591 0.09556 0.24533
 H302 H 0.90414 0.02492 0.25187
 H303 H 0.90414 -0.02507 0.25007
 H304 H 1.02591 -0.09583 0.25574
 H305 H 1.00101 0.01994 0.25885
 H306 H 0.97594 -0.09571 0.25631
 C307 C 0.48673 0.58014 0.75091
 C308 C 0.51277 0.58012 0.75246
 C309 C 0.52032 0.55485 0.75270
 N310 N 0.49973 0.53954 0.75143
 C311 C 0.47915 0.55489 0.75035
 C312 C 0.54590 0.54657 0.75318
 C313 C 0.55381 0.52083 0.75228
 C314 C 0.57880 0.51315 0.74863
 C315 C 0.57879 0.48705 0.74841
 C316 C 0.55379 0.47933 0.75196
 N317 N 0.53875 0.50008 0.75473
 C318 C 0.54587 0.45359 0.75256
 C319 C 0.52028 0.44533 0.75245
 C320 C 0.51268 0.42008 0.75237
 C321 C 0.48662 0.42009 0.75130
 C322 C 0.47907 0.44536 0.75080
 N323 N 0.49969 0.46067 0.75149
 C324 C 0.45348 0.45365 0.75045
 C325 C 0.44557 0.47941 0.75073
 C326 C 0.42051 0.48716 0.75382
 C327 C 0.42053 0.51326 0.75356
 C328 C 0.44559 0.52092 0.75034
 N329 N 0.46066 0.50013 0.74818
 C330 C 0.45355 0.54665 0.74966
 H331 H 0.47476 0.59688 0.75043
 H332 H 0.52476 0.59684 0.75313
 H333 H 0.47975 0.50009 0.74342
 H334 H 0.59537 0.52509 0.74602
 H335 H 0.59534 0.47513 0.74563
 H336 H 0.52465 0.40334 0.75288
 H337 H 0.47461 0.40337 0.75105
 H338 H 0.40393 0.52522 0.75588
 H339 H 0.51976 0.50007 0.75993
 H340 H 0.40390 0.47527 0.75635
 C341 C 0.92055 0.98720 0.74890
 C342 C 0.92059 1.01324 0.74981
 C343 C 0.94589 1.02077 0.75000
 N344 N 0.96119 1.00016 0.74928
 C345 C 0.94582 0.97960 0.74861
 C346 C 0.95420 1.04632 0.75004
 C347 C 0.97997 1.05420 0.74949
 C348 C 0.98769 1.07918 0.74596
 C349 C 1.01379 1.07920 0.74622
 C350 C 1.02152 1.05420 0.74988
 N351 N 1.00073 1.03917 0.75228
 C352 C 1.04731 1.04627 0.75085
 C353 C 1.05555 1.02064 0.75045
 C354 C 1.08084 1.01299 0.75016
 C355 C 1.08080 0.98699 0.74875
 C356 C 1.05549 0.97943 0.74832
 N357 N 1.04019 1.00006 0.74934
 C358 C 1.04717 0.95382 0.74785
 C359 C 1.02136 0.94595 0.74871
 C360 C 1.01355 0.92096 0.75227
 C361 C 0.98745 0.92105 0.75249
 C362 C 0.97980 0.94606 0.74904
 N363 N 1.00061 0.96105 0.74635
 C364 C 0.95405 0.95402 0.74853
 H365 H 0.90379 0.97525 0.74863
 H366 H 0.90387 1.02525 0.75014
 H367 H 1.00064 0.98006 0.74129
 H368 H 0.97576 1.09572 0.74318
 H369 H 1.02573 1.09577 0.74365
 H370 H 1.09761 1.02493 0.75071
 H371 H 1.09753 0.97501 0.74829
 H372 H 0.97548 0.90453 0.75521
 H373 H 1.00069 1.02018 0.75743
 H374 H 1.02544 0.90435 0.75481
 C375 C 0.51325 0.57990 0.24844
 C376 C 0.48719 0.57997 0.24946
 C377 C 0.47955 0.55472 0.24952
 N378 N 0.50011 0.53935 0.24859
 C379 C 0.52076 0.55462 0.24794
 C380 C 0.45394 0.54651 0.24958
 C381 C 0.44596 0.52079 0.24899
 C382 C 0.42094 0.51313 0.24546
 C383 C 0.42086 0.48703 0.24567
 C384 C 0.44584 0.47929 0.24929
 N385 N 0.46095 0.50001 0.25174
 C386 C 0.45369 0.45353 0.25016
 C387 C 0.47926 0.44520 0.24970
 C388 C 0.48677 0.41992 0.24945
 C389 C 0.51281 0.41986 0.24794
 C390 C 0.52044 0.44510 0.24740
 N391 N 0.49988 0.46048 0.24846
 C392 C 0.54605 0.45329 0.24677
 C393 C 0.55407 0.47900 0.24749
 C394 C 0.57914 0.48661 0.25079
 C395 C 0.57921 0.51270 0.25107
 C396 C 0.55419 0.52051 0.24791
 N397 N 0.53905 0.49982 0.24531
 C398 C 0.54633 0.54628 0.24763
 H399 H 0.52529 0.59660 0.24823
 H400 H 0.47524 0.59672 0.24996
 H401 H 0.51997 0.49990 0.24049
 H402 H 0.40441 0.52508 0.24270
 H403 H 0.40427 0.47513 0.24308
 H404 H 0.47475 0.40323 0.25010
 H405 H 0.52475 0.40310 0.24747
 H406 H 0.59584 0.52456 0.25366
 H407 H 0.47994 0.49998 0.25692
 H408 H 0.59570 0.47460 0.25314
 O409 O 0.25050 0.18371 0.21419
 O410 O 0.27814 0.17654 0.24959
 O411 O 0.18392 0.21443 0.25060
 O412 O 0.17432 0.24746 0.27522
 O413 O 0.21479 0.24997 0.18312
 O414 O 0.25001 0.27779 0.17598
 O415 O 0.25058 0.28471 0.31527
 O416 O 0.22103 0.25141 0.32211
 O417 O 0.31557 0.25078 0.28448
 O418 O 0.32367 0.22217 0.24827
 O419 O 0.28458 0.31559 0.25019
 O420 O 0.24842 0.32345 0.22164
 O421 O 0.25045 0.31529 0.28465
 O422 O 0.22106 0.32272 0.24822
 O423 O 0.31535 0.28516 0.25021
 O424 O 0.32314 0.24876 0.22105
 O425 O 0.28502 0.25100 0.31516
 O426 O 0.25012 0.22142 0.32289
 O427 O 0.25061 0.21424 0.18345
 O428 O 0.27854 0.24988 0.17638
 O429 O 0.18407 0.24961 0.21367
 O430 O 0.17822 0.27955 0.24911
 O431 O 0.21459 0.18383 0.25001
 O432 O 0.25011 0.17679 0.27791
 Zr433 Zr 0.24901 0.20423 0.24856
 O434 O 0.27281 0.22608 0.27219
 Zr435 Zr 0.20423 0.24881 0.24832
 O436 O 0.22594 0.27242 0.27240
 Zr437 Zr 0.24909 0.24874 0.20374
 O438 O 0.27261 0.27271 0.22558
 Zr439 Zr 0.25058 0.25039 0.29481
 O440 O 0.22646 0.22645 0.27316
 Zr441 Zr 0.29521 0.25060 0.25001
 O442 O 0.27368 0.22639 0.22607
 Zr443 Zr 0.25024 0.29504 0.25009
 O444 O 0.22649 0.27332 0.22583
 O445 O 0.22539 0.22516 0.22480
 O446 O 0.27426 0.27435 0.27389
 C447 C 0.25116 0.19100 0.19089
 C448 C 0.19132 0.19118 0.25099
 C449 C 0.19148 0.25028 0.19042
 C450 C 0.25057 0.30797 0.30793
 C451 C 0.30827 0.25102 0.30777
 C452 C 0.30789 0.30837 0.25027
 H453 H 0.28345 0.21458 0.28255
 H454 H 0.28303 0.28327 0.21405
 H455 H 0.21456 0.21417 0.21402
 H456 H 0.21449 0.28275 0.28314
 H457 H 0.20805 0.23894 0.31655
 H458 H 0.17989 0.25721 0.29031
 H459 H 0.31976 0.26269 0.20887
 H460 H 0.29186 0.23797 0.18233
 H461 H 0.26355 0.20893 0.31876
 H462 H 0.23831 0.18279 0.29131
 H463 H 0.26157 0.31955 0.20877
 H464 H 0.23847 0.29136 0.18208
 H465 H 0.29179 0.18271 0.23817
 H466 H 0.31990 0.20943 0.26157
 H467 H 0.18331 0.29143 0.23543
 H468 H 0.20905 0.31944 0.26232
 O469 O 0.74993 0.81582 0.21419
 O470 O 0.72232 0.82306 0.24961
 O471 O 0.81646 0.78494 0.25049
 O472 O 0.82599 0.75192 0.27518
 O473 O 0.78542 0.74945 0.18311
 O474 O 0.75012 0.72173 0.17599
 O475 O 0.74969 0.71485 0.31531
 O476 O 0.77932 0.74809 0.32209
 O477 O 0.68476 0.74887 0.28457
 O478 O 0.67664 0.77749 0.24840
 O479 O 0.71557 0.68401 0.25019
 O480 O 0.75171 0.67605 0.22169
 O481 O 0.74969 0.68426 0.28470
 O482 O 0.77907 0.67675 0.24826
 O483 O 0.68487 0.71451 0.25022
 O484 O 0.67715 0.75097 0.22112
 O485 O 0.71533 0.74863 0.31522
 O486 O 0.75030 0.77815 0.32289
 O487 O 0.74973 0.78528 0.18346
 O488 O 0.72165 0.74972 0.17644
 O489 O 0.81618 0.74973 0.21362
 O490 O 0.82200 0.71981 0.24908
 O491 O 0.78586 0.81562 0.24995
 O492 O 0.75038 0.82274 0.27793
 Zr493 Zr 0.75138 0.79530 0.24857
 O494 O 0.72755 0.77351 0.27222
 Zr495 Zr 0.79606 0.75061 0.24829
 O496 O 0.77432 0.72706 0.27240
 Zr497 Zr 0.75115 0.75078 0.20376
 O498 O 0.72761 0.72686 0.22563
 Zr499 Zr 0.74975 0.74916 0.29482
 O500 O 0.77390 0.77303 0.27314
 Zr501 Zr 0.70508 0.74903 0.25007
 O502 O 0.72663 0.77320 0.22611
 Zr503 Zr 0.74994 0.70449 0.25013
 O504 O 0.77372 0.72615 0.22582
 O505 O 0.77492 0.77430 0.22479
 O506 O 0.72599 0.72524 0.27394
 C507 C 0.74926 0.80853 0.19089
 C508 C 0.80912 0.80821 0.25086
 C509 C 0.80873 0.74907 0.19037
 C510 C 0.74962 0.69159 0.30798
 C511 C 0.69207 0.74865 0.30784
 C512 C 0.69228 0.69128 0.25024
 H513 H 0.71694 0.78503 0.28259
 H514 H 0.71716 0.71632 0.21410
 H515 H 0.78577 0.78525 0.21399
 H516 H 0.78576 0.71671 0.28314
 H517 H 0.79232 0.76053 0.31652
 H518 H 0.82042 0.74217 0.29026
 H519 H 0.68049 0.73705 0.20892
 H520 H 0.70841 0.76172 0.18237
 H521 H 0.73689 0.79066 0.31877
 H522 H 0.76221 0.81673 0.29128
 H523 H 0.73861 0.68002 0.20879
 H524 H 0.76164 0.70814 0.18206
 H525 H 0.70864 0.81691 0.23821
 H526 H 0.68051 0.79027 0.26164
 H527 H 0.81686 0.70792 0.23542
 H528 H 0.79107 0.67999 0.26238
 O529 O 0.74960 0.18386 0.78620
 O530 O 0.72188 0.17652 0.75090
 O531 O 0.81590 0.21490 0.74953
 O532 O 0.82518 0.24791 0.72474
 O533 O 0.78515 0.25035 0.81704
 O534 O 0.74980 0.27797 0.82434
 O535 O 0.74855 0.28478 0.68504
 O536 O 0.77827 0.25164 0.67811
 O537 O 0.68391 0.25054 0.71613
 O538 O 0.67610 0.22194 0.75240
 O539 O 0.71472 0.31554 0.75031
 O540 O 0.75100 0.32360 0.77864
 O541 O 0.74866 0.31539 0.71564
 O542 O 0.77820 0.32300 0.75191
 O543 O 0.68410 0.28497 0.75043
 O544 O 0.67663 0.24853 0.77961
 O545 O 0.71433 0.25085 0.68533
 O546 O 0.74934 0.22149 0.67746
 O547 O 0.74949 0.21441 0.81691
 O548 O 0.72142 0.24990 0.82409
 O549 O 0.81573 0.25014 0.78635
 O550 O 0.82127 0.28004 0.75085
 O551 O 0.78539 0.18414 0.75027
 O552 O 0.74981 0.17690 0.72247
 Zr553 Zr 0.75086 0.20436 0.75181
 O554 O 0.72684 0.22607 0.72827
 Zr555 Zr 0.79541 0.24917 0.75181
 O556 O 0.77347 0.27265 0.72781
 Zr557 Zr 0.75075 0.24890 0.79659
 O558 O 0.72702 0.27274 0.77484
 Zr559 Zr 0.74886 0.25048 0.70553
 O560 O 0.77319 0.22667 0.72709
 Zr561 Zr 0.70442 0.25050 0.75053
 O562 O 0.72617 0.22641 0.77438
 Zr563 Zr 0.74916 0.29516 0.75021
 O564 O 0.77313 0.27358 0.77439
 O565 O 0.77447 0.22544 0.77545
 O566 O 0.72514 0.27433 0.72653
 C567 C 0.74900 0.19116 0.80950
 C568 C 0.80862 0.19161 0.74923
 C569 C 0.80842 0.25080 0.80964
 C570 C 0.74846 0.30804 0.69237
 C571 C 0.69111 0.25075 0.69282
 C572 C 0.69145 0.30822 0.75036
 H573 H 0.71622 0.21451 0.71797
 H574 H 0.71660 0.28325 0.78641
 H575 H 0.78541 0.21452 0.78620
 H576 H 0.78482 0.28303 0.71700
 H577 H 0.79134 0.23923 0.68360
 H578 H 0.81952 0.25767 0.70970
 H579 H 0.68000 0.26247 0.79178
 H580 H 0.70814 0.23792 0.81821
 H581 H 0.73605 0.20889 0.68171
 H582 H 0.76156 0.18293 0.70905
 H583 H 0.73794 0.31963 0.79159
 H584 H 0.76125 0.29159 0.81820
 H585 H 0.70824 0.18263 0.76236
 H586 H 0.67989 0.20919 0.73911
 H587 H 0.81616 0.29193 0.76452
 H588 H 0.79015 0.31977 0.73774
 O589 O 0.25005 0.81644 0.78546
 O590 O 0.27773 0.82374 0.75010
 O591 O 0.18364 0.78551 0.74897
 O592 O 0.17422 0.75251 0.72424
 O593 O 0.21457 0.74995 0.81640
 O594 O 0.24993 0.72232 0.82357
 O595 O 0.25070 0.71554 0.68426
 O596 O 0.22097 0.74873 0.67744
 O597 O 0.31547 0.74971 0.71515
 O598 O 0.32344 0.77828 0.75141
 O599 O 0.28469 0.68473 0.74936
 O600 O 0.24848 0.67672 0.77787
 O601 O 0.25064 0.68493 0.71485
 O602 O 0.22121 0.67734 0.75120
 O603 O 0.31534 0.71527 0.74939
 O604 O 0.32297 0.75166 0.77860
 O605 O 0.28495 0.74943 0.68444
 O606 O 0.24995 0.77884 0.67670
 O607 O 0.25022 0.78588 0.81616
 O608 O 0.27833 0.75037 0.82321
 O609 O 0.18389 0.75023 0.78581
 O610 O 0.17818 0.72037 0.75031
 O611 O 0.21420 0.81623 0.74960
 O612 O 0.24972 0.82344 0.72175
 Zr613 Zr 0.24870 0.79595 0.75106
 O614 O 0.27261 0.77422 0.72743
 Zr615 Zr 0.20408 0.75121 0.75119
 O616 O 0.22591 0.72770 0.72712
 Zr617 Zr 0.24890 0.75139 0.79583
 O618 O 0.27253 0.72753 0.77399
 Zr619 Zr 0.25049 0.74985 0.70476
 O620 O 0.22627 0.77368 0.72641
 Zr621 Zr 0.29507 0.74976 0.74961
 O622 O 0.27343 0.77386 0.77355
 Zr623 Zr 0.25028 0.70515 0.74942
 O624 O 0.22641 0.72676 0.77369
 O625 O 0.22513 0.77490 0.77477
 O626 O 0.27425 0.72596 0.72568
 C627 C 0.25069 0.80914 0.80875
 C628 C 0.19096 0.80880 0.74862
 C629 C 0.19128 0.74953 0.80907
 C630 C 0.25079 0.69228 0.69158
 C631 C 0.30820 0.74951 0.69186
 C632 C 0.30797 0.69203 0.74931
 H633 H 0.28321 0.78577 0.71710
 H634 H 0.28298 0.71700 0.78552
 H635 H 0.21424 0.78582 0.78556
 H636 H 0.21452 0.71734 0.71634
 H637 H 0.20795 0.76116 0.68297
 H638 H 0.17982 0.74276 0.70916
 H639 H 0.31962 0.73772 0.79077
 H640 H 0.29159 0.76235 0.81730
 H641 H 0.26328 0.79141 0.68090
 H642 H 0.23795 0.81742 0.70834
 H643 H 0.26166 0.68061 0.79072
 H644 H 0.23848 0.70870 0.81744
 H645 H 0.29137 0.81763 0.76156
 H646 H 0.31959 0.79106 0.73816
 H647 H 0.18333 0.70846 0.76395
 H648 H 0.20921 0.68060 0.73708
 O649 O 0.24848 0.31595 0.71461
 O650 O 0.22089 0.32339 0.74994
 O651 O 0.31501 0.28530 0.75112
 O652 O 0.32444 0.25241 0.77605
 O653 O 0.28415 0.24948 0.68386
 O654 O 0.24886 0.22175 0.67674
 O655 O 0.24802 0.21541 0.81596
 O656 O 0.27767 0.24862 0.82278
 O657 O 0.18322 0.24933 0.78498
 O658 O 0.17516 0.27777 0.74870
 O659 O 0.21414 0.18434 0.75096
 O660 O 0.25044 0.17640 0.72241
 O661 O 0.24815 0.18472 0.78544
 O662 O 0.27756 0.17699 0.74923
 O663 O 0.18342 0.21481 0.75086
 O664 O 0.17580 0.25118 0.72148
 O665 O 0.21373 0.24922 0.81570
 O666 O 0.24866 0.27871 0.82340
 O667 O 0.24839 0.28530 0.68399
 O668 O 0.22045 0.24975 0.67694
 O669 O 0.31482 0.24989 0.71445
 O670 O 0.32061 0.22019 0.75003
 O671 O 0.28439 0.31596 0.75039
 O672 O 0.24887 0.32314 0.77831
 Zr673 Zr 0.24993 0.29560 0.74904
 O674 O 0.22603 0.27390 0.77268
 Zr675 Zr 0.29462 0.25096 0.74905
 O676 O 0.27281 0.22747 0.77313
 Zr677 Zr 0.24982 0.25091 0.70439
 O678 O 0.22620 0.22708 0.72624
 Zr679 Zr 0.24819 0.24965 0.79541
 O680 O 0.27240 0.27346 0.77375
 Zr681 Zr 0.20362 0.24934 0.75054
 O682 O 0.22525 0.27342 0.72658
 Zr683 Zr 0.24851 0.20482 0.75085
 O684 O 0.27237 0.22640 0.72659
 O685 O 0.27353 0.27453 0.72539
 O686 O 0.22450 0.22566 0.77453
 C687 C 0.24783 0.30856 0.69135
 C688 C 0.30765 0.30857 0.75137
 C689 C 0.30743 0.24911 0.69120
 C690 C 0.24797 0.19214 0.80867
 C691 C 0.19049 0.24921 0.80827
 C692 C 0.19085 0.19159 0.75100
 H693 H 0.21540 0.28546 0.78297
 H694 H 0.21578 0.21650 0.71472
 H695 H 0.28440 0.28544 0.71456
 H696 H 0.28422 0.21715 0.78394
 H697 H 0.29069 0.26106 0.81724
 H698 H 0.31886 0.24264 0.79112
 H699 H 0.17906 0.23710 0.70945
 H700 H 0.20711 0.26165 0.68285
 H701 H 0.23533 0.29126 0.81915
 H702 H 0.26072 0.31721 0.79168
 H703 H 0.23713 0.18012 0.70965
 H704 H 0.26037 0.20819 0.68288
 H705 H 0.20720 0.31719 0.73859
 H706 H 0.17900 0.29061 0.76188
 H707 H 0.31546 0.20820 0.73646
 H708 H 0.28963 0.18040 0.76325
 O709 O 0.75107 0.68401 0.71527
 O710 O 0.77859 0.67675 0.75070
 O711 O 0.68447 0.71484 0.75157
 O712 O 0.67495 0.74791 0.77621
 O713 O 0.71546 0.75028 0.68412
 O714 O 0.75073 0.77804 0.67696
 O715 O 0.75122 0.78504 0.81615
 O716 O 0.72162 0.75181 0.82305
 O717 O 0.81615 0.75101 0.78547
 O718 O 0.82426 0.72232 0.74934
 O719 O 0.78535 0.81579 0.75105
 O720 O 0.74911 0.82362 0.72242
 O721 O 0.75121 0.81558 0.78549
 O722 O 0.72192 0.82314 0.74915
 O723 O 0.81605 0.78530 0.75112
 O724 O 0.82376 0.74880 0.72203
 O725 O 0.78558 0.75129 0.81613
 O726 O 0.75066 0.72178 0.82389
 O727 O 0.75124 0.71452 0.68451
 O728 O 0.77917 0.75006 0.67736
 O729 O 0.68472 0.75000 0.71465
 O730 O 0.67886 0.77995 0.75005
 O731 O 0.71508 0.68417 0.75102
 O732 O 0.75056 0.67712 0.77900
 Zr733 Zr 0.74954 0.70452 0.74961
 O734 O 0.77339 0.72634 0.77320
 Zr735 Zr 0.70485 0.74917 0.74929
 O736 O 0.72660 0.77277 0.77332
 Zr737 Zr 0.74974 0.74901 0.70474
 O738 O 0.77331 0.77293 0.72653
 Zr739 Zr 0.75117 0.75070 0.79576
 O740 O 0.72701 0.72679 0.77416
 Zr741 Zr 0.79584 0.75079 0.75099
 O742 O 0.77426 0.72660 0.72709
 Zr743 Zr 0.75096 0.79532 0.75099
 O744 O 0.72715 0.77363 0.72677
 O745 O 0.72599 0.72548 0.72581
 O746 O 0.77492 0.77460 0.77482
 C747 C 0.75178 0.69130 0.69198
 C748 C 0.69182 0.69156 0.75197
 C749 C 0.69217 0.75065 0.69141
 C750 C 0.75128 0.80827 0.80876
 C751 C 0.80883 0.75127 0.80874
 C752 C 0.80864 0.80852 0.75112
 H753 H 0.78400 0.71483 0.78358
 H754 H 0.78376 0.78345 0.71498
 H755 H 0.71514 0.71450 0.71502
 H756 H 0.71516 0.78314 0.78405
 H757 H 0.70863 0.73935 0.81753
 H758 H 0.68052 0.75769 0.79127
 H759 H 0.82047 0.76275 0.70986
 H760 H 0.79249 0.73818 0.68333
 H761 H 0.76405 0.70925 0.81976
 H762 H 0.73872 0.68313 0.79235
 H763 H 0.76240 0.81980 0.70967
 H764 H 0.73918 0.79161 0.68301
 H765 H 0.79230 0.68290 0.73935
 H766 H 0.82046 0.70960 0.76266
 H767 H 0.68402 0.79184 0.73640
 H768 H 0.70979 0.81978 0.76314
 O769 O 0.24920 0.68441 0.28509
 O770 O 0.22165 0.67700 0.24970
 O771 O 0.31574 0.71516 0.24876
 O772 O 0.32522 0.74811 0.22391
 O773 O 0.28468 0.75089 0.31600
 O774 O 0.24934 0.77858 0.32305
 O775 O 0.24893 0.78506 0.18382
 O776 O 0.27857 0.75184 0.17706
 O777 O 0.18403 0.75104 0.21461
 O778 O 0.17592 0.72255 0.25087
 O779 O 0.21478 0.81603 0.24874
 O780 O 0.25098 0.82399 0.27741
 O781 O 0.24894 0.81571 0.21437
 O782 O 0.27819 0.82344 0.25070
 O783 O 0.18409 0.78553 0.24876
 O784 O 0.17641 0.74915 0.27806
 O785 O 0.21461 0.75125 0.18396
 O786 O 0.24957 0.72177 0.17633
 O787 O 0.24900 0.71504 0.31574
 O788 O 0.22095 0.75054 0.32273
 O789 O 0.31543 0.75052 0.28548
 O790 O 0.32129 0.78027 0.24995
 O791 O 0.28515 0.68448 0.24937
 O792 O 0.24969 0.67729 0.22138
 Zr793 Zr 0.25067 0.70480 0.25068
 O794 O 0.22681 0.72651 0.22700
 Zr795 Zr 0.29533 0.74949 0.25083
 O796 O 0.27356 0.77298 0.22671
 Zr797 Zr 0.25041 0.74945 0.29537
 O798 O 0.22682 0.77328 0.27348
 Zr799 Zr 0.24902 0.75080 0.20434
 O800 O 0.27319 0.72699 0.22605
 Zr801 Zr 0.20433 0.75102 0.24910
 O802 O 0.22592 0.72694 0.27309
 Zr803 Zr 0.24917 0.79558 0.24895
 O804 O 0.27299 0.77401 0.27325
 O805 O 0.27420 0.72588 0.27440
 O806 O 0.22524 0.77475 0.22518
 C807 C 0.24853 0.69178 0.30835
 C808 C 0.30841 0.69188 0.24845
 C809 C 0.30798 0.75128 0.30871
 C810 C 0.24888 0.80832 0.19113
 C811 C 0.19136 0.75120 0.19134
 C812 C 0.19149 0.80876 0.24865
 H813 H 0.21622 0.71494 0.21666
 H814 H 0.21636 0.78384 0.28498
 H815 H 0.28506 0.71497 0.28524
 H816 H 0.28499 0.78331 0.21595
 H817 H 0.29158 0.73940 0.18263
 H818 H 0.31966 0.75786 0.20883
 H819 H 0.17967 0.76318 0.29016
 H820 H 0.20766 0.73860 0.31679
 H821 H 0.23622 0.70921 0.18052
 H822 H 0.26156 0.68324 0.20803
 H823 H 0.23763 0.82025 0.29013
 H824 H 0.26084 0.79217 0.31694
 H825 H 0.20795 0.68316 0.26106
 H826 H 0.17978 0.70974 0.23766
 H827 H 0.31610 0.79225 0.26352
 H828 H 0.29032 0.82005 0.23673
 O829 O 0.75074 0.31585 0.28522
 O830 O 0.77847 0.32314 0.24994
 O831 O 0.68445 0.28479 0.24865
 O832 O 0.67515 0.25166 0.22397
 O833 O 0.71524 0.24950 0.31626
 O834 O 0.75057 0.22185 0.32362
 O835 O 0.75175 0.21471 0.18445
 O836 O 0.72204 0.24781 0.17738
 O837 O 0.81640 0.24892 0.21538
 O838 O 0.82427 0.27770 0.25150
 O839 O 0.78561 0.18412 0.24974
 O840 O 0.74923 0.17625 0.27823
 O841 O 0.75168 0.18419 0.21514
 O842 O 0.72222 0.17657 0.25131
 O843 O 0.81623 0.21469 0.24977
 O844 O 0.82369 0.25127 0.27887
 O845 O 0.78595 0.24853 0.18459
 O846 O 0.75097 0.27796 0.17665
 O847 O 0.75086 0.28536 0.31600
 O848 O 0.77891 0.24994 0.32333
 O849 O 0.68463 0.24968 0.28560
 O850 O 0.67902 0.21967 0.25023
 O851 O 0.71498 0.31554 0.24928
 O852 O 0.75059 0.32266 0.22148
 Zr853 Zr 0.74949 0.29529 0.25089
 O854 O 0.77350 0.27351 0.22743
 Zr855 Zr 0.70491 0.25051 0.25104
 O856 O 0.72685 0.22694 0.22715
 Zr857 Zr 0.74960 0.25085 0.29580
 O858 O 0.77335 0.22697 0.27415
 Zr859 Zr 0.75145 0.24906 0.20480
 O860 O 0.72713 0.27293 0.22626
 Zr861 Zr 0.79592 0.24915 0.24977
 O862 O 0.77417 0.27330 0.27354
 Zr863 Zr 0.75117 0.20449 0.24962
 O864 O 0.72718 0.22614 0.27370
 O865 O 0.72588 0.27428 0.27460
 O866 O 0.77517 0.22526 0.22588
 C867 C 0.75132 0.30858 0.30852
 C868 C 0.69174 0.30808 0.24825
 C869 C 0.69197 0.24907 0.30888
 C870 C 0.75188 0.19148 0.19186
 C871 C 0.80917 0.24860 0.19207
 C872 C 0.80888 0.19145 0.24976
 H873 H 0.78413 0.28504 0.21708
 H874 H 0.78377 0.21649 0.28576
 H875 H 0.71495 0.28524 0.28531
 H876 H 0.71550 0.21653 0.21638
 H877 H 0.70898 0.26024 0.18282
 H878 H 0.68080 0.24184 0.20897
 H879 H 0.82039 0.23731 0.29103
 H880 H 0.79221 0.26188 0.31740
 H881 H 0.76435 0.29050 0.18078
 H882 H 0.73884 0.31660 0.20807
 H883 H 0.76250 0.18009 0.29101
 H884 H 0.73906 0.20824 0.31754
 H885 H 0.79213 0.31702 0.26136
 H886 H 0.82048 0.29039 0.23815
 H887 H 0.68416 0.20779 0.26390
 H888 H 0.71014 0.17990 0.23728
 C889 C 0.25174 0.10082 0.10086
 C890 C 0.27679 0.10222 0.11582
 C891 C 0.27692 0.12054 0.13415
 C892 C 0.25199 0.13567 0.13573
 C893 C 0.23114 0.11557 0.13943
 C894 C 0.23101 0.09726 0.12110
 C895 C 0.24762 0.12777 0.09046
 C896 C 0.24775 0.14609 0.10879
 C897 C 0.25156 0.08113 0.08110
 C898 C 0.25137 0.06499 0.06480
 C899 C 0.25205 0.15542 0.15546
 C900 C 0.25183 0.17166 0.17165
 H901 H 0.29298 0.08990 0.11233
 H902 H 0.29323 0.12392 0.14636
 H903 H 0.21767 0.11571 0.15508
 H904 H 0.21744 0.08170 0.12106
 H905 H 0.24484 0.13209 0.07046
 H906 H 0.24508 0.16610 0.10448
 C907 C 0.75244 0.60141 0.60196
 C908 C 0.73622 0.62473 0.59530
 C909 C 0.73634 0.64301 0.61366
 C910 C 0.75269 0.63615 0.63686
 C911 C 0.77917 0.63030 0.62604
 C912 C 0.77904 0.61201 0.60768
 C913 C 0.74225 0.59218 0.62771
 C914 C 0.74238 0.61045 0.64607
 C915 C 0.75224 0.58175 0.58225
 C916 C 0.75199 0.56553 0.56609
 C917 C 0.75273 0.65581 0.65659
 C918 C 0.75248 0.67200 0.67278
 H919 H 0.72559 0.62672 0.57771
 H920 H 0.72581 0.66066 0.61180
 H921 H 0.79649 0.63968 0.63225
 H922 H 0.79625 0.60572 0.59815
 H923 H 0.73555 0.57297 0.63122
 H924 H 0.73578 0.60692 0.66531
 C925 C 0.74981 0.89892 0.10107
 C926 C 0.75915 0.87291 0.09169
 C927 C 0.75874 0.85454 0.10995
 C928 C 0.74903 0.86395 0.13583
 C929 C 0.72279 0.87553 0.13031
 C930 C 0.72320 0.89391 0.11204
 C931 C 0.76650 0.90506 0.12422
 C932 C 0.76610 0.88669 0.14249
 C933 C 0.75030 0.91868 0.08139
 C934 C 0.75076 0.93487 0.06514
 C935 C 0.74870 0.84415 0.15550
 C936 C 0.74874 0.82788 0.17166
 H937 H 0.76551 0.86925 0.07239
 H938 H 0.76477 0.83514 0.10630
 H939 H 0.70543 0.86980 0.13990
 H940 H 0.70619 0.90393 0.10598
 H941 H 0.77765 0.92234 0.12611
 H942 H 0.77690 0.88822 0.16002
 C943 C 0.24738 0.39851 0.60139
 C944 C 0.26158 0.37422 0.59367
 C945 C 0.26142 0.35589 0.61198
 C946 C 0.24707 0.36367 0.63619
 C947 C 0.22040 0.37131 0.62709
 C948 C 0.22056 0.38964 0.60878
 C949 C 0.25977 0.40692 0.62644
 C950 C 0.25961 0.38860 0.64475
 C951 C 0.24760 0.41823 0.58173
 C952 C 0.24784 0.43447 0.56559
 C953 C 0.24699 0.34397 0.65588
 C954 C 0.24719 0.32779 0.67208
 H955 H 0.27092 0.37163 0.57544
 H956 H 0.27063 0.33759 0.60944
 H957 H 0.20293 0.36305 0.63438
 H958 H 0.20323 0.39710 0.60038
 H959 H 0.26794 0.42563 0.62953
 H960 H 0.26765 0.39160 0.66353
 C961 C 0.74876 0.10088 0.89944
 C962 C 0.76334 0.09342 0.87527
 C963 C 0.76317 0.11178 0.85697
 C964 C 0.74844 0.13579 0.86462
 C965 C 0.76058 0.14441 0.88974
 C966 C 0.76074 0.12606 0.90804
 C967 C 0.72197 0.10798 0.89024
 C968 C 0.72180 0.12633 0.87194
 C969 C 0.74898 0.08114 0.91916
 C970 C 0.74919 0.06496 0.93542
 C971 C 0.74833 0.15557 0.84492
 C972 C 0.74847 0.17182 0.82874
 H973 H 0.77293 0.07532 0.87274
 H974 H 0.77263 0.10939 0.83877
 H975 H 0.76835 0.16327 0.89289
 H976 H 0.76865 0.12921 0.92686
 H977 H 0.70465 0.09935 0.89746
 H978 H 0.70434 0.13342 0.86349
 C979 C 0.24933 0.60174 0.39821
 C980 C 0.23084 0.62356 0.40407
 C981 C 0.23035 0.64190 0.38578
 C982 C 0.24841 0.63661 0.36345
 C983 C 0.24084 0.61019 0.35366
 C984 C 0.24132 0.59184 0.37195
 C985 C 0.27518 0.61461 0.39392
 C986 C 0.27469 0.63295 0.37564
 C987 C 0.24988 0.58202 0.41785
 C988 C 0.25035 0.56576 0.43397
 C989 C 0.24801 0.65633 0.34378
 C990 C 0.24802 0.67253 0.32760
 H991 H 0.21918 0.62452 0.42108
 H992 H 0.21826 0.65858 0.38711
 H993 H 0.23556 0.60623 0.33409
 H994 H 0.23648 0.57216 0.36806
 H995 H 0.29234 0.60976 0.40433
 H996 H 0.29145 0.64382 0.37038
 C997 C 0.25019 0.89936 0.89874
 C998 C 0.25908 0.90904 0.87267
 C999 C 0.25947 0.89070 0.85436
 C1000 C 0.25092 0.86447 0.86390
 C1001 C 0.22449 0.86888 0.87551
 C1002 C 0.22410 0.88721 0.89382
 C1003 C 0.26791 0.87700 0.90495
 C1004 C 0.26830 0.85867 0.88664
 C1005 C 0.24975 0.91907 0.91847
 C1006 C 0.24936 0.93523 0.93476
 C1007 C 0.25123 0.84471 0.84419
 C1008 C 0.25118 0.82846 0.82800
 H1009 H 0.26457 0.92858 0.86893
 H1010 H 0.26530 0.89454 0.83492
 H1011 H 0.20755 0.85851 0.86985
 H1012 H 0.20684 0.89254 0.90383
 H1013 H 0.27915 0.87569 0.92223
 H1014 H 0.27988 0.84165 0.88822
 C1015 C 0.75009 0.39842 0.39857
 C1016 C 0.75369 0.40907 0.37163
 C1017 C 0.75424 0.39081 0.35325
 C1018 C 0.75115 0.36372 0.36364
 C1019 C 0.72623 0.36423 0.37887
 C1020 C 0.72568 0.38248 0.39724
 C1021 C 0.77166 0.37906 0.40202
 C1022 C 0.77222 0.36080 0.38364
 C1023 C 0.74948 0.41806 0.41829
 C1024 C 0.74898 0.43427 0.43446
 C1025 C 0.75164 0.34408 0.34390
 C1026 C 0.75171 0.32789 0.32770
 H1027 H 0.75561 0.42917 0.36736
 H1028 H 0.75665 0.39526 0.33323
 H1029 H 0.71042 0.35138 0.37552
 H1030 H 0.70940 0.38528 0.40964
 H1031 H 0.78527 0.37962 0.41754
 H1032 H 0.78632 0.34572 0.38340
 C1033 C 0.10151 0.24925 0.10019
 C1034 C 0.09333 0.26319 0.12451
 C1035 C 0.11164 0.26366 0.14285
 C1036 C 0.13634 0.25015 0.13508
 C1037 C 0.14446 0.26294 0.11013
 C1038 C 0.12615 0.26247 0.09178
 C1039 C 0.10981 0.22274 0.10909
 C1040 C 0.12812 0.22321 0.12744
 C1041 C 0.08180 0.24874 0.08045
 C1042 C 0.06560 0.24832 0.06421
 C1043 C 0.15605 0.25056 0.15484
 C1044 C 0.17224 0.25062 0.17108
 H1045 H 0.07478 0.27190 0.12709
 H1046 H 0.10879 0.27278 0.16115
 H1047 H 0.16297 0.27161 0.10713
 H1048 H 0.12897 0.27071 0.07306
 H1049 H 0.10200 0.20514 0.10164
 H1050 H 0.13598 0.20600 0.13571
 C1051 C 0.60214 0.74974 0.60139
 C1052 C 0.59223 0.75767 0.62768
 C1053 C 0.61058 0.75812 0.64597
 C1054 C 0.63704 0.75060 0.63617
 C1055 C 0.64232 0.76870 0.61389
 C1056 C 0.62396 0.76825 0.59559
 C1057 C 0.61504 0.72392 0.60562
 C1058 C 0.63340 0.72437 0.62391
 C1059 C 0.58239 0.74924 0.58175
 C1060 C 0.56609 0.74881 0.56563
 C1061 C 0.65677 0.75099 0.65587
 C1062 C 0.67295 0.75102 0.67209
 H1063 H 0.57252 0.76249 0.63158
 H1064 H 0.60661 0.76334 0.66555
 H1065 H 0.65901 0.78080 0.61259
 H1066 H 0.62492 0.77995 0.57861
 H1067 H 0.61020 0.70679 0.59517
 H1068 H 0.64428 0.70762 0.62913
 C1069 C 0.10095 0.74901 0.89894
 C1070 C 0.09248 0.76106 0.87374
 C1071 C 0.11089 0.76096 0.85549
 C1072 C 0.13596 0.74881 0.86423
 C1073 C 0.12860 0.72216 0.87356
 C1074 C 0.11019 0.72226 0.89181
 C1075 C 0.12507 0.76356 0.90659
 C1076 C 0.14348 0.76346 0.88834
 C1077 C 0.08112 0.74916 0.91856
 C1078 C 0.06478 0.74933 0.93466
 C1079 C 0.15577 0.74877 0.84456
 C1080 C 0.17201 0.74896 0.82837
 H1081 H 0.07367 0.76896 0.87051
 H1082 H 0.10785 0.76878 0.83663
 H1083 H 0.13710 0.70474 0.86646
 H1084 H 0.10291 0.70493 0.90035
 H1085 H 0.12749 0.77309 0.92475
 H1086 H 0.16167 0.77291 0.89086
 C1087 C 0.60193 0.25025 0.39888
 C1088 C 0.62063 0.27259 0.40043
 C1089 C 0.63895 0.27208 0.38210
 C1090 C 0.63676 0.24926 0.36403
 C1091 C 0.60960 0.25059 0.35338
 C1092 C 0.59128 0.25111 0.37171
 C1093 C 0.61864 0.22633 0.39973
 C1094 C 0.63696 0.22581 0.38140
 C1095 C 0.58224 0.25083 0.41858
 C1096 C 0.56604 0.25132 0.43479
 C1097 C 0.65647 0.24880 0.34432
 C1098 C 0.67269 0.24872 0.32812
 H1099 H 0.61960 0.28750 0.41467
 H1100 H 0.65361 0.28654 0.38064
 H1101 H 0.60515 0.25108 0.33323
 H1102 H 0.57113 0.25203 0.36727
 H1103 H 0.61630 0.21115 0.41353
 H1104 H 0.65032 0.21018 0.37948
 C1105 C 0.89866 0.75000 0.10011
 C1106 C 0.88096 0.77319 0.09953
 C1107 C 0.86265 0.77273 0.11787
 C1108 C 0.86383 0.74912 0.13500
 C1109 C 0.89104 0.74882 0.14561
 C1110 C 0.90935 0.74928 0.12727
 C1111 C 0.88091 0.72689 0.09833
 C1112 C 0.86259 0.72643 0.11668
 C1113 C 0.91840 0.75052 0.08040
 C1114 C 0.93469 0.75096 0.06426
 C1115 C 0.84413 0.74873 0.15476
 C1116 C 0.82795 0.74869 0.17102
 H1117 H 0.88264 0.78861 0.08591
 H1118 H 0.84865 0.78776 0.11996
 H1119 H 0.89553 0.74830 0.16576
 H1120 H 0.92952 0.74915 0.13170
 H1121 H 0.88257 0.71220 0.08393
 H1122 H 0.84856 0.71134 0.11800
 C1123 C 0.39760 0.24848 0.60133
 C1124 C 0.38850 0.22173 0.60861
 C1125 C 0.37012 0.22164 0.62689
 C1126 C 0.36267 0.24831 0.63608
 C1127 C 0.35503 0.26280 0.61192
 C1128 C 0.37340 0.26289 0.59364
 C1129 C 0.40607 0.26071 0.62644
 C1130 C 0.38770 0.26062 0.64472
 C1131 C 0.41735 0.24862 0.58168
 C1132 C 0.43358 0.24878 0.56550
 C1133 C 0.34291 0.24829 0.65575
 C1134 C 0.32668 0.24851 0.67193
 H1135 H 0.39584 0.20439 0.60015
 H1136 H 0.36171 0.20422 0.63410
 H1137 H 0.33679 0.27216 0.60938
 H1138 H 0.37091 0.27231 0.57544
 H1139 H 0.42485 0.26871 0.62959
 H1140 H 0.39073 0.26856 0.66354
 C1141 C 0.89894 0.25095 0.89932
 C1142 C 0.87312 0.24104 0.90868
 C1143 C 0.85470 0.24123 0.89045
 C1144 C 0.86389 0.25132 0.86464
 C1145 C 0.88695 0.23476 0.85780
 C1146 C 0.90538 0.23457 0.87603
 C1147 C 0.89340 0.27752 0.88858
 C1148 C 0.87497 0.27772 0.87034
 C1149 C 0.91875 0.25071 0.91895
 C1150 C 0.93500 0.25045 0.93515
 C1151 C 0.84404 0.25145 0.84501
 C1152 C 0.82776 0.25132 0.82887
 H1153 H 0.86962 0.23446 0.92793
 H1154 H 0.83541 0.23481 0.89409
 H1155 H 0.88866 0.22413 0.84019
 H1156 H 0.92287 0.22379 0.87403
 H1157 H 0.90310 0.29466 0.89475
 H1158 H 0.86888 0.29503 0.86090
 C1159 C 0.39820 0.75168 0.39854
 C1160 C 0.37393 0.73745 0.40633
 C1161 C 0.35552 0.73759 0.38809
 C1162 C 0.36319 0.75195 0.36386
 C1163 C 0.38813 0.73947 0.35521
 C1164 C 0.40654 0.73933 0.37345
 C1165 C 0.38924 0.77847 0.39119
 C1166 C 0.37083 0.77861 0.37295
 C1167 C 0.41801 0.75149 0.41814
 C1168 C 0.43433 0.75129 0.43422
 C1169 C 0.34341 0.75202 0.34422
 C1170 C 0.32719 0.75185 0.32802
 H1171 H 0.37142 0.72810 0.42457
 H1172 H 0.33723 0.72835 0.39069
 H1173 H 0.39108 0.73145 0.33641
 H1174 H 0.42527 0.73120 0.37028
 H1175 H 0.39670 0.79579 0.39958
 H1176 H 0.36251 0.79605 0.36570
 C1177 C 0.10160 0.10082 0.25247
 C1178 C 0.12462 0.09445 0.23568
 C1179 C 0.14285 0.11286 0.23564
 C1180 C 0.13628 0.13584 0.25240
 C1181 C 0.13101 0.12467 0.27886
 C1182 C 0.11278 0.10625 0.27889
 C1183 C 0.09207 0.12665 0.24280
 C1184 C 0.11030 0.14506 0.24276
 C1185 C 0.08200 0.08101 0.25245
 C1186 C 0.06589 0.06470 0.25235
 C1187 C 0.15592 0.15564 0.25226
 C1188 C 0.17207 0.17189 0.25187
 H1189 H 0.12644 0.07701 0.22479
 H1190 H 0.16030 0.11120 0.22471
 H1191 H 0.14075 0.13070 0.29604
 H1192 H 0.10689 0.09650 0.29611
 H1193 H 0.07270 0.13017 0.23655
 H1194 H 0.10656 0.16436 0.23647
 C1195 C 0.60161 0.60170 0.75345
 C1196 C 0.59377 0.62608 0.73946
 C1197 C 0.61214 0.64435 0.73942
 C1198 C 0.63654 0.63646 0.75337
 C1199 C 0.64483 0.61155 0.74062
 C1200 C 0.62646 0.59327 0.74066
 C1201 C 0.60943 0.61046 0.78018
 C1202 C 0.62780 0.62874 0.78014
 C1203 C 0.58183 0.58205 0.75343
 C1204 C 0.56554 0.56593 0.75334
 C1205 C 0.65631 0.65614 0.75323
 C1206 C 0.67253 0.67232 0.75284
 H1207 H 0.57540 0.62876 0.73040
 H1208 H 0.60951 0.66269 0.73031
 H1209 H 0.66349 0.60853 0.73230
 H1210 H 0.62938 0.57459 0.73238
 H1211 H 0.60126 0.60297 0.79760
 H1212 H 0.63538 0.63691 0.79752
 C1213 C 0.89895 0.10187 0.74883
 C1214 C 0.90026 0.12005 0.77162
 C1215 C 0.88189 0.13833 0.77136
 C1216 C 0.86401 0.13663 0.74834
 C1217 C 0.85341 0.10944 0.74896
 C1218 C 0.87178 0.09117 0.74922
 C1219 C 0.89997 0.11911 0.72529
 C1220 C 0.88159 0.13739 0.72503
 C1221 C 0.91867 0.08219 0.74918
 C1222 C 0.93483 0.06594 0.74954
 C1223 C 0.84424 0.15629 0.74819
 C1224 C 0.82797 0.17243 0.74843
 H1225 H 0.91438 0.11871 0.78663
 H1226 H 0.88028 0.15263 0.78616
 H1227 H 0.83326 0.10495 0.74918
 H1228 H 0.86737 0.07101 0.74966
 H1229 H 0.91390 0.11713 0.71018
 H1230 H 0.87977 0.15108 0.70969
 C1231 C 0.39842 0.60182 0.24839
 C1232 C 0.38032 0.60064 0.27126
 C1233 C 0.36202 0.61898 0.27096
 C1234 C 0.36361 0.63670 0.24781
 C1235 C 0.36277 0.61899 0.22463
 C1236 C 0.38108 0.60064 0.22493
 C1237 C 0.40912 0.62897 0.24856
 C1238 C 0.39082 0.64731 0.24826
 C1239 C 0.41813 0.58211 0.24876
 C1240 C 0.43437 0.56593 0.24912
 C1241 C 0.34391 0.65644 0.24761
 C1242 C 0.32770 0.67264 0.24778
 H1243 H 0.38174 0.58663 0.28635
 H1244 H 0.34776 0.62068 0.28580
 H1245 H 0.34901 0.62070 0.20933
 H1246 H 0.38300 0.58663 0.20989
 H1247 H 0.42929 0.63340 0.24889
 H1248 H 0.39531 0.66746 0.24833
 C1249 C 0.10116 0.89907 0.74742
 C1250 C 0.10801 0.88945 0.72072
 C1251 C 0.12624 0.87103 0.72069
 C1252 C 0.13583 0.86405 0.74737
 C1253 C 0.11185 0.85676 0.76237
 C1254 C 0.09362 0.87518 0.76239
 C1255 C 0.12649 0.90767 0.75911
 C1256 C 0.14472 0.88926 0.75908
 C1257 C 0.08156 0.91889 0.74751
 C1258 C 0.06547 0.93522 0.74766
 C1259 C 0.15547 0.84425 0.74744
 C1260 C 0.17166 0.82802 0.74778
 H1261 H 0.09930 0.89649 0.70337
 H1262 H 0.13316 0.86228 0.70331
 H1263 H 0.10940 0.83872 0.77210
 H1264 H 0.07555 0.87292 0.77213
 H1265 H 0.12982 0.92657 0.76672
 H1266 H 0.16367 0.89238 0.76668
 C1267 C 0.60158 0.39799 0.24653
 C1268 C 0.61121 0.39100 0.21987
 C1269 C 0.62955 0.37268 0.21994
 C1270 C 0.63645 0.36316 0.24667
 C1271 C 0.61115 0.35445 0.25837
 C1272 C 0.59282 0.37277 0.25830
 C1273 C 0.62550 0.40545 0.26152
 C1274 C 0.64383 0.38714 0.26159
 C1275 C 0.58185 0.41769 0.24652
 C1276 C 0.56561 0.43386 0.24661
 C1277 C 0.65619 0.34346 0.24685
 C1278 C 0.67242 0.32728 0.24729
 H1279 H 0.60424 0.39967 0.20248
 H1280 H 0.63830 0.36565 0.20261
 H1281 H 0.60792 0.33556 0.26602
 H1282 H 0.57387 0.36956 0.26588
 H1283 H 0.62784 0.42353 0.27120
 H1284 H 0.66188 0.38953 0.27134
 C1285 C 0.89918 0.89822 0.25105
 C1286 C 0.88140 0.89981 0.27416
 C1287 C 0.86308 0.88148 0.27445
 C1288 C 0.86435 0.86336 0.25160
 C1289 C 0.89156 0.85274 0.25185
 C1290 C 0.90987 0.87107 0.25156
 C1291 C 0.88151 0.89899 0.22783
 C1292 C 0.86320 0.88066 0.22812
 C1293 C 0.91887 0.91794 0.25069
 C1294 C 0.93504 0.93419 0.25033
 C1295 C 0.84463 0.84364 0.25178
 C1296 C 0.82841 0.82745 0.25159
 H1297 H 0.88305 0.91409 0.28898
 H1298 H 0.84903 0.88004 0.28952
 H1299 H 0.89604 0.83259 0.25222
 H1300 H 0.93004 0.86664 0.25169
 H1301 H 0.88322 0.91273 0.21252
 H1302 H 0.84922 0.87870 0.21304
 C1303 C 0.39781 0.39851 0.75156
 C1304 C 0.38025 0.39990 0.77486
 C1305 C 0.36190 0.38159 0.77513
 C1306 C 0.36291 0.36371 0.75208
 C1307 C 0.39009 0.35303 0.75195
 C1308 C 0.40844 0.37133 0.75168
 C1309 C 0.37992 0.39956 0.72852
 C1310 C 0.36157 0.38126 0.72879
 C1311 C 0.41756 0.41817 0.75122
 C1312 C 0.43385 0.43430 0.75088
 C1313 C 0.34316 0.34401 0.75225
 C1314 C 0.32694 0.32782 0.75206
 H1315 H 0.38207 0.41402 0.78980
 H1316 H 0.34799 0.38003 0.79031
 H1317 H 0.39453 0.33288 0.75207
 H1318 H 0.42860 0.36686 0.75157
 H1319 H 0.38150 0.41346 0.71334
 H1320 H 0.34744 0.37949 0.71383
 C1321 C 0.10051 0.24926 0.89838
 C1322 C 0.09906 0.27217 0.88037
 C1323 C 0.11733 0.27209 0.86199
 C1324 C 0.13526 0.24910 0.86343
 C1325 C 0.11772 0.22577 0.86258
 C1326 C 0.09945 0.22586 0.88097
 C1327 C 0.12773 0.24963 0.90895
 C1328 C 0.14600 0.24954 0.89057
 C1329 C 0.08090 0.24939 0.91818
 C1330 C 0.06483 0.24954 0.93454
 C1331 C 0.15494 0.24905 0.84367
 C1332 C 0.17116 0.24909 0.82747
 H1333 H 0.08491 0.28713 0.88190
 H1334 H 0.11884 0.28698 0.84777
 H1335 H 0.11950 0.21054 0.84876
 H1336 H 0.08555 0.21071 0.88290
 H1337 H 0.13225 0.24992 0.92910
 H1338 H 0.16618 0.24976 0.89497
 C1339 C 0.60194 0.74781 0.39794
 C1340 C 0.62056 0.77018 0.40016
 C1341 C 0.63888 0.77030 0.38183
 C1342 C 0.63680 0.74803 0.36307
 C1343 C 0.60963 0.74956 0.35247
 C1344 C 0.59131 0.74944 0.37080
 C1345 C 0.61876 0.72395 0.39807
 C1346 C 0.63709 0.72407 0.37973
 C1347 C 0.58220 0.74772 0.41766
 C1348 C 0.56594 0.74772 0.43384
 C1349 C 0.65654 0.74819 0.34333
 C1350 C 0.67276 0.74839 0.32711
 H1351 H 0.61945 0.78464 0.41485
 H1352 H 0.65347 0.78487 0.38081
 H1353 H 0.60518 0.75063 0.33234
 H1354 H 0.57115 0.75041 0.36638
 H1355 H 0.61648 0.70835 0.41139
 H1356 H 0.65051 0.70856 0.37735
 C1357 C 0.89907 0.75229 0.89859
 C1358 C 0.87298 0.74349 0.90831
 C1359 C 0.85461 0.74334 0.89003
 C1360 C 0.86413 0.75201 0.86383
 C1361 C 0.88675 0.73456 0.85782
 C1362 C 0.90513 0.73471 0.87610
 C1363 C 0.89427 0.77848 0.88665
 C1364 C 0.87589 0.77833 0.86837
 C1365 C 0.91883 0.75239 0.91825
 C1366 C 0.93509 0.75238 0.93441
 C1367 C 0.84437 0.75181 0.84416
 C1368 C 0.82814 0.75158 0.82798
 H1369 H 0.86927 0.73790 0.92784
 H1370 H 0.83515 0.73761 0.89389
 H1371 H 0.88822 0.72311 0.84070
 H1372 H 0.92234 0.72340 0.87465
 H1373 H 0.90440 0.79563 0.89208
 H1374 H 0.87028 0.79535 0.85812
 C1375 C 0.39842 0.25217 0.39785
 C1376 C 0.37161 0.24688 0.40813
 C1377 C 0.35329 0.24670 0.38979
 C1378 C 0.36358 0.25181 0.36295
 C1379 C 0.38443 0.23178 0.35888
 C1380 C 0.40275 0.23197 0.37722
 C1381 C 0.39613 0.27740 0.38336
 C1382 C 0.37781 0.27721 0.36501
 C1383 C 0.41810 0.25232 0.41762
 C1384 C 0.43420 0.25237 0.43395
 C1385 C 0.34385 0.25157 0.34321
 C1386 C 0.32761 0.25133 0.32701
 H1387 H 0.36738 0.24360 0.42808
 H1388 H 0.33337 0.24325 0.39402
 H1389 H 0.38479 0.21862 0.34298
 H1390 H 0.41880 0.21898 0.37704
 H1391 H 0.40787 0.29395 0.38717
 H1392 H 0.37386 0.29360 0.35310
 C1393 C 0.10129 0.75080 0.10133
 C1394 C 0.09271 0.76329 0.12628
 C1395 C 0.11105 0.76348 0.14461
 C1396 C 0.13614 0.75116 0.13617
 C1397 C 0.14379 0.76539 0.11186
 C1398 C 0.12546 0.76520 0.09353
 C1399 C 0.11047 0.72417 0.10894
 C1400 C 0.12879 0.72436 0.12726
 C1401 C 0.08157 0.75056 0.08163
 C1402 C 0.06533 0.75031 0.06546
 C1403 C 0.15586 0.75130 0.15589
 C1404 C 0.17207 0.75130 0.17209
 H1405 H 0.07390 0.77127 0.12929
 H1406 H 0.10795 0.77163 0.16332
 H1407 H 0.16199 0.77479 0.10926
 H1408 H 0.12795 0.77443 0.07523
 H1409 H 0.10321 0.70670 0.10067
 H1410 H 0.13724 0.70705 0.13469
 C1411 C 0.60109 0.25045 0.60260
 C1412 C 0.59271 0.26367 0.62724
 C1413 C 0.61095 0.26383 0.64566
 C1414 C 0.63580 0.25075 0.63763
 C1415 C 0.64388 0.26426 0.61304
 C1416 C 0.62564 0.26410 0.59463
 C1417 C 0.60961 0.22378 0.61084
 C1418 C 0.62785 0.22394 0.62926
 C1419 C 0.58148 0.25025 0.58275
 C1420 C 0.56541 0.25003 0.56638
 C1421 C 0.65547 0.25086 0.65743
 C1422 C 0.67171 0.25085 0.67363
 H1423 H 0.57408 0.27216 0.62997
 H1424 H 0.60796 0.27247 0.66417
 H1425 H 0.66232 0.27317 0.61034
 H1426 H 0.62844 0.27286 0.57614
 H1427 H 0.60198 0.20632 0.60292
 H1428 H 0.63585 0.20660 0.63710
 C1429 C 0.89906 0.24729 0.10188
 C1430 C 0.87963 0.26885 0.09883
 C1431 C 0.86140 0.26908 0.11725
 C1432 C 0.86439 0.24772 0.13691
 C1433 C 0.89153 0.25069 0.14728
 C1434 C 0.90976 0.25046 0.12885
 C1435 C 0.88314 0.22285 0.10286
 C1436 C 0.86491 0.22307 0.12128
 C1437 C 0.91865 0.24710 0.08205
 C1438 C 0.93473 0.24704 0.06572
 C1439 C 0.84475 0.24799 0.15670
 C1440 C 0.82854 0.24827 0.17290
 H1441 H 0.88013 0.28271 0.08353
 H1442 H 0.84628 0.28313 0.11774
 H1443 H 0.89603 0.25277 0.16732
 H1444 H 0.92989 0.25236 0.13310
 H1445 H 0.88594 0.20678 0.09020
 H1446 H 0.85208 0.20720 0.12441
 C1447 C 0.39844 0.74973 0.60187
 C1448 C 0.37725 0.73023 0.59705
 C1449 C 0.35890 0.73009 0.61537
 C1450 C 0.36355 0.74946 0.63671
 C1451 C 0.36632 0.77514 0.62313
 C1452 C 0.38466 0.77528 0.60482
 C1453 C 0.40859 0.74347 0.62852
 C1454 C 0.39024 0.74333 0.64684
 C1455 C 0.41819 0.74991 0.58216
 C1456 C 0.43446 0.75012 0.56599
 C1457 C 0.34379 0.74937 0.65643
 C1458 C 0.32755 0.74939 0.67262
 H1459 H 0.37670 0.71766 0.58068
 H1460 H 0.34264 0.71738 0.61470
 H1461 H 0.35488 0.79176 0.62751
 H1462 H 0.38893 0.79202 0.59351
 H1463 H 0.42844 0.73950 0.63263
 H1464 H 0.39438 0.73923 0.66665
 C1465 C 0.24746 0.10195 0.89842
 C1466 C 0.26533 0.09620 0.87607
 C1467 C 0.26536 0.11460 0.85783
 C1468 C 0.24752 0.13693 0.86376
 C1469 C 0.25584 0.14652 0.89004
 C1470 C 0.25581 0.12812 0.90828
 C1471 C 0.22128 0.10640 0.88629
 C1472 C 0.22131 0.12480 0.86805
 C1473 C 0.24749 0.08219 0.91804
 C1474 C 0.24760 0.06600 0.93424
 C1475 C 0.24760 0.15671 0.84413
 C1476 C 0.24775 0.17293 0.82796
 H1477 H 0.27690 0.07917 0.87467
 H1478 H 0.27697 0.11334 0.84080
 H1479 H 0.26126 0.16604 0.89399
 H1480 H 0.26119 0.13187 0.92786
 H1481 H 0.20423 0.09601 0.89155
 H1482 H 0.20428 0.13018 0.85768
 C1483 C 0.74997 0.60172 0.39833
 C1484 C 0.73189 0.62390 0.40407
 C1485 C 0.73172 0.64217 0.38568
 C1486 C 0.74966 0.63647 0.36335
 C1487 C 0.74159 0.61012 0.35372
 C1488 C 0.74176 0.59186 0.37211
 C1489 C 0.77604 0.61411 0.39393
 C1490 C 0.77587 0.63237 0.37555
 C1491 C 0.75018 0.58203 0.41810
 C1492 C 0.75041 0.56578 0.43429
 C1493 C 0.74953 0.65614 0.34355
 C1494 C 0.74953 0.67232 0.32729
 H1495 H 0.72026 0.62516 0.42109
 H1496 H 0.71993 0.65907 0.38695
 H1497 H 0.73622 0.60616 0.33418
 H1498 H 0.73654 0.57225 0.36831
 H1499 H 0.79312 0.60900 0.40435
 H1500 H 0.79282 0.64290 0.37022
 C1501 C 0.75288 0.10145 0.10196
 C1502 C 0.73454 0.12344 0.09634
 C1503 C 0.73441 0.14175 0.11466
 C1504 C 0.75264 0.13626 0.13679
 C1505 C 0.77877 0.13239 0.12434
 C1506 C 0.77889 0.11408 0.10601
 C1507 C 0.74505 0.09157 0.12828
 C1508 C 0.74492 0.10989 0.14661
 C1509 C 0.75295 0.08178 0.08225
 C1510 C 0.75289 0.06564 0.06600
 C1511 C 0.75245 0.15597 0.15649
 C1512 C 0.75221 0.17219 0.17266
 H1513 H 0.72272 0.12455 0.07944
 H1514 H 0.72247 0.15855 0.11346
 H1515 H 0.79567 0.14310 0.12945
 H1516 H 0.79590 0.10908 0.09542
 H1517 H 0.74007 0.07193 0.13219
 H1518 H 0.73983 0.10594 0.16623
 C1519 C 0.25156 0.60205 0.60157
 C1520 C 0.23328 0.62408 0.59590
 C1521 C 0.23317 0.64245 0.61419
 C1522 C 0.25136 0.63699 0.63637
 C1523 C 0.27749 0.63302 0.62393
 C1524 C 0.27759 0.61465 0.60564
 C1525 C 0.24369 0.59228 0.62793
 C1526 C 0.24359 0.61064 0.64622
 C1527 C 0.25163 0.58227 0.58190
 C1528 C 0.25161 0.56597 0.56576
 C1529 C 0.25121 0.65677 0.65607
 C1530 C 0.25103 0.67300 0.67228
 H1531 H 0.22147 0.62518 0.57899
 H1532 H 0.22126 0.65927 0.61294
 H1533 H 0.29441 0.64369 0.62903
 H1534 H 0.29461 0.60959 0.59508
 H1535 H 0.23866 0.57266 0.63189
 H1536 H 0.23846 0.60675 0.66584
 C1537 C 0.75047 0.89838 0.89859
 C1538 C 0.76601 0.90567 0.87498
 C1539 C 0.76629 0.88733 0.85668
 C1540 C 0.75100 0.86351 0.86381
 C1541 C 0.72422 0.87328 0.87015
 C1542 C 0.72395 0.89162 0.88844
 C1543 C 0.76183 0.87306 0.90763
 C1544 C 0.76211 0.85472 0.88933
 C1545 C 0.75015 0.91807 0.91828
 C1546 C 0.74987 0.93421 0.93453
 C1547 C 0.75124 0.84378 0.84414
 C1548 C 0.75131 0.82756 0.82798
 H1549 H 0.77591 0.92366 0.87282
 H1550 H 0.77644 0.88959 0.83884
 H1551 H 0.70700 0.86641 0.86107
 H1552 H 0.70649 0.90046 0.89504
 H1553 H 0.76902 0.86983 0.92672
 H1554 H 0.76955 0.83577 0.89274
 C1555 C 0.24990 0.39817 0.39796
 C1556 C 0.26321 0.40640 0.37331
 C1557 C 0.26345 0.38804 0.35501
 C1558 C 0.25036 0.36326 0.36315
 C1559 C 0.22350 0.37122 0.37138
 C1560 C 0.22326 0.38957 0.38968
 C1561 C 0.26357 0.37371 0.40613
 C1562 C 0.26381 0.35535 0.38783
 C1563 C 0.24961 0.41794 0.41765
 C1564 C 0.24933 0.43423 0.43380
 C1565 C 0.25055 0.34349 0.34343
 C1566 C 0.25061 0.32727 0.32722
 H1567 H 0.27169 0.42500 0.37047
 H1568 H 0.27215 0.39093 0.33650
 H1569 H 0.20618 0.36316 0.36354
 H1570 H 0.20574 0.39722 0.39750
 H1571 H 0.27228 0.37104 0.42466
 H1572 H 0.27274 0.33696 0.39068
 C1573 C 0.24967 0.89836 0.10124
 C1574 C 0.25437 0.87150 0.09086
 C1575 C 0.25410 0.85314 0.10914
 C1576 C 0.24915 0.86347 0.13600
 C1577 C 0.22406 0.87826 0.13394
 C1578 C 0.22434 0.89662 0.11566
 C1579 C 0.26993 0.90217 0.12191
 C1580 C 0.26966 0.88382 0.14019
 C1581 C 0.25001 0.91807 0.08158
 C1582 C 0.25034 0.93423 0.06536
 C1583 C 0.24892 0.84373 0.15566
 C1584 C 0.24885 0.82754 0.17185
 H1585 H 0.25761 0.86727 0.07091
 H1586 H 0.25711 0.83318 0.10486
 H1587 H 0.20755 0.87464 0.14580
 H1588 H 0.20806 0.90873 0.11184
 H1589 H 0.28329 0.91790 0.12218
 H1590 H 0.28280 0.88382 0.15613
 C1591 C 0.74769 0.39808 0.60218
 C1592 C 0.76083 0.37336 0.59394
 C1593 C 0.76091 0.35505 0.61228
 C1594 C 0.74785 0.36324 0.63707
 C1595 C 0.72105 0.37167 0.62908
 C1596 C 0.72097 0.38998 0.61074
 C1597 C 0.76137 0.40612 0.62669
 C1598 C 0.76146 0.38781 0.64502
 C1599 C 0.74766 0.41781 0.58245
 C1600 C 0.74772 0.43407 0.56627
 C1601 C 0.74798 0.34352 0.65683
 C1602 C 0.74817 0.32732 0.67306
 H1603 H 0.76930 0.37048 0.57532
 H1604 H 0.76946 0.33648 0.60937
 H1605 H 0.70367 0.36393 0.63712
 H1606 H 0.70352 0.39793 0.60307
 H1607 H 0.77020 0.42458 0.62940
 H1608 H 0.77036 0.39059 0.66345
 C1609 C 0.10134 0.10100 0.75124
 C1610 C 0.09546 0.12319 0.73322
 C1611 C 0.11366 0.14164 0.73324
 C1612 C 0.13594 0.13609 0.75127
 C1613 C 0.14590 0.10988 0.74317
 C1614 C 0.12771 0.09143 0.74316
 C1615 C 0.10543 0.11333 0.77738
 C1616 C 0.12363 0.13178 0.77740
 C1617 C 0.08176 0.08115 0.75117
 C1618 C 0.06566 0.06483 0.75103
 C1619 C 0.15553 0.15594 0.75125
 C1620 C 0.17165 0.17224 0.75116
 H1621 H 0.07849 0.12432 0.72150
 H1622 H 0.11228 0.15858 0.72152
 H1623 H 0.16553 0.10614 0.73793
 H1624 H 0.13174 0.07188 0.73791
 H1625 H 0.09497 0.10804 0.79438
 H1626 H 0.12876 0.14230 0.79441
 C1627 C 0.60211 0.60134 0.24897
 C1628 C 0.60673 0.61380 0.22299
 C1629 C 0.62511 0.63206 0.22337
 C1630 C 0.63707 0.63607 0.24970
 C1631 C 0.64665 0.60970 0.25777
 C1632 C 0.62826 0.59144 0.25738
 C1633 C 0.59620 0.62346 0.26707
 C1634 C 0.61458 0.64173 0.26745
 C1635 C 0.58232 0.58171 0.24853
 C1636 C 0.56600 0.56561 0.24812
 C1637 C 0.65684 0.65575 0.25005
 C1638 C 0.67304 0.67196 0.25020
 H1639 H 0.59646 0.60874 0.20580
 H1640 H 0.63058 0.64264 0.20651
 H1641 H 0.66614 0.60573 0.26331
 H1642 H 0.63200 0.57182 0.26258
 H1643 H 0.57908 0.62468 0.27855
 H1644 H 0.61322 0.65859 0.27928
 C1645 C 0.10166 0.89904 0.24835
 C1646 C 0.10902 0.88991 0.22162
 C1647 C 0.12729 0.87153 0.22160
 C1648 C 0.13641 0.86409 0.24832
 C1649 C 0.11219 0.85651 0.26275
 C1650 C 0.09392 0.87488 0.26277
 C1651 C 0.12677 0.90749 0.26064
 C1652 C 0.14504 0.88912 0.26062
 C1653 C 0.08202 0.91882 0.24844
 C1654 C 0.06589 0.93512 0.24861
 C1655 C 0.15609 0.84432 0.24835
 C1656 C 0.17226 0.82807 0.24846
 H1657 H 0.10061 0.89723 0.20424
 H1658 H 0.13455 0.86310 0.20420
 H1659 H 0.10960 0.83829 0.27211
 H1660 H 0.07567 0.87241 0.27213
 H1661 H 0.12992 0.92627 0.26862
 H1662 H 0.16385 0.89215 0.26860
 C1663 C 0.60146 0.39834 0.75145
 C1664 C 0.62017 0.40088 0.72918
 C1665 C 0.63848 0.38254 0.72886
 C1666 C 0.63628 0.36346 0.75085
 C1667 C 0.60911 0.35292 0.74904
 C1668 C 0.59081 0.37126 0.74936
 C1669 C 0.61817 0.39809 0.77539
 C1670 C 0.63648 0.37976 0.77508
 C1671 C 0.58175 0.41805 0.75182
 C1672 C 0.56549 0.43421 0.75215
 C1673 C 0.65599 0.34372 0.75056
 C1674 C 0.67218 0.32750 0.75042
 H1675 H 0.61914 0.41577 0.71493
 H1676 H 0.65313 0.38171 0.71433
 H1677 H 0.60465 0.33282 0.74763
 H1678 H 0.57065 0.36687 0.74822
 H1679 H 0.61584 0.41118 0.79119
 H1680 H 0.64983 0.37713 0.79061
 C1681 C 0.89911 0.10157 0.25089
 C1682 C 0.89380 0.11325 0.27711
 C1683 C 0.87544 0.13153 0.27679
 C1684 C 0.86417 0.13633 0.25028
 C1685 C 0.85482 0.11023 0.24117
 C1686 C 0.87319 0.09195 0.24149
 C1687 C 0.90549 0.12423 0.23363
 C1688 C 0.88712 0.14251 0.23331
 C1689 C 0.91885 0.08189 0.25124
 C1690 C 0.93503 0.06566 0.25154
 C1691 C 0.84440 0.15601 0.24999
 C1692 C 0.82817 0.17218 0.24984
 H1693 H 0.90361 0.10767 0.29440
 H1694 H 0.86951 0.14160 0.29381
 H1695 H 0.83547 0.10644 0.23502
 H1696 H 0.86958 0.07250 0.23562
 H1697 H 0.92292 0.12578 0.22265
 H1698 H 0.88880 0.15972 0.22204
 C1699 C 0.39796 0.60190 0.74925
 C1700 C 0.37754 0.59809 0.76976
 C1701 C 0.35923 0.61642 0.76972
 C1702 C 0.36312 0.63677 0.74916
 C1703 C 0.36489 0.62195 0.72406
 C1704 C 0.38321 0.60362 0.72411
 C1705 C 0.40835 0.62879 0.75379
 C1706 C 0.39004 0.64712 0.75374
 C1707 C 0.41769 0.58220 0.74934
 C1708 C 0.43395 0.56604 0.74947
 C1709 C 0.34341 0.65650 0.74914
 C1710 C 0.32722 0.67273 0.74920
 H1711 H 0.37747 0.58236 0.78313
 H1712 H 0.34346 0.61640 0.78306
 H1713 H 0.35281 0.62554 0.70770
 H1714 H 0.38682 0.59150 0.70779
 H1715 H 0.42835 0.63305 0.75677
 H1716 H 0.39434 0.66709 0.75668
 C1717 C 0.89871 0.89855 0.74987
 C1718 C 0.87474 0.90631 0.76463
 C1719 C 0.85639 0.88801 0.76502
 C1720 C 0.86381 0.86375 0.75059
 C1721 C 0.88907 0.85525 0.76254
 C1722 C 0.90742 0.87355 0.76216
 C1723 C 0.88915 0.89103 0.72333
 C1724 C 0.87080 0.87274 0.72371
 C1725 C 0.91843 0.91824 0.74942
 C1726 C 0.93462 0.93446 0.74903
 C1727 C 0.84407 0.84405 0.75093
 C1728 C 0.82787 0.82784 0.75108
 H1729 H 0.87239 0.92458 0.77396
 H1730 H 0.83832 0.89059 0.77468
 H1731 H 0.89226 0.83652 0.77060
 H1732 H 0.92633 0.87050 0.76987
 H1733 H 0.89616 0.89935 0.70578
 H1734 H 0.86211 0.86539 0.70649
 C1735 C 0.39792 0.39846 0.25044
 C1736 C 0.38025 0.39965 0.27366
 C1737 C 0.36189 0.38135 0.27369
 C1738 C 0.36300 0.36367 0.25048
 C1739 C 0.39018 0.35299 0.25040
 C1740 C 0.40854 0.37128 0.25038
 C1741 C 0.38013 0.39972 0.22733
 C1742 C 0.36177 0.38143 0.22735
 C1743 C 0.41769 0.41811 0.25039
 C1744 C 0.43401 0.43421 0.25029
 C1745 C 0.34326 0.34396 0.25047
 C1746 C 0.32708 0.32773 0.25040
 H1747 H 0.38201 0.41363 0.28875
 H1748 H 0.34792 0.37966 0.28879
 H1749 H 0.39462 0.33283 0.25036
 H1750 H 0.42870 0.36680 0.25032
 H1751 H 0.38179 0.41375 0.21228
 H1752 H 0.34771 0.37979 0.21231
   
