data_POSCAR
  _audit_creation_date              2014-09-24
  _audit_creation_method            'ToBaCCo'
  _symmetry_space_group_name_H-M    'P1'
  _symmetry_Int_Tables_number       1
  _symmetry_cell_setting            triclinic
  loop_
  _symmetry_equiv_pos_as_xyz
 x,y,z
_cell_length_a 41.9411
_cell_length_b 44.0138
_cell_length_c 43.9199
_cell_angle_alpha 90.040500
_cell_angle_beta 89.987500
_cell_angle_gamma 89.908300
loop_
  _atom_site_label
  _atom_site_type_symbol
  _atom_site_fract_x
  _atom_site_fract_y
  _atom_site_fract_z
Zr1 Zr -0.06066 0.01579 -0.00451
 O2 O -0.09918 -0.00696 -0.02573
 O3 O -0.08420 0.04533 0.02547
 O4 O -0.08596 -0.01165 0.02665
 O5 O -0.05118 0.06659 -0.06399
 O6 O -0.04692 -0.03806 0.05140
 O7 O -0.08777 0.04542 -0.03188
 O8 O -0.04318 0.06805 0.05087
 O9 O -0.03108 0.01500 0.03388
 O10 O -0.03183 0.05440 -0.00733
 O11 O -0.03538 -0.02543 -0.00726
 O12 O -0.03714 0.01249 -0.04691
 Zr13 Zr 0.04998 0.00951 -0.01333
 Zr14 Zr -0.00423 -0.02487 0.03000
 Zr15 Zr -0.00673 0.05031 -0.04809
 Zr16 Zr -0.00118 0.05260 0.02976
 O17 O -0.00929 0.04565 -0.09598
 O18 O 0.00407 0.04608 0.07734
 O19 O 0.02499 0.05115 -0.01099
 O20 O 0.02606 0.01285 0.02858
 O21 O 0.02160 -0.02946 -0.01060
 O22 O 0.02002 0.01052 -0.05144
 C23 C -0.07297 0.06324 0.04589
 C24 C -0.07989 0.06282 -0.05417
 C25 C -0.07629 -0.03101 0.04661
 O26 O 0.00124 -0.02018 0.07767
 O27 O 0.03936 -0.04406 0.04368
 O28 O 0.07648 -0.02236 0.01255
 C29 C 0.06811 -0.04055 0.03413
 O30 O -0.05363 -0.04326 -0.06476
 Zr31 Zr -0.00924 -0.02730 -0.04779
 O32 O 0.07377 -0.01918 -0.04381
 O33 O -0.00851 -0.07267 0.02717
 O34 O -0.01086 -0.07472 -0.03943
 O35 O -0.01086 -0.02239 -0.09580
 O36 O 0.03322 -0.04615 -0.06539
 C37 C 0.06293 -0.03975 -0.06174
 O38 O 0.08888 0.03039 0.00916
 O39 O -0.00561 0.09828 -0.04513
 O40 O 0.07527 0.03944 -0.04197
 O41 O 0.03646 0.06647 -0.06654
 O42 O -0.00275 0.10043 0.02411
 O43 O 0.04343 0.07186 0.04208
 C44 C 0.06582 0.05974 -0.06107
 H45 H -0.04408 0.07363 -0.00693
 H46 H 0.04132 0.01290 0.04577
 H47 H 0.03175 0.01027 -0.07099
 H48 H -0.04994 -0.04309 -0.00644
 H49 H -0.00002 0.06589 0.08735
 H50 H -0.00001 -0.04088 0.08648
 H51 H -0.00663 -0.08057 0.04822
 H52 H -0.00674 -0.08516 -0.05904
 H53 H -0.00578 0.10953 0.04456
 H54 H -0.00763 0.10608 -0.06620
 H55 H -0.00837 0.06644 -0.10459
 H56 H -0.00679 -0.04266 -0.10484
 H57 H 0.04046 0.08578 0.05958
 H58 H 0.10869 0.02201 0.00005
 H59 H -0.11916 0.00138 -0.01692
 H60 H -0.04992 -0.06080 -0.07845
 Zr61 Zr 0.55011 0.50959 0.48688
 O62 O 0.58896 0.53061 0.50932
 O63 O 0.57398 0.48072 0.45661
 O64 O 0.57657 0.47789 0.51300
 O65 O 0.53669 0.56623 0.43330
 O66 O 0.53941 0.45637 0.54422
 O67 O 0.57545 0.53935 0.45811
 O68 O 0.53347 0.45364 0.43511
 O69 O 0.52173 0.47062 0.48979
 O70 O 0.52023 0.51037 0.44871
 O71 O 0.52611 0.51317 0.52872
 O72 O 0.52511 0.55123 0.48893
 Zr73 Zr 0.43946 0.51589 0.49545
 Zr74 Zr 0.49582 0.47544 0.53032
 Zr75 Zr 0.49346 0.55018 0.45178
 Zr76 Zr 0.49098 0.47257 0.45253
 O77 O 0.49457 0.59816 0.45446
 O78 O 0.48936 0.42520 0.46116
 O79 O 0.46307 0.51235 0.45312
 O80 O 0.46476 0.47466 0.49300
 O81 O 0.46896 0.51533 0.53390
 O82 O 0.46828 0.55450 0.49246
 C83 C 0.56318 0.46006 0.43877
 C84 C 0.56604 0.55954 0.43887
 C85 C 0.56818 0.45984 0.53469
 O86 O 0.49160 0.42762 0.52776
 O87 O 0.45308 0.46233 0.55169
 O88 O 0.41410 0.48862 0.52671
 C89 C 0.42371 0.46935 0.54678
 O90 O 0.54344 0.57227 0.54188
 Zr91 Zr 0.49886 0.55292 0.52962
 O92 O 0.41584 0.54558 0.52523
 O93 O 0.50115 0.48042 0.57798
 O94 O 0.50404 0.54669 0.57724
 O95 O 0.49725 0.60072 0.52370
 O96 O 0.45681 0.56844 0.55059
 C97 C 0.42703 0.56358 0.54560
 O98 O 0.40099 0.49302 0.47428
 O99 O 0.49101 0.54524 0.40390
 O100 O 0.41240 0.54536 0.46786
 O101 O 0.44904 0.56635 0.43569
 O102 O 0.48945 0.47719 0.40449
 O103 O 0.44662 0.45650 0.43558
 C104 C 0.42031 0.56263 0.44548
 H105 H 0.53200 0.51001 0.42918
 H106 H 0.45020 0.45700 0.49389
 H107 H 0.45602 0.57373 0.49274
 H108 H 0.54133 0.51333 0.54595
 H109 H 0.49352 0.41464 0.44162
 H110 H 0.49343 0.41985 0.54887
 H111 H 0.49990 0.45978 0.58690
 H112 H 0.49994 0.56656 0.58713
 H113 H 0.49353 0.45686 0.39558
 H114 H 0.49193 0.56598 0.39518
 H115 H 0.49259 0.60583 0.43334
 H116 H 0.49418 0.60993 0.54409
 H117 H 0.45036 0.43887 0.42200
 H118 H 0.38099 0.50140 0.48301
 H119 H 0.60879 0.52219 0.50029
 H120 H 0.54044 0.58630 0.55928
 Zr121 Zr 0.55544 -0.00825 0.50460
 O122 O 0.59427 0.01426 0.48364
 O123 O 0.57880 -0.03790 0.53468
 O124 O 0.58040 0.01998 0.53552
 O125 O 0.54631 -0.05942 0.44507
 O126 O 0.54112 0.04677 0.55957
 O127 O 0.58273 -0.03788 0.47715
 O128 O 0.53778 -0.06094 0.55976
 O129 O 0.52566 -0.00691 0.54288
 O130 O 0.52662 -0.04691 0.50197
 O131 O 0.53000 0.03286 0.50116
 O132 O 0.53206 -0.00557 0.46206
 Zr133 Zr 0.44479 -0.00217 0.49513
 Zr134 Zr 0.49861 0.03289 0.53830
 Zr135 Zr 0.50168 -0.04345 0.46105
 Zr136 Zr 0.49585 -0.04463 0.53900
 O137 O 0.50436 -0.03958 0.41309
 O138 O 0.49128 -0.03717 0.58651
 O139 O 0.46983 -0.04376 0.49810
 O140 O 0.46843 -0.00491 0.53721
 O141 O 0.47310 0.03685 0.49746
 O142 O 0.47498 -0.00374 0.45717
 C143 C 0.56760 -0.05635 0.55466
 C144 C 0.57503 -0.05531 0.45476
 C145 C 0.57057 0.03988 0.55496
 O146 O 0.49264 0.02876 0.58596
 O147 O 0.45486 0.05276 0.55114
 O148 O 0.41822 0.03066 0.51978
 C149 C 0.42629 0.04948 0.54095
 O150 O 0.54856 0.05041 0.44383
 Zr151 Zr 0.50415 0.03416 0.46046
 O152 O 0.42109 0.02573 0.46388
 O153 O 0.50302 0.08066 0.53496
 O154 O 0.50491 0.08169 0.46829
 O155 O 0.50682 0.02844 0.41258
 O156 O 0.46177 0.05201 0.44168
 C157 C 0.43205 0.04550 0.44515
 O158 O 0.40589 -0.02254 0.51804
 O159 O 0.50069 -0.09136 0.46477
 O160 O 0.41961 -0.03255 0.46685
 O161 O 0.45844 -0.05970 0.44235
 O162 O 0.49657 -0.09254 0.53378
 O163 O 0.45117 -0.06334 0.55195
 C164 C 0.42904 -0.05291 0.44776
 H165 H 0.53888 -0.06613 0.50245
 H166 H 0.45304 -0.00462 0.55430
 H167 H 0.46345 -0.00388 0.43751
 H168 H 0.54449 0.05058 0.50178
 H169 H 0.49530 -0.05683 0.59682
 H170 H 0.49384 0.04957 0.59452
 H171 H 0.50082 0.08888 0.55587
 H172 H 0.50083 0.09182 0.44852
 H173 H 0.49936 -0.10152 0.55430
 H174 H 0.50286 -0.09946 0.44382
 H175 H 0.50349 -0.06050 0.40477
 H176 H 0.50268 0.04851 0.40312
 H177 H 0.45409 -0.07661 0.56994
 H178 H 0.38611 -0.01436 0.50874
 H179 H 0.61412 0.00591 0.49267
 H180 H 0.54482 0.06789 0.43010
 Zr181 Zr -0.05487 0.49807 -0.00707
 O182 O -0.09396 0.47721 0.01511
 O183 O -0.07840 0.52697 -0.03753
 O184 O -0.08141 0.53028 0.01843
 O185 O -0.04124 0.44260 -0.06194
 O186 O -0.04484 0.55125 0.05064
 O187 O -0.08002 0.46857 -0.03629
 O188 O -0.03761 0.55378 -0.05872
 O189 O -0.02648 0.53693 -0.00338
 O190 O -0.02458 0.49768 -0.04496
 O191 O -0.03141 0.49392 0.03498
 O192 O -0.03001 0.45632 -0.00540
 Zr193 Zr 0.05568 0.49135 0.00255
 Zr194 Zr -0.00112 0.53159 0.03739
 Zr195 Zr 0.00198 0.45780 -0.04230
 Zr196 Zr 0.00468 0.53535 -0.04033
 O197 O 0.00088 0.40981 -0.04011
 O198 O 0.00541 0.58260 -0.03093
 O199 O 0.03247 0.49553 -0.03994
 O200 O 0.03039 0.53263 0.00036
 O201 O 0.02578 0.49157 0.04076
 O202 O 0.02678 0.45287 -0.00145
 C203 C -0.06743 0.54726 -0.05573
 C204 C -0.07074 0.44911 -0.05641
 C205 C -0.07336 0.54846 0.04017
 O206 O 0.00342 0.57943 0.03568
 O207 O 0.04140 0.54480 0.05908
 O208 O 0.08065 0.51867 0.03426
 C209 C 0.07085 0.53807 0.05421
 O210 O -0.04895 0.43501 0.04752
 Zr211 Zr -0.00414 0.45407 0.03554
 O212 O 0.07883 0.46081 0.03188
 O213 O -0.00721 0.52585 0.08486
 O214 O -0.00913 0.45988 0.08324
 O215 O -0.00329 0.40635 0.02881
 O216 O 0.03764 0.43720 0.05615
 C217 C 0.06749 0.44192 0.05137
 O218 O 0.09471 0.51428 -0.01760
 O219 O 0.00479 0.46301 -0.09014
 O220 O 0.08295 0.46248 -0.02572
 O221 O 0.04668 0.44269 -0.05892
 O222 O 0.00763 0.53115 -0.08836
 O223 O 0.04915 0.55216 -0.05626
 C224 C 0.07546 0.44614 -0.04902
 H225 H -0.03601 0.49822 -0.06466
 H226 H 0.04492 0.55030 0.00155
 H227 H 0.03903 0.43363 -0.00155
 H228 H -0.04687 0.49372 0.05202
 H229 H 0.00136 0.59337 -0.05036
 H230 H 0.00117 0.58696 0.05685
 H231 H -0.00601 0.54636 0.09411
 H232 H -0.00526 0.43987 0.09289
 H233 H 0.00347 0.55149 -0.09719
 H234 H 0.00398 0.44234 -0.09907
 H235 H 0.00318 0.40239 -0.06130
 H236 H -0.00066 0.39673 0.04906
 H237 H 0.04545 0.57009 -0.06942
 H238 H 0.11449 0.50558 -0.00876
 H239 H -0.11366 0.48572 0.00594
 H240 H -0.04617 0.42103 0.06498
 Zr241 Zr 0.06127 0.50138 0.49800
 O242 O 0.10182 0.48079 0.51806
 O243 O 0.08223 0.53137 0.46690
 O244 O 0.08751 0.47552 0.46625
 O245 O 0.04994 0.54939 0.55942
 O246 O 0.04952 0.44818 0.44106
 O247 O 0.08706 0.53207 0.52551
 O248 O 0.03934 0.55368 0.44406
 O249 O 0.03074 0.49990 0.46029
 O250 O 0.03024 0.53832 0.50253
 O251 O 0.03872 0.45879 0.50001
 O252 O 0.03911 0.49575 0.54077
 Zr253 Zr -0.04871 0.48878 0.50917
 Zr254 Zr 0.00650 0.45857 0.46357
 Zr255 Zr 0.00626 0.53164 0.54365
 Zr256 Zr -0.00118 0.53580 0.46609
 O257 O 0.00970 0.52577 0.59136
 O258 O -0.00762 0.53038 0.41850
 O259 O -0.02631 0.53172 0.50729
 O260 O -0.02596 0.49463 0.46685
 O261 O -0.01778 0.45166 0.50456
 O262 O -0.01789 0.49029 0.54660
 C263 C 0.06952 0.54925 0.44725
 C264 C 0.07858 0.54783 0.54888
 C265 C 0.07858 0.45625 0.44592
 O266 O -0.00075 0.46410 0.41623
 O267 O -0.03620 0.43682 0.45100
 O268 O -0.07436 0.45801 0.48139
 C269 C -0.06523 0.43976 0.46013
 O270 O 0.06003 0.44269 0.55750
 Zr271 Zr 0.01401 0.45449 0.54101
 O272 O -0.06913 0.45641 0.53854
 O273 O 0.01398 0.41104 0.46497
 O274 O 0.02143 0.40766 0.53195
 O275 O 0.01399 0.45785 0.58919
 O276 O -0.02591 0.43022 0.55619
 C277 C -0.05603 0.43466 0.55367
 O278 O -0.09000 0.50831 0.48938
 O279 O 0.00263 0.57957 0.54217
 O280 O -0.07494 0.51667 0.53941
 O281 O -0.03723 0.54564 0.56312
 O282 O -0.00206 0.58345 0.47328
 O283 O -0.04716 0.55313 0.45542
 C284 C -0.06627 0.53753 0.55829
 H285 H 0.04141 0.55811 0.50230
 H286 H -0.04157 0.49438 0.44996
 H287 H -0.02935 0.48862 0.56623
 H288 H 0.05434 0.44198 0.49849
 H289 H -0.00500 0.55065 0.40900
 H290 H 0.00158 0.44371 0.40688
 H291 H 0.01208 0.40356 0.44376
 H292 H 0.01929 0.39658 0.55148
 H293 H 0.00012 0.59328 0.45309
 H294 H 0.00477 0.58689 0.56342
 H295 H 0.00804 0.54626 0.60060
 H296 H 0.01198 0.43697 0.59738
 H297 H -0.04542 0.56801 0.43862
 H298 H -0.10884 0.49846 0.49884
 H299 H 0.12096 0.49037 0.50890
 H300 H 0.05824 0.42555 0.57199
 Zr301 Zr 0.45125 -0.01133 0.00916
 O302 O 0.40993 0.00811 -0.01065
 O303 O 0.43088 -0.04375 0.03852
 O304 O 0.42569 -0.04214 -0.01865
 O305 O 0.46255 0.04554 0.06312
 O306 O 0.46391 -0.06322 -0.04905
 O307 O 0.42493 0.01650 0.03937
 O308 O 0.47415 -0.06983 0.05622
 O309 O 0.48227 -0.04838 0.00456
 O310 O 0.48204 -0.00976 0.04661
 O311 O 0.47401 -0.00541 -0.03314
 O312 O 0.47355 0.03165 0.00731
 Zr313 Zr 0.56120 0.00152 -0.00195
 Zr314 Zr 0.50656 -0.04140 -0.03643
 Zr315 Zr 0.50609 0.03163 0.04369
 Zr316 Zr 0.51402 -0.04549 0.04102
 O317 O 0.50236 0.07957 0.04225
 O318 O 0.52153 -0.09231 0.03194
 O319 O 0.53903 -0.00418 0.04081
 O320 O 0.53875 -0.04112 0.00004
 O321 O 0.53070 -0.00001 -0.03968
 O322 O 0.53007 0.03839 0.00259
 C323 C 0.44402 -0.06545 0.05367
 C324 C 0.43353 0.03737 0.05825
 C325 C 0.43487 -0.06034 -0.03993
 O326 O 0.51411 -0.08892 -0.03503
 O327 O 0.54962 -0.05173 -0.05888
 O328 O 0.58752 -0.02428 -0.03368
 C329 C 0.57866 -0.04359 -0.05399
 O330 O 0.45266 0.05301 -0.04460
 Zr331 Zr 0.49869 0.03582 -0.03387
 O332 O 0.58209 0.03158 -0.03302
 O333 O 0.49935 -0.03586 -0.08377
 O334 O 0.49237 0.03040 -0.08147
 O335 O 0.49760 0.08346 -0.02663
 O336 O 0.53917 0.05389 -0.05579
 C337 C 0.56935 0.04952 -0.05260
 O338 O 0.60179 -0.01899 0.01811
 O339 O 0.50951 0.02575 0.09140
 O340 O 0.58689 0.03225 0.02558
 O341 O 0.54973 0.04947 0.05949
 O342 O 0.51400 -0.04214 0.08921
 O343 O 0.56006 -0.05723 0.05752
 C344 C 0.57837 0.04797 0.04896
 H345 H 0.47057 -0.01147 0.06624
 H346 H 0.55441 -0.05790 -0.00148
 H347 H 0.54119 0.05821 0.00238
 H348 H 0.45841 -0.00569 -0.05005
 H349 H 0.51940 -0.10340 0.05146
 H350 H 0.51224 -0.09640 -0.05625
 H351 H 0.50174 -0.05624 -0.09312
 H352 H 0.49493 0.05067 -0.09096
 H353 H 0.51203 -0.06303 0.09739
 H354 H 0.50779 0.04624 0.10065
 H355 H 0.50447 0.08687 0.06350
 H356 H 0.49975 0.09332 -0.04681
 H357 H 0.55830 -0.07438 0.07199
 H358 H 0.62091 -0.00936 0.00898
 H359 H 0.39110 -0.00178 -0.00121
 H360 H 0.45438 0.06788 -0.06143
 Zr361 Zr 0.45250 0.49053 0.00046
 O362 O 0.41407 0.51279 0.02250
 O363 O 0.42891 0.46325 -0.03136
 O364 O 0.42722 0.51874 -0.02966
 O365 O 0.46151 0.43890 0.05909
 O366 O 0.46607 0.54498 -0.05482
 O367 O 0.42515 0.46019 0.02680
 O368 O 0.46974 0.43952 -0.05618
 O369 O 0.48219 0.49165 -0.03786
 O370 O 0.48102 0.45163 0.00273
 O371 O 0.47775 0.53165 0.00354
 O372 O 0.47574 0.49320 0.04292
 Zr373 Zr 0.56303 0.49615 0.00966
 Zr374 Zr 0.50904 0.53136 -0.03367
 Zr375 Zr 0.50602 0.45522 0.04362
 Zr376 Zr 0.51184 0.45376 -0.03419
 O377 O 0.50294 0.45919 0.09156
 O378 O 0.51792 0.46058 -0.08164
 O379 O 0.53794 0.45464 0.00667
 O380 O 0.53922 0.49339 -0.03240
 O381 O 0.53466 0.53527 0.00713
 O382 O 0.53276 0.49492 0.04754
 C383 C 0.43999 0.44563 -0.05212
 C384 C 0.43288 0.44267 0.04907
 C385 C 0.43670 0.53815 -0.04954
 O386 O 0.51452 0.52699 -0.08137
 O387 O 0.55286 0.55047 -0.04707
 O388 O 0.58968 0.52816 -0.01593
 C389 C 0.58155 0.54671 -0.03733
 O390 O 0.45904 0.54841 0.06126
 Zr391 Zr 0.50360 0.53289 0.04415
 O392 O 0.58665 0.52477 0.04038
 O393 O 0.50500 0.57917 -0.03042
 O394 O 0.50163 0.58040 0.03636
 O395 O 0.50222 0.52773 0.09215
 O396 O 0.54585 0.55175 0.06165
 C397 C 0.57559 0.54543 0.05816
 O398 O 0.60197 0.47511 -0.01269
 O399 O 0.50744 0.40731 0.03991
 O400 O 0.58808 0.46610 0.03873
 O401 O 0.54890 0.43907 0.06265
 O402 O 0.50949 0.40589 -0.02919
 O403 O 0.55640 0.43409 -0.04626
 C404 C 0.57832 0.44587 0.05782
 H405 H 0.46859 0.43255 0.00185
 H406 H 0.55459 0.49342 -0.04952
 H407 H 0.54435 0.49506 0.06717
 H408 H 0.46325 0.54940 0.00298
 H409 H 0.51369 0.44092 -0.09187
 H410 H 0.51324 0.54776 -0.08998
 H411 H 0.50672 0.58720 -0.05143
 H412 H 0.50551 0.59064 0.05612
 H413 H 0.50632 0.39716 -0.04977
 H414 H 0.50510 0.39919 0.06082
 H415 H 0.50365 0.43828 0.09990
 H416 H 0.50602 0.54801 0.10127
 H417 H 0.55343 0.42008 -0.06368
 H418 H 0.62173 0.48335 -0.00343
 H419 H 0.39404 0.50489 0.01348
 H420 H 0.46255 0.56583 0.07513
 Zr421 Zr 0.06296 -0.00358 0.50982
 O422 O 0.10203 -0.02456 0.48759
 O423 O 0.08643 0.02521 0.54048
 O424 O 0.08952 0.02840 0.48412
 O425 O 0.04895 -0.06057 0.56294
 O426 O 0.05264 0.05048 0.45287
 O427 O 0.08807 -0.03349 0.53899
 O428 O 0.04552 0.05213 0.56163
 O429 O 0.03445 0.03543 0.50712
 O430 O 0.03266 -0.00479 0.54767
 O431 O 0.03921 -0.00657 0.46774
 O432 O 0.03802 -0.04518 0.50694
 Zr433 Zr -0.04755 -0.00960 0.50051
 Zr434 Zr 0.00889 0.03130 0.46631
 Zr435 Zr 0.00605 -0.04459 0.54385
 Zr436 Zr 0.00336 0.03307 0.54412
 O437 O 0.00761 -0.09251 0.54032
 O438 O 0.00124 0.08055 0.53618
 O439 O -0.02436 -0.00671 0.54299
 O440 O -0.02244 0.03160 0.50349
 O441 O -0.01781 -0.00851 0.46222
 O442 O -0.01889 -0.04840 0.50295
 C443 C 0.07528 0.04588 0.55818
 C444 C 0.07837 -0.05372 0.55811
 C445 C 0.08134 0.04684 0.46263
 O446 O 0.00471 0.07910 0.46941
 O447 O -0.03410 0.04475 0.44510
 O448 O -0.07289 0.01845 0.47028
 C449 C -0.06345 0.03784 0.45036
 O450 O 0.05663 -0.06583 0.45408
 Zr451 Zr 0.01198 -0.04629 0.46606
 O452 O -0.07098 -0.03708 0.46874
 O453 O 0.01440 0.02678 0.41864
 O454 O 0.01805 -0.03961 0.41859
 O455 O 0.00985 -0.09415 0.47125
 O456 O -0.03003 -0.06081 0.44411
 C457 C -0.05980 -0.05478 0.44809
 O458 O -0.08609 0.01260 0.52242
 O459 O 0.00293 -0.04046 0.59178
 O460 O -0.07482 -0.03993 0.52691
 O461 O -0.03843 -0.06097 0.55935
 O462 O 0.00192 0.02805 0.59213
 O463 O -0.04127 0.04852 0.56114
 C464 C -0.06706 -0.05733 0.54926
 H465 H 0.04422 -0.00456 0.56731
 H466 H -0.03700 0.04931 0.50286
 H467 H -0.03125 -0.06752 0.50212
 H468 H 0.05459 -0.00654 0.45064
 H469 H 0.00506 0.09087 0.55590
 H470 H 0.00642 0.08707 0.44838
 H471 H 0.01306 0.04752 0.40995
 H472 H 0.01392 -0.05933 0.40843
 H473 H 0.00565 0.04837 0.60120
 H474 H 0.00369 -0.06134 0.60019
 H475 H 0.00526 -0.10055 0.56126
 H476 H 0.00674 -0.10298 0.45070
 H477 H -0.03783 0.06599 0.57496
 H478 H -0.10608 0.00460 0.51340
 H479 H 0.12173 -0.01622 0.49686
 H480 H 0.05374 -0.07991 0.43671
 Zr481 Zr 0.75354 0.19010 0.25631
 O482 O 0.72883 0.15166 0.27309
 O483 O 0.78820 0.17006 0.22858
 O484 O 0.72911 0.16700 0.22145
 O485 O 0.79966 0.19729 0.32105
 O486 O 0.70227 0.20439 0.19604
 O487 O 0.78240 0.16356 0.28517
 O488 O 0.81314 0.21084 0.20712
 O489 O 0.75583 0.22019 0.21944
 O490 O 0.79264 0.21832 0.26439
 O491 O 0.70944 0.21283 0.25585
 O492 O 0.74494 0.20993 0.29926
 Zr493 Zr 0.74252 0.29467 0.27027
 Zr494 Zr 0.71300 0.24453 0.22044
 Zr495 Zr 0.78321 0.23987 0.30564
 Zr496 Zr 0.79369 0.24937 0.22887
 O497 O 0.77335 0.23567 0.35270
 O498 O 0.79159 0.25700 0.18123
 O499 O 0.78698 0.27206 0.27053
 O500 O 0.75126 0.27426 0.22766
 O501 O 0.70322 0.26660 0.26173
 O502 O 0.74041 0.26405 0.30658
 C503 C 0.80847 0.18213 0.21039
 C504 C 0.79786 0.17043 0.30951
 C505 C 0.71024 0.17641 0.20035
 O506 O 0.72289 0.25197 0.17380
 O507 O 0.69371 0.28657 0.20678
 O508 O 0.71193 0.32056 0.24205
 C509 C 0.69577 0.31350 0.21810
 O510 O 0.68701 0.19125 0.31087
 Zr511 Zr 0.70241 0.23519 0.29729
 O512 O 0.70728 0.31427 0.29797
 O513 O 0.66288 0.23978 0.21828
 O514 O 0.65391 0.23084 0.28434
 O515 O 0.70222 0.23273 0.34552
 O516 O 0.67758 0.27358 0.31307
 C517 C 0.68335 0.30218 0.31167
 O518 O 0.76571 0.33370 0.25292
 O519 O 0.83361 0.24137 0.30796
 O520 O 0.76940 0.31794 0.30396
 O521 O 0.79843 0.28026 0.32646
 O522 O 0.84302 0.24868 0.23947
 O523 O 0.81387 0.29288 0.22065
 C524 C 0.79066 0.30833 0.32294
 H525 H 0.81311 0.20714 0.26536
 H526 H 0.75281 0.28974 0.21139
 H527 H 0.73759 0.27430 0.32648
 H528 H 0.69159 0.19852 0.25254
 H529 H 0.81337 0.25396 0.17301
 H530 H 0.70225 0.25081 0.16288
 H531 H 0.65684 0.24229 0.19661
 H532 H 0.64080 0.23266 0.30303
 H533 H 0.85480 0.24681 0.21999
 H534 H 0.83950 0.23866 0.32964
 H535 H 0.79415 0.23640 0.36337
 H536 H 0.67980 0.23497 0.35231
 H537 H 0.83055 0.29118 0.20478
 H538 H 0.75511 0.35170 0.26208
 H539 H 0.73914 0.13336 0.26425
 H540 H 0.66764 0.19310 0.32363
 Zr541 Zr 0.74731 0.79837 0.74631
 O542 O 0.77247 0.83636 0.76358
 O543 O 0.71174 0.81930 0.72039
 O544 O 0.77111 0.82250 0.71168
 O545 O 0.70264 0.78957 0.81197
 O546 O 0.79752 0.78589 0.68472
 O547 O 0.71948 0.82408 0.77665
 O548 O 0.68593 0.77937 0.69825
 O549 O 0.74417 0.76949 0.70852
 O550 O 0.70841 0.76992 0.75459
 O551 O 0.79138 0.77576 0.74423
 O552 O 0.75676 0.77740 0.78855
 Zr553 Zr 0.75860 0.69383 0.75692
 Zr554 Zr 0.78706 0.74507 0.70794
 Zr555 Zr 0.71866 0.74719 0.79513
 Zr556 Zr 0.70647 0.74011 0.71799
 O557 O 0.72969 0.75070 0.84201
 O558 O 0.70761 0.73422 0.67008
 O559 O 0.71410 0.71623 0.75890
 O560 O 0.74892 0.71521 0.71505
 O561 O 0.79765 0.72209 0.74843
 O562 O 0.76157 0.72321 0.79420
 C563 C 0.69062 0.80797 0.70260
 C564 C 0.70457 0.81673 0.80112
 C565 C 0.78980 0.81375 0.69013
 O566 O 0.77606 0.73857 0.66139
 O567 O 0.80689 0.70339 0.69335
 O568 O 0.78959 0.66889 0.72847
 C569 C 0.80569 0.67641 0.70469
 O570 O 0.81432 0.79607 0.79974
 Zr571 Zr 0.79928 0.75241 0.78488
 O572 O 0.79386 0.67336 0.78405
 O573 O 0.83709 0.75018 0.70469
 O574 O 0.84751 0.75796 0.77146
 O575 O 0.80092 0.75274 0.83315
 O576 O 0.82494 0.71358 0.79787
 C577 C 0.81865 0.68508 0.79666
 O578 O 0.73570 0.65527 0.73811
 O579 O 0.66837 0.74500 0.79829
 O580 O 0.73168 0.66947 0.78938
 O581 O 0.70502 0.70602 0.81621
 O582 O 0.65735 0.74015 0.72947
 O583 O 0.68636 0.69677 0.70881
 C584 C 0.71217 0.67811 0.81037
 H585 H 0.68797 0.78105 0.75639
 H586 H 0.74721 0.70010 0.69842
 H587 H 0.76493 0.71235 0.81368
 H588 H 0.80915 0.79019 0.74104
 H589 H 0.68566 0.73751 0.66241
 H590 H 0.79645 0.74004 0.65009
 H591 H 0.84264 0.74809 0.68285
 H592 H 0.86091 0.75565 0.78990
 H593 H 0.64517 0.74224 0.71026
 H594 H 0.66295 0.74735 0.82013
 H595 H 0.70917 0.74973 0.85316
 H596 H 0.82355 0.75031 0.83917
 H597 H 0.66967 0.69879 0.69299
 H598 H 0.74631 0.63701 0.74668
 H599 H 0.76196 0.85492 0.75553
 H600 H 0.83371 0.79403 0.81244
 Zr601 Zr 0.26372 0.30901 0.75200
 O602 O 0.24183 0.34956 0.73649
 O603 O 0.29971 0.32614 0.78054
 O604 O 0.23979 0.33308 0.78696
 O605 O 0.30670 0.30057 0.68508
 O606 O 0.21202 0.29659 0.81258
 O607 O 0.29313 0.33425 0.72256
 O608 O 0.32580 0.28357 0.79674
 O609 O 0.26521 0.27823 0.78828
 O610 O 0.30086 0.27875 0.74214
 O611 O 0.21842 0.28864 0.75264
 O612 O 0.25304 0.29015 0.70888
 Zr613 Zr 0.24642 0.20557 0.73680
 Zr614 Zr 0.22087 0.25643 0.78765
 Zr615 Zr 0.28939 0.25826 0.70070
 Zr616 Zr 0.30106 0.24705 0.77717
 O617 O 0.27860 0.26337 0.65392
 O618 O 0.29991 0.24070 0.82501
 O619 O 0.29207 0.22552 0.73544
 O620 O 0.25719 0.22473 0.77941
 O621 O 0.20893 0.23551 0.74631
 O622 O 0.24531 0.23646 0.70065
 C623 C 0.32174 0.31245 0.79566
 C624 C 0.30664 0.32729 0.69718
 C625 C 0.22053 0.32434 0.80809
 O626 O 0.23156 0.24776 0.83391
 O627 O 0.19890 0.21549 0.80070
 O628 O 0.21400 0.18127 0.76434
 C629 C 0.19855 0.18888 0.78853
 O630 O 0.19561 0.31206 0.69860
 Zr631 Zr 0.20921 0.26722 0.71107
 O632 O 0.21066 0.18811 0.70856
 O633 O 0.17114 0.26389 0.79110
 O634 O 0.16122 0.27336 0.72506
 O635 O 0.20849 0.27097 0.66294
 O636 O 0.18246 0.23023 0.69463
 C637 C 0.18727 0.20140 0.69511
 O638 O 0.26662 0.16496 0.75414
 O639 O 0.33957 0.25451 0.69728
 O640 O 0.27268 0.18103 0.70396
 O641 O 0.30169 0.21699 0.67873
 O642 O 0.34976 0.24317 0.76473
 O643 O 0.31766 0.20211 0.78521
 C644 C 0.29320 0.18927 0.68375
 H645 H 0.32189 0.28881 0.74065
 H646 H 0.25802 0.20898 0.79548
 H647 H 0.24167 0.22657 0.68070
 H648 H 0.20135 0.30375 0.75631
 H649 H 0.32216 0.24190 0.83249
 H650 H 0.21124 0.24960 0.84529
 H651 H 0.16536 0.26104 0.81279
 H652 H 0.14768 0.27239 0.70659
 H653 H 0.36251 0.24326 0.78374
 H654 H 0.34499 0.25724 0.67550
 H655 H 0.29908 0.26177 0.64277
 H656 H 0.18592 0.26977 0.65639
 H657 H 0.33419 0.20244 0.80130
 H658 H 0.25508 0.14771 0.74465
 H659 H 0.25354 0.36689 0.74567
 H660 H 0.17577 0.31134 0.68640
 Zr661 Zr 0.22854 0.70717 0.25290
 O662 O 0.25260 0.66921 0.23401
 O663 O 0.19510 0.68639 0.28187
 O664 O 0.25467 0.68264 0.28571
 O665 O 0.18165 0.71618 0.18860
 O666 O 0.28149 0.71913 0.31224
 O667 O 0.19923 0.68168 0.22366
 O668 O 0.16713 0.72642 0.30144
 O669 O 0.22673 0.73584 0.29088
 O670 O 0.18915 0.73556 0.24622
 O671 O 0.27252 0.73009 0.25305
 O672 O 0.23640 0.72880 0.21060
 Zr673 Zr 0.23869 0.81209 0.24326
 Zr674 Zr 0.26960 0.76011 0.28994
 Zr675 Zr 0.19766 0.75863 0.20560
 Zr676 Zr 0.18853 0.76536 0.28294
 O677 O 0.20668 0.75556 0.15829
 O678 O 0.19129 0.76931 0.33099
 O679 O 0.19435 0.78948 0.24214
 O680 O 0.23102 0.79002 0.28500
 O681 O 0.27851 0.78410 0.24955
 O682 O 0.24014 0.78309 0.20545
 C683 C 0.17300 0.69793 0.29865
 C684 C 0.18387 0.68898 0.19939
 C685 C 0.27408 0.69128 0.30667
 O686 O 0.26044 0.76584 0.33697
 O687 O 0.28984 0.80131 0.30451
 O688 O 0.27093 0.83669 0.27106
 C689 C 0.28809 0.82857 0.29405
 O690 O 0.29651 0.71160 0.19780
 Zr691 Zr 0.27872 0.75441 0.21255
 O692 O 0.27149 0.83372 0.21481
 O693 O 0.31975 0.75496 0.29132
 O694 O 0.32752 0.75268 0.22503
 O695 O 0.27745 0.75143 0.16436
 O696 O 0.30020 0.79424 0.19513
 C697 C 0.29368 0.82274 0.19795
 O698 O 0.21611 0.84997 0.26381
 O699 O 0.14728 0.76068 0.20437
 O700 O 0.21030 0.83657 0.21210
 O701 O 0.18344 0.80006 0.18537
 O702 O 0.13914 0.76690 0.27268
 O703 O 0.16946 0.80878 0.29391
 C704 C 0.19062 0.82794 0.19130
 H705 H 0.16871 0.72442 0.24500
 H706 H 0.22995 0.80479 0.30199
 H707 H 0.24224 0.79393 0.18582
 H708 H 0.29062 0.71581 0.25532
 H709 H 0.16947 0.76648 0.33917
 H710 H 0.28127 0.76428 0.34751
 H711 H 0.32621 0.75691 0.31294
 H712 H 0.34023 0.75621 0.20634
 H713 H 0.12734 0.76509 0.29215
 H714 H 0.14104 0.75857 0.18272
 H715 H 0.18571 0.75677 0.14795
 H716 H 0.29942 0.75488 0.15680
 H717 H 0.15380 0.80671 0.31065
 H718 H 0.22608 0.86848 0.25516
 H719 H 0.24258 0.65061 0.24246
 H720 H 0.31629 0.71466 0.18588
 Zr721 Zr 0.24251 0.79470 0.77024
 O722 O 0.26567 0.83374 0.75288
 O723 O 0.20727 0.81429 0.79795
 O724 O 0.21189 0.82059 0.74205
 O725 O 0.29847 0.78030 0.82638
 O726 O 0.19365 0.78660 0.70679
 O727 O 0.26941 0.81797 0.80391
 O728 O 0.17760 0.77360 0.81308
 O729 O 0.20321 0.76663 0.76172
 O730 O 0.24042 0.76408 0.80655
 O731 O 0.25122 0.77430 0.72762
 O732 O 0.28697 0.77210 0.77046
 Zr733 Zr 0.25354 0.69014 0.75627
 Zr734 Zr 0.21296 0.74456 0.72043
 Zr735 Zr 0.28324 0.73991 0.80557
 Zr736 Zr 0.20242 0.73521 0.79728
 O737 O 0.33363 0.74141 0.80786
 O738 O 0.15391 0.73084 0.78437
 O739 O 0.24496 0.70996 0.79922
 O740 O 0.20943 0.71286 0.75584
 O741 O 0.25579 0.72023 0.71940
 O742 O 0.29264 0.71836 0.76431
 C743 C 0.18334 0.80220 0.81166
 C744 C 0.29069 0.80836 0.82286
 C745 C 0.19571 0.81353 0.71811
 O746 O 0.16283 0.73980 0.71830
 O747 O 0.20223 0.70442 0.69602
 O748 O 0.22908 0.66704 0.72142
 C749 C 0.21022 0.67644 0.70033
 O750 O 0.31382 0.79293 0.72058
 Zr751 Zr 0.29365 0.74942 0.72879
 O752 O 0.28817 0.67010 0.72851
 O753 O 0.22281 0.75201 0.67378
 O754 O 0.29151 0.75707 0.68117
 O755 O 0.34299 0.74871 0.73935
 O756 O 0.31306 0.71090 0.70701
 C757 C 0.30840 0.68218 0.71028
 O758 O 0.22885 0.65169 0.77306
 O759 O 0.27341 0.73572 0.85264
 O760 O 0.28243 0.66360 0.78511
 O761 O 0.29969 0.69733 0.82098
 O762 O 0.20227 0.73275 0.84551
 O763 O 0.18704 0.69127 0.81087
 C764 C 0.29790 0.67047 0.80944
 H765 H 0.23762 0.77433 0.82645
 H766 H 0.19158 0.69854 0.75254
 H767 H 0.31311 0.70719 0.76527
 H768 H 0.25275 0.78978 0.71135
 H769 H 0.14082 0.73266 0.80307
 H770 H 0.15678 0.74231 0.69664
 H771 H 0.20215 0.75085 0.66288
 H772 H 0.31329 0.75404 0.67293
 H773 H 0.17986 0.73499 0.85232
 H774 H 0.29421 0.73645 0.86330
 H775 H 0.33954 0.73870 0.82954
 H776 H 0.35475 0.74685 0.71986
 H777 H 0.16769 0.69311 0.82366
 H778 H 0.23915 0.63339 0.76422
 H779 H 0.25508 0.85173 0.76204
 H780 H 0.33050 0.79123 0.70471
 Zr781 Zr 0.25752 0.19370 0.25606
 O782 O 0.23448 0.15529 0.23711
 O783 O 0.29260 0.17303 0.28321
 O784 O 0.28852 0.16868 0.22770
 O785 O 0.20387 0.20599 0.31525
 O786 O 0.30616 0.20319 0.19274
 O787 O 0.23047 0.16938 0.28846
 O788 O 0.32374 0.21307 0.29740
 O789 O 0.29673 0.22182 0.24777
 O790 O 0.26048 0.22301 0.29340
 O791 O 0.24812 0.21517 0.21419
 O792 O 0.21310 0.21624 0.25793
 Zr793 Zr 0.24667 0.29829 0.24557
 Zr794 Zr 0.28640 0.24491 0.20728
 Zr795 Zr 0.21765 0.24714 0.29421
 Zr796 Zr 0.29835 0.25207 0.28428
 O797 O 0.16735 0.24508 0.29718
 O798 O 0.34664 0.25737 0.27097
 O799 O 0.25591 0.27722 0.28780
 O800 O 0.29067 0.27553 0.24364
 O801 O 0.24359 0.26946 0.20774
 O802 O 0.20764 0.26997 0.25367
 C803 C 0.31736 0.18460 0.29601
 C804 C 0.21098 0.17807 0.30943
 C805 C 0.30479 0.17619 0.20402
 O806 O 0.33646 0.24988 0.20420
 O807 O 0.29709 0.28574 0.18415
 O808 O 0.27074 0.32239 0.21109
 C809 C 0.28947 0.31361 0.18959
 O810 O 0.18548 0.19691 0.20784
 Zr811 Zr 0.20575 0.24019 0.21703
 O812 O 0.21133 0.31936 0.21942
 O813 O 0.27555 0.23850 0.16069
 O814 O 0.20701 0.23421 0.16913
 O815 O 0.15657 0.24050 0.22830
 O816 O 0.18556 0.27950 0.19712
 C817 C 0.19033 0.30809 0.20145
 O818 O 0.27186 0.33619 0.26301
 O819 O 0.22849 0.25058 0.34114
 O820 O 0.21879 0.32405 0.27584
 O821 O 0.20174 0.28954 0.31107
 O822 O 0.29978 0.25239 0.33255
 O823 O 0.31358 0.29563 0.29924
 C824 C 0.20380 0.31671 0.30027
 H825 H 0.26373 0.21211 0.31287
 H826 H 0.30851 0.28990 0.24054
 H827 H 0.18723 0.28117 0.25539
 H828 H 0.24642 0.20009 0.19753
 H829 H 0.35998 0.25495 0.28943
 H830 H 0.34208 0.24778 0.18238
 H831 H 0.29600 0.23990 0.14946
 H832 H 0.18509 0.23755 0.16140
 H833 H 0.32237 0.24985 0.33866
 H834 H 0.20793 0.24966 0.35221
 H835 H 0.16185 0.24743 0.31900
 H836 H 0.14449 0.24263 0.20902
 H837 H 0.33296 0.29347 0.31193
 H838 H 0.26146 0.35478 0.25493
 H839 H 0.24497 0.13696 0.24566
 H840 H 0.16881 0.19898 0.19201
 Zr841 Zr 0.74736 0.70458 0.23667
 O842 O 0.76742 0.66391 0.25400
 O843 O 0.71157 0.68725 0.20838
 O844 O 0.71484 0.68035 0.26416
 O845 O 0.80276 0.71589 0.17868
 O846 O 0.69977 0.71460 0.30051
 O847 O 0.77359 0.68000 0.20384
 O848 O 0.68351 0.72946 0.19445
 O849 O 0.70994 0.73462 0.24615
 O850 O 0.74638 0.73550 0.20054
 O851 O 0.75812 0.72369 0.27930
 O852 O 0.79307 0.72441 0.23537
 Zr853 Zr 0.76495 0.80795 0.25196
 Zr854 Zr 0.72188 0.75548 0.28751
 Zr855 Zr 0.79053 0.75718 0.20065
 Zr856 Zr 0.71036 0.76636 0.21094
 O857 O 0.84071 0.75335 0.19729
 O858 O 0.66238 0.77264 0.22488
 O859 O 0.75427 0.78916 0.20882
 O860 O 0.71958 0.78773 0.25253
 O861 O 0.76630 0.77715 0.28821
 O862 O 0.80202 0.77761 0.24211
 C863 C 0.68824 0.70062 0.19492
 C864 C 0.79417 0.68818 0.18366
 C865 C 0.69938 0.68799 0.28834
 O866 O 0.67217 0.76305 0.29088
 O867 O 0.71308 0.79568 0.31240
 O868 O 0.74128 0.83204 0.28707
 C869 C 0.72188 0.82337 0.30811
 O870 O 0.81853 0.70089 0.28513
 Zr871 Zr 0.80207 0.74589 0.27713
 O872 O 0.80098 0.82497 0.28051
 O873 O 0.73247 0.74680 0.33379
 O874 O 0.80085 0.73947 0.32496
 O875 O 0.85078 0.74191 0.26473
 O876 O 0.82687 0.78233 0.29679
 C877 C 0.82290 0.81122 0.29571
 O878 O 0.74310 0.84855 0.23650
 O879 O 0.77983 0.76231 0.15385
 O880 O 0.79443 0.83316 0.22256
 O881 O 0.80790 0.79948 0.18504
 O882 O 0.70972 0.77013 0.16280
 O883 O 0.69692 0.81124 0.19846
 C884 C 0.80789 0.82620 0.19716
 H885 H 0.74274 0.72563 0.18058
 H886 H 0.70258 0.80291 0.25621
 H887 H 0.82308 0.78762 0.24065
 H888 H 0.75889 0.70793 0.29536
 H889 H 0.64885 0.77171 0.20641
 H890 H 0.66635 0.76023 0.31257
 H891 H 0.71214 0.74869 0.34514
 H892 H 0.82310 0.74059 0.33245
 H893 H 0.68715 0.76899 0.15623
 H894 H 0.80032 0.76068 0.14273
 H895 H 0.84616 0.75608 0.17551
 H896 H 0.86350 0.74196 0.28376
 H897 H 0.67708 0.81058 0.18625
 H898 H 0.75484 0.86584 0.24568
 H899 H 0.75583 0.64670 0.24448
 H900 H 0.83507 0.70116 0.30120
 Zr901 Zr 0.73923 0.31327 0.74430
 O902 O 0.71703 0.35130 0.76495
 O903 O 0.77202 0.33468 0.71568
 O904 O 0.77197 0.33762 0.77178
 O905 O 0.68377 0.30147 0.68656
 O906 O 0.79037 0.30230 0.80557
 O907 O 0.71087 0.33788 0.71319
 O908 O 0.80050 0.29503 0.69605
 O909 O 0.77887 0.28505 0.75057
 O910 O 0.74043 0.28421 0.70653
 O911 O 0.73148 0.29131 0.78609
 O912 O 0.69474 0.29090 0.74329
 Zr913 Zr 0.72846 0.20842 0.75408
 Zr914 Zr 0.76988 0.26119 0.79103
 Zr915 Zr 0.69780 0.25999 0.70679
 Zr916 Zr 0.77885 0.25534 0.71360
 O917 O 0.64743 0.26226 0.70566
 O918 O 0.82766 0.25340 0.72601
 O919 O 0.73637 0.22995 0.71175
 O920 O 0.77257 0.23111 0.75415
 O921 O 0.72687 0.23713 0.79204
 O922 O 0.68922 0.23701 0.74744
 C923 C 0.79411 0.32357 0.69881
 C924 C 0.69110 0.32932 0.69244
 C925 C 0.78902 0.32946 0.79483
 O926 O 0.82000 0.25579 0.79235
 O927 O 0.78157 0.22016 0.81334
 O928 O 0.75449 0.18379 0.78687
 C929 C 0.77399 0.19234 0.80780
 O930 O 0.67002 0.31039 0.79505
 Zr931 Zr 0.68884 0.26686 0.78413
 O932 O 0.69495 0.18786 0.78312
 O933 O 0.76078 0.26699 0.83805
 O934 O 0.69171 0.27091 0.83217
 O935 O 0.63944 0.26860 0.77395
 O936 O 0.66730 0.22805 0.80277
 C937 C 0.67299 0.19952 0.79998
 O938 O 0.75226 0.17030 0.73522
 O939 O 0.70667 0.25688 0.65945
 O940 O 0.69898 0.18305 0.72487
 O941 O 0.68160 0.21762 0.68980
 O942 O 0.77747 0.25226 0.66542
 O943 O 0.79638 0.21241 0.69891
 C944 C 0.68368 0.19041 0.70058
 H945 H 0.74253 0.29501 0.68688
 H946 H 0.79059 0.21674 0.75641
 H947 H 0.66872 0.22596 0.74627
 H948 H 0.73055 0.30612 0.80305
 H949 H 0.84035 0.25683 0.70729
 H950 H 0.82649 0.25771 0.81397
 H951 H 0.78161 0.26533 0.84858
 H952 H 0.66989 0.26820 0.84039
 H953 H 0.79944 0.25558 0.65782
 H954 H 0.68569 0.25819 0.64916
 H955 H 0.64112 0.26017 0.68402
 H956 H 0.62767 0.26686 0.79344
 H957 H 0.81616 0.21535 0.68696
 H958 H 0.74213 0.15177 0.74370
 H959 H 0.72712 0.36973 0.75625
 H960 H 0.65435 0.30842 0.81179
 C961 C 0.09946 0.43157 0.93673
 C962 C 0.09582 0.41586 0.90921
 C963 C 0.12217 0.39844 0.89530
 N964 N 0.12525 0.39731 0.86454
 N965 N 0.14785 0.38028 0.85162
 C966 C 0.16793 0.36330 0.86897
 N967 N 0.16466 0.36421 0.89973
 N968 N 0.14243 0.38170 0.91267
 C969 C 0.19060 0.34193 0.85467
 C970 C 0.20534 0.34817 0.82687
 H971 H 0.07363 0.41742 0.89667
 H972 H 0.19488 0.32034 0.86577
 H973 H 0.12314 0.43264 0.94661
 H974 H 0.20379 0.37090 0.81754
 C975 C 0.39456 0.58038 0.43124
 C976 C 0.39637 0.59105 0.40145
 C977 C 0.37177 0.61126 0.38869
 N978 N 0.36590 0.61129 0.35831
 N979 N 0.34450 0.63031 0.34641
 C980 C 0.32851 0.65031 0.36441
 N981 N 0.33461 0.65049 0.39475
 N982 N 0.35565 0.63114 0.40672
 C983 C 0.30666 0.67288 0.35109
 C984 C 0.29033 0.66721 0.32406
 H985 H 0.41585 0.58386 0.38692
 H986 H 0.30383 0.69456 0.36248
 H987 H 0.37331 0.58491 0.44453
 H988 H 0.29079 0.64452 0.31445
 C989 C 0.90725 0.92473 0.56325
 C990 C 0.90892 0.91444 0.59318
 C991 C 0.88462 0.89413 0.60612
 N992 N 0.87880 0.89439 0.63650
 N993 N 0.85782 0.87520 0.64866
 C994 C 0.84222 0.85472 0.63096
 N995 N 0.84827 0.85425 0.60060
 N996 N 0.86889 0.87378 0.58836
 C997 C 0.82092 0.83198 0.64469
 C998 C 0.80488 0.83779 0.67186
 H999 H 0.92816 0.92206 0.60776
 H1000 H 0.81853 0.81006 0.63369
 H1001 H 0.88622 0.91986 0.54978
 H1002 H 0.80496 0.86065 0.68106
 C1003 C 0.60300 0.06639 0.06405
 C1004 C 0.60035 0.07479 0.09453
 C1005 C 0.62291 0.09569 0.10924
 N1006 N 0.62724 0.09446 0.13982
 N1007 N 0.64636 0.11422 0.15374
 C1008 C 0.66150 0.13625 0.13767
 N1009 N 0.65696 0.13767 0.10709
 N1010 N 0.63818 0.11761 0.09309
 C1011 C 0.68097 0.15925 0.15333
 C1012 C 0.69562 0.15291 0.18108
 H1013 H 0.58140 0.06526 0.10830
 H1014 H 0.68351 0.18150 0.14311
 H1015 H 0.62378 0.07318 0.05108
 H1016 H 0.69554 0.12979 0.18954
 C1017 C 0.91151 0.05411 0.43367
 C1018 C 0.91707 0.06884 0.40618
 C1019 C 0.89259 0.08841 0.39247
 N1020 N 0.89208 0.09311 0.36196
 N1021 N 0.87044 0.11156 0.34960
 C1022 C 0.84884 0.12627 0.36738
 N1023 N 0.84959 0.12181 0.39791
 N1024 N 0.87091 0.10303 0.41021
 C1025 C 0.82629 0.14815 0.35426
 C1026 C 0.81606 0.14598 0.32421
 H1027 H 0.93959 0.06583 0.39446
 H1028 H 0.81757 0.16641 0.36859
 H1029 H 0.88784 0.05474 0.44355
 H1030 H 0.82219 0.12609 0.31087
 C1031 C 0.39930 0.45323 0.56460
 C1032 C 0.40678 0.43902 0.59206
 C1033 C 0.38489 0.41796 0.60742
 N1034 N 0.38894 0.41169 0.63740
 N1035 N 0.37068 0.39117 0.65124
 C1036 C 0.34800 0.37578 0.63547
 N1037 N 0.34406 0.38190 0.60542
 N1038 N 0.36207 0.40272 0.59166
 C1039 C 0.32888 0.35198 0.65027
 C1040 C 0.32404 0.35175 0.68164
 H1041 H 0.42980 0.44304 0.60248
 H1042 H 0.31781 0.33475 0.63618
 H1043 H 0.37533 0.45172 0.55556
 H1044 H 0.33236 0.37071 0.69522
 C1045 C 0.60379 0.94133 0.92826
 C1046 C 0.59709 0.92625 0.90116
 C1047 C 0.61998 0.90534 0.88701
 N1048 N 0.61782 0.89903 0.85686
 N1049 N 0.63719 0.87868 0.84411
 C1050 C 0.65905 0.86352 0.86114
 N1051 N 0.66102 0.86960 0.89137
 N1052 N 0.64193 0.89029 0.90405
 C1053 C 0.67936 0.84004 0.84737
 C1054 C 0.68736 0.84126 0.81668
 H1055 H 0.57407 0.92923 0.89037
 H1056 H 0.68849 0.82188 0.86157
 H1057 H 0.62777 0.94083 0.93744
 H1058 H 0.68096 0.86116 0.80349
 C1059 C 0.09506 0.55502 0.07168
 C1060 C 0.08713 0.57059 0.09834
 C1061 C 0.10818 0.59319 0.11270
 N1062 N 0.10385 0.60060 0.14240
 N1063 N 0.12105 0.62253 0.15530
 C1064 C 0.14287 0.63831 0.13884
 N1065 N 0.14706 0.63108 0.10904
 N1066 N 0.13013 0.60883 0.09622
 C1067 C 0.16103 0.66341 0.15282
 C1068 C 0.16668 0.66417 0.18407
 H1069 H 0.06412 0.56662 0.10883
 H1070 H 0.17105 0.68084 0.13830
 H1071 H 0.11904 0.55656 0.06265
 H1072 H 0.15956 0.64491 0.19784
 C1073 C 0.42399 0.91250 0.06943
 C1074 C 0.39290 0.91850 0.07849
 C1075 C 0.37608 0.89657 0.09778
 N1076 N 0.35137 0.90566 0.11549
 N1077 N 0.33759 0.88620 0.13460
 C1078 C 0.34804 0.85701 0.13660
 N1079 N 0.37232 0.84782 0.11849
 N1080 N 0.38619 0.86729 0.09953
 C1081 C 0.33337 0.83535 0.15763
 C1082 C 0.31161 0.84460 0.17963
 H1083 H 0.38210 0.94038 0.07384
 H1084 H 0.33959 0.81155 0.15542
 H1085 H 0.43532 0.89149 0.07644
 H1086 H 0.30598 0.86851 0.18216
 C1087 C 0.58663 0.44319 0.42077
 C1088 C 0.57753 0.41971 0.40149
 C1089 C 0.60067 0.40298 0.38308
 N1090 N 0.59168 0.37693 0.36913
 N1091 N 0.61258 0.36099 0.35289
 C1092 C 0.64315 0.37063 0.34984
 N1093 N 0.65204 0.39698 0.36336
 N1094 N 0.63116 0.41287 0.37979
 C1095 C 0.66649 0.35237 0.33309
 C1096 C 0.66045 0.32193 0.32705
 H1097 H 0.55279 0.41273 0.40038
 H1098 H 0.68920 0.36238 0.32706
 H1099 H 0.61152 0.44945 0.42265
 H1100 H 0.63849 0.31170 0.33498
 C1101 C 0.91146 0.56162 0.92663
 C1102 C 0.92065 0.58270 0.90463
 C1103 C 0.89797 0.59583 0.88305
 N1104 N 0.90807 0.61748 0.86345
 N1105 N 0.88785 0.63006 0.84387
 C1106 C 0.85683 0.62129 0.84301
 N1107 N 0.84680 0.59923 0.86227
 N1108 N 0.86706 0.58667 0.88197
 C1109 C 0.83406 0.63705 0.82324
 C1110 C 0.84192 0.66524 0.81123
 H1111 H 0.94538 0.58951 0.90250
 H1112 H 0.81010 0.62821 0.82085
 H1113 H 0.88644 0.55573 0.92869
 H1114 H 0.86524 0.67482 0.81570
 C1115 C 0.09817 0.06315 0.57639
 C1116 C 0.08821 0.08738 0.59439
 C1117 C 0.11000 0.10398 0.61422
 N1118 N 0.09994 0.12986 0.62788
 N1119 N 0.11939 0.14535 0.64601
 C1120 C 0.14952 0.13537 0.65128
 N1121 N 0.15950 0.10927 0.63789
 N1122 N 0.14007 0.09383 0.61960
 C1123 C 0.17134 0.15281 0.67043
 C1124 C 0.16450 0.18268 0.67843
 H1125 H 0.06354 0.09471 0.59387
 H1126 H 0.19394 0.14264 0.67673
 H1127 H 0.12306 0.05654 0.57590
 H1128 H 0.14271 0.19333 0.67054
 C1129 C 0.10365 0.44117 0.42810
 C1130 C 0.09689 0.42626 0.40092
 C1131 C 0.11969 0.40537 0.38661
 N1132 N 0.11746 0.39920 0.35645
 N1133 N 0.13674 0.37886 0.34356
 C1134 C 0.15859 0.36356 0.36049
 N1135 N 0.16064 0.36950 0.39073
 N1136 N 0.14165 0.39018 0.40355
 C1137 C 0.17877 0.34005 0.34659
 C1138 C 0.18666 0.34127 0.31587
 H1139 H 0.07387 0.42937 0.39016
 H1140 H 0.18792 0.32185 0.36073
 H1141 H 0.12763 0.44054 0.43726
 H1142 H 0.18027 0.36119 0.30271
 C1143 C 0.41170 0.55450 0.93380
 C1144 C 0.41723 0.56913 0.90625
 C1145 C 0.39274 0.58866 0.89251
 N1146 N 0.39218 0.59326 0.86198
 N1147 N 0.37051 0.61166 0.84959
 C1148 C 0.34893 0.62641 0.86735
 N1149 N 0.34974 0.62207 0.89790
 N1150 N 0.37109 0.60334 0.91023
 C1151 C 0.32635 0.64825 0.85420
 C1152 C 0.31611 0.64604 0.82415
 H1153 H 0.43971 0.56603 0.89449
 H1154 H 0.31763 0.66653 0.86851
 H1155 H 0.38804 0.55520 0.94372
 H1156 H 0.32225 0.62614 0.81083
 C1157 C 0.59473 0.05710 0.57221
 C1158 C 0.58677 0.07270 0.59885
 C1159 C 0.60786 0.09519 0.61334
 N1160 N 0.60348 0.10249 0.64306
 N1161 N 0.62075 0.12430 0.65611
 C1162 C 0.64271 0.14003 0.63978
 N1163 N 0.64696 0.13290 0.60995
 N1164 N 0.62995 0.11078 0.59699
 C1165 C 0.66093 0.16500 0.65390
 C1166 C 0.66643 0.16568 0.68518
 H1167 H 0.56375 0.06874 0.60932
 H1168 H 0.67110 0.18241 0.63946
 H1169 H 0.61872 0.05859 0.56321
 H1170 H 0.65917 0.14644 0.69890
 C1171 C 0.89938 0.95279 0.06446
 C1172 C 0.90700 0.93856 0.09186
 C1173 C 0.88528 0.91736 0.10726
 N1174 N 0.88956 0.91099 0.13719
 N1175 N 0.87149 0.89033 0.15105
 C1176 C 0.84877 0.87493 0.13537
 N1177 N 0.84460 0.88115 0.10536
 N1178 N 0.86242 0.90210 0.09157
 C1179 C 0.82984 0.85101 0.15019
 C1180 C 0.82526 0.85065 0.18160
 H1181 H 0.93005 0.94263 0.10221
 H1182 H 0.81865 0.83385 0.13612
 H1183 H 0.87538 0.95124 0.05548
 H1184 H 0.83369 0.86956 0.19519
 C1185 C 0.89435 0.08067 0.93172
 C1186 C 0.89613 0.09149 0.90199
 C1187 C 0.87157 0.11181 0.88936
 N1188 N 0.86562 0.11196 0.85900
 N1189 N 0.84426 0.13109 0.84723
 C1190 C 0.82840 0.15109 0.86533
 N1191 N 0.83459 0.15116 0.89565
 N1192 N 0.85558 0.13170 0.90750
 C1193 C 0.80660 0.17378 0.85212
 C1194 C 0.79014 0.16819 0.82515
 H1195 H 0.91557 0.08432 0.88739
 H1196 H 0.80394 0.19547 0.86353
 H1197 H 0.87313 0.08516 0.94508
 H1198 H 0.79044 0.14551 0.81554
 C1199 C 0.10324 0.56622 0.56396
 C1200 C 0.10058 0.57464 0.59444
 C1201 C 0.12311 0.59557 0.60915
 N1202 N 0.12738 0.59438 0.63973
 N1203 N 0.14645 0.61417 0.65367
 C1204 C 0.16159 0.63620 0.63760
 N1205 N 0.15711 0.63759 0.60702
 N1206 N 0.13838 0.61749 0.59300
 C1207 C 0.18101 0.65924 0.65328
 C1208 C 0.19561 0.65293 0.68105
 H1209 H 0.08161 0.56513 0.60820
 H1210 H 0.18356 0.68148 0.64304
 H1211 H 0.12402 0.57298 0.55099
 H1212 H 0.19553 0.62981 0.68953
 C1213 C 0.60109 0.92741 0.44016
 C1214 C 0.60040 0.91901 0.40953
 C1215 C 0.62558 0.90001 0.39565
 N1216 N 0.63186 0.90216 0.36539
 N1217 N 0.65346 0.88408 0.35231
 C1218 C 0.66930 0.86285 0.36893
 N1219 N 0.66285 0.86055 0.39914
 N1220 N 0.64162 0.87895 0.41232
 C1221 C 0.69084 0.84074 0.35412
 C1222 C 0.70709 0.84725 0.32714
 H1223 H 0.58135 0.92732 0.39509
 H1224 H 0.69314 0.81841 0.36424
 H1225 H 0.62195 0.92203 0.45367
 H1226 H 0.70726 0.87036 0.31869
 C1227 C 0.40715 0.42475 0.06302
 C1228 C 0.40885 0.41431 0.09289
 C1229 C 0.38452 0.39400 0.10579
 N1230 N 0.37875 0.39415 0.13618
 N1231 N 0.35776 0.37496 0.14830
 C1232 C 0.34208 0.35458 0.13055
 N1233 N 0.34807 0.35422 0.10018
 N1234 N 0.36872 0.37375 0.08797
 C1235 C 0.32074 0.33184 0.14423
 C1236 C 0.30470 0.33763 0.17141
 H1237 H 0.42814 0.42181 0.10747
 H1238 H 0.31827 0.30997 0.13317
 H1239 H 0.38608 0.42001 0.04956
 H1240 H 0.30485 0.36047 0.18066
 C1241 C 0.59855 0.56259 0.07638
 C1242 C 0.58869 0.58683 0.09441
 C1243 C 0.61056 0.60336 0.11420
 N1244 N 0.60060 0.62928 0.12786
 N1245 N 0.62014 0.64473 0.14595
 C1246 C 0.65024 0.63466 0.15117
 N1247 N 0.66012 0.60853 0.13779
 N1248 N 0.64061 0.59314 0.11954
 C1249 C 0.67214 0.65206 0.17028
 C1250 C 0.66541 0.68196 0.17824
 H1251 H 0.56404 0.59423 0.09393
 H1252 H 0.69470 0.64182 0.17658
 H1253 H 0.62342 0.55590 0.07585
 H1254 H 0.64366 0.69268 0.17034
 C1255 C 0.08636 0.94344 0.92016
 C1256 C 0.07726 0.91997 0.90088
 C1257 C 0.10042 0.90321 0.88252
 N1258 N 0.09149 0.87708 0.86871
 N1259 N 0.11243 0.86108 0.85257
 C1260 C 0.14299 0.87076 0.84949
 N1261 N 0.15182 0.89719 0.86288
 N1262 N 0.13089 0.91313 0.87920
 C1263 C 0.16638 0.85245 0.83286
 C1264 C 0.16043 0.82196 0.82700
 H1265 H 0.05252 0.91298 0.89980
 H1266 H 0.18905 0.86249 0.82674
 H1267 H 0.11125 0.94972 0.92203
 H1268 H 0.13850 0.81171 0.83502
 C1269 C 0.40887 0.06072 0.42545
 C1270 C 0.41868 0.07950 0.40182
 C1271 C 0.39616 0.09293 0.38029
 N1272 N 0.40666 0.11391 0.36014
 N1273 N 0.38645 0.12706 0.34091
 C1274 C 0.35508 0.11952 0.34095
 N1275 N 0.34465 0.09805 0.36068
 N1276 N 0.36487 0.08497 0.38007
 C1277 C 0.33242 0.13600 0.32169
 C1278 C 0.34043 0.16451 0.31055
 H1279 H 0.44375 0.08464 0.39888
 H1280 H 0.30839 0.12738 0.31909
 H1281 H 0.38378 0.05583 0.42859
 H1282 H 0.36374 0.17391 0.31546
 C1283 C 0.92390 0.41265 0.56941
 C1284 C 0.89288 0.41875 0.57860
 C1285 C 0.87608 0.39690 0.59799
 N1286 N 0.85156 0.40610 0.61588
 N1287 N 0.83786 0.38672 0.63511
 C1288 C 0.84817 0.35748 0.63705
 N1289 N 0.87225 0.34817 0.61874
 N1290 N 0.88605 0.36757 0.59967
 C1291 C 0.83358 0.33591 0.65821
 C1292 C 0.81208 0.34530 0.68037
 H1293 H 0.88216 0.44069 0.57403
 H1294 H 0.83964 0.31208 0.65596
 H1295 H 0.93517 0.39158 0.57637
 H1296 H 0.80661 0.36924 0.68292
 C1297 C 0.90157 0.56796 0.05364
 C1298 C 0.90379 0.57851 0.08358
 C1299 C 0.88117 0.60046 0.09710
 N1300 N 0.87691 0.60101 0.12774
 N1301 N 0.85825 0.62189 0.14069
 C1302 C 0.84351 0.64342 0.12356
 N1303 N 0.84794 0.64303 0.09290
 N1304 N 0.86625 0.62183 0.07988
 C1305 C 0.82457 0.66782 0.13811
 C1306 C 0.80966 0.66353 0.16621
 H1307 H 0.92265 0.56987 0.09805
 H1308 H 0.82223 0.68941 0.12651
 H1309 H 0.88092 0.57376 0.04002
 H1310 H 0.80943 0.64096 0.17606
 C1311 C 0.59307 0.44175 0.54995
 C1312 C 0.58982 0.43389 0.58058
 C1313 C 0.61162 0.41318 0.59666
 N1314 N 0.61291 0.41388 0.62752
 N1315 N 0.63063 0.39390 0.64280
 C1316 C 0.64739 0.37214 0.62779
 N1317 N 0.64602 0.37133 0.59689
 N1318 N 0.62858 0.39159 0.58157
 C1319 C 0.66527 0.34873 0.64466
 C1320 C 0.67556 0.35339 0.67450
 H1321 H 0.57032 0.44355 0.59360
 H1322 H 0.67075 0.32752 0.63327
 H1323 H 0.61422 0.43515 0.53740
 H1324 H 0.67304 0.37567 0.68474
 C1325 C 0.10652 0.06530 0.44809
 C1326 C 0.10389 0.07431 0.41767
 C1327 C 0.12663 0.09485 0.40242
 N1328 N 0.12911 0.09436 0.37160
 N1329 N 0.14778 0.11410 0.35707
 C1330 C 0.16437 0.13544 0.37278
 N1331 N 0.16178 0.13605 0.40363
 N1332 N 0.14342 0.11602 0.41822
 C1333 C 0.18324 0.15877 0.35665
 C1334 C 0.19522 0.15399 0.32735
 H1335 H 0.08443 0.06544 0.40410
 H1336 H 0.18794 0.18009 0.36813
 H1337 H 0.12762 0.07113 0.46103
 H1338 H 0.19329 0.13162 0.31721
 C1339 C 0.41031 0.92115 0.94459
 C1340 C 0.41892 0.89711 0.92551
 C1341 C 0.39611 0.87823 0.90841
 N1342 N 0.40617 0.85117 0.89724
 N1343 N 0.38671 0.83375 0.88095
 C1344 C 0.35652 0.84284 0.87470
 N1345 N 0.34628 0.87006 0.88572
 N1346 N 0.36576 0.88745 0.90237
 C1347 C 0.33594 0.82235 0.85692
 C1348 C 0.30794 0.83085 0.84181
 H1349 H 0.44387 0.89097 0.92360
 H1350 H 0.34470 0.79933 0.85419
 H1351 H 0.38536 0.92626 0.94839
 H1352 H 0.29979 0.85419 0.84255
 C1353 C 0.10260 0.92976 0.57589
 C1354 C 0.09569 0.91860 0.60490
 C1355 C 0.11778 0.89918 0.62224
 N1356 N 0.11395 0.89594 0.65277
 N1357 N 0.13236 0.87691 0.66855
 C1358 C 0.15506 0.86009 0.65427
 N1359 N 0.15884 0.86327 0.62373
 N1360 N 0.14068 0.88258 0.60801
 C1361 C 0.17388 0.83721 0.67086
 C1362 C 0.17843 0.83806 0.70234
 H1363 H 0.07310 0.92436 0.61542
 H1364 H 0.18497 0.81922 0.65772
 H1365 H 0.12627 0.92691 0.56643
 H1366 H 0.17042 0.85757 0.71532
 C1367 C 0.59084 0.57629 0.42227
 C1368 C 0.58515 0.58894 0.39370
 C1369 C 0.60903 0.60769 0.37801
 N1370 N 0.60731 0.61175 0.34742
 N1371 N 0.62807 0.62969 0.33316
 C1372 C 0.65107 0.64451 0.34906
 N1373 N 0.65264 0.64059 0.37967
 N1374 N 0.63214 0.62236 0.39387
 C1375 C 0.67279 0.66595 0.33405
 C1376 C 0.67959 0.66465 0.30301
 H1377 H 0.56272 0.58459 0.38227
 H1378 H 0.68421 0.68306 0.34804
 H1379 H 0.61436 0.57798 0.43234
 H1380 H 0.67095 0.64581 0.28945
 C1381 C 0.40824 0.05359 0.07496
 C1382 C 0.41439 0.06837 0.10244
 C1383 C 0.39109 0.08865 0.11716
 N1384 N 0.39343 0.09458 0.14741
 N1385 N 0.37375 0.11434 0.16073
 C1386 C 0.35132 0.12928 0.14418
 N1387 N 0.34911 0.12351 0.11389
 N1388 N 0.36851 0.10343 0.10064
 C1389 C 0.33076 0.15247 0.15834
 C1390 C 0.32362 0.15205 0.18934
 H1391 H 0.43720 0.06509 0.11355
 H1392 H 0.32039 0.16986 0.14395
 H1393 H 0.38447 0.05421 0.06535
 H1394 H 0.33112 0.13288 0.20306
 C1395 C 0.90630 0.43511 0.92750
 C1396 C 0.91232 0.41669 0.90213
 C1397 C 0.88636 0.40109 0.88577
 N1398 N 0.88903 0.39516 0.85552
 N1399 N 0.86616 0.38006 0.84080
 C1400 C 0.83996 0.36999 0.85592
 N1401 N 0.83744 0.37573 0.88620
 N1402 N 0.86004 0.39123 0.90080
 C1403 C 0.81612 0.35065 0.84079
 C1404 C 0.80906 0.35259 0.80979
 H1405 H 0.93626 0.41479 0.89302
 H1406 H 0.80364 0.33414 0.85466
 H1407 H 0.88163 0.43926 0.93372
 H1408 H 0.81843 0.37118 0.79637
 C1409 C 0.59104 0.06578 0.92693
 C1410 C 0.57961 0.08591 0.90510
 C1411 C 0.60070 0.10157 0.88372
 N1412 N 0.58907 0.12486 0.86693
 N1413 N 0.60793 0.13990 0.84787
 C1414 C 0.63907 0.13202 0.84469
 N1415 N 0.65062 0.10832 0.86106
 N1416 N 0.63176 0.09338 0.88033
 C1417 C 0.66023 0.14981 0.82501
 C1418 C 0.65204 0.17941 0.81724
 H1419 H 0.55434 0.09097 0.90395
 H1420 H 0.68325 0.14060 0.81863
 H1421 H 0.61640 0.06145 0.92874
 H1422 H 0.63012 0.18915 0.82598
 C1423 C 0.40428 0.58033 0.56433
 C1424 C 0.41270 0.58965 0.59344
 C1425 C 0.39237 0.60973 0.61132
 N1426 N 0.39475 0.60981 0.64208
 N1427 N 0.37703 0.62869 0.65862
 C1428 C 0.35676 0.64845 0.64490
 N1429 N 0.35470 0.64869 0.61411
 N1430 N 0.37211 0.62951 0.59757
 C1431 C 0.33749 0.66934 0.66297
 C1432 C 0.32777 0.66151 0.69211
 H1433 H 0.43480 0.58179 0.60354
 H1434 H 0.32930 0.69032 0.65268
 H1435 H 0.38075 0.58519 0.55538
 H1436 H 0.33268 0.63900 0.70095
 C1437 C 0.09029 0.42356 0.06870
 C1438 C 0.08174 0.41028 0.09623
 C1439 C 0.10246 0.38844 0.11168
 N1440 N 0.10042 0.38496 0.14227
 N1441 N 0.11854 0.36458 0.15650
 C1442 C 0.13889 0.34659 0.14053
 N1443 N 0.14058 0.34972 0.10987
 N1444 N 0.12279 0.37044 0.09568
 C1445 C 0.15883 0.32416 0.15614
 C1446 C 0.16996 0.32974 0.18538
 H1447 H 0.05933 0.41630 0.10694
 H1448 H 0.16658 0.30408 0.14390
 H1449 H 0.11403 0.42016 0.05957
 H1450 H 0.16540 0.35156 0.19600
 C1451 C 0.91713 0.93145 0.42725
 C1452 C 0.92686 0.91259 0.40360
 C1453 C 0.90429 0.89977 0.38177
 N1454 N 0.91397 0.87720 0.36296
 N1455 N 0.89360 0.86458 0.34355
 C1456 C 0.86289 0.87427 0.34206
 N1457 N 0.85332 0.89731 0.36042
 N1458 N 0.87369 0.90982 0.38002
 C1459 C 0.83997 0.85884 0.32224
 C1460 C 0.84585 0.82919 0.31294
 H1461 H 0.95177 0.90644 0.40128
 H1462 H 0.81738 0.86968 0.31717
 H1463 H 0.89210 0.93689 0.43009
 H1464 H 0.86737 0.81776 0.32043
 C1465 C 0.90850 0.55378 0.57506
 C1466 C 0.91474 0.56853 0.60255
 C1467 C 0.89151 0.58881 0.61738
 N1468 N 0.89401 0.59474 0.64762
 N1469 N 0.87442 0.61451 0.66104
 C1470 C 0.85190 0.62945 0.64462
 N1471 N 0.84952 0.62369 0.61433
 N1472 N 0.86884 0.60360 0.60097
 C1473 C 0.83142 0.65266 0.65888
 C1474 C 0.82450 0.65229 0.68993
 H1475 H 0.93758 0.56521 0.61359
 H1476 H 0.82091 0.67000 0.64453
 H1477 H 0.88470 0.55445 0.56550
 H1478 H 0.83215 0.63316 0.70364
 C1479 C 0.60253 0.42929 0.07559
 C1480 C 0.59563 0.41821 0.10464
 C1481 C 0.61774 0.39885 0.12202
 N1482 N 0.61392 0.39570 0.15257
 N1483 N 0.63238 0.37674 0.16840
 C1484 C 0.65510 0.35992 0.15416
 N1485 N 0.65886 0.36302 0.12361
 N1486 N 0.64066 0.38224 0.10784
 C1487 C 0.67395 0.33710 0.17081
 C1488 C 0.67850 0.33802 0.20229
 H1489 H 0.57305 0.42401 0.11516
 H1490 H 0.68506 0.31910 0.15770
 H1491 H 0.62619 0.42641 0.06612
 H1492 H 0.67048 0.35754 0.21523
 C1493 C 0.40404 0.93043 0.43116
 C1494 C 0.40840 0.91982 0.40150
 C1495 C 0.38343 0.90260 0.38534
 N1496 N 0.38335 0.90120 0.35444
 N1497 N 0.36148 0.88481 0.33971
 C1498 C 0.33909 0.86896 0.35540
 N1499 N 0.33931 0.87025 0.38628
 N1500 N 0.36089 0.88692 0.40097
 C1501 C 0.31647 0.84863 0.33984
 C1502 C 0.30757 0.85192 0.30937
 H1503 H 0.43026 0.92512 0.38949
 H1504 H 0.30630 0.83026 0.35307
 H1505 H 0.38094 0.92801 0.44191
 H1506 H 0.31485 0.87185 0.29672
 C1507 C 0.09057 0.07658 0.92235
 C1508 C 0.08479 0.08934 0.89385
 C1509 C 0.10859 0.10819 0.87819
 N1510 N 0.10679 0.11234 0.84761
 N1511 N 0.12748 0.13038 0.83336
 C1512 C 0.15046 0.14520 0.84927
 N1513 N 0.15212 0.14120 0.87985
 N1514 N 0.13170 0.12288 0.89404
 C1515 C 0.17210 0.16673 0.83427
 C1516 C 0.17884 0.16549 0.80321
 H1517 H 0.06234 0.08500 0.88245
 H1518 H 0.18350 0.18385 0.84826
 H1519 H 0.11411 0.07825 0.93238
 H1520 H 0.17023 0.14664 0.78965
 C1521 C 0.09300 0.94123 0.04925
 C1522 C 0.08970 0.93315 0.07982
 C1523 C 0.11141 0.91228 0.09579
 N1524 N 0.11262 0.91278 0.12666
 N1525 N 0.13024 0.89266 0.14185
 C1526 C 0.14697 0.87095 0.12674
 N1527 N 0.14568 0.87034 0.09583
 N1528 N 0.12834 0.89074 0.08060
 C1529 C 0.16480 0.84744 0.14353
 C1530 C 0.17501 0.85199 0.17341
 H1531 H 0.07021 0.94276 0.09288
 H1532 H 0.17033 0.82628 0.13205
 H1533 H 0.11414 0.93470 0.03666
 H1534 H 0.17241 0.87423 0.18371
 C1535 C 0.91018 0.42126 0.44468
 C1536 C 0.91875 0.39713 0.42571
 C1537 C 0.89593 0.37823 0.40864
 N1538 N 0.90595 0.35109 0.39762
 N1539 N 0.88649 0.33366 0.38133
 C1540 C 0.85635 0.34280 0.37494
 N1541 N 0.84616 0.37009 0.38582
 N1542 N 0.86563 0.38750 0.40246
 C1543 C 0.83579 0.32230 0.35716
 C1544 C 0.80787 0.33081 0.34192
 H1545 H 0.94369 0.39092 0.42387
 H1546 H 0.84450 0.29926 0.35453
 H1547 H 0.88523 0.42645 0.44844
 H1548 H 0.79976 0.35418 0.34257
 C1549 C 0.40118 0.06909 0.55416
 C1550 C 0.40340 0.07994 0.58400
 C1551 C 0.38063 0.10179 0.59742
 N1552 N 0.37640 0.10245 0.62806
 N1553 N 0.35761 0.12327 0.64093
 C1554 C 0.34270 0.14462 0.62372
 N1555 N 0.34710 0.14413 0.59306
 N1556 N 0.36554 0.12299 0.58011
 C1557 C 0.32361 0.16896 0.63819
 C1558 C 0.30875 0.16465 0.66631
 H1559 H 0.42235 0.07153 0.59850
 H1560 H 0.32115 0.19051 0.62654
 H1561 H 0.38044 0.07459 0.54054
 H1562 H 0.30864 0.14210 0.67620
 C1563 C 0.60679 0.56518 0.94824
 C1564 C 0.60426 0.57435 0.91787
 C1565 C 0.62714 0.59487 0.90277
 N1566 N 0.62980 0.59444 0.87196
 N1567 N 0.64862 0.61416 0.85758
 C1568 C 0.66518 0.63543 0.87343
 N1569 N 0.66241 0.63598 0.90427
 N1570 N 0.64390 0.61596 0.91870
 C1571 C 0.68419 0.65876 0.85745
 C1572 C 0.69642 0.65399 0.82823
 H1573 H 0.58481 0.56561 0.90421
 H1574 H 0.68877 0.68008 0.86896
 H1575 H 0.62789 0.57088 0.96125
 H1576 H 0.69459 0.63161 0.81810
 C1577 C 0.41682 0.43207 0.92700
 C1578 C 0.42643 0.41350 0.90307
 C1579 C 0.40370 0.40085 0.88128
 N1580 N 0.41328 0.37847 0.86219
 N1581 N 0.39275 0.36594 0.84287
 C1582 C 0.36199 0.37554 0.84174
 N1583 N 0.35254 0.39841 0.86037
 N1584 N 0.37305 0.41082 0.87988
 C1585 C 0.33892 0.36012 0.82207
 C1586 C 0.34474 0.33047 0.81277
 H1587 H 0.45133 0.40743 0.90052
 H1588 H 0.31629 0.37095 0.81716
 H1589 H 0.39180 0.43745 0.93004
 H1590 H 0.36633 0.31906 0.82014
 C1591 C 0.90430 0.07997 0.06468
 C1592 C 0.91278 0.08934 0.09376
 C1593 C 0.89249 0.10948 0.11162
 N1594 N 0.89487 0.10961 0.14237
 N1595 N 0.87718 0.12855 0.15888
 C1596 C 0.85694 0.14832 0.14512
 N1597 N 0.85488 0.14851 0.11433
 N1598 N 0.87227 0.12927 0.09783
 C1599 C 0.83768 0.16925 0.16316
 C1600 C 0.82787 0.16145 0.19227
 H1601 H 0.93489 0.08149 0.10385
 H1602 H 0.82955 0.19024 0.15284
 H1603 H 0.88076 0.08483 0.05576
 H1604 H 0.83273 0.13893 0.20112
 C1605 C 0.59052 0.92549 0.57205
 C1606 C 0.58195 0.91186 0.59940
 C1607 C 0.60255 0.88962 0.61443
 N1608 N 0.60040 0.88549 0.64493
 N1609 N 0.61838 0.86473 0.65875
 C1610 C 0.63867 0.84698 0.64245
 N1611 N 0.64046 0.85076 0.61187
 N1612 N 0.62280 0.87185 0.59810
 C1613 C 0.65862 0.82430 0.65767
 C1614 C 0.66996 0.82962 0.68688
 H1615 H 0.55951 0.91769 0.61016
 H1616 H 0.66635 0.80439 0.64515
 H1617 H 0.61427 0.92217 0.56289
 H1618 H 0.66541 0.85133 0.69772
 C1619 C 0.09123 0.56533 0.42667
 C1620 C 0.07980 0.58501 0.40443
 C1621 C 0.10091 0.60043 0.38290
 N1622 N 0.08917 0.62327 0.36557
 N1623 N 0.10805 0.63813 0.34638
 C1624 C 0.13930 0.63052 0.34361
 N1625 N 0.15096 0.60726 0.36052
 N1626 N 0.13209 0.59249 0.37991
 C1627 C 0.16046 0.64826 0.32387
 C1628 C 0.15206 0.67772 0.31578
 H1629 H 0.05451 0.58987 0.40304
 H1630 H 0.18364 0.63921 0.31781
 H1631 H 0.11661 0.56113 0.42866
 H1632 H 0.12998 0.68734 0.32428
   
