data_POSCAR
  _audit_creation_date              2014-09-24
  _audit_creation_method            'ToBaCCo'
  _symmetry_space_group_name_H-M    'P1'
  _symmetry_Int_Tables_number       1
  _symmetry_cell_setting            triclinic
  loop_
  _symmetry_equiv_pos_as_xyz
 x,y,z
_cell_length_a 56.9314
_cell_length_b 56.9558
_cell_length_c 57.0293
_cell_angle_alpha 90.038100
_cell_angle_beta 89.896600
_cell_angle_gamma 90.083700
loop_
  _atom_site_label
  _atom_site_type_symbol
  _atom_site_fract_x
  _atom_site_fract_y
  _atom_site_fract_z
C1 C 0.27554 0.99125 0.07060
 C2 C 0.27647 1.01529 0.07047
 C3 C 0.26723 1.02246 0.04915
 N4 N 0.26125 1.00362 0.03604
 C5 C 0.26628 0.98457 0.04917
 C6 C 0.26315 1.04596 0.04235
 C7 C 0.25777 1.05163 0.01882
 C8 C 0.24524 1.07129 0.01188
 C9 C 0.24475 1.07103 -0.01212
 C10 C 0.25706 1.05124 -0.01926
 N11 N 0.26459 1.03922 -0.00026
 C12 C 0.26179 1.04534 -0.04293
 C13 C 0.26642 1.02190 -0.04978
 C14 C 0.27497 1.01492 -0.07148
 C15 C 0.27545 0.99086 -0.07130
 C16 C 0.26765 0.98392 -0.04933
 N17 N 0.26207 1.00291 -0.03623
 C18 C 0.26398 0.96043 -0.04234
 C19 C 0.25882 0.95394 -0.01899
 C20 C 0.25038 0.93217 -0.01201
 C21 C 0.24931 0.93251 0.01211
 C22 C 0.25744 0.95435 0.01919
 N23 N 0.26322 0.96727 0.00013
 C24 C 0.26102 0.96128 0.04271
 H25 H 0.28115 0.97996 0.08478
 H26 H 0.28310 1.02620 0.08453
 H27 H 0.27215 0.98321 0.00024
 H28 H 0.23711 1.08439 0.02300
 H29 H 0.23619 1.08393 -0.02309
 H30 H 0.28027 1.02596 -0.08598
 H31 H 0.28083 0.97980 -0.08576
 H32 H 0.24366 0.91813 0.02316
 H33 H 0.27586 1.02481 -0.00033
 H34 H 0.24571 0.91745 -0.02307
 C35 C 0.77001 0.49300 0.57165
 C36 C 0.77092 0.51705 0.57103
 C37 C 0.76451 0.52360 0.54855
 N38 N 0.75975 0.50442 0.53542
 C39 C 0.76316 0.48569 0.54949
 C40 C 0.76154 0.54696 0.54093
 C41 C 0.75729 0.55299 0.51733
 C42 C 0.74876 0.57453 0.50992
 C43 C 0.74842 0.57391 0.48586
 C44 C 0.75679 0.55202 0.47923
 N45 N 0.76220 0.53938 0.49853
 C46 C 0.76051 0.54489 0.45579
 C47 C 0.76390 0.52128 0.44908
 C48 C 0.76956 0.51390 0.42662
 C49 C 0.76975 0.48983 0.42714
 C50 C 0.76433 0.48328 0.44995
 N51 N 0.76057 0.50255 0.46326
 C52 C 0.76116 0.45988 0.45764
 C53 C 0.75694 0.45363 0.48131
 C54 C 0.74911 0.43180 0.48877
 C55 C 0.74823 0.43252 0.51287
 C56 C 0.75582 0.45468 0.51956
 N57 N 0.76124 0.46736 0.50021
 C58 C 0.75874 0.46214 0.54308
 H59 H 0.77387 0.48214 0.58673
 H60 H 0.77556 0.52839 0.58554
 H61 H 0.76977 0.48348 0.49999
 H62 H 0.74342 0.58922 0.52073
 H63 H 0.74278 0.58805 0.47453
 H64 H 0.77292 0.52472 0.41138
 H65 H 0.77314 0.47850 0.41229
 H66 H 0.74285 0.41823 0.52418
 H67 H 0.77130 0.52358 0.49881
 H68 H 0.74457 0.41681 0.47802
 C69 C 0.74918 0.92992 0.98809
 C70 C 0.74959 0.92971 1.01213
 C71 C 0.75443 0.95252 1.01935
 N72 N 0.75731 0.96646 1.00032
 C73 C 0.75388 0.95277 0.98123
 C74 C 0.75870 0.95955 1.04292
 C75 C 0.76340 0.98329 1.04934
 C76 C 0.77087 0.99084 1.07133
 C77 C 0.77102 1.01494 1.07100
 C78 C 0.76323 1.02167 1.04905
 N79 N 0.75861 1.00237 1.03599
 C80 C 0.75855 1.04508 1.04238
 C81 C 0.75380 1.05179 1.01908
 C82 C 0.74438 1.07324 1.01264
 C83 C 0.74372 1.07343 0.98867
 C84 C 0.75311 1.05222 0.98120
 N85 N 0.75911 1.03891 0.99987
 C86 C 0.75682 1.04583 0.95745
 C87 C 0.76045 1.02206 0.95071
 C88 C 0.76948 1.01484 0.92927
 C89 C 0.76937 0.99073 0.92933
 C90 C 0.76082 0.98372 0.95101
 N91 N 0.75530 1.00292 0.96391
 C92 C 0.75716 0.96005 0.95774
 H93 H 0.74645 0.91477 0.97695
 H94 H 0.74742 0.91425 1.02291
 H95 H 0.74631 1.00291 0.97980
 H96 H 0.77506 0.98037 1.08653
 H97 H 0.77559 1.02621 1.08559
 H98 H 0.73844 1.08722 1.02405
 H99 H 0.73696 1.08757 0.97797
 H100 H 0.77510 0.97970 0.91498
 H101 H 0.74978 1.00238 1.02009
 H102 H 0.77562 1.02576 0.91500
 C103 C 0.24221 0.42997 0.48861
 C104 C 0.24081 0.43037 0.51265
 C105 C 0.24653 0.45299 0.51959
 N106 N 0.25128 0.46639 0.50058
 C107 C 0.24842 0.45244 0.48158
 C108 C 0.24859 0.46055 0.54316
 C109 C 0.25314 0.48413 0.54955
 C110 C 0.26107 0.49124 0.57142
 C111 C 0.26198 0.51536 0.57109
 C112 C 0.25453 0.52235 0.54905
 N113 N 0.24914 0.50321 0.53603
 C114 C 0.25163 0.54597 0.54203
 C115 C 0.24850 0.55275 0.51845
 C116 C 0.24229 0.57510 0.51117
 C117 C 0.24267 0.57479 0.48715
 C118 C 0.24912 0.55226 0.48056
 N119 N 0.25273 0.53883 0.49972
 C120 C 0.25301 0.54495 0.45721
 C121 C 0.25648 0.52124 0.45064
 C122 C 0.26417 0.51396 0.42875
 C123 C 0.26411 0.48981 0.42899
 C124 C 0.25651 0.48291 0.45109
 N125 N 0.25167 0.50222 0.46407
 C126 C 0.25276 0.45930 0.45810
 H127 H 0.23910 0.41479 0.47761
 H128 H 0.23634 0.41560 0.52372
 H129 H 0.24316 0.50243 0.48017
 H130 H 0.26567 0.48020 0.58615
 H131 H 0.26737 0.52647 0.58552
 H132 H 0.23801 0.59010 0.52203
 H133 H 0.23877 0.58953 0.47584
 H134 H 0.26887 0.47868 0.41436
 H135 H 0.24061 0.50322 0.51994
 H136 H 0.26911 0.52490 0.41403
 C137 C 0.98819 0.26278 0.07520
 C138 C 1.01223 0.26300 0.07478
 C139 C 1.01901 0.25405 0.05314
 N140 N 0.99988 0.24880 0.04017
 C141 C 0.98108 0.25404 0.05371
 C142 C 1.04251 0.24971 0.04613
 C143 C 1.04866 0.24679 0.02209
 C144 C 1.06981 0.23783 0.01399
 C145 C 1.06935 0.23922 -0.01006
 C146 C 1.04762 0.24836 -0.01627
 N147 N 1.03519 0.25301 0.00351
 C148 C 1.04067 0.25467 -0.03938
 C149 C 1.01686 0.25928 -0.04530
 C150 C 1.00912 0.26809 -0.06663
 C151 C 0.98508 0.26766 -0.06604
 C152 C 0.97868 0.25789 -0.04471
 N153 N 0.99814 0.25292 -0.03200
 C154 C 0.95524 0.25293 -0.03756
 C155 C 0.94981 0.24696 -0.01400
 C156 C 0.92952 0.23543 -0.00674
 C157 C 0.93014 0.23451 0.01732
 C158 C 0.95093 0.24514 0.02408
 N159 N 0.96293 0.25254 0.00495
 C160 C 0.95765 0.24926 0.04749
 H161 H 0.97719 0.26839 0.08964
 H162 H 1.02345 0.26904 0.08885
 H163 H 0.97785 0.26315 0.00502
 H164 H 1.08428 0.23116 0.02428
 H165 H 1.08372 0.23435 -0.02146
 H166 H 1.01950 0.27395 -0.08139
 H167 H 0.97369 0.27375 -0.07992
 H168 H 0.91681 0.22692 0.02855
 H169 H 1.01952 0.26236 0.00434
 H170 H 0.91562 0.22846 -0.01764
 C171 C 0.48913 0.75509 0.57491
 C172 C 0.51319 0.75556 0.57424
 C173 C 0.51967 0.75015 0.55143
 N174 N 0.50040 0.74632 0.53816
 C175 C 0.48171 0.74938 0.55248
 C176 C 0.54308 0.74742 0.54365
 C177 C 0.54943 0.74565 0.51969
 C178 C 0.57152 0.73936 0.51160
 C179 C 0.57089 0.74096 0.48752
 C180 C 0.54837 0.74801 0.48151
 N181 N 0.53550 0.75105 0.50125
 C182 C 0.54076 0.75285 0.45836
 C183 C 0.51692 0.75593 0.45210
 C184 C 0.50916 0.76267 0.43007
 C185 C 0.48508 0.76222 0.43079
 C186 C 0.47886 0.75497 0.45315
 N187 N 0.49835 0.75103 0.46610
 C188 C 0.45556 0.75083 0.46080
 C189 C 0.44966 0.74544 0.48431
 C190 C 0.42823 0.73629 0.49148
 C191 C 0.42894 0.73479 0.51553
 C192 C 0.45078 0.74306 0.52241
 N193 N 0.46328 0.74958 0.50328
 C194 C 0.45808 0.74562 0.54596
 H195 H 0.47836 0.75848 0.59019
 H196 H 0.52460 0.75937 0.58892
 H197 H 0.47903 0.75882 0.50337
 H198 H 0.58662 0.73437 0.52195
 H199 H 0.58549 0.73751 0.47585
 H200 H 0.51969 0.76725 0.41493
 H201 H 0.47351 0.76652 0.41639
 H202 H 0.41490 0.72845 0.52669
 H203 H 0.51905 0.75882 0.50221
 H204 H 0.41353 0.73129 0.48054
 C205 C -0.01697 0.76557 -0.06725
 C206 C 0.00704 0.76571 -0.06889
 C207 C 0.01558 0.75675 -0.04793
 N208 N -0.00260 0.75054 -0.03389
 C209 C -0.02251 0.75578 -0.04569
 C210 C 0.03956 0.75215 -0.04285
 C211 C 0.04744 0.74586 -0.02004
 C212 C 0.07015 0.73885 -0.01442
 C213 C 0.07146 0.73770 0.00958
 C214 C 0.04965 0.74418 0.01816
 N215 N 0.03515 0.74915 0.00005
 C216 C 0.04445 0.74788 0.04213
 C217 C 0.02148 0.75150 0.05067
 C218 C 0.01597 0.75900 0.07312
 C219 C -0.00805 0.75908 0.07465
 C220 C -0.01642 0.75097 0.05329
 N221 N 0.00169 0.74651 0.03861
 C222 C -0.04028 0.74692 0.04765
 C223 C -0.04736 0.74274 0.02421
 C224 C -0.06750 0.73057 0.01786
 C225 C -0.06895 0.73163 -0.00609
 C226 C -0.04968 0.74447 -0.01380
 N227 N -0.03630 0.75080 0.00476
 C228 C -0.04551 0.75079 -0.03748
 H229 H -0.02892 0.77180 -0.08059
 H230 H 0.01686 0.77153 -0.08405
 H231 H -0.02196 0.76220 0.00440
 H232 H 0.08480 0.73593 -0.02613
 H233 H 0.08707 0.73355 0.01953
 H234 H 0.02795 0.76402 0.08696
 H235 H -0.01812 0.76453 0.08981
 H236 H -0.08265 0.72380 -0.01666
 H237 H 0.01896 0.75740 0.00146
 H238 H -0.07986 0.72179 0.02933
 C239 C 0.48389 0.26115 0.43340
 C240 C 0.50798 0.26159 0.43248
 C241 C 0.51590 0.25494 0.45449
 N242 N 0.49746 0.25011 0.46864
 C243 C 0.47790 0.25401 0.45585
 C244 C 0.53972 0.25184 0.46068
 C245 C 0.54740 0.24713 0.48381
 C246 C 0.56996 0.24014 0.48978
 C247 C 0.57070 0.23878 0.51383
 C248 C 0.54866 0.24515 0.52196
 N249 N 0.53462 0.25036 0.50357
 C250 C 0.54249 0.24730 0.54589
 C251 C 0.51916 0.24978 0.55386
 C252 C 0.51274 0.25529 0.57668
 C253 C 0.48868 0.25452 0.57747
 C254 C 0.48127 0.24854 0.55512
 N255 N 0.49990 0.24557 0.54075
 C256 C 0.45774 0.24455 0.54860
 C257 C 0.45061 0.24143 0.52514
 C258 C 0.42897 0.23254 0.51836
 C259 C 0.42810 0.23411 0.49436
 C260 C 0.44925 0.24388 0.48716
 N261 N 0.46288 0.24829 0.50602
 C262 C 0.45476 0.24982 0.46377
 H263 H 0.47217 0.26529 0.41908
 H264 H 0.51842 0.26606 0.41725
 H265 H 0.47827 0.25814 0.50607
 H266 H 0.58453 0.23662 0.47810
 H267 H 0.58587 0.23392 0.52416
 H268 H 0.52418 0.25937 0.59126
 H269 H 0.47791 0.25788 0.59276
 H270 H 0.41347 0.22884 0.48346
 H271 H 0.51821 0.25822 0.50457
 H272 H 0.41513 0.22586 0.52956
 C273 C 0.98182 0.06783 0.25722
 C274 C 1.00584 0.06853 0.25813
 C275 C 1.01387 0.04792 0.24787
 N276 N 0.99551 0.03451 0.24106
 C277 C 0.97593 0.04670 0.24675
 C278 C 1.03781 0.04212 0.24420
 C279 C 1.04495 0.01863 0.23965
 C280 C 1.06641 0.01213 0.23004
 C281 C 1.06679 -0.01199 0.22934
 C282 C 1.04545 -0.01966 0.23821
 N283 N 1.03220 -0.00092 0.24445
 C284 C 1.03923 -0.04353 0.24125
 C285 C 1.01579 -0.05117 0.24427
 C286 C 1.00914 -0.07391 0.24982
 C287 C 0.98509 -0.07460 0.24867
 C288 C 0.97772 -0.05213 0.24276
 N289 N 0.99661 -0.03796 0.23988
 C290 C 0.95424 -0.04558 0.23755
 C291 C 0.94768 -0.02193 0.23304
 C292 C 0.92587 -0.01460 0.22482
 C293 C 0.92562 0.00947 0.22587
 C294 C 0.94705 0.01632 0.23503
 N295 N 0.96040 -0.00281 0.23927
 C296 C 0.95282 0.03952 0.24157
 H297 H 0.97003 0.08125 0.26369
 H298 H 1.01620 0.08257 0.26566
 H299 H 0.97580 -0.00284 0.24900
 H300 H 1.08035 0.02356 0.22398
 H301 H 1.08111 -0.02266 0.22284
 H302 H 1.02045 -0.08865 0.25375
 H303 H 0.97445 -0.09012 0.25123
 H304 H 0.91095 0.02060 0.22124
 H305 H 1.01638 -0.00152 0.25361
 H306 H 0.91110 -0.02524 0.21949
 C307 C 0.48270 0.56966 0.75708
 C308 C 0.50669 0.57093 0.75506
 C309 C 0.51423 0.54874 0.74850
 N310 N 0.49577 0.53397 0.74685
 C311 C 0.47645 0.54668 0.75197
 C312 C 0.53740 0.54282 0.74215
 C313 C 0.54401 0.51985 0.73557
 C314 C 0.56297 0.51474 0.72125
 C315 C 0.56407 0.49072 0.71959
 C316 C 0.54654 0.48174 0.73395
 N317 N 0.53368 0.49966 0.74288
 C318 C 0.54249 0.45752 0.73818
 C319 C 0.51922 0.44894 0.73518
 C320 C 0.51310 0.42740 0.72555
 C321 C 0.48902 0.42643 0.72518
 C322 C 0.48109 0.44770 0.73383
 N323 N 0.49955 0.46155 0.73956
 C324 C 0.45712 0.45354 0.73695
 C325 C 0.44894 0.47623 0.74307
 C326 C 0.42584 0.48138 0.74891
 C327 C 0.42468 0.50513 0.75270
 C328 C 0.44716 0.51397 0.74938
 N329 N 0.46181 0.49622 0.74329
 C330 C 0.45321 0.53799 0.75193
 H331 H 0.47118 0.58401 0.76183
 H332 H 0.51725 0.58651 0.75768
 H333 H 0.47909 0.49776 0.73779
 H334 H 0.57443 0.52709 0.71243
 H335 H 0.57625 0.48095 0.70876
 H336 H 0.52465 0.41417 0.71833
 H337 H 0.47854 0.41197 0.71865
 H338 H 0.40900 0.51471 0.75752
 H339 H 0.52019 0.49814 0.75520
 H340 H 0.41120 0.46932 0.75027
 C341 C 0.92597 0.98548 0.72716
 C342 C 0.92618 1.00954 0.72623
 C343 C 0.94855 1.01654 0.73278
 N344 N 0.96193 0.99767 0.73775
 C345 C 0.94824 0.97866 0.73420
 C346 C 0.95558 1.03992 0.73663
 C347 C 0.97881 1.04620 0.74258
 C348 C 0.98530 1.06749 0.75240
 C349 C 1.00933 1.06737 0.75399
 C350 C 1.01697 1.04625 0.74447
 N351 N 0.99820 1.03327 0.73790
 C352 C 1.04080 1.04016 0.74054
 C353 C 1.04773 1.01639 0.73775
 C354 C 1.06894 1.00900 0.72835
 C355 C 1.06879 0.98495 0.72904
 C356 C 1.04748 0.97831 0.73886
 N357 N 1.03451 0.99757 0.74399
 C358 C 1.04034 0.95478 0.74310
 C359 C 1.01641 0.94895 0.74721
 C360 C 1.00858 0.92843 0.75782
 C361 C 0.98450 0.92848 0.75648
 C362 C 0.97818 0.94928 0.74562
 N363 N 0.99773 0.96172 0.74008
 C364 C 0.95492 0.95553 0.73973
 H365 H 0.91093 0.97437 0.72374
 H366 H 0.91133 1.02058 0.72199
 H367 H 0.99847 0.97667 0.72962
 H368 H 0.97400 1.08177 0.75777
 H369 H 1.01999 1.08145 0.76100
 H370 H 1.08288 1.01977 0.72118
 H371 H 1.08260 0.97365 0.72252
 H372 H 0.97303 0.91468 0.76275
 H373 H 0.99882 1.01782 0.72814
 H374 H 1.01912 0.91466 0.76552
 C375 C 0.42333 0.48236 0.24727
 C376 C 0.42195 0.50631 0.24643
 C377 C 0.44484 0.51464 0.24612
 N378 N 0.46011 0.49652 0.24650
 C379 C 0.44704 0.47674 0.24714
 C380 C 0.45107 0.53865 0.24619
 C381 C 0.47442 0.54724 0.24641
 C382 C 0.48028 0.57054 0.25042
 C383 C 0.50431 0.57194 0.24987
 C384 C 0.51264 0.54946 0.24552
 N385 N 0.49426 0.53455 0.24307
 C386 C 0.53681 0.54364 0.24427
 C387 C 0.54577 0.52047 0.24418
 C388 C 0.56946 0.51487 0.24413
 C389 C 0.57087 0.49087 0.24515
 C390 C 0.54799 0.48248 0.24545
 N391 N 0.53273 0.50063 0.24494
 C392 C 0.54175 0.45839 0.24562
 C393 C 0.51834 0.44980 0.24533
 C394 C 0.51240 0.42645 0.24157
 C395 C 0.48833 0.42510 0.24200
 C396 C 0.48007 0.44764 0.24595
 N397 N 0.49849 0.46255 0.24834
 C398 C 0.45593 0.45358 0.24692
 H399 H 0.40849 0.47047 0.24773
 H400 H 0.40586 0.51640 0.24619
 H401 H 0.49760 0.47999 0.25341
 H402 H 0.46849 0.58504 0.25386
 H403 H 0.51449 0.58773 0.25283
 H404 H 0.58427 0.52680 0.24363
 H405 H 0.58697 0.48082 0.24553
 H406 H 0.47809 0.40931 0.23926
 H407 H 0.49517 0.51719 0.23771
 H408 H 0.52416 0.41187 0.23840
 O409 O 0.25092 0.18574 0.22292
 O410 O 0.27485 0.17886 0.25651
 O411 O 0.18813 0.21363 0.25397
 O412 O 0.17854 0.24435 0.27659
 O413 O 0.21909 0.24707 0.19303
 O414 O 0.25165 0.27209 0.18712
 O415 O 0.24761 0.27910 0.31554
 O416 O 0.22099 0.24823 0.32182
 O417 O 0.30867 0.24677 0.28860
 O418 O 0.31677 0.22045 0.25521
 O419 O 0.28187 0.30690 0.25813
 O420 O 0.25066 0.31199 0.22703
 O421 O 0.24908 0.30750 0.28752
 O422 O 0.22301 0.31433 0.25457
 O423 O 0.30976 0.27844 0.25842
 O424 O 0.31738 0.24583 0.23064
 O425 O 0.28015 0.24789 0.31645
 O426 O 0.24719 0.22029 0.32269
 O427 O 0.25171 0.21374 0.19453
 O428 O 0.27806 0.24685 0.18897
 O429 O 0.18957 0.24665 0.21988
 O430 O 0.18287 0.27391 0.25278
 O431 O 0.21662 0.18573 0.25447
 O432 O 0.24797 0.17924 0.28145
 Zr433 Zr 0.24822 0.20461 0.25440
 O434 O 0.26961 0.22459 0.27676
 Zr435 Zr 0.20695 0.24560 0.25267
 O436 O 0.22654 0.26733 0.27548
 Zr437 Zr 0.24983 0.24568 0.21309
 O438 O 0.27092 0.26782 0.23384
 Zr439 Zr 0.24859 0.24717 0.29697
 O440 O 0.22672 0.22515 0.27637
 Zr441 Zr 0.29082 0.24701 0.25666
 O442 O 0.27166 0.22476 0.23414
 Zr443 Zr 0.24974 0.28845 0.25585
 O444 O 0.22833 0.26839 0.23286
 O445 O 0.22723 0.22384 0.23167
 O446 O 0.27107 0.26902 0.27821
 C447 C 0.25221 0.19223 0.20139
 C448 C 0.19499 0.19209 0.25455
 C449 C 0.19724 0.24745 0.19862
 C450 C 0.24805 0.30072 0.30902
 C451 C 0.30183 0.24736 0.31001
 C452 C 0.30335 0.30000 0.25898
 H453 H 0.27910 0.21391 0.28655
 H454 H 0.28078 0.27782 0.22361
 H455 H 0.21756 0.21373 0.22135
 H456 H 0.21567 0.27679 0.28515
 H457 H 0.20873 0.23727 0.31618
 H458 H 0.18340 0.25304 0.29079
 H459 H 0.31483 0.25909 0.21975
 H460 H 0.28985 0.23538 0.19453
 H461 H 0.26022 0.20922 0.31976
 H462 H 0.23690 0.18501 0.29355
 H463 H 0.25671 0.32739 0.23250
 H464 H 0.24164 0.28515 0.19268
 H465 H 0.28780 0.18423 0.24621
 H466 H 0.31335 0.20900 0.26779
 H467 H 0.18816 0.28508 0.24056
 H468 H 0.21089 0.31025 0.26632
 O469 O 0.74532 0.81127 0.21495
 O470 O 0.72062 0.81809 0.24860
 O471 O 0.80656 0.78085 0.24720
 O472 O 0.81566 0.74953 0.26806
 O473 O 0.77529 0.74946 0.18485
 O474 O 0.74152 0.72472 0.17913
 O475 O 0.74565 0.71617 0.30659
 O476 O 0.77404 0.74694 0.31268
 O477 O 0.68546 0.75029 0.28166
 O478 O 0.67750 0.77716 0.24882
 O479 O 0.71151 0.69023 0.25005
 O480 O 0.74112 0.68505 0.21771
 O481 O 0.74415 0.68852 0.27784
 O482 O 0.76995 0.68200 0.24422
 O483 O 0.68365 0.71870 0.25001
 O484 O 0.67656 0.75275 0.22325
 O485 O 0.71470 0.74768 0.30860
 O486 O 0.74710 0.77442 0.31555
 O487 O 0.74287 0.78323 0.18664
 O488 O 0.71642 0.75122 0.18045
 O489 O 0.80443 0.74936 0.21204
 O490 O 0.81033 0.72084 0.24397
 O491 O 0.77929 0.80998 0.24702
 O492 O 0.74754 0.81715 0.27379
 Zr493 Zr 0.74690 0.79198 0.24654
 O494 O 0.72519 0.77202 0.26900
 Zr495 Zr 0.78698 0.74976 0.24454
 O496 O 0.76718 0.72812 0.26697
 Zr497 Zr 0.74427 0.75126 0.20493
 O498 O 0.72255 0.72952 0.22556
 Zr499 Zr 0.74576 0.74861 0.28874
 O500 O 0.76779 0.77062 0.26834
 Zr501 Zr 0.70309 0.75023 0.24910
 O502 O 0.72283 0.77228 0.22651
 Zr503 Zr 0.74357 0.70815 0.24683
 O504 O 0.76537 0.72788 0.22414
 O505 O 0.76741 0.77232 0.22372
 O506 O 0.72275 0.72754 0.26982
 C507 C 0.74348 0.80475 0.19339
 C508 C 0.80063 0.80259 0.24775
 C509 C 0.79708 0.74890 0.19075
 C510 C 0.74483 0.69471 0.29948
 C511 C 0.69292 0.74866 0.30287
 C512 C 0.69007 0.69709 0.25079
 H513 H 0.71601 0.78270 0.27911
 H514 H 0.71240 0.71988 0.21529
 H515 H 0.77737 0.78237 0.21360
 H516 H 0.77786 0.71821 0.27636
 H517 H 0.78574 0.75877 0.30754
 H518 H 0.81047 0.74123 0.28239
 H519 H 0.67864 0.73954 0.21217
 H520 H 0.70430 0.76197 0.18674
 H521 H 0.73545 0.78673 0.31189
 H522 H 0.75816 0.81087 0.28598
 H523 H 0.73543 0.66954 0.22326
 H524 H 0.75230 0.71198 0.18391
 H525 H 0.70776 0.81296 0.23811
 H526 H 0.68196 0.78884 0.26086
 H527 H 0.80521 0.71037 0.23109
 H528 H 0.78181 0.68501 0.25650
 O529 O 0.75533 0.19042 0.77941
 O530 O 0.73080 0.18323 0.74650
 O531 O 0.81627 0.22171 0.74824
 O532 O 0.82398 0.25272 0.72520
 O533 O 0.78573 0.25211 0.80992
 O534 O 0.75206 0.27646 0.81656
 O535 O 0.75385 0.28502 0.68854
 O536 O 0.78188 0.25536 0.68178
 O537 O 0.69426 0.25121 0.71483
 O538 O 0.68759 0.22306 0.74801
 O539 O 0.71915 0.31108 0.74672
 O540 O 0.75053 0.31671 0.77761
 O541 O 0.75201 0.31324 0.71671
 O542 O 0.77757 0.32085 0.74975
 O543 O 0.69220 0.28170 0.74727
 O544 O 0.68584 0.24793 0.77300
 O545 O 0.72307 0.25338 0.68732
 O546 O 0.75612 0.22680 0.68025
 O547 O 0.75358 0.21781 0.80838
 O548 O 0.72668 0.24994 0.81522
 O549 O 0.81425 0.25372 0.78206
 O550 O 0.81946 0.28176 0.75027
 O551 O 0.78900 0.19250 0.74686
 O552 O 0.75687 0.18503 0.72079
 Zr553 Zr 0.75654 0.20996 0.74827
 O554 O 0.73416 0.22947 0.72650
 Zr555 Zr 0.79625 0.25266 0.74997
 O556 O 0.77570 0.27401 0.72798
 Zr557 Zr 0.75430 0.25026 0.79039
 O558 O 0.73197 0.27181 0.77017
 Zr559 Zr 0.75434 0.25305 0.70662
 O560 O 0.77708 0.23154 0.72640
 Zr561 Zr 0.71232 0.25085 0.74705
 O562 O 0.73272 0.22908 0.76911
 Zr563 Zr 0.75195 0.29381 0.74826
 O564 O 0.77446 0.27422 0.77059
 O565 O 0.77723 0.22967 0.77094
 O566 O 0.73116 0.27388 0.72577
 C567 C 0.75395 0.19639 0.80109
 C568 C 0.81032 0.19995 0.74698
 C569 C 0.80739 0.25348 0.80352
 C570 C 0.75297 0.30656 0.69513
 C571 C 0.70139 0.25251 0.69346
 C572 C 0.69785 0.30352 0.74686
 H573 H 0.72495 0.21868 0.71655
 H574 H 0.72189 0.28120 0.78076
 H575 H 0.78740 0.21974 0.78088
 H576 H 0.78610 0.28405 0.71838
 H577 H 0.79426 0.24432 0.68692
 H578 H 0.81896 0.26240 0.71174
 H579 H 0.68895 0.26000 0.78508
 H580 H 0.71497 0.23844 0.80949
 H581 H 0.74350 0.21520 0.68311
 H582 H 0.76753 0.19130 0.70857
 H583 H 0.74375 0.33194 0.77260
 H584 H 0.76218 0.28959 0.81129
 H585 H 0.71763 0.18836 0.75662
 H586 H 0.69074 0.21261 0.73450
 H587 H 0.81380 0.29264 0.76259
 H588 H 0.78996 0.31724 0.73813
 O589 O 0.25296 0.81031 0.78674
 O590 O 0.27812 0.81620 0.75298
 O591 O 0.19007 0.78376 0.75461
 O592 O 0.18023 0.75328 0.73168
 O593 O 0.21927 0.74910 0.81581
 O594 O 0.25251 0.72341 0.82145
 O595 O 0.24837 0.71627 0.69405
 O596 O 0.22080 0.74808 0.68852
 O597 O 0.30952 0.74767 0.71934
 O598 O 0.31792 0.77479 0.75317
 O599 O 0.28151 0.68849 0.75163
 O600 O 0.24992 0.68477 0.78310
 O601 O 0.24837 0.68832 0.72251
 O602 O 0.22303 0.68176 0.75512
 O603 O 0.31013 0.71628 0.75083
 O604 O 0.31923 0.74871 0.77707
 O605 O 0.28027 0.74758 0.69233
 O606 O 0.24908 0.77423 0.68534
 O607 O 0.25215 0.78201 0.81485
 O608 O 0.27817 0.74958 0.82074
 O609 O 0.19026 0.75130 0.78857
 O610 O 0.18285 0.72401 0.75670
 O611 O 0.21916 0.81113 0.75436
 O612 O 0.25111 0.81738 0.72829
 Zr613 Zr 0.25037 0.79156 0.75489
 O614 O 0.27092 0.77094 0.73213
 Zr615 Zr 0.20803 0.75143 0.75621
 O616 O 0.22702 0.72884 0.73387
 Zr617 Zr 0.25054 0.75036 0.79604
 O618 O 0.27154 0.72809 0.77527
 Zr619 Zr 0.24931 0.74854 0.71225
 O620 O 0.22844 0.77153 0.73275
 Zr621 Zr 0.29192 0.74819 0.75194
 O622 O 0.27319 0.77063 0.77492
 Zr623 Zr 0.24982 0.70764 0.75374
 O624 O 0.22855 0.72819 0.77631
 O625 O 0.22866 0.77271 0.77735
 O626 O 0.27147 0.72637 0.73090
 C627 C 0.25315 0.80356 0.80828
 C628 C 0.19740 0.80515 0.75397
 C629 C 0.19750 0.74976 0.80984
 C630 C 0.24805 0.69472 0.70092
 C631 C 0.30206 0.74745 0.69807
 C632 C 0.30318 0.69484 0.75072
 H633 H 0.28053 0.78136 0.72212
 H634 H 0.28123 0.71802 0.78554
 H635 H 0.21906 0.78300 0.78754
 H636 H 0.21598 0.71941 0.72438
 H637 H 0.20980 0.76055 0.69361
 H638 H 0.18435 0.74302 0.71829
 H639 H 0.31509 0.73736 0.78952
 H640 H 0.29058 0.76015 0.81466
 H641 H 0.25980 0.78706 0.69002
 H642 H 0.24015 0.81198 0.71594
 H643 H 0.25625 0.66930 0.77820
 H644 H 0.24070 0.71143 0.81703
 H645 H 0.29041 0.81072 0.76394
 H646 H 0.31520 0.78556 0.73985
 H647 H 0.18801 0.71258 0.76871
 H648 H 0.21017 0.68676 0.74464
 O649 O 0.24461 0.31107 0.71654
 O650 O 0.22025 0.31837 0.75045
 O651 O 0.30590 0.28035 0.74809
 O652 O 0.31468 0.24953 0.76993
 O653 O 0.27375 0.24866 0.68682
 O654 O 0.23958 0.22437 0.68150
 O655 O 0.24497 0.21638 0.80883
 O656 O 0.27377 0.24755 0.81434
 O657 O 0.18471 0.25068 0.78428
 O658 O 0.17624 0.27705 0.75195
 O659 O 0.21044 0.19037 0.75300
 O660 O 0.23940 0.18490 0.72024
 O661 O 0.24347 0.18868 0.78014
 O662 O 0.26870 0.18196 0.74624
 O663 O 0.18255 0.21884 0.75239
 O664 O 0.17582 0.25349 0.72555
 O665 O 0.21416 0.24842 0.81101
 O666 O 0.24603 0.27422 0.81807
 O667 O 0.24247 0.28274 0.68852
 O668 O 0.21483 0.25142 0.68298
 O669 O 0.30310 0.24834 0.71378
 O670 O 0.30927 0.22048 0.74613
 O671 O 0.27901 0.30982 0.74816
 O672 O 0.24740 0.31737 0.77546
 Zr673 Zr 0.24631 0.29205 0.74836
 O674 O 0.22460 0.27227 0.77107
 Zr675 Zr 0.28598 0.24946 0.74642
 O676 O 0.26624 0.22807 0.76910
 Zr677 Zr 0.24296 0.25100 0.70713
 O678 O 0.22128 0.22949 0.72800
 Zr679 Zr 0.24507 0.24883 0.79087
 O680 O 0.26712 0.27066 0.77022
 Zr681 Zr 0.20212 0.25042 0.75157
 O682 O 0.22187 0.27233 0.72875
 Zr683 Zr 0.24241 0.20817 0.74917
 O684 O 0.26413 0.22762 0.72624
 O685 O 0.26643 0.27197 0.72559
 O686 O 0.22183 0.22773 0.77226
 C687 C 0.24327 0.30434 0.69500
 C688 C 0.30031 0.30218 0.74845
 C689 C 0.29557 0.24784 0.69256
 C690 C 0.24431 0.19490 0.80174
 C691 C 0.19232 0.24935 0.80547
 C692 C 0.18901 0.19722 0.75349
 H693 H 0.21556 0.28305 0.78122
 H694 H 0.21101 0.21986 0.71784
 H695 H 0.27646 0.28176 0.71530
 H696 H 0.27696 0.21817 0.77844
 H697 H 0.28504 0.25983 0.80930
 H698 H 0.30953 0.24132 0.78432
 H699 H 0.17741 0.23998 0.71476
 H700 H 0.20320 0.26280 0.68910
 H701 H 0.23694 0.28801 0.81285
 H702 H 0.25887 0.31157 0.78713
 H703 H 0.23384 0.16942 0.72599
 H704 H 0.25027 0.21153 0.68621
 H705 H 0.20728 0.31327 0.74008
 H706 H 0.18163 0.28948 0.76281
 H707 H 0.30409 0.20986 0.73339
 H708 H 0.28065 0.18486 0.75848
 O709 O 0.75087 0.68768 0.72178
 O710 O 0.77530 0.68108 0.75509
 O711 O 0.68813 0.71497 0.75260
 O712 O 0.67843 0.74519 0.77585
 O713 O 0.71864 0.74917 0.69214
 O714 O 0.75122 0.77399 0.68602
 O715 O 0.74718 0.78093 0.81457
 O716 O 0.72083 0.74976 0.82086
 O717 O 0.80849 0.74992 0.78756
 O718 O 0.81707 0.72357 0.75447
 O719 O 0.78063 0.80938 0.75667
 O720 O 0.74914 0.81403 0.72610
 O721 O 0.74842 0.80937 0.78657
 O722 O 0.72161 0.81578 0.75383
 O723 O 0.80903 0.78142 0.75724
 O724 O 0.81687 0.74853 0.72933
 O725 O 0.77995 0.75018 0.81543
 O726 O 0.74739 0.72206 0.82160
 O727 O 0.75147 0.71574 0.69345
 O728 O 0.77772 0.74901 0.68796
 O729 O 0.68919 0.74813 0.71907
 O730 O 0.68228 0.77512 0.75210
 O731 O 0.71685 0.68731 0.75348
 O732 O 0.74861 0.68121 0.78041
 Zr733 Zr 0.74837 0.70652 0.75332
 O734 O 0.76965 0.72678 0.77564
 Zr735 Zr 0.70667 0.74707 0.75176
 O736 O 0.72602 0.76897 0.77459
 Zr737 Zr 0.74949 0.74767 0.71208
 O738 O 0.77030 0.77009 0.73281
 Zr739 Zr 0.74839 0.74903 0.79596
 O740 O 0.72670 0.72678 0.77538
 Zr741 Zr 0.79056 0.74958 0.75560
 O742 O 0.77160 0.72703 0.73312
 Zr743 Zr 0.74884 0.79040 0.75486
 O744 O 0.72772 0.77009 0.73188
 O745 O 0.72714 0.72559 0.73067
 O746 O 0.77050 0.77126 0.77717
 C747 C 0.75194 0.69420 0.70023
 C748 C 0.69515 0.69349 0.75324
 C749 C 0.69681 0.74931 0.69781
 C750 C 0.74757 0.80256 0.80806
 C751 C 0.80164 0.75038 0.80898
 C752 C 0.80222 0.80288 0.75752
 H753 H 0.77931 0.71625 0.78541
 H754 H 0.77998 0.78022 0.72254
 H755 H 0.71753 0.71548 0.72032
 H756 H 0.71508 0.77828 0.78433
 H757 H 0.70871 0.73860 0.81527
 H758 H 0.68311 0.75413 0.78996
 H759 H 0.81435 0.76198 0.71867
 H760 H 0.78954 0.73753 0.69345
 H761 H 0.76061 0.71121 0.81866
 H762 H 0.73734 0.68673 0.79245
 H763 H 0.75477 0.82959 0.73159
 H764 H 0.74135 0.78713 0.69166
 H765 H 0.78820 0.68679 0.74491
 H766 H 0.81350 0.71183 0.76674
 H767 H 0.68745 0.78644 0.73996
 H768 H 0.70999 0.81189 0.76613
 O769 O 0.24871 0.69165 0.28087
 O770 O 0.22294 0.68563 0.24912
 O771 O 0.31052 0.71816 0.24536
 O772 O 0.32073 0.74896 0.22418
 O773 O 0.28483 0.75150 0.30932
 O774 O 0.25346 0.77782 0.31710
 O775 O 0.25047 0.78483 0.18868
 O776 O 0.27580 0.75316 0.18102
 O777 O 0.18982 0.75638 0.21817
 O778 O 0.18216 0.72960 0.25175
 O779 O 0.22116 0.81442 0.24742
 O780 O 0.25337 0.81831 0.27694
 O781 O 0.25262 0.81343 0.21646
 O782 O 0.28054 0.81888 0.24868
 O783 O 0.19180 0.78751 0.24955
 O784 O 0.18420 0.75443 0.27692
 O785 O 0.21731 0.75492 0.18928
 O786 O 0.24838 0.72629 0.18143
 O787 O 0.25059 0.71936 0.30952
 O788 O 0.22591 0.75349 0.31661
 O789 O 0.31238 0.74987 0.28051
 O790 O 0.31796 0.77805 0.24781
 O791 O 0.28153 0.69074 0.24736
 O792 O 0.24782 0.68565 0.22214
 Zr793 Zr 0.25041 0.71063 0.24946
 O794 O 0.22849 0.73154 0.22846
 Zr795 Zr 0.29312 0.75035 0.24901
 O796 O 0.27337 0.77265 0.22729
 Zr797 Zr 0.25274 0.75146 0.29101
 O798 O 0.23150 0.77459 0.27137
 Zr799 Zr 0.24946 0.75314 0.20722
 O800 O 0.27152 0.73043 0.22646
 Zr801 Zr 0.20928 0.75498 0.24947
 O802 O 0.22885 0.73176 0.27085
 Zr803 Zr 0.25230 0.79453 0.24828
 O804 O 0.27392 0.77363 0.27021
 O805 O 0.27339 0.72900 0.27102
 O806 O 0.22898 0.77606 0.22701
 C807 C 0.24884 0.69792 0.30251
 C808 C 0.30321 0.69681 0.24528
 C809 C 0.30627 0.75076 0.30222
 C810 C 0.25187 0.80645 0.19498
 C811 C 0.19596 0.75616 0.19648
 C812 C 0.19933 0.80876 0.24834
 H813 H 0.21803 0.72132 0.21914
 H814 H 0.22268 0.78495 0.28215
 H815 H 0.28323 0.71840 0.28061
 H816 H 0.28413 0.78164 0.21705
 H817 H 0.28780 0.74161 0.18593
 H818 H 0.31503 0.75666 0.20974
 H819 H 0.18815 0.76722 0.28798
 H820 H 0.21339 0.74251 0.31161
 H821 H 0.23527 0.71552 0.18520
 H822 H 0.25904 0.69060 0.20982
 H823 H 0.24849 0.83409 0.27143
 H824 H 0.26340 0.79065 0.31085
 H825 H 0.21023 0.69216 0.25903
 H826 H 0.18433 0.71828 0.23877
 H827 H 0.31439 0.78868 0.26109
 H828 H 0.29139 0.81491 0.23573
 O829 O 0.74712 0.30992 0.28640
 O830 O 0.77121 0.31742 0.25238
 O831 O 0.68552 0.27926 0.25514
 O832 O 0.67732 0.24844 0.23221
 O833 O 0.71743 0.24682 0.31589
 O834 O 0.75201 0.22326 0.32132
 O835 O 0.74736 0.21566 0.19379
 O836 O 0.71809 0.24580 0.18830
 O837 O 0.80679 0.25054 0.21881
 O838 O 0.81400 0.27800 0.25227
 O839 O 0.78228 0.19000 0.25032
 O840 O 0.75222 0.18409 0.28252
 O841 O 0.74897 0.18781 0.22230
 O842 O 0.72409 0.18022 0.25569
 O843 O 0.80940 0.21925 0.25025
 O844 O 0.81649 0.25255 0.27668
 O845 O 0.77751 0.24867 0.19189
 O846 O 0.74456 0.27375 0.18523
 O847 O 0.74829 0.28166 0.31456
 O848 O 0.77633 0.25073 0.32011
 O849 O 0.68809 0.24720 0.28890
 O850 O 0.68222 0.21923 0.25695
 O851 O 0.71269 0.30855 0.25439
 O852 O 0.74405 0.31663 0.22783
 Zr853 Zr 0.74519 0.29099 0.25459
 O854 O 0.76691 0.27162 0.23177
 Zr855 Zr 0.70551 0.24826 0.25636
 O856 O 0.72560 0.22699 0.23374
 Zr857 Zr 0.74834 0.24992 0.29581
 O858 O 0.77038 0.22885 0.27488
 Zr859 Zr 0.74657 0.24798 0.21197
 O860 O 0.72440 0.26957 0.23267
 Zr861 Zr 0.78936 0.25013 0.25145
 O862 O 0.76946 0.27153 0.27444
 Zr863 Zr 0.74970 0.20722 0.25347
 O864 O 0.72754 0.22641 0.27634
 O865 O 0.72497 0.27084 0.27729
 O866 O 0.77007 0.22718 0.23053
 C867 C 0.74803 0.30323 0.30794
 C868 C 0.69136 0.30107 0.25443
 C869 C 0.69562 0.24625 0.31011
 C870 C 0.74822 0.19415 0.20071
 C871 C 0.79930 0.24974 0.19756
 C872 C 0.80358 0.19747 0.24954
 H873 H 0.77584 0.28257 0.22171
 H874 H 0.78073 0.21934 0.28503
 H875 H 0.71489 0.28056 0.28759
 H876 H 0.71505 0.21694 0.22433
 H877 H 0.70626 0.25741 0.19357
 H878 H 0.68203 0.23875 0.21861
 H879 H 0.81360 0.24036 0.28868
 H880 H 0.78792 0.26217 0.31399
 H881 H 0.75498 0.28693 0.18959
 H882 H 0.73329 0.31049 0.21565
 H883 H 0.75874 0.16888 0.27707
 H884 H 0.74139 0.21032 0.31660
 H885 H 0.78415 0.31254 0.26286
 H886 H 0.81027 0.28883 0.23925
 H887 H 0.68791 0.20838 0.26924
 H888 H 0.71143 0.18382 0.24441
 C889 C 0.27390 0.08581 0.05476
 C890 C 0.27322 0.10393 0.07122
 C891 C 0.26165 0.10085 0.09272
 C892 C 0.25037 0.07933 0.09728
 C893 C 0.25116 0.06115 0.08090
 C894 C 0.26299 0.06407 0.05939
 C895 C 0.26103 0.12071 0.10947
 C896 C 0.25713 0.11795 0.13248
 C897 C 0.25636 0.13760 0.14946
 C898 C 0.25890 0.13241 0.17334
 C899 C 0.25773 0.15016 0.19014
 C900 C 0.25390 0.17359 0.18342
 C901 C 0.25128 0.17884 0.15951
 C902 C 0.25234 0.16103 0.14268
 H903 H 0.28330 0.08867 0.03847
 H904 H 0.28188 0.12039 0.06718
 H905 H 0.24033 0.07656 0.11315
 H906 H 0.24167 0.04510 0.08469
 H907 H 0.26499 0.13796 0.10257
 H908 H 0.25536 0.10044 0.13961
 H909 H 0.26183 0.11452 0.17906
 H910 H 0.25982 0.14548 0.20842
 H911 H 0.24801 0.19667 0.15379
 H912 H 0.24949 0.16573 0.12455
 C913 C 0.77898 0.58363 0.55768
 C914 C 0.77892 0.60187 0.57406
 C915 C 0.76179 0.60268 0.59176
 C916 C 0.74430 0.58517 0.59242
 C917 C 0.74435 0.56699 0.57601
 C918 C 0.76176 0.56604 0.55863
 C919 C 0.76226 0.62231 0.60877
 C920 C 0.75341 0.62048 0.63049
 C921 C 0.75389 0.63982 0.64782
 C922 C 0.75234 0.63416 0.67168
 C923 C 0.75206 0.65179 0.68867
 C924 C 0.75308 0.67558 0.68214
 C925 C 0.75453 0.68128 0.65820
 C926 C 0.75488 0.66360 0.64119
 H927 H 0.79243 0.58322 0.54422
 H928 H 0.79240 0.61528 0.57303
 H929 H 0.73030 0.58567 0.60526
 H930 H 0.73069 0.55375 0.57668
 H931 H 0.77130 0.63820 0.60356
 H932 H 0.74651 0.60377 0.63638
 H933 H 0.75136 0.61599 0.67723
 H934 H 0.75079 0.64672 0.70692
 H935 H 0.75513 0.69942 0.65255
 H936 H 0.75535 0.66869 0.62293
 C937 C 0.77882 0.93699 0.07354
 C938 C 0.77812 0.92068 0.09184
 C939 C 0.75718 0.90890 0.09746
 C940 C 0.73683 0.91388 0.08440
 C941 C 0.73749 0.93029 0.06616
 C942 C 0.75843 0.94224 0.06068
 C943 C 0.75708 0.89222 0.11747
 C944 C 0.74194 0.87423 0.11923
 C945 C 0.74239 0.85703 0.13875
 C946 C 0.73431 0.83416 0.13452
 C947 C 0.73459 0.81730 0.15229
 C948 C 0.74257 0.82304 0.17491
 C949 C 0.75009 0.84614 0.17937
 C950 C 0.75008 0.86297 0.16145
 H951 H 0.79530 0.94562 0.06943
 H952 H 0.79404 0.91718 0.10161
 H953 H 0.72020 0.90567 0.08858
 H954 H 0.72147 0.93415 0.05670
 H955 H 0.77081 0.89414 0.13044
 H956 H 0.72971 0.87090 0.10511
 H957 H 0.72807 0.82920 0.11727
 H958 H 0.72848 0.79973 0.14829
 H959 H 0.75629 0.85113 0.19661
 H960 H 0.75581 0.88063 0.16551
 C961 C 0.22853 0.44509 0.57910
 C962 C 0.22706 0.42936 0.59785
 C963 C 0.24336 0.41104 0.60010
 C964 C 0.26149 0.40903 0.58335
 C965 C 0.26301 0.42487 0.56466
 C966 C 0.24650 0.44297 0.56235
 C967 C 0.24131 0.39486 0.62041
 C968 C 0.24910 0.37266 0.61987
 C969 C 0.24654 0.35591 0.63963
 C970 C 0.24689 0.33183 0.63459
 C971 C 0.24532 0.31526 0.65252
 C972 C 0.24366 0.32231 0.67612
 C973 C 0.24333 0.34647 0.68126
 C974 C 0.24474 0.36313 0.66321
 H975 H 0.21575 0.45910 0.57772
 H976 H 0.21308 0.43144 0.61059
 H977 H 0.27484 0.39563 0.58490
 H978 H 0.27726 0.42324 0.55216
 H979 H 0.23182 0.40108 0.63566
 H980 H 0.25654 0.36586 0.60376
 H981 H 0.24842 0.32578 0.61663
 H982 H 0.24581 0.29684 0.64781
 H983 H 0.24227 0.35252 0.69924
 H984 H 0.24504 0.38154 0.66784
 C985 C 0.77047 0.08460 0.94422
 C986 C 0.77040 0.10284 0.92789
 C987 C 0.75758 0.10091 0.90701
 C988 C 0.74474 0.08016 0.90281
 C989 C 0.74489 0.06182 0.91913
 C990 C 0.75755 0.06385 0.94023
 C991 C 0.75757 0.12122 0.89066
 C992 C 0.75147 0.11976 0.86800
 C993 C 0.75214 0.13996 0.85156
 C994 C 0.75328 0.13528 0.82745
 C995 C 0.75388 0.15357 0.81120
 C996 C 0.75318 0.17713 0.81862
 C997 C 0.75174 0.18189 0.84278
 C998 C 0.75113 0.16352 0.85909
 H999 H 0.78088 0.08665 0.95997
 H1000 H 0.78046 0.11856 0.93161
 H1001 H 0.73401 0.07815 0.88732
 H1002 H 0.73428 0.04640 0.91566
 H1003 H 0.76398 0.13776 0.89749
 H1004 H 0.74699 0.10285 0.86061
 H1005 H 0.75388 0.11735 0.82113
 H1006 H 0.75491 0.14916 0.79275
 H1007 H 0.75096 0.19981 0.84910
 H1008 H 0.74949 0.16792 0.87746
 C1009 C 0.27272 0.57974 0.43900
 C1010 C 0.27301 0.59827 0.42296
 C1011 C 0.25497 0.60073 0.40639
 C1012 C 0.23654 0.58415 0.40622
 C1013 C 0.23630 0.56559 0.42228
 C1014 C 0.25428 0.56339 0.43886
 C1015 C 0.25563 0.62120 0.39028
 C1016 C 0.24420 0.62183 0.36975
 C1017 C 0.24547 0.64189 0.35324
 C1018 C 0.24106 0.63762 0.32945
 C1019 C 0.24210 0.65582 0.31313
 C1020 C 0.24731 0.67891 0.32023
 C1021 C 0.25126 0.68336 0.34416
 C1022 C 0.25035 0.66504 0.36052
 H1023 H 0.28666 0.57835 0.45182
 H1024 H 0.28732 0.61081 0.42359
 H1025 H 0.22192 0.58575 0.39427
 H1026 H 0.22177 0.55329 0.42220
 H1027 H 0.26694 0.63571 0.39508
 H1028 H 0.23465 0.60647 0.36391
 H1029 H 0.23704 0.62004 0.32339
 H1030 H 0.23877 0.65172 0.29489
 H1031 H 0.25518 0.70095 0.35022
 H1032 H 0.25314 0.66915 0.37883
 C1033 C 0.28635 0.93372 0.93097
 C1034 C 0.28706 0.91717 0.91287
 C1035 C 0.26618 0.90824 0.90331
 C1036 C 0.24450 0.91649 0.91188
 C1037 C 0.24381 0.93328 0.92974
 C1038 C 0.26472 0.94192 0.93942
 C1039 C 0.26749 0.89096 0.88398
 C1040 C 0.25151 0.87390 0.88128
 C1041 C 0.25291 0.85613 0.86243
 C1042 C 0.24428 0.83351 0.86682
 C1043 C 0.24483 0.81637 0.84934
 C1044 C 0.25355 0.82166 0.82687
 C1045 C 0.26192 0.84444 0.82233
 C1046 C 0.26176 0.86150 0.84000
 H1047 H 0.30262 0.94042 0.93816
 H1048 H 0.30393 0.91121 0.90641
 H1049 H 0.22810 0.91042 0.90444
 H1050 H 0.22700 0.93972 0.93591
 H1051 H 0.28273 0.89148 0.87260
 H1052 H 0.23764 0.87191 0.89417
 H1053 H 0.23719 0.82906 0.88389
 H1054 H 0.23798 0.79907 0.85330
 H1055 H 0.26862 0.84903 0.80514
 H1056 H 0.26802 0.87899 0.83594
 C1057 C 0.78259 0.43323 0.43012
 C1058 C 0.78269 0.41669 0.41199
 C1059 C 0.76152 0.40742 0.40343
 C1060 C 0.74016 0.41524 0.41312
 C1061 C 0.74006 0.43203 0.43102
 C1062 C 0.76127 0.44107 0.43964
 C1063 C 0.76224 0.39034 0.38385
 C1064 C 0.74628 0.37321 0.38140
 C1065 C 0.74734 0.35564 0.36231
 C1066 C 0.73925 0.33282 0.36673
 C1067 C 0.73980 0.31578 0.34913
 C1068 C 0.74796 0.32137 0.32652
 C1069 C 0.75565 0.34437 0.32192
 C1070 C 0.75550 0.36133 0.33970
 H1071 H 0.79908 0.44027 0.43644
 H1072 H 0.79933 0.41108 0.40467
 H1073 H 0.72351 0.40892 0.40648
 H1074 H 0.72347 0.43821 0.43797
 H1075 H 0.77710 0.39109 0.37199
 H1076 H 0.73283 0.37094 0.39466
 H1077 H 0.73268 0.32810 0.38394
 H1078 H 0.73348 0.29829 0.35314
 H1079 H 0.76192 0.34919 0.30464
 H1080 H 0.76132 0.37897 0.33562
 C1081 C 0.05565 0.23408 0.08405
 C1082 C 0.07195 0.23318 0.10226
 C1083 C 0.09315 0.24564 0.10087
 C1084 C 0.09780 0.25894 0.08053
 C1085 C 0.08149 0.25975 0.06218
 C1086 C 0.05997 0.24763 0.06381
 C1087 C 0.10924 0.24487 0.12139
 C1088 C 0.13188 0.25143 0.12072
 C1089 C 0.14789 0.25020 0.14124
 C1090 C 0.17215 0.24973 0.13708
 C1091 C 0.18802 0.24879 0.15568
 C1092 C 0.18006 0.24845 0.17906
 C1093 C 0.15574 0.24917 0.18332
 C1094 C 0.13980 0.25012 0.16463
 H1095 H 0.03955 0.22404 0.08577
 H1096 H 0.06787 0.22273 0.11762
 H1097 H 0.11358 0.26936 0.07886
 H1098 H 0.08525 0.27079 0.04717
 H1099 H 0.10216 0.23767 0.13747
 H1100 H 0.13959 0.25682 0.10424
 H1101 H 0.17891 0.24996 0.11931
 H1102 H 0.20661 0.24832 0.15164
 H1103 H 0.14899 0.24915 0.20108
 H1104 H 0.12128 0.25121 0.16868
 C1105 C 0.56171 0.72661 0.57747
 C1106 C 0.57783 0.72581 0.59589
 C1107 C 0.59442 0.74382 0.59889
 C1108 C 0.59457 0.76272 0.58292
 C1109 C 0.57838 0.76351 0.56449
 C1110 C 0.56171 0.74558 0.56178
 C1111 C 0.61043 0.74272 0.61940
 C1112 C 0.63105 0.75407 0.62044
 C1113 C 0.64726 0.75254 0.64073
 C1114 C 0.67124 0.75661 0.63691
 C1115 C 0.68720 0.75550 0.65542
 C1116 C 0.67954 0.75058 0.67838
 C1117 C 0.65543 0.74689 0.68234
 C1118 C 0.63943 0.74785 0.66372
 H1119 H 0.54885 0.71268 0.57570
 H1120 H 0.57722 0.71114 0.60796
 H1121 H 0.60658 0.77729 0.58496
 H1122 H 0.57840 0.77843 0.55272
 H1123 H 0.60541 0.73119 0.63365
 H1124 H 0.63715 0.76383 0.60533
 H1125 H 0.67771 0.76047 0.61946
 H1126 H 0.70560 0.75862 0.65169
 H1127 H 0.64891 0.74320 0.69981
 H1128 H 0.62097 0.74531 0.66748
 C1129 C 0.06124 0.77523 0.92808
 C1130 C 0.07803 0.77666 0.91023
 C1131 C 0.09042 0.75662 0.90309
 C1132 C 0.08518 0.73490 0.91359
 C1133 C 0.06820 0.73341 0.93123
 C1134 C 0.05619 0.75359 0.93883
 C1135 C 0.10815 0.75875 0.88421
 C1136 C 0.12730 0.74512 0.88315
 C1137 C 0.14509 0.74712 0.86429
 C1138 C 0.16842 0.74087 0.86906
 C1139 C 0.18554 0.74203 0.85150
 C1140 C 0.17955 0.74905 0.82865
 C1141 C 0.15611 0.75510 0.82384
 C1142 C 0.13906 0.75418 0.84146
 H1143 H 0.05239 0.79109 0.93374
 H1144 H 0.08165 0.79354 0.90224
 H1145 H 0.09387 0.71898 0.90795
 H1146 H 0.06432 0.71644 0.93892
 H1147 H 0.10592 0.77278 0.87161
 H1148 H 0.13074 0.73276 0.89715
 H1149 H 0.17342 0.73517 0.88647
 H1150 H 0.20340 0.73711 0.85574
 H1151 H 0.15089 0.76053 0.80642
 H1152 H 0.12111 0.75849 0.83701
 C1153 C 0.56490 0.27460 0.43282
 C1154 C 0.58158 0.27556 0.41484
 C1155 C 0.59154 0.25486 0.40595
 C1156 C 0.58407 0.23308 0.41491
 C1157 C 0.56711 0.23212 0.43262
 C1158 C 0.55758 0.25287 0.44178
 C1159 C 0.60897 0.25645 0.38679
 C1160 C 0.62672 0.24120 0.38445
 C1161 C 0.64416 0.24289 0.36529
 C1162 C 0.66732 0.23562 0.36937
 C1163 C 0.68414 0.23689 0.35153
 C1164 C 0.67794 0.24496 0.32909
 C1165 C 0.65462 0.25185 0.32492
 C1166 C 0.63791 0.25090 0.34285
 H1167 H 0.55756 0.29075 0.43967
 H1168 H 0.58691 0.29251 0.40803
 H1169 H 0.59094 0.21679 0.40795
 H1170 H 0.56142 0.21522 0.43925
 H1171 H 0.60784 0.27136 0.37506
 H1172 H 0.62933 0.22777 0.39763
 H1173 H 0.67245 0.22917 0.38647
 H1174 H 0.70193 0.23132 0.35522
 H1175 H 0.64929 0.25814 0.30782
 H1176 H 0.62003 0.25605 0.33899
 C1177 C 0.94629 0.73389 0.08664
 C1178 C 0.92900 0.73313 0.10403
 C1179 C 0.90741 0.74453 0.10085
 C1180 C 0.90358 0.75709 0.07998
 C1181 C 0.92080 0.75776 0.06255
 C1182 C 0.94247 0.74626 0.06562
 C1183 C 0.88982 0.74365 0.12000
 C1184 C 0.86684 0.74782 0.11684
 C1185 C 0.84941 0.74764 0.13617
 C1186 C 0.82554 0.74485 0.13070
 C1187 C 0.80849 0.74513 0.14837
 C1188 C 0.81499 0.74830 0.17192
 C1189 C 0.83889 0.75129 0.17737
 C1190 C 0.85588 0.75112 0.15972
 H1191 H 0.96241 0.72421 0.08941
 H1192 H 0.93243 0.72339 0.11997
 H1193 H 0.88759 0.76688 0.07714
 H1194 H 0.91740 0.76789 0.04684
 H1195 H 0.89612 0.73854 0.13713
 H1196 H 0.86017 0.75070 0.09933
 H1197 H 0.82005 0.74240 0.11269
 H1198 H 0.79024 0.74286 0.14355
 H1199 H 0.84450 0.75412 0.19528
 H1200 H 0.87394 0.75425 0.16467
 C1201 C 0.44018 0.22524 0.58393
 C1202 C 0.42281 0.22392 0.60119
 C1203 C 0.40448 0.24036 0.60177
 C1204 C 0.40414 0.25855 0.58508
 C1205 C 0.42154 0.25990 0.56789
 C1206 C 0.43960 0.24323 0.56718
 C1207 C 0.38667 0.23864 0.62056
 C1208 C 0.36489 0.24730 0.61848
 C1209 C 0.34744 0.24650 0.63768
 C1210 C 0.32347 0.24769 0.63216
 C1211 C 0.30653 0.24779 0.64991
 C1212 C 0.31330 0.24694 0.67360
 C1213 C 0.33733 0.24586 0.67908
 C1214 C 0.35422 0.24575 0.66136
 H1215 H 0.45404 0.21224 0.58356
 H1216 H 0.42358 0.20992 0.61401
 H1217 H 0.39078 0.27203 0.58548
 H1218 H 0.42102 0.27400 0.55517
 H1219 H 0.39153 0.22914 0.63625
 H1220 H 0.35926 0.25462 0.60191
 H1221 H 0.31784 0.24856 0.61404
 H1222 H 0.28817 0.24879 0.64507
 H1223 H 0.34320 0.24542 0.69713
 H1224 H 0.37253 0.24568 0.66637
 C1225 C 0.91535 0.26485 0.95103
 C1226 C 0.89695 0.26520 0.93484
 C1227 C 0.89935 0.25437 0.91289
 C1228 C 0.92051 0.24269 0.90763
 C1229 C 0.93895 0.24238 0.92379
 C1230 C 0.93673 0.25353 0.94575
 C1231 C 0.87923 0.25508 0.89634
 C1232 C 0.88162 0.25245 0.87307
 C1233 C 0.86187 0.25348 0.85610
 C1234 C 0.86726 0.25681 0.83233
 C1235 C 0.84957 0.25716 0.81544
 C1236 C 0.82589 0.25408 0.82184
 C1237 C 0.82038 0.25083 0.84567
 C1238 C 0.83816 0.25043 0.86263
 H1239 H 0.91300 0.27387 0.96760
 H1240 H 0.88083 0.27418 0.93944
 H1241 H 0.92279 0.23327 0.89132
 H1242 H 0.95473 0.23271 0.91939
 H1243 H 0.86216 0.25912 0.90364
 H1244 H 0.89904 0.25047 0.86573
 H1245 H 0.88532 0.25908 0.82673
 H1246 H 0.85454 0.25969 0.79728
 H1247 H 0.80236 0.24816 0.85119
 H1248 H 0.83322 0.24717 0.88064
 C1249 C 0.41853 0.76860 0.44517
 C1250 C 0.40027 0.76933 0.42883
 C1251 C 0.39949 0.75329 0.41014
 C1252 C 0.41716 0.73606 0.40844
 C1253 C 0.43539 0.73530 0.42485
 C1254 C 0.43628 0.75164 0.44324
 C1255 C 0.37969 0.75466 0.39328
 C1256 C 0.38094 0.74657 0.37120
 C1257 C 0.36139 0.74829 0.35408
 C1258 C 0.36668 0.74719 0.33007
 C1259 C 0.34887 0.74825 0.31329
 C1260 C 0.32519 0.75023 0.32012
 C1261 C 0.31984 0.75117 0.34420
 C1262 C 0.33770 0.75016 0.36100
 H1263 H 0.41887 0.78126 0.45934
 H1264 H 0.38679 0.78261 0.43070
 H1265 H 0.41678 0.72288 0.39480
 H1266 H 0.44875 0.72186 0.42332
 H1267 H 0.36406 0.76383 0.39902
 H1268 H 0.39736 0.73942 0.36483
 H1269 H 0.38473 0.74555 0.32425
 H1270 H 0.35369 0.74735 0.29493
 H1271 H 0.30180 0.75247 0.35011
 H1272 H 0.33278 0.75033 0.37932
 C1273 C 0.05075 0.08175 0.23286
 C1274 C 0.06701 0.10008 0.23397
 C1275 C 0.08790 0.09764 0.24671
 C1276 C 0.09214 0.07629 0.25845
 C1277 C 0.07593 0.05786 0.25720
 C1278 C 0.05484 0.06037 0.24459
 C1279 C 0.10429 0.11797 0.24770
 C1280 C 0.12689 0.11627 0.25407
 C1281 C 0.14357 0.13635 0.25428
 C1282 C 0.16767 0.13139 0.25418
 C1283 C 0.18421 0.14947 0.25436
 C1284 C 0.17709 0.17312 0.25476
 C1285 C 0.15294 0.17818 0.25520
 C1286 C 0.13632 0.16000 0.25506
 H1287 H 0.03500 0.08421 0.22250
 H1288 H 0.06324 0.11626 0.22474
 H1289 H 0.10759 0.07380 0.26913
 H1290 H 0.07947 0.04193 0.26694
 H1291 H 0.09755 0.13470 0.24182
 H1292 H 0.13414 0.09922 0.25811
 H1293 H 0.17379 0.11339 0.25377
 H1294 H 0.20264 0.14481 0.25407
 H1295 H 0.14685 0.19618 0.25572
 H1296 H 0.11793 0.16465 0.25590
 C1297 C 0.55374 0.58019 0.72516
 C1298 C 0.57019 0.59847 0.72541
 C1299 C 0.58879 0.59848 0.74160
 C1300 C 0.59050 0.57972 0.75763
 C1301 C 0.57409 0.56145 0.75731
 C1302 C 0.55547 0.56167 0.74127
 C1303 C 0.60536 0.61869 0.74181
 C1304 C 0.62697 0.61768 0.75113
 C1305 C 0.64376 0.63767 0.75143
 C1306 C 0.66771 0.63276 0.75431
 C1307 C 0.68426 0.65086 0.75500
 C1308 C 0.67727 0.67446 0.75305
 C1309 C 0.65322 0.67946 0.75051
 C1310 C 0.63662 0.66128 0.74975
 H1311 H 0.53948 0.58061 0.71263
 H1312 H 0.56834 0.61270 0.71297
 H1313 H 0.60404 0.57931 0.77088
 H1314 H 0.57555 0.54737 0.76999
 H1315 H 0.59974 0.63459 0.73309
 H1316 H 0.63334 0.60115 0.75793
 H1317 H 0.67371 0.61479 0.75587
 H1318 H 0.70260 0.64627 0.75705
 H1319 H 0.64719 0.69743 0.74907
 H1320 H 0.61826 0.66588 0.74823
 C1321 C 0.92987 0.06706 0.71392
 C1322 C 0.91268 0.08449 0.71291
 C1323 C 0.90331 0.09399 0.73361
 C1324 C 0.91089 0.08526 0.75539
 C1325 C 0.92778 0.06754 0.75637
 C1326 C 0.93754 0.05856 0.73565
 C1327 C 0.88505 0.11228 0.73202
 C1328 C 0.88315 0.12962 0.74777
 C1329 C 0.86460 0.14766 0.74648
 C1330 C 0.86925 0.17032 0.75493
 C1331 C 0.85179 0.18753 0.75458
 C1332 C 0.82918 0.18219 0.74626
 C1333 C 0.82450 0.15942 0.73797
 C1334 C 0.84205 0.14234 0.73800
 H1335 H 0.93713 0.06008 0.69779
 H1336 H 0.90687 0.09078 0.69596
 H1337 H 0.90346 0.09177 0.77162
 H1338 H 0.93334 0.06086 0.77325
 H1339 H 0.87362 0.11204 0.71685
 H1340 H 0.89615 0.13127 0.76153
 H1341 H 0.88645 0.17471 0.76176
 H1342 H 0.85583 0.20486 0.76131
 H1343 H 0.80722 0.15477 0.73153
 H1344 H 0.83774 0.12484 0.73195
 C1345 C 0.41883 0.55925 0.26781
 C1346 C 0.40037 0.57535 0.26847
 C1347 C 0.39483 0.58875 0.24859
 C1348 C 0.40779 0.58535 0.22780
 C1349 C 0.42616 0.56916 0.22713
 C1350 C 0.43177 0.55606 0.24712
 C1351 C 0.37527 0.60575 0.25000
 C1352 C 0.37458 0.62529 0.23696
 C1353 C 0.35581 0.64306 0.23915
 C1354 C 0.36116 0.66646 0.23380
 C1355 C 0.34408 0.68386 0.23583
 C1356 C 0.32110 0.67816 0.24292
 C1357 C 0.31556 0.65460 0.24777
 C1358 C 0.33276 0.63719 0.24594
 H1359 H 0.42298 0.54916 0.28335
 H1360 H 0.39054 0.57755 0.28460
 H1361 H 0.40354 0.59483 0.21193
 H1362 H 0.43592 0.56668 0.21100
 H1363 H 0.36198 0.60284 0.26329
 H1364 H 0.38914 0.62939 0.22542
 H1365 H 0.37873 0.67136 0.22832
 H1366 H 0.34890 0.70180 0.23175
 H1367 H 0.29799 0.64962 0.25315
 H1368 H 0.32788 0.61918 0.24953
 C1369 C 0.05309 0.91506 0.73188
 C1370 C 0.06944 0.89683 0.73274
 C1371 C 0.09063 0.89952 0.74495
 C1372 C 0.09507 0.92096 0.75647
 C1373 C 0.07874 0.93926 0.75553
 C1374 C 0.05739 0.93657 0.74336
 C1375 C 0.10710 0.87932 0.74581
 C1376 C 0.12996 0.88132 0.75115
 C1377 C 0.14655 0.86122 0.75163
 C1378 C 0.17068 0.86597 0.75015
 C1379 C 0.18708 0.84780 0.75081
 C1380 C 0.17977 0.82430 0.75310
 C1381 C 0.15560 0.81949 0.75479
 C1382 C 0.13915 0.83773 0.75418
 H1383 H 0.03713 0.91242 0.72190
 H1384 H 0.06552 0.88054 0.72373
 H1385 H 0.11076 0.92358 0.76679
 H1386 H 0.08244 0.95525 0.76515
 H1387 H 0.10015 0.86238 0.74076
 H1388 H 0.13737 0.89854 0.75421
 H1389 H 0.17691 0.88387 0.74838
 H1390 H 0.20554 0.85223 0.74951
 H1391 H 0.14936 0.80163 0.75684
 H1392 H 0.12079 0.83330 0.75615
 C1393 C 0.57474 0.43789 0.22485
 C1394 C 0.59279 0.42128 0.22442
 C1395 C 0.59710 0.40703 0.24402
 C1396 C 0.58332 0.41009 0.26433
 C1397 C 0.56542 0.42684 0.26481
 C1398 C 0.56101 0.44082 0.24508
 C1399 C 0.61654 0.38980 0.24300
 C1400 C 0.61660 0.36986 0.25549
 C1401 C 0.63597 0.35255 0.25448
 C1402 C 0.63109 0.32894 0.25949
 C1403 C 0.64898 0.31217 0.25918
 C1404 C 0.67228 0.31874 0.25419
 C1405 C 0.67722 0.34247 0.24942
 C1406 C 0.65928 0.35920 0.24955
 H1407 H 0.57149 0.44853 0.20946
 H1408 H 0.60327 0.41939 0.20866
 H1409 H 0.58660 0.39992 0.28000
 H1410 H 0.55501 0.42899 0.28058
 H1411 H 0.63059 0.39317 0.23063
 H1412 H 0.60140 0.36536 0.26603
 H1413 H 0.61333 0.32342 0.26358
 H1414 H 0.64459 0.29409 0.26315
 H1415 H 0.69498 0.34816 0.24565
 H1416 H 0.66383 0.37736 0.24630
 C1417 C 0.92479 0.93156 0.21613
 C1418 C 0.90634 0.91536 0.21608
 C1419 C 0.89971 0.90382 0.23679
 C1420 C 0.91192 0.90881 0.25765
 C1421 C 0.93027 0.92513 0.25773
 C1422 C 0.93672 0.93689 0.23703
 C1423 C 0.87945 0.88749 0.23620
 C1424 C 0.87707 0.86945 0.25108
 C1425 C 0.85709 0.85284 0.25011
 C1426 C 0.86068 0.82958 0.25720
 C1427 C 0.84233 0.81332 0.25642
 C1428 C 0.81982 0.82011 0.24895
 C1429 C 0.81604 0.84358 0.24239
 C1430 C 0.83452 0.85980 0.24288
 H1431 H 0.92964 0.94014 0.19986
 H1432 H 0.89720 0.91183 0.19981
 H1433 H 0.90689 0.90075 0.27408
 H1434 H 0.93899 0.92914 0.27413
 H1435 H 0.86675 0.88976 0.22226
 H1436 H 0.89095 0.86568 0.26348
 H1437 H 0.87784 0.82388 0.26306
 H1438 H 0.84578 0.79542 0.26179
 H1439 H 0.79888 0.84935 0.23662
 H1440 H 0.83102 0.87779 0.23792
 C1441 C 0.42312 0.43437 0.71654
 C1442 C 0.40442 0.41839 0.71650
 C1443 C 0.40160 0.40221 0.73489
 C1444 C 0.41818 0.40219 0.75324
 C1445 C 0.43688 0.41814 0.75322
 C1446 C 0.43930 0.43452 0.73506
 C1447 C 0.38060 0.38663 0.73492
 C1448 C 0.37926 0.36664 0.74729
 C1449 C 0.35846 0.35088 0.74738
 C1450 C 0.36183 0.32720 0.75310
 C1451 C 0.34293 0.31160 0.75359
 C1452 C 0.31999 0.31932 0.74867
 C1453 C 0.31644 0.34318 0.74343
 C1454 C 0.33549 0.35883 0.74276
 H1455 H 0.42458 0.44711 0.70252
 H1456 H 0.39189 0.41893 0.70224
 H1457 H 0.41637 0.39059 0.76813
 H1458 H 0.44898 0.41834 0.76786
 H1459 H 0.36613 0.39149 0.72364
 H1460 H 0.39450 0.36064 0.75687
 H1461 H 0.37925 0.32065 0.75698
 H1462 H 0.34636 0.29341 0.75787
 H1463 H 0.29901 0.34970 0.73963
 H1464 H 0.33209 0.37711 0.73895
 C1465 C 0.06336 0.27723 0.93184
 C1466 C 0.07943 0.27814 0.91328
 C1467 C 0.09070 0.25770 0.90537
 C1468 C 0.08531 0.23618 0.91628
 C1469 C 0.06904 0.23523 0.93469
 C1470 C 0.05786 0.25574 0.94270
 C1471 C 0.10713 0.25932 0.88516
 C1472 C 0.12525 0.24459 0.88204
 C1473 C 0.14204 0.24651 0.86218
 C1474 C 0.16518 0.23872 0.86536
 C1475 C 0.18149 0.23992 0.84704
 C1476 C 0.17492 0.24852 0.82489
 C1477 C 0.15162 0.25596 0.82154
 C1478 C 0.13536 0.25508 0.84002
 H1479 H 0.05508 0.29333 0.93769
 H1480 H 0.08316 0.29491 0.90511
 H1481 H 0.09310 0.21996 0.91020
 H1482 H 0.06473 0.21835 0.94234
 H1483 H 0.10491 0.27393 0.87322
 H1484 H 0.12887 0.23144 0.89524
 H1485 H 0.17071 0.23183 0.88216
 H1486 H 0.19920 0.23378 0.85017
 H1487 H 0.14597 0.26256 0.80466
 H1488 H 0.11750 0.26065 0.83676
 C1489 C 0.56590 0.77592 0.43061
 C1490 C 0.58193 0.77709 0.41203
 C1491 C 0.59134 0.75650 0.40228
 C1492 C 0.58408 0.73461 0.41123
 C1493 C 0.56780 0.73345 0.42960
 C1494 C 0.55867 0.75409 0.43943
 C1495 C 0.60794 0.75839 0.38230
 C1496 C 0.62511 0.74277 0.37844
 C1497 C 0.64215 0.74494 0.35889
 C1498 C 0.66497 0.73626 0.36194
 C1499 C 0.68148 0.73776 0.34385
 C1500 C 0.67537 0.74753 0.32206
 C1501 C 0.65236 0.75583 0.31882
 C1502 C 0.63593 0.75468 0.33710
 H1503 H 0.55885 0.79199 0.43790
 H1504 H 0.58709 0.79412 0.40531
 H1505 H 0.59048 0.71839 0.40370
 H1506 H 0.56215 0.71648 0.43605
 H1507 H 0.60677 0.77385 0.37131
 H1508 H 0.62780 0.72864 0.39086
 H1509 H 0.67011 0.72846 0.37848
 H1510 H 0.69898 0.73094 0.34683
 H1511 H 0.64710 0.76334 0.30220
 H1512 H 0.61829 0.76098 0.33398
 C1513 C 0.91378 0.76180 0.95336
 C1514 C 0.89456 0.76183 0.93818
 C1515 C 0.89614 0.75135 0.91599
 C1516 C 0.91727 0.74027 0.90950
 C1517 C 0.93654 0.74029 0.92464
 C1518 C 0.93518 0.75119 0.94678
 C1519 C 0.87533 0.75185 0.90036
 C1520 C 0.87708 0.75044 0.87696
 C1521 C 0.85689 0.75125 0.86057
 C1522 C 0.86169 0.75530 0.83681
 C1523 C 0.84370 0.75532 0.82030
 C1524 C 0.82029 0.75119 0.82708
 C1525 C 0.81529 0.74739 0.85092
 C1526 C 0.83342 0.74730 0.86753
 H1527 H 0.91206 0.77050 0.97017
 H1528 H 0.87845 0.77031 0.94370
 H1529 H 0.91890 0.73105 0.89300
 H1530 H 0.95227 0.73102 0.91933
 H1531 H 0.85838 0.75475 0.90845
 H1532 H 0.89437 0.74962 0.86907
 H1533 H 0.87954 0.75836 0.83091
 H1534 H 0.84825 0.75847 0.80213
 H1535 H 0.79747 0.74403 0.85667
 H1536 H 0.82896 0.74358 0.88558
 C1537 C 0.41762 0.26793 0.44925
 C1538 C 0.39837 0.26816 0.43412
 C1539 C 0.39645 0.25143 0.41615
 C1540 C 0.41398 0.23412 0.41390
 C1541 C 0.43321 0.23391 0.42905
 C1542 C 0.43517 0.25085 0.44675
 C1543 C 0.37585 0.25230 0.40037
 C1544 C 0.37666 0.24431 0.37831
 C1545 C 0.35686 0.24588 0.36164
 C1546 C 0.36207 0.24525 0.33766
 C1547 C 0.34419 0.24604 0.32109
 C1548 C 0.32050 0.24722 0.32807
 C1549 C 0.31517 0.24783 0.35214
 C1550 C 0.33320 0.24714 0.36882
 H1551 H 0.41878 0.28094 0.46307
 H1552 H 0.38502 0.28151 0.43634
 H1553 H 0.41269 0.22041 0.40083
 H1554 H 0.44638 0.22032 0.42726
 H1555 H 0.36025 0.26115 0.40666
 H1556 H 0.39308 0.23760 0.37146
 H1557 H 0.38011 0.24418 0.33167
 H1558 H 0.34905 0.24553 0.30273
 H1559 H 0.29711 0.24861 0.35809
 H1560 H 0.32850 0.24706 0.38720
 C1561 C 0.07348 0.72614 0.06669
 C1562 C 0.09185 0.72578 0.08290
 C1563 C 0.10067 0.74680 0.09227
 C1564 C 0.09125 0.76830 0.08461
 C1565 C 0.07313 0.76865 0.06811
 C1566 C 0.06402 0.74757 0.05923
 C1567 C 0.12007 0.74576 0.10943
 C1568 C 0.12247 0.76135 0.12687
 C1569 C 0.14150 0.75980 0.14442
 C1570 C 0.13727 0.76755 0.16739
 C1571 C 0.15487 0.76617 0.18439
 C1572 C 0.17724 0.75748 0.17858
 C1573 C 0.18162 0.75023 0.15542
 C1574 C 0.16391 0.75129 0.13852
 H1575 H 0.06665 0.70973 0.05989
 H1576 H 0.09898 0.70904 0.08839
 H1577 H 0.09812 0.78482 0.09103
 H1578 H 0.06609 0.78533 0.06234
 H1579 H 0.13181 0.73083 0.10851
 H1580 H 0.10928 0.77484 0.12930
 H1581 H 0.12020 0.77441 0.17225
 H1582 H 0.15105 0.77216 0.20202
 H1583 H 0.19870 0.74356 0.15037
 H1584 H 0.16792 0.74579 0.12079
 C1585 C 0.56208 0.22743 0.57963
 C1586 C 0.57889 0.22705 0.59739
 C1587 C 0.59538 0.24527 0.59944
 C1588 C 0.59465 0.26403 0.58335
 C1589 C 0.57779 0.26440 0.56559
 C1590 C 0.56134 0.24618 0.56373
 C1591 C 0.61232 0.24455 0.61908
 C1592 C 0.63300 0.25580 0.61872
 C1593 C 0.65000 0.25472 0.63827
 C1594 C 0.67388 0.25813 0.63333
 C1595 C 0.69053 0.25728 0.65122
 C1596 C 0.68361 0.25327 0.67457
 C1597 C 0.65962 0.25029 0.67961
 C1598 C 0.64296 0.25103 0.66165
 H1599 H 0.54939 0.21329 0.57844
 H1600 H 0.57898 0.21251 0.60963
 H1601 H 0.60656 0.27877 0.58477
 H1602 H 0.57721 0.27913 0.55360
 H1603 H 0.60798 0.23339 0.63383
 H1604 H 0.63843 0.26506 0.60306
 H1605 H 0.67971 0.26125 0.61550
 H1606 H 0.70883 0.25989 0.64671
 H1607 H 0.65367 0.24742 0.69743
 H1608 H 0.62461 0.24912 0.66623
 C1609 C 0.94219 0.23180 0.08484
 C1610 C 0.92564 0.23093 0.10294
 C1611 C 0.90603 0.24585 0.10279
 C1612 C 0.90345 0.26191 0.08418
 C1613 C 0.92006 0.26278 0.06609
 C1614 C 0.93959 0.24781 0.06633
 C1615 C 0.88929 0.24477 0.12276
 C1616 C 0.86693 0.25206 0.12144
 C1617 C 0.85017 0.25095 0.14137
 C1618 C 0.82602 0.25083 0.13655
 C1619 C 0.80956 0.25028 0.15474
 C1620 C 0.81687 0.25009 0.17829
 C1621 C 0.84108 0.25039 0.18316
 C1622 C 0.85756 0.25088 0.16493
 H1623 H 0.95715 0.22008 0.08532
 H1624 H 0.92815 0.21853 0.11711
 H1625 H 0.88903 0.27423 0.08374
 H1626 H 0.91790 0.27542 0.05208
 H1627 H 0.89548 0.23666 0.13874
 H1628 H 0.86010 0.25810 0.10481
 H1629 H 0.81984 0.25107 0.11860
 H1630 H 0.79108 0.25013 0.15029
 H1631 H 0.84735 0.25040 0.20108
 H1632 H 0.87598 0.25171 0.16943
 C1633 C 0.44142 0.72561 0.58144
 C1634 C 0.42521 0.72449 0.59984
 C1635 C 0.40730 0.74128 0.60184
 C1636 C 0.40607 0.75945 0.58511
 C1637 C 0.42233 0.76059 0.56676
 C1638 C 0.44017 0.74375 0.56486
 C1639 C 0.39088 0.73985 0.62201
 C1640 C 0.36917 0.74893 0.62161
 C1641 C 0.35256 0.74764 0.64162
 C1642 C 0.32847 0.74968 0.63705
 C1643 C 0.31215 0.74933 0.65533
 C1644 C 0.31955 0.74720 0.67876
 C1645 C 0.34372 0.74522 0.68340
 C1646 C 0.36008 0.74548 0.66504
 H1647 H 0.45512 0.71249 0.58024
 H1648 H 0.42666 0.71044 0.61255
 H1649 H 0.39302 0.77316 0.58644
 H1650 H 0.42130 0.77485 0.55425
 H1651 H 0.39660 0.73001 0.63719
 H1652 H 0.36269 0.75675 0.60558
 H1653 H 0.32222 0.75154 0.61921
 H1654 H 0.29370 0.75097 0.65105
 H1655 H 0.35004 0.74366 0.70123
 H1656 H 0.37854 0.74453 0.66934
 C1657 C 0.27178 0.08514 0.94406
 C1658 C 0.26973 0.10344 0.92796
 C1659 C 0.25662 0.10055 0.90737
 C1660 C 0.24550 0.07882 0.90324
 C1661 C 0.24774 0.06042 0.91925
 C1662 C 0.26078 0.06335 0.93998
 C1663 C 0.25458 0.12081 0.89119
 C1664 C 0.24744 0.11894 0.86888
 C1665 C 0.24630 0.13900 0.85243
 C1666 C 0.24620 0.13414 0.82835
 C1667 C 0.24545 0.15229 0.81202
 C1668 C 0.24467 0.17585 0.81937
 C1669 C 0.24426 0.18080 0.84351
 C1670 C 0.24496 0.16256 0.85991
 H1671 H 0.28216 0.08797 0.95972
 H1672 H 0.27842 0.11996 0.93165
 H1673 H 0.23449 0.07597 0.88810
 H1674 H 0.23833 0.04421 0.91590
 H1675 H 0.26032 0.13768 0.89776
 H1676 H 0.24356 0.10182 0.86166
 H1677 H 0.24698 0.11619 0.82210
 H1678 H 0.24564 0.14776 0.79357
 H1679 H 0.24332 0.19874 0.84974
 H1680 H 0.24413 0.16706 0.87831
 C1681 C 0.77745 0.58066 0.43687
 C1682 C 0.77626 0.59888 0.42055
 C1683 C 0.75774 0.59993 0.40437
 C1684 C 0.74025 0.58239 0.40496
 C1685 C 0.74148 0.56416 0.42131
 C1686 C 0.76004 0.56324 0.43738
 C1687 C 0.75687 0.61997 0.38783
 C1688 C 0.74521 0.61934 0.36745
 C1689 C 0.74502 0.63913 0.35063
 C1690 C 0.74119 0.63424 0.32686
 C1691 C 0.74112 0.65228 0.31032
 C1692 C 0.74463 0.67574 0.31723
 C1693 C 0.74788 0.68074 0.34115
 C1694 C 0.74806 0.66263 0.35770
 H1695 H 0.79177 0.58028 0.44934
 H1696 H 0.78982 0.61224 0.42060
 H1697 H 0.72528 0.58295 0.39334
 H1698 H 0.72769 0.55104 0.42178
 H1699 H 0.76728 0.63528 0.39217
 H1700 H 0.73667 0.60327 0.36199
 H1701 H 0.73853 0.61634 0.32100
 H1702 H 0.73829 0.64777 0.29209
 H1703 H 0.75037 0.69863 0.34710
 H1704 H 0.75025 0.66717 0.37599
 C1705 C 0.77528 0.08197 0.05945
 C1706 C 0.77479 0.10020 0.07584
 C1707 C 0.75791 0.10043 0.09382
 C1708 C 0.74129 0.08209 0.09490
 C1709 C 0.74179 0.06387 0.07846
 C1710 C 0.75875 0.06372 0.06062
 C1711 C 0.75772 0.12044 0.11048
 C1712 C 0.74850 0.11910 0.13209
 C1713 C 0.74876 0.13883 0.14905
 C1714 C 0.74721 0.13364 0.17302
 C1715 C 0.74713 0.15158 0.18970
 C1716 C 0.74833 0.17526 0.18279
 C1717 C 0.74961 0.18053 0.15873
 C1718 C 0.74978 0.16251 0.14201
 H1719 H 0.78840 0.08218 0.04568
 H1720 H 0.78765 0.11417 0.07448
 H1721 H 0.72752 0.08199 0.10798
 H1722 H 0.72868 0.05009 0.07937
 H1723 H 0.76663 0.13635 0.10509
 H1724 H 0.74162 0.10250 0.13829
 H1725 H 0.74621 0.11558 0.17891
 H1726 H 0.74603 0.14681 0.20805
 H1727 H 0.75042 0.19856 0.15279
 H1728 H 0.75028 0.16726 0.12366
 C1729 C 0.27051 0.58158 0.55966
 C1730 C 0.27092 0.59972 0.57616
 C1731 C 0.25357 0.60116 0.59363
 C1732 C 0.23556 0.58416 0.59407
 C1733 C 0.23515 0.56604 0.57752
 C1734 C 0.25257 0.56467 0.56017
 C1735 C 0.25442 0.62100 0.61047
 C1736 C 0.24460 0.62017 0.63184
 C1737 C 0.24585 0.63973 0.64896
 C1738 C 0.24346 0.63453 0.67286
 C1739 C 0.24428 0.65235 0.68966
 C1740 C 0.24723 0.67593 0.68292
 C1741 C 0.24932 0.68122 0.65892
 C1742 C 0.24862 0.66333 0.64210
 H1743 H 0.28407 0.58080 0.54634
 H1744 H 0.28487 0.61265 0.57531
 H1745 H 0.22145 0.58505 0.60676
 H1746 H 0.22103 0.55328 0.57797
 H1747 H 0.26460 0.63626 0.60543
 H1748 H 0.23639 0.60406 0.63773
 H1749 H 0.24111 0.61655 0.67861
 H1750 H 0.24247 0.64760 0.70795
 H1751 H 0.25149 0.69919 0.65310
 H1752 H 0.24981 0.66813 0.62379
 C1753 C 0.77936 0.93380 0.93023
 C1754 C 0.77991 0.91707 0.91227
 C1755 C 0.75897 0.90757 0.90336
 C1756 C 0.73738 0.91545 0.91251
 C1757 C 0.73685 0.93245 0.93022
 C1758 C 0.75782 0.94174 0.93917
 C1759 C 0.76019 0.89018 0.88403
 C1760 C 0.74436 0.87293 0.88136
 C1761 C 0.74581 0.85520 0.86238
 C1762 C 0.73726 0.83248 0.86659
 C1763 C 0.73807 0.81536 0.84904
 C1764 C 0.74695 0.82075 0.82666
 C1765 C 0.75516 0.84363 0.82229
 C1766 C 0.75472 0.86067 0.84001
 H1767 H 0.79570 0.94083 0.93697
 H1768 H 0.79673 0.91139 0.90543
 H1769 H 0.72091 0.90892 0.90564
 H1770 H 0.72008 0.93850 0.93689
 H1771 H 0.77532 0.89086 0.87251
 H1772 H 0.73059 0.87079 0.89432
 H1773 H 0.73012 0.82791 0.88361
 H1774 H 0.73144 0.79795 0.85292
 H1775 H 0.76209 0.84833 0.80522
 H1776 H 0.76093 0.87819 0.83602
 C1777 C 0.27579 0.43334 0.43103
 C1778 C 0.27694 0.41652 0.41318
 C1779 C 0.25635 0.40637 0.40418
 C1780 C 0.23448 0.41369 0.41314
 C1781 C 0.23334 0.43079 0.43075
 C1782 C 0.25398 0.44071 0.43981
 C1783 C 0.25821 0.38895 0.38491
 C1784 C 0.24288 0.37127 0.38213
 C1785 C 0.24499 0.35348 0.36323
 C1786 C 0.23684 0.33062 0.36742
 C1787 C 0.23814 0.31346 0.34993
 C1788 C 0.24714 0.31893 0.32761
 C1789 C 0.25502 0.34194 0.32327
 C1790 C 0.25408 0.35903 0.34094
 H1791 H 0.29188 0.44090 0.43779
 H1792 H 0.29396 0.41131 0.40646
 H1793 H 0.21825 0.40667 0.40619
 H1794 H 0.21636 0.43643 0.43722
 H1795 H 0.27344 0.38999 0.37353
 H1796 H 0.22904 0.36881 0.39495
 H1797 H 0.22958 0.32597 0.38437
 H1798 H 0.23176 0.29596 0.35379
 H1799 H 0.26202 0.34672 0.30626
 H1800 H 0.26000 0.37665 0.33696
 C1801 C 0.24131 0.94680 0.07910
 C1802 C 0.23965 0.93116 0.09786
 C1803 C 0.25499 0.91199 0.09949
 C1804 C 0.27230 0.90892 0.08204
 C1805 C 0.27398 0.92464 0.06330
 C1806 C 0.25851 0.94369 0.06173
 C1807 C 0.25284 0.89605 0.11989
 C1808 C 0.25962 0.87356 0.11924
 C1809 C 0.25684 0.85714 0.13917
 C1810 C 0.25589 0.83306 0.13432
 C1811 C 0.25389 0.81677 0.15242
 C1812 C 0.25306 0.82414 0.17597
 C1813 C 0.25405 0.84831 0.18091
 C1814 C 0.25596 0.86468 0.16269
 H1815 H 0.22932 0.96153 0.07822
 H1816 H 0.22631 0.93401 0.11112
 H1817 H 0.28495 0.89481 0.08309
 H1818 H 0.28761 0.92224 0.05024
 H1819 H 0.24409 0.90278 0.13537
 H1820 H 0.26625 0.86630 0.10298
 H1821 H 0.25667 0.82679 0.11639
 H1822 H 0.25326 0.79832 0.14788
 H1823 H 0.25362 0.85457 0.19884
 H1824 H 0.25729 0.88309 0.16715
 C1825 C 0.73811 0.44673 0.57868
 C1826 C 0.73649 0.43109 0.59749
 C1827 C 0.75288 0.41291 0.60003
 C1828 C 0.77120 0.41087 0.58349
 C1829 C 0.77285 0.42657 0.56472
 C1830 C 0.75634 0.44462 0.56222
 C1831 C 0.75071 0.39686 0.62040
 C1832 C 0.75875 0.37477 0.62005
 C1833 C 0.75619 0.35808 0.63982
 C1834 C 0.75718 0.33403 0.63482
 C1835 C 0.75571 0.31748 0.65275
 C1836 C 0.75348 0.32455 0.67631
 C1837 C 0.75242 0.34869 0.68140
 C1838 C 0.75378 0.36533 0.66333
 H1839 H 0.72529 0.46067 0.57707
 H1840 H 0.72234 0.43316 0.61004
 H1841 H 0.78463 0.39757 0.58526
 H1842 H 0.78722 0.42494 0.55236
 H1843 H 0.74099 0.40308 0.63550
 H1844 H 0.76644 0.36797 0.60405
 H1845 H 0.75913 0.32796 0.61691
 H1846 H 0.75662 0.29908 0.64806
 H1847 H 0.75084 0.35473 0.69934
 H1848 H 0.75354 0.38375 0.66793
 C1849 C 0.05325 0.07920 0.72689
 C1850 C 0.06910 0.09791 0.72717
 C1851 C 0.08995 0.09652 0.74010
 C1852 C 0.09516 0.07545 0.75193
 C1853 C 0.07929 0.05667 0.75163
 C1854 C 0.05784 0.05841 0.73950
 C1855 C 0.10582 0.11723 0.74037
 C1856 C 0.12199 0.12106 0.75700
 C1857 C 0.13822 0.14139 0.75662
 C1858 C 0.16065 0.13860 0.76628
 C1859 C 0.17692 0.15691 0.76552
 C1860 C 0.17095 0.17865 0.75550
 C1861 C 0.14815 0.18187 0.74674
 C1862 C 0.13192 0.16334 0.74717
 H1863 H 0.03732 0.08098 0.71669
 H1864 H 0.06485 0.11371 0.71751
 H1865 H 0.11142 0.07326 0.76142
 H1866 H 0.08344 0.04110 0.76170
 H1867 H 0.10379 0.12991 0.72638
 H1868 H 0.12429 0.10850 0.77101
 H1869 H 0.16581 0.12199 0.77393
 H1870 H 0.19427 0.15400 0.77272
 H1871 H 0.14307 0.19847 0.73904
 H1872 H 0.11449 0.16629 0.74025
 C1873 C 0.55649 0.57744 0.22436
 C1874 C 0.57184 0.59660 0.22464
 C1875 C 0.58494 0.60184 0.24481
 C1876 C 0.58198 0.58783 0.26495
 C1877 C 0.56656 0.56873 0.26467
 C1878 C 0.55385 0.56336 0.24434
 C1879 C 0.60114 0.62220 0.24433
 C1880 C 0.62045 0.62344 0.25767
 C1881 C 0.63764 0.64287 0.25606
 C1882 C 0.66114 0.63824 0.26160
 C1883 C 0.67808 0.65587 0.25987
 C1884 C 0.67182 0.67869 0.25290
 C1885 C 0.64814 0.68356 0.24800
 C1886 C 0.63119 0.66580 0.24950
 H1887 H 0.54655 0.57364 0.20863
 H1888 H 0.57363 0.60724 0.20900
 H1889 H 0.59117 0.59179 0.28106
 H1890 H 0.56433 0.55824 0.28036
 H1891 H 0.59791 0.63569 0.23136
 H1892 H 0.62494 0.60881 0.26891
 H1893 H 0.66650 0.62080 0.26694
 H1894 H 0.69612 0.65159 0.26410
 H1895 H 0.64274 0.70101 0.24277
 H1896 H 0.61307 0.67013 0.24578
 C1897 C 0.05787 0.92129 0.22239
 C1898 C 0.07496 0.90371 0.22189
 C1899 C 0.09282 0.90309 0.23883
 C1900 C 0.09315 0.92048 0.25643
 C1901 C 0.07597 0.93802 0.25696
 C1902 C 0.05810 0.93844 0.24007
 C1903 C 0.10996 0.88347 0.23820
 C1904 C 0.13139 0.88456 0.24790
 C1905 C 0.14834 0.86478 0.24740
 C1906 C 0.17240 0.86971 0.24944
 C1907 C 0.18894 0.85159 0.24955
 C1908 C 0.18175 0.82800 0.24796
 C1909 C 0.15762 0.82303 0.24613
 C1910 C 0.14109 0.84119 0.24589
 H1911 H 0.04424 0.92138 0.20916
 H1912 H 0.07420 0.89050 0.20824
 H1913 H 0.10619 0.92027 0.27019
 H1914 H 0.07631 0.95102 0.27082
 H1915 H 0.10493 0.86791 0.22850
 H1916 H 0.13733 0.90088 0.25564
 H1917 H 0.17846 0.88770 0.25085
 H1918 H 0.20736 0.85610 0.25108
 H1919 H 0.15144 0.80507 0.24495
 H1920 H 0.12267 0.83660 0.24502
 C1921 C 0.58666 0.44877 0.74364
 C1922 C 0.60538 0.43316 0.74638
 C1923 C 0.60133 0.40918 0.74965
 C1924 C 0.57804 0.40149 0.75228
 C1925 C 0.55933 0.41720 0.74969
 C1926 C 0.56303 0.44087 0.74296
 C1927 C 0.62179 0.39309 0.75139
 C1928 C 0.62064 0.37017 0.74596
 C1929 C 0.64102 0.35382 0.74655
 C1930 C 0.63649 0.32960 0.74634
 C1931 C 0.65488 0.31338 0.74644
 C1932 C 0.67841 0.32094 0.74661
 C1933 C 0.68303 0.34521 0.74657
 C1934 C 0.66458 0.36148 0.74648
 H1935 H 0.59131 0.46705 0.74278
 H1936 H 0.62317 0.43992 0.74588
 H1937 H 0.57417 0.38350 0.75700
 H1938 H 0.54205 0.41058 0.75378
 H1939 H 0.63838 0.40082 0.75643
 H1940 H 0.60394 0.36278 0.74069
 H1941 H 0.61858 0.32314 0.74618
 H1942 H 0.65057 0.29485 0.74637
 H1943 H 0.70093 0.35169 0.74651
 H1944 H 0.66901 0.37992 0.74593
 C1945 C 0.91548 0.05420 0.25952
 C1946 C 0.89731 0.07059 0.26090
 C1947 C 0.89708 0.09027 0.24609
 C1948 C 0.91523 0.09299 0.22948
 C1949 C 0.93339 0.07655 0.22811
 C1950 C 0.93364 0.05709 0.24314
 C1951 C 0.87731 0.10707 0.24803
 C1952 C 0.87870 0.12953 0.24110
 C1953 C 0.85906 0.14642 0.24348
 C1954 C 0.86422 0.17050 0.24418
 C1955 C 0.84626 0.18705 0.24627
 C1956 C 0.82264 0.17989 0.24752
 C1957 C 0.81744 0.15576 0.24647
 C1958 C 0.83542 0.13921 0.24439
 H1959 H 0.91540 0.03922 0.27122
 H1960 H 0.88346 0.06798 0.27369
 H1961 H 0.91530 0.10745 0.21721
 H1962 H 0.94716 0.07886 0.21517
 H1963 H 0.86153 0.10088 0.25666
 H1964 H 0.89522 0.13633 0.23458
 H1965 H 0.88226 0.17653 0.24325
 H1966 H 0.85093 0.20548 0.24685
 H1967 H 0.79943 0.14963 0.24709
 H1968 H 0.83063 0.12088 0.24308
 C1969 C 0.42204 0.55878 0.77530
 C1970 C 0.40357 0.57493 0.77668
 C1971 C 0.39695 0.58804 0.75691
 C1972 C 0.40880 0.58428 0.73555
 C1973 C 0.42713 0.56810 0.73417
 C1974 C 0.43387 0.55528 0.75399
 C1975 C 0.37735 0.60505 0.75887
 C1976 C 0.37609 0.62437 0.74551
 C1977 C 0.35701 0.64191 0.74737
 C1978 C 0.36181 0.66515 0.74086
 C1979 C 0.34434 0.68227 0.74202
 C1980 C 0.32148 0.67644 0.74937
 C1981 C 0.31649 0.65304 0.75546
 C1982 C 0.33411 0.63592 0.75455
 H1983 H 0.42704 0.54892 0.79073
 H1984 H 0.39459 0.57736 0.79326
 H1985 H 0.40371 0.59347 0.71976
 H1986 H 0.43599 0.56539 0.71756
 H1987 H 0.36443 0.60218 0.77252
 H1988 H 0.39035 0.62838 0.73356
 H1989 H 0.37924 0.67015 0.73501
 H1990 H 0.34873 0.70007 0.73696
 H1991 H 0.29902 0.64798 0.76108
 H1992 H 0.32964 0.61802 0.75907
 C1993 C 0.92753 0.92742 0.72015
 C1994 C 0.90897 0.91137 0.72105
 C1995 C 0.89922 0.90469 0.74266
 C1996 C 0.90812 0.91466 0.76342
 C1997 C 0.92645 0.93098 0.76247
 C1998 C 0.93630 0.93736 0.74085
 C1999 C 0.87930 0.88801 0.74293
 C2000 C 0.87569 0.87275 0.76044
 C2001 C 0.85640 0.85538 0.75999
 C2002 C 0.86019 0.83306 0.76956
 C2003 C 0.84255 0.81601 0.76877
 C2004 C 0.82056 0.82119 0.75890
 C2005 C 0.81647 0.84383 0.75006
 C2006 C 0.83429 0.86075 0.75045
 H2007 H 0.93481 0.93242 0.70332
 H2008 H 0.90226 0.90406 0.70484
 H2009 H 0.90055 0.91036 0.78031
 H2010 H 0.93284 0.93883 0.77856
 H2011 H 0.86818 0.88729 0.72754
 H2012 H 0.88823 0.87169 0.77466
 H2013 H 0.87702 0.82864 0.77722
 H2014 H 0.84610 0.79879 0.77597
 H2015 H 0.79965 0.84832 0.74245
 H2016 H 0.83069 0.87805 0.74348
 C2017 C 0.42625 0.42887 0.22612
 C2018 C 0.40798 0.41249 0.22657
 C2019 C 0.40189 0.40107 0.24753
 C2020 C 0.41457 0.40626 0.26809
 C2021 C 0.43279 0.42270 0.26763
 C2022 C 0.43852 0.43425 0.24672
 C2023 C 0.38160 0.38480 0.24750
 C2024 C 0.37905 0.36736 0.26304
 C2025 C 0.35909 0.35077 0.26238
 C2026 C 0.36268 0.32769 0.27000
 C2027 C 0.34449 0.31130 0.26902
 C2028 C 0.32215 0.31780 0.26078
 C2029 C 0.31828 0.34116 0.25396
 C2030 C 0.33662 0.35751 0.25466
 H2031 H 0.43040 0.43788 0.20991
 H2032 H 0.39841 0.40891 0.21056
 H2033 H 0.40997 0.39834 0.28471
 H2034 H 0.44194 0.42699 0.28371
 H2035 H 0.36895 0.38660 0.23345
 H2036 H 0.39282 0.36394 0.27565
 H2037 H 0.37975 0.32220 0.27630
 H2038 H 0.34793 0.29351 0.27474
 H2039 H 0.30121 0.34669 0.24770
 H2040 H 0.33312 0.37540 0.24934
   
