data_POSCAR
  _audit_creation_date              2014-09-24
  _audit_creation_method            'ToBaCCo'
  _symmetry_space_group_name_H-M    'P1'
  _symmetry_Int_Tables_number       1
  _symmetry_cell_setting            triclinic
  loop_
  _symmetry_equiv_pos_as_xyz
 x,y,z
_cell_length_a 63.1902
_cell_length_b 62.7762
_cell_length_c 62.8188
_cell_angle_alpha 89.944100
_cell_angle_beta 89.987900
_cell_angle_gamma 90.008700
loop_
  _atom_site_label
  _atom_site_type_symbol
  _atom_site_fract_x
  _atom_site_fract_y
  _atom_site_fract_z
O1 O 0.34710 0.31860 -0.02049
 O2 O 0.31805 0.34782 0.02088
 O3 O 0.34731 0.31864 0.02082
 O4 O 0.31782 0.34777 -0.02039
 O5 O 0.29316 0.32284 -0.02028
 O6 O 0.32279 0.29356 0.02108
 O7 O 0.29336 0.32289 0.02113
 O8 O 0.32259 0.29351 -0.02038
 Cu9 Cu 0.33504 0.33570 0.00019
 Cu10 Cu 0.30550 0.30567 0.00040
 C11 C 0.33990 0.30104 -0.02739
 C12 C 0.30069 0.34045 0.02793
 C13 C 0.34017 0.30110 0.02789
 C14 C 0.30038 0.34041 -0.02725
 O15 O 0.68183 0.65231 0.01967
 O16 O 0.65287 0.68128 -0.02197
 O17 O 0.68199 0.65194 -0.02163
 O18 O 0.65276 0.68165 0.01933
 O19 O 0.67745 0.70658 0.01923
 O20 O 0.70679 0.67673 -0.02188
 O21 O 0.67753 0.70624 -0.02220
 O22 O 0.70667 0.67708 0.01956
 Cu23 Cu 0.66489 0.66431 -0.00114
 Cu24 Cu 0.69461 0.69416 -0.00135
 C25 C 0.69922 0.65966 0.02662
 C26 C 0.66015 0.69875 -0.02906
 C27 C 0.69943 0.65915 -0.02865
 C28 C 0.66003 0.69922 0.02616
 O29 O 0.68198 0.34769 0.97887
 O30 O 0.65272 0.31903 1.02055
 O31 O 0.68212 0.34805 1.02018
 O32 O 0.65255 0.31869 0.97925
 O33 O 0.67695 0.29349 0.97931
 O34 O 0.70666 0.32301 1.02039
 O35 O 0.67712 0.29382 1.02075
 O36 O 0.70654 0.32264 0.97895
 Cu37 Cu 0.66490 0.33588 0.99970
 Cu38 Cu 0.69429 0.30571 0.99986
 C39 C 0.69928 0.34015 0.97190
 C40 C 0.65983 0.30150 1.02765
 C41 C 0.69948 0.34066 1.02719
 C42 C 0.65961 0.30106 0.97240
 O43 O 0.31834 0.65215 0.98031
 O44 O 0.34776 0.68110 1.02165
 O45 O 0.31848 0.65189 1.02160
 O46 O 0.34774 0.68120 0.98034
 O47 O 0.32327 0.70633 0.98039
 O48 O 0.29387 0.67686 1.02181
 O49 O 0.32328 0.70623 1.02182
 O50 O 0.29372 0.67714 0.98039
 Cu51 Cu 0.33554 0.66409 1.00097
 Cu52 Cu 0.30606 0.69417 1.00112
 C53 C 0.30097 0.65961 0.97342
 C54 C 0.34063 0.69866 1.02866
 C55 C 0.30111 0.65924 1.02863
 C56 C 0.34060 0.69879 0.97343
 O57 O 0.02028 0.31668 0.34588
 O58 O -0.02100 0.34591 0.31685
 O59 O -0.02077 0.31645 0.34603
 O60 O 0.02006 0.34609 0.31663
 O61 O 0.02014 0.32136 0.29163
 O62 O -0.02084 0.29160 0.32117
 O63 O -0.02106 0.32121 0.29182
 O64 O 0.02035 0.29179 0.32103
 Cu65 Cu -0.00035 0.33376 0.33384
 Cu66 Cu -0.00035 0.30399 0.30390
 C67 C 0.02724 0.29920 0.33852
 C68 C -0.02796 0.33865 0.29935
 C69 C -0.02767 0.29891 0.33874
 C70 C 0.02695 0.33888 0.29908
 O71 O 0.02107 0.68317 0.65385
 O72 O -0.02029 0.65381 0.68268
 O73 O -0.01998 0.68314 0.65340
 O74 O 0.02076 0.65375 0.68309
 O75 O 0.02058 0.67850 0.70807
 O76 O -0.02033 0.70804 0.67820
 O77 O -0.02062 0.67857 0.70765
 O78 O 0.02087 0.70810 0.67866
 Cu79 Cu 0.00043 0.66599 0.66577
 Cu80 Cu 0.00011 0.69580 0.69566
 C81 C 0.02790 0.70069 0.66123
 C82 C -0.02742 0.66109 0.70011
 C83 C -0.02703 0.70065 0.66062
 C84 C 0.02750 0.66100 0.70069
 O85 O 1.01971 0.65239 0.31890
 O86 O 0.97816 0.68110 0.34806
 O87 O 0.97867 0.65189 0.31865
 O88 O 1.01923 0.68153 0.34835
 O89 O 1.01921 0.70659 0.32366
 O90 O 0.97850 0.67686 0.29384
 O91 O 0.97803 0.70621 0.32338
 O92 O 1.01966 0.67733 0.29406
 Cu93 Cu 0.99895 0.66423 0.33597
 Cu94 Cu 0.99884 0.69427 0.30624
 C95 C 1.02664 0.65985 0.30145
 C96 C 0.97112 0.69860 0.34079
 C97 C 0.97179 0.65923 0.30113
 C98 C 1.02605 0.69917 0.34119
 O99 O 0.98040 0.31846 0.65198
 O100 O 1.02152 0.34739 0.68157
 O101 O 1.02145 0.31825 0.65209
 O102 O 0.98045 0.34767 0.68138
 O103 O 0.98014 0.32274 0.70622
 O104 O 1.02126 0.29316 0.67676
 O105 O 1.02133 0.32244 0.70640
 O106 O 0.98010 0.29339 0.67668
 Cu107 Cu 1.00099 0.33545 0.66429
 Cu108 Cu 1.00069 0.30541 0.69402
 C109 C 0.97336 0.30094 0.65919
 C110 C 1.02832 0.33995 0.69908
 C111 C 1.02823 0.30061 0.65928
 C112 C 0.97340 0.34032 0.69882
 O113 O 0.31867 -0.02125 0.34761
 O114 O 0.34793 0.02036 0.31878
 O115 O 0.31849 0.02008 0.34780
 O116 O 0.34808 -0.02097 0.31856
 O117 O 0.32367 -0.02097 0.29338
 O118 O 0.29394 0.02019 0.32277
 O119 O 0.32351 0.02048 0.29361
 O120 O 0.29413 -0.02127 0.32256
 Cu121 Cu 0.33574 -0.00045 0.33570
 Cu122 Cu 0.30634 -0.00039 0.30555
 C123 C 0.30137 -0.02824 0.34010
 C124 C 0.34081 0.02741 0.30124
 C125 C 0.30113 0.02702 0.34037
 C126 C 0.34102 -0.02786 0.30094
 O127 O 0.65212 0.02166 0.68098
 O128 O 0.68134 -0.02004 0.65232
 O129 O 0.65190 -0.01967 0.68130
 O130 O 0.68141 0.02130 0.65181
 O131 O 0.70601 0.02150 0.67680
 O132 O 0.67635 -0.01962 0.70644
 O133 O 0.70592 -0.01996 0.67732
 O134 O 0.67658 0.02184 0.70611
 Cu135 Cu 0.66424 0.00080 0.66410
 Cu136 Cu 0.69369 0.00096 0.69420
 C137 C 0.65927 0.02874 0.69848
 C138 C 0.69865 -0.02702 0.65985
 C139 C 0.65900 -0.02654 0.69892
 C140 C 0.69878 0.02828 0.65918
 O141 O 0.34706 0.97917 0.68141
 O142 O 0.31791 1.02088 0.65262
 O143 O 0.34717 1.02051 0.68177
 O144 O 0.31797 0.97957 0.65207
 O145 O 0.29319 0.97922 0.67690
 O146 O 0.32259 1.02031 0.70678
 O147 O 0.29317 1.02066 0.67748
 O148 O 0.32243 0.97884 0.70639
 Cu149 Cu 0.33500 1.00006 0.66448
 Cu150 Cu 0.30536 0.99973 0.69441
 C151 C 0.33980 0.97200 0.69885
 C152 C 0.30052 1.02776 0.66004
 C153 C 0.33996 1.02730 0.69936
 C154 C 0.30055 0.97254 0.65930
 O155 O 0.65285 0.97943 0.31886
 O156 O 0.68176 1.02087 0.34824
 O157 O 0.65259 1.02075 0.31891
 O158 O 0.68183 0.97953 0.34830
 O159 O 0.70670 0.97957 0.32358
 O160 O 0.67731 1.02093 0.29403
 O161 O 0.70660 1.02103 0.32350
 O162 O 0.67759 0.97950 0.29399
 Cu163 Cu 0.66478 1.00014 0.33606
 Cu164 Cu 0.69455 1.00028 0.30628
 C165 C 0.66020 0.97251 0.30137
 C166 C 0.69919 1.02790 0.34101
 C167 C 0.65984 1.02773 0.30140
 C168 C 0.69927 0.97262 0.34105
 C169 C 0.88193 0.79079 0.49010
 C170 C 0.88216 0.79092 0.51191
 C171 C 0.86307 0.79964 0.51838
 N172 N 0.85119 0.80488 0.50125
 C173 C 0.86270 0.79945 0.48394
 C174 C 0.85633 0.80145 0.53975
 C175 C 0.83864 0.81378 0.54586
 C176 C 0.82851 0.81247 0.56540
 C177 C 0.81297 0.82781 0.56542
 C178 C 0.81404 0.83808 0.54589
 N179 N 0.82974 0.82944 0.53407
 C180 C 0.80148 0.85571 0.53986
 C181 C 0.79968 0.86272 0.51856
 C182 C 0.79088 0.88195 0.51229
 C183 C 0.79081 0.88198 0.49047
 C184 C 0.79955 0.86277 0.48412
 N185 N 0.80501 0.85101 0.50132
 C186 C 0.80120 0.85580 0.46280
 C187 C 0.81351 0.83801 0.45678
 C188 C 0.81207 0.82760 0.43737
 C189 C 0.82744 0.81207 0.43735
 C190 C 0.83784 0.81345 0.45674
 N191 N 0.82926 0.82929 0.46848
 C192 C 0.85554 0.80104 0.46269
 H193 H 0.89454 0.78505 0.47997
 H194 H 0.89499 0.78529 0.52184
 H195 H 0.83531 0.83533 0.48264
 H196 H 0.83192 0.80158 0.57832
 H197 H 0.80212 0.83101 0.57836
 H198 H 0.78517 0.89469 0.52235
 H199 H 0.78503 0.89477 0.48047
 H200 H 0.83056 0.80105 0.42450
 H201 H 0.83553 0.83542 0.51976
 H202 H 0.80110 0.83081 0.42454
 C203 C 0.22548 0.13463 0.48925
 C204 C 0.22544 0.13480 0.51106
 C205 C 0.20632 0.14367 0.51727
 N206 N 0.19471 0.14898 0.49998
 C207 C 0.20638 0.14339 0.48283
 C208 C 0.19920 0.14527 0.53852
 C209 C 0.18155 0.15773 0.54447
 C210 C 0.17103 0.15624 0.56380
 C211 C 0.15554 0.17163 0.56367
 C212 C 0.15701 0.18209 0.54427
 N213 N 0.17294 0.17355 0.53268
 C214 C 0.14443 0.19964 0.53807
 C215 C 0.14285 0.20653 0.51671
 C216 C 0.13379 0.22556 0.51020
 C217 C 0.13381 0.22536 0.48839
 C218 C 0.14288 0.20622 0.48227
 N219 N 0.14846 0.19475 0.49961
 C220 C 0.14448 0.19895 0.46106
 C221 C 0.15708 0.18131 0.45516
 C222 C 0.15563 0.17056 0.43594
 C223 C 0.17116 0.15521 0.43607
 C224 C 0.18167 0.15701 0.45537
 N225 N 0.17301 0.17298 0.46689
 C226 C 0.19934 0.14467 0.46153
 H227 H 0.23813 0.12868 0.47928
 H228 H 0.23805 0.12902 0.52118
 H229 H 0.17901 0.17926 0.48098
 H230 H 0.17410 0.14517 0.57664
 H231 H 0.14440 0.17466 0.57640
 H232 H 0.12776 0.23828 0.52012
 H233 H 0.12779 0.23790 0.47821
 H234 H 0.17425 0.14395 0.42341
 H235 H 0.17896 0.17959 0.51849
 H236 H 0.14449 0.17337 0.42317
 C237 C 0.22520 0.86547 0.48704
 C238 C 0.22540 0.86589 0.50886
 C239 C 0.20679 0.85628 0.51556
 N240 N 0.19532 0.84990 0.49856
 C241 C 0.20658 0.85542 0.48110
 C242 C 0.19995 0.85495 0.53694
 C243 C 0.18233 0.84263 0.54339
 C244 C 0.17214 0.84451 0.56287
 C245 C 0.15646 0.82933 0.56326
 C246 C 0.15746 0.81859 0.54401
 N247 N 0.17331 0.82673 0.53202
 C248 C 0.14448 0.80116 0.53833
 C249 C 0.14235 0.79392 0.51716
 C250 C 0.13277 0.77497 0.51123
 C251 C 0.13241 0.77473 0.48942
 C252 C 0.14179 0.79354 0.48272
 N253 N 0.14790 0.80524 0.49971
 C254 C 0.14340 0.80021 0.46129
 C255 C 0.15633 0.81741 0.45479
 C256 C 0.15545 0.82721 0.43501
 C257 C 0.17132 0.84220 0.43461
 C258 C 0.18133 0.84130 0.45424
 N259 N 0.17220 0.82605 0.46637
 C260 C 0.19934 0.85333 0.45995
 H261 H 0.23726 0.87212 0.47676
 H262 H 0.23776 0.87271 0.51863
 H263 H 0.17796 0.82027 0.48075
 H264 H 0.17553 0.85575 0.57547
 H265 H 0.14549 0.82665 0.57622
 H266 H 0.12667 0.76257 0.52152
 H267 H 0.12600 0.76210 0.47964
 H268 H 0.17511 0.85246 0.42130
 H269 H 0.17899 0.82038 0.51784
 H270 H 0.14460 0.82386 0.42211
 C271 C 0.86696 0.22521 0.48751
 C272 C 0.86718 0.22540 0.50933
 C273 C 0.85776 0.20658 0.51593
 N274 N 0.85175 0.19491 0.49888
 C275 C 0.85740 0.20628 0.48148
 C276 C 0.85605 0.19985 0.53733
 C277 C 0.84319 0.18257 0.54374
 C278 C 0.84407 0.17269 0.56348
 C279 C 0.82826 0.15764 0.56379
 C280 C 0.81827 0.15858 0.54416
 N281 N 0.82737 0.17392 0.53210
 C282 C 0.80030 0.14653 0.53838
 C283 C 0.79306 0.14459 0.51721
 C284 C 0.77446 0.13458 0.51120
 C285 C 0.77426 0.13434 0.48937
 C286 C 0.79287 0.14401 0.48275
 N287 N 0.80433 0.15026 0.49980
 C288 C 0.79974 0.14545 0.46137
 C289 C 0.81735 0.15780 0.45496
 C290 C 0.82752 0.15601 0.43547
 C291 C 0.84325 0.17114 0.43516
 C292 C 0.84229 0.18178 0.45447
 N293 N 0.82641 0.17361 0.46642
 C294 C 0.85537 0.19911 0.46027
 H295 H 0.87312 0.23763 0.47729
 H296 H 0.87354 0.23800 0.51917
 H297 H 0.82076 0.17988 0.48065
 H298 H 0.85489 0.17603 0.57641
 H299 H 0.82448 0.14731 0.57707
 H300 H 0.76240 0.12784 0.52142
 H301 H 0.76190 0.12759 0.47955
 H302 H 0.85423 0.17386 0.42222
 H303 H 0.82162 0.17977 0.51774
 H304 H 0.82409 0.14486 0.42281
 C305 C 0.50995 0.88240 0.79068
 C306 C 0.48826 0.88218 0.79073
 C307 C 0.48219 0.86285 0.79949
 N308 N 0.49943 0.85126 0.80482
 C309 C 0.51643 0.86319 0.79941
 C310 C 0.46108 0.85565 0.80125
 C311 C 0.45525 0.83788 0.81377
 C312 C 0.43595 0.82742 0.81259
 C313 C 0.43608 0.81200 0.82816
 C314 C 0.45546 0.81344 0.83841
 N315 N 0.46704 0.82926 0.82955
 C316 C 0.46159 0.80108 0.85618
 C317 C 0.48284 0.79940 0.86297
 C318 C 0.48932 0.79063 0.88215
 C319 C 0.51100 0.79069 0.88194
 C320 C 0.51708 0.79951 0.86265
 N321 N 0.49984 0.80486 0.85107
 C322 C 0.53820 0.80132 0.85547
 C323 C 0.54402 0.81387 0.83773
 C324 C 0.56331 0.81270 0.82726
 C325 C 0.56318 0.82831 0.81188
 C326 C 0.54380 0.83857 0.81336
 N327 N 0.53222 0.82968 0.82916
 C328 C 0.53768 0.85639 0.80107
 H329 H 0.51979 0.89530 0.78495
 H330 H 0.47815 0.89488 0.78503
 H331 H 0.51809 0.83557 0.83527
 H332 H 0.42307 0.83056 0.80167
 H333 H 0.42334 0.80097 0.83151
 H334 H 0.47948 0.78485 0.89502
 H335 H 0.52111 0.78496 0.89462
 H336 H 0.57591 0.83168 0.80086
 H337 H 0.48118 0.83535 0.83544
 H338 H 0.57618 0.80176 0.83035
 C339 C 0.51149 0.11812 0.21008
 C340 C 0.48979 0.11809 0.21022
 C341 C 0.48340 0.13694 0.20066
 N342 N 0.50048 0.14843 0.19463
 C343 C 0.51767 0.13689 0.20026
 C344 C 0.46219 0.14388 0.19885
 C345 C 0.45608 0.16164 0.18641
 C346 C 0.43660 0.17175 0.18772
 C347 C 0.43650 0.18743 0.17241
 C348 C 0.45592 0.18649 0.16217
 N349 N 0.46774 0.17070 0.17076
 C350 C 0.46186 0.19932 0.14465
 C351 C 0.48307 0.20151 0.13785
 C352 C 0.48934 0.21076 0.11882
 C353 C 0.51102 0.21098 0.11891
 C354 C 0.51732 0.20185 0.13798
 N355 N 0.50020 0.19606 0.14955
 C356 C 0.53853 0.19994 0.14487
 C357 C 0.54463 0.18712 0.16233
 C358 C 0.56429 0.18771 0.17213
 C359 C 0.56439 0.17178 0.18719
 C360 C 0.54472 0.16203 0.18631
 N361 N 0.53282 0.17141 0.17106
 C362 C 0.53880 0.14388 0.19820
 H363 H 0.52153 0.10581 0.21668
 H364 H 0.47990 0.10561 0.21674
 H365 H 0.51850 0.16577 0.16521
 H366 H 0.42378 0.16826 0.19860
 H367 H 0.42359 0.19831 0.16924
 H368 H 0.47937 0.21663 0.10610
 H369 H 0.52098 0.21704 0.10627
 H370 H 0.57756 0.16772 0.19743
 H371 H 0.48198 0.16498 0.16476
 H372 H 0.57733 0.19834 0.16867
 C373 C 0.48858 0.20921 0.88245
 C374 C 0.51027 0.20928 0.88245
 C375 C 0.51658 0.20061 0.86318
 N376 N 0.49947 0.19522 0.85142
 C377 C 0.48233 0.20050 0.86318
 C378 C 0.53776 0.19899 0.85617
 C379 C 0.54374 0.18671 0.83831
 C380 C 0.56304 0.18821 0.82789
 C381 C 0.56305 0.17284 0.81230
 C382 C 0.54376 0.16237 0.81362
 N383 N 0.53209 0.17093 0.82952
 C384 C 0.53784 0.14464 0.80113
 C385 C 0.51670 0.13749 0.79949
 C386 C 0.51053 0.11821 0.79072
 C387 C 0.48885 0.11802 0.79084
 C388 C 0.48246 0.13720 0.79968
 N389 N 0.49951 0.14908 0.80499
 C390 C 0.46123 0.14402 0.80153
 C391 C 0.45521 0.16176 0.81396
 C392 C 0.43583 0.17203 0.81269
 C393 C 0.43581 0.18754 0.82815
 C394 C 0.45519 0.18630 0.83845
 N395 N 0.46692 0.17055 0.82970
 C396 C 0.46116 0.19874 0.85620
 H397 H 0.47859 0.21486 0.89524
 H398 H 0.52023 0.21498 0.89525
 H399 H 0.48110 0.16461 0.83566
 H400 H 0.57580 0.19923 0.83115
 H401 H 0.57583 0.16975 0.80126
 H402 H 0.52058 0.10553 0.78491
 H403 H 0.47895 0.10517 0.78515
 H404 H 0.42297 0.19846 0.83141
 H405 H 0.51800 0.16481 0.83553
 H406 H 0.42300 0.16874 0.80176
 C407 C 0.49044 0.86511 0.22617
 C408 C 0.51212 0.86512 0.22608
 C409 C 0.51833 0.85620 0.20689
 N410 N 0.50117 0.85068 0.19528
 C411 C 0.48409 0.85618 0.20704
 C412 C 0.53946 0.85474 0.19969
 C413 C 0.54544 0.84229 0.18196
 C414 C 0.56459 0.84393 0.17129
 C415 C 0.56455 0.82851 0.15574
 C416 C 0.54538 0.81786 0.15735
 N417 N 0.53385 0.82633 0.17340
 C418 C 0.53934 0.80022 0.14477
 C419 C 0.51820 0.79303 0.14341
 C420 C 0.51194 0.77386 0.13446
 C421 C 0.49025 0.77376 0.13465
 C422 C 0.48396 0.79288 0.14368
 N423 N 0.50107 0.80462 0.14910
 C424 C 0.46279 0.79989 0.14536
 C425 C 0.45679 0.81757 0.15790
 C426 C 0.43756 0.82811 0.15642
 C427 C 0.43760 0.84361 0.17188
 C428 C 0.45684 0.84210 0.18239
 N429 N 0.46843 0.82616 0.17379
 C430 C 0.46291 0.85465 0.20002
 H431 H 0.48049 0.87104 0.23888
 H432 H 0.52215 0.87106 0.23871
 H433 H 0.48253 0.82008 0.17982
 H434 H 0.57725 0.85514 0.17428
 H435 H 0.57718 0.82559 0.14449
 H436 H 0.52194 0.76125 0.12841
 H437 H 0.48028 0.76106 0.12875
 H438 H 0.42491 0.85477 0.17493
 H439 H 0.51983 0.82017 0.17954
 H440 H 0.42484 0.82507 0.14530
 C441 C 0.79093 0.51037 0.88168
 C442 C 0.79103 0.48854 0.88152
 C443 C 0.79990 0.48241 0.86229
 N444 N 0.80524 0.49977 0.85070
 C445 C 0.79973 0.51688 0.86253
 C446 C 0.80175 0.46116 0.85517
 C447 C 0.81429 0.45529 0.83750
 C448 C 0.81319 0.43586 0.82707
 C449 C 0.82873 0.43601 0.81173
 C450 C 0.83890 0.45553 0.81321
 N451 N 0.83000 0.46718 0.82896
 C452 C 0.85662 0.46172 0.80096
 C453 C 0.86341 0.48310 0.79936
 C454 C 0.88255 0.48962 0.79076
 C455 C 0.88238 0.51145 0.79084
 C456 C 0.86314 0.51757 0.79950
 N457 N 0.85157 0.50022 0.80473
 C458 C 0.85603 0.53883 0.80126
 C459 C 0.83827 0.54469 0.81362
 C460 C 0.82790 0.56412 0.81234
 C461 C 0.81244 0.56397 0.82777
 C462 C 0.81380 0.54445 0.83803
 N463 N 0.82959 0.53280 0.82932
 C464 C 0.80138 0.53826 0.85570
 H465 H 0.78511 0.52027 0.89449
 H466 H 0.78530 0.47836 0.89419
 H467 H 0.83559 0.51857 0.83527
 H468 H 0.80232 0.42289 0.83016
 H469 H 0.83212 0.42319 0.80075
 H470 H 0.89537 0.47971 0.78508
 H471 H 0.89504 0.52162 0.78524
 H472 H 0.80147 0.57679 0.83101
 H473 H 0.83582 0.48142 0.83506
 H474 H 0.83111 0.57709 0.80145
 C475 C 0.13292 0.48920 0.22509
 C476 C 0.13282 0.51103 0.22523
 C477 C 0.14225 0.51754 0.20639
 N478 N 0.14815 0.50042 0.19476
 C479 C 0.14242 0.48307 0.20617
 C480 C 0.14407 0.53894 0.19962
 C481 C 0.15698 0.54526 0.18235
 C482 C 0.15622 0.56502 0.17248
 C483 C 0.17204 0.56522 0.15743
 C484 C 0.18190 0.54551 0.15837
 N485 N 0.17272 0.53351 0.17370
 C486 C 0.19982 0.53960 0.14631
 C487 C 0.20691 0.51836 0.14438
 C488 C 0.22546 0.51220 0.13435
 C489 C 0.22551 0.49036 0.13414
 C490 C 0.20687 0.48387 0.14383
 N491 N 0.19553 0.50102 0.15007
 C492 C 0.19986 0.46254 0.14532
 C493 C 0.18220 0.45626 0.15767
 C494 C 0.17190 0.43683 0.15590
 C495 C 0.15620 0.43663 0.17105
 C496 C 0.15731 0.45594 0.18168
 N497 N 0.17325 0.46779 0.17348
 C498 C 0.14434 0.46182 0.19904
 H499 H 0.12673 0.47903 0.23753
 H500 H 0.12653 0.52095 0.23781
 H501 H 0.17902 0.48198 0.17974
 H502 H 0.14549 0.57803 0.17582
 H503 H 0.17590 0.57848 0.14712
 H504 H 0.23758 0.52234 0.12760
 H505 H 0.23779 0.48044 0.12739
 H506 H 0.14514 0.42375 0.17379
 H507 H 0.17837 0.51909 0.17955
 H508 H 0.17522 0.42413 0.14475
 C509 C 0.78977 0.51075 0.11773
 C510 C 0.78994 0.48892 0.11755
 C511 C 0.79915 0.48250 0.13653
 N512 N 0.80463 0.49967 0.14828
 C513 C 0.79890 0.51697 0.13680
 C514 C 0.80127 0.46112 0.14324
 C515 C 0.81403 0.45501 0.16069
 C516 C 0.81307 0.43542 0.17084
 C517 C 0.82867 0.43540 0.18610
 C518 C 0.83877 0.45499 0.18485
 N519 N 0.82976 0.46684 0.16929
 C520 C 0.85643 0.46105 0.19727
 C521 C 0.86336 0.48238 0.19918
 C522 C 0.88210 0.48873 0.20875
 C523 C 0.88210 0.51057 0.20873
 C524 C 0.86346 0.51687 0.19896
 N525 N 0.85197 0.49962 0.19325
 C526 C 0.85654 0.53816 0.19703
 C527 C 0.83854 0.54423 0.18517
 C528 C 0.82890 0.56405 0.18615
 C529 C 0.81308 0.56406 0.17111
 C530 C 0.81362 0.54432 0.16122
 N531 N 0.82920 0.53236 0.16988
 C532 C 0.80084 0.53829 0.14377
 H533 H 0.78375 0.52085 0.10515
 H534 H 0.78405 0.47896 0.10482
 H535 H 0.83476 0.51796 0.16396
 H536 H 0.80223 0.42246 0.16765
 H537 H 0.83213 0.42243 0.19691
 H538 H 0.89448 0.47872 0.21519
 H539 H 0.89434 0.52063 0.21536
 H540 H 0.80255 0.57723 0.16771
 H541 H 0.83547 0.48119 0.16333
 H542 H 0.83297 0.57724 0.19645
 C543 C 0.22536 0.48895 0.86644
 C544 C 0.22532 0.51078 0.86646
 C545 C 0.20623 0.51708 0.85760
 N546 N 0.19464 0.49984 0.85210
 C547 C 0.20630 0.48262 0.85756
 C548 C 0.19913 0.53836 0.85616
 C549 C 0.18146 0.54444 0.84377
 C550 C 0.17092 0.56374 0.84544
 C551 C 0.15543 0.56377 0.83006
 C552 C 0.15694 0.54449 0.81941
 N553 N 0.17288 0.53282 0.82784
 C554 C 0.14440 0.53848 0.80179
 C555 C 0.14292 0.51721 0.79462
 C556 C 0.13395 0.51096 0.77549
 C557 C 0.13406 0.48912 0.77540
 C558 C 0.14309 0.48275 0.79448
 N559 N 0.14855 0.49995 0.80620
 C560 C 0.14473 0.46142 0.80147
 C561 C 0.15725 0.45531 0.81908
 C562 C 0.15581 0.43591 0.82958
 C563 C 0.17125 0.43588 0.84502
 C564 C 0.18170 0.45525 0.84352
 N565 N 0.17310 0.46698 0.82765
 C566 C 0.19928 0.46131 0.85604
 H567 H 0.23800 0.47891 0.87232
 H568 H 0.23792 0.52084 0.87237
 H569 H 0.17909 0.48119 0.82159
 H570 H 0.17397 0.57647 0.85664
 H571 H 0.14428 0.57653 0.82716
 H572 H 0.12793 0.52104 0.76289
 H573 H 0.12814 0.47911 0.76271
 H574 H 0.17431 0.42306 0.85613
 H575 H 0.17893 0.51871 0.82166
 H576 H 0.14474 0.42313 0.82654
 N577 N 0.25846 0.35776 0.06447
 C578 C 0.26613 0.37667 0.07148
 N579 N 0.28531 0.38340 0.06453
 N580 N 0.29646 0.37164 0.05093
 C581 C 0.28881 0.35275 0.04379
 N582 N 0.26963 0.34597 0.05085
 C583 C 0.25373 0.39004 0.08516
 C584 C 0.24355 0.40195 0.09617
 C585 C 0.23174 0.41690 0.10869
 N586 N 0.22426 0.43497 0.09958
 N587 N 0.21397 0.44935 0.11120
 C588 C 0.21085 0.44619 0.13236
 N589 N 0.21824 0.42799 0.14143
 N590 N 0.22855 0.41360 0.12978
 N591 N 0.71408 0.61727 0.06415
 C592 C 0.73322 0.62402 0.07114
 N593 N 0.74109 0.64274 0.06378
 N594 N 0.73012 0.65432 0.04981
 C595 C 0.71097 0.64753 0.04273
 N596 N 0.70313 0.62882 0.05020
 C597 C 0.74535 0.61090 0.08530
 C598 C 0.75526 0.59916 0.09676
 C599 C 0.76671 0.58439 0.10984
 N600 N 0.78768 0.58710 0.11357
 N601 N 0.79848 0.57264 0.12468
 C602 C 0.78868 0.55496 0.13237
 N603 N 0.76765 0.55241 0.12872
 N604 N 0.75686 0.56686 0.11763
 N605 N 0.71459 0.38238 0.93436
 C606 C 0.73366 0.37543 0.92737
 N607 N 0.74133 0.35663 0.93473
 N608 N 0.73024 0.34516 0.94870
 C609 C 0.71115 0.35215 0.95579
 N610 N 0.70351 0.37094 0.94832
 C611 C 0.74593 0.38844 0.91322
 C612 C 0.75593 0.40014 0.90179
 C613 C 0.76742 0.41493 0.88876
 N614 N 0.78827 0.41195 0.88462
 N615 N 0.79914 0.42645 0.87360
 C616 C 0.78951 0.44444 0.86644
 N617 N 0.76858 0.44725 0.87048
 N618 N 0.75774 0.43276 0.88148
 N619 N 0.25846 0.64279 0.93700
 C620 C 0.26600 0.62390 0.92979
 N621 N 0.28518 0.61701 0.93657
 N622 N 0.29646 0.62861 0.95021
 C623 C 0.28894 0.64748 0.95755
 N624 N 0.26976 0.65441 0.95064
 C625 C 0.25345 0.61069 0.91610
 C626 C 0.24313 0.59888 0.90511
 C627 C 0.23117 0.58398 0.89267
 N628 N 0.22426 0.56563 0.90166
 N629 N 0.21388 0.55128 0.89009
 C630 C 0.21008 0.55476 0.86909
 N631 N 0.21690 0.57325 0.86014
 N632 N 0.22731 0.58761 0.87174
 N633 N 0.06367 0.25675 0.35578
 C634 C 0.07081 0.26457 0.37458
 N635 N 0.06397 0.28391 0.38124
 N636 N 0.05035 0.29507 0.36953
 C637 C 0.04309 0.28728 0.35075
 N638 N 0.05005 0.26794 0.34404
 C639 C 0.08449 0.25216 0.38793
 C640 C 0.09548 0.24201 0.39989
 C641 C 0.10794 0.23029 0.41497
 N642 N 0.12882 0.22665 0.41149
 N643 N 0.14043 0.21649 0.42601
 C644 C 0.13156 0.20969 0.44453
 N645 N 0.11062 0.21327 0.44786
 N646 N 0.09903 0.22341 0.43335
 N647 N 0.06416 0.74336 0.64411
 C648 C 0.07145 0.73557 0.62536
 N649 N 0.06478 0.71618 0.61869
 N650 N 0.05118 0.70492 0.63035
 C651 C 0.04376 0.71269 0.64908
 N652 N 0.05055 0.73209 0.65580
 C653 C 0.08506 0.74809 0.61203
 C654 C 0.09598 0.75832 0.60005
 C655 C 0.10832 0.77011 0.58492
 N656 N 0.09914 0.77741 0.56684
 N657 N 0.11061 0.78751 0.55219
 C658 C 0.13168 0.79061 0.55509
 N659 N 0.14082 0.78342 0.57331
 N660 N 0.12933 0.77329 0.58798
 N661 N 0.93419 0.74060 0.35797
 C662 C 0.92704 0.73265 0.37673
 N663 N 0.93406 0.71338 0.38341
 N664 N 0.94786 0.70239 0.37175
 C665 C 0.95513 0.71032 0.35301
 N666 N 0.94800 0.72960 0.34629
 C667 C 0.91308 0.74486 0.38997
 C668 C 0.90181 0.75486 0.40177
 C669 C 0.88896 0.76643 0.41661
 N670 N 0.88200 0.75678 0.43460
 N671 N 0.87109 0.76771 0.44907
 C672 C 0.86682 0.78870 0.44607
 N673 N 0.87367 0.79830 0.42794
 N674 N 0.88460 0.78735 0.41346
 N675 N 0.93694 0.28583 0.61613
 C676 C 0.92994 0.26653 0.62278
 N677 N 0.93688 0.25868 0.64165
 N678 N 0.95047 0.26980 0.65349
 C679 C 0.95758 0.28911 0.64680
 N680 N 0.95051 0.29694 0.62794
 C681 C 0.91626 0.25417 0.60939
 C682 C 0.90524 0.24398 0.59751
 C683 C 0.89270 0.23211 0.58264
 N684 N 0.90169 0.22435 0.56467
 N685 N 0.89006 0.21393 0.55040
 C686 C 0.86901 0.21094 0.55359
 N687 N 0.86005 0.21864 0.57168
 N688 N 0.87170 0.22908 0.58597
 N689 N 0.35815 0.06444 0.25919
 C690 C 0.37678 0.07161 0.26716
 N691 N 0.38334 0.06456 0.28646
 N692 N 0.37167 0.05072 0.29745
 C693 C 0.35305 0.04343 0.28950
 N694 N 0.34646 0.05059 0.27019
 C695 C 0.39000 0.08564 0.25497
 C696 C 0.40175 0.09700 0.24497
 C697 C 0.41647 0.10997 0.23338
 N698 N 0.43393 0.11772 0.24322
 N699 N 0.44829 0.12877 0.23231
 C700 C 0.44572 0.13239 0.21114
 N701 N 0.42811 0.12476 0.20135
 N702 N 0.41374 0.11369 0.21229
 N703 N 0.64201 0.06580 0.74047
 C704 C 0.62335 0.07294 0.73253
 N705 N 0.61675 0.06587 0.71327
 N706 N 0.62840 0.05204 0.70228
 C707 C 0.64705 0.04478 0.71020
 N708 N 0.65368 0.05196 0.72947
 C709 C 0.61014 0.08693 0.74474
 C710 C 0.59839 0.09824 0.75476
 C711 C 0.58363 0.11112 0.76638
 N712 N 0.56576 0.11820 0.75677
 N713 N 0.55139 0.12914 0.76775
 C714 C 0.55436 0.13334 0.78874
 N715 N 0.57237 0.12637 0.79830
 N716 N 0.58675 0.11541 0.78731
 N717 N 0.38224 0.93481 0.71375
 C718 C 0.37553 0.92763 0.73295
 N719 N 0.35682 0.93472 0.74081
 N720 N 0.34522 0.94863 0.72981
 C721 C 0.35197 0.95592 0.71060
 N722 N 0.37066 0.94871 0.70275
 C723 C 0.38867 0.91356 0.74516
 C724 C 0.40039 0.90219 0.75516
 C725 C 0.41515 0.88923 0.76672
 N726 N 0.41213 0.88494 0.78766
 N727 N 0.42655 0.87395 0.79859
 C728 C 0.44449 0.86695 0.78894
 N729 N 0.44735 0.87114 0.76792
 N730 N 0.43295 0.88212 0.75701
 N731 N 0.61782 0.93556 0.28575
 C732 C 0.62460 0.92873 0.26646
 N733 N 0.64334 0.93595 0.25878
 N734 N 0.65492 0.94965 0.27006
 C735 C 0.64810 0.95659 0.28936
 N736 N 0.62938 0.94924 0.29701
 C737 C 0.61144 0.91498 0.25391
 C738 C 0.59968 0.90394 0.24361
 C739 C 0.58486 0.89143 0.23167
 N740 N 0.58846 0.87048 0.22784
 N741 N 0.57416 0.85882 0.21746
 C742 C 0.55578 0.86773 0.21061
 N743 N 0.55233 0.88875 0.21436
 N744 N 0.56661 0.90038 0.22473
 N745 N 0.38226 0.28603 0.93542
 C746 C 0.37566 0.26670 0.92852
 N747 N 0.35705 0.25876 0.93581
 N748 N 0.34542 0.26984 0.94963
 C749 C 0.35207 0.28918 0.95664
 N750 N 0.37066 0.29709 0.94923
 C751 C 0.38881 0.25446 0.91450
 C752 C 0.40055 0.24449 0.90314
 C753 C 0.41533 0.23300 0.89016
 N754 N 0.43309 0.24278 0.88303
 N755 N 0.44748 0.23195 0.87196
 C756 C 0.44463 0.21094 0.86769
 N757 N 0.42673 0.20121 0.87472
 N758 N 0.41233 0.21206 0.88581
 N759 N 0.61764 0.71377 0.93392
 C760 C 0.62427 0.73306 0.92688
 N761 N 0.64296 0.74094 0.93398
 N762 N 0.65464 0.72986 0.94778
 C763 C 0.64796 0.71057 0.95494
 N764 N 0.62929 0.70271 0.94771
 C765 C 0.61104 0.74533 0.91295
 C766 C 0.59921 0.75534 0.90170
 C767 C 0.58433 0.76689 0.88888
 N768 N 0.58727 0.78786 0.88460
 N769 N 0.57277 0.79876 0.87369
 C770 C 0.55482 0.78906 0.86677
 N771 N 0.55204 0.76802 0.87097
 N772 N 0.56652 0.75713 0.88186
 N773 N 0.35817 0.74104 0.06513
 C774 C 0.37690 0.73318 0.07218
 N775 N 0.38344 0.71382 0.06527
 N776 N 0.37166 0.70268 0.05168
 C777 C 0.35295 0.71052 0.04451
 N778 N 0.34638 0.72988 0.05153
 C779 C 0.39029 0.74561 0.08580
 C780 C 0.40220 0.75584 0.09674
 C781 C 0.41717 0.76773 0.10912
 N782 N 0.43532 0.77473 0.10001
 N783 N 0.44968 0.78512 0.11150
 C784 C 0.44642 0.78885 0.13254
 N785 N 0.42814 0.78193 0.14162
 N786 N 0.41376 0.77152 0.13010
 N787 N 0.64250 0.25965 0.06492
 C788 C 0.62390 0.26770 0.07208
 N789 N 0.61736 0.28698 0.06494
 N790 N 0.62901 0.29787 0.05101
 C791 C 0.64760 0.28984 0.04373
 N792 N 0.65418 0.27055 0.05099
 C793 C 0.61070 0.25562 0.08621
 C794 C 0.59897 0.24571 0.09765
 C795 C 0.58426 0.23421 0.11072
 N796 N 0.56684 0.24414 0.11845
 N797 N 0.55249 0.23331 0.12959
 C798 C 0.55504 0.21215 0.13334
 N799 N 0.57260 0.20227 0.12570
 N800 N 0.58696 0.21313 0.11454
 N801 N 0.25817 0.06440 0.64321
 C802 C 0.26583 0.07175 0.62442
 N803 N 0.28504 0.06499 0.61761
 N804 N 0.29624 0.05126 0.62919
 C805 C 0.28860 0.04378 0.64796
 N806 N 0.26939 0.05065 0.65482
 C807 C 0.25333 0.08548 0.61119
 C808 C 0.24305 0.09649 0.59934
 C809 C 0.23114 0.10890 0.58437
 N810 N 0.22421 0.09983 0.56609
 N811 N 0.21386 0.11137 0.55167
 C812 C 0.21012 0.13241 0.55500
 N813 N 0.21696 0.14144 0.57341
 N814 N 0.22733 0.12988 0.58785
 N815 N 0.74059 0.06405 0.35742
 C816 C 0.73301 0.07097 0.37639
 N817 N 0.71397 0.06381 0.38328
 N818 N 0.70286 0.05008 0.37162
 C819 C 0.71043 0.04298 0.35266
 N820 N 0.72947 0.05031 0.34573
 C821 C 0.74540 0.08479 0.38963
 C822 C 0.75562 0.09591 0.40142
 C823 C 0.76753 0.10853 0.41620
 N824 N 0.77519 0.09952 0.43423
 N825 N 0.78560 0.11123 0.44845
 C826 C 0.78866 0.13239 0.44517
 N827 N 0.78110 0.14137 0.42700
 N828 N 0.77067 0.12963 0.41277
 N829 N 0.74067 0.93573 0.64356
 C830 C 0.73305 0.92838 0.62477
 N831 N 0.71400 0.93539 0.61775
 N832 N 0.70292 0.94938 0.62913
 C833 C 0.71052 0.95685 0.64790
 N834 N 0.72957 0.94973 0.65496
 C835 C 0.74533 0.91417 0.61185
 C836 C 0.75537 0.90268 0.60028
 C837 C 0.76694 0.88957 0.58564
 N838 N 0.75733 0.88214 0.56786
 N839 N 0.76825 0.87105 0.55352
 C840 C 0.78917 0.86707 0.55644
 N841 N 0.79872 0.87438 0.57438
 N842 N 0.78779 0.88549 0.58873
 N843 N 0.25922 0.93470 0.35658
 C844 C 0.26673 0.92750 0.37549
 N845 N 0.28576 0.93454 0.38252
 N846 N 0.29693 0.94840 0.37105
 C847 C 0.28943 0.95572 0.35215
 N848 N 0.27040 0.94858 0.34509
 C849 C 0.25434 0.91340 0.38845
 C850 C 0.24408 0.90196 0.39991
 C851 C 0.23208 0.88884 0.41421
 N852 N 0.24023 0.87027 0.42161
 N853 N 0.22961 0.85872 0.43586
 C854 C 0.21052 0.86540 0.44318
 N855 N 0.20237 0.88396 0.43571
 N856 N 0.21299 0.89550 0.42146
 N857 N 0.06499 0.38256 0.71490
 C858 C 0.07167 0.37572 0.73424
 N859 N 0.06445 0.35685 0.74187
 N860 N 0.05090 0.34521 0.73051
 C861 C 0.04410 0.35209 0.71117
 N862 N 0.05145 0.37094 0.70356
 C863 C 0.08525 0.38896 0.74686
 C864 C 0.09616 0.40080 0.75723
 C865 C 0.10851 0.41572 0.76925
 N866 N 0.09950 0.43395 0.77639
 N867 N 0.11098 0.44832 0.78682
 C868 C 0.13191 0.44500 0.79045
 N869 N 0.14088 0.42664 0.78341
 N870 N 0.12937 0.41224 0.77295
 N871 N 0.06358 0.61737 0.28596
 C872 C 0.07040 0.62422 0.26667
 N873 N 0.06319 0.64306 0.25897
 N874 N 0.04951 0.65467 0.27022
 C875 C 0.04258 0.64777 0.28951
 N876 N 0.04991 0.62895 0.29719
 C877 C 0.08410 0.61101 0.25415
 C878 C 0.09511 0.59922 0.24385
 C879 C 0.10759 0.58438 0.23187
 N880 N 0.12861 0.58762 0.22889
 N881 N 0.14021 0.57330 0.21843
 C882 C 0.13117 0.55527 0.21066
 N883 N 0.11010 0.55218 0.21358
 N884 N 0.09852 0.56648 0.22403
 N885 N 0.93510 0.38137 0.28445
 C886 C 0.92815 0.37474 0.26516
 N887 N 0.93530 0.35599 0.25722
 N888 N 0.94906 0.34426 0.26825
 C889 C 0.95613 0.35092 0.28755
 N890 N 0.94885 0.36966 0.29546
 C891 C 0.91421 0.38802 0.25295
 C892 C 0.90293 0.39988 0.24299
 C893 C 0.89006 0.41477 0.23149
 N894 N 0.88636 0.41216 0.21039
 N895 N 0.87538 0.42671 0.19955
 C896 C 0.86783 0.44438 0.20945
 N897 N 0.87143 0.44683 0.23062
 N898 N 0.88238 0.43229 0.24144
 N899 N 0.93540 0.64390 0.74191
 C900 C 0.92831 0.62513 0.73397
 N901 N 0.93549 0.61842 0.71478
 N902 N 0.94937 0.63008 0.70387
 C903 C 0.95657 0.64884 0.71179
 N904 N 0.94929 0.65559 0.73099
 C905 C 0.91421 0.61191 0.74605
 C906 C 0.90281 0.60009 0.75591
 C907 C 0.88981 0.58519 0.76727
 N908 N 0.88279 0.56735 0.75742
 N909 N 0.87176 0.55280 0.76815
 C910 C 0.86741 0.55557 0.78914
 N911 N 0.87431 0.57357 0.79894
 N912 N 0.88536 0.58812 0.78819
 N913 N 0.74077 0.64262 0.93517
 C914 C 0.73316 0.62362 0.92831
 N915 N 0.71415 0.61674 0.93556
 N916 N 0.70311 0.62842 0.94933
 C917 C 0.71070 0.64740 0.95636
 N918 N 0.72971 0.65433 0.94894
 C919 C 0.74538 0.61043 0.91427
 C920 C 0.75537 0.59869 0.90289
 C921 C 0.76692 0.58396 0.88986
 N922 N 0.75735 0.56605 0.88263
 N923 N 0.76823 0.55172 0.87149
 C924 C 0.78910 0.55475 0.86725
 N925 N 0.79861 0.57281 0.87437
 N926 N 0.78771 0.58715 0.88552
 N927 N 0.28510 0.38263 0.93690
 C928 C 0.26603 0.37566 0.92992
 N929 N 0.25860 0.35664 0.93693
 N930 N 0.26988 0.34499 0.95059
 C931 C 0.28895 0.35201 0.95775
 N932 N 0.29637 0.37101 0.95055
 C933 C 0.25349 0.38889 0.91619
 C934 C 0.24320 0.40072 0.90515
 C935 C 0.23128 0.41564 0.89266
 N936 N 0.22747 0.41204 0.87172
 N937 N 0.21709 0.42642 0.86008
 C938 C 0.21023 0.44489 0.86900
 N939 N 0.21398 0.44834 0.89000
 N940 N 0.22434 0.43398 0.90161
 N941 N 0.25968 0.64306 0.06490
 C942 C 0.26713 0.62400 0.07179
 N943 N 0.28607 0.61696 0.06455
 N944 N 0.29721 0.62856 0.05075
 C945 C 0.28978 0.64760 0.04369
 N946 N 0.27082 0.65468 0.05110
 C947 C 0.25479 0.61094 0.08587
 C948 C 0.24459 0.59942 0.09732
 C949 C 0.23264 0.58509 0.11048
 N950 N 0.24092 0.57757 0.12893
 N951 N 0.23031 0.56338 0.14056
 C952 C 0.21107 0.55624 0.13409
 N953 N 0.20279 0.56382 0.11564
 N954 N 0.21341 0.57801 0.10403
 N955 N 0.74087 0.35671 0.06352
 C956 C 0.73339 0.37574 0.07044
 N957 N 0.71448 0.38282 0.06314
 N958 N 0.70339 0.37128 0.04930
 C959 C 0.71083 0.35226 0.04223
 N960 N 0.72976 0.34514 0.04967
 C961 C 0.74565 0.38878 0.08458
 C962 C 0.75562 0.40045 0.09604
 C963 C 0.76709 0.41516 0.10916
 N964 N 0.75730 0.43275 0.11685
 N965 N 0.76809 0.44715 0.12799
 C966 C 0.78909 0.44449 0.13178
 N967 N 0.79883 0.42674 0.12422
 N968 N 0.78801 0.41233 0.11306
 N969 N 0.93716 0.71523 0.61832
 C970 C 0.92979 0.73427 0.62523
 N971 N 0.93662 0.74198 0.64418
 N972 N 0.95046 0.73097 0.65585
 C973 C 0.95797 0.71191 0.64891
 N974 N 0.95098 0.70423 0.62995
 C975 C 0.91562 0.74641 0.61211
 C976 C 0.90411 0.75627 0.60039
 C977 C 0.89092 0.76761 0.58563
 N978 N 0.88642 0.78852 0.58861
 N979 N 0.87512 0.79922 0.57421
 C980 C 0.86801 0.78937 0.55633
 N981 N 0.87242 0.76839 0.55351
 N982 N 0.88370 0.75771 0.56790
 N983 N 0.93651 0.25706 0.35509
 C984 C 0.92960 0.26461 0.37408
 N985 N 0.93669 0.28376 0.38101
 N986 N 0.95032 0.29500 0.36937
 C987 C 0.95740 0.28747 0.35040
 N988 N 0.95016 0.26831 0.34342
 C989 C 0.91583 0.25212 0.38731
 C990 C 0.90475 0.24191 0.39916
 C991 C 0.89218 0.23013 0.41414
 N992 N 0.87118 0.22706 0.41085
 N993 N 0.85948 0.21693 0.42535
 C994 C 0.86839 0.20962 0.44364
 N995 N 0.88945 0.21261 0.44677
 N996 N 0.90113 0.22271 0.43228
 N997 N 0.06386 0.28564 0.61698
 C998 C 0.07076 0.26636 0.62376
 N999 N 0.06377 0.25867 0.64268
 N1000 N 0.05020 0.26992 0.65443
 C1001 C 0.04313 0.28920 0.64760
 N1002 N 0.05030 0.29687 0.62870
 C1003 C 0.08442 0.25387 0.61044
 C1004 C 0.09540 0.24362 0.59856
 C1005 C 0.10788 0.23174 0.58362
 N1006 N 0.12873 0.22806 0.58720
 N1007 N 0.14035 0.21768 0.57284
 C1008 C 0.13150 0.21069 0.55440
 N1009 N 0.11059 0.21431 0.55097
 N1010 N 0.09900 0.22467 0.56531
 N1011 N 0.06160 0.71417 0.38354
 C1012 C 0.06862 0.73339 0.37669
 N1013 N 0.06168 0.74104 0.35774
 N1014 N 0.04807 0.72982 0.34603
 C1015 C 0.04090 0.71059 0.35292
 N1016 N 0.04800 0.70296 0.37186
 C1017 C 0.08241 0.74583 0.38990
 C1018 C 0.09355 0.75606 0.40164
 C1019 C 0.10626 0.76797 0.41636
 N1020 N 0.09745 0.77581 0.43439
 N1021 N 0.10923 0.78623 0.44852
 C1022 C 0.13027 0.78915 0.44515
 N1023 N 0.13905 0.78137 0.42699
 N1024 N 0.12723 0.77093 0.41284
 N1025 N 0.64153 0.93678 0.74127
 C1026 C 0.62290 0.92958 0.73333
 N1027 N 0.61636 0.93653 0.71399
 N1028 N 0.62804 0.95030 0.70293
 C1029 C 0.64667 0.95761 0.71084
 N1030 N 0.65324 0.95056 0.73020
 C1031 C 0.60970 0.91551 0.74553
 C1032 C 0.59796 0.90409 0.75547
 C1033 C 0.58323 0.89097 0.76692
 N1034 N 0.56546 0.88386 0.75716
 N1035 N 0.55116 0.87261 0.76794
 C1036 C 0.55410 0.86813 0.78889
 N1037 N 0.57201 0.87513 0.79859
 N1038 N 0.58632 0.88640 0.78779
 N1039 N 0.35868 0.93579 0.25848
 C1040 C 0.37736 0.92868 0.26638
 N1041 N 0.38385 0.93552 0.28577
 N1042 N 0.37207 0.94912 0.29690
 C1043 C 0.35339 0.95636 0.28903
 N1044 N 0.34687 0.94940 0.26964
 C1045 C 0.39073 0.91496 0.25401
 C1046 C 0.40261 0.90391 0.24384
 C1047 C 0.41752 0.89137 0.23203
 N1048 N 0.43579 0.90031 0.22510
 N1049 N 0.45008 0.88866 0.21476
 C1050 C 0.44663 0.86763 0.21103
 N1051 N 0.42824 0.85873 0.21789
 N1052 N 0.41393 0.87041 0.22824
 N1053 N 0.61700 0.06416 0.28572
 C1054 C 0.62370 0.07111 0.26643
 N1055 N 0.64254 0.06415 0.25878
 N1056 N 0.65428 0.05058 0.27007
 C1057 C 0.64754 0.04351 0.28936
 N1058 N 0.62871 0.05059 0.29699
 C1059 C 0.61048 0.08488 0.25393
 C1060 C 0.59885 0.09604 0.24358
 C1061 C 0.58441 0.10886 0.23145
 N1062 N 0.57671 0.10166 0.21264
 N1063 N 0.56246 0.11300 0.20187
 C1064 C 0.55543 0.13191 0.20959
 N1065 N 0.56317 0.13912 0.22840
 N1066 N 0.57744 0.12777 0.23917
 N1067 N 0.38243 0.06430 0.71461
 C1068 C 0.37582 0.07116 0.73394
 N1069 N 0.35718 0.06388 0.74182
 N1070 N 0.34554 0.05011 0.73069
 C1071 C 0.35219 0.04315 0.71134
 N1072 N 0.37082 0.05054 0.70349
 C1073 C 0.38895 0.08521 0.74619
 C1074 C 0.40069 0.09661 0.75613
 C1075 C 0.41546 0.10968 0.76753
 N1076 N 0.41251 0.11409 0.78846
 N1077 N 0.42689 0.12529 0.79922
 C1078 C 0.44473 0.13239 0.78941
 N1079 N 0.44751 0.12808 0.76842
 N1080 N 0.43315 0.11689 0.75768
 N1081 N 0.64296 0.74186 0.06260
 C1082 C 0.62423 0.73413 0.06981
 N1083 N 0.61752 0.71481 0.06297
 N1084 N 0.62912 0.70357 0.04930
 C1085 C 0.64783 0.71128 0.04198
 N1086 N 0.65459 0.73061 0.04892
 C1087 C 0.61108 0.74659 0.08365
 C1088 C 0.59933 0.75679 0.09481
 C1089 C 0.58455 0.76859 0.10752
 N1090 N 0.56619 0.77552 0.09878
 N1091 N 0.55197 0.78576 0.11059
 C1092 C 0.55558 0.78940 0.13159
 N1093 N 0.57407 0.78256 0.14029
 N1094 N 0.58830 0.77230 0.12845
 N1095 N 0.35753 0.25900 0.06490
 C1096 C 0.37621 0.26693 0.07198
 N1097 N 0.38282 0.28620 0.06484
 N1098 N 0.37115 0.29719 0.05101
 C1099 C 0.35247 0.28929 0.04383
 N1100 N 0.34583 0.27001 0.05106
 C1101 C 0.38940 0.25478 0.08608
 C1102 C 0.40114 0.24486 0.09752
 C1103 C 0.41590 0.23342 0.11060
 N1104 N 0.43340 0.24337 0.11813
 N1105 N 0.44780 0.23260 0.12926
 C1106 C 0.44524 0.21148 0.13319
 N1107 N 0.42760 0.20158 0.12578
 N1108 N 0.41318 0.21237 0.11464
 N1109 N 0.61692 0.28608 0.93557
 C1110 C 0.62341 0.26670 0.92866
 N1111 N 0.64203 0.25872 0.93584
 N1112 N 0.65378 0.26978 0.94957
 C1113 C 0.64726 0.28917 0.95658
 N1114 N 0.62864 0.29712 0.94928
 C1115 C 0.61016 0.25452 0.91467
 C1116 C 0.59837 0.24458 0.90332
 C1117 C 0.58356 0.23314 0.89032
 N1118 N 0.58663 0.21226 0.88574
 N1119 N 0.57224 0.20146 0.87460
 C1120 C 0.55427 0.21117 0.86773
 N1121 N 0.55135 0.23212 0.87222
 N1122 N 0.56573 0.24291 0.88334
 N1123 N 0.38309 0.71381 0.93632
 C1124 C 0.37651 0.73315 0.92935
 N1125 N 0.35789 0.74108 0.93658
 N1126 N 0.34623 0.73002 0.95041
 C1127 C 0.35284 0.71067 0.95748
 N1128 N 0.37146 0.70276 0.95014
 C1129 C 0.38967 0.74535 0.91525
 C1130 C 0.40138 0.75531 0.90381
 C1131 C 0.41608 0.76680 0.89069
 N1132 N 0.43383 0.75705 0.88352
 N1133 N 0.44812 0.76788 0.87228
 C1134 C 0.44518 0.78886 0.86787
 N1135 N 0.42727 0.79854 0.87493
 N1136 N 0.41298 0.78770 0.88618
 N1137 N 0.74132 0.93576 0.35830
 C1138 C 0.73349 0.92853 0.37707
 N1139 N 0.71431 0.93549 0.38376
 N1140 N 0.70331 0.94932 0.37209
 C1141 C 0.71111 0.95667 0.35333
 N1142 N 0.73030 0.94960 0.34661
 C1143 C 0.74565 0.91444 0.39028
 C1144 C 0.75558 0.90302 0.40205
 C1145 C 0.76702 0.88995 0.41686
 N1146 N 0.75737 0.88282 0.43477
 N1147 N 0.76816 0.87168 0.44918
 C1148 C 0.78900 0.86733 0.44622
 N1149 N 0.79860 0.87433 0.42816
 N1150 N 0.78779 0.88549 0.41373
 N1151 N 0.28527 0.93629 0.61601
 C1152 C 0.26607 0.92930 0.62260
 N1153 N 0.25832 0.93618 0.64153
 N1154 N 0.26944 0.94972 0.65345
 C1155 C 0.28866 0.95683 0.64681
 N1156 N 0.29638 0.94981 0.62790
 C1157 C 0.25376 0.91560 0.60914
 C1158 C 0.24367 0.90454 0.59720
 C1159 C 0.23194 0.89191 0.58226
 N1160 N 0.22869 0.87083 0.58573
 N1161 N 0.21838 0.85908 0.57142
 C1162 C 0.21105 0.86801 0.55313
 N1163 N 0.21425 0.88915 0.54980
 N1164 N 0.22454 0.90088 0.56410
 N1165 N 0.28529 0.06360 0.38319
 C1166 C 0.26615 0.07050 0.37631
 N1167 N 0.25864 0.06343 0.35737
 N1168 N 0.26992 0.04981 0.34569
 C1169 C 0.28907 0.04281 0.35260
 N1170 N 0.29656 0.05000 0.37153
 C1171 C 0.25363 0.08422 0.38954
 C1172 C 0.24336 0.09528 0.40134
 C1173 C 0.23145 0.10783 0.41619
 N1174 N 0.22749 0.12873 0.41238
 N1175 N 0.21708 0.14044 0.42667
 C1176 C 0.21035 0.13163 0.44525
 N1177 N 0.21425 0.11067 0.44891
 N1178 N 0.22463 0.09899 0.43464
 N1179 N 0.74100 0.06501 0.64208
 C1180 C 0.73344 0.07201 0.62311
 N1181 N 0.71438 0.06492 0.61623
 N1182 N 0.70323 0.05120 0.62790
 C1183 C 0.71076 0.04409 0.64686
 N1184 N 0.72984 0.05128 0.65377
 C1185 C 0.74576 0.08606 0.61000
 C1186 C 0.75591 0.09749 0.59843
 C1187 C 0.76778 0.11067 0.58405
 N1188 N 0.75949 0.12917 0.57665
 N1189 N 0.77001 0.14081 0.56240
 C1190 C 0.78916 0.13430 0.55508
 N1191 N 0.79746 0.11580 0.56254
 N1192 N 0.78693 0.10417 0.57680
 N1193 N 0.93576 0.64198 0.25838
 C1194 C 0.92888 0.62294 0.26590
 N1195 N 0.93578 0.61607 0.28515
 N1196 N 0.94922 0.62782 0.29650
 C1197 C 0.95622 0.64685 0.28899
 N1198 N 0.94921 0.65375 0.26974
 C1199 C 0.91521 0.60973 0.25333
 C1200 C 0.90412 0.59811 0.24290
 C1201 C 0.89137 0.58371 0.23065
 N1202 N 0.89849 0.57620 0.21173
 N1203 N 0.88721 0.56197 0.20084
 C1204 C 0.86844 0.55480 0.20854
 N1205 N 0.86130 0.56236 0.22746
 N1206 N 0.87260 0.57660 0.23834
 N1207 N 0.93669 0.38315 0.71397
 C1208 C 0.92956 0.37634 0.73315
 N1209 N 0.93655 0.35746 0.74095
 N1210 N 0.95032 0.34577 0.72989
 C1211 C 0.95755 0.35261 0.71069
 N1212 N 0.95044 0.37149 0.70293
 C1213 C 0.91551 0.38952 0.74535
 C1214 C 0.90410 0.40126 0.75529
 C1215 C 0.89102 0.41602 0.76675
 N1216 N 0.88647 0.41282 0.78761
 N1217 N 0.87524 0.42717 0.79843
 C1218 C 0.86827 0.44523 0.78876
 N1219 N 0.87274 0.44827 0.76782
 N1220 N 0.88394 0.43392 0.75702
 N1221 N 0.06345 0.64348 0.74346
 C1222 C 0.07061 0.62466 0.73568
 N1223 N 0.06393 0.61806 0.71628
 N1224 N 0.05045 0.62984 0.70501
 C1225 C 0.04316 0.64864 0.71277
 N1226 N 0.04995 0.65529 0.73218
 C1227 C 0.08423 0.61128 0.74816
 C1228 C 0.09522 0.59934 0.75836
 C1229 C 0.10772 0.58432 0.77015
 N1230 N 0.12855 0.58795 0.77390
 N1231 N 0.14021 0.57350 0.78415
 C1232 C 0.13142 0.55493 0.79093
 N1233 N 0.11052 0.55145 0.78724
 N1234 N 0.09890 0.56588 0.77701
 N1235 N 0.06321 0.35646 0.25658
 C1236 C 0.07027 0.37530 0.26440
 N1237 N 0.06341 0.38191 0.28374
 N1238 N 0.04986 0.37010 0.29490
 C1239 C 0.04267 0.35128 0.28711
 N1240 N 0.04965 0.34463 0.26776
 C1241 C 0.08397 0.38870 0.25201
 C1242 C 0.09501 0.40065 0.24187
 C1243 C 0.10756 0.41569 0.23016
 N1244 N 0.12853 0.41235 0.22695
 N1245 N 0.14022 0.42687 0.21683
 C1246 C 0.13132 0.44523 0.20965
 N1247 N 0.11029 0.44842 0.21278
 N1248 N 0.09863 0.43392 0.22288
   
