data_POSCAR
  _audit_creation_date              2014-09-24
  _audit_creation_method            'ToBaCCo'
  _symmetry_space_group_name_H-M    'P1'
  _symmetry_Int_Tables_number       1
  _symmetry_cell_setting            triclinic
  loop_
  _symmetry_equiv_pos_as_xyz
 x,y,z
_cell_length_a 55.0295
_cell_length_b 54.9937
_cell_length_c 54.9117
_cell_angle_alpha 89.949200
_cell_angle_beta 89.985300
_cell_angle_gamma 89.963100
loop_
  _atom_site_label
  _atom_site_type_symbol
  _atom_site_fract_x
  _atom_site_fract_y
  _atom_site_fract_z
N1 N 0.37139 1.35559 0.30497
 N2 N 0.35389 1.37188 0.30454
 C3 C 0.35746 1.38693 0.28547
 C4 C 0.37827 1.37955 0.27337
 C5 C 0.38665 1.35964 0.28625
 H6 H 0.34578 1.40200 0.28063
 H7 H 0.40257 1.34884 0.28220
 Cu8 Cu 0.32808 1.37165 0.32888
 Cu9 Cu 0.37306 1.33015 0.32949
 Cu10 Cu 0.32830 1.32989 0.37382
 N11 N 0.30351 1.37167 0.35446
 N12 N 0.30375 1.35530 0.37193
 C13 C 0.28489 1.35929 0.38702
 C14 C 0.27214 1.37925 0.37856
 C15 C 0.28445 1.38670 0.35788
 H16 H 0.28068 1.34843 0.40291
 H17 H 0.27977 1.40184 0.34620
 N18 N 0.35469 1.30570 0.37264
 N19 N 0.37176 1.30584 0.35574
 C20 C 0.38692 1.28699 0.35961
 C21 C 0.37899 1.27444 0.37987
 C22 C 0.35856 1.28674 0.38772
 H23 H 0.40246 1.28252 0.34842
 H24 H 0.34727 1.28202 0.40313
 H25 H 0.33623 1.32880 0.33711
 H26 H 0.35504 1.34957 0.35631
 N27 N 0.37208 0.85497 0.80517
 N28 N 0.35458 0.87126 0.80481
 C29 C 0.35807 0.88632 0.78575
 C30 C 0.37883 0.87899 0.77362
 C31 C 0.38726 0.85907 0.78639
 H32 H 0.34640 0.90139 0.78093
 H33 H 0.40318 0.84831 0.78224
 Cu34 Cu 0.32887 0.87108 0.82917
 Cu35 Cu 0.37385 0.82956 0.82975
 Cu36 Cu 0.32919 0.82947 0.87420
 N37 N 0.30437 0.87115 0.85475
 N38 N 0.30463 0.85484 0.87227
 C39 C 0.28577 0.85889 0.88734
 C40 C 0.27304 0.87880 0.87882
 C41 C 0.28530 0.88617 0.85812
 H42 H 0.28152 0.84810 0.90326
 H43 H 0.28056 0.90126 0.84641
 N44 N 0.35558 0.80528 0.87306
 N45 N 0.37259 0.80533 0.85611
 C46 C 0.38772 0.78645 0.86001
 C47 C 0.37982 0.77400 0.88035
 C48 C 0.35944 0.78638 0.88820
 H49 H 0.40320 0.78189 0.84878
 H50 H 0.34816 0.78174 0.90364
 H51 H 0.33709 0.82825 0.83743
 H52 H 0.35597 0.84907 0.85651
 N53 N 0.87198 1.35517 0.80467
 N54 N 0.85301 1.36954 0.80234
 C55 C 0.85609 1.38374 0.78257
 C56 C 0.87817 1.37789 0.77200
 C57 C 0.88777 1.35965 0.78648
 H58 H 0.84337 1.39744 0.77644
 H59 H 0.90506 1.35056 0.78418
 Cu60 Cu 0.82676 1.36925 0.82611
 Cu61 Cu 0.87548 1.33285 0.83200
 Cu62 Cu 0.82356 1.32376 0.86667
 N63 N 0.80309 1.36961 0.85250
 N64 N 0.80204 1.35177 0.86843
 C65 C 0.78363 1.35590 0.88402
 C66 C 0.77258 1.37752 0.87754
 C67 C 0.78535 1.38577 0.85747
 H68 H 0.77837 1.34381 0.89865
 H69 H 0.78167 1.40203 0.84701
 N70 N 0.85194 1.30204 0.86804
 N71 N 0.87181 1.30561 0.85505
 C72 C 0.88791 1.28786 0.86016
 C73 C 0.87773 1.27262 0.87738
 C74 C 0.85494 1.28211 0.88196
 H75 H 0.90571 1.28613 0.85199
 H76 H 0.84153 1.27499 0.89448
 H77 H 0.83905 1.32695 0.83197
 H78 H 0.85011 1.34724 0.85686
 N79 N 0.87266 0.85574 0.30485
 N80 N 0.85586 0.87276 0.30515
 C81 C 0.85937 0.88778 0.28605
 C82 C 0.87945 0.87968 0.27320
 C83 C 0.88743 0.85933 0.28565
 H84 H 0.84815 0.90334 0.28170
 H85 H 0.90275 0.84791 0.28098
 Cu86 Cu 0.83095 0.87343 0.33037
 Cu87 Cu 0.87407 0.83002 0.32915
 Cu88 Cu 0.82933 0.82996 0.37355
 N89 N 0.80558 0.87275 0.35514
 N90 N 0.80510 0.85569 0.37192
 C91 C 0.78585 0.85932 0.38659
 C92 C 0.77361 0.87974 0.37858
 C93 C 0.78657 0.88784 0.35858
 H94 H 0.78102 0.84792 0.40190
 H95 H 0.78235 0.90347 0.34739
 N96 N 0.85541 0.80546 0.37217
 N97 N 0.87247 0.80550 0.35526
 C98 C 0.88747 0.78651 0.35908
 C99 C 0.87944 0.77399 0.37933
 C100 C 0.85912 0.78644 0.38720
 H101 H 0.90301 0.78196 0.34792
 H102 H 0.84784 0.78183 0.40265
 H103 H 0.83725 0.83001 0.33675
 H104 H 0.85701 0.84902 0.35679
 N105 N 0.62790 0.64499 0.30550
 N106 N 0.64547 0.62878 0.30509
 C107 C 0.64192 0.61367 0.28612
 C108 C 0.62106 0.62088 0.27409
 C109 C 0.61263 0.64079 0.28685
 H110 H 0.65363 0.59862 0.28129
 H111 H 0.59665 0.65149 0.28274
 Cu112 Cu 0.67133 0.62904 0.32929
 Cu113 Cu 0.62619 0.67047 0.32994
 Cu114 Cu 0.67085 0.67066 0.37432
 N115 N 0.69567 0.62897 0.35501
 N116 N 0.69535 0.64525 0.37253
 C117 C 0.71412 0.64114 0.38770
 C118 C 0.72684 0.62121 0.37924
 C119 C 0.71468 0.61390 0.35849
 H120 H 0.71830 0.65189 0.40363
 H121 H 0.71945 0.59882 0.34680
 N122 N 0.64453 0.69489 0.37306
 N123 N 0.62750 0.69480 0.35614
 C124 C 0.61241 0.71371 0.35993
 C125 C 0.62036 0.72625 0.38017
 C126 C 0.64072 0.71388 0.38807
 H127 H 0.59692 0.71825 0.34869
 H128 H 0.65202 0.71858 0.40347
 H129 H 0.66297 0.67185 0.33754
 H130 H 0.64417 0.65092 0.35666
 N131 N 0.62785 0.14515 0.80420
 N132 N 0.64527 0.12877 0.80389
 C133 C 0.64176 0.11375 0.78482
 C134 C 0.62106 0.12122 0.77259
 C135 C 0.61270 0.14117 0.78538
 H136 H 0.65340 0.09862 0.78007
 H137 H 0.59684 0.15205 0.78124
 Cu138 Cu 0.67091 0.12882 0.82837
 Cu139 Cu 0.62613 0.17057 0.82877
 Cu140 Cu 0.67069 0.17045 0.87329
 N141 N 0.69540 0.12864 0.85399
 N142 N 0.69516 0.14499 0.87146
 C143 C 0.71398 0.14095 0.88657
 C144 C 0.72668 0.12099 0.87815
 C145 C 0.71444 0.11360 0.85746
 H146 H 0.71822 0.15177 0.90244
 H147 H 0.71919 0.09849 0.84579
 N148 N 0.64444 0.19475 0.87211
 N149 N 0.62745 0.19480 0.85514
 C150 C 0.61239 0.21373 0.85905
 C151 C 0.62032 0.22611 0.87942
 C152 C 0.64064 0.21363 0.88726
 H153 H 0.59693 0.21838 0.84782
 H154 H 0.65190 0.21818 0.90272
 H155 H 0.66284 0.17168 0.83649
 H156 H 0.64381 0.15098 0.85558
 N157 N 1.12793 0.64342 0.80629
 N158 N 1.14691 0.62905 0.80413
 C159 C 1.14343 0.61399 0.78512
 C160 C 1.12112 0.61933 0.77484
 C161 C 1.11175 0.63805 0.78873
 H162 H 1.15636 0.60055 0.77886
 H163 H 1.09475 0.64748 0.78583
 Cu164 Cu 1.17474 0.63189 0.82570
 Cu165 Cu 1.12649 0.66938 0.83028
 Cu166 Cu 1.17672 0.67614 0.86776
 N167 N 1.19769 0.63090 0.85263
 N168 N 1.19840 0.64829 0.86901
 C169 C 1.21655 0.64378 0.88480
 C170 C 1.22776 0.62236 0.87797
 C171 C 1.21534 0.61461 0.85750
 H172 H 1.22151 0.65546 0.89984
 H173 H 1.21919 0.59863 0.84671
 N174 N 1.14811 0.69754 0.86943
 N175 N 1.12874 0.69467 0.85555
 C176 C 1.11247 0.71218 0.86094
 C177 C 1.12210 0.72665 0.87906
 C178 C 1.14465 0.71684 0.88409
 H179 H 1.09507 0.71454 0.85210
 H180 H 1.15769 0.72350 0.89722
 H181 H 1.16312 0.67461 0.83226
 H182 H 1.14996 0.65343 0.85530
 N183 N 1.12784 0.14482 0.30512
 N184 N 1.14535 0.12854 0.30479
 C185 C 1.14184 0.11346 0.28578
 C186 C 1.12107 0.12076 0.27365
 C187 C 1.11264 0.14069 0.28638
 H188 H 1.15352 0.09839 0.28098
 H189 H 1.09672 0.15145 0.28221
 Cu190 Cu 1.17110 0.12877 0.32910
 Cu191 Cu 1.12607 0.17025 0.32961
 Cu192 Cu 1.17070 0.17043 0.37404
 N193 N 1.19557 0.12874 0.35470
 N194 N 1.19527 0.14507 0.37218
 C195 C 1.21411 0.14106 0.38728
 C196 C 1.22686 0.12115 0.37882
 C197 C 1.21464 0.11375 0.35813
 H198 H 1.21833 0.15187 0.40317
 H199 H 1.21941 0.09865 0.34646
 N200 N 1.14432 0.19460 0.37283
 N201 N 1.12732 0.19454 0.35588
 C202 C 1.11219 0.21342 0.35972
 C203 C 1.12009 0.22589 0.38002
 C204 C 1.14046 0.21352 0.38791
 H205 H 1.09672 0.21798 0.34847
 H206 H 1.15173 0.21818 0.40334
 H207 H 1.16288 0.17160 0.33730
 H208 H 1.14402 0.15077 0.35644
 N209 N 0.62786 1.35529 0.69491
 N210 N 0.64545 1.37145 0.69536
 C211 C 0.64198 1.38646 0.71444
 C212 C 0.62115 1.37923 0.72649
 C213 C 0.61265 1.35942 0.71364
 H214 H 0.65373 1.40143 0.71933
 H215 H 0.59666 1.34875 0.71774
 Cu216 Cu 0.67125 1.37124 0.67108
 Cu217 Cu 0.62605 1.32994 0.67035
 Cu218 Cu 0.67066 1.32983 0.62587
 N219 N 0.69559 1.37137 0.64533
 N220 N 0.69522 1.35517 0.62774
 C221 C 0.71399 1.35928 0.61257
 C222 C 0.72677 1.37912 0.62110
 C223 C 0.71464 1.38639 0.64191
 H224 H 0.71814 1.34858 0.59659
 H225 H 0.71946 1.40139 0.65366
 N226 N 0.64429 1.30568 0.62706
 N227 N 0.62728 1.30574 0.64402
 C228 C 0.61215 1.28690 0.64015
 C229 C 0.62004 1.27444 0.61983
 C230 C 0.64042 1.28678 0.61196
 H231 H 0.59667 1.28235 0.65139
 H232 H 0.65170 1.28212 0.59652
 H233 H 0.66282 1.32850 0.66266
 H234 H 0.64402 1.34955 0.64367
 N235 N 0.62748 0.85559 1.19420
 N236 N 0.64451 0.87235 1.19400
 C237 C 0.64096 0.88753 1.21293
 C238 C 0.62063 0.87980 1.22554
 C239 C 0.61253 0.85952 1.21319
 H240 H 0.65232 0.90294 1.21736
 H241 H 0.59702 0.84837 1.21780
 Cu242 Cu 0.66971 0.87238 1.16911
 Cu243 Cu 0.62596 0.82977 1.17007
 Cu244 Cu 0.67068 0.82944 1.12558
 N245 N 0.69470 0.87202 1.14403
 N246 N 0.69494 0.85514 1.12707
 C247 C 0.71400 0.85892 1.11219
 C248 C 0.72634 0.87923 1.12024
 C249 C 0.71365 0.88712 1.14048
 H250 H 0.71865 0.84766 1.09673
 H251 H 0.71803 0.90261 1.15176
 N252 N 0.64455 0.80503 1.12716
 N253 N 0.62752 0.80518 1.14411
 C254 C 0.61247 0.78624 1.14041
 C255 C 0.62042 0.77363 1.12021
 C256 C 0.64077 0.78597 1.11224
 H257 H 0.59693 0.78179 1.15161
 H258 H 0.65201 0.78127 1.09679
 H259 H 0.66272 0.82915 1.16235
 H260 H 0.64325 0.84875 1.14255
 N261 N 1.12715 1.35552 1.19424
 N262 N 1.14397 1.37248 1.19386
 C263 C 1.14046 1.38761 1.21283
 C264 C 1.12037 1.37965 1.22566
 C265 C 1.11236 1.35927 1.21340
 H266 H 1.15168 1.40315 1.21714
 H267 H 1.09703 1.34794 1.21818
 Cu268 Cu 1.16890 1.37298 1.16875
 Cu269 Cu 1.12574 1.32969 1.17012
 Cu270 Cu 1.17056 1.32944 1.12576
 N271 N 1.19424 1.37225 1.14405
 N272 N 1.19476 1.35519 1.12730
 C273 C 1.21405 1.35882 1.11267
 C274 C 1.22624 1.37924 1.12071
 C275 C 1.21324 1.38732 1.14065
 H276 H 1.21895 1.34742 1.09740
 H277 H 1.21742 1.40294 1.15184
 N278 N 1.14447 1.30497 1.12726
 N279 N 1.12739 1.30509 1.14416
 C280 C 1.11238 1.28612 1.14041
 C281 C 1.12042 1.27352 1.12023
 C282 C 1.14076 1.28591 1.11232
 H283 H 1.09681 1.28166 1.15156
 H284 H 1.15205 1.28124 1.09689
 H285 H 1.16257 1.32955 1.16255
 H286 H 1.14286 1.34857 1.14243
 N287 N 1.12804 0.85513 0.69442
 N288 N 1.14557 0.87136 0.69480
 C289 C 1.14205 0.88642 0.71383
 C290 C 1.12126 0.87915 0.72592
 C291 C 1.11282 0.85926 0.71315
 H292 H 1.15374 0.90145 0.71866
 H293 H 1.09688 0.84854 0.71728
 Cu294 Cu 1.17135 0.87117 0.67051
 Cu295 Cu 1.12630 0.82974 0.66992
 Cu296 Cu 1.17089 0.82962 0.62542
 N297 N 1.19568 0.87129 0.64478
 N298 N 1.19539 0.85504 0.62723
 C299 C 1.21416 0.85919 0.61207
 C300 C 1.22684 0.87911 0.62057
 C301 C 1.21466 0.88638 0.64133
 H302 H 1.21838 0.84846 0.59612
 H303 H 1.21939 0.90144 0.65304
 N304 N 1.14456 0.80540 0.62669
 N305 N 1.12757 0.80549 0.64366
 C306 C 1.11246 0.78661 0.63988
 C307 C 1.12035 0.77409 0.61960
 C308 C 1.14071 0.78644 0.61165
 H309 H 1.09700 0.78207 0.65115
 H310 H 1.15197 0.78175 0.59622
 H311 H 1.16309 0.82837 0.66218
 H312 H 1.14423 0.84931 0.64313
 N313 N 0.37247 0.64444 0.69458
 N314 N 0.35570 0.62742 0.69417
 C315 C 0.35920 0.61230 0.71318
 C316 C 0.37921 0.62034 0.72607
 C317 C 0.38719 0.64074 0.71379
 H318 H 0.34801 0.59672 0.71747
 H319 H 0.40247 0.65212 0.71860
 Cu320 Cu 0.33087 0.62689 0.66892
 Cu321 Cu 0.37393 0.67028 0.67044
 Cu322 Cu 0.32934 0.67051 0.62591
 N323 N 0.30563 0.62763 0.64411
 N324 N 0.30517 0.64474 0.62737
 C325 C 0.28597 0.64112 0.61265
 C326 C 0.27375 0.62068 0.62060
 C327 C 0.28667 0.61254 0.64059
 H328 H 0.28113 0.65257 0.59737
 H329 H 0.28245 0.59688 0.65174
 N330 N 0.35538 0.69503 0.62749
 N331 N 0.37237 0.69491 0.64446
 C332 C 0.38738 0.71390 0.64076
 C333 C 0.37942 0.72650 0.62053
 C334 C 0.35913 0.71410 0.61255
 H335 H 0.40288 0.71838 0.65197
 H336 H 0.34791 0.71877 0.59707
 H337 H 0.33713 0.67032 0.66271
 H338 H 0.35698 0.65137 0.64267
 N339 N 0.37183 0.14436 1.19452
 N340 N 0.35430 0.12813 1.19496
 C341 C 0.35789 0.11303 1.21397
 C342 C 0.37872 0.12030 1.22598
 C343 C 0.38710 0.14020 1.21319
 H344 H 0.34621 0.09800 1.21886
 H345 H 0.40304 0.15094 1.21729
 Cu346 Cu 0.32844 0.12842 1.17077
 Cu347 Cu 0.37348 0.16985 1.17012
 Cu348 Cu 0.32884 0.17017 1.12574
 N349 N 0.30411 0.12839 1.14504
 N350 N 0.30439 0.14472 1.12753
 C351 C 0.28563 0.14061 1.11236
 C352 C 0.27297 0.12064 1.12080
 C353 C 0.28514 0.11330 1.14155
 H354 H 0.28141 0.15140 1.09643
 H355 H 0.28042 0.09818 1.15322
 N356 N 0.35514 0.19440 1.12704
 N357 N 0.37217 0.19422 1.14397
 C358 C 0.38727 0.21311 1.14023
 C359 C 0.37935 0.22573 1.12002
 C360 C 0.35898 0.21343 1.11206
 H361 H 0.40275 0.21758 1.15148
 H362 H 0.34770 0.21820 1.09666
 H363 H 0.33663 0.17125 1.16247
 H364 H 0.35546 0.15037 1.14332
 N365 N 0.87247 0.64404 1.19419
 N366 N 0.85589 0.62684 1.19371
 C367 C 0.85948 0.61177 1.21273
 C368 C 0.87936 0.62001 1.22568
 C369 C 0.88716 0.64050 1.21345
 H370 H 0.84841 0.59609 1.21700
 H371 H 0.90228 0.65206 1.21834
 Cu372 Cu 0.83105 0.62603 1.16849
 Cu373 Cu 0.87372 0.66986 1.17009
 Cu374 Cu 0.82895 0.67010 1.12583
 N375 N 0.80556 0.62703 1.14394
 N376 N 0.80485 0.64430 1.12738
 C377 C 0.78545 0.64080 1.11289
 C378 C 0.77338 0.62026 1.12081
 C379 C 0.78657 0.61195 1.14055
 H380 H 0.78038 0.65239 1.09780
 H381 H 0.78251 0.59620 1.15162
 N382 N 0.85496 0.69464 1.12731
 N383 N 0.87203 0.69451 1.14419
 C384 C 0.88704 0.71348 1.14043
 C385 C 0.87902 0.72608 1.12024
 C386 C 0.85866 0.71372 1.11236
 H387 H 0.90260 0.71793 1.15158
 H388 H 0.84737 0.71841 1.09694
 H389 H 0.83682 0.66956 1.16257
 H390 H 0.85676 0.65097 1.14224
 N391 N 0.87229 0.14464 0.69424
 N392 N 0.85520 0.12795 0.69413
 C393 C 0.85872 0.11281 0.71313
 C394 C 0.87908 0.12051 0.72568
 C395 C 0.88723 0.14073 0.71323
 H396 H 0.84732 0.09744 0.71762
 H397 H 0.90280 0.15183 0.71777
 Cu398 Cu 0.83006 0.12796 0.66919
 Cu399 Cu 0.87392 0.17032 0.66996
 Cu400 Cu 0.82921 0.17065 0.62541
 N401 N 0.80505 0.12824 0.64412
 N402 N 0.80487 0.14503 0.62707
 C403 C 0.78581 0.14125 0.61219
 C404 C 0.77342 0.12100 0.62036
 C405 C 0.78607 0.11316 0.64065
 H406 H 0.78121 0.15243 0.59665
 H407 H 0.78166 0.09772 0.65202
 N408 N 0.85546 0.19497 0.62689
 N409 N 0.87247 0.19481 0.64385
 C410 C 0.88756 0.21372 0.64010
 C411 C 0.87965 0.22631 0.61988
 C412 C 0.85930 0.21400 0.61192
 H413 H 0.90307 0.21817 0.65132
 H414 H 0.84807 0.21873 0.59646
 H415 H 0.83715 0.17124 0.66215
 H416 H 0.85653 0.15151 0.64250
 N417 N 1.35524 0.37153 0.69507
 N418 N 1.37163 0.35412 0.69536
 C419 C 1.38665 0.35766 0.71442
 C420 C 1.37918 0.37834 0.72663
 C421 C 1.35922 0.38667 0.71388
 H422 H 1.40180 0.34606 0.71920
 H423 H 1.34835 0.40250 0.71810
 Cu424 Cu 1.37151 0.32844 0.67089
 Cu425 Cu 1.32980 0.37326 0.67056
 Cu426 Cu 1.32978 0.32867 0.62607
 N427 N 1.37159 0.30389 0.64530
 N428 N 1.35521 0.30414 0.62786
 C429 C 1.35919 0.28529 0.61275
 C430 C 1.37914 0.27252 0.62116
 C431 C 1.38661 0.28481 0.64184
 H432 H 1.34831 0.28110 0.59690
 H433 H 1.40175 0.28011 0.65349
 N434 N 1.30552 0.35499 0.62729
 N435 N 1.30553 0.37198 0.64427
 C436 C 1.28664 0.38708 0.64042
 C437 C 1.27419 0.37919 0.62010
 C438 C 1.28660 0.35885 0.61220
 H439 H 1.28206 0.40255 0.65166
 H440 H 1.28199 0.34760 0.59674
 H441 H 1.32863 0.33650 0.66285
 H442 H 1.34928 0.35553 0.64370
 N443 N 1.35554 0.87191 1.19527
 N444 N 1.37230 0.85484 1.19520
 C445 C 1.38736 0.85841 1.21424
 C446 C 1.37953 0.87877 1.22682
 C447 C 1.35932 0.88688 1.21426
 H448 H 1.40276 0.84702 1.21873
 H449 H 1.34812 0.90243 1.21872
 Cu450 Cu 1.37247 0.82960 1.17027
 Cu451 Cu 1.32987 0.87341 1.17093
 Cu452 Cu 1.32981 0.82873 1.12645
 N453 N 1.37224 0.80456 1.14514
 N454 N 1.35548 0.80441 1.12808
 C455 C 1.35926 0.78535 1.11319
 C456 C 1.37948 0.77285 1.12136
 C457 C 1.38731 0.78552 1.14166
 H458 H 1.34806 0.78082 1.09766
 H459 H 1.40272 0.78109 1.15307
 N460 N 1.30535 0.85490 1.12785
 N461 N 1.30539 0.87192 1.14479
 C462 C 1.28640 0.88693 1.14101
 C463 C 1.27388 0.87896 1.12076
 C464 C 1.28633 0.85865 1.11285
 H465 H 1.28184 0.90244 1.15221
 H466 H 1.28171 0.84739 1.09740
 H467 H 1.32929 0.83666 1.16318
 H468 H 1.34899 0.85612 1.14351
 N469 N 0.85513 0.37199 1.19579
 N470 N 0.87155 0.35461 1.19601
 C471 C 0.88660 0.35810 1.21505
 C472 C 0.87912 0.37876 1.22736
 C473 C 0.85911 0.38711 1.21463
 H474 H 0.90178 0.34649 1.21973
 H475 H 0.84821 0.40293 1.21884
 Cu476 Cu 0.87146 0.32904 1.17144
 Cu477 Cu 0.82963 0.37373 1.17131
 Cu478 Cu 0.82964 0.32929 1.12668
 N479 N 0.87158 0.30461 1.14574
 N480 N 0.85516 0.30486 1.12835
 C481 C 0.85917 0.28607 1.11319
 C482 C 0.87917 0.27339 1.12150
 C483 C 0.88665 0.28560 1.14218
 H484 H 0.84827 0.28182 1.09737
 H485 H 0.90181 0.28086 1.15377
 N486 N 0.80531 0.35551 1.12803
 N487 N 0.80531 0.37246 1.14504
 C488 C 0.78635 0.38751 1.14125
 C489 C 0.77390 0.37962 1.12092
 C490 C 0.78637 0.35934 1.11297
 H491 H 0.78174 0.40294 1.15253
 H492 H 0.78177 0.34811 1.09748
 H493 H 0.82855 0.33700 1.16349
 H494 H 0.84911 0.35614 1.14436
 N495 N 0.85499 0.87201 0.69489
 N496 N 0.87124 0.85447 0.69524
 C497 C 0.88633 0.85797 0.71424
 C498 C 0.87907 0.87875 0.72636
 C499 C 0.85914 0.88721 0.71363
 H500 H 0.90140 0.84627 0.71903
 H501 H 0.84842 0.90316 0.71779
 Cu502 Cu 0.87104 0.82874 0.67093
 Cu503 Cu 0.82957 0.87380 0.67039
 Cu504 Cu 0.82944 0.82918 0.62591
 N505 N 0.87111 0.80432 0.64529
 N506 N 0.85483 0.80461 0.62777
 C507 C 0.85894 0.78579 0.61265
 C508 C 0.87886 0.77308 0.62115
 C509 C 0.88617 0.78529 0.64187
 H510 H 0.84820 0.78158 0.59671
 H511 H 0.90125 0.78055 0.65357
 N512 N 0.80524 0.85556 0.62713
 N513 N 0.80531 0.87256 0.64410
 C514 C 0.78644 0.88770 0.64027
 C515 C 0.77396 0.87983 0.61996
 C516 C 0.78632 0.85945 0.61206
 H517 H 0.78189 0.90317 0.65152
 H518 H 0.78167 0.84821 0.59661
 H519 H 0.82824 0.83702 0.66267
 H520 H 0.84908 0.85591 0.64359
 N521 N 0.64464 0.62754 0.69475
 N522 N 0.62787 0.64459 0.69458
 C523 C 0.61272 0.64103 0.71355
 C524 C 0.62049 0.62070 0.72617
 C525 C 0.64076 0.61259 0.71377
 H526 H 0.59730 0.65238 0.71800
 H527 H 0.65193 0.59707 0.71836
 Cu528 Cu 0.62775 0.66980 0.66964
 Cu529 Cu 0.67043 0.62603 0.67054
 Cu530 Cu 0.67060 0.67069 0.62596
 N531 N 0.62807 0.69480 0.64450
 N532 N 0.64489 0.69497 0.62748
 C533 C 0.64112 0.71405 0.61259
 C534 C 0.62088 0.72649 0.62070
 C535 C 0.61301 0.71382 0.64098
 H536 H 0.65234 0.71866 0.59709
 H537 H 0.59757 0.71827 0.65232
 N538 N 0.69506 0.64456 0.62751
 N539 N 0.69499 0.62756 0.64450
 C540 C 0.71400 0.61255 0.64081
 C541 C 0.72657 0.62052 0.62057
 C542 C 0.71411 0.64081 0.61256
 H543 H 0.71853 0.59706 0.65206
 H544 H 0.71875 0.65205 0.59708
 H545 H 0.67099 0.66287 0.66278
 H546 H 0.65140 0.64335 0.64308
 N547 N 0.64500 1.12782 1.19553
 N548 N 0.62877 1.14539 1.19586
 C549 C 0.61370 1.14196 1.21490
 C550 C 0.62096 1.12117 1.22710
 C551 C 0.64086 1.11265 1.21432
 H552 H 0.59866 1.15372 1.21965
 H553 H 0.65158 1.09669 1.21846
 Cu554 Cu 0.62891 1.17109 1.17146
 Cu555 Cu 0.67044 1.12605 1.17099
 Cu556 Cu 0.67050 1.17064 1.12642
 N557 N 0.62876 1.19542 1.14570
 N558 N 0.64505 1.19513 1.12817
 C559 C 0.64090 1.21390 1.11297
 C560 C 0.62094 1.22658 1.12142
 C561 C 0.61366 1.21440 1.14219
 H562 H 0.65165 1.21811 1.09703
 H563 H 0.59857 1.21914 1.15388
 N564 N 0.69477 1.14435 1.12771
 N565 N 0.69473 1.12732 1.14467
 C566 C 0.71364 1.11222 1.14081
 C567 C 0.72610 1.12017 1.12048
 C568 C 0.71369 1.14053 1.11261
 H569 H 0.71821 1.09672 1.15204
 H570 H 0.71831 1.15182 1.09716
 H571 H 0.67172 1.16280 1.16322
 H572 H 0.65089 1.14388 1.14419
 N573 N 0.14440 0.62844 1.19549
 N574 N 0.12809 0.64591 1.19578
 C575 C 0.11303 0.64240 1.21484
 C576 C 0.12042 0.62165 1.22707
 C577 C 0.14035 0.61325 1.21428
 H578 H 0.09794 0.65409 1.21960
 H579 H 0.15119 0.59736 1.21844
 Cu580 Cu 0.12834 0.67165 1.17134
 Cu581 Cu 0.16992 0.62672 1.17105
 Cu582 Cu 0.17023 0.67142 1.12659
 N583 N 0.12838 0.69622 1.14571
 N584 N 0.14481 0.69597 1.12832
 C585 C 0.14088 0.71484 1.11318
 C586 C 0.12091 0.72760 1.12153
 C587 C 0.11338 0.71530 1.14220
 H588 H 0.15180 0.71903 1.09734
 H589 H 0.09821 0.72000 1.15381
 N590 N 0.19444 0.64505 1.12790
 N591 N 0.19430 0.62801 1.14485
 C592 C 0.21319 0.61288 1.14108
 C593 C 0.22576 0.62081 1.12082
 C594 C 0.21343 0.64120 1.11290
 H595 H 0.21768 0.59737 1.15232
 H596 H 0.21815 0.65249 1.09747
 H597 H 0.17122 0.66350 1.16337
 H598 H 0.15058 0.64458 1.14414
 N599 N 0.14476 1.12865 0.69533
 N600 N 0.12839 1.14608 0.69557
 C601 C 0.11335 1.14259 0.71466
 C602 C 0.12081 1.12191 0.72697
 C603 C 0.14077 1.11353 0.71419
 H604 H 0.09822 1.15423 0.71937
 H605 H 0.15165 1.09768 0.71840
 Cu606 Cu 0.12853 1.17170 0.67099
 Cu607 Cu 0.17021 1.12689 0.67078
 Cu608 Cu 0.17027 1.17146 0.62616
 N609 N 0.12848 1.19630 0.64538
 N610 N 0.14486 1.19604 0.62794
 C611 C 0.14093 1.21493 0.61283
 C612 C 0.12101 1.22774 0.62125
 C613 C 0.11350 1.21542 0.64193
 H614 H 0.15183 1.21913 0.59698
 H615 H 0.09838 1.22014 0.65359
 N616 N 0.19450 1.14509 0.62743
 N617 N 0.19448 1.12812 0.64445
 C618 C 0.21338 1.11301 0.64062
 C619 C 0.22582 1.12087 0.62025
 C620 C 0.21341 1.14122 0.61233
 H621 H 0.21797 1.09755 0.65190
 H622 H 0.21803 1.15246 0.59684
 H623 H 0.17140 1.16368 0.66289
 H624 H 0.15078 1.14465 0.64379
 N625 N 1.35542 0.62871 0.30612
 N626 N 1.37160 0.64628 0.30562
 C627 C 1.38664 0.64270 0.28657
 C628 C 1.37938 0.62182 0.27461
 C629 C 1.35955 0.61341 0.28747
 H630 H 1.40162 0.65442 0.28162
 H631 H 1.34883 0.59744 0.28341
 Cu632 Cu 1.37127 0.67224 0.32973
 Cu633 Cu 1.32998 0.62706 0.33055
 Cu634 Cu 1.32960 0.67188 0.37477
 N635 N 1.37129 0.69669 0.35537
 N636 N 1.35500 0.69643 0.37289
 C637 C 1.35907 0.71526 0.38800
 C638 C 1.37900 0.72799 0.37949
 C639 C 1.38634 0.71572 0.35876
 H640 H 1.34829 0.71945 0.40393
 H641 H 1.40143 0.72039 0.34704
 N642 N 1.30541 0.64548 0.37356
 N643 N 1.30563 0.62839 0.35670
 C644 C 1.28679 0.61325 0.36046
 C645 C 1.27414 0.62119 0.38063
 C646 C 1.28637 0.64164 0.38852
 H647 H 1.28236 0.59772 0.34925
 H648 H 1.28155 0.65298 0.40386
 H649 H 1.32853 0.66392 0.33809
 H650 H 1.34945 0.64519 0.35729
 N651 N 1.35511 1.12821 0.80548
 N652 N 1.37132 1.14577 0.80510
 C653 C 1.38637 1.14230 0.78605
 C654 C 1.37912 1.12151 0.77395
 C655 C 1.35925 1.11303 0.78673
 H656 H 1.40139 1.15402 0.78121
 H657 H 1.34854 1.09708 0.78257
 Cu658 Cu 1.37107 1.17152 0.82941
 Cu659 Cu 1.32971 1.12639 0.82997
 Cu660 Cu 1.32950 1.17092 0.87448
 N661 N 1.37112 1.19584 0.85515
 N662 N 1.35484 1.19548 0.87268
 C663 C 1.35892 1.21424 0.88787
 C664 C 1.37882 1.22698 0.87941
 C665 C 1.38615 1.21485 0.85863
 H666 H 1.34816 1.21839 0.90382
 H667 H 1.40122 1.21965 0.84694
 N668 N 1.30534 1.14455 0.87322
 N669 N 1.30544 1.12757 0.85624
 C670 C 1.28658 1.11244 0.86003
 C671 C 1.27407 1.12029 0.88034
 C672 C 1.28639 1.14065 0.88827
 H673 H 1.28206 1.09699 0.84875
 H674 H 1.28169 1.15190 0.90372
 H675 H 1.32830 1.16318 0.83771
 H676 H 1.34923 1.14429 0.85674
 N677 N 0.85497 0.62767 0.80539
 N678 N 0.87119 0.64520 0.80497
 C679 C 0.88628 0.64165 0.78597
 C680 C 0.87904 0.62083 0.77393
 C681 C 0.85914 0.61241 0.78670
 H682 H 0.90133 0.65333 0.78114
 H683 H 0.84843 0.59645 0.78259
 Cu684 Cu 0.87102 0.67102 0.82918
 Cu685 Cu 0.82957 0.62597 0.82992
 Cu686 Cu 0.82950 0.67064 0.87431
 N687 N 0.87116 0.69539 0.85485
 N688 N 0.85491 0.69512 0.87241
 C689 C 0.85907 0.71389 0.88754
 C690 C 0.87899 0.72656 0.87901
 C691 C 0.88625 0.71436 0.85826
 H692 H 0.84835 0.71812 0.90350
 H693 H 0.90132 0.71908 0.84654
 N694 N 0.80528 0.64434 0.87315
 N695 N 0.80533 0.62730 0.85623
 C696 C 0.78646 0.61220 0.86012
 C697 C 0.77400 0.62014 0.88043
 C698 C 0.78636 0.64052 0.88826
 H699 H 0.78191 0.59670 0.84892
 H700 H 0.78173 0.65181 0.90369
 H701 H 0.82824 0.66275 0.83754
 H702 H 0.84915 0.64388 0.85660
 N703 N 0.85528 1.12770 0.30546
 N704 N 0.87154 1.14520 0.30505
 C705 C 0.88660 1.14164 0.28602
 C706 C 0.87929 1.12084 0.27397
 C707 C 0.85939 1.11245 0.28676
 H708 H 0.90164 1.15332 0.28115
 H709 H 0.84862 1.09655 0.28262
 Cu710 Cu 0.87129 1.17105 0.32925
 Cu711 Cu 0.82978 1.12608 0.32987
 Cu712 Cu 0.82948 1.17093 0.37408
 N713 N 0.87131 1.19557 0.35480
 N714 N 0.85492 1.19540 0.37223
 C715 C 0.85898 1.21424 0.38732
 C716 C 0.87899 1.22685 0.37890
 C717 C 0.88640 1.21455 0.35825
 H718 H 0.84815 1.21854 0.40317
 H719 H 0.90157 1.21919 0.34663
 N720 N 0.80525 1.14462 0.37288
 N721 N 0.80541 1.12750 0.35604
 C722 C 0.78651 1.11242 0.35987
 C723 C 0.77391 1.12046 0.38004
 C724 C 0.78623 1.14087 0.38787
 H725 H 0.78202 1.09688 0.34870
 H726 H 0.78148 1.15224 0.40321
 H727 H 0.82845 1.16292 0.33735
 H728 H 0.84918 1.14409 0.35665
 N729 N 0.64375 0.37261 0.30563
 N730 N 0.62753 0.35507 0.30520
 C731 C 0.61238 0.35868 0.28626
 C732 C 0.61960 0.37957 0.27420
 C733 C 0.63953 0.38797 0.28700
 H734 H 0.59742 0.34690 0.28138
 H735 H 0.65039 0.40382 0.28282
 Cu736 Cu 0.62798 0.32924 0.32947
 Cu737 Cu 0.66991 0.37367 0.32946
 Cu738 Cu 0.67482 0.32419 0.36836
 N739 N 0.62899 0.30368 0.35399
 N740 N 0.64730 0.30195 0.36928
 C741 C 0.64376 0.28272 0.38404
 C742 C 0.62204 0.27181 0.37763
 C743 C 0.61312 0.28557 0.35851
 H744 H 0.65617 0.27697 0.39820
 H745 H 0.59643 0.28249 0.34858
 N746 N 0.69737 0.35203 0.36920
 N747 N 0.69524 0.37104 0.35465
 C748 C 0.71322 0.38689 0.35959
 C749 C 0.72723 0.37744 0.37817
 C750 C 0.71669 0.35537 0.38389
 H751 H 0.71612 0.40396 0.35024
 H752 H 0.72277 0.34265 0.39764
 H753 H 0.67164 0.33669 0.33263
 H754 H 0.65370 0.35269 0.35666
 N755 N 0.64436 0.87261 0.80590
 N756 N 0.62736 0.85582 0.80627
 C757 C 0.61229 0.85938 0.78725
 C758 C 0.62033 0.87946 0.77440
 C759 C 0.64069 0.88740 0.78672
 H760 H 0.59673 0.84818 0.78292
 H761 H 0.65207 0.90271 0.78195
 Cu762 Cu 0.62683 0.83086 0.83146
 Cu763 Cu 0.67014 0.87397 0.83006
 Cu764 Cu 0.67041 0.82920 0.87448
 N765 N 0.62760 0.80548 0.85620
 N766 N 0.64467 0.80498 0.87296
 C767 C 0.64108 0.78567 0.88759
 C768 C 0.62070 0.77343 0.87958
 C769 C 0.61257 0.78644 0.85963
 H770 H 0.65250 0.78079 0.90286
 H771 H 0.59695 0.78224 0.84846
 N772 N 0.69488 0.85531 0.87295
 N773 N 0.69475 0.87236 0.85601
 C774 C 0.71372 0.88738 0.85971
 C775 C 0.72633 0.87937 0.87990
 C776 C 0.71395 0.85904 0.88787
 H777 H 0.71818 0.90292 0.84851
 H778 H 0.71863 0.84777 0.90332
 H779 H 0.67025 0.83709 0.83771
 H780 H 0.65129 0.85686 0.85781
 N781 N 0.14469 0.37169 0.80606
 N782 N 0.12766 0.35493 0.80642
 C783 C 0.11265 0.35848 0.78735
 C784 C 0.12077 0.37852 0.77449
 C785 C 0.14112 0.38644 0.78684
 H786 H 0.09706 0.34734 0.78302
 H787 H 0.15252 0.40174 0.78209
 Cu788 Cu 0.12696 0.33006 0.83169
 Cu789 Cu 0.17033 0.37314 0.83035
 Cu790 Cu 0.17032 0.32852 0.87493
 N791 N 0.12761 0.30473 0.85650
 N792 N 0.14460 0.30428 0.87334
 C793 C 0.14095 0.28502 0.88803
 C794 C 0.12060 0.27271 0.87994
 C795 C 0.11256 0.28570 0.85989
 H796 H 0.15232 0.28023 0.90337
 H797 H 0.09702 0.28148 0.84862
 N798 N 0.19480 0.35462 0.87346
 N799 N 0.19476 0.37161 0.85645
 C800 C 0.21370 0.38665 0.86020
 C801 C 0.22620 0.37873 0.88049
 C802 C 0.21379 0.35842 0.88847
 H803 H 0.21823 0.40215 0.84896
 H804 H 0.21840 0.34720 0.90398
 H805 H 0.17034 0.33629 0.83811
 H806 H 0.15129 0.35616 0.85804
 N807 N 0.14480 0.87134 0.30555
 N808 N 0.12853 0.85384 0.30523
 C809 C 0.11345 0.85737 0.28621
 C810 C 0.12075 0.87814 0.27405
 C811 C 0.14067 0.88654 0.28678
 H812 H 0.09839 0.84569 0.28142
 H813 H 0.15144 0.90245 0.28257
 Cu814 Cu 0.12882 0.82808 0.32958
 Cu815 Cu 0.17029 0.87304 0.32998
 Cu816 Cu 0.17068 0.82822 0.37434
 N817 N 0.12889 0.80348 0.35511
 N818 N 0.14528 0.80365 0.37253
 C819 C 0.14127 0.78475 0.38761
 C820 C 0.12129 0.77207 0.37917
 C821 C 0.11384 0.78445 0.35853
 H822 H 0.15213 0.78049 0.40347
 H823 H 0.09869 0.77984 0.34689
 N824 N 0.19485 0.85464 0.37308
 N825 N 0.19465 0.87172 0.35617
 C826 C 0.21347 0.88690 0.35997
 C827 C 0.22607 0.87898 0.38020
 C828 C 0.21383 0.85851 0.38809
 H829 H 0.21788 0.90245 0.34876
 H830 H 0.21860 0.84721 0.40348
 H831 H 0.17167 0.83624 0.33760
 H832 H 0.15097 0.85508 0.35687
 O833 O 0.97662 0.91209 0.87865
 O834 O 0.97661 0.88381 0.85020
 C835 C 0.96827 0.90355 0.85886
 C836 C 0.94820 0.91636 0.84621
 C837 C 0.93922 0.90761 0.82393
 H838 H 0.94767 0.89189 0.81560
 O839 O 1.02382 1.08815 0.87822
 O840 O 1.02376 1.11655 0.84984
 C841 C 1.03214 1.09679 0.85844
 C842 C 1.05227 1.08411 0.84574
 C843 C 1.06133 1.09305 0.82355
 H844 H 1.05287 1.10880 0.81527
 O845 O 0.87912 0.97632 0.91185
 O846 O 0.85077 0.97626 0.88347
 C847 C 0.85939 0.96795 0.90328
 C848 C 0.84677 0.94790 0.91613
 C849 C 0.82446 0.93897 0.90751
 H850 H 0.81604 0.94744 0.89183
 O851 O 1.12086 1.02385 0.91164
 O852 O 1.14938 1.02384 0.88342
 C853 C 1.14070 1.03212 0.90320
 C854 C 1.15337 1.05201 0.91620
 C855 C 1.17577 1.06088 0.90771
 H856 H 1.18420 1.05246 0.89201
 O857 O 0.91255 0.87884 0.97607
 O858 O 0.88425 0.85047 0.97603
 C859 C 0.90400 0.85908 0.96771
 C860 C 0.91682 0.84640 0.94766
 C861 C 0.90812 0.82412 0.93871
 H862 H 0.89243 0.81579 0.94721
 O863 O 1.08765 1.12089 0.97605
 O864 O 1.11600 1.14921 0.97613
 C865 C 1.09627 1.14065 0.96772
 C866 C 1.08358 1.15337 0.94759
 C867 C 1.09236 1.17564 0.93864
 H868 H 1.10804 1.18393 0.94717
 O869 O 0.91248 1.02377 0.87857
 O870 O 0.88425 1.02374 0.85009
 C871 C 0.90395 1.03209 0.85876
 C872 C 0.91669 1.05217 0.84607
 C873 C 0.90797 1.06103 0.82373
 H874 H 0.89234 1.05247 0.81538
 O875 O 1.08755 0.97660 0.87817
 O876 O 1.11592 0.97654 0.84981
 C877 C 1.09617 0.96822 0.85843
 C878 C 1.08348 0.94808 0.84583
 C879 C 1.09222 0.93914 0.82354
 H880 H 1.10781 0.94772 0.81511
 O881 O 1.02406 0.87868 0.91193
 O882 O 1.02411 0.85028 0.88360
 C883 C 1.03239 0.85889 0.90340
 C884 C 1.05241 0.84623 0.91628
 C885 C 1.06148 0.82397 0.90759
 H886 H 1.05314 0.81560 0.89183
 O887 O 0.97632 1.12131 0.91172
 O888 O 0.97624 1.14978 0.88343
 C889 C 0.96793 1.14109 0.90319
 C890 C 0.94780 1.15366 0.91598
 C891 C 0.93855 1.17576 0.90705
 H892 H 0.94682 1.18405 0.89119
 O893 O 0.87889 1.08796 0.97590
 O894 O 0.85045 1.11622 0.97590
 C895 C 0.85913 1.09651 0.96751
 C896 C 0.84656 1.08373 0.94734
 C897 C 0.82430 1.09241 0.93828
 H898 H 0.81590 1.10811 0.94671
 O899 O 1.12083 0.91220 0.97622
 O900 O 1.14930 0.88396 0.97613
 C901 C 1.14057 0.90368 0.96776
 C902 C 1.15309 0.91646 0.94754
 C903 C 1.17534 0.90774 0.93852
 H904 H 1.18372 0.89207 0.94704
 O905 O 0.97636 1.08801 0.87840
 O906 O 0.97625 1.11637 0.84998
 C907 C 0.96798 1.09658 0.85862
 C908 C 0.94796 1.08372 0.84599
 C909 C 0.93898 1.09232 0.82362
 H910 H 0.94739 1.10801 0.81519
 O911 O 1.02406 0.91202 0.87855
 O912 O 1.02410 0.88375 0.85010
 C913 C 1.03238 0.90351 0.85873
 C914 C 1.05234 0.91640 0.84600
 C915 C 1.06133 0.90773 0.82368
 H916 H 1.05299 0.89195 0.81538
 O917 O 1.12069 0.97638 0.91159
 O918 O 1.14918 0.97633 0.88335
 C919 C 1.14045 0.96797 0.90308
 C920 C 1.15302 0.94783 0.91593
 C921 C 1.17526 0.93880 0.90718
 H922 H 1.18360 0.94722 0.89143
 O923 O 0.87909 1.02382 0.91178
 O924 O 0.85075 1.02379 0.88340
 C925 C 0.85935 1.03216 0.90316
 C926 C 0.84668 1.05227 0.91590
 C927 C 0.82443 1.06122 0.90710
 H928 H 0.81613 1.05273 0.89138
 O929 O 0.91224 1.12114 0.97600
 O930 O 0.88390 1.14951 0.97598
 C931 C 0.90364 1.14089 0.96761
 C932 C 0.91633 1.15351 0.94742
 C933 C 0.90728 1.17555 0.93814
 H934 H 0.89142 1.18374 0.94646
 O935 O 1.08781 0.87869 0.97636
 O936 O 1.11618 0.85036 0.97631
 C937 C 1.09642 0.85896 0.96798
 C938 C 1.08373 0.84632 0.94784
 C939 C 1.09260 0.82413 0.93882
 H940 H 1.10830 0.81582 0.94735
 O941 O 1.08780 1.02412 0.87804
 O942 O 1.11620 1.02414 0.84971
 C943 C 1.09645 1.03252 0.85830
 C944 C 1.08375 1.05272 0.84566
 C945 C 1.09256 1.06192 0.82346
 H946 H 1.10832 1.05356 0.81511
 O947 O 0.91248 0.97627 0.87857
 O948 O 0.88424 0.97622 0.85009
 C949 C 0.90398 0.96790 0.85877
 C950 C 0.91680 0.94782 0.84615
 C951 C 0.90811 0.93883 0.82385
 H952 H 0.89242 0.94729 0.81546
 O953 O 1.02380 1.12120 0.91176
 O954 O 1.02377 1.14971 0.88350
 C955 C 1.03213 1.14099 0.90324
 C956 C 1.05222 1.15355 0.91607
 C957 C 1.06126 1.17582 0.90738
 H958 H 1.05285 1.18423 0.89166
 O959 O 0.97663 0.87873 0.91192
 O960 O 0.97662 0.85033 0.88359
 C961 C 0.96829 0.85897 0.90336
 C962 C 0.94823 0.84635 0.91618
 C963 C 0.93923 0.82409 0.90746
 H964 H 0.94768 0.81572 0.89174
 O965 O 1.12081 1.08746 0.97616
 O966 O 1.14925 1.11569 0.97626
 C967 C 1.14061 1.09598 0.96789
 C968 C 1.15332 1.08321 0.94785
 C969 C 1.17571 1.09182 0.93912
 H970 H 1.18408 1.10739 0.94777
 O971 O 0.87931 0.91223 0.97605
 O972 O 0.85093 0.88394 0.97603
 C973 C 0.85956 0.90369 0.96769
 C974 C 0.84689 0.91650 0.94763
 C975 C 0.82458 0.90783 0.93878
 H976 H 0.81625 0.89217 0.94734
 Cu977 Cu 1.00036 0.89821 0.89810
 Cu978 Cu 1.00037 0.86420 0.86402
 Cu979 Cu 1.00007 1.10183 0.89786
 Cu980 Cu 0.99999 1.13596 0.86385
 Cu981 Cu 0.89861 1.00004 0.89804
 Cu982 Cu 0.86467 1.00000 0.86390
 Cu983 Cu 1.10137 1.00027 0.89767
 Cu984 Cu 1.13552 1.00021 0.86372
 C985 C 0.93700 0.93660 0.85705
 H986 H 0.94358 0.94320 0.87442
 C987 C 0.91913 0.91866 0.81261
 C988 C 1.06345 1.06381 0.85650
 H989 H 1.05678 1.05707 0.87380
 C990 C 1.08152 1.08213 0.81225
 C991 C 0.85771 0.93668 0.93633
 H992 H 0.87511 0.94322 0.94283
 C993 C 0.81321 0.91889 0.91869
 C994 C 1.14243 1.06315 0.93643
 H995 H 1.12499 1.05666 0.94285
 C996 C 1.18709 1.08082 0.91902
 C997 C 0.93704 0.85722 0.93642
 H998 H 0.94362 0.87457 0.94300
 C999 C 0.91914 0.81283 0.91856
 C1000 C 1.06337 1.14261 0.93632
 H1001 H 1.05673 1.12526 0.94289
 C1002 C 1.08138 1.18702 0.91849
 C1003 C 0.93682 1.06350 0.85694
 H1004 H 0.94338 1.05700 0.87437
 C1005 C 0.91893 1.08114 0.81236
 C1006 C 1.06340 0.93673 0.85680
 H1007 H 1.05683 0.94327 0.87419
 C1008 C 1.08132 0.91893 0.81232
 C1009 C 1.06350 0.85710 0.93658
 H1010 H 1.05683 0.87442 0.94318
 C1011 C 1.08165 0.81281 0.91868
 C1012 C 0.93676 1.14287 0.93638
 H1013 H 0.94364 1.12571 0.94321
 C1014 C 0.91830 1.18689 0.91800
 C1015 C 0.85747 1.06352 0.93615
 H1016 H 0.87481 1.05695 0.94278
 C1017 C 0.81309 1.08133 0.91812
 C1018 C 1.14219 0.93665 0.93624
 H1019 H 1.12485 0.94325 0.94284
 C1020 C 1.18656 0.91872 0.91830
 O1021 O 1.02358 0.91178 1.12151
 O1022 O 1.02354 0.88342 1.14992
 C1023 C 1.03188 0.90317 1.14131
 C1024 C 1.05193 0.91591 1.15399
 C1025 C 1.06091 0.90712 1.17627
 H1026 H 1.05245 0.89141 1.18460
 O1027 O 0.97615 1.08749 1.12128
 O1028 O 0.97616 1.11578 1.14971
 C1029 C 0.96783 1.09605 1.14108
 C1030 C 0.94778 1.08328 1.15376
 C1031 C 0.93887 1.09199 1.17607
 H1032 H 0.94738 1.10765 1.18443
 O1033 O 0.87903 1.02363 1.08784
 O1034 O 0.85055 1.02362 1.11610
 C1035 C 0.85923 1.03196 1.09634
 C1036 C 0.84657 1.05200 1.08346
 C1037 C 0.82423 1.06087 1.09210
 H1038 H 0.81587 1.05238 1.10780
 O1039 O 1.12093 0.97574 1.08819
 O1040 O 1.14933 0.97576 1.11652
 C1041 C 1.14073 0.96744 1.09674
 C1042 C 1.15346 0.94746 1.08388
 C1043 C 1.17575 0.93851 1.09257
 H1044 H 1.18405 0.94690 1.10834
 O1045 O 1.08787 0.87869 1.02396
 O1046 O 1.11624 0.85036 1.02393
 C1047 C 1.09650 0.85894 1.03233
 C1048 C 1.08377 0.84628 1.05251
 C1049 C 1.09260 0.82407 1.06164
 H1050 H 1.10836 0.81577 1.05324
 O1051 O 0.91206 1.12115 1.02362
 O1052 O 0.88377 1.14956 1.02366
 C1053 C 0.90349 1.14089 1.03203
 C1054 C 0.91625 1.15344 1.05222
 C1055 C 0.90758 1.17572 1.06127
 H1056 H 0.89192 1.18415 1.05282
 O1057 O 0.91219 0.97605 1.12128
 O1058 O 0.88382 0.97603 1.14964
 C1059 C 0.90356 0.96767 1.14104
 C1060 C 0.91627 0.94753 1.15372
 C1061 C 0.90750 0.93857 1.17602
 H1062 H 0.89183 0.94710 1.18436
 O1063 O 1.08753 1.02320 1.12145
 O1064 O 1.11583 1.02325 1.14988
 C1065 C 1.09610 1.03158 1.14121
 C1066 C 1.08335 1.05170 1.15382
 C1067 C 1.09211 1.06069 1.17608
 H1068 H 1.10778 1.05220 1.18445
 O1069 O 0.97632 0.87854 1.08798
 O1070 O 0.97620 0.85007 1.11628
 C1071 C 0.96796 0.85876 1.09648
 C1072 C 0.94798 0.84616 1.08355
 C1073 C 0.93899 0.82384 1.09216
 H1074 H 0.94737 0.81542 1.10789
 O1075 O 1.02354 1.12081 1.08789
 O1076 O 1.02358 1.14921 1.11621
 C1077 C 1.03188 1.14057 1.09642
 C1078 C 1.05189 1.15322 1.08355
 C1079 C 1.06082 1.17554 1.09218
 H1080 H 1.05236 1.18393 1.10788
 O1081 O 0.87921 0.91213 1.02361
 O1082 O 0.85082 0.88385 1.02359
 C1083 C 0.85945 0.90357 1.03195
 C1084 C 0.84676 0.91635 1.05203
 C1085 C 0.82444 0.90769 1.06092
 H1086 H 0.81610 0.89202 1.05240
 O1087 O 1.12068 1.08738 1.02371
 O1088 O 1.14911 1.11563 1.02380
 C1089 C 1.14043 1.09588 1.03211
 C1090 C 1.15305 1.08304 1.05220
 C1091 C 1.17535 1.09169 1.06111
 H1092 H 1.18372 1.10735 1.05258
 O1093 O 1.02361 1.08751 1.12130
 O1094 O 1.02365 1.11581 1.14972
 C1095 C 1.03196 1.09605 1.14109
 C1096 C 1.05201 1.08322 1.15377
 C1097 C 1.06102 1.09194 1.17605
 H1098 H 1.05262 1.10769 1.18438
 O1099 O 0.97612 0.91178 1.12137
 O1100 O 0.97602 0.88342 1.14979
 C1101 C 0.96771 0.90319 1.14113
 C1102 C 0.94760 0.91599 1.15376
 C1103 C 0.93855 0.90728 1.17606
 H1104 H 0.94695 0.89155 1.18444
 O1105 O 1.12072 1.02321 1.08805
 O1106 O 1.14913 1.02326 1.11637
 C1107 C 1.14046 1.03158 1.09659
 C1108 C 1.15307 1.05164 1.08373
 C1109 C 1.17535 1.06059 1.09241
 H1110 H 1.18373 1.05212 1.10812
 O1111 O 0.87902 0.97615 1.08785
 O1112 O 0.85054 0.97611 1.11612
 C1113 C 0.85924 0.96780 1.09636
 C1114 C 0.84665 0.94776 1.08350
 C1115 C 0.82432 0.93884 1.09211
 H1116 H 0.81590 0.94733 1.10778
 O1117 O 1.08748 1.12078 1.02362
 O1118 O 1.11582 1.14911 1.02370
 C1119 C 1.09605 1.14052 1.03199
 C1120 C 1.08325 1.15318 1.05204
 C1121 C 1.09193 1.17549 1.06093
 H1122 H 1.10759 1.18383 1.05239
 O1123 O 0.91252 0.87883 1.02361
 O1124 O 0.88421 0.85046 1.02357
 C1125 C 0.90395 0.85905 1.03192
 C1126 C 0.91669 0.84632 1.05198
 C1127 C 0.90797 0.82400 1.06083
 H1128 H 0.89231 0.81570 1.05227
 O1129 O 1.08759 0.97571 1.12152
 O1130 O 1.11587 0.97571 1.14995
 C1131 C 1.09614 0.96737 1.14133
 C1132 C 1.08335 0.94731 1.15401
 C1133 C 1.09205 0.93828 1.17632
 H1134 H 1.10775 0.94670 1.18468
 O1135 O 0.91213 1.02354 1.12137
 O1136 O 0.88377 1.02357 1.14974
 C1137 C 0.90353 1.03188 1.14114
 C1138 C 0.91633 1.05192 1.15381
 C1139 C 0.90767 1.06089 1.17614
 H1140 H 0.89197 1.05247 1.18453
 O1141 O 0.97607 1.12081 1.08794
 O1142 O 0.97609 1.14920 1.11627
 C1143 C 0.96773 1.14058 1.09651
 C1144 C 0.94766 1.15326 1.08373
 C1145 C 0.93873 1.17554 1.09250
 H1146 H 0.94722 1.18383 1.10822
 O1147 O 1.02377 0.87859 1.08811
 O1148 O 1.02371 0.85012 1.11641
 C1149 C 1.03212 0.85882 1.09669
 C1150 C 1.05229 0.84623 1.08395
 C1151 C 1.06138 0.82404 1.09281
 H1152 H 1.05292 0.81571 1.10854
 O1153 O 1.12117 0.91200 1.02383
 O1154 O 1.14963 0.88376 1.02375
 C1155 C 1.14097 0.90347 1.03213
 C1156 C 1.15360 0.91622 1.05225
 C1157 C 1.17590 0.90753 1.06118
 H1158 H 1.18431 0.89193 1.05262
 O1159 O 0.87891 1.08774 1.02348
 O1160 O 0.85049 1.11602 1.02353
 C1161 C 0.85914 1.09626 1.03185
 C1162 C 0.84650 1.08341 1.05193
 C1163 C 0.82416 1.09202 1.06083
 H1164 H 0.81575 1.10766 1.05230
 Cu1165 Cu 0.99995 0.89801 1.10191
 Cu1166 Cu 0.99985 0.86391 1.13595
 Cu1167 Cu 0.99985 1.10132 1.10176
 Cu1168 Cu 0.99987 1.13535 1.13583
 Cu1169 Cu 0.89873 0.89835 0.99983
 Cu1170 Cu 0.86470 0.86434 0.99979
 Cu1171 Cu 1.10158 0.89822 1.00012
 Cu1172 Cu 1.13569 0.86428 1.00002
 Cu1173 Cu 0.89836 1.10168 0.99976
 Cu1174 Cu 0.86432 1.13568 0.99977
 Cu1175 Cu 1.10130 1.10130 0.99988
 Cu1176 Cu 1.13539 1.13525 0.99999
 Cu1177 Cu 0.89844 0.99986 1.10176
 Cu1178 Cu 0.86431 0.99984 1.13574
 Cu1179 Cu 1.10135 0.99944 1.10197
 Cu1180 Cu 1.13538 0.99949 1.13603
 C1181 C 1.06314 0.93615 1.14314
 H1182 H 1.05655 0.94277 1.12577
 C1183 C 1.08100 0.91813 1.18758
 C1184 C 0.93653 1.06310 1.14290
 H1185 H 0.94306 1.05654 1.12550
 C1186 C 0.91877 1.08098 1.18741
 C1187 C 0.85743 1.06325 1.06323
 H1188 H 0.87484 1.05675 1.05670
 C1189 C 0.81287 1.08092 1.08096
 C1190 C 1.14266 0.93634 1.06357
 H1191 H 1.12529 0.94290 1.05700
 C1192 C 1.18713 0.91850 1.08139
 C1193 C 1.06347 0.85707 1.06366
 H1194 H 1.05679 0.87436 1.05697
 C1195 C 1.08157 0.81281 1.08184
 C1196 C 0.93642 1.14249 1.06346
 H1197 H 0.94297 1.12513 1.05685
 C1198 C 0.91865 1.18691 1.08146
 C1199 C 0.93646 0.93626 1.14287
 H1200 H 0.94309 0.94284 1.12550
 C1201 C 0.91846 0.91841 1.18735
 C1202 C 1.06315 1.06295 1.14294
 H1203 H 1.05655 1.05635 1.12558
 C1204 C 1.08113 1.08085 1.18734
 C1205 C 0.93685 0.85712 1.06331
 H1206 H 0.94344 0.87450 1.05680
 C1207 C 0.91896 0.81261 1.08094
 C1208 C 1.06309 1.14232 1.06333
 H1209 H 1.05654 1.12493 1.05681
 C1210 C 1.08088 1.18681 1.08104
 C1211 C 0.85760 0.93653 1.06332
 H1212 H 0.87500 0.94306 1.05682
 C1213 C 0.81307 0.91876 1.08100
 C1214 C 1.14218 1.06287 1.06349
 H1215 H 1.12480 1.05633 1.05696
 C1216 C 1.18664 1.08066 1.08127
 O1217 O 1.08804 0.52337 0.62155
 O1218 O 1.11642 0.52334 0.64990
 C1219 C 1.09663 0.53167 0.64133
 C1220 C 1.08384 0.55167 0.65409
 C1221 C 1.09251 0.56043 0.67648
 H1222 H 1.10814 0.55183 0.68482
 O1223 O 0.91255 0.47602 0.62167
 O1224 O 0.88420 0.47602 0.65006
 C1225 C 0.90395 0.46767 0.64146
 C1226 C 0.91669 0.44758 0.65417
 C1227 C 0.90773 0.43840 0.67630
 H1228 H 0.89191 0.44676 0.68453
 O1229 O 1.02404 0.62076 0.58833
 O1230 O 1.02405 0.64918 0.61663
 C1231 C 1.03234 0.64056 0.59683
 C1232 C 1.05225 0.65326 0.58387
 C1233 C 1.06108 0.67567 0.59237
 H1234 H 1.05267 0.68406 0.60809
 O1235 O 0.97660 0.37918 0.58815
 O1236 O 0.97656 0.35061 0.61635
 C1237 C 0.96824 0.35937 0.59661
 C1238 C 0.94822 0.34680 0.58369
 C1239 C 0.93932 0.32443 0.59226
 H1240 H 0.94776 0.31598 0.60795
 O1241 O 1.12102 0.58771 0.52385
 O1242 O 1.14936 0.61605 0.52388
 C1243 C 1.14075 0.59629 0.53224
 C1244 C 1.15340 0.58352 0.55237
 C1245 C 1.17566 0.59226 0.56132
 H1246 H 1.18397 0.60796 0.55281
 O1247 O 0.87903 0.41242 0.52365
 O1248 O 0.85076 0.38402 0.52382
 C1249 C 0.85934 0.40381 0.53210
 C1250 C 0.84674 0.41655 0.55226
 C1251 C 0.82445 0.40789 0.56122
 H1252 H 0.81604 0.39228 0.55267
 O1253 O 0.97666 0.58743 0.62168
 O1254 O 0.97662 0.61573 0.65011
 C1255 C 0.96830 0.59599 0.64147
 C1256 C 0.94825 0.58321 0.65412
 C1257 C 0.93929 0.59191 0.67643
 H1258 H 0.94778 0.60757 0.68481
 O1259 O 1.02410 0.41218 0.62162
 O1260 O 1.02408 0.38374 0.64996
 C1261 C 1.03244 0.40350 0.64137
 C1262 C 1.05255 0.41617 0.65404
 C1263 C 1.06147 0.40737 0.67633
 H1264 H 1.05292 0.39172 0.68469
 O1265 O 1.12135 0.47605 0.58800
 O1266 O 1.14984 0.47599 0.61623
 C1267 C 1.14116 0.46772 0.59646
 C1268 C 1.15382 0.44776 0.58351
 C1269 C 1.17615 0.43880 0.59210
 H1270 H 1.18452 0.44720 0.60783
 O1271 O 0.87935 0.52355 0.58824
 O1272 O 0.85091 0.52359 0.61654
 C1273 C 0.85958 0.53191 0.59677
 C1274 C 0.84696 0.55197 0.58390
 C1275 C 0.82466 0.56094 0.59256
 H1276 H 0.81628 0.55248 0.60828
 O1277 O 0.91268 0.62087 0.52387
 O1278 O 0.88437 0.64926 0.52397
 C1279 C 0.90412 0.64061 0.53229
 C1280 C 0.91687 0.65321 0.55243
 C1281 C 0.90814 0.67548 0.56140
 H1282 H 0.89249 0.68386 0.55286
 O1283 O 1.08812 0.37900 0.52381
 O1284 O 1.11640 0.35057 0.52376
 C1285 C 1.09671 0.35923 0.53220
 C1286 C 1.08401 0.34661 0.55242
 C1287 C 1.09282 0.32439 0.56153
 H1288 H 1.10854 0.31606 0.55309
 O1289 O 0.91256 0.52350 0.62163
 O1290 O 0.88423 0.52354 0.65004
 C1291 C 0.90399 0.53184 0.64141
 C1292 C 0.91679 0.55186 0.65409
 C1293 C 0.90808 0.56082 0.67640
 H1294 H 0.89236 0.55240 0.68474
 O1295 O 1.08827 0.47589 0.62159
 O1296 O 1.11664 0.47581 0.64993
 C1297 C 1.09688 0.46750 0.64135
 C1298 C 1.08410 0.44743 0.65403
 C1299 C 1.09278 0.43837 0.67633
 H1300 H 1.10850 0.44675 0.68469
 O1301 O 1.02410 0.37901 0.58822
 O1302 O 1.02409 0.35047 0.61645
 C1303 C 1.03246 0.35920 0.59672
 C1304 C 1.05259 0.34661 0.58393
 C1305 C 1.06167 0.32441 0.59276
 H1306 H 1.05324 0.31608 0.60851
 O1307 O 0.97660 0.62073 0.58835
 O1308 O 0.97655 0.64915 0.61666
 C1309 C 0.96823 0.64050 0.59689
 C1310 C 0.94816 0.65314 0.58404
 C1311 C 0.93912 0.67539 0.59278
 H1312 H 0.94749 0.68371 0.60855
 O1313 O 0.87937 0.58761 0.52385
 O1314 O 0.85096 0.61592 0.52394
 C1315 C 0.85962 0.59616 0.53225
 C1316 C 0.84699 0.58336 0.55236
 C1317 C 0.82469 0.59206 0.56129
 H1318 H 0.81634 0.60773 0.55275
 O1319 O 1.12135 0.41233 0.52355
 O1320 O 1.14973 0.38400 0.52347
 C1321 C 1.14113 0.40376 0.53183
 C1322 C 1.15382 0.41651 0.55189
 C1323 C 1.17614 0.40780 0.56075
 H1324 H 1.18450 0.39216 0.55217
 O1325 O 0.97664 0.41212 0.62186
 O1326 O 0.97658 0.38366 0.65017
 C1327 C 0.96829 0.40348 0.64163
 C1328 C 0.94820 0.41623 0.65433
 C1329 C 0.93904 0.40737 0.67653
 H1330 H 0.94738 0.39158 0.68486
 O1331 O 1.02409 0.58752 0.62181
 O1332 O 1.02411 0.61580 0.65025
 C1333 C 1.03242 0.59603 0.64162
 C1334 C 1.05243 0.58313 0.65430
 C1335 C 1.06131 0.59158 0.67674
 H1336 H 1.05284 0.60720 0.68524
 O1337 O 0.87936 0.47607 0.58825
 O1338 O 0.85091 0.47608 0.61654
 C1339 C 0.85957 0.46776 0.59677
 C1340 C 0.84689 0.44778 0.58391
 C1341 C 0.82461 0.43885 0.59262
 H1342 H 0.81630 0.44726 0.60839
 O1343 O 1.12125 0.52354 0.58814
 O1344 O 1.14973 0.52352 0.61638
 C1345 C 1.14100 0.53191 0.59666
 C1346 C 1.15354 0.55205 0.58384
 C1347 C 1.17580 0.56105 0.59252
 H1348 H 1.18420 0.55257 0.60821
 O1349 O 0.91251 0.37931 0.52364
 O1350 O 0.88434 0.35081 0.52379
 C1351 C 0.90406 0.35952 0.53206
 C1352 C 0.91691 0.34689 0.55212
 C1353 C 0.90830 0.32452 0.56095
 H1354 H 0.89269 0.31615 0.55237
 O1355 O 1.08765 0.62093 0.52374
 O1356 O 1.11590 0.64935 0.52373
 C1357 C 1.09617 0.64070 0.53207
 C1358 C 1.08340 0.65334 0.55215
 C1359 C 1.09196 0.67574 0.56089
 H1360 H 1.10749 0.68417 0.55221
 Cu1361 Cu 1.10189 0.49970 0.60199
 Cu1362 Cu 1.13602 0.49966 0.63595
 Cu1363 Cu 0.89880 0.49978 0.60211
 Cu1364 Cu 0.86471 0.49981 0.63614
 Cu1365 Cu 1.00037 0.60127 0.60222
 Cu1366 Cu 1.00034 0.63532 0.63626
 Cu1367 Cu 1.00034 0.39848 0.60214
 Cu1368 Cu 1.00032 0.36425 0.63606
 C1369 C 1.06367 0.56300 0.64328
 H1370 H 1.05715 0.55658 0.62582
 C1371 C 1.08141 0.58039 0.68797
 C1372 C 0.93709 0.43654 0.64349
 H1373 H 0.94386 0.44329 0.62623
 C1374 C 0.91876 0.41830 0.68767
 C1375 C 1.06339 0.64237 0.56361
 H1376 H 1.05694 0.62492 0.55718
 C1377 C 1.08098 0.68706 0.58103
 C1378 C 0.93703 0.35776 0.56347
 H1379 H 0.94354 0.37519 0.55698
 C1380 C 0.91932 0.31315 0.58105
 C1381 C 1.14261 0.56328 0.56362
 H1382 H 1.12526 0.55668 0.55706
 C1383 C 1.18700 0.58119 0.58143
 C1384 C 0.85769 0.43665 0.56359
 H1385 H 0.87506 0.44319 0.55702
 C1386 C 0.81324 0.41887 0.58145
 C1387 C 0.93702 0.56304 0.64323
 H1388 H 0.94359 0.55647 0.62584
 C1389 C 0.91915 0.58090 0.68770
 C1390 C 1.06384 0.43633 0.64317
 H1391 H 1.05728 0.44297 0.62579
 C1392 C 1.08162 0.41829 0.68763
 C1393 C 1.14294 0.43664 0.56324
 H1394 H 1.12555 0.44320 0.55675
 C1395 C 1.18745 0.41878 0.58089
 C1396 C 0.85785 0.56316 0.56365
 H1397 H 0.87522 0.55659 0.55711
 C1398 C 0.81338 0.58103 0.58142
 C1399 C 0.93704 0.64232 0.56373
 H1400 H 0.94365 0.62497 0.55714
 C1401 C 0.91907 0.68671 0.58163
 C1402 C 1.06375 0.35744 0.56362
 H1403 H 1.05709 0.37475 0.55695
 C1404 C 1.08182 0.31314 0.58175
 O1405 O 1.08782 0.47672 0.37846
 O1406 O 1.11610 0.47669 0.35000
 C1407 C 1.09635 0.46839 0.35866
 C1408 C 1.08353 0.44835 0.34602
 C1409 C 1.09219 0.43942 0.32369
 H1410 H 1.10783 0.44791 0.31526
 O1411 O 0.91220 0.52350 0.37880
 O1412 O 0.88392 0.52369 0.35036
 C1413 C 0.90367 0.53195 0.35904
 C1414 C 0.91646 0.55204 0.34641
 C1415 C 0.90778 0.56094 0.32407
 H1416 H 0.89214 0.55242 0.31570
 O1417 O 0.97634 0.62122 0.41197
 O1418 O 0.97623 0.64967 0.38364
 C1419 C 0.96797 0.64101 0.40344
 C1420 C 0.94796 0.65365 0.41633
 C1421 C 0.93900 0.67597 0.40767
 H1422 H 0.94743 0.68435 0.39194
 O1423 O 1.02379 0.37920 0.41190
 O1424 O 1.02390 0.35076 0.38362
 C1425 C 1.03215 0.35941 0.40341
 C1426 C 1.05212 0.34671 0.41633
 C1427 C 1.06090 0.32428 0.40781
 H1428 H 1.05240 0.31589 0.39215
 O1429 O 1.12122 0.41224 0.47597
 O1430 O 1.14958 0.38390 0.47586
 C1431 C 1.14093 0.40365 0.46751
 C1432 C 1.15351 0.41642 0.44731
 C1433 C 1.17571 0.40764 0.43820
 H1434 H 1.18406 0.39191 0.44663
 O1435 O 0.87932 0.58770 0.47627
 O1436 O 0.85091 0.61599 0.47636
 C1437 C 0.85954 0.59626 0.46797
 C1438 C 0.84684 0.58349 0.44789
 C1439 C 0.82455 0.59224 0.43897
 H1440 H 0.81625 0.60795 0.44744
 O1441 O 1.02378 0.58800 0.37848
 O1442 O 1.02365 0.61634 0.35004
 C1443 C 1.03206 0.59661 0.35867
 C1444 C 1.05218 0.58395 0.34598
 C1445 C 1.06115 0.59282 0.32373
 H1446 H 1.05262 0.60851 0.31541
 O1447 O 0.97628 0.41235 0.37839
 O1448 O 0.97639 0.38401 0.35000
 C1449 C 0.96797 0.40373 0.35861
 C1450 C 0.94781 0.41639 0.34596
 C1451 C 0.93875 0.40753 0.32376
 H1452 H 0.94725 0.39185 0.31543
 O1453 O 1.12125 0.52398 0.41181
 O1454 O 1.14966 0.52406 0.38349
 C1455 C 1.14102 0.53232 0.40329
 C1456 C 1.15365 0.55229 0.41624
 C1457 C 1.17600 0.56127 0.40772
 H1458 H 1.18443 0.55293 0.39198
 O1459 O 0.87865 0.47598 0.41185
 O1460 O 0.85025 0.47614 0.38353
 C1461 C 0.85887 0.46772 0.40328
 C1462 C 0.84625 0.44760 0.41605
 C1463 C 0.82413 0.43837 0.40721
 H1464 H 0.81581 0.44669 0.39139
 O1465 O 1.08778 0.62101 0.47616
 O1466 O 1.11606 0.64940 0.47616
 C1467 C 1.09635 0.64077 0.46778
 C1468 C 1.08362 0.65343 0.44762
 C1469 C 1.09242 0.67565 0.43857
 H1470 H 1.10814 0.68394 0.44704
 O1471 O 0.91233 0.37916 0.47608
 O1472 O 0.88418 0.35065 0.47622
 C1473 C 0.90385 0.35935 0.46779
 C1474 C 0.91664 0.34672 0.44768
 C1475 C 0.90795 0.32444 0.43871
 H1476 H 0.89228 0.31608 0.44721
 O1477 O 0.91201 0.47601 0.37853
 O1478 O 0.88372 0.47615 0.35010
 C1479 C 0.90344 0.46774 0.35871
 C1480 C 0.91623 0.44768 0.34600
 C1481 C 0.90743 0.43856 0.32379
 H1482 H 0.89163 0.44691 0.31550
 O1483 O 1.08803 0.52419 0.37837
 O1484 O 1.11632 0.52423 0.34992
 C1485 C 1.09658 0.53257 0.35857
 C1486 C 1.08376 0.55266 0.34593
 C1487 C 1.09247 0.56179 0.32365
 H1488 H 1.10822 0.55344 0.31529
 O1489 O 0.97635 0.37919 0.41188
 O1490 O 0.97643 0.35076 0.38359
 C1491 C 0.96806 0.35941 0.40334
 C1492 C 0.94801 0.34675 0.41615
 C1493 C 0.93904 0.32448 0.40743
 H1494 H 0.94749 0.31614 0.39171
 O1495 O 1.02380 0.62114 0.41193
 O1496 O 1.02373 0.64958 0.38359
 C1497 C 1.03213 0.64091 0.40334
 C1498 C 1.05225 0.65351 0.41611
 C1499 C 1.06134 0.67572 0.40730
 H1500 H 1.05293 0.68407 0.39154
 O1501 O 0.87884 0.41226 0.47606
 O1502 O 0.85061 0.38383 0.47621
 C1503 C 0.85913 0.40357 0.46775
 C1504 C 0.84644 0.41619 0.44757
 C1505 C 0.82438 0.40716 0.43842
 H1506 H 0.81619 0.39136 0.44687
 O1507 O 1.12101 0.58763 0.47628
 O1508 O 1.14937 0.61595 0.47633
 C1509 C 1.14078 0.59620 0.46798
 C1510 C 1.15350 0.58347 0.44792
 C1511 C 1.17584 0.59217 0.43917
 H1512 H 1.18416 0.60777 0.44783
 O1513 O 1.02376 0.41259 0.37857
 O1514 O 1.02390 0.38426 0.35018
 C1515 C 1.03215 0.40404 0.35880
 C1516 C 1.05217 0.41688 0.34612
 C1517 C 1.06110 0.40821 0.32379
 H1518 H 1.05264 0.39252 0.31544
 O1519 O 0.97629 0.58782 0.37873
 O1520 O 0.97613 0.61615 0.35029
 C1521 C 0.96786 0.59638 0.35897
 C1522 C 0.94780 0.58355 0.34636
 C1523 C 0.93883 0.59218 0.32401
 H1524 H 0.94726 0.60787 0.31559
 O1525 O 0.87895 0.52347 0.41213
 O1526 O 0.85055 0.52369 0.38381
 C1527 C 0.85923 0.53194 0.40359
 C1528 C 0.84669 0.55205 0.41644
 C1529 C 0.82442 0.56107 0.40778
 H1530 H 0.81600 0.55260 0.39211
 O1531 O 1.12115 0.47649 0.41170
 O1532 O 1.14954 0.47650 0.38336
 C1533 C 1.14088 0.46810 0.40311
 C1534 C 1.15347 0.44790 0.41583
 C1535 C 1.17565 0.43884 0.40698
 H1536 H 1.18396 0.44730 0.39123
 O1537 O 1.08783 0.37907 0.47623
 O1538 O 1.11608 0.35061 0.47614
 C1539 C 1.09633 0.35928 0.46787
 C1540 C 1.08345 0.34664 0.44786
 C1541 C 1.09198 0.32421 0.43909
 H1542 H 1.10757 0.31577 0.44767
 O1543 O 0.91248 0.62112 0.47629
 O1544 O 0.88417 0.64951 0.47637
 C1545 C 0.90389 0.64091 0.46798
 C1546 C 0.91663 0.65361 0.44788
 C1547 C 0.90793 0.67593 0.43897
 H1548 H 0.89227 0.68429 0.44751
 Cu1549 Cu 1.10174 0.50037 0.39793
 Cu1550 Cu 1.13575 0.50037 0.36384
 Cu1551 Cu 0.89828 0.49969 0.39817
 Cu1552 Cu 0.86427 0.49995 0.36410
 Cu1553 Cu 1.10153 0.60148 0.50001
 Cu1554 Cu 1.13551 0.63554 0.50002
 Cu1555 Cu 1.10181 0.39850 0.49989
 Cu1556 Cu 1.13579 0.36442 0.49979
 Cu1557 Cu 0.89880 0.60150 0.50005
 Cu1558 Cu 0.86476 0.63551 0.50017
 Cu1559 Cu 0.89849 0.39865 0.49984
 Cu1560 Cu 0.86464 0.36447 0.50004
 Cu1561 Cu 1.00006 0.60171 0.39811
 Cu1562 Cu 0.99991 0.63578 0.36404
 Cu1563 Cu 1.00004 0.39868 0.39802
 Cu1564 Cu 1.00019 0.36461 0.36400
 C1565 C 1.06337 0.43710 0.35696
 H1566 H 1.05684 0.44365 0.37438
 C1567 C 1.08115 0.41930 0.31243
 C1568 C 0.93662 0.56332 0.35730
 H1569 H 0.94318 0.55678 0.37471
 C1570 C 0.91879 0.58103 0.31272
 C1571 C 0.93680 0.64275 0.43658
 H1572 H 0.94337 0.62536 0.44311
 C1573 C 0.91894 0.68726 0.41882
 C1574 C 1.06337 0.35761 0.43651
 H1575 H 1.05694 0.37508 0.44295
 C1576 C 1.08087 0.31289 0.41903
 C1577 C 1.14266 0.43669 0.43613
 H1578 H 1.12537 0.44334 0.44281
 C1579 C 1.18693 0.41867 0.41798
 C1580 C 0.85764 0.56325 0.43664
 H1581 H 0.87500 0.55665 0.44317
 C1582 C 0.81321 0.58121 0.41886
 C1583 C 1.06347 0.56373 0.35680
 H1584 H 1.05688 0.55705 0.37414
 C1585 C 1.08133 0.58192 0.31241
 C1586 C 0.93656 0.43661 0.35680
 H1587 H 0.94322 0.44329 0.37410
 C1588 C 0.91851 0.41843 0.31252
 C1589 C 1.14269 0.56337 0.43650
 H1590 H 1.12529 0.55680 0.44296
 C1591 C 1.18725 0.58125 0.41905
 C1592 C 0.85708 0.43654 0.43640
 H1593 H 0.87428 0.44334 0.44312
 C1594 C 0.81306 0.41810 0.41823
 C1595 C 1.06339 0.64264 0.43641
 H1596 H 1.05673 0.62533 0.44306
 C1597 C 1.08147 0.68693 0.41836
 C1598 C 0.93681 0.35760 0.43641
 H1599 H 0.94336 0.37496 0.44298
 C1600 C 0.91896 0.31319 0.41853
 O1601 O 0.47613 0.91228 0.37823
 O1602 O 0.47626 0.88390 0.34989
 C1603 C 0.46783 0.90363 0.35847
 C1604 C 0.44769 0.91628 0.34579
 C1605 C 0.43867 0.90742 0.32357
 H1606 H 0.44718 0.89173 0.31526
 O1607 O 0.52363 1.08844 0.37836
 O1608 O 0.52346 1.11669 0.34984
 C1609 C 0.53189 1.09699 0.35851
 C1610 C 0.55197 1.08422 0.34584
 C1611 C 0.56102 1.09301 0.32357
 H1612 H 0.55261 1.10876 0.31524
 O1613 O 0.37889 0.97614 0.41186
 O1614 O 0.35043 0.97627 0.38359
 C1615 C 0.35907 0.96790 0.40336
 C1616 C 0.34640 0.94790 0.41626
 C1617 C 0.32406 0.93895 0.40770
 H1618 H 0.31563 0.94739 0.39200
 O1619 O 0.62073 1.02412 0.41169
 O1620 O 0.64915 1.02421 0.38337
 C1621 C 0.64050 1.03247 0.40316
 C1622 C 0.65313 1.05245 0.41608
 C1623 C 0.67551 1.06131 0.40755
 H1624 H 0.68394 1.05285 0.39187
 O1625 O 0.41245 0.87914 0.47610
 O1626 O 0.38418 0.85074 0.47623
 C1627 C 0.40389 0.85936 0.46780
 C1628 C 0.41661 0.84669 0.44768
 C1629 C 0.40784 0.82443 0.43872
 H1630 H 0.39217 0.81611 0.44725
 O1631 O 0.58754 1.12165 0.47576
 O1632 O 0.61589 1.14997 0.47575
 C1633 C 0.59618 1.14137 0.46735
 C1634 C 0.58354 1.15400 0.44711
 C1635 C 0.59253 1.17607 0.43789
 H1636 H 0.60832 1.18429 0.44628
 O1637 O 0.41245 1.02351 0.37864
 O1638 O 0.38412 1.02367 0.35025
 C1639 C 0.40388 1.03193 0.35889
 C1640 C 0.41663 1.05203 0.34623
 C1641 C 0.40795 1.06083 0.32386
 H1642 H 0.39238 1.05219 0.31547
 O1643 O 0.58748 0.97673 0.37831
 O1644 O 0.61579 0.97675 0.34987
 C1645 C 0.59606 0.96840 0.35852
 C1646 C 0.58332 0.94833 0.34586
 C1647 C 0.59202 0.93944 0.32353
 H1648 H 0.60765 0.94798 0.31514
 O1649 O 0.52366 0.87930 0.41180
 O1650 O 0.52383 0.85080 0.38358
 C1651 C 0.53208 0.85953 0.40334
 C1652 C 0.55211 0.84695 0.41626
 C1653 C 0.56102 0.82457 0.40774
 H1654 H 0.55256 0.81612 0.39209
 O1655 O 0.47619 1.12164 0.41183
 O1656 O 0.47597 1.15002 0.38344
 C1657 C 0.46775 1.14138 0.40328
 C1658 C 0.44775 1.15401 0.41620
 C1659 C 0.43880 1.17637 0.40764
 H1660 H 0.44722 1.18480 0.39193
 O1661 O 0.37919 1.08801 0.47617
 O1662 O 0.35075 1.11628 0.47604
 C1663 C 0.35945 1.09654 0.46773
 C1664 C 0.34687 1.08373 0.44760
 C1665 C 0.32460 1.09244 0.43860
 H1666 H 0.31625 1.10815 0.44705
 O1667 O 0.62111 0.91269 0.47595
 O1668 O 0.64952 0.88439 0.47592
 C1669 C 0.64085 0.90412 0.46754
 C1670 C 0.65341 0.91687 0.44734
 C1671 C 0.67566 0.90816 0.43828
 H1672 H 0.68406 0.89249 0.44678
 O1673 O 0.47619 1.08823 0.37859
 O1674 O 0.47595 1.11647 0.35006
 C1675 C 0.46776 1.09669 0.35879
 C1676 C 0.44780 1.08370 0.34617
 C1677 C 0.43885 1.09222 0.32377
 H1678 H 0.44720 1.10793 0.31533
 O1679 O 0.52359 0.91250 0.37833
 O1680 O 0.52378 0.88413 0.34998
 C1681 C 0.53201 0.90393 0.35857
 C1682 C 0.55202 0.91680 0.34589
 C1683 C 0.56099 0.90817 0.32355
 H1684 H 0.55258 0.89247 0.31518
 O1685 O 0.62082 0.97665 0.41157
 O1686 O 0.64922 0.97671 0.38324
 C1687 C 0.64059 0.96833 0.40300
 C1688 C 0.65327 0.94825 0.41579
 C1689 C 0.67553 0.93929 0.40700
 H1690 H 0.68382 0.94774 0.39124
 O1691 O 0.37912 1.02364 0.41189
 O1692 O 0.35068 1.02381 0.38361
 C1693 C 0.35939 1.03210 0.40336
 C1694 C 0.34685 1.05225 0.41617
 C1695 C 0.32459 1.06126 0.40744
 H1696 H 0.31621 1.05278 0.39176
 O1697 O 0.41227 1.12148 0.47628
 O1698 O 0.38393 1.14984 0.47620
 C1699 C 0.40370 1.14124 0.46790
 C1700 C 0.41647 1.15392 0.44782
 C1701 C 0.40778 1.17627 0.43899
 H1702 H 0.39216 1.18463 0.44758
 O1703 O 0.58772 0.87953 0.47613
 O1704 O 0.61603 0.85114 0.47611
 C1705 C 0.59627 0.85976 0.46780
 C1706 C 0.58347 0.84706 0.44778
 C1707 C 0.59210 0.82468 0.43900
 H1708 H 0.60773 0.81632 0.44758
 O1709 O 0.58754 1.02422 0.37825
 O1710 O 0.61584 1.02428 0.34982
 C1711 C 0.59610 1.03260 0.35847
 C1712 C 0.58333 1.05271 0.34581
 C1713 C 0.59208 1.06173 0.32353
 H1714 H 0.60777 1.05325 0.31518
 O1715 O 0.41201 0.97600 0.37828
 O1716 O 0.38366 0.97612 0.34991
 C1717 C 0.40339 0.96770 0.35849
 C1718 C 0.41613 0.94759 0.34579
 C1719 C 0.40735 0.93846 0.32356
 H1720 H 0.39158 0.94683 0.31523
 O1721 O 0.52364 1.12180 0.41160
 O1722 O 0.52351 1.15017 0.38320
 C1723 C 0.53194 1.14156 0.40295
 C1724 C 0.55210 1.15416 0.41566
 C1725 C 0.56131 1.17628 0.40674
 H1726 H 0.55297 1.18460 0.39093
 O1727 O 0.47622 0.87911 0.41171
 O1728 O 0.47634 0.85062 0.38348
 C1729 C 0.46795 0.85930 0.40322
 C1730 C 0.44791 0.84665 0.41607
 C1731 C 0.43886 0.82441 0.40736
 H1732 H 0.44724 0.81606 0.39160
 O1733 O 0.62059 1.08810 0.47598
 O1734 O 0.64902 1.11633 0.47598
 C1735 C 0.64038 1.09659 0.46766
 C1736 C 0.65307 1.08376 0.44764
 C1737 C 0.67545 1.09235 0.43886
 H1738 H 0.68383 1.10795 0.44746
 O1739 O 0.37908 0.91238 0.47615
 O1740 O 0.35072 0.88406 0.47630
 C1741 C 0.35929 0.90381 0.46790
 C1742 C 0.34655 0.91657 0.44785
 C1743 C 0.32422 0.90788 0.43905
 H1744 H 0.31591 0.89223 0.44766
 Cu1745 Cu 0.49989 0.89864 0.39784
 Cu1746 Cu 0.50008 0.86451 0.36389
 Cu1747 Cu 0.49993 1.10221 0.39794
 Cu1748 Cu 0.49968 1.13618 0.36378
 Cu1749 Cu 0.39845 0.99977 0.39800
 Cu1750 Cu 0.36438 0.99999 0.36399
 Cu1751 Cu 0.60131 1.00043 0.39779
 Cu1752 Cu 0.63534 1.00050 0.36372
 C1753 C 0.43644 0.93650 0.35660
 H1754 H 0.44307 0.94318 0.37392
 C1755 C 0.41846 0.91833 0.31229
 C1756 C 0.56312 1.06393 0.35668
 H1757 H 0.55650 1.05729 0.37403
 C1758 C 0.58111 1.08193 0.31228
 C1759 C 0.35735 0.93673 0.43649
 H1760 H 0.37474 0.94329 0.44296
 C1761 C 0.31282 0.91890 0.41895
 C1762 C 0.64218 1.06366 0.43628
 H1763 H 0.62474 1.05718 0.44272
 C1764 C 0.68683 1.08129 0.41879
 C1765 C 0.43679 0.85751 0.43638
 H1766 H 0.44343 0.87484 0.44296
 C1767 C 0.41878 0.81314 0.41852
 C1768 C 0.56319 1.14332 0.43600
 H1769 H 0.55642 1.12610 0.44276
 C1770 C 0.58159 1.18736 0.41767
 C1771 C 0.43669 1.06345 0.35714
 H1772 H 0.44322 1.05702 0.37461
 C1773 C 0.41886 1.08096 0.31249
 C1774 C 0.56317 0.93703 0.35677
 H1775 H 0.55661 0.94355 0.37418
 C1776 C 0.58103 0.91933 0.31223
 C1777 C 0.56332 0.85793 0.43643
 H1778 H 0.55680 0.87537 0.44285
 C1779 C 0.58105 0.81329 0.41895
 C1780 C 0.43659 1.14306 0.43645
 H1781 H 0.44313 1.12563 0.44292
 C1782 C 0.41877 1.18764 0.41887
 C1783 C 0.35773 1.06348 0.43639
 H1784 H 0.37508 1.05689 0.44298
 C1785 C 0.31333 1.08139 0.41848
 C1786 C 0.64249 0.93706 0.43609
 H1787 H 0.62516 0.94364 0.44273
 C1788 C 0.68687 0.91920 0.41807
 O1789 O 0.52384 0.91260 0.62128
 O1790 O 0.52386 0.88429 0.64974
 C1791 C 0.53217 0.90404 0.64109
 C1792 C 0.55220 0.91681 0.65378
 C1793 C 0.56109 0.90809 0.67612
 H1794 H 0.55257 0.89243 0.68449
 O1795 O 0.47631 1.08811 0.62144
 O1796 O 0.47629 1.11645 0.64983
 C1797 C 0.46797 1.09669 0.64122
 C1798 C 0.44791 1.08393 0.65389
 C1799 C 0.43896 1.09266 0.67619
 H1800 H 0.44746 1.10833 0.68455
 O1801 O 0.37888 1.02425 0.58804
 O1802 O 0.35046 1.02418 0.61636
 C1803 C 0.35908 1.03253 0.59658
 C1804 C 0.34637 1.05253 0.58368
 C1805 C 0.32401 1.06142 0.59227
 H1806 H 0.31564 1.05297 0.60798
 O1807 O 0.62101 0.97670 0.58797
 O1808 O 0.64950 0.97667 0.61621
 C1809 C 0.64083 0.96838 0.59645
 C1810 C 0.65350 0.94840 0.58352
 C1811 C 0.67585 0.93948 0.59211
 H1812 H 0.68424 0.94791 0.60781
 O1813 O 0.58795 0.87943 0.52370
 O1814 O 0.61626 0.85104 0.52369
 C1815 C 0.59654 0.85966 0.53207
 C1816 C 0.58379 0.84699 0.55221
 C1817 C 0.59250 0.82467 0.56116
 H1818 H 0.60816 0.81632 0.55264
 O1819 O 0.41215 1.12143 0.52386
 O1820 O 0.38380 1.14978 0.52381
 C1821 C 0.40353 1.14118 0.53222
 C1822 C 0.41623 1.15381 0.55239
 C1823 C 0.40745 1.17604 0.56145
 H1824 H 0.39174 1.18439 0.55300
 O1825 O 0.41231 0.97677 0.62132
 O1826 O 0.38400 0.97666 0.64974
 C1827 C 0.40375 0.96835 0.64109
 C1828 C 0.41652 0.94822 0.65370
 C1829 C 0.40775 0.93917 0.67596
 H1830 H 0.39207 0.94765 0.68434
 O1831 O 0.58780 1.02416 0.62144
 O1832 O 0.61617 1.02417 0.64979
 C1833 C 0.59642 1.03252 0.64119
 C1834 C 0.58369 1.05264 0.65385
 C1835 C 0.59251 1.06169 0.67608
 H1836 H 0.60825 1.05325 0.68438
 O1837 O 0.47649 0.87921 0.58796
 O1838 O 0.47651 0.85077 0.61630
 C1839 C 0.46819 0.85941 0.59652
 C1840 C 0.44818 0.84675 0.58368
 C1841 C 0.43924 0.82444 0.59237
 H1842 H 0.44768 0.81606 0.60809
 O1843 O 0.52358 1.12143 0.58791
 O1844 O 0.52362 1.14988 0.61618
 C1845 C 0.53188 1.14124 0.59639
 C1846 C 0.55180 1.15393 0.58342
 C1847 C 0.56067 1.17630 0.59198
 H1848 H 0.55225 1.18466 0.60771
 O1849 O 0.37931 0.91255 0.52370
 O1850 O 0.35095 0.88424 0.52385
 C1851 C 0.35958 0.90401 0.53212
 C1852 C 0.34692 0.91683 0.55218
 C1853 C 0.32461 0.90816 0.56109
 H1854 H 0.31628 0.89249 0.55258
 O1855 O 0.62069 1.08835 0.52353
 O1856 O 0.64910 1.11661 0.52354
 C1857 C 0.64046 1.09688 0.53189
 C1858 C 0.65311 1.08404 0.55199
 C1859 C 0.67545 1.09265 0.56088
 H1860 H 0.68383 1.10830 0.55235
 O1861 O 0.52378 1.08825 0.62145
 O1862 O 0.52380 1.11659 0.64982
 C1863 C 0.53215 1.09684 0.64121
 C1864 C 0.55227 1.08408 0.65387
 C1865 C 0.56132 1.09284 0.67613
 H1866 H 0.55289 1.10856 0.68448
 O1867 O 0.47637 0.91254 0.62126
 O1868 O 0.47635 0.88421 0.64970
 C1869 C 0.46800 0.90396 0.64104
 C1870 C 0.44790 0.91673 0.65368
 C1871 C 0.43885 0.90794 0.67594
 H1872 H 0.44725 0.89218 0.68427
 O1873 O 0.62079 1.02417 0.58784
 O1874 O 0.64928 1.02418 0.61608
 C1875 C 0.64057 1.03251 0.59633
 C1876 C 0.65315 1.05258 0.58346
 C1877 C 0.67548 1.06146 0.59209
 H1878 H 0.68387 1.05293 0.60775
 O1879 O 0.37912 0.97676 0.58793
 O1880 O 0.35069 0.97665 0.61624
 C1881 C 0.35938 0.96835 0.59648
 C1882 C 0.34682 0.94825 0.58365
 C1883 C 0.32453 0.93928 0.59232
 H1884 H 0.31612 0.94774 0.60801
 O1885 O 0.58727 1.12155 0.52337
 O1886 O 0.61558 1.14991 0.52337
 C1887 C 0.59583 1.14131 0.53170
 C1888 C 0.58304 1.15398 0.55177
 C1889 C 0.59164 1.17635 0.56058
 H1890 H 0.60722 1.18476 0.55196
 O1891 O 0.41255 0.87918 0.52367
 O1892 O 0.38428 0.85078 0.52381
 C1893 C 0.40402 0.85942 0.53208
 C1894 C 0.41683 0.84678 0.55217
 C1895 C 0.40815 0.82448 0.56111
 H1896 H 0.39249 0.81614 0.55260
 O1897 O 0.58780 0.97665 0.62140
 O1898 O 0.61616 0.97660 0.64976
 C1899 C 0.59641 0.96827 0.64116
 C1900 C 0.58365 0.94818 0.65382
 C1901 C 0.59230 0.93917 0.67616
 H1902 H 0.60798 0.94761 0.68455
 O1903 O 0.41219 1.02426 0.62140
 O1904 O 0.38388 1.02421 0.64983
 C1905 C 0.40362 1.03256 0.64120
 C1906 C 0.41642 1.05260 0.65388
 C1907 C 0.40774 1.06158 0.67620
 H1908 H 0.39203 1.05317 0.68457
 O1909 O 0.47614 1.12139 0.58809
 O1910 O 0.47614 1.14983 0.61638
 C1911 C 0.46777 1.14116 0.59665
 C1912 C 0.44763 1.15377 0.58388
 C1913 C 0.43857 1.17598 0.59269
 H1914 H 0.44701 1.18429 0.60843
 O1915 O 0.52393 0.87931 0.58796
 O1916 O 0.52399 0.85089 0.61632
 C1917 C 0.53232 0.85955 0.59654
 C1918 C 0.55240 0.84693 0.58372
 C1919 C 0.56136 0.82462 0.59240
 H1920 H 0.55288 0.81623 0.60809
 O1921 O 0.62108 0.91287 0.52354
 O1922 O 0.64949 0.88458 0.52353
 C1923 C 0.64086 0.90432 0.53187
 C1924 C 0.65351 0.91711 0.55193
 C1925 C 0.67585 0.90845 0.56078
 H1926 H 0.68423 0.89282 0.55221
 O1927 O 0.37887 1.08813 0.52374
 O1928 O 0.35042 1.11639 0.52363
 C1929 C 0.35905 1.09666 0.53202
 C1930 C 0.34635 1.08385 0.55208
 C1931 C 0.32399 1.09248 0.56091
 H1932 H 0.31560 1.10810 0.55231
 Cu1933 Cu 0.50015 0.89875 0.60178
 Cu1934 Cu 0.50018 0.86470 0.63587
 Cu1935 Cu 0.49997 1.10195 0.60190
 Cu1936 Cu 0.49997 1.13603 0.63590
 Cu1937 Cu 0.39868 0.89865 0.49988
 Cu1938 Cu 0.36470 0.86460 0.50007
 Cu1939 Cu 0.60163 0.89897 0.49984
 Cu1940 Cu 0.63567 0.86495 0.49981
 Cu1941 Cu 0.39846 1.10194 0.50003
 Cu1942 Cu 0.36438 1.13591 0.49991
 Cu1943 Cu 0.60118 1.10209 0.49967
 Cu1944 Cu 0.63524 1.13605 0.49966
 Cu1945 Cu 0.39846 1.00054 0.60184
 Cu1946 Cu 0.36441 1.00042 0.63589
 Cu1947 Cu 0.60150 1.00041 0.60185
 Cu1948 Cu 0.63563 1.00040 0.63580
 C1949 C 0.56347 0.93699 0.64291
 H1950 H 0.55694 0.94357 0.62549
 C1951 C 0.58119 0.91908 0.68745
 C1952 C 0.43665 1.06377 0.64301
 H1953 H 0.44322 1.05719 0.62562
 C1954 C 0.41884 1.08167 0.68749
 C1955 C 0.35725 1.06373 0.56343
 H1956 H 0.37467 1.05721 0.55694
 C1957 C 0.31267 1.08144 0.58104
 C1958 C 0.64262 0.93723 0.56328
 H1959 H 0.62521 0.94377 0.55678
 C1960 C 0.68717 0.91946 0.58090
 C1961 C 0.56360 0.85784 0.56348
 H1962 H 0.55703 0.87522 0.55693
 C1963 C 0.58145 0.81335 0.58130
 C1964 C 0.43647 1.14296 0.56360
 H1965 H 0.44312 1.12564 0.55696
 C1966 C 0.41844 1.18726 0.58166
 C1967 C 0.43674 0.93701 0.64284
 H1968 H 0.44336 0.94364 0.62548
 C1969 C 0.41873 0.91899 0.68723
 C1970 C 0.56344 1.06383 0.64303
 H1971 H 0.55679 1.05719 0.62570
 C1972 C 0.58150 1.08182 0.68738
 C1973 C 0.43700 0.85764 0.56342
 H1974 H 0.44355 0.87501 0.55685
 C1975 C 0.41917 0.81316 0.58125
 C1976 C 0.56296 1.14305 0.56316
 H1977 H 0.55647 1.12562 0.55670
 C1978 C 0.58062 1.18765 0.58072
 C1979 C 0.35775 0.93703 0.56345
 H1980 H 0.37513 0.94358 0.55691
 C1981 C 0.31328 0.91919 0.58121
 C1982 C 0.64223 1.06386 0.56327
 H1983 H 0.62483 1.05736 0.55676
 C1984 C 0.68677 1.08154 0.58098
 O1985 O 0.47629 0.41230 0.87906
 O1986 O 0.47628 0.38397 0.85067
 C1987 C 0.46792 0.40370 0.85931
 C1988 C 0.44777 0.41639 0.84668
 C1989 C 0.43880 0.40758 0.82443
 H1990 H 0.44735 0.39193 0.81608
 O1991 O 0.52351 0.58740 0.87901
 O1992 O 0.52348 0.61572 0.85056
 C1993 C 0.53185 0.59598 0.85922
 C1994 C 0.55197 0.58325 0.84658
 C1995 C 0.56086 0.59196 0.82423
 H1996 H 0.55227 0.60756 0.81580
 O1997 O 0.37865 0.47611 0.91257
 O1998 O 0.35021 0.47611 0.88429
 C1999 C 0.35886 0.46780 0.90406
 C2000 C 0.34624 0.44778 0.91696
 C2001 C 0.32396 0.43878 0.90835
 H2002 H 0.31555 0.44718 0.89262
 O2003 O 0.62123 0.52344 0.91258
 O2004 O 0.64961 0.52356 0.88423
 C2005 C 0.64098 0.53180 0.90405
 C2006 C 0.65361 0.55176 0.91696
 C2007 C 0.67597 0.56065 0.90840
 H2008 H 0.68440 0.55218 0.89274
 O2009 O 0.41233 0.37917 0.97680
 O2010 O 0.38407 0.35076 0.97684
 C2011 C 0.40379 0.35940 0.96846
 C2012 C 0.41656 0.34675 0.94836
 C2013 C 0.40783 0.32449 0.93938
 H2014 H 0.39214 0.31616 0.94787
 O2015 O 0.58754 0.62063 0.97646
 O2016 O 0.61582 0.64902 0.97647
 C2017 C 0.59612 0.64038 0.96808
 C2018 C 0.58341 0.65301 0.94791
 C2019 C 0.59216 0.67526 0.93889
 H2020 H 0.60785 0.68358 0.94739
 O2021 O 0.41193 0.52354 0.87919
 O2022 O 0.38360 0.52359 0.85079
 C2023 C 0.40334 0.53191 0.85942
 C2024 C 0.41610 0.55198 0.84674
 C2025 C 0.40738 0.56093 0.82442
 H2026 H 0.39170 0.55247 0.81608
 O2027 O 0.58794 0.47613 0.87919
 O2028 O 0.61620 0.47619 0.85071
 C2029 C 0.59648 0.46784 0.85937
 C2030 C 0.58369 0.44783 0.84669
 C2031 C 0.59240 0.43891 0.82437
 H2032 H 0.60810 0.44738 0.81604
 O2033 O 0.52379 0.37901 0.91243
 O2034 O 0.52377 0.35059 0.88413
 C2035 C 0.53210 0.35922 0.90389
 C2036 C 0.55213 0.34652 0.91671
 C2037 C 0.56102 0.32420 0.90802
 H2038 H 0.55252 0.31587 0.89231
 O2039 O 0.47614 0.62072 0.91248
 O2040 O 0.47609 0.64917 0.88416
 C2041 C 0.46782 0.64053 0.90397
 C2042 C 0.44787 0.65324 0.91690
 C2043 C 0.43907 0.67566 0.90833
 H2044 H 0.44756 0.68405 0.89264
 O2045 O 0.37877 0.58780 0.97695
 O2046 O 0.35040 0.61614 0.97680
 C2047 C 0.35903 0.59636 0.96851
 C2048 C 0.34642 0.58355 0.94839
 C2049 C 0.32423 0.59237 0.93926
 H2050 H 0.31593 0.60813 0.94765
 O2051 O 0.62130 0.41195 0.97647
 O2052 O 0.64959 0.38354 0.97659
 C2053 C 0.64103 0.40329 0.96814
 C2054 C 0.65368 0.41596 0.94793
 C2055 C 0.67581 0.40706 0.93875
 H2056 H 0.68407 0.39125 0.94713
 O2057 O 0.47602 0.58753 0.87903
 O2058 O 0.47595 0.61586 0.85060
 C2059 C 0.46763 0.59612 0.85927
 C2060 C 0.44752 0.58337 0.84666
 C2061 C 0.43854 0.59207 0.82434
 H2062 H 0.44702 0.60774 0.81593
 O2063 O 0.52377 0.41231 0.87904
 O2064 O 0.52380 0.38399 0.85064
 C2065 C 0.53213 0.40373 0.85926
 C2066 C 0.55222 0.41649 0.84660
 C2067 C 0.56118 0.40784 0.82427
 H2068 H 0.55270 0.39219 0.81586
 O2069 O 0.62135 0.47597 0.91236
 O2070 O 0.64972 0.47604 0.88399
 C2071 C 0.64110 0.46763 0.90375
 C2072 C 0.65372 0.44746 0.91647
 C2073 C 0.67587 0.43832 0.90759
 H2074 H 0.68414 0.44672 0.89178
 O2075 O 0.37878 0.52358 0.91267
 O2076 O 0.35035 0.52364 0.88438
 C2077 C 0.35902 0.53196 0.90414
 C2078 C 0.34640 0.55207 0.91695
 C2079 C 0.32421 0.56115 0.90813
 H2080 H 0.31591 0.55274 0.89237
 O2081 O 0.41221 0.62094 0.97698
 O2082 O 0.38395 0.64938 0.97685
 C2083 C 0.40370 0.64071 0.96856
 C2084 C 0.41655 0.65332 0.94848
 C2085 C 0.40801 0.67573 0.93964
 H2086 H 0.39242 0.68417 0.94822
 O2087 O 0.58784 0.37884 0.97657
 O2088 O 0.61602 0.35033 0.97668
 C2089 C 0.59633 0.35903 0.96828
 C2090 C 0.58354 0.34641 0.94818
 C2091 C 0.59218 0.32410 0.93921
 H2092 H 0.60785 0.31569 0.94768
 O2093 O 0.58799 0.52360 0.87918
 O2094 O 0.61625 0.52371 0.85070
 C2095 C 0.59650 0.53199 0.85937
 C2096 C 0.58361 0.55202 0.84668
 C2097 C 0.59224 0.56099 0.82432
 H2098 H 0.60797 0.55260 0.81597
 O2099 O 0.41191 0.47605 0.87917
 O2100 O 0.38358 0.47605 0.85077
 C2101 C 0.40334 0.46770 0.85938
 C2102 C 0.41616 0.44764 0.84670
 C2103 C 0.40744 0.43857 0.82443
 H2104 H 0.39168 0.44692 0.81608
 O2105 O 0.52358 0.62072 0.91226
 O2106 O 0.52356 0.64916 0.88392
 C2107 C 0.53192 0.64048 0.90367
 C2108 C 0.55202 0.65308 0.91643
 C2109 C 0.56103 0.67533 0.90767
 H2110 H 0.55259 0.68371 0.89195
 O2111 O 0.47634 0.37911 0.91252
 O2112 O 0.47631 0.35068 0.88422
 C2113 C 0.46799 0.35934 0.90399
 C2114 C 0.44794 0.34673 0.91684
 C2115 C 0.43894 0.32448 0.90812
 H2116 H 0.44738 0.31612 0.89240
 O2117 O 0.62091 0.58740 0.97670
 O2118 O 0.64928 0.61570 0.97676
 C2119 C 0.64071 0.59594 0.96843
 C2120 C 0.65348 0.58312 0.94845
 C2121 C 0.67584 0.59176 0.93965
 H2122 H 0.68417 0.60740 0.94821
 O2123 O 0.37887 0.41232 0.97688
 O2124 O 0.35053 0.38399 0.97698
 C2125 C 0.35910 0.40373 0.96860
 C2126 C 0.34638 0.41648 0.94855
 C2127 C 0.32410 0.40772 0.93970
 H2128 H 0.31581 0.39205 0.94827
 Cu2129 Cu 0.50006 0.39853 0.89859
 Cu2130 Cu 0.50004 0.36446 0.86456
 Cu2131 Cu 0.49981 0.60125 0.89852
 Cu2132 Cu 0.49976 0.63532 0.86445
 Cu2133 Cu 0.39816 0.49980 0.89873
 Cu2134 Cu 0.36409 0.49985 0.86471
 Cu2135 Cu 0.60180 0.49978 0.89867
 Cu2136 Cu 0.63579 0.49990 0.86455
 C2137 C 0.43646 0.43655 0.85754
 H2138 H 0.44305 0.44318 0.87490
 C2139 C 0.41860 0.41848 0.81315
 C2140 C 0.56333 0.56314 0.85753
 H2141 H 0.55682 0.55658 0.87495
 C2142 C 0.58104 0.58102 0.81296
 C2143 C 0.35716 0.43666 0.93722
 H2144 H 0.37452 0.44326 0.94373
 C2145 C 0.31274 0.41870 0.91956
 C2146 C 0.64265 0.56297 0.93714
 H2147 H 0.62523 0.55645 0.94359
 C2148 C 0.68723 0.58069 0.91959
 C2149 C 0.43676 0.35759 0.93710
 H2150 H 0.44336 0.37493 0.94369
 C2151 C 0.41884 0.31322 0.91921
 C2152 C 0.56320 0.64219 0.93669
 H2153 H 0.55658 0.62486 0.94332
 C2154 C 0.58115 0.68657 0.91873
 C2155 C 0.43631 0.56319 0.85759
 H2156 H 0.44288 0.55662 0.87499
 C2157 C 0.41843 0.58102 0.81308
 C2158 C 0.56347 0.43663 0.85754
 H2159 H 0.55691 0.44316 0.87495
 C2160 C 0.58133 0.41887 0.81302
 C2161 C 0.56336 0.35734 0.93694
 H2162 H 0.55683 0.37472 0.94351
 C2163 C 0.58107 0.31283 0.91910
 C2164 C 0.43663 0.64234 0.93712
 H2165 H 0.44307 0.62488 0.94359
 C2166 C 0.41909 0.68705 0.91954
 C2167 C 0.35722 0.56324 0.93725
 H2168 H 0.37449 0.55656 0.94394
 C2169 C 0.31298 0.58134 0.91910
 C2170 C 0.64294 0.43632 0.93681
 H2171 H 0.62572 0.44307 0.94356
 C2172 C 0.68709 0.41811 0.91858
 O2173 O 0.52338 0.41211 1.12233
 O2174 O 0.52340 0.38370 1.15069
 C2175 C 0.53171 0.40348 1.14210
 C2176 C 0.55174 0.41625 1.15479
 C2177 C 0.56064 0.40756 1.17715
 H2178 H 0.55213 0.39190 1.18553
 O2179 O 0.47599 0.58785 1.12193
 O2180 O 0.47613 0.61618 1.15033
 C2181 C 0.46773 0.59645 1.14174
 C2182 C 0.44769 0.58374 1.15448
 C2183 C 0.43880 0.59254 1.17676
 H2184 H 0.44731 0.60824 1.18504
 O2185 O 0.37875 0.52395 1.08892
 O2186 O 0.35030 0.52394 1.11721
 C2187 C 0.35896 0.53227 1.09744
 C2188 C 0.34630 0.55229 1.08454
 C2189 C 0.32395 0.56122 1.09314
 H2190 H 0.31557 0.55279 1.10886
 O2191 O 0.62063 0.47586 1.08864
 O2192 O 0.64904 0.47588 1.11694
 C2193 C 0.64042 0.46756 1.09717
 C2194 C 0.65316 0.44760 1.08428
 C2195 C 0.67552 0.43875 1.09291
 H2196 H 0.68383 0.44720 1.10865
 O2197 O 0.58765 0.37903 1.02415
 O2198 O 0.61585 0.35053 1.02430
 C2199 C 0.59612 0.35925 1.03260
 C2200 C 0.58327 0.34666 1.05273
 C2201 C 0.59191 0.32432 1.06167
 H2202 H 0.60755 0.31593 1.05314
 O2203 O 0.41187 0.62127 1.02457
 O2204 O 0.38358 0.64968 1.02447
 C2205 C 0.40329 0.64105 1.03289
 C2206 C 0.41604 0.65371 1.05303
 C2207 C 0.40734 0.67599 1.06206
 H2208 H 0.39165 0.68436 1.05360
 O2209 O 0.41209 0.47645 1.12224
 O2210 O 0.38375 0.47641 1.15064
 C2211 C 0.40349 0.46806 1.14201
 C2212 C 0.41619 0.44791 1.15465
 C2213 C 0.40736 0.43892 1.17690
 H2214 H 0.39172 0.44748 1.18525
 O2215 O 0.58733 0.52339 1.12190
 O2216 O 0.61565 0.52343 1.15031
 C2217 C 0.59591 0.53178 1.14165
 C2218 C 0.58319 0.55190 1.15427
 C2219 C 0.59195 0.56085 1.17655
 H2220 H 0.60761 0.55233 1.18491
 O2221 O 0.47607 0.37889 1.08883
 O2222 O 0.47605 0.35036 1.11706
 C2223 C 0.46777 0.35906 1.09729
 C2224 C 0.44783 0.34644 1.08434
 C2225 C 0.43892 0.32405 1.09285
 H2226 H 0.44732 0.31559 1.10855
 O2227 O 0.52336 0.62100 1.08837
 O2228 O 0.52353 0.64944 1.11665
 C2229 C 0.53175 0.64076 1.09685
 C2230 C 0.55174 0.65336 1.08390
 C2231 C 0.56065 0.67572 1.09243
 H2232 H 0.55221 0.68415 1.10812
 O2233 O 0.37914 0.41247 1.02444
 O2234 O 0.35080 0.38413 1.02453
 C2235 C 0.35942 0.40389 1.03285
 C2236 C 0.34677 0.41666 1.05296
 C2237 C 0.32449 0.40793 1.06186
 H2238 H 0.31617 0.39227 1.05332
 O2239 O 0.62061 0.58740 1.02425
 O2240 O 0.64897 0.61571 1.02431
 C2241 C 0.64033 0.59597 1.03266
 C2242 C 0.65292 0.58321 1.05282
 C2243 C 0.67517 0.59193 1.06180
 H2244 H 0.68350 0.60762 1.05329
 O2245 O 0.52343 0.58778 1.12185
 O2246 O 0.52360 0.61611 1.15024
 C2247 C 0.53184 0.59632 1.14161
 C2248 C 0.55187 0.58345 1.15427
 C2249 C 0.56088 0.59211 1.17658
 H2250 H 0.55247 0.60783 1.18495
 O2251 O 0.47592 0.41212 1.12224
 O2252 O 0.47587 0.38371 1.15060
 C2253 C 0.46753 0.40349 1.14200
 C2254 C 0.44744 0.41629 1.15466
 C2255 C 0.43834 0.40755 1.17693
 H2256 H 0.44667 0.39177 1.18528
 O2257 O 0.62062 0.52334 1.08861
 O2258 O 0.64904 0.52338 1.11692
 C2259 C 0.64037 0.53170 1.09715
 C2260 C 0.65297 0.55178 1.08431
 C2261 C 0.67523 0.56076 1.09302
 H2262 H 0.68359 0.55230 1.10874
 O2263 O 0.37894 0.47649 1.08882
 O2264 O 0.35049 0.47641 1.11710
 C2265 C 0.35919 0.46810 1.09733
 C2266 C 0.34663 0.44803 1.08447
 C2267 C 0.32434 0.43903 1.09311
 H2268 H 0.31591 0.44747 1.10880
 O2269 O 0.58736 0.62074 1.02402
 O2270 O 0.61563 0.64914 1.02403
 C2271 C 0.59588 0.64053 1.03234
 C2272 C 0.58305 0.65324 1.05234
 C2273 C 0.59169 0.67560 1.06112
 H2274 H 0.60732 0.68394 1.05253
 O2275 O 0.41234 0.37908 1.02435
 O2276 O 0.38408 0.35066 1.02438
 C2277 C 0.40381 0.35929 1.03269
 C2278 C 0.41660 0.34657 1.05272
 C2279 C 0.40795 0.32420 1.06148
 H2280 H 0.39235 0.31586 1.05285
 O2281 O 0.58746 0.47591 1.12217
 O2282 O 0.61576 0.47592 1.15058
 C2283 C 0.59601 0.46760 1.14200
 C2284 C 0.58318 0.44761 1.15476
 C2285 C 0.59180 0.43870 1.17715
 H2286 H 0.60747 0.44716 1.18552
 O2287 O 0.41202 0.52394 1.12229
 O2288 O 0.38369 0.52397 1.15070
 C2289 C 0.40344 0.53230 1.14206
 C2290 C 0.41624 0.55238 1.15468
 C2291 C 0.40759 0.56144 1.17698
 H2292 H 0.39189 0.55306 1.18540
 O2293 O 0.47590 0.62120 1.08863
 O2294 O 0.47604 0.64963 1.11693
 C2295 C 0.46761 0.64099 1.09721
 C2296 C 0.44751 0.65366 1.08446
 C2297 C 0.43854 0.67593 1.09323
 H2298 H 0.44704 0.68426 1.10893
 O2299 O 0.52350 0.37910 1.08873
 O2300 O 0.52354 0.35057 1.11697
 C2301 C 0.53187 0.35930 1.09722
 C2302 C 0.55192 0.34668 1.08432
 C2303 C 0.56087 0.32435 1.09299
 H2304 H 0.55242 0.31597 1.10870
 O2305 O 0.62108 0.41217 1.02407
 O2306 O 0.64940 0.38378 1.02424
 C2307 C 0.64079 0.40357 1.03252
 C2308 C 0.65336 0.41635 1.05265
 C2309 C 0.67572 0.40776 1.06154
 H2310 H 0.68419 0.39219 1.05296
 O2311 O 0.37877 0.58779 1.02454
 O2312 O 0.35038 0.61610 1.02441
 C2313 C 0.35900 0.59636 1.03283
 C2314 C 0.34632 0.58360 1.05293
 C2315 C 0.32398 0.59227 1.06176
 H2316 H 0.31560 0.60789 1.05315
 Cu2317 Cu 0.49971 0.39840 1.10272
 Cu2318 Cu 0.49972 0.36423 1.13668
 Cu2319 Cu 0.49966 0.60162 1.10236
 Cu2320 Cu 0.49985 0.63569 1.13639
 Cu2321 Cu 0.39850 0.39860 1.00060
 Cu2322 Cu 0.36453 0.36453 1.00070
 Cu2323 Cu 0.60166 0.39835 1.00029
 Cu2324 Cu 0.63555 0.36419 1.00048
 Cu2325 Cu 0.39823 0.60162 1.00078
 Cu2326 Cu 0.36424 0.63567 1.00061
 Cu2327 Cu 0.60127 0.60120 1.00035
 Cu2328 Cu 0.63527 0.63524 1.00040
 Cu2329 Cu 0.39829 0.50023 1.10274
 Cu2330 Cu 0.36421 0.50017 1.13676
 Cu2331 Cu 0.60117 0.49960 1.10250
 Cu2332 Cu 0.63522 0.49964 1.13654
 C2333 C 0.56299 0.43642 1.14389
 H2334 H 0.55646 0.44297 1.12646
 C2335 C 0.58069 0.41863 1.18850
 C2336 C 0.43644 0.56352 1.14372
 H2337 H 0.44298 0.55688 1.12635
 C2338 C 0.41872 0.58157 1.18816
 C2339 C 0.35720 0.56347 1.06429
 H2340 H 0.37460 0.55692 1.05781
 C2341 C 0.31264 0.58125 1.08190
 C2342 C 0.64236 0.43641 1.06400
 H2343 H 0.62495 0.44290 1.05748
 C2344 C 0.68695 0.41880 1.08171
 C2345 C 0.56312 0.35757 1.06405
 H2346 H 0.55658 0.37497 1.05750
 C2347 C 0.58090 0.31303 1.08184
 C2348 C 0.43627 0.64284 1.06423
 H2349 H 0.44284 0.62549 1.05762
 C2350 C 0.41842 0.68725 1.08221
 C2351 C 0.43636 0.43661 1.14380
 H2352 H 0.44300 0.44321 1.12644
 C2353 C 0.41824 0.41870 1.18819
 C2354 C 0.56302 0.56319 1.14339
 H2355 H 0.55643 0.55665 1.12600
 C2356 C 0.58098 0.58099 1.18784
 C2357 C 0.43669 0.35742 1.06411
 H2358 H 0.44321 0.37486 1.05766
 C2359 C 0.41894 0.31278 1.08157
 C2360 C 0.56292 0.64239 1.06370
 H2361 H 0.55640 0.62496 1.05727
 C2362 C 0.58068 0.68697 1.08121
 C2363 C 0.35757 0.43685 1.06424
 H2364 H 0.37494 0.44344 1.05772
 C2365 C 0.31313 0.41894 1.08198
 C2366 C 0.64209 0.56298 1.06406
 H2367 H 0.62477 0.55638 1.05746
 C2368 C 0.68648 0.58086 1.08192
 N2369 N 1.12089 1.09048 1.24083
 C2370 C 1.11044 1.11005 1.25161
 N2371 N 1.09016 1.11980 1.24149
 N2372 N 1.08074 1.11040 1.22124
 C2373 C 1.09120 1.09086 1.21031
 N2374 N 1.11145 1.08108 1.22058
 N2375 N 1.08927 0.61748 0.74362
 C2376 C 1.11043 0.60869 0.75278
 N2377 N 1.12186 0.59037 0.74085
 N2378 N 1.11250 0.58123 0.72045
 C2379 C 1.09139 0.59007 0.71112
 N2380 N 1.07995 0.60837 0.72318
 N2381 N 0.62137 1.09151 0.74081
 C2382 C 0.61095 1.11109 0.75165
 N2383 N 0.59062 1.12079 0.74155
 N2384 N 0.58117 1.11139 0.72131
 C2385 C 0.59163 1.09187 0.71034
 N2386 N 0.61190 1.08211 0.72057
 N2387 N 0.62085 0.59061 1.24125
 C2388 C 0.61038 0.61015 1.25209
 N2389 N 0.59004 0.61986 1.24204
 N2390 N 0.58059 0.61046 1.22181
 C2391 C 0.59107 0.59097 1.21082
 N2392 N 0.61137 0.58122 1.22101
 N2393 N 0.87938 0.90961 1.24156
 C2394 C 0.88938 0.88961 1.25206
 N2395 N 0.90915 0.87931 1.24144
 N2396 N 0.91847 0.88855 1.22105
 C2397 C 0.90844 0.90850 1.21043
 N2398 N 0.88871 0.91885 1.22116
 N2399 N 0.87703 0.40647 0.73920
 C2400 C 0.88857 0.38829 0.75130
 N2401 N 0.91031 0.38031 0.74274
 N2402 N 0.92001 0.38999 0.72272
 C2403 C 0.90844 0.40811 0.71049
 N2404 N 0.88678 0.41618 0.71922
 N2405 N 0.37896 0.90927 0.74073
 C2406 C 0.38943 0.88970 0.75153
 N2407 N 0.40972 0.87998 0.74142
 N2408 N 0.41913 0.88940 0.72115
 C2409 C 0.40865 0.90894 0.71020
 N2410 N 0.38838 0.91869 0.72046
 N2411 N 0.37809 0.40917 1.24146
 C2412 C 0.38847 0.38964 1.25245
 N2413 N 0.40887 0.37992 1.24250
 N2414 N 0.41843 0.38926 1.22226
 C2415 C 0.40801 0.40873 1.21115
 N2416 N 0.38767 0.41851 1.22123
 N2417 N 0.87942 1.09019 0.75855
 C2418 C 0.88965 1.10992 0.74783
 N2419 N 0.90969 1.11996 0.75810
 N2420 N 0.91910 1.11069 0.77843
 C2421 C 0.90887 1.09100 0.78930
 N2422 N 0.88885 1.08092 0.77889
 N2423 N 0.90940 0.62009 0.25865
 C2424 C 0.88982 0.60960 0.24797
 N2425 N 0.87994 0.58952 0.25836
 N2426 N 0.88927 0.58034 0.27878
 C2427 C 0.90883 0.59086 0.28960
 N2428 N 0.91872 0.61090 0.27906
 N2429 N 0.37904 1.09016 0.25898
 C2430 C 0.38943 1.10968 0.24803
 N2431 N 0.40971 1.11951 0.25803
 N2432 N 0.41919 1.11024 0.27833
 C2433 C 0.40878 1.09077 0.28943
 N2434 N 0.38854 1.08090 0.27928
 N2435 N 0.37951 0.58989 0.75881
 C2436 C 0.38960 0.60983 0.74835
 N2437 N 0.40933 0.62011 0.75898
 N2438 N 0.41858 0.61085 0.77939
 C2439 C 0.40848 0.59093 0.78999
 N2440 N 0.38877 0.58064 0.77923
 N2441 N 1.09035 0.88008 0.75809
 C2442 C 1.11062 0.88983 0.74798
 N2443 N 1.12107 0.90937 0.75879
 N2444 N 1.11163 0.91874 0.77906
 C2445 C 1.09139 0.90896 0.78932
 N2446 N 1.08093 0.88945 0.77836
 N2447 N 1.12010 0.41019 0.25824
 C2448 C 1.10997 0.39024 0.24787
 N2449 N 1.09019 0.38005 0.25851
 N2450 N 1.08094 0.38941 0.27886
 C2451 C 1.09107 0.40932 0.28938
 N2452 N 1.11083 0.41954 0.27860
 N2453 N 0.62028 0.91026 0.25822
 C2454 C 0.61011 0.89043 0.24768
 N2455 N 0.59018 0.88032 0.25814
 N2456 N 0.58084 0.88963 0.27847
 C2457 C 0.59103 0.90942 0.28916
 N2458 N 0.61092 0.91957 0.27856
 N2459 N 0.62109 0.40932 0.75950
 C2460 C 0.61054 0.38988 0.74859
 N2461 N 0.59020 0.38020 0.75863
 N2462 N 0.58081 0.38954 0.77894
 C2463 C 0.59137 0.40894 0.79000
 N2464 N 0.61168 0.41865 0.77980
 N2465 N 1.24021 1.09035 1.12082
 C2466 C 1.25093 1.10990 1.11025
 N2467 N 1.24075 1.11960 1.08995
 N2468 N 1.22050 1.11017 1.08063
 C2469 C 1.20963 1.09066 1.09122
 N2470 N 1.21996 1.08092 1.11149
 N2471 N 1.24083 0.62046 0.59048
 C2472 C 1.25153 0.61016 0.61021
 N2473 N 1.24121 0.59014 0.62031
 N2474 N 1.22086 0.58085 0.61107
 C2475 C 1.21003 0.59117 0.59135
 N2476 N 1.22048 0.61116 0.58125
 N2477 N 0.74086 1.12046 0.58988
 C2478 C 0.75126 1.11042 0.60990
 N2479 N 0.74069 1.09065 0.62022
 N2480 N 0.72036 1.08135 0.61092
 C2481 C 0.70981 1.09143 0.59092
 N2482 N 0.72054 1.11115 0.58059
 N2483 N 0.74089 0.58964 1.12055
 C2484 C 0.75109 0.60977 1.11055
 N2485 N 0.74023 0.62020 1.09098
 N2486 N 0.71985 0.61091 1.08180
 C2487 C 0.70952 0.59082 1.09181
 N2488 N 0.72050 0.58036 1.11137
 N2489 N 1.24073 0.87976 0.90959
 C2490 C 1.25092 0.88948 0.88930
 N2491 N 1.24017 0.90902 0.87872
 N2492 N 1.21988 0.91842 0.88804
 C2493 C 1.20954 0.90868 0.90830
 N2494 N 1.22044 0.88917 0.91889
 N2495 N 1.24103 0.37966 0.40894
 C2496 C 1.25117 0.38938 0.38860
 N2497 N 1.24037 0.40897 0.37812
 N2498 N 1.22013 0.41837 0.38756
 C2499 C 1.20986 0.40861 0.40785
 N2500 N 1.22079 0.38907 0.41835
 N2501 N 0.74096 0.91026 0.37893
 C2502 C 0.75137 0.89027 0.38901
 N2503 N 0.74076 0.87999 0.40880
 N2504 N 0.72043 0.88928 0.41812
 C2505 C 0.70988 0.90924 0.40804
 N2506 N 0.72062 0.91955 0.38826
 N2507 N 0.74013 0.37797 0.90823
 C2508 C 0.75093 0.38855 0.88870
 N2509 N 0.74105 0.40912 0.87929
 N2510 N 0.72098 0.41865 0.88895
 C2511 C 0.70999 0.40801 0.90841
 N2512 N 0.72007 0.38752 0.91789
 N2513 N 0.75908 0.87967 1.08992
 C2514 C 0.74851 0.88982 1.10978
 N2515 N 0.75893 0.90970 1.11999
 N2516 N 0.77928 0.91901 1.11072
 C2517 C 0.79000 0.90883 1.09089
 N2518 N 0.77942 0.88899 1.08066
 N2519 N 0.75895 0.38014 0.59018
 C2520 C 0.74885 0.38980 0.61054
 N2521 N 0.75970 0.40924 0.62114
 N2522 N 0.77998 0.41860 0.61178
 C2523 C 0.79023 0.40890 0.59145
 N2524 N 0.77923 0.38950 0.58084
 N2525 N 0.25913 0.88024 0.58976
 C2526 C 0.24891 0.88988 0.61006
 N2527 N 0.25962 0.90939 0.62068
 N2528 N 0.27990 0.91884 0.61139
 C2529 C 0.29027 0.90916 0.59113
 N2530 N 0.27941 0.88969 0.58050
 N2531 N 0.25878 0.40978 1.12065
 C2532 C 0.24852 0.38980 1.11046
 N2533 N 0.25930 0.37960 1.09074
 N2534 N 0.27967 0.38897 1.08161
 C2535 C 0.29008 0.40892 1.09181
 N2536 N 0.27916 0.41914 1.11151
 N2537 N 0.75888 1.12015 0.90903
 C2538 C 0.74876 1.11034 0.88877
 N2539 N 0.75957 1.09076 0.87834
 N2540 N 0.77984 1.08143 0.88778
 C2541 C 0.79011 1.09128 0.90801
 N2542 N 0.77915 1.11082 0.91845
 N2543 N 0.75908 0.62020 0.41008
 C2544 C 0.74890 0.61049 0.38980
 N2545 N 0.75964 0.59093 0.37928
 N2546 N 0.77990 0.58150 0.38863
 C2547 C 0.79023 0.59125 0.40888
 N2548 N 0.77934 0.61077 0.41942
 N2549 N 0.25914 1.12028 0.40962
 C2550 C 0.24897 1.11051 0.38937
 N2551 N 0.25974 1.09095 0.37887
 N2552 N 0.28002 1.08158 0.38824
 C2553 C 0.29034 1.09138 0.40846
 N2554 N 0.27942 1.11091 0.41897
 N2555 N 0.25927 0.59073 0.87958
 C2556 C 0.24930 0.61116 0.88916
 N2557 N 0.25997 0.62152 0.90885
 N2558 N 0.27998 0.61188 0.91852
 C2559 C 0.29014 0.59151 0.90889
 N2560 N 0.27929 0.58110 0.88925
 N2561 N 1.12006 1.24075 1.08993
 C2562 C 1.10987 1.25135 1.10975
 N2563 N 1.08996 1.24096 1.11994
 N2564 N 1.08064 1.22061 1.11070
 C2565 C 1.09085 1.20986 1.09091
 N2566 N 1.11073 1.22040 1.08070
 N2567 N 1.11990 0.74125 0.58939
 C2568 C 1.10979 0.75189 0.60923
 N2569 N 1.09000 0.74144 0.61960
 N2570 N 1.08072 0.72100 0.61052
 C2571 C 1.09085 0.71021 0.59071
 N2572 N 1.11061 0.72081 0.58032
 N2573 N 0.61962 1.24174 0.58945
 C2574 C 0.60947 1.25230 0.60932
 N2575 N 0.58962 1.24184 0.61957
 N2576 N 0.58033 1.22147 0.61035
 C2577 C 0.59051 1.21076 0.59052
 N2578 N 0.61032 1.22137 0.58024
 N2579 N 0.58989 0.74115 1.12001
 C2580 C 0.60980 0.75150 1.10977
 N2581 N 0.61992 0.74086 1.08992
 N2582 N 0.61053 0.72053 1.08073
 C2583 C 0.59066 0.71003 1.09100
 N2584 N 0.58051 0.72082 1.11081
 N2585 N 0.87688 1.23862 0.90634
 C2586 C 0.88858 1.25076 0.88830
 N2587 N 0.91028 1.24216 0.88030
 N2588 N 0.91981 1.22203 0.88987
 C2589 C 0.90809 1.20975 0.90787
 N2590 N 0.88646 1.21854 0.91595
 N2591 N 0.87976 0.74123 0.40974
 C2592 C 0.88997 0.75181 0.38989
 N2593 N 0.90990 0.74138 0.37977
 N2594 N 0.91921 0.72104 0.38908
 C2595 C 0.90898 0.71031 0.40889
 N2596 N 0.88908 0.72088 0.41904
 N2597 N 0.37951 1.24162 0.41017
 C2598 C 0.38963 1.25229 0.39034
 N2599 N 0.40954 1.24193 0.38009
 N2600 N 0.41891 1.22155 0.38927
 C2601 C 0.40877 1.21073 0.40907
 N2602 N 0.38890 1.22125 0.41935
 N2603 N 0.41021 0.74133 0.88066
 C2604 C 0.39037 0.75183 0.89089
 N2605 N 0.38019 0.74126 0.91075
 N2606 N 0.38945 0.72085 0.91997
 C2607 C 0.40925 0.71020 0.90971
 N2608 N 0.41947 0.72092 0.88989
 N2609 N 1.08979 0.75739 0.88135
 C2610 C 1.11126 0.74859 0.88976
 N2611 N 1.12283 0.76073 0.90785
 N2612 N 1.11331 0.78096 0.91716
 C2613 C 1.09186 0.78990 0.90873
 N2614 N 1.08030 0.77766 0.89063
 N2615 N 1.11972 0.25863 0.41036
 C2616 C 1.10954 0.24807 0.39051
 N2617 N 1.08971 0.25858 0.38026
 N2618 N 1.08047 0.27900 0.38945
 C2619 C 1.09068 0.28972 0.40926
 N2620 N 1.11047 0.27905 0.41954
 N2621 N 0.58996 0.75891 0.38034
 C2622 C 0.60984 0.74847 0.39058
 N2623 N 0.62004 0.75913 0.41035
 N2624 N 0.61078 0.77956 0.41948
 C2625 C 0.59094 0.79015 0.40921
 N2626 N 0.58070 0.77934 0.38947
 N2627 N 0.58993 0.25880 0.87993
 C2628 C 0.60981 0.24825 0.89005
 N2629 N 0.62003 0.25871 0.90992
 N2630 N 0.61078 0.27906 0.91927
 C2631 C 0.59094 0.28976 0.90913
 N2632 N 0.58069 0.27915 0.88929
 N2633 N 0.87958 0.75880 1.08983
 C2634 C 0.88968 0.74817 1.10970
 N2635 N 0.90964 0.75846 1.11986
 N2636 N 0.91907 0.77876 1.11059
 C2637 C 0.90893 0.78956 1.09078
 N2638 N 0.88902 0.77910 1.08056
 N2639 N 0.91013 0.25884 0.61978
 C2640 C 0.89026 0.24848 0.60948
 N2641 N 0.88016 0.25916 0.58964
 N2642 N 0.88952 0.27955 0.58050
 C2643 C 0.90935 0.29006 0.59082
 N2644 N 0.91948 0.27923 0.61063
 N2645 N 0.37994 0.75926 0.59015
 C2646 C 0.39003 0.74867 0.61005
 N2647 N 0.40990 0.75907 0.62029
 N2648 N 0.41927 0.77940 0.61103
 C2649 C 0.40917 0.79013 0.59116
 N2650 N 0.38933 0.77958 0.58090
 N2651 N 0.40976 0.25832 1.12007
 C2652 C 0.38993 0.24797 1.10971
 N2653 N 0.37983 0.25871 1.08990
 N2654 N 0.38918 0.27915 1.08086
 C2655 C 0.40898 0.28965 1.09125
 N2656 N 0.41910 0.27876 1.11102
 N2657 N 1.09112 1.12216 0.75881
 C2658 C 1.11072 1.11179 0.74795
 N2659 N 1.12049 1.09148 0.75807
 N2660 N 1.11111 1.08198 0.77833
 C2661 C 1.09156 1.09237 0.78930
 N2662 N 1.08175 1.11264 0.77906
 N2663 N 1.12009 0.59117 0.25810
 C2664 C 1.11034 0.61152 0.24804
 N2665 N 1.09080 0.62193 0.25896
 N2666 N 1.08148 0.61241 0.27924
 C2667 C 1.09129 0.59211 0.28942
 N2668 N 1.11077 0.58168 0.27837
 N2669 N 0.59121 1.12176 0.25885
 C2670 C 0.61070 1.11115 0.24802
 N2671 N 0.62019 1.09070 0.25813
 N2672 N 0.61066 1.08133 0.27836
 C2673 C 0.59124 1.09198 0.28932
 N2674 N 0.58169 1.11237 0.27908
 N2675 N 0.62004 0.59022 0.75882
 C2676 C 0.60991 0.61016 0.74836
 N2677 N 0.59007 0.62033 0.75893
 N2678 N 0.58079 0.61096 0.77929
 C2679 C 0.59095 0.59104 0.78988
 N2680 N 0.61075 0.58086 0.77917
 N2681 N 0.88014 0.90969 0.75848
 C2682 C 0.88982 0.88937 0.74838
 N2683 N 0.90937 0.87887 0.75917
 N2684 N 0.91881 0.88830 0.77940
 C2685 C 0.90909 0.90859 0.78965
 N2686 N 0.88958 0.91910 0.77871
 N2687 N 0.87947 0.40915 0.25844
 C2688 C 0.88924 0.38886 0.24830
 N2689 N 0.90888 0.37851 0.25911
 N2690 N 0.91828 0.38801 0.27934
 C2691 C 0.90845 0.40825 0.28959
 N2692 N 0.88887 0.41863 0.27866
 N2693 N 0.37939 0.90882 0.25825
 C2694 C 0.38953 0.88883 0.24786
 N2695 N 0.40940 0.87875 0.25850
 N2696 N 0.41868 0.88823 0.27880
 C2697 C 0.40850 0.90817 0.28930
 N2698 N 0.38868 0.91828 0.27854
 N2699 N 0.37980 0.40918 0.75890
 C2700 C 0.38974 0.38900 0.74876
 N2701 N 0.40937 0.37869 0.75959
 N2702 N 0.41863 0.38817 0.77988
 C2703 C 0.40867 0.40833 0.79016
 N2704 N 0.38907 0.41865 0.77919
 N2705 N 1.09054 0.87834 1.24114
 C2706 C 1.11008 0.88878 1.25196
 N2707 N 1.11984 0.90906 1.24184
 N2708 N 1.11048 0.91849 1.22155
 C2709 C 1.09098 0.90803 1.21058
 N2710 N 1.08119 0.88778 1.22086
 N2711 N 1.12069 0.40877 0.74164
 C2712 C 1.11033 0.38904 0.75223
 N2713 N 1.09033 0.37909 0.74178
 N2714 N 1.08112 0.38849 0.72140
 C2715 C 1.09151 0.40821 0.71068
 N2716 N 1.11147 0.41816 0.72127
 N2717 N 0.58994 0.87993 0.74164
 C2718 C 0.60988 0.88994 0.75213
 N2719 N 0.62021 0.90969 0.74153
 N2720 N 0.61099 0.91904 0.72114
 C2721 C 0.59107 0.90903 0.71052
 N2722 N 0.58073 0.88929 0.72124
 N2723 N 0.59014 0.37902 1.24221
 C2724 C 0.60950 0.38963 1.25321
 N2725 N 0.61911 0.41003 1.24314
 N2726 N 0.60983 0.41935 1.22277
 C2727 C 0.59054 0.40869 1.21162
 N2728 N 0.58086 0.38836 1.22184
 N2729 N 0.88012 1.08993 1.24181
 C2730 C 0.88990 1.11022 1.25187
 N2731 N 0.90938 1.12069 1.24097
 N2732 N 0.91868 1.11127 1.22065
 C2733 C 0.90887 1.09102 1.21044
 N2734 N 0.88942 1.08053 1.22149
 N2735 N 0.88015 0.58986 0.74184
 C2736 C 0.88981 0.61018 0.75193
 N2737 N 0.90936 0.62067 0.74114
 N2738 N 0.91881 0.61123 0.72091
 C2739 C 0.90911 0.59095 0.71067
 N2740 N 0.88961 0.58044 0.72161
 N2741 N 0.38006 1.09062 0.74178
 C2742 C 0.38979 1.11091 0.75187
 N2743 N 0.40930 1.12139 0.74102
 N2744 N 0.41865 1.11197 0.72073
 C2745 C 0.40888 1.09172 0.71049
 N2746 N 0.38941 1.08122 0.72150
 N2747 N 0.40941 0.62156 1.24153
 C2748 C 0.38997 0.61111 1.25255
 N2749 N 0.38020 0.59075 1.24261
 N2750 N 0.38945 0.58126 1.22232
 C2751 C 0.40885 0.59172 1.21116
 N2752 N 0.41866 0.61204 1.22125
 N2753 N 1.09056 1.24129 0.87962
 C2754 C 1.11057 1.25160 0.88974
 N2755 N 1.12076 1.24082 0.90951
 N2756 N 1.11138 1.22047 0.91873
 C2757 C 1.09142 1.21005 0.90858
 N2758 N 1.08120 1.22093 0.88884
 N2759 N 1.09145 0.74047 0.37866
 C2760 C 1.11106 0.75114 0.38917
 N2761 N 1.12070 0.74087 0.40948
 N2762 N 1.11118 0.72065 0.41884
 C2763 C 1.09162 0.70986 0.40830
 N2764 N 1.08193 0.72025 0.38803
 N2765 N 0.62277 1.23941 0.40665
 C2766 C 0.61167 1.25108 0.38791
 N2767 N 0.59044 1.24199 0.37920
 N2768 N 0.58080 1.22191 0.38876
 C2769 C 0.59193 1.21013 0.40745
 N2770 N 0.61310 1.21936 0.41622
 N2771 N 0.62046 0.74039 0.90963
 C2772 C 0.61019 0.75113 0.88990
 N2773 N 0.59022 0.74081 0.87978
 N2774 N 0.58091 0.72043 0.88902
 C2775 C 0.59118 0.70957 0.90875
 N2776 N 0.61114 0.72002 0.91886
 N2777 N 0.87984 1.24112 1.09067
 C2778 C 0.88977 1.25128 1.11085
 N2779 N 0.90940 1.24050 1.12119
 N2780 N 0.91869 1.22022 1.11173
 C2781 C 0.90873 1.20991 1.09157
 N2782 N 0.88913 1.22084 1.08123
 N2783 N 0.88000 0.74082 0.59032
 C2784 C 0.88963 0.75100 0.61064
 N2785 N 0.90916 0.74026 0.62124
 N2786 N 0.91863 0.72000 0.61191
 C2787 C 0.90897 0.70968 0.59162
 N2788 N 0.88948 0.72056 0.58101
 N2789 N 0.37949 1.24141 0.59078
 C2790 C 0.38924 1.25155 0.61109
 N2791 N 0.40882 1.24072 0.62151
 N2792 N 0.41820 1.22047 0.61206
 C2793 C 0.40840 1.21022 0.59179
 N2794 N 0.38887 1.22117 0.58134
 N2795 N 0.40935 0.74120 1.12155
 C2796 C 0.38949 0.75178 1.11140
 N2797 N 0.37937 0.74131 1.09144
 N2798 N 0.38867 0.72099 1.08208
 C2799 C 0.40848 0.71029 1.09226
 N2800 N 0.41864 0.72087 1.11217
 N2801 N 0.90930 0.75931 0.87894
 C2802 C 0.88976 0.74860 0.88953
 N2803 N 0.88012 0.75878 0.90985
 N2804 N 0.88959 0.77901 0.91917
 C2805 C 0.90908 0.78987 0.90858
 N2806 N 0.91876 0.77955 0.88828
 N2807 N 0.90931 0.25961 0.37894
 C2808 C 0.88971 0.24891 0.38944
 N2809 N 0.87996 0.25913 0.40969
 N2810 N 0.88939 0.27937 0.41904
 C2811 C 0.90894 0.29022 0.40853
 N2812 N 0.91873 0.27986 0.38830
 N2813 N 0.40877 0.75965 0.37886
 C2814 C 0.38924 0.74890 0.38947
 N2815 N 0.37970 0.75908 0.40986
 N2816 N 0.38920 0.77931 0.41918
 C2817 C 0.40867 0.79019 0.40853
 N2818 N 0.41827 0.77988 0.38820
 N2819 N 0.40908 0.25977 0.87948
 C2820 C 0.38954 0.24902 0.89001
 N2821 N 0.37986 0.25914 0.91035
 N2822 N 0.38929 0.27936 0.91973
 C2823 C 0.40880 0.29027 0.90918
 N2824 N 0.41851 0.27999 0.88888
 N2825 N 1.12060 0.75872 1.09111
 C2826 C 1.11082 0.74857 1.11142
 N2827 N 1.09120 0.75937 1.12179
 N2828 N 1.08181 0.77961 1.11229
 C2829 C 1.09164 0.78988 1.09203
 N2830 N 1.11121 0.77896 1.08162
 N2831 N 1.12072 0.25891 0.59087
 C2832 C 1.11096 0.24876 0.61119
 N2833 N 1.09139 0.25961 0.62162
 N2834 N 1.08205 0.27989 0.61217
 C2835 C 1.09186 0.29017 0.59190
 N2836 N 1.11138 0.27920 0.58144
 N2837 N 0.62047 0.75922 0.59030
 C2838 C 0.61035 0.74872 0.61024
 N2839 N 0.59054 0.75927 0.62049
 N2840 N 0.58127 0.77965 0.61118
 C2841 C 0.59140 0.79028 0.59127
 N2842 N 0.61118 0.77959 0.58101
 N2843 N 0.59063 0.25937 1.12142
 C2844 C 0.61018 0.24864 1.11085
 N2845 N 0.61985 0.25883 1.09054
 N2846 N 0.61041 0.27911 1.08122
 C2847 C 0.59091 0.29000 1.09180
 N2848 N 0.58120 0.27965 1.11207
 N2849 N 1.24125 1.11979 0.91060
 C2850 C 1.25188 1.10971 0.89074
 N2851 N 1.24144 1.08991 0.88039
 N2852 N 1.22102 1.08061 0.88950
 C2853 C 1.21024 1.09072 0.90932
 N2854 N 1.22083 1.11048 0.91970
 N2855 N 1.24115 0.62060 0.41073
 C2856 C 1.25195 0.61052 0.39096
 N2857 N 1.24171 0.59059 0.38064
 N2858 N 1.22132 0.58117 0.38968
 C2859 C 1.21036 0.59128 0.40940
 N2860 N 1.22076 0.61117 0.41976
 N2861 N 0.74096 1.12024 0.41017
 C2862 C 0.75168 1.10998 0.39044
 N2863 N 0.74128 1.09008 0.38024
 N2864 N 0.72084 1.08085 0.38936
 C2865 C 0.70998 1.09114 0.40905
 N2866 N 0.72052 1.11100 0.41929
 N2867 N 0.74126 0.61976 0.91078
 C2868 C 0.75186 0.60958 0.89095
 N2869 N 0.74145 0.58969 0.88076
 N2870 N 0.72108 0.58039 0.88999
 C2871 C 0.71032 0.59060 0.90978
 N2872 N 0.72089 0.61046 0.92000
 N2873 N 1.24114 0.87934 1.09039
 C2874 C 1.25168 0.88951 1.11025
 N2875 N 1.24121 0.90939 1.12044
 N2876 N 1.22086 0.91870 1.11116
 C2877 C 1.21017 0.90853 1.09133
 N2878 N 1.22079 0.88867 1.08112
 N2879 N 1.24156 0.40961 0.61984
 C2880 C 1.25204 0.38977 0.60959
 N2881 N 1.24150 0.37966 0.58969
 N2882 N 1.22114 0.38899 0.58046
 C2883 C 1.21052 0.40881 0.59074
 N2884 N 1.22120 0.41894 0.61060
 N2885 N 0.74124 0.88036 0.58959
 C2886 C 0.75181 0.89044 0.60948
 N2887 N 0.74134 0.91028 0.61977
 N2888 N 0.72097 0.91962 0.61057
 C2889 C 0.71026 0.90951 0.59071
 N2890 N 0.72088 0.88970 0.58040
 N2891 N 0.74118 0.37995 1.09055
 C2892 C 0.75170 0.39013 1.11042
 N2893 N 0.74114 0.40995 1.12065
 N2894 N 0.72074 0.41917 1.11141
 C2895 C 0.71007 0.40896 1.09158
 N2896 N 0.72078 0.38918 1.08133
 N2897 N 0.75878 1.11991 1.09005
 C2898 C 0.74825 1.10965 1.10989
 N2899 N 0.75875 1.08973 1.12002
 N2900 N 0.77911 1.08050 1.11070
 C2901 C 0.78979 1.09079 1.09089
 N2902 N 0.77914 1.11066 1.08074
 N2903 N 0.75935 0.62015 0.59025
 C2904 C 0.74878 0.61000 0.61013
 N2905 N 0.75926 0.59014 0.62040
 N2906 N 0.77964 0.58084 0.61118
 C2907 C 0.79034 0.59100 0.59132
 N2908 N 0.77972 0.61083 0.58104
 N2909 N 0.25852 1.12044 0.58982
 C2910 C 0.24799 1.11031 0.60973
 N2911 N 0.25850 1.09047 0.61999
 N2912 N 0.27888 1.08118 0.61075
 C2913 C 0.28956 1.09135 0.59088
 N2914 N 0.27889 1.11115 0.58058
 N2915 N 0.25860 0.62039 1.09058
 C2916 C 0.24796 0.61022 1.11041
 N2917 N 0.25837 0.59033 1.12067
 N2918 N 0.27876 0.58101 1.11150
 C2919 C 0.28955 0.59120 1.09171
 N2920 N 0.27899 0.61106 1.08142
 N2921 N 0.75919 0.87978 0.91011
 C2922 C 0.74853 0.88993 0.89028
 N2923 N 0.75894 0.90980 0.87998
 N2924 N 0.77933 0.91911 0.88911
 C2925 C 0.79012 0.90894 0.90892
 N2926 N 0.77957 0.88911 0.91924
 N2927 N 0.75814 0.40954 0.38028
 C2928 C 0.74915 0.38825 0.38894
 N2929 N 0.76098 0.37693 0.40742
 N2930 N 0.78111 0.38652 0.41685
 C2931 C 0.79025 0.40779 0.40815
 N2932 N 0.77830 0.41911 0.38968
 N2933 N 0.25851 0.90960 0.38031
 C2934 C 0.24822 0.88966 0.39060
 N2935 N 0.25894 0.87956 0.41042
 N2936 N 0.27929 0.88898 0.41953
 C2937 C 0.28974 0.90887 0.40921
 N2938 N 0.27886 0.91901 0.38943
 N2939 N 0.25891 0.37935 0.91087
 C2940 C 0.24832 0.38938 0.89095
 N2941 N 0.25869 0.40926 0.88063
 N2942 N 0.27900 0.41868 0.88984
 C2943 C 0.28973 0.40863 0.90973
 N2944 N 0.27921 0.38879 0.92007
   
