data_POSCAR
  _audit_creation_date              2014-09-24
  _audit_creation_method            'ToBaCCo'
  _symmetry_space_group_name_H-M    'P1'
  _symmetry_Int_Tables_number       1
  _symmetry_cell_setting            triclinic
  loop_
  _symmetry_equiv_pos_as_xyz
 x,y,z
_cell_length_a 46.1143
_cell_length_b 46.1163
_cell_length_c 45.9704
_cell_angle_alpha 90.003900
_cell_angle_beta 90.005500
_cell_angle_gamma 89.994400
loop_
  _atom_site_label
  _atom_site_type_symbol
  _atom_site_fract_x
  _atom_site_fract_y
  _atom_site_fract_z
Zr1 Zr -0.05137 0.00508 0.00520
 O2 O -0.08794 -0.01496 -0.01175
 O3 O -0.07084 0.03482 0.03451
 O4 O -0.07318 -0.02252 0.03656
 O5 O -0.04035 0.05180 -0.05431
 O6 O -0.03748 -0.04872 0.05752
 O7 O -0.07481 0.03237 -0.02534
 O8 O -0.03261 0.05691 0.05529
 O9 O -0.02341 0.00382 0.04028
 O10 O -0.02414 0.04016 0.00034
 O11 O -0.02792 -0.03373 0.00234
 O12 O -0.02922 -0.00000 -0.03444
 Zr13 Zr 0.05104 -0.00444 -0.00622
 Zr14 Zr 0.00073 -0.03409 0.03674
 Zr15 Zr -0.00112 0.03490 -0.03782
 Zr16 Zr 0.00390 0.03847 0.03451
 O17 O -0.00490 0.02837 -0.08229
 O18 O 0.00854 0.03218 0.07904
 O19 O 0.02804 0.03497 -0.00361
 O20 O 0.02840 0.00088 0.03285
 O21 O 0.02418 -0.04010 -0.00144
 O22 O 0.02263 -0.00295 -0.04066
 C23 C -0.05994 0.05302 0.05263
 C24 C -0.06698 0.04868 -0.04709
 C25 C -0.06434 -0.04213 0.05489
 O26 O 0.00517 -0.02722 0.08109
 O27 O 0.03971 -0.05228 0.05246
 O28 O 0.07426 -0.03275 0.02368
 C29 C 0.06634 -0.04936 0.04521
 O30 O -0.04402 -0.05374 -0.05011
 Zr31 Zr -0.00423 -0.03766 -0.03567
 O32 O 0.07053 -0.03454 -0.03518
 O33 O -0.00272 -0.07891 0.03361
 O34 O -0.00566 -0.08167 -0.02557
 O35 O -0.00842 -0.03205 -0.08034
 O36 O 0.03233 -0.05724 -0.05536
 C37 C 0.05966 -0.05328 -0.05276
 O38 O 0.08768 0.01493 0.01134
 O39 O 0.00164 0.07976 -0.03448
 O40 O 0.07295 0.02405 -0.03678
 O41 O 0.03726 0.05052 -0.05750
 O42 O 0.00491 0.08280 0.02581
 O43 O 0.04385 0.05587 0.04682
 C44 C 0.06414 0.04398 -0.05481
 H45 H -0.03481 0.05840 0.00027
 H46 H 0.04200 0.00134 0.04905
 H47 H 0.03263 -0.00389 -0.05929
 H48 H -0.04104 -0.05026 0.00363
 H49 H 0.00551 0.05106 0.08839
 H50 H 0.00348 -0.04638 0.09026
 H51 H -0.00048 -0.08640 0.05347
 H52 H -0.00254 -0.09238 -0.04374
 H53 H 0.00177 0.09287 0.04434
 H54 H -0.00115 0.08729 -0.05424
 H55 H -0.00282 0.04757 -0.09128
 H56 H -0.00483 -0.05097 -0.08941
 H57 H 0.04065 0.07019 0.06226
 H58 H 0.10423 0.00534 0.00190
 H59 H -0.10453 -0.00520 -0.00257
 H60 H -0.04044 -0.07031 -0.06299
 Zr61 Zr 0.55098 0.49557 0.49372
 O62 O 0.58762 0.51494 0.51130
 O63 O 0.57047 0.46556 0.46469
 O64 O 0.57423 0.46723 0.52357
 O65 O 0.53718 0.55058 0.44249
 O66 O 0.53969 0.44764 0.55233
 O67 O 0.57288 0.52409 0.46317
 O68 O 0.53228 0.44290 0.44447
 O69 O 0.52414 0.45990 0.49845
 O70 O 0.52256 0.49709 0.45929
 O71 O 0.52836 0.50082 0.53280
 O72 O 0.52798 0.53498 0.49638
 Zr73 Zr 0.44858 0.50504 0.50517
 Zr74 Zr 0.50070 0.46584 0.53664
 Zr75 Zr 0.49882 0.53494 0.46218
 Zr76 Zr 0.49572 0.46238 0.46424
 O77 O 0.50155 0.57979 0.46559
 O78 O 0.49435 0.41835 0.47427
 O79 O 0.47072 0.50003 0.46551
 O80 O 0.47204 0.46623 0.50226
 O81 O 0.47656 0.50373 0.54024
 O82 O 0.47580 0.54014 0.50036
 C83 C 0.55960 0.44687 0.44706
 C84 C 0.56406 0.54403 0.44515
 C85 C 0.56631 0.45059 0.54508
 O86 O 0.49726 0.42102 0.53346
 O87 O 0.46250 0.45118 0.55741
 O88 O 0.42678 0.47740 0.53650
 C89 C 0.43563 0.45777 0.55480
 O90 O 0.54381 0.55582 0.54676
 Zr91 Zr 0.50385 0.53840 0.53451
 O92 O 0.42913 0.53468 0.53457
 O93 O 0.50514 0.47266 0.58100
 O94 O 0.50859 0.53208 0.57903
 O95 O 0.50476 0.58275 0.52590
 O96 O 0.46735 0.55672 0.55540
 C97 C 0.44003 0.55281 0.55275
 O98 O 0.41202 0.48501 0.48820
 O99 O 0.49503 0.52848 0.41769
 O100 O 0.42512 0.53234 0.47465
 O101 O 0.45957 0.55183 0.44570
 O102 O 0.49147 0.46805 0.41958
 O103 O 0.45593 0.44628 0.44980
 C104 C 0.43294 0.54867 0.45291
 H105 H 0.53254 0.49621 0.44066
 H106 H 0.45892 0.44971 0.50353
 H107 H 0.46511 0.55837 0.50032
 H108 H 0.54197 0.50127 0.54899
 H109 H 0.49747 0.40767 0.45609
 H110 H 0.49949 0.41351 0.55330
 H111 H 0.50346 0.45349 0.59015
 H112 H 0.50558 0.55095 0.58840
 H113 H 0.49507 0.44914 0.41047
 H114 H 0.49709 0.54770 0.40873
 H115 H 0.49875 0.58735 0.44584
 H116 H 0.50165 0.59278 0.54446
 H117 H 0.45952 0.42972 0.43691
 H118 H 0.39542 0.49475 0.49741
 H119 H 0.60417 0.50537 0.50184
 H120 H 0.54063 0.57014 0.56220
 Zr121 Zr 0.55131 -0.00524 0.50552
 O122 O 0.58790 0.01478 0.48859
 O123 O 0.57080 -0.03498 0.53488
 O124 O 0.57310 0.02241 0.53685
 O125 O 0.54029 -0.05195 0.44600
 O126 O 0.53738 0.04864 0.55774
 O127 O 0.57475 -0.03250 0.47496
 O128 O 0.53258 -0.05705 0.55566
 O129 O 0.52333 -0.00391 0.54058
 O130 O 0.52408 -0.04032 0.50067
 O131 O 0.52786 0.03359 0.50258
 O132 O 0.52916 -0.00017 0.46586
 Zr133 Zr 0.44888 0.00433 0.49399
 Zr134 Zr 0.49918 0.03398 0.53696
 Zr135 Zr 0.50105 -0.03507 0.46250
 Zr136 Zr 0.49604 -0.03858 0.53483
 O137 O 0.50486 -0.02861 0.41801
 O138 O 0.49139 -0.03220 0.57935
 O139 O 0.47189 -0.03509 0.49669
 O140 O 0.47152 -0.00099 0.53308
 O141 O 0.47575 0.03999 0.49876
 O142 O 0.47732 0.00279 0.45958
 C143 C 0.55992 -0.05318 0.55302
 C144 C 0.56691 -0.04880 0.45320
 C145 C 0.56424 0.04205 0.55513
 O146 O 0.49470 0.02717 0.58131
 O147 O 0.46020 0.05221 0.55264
 O148 O 0.42566 0.03269 0.52385
 C149 C 0.43357 0.04930 0.54538
 O150 O 0.54397 0.05361 0.45014
 Zr151 Zr 0.50418 0.03750 0.46455
 O152 O 0.42942 0.03439 0.46492
 O153 O 0.50266 0.07880 0.53379
 O154 O 0.50556 0.08151 0.47463
 O155 O 0.50847 0.03179 0.41990
 O156 O 0.46764 0.05703 0.44472
 C157 C 0.44029 0.05309 0.44728
 O158 O 0.41223 -0.01500 0.51156
 O159 O 0.49828 -0.07992 0.46588
 O160 O 0.42698 -0.02417 0.46344
 O161 O 0.46267 -0.05069 0.44278
 O162 O 0.49500 -0.08292 0.52614
 O163 O 0.45611 -0.05598 0.54720
 C164 C 0.43580 -0.04412 0.44543
 H165 H 0.53475 -0.05856 0.50061
 H166 H 0.45791 -0.00142 0.54927
 H167 H 0.46735 0.00369 0.44094
 H168 H 0.54098 0.05010 0.50386
 H169 H 0.49445 -0.05106 0.58874
 H170 H 0.49642 0.04633 0.59047
 H171 H 0.50039 0.08631 0.55363
 H172 H 0.50244 0.09221 0.45645
 H173 H 0.49819 -0.09299 0.54466
 H174 H 0.50110 -0.08747 0.44613
 H175 H 0.50276 -0.04782 0.40904
 H176 H 0.50487 0.05068 0.41077
 H177 H 0.45933 -0.07029 0.56264
 H178 H 0.39569 -0.00542 0.50209
 H179 H 0.60448 0.00502 0.49779
 H180 H 0.54037 0.07016 0.43723
 Zr181 Zr -0.05149 0.50530 -0.00711
 O182 O -0.08820 0.48612 0.01047
 O183 O -0.07092 0.53548 -0.03612
 O184 O -0.07468 0.53365 0.02290
 O185 O -0.03865 0.44979 -0.05879
 O186 O -0.04013 0.55313 0.05173
 O187 O -0.07404 0.47590 -0.03847
 O188 O -0.03269 0.55810 -0.05628
 O189 O -0.02458 0.54101 -0.00220
 O190 O -0.02303 0.50381 -0.04143
 O191 O -0.02885 0.50001 0.03208
 O192 O -0.02850 0.46594 -0.00434
 Zr193 Zr 0.05098 0.49561 0.00450
 Zr194 Zr -0.00115 0.53494 0.03601
 Zr195 Zr 0.00071 0.46596 -0.03848
 Zr196 Zr 0.00384 0.53852 -0.03641
 O197 O -0.00209 0.42109 -0.03515
 O198 O 0.00523 0.58252 -0.02628
 O199 O 0.02885 0.50081 -0.03509
 O200 O 0.02752 0.53453 0.00164
 O201 O 0.02295 0.49702 0.03962
 O202 O 0.02370 0.46064 -0.00031
 C203 C -0.06004 0.55419 -0.05374
 C204 C -0.06508 0.45635 -0.05607
 C205 C -0.06676 0.55022 0.04447
 O206 O 0.00236 0.57976 0.03287
 O207 O 0.03705 0.54954 0.05685
 O208 O 0.07275 0.52326 0.03599
 C209 C 0.06390 0.54290 0.05429
 O210 O -0.04433 0.44503 0.04617
 Zr211 Zr -0.00437 0.46239 0.03383
 O212 O 0.07038 0.46590 0.03395
 O213 O -0.00566 0.52811 0.08036
 O214 O -0.00905 0.46875 0.07835
 O215 O -0.00548 0.41807 0.02509
 O216 O 0.03211 0.44385 0.05467
 C217 C 0.05946 0.44769 0.05206
 O218 O 0.08756 0.51570 -0.01233
 O219 O 0.00456 0.47245 -0.08296
 O220 O 0.07514 0.46750 -0.02689
 O221 O 0.04096 0.44844 -0.05548
 O222 O 0.00818 0.53281 -0.08105
 O223 O 0.04363 0.55467 -0.05079
 C224 C 0.06715 0.45155 -0.04823
 H225 H -0.03301 0.50472 -0.06006
 H226 H 0.04067 0.55104 0.00294
 H227 H 0.03435 0.44240 -0.00037
 H228 H -0.04247 0.49956 0.04826
 H229 H 0.00210 0.59324 -0.04443
 H230 H 0.00007 0.58726 0.05271
 H231 H -0.00393 0.54727 0.08953
 H232 H -0.00601 0.44988 0.08773
 H233 H 0.00454 0.55169 -0.09019
 H234 H 0.00243 0.45326 -0.09195
 H235 H 0.00075 0.41355 -0.05490
 H236 H -0.00231 0.40797 0.04360
 H237 H 0.04002 0.57121 -0.06371
 H238 H 0.10413 0.50593 -0.00312
 H239 H -0.10470 0.49573 0.00097
 H240 H -0.04113 0.43070 0.06160
 Zr241 Zr 0.05160 0.50494 0.49491
 O242 O 0.08817 0.48483 0.51179
 O243 O 0.07108 0.53468 0.46562
 O244 O 0.07335 0.47734 0.46350
 O245 O 0.04066 0.55154 0.55455
 O246 O 0.03760 0.45123 0.44251
 O247 O 0.07509 0.53210 0.52555
 O248 O 0.03287 0.55683 0.44487
 O249 O 0.02362 0.50375 0.45985
 O250 O 0.02442 0.54004 0.49984
 O251 O 0.02809 0.46614 0.49770
 O252 O 0.02946 0.49981 0.53455
 Zr253 Zr -0.05083 0.49552 0.50633
 Zr254 Zr -0.00058 0.46588 0.46333
 Zr255 Zr 0.00140 0.53474 0.53799
 Zr256 Zr -0.00364 0.53843 0.46568
 O257 O 0.00517 0.52815 0.58246
 O258 O -0.00835 0.53224 0.42114
 O259 O -0.02777 0.53491 0.50380
 O260 O -0.02819 0.50087 0.46727
 O261 O -0.02402 0.45983 0.50150
 O262 O -0.02239 0.49692 0.54077
 C263 C 0.06019 0.55290 0.44752
 C264 C 0.06729 0.54837 0.54735
 C265 C 0.06446 0.45777 0.44515
 O266 O -0.00501 0.47283 0.41899
 O267 O -0.03958 0.44775 0.44758
 O268 O -0.07410 0.46727 0.47640
 C269 C -0.06621 0.45069 0.45484
 O270 O 0.04418 0.44598 0.55010
 Zr271 Zr 0.00441 0.46219 0.53572
 O272 O -0.07034 0.46547 0.53530
 O273 O 0.00282 0.42104 0.46638
 O274 O 0.00572 0.41819 0.52555
 O275 O 0.00868 0.46773 0.58039
 O276 O -0.03216 0.44270 0.55546
 C277 C -0.05948 0.44672 0.55288
 O278 O -0.08744 0.51498 0.48881
 O279 O -0.00128 0.57961 0.53471
 O280 O -0.07268 0.52398 0.53695
 O281 O -0.03696 0.55037 0.55771
 O282 O -0.00455 0.58276 0.47444
 O283 O -0.04358 0.55592 0.45345
 C284 C -0.06384 0.54386 0.55502
 H285 H 0.03513 0.55826 0.49993
 H286 H -0.04180 0.50138 0.45108
 H287 H -0.03237 0.49599 0.55940
 H288 H 0.04119 0.44960 0.49639
 H289 H -0.00532 0.55114 0.41182
 H290 H -0.00336 0.45369 0.40978
 H291 H 0.00057 0.41359 0.44652
 H292 H 0.00257 0.40747 0.54370
 H293 H -0.00143 0.59285 0.45592
 H294 H 0.00152 0.58711 0.55449
 H295 H 0.00311 0.54734 0.59148
 H296 H 0.00506 0.44881 0.58945
 H297 H -0.04038 0.57026 0.43804
 H298 H -0.10400 0.50539 0.49824
 H299 H 0.10476 0.49459 0.50260
 H300 H 0.04056 0.42939 0.56296
 Zr301 Zr 0.44916 -0.00452 0.00630
 O302 O 0.41255 0.01482 -0.01133
 O303 O 0.42968 -0.03453 0.03534
 O304 O 0.42596 -0.03292 -0.02350
 O305 O 0.46289 0.05054 0.05748
 O306 O 0.46052 -0.05251 -0.05224
 O307 O 0.42722 0.02401 0.03680
 O308 O 0.46787 -0.05717 0.05558
 O309 O 0.47604 -0.04019 0.00161
 O310 O 0.47757 -0.00296 0.04075
 O311 O 0.47181 0.00071 -0.03277
 O312 O 0.47215 0.03489 0.00362
 Zr313 Zr 0.55157 0.00499 -0.00511
 Zr314 Zr 0.49949 -0.03426 -0.03657
 Zr315 Zr 0.50129 0.03490 0.03783
 Zr316 Zr 0.50444 -0.03766 0.03584
 O317 O 0.49854 0.07975 0.03440
 O318 O 0.50585 -0.08170 0.02584
 O319 O 0.52941 -0.00000 0.03453
 O320 O 0.52814 -0.03382 -0.00218
 O321 O 0.52362 0.00365 -0.04020
 O322 O 0.52433 0.04008 -0.00033
 C323 C 0.44055 -0.05322 0.05297
 C324 C 0.43602 0.04398 0.05480
 C325 C 0.43389 -0.04958 -0.04499
 O326 O 0.50297 -0.07907 -0.03336
 O327 O 0.53772 -0.04893 -0.05732
 O328 O 0.57341 -0.02266 -0.03642
 C329 C 0.56458 -0.04232 -0.05470
 O330 O 0.45635 0.05565 -0.04687
 Zr331 Zr 0.49630 0.03830 -0.03450
 O332 O 0.57104 0.03469 -0.03446
 O333 O 0.49505 -0.02749 -0.08094
 O334 O 0.49168 0.03192 -0.07902
 O335 O 0.49526 0.08266 -0.02590
 O336 O 0.53281 0.05673 -0.05530
 C337 C 0.56014 0.05286 -0.05261
 O338 O 0.58814 -0.01501 0.01188
 O339 O 0.50506 0.02848 0.08233
 O340 O 0.57499 0.03231 0.02539
 O341 O 0.54052 0.05182 0.05431
 O342 O 0.50864 -0.03195 0.08049
 O343 O 0.54423 -0.05372 0.05033
 C344 C 0.56715 0.04867 0.04712
 H345 H 0.46757 -0.00384 0.05938
 H346 H 0.54127 -0.05034 -0.00342
 H347 H 0.53500 0.05832 -0.00029
 H348 H 0.45821 0.00113 -0.04897
 H349 H 0.50273 -0.09236 0.04403
 H350 H 0.50073 -0.08661 -0.05319
 H351 H 0.49675 -0.04667 -0.09007
 H352 H 0.49471 0.05079 -0.08841
 H353 H 0.50504 -0.05086 0.08962
 H354 H 0.50297 0.04770 0.09127
 H355 H 0.50132 0.08732 0.05415
 H356 H 0.49840 0.09269 -0.04445
 H357 H 0.54065 -0.07026 0.06323
 H358 H 0.60474 -0.00526 0.00268
 H359 H 0.39599 0.00525 -0.00188
 H360 H 0.45955 0.06995 -0.06233
 Zr361 Zr 0.44784 0.49573 -0.00559
 O362 O 0.41128 0.51588 0.01126
 O363 O 0.42838 0.46609 -0.03499
 O364 O 0.42668 0.52286 -0.03630
 O365 O 0.45876 0.44890 0.05381
 O366 O 0.46270 0.54932 -0.05741
 O367 O 0.42436 0.46848 0.02486
 O368 O 0.46660 0.44392 -0.05570
 O369 O 0.47589 0.49702 -0.04069
 O370 O 0.47502 0.46066 -0.00078
 O371 O 0.47139 0.53455 -0.00268
 O372 O 0.46999 0.50073 0.03402
 Zr373 Zr 0.55030 0.50501 0.00598
 Zr374 Zr 0.50016 0.53491 -0.03705
 Zr375 Zr 0.49804 0.46576 0.03743
 Zr376 Zr 0.50311 0.46232 -0.03490
 O377 O 0.49416 0.47225 0.08190
 O378 O 0.50780 0.46867 -0.07942
 O379 O 0.52723 0.46565 0.00326
 O380 O 0.52768 0.49985 -0.03313
 O381 O 0.52351 0.54074 0.00118
 O382 O 0.52183 0.50356 0.04038
 C383 C 0.43928 0.44785 -0.05307
 C384 C 0.43215 0.45209 0.04659
 C385 C 0.43575 0.54255 -0.05467
 O386 O 0.50456 0.52807 -0.08141
 O387 O 0.53919 0.55296 -0.05264
 O388 O 0.57363 0.53328 -0.02382
 C389 C 0.56580 0.54993 -0.04534
 O390 O 0.45527 0.55449 0.04977
 Zr391 Zr 0.49505 0.53833 0.03535
 O392 O 0.56980 0.53500 0.03503
 O393 O 0.49675 0.57972 -0.03386
 O394 O 0.49379 0.58236 0.02532
 O395 O 0.49073 0.53268 0.08001
 O396 O 0.53162 0.55777 0.05517
 C397 C 0.55895 0.55374 0.05262
 O398 O 0.58688 0.48555 -0.01159
 O399 O 0.50071 0.42090 0.03400
 O400 O 0.57215 0.47644 0.03656
 O401 O 0.53639 0.45001 0.05721
 O402 O 0.50405 0.41797 -0.02625
 O403 O 0.54304 0.44489 -0.04723
 C404 C 0.56330 0.45649 0.05458
 H405 H 0.46433 0.44244 -0.00075
 H406 H 0.54130 0.49937 -0.04931
 H407 H 0.53179 0.50443 0.05902
 H408 H 0.45831 0.55111 -0.00396
 H409 H 0.50472 0.44981 -0.08880
 H410 H 0.50299 0.54726 -0.09054
 H411 H 0.49909 0.58723 -0.05369
 H412 H 0.49689 0.59303 0.04352
 H413 H 0.50094 0.40792 -0.04481
 H414 H 0.49790 0.41334 0.05375
 H415 H 0.49622 0.45304 0.09088
 H416 H 0.49436 0.55158 0.08912
 H417 H 0.53982 0.43057 -0.06267
 H418 H 0.60346 0.49506 -0.00211
 H419 H 0.39469 0.50615 0.00203
 H420 H 0.45887 0.57107 0.06263
 Zr421 Zr 0.05136 0.00405 0.50621
 O422 O 0.08799 -0.01533 0.48864
 O423 O 0.07084 0.03409 0.53522
 O424 O 0.07458 0.03240 0.47631
 O425 O 0.03755 -0.05098 0.55749
 O426 O 0.04003 0.05200 0.44757
 O427 O 0.07326 -0.02452 0.53681
 O428 O 0.03265 0.05678 0.55542
 O429 O 0.02451 0.03973 0.50147
 O430 O 0.02294 0.00255 0.54064
 O431 O 0.02868 -0.00118 0.46714
 O432 O 0.02832 -0.03535 0.50354
 Zr433 Zr -0.05110 -0.00533 0.49477
 Zr434 Zr 0.00104 0.03382 0.46328
 Zr435 Zr -0.00082 -0.03528 0.53776
 Zr436 Zr -0.00390 0.03727 0.53569
 O437 O 0.00189 -0.08014 0.53432
 O438 O -0.00528 0.08131 0.52566
 O439 O -0.02891 -0.00036 0.53441
 O440 O -0.02761 0.03346 0.49768
 O441 O -0.02314 -0.00405 0.45969
 O442 O -0.02389 -0.04044 0.49959
 C443 C 0.05996 0.05281 0.55282
 C444 C 0.06444 -0.04447 0.55485
 C445 C 0.06666 0.04905 0.45480
 O446 O -0.00234 0.07864 0.46650
 O447 O -0.03715 0.04858 0.44251
 O448 O -0.07289 0.02240 0.46343
 C449 C -0.06403 0.04205 0.44512
 O450 O 0.04405 -0.05618 0.45306
 Zr451 Zr 0.00413 -0.03874 0.46543
 O452 O -0.07061 -0.03500 0.46544
 O453 O 0.00546 0.02698 0.41892
 O454 O 0.00879 -0.03240 0.42090
 O455 O 0.00508 -0.08309 0.47407
 O456 O -0.03242 -0.05711 0.44462
 C457 C -0.05974 -0.05319 0.44730
 O458 O -0.08766 0.01472 0.51174
 O459 O -0.00460 -0.02881 0.58225
 O460 O -0.07453 -0.03260 0.52535
 O461 O -0.04007 -0.05214 0.55425
 O462 O -0.00811 0.03162 0.58035
 O463 O -0.04370 0.05335 0.55015
 C464 C -0.06670 -0.04895 0.54709
 H465 H 0.03293 0.00344 0.55927
 H466 H -0.04071 0.05000 0.49642
 H467 H -0.03459 -0.05866 0.49965
 H468 H 0.04228 -0.00164 0.45094
 H469 H -0.00219 0.09198 0.54386
 H470 H -0.00010 0.08618 0.44666
 H471 H 0.00379 0.04615 0.40977
 H472 H 0.00571 -0.05126 0.41152
 H473 H -0.00453 0.05053 0.58945
 H474 H -0.00255 -0.04802 0.59122
 H475 H -0.00093 -0.08770 0.55406
 H476 H 0.00192 -0.09313 0.45552
 H477 H -0.04011 0.06992 0.56303
 H478 H -0.10425 0.00498 0.50254
 H479 H 0.10453 -0.00575 0.49810
 H480 H 0.04082 -0.07050 0.43763
 Zr481 Zr 0.75516 0.19888 0.24466
 O482 O 0.73513 0.16233 0.26165
 O483 O 0.78487 0.17940 0.21534
 O484 O 0.72754 0.17705 0.21333
 O485 O 0.80194 0.20996 0.30415
 O486 O 0.70130 0.21273 0.19236
 O487 O 0.78248 0.17546 0.27523
 O488 O 0.80690 0.21762 0.19449
 O489 O 0.75382 0.22683 0.20956
 O490 O 0.79022 0.22614 0.24946
 O491 O 0.71633 0.22233 0.24750
 O492 O 0.75009 0.22106 0.28429
 Zr493 Zr 0.74555 0.30133 0.25597
 Zr494 Zr 0.71591 0.25097 0.21309
 Zr495 Zr 0.78498 0.24918 0.28760
 Zr496 Zr 0.78846 0.25415 0.21526
 O497 O 0.77848 0.24543 0.33209
 O498 O 0.78214 0.25876 0.17073
 O499 O 0.78498 0.27832 0.25337
 O500 O 0.75086 0.27865 0.21691
 O501 O 0.70991 0.27443 0.25126
 O502 O 0.74711 0.27291 0.29043
 C503 C 0.80303 0.19030 0.19718
 C504 C 0.79883 0.18330 0.29698
 C505 C 0.70791 0.18588 0.19502
 O506 O 0.72275 0.25538 0.16873
 O507 O 0.69761 0.28993 0.19732
 O508 O 0.71714 0.32452 0.22606
 C509 C 0.70049 0.31659 0.20454
 O510 O 0.69636 0.20623 0.29995
 Zr511 Zr 0.71243 0.24603 0.28550
 O512 O 0.71551 0.32078 0.28499
 O513 O 0.67109 0.24747 0.21627
 O514 O 0.66840 0.24460 0.27545
 O515 O 0.71807 0.24185 0.33017
 O516 O 0.69289 0.28257 0.30524
 C517 C 0.69683 0.30990 0.30262
 O518 O 0.76489 0.33796 0.23836
 O519 O 0.82983 0.25198 0.28420
 O520 O 0.77406 0.32326 0.28653
 O521 O 0.80056 0.28759 0.30727
 O522 O 0.83281 0.25519 0.22392
 O523 O 0.80585 0.29410 0.20292
 C524 C 0.79400 0.31446 0.30457
 H525 H 0.80847 0.21547 0.24952
 H526 H 0.75129 0.29225 0.20071
 H527 H 0.74620 0.28291 0.30905
 H528 H 0.69982 0.20920 0.24624
 H529 H 0.80102 0.25573 0.16137
 H530 H 0.70359 0.25365 0.15957
 H531 H 0.66358 0.24967 0.19642
 H532 H 0.65772 0.24773 0.29363
 H533 H 0.84286 0.25203 0.20538
 H534 H 0.83738 0.24920 0.30396
 H535 H 0.79769 0.24753 0.34106
 H536 H 0.69915 0.24540 0.33926
 H537 H 0.82015 0.29090 0.18746
 H538 H 0.75529 0.35450 0.24780
 H539 H 0.74489 0.14573 0.25248
 H540 H 0.67980 0.20982 0.31285
 Zr541 Zr 0.74562 0.80116 0.74529
 O542 O 0.76565 0.83776 0.76220
 O543 O 0.71584 0.82060 0.71593
 O544 O 0.77322 0.82292 0.71389
 O545 O 0.69891 0.79019 0.80481
 O546 O 0.79949 0.78720 0.69305
 O547 O 0.71831 0.82463 0.77579
 O548 O 0.69378 0.78234 0.69520
 O549 O 0.74695 0.77315 0.71026
 O550 O 0.71057 0.77392 0.75016
 O551 O 0.78445 0.77770 0.74826
 O552 O 0.75074 0.77904 0.78497
 Zr553 Zr 0.75525 0.69872 0.75691
 Zr554 Zr 0.78486 0.74902 0.71390
 Zr555 Zr 0.71584 0.75094 0.78836
 Zr556 Zr 0.71231 0.74585 0.71603
 O557 O 0.72233 0.75476 0.83284
 O558 O 0.71868 0.74118 0.67152
 O559 O 0.71583 0.72174 0.75419
 O560 O 0.74991 0.72134 0.71780
 O561 O 0.79090 0.72559 0.75210
 O562 O 0.75369 0.72718 0.79131
 C563 C 0.69763 0.80968 0.69781
 C564 C 0.70200 0.81681 0.79756
 C565 C 0.79286 0.81406 0.69560
 O566 O 0.77804 0.74451 0.66954
 O567 O 0.80305 0.71004 0.69819
 O568 O 0.78353 0.67550 0.72699
 C569 C 0.80011 0.68341 0.70544
 O570 O 0.80458 0.79379 0.80070
 Zr571 Zr 0.78840 0.75402 0.78631
 O572 O 0.78532 0.67925 0.78602
 O573 O 0.82968 0.75252 0.71705
 O574 O 0.83241 0.75539 0.77619
 O575 O 0.78267 0.75836 0.83095
 O576 O 0.80796 0.71747 0.80619
 C577 C 0.80405 0.69011 0.80366
 O578 O 0.73598 0.66200 0.73941
 O579 O 0.67097 0.74820 0.78500
 O580 O 0.72661 0.67687 0.78736
 O581 O 0.70013 0.71260 0.80800
 O582 O 0.66798 0.74475 0.72477
 O583 O 0.69493 0.70590 0.70368
 C584 C 0.70663 0.68572 0.80532
 H585 H 0.69232 0.78458 0.75021
 H586 H 0.74946 0.70772 0.70162
 H587 H 0.75458 0.71720 0.80994
 H588 H 0.80097 0.79083 0.74696
 H589 H 0.69982 0.74422 0.66213
 H590 H 0.79720 0.74623 0.66038
 H591 H 0.83718 0.75022 0.69721
 H592 H 0.84313 0.75225 0.79436
 H593 H 0.65789 0.74792 0.70625
 H594 H 0.66343 0.75104 0.80475
 H595 H 0.70312 0.75266 0.84181
 H596 H 0.80156 0.75471 0.84010
 H597 H 0.68061 0.70911 0.68824
 H598 H 0.74558 0.64550 0.74892
 H599 H 0.75589 0.85433 0.75298
 H600 H 0.82111 0.79018 0.81363
 Zr601 Zr 0.25475 0.30154 0.75505
 O602 O 0.23466 0.33802 0.73798
 O603 O 0.28440 0.32111 0.78436
 O604 O 0.22708 0.32337 0.78634
 O605 O 0.30161 0.29048 0.69566
 O606 O 0.20090 0.28766 0.80733
 O607 O 0.28206 0.32496 0.72452
 O608 O 0.30651 0.28296 0.80526
 O609 O 0.25348 0.27363 0.79018
 O610 O 0.28988 0.27435 0.75030
 O611 O 0.21597 0.27803 0.75219
 O612 O 0.24978 0.27931 0.71544
 Zr613 Zr 0.24542 0.19910 0.74380
 Zr614 Zr 0.21561 0.24943 0.78663
 Zr615 Zr 0.28473 0.25124 0.71217
 Zr616 Zr 0.28818 0.24637 0.78451
 O617 O 0.27827 0.25498 0.66768
 O618 O 0.28183 0.24179 0.82904
 O619 O 0.28480 0.22215 0.74643
 O620 O 0.25063 0.22182 0.78284
 O621 O 0.20970 0.22591 0.74847
 O622 O 0.24691 0.22747 0.70931
 C623 C 0.30258 0.31028 0.80253
 C624 C 0.29843 0.31711 0.70282
 C625 C 0.20745 0.31453 0.80466
 O626 O 0.22241 0.24508 0.83100
 O627 O 0.19747 0.21044 0.80238
 O628 O 0.21710 0.17587 0.77368
 C629 C 0.20045 0.18379 0.79518
 O630 O 0.19602 0.29402 0.69970
 Zr631 Zr 0.21216 0.25427 0.71421
 O632 O 0.21544 0.17953 0.71480
 O633 O 0.17079 0.25281 0.78343
 O634 O 0.16813 0.25560 0.72423
 O635 O 0.21782 0.25845 0.66954
 O636 O 0.19274 0.21766 0.69450
 C637 C 0.19674 0.19034 0.69715
 O638 O 0.26485 0.16254 0.76146
 O639 O 0.32958 0.24854 0.71560
 O640 O 0.27394 0.17716 0.71329
 O641 O 0.30039 0.21285 0.69253
 O642 O 0.33254 0.24543 0.77590
 O643 O 0.30563 0.20647 0.79692
 C644 C 0.29387 0.18597 0.69525
 H645 H 0.30811 0.28505 0.75024
 H646 H 0.25109 0.20824 0.79906
 H647 H 0.24603 0.21744 0.69070
 H648 H 0.19943 0.29113 0.75343
 H649 H 0.30069 0.24488 0.83842
 H650 H 0.20324 0.24675 0.84013
 H651 H 0.16328 0.25059 0.80327
 H652 H 0.15746 0.25244 0.70605
 H653 H 0.34256 0.24862 0.79445
 H654 H 0.33714 0.25130 0.69585
 H655 H 0.29749 0.25290 0.65872
 H656 H 0.19892 0.25481 0.66044
 H657 H 0.31992 0.20972 0.81238
 H658 H 0.25530 0.14595 0.75204
 H659 H 0.24437 0.35466 0.74715
 H660 H 0.17946 0.29039 0.68682
 Zr661 Zr 0.24484 0.69863 0.25515
 O662 O 0.26485 0.66206 0.23816
 O663 O 0.21515 0.67914 0.28449
 O664 O 0.27247 0.67679 0.28649
 O665 O 0.19808 0.70974 0.19567
 O666 O 0.29869 0.71249 0.30746
 O667 O 0.21753 0.67524 0.22457
 O668 O 0.19311 0.71736 0.30534
 O669 O 0.24615 0.72657 0.29025
 O670 O 0.20977 0.72588 0.25035
 O671 O 0.28367 0.72207 0.25231
 O672 O 0.24990 0.72081 0.21553
 Zr673 Zr 0.25440 0.80105 0.24382
 Zr674 Zr 0.28406 0.75070 0.28671
 Zr675 Zr 0.21501 0.74893 0.21221
 Zr676 Zr 0.21150 0.75389 0.28454
 O677 O 0.22150 0.74518 0.16772
 O678 O 0.21781 0.75853 0.32906
 O679 O 0.21497 0.77806 0.24643
 O680 O 0.24909 0.77838 0.28287
 O681 O 0.29005 0.77418 0.24855
 O682 O 0.25288 0.77266 0.20936
 C683 C 0.19699 0.69003 0.30265
 C684 C 0.20120 0.68310 0.20283
 C685 C 0.29210 0.68563 0.30481
 O686 O 0.27722 0.75510 0.33107
 O687 O 0.30227 0.78967 0.30246
 O688 O 0.28273 0.82425 0.27372
 C689 C 0.29934 0.81631 0.29524
 O690 O 0.30364 0.70598 0.19984
 Zr691 Zr 0.28757 0.74578 0.21431
 O692 O 0.28446 0.82053 0.21482
 O693 O 0.32887 0.74725 0.28354
 O694 O 0.33159 0.74435 0.22437
 O695 O 0.28192 0.74159 0.16964
 O696 O 0.30711 0.78233 0.19459
 C697 C 0.30317 0.80966 0.19721
 O698 O 0.23504 0.83768 0.26141
 O699 O 0.17016 0.75171 0.21560
 O700 O 0.22592 0.82299 0.21328
 O701 O 0.19941 0.78734 0.19254
 O702 O 0.16716 0.75487 0.27588
 O703 O 0.19409 0.79383 0.29686
 C704 C 0.20598 0.81420 0.19524
 H705 H 0.19153 0.71520 0.25028
 H706 H 0.24864 0.79197 0.29908
 H707 H 0.25379 0.78266 0.19074
 H708 H 0.30018 0.70894 0.25357
 H709 H 0.19894 0.75550 0.33843
 H710 H 0.29638 0.75341 0.34023
 H711 H 0.33639 0.74947 0.30339
 H712 H 0.34228 0.74747 0.20619
 H713 H 0.15711 0.75172 0.29442
 H714 H 0.16261 0.74896 0.19583
 H715 H 0.20230 0.74730 0.15874
 H716 H 0.30085 0.74518 0.16055
 H717 H 0.17978 0.79062 0.31230
 H718 H 0.24464 0.85423 0.25197
 H719 H 0.25509 0.64546 0.24735
 H720 H 0.32020 0.70957 0.18695
 Zr721 Zr 0.24584 0.80028 0.75690
 O722 O 0.26521 0.83689 0.73927
 O723 O 0.21577 0.81980 0.78585
 O724 O 0.21752 0.82346 0.72690
 O725 O 0.30082 0.78662 0.80824
 O726 O 0.19802 0.78884 0.69819
 O727 O 0.27433 0.82226 0.78740
 O728 O 0.19313 0.78163 0.80614
 O729 O 0.21020 0.77339 0.75220
 O730 O 0.24738 0.77192 0.79141
 O731 O 0.25120 0.77758 0.71788
 O732 O 0.28528 0.77727 0.75440
 Zr733 Zr 0.25548 0.69780 0.74575
 Zr734 Zr 0.21625 0.74989 0.71407
 Zr735 Zr 0.28526 0.74816 0.78866
 Zr736 Zr 0.21269 0.74504 0.78648
 O737 O 0.33011 0.75096 0.78529
 O738 O 0.16869 0.74357 0.77639
 O739 O 0.25037 0.72003 0.78534
 O740 O 0.21665 0.72128 0.74852
 O741 O 0.25417 0.72574 0.71063
 O742 O 0.29054 0.72508 0.75053
 C743 C 0.19706 0.80896 0.80348
 C744 C 0.29426 0.81349 0.80546
 C745 C 0.20091 0.81551 0.70535
 O746 O 0.17143 0.74641 0.71722
 O747 O 0.20165 0.71165 0.69335
 O748 O 0.22785 0.67597 0.71438
 C749 C 0.20824 0.68480 0.69602
 O750 O 0.30622 0.79304 0.70407
 Zr751 Zr 0.28879 0.75308 0.71632
 O752 O 0.28517 0.67835 0.71639
 O753 O 0.22315 0.75420 0.66971
 O754 O 0.28254 0.75772 0.67179
 O755 O 0.33314 0.75405 0.72499
 O756 O 0.30717 0.71657 0.69550
 C757 C 0.30330 0.68925 0.69820
 O758 O 0.23549 0.66124 0.76275
 O759 O 0.27870 0.74446 0.83314
 O760 O 0.28288 0.67442 0.77640
 O761 O 0.30228 0.70896 0.80529
 O762 O 0.21830 0.74093 0.83117
 O763 O 0.19660 0.70527 0.80099
 C764 C 0.29922 0.68229 0.79816
 H765 H 0.24645 0.78195 0.81001
 H766 H 0.20014 0.70815 0.74726
 H767 H 0.30878 0.71441 0.75062
 H768 H 0.25166 0.79114 0.70166
 H769 H 0.15798 0.74676 0.79455
 H770 H 0.16393 0.74861 0.69737
 H771 H 0.20401 0.75251 0.66053
 H772 H 0.30145 0.75475 0.66245
 H773 H 0.19938 0.74452 0.84024
 H774 H 0.29788 0.74664 0.84214
 H775 H 0.33765 0.74827 0.80507
 H776 H 0.34319 0.75091 0.70644
 H777 H 0.18004 0.70888 0.81388
 H778 H 0.24527 0.64465 0.75357
 H779 H 0.25560 0.85346 0.74867
 H780 H 0.32053 0.78986 0.68862
 Zr781 Zr 0.25427 0.19905 0.25588
 O782 O 0.23492 0.16241 0.23829
 O783 O 0.28433 0.17960 0.28493
 O784 O 0.28264 0.17585 0.22602
 O785 O 0.19928 0.21278 0.30714
 O786 O 0.30212 0.21041 0.19721
 O787 O 0.22581 0.17712 0.28646
 O788 O 0.30696 0.21783 0.30513
 O789 O 0.28990 0.22595 0.25107
 O790 O 0.25273 0.22749 0.29029
 O791 O 0.24891 0.22170 0.21679
 O792 O 0.21482 0.22203 0.25320
 Zr793 Zr 0.24462 0.30148 0.24435
 Zr794 Zr 0.28386 0.24939 0.21288
 Zr795 Zr 0.21485 0.25118 0.28740
 Zr796 Zr 0.28741 0.25437 0.28529
 O797 O 0.16999 0.24838 0.28404
 O798 O 0.33142 0.25575 0.27517
 O799 O 0.24972 0.27932 0.28400
 O800 O 0.28346 0.27805 0.24726
 O801 O 0.24594 0.27350 0.20929
 O802 O 0.20956 0.27421 0.24924
 C803 C 0.30303 0.19049 0.30257
 C804 C 0.20587 0.18591 0.30450
 C805 C 0.29924 0.18378 0.20449
 O806 O 0.32867 0.25293 0.21601
 O807 O 0.29845 0.28761 0.19206
 O808 O 0.27219 0.32330 0.21298
 C809 C 0.29182 0.31447 0.19466
 O810 O 0.19392 0.20624 0.20271
 Zr811 Zr 0.21130 0.24619 0.21506
 O812 O 0.21484 0.32095 0.21502
 O813 O 0.27702 0.24487 0.16853
 O814 O 0.21764 0.24152 0.17055
 O815 O 0.16696 0.24513 0.22378
 O816 O 0.19280 0.28270 0.19423
 C817 C 0.19665 0.31005 0.19688
 O818 O 0.26464 0.33807 0.26127
 O819 O 0.22133 0.25500 0.33189
 O820 O 0.21737 0.32489 0.27494
 O821 O 0.19797 0.29042 0.30391
 O822 O 0.28173 0.25869 0.32994
 O823 O 0.30354 0.29416 0.29968
 C824 C 0.20109 0.31705 0.29672
 H825 H 0.25365 0.21752 0.30893
 H826 H 0.29996 0.29119 0.24597
 H827 H 0.19132 0.28488 0.24930
 H828 H 0.24848 0.20808 0.20060
 H829 H 0.34213 0.25262 0.29333
 H830 H 0.33617 0.25066 0.19616
 H831 H 0.29618 0.24661 0.15936
 H832 H 0.19877 0.24457 0.16117
 H833 H 0.30064 0.25507 0.33906
 H834 H 0.20213 0.25289 0.34087
 H835 H 0.16246 0.25120 0.30379
 H836 H 0.15689 0.24829 0.20526
 H837 H 0.32011 0.29057 0.31257
 H838 H 0.25486 0.35465 0.25209
 H839 H 0.24452 0.14587 0.24774
 H840 H 0.17959 0.20945 0.18729
 Zr841 Zr 0.74528 0.69914 0.24363
 O842 O 0.76465 0.66246 0.26111
 O843 O 0.71519 0.67972 0.21462
 O844 O 0.71699 0.67589 0.27352
 O845 O 0.80022 0.71298 0.19233
 O846 O 0.69749 0.71040 0.30237
 O847 O 0.77374 0.67728 0.21301
 O848 O 0.69252 0.71797 0.19450
 O849 O 0.70964 0.72601 0.24846
 O850 O 0.74677 0.72761 0.20924
 O851 O 0.75064 0.72172 0.28274
 O852 O 0.78471 0.72212 0.24626
 Zr853 Zr 0.75487 0.80153 0.25521
 Zr854 Zr 0.71569 0.74939 0.28668
 Zr855 Zr 0.78464 0.75133 0.21211
 Zr856 Zr 0.71209 0.75448 0.21429
 O857 O 0.82950 0.74853 0.21543
 O858 O 0.66808 0.75589 0.22440
 O859 O 0.74976 0.77945 0.21554
 O860 O 0.71605 0.77810 0.25234
 O861 O 0.75361 0.77351 0.29025
 O862 O 0.78994 0.77429 0.25030
 C863 C 0.69647 0.69064 0.19704
 C864 C 0.79366 0.68612 0.19498
 C865 C 0.70040 0.68378 0.29508
 O866 O 0.67086 0.75286 0.28357
 O867 O 0.70107 0.78757 0.30751
 O868 O 0.72728 0.82330 0.28661
 C869 C 0.70766 0.81443 0.30492
 O870 O 0.80563 0.70623 0.29667
 Zr871 Zr 0.78824 0.74620 0.28442
 O872 O 0.78463 0.82094 0.28454
 O873 O 0.72257 0.74490 0.33102
 O874 O 0.78197 0.74149 0.32895
 O875 O 0.83257 0.74517 0.27570
 O876 O 0.80672 0.78268 0.30525
 C877 C 0.80284 0.81001 0.30263
 O878 O 0.73485 0.83814 0.23834
 O879 O 0.77810 0.75520 0.16764
 O880 O 0.78215 0.82500 0.22469
 O881 O 0.80157 0.79057 0.19566
 O882 O 0.71769 0.75878 0.16963
 O883 O 0.69600 0.79430 0.19993
 C884 C 0.79846 0.81718 0.20291
 H885 H 0.74584 0.71766 0.19059
 H886 H 0.69953 0.79123 0.25365
 H887 H 0.80818 0.78496 0.25024
 H888 H 0.75110 0.70809 0.29891
 H889 H 0.65737 0.75280 0.20624
 H890 H 0.66338 0.75059 0.30342
 H891 H 0.70343 0.74658 0.34020
 H892 H 0.80085 0.74451 0.33830
 H893 H 0.69876 0.75521 0.16054
 H894 H 0.79729 0.75312 0.15863
 H895 H 0.83703 0.75135 0.19567
 H896 H 0.84265 0.74829 0.29423
 H897 H 0.67942 0.79074 0.18705
 H898 H 0.74463 0.85471 0.24755
 H899 H 0.75504 0.64594 0.25164
 H900 H 0.81997 0.70940 0.31210
 Zr901 Zr 0.75433 0.30105 0.74370
 O902 O 0.73491 0.33767 0.76125
 O903 O 0.78438 0.32051 0.71469
 O904 O 0.78262 0.32434 0.77351
 O905 O 0.69937 0.28721 0.69246
 O906 O 0.80222 0.28985 0.80233
 O907 O 0.72584 0.32292 0.71313
 O908 O 0.80708 0.28231 0.69453
 O909 O 0.79002 0.27422 0.74848
 O910 O 0.75284 0.27260 0.70929
 O911 O 0.74906 0.27844 0.78280
 O912 O 0.71493 0.27803 0.74636
 Zr913 Zr 0.74491 0.19866 0.75523
 Zr914 Zr 0.78406 0.25082 0.78668
 Zr915 Zr 0.71501 0.24885 0.71219
 Zr916 Zr 0.78757 0.24577 0.71429
 O917 O 0.67015 0.25157 0.71557
 O918 O 0.83159 0.24440 0.72435
 O919 O 0.74993 0.22076 0.71557
 O920 O 0.78371 0.22213 0.75234
 O921 O 0.74618 0.22665 0.79029
 O922 O 0.70981 0.22585 0.75037
 C923 C 0.80311 0.30964 0.69711
 C924 C 0.70591 0.31408 0.69511
 C925 C 0.79926 0.31647 0.79504
 O926 O 0.82889 0.24741 0.78354
 O927 O 0.79875 0.21264 0.80749
 O928 O 0.77256 0.17689 0.78659
 C929 C 0.79218 0.18577 0.80489
 O930 O 0.69406 0.29386 0.79681
 Zr931 Zr 0.71150 0.25391 0.78452
 O932 O 0.71522 0.17917 0.78457
 O933 O 0.77723 0.25530 0.83105
 O934 O 0.71782 0.25861 0.82904
 O935 O 0.66715 0.25486 0.77586
 O936 O 0.69312 0.21739 0.80534
 C937 C 0.69703 0.19007 0.80270
 O938 O 0.76498 0.16209 0.73829
 O939 O 0.72149 0.24501 0.66771
 O940 O 0.71763 0.17516 0.72474
 O941 O 0.69813 0.20958 0.69575
 O942 O 0.78194 0.24152 0.66962
 O943 O 0.80366 0.20596 0.69989
 C944 C 0.70129 0.18297 0.70298
 H945 H 0.75374 0.28257 0.69065
 H946 H 0.80024 0.20902 0.75362
 H947 H 0.69158 0.21515 0.75033
 H948 H 0.74860 0.29207 0.79898
 H949 H 0.84228 0.24749 0.70616
 H950 H 0.83639 0.24969 0.80338
 H951 H 0.79640 0.25365 0.84020
 H952 H 0.69895 0.25555 0.83841
 H953 H 0.80086 0.24510 0.66054
 H954 H 0.70228 0.24707 0.65873
 H955 H 0.66261 0.24876 0.69581
 H956 H 0.65711 0.25172 0.79440
 H957 H 0.82023 0.20954 0.68700
 H958 H 0.75525 0.14549 0.74750
 H959 H 0.74447 0.35422 0.75179
 H960 H 0.67975 0.29064 0.81226
 C961 C 0.12469 0.36658 0.86615
 C962 C 0.12875 0.36963 0.89917
 C963 C 0.12406 0.40269 0.89755
 C964 C 0.12003 0.39958 0.86446
 C965 C 0.15742 0.37020 0.86103
 C966 C 0.15282 0.40315 0.85927
 C967 C 0.16154 0.37320 0.89400
 C968 C 0.15688 0.40622 0.89232
 C969 C 0.10358 0.42196 0.91917
 C970 C 0.08723 0.43622 0.93507
 C971 C 0.17615 0.35140 0.84035
 C972 C 0.19090 0.33554 0.82383
 H973 H 0.11074 0.35072 0.85596
 H974 H 0.11937 0.35515 0.91504
 H975 H 0.10339 0.40995 0.85160
 H976 H 0.16221 0.41763 0.84340
 H977 H 0.17817 0.36282 0.90686
 H978 H 0.17082 0.42209 0.90251
 C979 C 0.33097 0.61086 0.38619
 C980 C 0.35176 0.58626 0.37736
 C981 C 0.37534 0.59788 0.39785
 C982 C 0.35463 0.62242 0.40674
 C983 C 0.34208 0.63012 0.36133
 C984 C 0.36567 0.64173 0.38182
 C985 C 0.36281 0.60558 0.35245
 C986 C 0.38644 0.61715 0.37300
 C987 C 0.39469 0.57968 0.41847
 C988 C 0.41109 0.56522 0.43473
 C989 C 0.32335 0.64883 0.34059
 C990 C 0.30861 0.66465 0.32402
 H991 H 0.30854 0.60769 0.39227
 H992 H 0.34540 0.56382 0.37488
 H993 H 0.35065 0.62998 0.42857
 H994 H 0.37204 0.66416 0.38431
 H995 H 0.36679 0.59803 0.33061
 H996 H 0.40886 0.62033 0.36691
 C997 C 0.87518 0.86523 0.63288
 C998 C 0.87038 0.86902 0.60004
 C999 C 0.87583 0.90181 0.60227
 C1000 C 0.88070 0.89807 0.63507
 C1001 C 0.84269 0.86956 0.63890
 C1002 C 0.84815 0.90235 0.64115
 C1003 C 0.83783 0.87328 0.60610
 C1004 C 0.84334 0.90615 0.60828
 C1005 C 0.89512 0.92004 0.58160
 C1006 C 0.91148 0.93450 0.56531
 C1007 C 0.82403 0.85083 0.65970
 C1008 C 0.80934 0.83502 0.67632
 H1009 H 0.88897 0.84884 0.64242
 H1010 H 0.87900 0.85462 0.58366
 H1011 H 0.89790 0.90778 0.64770
 H1012 H 0.83952 0.91674 0.65753
 H1013 H 0.82062 0.86356 0.59348
 H1014 H 0.82955 0.92254 0.59874
 C1015 C 0.63473 0.14191 0.11767
 C1016 C 0.64582 0.12216 0.09313
 C1017 C 0.62472 0.09798 0.10210
 C1018 C 0.61358 0.11770 0.12657
 C1019 C 0.65796 0.13028 0.13857
 C1020 C 0.63685 0.10612 0.14753
 C1021 C 0.66912 0.11058 0.11409
 C1022 C 0.64794 0.08634 0.12299
 C1023 C 0.60538 0.07974 0.08151
 C1024 C 0.58898 0.06525 0.06528
 C1025 C 0.67667 0.14904 0.15927
 C1026 C 0.69140 0.16488 0.17582
 H1027 H 0.62867 0.16438 0.11483
 H1028 H 0.65013 0.12939 0.07124
 H1029 H 0.59113 0.12122 0.13238
 H1030 H 0.63253 0.09889 0.16942
 H1031 H 0.69156 0.10707 0.10830
 H1032 H 0.65400 0.06387 0.12583
 C1033 C 0.83652 0.10223 0.37281
 C1034 C 0.86090 0.08119 0.36393
 C1035 C 0.88044 0.09226 0.38859
 C1036 C 0.85612 0.11325 0.39753
 C1037 C 0.84816 0.12562 0.35209
 C1038 C 0.86772 0.13668 0.37676
 C1039 C 0.87248 0.10465 0.34316
 C1040 C 0.89207 0.11567 0.36787
 C1041 C 0.89917 0.07346 0.40933
 C1042 C 0.91499 0.05866 0.42590
 C1043 C 0.82992 0.14503 0.33147
 C1044 C 0.81543 0.16145 0.31520
 H1045 H 0.81406 0.09605 0.37551
 H1046 H 0.85749 0.05876 0.35798
 H1047 H 0.84875 0.11743 0.41938
 H1048 H 0.87113 0.15911 0.38271
 H1049 H 0.87986 0.10048 0.32129
 H1050 H 0.91453 0.12185 0.36517
 C1051 C 0.38071 0.37924 0.64948
 C1052 C 0.38371 0.37513 0.61647
 C1053 C 0.38007 0.40785 0.61130
 C1054 C 0.37712 0.41202 0.64427
 C1055 C 0.34775 0.37464 0.64780
 C1056 C 0.34410 0.40735 0.64265
 C1057 C 0.35071 0.37046 0.61483
 C1058 C 0.34711 0.40324 0.60960
 C1059 C 0.39882 0.42654 0.59058
 C1060 C 0.41466 0.44126 0.57401
 C1061 C 0.32950 0.35531 0.66840
 C1062 C 0.31501 0.33894 0.68464
 H1063 H 0.39522 0.36988 0.66535
 H1064 H 0.39956 0.36117 0.60627
 H1065 H 0.38752 0.42867 0.65708
 H1066 H 0.32825 0.42130 0.65286
 H1067 H 0.34032 0.35381 0.60201
 H1068 H 0.33261 0.41260 0.59373
 C1069 C 0.61985 0.88014 0.84992
 C1070 C 0.61570 0.87523 0.88271
 C1071 C 0.62022 0.90767 0.88890
 C1072 C 0.62432 0.91263 0.85616
 C1073 C 0.65258 0.87441 0.85247
 C1074 C 0.65712 0.90683 0.85865
 C1075 C 0.64846 0.86944 0.88521
 C1076 C 0.65294 0.90193 0.89146
 C1077 C 0.60144 0.92639 0.90958
 C1078 C 0.58558 0.94114 0.92612
 C1079 C 0.67086 0.85505 0.83191
 C1080 C 0.68538 0.83865 0.81569
 H1081 H 0.60556 0.87169 0.83337
 H1082 H 0.59910 0.86154 0.89202
 H1083 H 0.61487 0.92996 0.84350
 H1084 H 0.67371 0.92052 0.84933
 H1085 H 0.65791 0.85211 0.89786
 H1086 H 0.66724 0.91037 0.90802
 C1087 C 0.13289 0.63692 0.12256
 C1088 C 0.14434 0.61304 0.10222
 C1089 C 0.11949 0.59265 0.11101
 C1090 C 0.10800 0.61649 0.13128
 C1091 C 0.15183 0.62573 0.14763
 C1092 C 0.12697 0.60534 0.15641
 C1093 C 0.16334 0.60190 0.12735
 C1094 C 0.13842 0.58144 0.13608
 C1095 C 0.10073 0.57402 0.09020
 C1096 C 0.08488 0.55935 0.07358
 C1097 C 0.17009 0.64498 0.16830
 C1098 C 0.18460 0.66131 0.18460
 H1099 H 0.13002 0.65934 0.11633
 H1100 H 0.15212 0.61682 0.08043
 H1101 H 0.08562 0.62312 0.13355
 H1102 H 0.11919 0.60157 0.17820
 H1103 H 0.18572 0.59527 0.12509
 H1104 H 0.14128 0.55902 0.14230
 C1105 C 0.38723 0.86294 0.14133
 C1106 C 0.38618 0.86280 0.10800
 C1107 C 0.38680 0.89597 0.10743
 C1108 C 0.38799 0.89623 0.14063
 C1109 C 0.35409 0.86333 0.14278
 C1110 C 0.35471 0.89650 0.14222
 C1111 C 0.35291 0.86306 0.10958
 C1112 C 0.35366 0.89637 0.10887
 C1113 C 0.40549 0.91433 0.08758
 C1114 C 0.42105 0.92919 0.07159
 C1115 C 0.33569 0.84468 0.16263
 C1116 C 0.32079 0.82914 0.17861
 H1117 H 0.40146 0.84954 0.15428
 H1118 H 0.39878 0.84853 0.09431
 H1119 H 0.40209 0.90955 0.15380
 H1120 H 0.34210 0.91076 0.15591
 H1121 H 0.33881 0.84974 0.09641
 H1122 H 0.33944 0.90977 0.09592
 C1123 C 0.61281 0.36444 0.35737
 C1124 C 0.61261 0.36300 0.39068
 C1125 C 0.61330 0.39612 0.39254
 C1126 C 0.61337 0.39770 0.35936
 C1127 C 0.64598 0.36351 0.35713
 C1128 C 0.64667 0.39664 0.35897
 C1129 C 0.64590 0.36194 0.39032
 C1130 C 0.64646 0.39519 0.39230
 C1131 C 0.59464 0.41445 0.41242
 C1132 C 0.57908 0.42930 0.42843
 C1133 C 0.66435 0.34490 0.33725
 C1134 C 0.67923 0.32937 0.32124
 H1135 H 0.59856 0.35214 0.34340
 H1136 H 0.59894 0.34875 0.40334
 H1137 H 0.60032 0.41208 0.34622
 H1138 H 0.66034 0.41088 0.34632
 H1139 H 0.65895 0.34755 0.40345
 H1140 H 0.66071 0.40750 0.40628
 C1141 C 0.84374 0.61479 0.88093
 C1142 C 0.86614 0.59206 0.87131
 C1143 C 0.88795 0.60347 0.89364
 C1144 C 0.86567 0.62607 0.90338
 C1145 C 0.85515 0.63625 0.85828
 C1146 C 0.87696 0.64765 0.88060
 C1147 C 0.87743 0.61364 0.84854
 C1148 C 0.89935 0.62493 0.87098
 C1149 C 0.90671 0.58500 0.91352
 C1150 C 0.92234 0.57009 0.92948
 C1151 C 0.83668 0.65499 0.83837
 C1152 C 0.82174 0.67058 0.82235
 H1153 H 0.82120 0.61020 0.88546
 H1154 H 0.86128 0.56951 0.86706
 H1155 H 0.86041 0.63163 0.92554
 H1156 H 0.88184 0.67019 0.88486
 H1157 H 0.88270 0.60810 0.82638
 H1158 H 0.92189 0.62952 0.86645
 C1159 C 0.12521 0.14792 0.61951
 C1160 C 0.13660 0.12554 0.59759
 C1161 C 0.11354 0.10375 0.60729
 C1162 C 0.10203 0.12600 0.62907
 C1163 C 0.14609 0.13651 0.64267
 C1164 C 0.12303 0.11472 0.65236
 C1165 C 0.15762 0.11426 0.62089
 C1166 C 0.13441 0.09233 0.63044
 C1167 C 0.09495 0.08534 0.58742
 C1168 C 0.07943 0.07043 0.57142
 C1169 C 0.16438 0.15521 0.66254
 C1170 C 0.17921 0.17081 0.67854
 H1171 H 0.12105 0.17047 0.61462
 H1172 H 0.14257 0.13038 0.57544
 H1173 H 0.07947 0.13122 0.63282
 H1174 H 0.11705 0.10988 0.67451
 H1175 H 0.18016 0.10905 0.61714
 H1176 H 0.13857 0.06977 0.63533
 C1177 C 0.11928 0.38042 0.34945
 C1178 C 0.11521 0.37543 0.38223
 C1179 C 0.11985 0.40783 0.38850
 C1180 C 0.12386 0.41288 0.35577
 C1181 C 0.15200 0.37460 0.35188
 C1182 C 0.15665 0.40699 0.35814
 C1183 C 0.14797 0.36956 0.38462
 C1184 C 0.15256 0.40200 0.39095
 C1185 C 0.10118 0.42654 0.40928
 C1186 C 0.08539 0.44127 0.42589
 C1187 C 0.17015 0.35526 0.33123
 C1188 C 0.18458 0.33888 0.31494
 H1189 H 0.10492 0.37206 0.33291
 H1190 H 0.09860 0.36176 0.39156
 H1191 H 0.11442 0.43028 0.34319
 H1192 H 0.17325 0.42066 0.34881
 H1193 H 0.15740 0.35215 0.39719
 H1194 H 0.16692 0.41036 0.40749
 C1195 C 0.33726 0.60130 0.87424
 C1196 C 0.36170 0.58031 0.86540
 C1197 C 0.38116 0.59152 0.88997
 C1198 C 0.35685 0.61239 0.89895
 C1199 C 0.34881 0.62471 0.85347
 C1200 C 0.36836 0.63584 0.87813
 C1201 C 0.37320 0.60378 0.84458
 C1202 C 0.39277 0.61487 0.86928
 C1203 C 0.39917 0.57358 0.90986
 C1204 C 0.41487 0.55887 0.92636
 C1205 C 0.33048 0.64408 0.83277
 C1206 C 0.31592 0.66045 0.81645
 H1207 H 0.31482 0.59505 0.87697
 H1208 H 0.35834 0.55787 0.85946
 H1209 H 0.34946 0.61659 0.92079
 H1210 H 0.37173 0.65827 0.88407
 H1211 H 0.38060 0.59958 0.82273
 H1212 H 0.41521 0.62112 0.86655
 C1213 C 0.63307 0.13639 0.62294
 C1214 C 0.64456 0.11245 0.60270
 C1215 C 0.61977 0.09206 0.61158
 C1216 C 0.60823 0.11595 0.63176
 C1217 C 0.65204 0.12534 0.64804
 C1218 C 0.62722 0.10494 0.65693
 C1219 C 0.66359 0.10145 0.62786
 C1220 C 0.63871 0.08098 0.63668
 C1221 C 0.60103 0.07333 0.59088
 C1222 C 0.58520 0.05858 0.57433
 C1223 C 0.67026 0.14470 0.66862
 C1224 C 0.68473 0.16110 0.68485
 H1225 H 0.63016 0.15879 0.61663
 H1226 H 0.65232 0.11616 0.58089
 H1227 H 0.58583 0.12255 0.63401
 H1228 H 0.61946 0.10125 0.67874
 H1229 H 0.68598 0.09485 0.62562
 H1230 H 0.64162 0.05859 0.64299
 C1231 C 0.88074 0.87936 0.14960
 C1232 C 0.88375 0.87523 0.11658
 C1233 C 0.88008 0.90795 0.11139
 C1234 C 0.87714 0.91213 0.14437
 C1235 C 0.84778 0.87474 0.14791
 C1236 C 0.84411 0.90744 0.14274
 C1237 C 0.85076 0.87055 0.11494
 C1238 C 0.84713 0.90332 0.10969
 C1239 C 0.89884 0.92664 0.09067
 C1240 C 0.91468 0.94136 0.07410
 C1241 C 0.82954 0.85541 0.16851
 C1242 C 0.81505 0.83902 0.18475
 H1243 H 0.89525 0.87001 0.16546
 H1244 H 0.89961 0.86128 0.10640
 H1245 H 0.88752 0.92880 0.15717
 H1246 H 0.82825 0.92139 0.15293
 H1247 H 0.84038 0.85387 0.10213
 H1248 H 0.83263 0.91266 0.09382
 C1249 C 0.83107 0.11098 0.88623
 C1250 C 0.85185 0.08637 0.87739
 C1251 C 0.87544 0.09797 0.89789
 C1252 C 0.85473 0.12251 0.90680
 C1253 C 0.84218 0.13025 0.86140
 C1254 C 0.86579 0.14184 0.88190
 C1255 C 0.86290 0.10572 0.85249
 C1256 C 0.88654 0.11726 0.87306
 C1257 C 0.89479 0.07974 0.91849
 C1258 C 0.91118 0.06526 0.93473
 C1259 C 0.82346 0.14899 0.84067
 C1260 C 0.80872 0.16481 0.82411
 H1261 H 0.80864 0.10780 0.89232
 H1262 H 0.84549 0.06394 0.87488
 H1263 H 0.85076 0.13005 0.92863
 H1264 H 0.87216 0.16426 0.88440
 H1265 H 0.86689 0.09819 0.83065
 H1266 H 0.90897 0.12044 0.86697
 C1267 C 0.13503 0.64119 0.61844
 C1268 C 0.14609 0.62154 0.59381
 C1269 C 0.12494 0.59735 0.60264
 C1270 C 0.11383 0.61697 0.62722
 C1271 C 0.15824 0.62943 0.63930
 C1272 C 0.13707 0.60525 0.64813
 C1273 C 0.16936 0.60982 0.61473
 C1274 C 0.14814 0.58557 0.62350
 C1275 C 0.10557 0.57923 0.58194
 C1276 C 0.08916 0.56484 0.56561
 C1277 C 0.17698 0.64807 0.66013
 C1278 C 0.19173 0.66383 0.67676
 H1279 H 0.12900 0.66369 0.61571
 H1280 H 0.15043 0.62888 0.57197
 H1281 H 0.09139 0.62050 0.63303
 H1282 H 0.13273 0.59792 0.66998
 H1283 H 0.19180 0.60630 0.60892
 H1284 H 0.15415 0.56308 0.62623
 C1285 C 0.62504 0.86607 0.36679
 C1286 C 0.62925 0.86912 0.39979
 C1287 C 0.62449 0.90205 0.39809
 C1288 C 0.62022 0.89905 0.36513
 C1289 C 0.65772 0.86986 0.36152
 C1290 C 0.65296 0.90279 0.35980
 C1291 C 0.66198 0.87285 0.39448
 C1292 C 0.65716 0.90585 0.39283
 C1293 C 0.60514 0.92023 0.41872
 C1294 C 0.58875 0.93467 0.43500
 C1295 C 0.67643 0.85117 0.34076
 C1296 C 0.69116 0.83537 0.32416
 H1297 H 0.61113 0.85014 0.35666
 H1298 H 0.61999 0.85459 0.41570
 H1299 H 0.60347 0.90934 0.35236
 H1300 H 0.66221 0.91732 0.34389
 H1301 H 0.67874 0.86254 0.40724
 H1302 H 0.67107 0.92178 0.40298
 C1303 C 0.37409 0.36591 0.13204
 C1304 C 0.36925 0.36982 0.09922
 C1305 C 0.37468 0.40261 0.10158
 C1306 C 0.37957 0.39874 0.13436
 C1307 C 0.34159 0.37018 0.13811
 C1308 C 0.34704 0.40297 0.14048
 C1309 C 0.33670 0.37404 0.10533
 C1310 C 0.34220 0.40690 0.10763
 C1311 C 0.39395 0.42093 0.08097
 C1312 C 0.41030 0.43547 0.06473
 C1313 C 0.32296 0.35136 0.15884
 C1314 C 0.30828 0.33548 0.17542
 H1315 H 0.38790 0.34949 0.14150
 H1316 H 0.37788 0.35550 0.08278
 H1317 H 0.39679 0.40841 0.14701
 H1318 H 0.33841 0.41729 0.15693
 H1319 H 0.31950 0.36436 0.09268
 H1320 H 0.32839 0.42332 0.09817
 C1321 C 0.62461 0.64859 0.11944
 C1322 C 0.63586 0.62621 0.09745
 C1323 C 0.61274 0.60447 0.10715
 C1324 C 0.60136 0.62673 0.12900
 C1325 C 0.64549 0.63706 0.14253
 C1326 C 0.62237 0.61533 0.15223
 C1327 C 0.65688 0.61481 0.12069
 C1328 C 0.63362 0.59294 0.13024
 C1329 C 0.59404 0.58615 0.08727
 C1330 C 0.57846 0.57131 0.07126
 C1331 C 0.66391 0.65567 0.16241
 C1332 C 0.67882 0.67119 0.17842
 H1333 H 0.62051 0.67116 0.11459
 H1334 H 0.64181 0.63107 0.07530
 H1335 H 0.57883 0.63202 0.13282
 H1336 H 0.61642 0.61047 0.17438
 H1337 H 0.67941 0.60952 0.11687
 H1338 H 0.63771 0.57037 0.13509
 C1339 C 0.11295 0.86387 0.85788
 C1340 C 0.11263 0.86252 0.89120
 C1341 C 0.11341 0.89564 0.89297
 C1342 C 0.11361 0.89712 0.85978
 C1343 C 0.14612 0.86283 0.85775
 C1344 C 0.14691 0.89596 0.85952
 C1345 C 0.14592 0.86135 0.89095
 C1346 C 0.14657 0.89460 0.89285
 C1347 C 0.09473 0.91410 0.91275
 C1348 C 0.07916 0.92904 0.92869
 C1349 C 0.16452 0.84409 0.83797
 C1350 C 0.17942 0.82849 0.82203
 H1351 H 0.09871 0.85157 0.84389
 H1352 H 0.09887 0.84834 0.90384
 H1353 H 0.10065 0.91151 0.84656
 H1354 H 0.16066 0.91012 0.84687
 H1355 H 0.15887 0.84696 0.90417
 H1356 H 0.16082 0.90690 0.90685
 C1357 C 0.34244 0.11538 0.37989
 C1358 C 0.36481 0.09259 0.37034
 C1359 C 0.38660 0.10404 0.39265
 C1360 C 0.36435 0.12670 0.40233
 C1361 C 0.35393 0.13675 0.35722
 C1362 C 0.37571 0.14819 0.37952
 C1363 C 0.37618 0.11410 0.34754
 C1364 C 0.39807 0.12542 0.36998
 C1365 C 0.40525 0.08563 0.41257
 C1366 C 0.42080 0.07073 0.42861
 C1367 C 0.33554 0.15543 0.33729
 C1368 C 0.32065 0.17099 0.32125
 H1369 H 0.31988 0.11085 0.38439
 H1370 H 0.35993 0.07004 0.36615
 H1371 H 0.35908 0.13229 0.42448
 H1372 H 0.38060 0.17074 0.38372
 H1373 H 0.38145 0.10851 0.32539
 H1374 H 0.42064 0.12995 0.36548
 C1375 C 0.88717 0.36294 0.64125
 C1376 C 0.88616 0.36275 0.60792
 C1377 C 0.88674 0.39592 0.60732
 C1378 C 0.88789 0.39623 0.64052
 C1379 C 0.85402 0.36329 0.64267
 C1380 C 0.85461 0.39646 0.64207
 C1381 C 0.85289 0.36297 0.60947
 C1382 C 0.85360 0.39628 0.60872
 C1383 C 0.90543 0.41427 0.58747
 C1384 C 0.92101 0.42913 0.57148
 C1385 C 0.83562 0.34465 0.66252
 C1386 C 0.82072 0.32912 0.67850
 H1387 H 0.90139 0.34955 0.65424
 H1388 H 0.89880 0.34847 0.59428
 H1389 H 0.90197 0.40957 0.65369
 H1390 H 0.84197 0.41073 0.65573
 H1391 H 0.83881 0.34963 0.59629
 H1392 H 0.83938 0.40965 0.59573
 C1393 C 0.83269 0.61660 0.10949
 C1394 C 0.85970 0.62722 0.09295
 C1395 C 0.87615 0.59919 0.10035
 C1396 C 0.84921 0.58851 0.11683
 C1397 C 0.84330 0.63104 0.13763
 C1398 C 0.85976 0.60302 0.14503
 C1399 C 0.87024 0.64171 0.12115
 C1400 C 0.88673 0.61365 0.12849
 C1401 C 0.89528 0.58118 0.07931
 C1402 C 0.91151 0.56682 0.06279
 C1403 C 0.82478 0.64954 0.15879
 C1404 C 0.81016 0.66521 0.17563
 H1405 H 0.81085 0.61726 0.10098
 H1406 H 0.85909 0.63784 0.07206
 H1407 H 0.83990 0.56702 0.11569
 H1408 H 0.86037 0.59241 0.16593
 H1409 H 0.87955 0.66320 0.12229
 H1410 H 0.90858 0.61300 0.13700
 C1411 C 0.63547 0.39400 0.64639
 C1412 C 0.64680 0.41310 0.62143
 C1413 C 0.62340 0.40136 0.60078
 C1414 C 0.61202 0.38232 0.62569
 C1415 C 0.65624 0.36935 0.63794
 C1416 C 0.63282 0.35762 0.61729
 C1417 C 0.66764 0.38838 0.61303
 C1418 C 0.64416 0.37670 0.59233
 C1419 C 0.60428 0.41947 0.57981
 C1420 C 0.58805 0.43390 0.56333
 C1421 C 0.67475 0.35075 0.65902
 C1422 C 0.68938 0.33502 0.67581
 H1423 H 0.63126 0.40176 0.66811
 H1424 H 0.65319 0.43554 0.62379
 H1425 H 0.58953 0.37923 0.63158
 H1426 H 0.62643 0.33519 0.61493
 H1427 H 0.69012 0.39146 0.60714
 H1428 H 0.64836 0.36894 0.57061
 C1429 C 0.13581 0.10564 0.35339
 C1430 C 0.14721 0.08676 0.37850
 C1431 C 0.12363 0.09841 0.39900
 C1432 C 0.11219 0.11724 0.37394
 C1433 C 0.15636 0.13052 0.36178
 C1434 C 0.13277 0.14215 0.38229
 C1435 C 0.16781 0.11170 0.38683
 C1436 C 0.14416 0.12329 0.40739
 C1437 C 0.10456 0.08024 0.42001
 C1438 C 0.08838 0.06577 0.43651
 C1439 C 0.17481 0.14917 0.34065
 C1440 C 0.18939 0.16493 0.32383
 H1441 H 0.13175 0.09774 0.33169
 H1442 H 0.15380 0.06437 0.37627
 H1443 H 0.08970 0.12012 0.36795
 H1444 H 0.12618 0.16454 0.38451
 H1445 H 0.19030 0.10883 0.39283
 H1446 H 0.14822 0.13120 0.42909
 C1447 C 0.33633 0.89915 0.87427
 C1448 C 0.34576 0.89029 0.90510
 C1449 C 0.37680 0.90103 0.89948
 C1450 C 0.36744 0.90994 0.86872
 C1451 C 0.34394 0.86894 0.86243
 C1452 C 0.37498 0.87968 0.85683
 C1453 C 0.35332 0.86002 0.89319
 C1454 C 0.38440 0.87082 0.88763
 C1455 C 0.39593 0.91921 0.92038
 C1456 C 0.41217 0.93368 0.93681
 C1457 C 0.32542 0.85028 0.84141
 C1458 C 0.31079 0.83450 0.82468
 H1459 H 0.31698 0.91147 0.86939
 H1460 H 0.33306 0.89412 0.92443
 H1461 H 0.37271 0.93009 0.85794
 H1462 H 0.38769 0.87585 0.83750
 H1463 H 0.34805 0.83987 0.90396
 H1464 H 0.40375 0.85850 0.89250
 C1465 C 0.12765 0.89420 0.65790
 C1466 C 0.13947 0.91700 0.63652
 C1467 C 0.11969 0.90563 0.61218
 C1468 C 0.10783 0.88287 0.63350
 C1469 C 0.15167 0.87268 0.64941
 C1470 C 0.13187 0.86132 0.62506
 C1471 C 0.16354 0.89542 0.62808
 C1472 C 0.14370 0.88410 0.60369
 C1473 C 0.10110 0.92423 0.59103
 C1474 C 0.08539 0.93892 0.57420
 C1475 C 0.16978 0.85349 0.67044
 C1476 C 0.18421 0.83724 0.68698
 H1477 H 0.12039 0.89899 0.67966
 H1478 H 0.14321 0.93951 0.64194
 H1479 H 0.08531 0.87705 0.63642
 H1480 H 0.12813 0.83881 0.61964
 H1481 H 0.18606 0.90124 0.62516
 H1482 H 0.15096 0.87930 0.58192
 C1483 C 0.62696 0.60544 0.34231
 C1484 C 0.63874 0.58236 0.36339
 C1485 C 0.61928 0.59375 0.38797
 C1486 C 0.60746 0.61678 0.36694
 C1487 C 0.65124 0.62663 0.35080
 C1488 C 0.63178 0.63802 0.37537
 C1489 C 0.66308 0.60362 0.37182
 C1490 C 0.64356 0.61496 0.39646
 C1491 C 0.60072 0.57521 0.40906
 C1492 C 0.58500 0.56057 0.42585
 C1493 C 0.66932 0.64578 0.32982
 C1494 C 0.68374 0.66203 0.31334
 H1495 H 0.61950 0.60090 0.32055
 H1496 H 0.64220 0.55985 0.35778
 H1497 H 0.58496 0.62283 0.36426
 H1498 H 0.62831 0.66052 0.38099
 H1499 H 0.68558 0.59757 0.37450
 H1500 H 0.65101 0.61951 0.41821
 C1501 C 0.34062 0.11906 0.11740
 C1502 C 0.37174 0.12552 0.10717
 C1503 C 0.38065 0.09374 0.11183
 C1504 C 0.34959 0.08722 0.12201
 C1505 C 0.34859 0.12665 0.14891
 C1506 C 0.35750 0.09488 0.15358
 C1507 C 0.37965 0.13315 0.13871
 C1508 C 0.38862 0.10134 0.14333
 C1509 C 0.39929 0.07519 0.09080
 C1510 C 0.41504 0.06054 0.07405
 C1511 C 0.33044 0.14580 0.16982
 C1512 C 0.31597 0.16205 0.18626
 H1513 H 0.32128 0.12583 0.10601
 H1514 H 0.37706 0.13883 0.08861
 H1515 H 0.33654 0.06877 0.11575
 H1516 H 0.35218 0.08157 0.17214
 H1517 H 0.39270 0.15160 0.14496
 H1518 H 0.40797 0.09458 0.15472
 C1519 C 0.83744 0.40028 0.86764
 C1520 C 0.85282 0.38969 0.89537
 C1521 C 0.88037 0.40698 0.88769
 C1522 C 0.86498 0.41753 0.85991
 C1523 C 0.84835 0.37382 0.85055
 C1524 C 0.87583 0.39100 0.84277
 C1525 C 0.86367 0.36318 0.87821
 C1526 C 0.89118 0.38041 0.87047
 C1527 C 0.90000 0.42659 0.90980
 C1528 C 0.91566 0.44103 0.92625
 C1529 C 0.83030 0.35458 0.82966
 C1530 C 0.81590 0.33826 0.81324
 H1531 H 0.81572 0.40910 0.86712
 H1532 H 0.84270 0.38854 0.91648
 H1533 H 0.86495 0.43949 0.85170
 H1534 H 0.88595 0.39214 0.82165
 H1535 H 0.86370 0.34121 0.88642
 H1536 H 0.91290 0.37158 0.87100
 C1537 C 0.62463 0.11329 0.84766
 C1538 C 0.63598 0.09214 0.87080
 C1539 C 0.61382 0.10355 0.89272
 C1540 C 0.60233 0.12456 0.86972
 C1541 C 0.64647 0.13629 0.85739
 C1542 C 0.62430 0.14769 0.87932
 C1543 C 0.65796 0.11529 0.88039
 C1544 C 0.63566 0.12656 0.90246
 C1545 C 0.59517 0.08516 0.91258
 C1546 C 0.57962 0.07031 0.92862
 C1547 C 0.66481 0.15499 0.83753
 C1548 C 0.67961 0.17057 0.82148
 H1549 H 0.61970 0.10743 0.82549
 H1550 H 0.64118 0.06961 0.86689
 H1551 H 0.57976 0.12876 0.86493
 H1552 H 0.61910 0.17022 0.88323
 H1553 H 0.68053 0.11109 0.88518
 H1554 H 0.64058 0.13241 0.92462
 C1555 C 0.34256 0.61800 0.61750
 C1556 C 0.36765 0.62895 0.59849
 C1557 C 0.38639 0.60317 0.60772
 C1558 C 0.36144 0.59209 0.62658
 C1559 C 0.35378 0.63570 0.64326
 C1560 C 0.37252 0.60993 0.65249
 C1561 C 0.37874 0.64677 0.62439
 C1562 C 0.39761 0.62087 0.63347
 C1563 C 0.40503 0.58490 0.58774
 C1564 C 0.42056 0.57015 0.57161
 C1565 C 0.33546 0.65428 0.66324
 C1566 C 0.32068 0.66979 0.67935
 H1567 H 0.32022 0.61645 0.61054
 H1568 H 0.36527 0.63717 0.57667
 H1569 H 0.35393 0.56991 0.62789
 H1570 H 0.37492 0.60171 0.67431
 H1571 H 0.38626 0.66895 0.62308
 H1572 H 0.41995 0.62243 0.64045
 C1573 C 0.12464 0.38751 0.15185
 C1574 C 0.13596 0.40808 0.12817
 C1575 C 0.11319 0.39677 0.10680
 C1576 C 0.10175 0.37632 0.13035
 C1577 C 0.14590 0.36394 0.14213
 C1578 C 0.12313 0.35264 0.12076
 C1579 C 0.15735 0.38438 0.11859
 C1580 C 0.13445 0.37320 0.09708
 C1581 C 0.09450 0.41524 0.08692
 C1582 C 0.07895 0.43015 0.07087
 C1583 C 0.16429 0.34518 0.16202
 C1584 C 0.17914 0.32958 0.17807
 H1585 H 0.12018 0.39381 0.17399
 H1586 H 0.14164 0.43057 0.13165
 H1587 H 0.07921 0.37260 0.13561
 H1588 H 0.11744 0.33015 0.11728
 H1589 H 0.17990 0.38810 0.11333
 H1590 H 0.13890 0.36690 0.07494
 C1591 C 0.84250 0.88778 0.37718
 C1592 C 0.86149 0.87655 0.40218
 C1593 C 0.88642 0.89626 0.39262
 C1594 C 0.86756 0.90762 0.36776
 C1595 C 0.85362 0.86363 0.35731
 C1596 C 0.87855 0.88333 0.34774
 C1597 C 0.87248 0.85228 0.38217
 C1598 C 0.89754 0.87210 0.37275
 C1599 C 0.90514 0.91459 0.41248
 C1600 C 0.92074 0.92939 0.42852
 C1601 C 0.83521 0.84499 0.33745
 C1602 C 0.82033 0.82947 0.32141
 H1603 H 0.82018 0.89462 0.37940
 H1604 H 0.85406 0.87338 0.42419
 H1605 H 0.86517 0.93007 0.36142
 H1606 H 0.88598 0.88650 0.32573
 H1607 H 0.87488 0.82982 0.38850
 H1608 H 0.91985 0.86526 0.37052
 C1609 C 0.84103 0.61879 0.61813
 C1610 C 0.87210 0.62527 0.60775
 C1611 C 0.88103 0.59349 0.61233
 C1612 C 0.85003 0.58695 0.62266
 C1613 C 0.84916 0.62633 0.64960
 C1614 C 0.85810 0.59456 0.65420
 C1615 C 0.88017 0.63286 0.63926
 C1616 C 0.88916 0.60105 0.64380
 C1617 C 0.89957 0.57499 0.59119
 C1618 C 0.91525 0.56037 0.57436
 C1619 C 0.83112 0.64545 0.67062
 C1620 C 0.81674 0.66168 0.68714
 H1621 H 0.82163 0.62557 0.60685
 H1622 H 0.87731 0.63860 0.58918
 H1623 H 0.83696 0.56850 0.61643
 H1624 H 0.85288 0.58124 0.67277
 H1625 H 0.89324 0.65131 0.64548
 H1626 H 0.90857 0.59428 0.65508
 C1627 C 0.62690 0.39518 0.15743
 C1628 C 0.63860 0.41802 0.13601
 C1629 C 0.61874 0.40661 0.11174
 C1630 C 0.60701 0.38383 0.13311
 C1631 C 0.65093 0.37371 0.14884
 C1632 C 0.63106 0.36232 0.12457
 C1633 C 0.66267 0.39648 0.12747
 C1634 C 0.64275 0.38513 0.10316
 C1635 C 0.60005 0.42519 0.09068
 C1636 C 0.58427 0.43987 0.07390
 C1637 C 0.66916 0.35455 0.16979
 C1638 C 0.68369 0.33832 0.18626
 H1639 H 0.61972 0.39996 0.17923
 H1640 H 0.64232 0.44053 0.14142
 H1641 H 0.58450 0.37797 0.13612
 H1642 H 0.62733 0.33981 0.11916
 H1643 H 0.68517 0.40234 0.12446
 H1644 H 0.64993 0.38035 0.08136
 C1645 C 0.33774 0.89990 0.36807
 C1646 C 0.35292 0.88920 0.39586
 C1647 C 0.38054 0.90621 0.38821
 C1648 C 0.36543 0.91697 0.36048
 C1649 C 0.34855 0.87338 0.35102
 C1650 C 0.37618 0.89038 0.34337
 C1651 C 0.36368 0.86262 0.37874
 C1652 C 0.39134 0.87968 0.37114
 C1653 C 0.39913 0.92473 0.40931
 C1654 C 0.41486 0.93936 0.42612
 C1655 C 0.33045 0.85425 0.33003
 C1656 C 0.31602 0.83803 0.31353
 H1657 H 0.31609 0.90888 0.36746
 H1658 H 0.34270 0.88811 0.41693
 H1659 H 0.36559 0.93893 0.35227
 H1660 H 0.38641 0.89146 0.32230
 H1661 H 0.36353 0.84066 0.38695
 H1662 H 0.41299 0.87070 0.37176
 C1663 C 0.12707 0.10541 0.84239
 C1664 C 0.13886 0.08235 0.86350
 C1665 C 0.11936 0.09373 0.88805
 C1666 C 0.10753 0.11673 0.86700
 C1667 C 0.15131 0.12664 0.85089
 C1668 C 0.13180 0.13801 0.87544
 C1669 C 0.16317 0.10365 0.87194
 C1670 C 0.14360 0.11497 0.89655
 C1671 C 0.10080 0.07518 0.90913
 C1672 C 0.08508 0.06053 0.92591
 C1673 C 0.16939 0.14580 0.82993
 C1674 C 0.18380 0.16205 0.81345
 H1675 H 0.11964 0.10085 0.82062
 H1676 H 0.14236 0.05985 0.85791
 H1677 H 0.08503 0.12274 0.86429
 H1678 H 0.12830 0.16051 0.88104
 H1679 H 0.18567 0.09764 0.87465
 H1680 H 0.15102 0.11954 0.91832
 C1681 C 0.13555 0.89415 0.14653
 C1682 C 0.14688 0.91321 0.12153
 C1683 C 0.12344 0.90146 0.10093
 C1684 C 0.11208 0.88245 0.12587
 C1685 C 0.15631 0.86948 0.13809
 C1686 C 0.13287 0.85774 0.11748
 C1687 C 0.16769 0.88847 0.11315
 C1688 C 0.14419 0.87678 0.09248
 C1689 C 0.10431 0.91955 0.07995
 C1690 C 0.08807 0.93397 0.06348
 C1691 C 0.17483 0.85089 0.15918
 C1692 C 0.18946 0.83516 0.17596
 H1693 H 0.13138 0.90193 0.16825
 H1694 H 0.15327 0.93566 0.12386
 H1695 H 0.08960 0.87938 0.13179
 H1696 H 0.12646 0.83530 0.11515
 H1697 H 0.19017 0.89154 0.10723
 H1698 H 0.14836 0.86899 0.07076
 C1699 C 0.83620 0.39989 0.37370
 C1700 C 0.84554 0.39094 0.40454
 C1701 C 0.87663 0.40159 0.39902
 C1702 C 0.86737 0.41060 0.36826
 C1703 C 0.84373 0.36968 0.36181
 C1704 C 0.87484 0.38032 0.35631
 C1705 C 0.85301 0.36067 0.39258
 C1706 C 0.88414 0.37137 0.38712
 C1707 C 0.89578 0.41965 0.42003
 C1708 C 0.91204 0.43405 0.43654
 C1709 C 0.82518 0.35112 0.34069
 C1710 C 0.81053 0.33542 0.32388
 H1711 H 0.81692 0.41230 0.36880
 H1712 H 0.83278 0.39476 0.42384
 H1713 H 0.87275 0.43074 0.35753
 H1714 H 0.88759 0.37650 0.33702
 H1715 H 0.84763 0.34052 0.40330
 H1716 H 0.90343 0.35896 0.39202
 C1717 C 0.33305 0.11623 0.60997
 C1718 C 0.36018 0.12670 0.59355
 C1719 C 0.37646 0.09859 0.60103
 C1720 C 0.34939 0.08806 0.61740
 C1721 C 0.34359 0.13064 0.63815
 C1722 C 0.35988 0.10255 0.64564
 C1723 C 0.37067 0.14116 0.62178
 C1724 C 0.38700 0.11302 0.62921
 C1725 C 0.39560 0.08046 0.58009
 C1726 C 0.41184 0.06601 0.56363
 C1727 C 0.32506 0.14926 0.65921
 C1728 C 0.31042 0.16500 0.67599
 H1729 H 0.31125 0.11699 0.60136
 H1730 H 0.35972 0.13730 0.57264
 H1731 H 0.33999 0.06662 0.61624
 H1732 H 0.36035 0.09194 0.66655
 H1733 H 0.38009 0.16260 0.62294
 H1734 H 0.40879 0.11227 0.63783
 C1735 C 0.63583 0.60594 0.85368
 C1736 C 0.64694 0.58701 0.87887
 C1737 C 0.62331 0.59885 0.89920
 C1738 C 0.61216 0.61773 0.87406
 C1739 C 0.65650 0.63066 0.86221
 C1740 C 0.63286 0.64250 0.88253
 C1741 C 0.66765 0.61179 0.88734
 C1742 C 0.64396 0.62358 0.90773
 C1743 C 0.60400 0.58086 0.92007
 C1744 C 0.58763 0.56652 0.93647
 C1745 C 0.67520 0.64915 0.84122
 C1746 C 0.68997 0.66482 0.82451
 H1747 H 0.63187 0.59806 0.83196
 H1748 H 0.65336 0.56456 0.87672
 H1749 H 0.58973 0.62077 0.86793
 H1750 H 0.62643 0.66494 0.88469
 H1751 H 0.69008 0.60877 0.89348
 H1752 H 0.64792 0.63146 0.92945
 C1753 C 0.34172 0.38795 0.87735
 C1754 C 0.36120 0.37681 0.90201
 C1755 C 0.38566 0.39705 0.89236
 C1756 C 0.36631 0.40833 0.86784
 C1757 C 0.35306 0.36421 0.85711
 C1758 C 0.37751 0.38445 0.84746
 C1759 C 0.37239 0.35294 0.88162
 C1760 C 0.39697 0.37331 0.87212
 C1761 C 0.40428 0.41549 0.91219
 C1762 C 0.41981 0.43037 0.92820
 C1763 C 0.33475 0.34545 0.83727
 C1764 C 0.31996 0.32983 0.82127
 H1765 H 0.31931 0.39436 0.87990
 H1766 H 0.35409 0.37328 0.92407
 H1767 H 0.36344 0.43080 0.86178
 H1768 H 0.38462 0.38797 0.82539
 H1769 H 0.37528 0.33047 0.88769
 H1770 H 0.41939 0.36689 0.86956
 C1771 C 0.84251 0.11883 0.11673
 C1772 C 0.86780 0.12962 0.09788
 C1773 C 0.88635 0.10375 0.10725
 C1774 C 0.86120 0.09283 0.12597
 C1775 C 0.85366 0.13651 0.14254
 C1776 C 0.87221 0.11064 0.15192
 C1777 C 0.87881 0.14742 0.12383
 C1778 C 0.89748 0.12143 0.13306
 C1779 C 0.90501 0.08535 0.08741
 C1780 C 0.92057 0.07050 0.07139
 C1781 C 0.83530 0.15521 0.16239
 C1782 C 0.82048 0.17079 0.17842
 H1783 H 0.82022 0.11739 0.10962
 H1784 H 0.86560 0.13783 0.07603
 H1785 H 0.85356 0.07069 0.12726
 H1786 H 0.87441 0.10243 0.17377
 H1787 H 0.88645 0.16955 0.12254
 H1788 H 0.91978 0.12287 0.14019
 C1789 C 0.62542 0.88696 0.65280
 C1790 C 0.63664 0.90750 0.62905
 C1791 C 0.61384 0.89611 0.60777
 C1792 C 0.60250 0.87569 0.63138
 C1793 C 0.64670 0.86341 0.64308
 C1794 C 0.62388 0.85202 0.62179
 C1795 C 0.65805 0.88382 0.61947
 C1796 C 0.63511 0.87254 0.59805
 C1797 C 0.59507 0.91449 0.58788
 C1798 C 0.57946 0.92934 0.57183
 C1799 C 0.66517 0.84473 0.66297
 C1800 C 0.68008 0.82918 0.67901
 H1801 H 0.62101 0.89331 0.67494
 H1802 H 0.64230 0.93001 0.63246
 H1803 H 0.57997 0.87194 0.63671
 H1804 H 0.61823 0.82952 0.61838
 H1805 H 0.68058 0.88756 0.61414
 H1806 H 0.63952 0.86620 0.57591
 C1807 C 0.12457 0.61331 0.34770
 C1808 C 0.13595 0.59213 0.37080
 C1809 C 0.11386 0.60355 0.39278
 C1810 C 0.10235 0.62460 0.36983
 C1811 C 0.14647 0.63628 0.35741
 C1812 C 0.12437 0.64769 0.37940
 C1813 C 0.15799 0.61523 0.38036
 C1814 C 0.13575 0.62651 0.40249
 C1815 C 0.09522 0.58517 0.41267
 C1816 C 0.07968 0.57034 0.42873
 C1817 C 0.16479 0.65496 0.33751
 C1818 C 0.17959 0.67054 0.32145
 H1819 H 0.11958 0.60749 0.32555
 H1820 H 0.14109 0.56959 0.36686
 H1821 H 0.07978 0.62884 0.36510
 H1822 H 0.11922 0.67022 0.38334
 H1823 H 0.18056 0.61099 0.38509
 H1824 H 0.14074 0.63234 0.42464
   
