data_POSCAR
  _audit_creation_date              2014-09-24
  _audit_creation_method            'ToBaCCo'
  _symmetry_space_group_name_H-M    'P1'
  _symmetry_Int_Tables_number       1
  _symmetry_cell_setting            triclinic
  loop_
  _symmetry_equiv_pos_as_xyz
 x,y,z
_cell_length_a 98.9131
_cell_length_b 98.7641
_cell_length_c 95.2848
_cell_angle_alpha 89.989600
_cell_angle_beta 90.001100
_cell_angle_gamma 89.956900
loop_
  _atom_site_label
  _atom_site_type_symbol
  _atom_site_fract_x
  _atom_site_fract_y
  _atom_site_fract_z
C1 C 0.35601 0.33597 0.34306
 C2 C 0.34556 0.33546 0.35300
 C3 C 0.33547 0.34514 0.35285
 C4 C 0.33569 0.35549 0.34277
 C5 C 0.34600 0.35602 0.33300
 C6 C 0.35623 0.34617 0.33314
 C7 C 0.36682 0.32761 0.34037
 N8 N 0.37363 0.33246 0.32902
 C9 C 0.36719 0.34386 0.32458
 C10 C 0.34342 0.36686 0.32433
 N11 N 0.33178 0.37295 0.32859
 C12 C 0.32701 0.36602 0.33990
 C13 C 0.32656 0.34197 0.36343
 N14 N 0.33099 0.33059 0.37005
 C15 C 0.34263 0.32656 0.36368
 H16 H 0.36926 0.31841 0.34601
 H17 H 0.37018 0.35003 0.31572
 H18 H 0.34962 0.37006 0.31559
 H19 H 0.31772 0.36822 0.34544
 H20 H 0.31737 0.34743 0.36590
 H21 H 0.34864 0.31786 0.36663
 C22 C 0.35534 0.83574 -0.15682
 C23 C 0.34507 0.83536 -0.14668
 C24 C 0.33491 0.84495 -0.14687
 C25 C 0.33489 0.85508 -0.15720
 C26 C 0.34497 0.85542 -0.16718
 C27 C 0.35528 0.84564 -0.16700
 C28 C 0.36620 0.82744 -0.15943
 N29 N 0.37290 0.83196 -0.17106
 C30 C 0.36614 0.84320 -0.17567
 C31 C 0.34217 0.86609 -0.17600
 N32 N 0.33058 0.87237 -0.17167
 C33 C 0.32616 0.86553 -0.16008
 C34 C 0.32615 0.84188 -0.13612
 N35 N 0.33074 0.83063 -0.12938
 C36 C 0.34235 0.82662 -0.13581
 H37 H 0.36860 0.81853 -0.15334
 H38 H 0.36873 0.84933 -0.18466
 H39 H 0.34836 0.86892 -0.18487
 H40 H 0.31709 0.86761 -0.15413
 H41 H 0.31692 0.84727 -0.13366
 H42 H 0.34844 0.81798 -0.13282
 C43 C 0.85495 0.33515 -0.15686
 C44 C 0.84482 0.33513 -0.14656
 C45 C 0.83522 0.34529 -0.14638
 C46 C 0.83559 0.35558 -0.15651
 C47 C 0.84550 0.35556 -0.16668
 C48 C 0.85528 0.34525 -0.16684
 C49 C 0.86541 0.32642 -0.15974
 N50 N 0.87224 0.33088 -0.17131
 C51 C 0.86595 0.34248 -0.17565
 C52 C 0.84305 0.36643 -0.17535
 N53 N 0.83181 0.37317 -0.17076
 C54 C 0.82729 0.36644 -0.15913
 C55 C 0.82648 0.34253 -0.13553
 N56 N 0.83050 0.33091 -0.12909
 C57 C 0.84176 0.32634 -0.13581
 H58 H 0.86750 0.31734 -0.15380
 H59 H 0.86877 0.34869 -0.18450
 H60 H 0.84918 0.36903 -0.18432
 H61 H 0.81838 0.36882 -0.15307
 H62 H 0.81784 0.34861 -0.13255
 H63 H 0.84715 0.31711 -0.13336
 C64 C 0.85560 0.83584 0.34432
 C65 C 0.84544 0.83575 0.35460
 C66 C 0.83580 0.84586 0.35478
 C67 C 0.83615 0.85619 0.34469
 C68 C 0.84609 0.85624 0.33456
 C69 C 0.85592 0.84598 0.33439
 C70 C 0.86608 0.82715 0.34142
 N71 N 0.87291 0.83167 0.32986
 C72 C 0.86659 0.84327 0.32557
 C73 C 0.84360 0.86711 0.32590
 N74 N 0.83230 0.87377 0.33046
 C75 C 0.82779 0.86701 0.34206
 C76 C 0.82702 0.84301 0.36557
 N77 N 0.83106 0.83137 0.37196
 C78 C 0.84236 0.82689 0.36527
 H79 H 0.86818 0.81805 0.34731
 H80 H 0.86940 0.84952 0.31674
 H81 H 0.84974 0.86976 0.31694
 H82 H 0.81884 0.86932 0.34810
 H83 H 0.81833 0.84904 0.36853
 H84 H 0.84777 0.81765 0.36769
 C85 C 0.64432 0.66451 0.34296
 C86 C 0.65480 0.66502 0.35286
 C87 C 0.66487 0.65532 0.35270
 C88 C 0.66460 0.64495 0.34265
 C89 C 0.65426 0.64443 0.33291
 C90 C 0.64405 0.65430 0.33306
 C91 C 0.63350 0.67288 0.34030
 N92 N 0.62664 0.66802 0.32899
 C93 C 0.63306 0.65661 0.32454
 C94 C 0.65679 0.63356 0.32427
 N95 N 0.66842 0.62744 0.32852
 C96 C 0.67324 0.63439 0.33978
 C97 C 0.67381 0.65848 0.36326
 N98 N 0.66942 0.66987 0.36988
 C99 C 0.65777 0.67392 0.36353
 H100 H 0.63110 0.68209 0.34593
 H101 H 0.63002 0.65042 0.31572
 H102 H 0.65055 0.63035 0.31556
 H103 H 0.68254 0.63217 0.34531
 H104 H 0.68299 0.65300 0.36572
 H105 H 0.65178 0.68263 0.36649
 C106 C 0.64458 0.16428 -0.15636
 C107 C 0.65484 0.16463 -0.14622
 C108 C 0.66497 0.15500 -0.14640
 C109 C 0.66496 0.14488 -0.15672
 C110 C 0.65488 0.14456 -0.16670
 C111 C 0.64460 0.15437 -0.16653
 C112 C 0.63375 0.17262 -0.15898
 N113 N 0.62705 0.16812 -0.17062
 C114 C 0.63376 0.15686 -0.17521
 C115 C 0.65765 0.13390 -0.17553
 N116 N 0.66923 0.12758 -0.17120
 C117 C 0.67367 0.13440 -0.15960
 C118 C 0.67375 0.15805 -0.13565
 N119 N 0.66920 0.16933 -0.12893
 C120 C 0.65760 0.17337 -0.13536
 H121 H 0.63138 0.18154 -0.15290
 H122 H 0.63116 0.15074 -0.18421
 H123 H 0.65146 0.13109 -0.18440
 H124 H 0.68273 0.13229 -0.15367
 H125 H 0.68297 0.15265 -0.13319
 H126 H 0.65153 0.18203 -0.13239
 C127 C 0.14493 0.66489 -0.15706
 C128 C 0.15506 0.66493 -0.14676
 C129 C 0.16470 0.65481 -0.14660
 C130 C 0.16436 0.64453 -0.15674
 C131 C 0.15444 0.64453 -0.16690
 C132 C 0.14462 0.65480 -0.16704
 C133 C 0.13444 0.67359 -0.15991
 N134 N 0.12761 0.66912 -0.17149
 C135 C 0.13394 0.65755 -0.17584
 C136 C 0.15693 0.63368 -0.17558
 N137 N 0.16820 0.62698 -0.17100
 C138 C 0.17270 0.63371 -0.15937
 C139 C 0.17345 0.65759 -0.13576
 N140 N 0.16939 0.66919 -0.12931
 C141 C 0.15811 0.67372 -0.13602
 H142 H 0.13232 0.68265 -0.15397
 H143 H 0.13113 0.65134 -0.18470
 H144 H 0.15080 0.63106 -0.18456
 H145 H 0.18163 0.63135 -0.15332
 H146 H 0.18211 0.65153 -0.13280
 H147 H 0.15269 0.68294 -0.13355
 C148 C 0.14417 0.16437 0.34413
 C149 C 0.15446 0.16475 0.35425
 C150 C 0.16460 0.15514 0.35406
 C151 C 0.16459 0.14500 0.34377
 C152 C 0.15449 0.14464 0.33381
 C153 C 0.14419 0.15443 0.33398
 C154 C 0.13333 0.17268 0.34150
 N155 N 0.12662 0.16815 0.32987
 C156 C 0.13335 0.15688 0.32531
 C157 C 0.15727 0.13399 0.32498
 N158 N 0.16888 0.12772 0.32928
 C159 C 0.17333 0.13455 0.34086
 C160 C 0.17341 0.15825 0.36477
 N161 N 0.16886 0.16953 0.37147
 C162 C 0.15723 0.17354 0.36507
 H163 H 0.13095 0.18162 0.34755
 H164 H 0.13076 0.15074 0.31633
 H165 H 0.15107 0.13117 0.31613
 H166 H 0.18242 0.13248 0.34677
 H167 H 0.18265 0.15287 0.36721
 H168 H 0.15116 0.18220 0.36803
 C169 C 0.64392 0.33570 0.65723
 C170 C 0.65437 0.33516 0.64730
 C171 C 0.66447 0.34481 0.64744
 C172 C 0.66427 0.35515 0.65752
 C173 C 0.65397 0.35571 0.66730
 C174 C 0.64372 0.34590 0.66716
 C175 C 0.63308 0.32738 0.65990
 N176 N 0.62627 0.33224 0.67124
 C177 C 0.63274 0.34361 0.67571
 C178 C 0.65656 0.36655 0.67595
 N179 N 0.66820 0.37262 0.67168
 C180 C 0.67296 0.36567 0.66038
 C181 C 0.67336 0.34161 0.63684
 N182 N 0.66891 0.33025 0.63022
 C183 C 0.65727 0.32626 0.63660
 H184 H 0.63063 0.31820 0.65425
 H185 H 0.62975 0.34979 0.68455
 H186 H 0.65035 0.36978 0.68469
 H187 H 0.68225 0.36784 0.65483
 H188 H 0.68256 0.34704 0.63436
 H189 H 0.65123 0.31759 0.63365
 C190 C 0.64469 0.83527 1.15698
 C191 C 0.65509 0.83484 1.14699
 C192 C 0.66524 0.84444 1.14726
 C193 C 0.66511 0.85462 1.15752
 C194 C 0.65485 0.85503 1.16736
 C195 C 0.64457 0.84524 1.16709
 C196 C 0.63382 0.82696 1.15951
 N197 N 0.62697 0.83154 1.17103
 C198 C 0.63363 0.84283 1.17563
 C199 C 0.65748 0.86576 1.17615
 N200 N 0.66909 0.87190 1.17190
 C201 C 0.67381 0.86509 1.16049
 C202 C 0.67412 0.84134 1.13661
 N203 N 0.66960 0.83008 1.12985
 C204 C 0.65794 0.82608 1.13617
 H205 H 0.63153 0.81801 1.15346
 H206 H 0.63093 0.84900 1.18455
 H207 H 0.65130 0.86889 1.18494
 H208 H 0.68306 0.86736 1.15490
 H209 H 0.68335 0.84674 1.13422
 H210 H 0.65187 0.81745 1.13312
 C211 C 0.14433 0.33526 1.15676
 C212 C 0.15462 0.33521 1.14663
 C213 C 0.16423 0.34535 1.14657
 C214 C 0.16369 0.35569 1.15663
 C215 C 0.15356 0.35573 1.16662
 C216 C 0.14380 0.34541 1.16666
 C217 C 0.13387 0.32652 1.15953
 N218 N 0.12687 0.33101 1.17099
 C219 C 0.13304 0.34266 1.17534
 C220 C 0.15582 0.36664 1.17527
 N221 N 0.16711 0.37324 1.17081
 C222 C 0.17195 0.36656 1.15938
 C223 C 0.17311 0.34256 1.13584
 N224 N 0.16916 0.33094 1.12937
 C225 C 0.15783 0.32640 1.13595
 H226 H 0.13191 0.31739 1.15364
 H227 H 0.13009 0.34890 1.18412
 H228 H 0.14967 0.36953 1.18418
 H229 H 0.18107 0.36913 1.15370
 H230 H 0.18178 0.34864 1.13296
 H231 H 0.15245 0.31718 1.13342
 C232 C 0.14519 0.83587 0.65645
 C233 C 0.15541 0.83569 0.64625
 C234 C 0.16499 0.84585 0.64598
 C235 C 0.16452 0.85632 0.65591
 C236 C 0.15450 0.85648 0.66596
 C237 C 0.14473 0.84619 0.66623
 C238 C 0.13473 0.82716 0.65943
 N239 N 0.12789 0.83193 0.67079
 C240 C 0.13398 0.84359 0.67500
 C241 C 0.15688 0.86747 0.67448
 N242 N 0.16819 0.87410 0.66992
 C243 C 0.17281 0.86720 0.65845
 C244 C 0.17382 0.84294 0.63524
 N245 N 0.16986 0.83123 0.62897
 C246 C 0.15857 0.82674 0.63568
 H247 H 0.13251 0.81786 0.65389
 H248 H 0.13082 0.84982 0.68375
 H249 H 0.15067 0.87021 0.68336
 H250 H 0.18179 0.86946 0.65245
 H251 H 0.18245 0.84900 0.63222
 H252 H 0.15320 0.81748 0.63331
 C253 C 0.35533 0.66460 0.65733
 C254 C 0.34498 0.66481 0.64727
 C255 C 0.33534 0.65469 0.64714
 C256 C 0.33590 0.64422 0.65706
 C257 C 0.34610 0.64401 0.66698
 C258 C 0.35590 0.65427 0.66710
 C259 C 0.36584 0.67329 0.66017
 N260 N 0.37280 0.66851 0.67146
 C261 C 0.36675 0.65685 0.67573
 C262 C 0.34383 0.63301 0.67552
 N263 N 0.33247 0.62654 0.67107
 C264 C 0.32760 0.63337 0.65975
 C265 C 0.32644 0.65760 0.63647
 N266 N 0.33041 0.66926 0.63009
 C267 C 0.34177 0.67372 0.63668
 H268 H 0.36800 0.68260 0.65463
 H269 H 0.36998 0.65063 0.68446
 H270 H 0.35001 0.63000 0.68436
 H271 H 0.31842 0.63092 0.65411
 H272 H 0.31777 0.65155 0.63353
 H273 H 0.34719 0.68293 0.63420
 C274 C 0.35583 0.16415 1.15647
 C275 C 0.34550 0.16466 1.14641
 C276 C 0.33543 0.15498 1.14644
 C277 C 0.33554 0.14464 1.15655
 C278 C 0.34568 0.14414 1.16645
 C279 C 0.35592 0.15397 1.16643
 C280 C 0.36664 0.17247 1.15925
 N281 N 0.37333 0.16762 1.17067
 C282 C 0.36681 0.15627 1.17510
 C283 C 0.34298 0.13333 1.17510
 N284 N 0.33137 0.12710 1.17074
 C285 C 0.32686 0.13412 1.15929
 C286 C 0.32661 0.15817 1.13578
 N287 N 0.33108 0.16956 1.12923
 C288 C 0.34266 0.17357 1.13571
 H289 H 0.36916 0.18163 1.15360
 H290 H 0.36972 0.15010 1.18399
 H291 H 0.34923 0.13039 1.18388
 H292 H 0.31775 0.13213 1.15340
 H293 H 0.31743 0.15274 1.13324
 H294 H 0.34868 0.18229 1.13285
 C295 C 0.85564 0.66514 1.15702
 C296 C 0.84529 0.66536 1.14696
 C297 C 0.83567 0.65523 1.14680
 C298 C 0.83624 0.64474 1.15670
 C299 C 0.84644 0.64452 1.16661
 C300 C 0.85622 0.65479 1.16676
 C301 C 0.86612 0.67386 1.15991
 N302 N 0.87308 0.66906 1.17119
 C303 C 0.86705 0.65737 1.17542
 C304 C 0.84418 0.63351 1.17514
 N305 N 0.83282 0.62705 1.17070
 C306 C 0.82793 0.63388 1.15938
 C307 C 0.82675 0.65816 1.13614
 N308 N 0.83070 0.66986 1.12980
 C309 C 0.84205 0.67431 1.13641
 H310 H 0.86827 0.68319 1.15440
 H311 H 0.87028 0.65114 1.18413
 H312 H 0.85036 0.63051 1.18398
 H313 H 0.81875 0.63144 1.15375
 H314 H 0.81809 0.65212 1.13319
 H315 H 0.84745 0.68354 1.13395
 C316 C 0.85602 0.16454 0.65599
 C317 C 0.84558 0.16499 0.64604
 C318 C 0.83547 0.15536 0.64629
 C319 C 0.83567 0.14511 0.65647
 C320 C 0.84597 0.14467 0.66627
 C321 C 0.85621 0.15450 0.66603
 C322 C 0.86685 0.17289 0.65856
 N323 N 0.87374 0.16828 0.67004
 C324 C 0.86716 0.15692 0.67457
 C325 C 0.84340 0.13390 0.67503
 N326 N 0.83179 0.12776 0.67079
 C327 C 0.82701 0.13460 0.65943
 C328 C 0.82654 0.15851 0.63571
 N329 N 0.83098 0.16984 0.62901
 C330 C 0.84265 0.17384 0.63531
 H331 H 0.86907 0.18191 0.65258
 H332 H 0.86990 0.15070 0.68345
 H333 H 0.84962 0.13075 0.68379
 H334 H 0.81774 0.13234 0.65388
 H335 H 0.81731 0.15310 0.63332
 H336 H 0.84867 0.18251 0.63231
 C337 C 0.33639 0.35610 0.65721
 C338 C 0.33589 0.34563 0.64729
 C339 C 0.34556 0.33553 0.64746
 C340 C 0.35589 0.33577 0.65754
 C341 C 0.35640 0.34610 0.66731
 C342 C 0.34656 0.35634 0.66715
 C343 C 0.32801 0.36692 0.65988
 N344 N 0.33282 0.37375 0.67122
 C345 C 0.34421 0.36733 0.67570
 C346 C 0.36722 0.34352 0.67599
 N347 N 0.37331 0.33187 0.67173
 C348 C 0.36640 0.32708 0.66043
 C349 C 0.34239 0.32658 0.63690
 N350 N 0.33102 0.33099 0.63029
 C351 C 0.32700 0.34267 0.63663
 H352 H 0.31883 0.36933 0.65423
 H353 H 0.35034 0.37034 0.68457
 H354 H 0.37041 0.34974 0.68473
 H355 H 0.36860 0.31777 0.65490
 H356 H 0.34783 0.31737 0.63446
 H357 H 0.31831 0.34868 0.63367
 C358 C 0.33565 0.85599 0.15693
 C359 C 0.33541 0.84559 0.14691
 C360 C 0.34554 0.83595 0.14675
 C361 C 0.35604 0.83656 0.15661
 C362 C 0.35629 0.84681 0.16648
 C363 C 0.34601 0.85661 0.16663
 C364 C 0.32693 0.86649 0.15981
 N365 N 0.33173 0.87349 0.17104
 C366 C 0.34343 0.86748 0.17526
 C367 C 0.36731 0.84456 0.17498
 N368 N 0.37376 0.83317 0.17055
 C369 C 0.36690 0.82825 0.15927
 C370 C 0.34257 0.82698 0.13615
 N371 N 0.33087 0.83092 0.12984
 C372 C 0.32643 0.84232 0.13642
 H373 H 0.31759 0.86861 0.15432
 H374 H 0.34967 0.87075 0.18395
 H375 H 0.37033 0.85078 0.18379
 H376 H 0.36933 0.81903 0.15367
 H377 H 0.34860 0.81829 0.13320
 H378 H 0.31720 0.84772 0.13399
 C379 C 0.83688 0.35632 0.15655
 C380 C 0.83627 0.34580 0.14669
 C381 C 0.84591 0.33567 0.14683
 C382 C 0.85631 0.33592 0.15682
 C383 C 0.85694 0.34630 0.16652
 C384 C 0.84713 0.35657 0.16640
 C385 C 0.82856 0.36717 0.15925
 N386 N 0.83348 0.37403 0.17052
 C387 C 0.84489 0.36759 0.17492
 C388 C 0.86781 0.34371 0.17513
 N389 N 0.87382 0.33201 0.17090
 C390 C 0.86681 0.32720 0.15967
 C391 C 0.84262 0.32668 0.13635
 N392 N 0.83121 0.33110 0.12981
 C393 C 0.82728 0.34282 0.13612
 H394 H 0.81934 0.36958 0.15367
 H395 H 0.85110 0.37062 0.18372
 H396 H 0.87108 0.34996 0.18382
 H397 H 0.86892 0.31785 0.15418
 H398 H 0.84801 0.31744 0.13391
 H399 H 0.81858 0.34884 0.13321
 C400 C 0.83571 0.85540 0.65711
 C401 C 0.83537 0.84495 0.64715
 C402 C 0.84545 0.83526 0.64699
 C403 C 0.85601 0.83586 0.65679
 C404 C 0.85634 0.84616 0.66661
 C405 C 0.84612 0.85601 0.66676
 C406 C 0.82707 0.86596 0.65997
 N407 N 0.83196 0.87300 0.67114
 C408 C 0.84364 0.86694 0.67533
 C409 C 0.86740 0.84391 0.67505
 N410 N 0.87379 0.83247 0.67065
 C411 C 0.86685 0.82752 0.65944
 C412 C 0.84240 0.82627 0.63643
 N413 N 0.83070 0.83024 0.63015
 C414 C 0.82634 0.84169 0.63670
 H415 H 0.81771 0.86811 0.65451
 H416 H 0.84994 0.87023 0.68397
 H417 H 0.87050 0.85017 0.68380
 H418 H 0.86922 0.81827 0.65387
 H419 H 0.84838 0.81754 0.63349
 H420 H 0.81714 0.84713 0.63429
 C421 C 0.66356 0.64379 0.65715
 C422 C 0.66409 0.65428 0.64724
 C423 C 0.65443 0.66438 0.64739
 C424 C 0.64408 0.66415 0.65744
 C425 C 0.64353 0.65381 0.66720
 C426 C 0.65336 0.64355 0.66706
 C427 C 0.67190 0.63295 0.65981
 N428 N 0.66706 0.62610 0.67113
 C429 C 0.65567 0.63254 0.67559
 C430 C 0.63268 0.65638 0.67584
 N431 N 0.62660 0.66804 0.67157
 C432 C 0.63356 0.67283 0.66030
 C433 C 0.65763 0.67333 0.63684
 N434 N 0.66900 0.66891 0.63024
 C435 C 0.67299 0.65723 0.63659
 H436 H 0.68109 0.63054 0.65417
 H437 H 0.64951 0.62952 0.68444
 H438 H 0.62946 0.65015 0.68456
 H439 H 0.63138 0.68215 0.65476
 H440 H 0.65219 0.68255 0.63438
 H441 H 0.68168 0.65120 0.63364
 C442 C 0.66417 0.14378 0.15701
 C443 C 0.66447 0.15422 0.14703
 C444 C 0.65439 0.16390 0.14688
 C445 C 0.64386 0.16331 0.15672
 C446 C 0.64355 0.15303 0.16655
 C447 C 0.65378 0.14319 0.16669
 C448 C 0.67283 0.13324 0.15988
 N449 N 0.66797 0.12623 0.17109
 C450 C 0.65630 0.13228 0.17530
 C451 C 0.63254 0.15531 0.17505
 N452 N 0.62615 0.16676 0.17065
 C453 C 0.63304 0.17168 0.15940
 C454 C 0.65742 0.17290 0.13632
 N455 N 0.66912 0.16894 0.13003
 C456 C 0.67348 0.15749 0.13657
 H457 H 0.68217 0.13109 0.15442
 H458 H 0.65003 0.12902 0.18397
 H459 H 0.62948 0.14908 0.18384
 H460 H 0.63067 0.18093 0.15383
 H461 H 0.65143 0.18164 0.13341
 H462 H 0.68270 0.15206 0.13414
 C463 C 0.16333 0.64424 0.15675
 C464 C 0.16393 0.65476 0.14688
 C465 C 0.15431 0.66490 0.14703
 C466 C 0.14393 0.66468 0.15706
 C467 C 0.14332 0.65430 0.16678
 C468 C 0.15310 0.64402 0.16663
 C469 C 0.17164 0.63338 0.15944
 N470 N 0.16674 0.62653 0.17073
 C471 C 0.15536 0.63300 0.17516
 C472 C 0.13248 0.65690 0.17542
 N473 N 0.12647 0.66861 0.17120
 C474 C 0.13345 0.67341 0.15994
 C475 C 0.15758 0.67388 0.13653
 N476 N 0.16896 0.66943 0.12996
 C477 C 0.17289 0.65771 0.13628
 H478 H 0.18084 0.63095 0.15383
 H479 H 0.14916 0.62999 0.18398
 H480 H 0.12922 0.65066 0.18412
 H481 H 0.13133 0.68276 0.15445
 H482 H 0.15220 0.68313 0.13409
 H483 H 0.18157 0.65167 0.13335
 C484 C 0.16437 0.14513 0.65703
 C485 C 0.16463 0.15553 0.64702
 C486 C 0.15453 0.16520 0.64686
 C487 C 0.14403 0.16462 0.65673
 C488 C 0.14376 0.15436 0.66659
 C489 C 0.15400 0.14453 0.66673
 C490 C 0.17305 0.13460 0.65990
 N491 N 0.16823 0.12760 0.67113
 C492 C 0.15655 0.13365 0.67535
 C493 C 0.13275 0.15663 0.67510
 N494 N 0.12632 0.16805 0.67067
 C495 C 0.13319 0.17296 0.65940
 C496 C 0.15752 0.17417 0.63626
 N497 N 0.16920 0.17020 0.62995
 C498 C 0.17361 0.15879 0.63652
 H499 H 0.18238 0.13245 0.65440
 H500 H 0.15031 0.13039 0.68404
 H501 H 0.12971 0.15041 0.68390
 H502 H 0.13079 0.18219 0.65380
 H503 H 0.15151 0.18288 0.63333
 H504 H 0.18282 0.15336 0.63408
 C505 C 0.33600 0.64391 0.34253
 C506 C 0.33544 0.65437 0.35246
 C507 C 0.34507 0.66449 0.35233
 C508 C 0.35541 0.66430 0.34226
 C509 C 0.35598 0.65398 0.33248
 C510 C 0.34619 0.64371 0.33261
 C511 C 0.32770 0.63305 0.33986
 N512 N 0.33256 0.62623 0.32853
 C513 C 0.34391 0.63271 0.32406
 C514 C 0.36682 0.65658 0.32384
 N515 N 0.37287 0.66824 0.32813
 C516 C 0.36591 0.67300 0.33942
 C517 C 0.34186 0.67340 0.36292
 N518 N 0.33051 0.66893 0.36952
 C519 C 0.32654 0.65726 0.36314
 H520 H 0.31853 0.63059 0.34551
 H521 H 0.35008 0.62971 0.31521
 H522 H 0.37006 0.65038 0.31511
 H523 H 0.36807 0.68230 0.34498
 H524 H 0.34727 0.68261 0.36540
 H525 H 0.31788 0.65121 0.36609
 C526 C 0.33608 0.14383 0.84360
 C527 C 0.33580 0.15426 0.85358
 C528 C 0.34592 0.16390 0.85373
 C529 C 0.35646 0.16325 0.84390
 C530 C 0.35673 0.15297 0.83407
 C531 C 0.34647 0.14317 0.83393
 C532 C 0.32738 0.13333 0.84072
 N533 N 0.33221 0.12630 0.82952
 C534 C 0.34392 0.13229 0.82532
 C535 C 0.36776 0.15519 0.82557
 N536 N 0.37418 0.16661 0.82997
 C537 C 0.36730 0.17156 0.84122
 C538 C 0.34292 0.17292 0.86428
 N539 N 0.33120 0.16901 0.87056
 C540 C 0.32680 0.15759 0.86403
 H541 H 0.31802 0.13124 0.84618
 H542 H 0.35018 0.12900 0.81666
 H543 H 0.37080 0.14895 0.81679
 H544 H 0.36970 0.18080 0.84678
 H545 H 0.34893 0.18162 0.86720
 H546 H 0.31756 0.15221 0.86645
 C547 C 0.83619 0.64458 0.84248
 C548 C 0.83563 0.65509 0.85236
 C549 C 0.84529 0.66519 0.85220
 C550 C 0.85567 0.66492 0.84218
 C551 C 0.85624 0.65455 0.83246
 C552 C 0.84642 0.64431 0.83260
 C553 C 0.82787 0.63374 0.83983
 N554 N 0.83276 0.62685 0.82855
 C555 C 0.84414 0.63328 0.82410
 C556 C 0.86712 0.65707 0.82385
 N557 N 0.87319 0.66874 0.82810
 C558 C 0.86620 0.67357 0.83933
 C559 C 0.84206 0.67416 0.86274
 N560 N 0.83068 0.66975 0.86932
 C561 C 0.82670 0.65807 0.86299
 H562 H 0.81867 0.63133 0.84545
 H563 H 0.85034 0.63022 0.81529
 H564 H 0.87037 0.65081 0.81516
 H565 H 0.86837 0.68290 0.84485
 H566 H 0.84749 0.68336 0.86520
 H567 H 0.81801 0.65205 0.86593
 C568 C 0.83552 0.14486 0.34309
 C569 C 0.83524 0.15528 0.35308
 C570 C 0.84533 0.16495 0.35322
 C571 C 0.85585 0.16434 0.34337
 C572 C 0.85613 0.15407 0.33352
 C573 C 0.84589 0.14425 0.33339
 C574 C 0.82686 0.13433 0.34024
 N575 N 0.83169 0.12731 0.32902
 C576 C 0.84336 0.13335 0.32479
 C577 C 0.86715 0.15631 0.32503
 N578 N 0.87356 0.16773 0.32943
 C579 C 0.86668 0.17267 0.34069
 C580 C 0.84234 0.17392 0.36382
 N581 N 0.83066 0.16996 0.37014
 C582 C 0.82627 0.15855 0.36358
 H583 H 0.81753 0.13219 0.34573
 H584 H 0.84962 0.13008 0.31612
 H585 H 0.87019 0.15007 0.31624
 H586 H 0.86908 0.18190 0.34627
 H587 H 0.84834 0.18263 0.36674
 H588 H 0.81706 0.15313 0.36603
 C589 C 0.66426 0.35569 0.34227
 C590 C 0.66446 0.34533 0.35234
 C591 C 0.65435 0.33568 0.35247
 C592 C 0.64391 0.33624 0.34253
 C593 C 0.64371 0.34644 0.33261
 C594 C 0.65396 0.35625 0.33248
 C595 C 0.67294 0.36620 0.33942
 N596 N 0.66819 0.37317 0.32813
 C597 C 0.65655 0.36711 0.32385
 C598 C 0.63273 0.34416 0.32406
 N599 N 0.62626 0.33279 0.32852
 C600 C 0.63307 0.32791 0.33985
 C601 C 0.65725 0.32676 0.36315
 N602 N 0.66889 0.33074 0.36953
 C603 C 0.67335 0.34211 0.36293
 H604 H 0.68223 0.36837 0.34498
 H605 H 0.65035 0.37035 0.31511
 H606 H 0.62974 0.35034 0.31521
 H607 H 0.63063 0.31873 0.34550
 H608 H 0.65121 0.31809 0.36609
 H609 H 0.68254 0.34754 0.36542
 C610 C 0.66442 0.85587 0.84275
 C611 C 0.66469 0.84546 0.85276
 C612 C 0.65460 0.83580 0.85290
 C613 C 0.64409 0.83639 0.84304
 C614 C 0.64382 0.84665 0.83318
 C615 C 0.65405 0.85648 0.83304
 C616 C 0.67308 0.86640 0.83989
 N617 N 0.66825 0.87342 0.82867
 C618 C 0.65659 0.86737 0.82444
 C619 C 0.63280 0.84441 0.82468
 N620 N 0.62638 0.83300 0.82910
 C621 C 0.63325 0.82807 0.84037
 C622 C 0.65758 0.82683 0.86351
 N623 N 0.66927 0.83078 0.86983
 C624 C 0.67366 0.84220 0.86326
 H625 H 0.68241 0.86855 0.84539
 H626 H 0.65033 0.87064 0.81576
 H627 H 0.62975 0.85064 0.81588
 H628 H 0.63085 0.81884 0.84596
 H629 H 0.65158 0.81812 0.86644
 H630 H 0.68287 0.84762 0.86571
 C631 C 0.16336 0.35620 0.84325
 C632 C 0.16398 0.34568 0.85311
 C633 C 0.15433 0.33557 0.85298
 C634 C 0.14391 0.33585 0.84300
 C635 C 0.14329 0.34623 0.83329
 C636 C 0.15310 0.35648 0.83341
 C637 C 0.17168 0.36704 0.84055
 N638 N 0.16676 0.37393 0.82929
 C639 C 0.15535 0.36751 0.82489
 C640 C 0.13241 0.34369 0.82470
 N641 N 0.12638 0.33200 0.82895
 C642 C 0.13340 0.32716 0.84016
 C643 C 0.15762 0.32658 0.86347
 N644 N 0.16903 0.33098 0.87001
 C645 C 0.17296 0.34269 0.86368
 H646 H 0.18091 0.36944 0.84613
 H647 H 0.14913 0.37056 0.81610
 H648 H 0.12913 0.34995 0.81603
 H649 H 0.13127 0.31782 0.84566
 H650 H 0.15222 0.31735 0.86593
 H651 H 0.18166 0.34870 0.86659
 C652 C 0.16410 0.85660 0.34368
 C653 C 0.16471 0.84604 0.35350
 C654 C 0.15502 0.83597 0.35337
 C655 C 0.14458 0.83630 0.34342
 C656 C 0.14397 0.84672 0.33374
 C657 C 0.15382 0.85694 0.33387
 C658 C 0.17245 0.86742 0.34099
 N659 N 0.16751 0.87435 0.32976
 C660 C 0.15607 0.86798 0.32538
 C661 C 0.13306 0.84423 0.32517
 N662 N 0.12701 0.83255 0.32938
 C663 C 0.13404 0.82766 0.34057
 C664 C 0.15830 0.82694 0.36383
 N665 N 0.16974 0.83128 0.37035
 C666 C 0.17370 0.84299 0.36405
 H667 H 0.18170 0.86977 0.34654
 H668 H 0.14983 0.87107 0.31662
 H669 H 0.12979 0.85053 0.31652
 H670 H 0.13189 0.81830 0.34604
 H671 H 0.15287 0.81773 0.36627
 H672 H 0.18243 0.84896 0.36696
 O673 O 0.23250 0.98755 0.25068
 O674 O 0.25201 1.01379 0.23222
 O675 O 0.25196 0.98743 0.23230
 O676 O 0.23262 1.01396 0.25065
 O677 O 0.24771 1.01397 0.26769
 O678 O 0.26690 0.98730 0.24949
 O679 O 0.26711 1.01371 0.24926
 O680 O 0.24745 0.98762 0.26787
 Cu681 Cu 0.24077 1.00068 0.23975
 Cu682 Cu 0.25880 1.00064 0.26028
 C683 C 0.23663 0.98308 0.26243
 C684 C 0.26289 1.01827 0.23758
 C685 C 0.26272 0.98278 0.23779
 C686 C 0.23690 1.01855 0.26229
 O687 O 0.26687 0.48686 0.74978
 O688 O 0.24731 0.51336 0.76782
 O689 O 0.24717 0.48703 0.76788
 O690 O 0.26697 0.51327 0.74971
 O691 O 0.25219 0.51331 0.73238
 O692 O 0.23243 0.48700 0.75051
 O693 O 0.23250 0.51342 0.75052
 O694 O 0.25214 0.48697 0.73240
 Cu695 Cu 0.25857 0.50012 0.76053
 Cu696 Cu 0.24082 0.50018 0.73972
 C697 C 0.26285 0.48236 0.73800
 C698 C 0.23657 0.51795 0.76226
 C699 C 0.23642 0.48250 0.76230
 C700 C 0.26296 0.51781 0.73795
 O701 O 0.73301 0.01272 0.24988
 O702 O 0.75271 -0.01340 0.26836
 O703 O 0.75252 0.01293 0.26818
 O704 O 0.73320 -0.01371 0.25009
 O705 O 0.74813 -0.01372 0.23290
 O706 O 0.76741 0.01299 0.25095
 O707 O 0.76767 -0.01343 0.25120
 O708 O 0.74790 0.01264 0.23265
 Cu709 Cu 0.74135 -0.00036 0.26084
 Cu710 Cu 0.75928 -0.00039 0.24020
 C711 C 0.73709 0.01719 0.23812
 C712 C 0.76355 -0.01791 0.26295
 C713 C 0.76325 0.01756 0.26264
 C714 C 0.73738 -0.01832 0.23842
 O715 O 0.76752 0.51313 0.75041
 O716 O 0.74798 0.48658 0.73242
 O717 O 0.74782 0.51293 0.73230
 O718 O 0.76764 0.48670 0.75059
 O719 O 0.75280 0.48674 0.76787
 O720 O 0.73308 0.51302 0.74967
 O721 O 0.73318 0.48659 0.74974
 O722 O 0.75278 0.51308 0.76778
 Cu723 Cu 0.75923 0.49984 0.73970
 Cu724 Cu 0.74147 0.49986 0.76049
 C725 C 0.76350 0.51766 0.76217
 C726 C 0.73725 0.48201 0.73801
 C727 C 0.73707 0.51749 0.73788
 C728 C 0.76358 0.48220 0.76235
 O729 O 0.25184 0.48675 0.26753
 O730 O 0.23222 0.51322 0.24947
 O731 O 0.23213 0.48680 0.24946
 O732 O 0.25198 0.51308 0.26752
 O733 O 0.26668 0.51306 0.25012
 O734 O 0.24684 0.48679 0.23206
 O735 O 0.24693 0.51311 0.23207
 O736 O 0.26655 0.48663 0.25013
 Cu737 Cu 0.24056 0.49997 0.26023
 Cu738 Cu 0.25824 0.49989 0.23937
 C739 C 0.26253 0.48213 0.26191
 C740 C 0.23622 0.51771 0.23768
 C741 C 0.23610 0.48227 0.23768
 C742 C 0.26272 0.51759 0.26190
 O743 O 0.73307 0.98730 0.75037
 O744 O 0.75262 1.01366 0.73211
 O745 O 0.75261 0.98731 0.73209
 O746 O 0.73310 1.01372 0.75042
 O747 O 0.74806 1.01368 0.76758
 O748 O 0.76749 0.98720 0.74933
 O749 O 0.76756 1.01364 0.74930
 O750 O 0.74795 0.98732 0.76761
 Cu751 Cu 0.74135 1.00050 0.73953
 Cu752 Cu 0.75927 1.00045 0.76017
 C753 C 0.73718 0.98276 0.76210
 C754 C 0.76342 1.01820 0.73760
 C755 C 0.76336 0.98270 0.73760
 C756 C 0.73728 1.01827 0.76212
 O757 O 0.75302 0.51349 0.23207
 O758 O 0.73339 0.48707 0.25015
 O759 O 0.73336 0.51352 0.25020
 O760 O 0.75308 0.48718 0.23205
 O761 O 0.76784 0.48713 0.24940
 O762 O 0.74812 0.51345 0.26756
 O763 O 0.74815 0.48710 0.26751
 O764 O 0.76778 0.51354 0.24942
 Cu765 Cu 0.74172 0.50032 0.23940
 Cu766 Cu 0.75946 0.50030 0.26020
 C767 C 0.76375 0.51806 0.23765
 C768 C 0.73743 0.48253 0.26191
 C769 C 0.73738 0.51803 0.26197
 C770 C 0.76384 0.48263 0.23762
 O771 O 0.25189 -0.01338 0.76743
 O772 O 0.23274 0.01342 0.74936
 O773 O 0.23245 -0.01298 0.74905
 O774 O 0.25219 0.01298 0.76774
 O775 O 0.26712 0.01309 0.75055
 O776 O 0.24752 -0.01301 0.73198
 O777 O 0.24768 0.01333 0.73217
 O778 O 0.26696 -0.01333 0.75037
 Cu779 Cu 0.24081 0.00001 0.76011
 Cu780 Cu 0.25883 0.00002 0.73956
 C781 C 0.26269 -0.01797 0.76199
 C782 C 0.23693 0.01798 0.73768
 C783 C 0.23663 -0.01748 0.73733
 C784 C 0.26300 0.01754 0.76230
 O785 O 0.24891 0.26780 0.98593
 O786 O 0.26754 0.24928 1.01334
 O787 O 0.26752 0.24923 0.98597
 O788 O 0.24892 0.26785 1.01331
 O789 O 0.23317 0.25205 1.01333
 O790 O 0.25182 0.23339 0.98604
 O791 O 0.25184 0.23344 1.01335
 O792 O 0.23315 0.25200 0.98600
 Cu793 Cu 0.25980 0.26012 0.99963
 Cu794 Cu 0.24092 0.24113 0.99969
 C795 C 0.23786 0.26306 0.98125
 C796 C 0.26288 0.23820 1.01806
 C797 C 0.26285 0.23813 0.98129
 C798 C 0.23787 0.26313 1.01802
 O799 O 0.24927 0.76686 0.48589
 O800 O 0.26755 0.74801 0.51331
 O801 O 0.26757 0.74794 0.48601
 O802 O 0.24922 0.76691 0.51329
 O803 O 0.23317 0.75141 0.51325
 O804 O 0.25153 0.73245 0.48596
 O805 O 0.25150 0.73251 0.51338
 O806 O 0.23321 0.75137 0.48596
 Cu807 Cu 0.26000 0.75899 0.49962
 Cu808 Cu 0.24076 0.74037 0.49964
 C809 C 0.23812 0.76234 0.48121
 C810 C 0.26264 0.73705 0.51807
 C811 C 0.26267 0.73697 0.48128
 C812 C 0.23806 0.76240 0.51796
 O813 O 0.23299 0.74843 -0.01330
 O814 O 0.25162 0.76706 0.01403
 O815 O 0.25164 0.76705 -0.01330
 O816 O 0.23297 0.74846 0.01402
 O817 O 0.24874 0.73266 0.01407
 O818 O 0.26736 0.75120 -0.01329
 O819 O 0.26734 0.75120 0.01407
 O820 O 0.24876 0.73263 -0.01329
 Cu821 Cu 0.24072 0.75934 0.00036
 Cu822 Cu 0.25963 0.74034 0.00039
 C823 C 0.23771 0.73735 -0.01800
 C824 C 0.26265 0.76229 0.01876
 C825 C 0.26268 0.76229 -0.01800
 C826 C 0.23769 0.73739 0.01876
 O827 O 0.23312 0.24947 0.48664
 O828 O 0.25180 0.26792 0.51400
 O829 O 0.25191 0.26790 0.48666
 O830 O 0.23308 0.24952 0.51401
 O831 O 0.24873 0.23360 0.51412
 O832 O 0.26741 0.25183 0.48656
 O833 O 0.26752 0.25207 0.51394
 O834 O 0.24862 0.23341 0.48683
 Cu835 Cu 0.24092 0.26030 0.50031
 Cu836 Cu 0.25964 0.24113 0.50037
 C837 C 0.23765 0.23828 0.48205
 C838 C 0.26285 0.26315 0.51868
 C839 C 0.26285 0.26298 0.48187
 C840 C 0.23771 0.23844 0.51879
 O841 O 0.74845 0.76704 0.98586
 O842 O 0.76713 0.74843 1.01319
 O843 O 0.76713 0.74844 0.98585
 O844 O 0.74846 0.76704 1.01319
 O845 O 0.73276 0.75118 1.01320
 O846 O 0.75139 0.73264 0.98583
 O847 O 0.75139 0.73263 1.01321
 O848 O 0.73276 0.75119 0.98583
 Cu849 Cu 0.75937 0.75933 0.99952
 Cu850 Cu 0.74050 0.74032 0.99952
 C851 C 0.73743 0.76228 0.98113
 C852 C 0.76243 0.73737 1.01792
 C853 C 0.76243 0.73738 0.98112
 C854 C 0.73743 0.76227 1.01791
 O855 O 0.74766 0.26768 0.48612
 O856 O 0.76660 0.24928 0.51338
 O857 O 0.76657 0.24936 0.48599
 O858 O 0.74770 0.26761 0.51341
 O859 O 0.73225 0.25152 0.51345
 O860 O 0.75112 0.23326 0.48603
 O861 O 0.75115 0.23319 0.51331
 O862 O 0.73221 0.25158 0.48603
 Cu863 Cu 0.75869 0.26008 0.49973
 Cu864 Cu 0.74012 0.24079 0.49971
 C865 C 0.73672 0.26276 0.48137
 C866 C 0.76211 0.23810 0.51804
 C867 C 0.76206 0.23820 0.48129
 C868 C 0.73676 0.26267 0.51816
 O869 O 0.76701 0.25165 -0.01302
 O870 O 0.74844 0.23300 0.01435
 O871 O 0.74839 0.23299 -0.01298
 O872 O 0.76705 0.25165 0.01430
 O873 O 0.75125 0.26742 0.01435
 O874 O 0.73264 0.24882 -0.01297
 O875 O 0.73269 0.24883 0.01439
 O876 O 0.75121 0.26741 -0.01301
 Cu877 Cu 0.75930 0.24074 0.00066
 Cu878 Cu 0.74037 0.25970 0.00069
 C879 C 0.76227 0.26271 -0.01773
 C880 C 0.73740 0.23775 0.01909
 C881 C 0.73733 0.23773 -0.01767
 C882 C 0.76232 0.26271 0.01903
 O883 O 0.75115 0.76672 0.51433
 O884 O 0.73260 0.74837 0.48677
 O885 O 0.73249 0.74810 0.51413
 O886 O 0.75119 0.76691 0.48700
 O887 O 0.76697 0.75112 0.48696
 O888 O 0.74828 0.73231 0.51409
 O889 O 0.74830 0.73250 0.48673
 O890 O 0.76686 0.75086 0.51430
 Cu891 Cu 0.74027 0.75911 0.50058
 Cu892 Cu 0.75918 0.74011 0.50050
 C893 C 0.76217 0.76192 0.51906
 C894 C 0.73729 0.73732 0.48199
 C895 C 0.73721 0.73701 0.51880
 C896 C 0.76227 0.76223 0.48231
 O897 O 0.98724 0.25171 0.23224
 O898 O 1.01347 0.23210 0.25071
 O899 O 0.98711 0.23222 0.25061
 O900 O 1.01357 0.25156 0.23230
 O901 O 1.01353 0.26665 0.24936
 O902 O 0.98722 0.24717 0.26780
 O903 O 1.01351 0.24720 0.26777
 O904 O 0.98716 0.26666 0.24943
 Cu905 Cu 1.00035 0.24039 0.23975
 Cu906 Cu 1.00036 0.25843 0.26029
 C907 C 0.98266 0.26251 0.23770
 C908 C 1.01802 0.23632 0.26239
 C909 C 0.98262 0.23638 0.26233
 C910 C 1.01810 0.26240 0.23770
 O911 O 0.48714 0.24689 0.76831
 O912 O 0.51321 0.26676 0.74999
 O913 O 0.48683 0.26654 0.75013
 O914 O 0.51343 0.24712 0.76816
 O915 O 0.51349 0.23223 0.75092
 O916 O 0.48695 0.25173 0.73281
 O917 O 0.51325 0.25190 0.73272
 O918 O 0.48711 0.23208 0.75100
 Cu919 Cu 0.50014 0.25833 0.76087
 Cu920 Cu 0.50021 0.24049 0.74013
 C921 C 0.48263 0.23610 0.76278
 C922 C 0.51772 0.26272 0.73823
 C923 C 0.48231 0.26245 0.73839
 C924 C 0.51803 0.23636 0.76264
 O925 O -0.01372 0.26723 0.75057
 O926 O 0.01270 0.24779 0.73222
 O927 O -0.01359 0.24778 0.73217
 O928 O 0.01267 0.26727 0.75059
 O929 O 0.01258 0.25232 0.76778
 O930 O -0.01355 0.23268 0.74923
 O931 O 0.01281 0.23283 0.74941
 O932 O -0.01376 0.25214 0.76763
 Cu933 Cu -0.00049 0.25904 0.73968
 Cu934 Cu -0.00048 0.24099 0.76023
 C935 C -0.01832 0.26297 0.76221
 C936 C 0.01731 0.23700 0.73769
 C937 C -0.01807 0.23689 0.73753
 C938 C 0.01715 0.26312 0.76232
 O939 O 0.48676 0.23257 0.24943
 O940 O 0.51315 0.25229 0.26745
 O941 O 0.48687 0.25229 0.26754
 O942 O 0.51315 0.23253 0.24938
 O943 O 0.51307 0.24728 0.23201
 O944 O 0.48677 0.26704 0.25016
 O945 O 0.51315 0.26704 0.25007
 O946 O 0.48679 0.24732 0.23205
 Cu947 Cu 0.49999 0.24093 0.26018
 Cu948 Cu 0.49994 0.25866 0.23934
 C949 C 0.48224 0.23659 0.23766
 C950 C 0.51769 0.26303 0.26184
 C951 C 0.48230 0.26304 0.26195
 C952 C 0.51763 0.23653 0.23760
 O953 O 1.01379 0.73308 0.75028
 O954 O 0.98758 0.75276 0.73187
 O955 O 1.01389 0.75264 0.73199
 O956 O 0.98740 0.73318 0.75014
 O957 O 0.98745 0.74807 0.76739
 O958 O 1.01388 0.76759 0.74919
 O959 O 0.98749 0.76765 0.74912
 O960 O 1.01377 0.74805 0.76745
 Cu961 Cu 1.00067 0.74141 0.73936
 Cu962 Cu 1.00064 0.75934 0.76001
 C963 C 1.01832 0.73723 0.76200
 C964 C 0.98302 0.76356 0.73736
 C965 C 1.01845 0.76343 0.73750
 C966 C 0.98285 0.73731 0.76186
 O967 O 0.51334 0.76762 0.24936
 O968 O 0.48683 0.74814 0.26753
 O969 O 0.51315 0.74800 0.26763
 O970 O 0.48696 0.76778 0.24933
 O971 O 0.48700 0.75294 0.23203
 O972 O 0.51313 0.73311 0.25038
 O973 O 0.48674 0.73330 0.25023
 O974 O 0.51330 0.75270 0.23215
 Cu975 Cu 0.50008 0.75938 0.26019
 Cu976 Cu 0.50004 0.74151 0.23948
 C977 C 0.51788 0.76348 0.23765
 C978 C 0.48221 0.73741 0.26196
 C979 C 0.51765 0.73718 0.26213
 C980 C 0.48248 0.76374 0.23756
 O981 O 0.01300 0.75319 0.26827
 O982 O -0.01329 0.73365 0.24989
 O983 O 0.01309 0.73369 0.24991
 O984 O -0.01331 0.75308 0.26827
 O985 O -0.01336 0.76814 0.25117
 O986 O 0.01298 0.74866 0.23273
 O987 O -0.01332 0.74867 0.23276
 O988 O 0.01303 0.76816 0.25109
 Cu989 Cu -0.00012 0.74189 0.26080
 Cu990 Cu -0.00017 0.75992 0.24023
 C991 C 0.01756 0.76399 0.26280
 C992 C -0.01785 0.73784 0.23820
 C993 C 0.01758 0.73786 0.23819
 C994 C -0.01789 0.76391 0.26285
 O995 O 0.51287 0.75316 0.76782
 O996 O 0.48660 0.73348 0.74959
 O997 O 0.51299 0.73351 0.74965
 O998 O 0.48658 0.75310 0.76777
 O999 O 0.48656 0.76800 0.75053
 O1000 O 0.51292 0.74832 0.73233
 O1001 O 0.48660 0.74835 0.73232
 O1002 O 0.51294 0.76798 0.75050
 Cu1003 Cu 0.49976 0.74181 0.76043
 Cu1004 Cu 0.49975 0.75966 0.73969
 C1005 C 0.51743 0.76393 0.76227
 C1006 C 0.48205 0.73757 0.73786
 C1007 C 0.51750 0.73757 0.73790
 C1008 C 0.48203 0.76389 0.76226
 C1009 C 0.40762 0.31341 0.30958
 C1010 C 0.39907 0.32197 0.30181
 C1011 C 0.38802 0.32828 0.30819
 C1012 C 0.38527 0.32625 0.32252
 C1013 C 0.39394 0.31785 0.33033
 C1014 C 0.40496 0.31148 0.32394
 C1015 C 0.41909 0.30637 0.30271
 N1016 N 0.42636 0.29686 0.30973
 N1017 N 0.43647 0.29032 0.30347
 C1018 C 0.43978 0.29301 0.28992
 N1019 N 0.43255 0.30257 0.28291
 N1020 N 0.42242 0.30909 0.28917
 C1021 C 0.45087 0.28554 0.28287
 C1022 C 0.45511 0.28918 0.26930
 C1023 C 0.46540 0.28197 0.26256
 C1024 C 0.47162 0.27089 0.26920
 C1025 C 0.46743 0.26728 0.28279
 C1026 C 0.45720 0.27454 0.28956
 H1027 H 0.40078 0.32364 0.29072
 H1028 H 0.38147 0.33452 0.30180
 H1029 H 0.39227 0.31623 0.34142
 H1030 H 0.41139 0.30504 0.33027
 H1031 H 0.45048 0.29761 0.26385
 H1032 H 0.46839 0.28500 0.25209
 H1033 H 0.47204 0.25881 0.28821
 H1034 H 0.45419 0.27144 0.29999
 C1035 C 0.40679 0.81341 0.80997
 C1036 C 0.40035 0.82445 0.80353
 C1037 C 0.38922 0.83070 0.80985
 C1038 C 0.38410 0.82609 0.82286
 C1039 C 0.39083 0.81510 0.82933
 C1040 C 0.40195 0.80890 0.82299
 C1041 C 0.41835 0.80650 0.80310
 N1042 N 0.42430 0.79559 0.80921
 N1043 N 0.43449 0.78919 0.80295
 C1044 C 0.43920 0.79340 0.79030
 N1045 N 0.43330 0.80435 0.78420
 N1046 N 0.42309 0.81076 0.79046
 C1047 C 0.45038 0.78606 0.78323
 C1048 C 0.45536 0.79045 0.77017
 C1049 C 0.46570 0.78332 0.76340
 C1050 C 0.47129 0.77165 0.76953
 C1051 C 0.46640 0.76733 0.78263
 C1052 C 0.45608 0.77445 0.78940
 H1053 H 0.40382 0.82822 0.79348
 H1054 H 0.38461 0.83898 0.80421
 H1055 H 0.38774 0.81118 0.83940
 H1056 H 0.40672 0.80047 0.82832
 H1057 H 0.45122 0.79935 0.76511
 H1058 H 0.46925 0.78692 0.75332
 H1059 H 0.47049 0.75839 0.78766
 H1060 H 0.45252 0.77078 0.79945
 C1061 C -0.09421 0.31182 0.80957
 C1062 C -0.10026 0.32320 0.80338
 C1063 C -0.11131 0.32957 0.80971
 C1064 C -0.11675 0.32474 0.82250
 C1065 C -0.11047 0.31333 0.82868
 C1066 C -0.09943 0.30700 0.82232
 C1067 C -0.08263 0.30491 0.80274
 N1068 N -0.07694 0.29376 0.80866
 N1069 N -0.06666 0.28743 0.80246
 C1070 C -0.06161 0.29196 0.79006
 N1071 N -0.06727 0.30313 0.78415
 N1072 N -0.07756 0.30946 0.79036
 C1073 C -0.05031 0.28474 0.78306
 C1074 C -0.04510 0.28939 0.77021
 C1075 C -0.03464 0.28239 0.76349
 C1076 C -0.02916 0.27060 0.76947
 C1077 C -0.03428 0.26602 0.78238
 C1078 C -0.04473 0.27301 0.78910
 H1079 H -0.09650 0.32719 0.79354
 H1080 H -0.11558 0.33815 0.80429
 H1081 H -0.11386 0.30916 0.83853
 H1082 H -0.09499 0.29828 0.82744
 H1083 H -0.04914 0.29839 0.76526
 H1084 H -0.03091 0.28619 0.75355
 H1085 H -0.03028 0.25697 0.78729
 H1086 H -0.04847 0.26914 0.79899
 C1087 C -0.09355 0.81272 0.31063
 C1088 C -0.09964 0.82410 0.30446
 C1089 C -0.11069 0.83043 0.31084
 C1090 C -0.11607 0.82558 0.32365
 C1091 C -0.10975 0.81418 0.32980
 C1092 C -0.09871 0.80789 0.32339
 C1093 C -0.08198 0.80584 0.30374
 N1094 N -0.07624 0.79471 0.30964
 N1095 N -0.06599 0.78839 0.30338
 C1096 C -0.06102 0.79292 0.29095
 N1097 N -0.06673 0.80407 0.28506
 N1098 N -0.07699 0.81040 0.29132
 C1099 C -0.04975 0.78571 0.28389
 C1100 C -0.04463 0.79033 0.27098
 C1101 C -0.03421 0.78333 0.26420
 C1102 C -0.02868 0.77155 0.27017
 C1103 C -0.03371 0.76700 0.28313
 C1104 C -0.04412 0.77399 0.28991
 H1105 H -0.09594 0.82810 0.29461
 H1106 H -0.11500 0.83900 0.30544
 H1107 H -0.11309 0.81001 0.33967
 H1108 H -0.09423 0.79918 0.32849
 H1109 H -0.04871 0.79932 0.26604
 H1110 H -0.03055 0.78711 0.25423
 H1111 H -0.02967 0.75797 0.28803
 H1112 H -0.04779 0.77014 0.29984
 C1113 C 0.59254 0.68701 0.30968
 C1114 C 0.60104 0.67843 0.30189
 C1115 C 0.61213 0.67213 0.30823
 C1116 C 0.61497 0.67422 0.32253
 C1117 C 0.60635 0.68267 0.33035
 C1118 C 0.59529 0.68901 0.32400
 C1119 C 0.58102 0.69402 0.30284
 N1120 N 0.57380 0.70358 0.30985
 N1121 N 0.56364 0.71008 0.30362
 C1122 C 0.56024 0.70730 0.29011
 N1123 N 0.56742 0.69770 0.28312
 N1124 N 0.57760 0.69121 0.28935
 C1125 C 0.54911 0.71474 0.28308
 C1126 C 0.54477 0.71099 0.26957
 C1127 C 0.53447 0.71819 0.26283
 C1128 C 0.52831 0.72933 0.26941
 C1129 C 0.53258 0.73303 0.28295
 C1130 C 0.54283 0.72579 0.28972
 H1131 H 0.59926 0.67670 0.29083
 H1132 H 0.61864 0.66587 0.30182
 H1133 H 0.60809 0.68433 0.34143
 H1134 H 0.58891 0.69548 0.33034
 H1135 H 0.54936 0.70252 0.26416
 H1136 H 0.53142 0.71508 0.25240
 H1137 H 0.52802 0.74155 0.28832
 H1138 H 0.54591 0.72897 0.30011
 C1139 C 0.59325 0.18681 0.81035
 C1140 C 0.59811 0.19132 0.82337
 C1141 C 0.60919 0.18507 0.82974
 C1142 C 0.61588 0.17404 0.82328
 C1143 C 0.61075 0.16944 0.81027
 C1144 C 0.59965 0.17574 0.80393
 C1145 C 0.58173 0.19376 0.80347
 N1146 N 0.57697 0.18950 0.79084
 N1147 N 0.56678 0.19593 0.78456
 C1148 C 0.56092 0.20691 0.79064
 N1149 N 0.56564 0.21113 0.80328
 N1150 N 0.57582 0.20470 0.80956
 C1151 C 0.54975 0.21426 0.78356
 C1152 C 0.54406 0.22588 0.78972
 C1153 C 0.53373 0.23299 0.78296
 C1154 C 0.52881 0.22865 0.76988
 C1155 C 0.53440 0.21697 0.76376
 C1156 C 0.54476 0.20986 0.77052
 H1157 H 0.59337 0.19977 0.82869
 H1158 H 0.61229 0.18899 0.83979
 H1159 H 0.61533 0.16114 0.80466
 H1160 H 0.59617 0.17198 0.79389
 H1161 H 0.54764 0.22956 0.79976
 H1162 H 0.52964 0.24194 0.78798
 H1163 H 0.53083 0.21335 0.75369
 H1164 H 0.54888 0.20094 0.76547
 C1165 C 1.09401 0.68812 0.80943
 C1166 C 1.10011 0.67680 0.80319
 C1167 C 1.11118 0.67044 0.80952
 C1168 C 1.11657 0.67523 0.82234
 C1169 C 1.11024 0.68658 0.82857
 C1170 C 1.09918 0.69289 0.82221
 C1171 C 1.08242 0.69503 0.80260
 N1172 N 1.07667 0.70611 0.80858
 N1173 N 1.06640 0.71246 0.80238
 C1174 C 1.06142 0.70801 0.78992
 N1175 N 1.06713 0.69690 0.78396
 N1176 N 1.07741 0.69055 0.79016
 C1177 C 1.05014 0.71526 0.78292
 C1178 C 1.04501 0.71071 0.76999
 C1179 C 1.03459 0.71776 0.76325
 C1180 C 1.02908 0.72952 0.76929
 C1181 C 1.03412 0.73398 0.78228
 C1182 C 1.04451 0.72694 0.78901
 H1183 H 1.09640 0.67284 0.79332
 H1184 H 1.11550 0.66191 0.80406
 H1185 H 1.11358 0.69071 0.83845
 H1186 H 1.09469 0.70156 0.82737
 H1187 H 1.04908 0.70175 0.76500
 H1188 H 1.03093 0.71405 0.75326
 H1189 H 1.03009 0.74299 0.78723
 H1190 H 1.04819 0.73073 0.79896
 C1191 C 1.09285 0.18677 0.31074
 C1192 C 1.09771 0.19135 0.32373
 C1193 C 1.10879 0.18512 0.33013
 C1194 C 1.11545 0.17404 0.32375
 C1195 C 1.11030 0.16937 0.31078
 C1196 C 1.09921 0.17564 0.30440
 C1197 C 1.08135 0.19370 0.30380
 N1198 N 1.07659 0.18935 0.29120
 N1199 N 1.06643 0.19578 0.28486
 C1200 C 1.06061 0.20683 0.29083
 N1201 N 1.06534 0.21114 0.30344
 N1202 N 1.07548 0.20472 0.30978
 C1203 C 1.04949 0.21418 0.28366
 C1204 C 1.04388 0.22590 0.28968
 C1205 C 1.03362 0.23302 0.28282
 C1206 C 1.02870 0.22859 0.26977
 C1207 C 1.03422 0.21681 0.26379
 C1208 C 1.04450 0.20969 0.27065
 H1209 H 1.09299 0.19985 0.32899
 H1210 H 1.11190 0.18911 0.34016
 H1211 H 1.11486 0.16102 0.30521
 H1212 H 1.09572 0.17182 0.29439
 H1213 H 1.04746 0.22966 0.29969
 H1214 H 1.02958 0.24205 0.28773
 H1215 H 1.03065 0.21312 0.25374
 H1216 H 1.04858 0.20070 0.26571
 C1217 C 0.59223 0.31325 0.69061
 C1218 C 0.59492 0.31133 0.67626
 C1219 C 0.60595 0.31769 0.66989
 C1220 C 0.61461 0.32607 0.67772
 C1221 C 0.61183 0.32810 0.69204
 C1222 C 0.60077 0.32180 0.69840
 C1223 C 0.58077 0.30619 0.69746
 N1224 N 0.57740 0.30893 0.71099
 N1225 N 0.56727 0.30239 0.71723
 C1226 C 0.56010 0.29281 0.71022
 N1227 N 0.56345 0.29010 0.69669
 N1228 N 0.57356 0.29666 0.69044
 C1229 C 0.54903 0.28531 0.71727
 C1230 C 0.54279 0.27425 0.71061
 C1231 C 0.53259 0.26696 0.71739
 C1232 C 0.52835 0.27060 0.73095
 C1233 C 0.53447 0.28175 0.73755
 C1234 C 0.54473 0.28899 0.73081
 H1235 H 0.58850 0.30490 0.66991
 H1236 H 0.60763 0.31607 0.65880
 H1237 H 0.61837 0.33433 0.69845
 H1238 H 0.59904 0.32346 0.70948
 H1239 H 0.54586 0.27112 0.70020
 H1240 H 0.52805 0.25845 0.71201
 H1241 H 0.53144 0.28481 0.74800
 H1242 H 0.54929 0.29747 0.73623
 C1243 C 0.59308 0.81293 0.18989
 C1244 C 0.59807 0.80831 0.17697
 C1245 C 0.60919 0.81454 0.17065
 C1246 C 0.61576 0.82565 0.17705
 C1247 C 0.61048 0.83036 0.18996
 C1248 C 0.59935 0.82409 0.19625
 C1249 C 0.58153 0.80600 0.19675
 N1250 N 0.57669 0.81034 0.20932
 N1251 N 0.56650 0.80392 0.21559
 C1252 C 0.56072 0.79288 0.20958
 N1253 N 0.56553 0.78858 0.19699
 N1254 N 0.57571 0.79499 0.19072
 C1255 C 0.54955 0.78555 0.21666
 C1256 C 0.54392 0.77389 0.21055
 C1257 C 0.53360 0.76679 0.21733
 C1258 C 0.52864 0.77118 0.23038
 C1259 C 0.53418 0.78290 0.23645
 C1260 C 0.54453 0.79000 0.22967
 H1261 H 0.59343 0.79979 0.17169
 H1262 H 0.61241 0.81053 0.16067
 H1263 H 0.61495 0.83874 0.19554
 H1264 H 0.59576 0.82794 0.20621
 H1265 H 0.54753 0.77016 0.20054
 H1266 H 0.52955 0.75781 0.21235
 H1267 H 0.53059 0.78655 0.24650
 H1268 H 0.54861 0.79894 0.23468
 C1269 C 1.09340 0.31177 0.19001
 C1270 C 1.09928 0.32325 0.19615
 C1271 C 1.11029 0.32969 0.18984
 C1272 C 1.11586 0.32483 0.17712
 C1273 C 1.10974 0.31333 0.17098
 C1274 C 1.09873 0.30693 0.17732
 C1275 C 1.08189 0.30477 0.19687
 N1276 N 1.07635 0.29353 0.19101
 N1277 N 1.06615 0.28711 0.19725
 C1278 C 1.06105 0.29165 0.20962
 N1279 N 1.06656 0.30291 0.21546
 N1280 N 1.07676 0.30933 0.20922
 C1281 C 1.04985 0.28435 0.21668
 C1282 C 1.04462 0.28899 0.22954
 C1283 C 1.03425 0.28193 0.23631
 C1284 C 1.02887 0.27007 0.23039
 C1285 C 1.03401 0.26549 0.21748
 C1286 C 1.04437 0.27254 0.21071
 H1287 H 1.09543 0.32727 0.20595
 H1288 H 1.11443 0.33835 0.19523
 H1289 H 1.11323 0.30914 0.16117
 H1290 H 1.09442 0.29813 0.17224
 H1291 H 1.04858 0.29805 0.23444
 H1292 H 1.03051 0.28574 0.24624
 H1293 H 1.03009 0.25639 0.21263
 H1294 H 1.04813 0.26867 0.20082
 C1295 C 1.09403 0.81273 0.69029
 C1296 C 1.10246 0.82144 0.69801
 C1297 C 1.11350 0.82776 0.69162
 C1298 C 1.11636 0.82558 0.67734
 C1299 C 1.10785 0.81697 0.66960
 C1300 C 1.09684 0.81061 0.67599
 C1301 C 1.08249 0.80578 0.69712
 N1302 N 1.07529 0.79622 0.69013
 N1303 N 1.06506 0.78982 0.69633
 C1304 C 1.06157 0.79272 0.70979
 N1305 N 1.06874 0.80232 0.71677
 N1306 N 1.07899 0.80870 0.71057
 C1307 C 1.05032 0.78542 0.71676
 C1308 C 1.04590 0.78927 0.73021
 C1309 C 1.03546 0.78223 0.73688
 C1310 C 1.02925 0.77113 0.73029
 C1311 C 1.03361 0.76733 0.71681
 C1312 C 1.04399 0.77441 0.71012
 H1313 H 1.10063 0.82326 0.70905
 H1314 H 1.11993 0.83416 0.69796
 H1315 H 1.10960 0.81523 0.65854
 H1316 H 1.09052 0.80404 0.66970
 H1317 H 1.05052 0.79773 0.73563
 H1318 H 1.03235 0.78541 0.74726
 H1319 H 1.02902 0.75883 0.71144
 H1320 H 1.04714 0.77116 0.69977
 C1321 C 0.40669 0.68783 0.69077
 C1322 C 0.39835 0.67907 0.69852
 C1323 C 0.38730 0.67270 0.69219
 C1324 C 0.38435 0.67489 0.67794
 C1325 C 0.39278 0.68355 0.67015
 C1326 C 0.40379 0.68996 0.67649
 C1327 C 0.41822 0.69484 0.69756
 N1328 N 0.42536 0.70444 0.69055
 N1329 N 0.43557 0.71090 0.69673
 C1330 C 0.43910 0.70802 0.71017
 N1331 N 0.43200 0.69837 0.71717
 N1332 N 0.42178 0.69193 0.71100
 C1333 C 0.45032 0.71538 0.71713
 C1334 C 0.45475 0.71157 0.73059
 C1335 C 0.46515 0.71868 0.73725
 C1336 C 0.47130 0.72980 0.73065
 C1337 C 0.46694 0.73356 0.71716
 C1338 C 0.45660 0.72641 0.71047
 H1339 H 0.40024 0.67724 0.70955
 H1340 H 0.38094 0.66627 0.69857
 H1341 H 0.39095 0.68530 0.65911
 H1342 H 0.41005 0.69657 0.67017
 H1343 H 0.45018 0.70310 0.73602
 H1344 H 0.46827 0.71553 0.74765
 H1345 H 0.47149 0.74207 0.71177
 H1346 H 0.45344 0.72963 0.70011
 C1347 C 0.40736 0.18647 0.19018
 C1348 C 0.39872 0.17802 0.19796
 C1349 C 0.38765 0.17177 0.19156
 C1350 C 0.38498 0.17376 0.17721
 C1351 C 0.39375 0.18205 0.16940
 C1352 C 0.40478 0.18835 0.17581
 C1353 C 0.41885 0.19347 0.19706
 N1354 N 0.42619 0.20289 0.19000
 N1355 N 0.43632 0.20939 0.19626
 C1356 C 0.43958 0.20674 0.20983
 N1357 N 0.43229 0.19727 0.21687
 N1358 N 0.42213 0.19079 0.21063
 C1359 C 0.45070 0.21418 0.21686
 C1360 C 0.45494 0.21055 0.23044
 C1361 C 0.46526 0.21774 0.23714
 C1362 C 0.47152 0.22876 0.23046
 C1363 C 0.46733 0.23235 0.21686
 C1364 C 0.45707 0.22512 0.21013
 H1365 H 0.40038 0.17639 0.20906
 H1366 H 0.38103 0.16561 0.19795
 H1367 H 0.39214 0.18362 0.15829
 H1368 H 0.41128 0.19470 0.16947
 H1369 H 0.45028 0.20216 0.23592
 H1370 H 0.46825 0.21473 0.24762
 H1371 H 0.47197 0.24077 0.21141
 H1372 H 0.45406 0.22821 0.19968
 C1373 C -0.09312 0.68837 0.19067
 C1374 C -0.09599 0.69056 0.17640
 C1375 C -0.10698 0.68416 0.17000
 C1376 C -0.11541 0.67545 0.17772
 C1377 C -0.11249 0.67321 0.19198
 C1378 C -0.10147 0.67957 0.19836
 C1379 C -0.08161 0.69535 0.19752
 N1380 N -0.07806 0.69235 0.21094
 N1381 N -0.06784 0.69876 0.21717
 C1382 C -0.06075 0.70846 0.21025
 N1383 N -0.06428 0.71143 0.19682
 N1384 N -0.07448 0.70501 0.19059
 C1385 C -0.04955 0.71577 0.21728
 C1386 C -0.04329 0.72687 0.21071
 C1387 C -0.03295 0.73398 0.21747
 C1388 C -0.02859 0.73012 0.23092
 C1389 C -0.03473 0.71893 0.23743
 C1390 C -0.04511 0.71186 0.23070
 H1391 H -0.08974 0.69722 0.17013
 H1392 H -0.10879 0.68596 0.15896
 H1393 H -0.11885 0.66674 0.19831
 H1394 H -0.09960 0.67769 0.20939
 H1395 H -0.04645 0.73018 0.20038
 H1396 H -0.02841 0.74254 0.21216
 H1397 H -0.03160 0.71570 0.24779
 H1398 H -0.04968 0.70334 0.23605
 C1399 C -0.09252 0.18701 0.68904
 C1400 C -0.09870 0.17575 0.69531
 C1401 C -0.10977 0.16943 0.68897
 C1402 C -0.11509 0.17420 0.67610
 C1403 C -0.10860 0.18540 0.66978
 C1404 C -0.09754 0.19168 0.67615
 C1405 C -0.08106 0.19400 0.69599
 N1406 N -0.07535 0.20513 0.69007
 N1407 N -0.06526 0.21160 0.69642
 C1408 C -0.06043 0.20724 0.70898
 N1409 N -0.06610 0.19608 0.71488
 N1410 N -0.07620 0.18960 0.70852
 C1411 C -0.04937 0.21464 0.71617
 C1412 C -0.04434 0.21012 0.72916
 C1413 C -0.03412 0.21728 0.73605
 C1414 C -0.02870 0.22913 0.73012
 C1415 C -0.03366 0.23358 0.71710
 C1416 C -0.04386 0.22642 0.71020
 H1417 H -0.09508 0.17186 0.70525
 H1418 H -0.11417 0.16098 0.69448
 H1419 H -0.11185 0.18946 0.65982
 H1420 H -0.09297 0.20028 0.67095
 H1421 H -0.04834 0.20108 0.73406
 H1422 H -0.03052 0.21357 0.74608
 H1423 H -0.02970 0.24266 0.71223
 H1424 H -0.04748 0.23020 0.70021
 C1425 C 0.31244 0.40681 0.30915
 C1426 C 0.32116 0.39841 0.30141
 C1427 C 0.32754 0.38738 0.30779
 C1428 C 0.32540 0.38450 0.32207
 C1429 C 0.31678 0.39300 0.32983
 C1430 C 0.31036 0.40400 0.32345
 C1431 C 0.30540 0.41832 0.30231
 N1432 N 0.29585 0.42553 0.30932
 N1433 N 0.28936 0.43572 0.30311
 C1434 C 0.29216 0.43917 0.28962
 N1435 N 0.30176 0.43200 0.28262
 N1436 N 0.30823 0.42179 0.28883
 C1437 C 0.28477 0.45037 0.28263
 C1438 C 0.28848 0.45471 0.26912
 C1439 C 0.28135 0.46511 0.26245
 C1440 C 0.27031 0.47135 0.26910
 C1441 C 0.26664 0.46706 0.28264
 C1442 C 0.27381 0.45672 0.28934
 H1443 H 0.32295 0.40024 0.29036
 H1444 H 0.33395 0.38096 0.30143
 H1445 H 0.31507 0.39122 0.34089
 H1446 H 0.30377 0.41030 0.32975
 H1447 H 0.29689 0.45008 0.26366
 H1448 H 0.28443 0.46817 0.25201
 H1449 H 0.25819 0.47167 0.28807
 H1450 H 0.27066 0.45362 0.29974
 C1451 C 0.31147 -0.09408 0.80920
 C1452 C 0.32284 -0.10012 0.80300
 C1453 C 0.32923 -0.11118 0.80934
 C1454 C 0.32443 -0.11662 0.82214
 C1455 C 0.31302 -0.11036 0.82832
 C1456 C 0.30668 -0.09931 0.82195
 C1457 C 0.30454 -0.08249 0.80237
 N1458 N 0.29341 -0.07681 0.80830
 N1459 N 0.28707 -0.06652 0.80211
 C1460 C 0.29158 -0.06145 0.78972
 N1461 N 0.30274 -0.06710 0.78380
 N1462 N 0.30908 -0.07740 0.78999
 C1463 C 0.28437 -0.05012 0.78274
 C1464 C 0.28901 -0.04487 0.76989
 C1465 C 0.28204 -0.03436 0.76321
 C1466 C 0.27027 -0.02888 0.76921
 C1467 C 0.26569 -0.03405 0.78210
 C1468 C 0.27266 -0.04454 0.78878
 H1469 H 0.32681 -0.09636 0.79316
 H1470 H 0.33780 -0.11544 0.80392
 H1471 H 0.30888 -0.11375 0.83818
 H1472 H 0.29797 -0.09488 0.82708
 H1473 H 0.29800 -0.04890 0.76494
 H1474 H 0.28584 -0.03060 0.75329
 H1475 H 0.25666 -0.03005 0.78701
 H1476 H 0.26879 -0.04831 0.79867
 C1477 C 0.81324 0.40707 0.81023
 C1478 C 0.82427 0.40064 0.80381
 C1479 C 0.83053 0.38950 0.81014
 C1480 C 0.82593 0.38437 0.82315
 C1481 C 0.81494 0.39110 0.82961
 C1482 C 0.80873 0.40222 0.82325
 C1483 C 0.80632 0.41863 0.80334
 N1484 N 0.79542 0.42458 0.80945
 N1485 N 0.78901 0.43477 0.80317
 C1486 C 0.79320 0.43947 0.79050
 N1487 N 0.80414 0.43356 0.78441
 N1488 N 0.81056 0.42336 0.79069
 C1489 C 0.78585 0.45064 0.78341
 C1490 C 0.79018 0.45558 0.77032
 C1491 C 0.78303 0.46590 0.76353
 C1492 C 0.77138 0.47150 0.76966
 C1493 C 0.76711 0.46663 0.78279
 C1494 C 0.77426 0.45634 0.78958
 H1495 H 0.82804 0.40412 0.79376
 H1496 H 0.83881 0.38489 0.80452
 H1497 H 0.81102 0.38800 0.83967
 H1498 H 0.80030 0.40698 0.82857
 H1499 H 0.79907 0.45144 0.76526
 H1500 H 0.78659 0.46943 0.75342
 H1501 H 0.75818 0.47073 0.78782
 H1502 H 0.77062 0.45280 0.79965
 C1503 C 0.81354 -0.09249 0.31135
 C1504 C 0.82468 -0.09880 0.30500
 C1505 C 0.83100 -0.10988 0.31137
 C1506 C 0.82636 -0.11507 0.32435
 C1507 C 0.81527 -0.10845 0.33073
 C1508 C 0.80899 -0.09739 0.32434
 C1509 C 0.80655 -0.08100 0.30441
 N1510 N 0.79554 -0.07517 0.31041
 N1511 N 0.78906 -0.06505 0.30407
 C1512 C 0.79332 -0.06031 0.29144
 N1513 N 0.80436 -0.06610 0.28545
 N1514 N 0.81084 -0.07623 0.29180
 C1515 C 0.78591 -0.04923 0.28427
 C1516 C 0.79032 -0.04426 0.27121
 C1517 C 0.78313 -0.03402 0.26434
 C1518 C 0.77137 -0.02853 0.27035
 C1519 C 0.76702 -0.03341 0.28345
 C1520 C 0.77421 -0.04363 0.29033
 H1521 H 0.82847 -0.09528 0.29499
 H1522 H 0.83936 -0.11440 0.30581
 H1523 H 0.81131 -0.11160 0.34076
 H1524 H 0.80048 -0.09271 0.32960
 H1525 H 0.79929 -0.04833 0.26625
 H1526 H 0.78675 -0.03048 0.25426
 H1527 H 0.75801 -0.02939 0.28838
 H1528 H 0.77052 -0.04719 0.30036
 C1529 C 0.31349 0.59246 0.69045
 C1530 C 0.31158 0.59514 0.67609
 C1531 C 0.31794 0.60618 0.66972
 C1532 C 0.32631 0.61486 0.67755
 C1533 C 0.32834 0.61207 0.69187
 C1534 C 0.32203 0.60100 0.69823
 C1535 C 0.30643 0.58099 0.69730
 N1536 N 0.30913 0.57762 0.71084
 N1537 N 0.30258 0.56749 0.71707
 C1538 C 0.29302 0.56031 0.71005
 N1539 N 0.29035 0.56365 0.69650
 N1540 N 0.29692 0.57376 0.69026
 C1541 C 0.28552 0.54922 0.71708
 C1542 C 0.27450 0.54296 0.71039
 C1543 C 0.26722 0.53273 0.71714
 C1544 C 0.27082 0.52848 0.73071
 C1545 C 0.28192 0.53463 0.73735
 C1546 C 0.28916 0.54491 0.73063
 H1547 H 0.30516 0.58873 0.66975
 H1548 H 0.31633 0.60787 0.65863
 H1549 H 0.33456 0.61862 0.69828
 H1550 H 0.32369 0.59927 0.70932
 H1551 H 0.27140 0.54603 0.69997
 H1552 H 0.25874 0.52818 0.71172
 H1553 H 0.28495 0.53160 0.74781
 H1554 H 0.29760 0.54949 0.73608
 C1555 C 0.31229 1.09350 0.18972
 C1556 C 0.30746 1.09882 0.17702
 C1557 C 0.31381 1.10987 0.17069
 C1558 C 0.32526 1.11604 0.17685
 C1559 C 0.33012 1.11048 0.18957
 C1560 C 0.32373 1.09942 0.19587
 C1561 C 0.30532 1.08196 0.19657
 N1562 N 0.30987 1.07684 0.20894
 N1563 N 0.30347 1.06663 0.21519
 C1564 C 0.29223 1.06109 0.20935
 N1565 N 0.28771 1.06617 0.19697
 N1566 N 0.29411 1.07638 0.19072
 C1567 C 0.28493 1.04989 0.21643
 C1568 C 0.27313 1.04441 0.21047
 C1569 C 0.26606 1.03409 0.21728
 C1570 C 0.27060 1.02897 0.23021
 C1571 C 0.28247 1.03434 0.23612
 C1572 C 0.28955 1.04468 0.22931
 H1573 H 0.29869 1.09446 0.17193
 H1574 H 0.30962 1.11335 0.16087
 H1575 H 0.33875 1.11465 0.19497
 H1576 H 0.32774 1.09558 0.20567
 H1577 H 0.26928 1.04816 0.20057
 H1578 H 0.25696 1.03017 0.21244
 H1579 H 0.28624 1.03062 0.24607
 H1580 H 0.29860 1.04864 0.23420
 C1581 C 0.81390 0.59295 0.19011
 C1582 C 0.82243 0.60150 0.19788
 C1583 C 0.82871 0.61259 0.19151
 C1584 C 0.82666 0.61537 0.17719
 C1585 C 0.81828 0.60669 0.16938
 C1586 C 0.81195 0.59564 0.17576
 C1587 C 0.80688 0.58146 0.19697
 N1588 N 0.79739 0.57419 0.18994
 N1589 N 0.79087 0.56405 0.19620
 C1590 C 0.79358 0.56072 0.20974
 N1591 N 0.80312 0.56794 0.21675
 N1592 N 0.80961 0.57810 0.21050
 C1593 C 0.78613 0.54960 0.21678
 C1594 C 0.78980 0.54531 0.23033
 C1595 C 0.78262 0.53500 0.23706
 C1596 C 0.77156 0.52878 0.23042
 C1597 C 0.76793 0.53301 0.21685
 C1598 C 0.77516 0.54327 0.21009
 H1599 H 0.82412 0.59977 0.20896
 H1600 H 0.83493 0.61914 0.19791
 H1601 H 0.81665 0.60838 0.15829
 H1602 H 0.80552 0.58921 0.16942
 H1603 H 0.79822 0.54994 0.23579
 H1604 H 0.78566 0.53198 0.24752
 H1605 H 0.75948 0.52840 0.21143
 H1606 H 0.77204 0.54632 0.19967
 C1607 C 0.81269 1.09380 0.69028
 C1608 C 0.81057 1.09661 0.67598
 C1609 C 0.81691 1.10765 0.66959
 C1610 C 0.82547 1.11620 0.67734
 C1611 C 0.82765 1.11334 0.69162
 C1612 C 0.82135 1.10226 0.69801
 C1613 C 0.80576 1.08224 0.69712
 N1614 N 0.80868 1.07874 0.71057
 N1615 N 0.80231 1.06847 0.71677
 C1616 C 0.79273 1.06128 0.70980
 N1617 N 0.78984 1.06476 0.69634
 N1618 N 0.79622 1.07501 0.69013
 C1619 C 0.78545 1.05002 0.71678
 C1620 C 0.77444 1.04369 0.71015
 C1621 C 0.76735 1.03331 0.71687
 C1622 C 0.77114 1.02897 0.73035
 C1623 C 0.78224 1.03517 0.73693
 C1624 C 0.78929 1.04560 0.73024
 H1625 H 0.80403 1.09026 0.66969
 H1626 H 0.81517 1.10940 0.65853
 H1627 H 0.83401 1.11979 0.69797
 H1628 H 0.82317 1.10044 0.70905
 H1629 H 0.77119 1.04683 0.69980
 H1630 H 0.75886 1.02872 0.71150
 H1631 H 0.78541 1.03207 0.74732
 H1632 H 0.79774 1.05022 0.73564
 C1633 C 0.68761 0.59345 0.30915
 C1634 C 0.68973 0.59631 0.32343
 C1635 C 0.68336 0.60736 0.32979
 C1636 C 0.67474 0.61585 0.32202
 C1637 C 0.67254 0.61292 0.30776
 C1638 C 0.67887 0.60185 0.30141
 C1639 C 0.69459 0.58190 0.30233
 N1640 N 0.69172 0.57839 0.28887
 N1641 N 0.69816 0.56815 0.28269
 C1642 C 0.70776 0.56099 0.28969
 N1643 N 0.71061 0.56448 0.30315
 N1644 N 0.70415 0.57470 0.30935
 C1645 C 0.71513 0.54977 0.28271
 C1646 C 0.72611 0.54344 0.28940
 C1647 C 0.73328 0.53309 0.28270
 C1648 C 0.72959 0.52878 0.26918
 C1649 C 0.71851 0.53499 0.26255
 C1650 C 0.71139 0.54539 0.26922
 H1651 H 0.69632 0.59001 0.32974
 H1652 H 0.68512 0.60916 0.34083
 H1653 H 0.66614 0.61933 0.30140
 H1654 H 0.67704 0.59998 0.29038
 H1655 H 0.72929 0.54655 0.29979
 H1656 H 0.74175 0.52850 0.28812
 H1657 H 0.71541 0.53191 0.25213
 H1658 H 0.70296 0.55001 0.26377
 C1659 C 0.68828 1.09404 0.80962
 C1660 C 0.67695 1.10013 0.80341
 C1661 C 0.67057 1.11118 0.80977
 C1662 C 0.67535 1.11657 0.82260
 C1663 C 0.68672 1.11024 0.82880
 C1664 C 0.69304 1.09920 0.82241
 C1665 C 0.69520 1.08246 0.80277
 N1666 N 0.70629 1.07672 0.80872
 N1667 N 0.71264 1.06646 0.80250
 C1668 C 0.70818 1.06147 0.79005
 N1669 N 0.69706 1.06718 0.78411
 N1670 N 0.69071 1.07745 0.79033
 C1671 C 0.71541 1.05019 0.78303
 C1672 C 0.71086 1.04504 0.77010
 C1673 C 0.71787 1.03460 0.76337
 C1674 C 0.72962 1.02908 0.76940
 C1675 C 0.73410 1.03413 0.78237
 C1676 C 0.72709 1.04455 0.78910
 H1677 H 0.67300 1.09642 0.79353
 H1678 H 0.66203 1.11549 0.80433
 H1679 H 0.69084 1.11358 0.83869
 H1680 H 0.70172 1.09472 0.82755
 H1681 H 0.70190 1.04913 0.76512
 H1682 H 0.71415 1.03093 0.75339
 H1683 H 0.74310 1.03009 0.78731
 H1684 H 0.73089 1.04824 0.79905
 C1685 C 0.18689 0.59316 0.80996
 C1686 C 0.17584 0.59956 0.80354
 C1687 C 0.16954 0.61067 0.80988
 C1688 C 0.17412 0.61580 0.82290
 C1689 C 0.18513 0.60911 0.82935
 C1690 C 0.19139 0.59802 0.82298
 C1691 C 0.19385 0.58163 0.80308
 N1692 N 0.20476 0.57571 0.80919
 N1693 N 0.21120 0.56552 0.80292
 C1694 C 0.20701 0.56081 0.79026
 N1695 N 0.19606 0.56669 0.78416
 N1696 N 0.18962 0.57688 0.79043
 C1697 C 0.21437 0.54964 0.78318
 C1698 C 0.21003 0.54466 0.77011
 C1699 C 0.21717 0.53431 0.76336
 C1700 C 0.22882 0.52872 0.76951
 C1701 C 0.23310 0.53362 0.78262
 C1702 C 0.22596 0.54394 0.78938
 H1703 H 0.17209 0.59608 0.79349
 H1704 H 0.16125 0.61526 0.80426
 H1705 H 0.18904 0.61221 0.83942
 H1706 H 0.19982 0.59328 0.82831
 H1707 H 0.20114 0.54879 0.76504
 H1708 H 0.21360 0.53076 0.75327
 H1709 H 0.24202 0.52952 0.78766
 H1710 H 0.22961 0.54751 0.79943
 C1711 C 0.18801 1.09427 0.31000
 C1712 C 0.19281 1.09946 0.32277
 C1713 C 0.18646 1.11047 0.32919
 C1714 C 0.17504 1.11673 0.32305
 C1715 C 0.17022 1.11132 0.31024
 C1716 C 0.17662 1.10030 0.30385
 C1717 C 0.19495 1.08273 0.30311
 N1718 N 0.19040 1.07769 0.29071
 N1719 N 0.19675 1.06744 0.28445
 C1720 C 0.20794 1.06179 0.29031
 N1721 N 0.21246 1.06681 0.30272
 N1722 N 0.20611 1.07705 0.30898
 C1723 C 0.21516 1.05052 0.28325
 C1724 C 0.22690 1.04494 0.28924
 C1725 C 0.23388 1.03451 0.28248
 C1726 C 0.22930 1.02940 0.26957
 C1727 C 0.21750 1.03489 0.26362
 C1728 C 0.21052 1.04533 0.27038
 H1729 H 0.20155 1.09502 0.32786
 H1730 H 0.19062 1.11383 0.33905
 H1731 H 0.16163 1.11558 0.30485
 H1732 H 0.17264 1.09657 0.29400
 H1733 H 0.23077 1.04866 0.29914
 H1734 H 0.24293 1.03050 0.28736
 H1735 H 0.21370 1.03118 0.25369
 H1736 H 0.20151 1.04938 0.26547
 C1737 C 0.68753 0.40651 0.69102
 C1738 C 0.68962 0.40364 0.67674
 C1739 C 0.68321 0.39263 0.67039
 C1740 C 0.67458 0.38417 0.67817
 C1741 C 0.67242 0.38710 0.69244
 C1742 C 0.67879 0.39815 0.69878
 C1743 C 0.69454 0.41805 0.69782
 N1744 N 0.69168 0.42158 0.71128
 N1745 N 0.69813 0.43181 0.71745
 C1746 C 0.70774 0.43894 0.71044
 N1747 N 0.71058 0.43542 0.69697
 N1748 N 0.70411 0.42521 0.69080
 C1749 C 0.71510 0.45017 0.71738
 C1750 C 0.72609 0.45647 0.71068
 C1751 C 0.73323 0.46684 0.71735
 C1752 C 0.72951 0.47121 0.73085
 C1753 C 0.71843 0.46502 0.73749
 C1754 C 0.71133 0.45460 0.73085
 H1755 H 0.69621 0.40992 0.67042
 H1756 H 0.68493 0.39082 0.65934
 H1757 H 0.66600 0.38071 0.69881
 H1758 H 0.67699 0.40002 0.70982
 H1759 H 0.72928 0.45331 0.70032
 H1760 H 0.74170 0.47141 0.71193
 H1761 H 0.71531 0.46815 0.74789
 H1762 H 0.70290 0.45000 0.73631
 C1763 C 0.68829 -0.09420 0.19138
 C1764 C 0.67964 -0.10267 0.19912
 C1765 C 0.67332 -0.11373 0.19274
 C1766 C 0.67544 -0.11656 0.17845
 C1767 C 0.68399 -0.10800 0.17068
 C1768 C 0.69035 -0.09698 0.17707
 C1769 C 0.69523 -0.08264 0.19820
 N1770 N 0.70475 -0.07540 0.19118
 N1771 N 0.71113 -0.06514 0.19737
 C1772 C 0.70826 -0.06166 0.21083
 N1773 N 0.69871 -0.06886 0.21784
 N1774 N 0.69234 -0.07914 0.21166
 C1775 C 0.71553 -0.05037 0.21778
 C1776 C 0.71168 -0.04593 0.23122
 C1777 C 0.71868 -0.03544 0.23786
 C1778 C 0.72974 -0.02919 0.23125
 C1779 C 0.73355 -0.03358 0.21778
 C1780 C 0.72650 -0.04401 0.21112
 H1781 H 0.67786 -0.10087 0.21018
 H1782 H 0.66697 -0.12019 0.19910
 H1783 H 0.68568 -0.10973 0.15961
 H1784 H 0.69687 -0.09063 0.17076
 H1785 H 0.70325 -0.05056 0.23665
 H1786 H 0.71549 -0.03230 0.24824
 H1787 H 0.74201 -0.02896 0.21239
 H1788 H 0.72976 -0.04718 0.20077
 C1789 C 0.18586 0.40739 0.19027
 C1790 C 0.17748 0.39870 0.19807
 C1791 C 0.17125 0.38760 0.19168
 C1792 C 0.17320 0.38493 0.17733
 C1793 C 0.18141 0.39375 0.16949
 C1794 C 0.18769 0.40482 0.17588
 C1795 C 0.19285 0.41890 0.19712
 N1796 N 0.20223 0.42626 0.19004
 N1797 N 0.20874 0.43641 0.19628
 C1798 C 0.20614 0.43966 0.20986
 N1799 N 0.19671 0.43234 0.21693
 N1800 N 0.19022 0.42217 0.21070
 C1801 C 0.21360 0.45078 0.21688
 C1802 C 0.21001 0.45502 0.23047
 C1803 C 0.21723 0.46533 0.23717
 C1804 C 0.22824 0.47158 0.23047
 C1805 C 0.23177 0.46740 0.21686
 C1806 C 0.22451 0.45715 0.21013
 H1807 H 0.17589 0.40035 0.20918
 H1808 H 0.16515 0.38094 0.19809
 H1809 H 0.18295 0.39216 0.15837
 H1810 H 0.19399 0.41135 0.16952
 H1811 H 0.20164 0.45036 0.23597
 H1812 H 0.21425 0.46832 0.24766
 H1813 H 0.24018 0.47203 0.21139
 H1814 H 0.22756 0.45414 0.19967
 C1815 C 0.18680 -0.09201 0.68883
 C1816 C 0.17559 -0.09823 0.69513
 C1817 C 0.16931 -0.10935 0.68882
 C1818 C 0.17406 -0.11467 0.67595
 C1819 C 0.18521 -0.10814 0.66959
 C1820 C 0.19145 -0.09703 0.67594
 C1821 C 0.19375 -0.08050 0.69575
 N1822 N 0.20484 -0.07476 0.68981
 N1823 N 0.21129 -0.06463 0.69616
 C1824 C 0.20694 -0.05981 0.70872
 N1825 N 0.19582 -0.06551 0.71464
 N1826 N 0.18937 -0.07564 0.70829
 C1827 C 0.21433 -0.04874 0.71591
 C1828 C 0.20984 -0.04372 0.72891
 C1829 C 0.21701 -0.03350 0.73582
 C1830 C 0.22884 -0.02808 0.72989
 C1831 C 0.23326 -0.03301 0.71684
 C1832 C 0.22610 -0.04321 0.70993
 H1833 H 0.17170 -0.09461 0.70507
 H1834 H 0.16089 -0.11379 0.69435
 H1835 H 0.18926 -0.11139 0.65964
 H1836 H 0.20001 -0.09242 0.67071
 H1837 H 0.20082 -0.04772 0.73382
 H1838 H 0.21333 -0.02991 0.74585
 H1839 H 0.24233 -0.02904 0.71197
 H1840 H 0.22985 -0.04681 0.69993
 C1841 C 0.31130 0.31069 0.40425
 C1842 C 0.30930 0.32459 0.40184
 C1843 C 0.31579 0.33111 0.39070
 C1844 C 0.32439 0.32388 0.38164
 C1845 C 0.32640 0.30998 0.38407
 C1846 C 0.31996 0.30348 0.39525
 C1847 C 0.30434 0.30375 0.41600
 N1848 N 0.30738 0.29072 0.41932
 N1849 N 0.30105 0.28445 0.42981
 C1850 C 0.29139 0.29092 0.43741
 N1851 N 0.28835 0.30395 0.43409
 N1852 N 0.29470 0.31023 0.42362
 C1853 C 0.28422 0.28387 0.44896
 C1854 C 0.27306 0.28993 0.45560
 C1855 C 0.26615 0.28317 0.46631
 C1856 C 0.27030 0.27023 0.47069
 C1857 C 0.28154 0.26422 0.46415
 C1858 C 0.28839 0.27094 0.45339
 H1859 H 0.30277 0.33049 0.40861
 H1860 H 0.31418 0.34186 0.38931
 H1861 H 0.33277 0.30404 0.37721
 H1862 H 0.32168 0.29274 0.39674
 H1863 H 0.26956 0.29987 0.45244
 H1864 H 0.25754 0.28809 0.47114
 H1865 H 0.28498 0.25426 0.46727
 H1866 H 0.29697 0.26599 0.44854
 C1867 C 0.31120 0.81069 -0.09512
 C1868 C 0.30908 0.82456 -0.09757
 C1869 C 0.31554 0.83111 -0.10871
 C1870 C 0.32423 0.82393 -0.11773
 C1871 C 0.32637 0.81006 -0.11524
 C1872 C 0.31996 0.80353 -0.10406
 C1873 C 0.30423 0.80368 -0.08341
 N1874 N 0.30740 0.79069 -0.08006
 N1875 N 0.30106 0.78434 -0.06964
 C1876 C 0.29125 0.79069 -0.06213
 N1877 N 0.28809 0.80369 -0.06547
 N1878 N 0.29446 0.81005 -0.07587
 C1879 C 0.28407 0.78354 -0.05066
 C1880 C 0.27276 0.78944 -0.04413
 C1881 C 0.26584 0.78256 -0.03351
 C1882 C 0.27011 0.76967 -0.02911
 C1883 C 0.28149 0.76382 -0.03554
 C1884 C 0.28836 0.77065 -0.04622
 H1885 H 0.30246 0.83041 -0.09085
 H1886 H 0.31382 0.84183 -0.11017
 H1887 H 0.33280 0.80414 -0.12206
 H1888 H 0.32177 0.79281 -0.10253
 H1889 H 0.26916 0.79933 -0.04729
 H1890 H 0.25712 0.78736 -0.02874
 H1891 H 0.28504 0.75389 -0.03241
 H1892 H 0.29705 0.76582 -0.05099
 C1893 C 0.81058 0.31128 -0.09488
 C1894 C 0.80343 0.32005 -0.10382
 C1895 C 0.80995 0.32648 -0.11498
 C1896 C 0.82381 0.32437 -0.11746
 C1897 C 0.83098 0.31567 -0.10844
 C1898 C 0.82444 0.30918 -0.09731
 C1899 C 0.80358 0.30430 -0.08317
 N1900 N 0.80994 0.29451 -0.07563
 N1901 N 0.80359 0.28813 -0.06523
 C1902 C 0.79061 0.29129 -0.06190
 N1903 N 0.78427 0.30111 -0.06941
 N1904 N 0.79061 0.30746 -0.07983
 C1905 C 0.78347 0.28409 -0.05042
 C1906 C 0.77061 0.28840 -0.04598
 C1907 C 0.76379 0.28153 -0.03529
 C1908 C 0.76963 0.27014 -0.02886
 C1909 C 0.78250 0.26584 -0.03326
 C1910 C 0.78936 0.27277 -0.04389
 H1911 H 0.79273 0.32185 -0.10230
 H1912 H 0.80404 0.33293 -0.12181
 H1913 H 0.84169 0.31396 -0.10988
 H1914 H 0.83027 0.30255 -0.09059
 H1915 H 0.76579 0.29711 -0.05075
 H1916 H 0.75388 0.28510 -0.03216
 H1917 H 0.78728 0.25711 -0.02849
 H1918 H 0.79923 0.26916 -0.04706
 C1919 C 0.81099 0.81143 0.40589
 C1920 C 0.80386 0.82024 0.39697
 C1921 C 0.81043 0.82677 0.38589
 C1922 C 0.82431 0.82473 0.38350
 C1923 C 0.83146 0.81598 0.39249
 C1924 C 0.82487 0.80939 0.40353
 C1925 C 0.80394 0.80435 0.41749
 N1926 N 0.81027 0.79450 0.42498
 N1927 N 0.80386 0.78803 0.43529
 C1928 C 0.79086 0.79115 0.43857
 N1929 N 0.78455 0.80103 0.43111
 N1930 N 0.79095 0.80747 0.42078
 C1931 C 0.78366 0.78386 0.44994
 C1932 C 0.77078 0.78815 0.45435
 C1933 C 0.76390 0.78119 0.46493
 C1934 C 0.76970 0.76974 0.47130
 C1935 C 0.78259 0.76547 0.46693
 C1936 C 0.78951 0.77248 0.45640
 H1937 H 0.79315 0.82200 0.39842
 H1938 H 0.80454 0.83324 0.37907
 H1939 H 0.84218 0.81432 0.39111
 H1940 H 0.83069 0.80273 0.41025
 H1941 H 0.76599 0.79689 0.44963
 H1942 H 0.75398 0.78473 0.46804
 H1943 H 0.78734 0.75670 0.47165
 H1944 H 0.79940 0.76889 0.45326
 C1945 C 0.68844 0.31035 0.59592
 C1946 C 0.69048 0.32424 0.59835
 C1947 C 0.68404 0.33076 0.60952
 C1948 C 0.67546 0.32355 0.61860
 C1949 C 0.67342 0.30965 0.61616
 C1950 C 0.67980 0.30315 0.60494
 C1951 C 0.69535 0.30341 0.58413
 N1952 N 0.69230 0.29039 0.58081
 N1953 N 0.69859 0.28412 0.57029
 C1954 C 0.70822 0.29058 0.56266
 N1955 N 0.71127 0.30360 0.56598
 N1956 N 0.70496 0.30989 0.57648
 C1957 C 0.71537 0.28354 0.55109
 C1958 C 0.72650 0.28961 0.54443
 C1959 C 0.73341 0.28286 0.53371
 C1960 C 0.72929 0.26991 0.52934
 C1961 C 0.71807 0.26389 0.53589
 C1962 C 0.71121 0.27061 0.54667
 H1963 H 0.69700 0.33012 0.59157
 H1964 H 0.68569 0.34150 0.61093
 H1965 H 0.66706 0.30372 0.62303
 H1966 H 0.67806 0.29242 0.60344
 H1967 H 0.72999 0.29955 0.54757
 H1968 H 0.74199 0.28779 0.52886
 H1969 H 0.71465 0.25392 0.53278
 H1970 H 0.70266 0.26565 0.55154
 C1971 C 0.68921 0.81027 1.09553
 C1972 C 0.68046 0.80308 1.10444
 C1973 C 0.67405 0.80956 1.11565
 C1974 C 0.67617 0.82342 1.11821
 C1975 C 0.68488 0.83062 1.10924
 C1976 C 0.69134 0.82413 1.09807
 C1977 C 0.69614 0.80333 1.08375
 N1978 N 0.70588 0.80974 1.07621
 N1979 N 0.71220 0.80343 1.06573
 C1980 C 0.70902 0.79046 1.06232
 N1981 N 0.69925 0.78408 1.06983
 N1982 N 0.69296 0.79037 1.08033
 C1983 C 0.71615 0.78338 1.05076
 C1984 C 0.71184 0.77053 1.04626
 C1985 C 0.71867 0.76375 1.03551
 C1986 C 0.73002 0.76962 1.02906
 C1987 C 0.73430 0.78248 1.03350
 C1988 C 0.72742 0.78931 1.04420
 H1989 H 0.67864 0.79238 1.10285
 H1990 H 0.66760 0.80362 1.12244
 H1991 H 0.68659 0.84134 1.11075
 H1992 H 0.69796 0.83000 1.09137
 H1993 H 0.70318 0.76567 1.05104
 H1994 H 0.71511 0.75384 1.03235
 H1995 H 0.74300 0.78729 1.02873
 H1996 H 0.73103 0.79918 1.04741
 C1997 C 0.18931 0.31142 1.09521
 C1998 C 0.19641 0.32013 1.10425
 C1999 C 0.18982 0.32652 1.11540
 C2000 C 0.17594 0.32442 1.11777
 C2001 C 0.16883 0.31578 1.10867
 C2002 C 0.17543 0.30933 1.09755
 C2003 C 0.19636 0.30449 1.08351
 N2004 N 0.19002 0.29475 1.07589
 N2005 N 0.19642 0.28842 1.06548
 C2006 C 0.20940 0.29158 1.06221
 N2007 N 0.21572 0.30135 1.06980
 N2008 N 0.20934 0.30766 1.08023
 C2009 C 0.21658 0.28443 1.05073
 C2010 C 0.22944 0.28876 1.04632
 C2011 C 0.23629 0.28192 1.03562
 C2012 C 0.23048 0.27054 1.02914
 C2013 C 0.21761 0.26624 1.03350
 C2014 C 0.21072 0.27313 1.04414
 H2015 H 0.20712 0.32192 1.10281
 H2016 H 0.19568 0.33293 1.12230
 H2017 H 0.15811 0.31408 1.11002
 H2018 H 0.16963 0.30275 1.09075
 H2019 H 0.23424 0.29744 1.05112
 H2020 H 0.24619 0.28549 1.03251
 H2021 H 0.21284 0.25752 1.02871
 H2022 H 0.20084 0.26951 1.04728
 C2023 C 0.18988 0.81138 0.59494
 C2024 C 0.17602 0.80930 0.59736
 C2025 C 0.16945 0.81585 0.60844
 C2026 C 0.17660 0.82458 0.61742
 C2027 C 0.19046 0.82667 0.61497
 C2028 C 0.19701 0.82018 0.60385
 C2029 C 0.19689 0.80436 0.58326
 N2030 N 0.20989 0.80744 0.57996
 N2031 N 0.21623 0.80105 0.56955
 C2032 C 0.20985 0.79128 0.56202
 N2033 N 0.19685 0.78821 0.56531
 N2034 N 0.19050 0.79462 0.57569
 C2035 C 0.21698 0.78403 0.55057
 C2036 C 0.21099 0.77279 0.54399
 C2037 C 0.21782 0.76580 0.53338
 C2038 C 0.23075 0.76993 0.52905
 C2039 C 0.23669 0.78124 0.53552
 C2040 C 0.22990 0.78819 0.54619
 H2041 H 0.17019 0.80266 0.59065
 H2042 H 0.15874 0.81416 0.60986
 H2043 H 0.19635 0.83314 0.62178
 H2044 H 0.20771 0.82196 0.60235
 H2045 H 0.20106 0.76930 0.54710
 H2046 H 0.21295 0.75714 0.52859
 H2047 H 0.24665 0.78468 0.53243
 H2048 H 0.23480 0.79682 0.55099
 C2049 C 0.31045 0.68882 0.59583
 C2050 C 0.30328 0.68016 0.60486
 C2051 C 0.30981 0.67377 0.61607
 C2052 C 0.32368 0.67583 0.61848
 C2053 C 0.33086 0.68443 0.60939
 C2054 C 0.32432 0.69087 0.59823
 C2055 C 0.30349 0.69572 0.58404
 N2056 N 0.30993 0.70534 0.57636
 N2057 N 0.30363 0.71163 0.56586
 C2058 C 0.29062 0.70856 0.56257
 N2059 N 0.28420 0.69891 0.57022
 N2060 N 0.29049 0.69263 0.58074
 C2061 C 0.28356 0.71569 0.55100
 C2062 C 0.27065 0.71151 0.54660
 C2063 C 0.26391 0.71835 0.53583
 C2064 C 0.26990 0.72958 0.52925
 C2065 C 0.28283 0.73373 0.53359
 C2066 C 0.28960 0.72684 0.54430
 H2067 H 0.29257 0.67840 0.60338
 H2068 H 0.30390 0.66740 0.62296
 H2069 H 0.34158 0.68609 0.61078
 H2070 H 0.33017 0.69741 0.59143
 H2071 H 0.26571 0.70294 0.55149
 H2072 H 0.25396 0.71491 0.53274
 H2073 H 0.28773 0.74233 0.52872
 H2074 H 0.29952 0.73035 0.54742
 C2075 C 0.31144 0.18971 1.09514
 C2076 C 0.30944 0.17580 1.09744
 C2077 C 0.31593 0.16919 1.10853
 C2078 C 0.32453 0.17635 1.11765
 C2079 C 0.32654 0.19026 1.11531
 C2080 C 0.32011 0.19685 1.10418
 C2081 C 0.30445 0.19676 1.08346
 N2082 N 0.30753 0.20979 1.08021
 N2083 N 0.30118 0.21617 1.06980
 C2084 C 0.29145 0.20980 1.06222
 N2085 N 0.28837 0.19677 1.06546
 N2086 N 0.29475 0.19038 1.07585
 C2087 C 0.28426 0.21697 1.05075
 C2088 C 0.27300 0.21105 1.04417
 C2089 C 0.26608 0.21792 1.03354
 C2090 C 0.27031 0.23083 1.02918
 C2091 C 0.28164 0.23671 1.03566
 C2092 C 0.28851 0.22987 1.04635
 H2093 H 0.30289 0.16997 1.09063
 H2094 H 0.31430 0.15844 1.10986
 H2095 H 0.33291 0.19615 1.12222
 H2096 H 0.32182 0.20759 1.10277
 H2097 H 0.26943 0.20114 1.04731
 H2098 H 0.25740 0.21311 1.02874
 H2099 H 0.28515 0.24665 1.03256
 H2100 H 0.29716 0.23472 1.05116
 C2101 C 0.81065 0.68949 1.09564
 C2102 C 0.80352 0.68076 1.10464
 C2103 C 0.81007 0.67436 1.11581
 C2104 C 0.82394 0.67646 1.11824
 C2105 C 0.83108 0.68514 1.10918
 C2106 C 0.82451 0.69160 1.09805
 C2107 C 0.80366 0.69638 1.08387
 N2108 N 0.81002 0.70610 1.07625
 N2109 N 0.80368 0.71238 1.06576
 C2110 C 0.79072 0.70917 1.06241
 N2111 N 0.78438 0.69942 1.07001
 N2112 N 0.79070 0.69317 1.08052
 C2113 C 0.78360 0.71624 1.05084
 C2114 C 0.77078 0.71187 1.04637
 C2115 C 0.76398 0.71864 1.03560
 C2116 C 0.76980 0.73000 1.02909
 C2117 C 0.78264 0.73435 1.03350
 C2118 C 0.78949 0.72752 1.04422
 H2119 H 0.79282 0.67896 1.10315
 H2120 H 0.80419 0.66793 1.12267
 H2121 H 0.84180 0.68683 1.11058
 H2122 H 0.83034 0.69819 1.09128
 H2123 H 0.76597 0.70320 1.05120
 H2124 H 0.75409 0.71505 1.03246
 H2125 H 0.78741 0.74305 1.02868
 H2126 H 0.79934 0.73118 1.04740
 C2127 C 0.81111 0.18987 0.59500
 C2128 C 0.81986 0.19703 0.60393
 C2129 C 0.82636 0.19048 0.61505
 C2130 C 0.82433 0.17658 0.61747
 C2131 C 0.81563 0.16941 0.60847
 C2132 C 0.80908 0.17598 0.59739
 C2133 C 0.80408 0.19688 0.58332
 N2134 N 0.79438 0.19046 0.57574
 N2135 N 0.78796 0.19682 0.56537
 C2136 C 0.79099 0.20986 0.56209
 N2137 N 0.80073 0.21626 0.56964
 N2138 N 0.80712 0.20991 0.58004
 C2139 C 0.78374 0.21699 0.55064
 C2140 C 0.78787 0.22994 0.54627
 C2141 C 0.78093 0.23674 0.53561
 C2142 C 0.76965 0.23078 0.52913
 C2143 C 0.76554 0.21781 0.53345
 C2144 C 0.77253 0.21098 0.54405
 H2145 H 0.82161 0.20776 0.60245
 H2146 H 0.83280 0.19638 0.62187
 H2147 H 0.81398 0.15867 0.60988
 H2148 H 0.80247 0.17013 0.59067
 H2149 H 0.79648 0.23486 0.55109
 H2150 H 0.78434 0.24673 0.53253
 H2151 H 0.75691 0.21293 0.52865
 H2152 H 0.76906 0.20102 0.54716
 C2153 C 0.68916 0.68971 0.40408
 C2154 C 0.69117 0.67582 0.40164
 C2155 C 0.68467 0.66932 0.39050
 C2156 C 0.67604 0.67656 0.38147
 C2157 C 0.67403 0.69046 0.38393
 C2158 C 0.68048 0.69694 0.39511
 C2159 C 0.69611 0.69663 0.41586
 N2160 N 0.69300 0.70962 0.41925
 N2161 N 0.69930 0.71587 0.42977
 C2162 C 0.70901 0.70942 0.43732
 N2163 N 0.71212 0.69643 0.43393
 N2164 N 0.70579 0.69016 0.42344
 C2165 C 0.71612 0.71645 0.44892
 C2166 C 0.72735 0.71045 0.45551
 C2167 C 0.73420 0.71719 0.46626
 C2168 C 0.72992 0.73006 0.47075
 C2169 C 0.71862 0.73600 0.46427
 C2170 C 0.71183 0.72930 0.45345
 H2171 H 0.69772 0.66992 0.40839
 H2172 H 0.68629 0.65858 0.38908
 H2173 H 0.66764 0.69641 0.37709
 H2174 H 0.67876 0.70767 0.39663
 H2175 H 0.73095 0.70057 0.45227
 H2176 H 0.74286 0.71233 0.47106
 H2177 H 0.71508 0.74591 0.46746
 H2178 H 0.70320 0.73421 0.44865
 C2179 C 0.68880 0.18928 -0.09472
 C2180 C 0.68005 0.19644 -0.10367
 C2181 C 0.67363 0.18991 -0.11483
 C2182 C 0.67573 0.17603 -0.11730
 C2183 C 0.68441 0.16885 -0.10828
 C2184 C 0.69089 0.17540 -0.09715
 C2185 C 0.69577 0.19628 -0.08302
 N2186 N 0.70555 0.18992 -0.07548
 N2187 N 0.71192 0.19629 -0.06508
 C2188 C 0.70876 0.20929 -0.06176
 N2189 N 0.69896 0.21563 -0.06926
 N2190 N 0.69261 0.20928 -0.07968
 C2191 C 0.71595 0.21645 -0.05030
 C2192 C 0.71164 0.22933 -0.04586
 C2193 C 0.71851 0.23617 -0.03520
 C2194 C 0.72990 0.23034 -0.02877
 C2195 C 0.73419 0.21745 -0.03316
 C2196 C 0.72727 0.21056 -0.04377
 H2197 H 0.67826 0.20716 -0.10216
 H2198 H 0.66720 0.19583 -0.12166
 H2199 H 0.68611 0.15812 -0.10971
 H2200 H 0.69751 0.16955 -0.09041
 H2201 H 0.70295 0.23415 -0.05063
 H2202 H 0.71496 0.24610 -0.03207
 H2203 H 0.74292 0.21267 -0.02840
 H2204 H 0.73088 0.20067 -0.04693
 C2205 C 0.18932 0.68884 -0.09512
 C2206 C 0.19648 0.68009 -0.10408
 C2207 C 0.18996 0.67366 -0.11524
 C2208 C 0.17609 0.67574 -0.11769
 C2209 C 0.16891 0.68442 -0.10866
 C2210 C 0.17546 0.69092 -0.09754
 C2211 C 0.19632 0.69582 -0.08341
 N2212 N 0.18996 0.70560 -0.07586
 N2213 N 0.19632 0.71197 -0.06546
 C2214 C 0.20930 0.70881 -0.06214
 N2215 N 0.21564 0.69900 -0.06966
 N2216 N 0.20930 0.69265 -0.08008
 C2217 C 0.21646 0.71600 -0.05067
 C2218 C 0.22931 0.71167 -0.04623
 C2219 C 0.23614 0.71853 -0.03555
 C2220 C 0.23033 0.72993 -0.02912
 C2221 C 0.21746 0.73424 -0.03351
 C2222 C 0.21058 0.72733 -0.04414
 H2223 H 0.20719 0.67831 -0.10258
 H2224 H 0.19587 0.66724 -0.12208
 H2225 H 0.15820 0.68611 -0.11008
 H2226 H 0.16961 0.69753 -0.09079
 H2227 H 0.23412 0.70296 -0.05100
 H2228 H 0.24605 0.71496 -0.03242
 H2229 H 0.21269 0.74298 -0.02875
 H2230 H 0.20071 0.73095 -0.04730
 C2231 C 0.18859 0.18963 0.40550
 C2232 C 0.17981 0.19676 0.39655
 C2233 C 0.17334 0.19018 0.38545
 C2234 C 0.17542 0.17629 0.38305
 C2235 C 0.18412 0.16914 0.39208
 C2236 C 0.19065 0.17573 0.40314
 C2237 C 0.19563 0.19669 0.41713
 N2238 N 0.20538 0.19031 0.42470
 N2239 N 0.21182 0.19672 0.43502
 C2240 C 0.20876 0.20977 0.43824
 N2241 N 0.19898 0.21613 0.43070
 N2242 N 0.19257 0.20973 0.42036
 C2243 C 0.21603 0.21697 0.44962
 C2244 C 0.21188 0.22994 0.45392
 C2245 C 0.21883 0.23680 0.46452
 C2246 C 0.23014 0.23089 0.47101
 C2247 C 0.23428 0.21791 0.46675
 C2248 C 0.22728 0.21101 0.45620
 H2249 H 0.17804 0.20749 0.39800
 H2250 H 0.16690 0.19607 0.37860
 H2251 H 0.18581 0.15840 0.39069
 H2252 H 0.19728 0.16991 0.40988
 H2253 H 0.20324 0.23482 0.44910
 H2254 H 0.21539 0.24679 0.46755
 H2255 H 0.24294 0.21307 0.47156
 H2256 H 0.23077 0.20105 0.45314
 C2257 C 0.31357 0.40770 0.69059
 C2258 C 0.31171 0.40503 0.67623
 C2259 C 0.31816 0.39404 0.66986
 C2260 C 0.32657 0.38540 0.67770
 C2261 C 0.32854 0.38817 0.69203
 C2262 C 0.32215 0.39920 0.69839
 C2263 C 0.30643 0.41914 0.69744
 N2264 N 0.30909 0.42250 0.71099
 N2265 N 0.30249 0.43261 0.71721
 C2266 C 0.29291 0.43977 0.71018
 N2267 N 0.29027 0.43643 0.69662
 N2268 N 0.29690 0.42635 0.69039
 C2269 C 0.28537 0.45085 0.71720
 C2270 C 0.27437 0.45714 0.71049
 C2271 C 0.26709 0.46739 0.71722
 C2272 C 0.27068 0.47164 0.73079
 C2273 C 0.28175 0.46544 0.73746
 C2274 C 0.28899 0.45515 0.73076
 H2275 H 0.30526 0.41143 0.66988
 H2276 H 0.31659 0.39236 0.65877
 H2277 H 0.33479 0.38164 0.69845
 H2278 H 0.32377 0.40092 0.70948
 H2279 H 0.27129 0.45408 0.70006
 H2280 H 0.25863 0.47197 0.71179
 H2281 H 0.28477 0.46848 0.74792
 H2282 H 0.29742 0.45055 0.73623
 C2283 C 0.31231 0.90732 0.19045
 C2284 C 0.31014 0.90442 0.17619
 C2285 C 0.31659 0.89343 0.16981
 C2286 C 0.32533 0.88503 0.17755
 C2287 C 0.32756 0.88800 0.19180
 C2288 C 0.32115 0.89902 0.19816
 C2289 C 0.30527 0.91883 0.19729
 N2290 N 0.30822 0.92241 0.21070
 N2291 N 0.30177 0.93262 0.21691
 C2292 C 0.29205 0.93969 0.20997
 N2293 N 0.28911 0.93613 0.19655
 N2294 N 0.29559 0.92593 0.19033
 C2295 C 0.28471 0.95091 0.21697
 C2296 C 0.27363 0.95718 0.21037
 C2297 C 0.26653 0.96756 0.21710
 C2298 C 0.27038 0.97195 0.23055
 C2299 C 0.28153 0.96578 0.23709
 C2300 C 0.28859 0.95536 0.23039
 H2301 H 0.30346 0.91065 0.16991
 H2302 H 0.31480 0.89159 0.15878
 H2303 H 0.33406 0.88166 0.19814
 H2304 H 0.32302 0.90092 0.20918
 H2305 H 0.27035 0.95401 0.20005
 H2306 H 0.25800 0.97212 0.21177
 H2307 H 0.28475 0.96892 0.24745
 H2308 H 0.29708 0.95078 0.23577
 C2309 C 0.81446 0.40808 0.18995
 C2310 C 0.81250 0.40538 0.17561
 C2311 C 0.81887 0.39436 0.16922
 C2312 C 0.82732 0.38571 0.17702
 C2313 C 0.82939 0.38851 0.19133
 C2314 C 0.82307 0.39957 0.19771
 C2315 C 0.80738 0.41953 0.19683
 N2316 N 0.81010 0.42289 0.21037
 N2317 N 0.80353 0.43300 0.21663
 C2318 C 0.79393 0.44017 0.20964
 N2319 N 0.79124 0.43684 0.19609
 N2320 N 0.79783 0.42675 0.18982
 C2321 C 0.78641 0.45124 0.21670
 C2322 C 0.77539 0.45752 0.21002
 C2323 C 0.76810 0.46773 0.21679
 C2324 C 0.77170 0.47196 0.23037
 C2325 C 0.78280 0.46578 0.23700
 C2326 C 0.79005 0.45551 0.23025
 H2327 H 0.80602 0.41178 0.16929
 H2328 H 0.81722 0.39266 0.15814
 H2329 H 0.83567 0.38198 0.19771
 H2330 H 0.82477 0.40131 0.20879
 H2331 H 0.77229 0.45447 0.19959
 H2332 H 0.75961 0.47230 0.21139
 H2333 H 0.78583 0.46880 0.24746
 H2334 H 0.79850 0.45092 0.23569
 C2335 C 0.81282 0.90706 0.69042
 C2336 C 0.81058 0.90410 0.67618
 C2337 C 0.81694 0.89303 0.66985
 C2338 C 0.82565 0.88462 0.67760
 C2339 C 0.82796 0.88765 0.69182
 C2340 C 0.82164 0.89875 0.69814
 C2341 C 0.80585 0.91864 0.69722
 N2342 N 0.80883 0.92224 0.71062
 N2343 N 0.80242 0.93250 0.71680
 C2344 C 0.79274 0.93959 0.70984
 N2345 N 0.78978 0.93601 0.69643
 N2346 N 0.79621 0.92576 0.69024
 C2347 C 0.78542 0.95085 0.71681
 C2348 C 0.77437 0.95714 0.71019
 C2349 C 0.76726 0.96752 0.71690
 C2350 C 0.77107 0.97190 0.73036
 C2351 C 0.78221 0.96573 0.73692
 C2352 C 0.78928 0.95530 0.73024
 H2353 H 0.80392 0.91033 0.66989
 H2354 H 0.81510 0.89114 0.65883
 H2355 H 0.83444 0.88131 0.69817
 H2356 H 0.82355 0.90070 0.70915
 H2357 H 0.77110 0.95397 0.69986
 H2358 H 0.75874 0.97209 0.71155
 H2359 H 0.78541 0.96886 0.74730
 H2360 H 0.79776 0.95071 0.73564
 C2361 C 0.68623 0.59207 0.69044
 C2362 C 0.67765 0.60056 0.69825
 C2363 C 0.67127 0.61162 0.69191
 C2364 C 0.67327 0.61443 0.67759
 C2365 C 0.68168 0.60579 0.66974
 C2366 C 0.68810 0.59477 0.67609
 C2367 C 0.69336 0.58061 0.69728
 N2368 N 0.70290 0.57343 0.69022
 N2369 N 0.70953 0.56333 0.69645
 C2370 C 0.70688 0.55997 0.71000
 N2371 N 0.69729 0.56711 0.71703
 N2372 N 0.69069 0.57723 0.71081
 C2373 C 0.71443 0.54889 0.71701
 C2374 C 0.71082 0.54458 0.73057
 C2375 C 0.71808 0.53431 0.73728
 C2376 C 0.72919 0.52816 0.73063
 C2377 C 0.73277 0.53242 0.71706
 C2378 C 0.72545 0.54263 0.71031
 H2379 H 0.67601 0.59881 0.70934
 H2380 H 0.66502 0.61813 0.69833
 H2381 H 0.68327 0.60750 0.65865
 H2382 H 0.69456 0.58838 0.66973
 H2383 H 0.70237 0.54915 0.73603
 H2384 H 0.71507 0.53127 0.74774
 H2385 H 0.74126 0.52787 0.71164
 H2386 H 0.72854 0.54571 0.69989
 C2387 C 0.68723 0.09229 0.19050
 C2388 C 0.67840 0.10062 0.19820
 C2389 C 0.67205 0.11167 0.19184
 C2390 C 0.67432 0.11465 0.17760
 C2391 C 0.68303 0.10623 0.16987
 C2392 C 0.68943 0.09520 0.17624
 C2393 C 0.69423 0.08076 0.19735
 N2394 N 0.70389 0.07364 0.19040
 N2395 N 0.71036 0.06345 0.19664
 C2396 C 0.70743 0.05992 0.21007
 N2397 N 0.69772 0.06700 0.21699
 N2398 N 0.69127 0.07721 0.21077
 C2399 C 0.71481 0.04874 0.21710
 C2400 C 0.71097 0.04434 0.23056
 C2401 C 0.71811 0.03400 0.23731
 C2402 C 0.72929 0.02786 0.23079
 C2403 C 0.73307 0.03218 0.21730
 C2404 C 0.72589 0.04247 0.21052
 H2405 H 0.67651 0.09871 0.20922
 H2406 H 0.66557 0.11803 0.19818
 H2407 H 0.68485 0.10807 0.15884
 H2408 H 0.69610 0.08896 0.16997
 H2409 H 0.70247 0.04890 0.23593
 H2410 H 0.71494 0.03090 0.24771
 H2411 H 0.74162 0.02765 0.21198
 H2412 H 0.72913 0.04561 0.20017
 C2413 C 0.18574 0.59246 0.19014
 C2414 C 0.18767 0.59514 0.17579
 C2415 C 0.18131 0.60618 0.16941
 C2416 C 0.17290 0.61485 0.17722
 C2417 C 0.17086 0.61207 0.19154
 C2418 C 0.17718 0.60100 0.19791
 C2419 C 0.19282 0.58099 0.19701
 N2420 N 0.19012 0.57765 0.21055
 N2421 N 0.19667 0.56752 0.21680
 C2422 C 0.20623 0.56032 0.20979
 N2423 N 0.20890 0.56364 0.19624
 N2424 N 0.20233 0.57375 0.18998
 C2425 C 0.21373 0.54922 0.21683
 C2426 C 0.22471 0.54290 0.21013
 C2427 C 0.23198 0.53265 0.21688
 C2428 C 0.22839 0.52843 0.23046
 C2429 C 0.21733 0.53465 0.23712
 C2430 C 0.21011 0.54496 0.23040
 H2431 H 0.19412 0.58873 0.16946
 H2432 H 0.18293 0.60787 0.15832
 H2433 H 0.16462 0.61861 0.19793
 H2434 H 0.17550 0.59927 0.20900
 H2435 H 0.22780 0.54593 0.19969
 H2436 H 0.24042 0.52804 0.21145
 H2437 H 0.21431 0.53164 0.24759
 H2438 H 0.20169 0.54958 0.23586
 C2439 C 0.18754 0.09367 0.69050
 C2440 C 0.18971 0.09659 0.67624
 C2441 C 0.18330 0.10761 0.66988
 C2442 C 0.17460 0.11603 0.67763
 C2443 C 0.17236 0.11305 0.69187
 C2444 C 0.17873 0.10200 0.69822
 C2445 C 0.19454 0.08213 0.69732
 N2446 N 0.19158 0.07855 0.71074
 N2447 N 0.19801 0.06831 0.71692
 C2448 C 0.20769 0.06122 0.70997
 N2449 N 0.21063 0.06478 0.69655
 N2450 N 0.20419 0.07501 0.69035
 C2451 C 0.21501 0.04996 0.71695
 C2452 C 0.22606 0.04367 0.71033
 C2453 C 0.23314 0.03326 0.71703
 C2454 C 0.22929 0.02885 0.73047
 C2455 C 0.21817 0.03504 0.73704
 C2456 C 0.21113 0.04550 0.73037
 H2457 H 0.19636 0.09034 0.66995
 H2458 H 0.18509 0.10945 0.65884
 H2459 H 0.16589 0.11941 0.69822
 H2460 H 0.17686 0.10009 0.70924
 H2461 H 0.22934 0.04686 0.70001
 H2462 H 0.24165 0.02868 0.71168
 H2463 H 0.21495 0.03188 0.74740
 H2464 H 0.20265 0.05009 0.73576
 C2465 C 0.31354 0.59216 0.30921
 C2466 C 0.31168 0.59483 0.32357
 C2467 C 0.31805 0.60586 0.32992
 C2468 C 0.32640 0.61454 0.32207
 C2469 C 0.32839 0.61176 0.30774
 C2470 C 0.32206 0.60069 0.30139
 C2471 C 0.30643 0.58070 0.30238
 N2472 N 0.30907 0.57734 0.28882
 N2473 N 0.30248 0.56722 0.28261
 C2474 C 0.29294 0.56005 0.28967
 N2475 N 0.29033 0.56338 0.30323
 N2476 N 0.29694 0.57348 0.30945
 C2477 C 0.28539 0.54898 0.28267
 C2478 C 0.27440 0.54272 0.28941
 C2479 C 0.26708 0.53251 0.28269
 C2480 C 0.27062 0.52826 0.26910
 C2481 C 0.28169 0.53441 0.26241
 C2482 C 0.28897 0.54468 0.26910
 H2483 H 0.30527 0.58841 0.32993
 H2484 H 0.31648 0.60754 0.34102
 H2485 H 0.33459 0.61831 0.30132
 H2486 H 0.32368 0.59897 0.29030
 H2487 H 0.27135 0.54578 0.29985
 H2488 H 0.25862 0.52796 0.28814
 H2489 H 0.28467 0.53137 0.25194
 H2490 H 0.29739 0.54925 0.26361
 C2491 C 0.31285 0.09248 0.81007
 C2492 C 0.31063 0.09540 0.82432
 C2493 C 0.31706 0.10639 0.83071
 C2494 C 0.32582 0.11476 0.82299
 C2495 C 0.32811 0.11178 0.80876
 C2496 C 0.32172 0.10076 0.80239
 C2497 C 0.30583 0.08099 0.80321
 N2498 N 0.30882 0.07741 0.78980
 N2499 N 0.30236 0.06723 0.78356
 C2500 C 0.29262 0.06019 0.79045
 N2501 N 0.28965 0.06374 0.80387
 N2502 N 0.29612 0.07391 0.81012
 C2503 C 0.28524 0.04903 0.78340
 C2504 C 0.27412 0.04280 0.78994
 C2505 C 0.26696 0.03253 0.78314
 C2506 C 0.27078 0.02819 0.76966
 C2507 C 0.28199 0.03430 0.76318
 C2508 C 0.28912 0.04462 0.76996
 H2509 H 0.30393 0.08919 0.83058
 H2510 H 0.31523 0.10824 0.84173
 H2511 H 0.33462 0.11810 0.80244
 H2512 H 0.32363 0.09885 0.79137
 H2513 H 0.27085 0.04595 0.80028
 H2514 H 0.25838 0.02801 0.78842
 H2515 H 0.28520 0.03120 0.75280
 H2516 H 0.29765 0.04916 0.76462
 C2517 C 0.81377 0.59271 0.80931
 C2518 C 0.81183 0.59546 0.82365
 C2519 C 0.81818 0.60652 0.82997
 C2520 C 0.82659 0.61515 0.82212
 C2521 C 0.82864 0.61229 0.80782
 C2522 C 0.82233 0.60120 0.80150
 C2523 C 0.80671 0.58120 0.80251
 N2524 N 0.80944 0.57777 0.78899
 N2525 N 0.80291 0.56760 0.78281
 C2526 C 0.79335 0.56044 0.78985
 N2527 N 0.79066 0.56384 0.80338
 N2528 N 0.79720 0.57399 0.80958
 C2529 C 0.78589 0.54930 0.78287
 C2530 C 0.77491 0.54300 0.78960
 C2531 C 0.76767 0.53271 0.78290
 C2532 C 0.77130 0.52842 0.76935
 C2533 C 0.78236 0.53460 0.76268
 C2534 C 0.78954 0.54495 0.76934
 H2535 H 0.80538 0.58908 0.83001
 H2536 H 0.81655 0.60827 0.84105
 H2537 H 0.83489 0.61880 0.80139
 H2538 H 0.82402 0.59941 0.79043
 H2539 H 0.77179 0.54610 0.80001
 H2540 H 0.75922 0.52814 0.78834
 H2541 H 0.78540 0.53153 0.75223
 H2542 H 0.79796 0.54954 0.76387
 C2543 C 0.81249 0.09333 0.30969
 C2544 C 0.81029 0.09627 0.32395
 C2545 C 0.81666 0.10731 0.33029
 C2546 C 0.82535 0.11573 0.32254
 C2547 C 0.82761 0.11274 0.30830
 C2548 C 0.82128 0.10166 0.30197
 C2549 C 0.80553 0.08177 0.30289
 N2550 N 0.80850 0.07818 0.28948
 N2551 N 0.80211 0.06791 0.28331
 C2552 C 0.79245 0.06081 0.29027
 N2553 N 0.78951 0.06438 0.30369
 N2554 N 0.79592 0.07463 0.30988
 C2555 C 0.78516 0.04954 0.28332
 C2556 C 0.77414 0.04323 0.28996
 C2557 C 0.76708 0.03282 0.28328
 C2558 C 0.77090 0.02842 0.26982
 C2559 C 0.78200 0.03461 0.26324
 C2560 C 0.78903 0.04508 0.26989
 H2561 H 0.80365 0.09002 0.33025
 H2562 H 0.81486 0.10917 0.34132
 H2563 H 0.83407 0.11909 0.30194
 H2564 H 0.82317 0.09974 0.29095
 H2565 H 0.77087 0.04642 0.30029
 H2566 H 0.75858 0.02824 0.28865
 H2567 H 0.78520 0.03146 0.25287
 H2568 H 0.79748 0.04968 0.26448
 C2569 C 0.68755 0.40709 0.30884
 C2570 C 0.67881 0.39874 0.30107
 C2571 C 0.67243 0.38768 0.30739
 C2572 C 0.67457 0.38473 0.32166
 C2573 C 0.68320 0.39318 0.32946
 C2574 C 0.68962 0.40420 0.32313
 C2575 C 0.69458 0.41862 0.30206
 N2576 N 0.70415 0.42576 0.30910
 N2577 N 0.71063 0.43598 0.30294
 C2578 C 0.70781 0.43950 0.28947
 N2579 N 0.69820 0.43239 0.28244
 N2580 N 0.69174 0.42216 0.28860
 C2581 C 0.71520 0.45073 0.28253
 C2582 C 0.71146 0.45516 0.26905
 C2583 C 0.71859 0.46557 0.26242
 C2584 C 0.72966 0.47174 0.26908
 C2585 C 0.73335 0.46738 0.28258
 C2586 C 0.72619 0.45702 0.28925
 H2587 H 0.67702 0.40062 0.29003
 H2588 H 0.66602 0.38131 0.30101
 H2589 H 0.68491 0.39136 0.34051
 H2590 H 0.69621 0.41046 0.32946
 H2591 H 0.70303 0.45057 0.26359
 H2592 H 0.71549 0.46869 0.25201
 H2593 H 0.74182 0.47194 0.28801
 H2594 H 0.72936 0.45386 0.29962
 C2595 C 0.68751 0.90737 0.80934
 C2596 C 0.67871 0.89905 0.80161
 C2597 C 0.67236 0.88799 0.80795
 C2598 C 0.67460 0.88499 0.82219
 C2599 C 0.68329 0.89341 0.82995
 C2600 C 0.68968 0.90444 0.82360
 C2601 C 0.69450 0.91891 0.80254
 N2602 N 0.70414 0.92603 0.80952
 N2603 N 0.71059 0.93624 0.80332
 C2604 C 0.70767 0.93981 0.78989
 N2605 N 0.69799 0.93273 0.78293
 N2606 N 0.69156 0.92250 0.78911
 C2607 C 0.71502 0.95103 0.78291
 C2608 C 0.71119 0.95548 0.76947
 C2609 C 0.71829 0.96587 0.76278
 C2610 C 0.72943 0.97201 0.76935
 C2611 C 0.73322 0.96763 0.78282
 C2612 C 0.72607 0.95729 0.78954
 H2613 H 0.67684 0.90097 0.79059
 H2614 H 0.66590 0.88164 0.80159
 H2615 H 0.68508 0.89155 0.84098
 H2616 H 0.69633 0.91068 0.82990
 H2617 H 0.70271 0.95092 0.76407
 H2618 H 0.71511 0.96901 0.75240
 H2619 H 0.74174 0.97217 0.78818
 H2620 H 0.72932 0.95411 0.79988
 C2621 C 0.18577 0.40797 0.80989
 C2622 C 0.17716 0.39948 0.80213
 C2623 C 0.17083 0.38842 0.80850
 C2624 C 0.17292 0.38561 0.82281
 C2625 C 0.18136 0.39423 0.83061
 C2626 C 0.18773 0.40526 0.82423
 C2627 C 0.19286 0.41942 0.80302
 N2628 N 0.20240 0.42662 0.81004
 N2629 N 0.20899 0.43671 0.80378
 C2630 C 0.20630 0.44006 0.79024
 N2631 N 0.19671 0.43291 0.78324
 N2632 N 0.19014 0.42280 0.78949
 C2633 C 0.21383 0.45112 0.78319
 C2634 C 0.21020 0.45542 0.76964
 C2635 C 0.21745 0.46568 0.76290
 C2636 C 0.22855 0.47183 0.76954
 C2637 C 0.23214 0.46759 0.78312
 C2638 C 0.22484 0.45739 0.78988
 H2639 H 0.17545 0.40124 0.79105
 H2640 H 0.16456 0.38192 0.80211
 H2641 H 0.18302 0.39251 0.84169
 H2642 H 0.19422 0.41164 0.83055
 H2643 H 0.20175 0.45084 0.76419
 H2644 H 0.21443 0.46871 0.75244
 H2645 H 0.24062 0.47215 0.78853
 H2646 H 0.22794 0.45433 0.80031
 C2647 C 0.18649 0.90842 0.31037
 C2648 C 0.17781 0.89998 0.30263
 C2649 C 0.17151 0.88890 0.30900
 C2650 C 0.17368 0.88603 0.32328
 C2651 C 0.18220 0.89460 0.33106
 C2652 C 0.18855 0.90564 0.32467
 C2653 C 0.19351 0.91990 0.30349
 N2654 N 0.20315 0.92705 0.31044
 N2655 N 0.20967 0.93717 0.30416
 C2656 C 0.20682 0.94060 0.29067
 N2657 N 0.19714 0.93350 0.28375
 N2658 N 0.19064 0.92336 0.29001
 C2659 C 0.21427 0.95170 0.28358
 C2660 C 0.21046 0.95604 0.27009
 C2661 C 0.21764 0.96631 0.26329
 C2662 C 0.22883 0.97243 0.26979
 C2663 C 0.23259 0.96815 0.28330
 C2664 C 0.22537 0.95793 0.29013
 H2665 H 0.17603 0.90178 0.29158
 H2666 H 0.16518 0.88244 0.30263
 H2667 H 0.18393 0.89283 0.34212
 H2668 H 0.19509 0.91198 0.33098
 H2669 H 0.20194 0.95149 0.26474
 H2670 H 0.21448 0.96937 0.25288
 H2671 H 0.24115 0.97268 0.28861
 H2672 H 0.22859 0.95483 0.30051
 C2673 C 0.40709 0.31244 0.69118
 C2674 C 0.39872 0.32120 0.69891
 C2675 C 0.38772 0.32762 0.69254
 C2676 C 0.38484 0.32547 0.67826
 C2677 C 0.39331 0.31683 0.67049
 C2678 C 0.40428 0.31037 0.67688
 C2679 C 0.41856 0.30536 0.69802
 N2680 N 0.42572 0.29576 0.69101
 N2681 N 0.43588 0.28924 0.69722
 C2682 C 0.43935 0.29205 0.71070
 N2683 N 0.43223 0.30170 0.71769
 N2684 N 0.42205 0.30820 0.71149
 C2685 C 0.45052 0.28464 0.71768
 C2686 C 0.45491 0.28840 0.73117
 C2687 C 0.46530 0.28128 0.73783
 C2688 C 0.47151 0.27019 0.73120
 C2689 C 0.46717 0.26646 0.71770
 C2690 C 0.45683 0.27363 0.71100
 H2691 H 0.40056 0.32299 0.70996
 H2692 H 0.38132 0.33405 0.69889
 H2693 H 0.39154 0.31512 0.65943
 H2694 H 0.41056 0.30376 0.67057
 H2695 H 0.45031 0.29685 0.73661
 H2696 H 0.46840 0.28440 0.74824
 H2697 H 0.47176 0.25798 0.71229
 H2698 H 0.45370 0.27044 0.70063
 C2699 C 0.40786 0.81420 0.18990
 C2700 C 0.39935 0.82280 0.19767
 C2701 C 0.38827 0.82910 0.19132
 C2702 C 0.38545 0.82701 0.17702
 C2703 C 0.39408 0.81857 0.16920
 C2704 C 0.40513 0.81223 0.17557
 C2705 C 0.41934 0.80715 0.19675
 N2706 N 0.42655 0.79759 0.18974
 N2707 N 0.43666 0.79104 0.19599
 C2708 C 0.44003 0.79378 0.20952
 N2709 N 0.43287 0.80339 0.21651
 N2710 N 0.42273 0.80992 0.21027
 C2711 C 0.45112 0.78629 0.21657
 C2712 C 0.45542 0.78999 0.23010
 C2713 C 0.46568 0.78275 0.23686
 C2714 C 0.47184 0.77161 0.23027
 C2715 C 0.46760 0.76796 0.21671
 C2716 C 0.45739 0.77524 0.20992
 H2717 H 0.40111 0.82451 0.20875
 H2718 H 0.38175 0.83536 0.19772
 H2719 H 0.39236 0.81691 0.15812
 H2720 H 0.41152 0.80575 0.16923
 H2721 H 0.45084 0.79846 0.23552
 H2722 H 0.46871 0.78582 0.24731
 H2723 H 0.47216 0.75944 0.21133
 H2724 H 0.45433 0.77210 0.19951
 C2725 C 0.90760 0.31253 0.19027
 C2726 C 0.90470 0.31037 0.17601
 C2727 C 0.89372 0.31684 0.16965
 C2728 C 0.88534 0.32559 0.17740
 C2729 C 0.88832 0.32782 0.19164
 C2730 C 0.89932 0.32139 0.19799
 C2731 C 0.91908 0.30545 0.19710
 N2732 N 0.92266 0.30840 0.21052
 N2733 N 0.93284 0.30190 0.21673
 C2734 C 0.93986 0.29215 0.20979
 N2735 N 0.93631 0.28923 0.19636
 N2736 N 0.92615 0.29575 0.19015
 C2737 C 0.95103 0.28475 0.21680
 C2738 C 0.95725 0.27363 0.21021
 C2739 C 0.96756 0.26645 0.21696
 C2740 C 0.97193 0.27027 0.23042
 C2741 C 0.96582 0.28147 0.23695
 C2742 C 0.95547 0.28860 0.23023
 H2743 H 0.91091 0.30369 0.16972
 H2744 H 0.89188 0.31507 0.15861
 H2745 H 0.88199 0.33432 0.19799
 H2746 H 0.90123 0.32324 0.20902
 H2747 H 0.95408 0.27037 0.19988
 H2748 H 0.97208 0.25789 0.21164
 H2749 H 0.96895 0.28467 0.24732
 H2750 H 0.95094 0.29713 0.23560
 C2751 C 0.90799 0.81357 0.68987
 C2752 C 0.90515 0.81150 0.67557
 C2753 C 0.89407 0.81782 0.66925
 C2754 C 0.88550 0.82632 0.67707
 C2755 C 0.88843 0.82849 0.69134
 C2756 C 0.89954 0.82222 0.69765
 C2757 C 0.91953 0.80658 0.69668
 N2758 N 0.92301 0.80944 0.71015
 N2759 N 0.93320 0.80297 0.71636
 C2760 C 0.94034 0.79333 0.70938
 N2761 N 0.93688 0.79049 0.69590
 N2762 N 0.92671 0.79698 0.68968
 C2763 C 0.95149 0.78591 0.71641
 C2764 C 0.95777 0.77484 0.70978
 C2765 C 0.96804 0.76764 0.71655
 C2766 C 0.97233 0.77137 0.73007
 C2767 C 0.96617 0.78252 0.73663
 C2768 C 0.95585 0.78969 0.72989
 H2769 H 0.91150 0.80498 0.66924
 H2770 H 0.89227 0.81609 0.65820
 H2771 H 0.88196 0.83480 0.69774
 H2772 H 0.90139 0.82401 0.70869
 H2773 H 0.95467 0.77164 0.69941
 H2774 H 0.97260 0.75911 0.71120
 H2775 H 0.96923 0.78566 0.74705
 H2776 H 0.95127 0.79818 0.73529
 C2777 C 0.59226 0.31373 0.30917
 C2778 C 0.60078 0.32227 0.30137
 C2779 C 0.61183 0.32861 0.30772
 C2780 C 0.61460 0.32661 0.32205
 C2781 C 0.60594 0.31824 0.32990
 C2782 C 0.59492 0.31186 0.32353
 C2783 C 0.58081 0.30663 0.30233
 N2784 N 0.57360 0.29712 0.30940
 N2785 N 0.56351 0.29052 0.30317
 C2786 C 0.56018 0.29315 0.28961
 N2787 N 0.56736 0.30271 0.28257
 N2788 N 0.57746 0.30929 0.28879
 C2789 C 0.54912 0.28562 0.28260
 C2790 C 0.54482 0.28923 0.26904
 C2791 C 0.53454 0.28197 0.26235
 C2792 C 0.52838 0.27089 0.26904
 C2793 C 0.53263 0.26732 0.28261
 C2794 C 0.54285 0.27461 0.28933
 H2795 H 0.59906 0.32391 0.29028
 H2796 H 0.61837 0.33482 0.30130
 H2797 H 0.60761 0.31666 0.34099
 H2798 H 0.58851 0.30544 0.32989
 H2799 H 0.54940 0.29766 0.26356
 H2800 H 0.53151 0.28499 0.25189
 H2801 H 0.52807 0.25885 0.28806
 H2802 H 0.54591 0.27154 0.29977
 C2803 C 0.59228 0.81408 0.80977
 C2804 C 0.60077 0.82268 0.80200
 C2805 C 0.61185 0.82896 0.80834
 C2806 C 0.61470 0.82684 0.82264
 C2807 C 0.60608 0.81840 0.83045
 C2808 C 0.59502 0.81208 0.82410
 C2809 C 0.58078 0.80707 0.80293
 N2810 N 0.57356 0.79752 0.80995
 N2811 N 0.56342 0.79101 0.80371
 C2812 C 0.56004 0.79377 0.79020
 N2813 N 0.56721 0.80336 0.78320
 N2814 N 0.57737 0.80985 0.78943
 C2815 C 0.54892 0.78633 0.78317
 C2816 C 0.54461 0.79004 0.76964
 C2817 C 0.53430 0.78285 0.76291
 C2818 C 0.52812 0.77174 0.76952
 C2819 C 0.53238 0.76807 0.78307
 C2820 C 0.54263 0.77530 0.78983
 H2821 H 0.59899 0.82441 0.79093
 H2822 H 0.61836 0.83522 0.80194
 H2823 H 0.60782 0.81672 0.84153
 H2824 H 0.58865 0.80560 0.83043
 H2825 H 0.54920 0.79849 0.76421
 H2826 H 0.53127 0.78594 0.75247
 H2827 H 0.52780 0.75958 0.78847
 H2828 H 0.54570 0.77215 0.80024
 C2829 C 0.09246 0.31272 0.80965
 C2830 C 0.10075 0.32155 0.80192
 C2831 C 0.11181 0.32790 0.80824
 C2832 C 0.11482 0.32564 0.82247
 C2833 C 0.10643 0.31692 0.83024
 C2834 C 0.09541 0.31052 0.82390
 C2835 C 0.08093 0.30573 0.80285
 N2836 N 0.07384 0.29606 0.80982
 N2837 N 0.06363 0.28961 0.80362
 C2838 C 0.06004 0.29258 0.79021
 N2839 N 0.06709 0.30230 0.78327
 N2840 N 0.07732 0.30872 0.78945
 C2841 C 0.04883 0.28524 0.78322
 C2842 C 0.04438 0.28914 0.76980
 C2843 C 0.03400 0.28205 0.76309
 C2844 C 0.02788 0.27086 0.76961
 C2845 C 0.03225 0.26702 0.78307
 C2846 C 0.04258 0.27415 0.78981
 H2847 H 0.09882 0.32343 0.79091
 H2848 H 0.11814 0.33438 0.80188
 H2849 H 0.10830 0.31511 0.84127
 H2850 H 0.08919 0.30386 0.83020
 H2851 H 0.04893 0.29765 0.76443
 H2852 H 0.03087 0.28527 0.75272
 H2853 H 0.02773 0.25846 0.78839
 H2854 H 0.04576 0.27086 0.80014
 C2855 C 0.09302 0.81341 0.31008
 C2856 C 0.10133 0.82223 0.30236
 C2857 C 0.11240 0.82855 0.30869
 C2858 C 0.11542 0.82624 0.32291
 C2859 C 0.10702 0.81752 0.33066
 C2860 C 0.09598 0.81117 0.32432
 C2861 C 0.08146 0.80646 0.30327
 N2862 N 0.07436 0.79679 0.31023
 N2863 N 0.06413 0.79038 0.30404
 C2864 C 0.06055 0.79337 0.29063
 N2865 N 0.06761 0.80307 0.28369
 N2866 N 0.07786 0.80947 0.28987
 C2867 C 0.04931 0.78605 0.28364
 C2868 C 0.04485 0.78996 0.27022
 C2869 C 0.03445 0.78289 0.26353
 C2870 C 0.02832 0.77172 0.27006
 C2871 C 0.03270 0.76786 0.28351
 C2872 C 0.04306 0.77497 0.29024
 H2873 H 0.09939 0.82415 0.29135
 H2874 H 0.11874 0.83503 0.30234
 H2875 H 0.10890 0.81568 0.34168
 H2876 H 0.08975 0.80450 0.33061
 H2877 H 0.04941 0.79847 0.26485
 H2878 H 0.03131 0.78612 0.25316
 H2879 H 0.02817 0.75931 0.28883
 H2880 H 0.04624 0.77167 0.30056
 C2881 C 0.59273 0.68745 0.69087
 C2882 C 0.60106 0.67867 0.69863
 C2883 C 0.61210 0.67226 0.69231
 C2884 C 0.61505 0.67443 0.67804
 C2885 C 0.60661 0.68308 0.67025
 C2886 C 0.59561 0.68953 0.67659
 C2887 C 0.58123 0.69452 0.69766
 N2888 N 0.57412 0.70414 0.69063
 N2889 N 0.56394 0.71067 0.69680
 C2890 C 0.56041 0.70784 0.71027
 N2891 N 0.56749 0.69818 0.71728
 N2892 N 0.57769 0.69168 0.71112
 C2893 C 0.54922 0.71527 0.71722
 C2894 C 0.54480 0.71151 0.73069
 C2895 C 0.53442 0.71866 0.73734
 C2896 C 0.52827 0.72978 0.73070
 C2897 C 0.53263 0.73350 0.71721
 C2898 C 0.54296 0.72630 0.71052
 H2899 H 0.59918 0.67687 0.70967
 H2900 H 0.61846 0.66582 0.69869
 H2901 H 0.60843 0.68481 0.65920
 H2902 H 0.58936 0.69615 0.67026
 H2903 H 0.54937 0.70304 0.73614
 H2904 H 0.53130 0.71554 0.74774
 H2905 H 0.52808 0.74200 0.71180
 H2906 H 0.54611 0.72949 0.70016
 C2907 C 0.59215 0.18585 0.19003
 C2908 C 0.59488 0.18784 0.17570
 C2909 C 0.60590 0.18145 0.16932
 C2910 C 0.61449 0.17296 0.17712
 C2911 C 0.61166 0.17086 0.19142
 C2912 C 0.60062 0.17721 0.19779
 C2913 C 0.58071 0.19295 0.19689
 N2914 N 0.57732 0.19021 0.21041
 N2915 N 0.56722 0.19679 0.21666
 C2916 C 0.56007 0.20641 0.20966
 N2917 N 0.56343 0.20912 0.19613
 N2918 N 0.57352 0.20253 0.18987
 C2919 C 0.54901 0.21394 0.21670
 C2920 C 0.54274 0.22497 0.21002
 C2921 C 0.53253 0.23227 0.21678
 C2922 C 0.52830 0.22866 0.23035
 C2923 C 0.53446 0.21754 0.23699
 C2924 C 0.54473 0.21029 0.23026
 H2925 H 0.58852 0.19435 0.16937
 H2926 H 0.60763 0.18311 0.15825
 H2927 H 0.61815 0.16456 0.19781
 H2928 H 0.59885 0.17548 0.20886
 H2929 H 0.54579 0.22807 0.19959
 H2930 H 0.52797 0.24076 0.21137
 H2931 H 0.53144 0.21450 0.24745
 H2932 H 0.54931 0.20183 0.23570
 C2933 C 0.09272 0.68808 0.19065
 C2934 C 0.10103 0.67922 0.19835
 C2935 C 0.11202 0.67281 0.19198
 C2936 C 0.11496 0.67504 0.17772
 C2937 C 0.10657 0.68379 0.16999
 C2938 C 0.09560 0.69025 0.17638
 C2939 C 0.08124 0.69513 0.19751
 N2940 N 0.07414 0.70482 0.19057
 N2941 N 0.06397 0.71131 0.19680
 C2942 C 0.06044 0.70836 0.21024
 N2943 N 0.06751 0.69863 0.21716
 N2944 N 0.07769 0.69216 0.21093
 C2945 C 0.04927 0.71574 0.21726
 C2946 C 0.04485 0.71185 0.23070
 C2947 C 0.03448 0.71895 0.23743
 C2948 C 0.02833 0.73014 0.23091
 C2949 C 0.03269 0.73398 0.21745
 C2950 C 0.04301 0.72684 0.21068
 H2951 H 0.09915 0.67736 0.20938
 H2952 H 0.11836 0.66631 0.19831
 H2953 H 0.10839 0.68558 0.15896
 H2954 H 0.08937 0.69693 0.17011
 H2955 H 0.04941 0.70333 0.23606
 H2956 H 0.03137 0.71574 0.24780
 H2957 H 0.02814 0.74254 0.21213
 H2958 H 0.04616 0.73012 0.20035
 C2959 C 0.09226 0.18704 0.69004
 C2960 C 0.09500 0.18905 0.67572
 C2961 C 0.10604 0.18270 0.66935
 C2962 C 0.11466 0.17423 0.67715
 C2963 C 0.11182 0.17211 0.69144
 C2964 C 0.10075 0.17842 0.69780
 C2965 C 0.08077 0.19407 0.69690
 N2966 N 0.07735 0.19123 0.71039
 N2967 N 0.06719 0.19772 0.71664
 C2968 C 0.06004 0.20736 0.70968
 N2969 N 0.06344 0.21018 0.69618
 N2970 N 0.07358 0.20366 0.68992
 C2971 C 0.04891 0.21478 0.71673
 C2972 C 0.04262 0.22585 0.71013
 C2973 C 0.03234 0.23303 0.71691
 C2974 C 0.02805 0.22927 0.73042
 C2975 C 0.03424 0.21811 0.73697
 C2976 C 0.04457 0.21098 0.73022
 H2977 H 0.08862 0.19555 0.66940
 H2978 H 0.10777 0.18438 0.65827
 H2979 H 0.11832 0.16582 0.69784
 H2980 H 0.09898 0.17668 0.70887
 H2981 H 0.04572 0.22907 0.69975
 H2982 H 0.02776 0.24156 0.71157
 H2983 H 0.03118 0.21495 0.74737
 H2984 H 0.04916 0.20248 0.73560
 C2985 C 0.40673 0.68765 0.30886
 C2986 C 0.39841 0.67889 0.30109
 C2987 C 0.38737 0.67249 0.30740
 C2988 C 0.38441 0.67464 0.32167
 C2989 C 0.39284 0.68329 0.32947
 C2990 C 0.40384 0.68974 0.32314
 C2991 C 0.41825 0.69470 0.30208
 N2992 N 0.42537 0.70429 0.30912
 N2993 N 0.43558 0.71078 0.30296
 C2994 C 0.43912 0.70793 0.28951
 N2995 N 0.43203 0.69829 0.28249
 N2996 N 0.42181 0.69183 0.28864
 C2997 C 0.45035 0.71530 0.28258
 C2998 C 0.45479 0.71150 0.26912
 C2999 C 0.46522 0.71859 0.26249
 C3000 C 0.47140 0.72969 0.26913
 C3001 C 0.46701 0.73345 0.28261
 C3002 C 0.45663 0.72631 0.28927
 H3003 H 0.40030 0.67709 0.29005
 H3004 H 0.38102 0.66606 0.30102
 H3005 H 0.39101 0.68501 0.34052
 H3006 H 0.41008 0.69634 0.32948
 H3007 H 0.45021 0.70305 0.26367
 H3008 H 0.46835 0.71545 0.25211
 H3009 H 0.47158 0.74193 0.28802
 H3010 H 0.45346 0.72952 0.29962
 C3011 C 0.40822 0.18555 0.81056
 C3012 C 0.39974 0.17693 0.80282
 C3013 C 0.38868 0.17063 0.80919
 C3014 C 0.38585 0.17275 0.82349
 C3015 C 0.39447 0.18122 0.83128
 C3016 C 0.40550 0.18756 0.82489
 C3017 C 0.41968 0.19260 0.80369
 N3018 N 0.42687 0.20218 0.81068
 N3019 N 0.43696 0.20874 0.80440
 C3020 C 0.44031 0.20599 0.79088
 N3021 N 0.43317 0.19637 0.78391
 N3022 N 0.42306 0.18983 0.79017
 C3023 C 0.45137 0.21350 0.78380
 C3024 C 0.45565 0.20982 0.77026
 C3025 C 0.46588 0.21706 0.76349
 C3026 C 0.47202 0.22821 0.77008
 C3027 C 0.46780 0.23185 0.78364
 C3028 C 0.45762 0.22456 0.79044
 H3029 H 0.40150 0.17519 0.79175
 H3030 H 0.38218 0.16435 0.80281
 H3031 H 0.39275 0.18290 0.84235
 H3032 H 0.41188 0.19406 0.83121
 H3033 H 0.45108 0.20133 0.76485
 H3034 H 0.46890 0.21400 0.75304
 H3035 H 0.47234 0.24037 0.78902
 H3036 H 0.45457 0.22769 0.80086
 C3037 C 0.90719 0.68791 0.80884
 C3038 C 0.89885 0.67914 0.80108
 C3039 C 0.88777 0.67282 0.80739
 C3040 C 0.88477 0.67506 0.82163
 C3041 C 0.89320 0.68372 0.82942
 C3042 C 0.90425 0.69009 0.82309
 C3043 C 0.91876 0.69487 0.80206
 N3044 N 0.92590 0.70448 0.80907
 N3045 N 0.93614 0.71089 0.80291
 C3046 C 0.93972 0.70796 0.78948
 N3047 N 0.93261 0.69832 0.78249
 N3048 N 0.92235 0.69192 0.78864
 C3049 C 0.95098 0.71527 0.78254
 C3050 C 0.95544 0.71142 0.76911
 C3051 C 0.96588 0.71848 0.76246
 C3052 C 0.97205 0.72960 0.76906
 C3053 C 0.96766 0.73340 0.78252
 C3054 C 0.95727 0.72630 0.78920
 H3055 H 0.90078 0.67728 0.79006
 H3056 H 0.88141 0.66638 0.80102
 H3057 H 0.89134 0.68551 0.84045
 H3058 H 0.91050 0.69670 0.82941
 H3059 H 0.95085 0.70296 0.76368
 H3060 H 0.96902 0.71530 0.75208
 H3061 H 0.97223 0.74190 0.78790
 H3062 H 0.95410 0.72955 0.79954
 C3063 C 0.90766 0.18661 0.31006
 C3064 C 0.90490 0.18866 0.32438
 C3065 C 0.89385 0.18235 0.33075
 C3066 C 0.88524 0.17388 0.32296
 C3067 C 0.88808 0.17173 0.30867
 C3068 C 0.89917 0.17800 0.30231
 C3069 C 0.91916 0.19360 0.30320
 N3070 N 0.92260 0.19073 0.28972
 N3071 N 0.93277 0.19718 0.28347
 C3072 C 0.93993 0.20681 0.29042
 N3073 N 0.93652 0.20966 0.30391
 N3074 N 0.92637 0.20318 0.31017
 C3075 C 0.95106 0.21420 0.28336
 C3076 C 0.95735 0.22527 0.28994
 C3077 C 0.96763 0.23243 0.28315
 C3078 C 0.97190 0.22865 0.26964
 C3079 C 0.96572 0.21750 0.26311
 C3080 C 0.95540 0.21038 0.26987
 H3081 H 0.91128 0.19515 0.33069
 H3082 H 0.89211 0.18405 0.34182
 H3083 H 0.88159 0.16545 0.30228
 H3084 H 0.90095 0.17623 0.29125
 H3085 H 0.95426 0.22850 0.30032
 H3086 H 0.97220 0.24096 0.28848
 H3087 H 0.96877 0.21433 0.25270
 H3088 H 0.95080 0.20189 0.26450
 C3089 C 0.31107 0.31123 0.59619
 C3090 C 0.32494 0.30917 0.59859
 C3091 C 0.33148 0.31568 0.60970
 C3092 C 0.32430 0.32436 0.61873
 C3093 C 0.31042 0.32640 0.61631
 C3094 C 0.30390 0.31995 0.60516
 C3095 C 0.30409 0.30428 0.58445
 N3096 N 0.29113 0.30747 0.58108
 N3097 N 0.28482 0.30119 0.57060
 C3098 C 0.29118 0.29141 0.56305
 N3099 N 0.30415 0.28822 0.56641
 N3100 N 0.31047 0.29453 0.57687
 C3101 C 0.28407 0.28431 0.55150
 C3102 C 0.28994 0.27299 0.54493
 C3103 C 0.28309 0.26615 0.53424
 C3104 C 0.27025 0.27052 0.52981
 C3105 C 0.26444 0.28191 0.53628
 C3106 C 0.27125 0.28870 0.54702
 H3107 H 0.33079 0.30258 0.59183
 H3108 H 0.34220 0.31403 0.61110
 H3109 H 0.30451 0.33282 0.62316
 H3110 H 0.29319 0.32170 0.60368
 H3111 H 0.29979 0.26932 0.54812
 H3112 H 0.28784 0.25741 0.52945
 H3113 H 0.25456 0.28553 0.53313
 H3114 H 0.26645 0.29740 0.55182
 C3115 C 0.31105 0.81073 0.09592
 C3116 C 0.31981 0.80361 0.10490
 C3117 C 0.32628 0.81021 0.11599
 C3118 C 0.32422 0.82412 0.11834
 C3119 C 0.31551 0.83125 0.10931
 C3120 C 0.30898 0.82463 0.09826
 C3121 C 0.30406 0.80368 0.08426
 N3122 N 0.29432 0.81005 0.07667
 N3123 N 0.28796 0.80367 0.06627
 C3124 C 0.29109 0.79066 0.06299
 N3125 N 0.30086 0.78430 0.07056
 N3126 N 0.30719 0.79067 0.08097
 C3127 C 0.28393 0.78350 0.05151
 C3128 C 0.28823 0.77061 0.04710
 C3129 C 0.28139 0.76379 0.03639
 C3130 C 0.27005 0.76966 0.02990
 C3131 C 0.26578 0.78256 0.03427
 C3132 C 0.27266 0.78942 0.04492
 H3133 H 0.32158 0.79288 0.10346
 H3134 H 0.33274 0.80434 0.12284
 H3135 H 0.31384 0.84199 0.11065
 H3136 H 0.30237 0.83045 0.09150
 H3137 H 0.29688 0.76577 0.05191
 H3138 H 0.28493 0.75386 0.03328
 H3139 H 0.25709 0.78737 0.02947
 H3140 H 0.26907 0.79933 0.04807
 C3141 C 0.81093 0.31121 0.09599
 C3142 C 0.82482 0.30915 0.09827
 C3143 C 0.83147 0.31571 0.10929
 C3144 C 0.82437 0.32443 0.11835
 C3145 C 0.81048 0.32648 0.11605
 C3146 C 0.80385 0.31998 0.10499
 C3147 C 0.80386 0.30420 0.08436
 N3148 N 0.79085 0.30734 0.08112
 N3149 N 0.78446 0.30099 0.07073
 C3150 C 0.79078 0.29120 0.06315
 N3151 N 0.80379 0.28807 0.06639
 N3152 N 0.81019 0.29444 0.07676
 C3153 C 0.78360 0.28403 0.05170
 C3154 C 0.78948 0.27273 0.04511
 C3155 C 0.78260 0.26583 0.03449
 C3156 C 0.76971 0.27012 0.03015
 C3157 C 0.76388 0.28148 0.03664
 C3158 C 0.77072 0.28833 0.04732
 H3159 H 0.83061 0.30253 0.09150
 H3160 H 0.84220 0.31405 0.11059
 H3161 H 0.80463 0.33294 0.12292
 H3162 H 0.79313 0.32174 0.10359
 H3163 H 0.79937 0.26912 0.04824
 H3164 H 0.78738 0.25712 0.02968
 H3165 H 0.75395 0.28504 0.03355
 H3166 H 0.76590 0.29701 0.05213
 C3167 C 0.81070 0.81008 0.59633
 C3168 C 0.81945 0.80294 0.60529
 C3169 C 0.82598 0.80953 0.61635
 C3170 C 0.82399 0.82344 0.61869
 C3171 C 0.81528 0.83060 0.60967
 C3172 C 0.80869 0.82399 0.59865
 C3173 C 0.80366 0.80305 0.58468
 N3174 N 0.79393 0.80945 0.57711
 N3175 N 0.78754 0.80310 0.56672
 C3176 C 0.79062 0.79007 0.56343
 N3177 N 0.80038 0.78368 0.57097
 N3178 N 0.80675 0.79003 0.58138
 C3179 C 0.78344 0.78296 0.55194
 C3180 C 0.78771 0.77007 0.54748
 C3181 C 0.78087 0.76330 0.53674
 C3182 C 0.76955 0.76922 0.53026
 C3183 C 0.76529 0.78210 0.53468
 C3184 C 0.77218 0.78892 0.54537
 H3185 H 0.82117 0.79220 0.60387
 H3186 H 0.83243 0.80364 0.62320
 H3187 H 0.81366 0.84135 0.61099
 H3188 H 0.80209 0.82983 0.59190
 H3189 H 0.79636 0.76520 0.55228
 H3190 H 0.78440 0.75338 0.53359
 H3191 H 0.75662 0.78695 0.52989
 H3192 H 0.76860 0.79881 0.54854
 C3193 C 0.31055 0.68850 0.40376
 C3194 C 0.32443 0.69055 0.40137
 C3195 C 0.33096 0.68410 0.39021
 C3196 C 0.32379 0.67549 0.38113
 C3197 C 0.30991 0.67344 0.38354
 C3198 C 0.30339 0.67983 0.39474
 C3199 C 0.30359 0.69542 0.41553
 N3200 N 0.29058 0.69236 0.41882
 N3201 N 0.28429 0.69866 0.42931
 C3202 C 0.29072 0.70833 0.43694
 N3203 N 0.30372 0.71139 0.43366
 N3204 N 0.31003 0.70506 0.42319
 C3205 C 0.28364 0.71549 0.44848
 C3206 C 0.28967 0.72666 0.45514
 C3207 C 0.28289 0.73359 0.46582
 C3208 C 0.26995 0.72946 0.47015
 C3209 C 0.26398 0.71821 0.46361
 C3210 C 0.27072 0.71133 0.45287
 H3211 H 0.33028 0.69709 0.40816
 H3212 H 0.34169 0.68575 0.38882
 H3213 H 0.30400 0.66706 0.37666
 H3214 H 0.29268 0.67808 0.39622
 H3215 H 0.29960 0.73016 0.45202
 H3216 H 0.28779 0.74221 0.47066
 H3217 H 0.25401 0.71478 0.46670
 H3218 H 0.26579 0.70274 0.44801
 C3219 C 0.31130 0.18938 0.90434
 C3220 C 0.32007 0.19645 0.89535
 C3221 C 0.32657 0.18979 0.88430
 C3222 C 0.32452 0.17588 0.88201
 C3223 C 0.31579 0.16880 0.89105
 C3224 C 0.30924 0.17547 0.90206
 C3225 C 0.30430 0.19648 0.91597
 N3226 N 0.29456 0.19015 0.92357
 N3227 N 0.28819 0.19658 0.93394
 C3228 C 0.29131 0.20960 0.93717
 N3229 N 0.30108 0.21592 0.92959
 N3230 N 0.30742 0.20950 0.91920
 C3231 C 0.28415 0.21681 0.94862
 C3232 C 0.28843 0.22971 0.95299
 C3233 C 0.28159 0.23657 0.96367
 C3234 C 0.27025 0.23073 0.97018
 C3235 C 0.26599 0.21782 0.96585
 C3236 C 0.27288 0.21092 0.95522
 H3237 H 0.32184 0.20718 0.89674
 H3238 H 0.33304 0.19563 0.87744
 H3239 H 0.31413 0.15805 0.88976
 H3240 H 0.30261 0.16969 0.90883
 H3241 H 0.29709 0.23453 0.94816
 H3242 H 0.28513 0.24651 0.96675
 H3243 H 0.25731 0.21303 0.97067
 H3244 H 0.26929 0.20101 0.95212
 C3245 C 0.81064 0.68945 0.90344
 C3246 C 0.80350 0.68075 0.89443
 C3247 C 0.81005 0.67432 0.88327
 C3248 C 0.82392 0.67638 0.88087
 C3249 C 0.83107 0.68505 0.88992
 C3250 C 0.82451 0.69153 0.90105
 C3251 C 0.80365 0.69636 0.91520
 N3252 N 0.81002 0.70607 0.92282
 N3253 N 0.80368 0.71236 0.93330
 C3254 C 0.79072 0.70917 0.93664
 N3255 N 0.78436 0.69943 0.92904
 N3256 N 0.79068 0.69318 0.91854
 C3257 C 0.78360 0.71625 0.94821
 C3258 C 0.77077 0.71188 0.95267
 C3259 C 0.76397 0.71866 0.96344
 C3260 C 0.76980 0.73001 0.96995
 C3261 C 0.78264 0.73435 0.96554
 C3262 C 0.78949 0.72752 0.95482
 H3263 H 0.79279 0.67898 0.89591
 H3264 H 0.80416 0.66791 0.87641
 H3265 H 0.84180 0.68671 0.88854
 H3266 H 0.83034 0.69811 0.90782
 H3267 H 0.76595 0.70322 0.94784
 H3268 H 0.75408 0.71506 0.96658
 H3269 H 0.78742 0.74305 0.97035
 H3270 H 0.79934 0.73118 0.95164
 C3271 C 0.81084 0.19011 0.40410
 C3272 C 0.80884 0.17620 0.40178
 C3273 C 0.81538 0.16960 0.39072
 C3274 C 0.82402 0.17676 0.38165
 C3275 C 0.82601 0.19067 0.38399
 C3276 C 0.81953 0.19726 0.39509
 C3277 C 0.80383 0.19714 0.41578
 N3278 N 0.80685 0.21018 0.41902
 N3279 N 0.80048 0.21652 0.42944
 C3280 C 0.79080 0.21010 0.43705
 N3281 N 0.78779 0.19705 0.43381
 N3282 N 0.79418 0.19070 0.42341
 C3283 C 0.78358 0.21721 0.44853
 C3284 C 0.77242 0.21116 0.45517
 C3285 C 0.76546 0.21796 0.46582
 C3286 C 0.76956 0.23093 0.47015
 C3287 C 0.78079 0.23693 0.46361
 C3288 C 0.78770 0.23017 0.45290
 H3289 H 0.80228 0.17036 0.40857
 H3290 H 0.81376 0.15885 0.38939
 H3291 H 0.83242 0.19656 0.37711
 H3292 H 0.82125 0.20800 0.39652
 H3293 H 0.76895 0.20121 0.45206
 H3294 H 0.75686 0.21304 0.47066
 H3295 H 0.78420 0.24691 0.46669
 H3296 H 0.79628 0.23511 0.44804
 C3297 C 0.68841 0.31075 0.40379
 C3298 C 0.69045 0.32464 0.40140
 C3299 C 0.68403 0.33119 0.39023
 C3300 C 0.67544 0.32400 0.38114
 C3301 C 0.67339 0.31010 0.38355
 C3302 C 0.67977 0.30357 0.39475
 C3303 C 0.69530 0.30377 0.41557
 N3304 N 0.69224 0.29074 0.41885
 N3305 N 0.69852 0.28443 0.42935
 C3306 C 0.70815 0.29087 0.43700
 N3307 N 0.71121 0.30390 0.43373
 N3308 N 0.70491 0.31022 0.42325
 C3309 C 0.71529 0.28378 0.44856
 C3310 C 0.72643 0.28982 0.45524
 C3311 C 0.73334 0.28302 0.46592
 C3312 C 0.72922 0.27006 0.47024
 C3313 C 0.71800 0.26407 0.46367
 C3314 C 0.71114 0.27083 0.45293
 H3315 H 0.69698 0.33050 0.40820
 H3316 H 0.68567 0.34193 0.38885
 H3317 H 0.66703 0.30419 0.37665
 H3318 H 0.67802 0.29284 0.39623
 H3319 H 0.72992 0.29977 0.45213
 H3320 H 0.74194 0.28793 0.47078
 H3321 H 0.71458 0.25409 0.46675
 H3322 H 0.70258 0.26589 0.44805
 C3323 C 0.68907 0.81063 0.90381
 C3324 C 0.68035 0.80350 0.89482
 C3325 C 0.67388 0.81008 0.88371
 C3326 C 0.67591 0.82399 0.88134
 C3327 C 0.68459 0.83113 0.89039
 C3328 C 0.69111 0.82453 0.90146
 C3329 C 0.69605 0.80360 0.91551
 N3330 N 0.70575 0.80998 0.92311
 N3331 N 0.71210 0.80361 0.93353
 C3332 C 0.70899 0.79060 0.93682
 N3333 N 0.69925 0.78423 0.92924
 N3334 N 0.69293 0.79058 0.91880
 C3335 C 0.71614 0.78346 0.94833
 C3336 C 0.71186 0.77057 0.95275
 C3337 C 0.71870 0.76376 0.96348
 C3338 C 0.73002 0.76964 0.96998
 C3339 C 0.73427 0.78254 0.96560
 C3340 C 0.72738 0.78939 0.95493
 H3341 H 0.67860 0.79276 0.89626
 H3342 H 0.66746 0.80420 0.87685
 H3343 H 0.68623 0.84188 0.88904
 H3344 H 0.69770 0.83036 0.90823
 H3345 H 0.70322 0.76571 0.94793
 H3346 H 0.71517 0.75383 0.96660
 H3347 H 0.74294 0.78735 0.97042
 H3348 H 0.73096 0.79929 0.95178
 C3349 C 0.18928 0.31117 0.90392
 C3350 C 0.17540 0.30910 0.90162
 C3351 C 0.16876 0.31562 0.89056
 C3352 C 0.17586 0.32432 0.88149
 C3353 C 0.18975 0.32637 0.88380
 C3354 C 0.19637 0.31990 0.89490
 C3355 C 0.19635 0.30422 0.91561
 N3356 N 0.20934 0.30738 0.91887
 N3357 N 0.21572 0.30109 0.92931
 C3358 C 0.20941 0.29133 0.93692
 N3359 N 0.19642 0.28817 0.93366
 N3360 N 0.19002 0.29449 0.92325
 C3361 C 0.21658 0.28422 0.94843
 C3362 C 0.21072 0.27294 0.95506
 C3363 C 0.21760 0.26610 0.96574
 C3364 C 0.23047 0.27042 0.97009
 C3365 C 0.23628 0.28178 0.96356
 C3366 C 0.22943 0.28857 0.95283
 H3367 H 0.16961 0.30250 0.90841
 H3368 H 0.15803 0.31396 0.88925
 H3369 H 0.19559 0.33281 0.87692
 H3370 H 0.20708 0.32167 0.89631
 H3371 H 0.20084 0.26931 0.95193
 H3372 H 0.21284 0.25740 0.97057
 H3373 H 0.24618 0.28536 0.96666
 H3374 H 0.23424 0.29724 0.94799
 C3375 C 0.18994 0.81128 0.40418
 C3376 C 0.17604 0.80932 0.40191
 C3377 C 0.16942 0.81591 0.39088
 C3378 C 0.17655 0.82457 0.38181
 C3379 C 0.19046 0.82653 0.38410
 C3380 C 0.19706 0.82000 0.39516
 C3381 C 0.19698 0.80423 0.41582
 N3382 N 0.21002 0.80724 0.41903
 N3383 N 0.21637 0.80084 0.42943
 C3384 C 0.20997 0.79113 0.43703
 N3385 N 0.19693 0.78813 0.43382
 N3386 N 0.19057 0.79455 0.42345
 C3387 C 0.21710 0.78389 0.44849
 C3388 C 0.21108 0.77270 0.45513
 C3389 C 0.21789 0.76573 0.46576
 C3390 C 0.23084 0.76984 0.47007
 C3391 C 0.23682 0.78110 0.46353
 C3392 C 0.23004 0.78802 0.45284
 H3393 H 0.17022 0.80274 0.40869
 H3394 H 0.15868 0.81432 0.38959
 H3395 H 0.19633 0.83295 0.37722
 H3396 H 0.20779 0.82169 0.39655
 H3397 H 0.20114 0.76923 0.45204
 H3398 H 0.21300 0.75711 0.47061
 H3399 H 0.24679 0.78451 0.46660
 H3400 H 0.23497 0.79662 0.44798
 C3401 C 0.68899 0.68864 0.59613
 C3402 C 0.69615 0.67992 0.60512
 C3403 C 0.68962 0.67348 0.61627
 C3404 C 0.67574 0.67553 0.61868
 C3405 C 0.66857 0.68420 0.60963
 C3406 C 0.67512 0.69071 0.59852
 C3407 C 0.69598 0.69559 0.58440
 N3408 N 0.68959 0.70533 0.57681
 N3409 N 0.69593 0.71167 0.56637
 C3410 C 0.70890 0.70851 0.56303
 N3411 N 0.71527 0.69874 0.57059
 N3412 N 0.70895 0.69243 0.58106
 C3413 C 0.71602 0.71565 0.55151
 C3414 C 0.72886 0.71132 0.54705
 C3415 C 0.73567 0.71817 0.53634
 C3416 C 0.72983 0.72956 0.52989
 C3417 C 0.71697 0.73386 0.53430
 C3418 C 0.71012 0.72696 0.54495
 H3419 H 0.70686 0.67815 0.60364
 H3420 H 0.69552 0.66705 0.62313
 H3421 H 0.65784 0.68587 0.61102
 H3422 H 0.66928 0.69729 0.59176
 H3423 H 0.73369 0.70263 0.55183
 H3424 H 0.74557 0.71460 0.53320
 H3425 H 0.71218 0.74259 0.52952
 H3426 H 0.70025 0.73058 0.54813
 C3427 C 0.68905 0.18920 0.09622
 C3428 C 0.68031 0.19631 0.10521
 C3429 C 0.67380 0.18969 0.11627
 C3430 C 0.67581 0.17577 0.11858
 C3431 C 0.68452 0.16865 0.10953
 C3432 C 0.69108 0.17528 0.09852
 C3433 C 0.69605 0.19627 0.08457
 N3434 N 0.70578 0.18990 0.07697
 N3435 N 0.71215 0.19630 0.06659
 C3436 C 0.70902 0.20933 0.06333
 N3437 N 0.69926 0.21567 0.07091
 N3438 N 0.69293 0.20929 0.08131
 C3439 C 0.71617 0.21650 0.05185
 C3440 C 0.71187 0.22939 0.04745
 C3441 C 0.71869 0.23622 0.03674
 C3442 C 0.73002 0.23037 0.03024
 C3443 C 0.73432 0.21747 0.03460
 C3444 C 0.72744 0.21059 0.04525
 H3445 H 0.67857 0.20705 0.10381
 H3446 H 0.66735 0.19556 0.12314
 H3447 H 0.68616 0.15789 0.11084
 H3448 H 0.69769 0.16947 0.09174
 H3449 H 0.70321 0.23422 0.05227
 H3450 H 0.71513 0.24615 0.03364
 H3451 H 0.74300 0.21267 0.02978
 H3452 H 0.73105 0.20069 0.04839
 C3453 C 0.18917 0.68921 0.09602
 C3454 C 0.17530 0.69131 0.09835
 C3455 C 0.16867 0.68479 0.10941
 C3456 C 0.17577 0.67607 0.11847
 C3457 C 0.18966 0.67399 0.11612
 C3458 C 0.19626 0.68044 0.10502
 C3459 C 0.19623 0.69616 0.08434
 N3460 N 0.20921 0.69298 0.08106
 N3461 N 0.21558 0.69928 0.07062
 C3462 C 0.20926 0.70906 0.06304
 N3463 N 0.19628 0.71224 0.06631
 N3464 N 0.18989 0.70592 0.07673
 C3465 C 0.21643 0.71619 0.05154
 C3466 C 0.21056 0.72748 0.04493
 C3467 C 0.21743 0.73434 0.03427
 C3468 C 0.23030 0.73001 0.02991
 C3469 C 0.23612 0.71864 0.03641
 C3470 C 0.22929 0.71184 0.04713
 H3471 H 0.16950 0.69793 0.09158
 H3472 H 0.15795 0.68648 0.11075
 H3473 H 0.19551 0.66752 0.12299
 H3474 H 0.20698 0.67865 0.10359
 H3475 H 0.20068 0.73112 0.04807
 H3476 H 0.21266 0.74305 0.02945
 H3477 H 0.24603 0.71506 0.03331
 H3478 H 0.23410 0.70316 0.05196
 C3479 C 0.18905 0.19033 0.59600
 C3480 C 0.19107 0.17642 0.59833
 C3481 C 0.18452 0.16983 0.60939
 C3482 C 0.17585 0.17699 0.61844
 C3483 C 0.17384 0.19090 0.61608
 C3484 C 0.18032 0.19748 0.60498
 C3485 C 0.19606 0.19735 0.58433
 N3486 N 0.19298 0.21037 0.58103
 N3487 N 0.19934 0.21671 0.57061
 C3488 C 0.20908 0.21031 0.56306
 N3489 N 0.21216 0.19728 0.56635
 N3490 N 0.20577 0.19093 0.57674
 C3491 C 0.21628 0.21742 0.55157
 C3492 C 0.22753 0.21143 0.54501
 C3493 C 0.23446 0.21824 0.53435
 C3494 C 0.23025 0.23115 0.52995
 C3495 C 0.21894 0.23709 0.53641
 C3496 C 0.21206 0.23033 0.54713
 H3497 H 0.19765 0.17058 0.59157
 H3498 H 0.18616 0.15907 0.61074
 H3499 H 0.16741 0.19679 0.62294
 H3500 H 0.17859 0.20821 0.60354
 H3501 H 0.23107 0.20152 0.54818
 H3502 H 0.24312 0.21337 0.52957
 H3503 H 0.21545 0.24704 0.53327
 H3504 H 0.20342 0.23522 0.55192
   
