data_POSCAR
  _audit_creation_date              2014-09-24
  _audit_creation_method            'ToBaCCo'
  _symmetry_space_group_name_H-M    'P1'
  _symmetry_Int_Tables_number       1
  _symmetry_cell_setting            triclinic
  loop_
  _symmetry_equiv_pos_as_xyz
 x,y,z
_cell_length_a 46.0547
_cell_length_b 46.0331
_cell_length_c 50.9992
_cell_angle_alpha 90.043900
_cell_angle_beta 90.014700
_cell_angle_gamma 89.877500
loop_
  _atom_site_label
  _atom_site_type_symbol
  _atom_site_fract_x
  _atom_site_fract_y
  _atom_site_fract_z
C1 C 0.41194 -0.03847 0.25290
 C2 C 0.42394 -0.01286 0.24250
 C3 C 0.43680 -0.01339 0.21766
 C4 C 0.43804 -0.03915 0.20322
 C5 C 0.42571 -0.06467 0.21342
 C6 C 0.41246 -0.06437 0.23833
 C7 C 0.42438 0.01428 0.25790
 C8 C 0.43781 0.01454 0.28252
 C9 C 0.43992 0.04034 0.29688
 C10 C 0.42787 0.06613 0.28679
 C11 C 0.41409 0.06605 0.26214
 C12 C 0.41269 0.04015 0.24767
 H13 H 0.40183 -0.03802 0.27211
 H14 H 0.44633 0.00627 0.20974
 H15 H 0.44708 -0.00539 0.29026
 H16 H 0.40214 0.03998 0.22866
 H17 H 0.42617 -0.08450 0.20193
 H18 H 0.42890 0.08605 0.29811
 C19 C 0.08664 -0.03965 0.74721
 C20 C 0.07491 -0.01375 0.75740
 C21 C 0.06200 -0.01384 0.78224
 C22 C 0.06048 -0.03944 0.79686
 C23 C 0.07255 -0.06523 0.78683
 C24 C 0.08580 -0.06537 0.76196
 C25 C 0.07507 0.01332 0.74190
 C26 C 0.06234 0.01361 0.71697
 C27 C 0.06096 0.03935 0.70245
 C28 C 0.07302 0.06501 0.71272
 C29 C 0.08609 0.06489 0.73768
 C30 C 0.08678 0.03908 0.75228
 H31 H 0.09686 -0.03962 0.72806
 H32 H 0.05271 0.00604 0.79005
 H33 H 0.05306 -0.00621 0.70909
 H34 H 0.09683 0.03887 0.77151
 H35 H 0.07194 -0.08496 0.79842
 H36 H 0.07255 0.08487 0.70130
 C37 C 0.58843 0.45899 0.24760
 C38 C 0.57670 0.48490 0.25777
 C39 C 0.56319 0.48471 0.28234
 C40 C 0.56103 0.45898 0.29671
 C41 C 0.57311 0.43317 0.28672
 C42 C 0.58698 0.43314 0.26212
 C43 C 0.57713 0.51201 0.24237
 C44 C 0.56417 0.51253 0.21756
 C45 C 0.56274 0.53833 0.20322
 C46 C 0.57502 0.56387 0.21348
 C47 C 0.58836 0.56355 0.23832
 C48 C 0.58907 0.53764 0.25280
 H49 H 0.59903 0.45910 0.22863
 H50 H 0.55386 0.50461 0.29008
 H51 H 0.55465 0.49286 0.20962
 H52 H 0.59925 0.53728 0.27197
 H53 H 0.57199 0.41334 0.29812
 H54 H 0.57444 0.58376 0.20212
 C55 C 0.91317 0.46079 0.75309
 C56 C 0.92483 0.48649 0.74257
 C57 C 0.93747 0.48603 0.71763
 C58 C 0.93882 0.46023 0.70323
 C59 C 0.92682 0.43463 0.71359
 C60 C 0.91383 0.43489 0.73858
 C61 C 0.92511 0.51367 0.75793
 C62 C 0.93827 0.51397 0.78267
 C63 C 0.94010 0.53975 0.79707
 C64 C 0.92806 0.56550 0.78689
 C65 C 0.91457 0.56540 0.76212
 C66 C 0.91344 0.53951 0.74761
 H67 H 0.90320 0.46112 0.77234
 H68 H 0.94674 0.50575 0.70959
 H69 H 0.94752 0.49407 0.79050
 H70 H 0.90306 0.53932 0.72853
 H71 H 0.92730 0.41475 0.70219
 H72 H 0.92887 0.58541 0.79826
 C73 C 0.26225 0.34130 1.03234
 C74 C 0.26259 0.35951 1.01016
 C75 C 0.28662 0.37783 1.00589
 C76 C 0.31004 0.37798 1.02362
 C77 C 0.30944 0.35968 1.04555
 C78 C 0.28569 0.34132 1.05006
 C79 C 0.23779 0.35943 0.99152
 C80 C 0.21379 0.37799 0.99553
 C81 C 0.19040 0.37800 0.97775
 C82 C 0.19103 0.35933 0.95604
 C83 C 0.21473 0.34077 0.95182
 C84 C 0.23811 0.34086 0.96955
 H85 H 0.24371 0.32734 1.03582
 H86 H 0.28697 0.39200 0.98893
 H87 H 0.21344 0.39244 1.01231
 H88 H 0.25659 0.32672 0.96621
 H89 H 0.32741 0.36001 1.05932
 H90 H 0.17315 0.35950 0.94220
 C91 C 0.73765 0.15832 1.03268
 C92 C 0.73710 0.14039 1.01030
 C93 C 0.71293 0.12230 1.00588
 C94 C 0.68957 0.12209 1.02367
 C95 C 0.69038 0.14014 1.04579
 C96 C 0.71428 0.15827 1.05043
 C97 C 0.76189 0.14048 0.99169
 C98 C 0.78602 0.12216 0.99587
 C99 C 0.80946 0.12220 0.97817
 C100 C 0.80878 0.14073 0.95639
 C101 C 0.78495 0.15908 0.95202
 C102 C 0.76149 0.15889 0.96965
 H103 H 0.75632 0.17209 1.03628
 H104 H 0.71244 0.10832 0.98877
 H105 H 0.78643 0.10784 1.01272
 H106 H 0.74292 0.17288 0.96619
 H107 H 0.67246 0.13977 1.05961
 H108 H 0.82673 0.14062 0.94262
 C109 C 0.23612 0.65901 0.53095
 C110 C 0.23568 0.64089 0.50870
 C111 C 0.21166 0.62253 0.50447
 C112 C 0.18834 0.62229 0.52231
 C113 C 0.18908 0.64052 0.54432
 C114 C 0.21283 0.65887 0.54876
 C115 C 0.26046 0.64102 0.49006
 C116 C 0.28440 0.62238 0.49399
 C117 C 0.30789 0.62254 0.47635
 C118 C 0.30742 0.64146 0.45484
 C119 C 0.28377 0.66012 0.45070
 C120 C 0.26029 0.65985 0.46831
 H121 H 0.25463 0.67298 0.53447
 H122 H 0.21123 0.60840 0.48746
 H123 H 0.28464 0.60777 0.51065
 H124 H 0.24186 0.67409 0.46505
 H125 H 0.17126 0.64017 0.55822
 H126 H 0.32540 0.64144 0.44110
 C127 C 0.76455 0.84197 0.53100
 C128 C 0.76486 0.86045 0.50902
 C129 C 0.78873 0.87907 0.50507
 C130 C 0.81206 0.87920 0.52294
 C131 C 0.81142 0.86061 0.54470
 C132 C 0.78781 0.84202 0.54884
 C133 C 0.74018 0.86029 0.49027
 C134 C 0.71623 0.87896 0.49402
 C135 C 0.69285 0.87871 0.47625
 C136 C 0.69346 0.85970 0.45478
 C137 C 0.71713 0.84103 0.45082
 C138 C 0.74049 0.84135 0.46857
 H139 H 0.74615 0.82778 0.53428
 H140 H 0.78901 0.89341 0.48821
 H141 H 0.71588 0.89364 0.51064
 H142 H 0.75893 0.82709 0.46544
 H143 H 0.82921 0.86080 0.55867
 H144 H 0.67557 0.85967 0.44093
 C145 C -0.03985 0.24891 0.32598
 C146 C -0.01356 0.23996 0.33721
 C147 C -0.01308 0.21671 0.35480
 C148 C -0.03886 0.20305 0.36190
 C149 C -0.06503 0.21145 0.35050
 C150 C -0.06547 0.23434 0.33252
 C151 C 0.01183 0.25875 0.33661
 C152 C 0.01189 0.28263 0.35354
 C153 C 0.03787 0.29642 0.35970
 C154 C 0.06368 0.28758 0.34798
 C155 C 0.06359 0.26410 0.33062
 C156 C 0.03779 0.24936 0.32504
 H157 H -0.04042 0.26776 0.31324
 H158 H 0.00706 0.21095 0.36461
 H159 H -0.00789 0.28876 0.36373
 H160 H 0.03808 0.23004 0.31287
 H161 H -0.08512 0.20094 0.35632
 H162 H 0.08394 0.29812 0.35318
 C163 C -0.03880 0.74783 0.17297
 C164 C -0.01313 0.75771 0.16131
 C165 C -0.01392 0.78105 0.14383
 C166 C -0.04032 0.79383 0.13724
 C167 C -0.06589 0.78455 0.14902
 C168 C -0.06509 0.76159 0.16693
 C169 C 0.01299 0.73982 0.16131
 C170 C 0.01385 0.71657 0.14371
 C171 C 0.04034 0.70401 0.13691
 C172 C 0.06590 0.71344 0.14870
 C173 C 0.06498 0.73628 0.16674
 C174 C 0.03864 0.74980 0.17294
 H175 H -0.03839 0.72892 0.18565
 H176 H 0.00571 0.78756 0.13366
 H177 H -0.00584 0.71005 0.13358
 H178 H 0.03824 0.76866 0.18568
 H179 H -0.08642 0.79447 0.14354
 H180 H 0.08657 0.70386 0.14316
 C181 C 0.46167 0.24839 0.67286
 C182 C 0.48684 0.25867 0.66064
 C183 C 0.48515 0.28175 0.64293
 C184 C 0.45835 0.29391 0.63672
 C185 C 0.43326 0.28419 0.64905
 C186 C 0.43498 0.26149 0.66715
 C187 C 0.51339 0.24148 0.66051
 C188 C 0.51505 0.21867 0.64250
 C189 C 0.54187 0.20665 0.63607
 C190 C 0.56698 0.21625 0.64846
 C191 C 0.56527 0.23870 0.66685
 C192 C 0.53858 0.25165 0.67280
 H193 H 0.46270 0.22969 0.68574
 H194 H 0.50444 0.28860 0.63240
 H195 H 0.49575 0.21192 0.63193
 H196 H 0.53755 0.27016 0.68592
 H197 H 0.41238 0.29356 0.64392
 H198 H 0.58786 0.20699 0.64318
 C199 C 0.46111 0.74995 0.82743
 C200 C 0.48678 0.74033 0.83932
 C201 C 0.48605 0.71741 0.85724
 C202 C 0.45967 0.70472 0.86398
 C203 C 0.43408 0.71380 0.85195
 C204 C 0.43488 0.73636 0.83366
 C205 C 0.51283 0.75816 0.83887
 C206 C 0.51395 0.78158 0.85627
 C207 C 0.54043 0.79450 0.86219
 C208 C 0.56572 0.78520 0.84984
 C209 C 0.56455 0.76216 0.83203
 C210 C 0.53822 0.74830 0.82664
 H211 H 0.46141 0.76854 0.81440
 H212 H 0.50577 0.71112 0.86747
 H213 H 0.49455 0.78811 0.86685
 H214 H 0.53765 0.72935 0.81402
 H215 H 0.41350 0.70407 0.85739
 H216 H 0.58636 0.79514 0.85477
 C217 C -0.29055 0.66255 0.99650
 C218 C -0.26481 0.67438 1.00678
 C219 C -0.26508 0.68728 1.03162
 C220 C -0.29072 0.68873 1.04618
 C221 C -0.31639 0.67656 1.03609
 C222 C -0.31634 0.66329 1.01118
 C223 C -0.23775 0.67454 0.99128
 C224 C -0.23760 0.68761 0.96652
 C225 C -0.21188 0.68946 0.95206
 C226 C -0.18607 0.67752 0.96220
 C227 C -0.18604 0.66411 0.98700
 C228 C -0.21186 0.66295 1.00156
 H229 H -0.29030 0.65239 0.97730
 H230 H -0.24531 0.69668 1.03946
 H231 H -0.25753 0.69682 0.95874
 H232 H -0.21195 0.65267 1.02068
 H233 H -0.33612 0.67716 1.04768
 H234 H -0.16621 0.67837 0.95080
 C235 C -0.29231 0.33752 0.50309
 C236 C -0.26642 0.32580 0.49289
 C237 C -0.26670 0.31202 0.46844
 C238 C -0.29247 0.30959 0.45418
 C239 C -0.31829 0.32167 0.46416
 C240 C -0.31825 0.33582 0.48868
 C241 C -0.23923 0.32650 0.50817
 C242 C -0.23849 0.31375 0.53306
 C243 C -0.21258 0.31250 0.54726
 C244 C -0.18716 0.32474 0.53679
 C245 C -0.18770 0.33787 0.51187
 C246 C -0.21371 0.33841 0.49753
 H247 H -0.29205 0.34832 0.52199
 H248 H -0.24681 0.30270 0.46070
 H249 H -0.25806 0.30425 0.54116
 H250 H -0.21424 0.34841 0.47829
 H251 H -0.33813 0.32032 0.45277
 H252 H -0.16719 0.32428 0.54804
 C253 C 0.21085 -0.16394 0.00259
 C254 C 0.23662 -0.17575 -0.00775
 C255 C 0.23627 -0.18889 -0.03250
 C256 C 0.21049 -0.19057 -0.04691
 C257 C 0.18481 -0.17839 -0.03671
 C258 C 0.18498 -0.16492 -0.01191
 C259 C 0.26378 -0.17559 0.00761
 C260 C 0.26422 -0.18833 0.03251
 C261 C 0.29001 -0.18969 0.04694
 C262 C 0.31560 -0.17759 0.03661
 C263 C 0.31534 -0.16452 0.01166
 C264 C 0.28946 -0.16386 -0.00286
 H265 H 0.21111 -0.15359 0.02169
 H266 H 0.25611 -0.19824 -0.04034
 H267 H 0.24445 -0.19762 0.04045
 H268 H 0.28914 -0.15380 -0.02208
 H269 H 0.16491 -0.17908 -0.04807
 H270 H 0.33550 -0.17803 0.04798
 C271 C 0.21248 1.16266 0.49675
 C272 C 0.23806 1.17473 0.50713
 C273 C 0.23758 1.18745 0.53206
 C274 C 0.21187 1.18849 0.54656
 C275 C 0.18639 1.17609 0.53634
 C276 C 0.18667 1.16301 0.51138
 C277 C 0.26511 1.17533 0.49166
 C278 C 0.26511 1.18859 0.46698
 C279 C 0.29077 1.19070 0.45246
 C280 C 0.31669 1.17884 0.46248
 C281 C 0.31686 1.16525 0.48720
 C282 C 0.29109 1.16384 0.50182
 H283 H 0.21281 1.15263 0.47751
 H284 H 0.25721 1.19704 0.53998
 H285 H 0.24509 1.19769 0.45928
 H286 H 0.29111 1.15339 0.52086
 H287 H 0.16659 1.17635 0.54782
 H288 H 0.33650 1.17986 0.45103
 C289 C 0.09042 0.51397 0.21858
 C290 C 0.10906 0.51409 0.24046
 C291 C 0.12784 0.53785 0.24440
 C292 C 0.12797 0.56123 0.22663
 C293 C 0.10925 0.56079 0.20497
 C294 C 0.09050 0.53730 0.20082
 C295 C 0.10888 0.48934 0.25911
 C296 C 0.12766 0.46547 0.25538
 C297 C 0.12736 0.44199 0.27304
 C298 C 0.10822 0.44244 0.29439
 C299 C 0.08945 0.46604 0.29833
 C300 C 0.08979 0.48948 0.28068
 H301 H 0.07611 0.49566 0.21529
 H302 H 0.14232 0.53805 0.26116
 H303 H 0.14244 0.46524 0.23885
 H304 H 0.07545 0.50786 0.28379
 H305 H 0.10952 0.57865 0.19110
 H306 H 0.10815 0.42449 0.30816
 C307 C -0.09082 0.98596 0.21851
 C308 C -0.10937 0.98560 0.24046
 C309 C -0.12791 0.96166 0.24437
 C310 C -0.12791 0.93829 0.22653
 C311 C -0.10927 0.93895 0.20478
 C312 C -0.09074 0.96265 0.20064
 C313 C -0.10939 1.01030 0.25924
 C314 C -0.12836 1.03405 0.25562
 C315 C -0.12838 1.05741 0.27348
 C316 C -0.10932 1.05693 0.29492
 C317 C -0.09036 1.03345 0.29876
 C318 C -0.09042 1.01016 0.28091
 H319 H -0.07671 1.00445 0.21531
 H320 H -0.14229 0.96134 0.26120
 H321 H -0.14307 1.03421 0.23901
 H322 H -0.07595 0.99187 0.28396
 H323 H -0.10943 0.92108 0.19086
 H324 H -0.10942 1.07474 0.30889
 C325 C 0.40832 0.48796 -0.28215
 C326 C 0.39022 0.48755 -0.25989
 C327 C 0.37206 0.46342 -0.25553
 C328 C 0.37195 0.43996 -0.27325
 C329 C 0.39014 0.44064 -0.29526
 C330 C 0.40834 0.46449 -0.29985
 C331 C 0.39027 0.51236 -0.24123
 C332 C 0.37166 0.53633 -0.24517
 C333 C 0.37156 0.55970 -0.22732
 C334 C 0.39024 0.55904 -0.20561
 C335 C 0.40885 0.53536 -0.20147
 C336 C 0.40882 0.51202 -0.21927
 H337 H 0.42217 0.50658 -0.28569
 H338 H 0.35798 0.46301 -0.23851
 H339 H 0.35723 0.53661 -0.26198
 H340 H 0.42299 0.49355 -0.21597
 H341 H 0.38985 0.42264 -0.30902
 H342 H 0.39009 0.57686 -0.19166
 C343 C 0.59081 0.01280 -0.28277
 C344 C 0.60877 0.01315 -0.26040
 C345 C 0.62699 0.03722 -0.25592
 C346 C 0.62731 0.06066 -0.27362
 C347 C 0.60925 0.06004 -0.29573
 C348 C 0.59099 0.03626 -0.30045
 C349 C 0.60859 -0.01168 -0.24182
 C350 C 0.62699 -0.03579 -0.24591
 C351 C 0.62700 -0.05917 -0.22814
 C352 C 0.60847 -0.05844 -0.20637
 C353 C 0.59006 -0.03464 -0.20206
 C354 C 0.59017 -0.01125 -0.21977
 H355 H 0.57695 -0.00578 -0.28642
 H356 H 0.64097 0.03758 -0.23883
 H357 H 0.64135 -0.03621 -0.26274
 H358 H 0.57616 0.00733 -0.21635
 H359 H 0.60971 0.07803 -0.30947
 H360 H 0.60864 -0.07632 -0.19252
 C361 C 0.00087 0.21167 0.92388
 C362 C -0.00905 0.23707 0.91170
 C363 C -0.03226 0.23586 0.89410
 C364 C -0.04491 0.20930 0.88795
 C365 C -0.03555 0.18401 0.90026
 C366 C -0.01272 0.18526 0.91826
 C367 C 0.00865 0.26323 0.91144
 C368 C 0.03174 0.26407 0.89371
 C369 C 0.04436 0.29051 0.88710
 C370 C 0.03507 0.31605 0.89906
 C371 C 0.01235 0.31517 0.91717
 C372 C -0.00119 0.28887 0.92328
 H373 H 0.01968 0.21232 0.93665
 H374 H -0.03882 0.25528 0.88356
 H375 H 0.03825 0.24444 0.88344
 H376 H -0.01991 0.28849 0.93616
 H377 H -0.04528 0.16331 0.89515
 H378 H 0.04478 0.33664 0.89361
 C379 C 0.49872 0.21144 0.07731
 C380 C 0.50901 0.23676 0.08934
 C381 C 0.53227 0.23529 0.10687
 C382 C 0.54461 0.20856 0.11310
 C383 C 0.53488 0.18334 0.10096
 C384 C 0.51199 0.18484 0.08303
 C385 C 0.49163 0.26320 0.08952
 C386 C 0.46861 0.26455 0.10731
 C387 C 0.45624 0.29122 0.11373
 C388 C 0.46572 0.31650 0.10156
 C389 C 0.48837 0.31511 0.08339
 C390 C 0.50166 0.28856 0.07746
 H391 H 0.47988 0.21231 0.06458
 H392 H 0.53911 0.25467 0.11730
 H393 H 0.46194 0.24511 0.11772
 H394 H 0.52031 0.28778 0.06450
 H395 H 0.54436 0.16252 0.10612
 H396 H 0.45618 0.33727 0.10683
 C397 C -0.00221 0.71166 0.57813
 C398 C 0.00797 0.73702 0.59016
 C399 C 0.03131 0.73567 0.60761
 C400 C 0.04381 0.70900 0.61379
 C401 C 0.03420 0.68374 0.60164
 C402 C 0.01125 0.68513 0.58377
 C403 C -0.00955 0.76337 0.59047
 C404 C -0.03245 0.76455 0.60840
 C405 C -0.04476 0.79119 0.61512
 C406 C -0.03535 0.81659 0.60305
 C407 C -0.01283 0.81533 0.58473
 C408 C 0.00040 0.78884 0.57853
 H409 H -0.02111 0.71243 0.56546
 H410 H 0.03807 0.75507 0.61805
 H411 H -0.03899 0.74497 0.61867
 H412 H 0.01897 0.78817 0.56549
 H413 H 0.04382 0.66297 0.60676
 H414 H -0.04479 0.83737 0.60847
 C415 C 0.50098 0.71133 0.42400
 C416 C 0.49164 0.73731 0.41245
 C417 C 0.46820 0.73720 0.39506
 C418 C 0.45476 0.71115 0.38847
 C419 C 0.46355 0.68530 0.40017
 C420 C 0.48661 0.68545 0.41796
 C421 C 0.51008 0.76297 0.41261
 C422 C 0.53369 0.76317 0.39542
 C423 C 0.54708 0.78928 0.38897
 C424 C 0.53806 0.81509 0.40062
 C425 C 0.51482 0.81485 0.41821
 C426 C 0.50052 0.78891 0.42411
 H427 H 0.51994 0.71112 0.43660
 H428 H 0.46209 0.75704 0.38496
 H429 H 0.53995 0.74336 0.38531
 H430 H 0.48139 0.78906 0.43650
 H431 H 0.45323 0.66500 0.39471
 H432 H 0.54830 0.83544 0.39523
 Zr433 Zr 0.01362 -0.05401 1.03847
 O434 O 0.04604 -0.04499 1.06674
 O435 O -0.00175 -0.09408 1.05125
 O436 O -0.00478 -0.04915 1.07649
 O437 O 0.06073 -0.07864 0.99009
 O438 O -0.04183 -0.01670 1.07040
 O439 O 0.05066 -0.08157 1.03387
 O440 O -0.04079 -0.10304 1.02479
 O441 O -0.03126 -0.05052 1.03226
 O442 O 0.00471 -0.07481 1.00288
 O443 O 0.00409 -0.00927 1.03861
 O444 O 0.03932 -0.03264 1.01026
 Zr445 Zr -0.02548 -0.00433 0.96644
 Zr446 Zr -0.04044 -0.00611 1.03036
 Zr447 Zr 0.02808 -0.05221 0.97448
 Zr448 Zr -0.03959 -0.07003 0.99617
 O449 O 0.06936 -0.03821 0.96137
 O450 O -0.08261 -0.07318 1.01071
 O451 O -0.01639 -0.04933 0.96604
 O452 O -0.05082 -0.02600 0.99461
 O453 O -0.01684 0.01662 1.00209
 O454 O 0.01924 -0.00783 0.97283
 C455 C -0.02421 -0.10861 1.04443
 C456 C 0.06596 -0.08782 1.01332
 C457 C -0.02652 -0.03384 1.08470
 O458 O -0.08320 -0.01852 1.04055
 O459 O -0.07047 0.02399 1.01493
 O460 O -0.06091 0.02478 0.97098
 C461 C -0.07537 0.03281 0.99142
 O462 O 0.06071 0.00998 1.03798
 Zr463 Zr 0.02760 0.01141 1.00897
 O464 O -0.01115 0.03695 0.95512
 O465 O -0.03691 0.03278 1.05224
 O466 O 0.02121 0.04778 1.03389
 O467 O 0.06849 0.01830 0.99091
 O468 O 0.02356 0.04856 0.98539
 C469 C 0.00734 0.05427 0.96562
 O470 O -0.05900 -0.01219 0.93892
 O471 O 0.02608 -0.09289 0.95519
 O472 O -0.00940 -0.01178 0.92798
 O473 O 0.02585 -0.04615 0.93383
 O474 O -0.03215 -0.10964 0.97597
 O475 O -0.06785 -0.07234 0.96328
 C476 C 0.01034 -0.02937 0.91946
 H477 H 0.01018 -0.09562 1.00309
 H478 H -0.07176 -0.02424 0.99053
 H479 H 0.03083 0.00159 0.95889
 H480 H 0.00889 -0.00045 1.05578
 H481 H -0.08904 -0.09354 1.00824
 H482 H -0.09070 -0.00361 1.05286
 H483 H -0.05567 0.03546 1.06145
 H484 H 0.03637 0.06227 1.02961
 H485 H -0.04777 -0.12323 0.98117
 H486 H 0.04478 -0.09553 0.94587
 H487 H 0.07674 -0.05327 0.94917
 H488 H 0.07423 0.03865 0.99454
 H489 H -0.08021 -0.08984 0.96474
 H490 H -0.05963 0.00471 0.92686
 H491 H 0.04697 -0.06200 1.07864
 H492 H 0.07103 0.02883 1.03843
 Zr493 Zr 0.51119 0.44573 0.53744
 O494 O 0.54361 0.45482 0.56569
 O495 O 0.49558 0.40585 0.55051
 O496 O 0.49285 0.45113 0.57542
 O497 O 0.55830 0.42054 0.48927
 O498 O 0.45591 0.48363 0.56907
 O499 O 0.54819 0.41806 0.53307
 O500 O 0.45657 0.39678 0.52404
 O501 O 0.46632 0.44933 0.53116
 O502 O 0.50224 0.42464 0.50201
 O503 O 0.50182 0.49051 0.53722
 O504 O 0.53698 0.46676 0.50910
 Zr505 Zr 0.47235 0.49491 0.46499
 Zr506 Zr 0.45730 0.49376 0.52892
 Zr507 Zr 0.52572 0.44691 0.47346
 Zr508 Zr 0.45797 0.42954 0.49520
 O509 O 0.56707 0.46064 0.46029
 O510 O 0.41491 0.42667 0.50971
 O511 O 0.48128 0.44988 0.46494
 O512 O 0.44690 0.47359 0.49331
 O513 O 0.48102 0.51615 0.50050
 O514 O 0.51704 0.49130 0.47147
 C515 C 0.47308 0.39133 0.54375
 C516 C 0.56351 0.41160 0.51258
 C517 C 0.47120 0.46662 0.58351
 O518 O 0.41451 0.48155 0.53919
 O519 O 0.42739 0.52381 0.51322
 O520 O 0.43700 0.52417 0.46928
 C521 C 0.42254 0.53244 0.48965
 O522 O 0.55852 0.50956 0.53649
 Zr523 Zr 0.52542 0.51085 0.50746
 O524 O 0.48677 0.53607 0.45339
 O525 O 0.46092 0.53286 0.55047
 O526 O 0.51915 0.54745 0.53212
 O527 O 0.56635 0.51745 0.48938
 O528 O 0.52149 0.54780 0.48362
 C529 C 0.50529 0.55341 0.46380
 O530 O 0.43886 0.48686 0.43748
 O531 O 0.52357 0.40606 0.45448
 O532 O 0.48855 0.48712 0.42661
 O533 O 0.52360 0.45262 0.43278
 O534 O 0.46531 0.38972 0.47529
 O535 O 0.42974 0.42704 0.46230
 C536 C 0.50825 0.46939 0.41826
 H537 H 0.50764 0.40382 0.50238
 H538 H 0.42596 0.47538 0.48919
 H539 H 0.52869 0.50057 0.45748
 H540 H 0.50664 0.49948 0.55432
 H541 H 0.40839 0.40633 0.50735
 H542 H 0.40705 0.49661 0.55136
 H543 H 0.44217 0.53569 0.55965
 H544 H 0.53436 0.56185 0.52774
 H545 H 0.44962 0.37623 0.48056
 H546 H 0.54228 0.40326 0.44520
 H547 H 0.57441 0.44544 0.44820
 H548 H 0.57214 0.53782 0.49284
 H549 H 0.41733 0.40959 0.46386
 H550 H 0.43829 0.50365 0.42529
 H551 H 0.54445 0.43789 0.57770
 H552 H 0.56890 0.52837 0.53680
 Zr553 Zr 0.48902 1.05515 0.53641
 O554 O 0.45659 1.04614 0.56463
 O555 O 0.50461 1.09508 0.54943
 O556 O 0.50730 1.04985 0.57441
 O557 O 0.44188 1.08012 0.48821
 O558 O 0.54428 1.01737 0.56813
 O559 O 0.45201 1.08276 0.53200
 O560 O 0.54357 1.10414 0.52294
 O561 O 0.53389 1.05160 0.53015
 O562 O 0.49794 1.07613 0.50094
 O563 O 0.49844 1.01039 0.53625
 O564 O 0.46324 1.03399 0.50809
 Zr565 Zr 0.52791 1.00576 0.46404
 Zr566 Zr 0.54296 1.00717 0.52798
 Zr567 Zr 0.47447 1.05373 0.47242
 Zr568 Zr 0.54221 1.07127 0.49415
 O569 O 0.43313 1.03991 0.45927
 O570 O 0.58527 1.07425 0.50866
 O571 O 0.51892 1.05079 0.46391
 O572 O 0.55333 1.02722 0.49233
 O573 O 0.51927 0.98465 0.49958
 O574 O 0.48321 1.00934 0.47050
 C575 C 0.52707 1.10962 0.54264
 C576 C 0.43668 1.08913 0.51151
 C577 C 0.52893 1.03437 0.58255
 O578 O 0.58571 1.01953 0.53828
 O579 O 0.57294 0.97716 0.51235
 O580 O 0.56335 0.97661 0.46840
 C581 C 0.57782 0.96845 0.48879
 O582 O 0.44174 0.99131 0.53552
 Zr583 Zr 0.47486 0.98992 0.50652
 O584 O 0.51357 0.96451 0.45255
 O585 O 0.53942 0.96810 0.54954
 O586 O 0.48114 0.95343 0.53126
 O587 O 0.43395 0.98318 0.48841
 O588 O 0.47886 0.95287 0.48278
 C589 C 0.49508 0.94717 0.46301
 O590 O 0.56134 1.01375 0.43649
 O591 O 0.47657 1.09451 0.45336
 O592 O 0.51164 1.01335 0.42564
 O593 O 0.47655 1.04785 0.43174
 O594 O 0.53481 1.11100 0.47418
 O595 O 0.57043 1.07368 0.46126
 C596 C 0.49190 1.03102 0.41726
 H597 H 0.49251 1.09695 0.50128
 H598 H 0.57426 1.02546 0.48823
 H599 H 0.47157 1.00000 0.45652
 H600 H 0.49362 1.00146 0.55336
 H601 H 0.59176 1.09459 0.50628
 H602 H 0.59320 1.00452 0.55048
 H603 H 0.55817 0.96534 0.55875
 H604 H 0.46594 0.93900 0.52691
 H605 H 0.55047 1.12453 0.47943
 H606 H 0.45785 1.09726 0.44409
 H607 H 0.42576 1.05507 0.44717
 H608 H 0.42818 0.96282 0.49192
 H609 H 0.58280 1.09116 0.46278
 H610 H 0.56193 0.99690 0.42434
 H611 H 0.45573 1.06310 0.57663
 H612 H 0.43137 0.97249 0.53586
 Zr613 Zr -0.01384 0.55460 1.03712
 O614 O -0.04643 0.54546 1.06517
 O615 O 0.00150 0.59459 1.05024
 O616 O 0.00426 0.54958 1.07521
 O617 O -0.06063 0.57944 0.98861
 O618 O 0.04133 0.51713 1.06920
 O619 O -0.05090 0.58209 1.03248
 O620 O 0.04089 0.60348 1.02422
 O621 O 0.03108 0.55108 1.03117
 O622 O -0.00464 0.57560 1.00173
 O623 O -0.00435 0.50986 1.03710
 O624 O -0.03935 0.53340 1.00865
 Zr625 Zr 0.02574 0.50521 0.96510
 Zr626 Zr 0.04024 0.50668 1.02911
 Zr627 Zr -0.02782 0.55314 0.97305
 Zr628 Zr 0.03970 0.57077 0.99526
 O629 O -0.06900 0.53927 0.95954
 O630 O 0.08269 0.57379 1.00993
 O631 O 0.01670 0.55023 0.96487
 O632 O 0.05089 0.52672 0.99354
 O633 O 0.01681 0.48410 1.00058
 O634 O -0.01902 0.50876 0.97124
 C635 C 0.02416 0.60899 1.04377
 C636 C -0.06608 0.58842 1.01188
 C637 C 0.02592 0.53423 1.08347
 O638 O 0.08293 0.51900 1.03963
 O639 O 0.07035 0.47661 1.01373
 O640 O 0.06113 0.47604 0.96972
 C641 C 0.07543 0.46789 0.99022
 O642 O -0.06098 0.49070 1.03603
 Zr643 Zr -0.02767 0.48935 1.00722
 O644 O 0.01144 0.46398 0.95350
 O645 O 0.03651 0.46770 1.05079
 O646 O -0.02149 0.45285 1.03198
 O647 O -0.06845 0.48260 0.98888
 O648 O -0.02354 0.45233 0.98347
 C649 C -0.00718 0.44666 0.96378
 O650 O 0.05944 0.51316 0.93781
 O651 O -0.02561 0.59393 0.95403
 O652 O 0.00987 0.51280 0.92659
 O653 O -0.02531 0.54726 0.93240
 O654 O 0.03239 0.61057 0.97538
 O655 O 0.06808 0.57326 0.96249
 C656 C -0.00978 0.53046 0.91804
 H657 H -0.01011 0.59640 1.00204
 H658 H 0.07186 0.52497 0.98957
 H659 H -0.03053 0.49941 0.95718
 H660 H -0.00928 0.50097 1.05419
 H661 H 0.08915 0.59415 1.00760
 H662 H 0.09032 0.50404 1.05193
 H663 H 0.05519 0.46498 1.06012
 H664 H -0.03665 0.43841 1.02753
 H665 H 0.04799 0.62410 0.98079
 H666 H -0.04425 0.59665 0.94462
 H667 H -0.07628 0.55443 0.94739
 H668 H -0.07426 0.46225 0.99238
 H669 H 0.08038 0.59079 0.96406
 H670 H 0.06013 0.49630 0.92567
 H671 H -0.04745 0.56243 1.07715
 H672 H -0.07131 0.47186 1.03634
 Zr673 Zr -0.01649 0.44782 0.46105
 O674 O -0.04915 0.45771 0.43324
 O675 O -0.00145 0.40791 0.44739
 O676 O 0.00158 0.45320 0.42299
 O677 O -0.06308 0.42257 0.50945
 O678 O 0.03876 0.48530 0.42930
 O679 O -0.05360 0.42051 0.46551
 O680 O 0.03802 0.39830 0.47317
 O681 O 0.02847 0.45093 0.46690
 O682 O -0.00719 0.42624 0.49617
 O683 O -0.00683 0.49249 0.46159
 O684 O -0.04179 0.46877 0.48988
 Zr685 Zr 0.02358 0.49583 0.53355
 Zr686 Zr 0.03779 0.49523 0.46950
 Zr687 Zr -0.03016 0.44843 0.52520
 Zr688 Zr 0.03719 0.43062 0.50252
 O689 O -0.07124 0.46239 0.53900
 O690 O 0.08006 0.42752 0.48758
 O691 O 0.01442 0.45088 0.53325
 O692 O 0.04854 0.47456 0.50477
 O693 O 0.01455 0.51754 0.49836
 O694 O -0.02122 0.49271 0.52752
 C695 C 0.02116 0.39320 0.45363
 C696 C -0.06866 0.41396 0.48610
 C697 C 0.02330 0.46848 0.41487
 O698 O 0.08043 0.48281 0.45873
 O699 O 0.06804 0.52487 0.48515
 O700 O 0.05901 0.52483 0.52918
 C701 C 0.07324 0.53321 0.50875
 O702 O -0.06340 0.51205 0.46307
 Zr703 Zr -0.02997 0.51272 0.49180
 O704 O 0.00944 0.53698 0.54571
 O705 O 0.03406 0.53452 0.44827
 O706 O -0.02377 0.54955 0.46748
 O707 O -0.07066 0.51947 0.51033
 O708 O -0.02565 0.54933 0.51601
 C709 C -0.00919 0.55457 0.53571
 O710 O 0.05739 0.48722 0.56062
 O711 O -0.02796 0.40736 0.54374
 O712 O 0.00788 0.48779 0.57202
 O713 O -0.02746 0.45371 0.56593
 O714 O 0.02989 0.39060 0.52199
 O715 O 0.06579 0.42739 0.53511
 C716 C -0.01179 0.47018 0.58043
 H717 H -0.01272 0.40548 0.49563
 H718 H 0.06953 0.47610 0.50869
 H719 H -0.03264 0.50193 0.54172
 H720 H -0.01180 0.50167 0.44462
 H721 H 0.08646 0.40706 0.48957
 H722 H 0.08780 0.49790 0.44658
 H723 H 0.05271 0.53727 0.43893
 H724 H -0.03886 0.56403 0.47215
 H725 H 0.04539 0.37702 0.51632
 H726 H -0.04656 0.40462 0.55318
 H727 H -0.07850 0.44710 0.55099
 H728 H -0.07643 0.53991 0.50709
 H729 H 0.07807 0.40983 0.53322
 H730 H 0.05820 0.50387 0.57296
 H731 H -0.05029 0.44094 0.42105
 H732 H -0.07366 0.53098 0.46302
 Zr733 Zr 0.48611 -0.05346 -0.03833
 O734 O 0.45357 -0.04433 -0.06647
 O735 O 0.50189 -0.09329 -0.05156
 O736 O 0.50434 -0.04802 -0.07632
 O737 O 0.43927 -0.07877 0.00985
 O738 O 0.54112 -0.01548 -0.06996
 O739 O 0.44929 -0.08119 -0.03398
 O740 O 0.54102 -0.10235 -0.02520
 O741 O 0.53097 -0.04983 -0.03212
 O742 O 0.49524 -0.07459 -0.00296
 O743 O 0.49526 -0.00868 -0.03803
 O744 O 0.46027 -0.03249 -0.00989
 Zr745 Zr 0.52485 -0.00435 0.03416
 Zr746 Zr 0.53977 -0.00540 -0.02978
 Zr747 Zr 0.47171 -0.05238 0.02569
 Zr748 Zr 0.53950 -0.06968 0.00377
 O749 O 0.43031 -0.03873 0.03895
 O750 O 0.58256 -0.07249 -0.01078
 O751 O 0.51616 -0.04939 0.03413
 O752 O 0.55035 -0.02561 0.00576
 O753 O 0.51600 0.01694 -0.00128
 O754 O 0.48016 -0.00798 0.02775
 C755 C 0.52450 -0.10778 -0.04490
 C756 C 0.43406 -0.08769 -0.01347
 C757 C 0.52589 -0.03250 -0.08441
 O758 O 0.58259 -0.01758 -0.04019
 O759 O 0.56962 0.02460 -0.01407
 O760 O 0.56009 0.02490 0.02989
 C761 C 0.57450 0.03317 0.00953
 O762 O 0.43847 0.01029 -0.03718
 Zr763 Zr 0.47160 0.01160 -0.00819
 O764 O 0.51021 0.03679 0.04583
 O765 O 0.53592 0.03375 -0.05121
 O766 O 0.47764 0.04824 -0.03276
 O767 O 0.43066 0.01812 0.00996
 O768 O 0.47532 0.04852 0.01574
 C769 C 0.49154 0.05412 0.03553
 O770 O 0.55840 -0.01237 0.06163
 O771 O 0.47414 -0.09324 0.04459
 O772 O 0.50875 -0.01214 0.07254
 O773 O 0.47385 -0.04666 0.06639
 O774 O 0.53240 -0.10955 0.02355
 O775 O 0.56779 -0.07221 0.03663
 C776 C 0.48914 -0.02987 0.08091
 H777 H 0.48995 -0.09542 -0.00338
 H778 H 0.57128 -0.02383 0.00985
 H779 H 0.46849 0.00126 0.04178
 H780 H 0.49036 0.00031 -0.05510
 H781 H 0.58917 -0.09283 -0.00851
 H782 H 0.58995 -0.00250 -0.05235
 H783 H 0.55463 0.03659 -0.06043
 H784 H 0.46235 0.06261 -0.02834
 H785 H 0.54815 -0.12301 0.01820
 H786 H 0.45546 -0.09608 0.05388
 H787 H 0.42307 -0.05397 0.05101
 H788 H 0.42473 0.03847 0.00653
 H789 H 0.58027 -0.08966 0.03502
 H790 H 0.55890 0.00442 0.07385
 H791 H 0.45278 -0.06123 -0.07854
 H792 H 0.42800 0.02909 -0.03746
 Zr793 Zr 0.51366 0.55354 -0.03799
 O794 O 0.54605 0.54430 -0.06625
 O795 O 0.49814 0.59354 -0.05098
 O796 O 0.49526 0.54836 -0.07596
 O797 O 0.56080 0.57842 0.01020
 O798 O 0.45830 0.51602 -0.06965
 O799 O 0.55065 0.58104 -0.03359
 O800 O 0.45919 0.60280 -0.02447
 O801 O 0.46879 0.55016 -0.03170
 O802 O 0.50476 0.57459 -0.00251
 O803 O 0.50424 0.50881 -0.03786
 O804 O 0.53947 0.53232 -0.00970
 Zr805 Zr 0.47486 0.50439 0.03437
 Zr806 Zr 0.45973 0.50577 -0.02953
 Zr807 Zr 0.52826 0.55214 0.02599
 Zr808 Zr 0.46050 0.56992 0.00430
 O809 O 0.56963 0.53820 0.03909
 O810 O 0.41745 0.57305 -0.01025
 O811 O 0.48382 0.54938 0.03451
 O812 O 0.44939 0.52592 0.00612
 O813 O 0.48347 0.48318 -0.00118
 O814 O 0.51955 0.50779 0.02787
 C815 C 0.47569 0.60820 -0.04417
 C816 C 0.56597 0.58741 -0.01309
 C817 C 0.47358 0.53299 -0.08407
 O818 O 0.41694 0.51822 -0.03977
 O819 O 0.42978 0.47585 -0.01388
 O820 O 0.43947 0.47532 0.03005
 C821 C 0.42496 0.46719 0.00968
 O822 O 0.56089 0.48946 -0.03725
 Zr823 Zr 0.52787 0.48829 -0.00816
 O824 O 0.48933 0.46316 0.04587
 O825 O 0.46329 0.46670 -0.05116
 O826 O 0.52149 0.45175 -0.03285
 O827 O 0.56886 0.48149 0.00983
 O828 O 0.52406 0.45134 0.01566
 C829 C 0.50790 0.44578 0.03548
 O830 O 0.44142 0.51253 0.06192
 O831 O 0.52613 0.59293 0.04509
 O832 O 0.49112 0.51196 0.07275
 O833 O 0.52622 0.54628 0.06666
 O834 O 0.46787 0.60963 0.02431
 O835 O 0.43227 0.57250 0.03718
 C836 C 0.51087 0.52953 0.08114
 H837 H 0.51018 0.59539 -0.00284
 H838 H 0.42846 0.52423 0.01024
 H839 H 0.53122 0.49844 0.04183
 H840 H 0.50903 0.49986 -0.05498
 H841 H 0.41097 0.59342 -0.00789
 H842 H 0.40946 0.50324 -0.05198
 H843 H 0.44452 0.46399 -0.06034
 H844 H 0.53671 0.43727 -0.02852
 H845 H 0.45221 0.62323 0.01906
 H846 H 0.54485 0.59563 0.05435
 H847 H 0.57700 0.55334 0.05120
 H848 H 0.57466 0.46112 0.00631
 H849 H 0.41985 0.59000 0.03562
 H850 H 0.44086 0.49571 0.07408
 H851 H 0.54691 0.56124 -0.07824
 H852 H 0.57124 0.47059 -0.03764
 Zr853 Zr 0.01548 1.05230 0.46169
 O854 O 0.04799 1.04217 0.43380
 O855 O 0.00064 1.09229 0.44809
 O856 O -0.00277 1.04687 0.42368
 O857 O 0.06245 1.07745 0.50989
 O858 O -0.04013 1.01505 0.43015
 O859 O 0.05269 1.07950 0.46600
 O860 O -0.03845 1.10237 0.47420
 O861 O -0.02946 1.04953 0.46772
 O862 O 0.00653 1.07398 0.49686
 O863 O 0.00556 1.00769 0.46229
 O864 O 0.04083 1.03124 0.49043
 Zr865 Zr -0.02447 1.00471 0.53438
 Zr866 Zr -0.03904 1.00528 0.47037
 Zr867 Zr 0.02954 1.05171 0.52580
 Zr868 Zr -0.03783 1.06993 0.50340
 O869 O 0.07066 1.03753 0.53931
 O870 O -0.08070 1.07331 0.48848
 O871 O -0.01501 1.04959 0.53404
 O872 O -0.04946 1.02608 0.50569
 O873 O -0.01579 0.98288 0.49916
 O874 O 0.02031 1.00750 0.52816
 C875 C -0.02169 1.10729 0.45456
 C876 C 0.06789 1.08605 0.48652
 C877 C -0.02460 1.03168 0.41563
 O878 O -0.08165 1.01798 0.45978
 O879 O -0.06934 0.97584 0.48615
 O880 O -0.06008 0.97589 0.53015
 C881 C -0.07444 0.96755 0.50977
 O882 O 0.06201 0.98774 0.46356
 Zr883 Zr 0.02872 0.98737 0.49241
 O884 O -0.01057 0.96351 0.54651
 O885 O -0.03570 0.96591 0.44915
 O886 O 0.02214 0.95054 0.46813
 O887 O 0.06946 0.98035 0.51078
 O888 O 0.02425 0.95083 0.51666
 C889 C 0.00786 0.94575 0.53644
 O890 O -0.05808 1.01366 0.56156
 O891 O 0.02769 1.09279 0.54442
 O892 O -0.00845 1.01266 0.57278
 O893 O 0.02713 1.04644 0.56655
 O894 O -0.03021 1.10986 0.52298
 O895 O -0.06635 1.07335 0.53603
 C896 C 0.01145 1.03009 0.58112
 H897 H 0.01218 1.09471 0.49632
 H898 H -0.07044 1.02467 0.50970
 H899 H 0.03176 0.99823 0.54231
 H900 H 0.01038 0.99844 0.44531
 H901 H -0.08695 1.09380 0.49049
 H902 H -0.08919 1.00291 0.44768
 H903 H -0.05443 0.96327 0.43989
 H904 H 0.03715 0.93595 0.47275
 H905 H -0.04566 1.12355 0.51741
 H906 H 0.04638 1.09542 0.55376
 H907 H 0.07810 1.05277 0.55128
 H908 H 0.07505 0.95986 0.50755
 H909 H -0.07857 1.09095 0.53413
 H910 H -0.05895 0.99704 0.57392
 H911 H 0.04916 1.05889 0.42159
 H912 H 0.07213 0.96874 0.46347
 Zr913 Zr 0.69656 0.26032 0.21350
 O914 O 0.70627 0.29281 0.18552
 O915 O 0.65664 0.24522 0.20003
 O916 O 0.70199 0.24214 0.17549
 O917 O 0.67146 0.30744 0.26168
 O918 O 0.73404 0.20480 0.18185
 O919 O 0.66925 0.29758 0.21782
 O920 O 0.64700 0.20610 0.22617
 O921 O 0.69966 0.21537 0.21954
 O922 O 0.67508 0.25136 0.24871
 O923 O 0.74121 0.25051 0.21400
 O924 O 0.71758 0.28577 0.24214
 Zr925 Zr 0.74473 0.22055 0.28610
 Zr926 Zr 0.74395 0.20590 0.22206
 Zr927 Zr 0.69732 0.27448 0.27755
 Zr928 Zr 0.67950 0.20698 0.25529
 O929 O 0.71136 0.31561 0.29110
 O930 O 0.67635 0.16402 0.24051
 O931 O 0.69980 0.22993 0.28584
 O932 O 0.72341 0.19547 0.25747
 O933 O 0.76631 0.22924 0.25080
 O934 O 0.74160 0.26534 0.27985
 C935 C 0.64187 0.22281 0.20653
 C936 C 0.66278 0.31287 0.23832
 C937 C 0.71727 0.22035 0.16739
 O938 O 0.73147 0.16324 0.21151
 O939 O 0.77366 0.17567 0.23777
 O940 O 0.77374 0.18496 0.28178
 C941 C 0.78209 0.17059 0.26136
 O942 O 0.76078 0.30707 0.21524
 Zr943 Zr 0.76151 0.27375 0.24406
 O944 O 0.78592 0.23451 0.29810
 O945 O 0.78320 0.20930 0.20075
 O946 O 0.79822 0.26729 0.21961
 O947 O 0.76839 0.31450 0.26246
 O948 O 0.79821 0.26926 0.26812
 C949 C 0.80353 0.25289 0.28788
 O950 O 0.73617 0.18694 0.31333
 O951 O 0.65629 0.27266 0.29617
 O952 O 0.73669 0.23660 0.32452
 O953 O 0.70259 0.27203 0.31825
 O954 O 0.63960 0.21459 0.27493
 O955 O 0.67644 0.17858 0.28801
 C956 C 0.71905 0.25642 0.33283
 H957 H 0.65433 0.25698 0.24820
 H958 H 0.72498 0.17449 0.26147
 H959 H 0.75085 0.27681 0.29399
 H960 H 0.75036 0.25535 0.19699
 H961 H 0.65593 0.15770 0.24264
 H962 H 0.74652 0.15572 0.19937
 H963 H 0.78591 0.19057 0.19147
 H964 H 0.81273 0.28234 0.22420
 H965 H 0.62601 0.19907 0.26944
 H966 H 0.65359 0.29136 0.30551
 H967 H 0.69611 0.32305 0.30308
 H968 H 0.78883 0.32010 0.25919
 H969 H 0.65890 0.16633 0.28622
 H970 H 0.75285 0.18616 0.32564
 H971 H 0.68948 0.29393 0.17337
 H972 H 0.77968 0.31729 0.21514
 Zr973 Zr 0.80430 0.73729 0.71238
 O974 O 0.79562 0.70491 0.68397
 O975 O 0.84436 0.75292 0.69983
 O976 O 0.79957 0.75571 0.67440
 O977 O 0.82876 0.69007 0.76070
 O978 O 0.76695 0.79263 0.68042
 O979 O 0.83190 0.70030 0.71696
 O980 O 0.85299 0.79194 0.72644
 O981 O 0.80059 0.78216 0.71870
 O982 O 0.82485 0.74619 0.74808
 O983 O 0.75955 0.74664 0.71207
 O984 O 0.78287 0.71141 0.74041
 Zr985 Zr 0.75403 0.77600 0.78428
 Zr986 Zr 0.75615 0.79115 0.72042
 Zr987 Zr 0.80217 0.72263 0.77630
 Zr988 Zr 0.81983 0.79047 0.75490
 O989 O 0.78827 0.68125 0.78927
 O990 O 0.82290 0.83358 0.74053
 O991 O 0.79904 0.76708 0.78486
 O992 O 0.77576 0.80152 0.75628
 O993 O 0.73334 0.76737 0.74852
 O994 O 0.75777 0.73129 0.77778
 C995 C 0.85874 0.77544 0.70678
 C996 C 0.83805 0.68492 0.73748
 C997 C 0.78421 0.77738 0.66617
 O998 O 0.76847 0.83399 0.71038
 O999 O 0.72587 0.82105 0.73577
 O1000 O 0.72482 0.81137 0.77968
 C1001 C 0.71687 0.82587 0.75924
 O1002 O 0.74051 0.68993 0.71243
 Zr1003 Zr 0.73878 0.72295 0.74154
 O1004 O 0.71277 0.76144 0.79537
 O1005 O 0.71742 0.78754 0.69836
 O1006 O 0.70255 0.72929 0.71649
 O1007 O 0.73199 0.68195 0.75943
 O1008 O 0.70151 0.72672 0.76498
 C1009 C 0.69562 0.74287 0.78477
 O1010 O 0.76155 0.80948 0.81195
 O1011 O 0.84273 0.72473 0.79575
 O1012 O 0.76132 0.75981 0.82272
 O1013 O 0.79588 0.72472 0.81692
 O1014 O 0.85933 0.78311 0.77525
 O1015 O 0.82180 0.81863 0.78790
 C1016 C 0.77893 0.74011 0.83126
 H1017 H 0.84567 0.74079 0.74794
 H1018 H 0.77390 0.82246 0.76041
 H1019 H 0.74832 0.71962 0.79164
 H1020 H 0.75085 0.74184 0.69485
 H1021 H 0.84319 0.84010 0.74314
 H1022 H 0.75363 0.84146 0.69801
 H1023 H 0.71474 0.80631 0.68917
 H1024 H 0.68810 0.71405 0.72065
 H1025 H 0.87288 0.79882 0.77017
 H1026 H 0.84539 0.70599 0.80501
 H1027 H 0.80331 0.67389 0.80150
 H1028 H 0.71170 0.67611 0.75570
 H1029 H 0.83926 0.83106 0.78658
 H1030 H 0.74458 0.81000 0.82393
 H1031 H 0.81270 0.70407 0.67215
 H1032 H 0.72171 0.67954 0.71186
 Zr1033 Zr 0.19651 0.23611 0.78818
 O1034 O 0.20552 0.20365 0.81642
 O1035 O 0.15652 0.25175 0.80108
 O1036 O 0.20161 0.25446 0.82619
 O1037 O 0.17170 0.18907 0.73985
 O1038 O 0.23409 0.29133 0.82001
 O1039 O 0.16894 0.19918 0.78365
 O1040 O 0.14749 0.29078 0.77460
 O1041 O 0.20004 0.28100 0.78196
 O1042 O 0.17562 0.24512 0.75265
 O1043 O 0.24124 0.24541 0.78818
 O1044 O 0.21774 0.21026 0.75990
 Zr1045 Zr 0.24602 0.27487 0.71601
 Zr1046 Zr 0.24445 0.28994 0.77992
 Zr1047 Zr 0.19810 0.22158 0.72418
 Zr1048 Zr 0.18045 0.28940 0.74592
 O1049 O 0.21198 0.18019 0.71102
 O1050 O 0.17739 0.33246 0.76052
 O1051 O 0.20103 0.26605 0.71573
 O1052 O 0.22447 0.30038 0.74424
 O1053 O 0.26706 0.26615 0.75159
 O1054 O 0.24246 0.23016 0.72242
 C1055 C 0.14197 0.27426 0.79426
 C1056 C 0.16262 0.18388 0.76311
 C1057 C 0.21702 0.27608 0.83437
 O1058 O 0.23207 0.33275 0.79022
 O1059 O 0.27445 0.31988 0.76438
 O1060 O 0.27513 0.31021 0.72044
 C1061 C 0.28319 0.32472 0.74084
 O1062 O 0.26038 0.18867 0.78754
 Zr1063 Zr 0.26179 0.22173 0.75850
 O1064 O 0.28724 0.26026 0.70461
 O1065 O 0.28344 0.28624 0.80161
 O1066 O 0.29824 0.22796 0.78329
 O1067 O 0.26851 0.18072 0.74047
 O1068 O 0.29882 0.22543 0.73480
 C1069 C 0.30451 0.24161 0.71502
 O1070 O 0.23814 0.30838 0.68846
 O1071 O 0.15739 0.22384 0.70500
 O1072 O 0.23850 0.25873 0.67758
 O1073 O 0.20408 0.22370 0.68352
 O1074 O 0.14081 0.28216 0.72580
 O1075 O 0.17809 0.31768 0.71307
 C1076 C 0.22089 0.23906 0.66911
 H1077 H 0.15482 0.23975 0.75292
 H1078 H 0.22622 0.32132 0.74014
 H1079 H 0.25182 0.21849 0.70846
 H1080 H 0.25011 0.24056 0.80531
 H1081 H 0.15706 0.33901 0.75810
 H1082 H 0.24703 0.34019 0.80247
 H1083 H 0.28616 0.30500 0.81083
 H1084 H 0.31267 0.21268 0.77899
 H1085 H 0.12725 0.29787 0.73103
 H1086 H 0.15468 0.20513 0.69569
 H1087 H 0.19686 0.17288 0.69886
 H1088 H 0.28884 0.17483 0.74405
 H1089 H 0.16063 0.33016 0.71459
 H1090 H 0.25500 0.30889 0.67636
 H1091 H 0.18853 0.20283 0.82836
 H1092 H 0.27921 0.17825 0.78797
 Zr1093 Zr 0.30292 0.76559 0.28769
 O1094 O 0.29299 0.79821 0.31557
 O1095 O 0.34285 0.75057 0.30131
 O1096 O 0.29747 0.74746 0.32573
 O1097 O 0.32806 0.81241 0.23940
 O1098 O 0.26552 0.71017 0.31931
 O1099 O 0.33018 0.80277 0.28331
 O1100 O 0.35267 0.71131 0.27528
 O1101 O 0.29997 0.72062 0.28172
 O1102 O 0.32450 0.75646 0.25253
 O1103 O 0.25829 0.75582 0.28711
 O1104 O 0.28189 0.79093 0.25893
 Zr1105 Zr 0.25508 0.72557 0.21507
 Zr1106 Zr 0.25571 0.71118 0.27910
 Zr1107 Zr 0.30226 0.77947 0.22357
 Zr1108 Zr 0.32027 0.71207 0.24604
 O1109 O 0.28817 0.82059 0.20995
 O1110 O 0.32352 0.66917 0.26094
 O1111 O 0.29997 0.73489 0.21539
 O1112 O 0.27640 0.70058 0.24379
 O1113 O 0.23335 0.73443 0.25029
 O1114 O 0.25803 0.77038 0.22122
 C1115 C 0.35770 0.72810 0.29490
 C1116 C 0.33670 0.81791 0.26276
 C1117 C 0.28222 0.72569 0.33380
 O1118 O 0.26827 0.66854 0.28975
 O1119 O 0.22614 0.68092 0.26338
 O1120 O 0.22617 0.69005 0.21936
 C1121 C 0.21781 0.67577 0.23976
 O1122 O 0.23858 0.81241 0.28571
 Zr1123 Zr 0.23800 0.77897 0.25696
 O1124 O 0.21388 0.73952 0.20297
 O1125 O 0.21640 0.71473 0.30033
 O1126 O 0.20125 0.77268 0.28135
 O1127 O 0.23105 0.81964 0.23845
 O1128 O 0.20136 0.77442 0.23284
 C1129 C 0.19617 0.75795 0.21310
 O1130 O 0.26386 0.69184 0.18793
 O1131 O 0.34331 0.77746 0.20498
 O1132 O 0.26305 0.74144 0.17665
 O1133 O 0.29699 0.77689 0.18283
 O1134 O 0.36021 0.71953 0.22650
 O1135 O 0.32355 0.68350 0.21341
 C1136 C 0.28058 0.76122 0.16829
 H1137 H 0.34524 0.76205 0.25306
 H1138 H 0.27491 0.67958 0.23981
 H1139 H 0.24877 0.78180 0.20705
 H1140 H 0.24909 0.76072 0.30409
 H1141 H 0.34398 0.66283 0.25890
 H1142 H 0.25319 0.66107 0.30186
 H1143 H 0.21370 0.69603 0.30961
 H1144 H 0.18672 0.78773 0.27670
 H1145 H 0.37384 0.70404 0.23208
 H1146 H 0.34598 0.79611 0.19559
 H1147 H 0.30341 0.82794 0.19796
 H1148 H 0.21058 0.82529 0.24167
 H1149 H 0.34112 0.67125 0.21527
 H1150 H 0.24722 0.69099 0.17559
 H1151 H 0.30974 0.79934 0.32776
 H1152 H 0.21966 0.82266 0.28575
 Zr1153 Zr 0.19583 0.76222 0.71307
 O1154 O 0.20500 0.79467 0.68490
 O1155 O 0.15585 0.74682 0.70005
 O1156 O 0.20090 0.74394 0.67505
 O1157 O 0.17105 0.80938 0.76136
 O1158 O 0.23324 0.70681 0.68119
 O1159 O 0.16837 0.79933 0.71755
 O1160 O 0.14677 0.70772 0.72638
 O1161 O 0.19926 0.71731 0.71922
 O1162 O 0.17484 0.75327 0.74852
 O1163 O 0.24054 0.75266 0.71314
 O1164 O 0.21706 0.78788 0.74143
 Zr1165 Zr 0.24510 0.72297 0.78527
 Zr1166 Zr 0.24363 0.70809 0.72130
 Zr1167 Zr 0.19730 0.77661 0.77708
 Zr1168 Zr 0.17958 0.70894 0.75519
 O1169 O 0.21125 0.81787 0.79037
 O1170 O 0.17647 0.66589 0.74062
 O1171 O 0.20013 0.73211 0.78547
 O1172 O 0.22358 0.69767 0.75693
 O1173 O 0.26622 0.73165 0.74974
 O1174 O 0.24164 0.76772 0.77894
 C1175 C 0.14131 0.72431 0.70674
 C1176 C 0.16207 0.81466 0.73807
 C1177 C 0.21622 0.72222 0.66685
 O1178 O 0.23123 0.66534 0.71097
 O1179 O 0.27365 0.67804 0.73679
 O1180 O 0.27424 0.68751 0.78077
 C1181 C 0.28238 0.67309 0.76032
 O1182 O 0.25984 0.80929 0.71398
 Zr1183 Zr 0.26108 0.77612 0.74293
 O1184 O 0.28630 0.73727 0.79685
 O1185 O 0.28261 0.71162 0.69961
 O1186 O 0.29756 0.76972 0.71819
 O1187 O 0.26790 0.81701 0.76109
 O1188 O 0.29806 0.77203 0.76671
 C1189 C 0.30366 0.75578 0.78648
 O1190 O 0.23708 0.68940 0.81268
 O1191 O 0.15652 0.77461 0.79612
 O1192 O 0.23747 0.73907 0.82372
 O1193 O 0.20314 0.77435 0.81775
 O1194 O 0.13987 0.71640 0.77517
 O1195 O 0.17711 0.68068 0.78805
 C1196 C 0.21987 0.75884 0.83218
 H1197 H 0.15405 0.75877 0.74820
 H1198 H 0.22531 0.67671 0.76098
 H1199 H 0.25099 0.77930 0.79295
 H1200 H 0.24945 0.75749 0.69603
 H1201 H 0.15612 0.65946 0.74301
 H1202 H 0.24617 0.65786 0.69870
 H1203 H 0.28530 0.69287 0.69035
 H1204 H 0.31204 0.78486 0.72258
 H1205 H 0.12632 0.70076 0.76988
 H1206 H 0.15383 0.79333 0.80544
 H1207 H 0.19611 0.82527 0.80248
 H1208 H 0.28826 0.82274 0.75759
 H1209 H 0.15960 0.66835 0.78652
 H1210 H 0.25392 0.68875 0.82482
 H1211 H 0.18805 0.79564 0.67292
 H1212 H 0.27869 0.81958 0.71363
 Zr1213 Zr 0.30389 0.23818 0.21264
 O1214 O 0.29475 0.20575 0.18438
 O1215 O 0.34385 0.25362 0.19964
 O1216 O 0.29868 0.25652 0.17465
 O1217 O 0.32874 0.19098 0.26084
 O1218 O 0.26630 0.29359 0.18094
 O1219 O 0.33141 0.20108 0.21705
 O1220 O 0.35301 0.29260 0.22615
 O1221 O 0.30043 0.28308 0.21890
 O1222 O 0.32489 0.24708 0.24811
 O1223 O 0.25916 0.24770 0.21278
 O1224 O 0.28270 0.21246 0.24095
 Zr1225 Zr 0.25466 0.27726 0.28500
 Zr1226 Zr 0.25605 0.29225 0.22107
 Zr1227 Zr 0.30248 0.22368 0.27662
 Zr1228 Zr 0.32014 0.29139 0.25490
 O1229 O 0.28854 0.18240 0.28980
 O1230 O 0.32320 0.33443 0.24035
 O1231 O 0.29964 0.26817 0.28512
 O1232 O 0.27613 0.30262 0.25671
 O1233 O 0.23351 0.26862 0.24945
 O1234 O 0.25812 0.23252 0.27855
 C1235 C 0.35845 0.27605 0.20645
 C1236 C 0.33775 0.18574 0.23755
 C1237 C 0.28329 0.27823 0.16653
 O1238 O 0.26841 0.33501 0.21082
 O1239 O 0.22606 0.32228 0.23669
 O1240 O 0.22554 0.31272 0.28064
 C1241 C 0.21737 0.32718 0.26024
 O1242 O 0.23996 0.19100 0.21352
 Zr1243 Zr 0.23867 0.22417 0.24251
 O1244 O 0.21341 0.26299 0.29650
 O1245 O 0.21701 0.28873 0.19943
 O1246 O 0.20220 0.23049 0.21774
 O1247 O 0.23187 0.18330 0.26064
 O1248 O 0.20165 0.22831 0.26622
 C1249 C 0.19601 0.24456 0.28601
 O1250 O 0.26269 0.31077 0.31252
 O1251 O 0.34328 0.22565 0.29565
 O1252 O 0.26237 0.26111 0.32340
 O1253 O 0.29674 0.22591 0.31729
 O1254 O 0.35983 0.28394 0.27492
 O1255 O 0.32264 0.31968 0.28778
 C1256 C 0.28004 0.24139 0.33179
 H1257 H 0.34569 0.24160 0.24778
 H1258 H 0.27441 0.32357 0.26082
 H1259 H 0.24878 0.22093 0.29254
 H1260 H 0.25023 0.24289 0.19566
 H1261 H 0.34355 0.34088 0.24272
 H1262 H 0.25343 0.34252 0.19861
 H1263 H 0.21427 0.30750 0.19024
 H1264 H 0.18775 0.21532 0.22210
 H1265 H 0.37339 0.29957 0.26967
 H1266 H 0.34598 0.20693 0.30493
 H1267 H 0.30368 0.17500 0.30191
 H1268 H 0.21150 0.17757 0.25715
 H1269 H 0.34012 0.33205 0.28623
 H1270 H 0.24587 0.31139 0.32467
 H1271 H 0.31169 0.20483 0.17240
 H1272 H 0.22115 0.18063 0.21320
 Zr1273 Zr 0.69861 0.73514 0.28801
 O1274 O 0.70853 0.70261 0.31593
 O1275 O 0.65874 0.75027 0.30164
 O1276 O 0.70413 0.75339 0.32600
 O1277 O 0.67326 0.68823 0.23982
 O1278 O 0.73619 0.79055 0.31952
 O1279 O 0.67128 0.69800 0.28372
 O1280 O 0.64900 0.78953 0.27563
 O1281 O 0.70169 0.78008 0.28198
 O1282 O 0.67697 0.74423 0.25287
 O1283 O 0.74326 0.74479 0.28737
 O1284 O 0.71948 0.70964 0.25926
 Zr1285 Zr 0.74644 0.77479 0.21529
 Zr1286 Zr 0.74597 0.78939 0.27930
 Zr1287 Zr 0.69907 0.72107 0.22392
 Zr1288 Zr 0.68133 0.78859 0.24633
 O1289 O 0.71302 0.67990 0.21027
 O1290 O 0.67825 0.83154 0.26119
 O1291 O 0.70151 0.76562 0.21569
 O1292 O 0.72524 0.79993 0.24400
 O1293 O 0.76820 0.76596 0.25050
 O1294 O 0.74333 0.73000 0.22150
 C1295 C 0.64395 0.77278 0.29525
 C1296 C 0.66469 0.68280 0.26320
 C1297 C 0.71944 0.77514 0.33403
 O1298 O 0.73357 0.83210 0.28993
 O1299 O 0.77556 0.81957 0.26351
 O1300 O 0.77543 0.81028 0.21950
 C1301 C 0.78384 0.82464 0.23987
 O1302 O 0.76278 0.68817 0.28608
 Zr1303 Zr 0.76340 0.72146 0.25724
 O1304 O 0.78756 0.76058 0.20317
 O1305 O 0.78532 0.78578 0.30047
 O1306 O 0.80025 0.72776 0.28152
 O1307 O 0.77012 0.68067 0.23882
 O1308 O 0.79996 0.72568 0.23302
 C1309 C 0.80518 0.74204 0.21326
 O1310 O 0.73779 0.80845 0.18809
 O1311 O 0.65796 0.72313 0.20542
 O1312 O 0.73824 0.75886 0.17689
 O1313 O 0.70418 0.72356 0.18318
 O1314 O 0.64133 0.78119 0.22685
 O1315 O 0.67805 0.81707 0.21368
 C1316 C 0.72058 0.73915 0.16859
 H1317 H 0.65621 0.73870 0.25344
 H1318 H 0.72677 0.82091 0.24000
 H1319 H 0.75251 0.71851 0.20732
 H1320 H 0.75248 0.73991 0.30435
 H1321 H 0.65781 0.83793 0.25919
 H1322 H 0.74867 0.83954 0.30203
 H1323 H 0.78808 0.80450 0.30975
 H1324 H 0.81471 0.71263 0.27690
 H1325 H 0.62775 0.79673 0.23245
 H1326 H 0.65521 0.70446 0.19606
 H1327 H 0.69771 0.67255 0.19832
 H1328 H 0.79056 0.67492 0.24206
 H1329 H 0.66052 0.82939 0.21556
 H1330 H 0.75441 0.80917 0.17573
 H1331 H 0.69180 0.70154 0.32814
 H1332 H 0.78168 0.67787 0.28613
 Zr1333 Zr 0.80344 0.26367 0.78861
 O1334 O 0.79443 0.29612 0.81691
 O1335 O 0.84333 0.24787 0.80162
 O1336 O 0.79818 0.24530 0.82656
 O1337 O 0.82850 0.31072 0.74049
 O1338 O 0.76564 0.20851 0.82021
 O1339 O 0.83109 0.30056 0.78427
 O1340 O 0.85227 0.20879 0.77513
 O1341 O 0.79980 0.21881 0.78227
 O1342 O 0.82442 0.25466 0.75313
 O1343 O 0.75868 0.25450 0.78847
 O1344 O 0.78235 0.28962 0.76034
 Zr1345 Zr 0.75404 0.22515 0.71621
 Zr1346 Zr 0.75538 0.20999 0.78009
 Zr1347 Zr 0.80208 0.27829 0.72465
 Zr1348 Zr 0.81949 0.21040 0.74628
 O1349 O 0.78838 0.31975 0.71156
 O1350 O 0.82237 0.16727 0.76068
 O1351 O 0.79906 0.23385 0.71608
 O1352 O 0.77544 0.19954 0.74444
 O1353 O 0.73292 0.23388 0.75176
 O1354 O 0.75770 0.26984 0.72275
 C1355 C 0.85778 0.22527 0.79485
 C1356 C 0.83749 0.31587 0.76379
 C1357 C 0.78271 0.22370 0.83464
 O1358 O 0.76760 0.16712 0.79029
 O1359 O 0.72532 0.18019 0.76439
 O1360 O 0.72482 0.18989 0.72048
 C1361 C 0.71663 0.17541 0.74082
 O1362 O 0.73970 0.31130 0.78790
 Zr1363 Zr 0.73828 0.27827 0.75879
 O1364 O 0.71290 0.23985 0.70474
 O1365 O 0.71635 0.21376 0.80170
 O1366 O 0.70175 0.27211 0.78348
 O1367 O 0.73169 0.31930 0.74083
 O1368 O 0.70129 0.27466 0.73498
 C1369 C 0.69562 0.25851 0.71515
 O1370 O 0.76196 0.19166 0.68861
 O1371 O 0.84284 0.27593 0.70558
 O1372 O 0.76164 0.24139 0.67786
 O1373 O 0.79617 0.27629 0.68397
 O1374 O 0.85925 0.21759 0.72637
 O1375 O 0.82188 0.18222 0.71331
 C1376 C 0.77930 0.26104 0.66948
 H1377 H 0.84523 0.25997 0.75349
 H1378 H 0.77363 0.17861 0.74029
 H1379 H 0.74840 0.28156 0.70880
 H1380 H 0.74977 0.25934 0.80559
 H1381 H 0.84269 0.16067 0.75830
 H1382 H 0.75259 0.15971 0.80249
 H1383 H 0.71356 0.19500 0.81086
 H1384 H 0.68737 0.28742 0.77917
 H1385 H 0.87274 0.20182 0.73162
 H1386 H 0.84563 0.29464 0.69633
 H1387 H 0.80355 0.32704 0.69947
 H1388 H 0.71136 0.32523 0.74437
 H1389 H 0.83934 0.16974 0.71482
 H1390 H 0.74513 0.19120 0.67646
 H1391 H 0.81138 0.29687 0.82891
 H1392 H 0.72089 0.32176 0.78830
 C1393 C 0.45317 1.03959 0.32083
 C1394 C 0.46453 1.03749 0.34210
 C1395 C 0.47662 1.03428 0.36745
 C1396 C 0.48508 1.03201 0.38977
 C1397 C -0.04702 0.53903 0.82118
 C1398 C -0.03601 0.53694 0.84259
 C1399 C -0.02434 0.53375 0.86808
 C1400 C -0.01623 0.53148 0.89050
 C1401 C 0.04709 -0.03840 0.82243
 C1402 C 0.03630 -0.03607 0.84391
 C1403 C 0.02483 -0.03272 0.86947
 C1404 C 0.01681 -0.03039 0.89191
 C1405 C 0.54692 0.45995 0.32195
 C1406 C 0.53553 0.46231 0.34317
 C1407 C 0.52345 0.46578 0.36848
 C1408 C 0.51501 0.46823 0.39078
 C1409 C 0.54903 0.53777 0.17778
 C1410 C 0.53790 0.53575 0.15641
 C1411 C 0.52601 0.53268 0.13098
 C1412 C 0.51765 0.53049 0.10863
 C1413 C 0.04839 1.03869 0.67819
 C1414 C 0.03759 1.03670 0.65668
 C1415 C 0.02607 1.03361 0.63109
 C1416 C 0.01799 1.03132 0.60866
 C1417 C -0.04798 0.46091 0.67759
 C1418 C -0.03730 0.46307 0.65605
 C1419 C -0.02597 0.46638 0.63045
 C1420 C -0.01808 0.46883 0.60799
 C1421 C 0.45156 -0.03854 0.17770
 C1422 C 0.46253 -0.03645 0.15628
 C1423 C 0.47424 -0.03327 0.13079
 C1424 C 0.48247 -0.03097 0.10841
 C1425 C 0.33469 0.39715 0.01995
 C1426 C 0.35559 0.41294 0.01773
 C1427 C 0.38017 0.43145 0.01549
 C1428 C 0.40088 0.44748 0.01329
 C1429 C -0.16473 0.89750 0.51970
 C1430 C -0.14390 0.91340 0.51762
 C1431 C -0.11935 0.93196 0.51552
 C1432 C -0.09862 0.94796 0.51339
 C1433 C -0.16583 0.10301 0.98169
 C1434 C -0.14487 0.08720 0.98379
 C1435 C -0.12024 0.06866 0.98588
 C1436 C -0.09949 0.05259 0.98796
 C1437 C 0.33247 0.60314 0.47972
 C1438 C 0.35332 0.58718 0.48177
 C1439 C 0.37784 0.56848 0.48389
 C1440 C 0.39851 0.55230 0.48604
 C1441 C 0.16369 0.60310 0.51872
 C1442 C 0.14278 0.58731 0.51658
 C1443 C 0.11817 0.56882 0.51444
 C1444 C 0.09741 0.55283 0.51231
 C1445 C 0.66484 0.10306 0.01991
 C1446 C 0.64389 0.08736 0.01766
 C1447 C 0.61927 0.06891 0.01539
 C1448 C 0.59855 0.05290 0.01317
 C1449 C 0.66821 0.89808 0.47944
 C1450 C 0.64729 0.91397 0.48131
 C1451 C 0.62268 0.93258 0.48324
 C1452 C 0.60193 0.94867 0.48526
 C1453 C 0.16579 0.39739 0.98110
 C1454 C 0.14489 0.41332 0.98302
 C1455 C 0.12030 0.43196 0.98491
 C1456 C 0.09956 0.44808 0.98685
 C1457 C 0.03819 0.31684 0.38068
 C1458 C 0.03689 0.33328 0.39880
 C1459 C 0.03332 0.35264 0.41962
 C1460 C 0.02854 0.37031 0.43627
 C1461 C 0.54162 -0.18511 -0.11684
 C1462 C 0.54070 -0.16851 -0.09883
 C1463 C 0.53720 -0.14883 -0.07824
 C1464 C 0.53224 -0.13090 -0.06188
 C1465 C -0.04114 -0.18597 1.11615
 C1466 C -0.04008 -0.16950 1.09807
 C1467 C -0.03660 -0.14989 1.07749
 C1468 C -0.03176 -0.13189 1.06121
 C1469 C 0.45673 0.31405 0.61561
 C1470 C 0.45737 0.33053 0.59753
 C1471 C 0.46063 0.35017 0.57693
 C1472 C 0.46545 0.36815 0.56062
 C1473 C 0.54344 1.18673 0.61476
 C1474 C 0.54278 1.17038 0.59655
 C1475 C 0.53950 1.15081 0.57587
 C1476 C 0.53469 1.13285 0.55951
 C1477 C 0.04117 0.68510 1.11670
 C1478 C 0.04020 0.66887 1.09840
 C1479 C 0.03671 0.64963 1.07750
 C1480 C 0.03181 0.63196 1.06092
 C1481 C 0.45894 0.68568 -0.11593
 C1482 C 0.45990 0.66919 -0.09785
 C1483 C 0.46331 0.64953 -0.07727
 C1484 C 0.46813 0.63150 -0.06099
 C1485 C -0.03860 1.18399 0.38198
 C1486 C -0.03712 1.16762 0.40012
 C1487 C -0.03354 1.14819 0.42086
 C1488 C -0.02887 1.13038 0.43738
 C1489 C 0.78730 0.70237 0.92797
 C1490 C 0.78517 0.71344 0.90659
 C1491 C 0.78198 0.72521 0.88114
 C1492 C 0.77978 0.73346 0.85877
 C1493 C 0.28975 0.20369 0.42842
 C1494 C 0.28736 0.21480 0.40708
 C1495 C 0.28381 0.22659 0.38166
 C1496 C 0.28128 0.23481 0.35930
 C1497 C 0.70853 0.29525 0.42902
 C1498 C 0.71107 0.28371 0.40787
 C1499 C 0.71485 0.27150 0.38262
 C1500 C 0.71760 0.26305 0.36034
 C1501 C 0.21117 0.79653 0.92898
 C1502 C 0.21326 0.78546 0.90757
 C1503 C 0.21649 0.77368 0.88210
 C1504 C 0.21881 0.76545 0.85971
 C1505 C 0.28943 0.79779 0.07120
 C1506 C 0.28743 0.78704 0.09272
 C1507 C 0.28425 0.77560 0.11830
 C1508 C 0.28188 0.76762 0.14074
 C1509 C 0.78708 0.29896 0.57276
 C1510 C 0.78524 0.28793 0.59417
 C1511 C 0.78231 0.27614 0.61964
 C1512 C 0.78022 0.26783 0.64200
 C1513 C 0.21251 0.20186 0.57215
 C1514 C 0.21457 0.21271 0.59363
 C1515 C 0.21770 0.22430 0.61917
 C1516 C 0.21991 0.23244 0.64158
 C1517 C 0.71022 0.70220 0.07172
 C1518 C 0.71266 0.71309 0.09315
 C1519 C 0.71632 0.72466 0.11865
 C1520 C 0.71903 0.73272 0.14105
 C1521 C 0.14744 0.58568 0.23002
 C1522 C 0.16341 0.60647 0.23203
 C1523 C 0.18206 0.63096 0.23409
 C1524 C 0.19814 0.65165 0.23618
 C1525 C 0.64645 0.08529 0.73022
 C1526 C 0.66223 0.10618 0.73255
 C1527 C 0.68077 0.13073 0.73490
 C1528 C 0.69685 0.15140 0.73716
 C1529 C 0.85301 0.08052 0.27054
 C1530 C 0.83687 0.10128 0.26870
 C1531 C 0.81807 0.12577 0.26685
 C1532 C 0.80188 0.14646 0.26489
 C1533 C 0.35314 0.58292 0.76955
 C1534 C 0.33713 0.60375 0.76761
 C1535 C 0.31840 0.62829 0.76571
 C1536 C 0.30222 0.64900 0.76376
 C1537 C 0.35292 0.41522 0.73050
 C1538 C 0.33724 0.39425 0.73278
 C1539 C 0.31884 0.36959 0.73507
 C1540 C 0.30287 0.34883 0.73727
 C1541 C 0.85385 0.91501 0.22977
 C1542 C 0.83800 0.89413 0.23189
 C1543 C 0.81947 0.86954 0.23405
 C1544 C 0.80346 0.84880 0.23622
 C1545 C 0.64631 0.91616 0.76847
 C1546 C 0.66220 0.89524 0.76652
 C1547 C 0.68084 0.87065 0.76460
 C1548 C 0.69699 0.84993 0.76264
 C1549 C 0.14680 0.41741 0.26982
 C1550 C 0.16277 0.39655 0.26788
 C1551 C 0.18144 0.37199 0.26587
 C1552 C 0.19757 0.35128 0.26379
 C1553 C 0.06448 0.29137 0.86594
 C1554 C 0.08096 0.29031 0.84787
 C1555 C 0.10063 0.28680 0.82731
 C1556 C 0.11866 0.28191 0.81104
 C1557 C 0.56738 0.78966 0.36794
 C1558 C 0.58382 0.78842 0.34983
 C1559 C 0.60324 0.78491 0.32907
 C1560 C 0.62098 0.78017 0.31251
 C1561 C 0.56481 0.20712 0.13419
 C1562 C 0.58130 0.20777 0.15229
 C1563 C 0.60087 0.21091 0.17297
 C1564 C 0.61876 0.21551 0.18942
 C1565 C 0.06406 0.70767 0.63483
 C1566 C 0.08058 0.70849 0.65289
 C1567 C 0.10020 0.71188 0.67349
 C1568 C 0.11814 0.71673 0.68983
 C1569 C 0.93626 0.79228 0.63524
 C1570 C 0.91980 0.79147 0.65334
 C1571 C 0.90013 0.78807 0.67390
 C1572 C 0.88208 0.78316 0.69012
 C1573 C 0.43607 0.29251 0.13484
 C1574 C 0.41953 0.29170 0.15289
 C1575 C 0.39980 0.28836 0.17340
 C1576 C 0.38174 0.28357 0.18965
 C1577 C 0.43447 0.71091 0.36741
 C1578 C 0.41801 0.71230 0.34932
 C1579 C 0.39852 0.71596 0.32863
 C1580 C 0.38072 0.72077 0.31212
 C1581 C 0.93491 0.20807 0.86684
 C1582 C 0.91843 0.20898 0.84874
 C1583 C 0.89885 0.21248 0.82810
 C1584 C 0.88093 0.21746 0.81175
 C1585 C 0.57461 1.03576 0.67712
 C1586 C 0.56131 1.03596 0.65662
 C1587 C 0.54749 1.03633 0.63171
 C1588 C 0.53765 1.03609 0.60969
 C1589 C 0.07260 0.53682 1.17747
 C1590 C 0.05895 0.53690 1.15719
 C1591 C 0.04477 0.53694 1.13247
 C1592 C 0.03471 0.53635 1.11055
 C1593 C -0.07383 -0.03670 1.17852
 C1594 C -0.06006 -0.03666 1.15828
 C1595 C -0.04572 -0.03665 1.13361
 C1596 C -0.03550 -0.03602 1.11174
 C1597 C 0.42489 0.46504 0.67781
 C1598 C 0.43834 0.46489 0.65740
 C1599 C 0.45236 0.46458 0.63258
 C1600 C 0.46235 0.46487 0.61062
 C1601 C 0.42675 0.53480 -0.17810
 C1602 C 0.44039 0.53497 -0.15780
 C1603 C 0.45458 0.53523 -0.13306
 C1604 C 0.46468 0.53486 -0.11115
 C1605 C -0.07209 1.03304 0.32190
 C1606 C -0.05816 1.03331 0.34205
 C1607 C -0.04371 1.03369 0.36666
 C1608 C -0.03348 1.03342 0.38854
 C1609 C 0.07107 0.46648 0.32137
 C1610 C 0.05703 0.46631 0.34144
 C1611 C 0.04247 0.46612 0.36598
 C1612 C 0.03218 0.46656 0.38781
 C1613 C 0.57230 -0.03404 -0.17862
 C1614 C 0.55877 -0.03421 -0.15825
 C1615 C 0.54472 -0.03453 -0.13347
 C1616 C 0.53471 -0.03424 -0.11152
 C1617 C 0.65919 0.64983 0.00185
 C1618 C 0.63771 0.63707 -0.00558
 C1619 C 0.61250 0.62091 -0.01227
 C1620 C 0.59100 0.60609 -0.01501
 C1621 C 0.16099 1.14861 0.50136
 C1622 C 0.13963 1.13568 0.49391
 C1623 C 0.11450 1.11940 0.48725
 C1624 C 0.09301 1.10458 0.48455
 C1625 C 0.15910 -0.15069 0.99806
 C1626 C 0.13765 -0.13783 1.00552
 C1627 C 0.11246 -0.12155 1.01227
 C1628 C 0.09099 -0.10662 1.01510
 C1629 C 0.65711 0.34920 0.49786
 C1630 C 0.63551 0.36193 0.50520
 C1631 C 0.61018 0.37806 0.51182
 C1632 C 0.58861 0.39289 0.51452
 C1633 C -0.16202 0.35203 0.50158
 C1634 C -0.14063 0.36476 0.49394
 C1635 C -0.11542 0.38082 0.48708
 C1636 C -0.09386 0.39551 0.48424
 C1637 C 0.34111 -0.15036 0.00157
 C1638 C 0.36252 -0.13755 -0.00594
 C1639 C 0.38766 -0.12134 -0.01267
 C1640 C 0.40910 -0.10645 -0.01542
 C1641 C 0.34297 1.15130 0.49696
 C1642 C 0.36461 1.13865 0.50425
 C1643 C 0.38998 1.12258 0.51080
 C1644 C 0.41157 1.10780 0.51346
 C1645 C -0.16000 0.65017 0.99690
 C1646 C -0.13836 0.63758 1.00429
 C1647 C -0.11295 0.62162 1.01093
 C1648 C -0.09130 0.60696 1.01368
 C1649 C 0.00105 0.65870 0.57265
 C1650 C -0.00519 0.63532 0.56419
 C1651 C -0.00944 0.60719 0.55477
 C1652 C -0.01053 0.58293 0.54647
 C1653 C 0.50165 0.15845 0.07192
 C1654 C 0.49528 0.13508 0.06349
 C1655 C 0.49097 0.10692 0.05417
 C1656 C 0.48995 0.08260 0.04602
 C1657 C -0.00268 0.15877 0.92946
 C1658 C 0.00351 0.13536 0.93794
 C1659 C 0.00773 0.10717 0.94724
 C1660 C 0.00879 0.08282 0.95531
 C1661 C 0.49609 0.65843 0.42850
 C1662 C 0.50191 0.63472 0.43652
 C1663 C 0.50585 0.60634 0.44547
 C1664 C 0.50678 0.58193 0.45342
 C1665 C 0.50502 0.84187 0.42855
 C1666 C 0.49896 0.86562 0.43635
 C1667 C 0.49480 0.89408 0.44503
 C1668 C 0.49372 0.91857 0.45278
 C1669 C 0.00245 0.34188 0.92806
 C1670 C -0.00359 0.36545 0.93629
 C1671 C -0.00765 0.39375 0.94538
 C1672 C -0.00863 0.41814 0.95338
 C1673 C 0.49839 0.34153 0.07215
 C1674 C 0.50451 0.36490 0.06360
 C1675 C 0.50860 0.39303 0.05417
 C1676 C 0.50952 0.41732 0.04597
 C1677 C -0.00282 0.84181 0.57362
 C1678 C 0.00342 0.86516 0.56510
 C1679 C 0.00779 0.89322 0.55560
 C1680 C 0.00903 0.91742 0.54723
 C1681 C 0.28516 0.32470 0.07234
 C1682 C 0.28529 0.31118 0.09271
 C1683 C 0.28553 0.29710 0.11750
 C1684 C 0.28516 0.28708 0.13944
 C1685 C 0.78719 0.82421 0.57223
 C1686 C 0.78718 0.81060 0.59253
 C1687 C 0.78714 0.79643 0.61725
 C1688 C 0.78646 0.78632 0.63915
 C1689 C 0.21353 0.67632 0.57240
 C1690 C 0.21358 0.68964 0.59288
 C1691 C 0.21360 0.70352 0.61776
 C1692 C 0.21419 0.71343 0.63975
 C1693 C 0.71501 0.17463 0.07287
 C1694 C 0.71508 0.18794 0.09336
 C1695 C 0.71503 0.20179 0.11825
 C1696 C 0.71549 0.21164 0.14026
 C1697 C 0.78442 0.17690 0.92863
 C1698 C 0.78461 0.19051 0.90833
 C1699 C 0.78490 0.20469 0.88361
 C1700 C 0.78455 0.21479 0.86170
 C1701 C 0.28342 0.67833 0.42754
 C1702 C 0.28375 0.69222 0.40739
 C1703 C 0.28419 0.70665 0.38278
 C1704 C 0.28395 0.71686 0.36090
 C1705 C 0.71768 0.82277 0.42768
 C1706 C 0.71753 0.80883 0.40754
 C1707 C 0.71729 0.79435 0.38295
 C1708 C 0.71766 0.78409 0.36109
 C1709 C 0.21525 0.32287 0.92845
 C1710 C 0.21505 0.30922 0.90813
 C1711 C 0.21475 0.29504 0.88339
 C1712 C 0.21512 0.28495 0.86146
 C1713 C 0.89979 0.40906 0.74872
 C1714 C 0.88709 0.38760 0.75625
 C1715 C 0.87099 0.36238 0.76300
 C1716 C 0.85619 0.34088 0.76574
 C1717 C 0.39889 0.91128 0.24775
 C1718 C 0.38608 0.88986 0.25523
 C1719 C 0.36993 0.86465 0.26194
 C1720 C 0.35518 0.84310 0.26468
 C1721 C 0.09995 0.90860 0.75222
 C1722 C 0.11269 0.88695 0.74504
 C1723 C 0.12878 0.86152 0.73866
 C1724 C 0.14351 0.83987 0.73611
 C1725 C 0.60106 0.40706 0.25241
 C1726 C 0.61374 0.38537 0.24522
 C1727 C 0.62974 0.35990 0.23883
 C1728 C 0.64438 0.33818 0.23629
 C1729 C 0.60259 0.58934 0.24837
 C1730 C 0.61537 0.61079 0.25583
 C1731 C 0.63149 0.63605 0.26249
 C1732 C 0.64621 0.65762 0.26519
 C1733 C 0.10018 0.09075 0.74775
 C1734 C 0.11292 0.11221 0.75528
 C1735 C 0.12907 0.13740 0.76209
 C1736 C 0.14390 0.15887 0.76492
 C1737 C 0.40002 0.09207 0.25229
 C1738 C 0.38730 0.11366 0.24494
 C1739 C 0.37118 0.13900 0.23833
 C1740 C 0.35640 0.16059 0.23563
 C1741 C 0.90048 0.59138 0.75223
 C1742 C 0.88774 0.61295 0.74489
 C1743 C 0.87161 0.63828 0.73832
 C1744 C 0.85679 0.65984 0.73563
 C1745 C 0.90960 0.75222 0.17713
 C1746 C 0.88611 0.74601 0.18535
 C1747 C 0.85788 0.74180 0.19448
 C1748 C 0.83357 0.74072 0.20260
 C1749 C 0.40873 0.25121 0.67848
 C1750 C 0.38542 0.24496 0.68706
 C1751 C 0.35730 0.24081 0.69646
 C1752 C 0.33299 0.23991 0.70461
 C1753 C 0.40818 0.74609 0.82267
 C1754 C 0.38468 0.75209 0.81430
 C1755 C 0.35647 0.75620 0.80504
 C1756 C 0.33214 0.75721 0.79693
 C1757 C 0.90867 0.24301 0.32282
 C1758 C 0.88487 0.24882 0.31500
 C1759 C 0.85644 0.25286 0.30625
 C1760 C 0.83202 0.25400 0.29837
 C1761 C 0.09066 0.25442 0.32030
 C1762 C 0.11443 0.24846 0.31255
 C1763 C 0.14291 0.24436 0.30392
 C1764 C 0.16741 0.24327 0.29621
 C1765 C 0.59104 0.75220 0.82079
 C1766 C 0.61447 0.74613 0.81230
 C1767 C 0.64268 0.74209 0.80302
 C1768 C 0.66705 0.74120 0.79500
 C1769 C 0.59153 0.24888 0.67828
 C1770 C 0.61481 0.25513 0.68695
 C1771 C 0.64289 0.25931 0.69646
 C1772 C 0.66717 0.26022 0.70468
 C1773 C 0.09167 0.74647 0.17735
 C1774 C 0.11517 0.75289 0.18543
 C1775 C 0.14338 0.75750 0.19447
 C1776 C 0.16771 0.75894 0.20253
   
