data_POSCAR
  _audit_creation_date              2014-09-24
  _audit_creation_method            'ToBaCCo'
  _symmetry_space_group_name_H-M    'P1'
  _symmetry_Int_Tables_number       1
  _symmetry_cell_setting            triclinic
  loop_
  _symmetry_equiv_pos_as_xyz
 x,y,z
_cell_length_a 67.9047
_cell_length_b 67.9329
_cell_length_c 67.8988
_cell_angle_alpha 90.008000
_cell_angle_beta 89.984100
_cell_angle_gamma 90.004800
loop_
  _atom_site_label
  _atom_site_type_symbol
  _atom_site_fract_x
  _atom_site_fract_y
  _atom_site_fract_z
C1 C 0.35620 1.35602 0.33059
 C2 C 0.36437 1.33891 0.33902
 C3 C 0.35611 1.33019 0.35579
 C4 C 0.33942 1.33868 0.36445
 C5 C 0.33073 1.35583 0.35660
 C6 C 0.33946 1.36438 0.33974
 H7 H 0.37781 1.33266 0.33319
 H8 H 0.33357 1.33194 0.37763
 H9 H 0.33210 1.37653 0.33260
 C10 C 0.35751 0.85679 0.83184
 C11 C 0.36575 0.84006 0.84068
 C12 C 0.35737 0.83188 0.85767
 C13 C 0.34061 0.84074 0.86598
 C14 C 0.33184 0.85753 0.85736
 C15 C 0.34066 0.86538 0.84022
 H16 H 0.37863 0.83325 0.83417
 H17 H 0.33408 0.83388 0.87877
 H18 H 0.33476 0.87849 0.83339
 C19 C 0.85554 1.35612 0.83051
 C20 C 0.86402 1.33923 0.83878
 C21 C 0.85590 1.33046 0.85560
 C22 C 0.83911 1.33886 0.86428
 C23 C 0.83020 1.35593 0.85636
 C24 C 0.83882 1.36444 0.83942
 H25 H 0.87718 1.33302 0.83225
 H26 H 0.83334 1.33212 0.87749
 H27 H 0.83190 1.37683 0.83220
 C28 C 0.85747 0.85761 0.33168
 C29 C 0.84064 0.86560 0.34068
 C30 C 0.83245 0.85686 0.35755
 C31 C 0.84139 0.83999 0.36549
 C32 C 0.85823 0.83177 0.35671
 C33 C 0.86620 0.84073 0.33985
 H34 H 0.83376 0.87854 0.33440
 H35 H 0.83509 0.83309 0.37842
 H36 H 0.87911 0.83442 0.33293
 C37 C 0.64204 0.64280 0.33173
 C38 C 0.65890 0.63415 0.34034
 C39 C 0.66792 0.64242 0.35703
 C40 C 0.65984 0.65941 0.36550
 C41 C 0.64306 0.66829 0.35741
 C42 C 0.63430 0.65995 0.34063
 H43 H 0.66568 0.62136 0.33374
 H44 H 0.66677 0.66588 0.37833
 H45 H 0.62115 0.66681 0.33485
 C46 C 0.64422 0.14442 0.83095
 C47 C 0.66098 0.13577 0.83942
 C48 C 0.66968 0.14351 0.85666
 C49 C 0.66078 0.16018 0.86538
 C50 C 0.64405 0.16905 0.85704
 C51 C 0.63582 0.16102 0.83989
 H52 H 0.66660 0.12239 0.83287
 H53 H 0.66720 0.16693 0.87829
 H54 H 0.62328 0.16813 0.83308
 C55 C 1.14243 0.64293 0.83184
 C56 C 1.13434 0.65974 0.84077
 C57 C 1.14298 0.66799 0.85766
 C58 C 1.15986 0.65912 0.86569
 C59 C 1.16817 0.64231 0.85698
 C60 C 1.15931 0.63428 0.84010
 H61 H 1.12140 0.66657 0.83442
 H62 H 1.16668 0.66547 0.87864
 H63 H 1.16571 0.62139 0.83323
 C64 C 1.14449 0.14439 0.32995
 C65 C 1.13604 0.16101 0.33912
 C66 C 1.14430 0.16920 0.35618
 C67 C 1.16113 0.16056 0.36447
 C68 C 1.17011 0.14395 0.35582
 C69 C 1.16145 0.13605 0.33863
 H70 H 1.12371 0.16853 0.33240
 H71 H 1.16754 0.16743 0.37731
 H72 H 1.16709 0.12236 0.33284
 C73 C 0.64285 1.35677 0.66795
 C74 C 0.63477 1.34002 0.65900
 C75 C 0.64327 1.33200 0.64198
 C76 C 0.65998 1.34104 0.63377
 C77 C 0.66858 1.35787 0.64249
 C78 C 0.65965 1.36555 0.65967
 H79 H 0.62192 1.33308 0.66542
 H80 H 0.66660 1.33431 0.62095
 H81 H 0.66541 1.37868 0.66658
 C82 C 0.64337 0.85620 1.16854
 C83 C 0.63516 0.83936 1.15976
 C84 C 0.64375 0.83091 1.14295
 C85 C 0.66066 0.83962 1.13483
 C86 C 0.66911 0.85643 1.14339
 C87 C 0.66031 0.86468 1.16020
 H88 H 0.62218 0.83267 1.16617
 H89 H 0.66712 0.83342 1.12162
 H90 H 0.66709 0.87728 1.16725
 C91 C 1.14143 1.35762 1.16753
 C92 C 1.13378 1.34045 1.15858
 C93 C 1.14257 1.33224 1.14175
 C94 C 1.15927 1.34126 1.13365
 C95 C 1.16725 1.35828 1.14216
 C96 C 1.15821 1.36641 1.15890
 H97 H 1.12069 1.33347 1.16436
 H98 H 1.16622 1.33489 1.12077
 H99 H 1.16492 1.37922 1.16554
 C100 C 1.14302 0.85635 0.66788
 C101 C 1.13494 0.83963 0.65889
 C102 C 1.14344 0.83163 0.64187
 C103 C 1.16017 0.84066 0.63370
 C104 C 1.16879 0.85746 0.64246
 C105 C 1.15985 0.86512 0.65963
 H106 H 1.12207 0.83269 0.66528
 H107 H 1.16680 0.83394 0.62087
 H108 H 1.16562 0.87823 0.66657
 C109 C 0.35704 0.64355 0.66861
 C110 C 0.34008 0.63511 0.66027
 C111 C 0.33129 0.64341 0.64348
 C112 C 0.33979 0.66021 0.63493
 C113 C 0.35671 0.66887 0.64306
 C114 C 0.36528 0.66038 0.65984
 H115 H 0.33326 0.62253 0.66731
 H116 H 0.33334 0.66643 0.62173
 H117 H 0.37828 0.66704 0.66626
 C118 C 0.35671 0.14401 1.16991
 C119 C 0.33982 0.13553 1.16117
 C120 C 0.33100 0.14393 1.14444
 C121 C 0.33931 0.16087 1.13609
 C122 C 0.35607 0.16961 1.14434
 C123 C 0.36467 0.16113 1.16112
 H124 H 0.33258 0.12310 1.16799
 H125 H 0.33284 0.16714 1.12293
 H126 H 0.37785 0.16786 1.16698
 C127 C 0.85689 0.64396 1.16913
 C128 C 0.84000 0.63548 1.16039
 C129 C 0.83115 0.64390 1.14369
 C130 C 0.83943 0.66087 1.13537
 C131 C 0.85620 0.66961 1.14362
 C132 C 0.86482 0.66110 1.16037
 H133 H 0.83277 0.62304 1.16720
 H134 H 0.83295 0.66717 1.12222
 H135 H 0.87800 0.66783 1.16624
 C136 C 0.85644 0.14420 0.66954
 C137 C 0.83960 0.13568 0.66073
 C138 C 0.83046 0.14411 0.64404
 C139 C 0.83887 0.16129 0.63598
 C140 C 0.85561 0.17000 0.64430
 C141 C 0.86427 0.16142 0.66094
 H142 H 0.83248 0.12347 0.66803
 H143 H 0.83305 0.16761 0.62257
 H144 H 0.87743 0.16815 0.66685
 C145 C 1.35649 0.35630 0.66874
 C146 C 1.33951 0.36446 0.66029
 C147 C 1.33089 0.35596 0.64359
 C148 C 1.33954 0.33916 0.63521
 C149 C 1.35662 0.33051 0.64336
 C150 C 1.36500 0.33951 0.66016
 H151 H 1.33282 0.37735 0.66689
 H152 H 1.33324 0.33345 0.62174
 H153 H 1.37744 0.33282 0.66753
 C154 C 1.35628 0.85589 1.16934
 C155 C 1.36477 0.83908 1.16075
 C156 C 1.35637 0.83011 1.14395
 C157 C 1.33930 0.83878 1.13581
 C158 C 1.33068 0.85559 1.14419
 C159 C 1.33931 0.86407 1.16090
 H160 H 1.37720 0.83238 1.16811
 H161 H 1.33300 0.83310 1.12233
 H162 H 1.33265 0.87698 1.16749
 C163 C 0.85713 0.35624 1.16819
 C164 C 0.83995 0.36441 1.16018
 C165 C 0.83109 0.35608 1.14350
 C166 C 0.83969 0.33944 1.13474
 C167 C 0.85698 0.33081 1.14244
 C168 C 0.86559 0.33963 1.15920
 H169 H 0.83304 0.37686 1.16738
 H170 H 0.83319 0.33387 1.12131
 H171 H 0.87853 0.33325 1.16594
 C172 C 0.85730 0.85655 0.66835
 C173 C 0.86545 0.83966 0.65965
 C174 C 0.85687 0.83115 0.64287
 C175 C 0.84003 0.83990 0.63462
 C176 C 0.83167 0.85682 0.64310
 C177 C 0.84046 0.86508 0.65992
 H178 H 0.87867 0.83325 0.66584
 H179 H 0.83298 0.83307 0.62205
 H180 H 0.83403 0.87805 0.66661
 C181 C 0.64354 0.64362 0.66863
 C182 C 0.63516 0.66045 0.65999
 C183 C 0.64358 0.66903 0.64317
 C184 C 0.66046 0.66046 0.63487
 C185 C 0.66909 0.64366 0.64329
 C186 C 0.66046 0.63527 0.66012
 H187 H 0.62220 0.66705 0.66654
 H188 H 0.66678 0.66676 0.62165
 H189 H 0.66737 0.62269 0.66706
 C190 C 0.64383 1.14441 1.16893
 C191 C 0.66093 1.13629 1.16068
 C192 C 0.66964 1.14474 1.14399
 C193 C 0.66098 1.16147 1.13546
 C194 C 0.64378 1.17006 1.14340
 C195 C 0.63531 1.16111 1.16017
 H196 H 0.66788 1.12377 1.16770
 H197 H 0.66736 1.16715 1.12201
 H198 H 0.62244 1.16745 1.16708
 C199 C 0.14374 0.64404 1.16900
 C200 C 0.13528 0.66100 1.16043
 C201 C 0.14309 0.66976 1.14325
 C202 C 0.15970 0.66089 1.13449
 C203 C 0.16845 0.64407 1.14267
 C204 C 0.16036 0.63571 1.15973
 H205 H 0.12159 0.66655 1.16631
 H206 H 0.16651 0.66739 1.12165
 H207 H 0.16797 0.62340 1.16637
 C208 C 0.14253 1.14343 0.66759
 C209 C 0.13419 1.16016 0.65873
 C210 C 0.14282 1.16900 0.64198
 C211 C 0.16004 1.16029 0.63416
 C212 C 0.16846 1.14347 0.64276
 C213 C 0.15959 1.13515 0.65944
 H214 H 0.12135 1.16662 0.66558
 H215 H 0.16689 1.16623 0.62108
 H216 H 0.16612 1.12229 0.66624
 C217 C 1.35704 0.64367 0.33171
 C218 C 1.34041 0.63521 0.34054
 C219 C 1.33225 0.64336 0.35766
 C220 C 1.34104 0.66009 0.36611
 C221 C 1.35774 0.66905 0.35751
 C222 C 1.36560 0.66042 0.34029
 H223 H 1.33335 0.62268 0.33364
 H224 H 1.33419 0.66645 0.37899
 H225 H 1.37900 0.66610 0.33381
 C226 C 1.35795 1.14348 0.83188
 C227 C 1.34079 1.13520 0.83985
 C228 C 1.33182 1.14348 0.85649
 C229 C 1.34028 1.16019 0.86527
 C230 C 1.35754 1.16893 0.85761
 C231 C 1.36628 1.16015 0.84088
 H232 H 1.33399 1.12270 0.83264
 H233 H 1.33370 1.16573 0.87867
 H234 H 1.37919 1.16661 0.83418
 C235 C 0.85657 0.64412 0.83073
 C236 C 0.86480 0.66092 0.83958
 C237 C 0.85620 0.66933 0.85640
 C238 C 0.83928 0.66063 0.86448
 C239 C 0.83080 0.64386 0.85586
 C240 C 0.83960 0.63564 0.83903
 H241 H 0.87780 0.66761 0.83320
 H242 H 0.83282 0.66679 0.87771
 H243 H 0.83281 0.62307 0.83194
 C244 C 0.85753 1.14355 0.33135
 C245 C 0.84057 1.13507 0.33964
 C246 C 0.83176 1.14328 0.35646
 C247 C 0.84023 1.16005 0.36509
 C248 C 0.85715 1.16877 0.35701
 C249 C 0.86575 1.16036 0.34020
 H250 H 0.83377 1.12250 0.33254
 H251 H 0.83376 1.16621 0.37831
 H252 H 0.87874 1.16706 0.33382
 C253 C 0.64320 0.35611 0.33080
 C254 C 0.65984 0.36476 0.33970
 C255 C 0.66861 0.35644 0.35645
 C256 C 0.66051 0.33935 0.36471
 C257 C 0.64387 0.33017 0.35633
 C258 C 0.63538 0.33889 0.33945
 H259 H 0.66665 0.37764 0.33328
 H260 H 0.66813 0.33261 0.37697
 H261 H 0.62167 0.33307 0.33389
 C262 C 0.64244 0.85676 0.83195
 C263 C 0.63445 0.83988 0.84083
 C264 C 0.64318 0.83160 0.85766
 C265 C 0.66004 0.84051 0.86568
 C266 C 0.66826 0.85740 0.85700
 C267 C 0.65931 0.86545 0.84018
 H268 H 0.62151 0.83302 0.83450
 H269 H 0.66693 0.83415 0.87858
 H270 H 0.66563 0.87839 0.83334
 C271 C 0.14325 0.35657 0.83051
 C272 C 0.13561 0.33924 0.83912
 C273 C 0.14438 0.33067 0.85577
 C274 C 0.16102 0.33959 0.86412
 C275 C 0.16897 0.35681 0.85597
 C276 C 0.15997 0.36524 0.83935
 H277 H 0.12221 0.33270 0.83353
 H278 H 0.16823 0.33271 0.87658
 H279 H 0.16666 0.37820 0.83299
 C280 C 0.14343 0.85621 0.33026
 C281 C 0.13577 0.83888 0.33885
 C282 C 0.14452 0.83030 0.35551
 C283 C 0.16115 0.83920 0.36389
 C284 C 0.16912 0.85642 0.35575
 C285 C 0.16014 0.86487 0.33913
 H286 H 0.12238 0.83235 0.33324
 H287 H 0.16834 0.83232 0.37635
 H288 H 0.16685 0.87783 0.33278
 O289 O 0.98112 0.92863 0.90198
 O290 O 0.98099 0.90557 0.87912
 C291 C 0.97438 0.92167 0.88598
 C292 C 0.95834 0.93216 0.87556
 C293 C 0.95148 0.92537 0.85728
 H294 H 0.95859 0.91291 0.85032
 O295 O 1.02012 1.07055 0.90133
 O296 O 1.02030 1.09341 0.87828
 C297 C 1.02691 1.07738 0.88530
 C298 C 1.04302 1.06686 0.87501
 C299 C 1.05002 1.07363 0.85677
 H300 H 1.04296 1.08608 0.84975
 O301 O 0.90235 0.98105 0.92823
 O302 O 0.87942 0.98103 0.90523
 C303 C 0.88630 0.97438 0.92131
 C304 C 0.87586 0.95837 0.93181
 C305 C 0.85757 0.95152 0.92503
 H306 H 0.85063 0.95861 0.91254
 O307 O 1.09861 1.01846 0.92831
 O308 O 1.12169 1.01829 0.90545
 C309 C 1.11469 1.02510 0.92142
 C310 C 1.12504 1.04123 0.93186
 C311 C 1.14325 1.04827 0.92500
 H312 H 1.15000 1.04157 0.91219
 O313 O 0.92866 0.90267 0.98073
 O314 O 0.90563 0.87978 0.98078
 C315 C 0.92171 0.88663 0.97408
 C316 C 0.93217 0.87615 0.95806
 C317 C 0.92533 0.85787 0.95125
 H318 H 0.91284 0.85097 0.95838
 O319 O 1.07210 1.09745 0.98020
 O320 O 1.09514 1.12033 0.98012
 C321 C 1.07911 1.11341 0.97341
 C322 C 1.06873 1.12370 0.95721
 C323 C 1.07562 1.14188 0.95015
 H324 H 1.08840 1.14865 0.95688
 O325 O 0.92953 1.01923 0.90116
 O326 O 0.90670 1.01927 0.87807
 C327 C 0.92270 1.02595 0.88510
 C328 C 0.93324 1.04204 0.87481
 C329 C 0.92649 1.04913 0.85657
 H330 H 0.91367 1.04250 0.84979
 O331 O 1.07158 0.98002 0.90148
 O332 O 1.09452 0.97977 0.87849
 C333 C 1.07848 0.97315 0.88550
 C334 C 1.06797 0.95696 0.87533
 C335 C 1.07462 0.94985 0.85706
 H336 H 1.08734 0.95655 0.85012
 O337 O 1.01931 0.90155 0.92913
 O338 O 1.01924 0.87838 0.90639
 C339 C 1.02598 0.88544 0.92235
 C340 C 1.04208 0.87517 0.93290
 C341 C 1.04907 0.85686 0.92627
 H342 H 1.04234 0.84996 0.91356
 O343 O 0.98177 1.09781 0.92815
 O344 O 0.98196 1.12076 0.90518
 C345 C 0.97515 1.11385 0.92118
 C346 C 0.95900 1.12427 0.93152
 C347 C 0.95217 1.14253 0.92464
 H348 H 0.95937 1.14948 0.91222
 O349 O 0.90258 1.07150 0.97990
 O350 O 0.87969 1.09452 0.97970
 C351 C 0.88661 1.07845 0.97308
 C352 C 0.87632 1.06796 0.95695
 C353 C 0.85804 1.07467 0.94995
 H354 H 0.85124 1.08744 0.95665
 O355 O 1.09826 0.92861 0.98093
 O356 O 1.12118 0.90561 0.98110
 C357 C 1.11426 0.92158 0.97424
 C358 C 1.12459 0.93187 0.95799
 C359 C 1.14285 0.92503 0.95103
 H360 H 1.14963 0.91231 0.95785
 O361 O 0.98170 1.07076 0.90125
 O362 O 0.98188 1.09362 0.87819
 C363 C 0.97506 1.07766 0.88518
 C364 C 0.95887 1.06731 0.87486
 C365 C 0.95199 1.07411 0.85659
 H366 H 0.95925 1.08644 0.84954
 O367 O 1.01953 0.92834 0.90199
 O368 O 1.01944 0.90527 0.87913
 C369 C 1.02624 0.92129 0.88601
 C370 C 1.04244 0.93158 0.87563
 C371 C 1.04929 0.92470 0.85737
 H372 H 1.04208 0.91229 0.85041
 O373 O 1.09837 0.98009 0.92861
 O374 O 1.12144 0.97985 0.90575
 C375 C 1.11440 0.97327 0.92179
 C376 C 1.12463 0.95717 0.93238
 C377 C 1.14292 0.95020 0.92572
 H378 H 1.15002 0.95733 0.91335
 O379 O 0.90261 1.01943 0.92818
 O380 O 0.87966 1.01945 0.90520
 C381 C 0.88662 1.02618 0.92122
 C382 C 0.87633 1.04238 0.93161
 C383 C 0.85802 1.04922 0.92490
 H384 H 0.85093 1.04195 0.91261
 O385 O 0.92964 1.09836 0.97986
 O386 O 0.90687 1.12150 0.97966
 C387 C 0.92286 1.11439 0.97302
 C388 C 0.93344 1.12456 0.95687
 C389 C 0.92680 1.14281 0.94977
 H390 H 0.91407 1.14973 0.95644
 O391 O 1.07109 0.90185 0.98110
 O392 O 1.09390 0.87875 0.98129
 C393 C 1.07793 0.88575 0.97450
 C394 C 1.06749 0.87537 0.95840
 C395 C 1.07424 0.85706 0.95159
 H396 H 1.08663 0.85005 0.95878
 O397 O 1.07173 1.01844 0.90128
 O398 O 1.09468 1.01826 0.87829
 C399 C 1.07870 1.02509 0.88523
 C400 C 1.06834 1.04128 0.87491
 C401 C 1.07517 1.04829 0.85667
 H402 H 1.08788 1.04150 0.84983
 O403 O 0.92947 0.98081 0.90141
 O404 O 0.90666 0.98079 0.87830
 C405 C 0.92261 0.97403 0.88539
 C406 C 0.93304 0.95777 0.87523
 C407 C 0.92637 0.95074 0.85695
 H408 H 0.91373 0.95754 0.85000
 O409 O 1.02022 1.09756 0.92826
 O410 O 1.02042 1.12051 0.90530
 C411 C 1.02707 1.11352 0.92133
 C412 C 1.04329 1.12373 0.93175
 C413 C 1.05037 1.14191 0.92492
 H414 H 1.04330 1.14896 0.91248
 O415 O 0.98087 0.90180 0.92906
 O416 O 0.98075 0.87862 0.90632
 C417 C 0.97404 0.88577 0.92226
 C418 C 0.95777 0.87569 0.93274
 C419 C 0.95069 0.85741 0.92612
 H420 H 0.95746 0.85042 0.91348
 O421 O 1.09884 1.07026 0.98036
 O422 O 1.12197 1.09305 0.98028
 C423 C 1.11490 1.07708 0.97359
 C424 C 1.12512 1.06661 0.95740
 C425 C 1.14333 1.07341 0.95034
 H426 H 1.15040 1.08582 0.95744
 O427 O 0.90169 0.92963 0.98050
 O428 O 0.87856 0.90685 0.98056
 C429 C 0.88566 0.92276 0.97375
 C430 C 0.87549 0.93315 0.95748
 C431 C 0.85720 0.92647 0.95046
 H432 H 0.85024 0.91386 0.95730
 Cu433 Cu 1.00022 0.91738 0.91783
 Cu434 Cu 1.00009 0.88964 0.89045
 Cu435 Cu 1.00093 1.08188 0.91706
 Cu436 Cu 1.00116 1.10938 0.88943
 Cu437 Cu 0.91829 1.00013 0.91704
 Cu438 Cu 0.89081 1.00013 0.88938
 Cu439 Cu 1.08276 0.99928 0.91719
 Cu440 Cu 1.11040 0.99901 0.88969
 C441 C 0.94914 0.94849 0.88432
 H442 H 0.95418 0.95363 0.89856
 C443 C 0.93548 0.93453 0.84787
 C444 C 1.05215 1.05056 0.88386
 H445 H 1.04699 1.04545 0.89806
 C446 C 1.06612 1.06450 0.84751
 C447 C 0.88460 0.94921 0.94816
 H448 H 0.89883 0.95425 0.95330
 C449 C 0.84814 0.93556 0.93422
 C450 C 1.11619 1.05039 0.94818
 H451 H 1.10200 1.04525 0.95336
 C452 C 1.15248 1.06438 0.93412
 C453 C 0.94851 0.88484 0.94883
 H454 H 0.95370 0.89907 0.95382
 C455 C 0.93445 0.84840 0.93526
 C456 C 1.05245 1.11484 0.94802
 H457 H 1.04724 1.10068 0.95319
 C458 C 1.06655 1.15109 0.93399
 C459 C 0.94953 1.05114 0.88374
 H460 H 0.95461 1.04597 0.89795
 C461 C 0.93576 1.06518 0.84735
 C462 C 1.05176 0.94783 0.88439
 H463 H 1.04672 0.95304 0.89860
 C464 C 1.06538 0.93371 0.84798
 C465 C 1.05128 0.88420 0.94909
 H466 H 1.04617 0.89846 0.95409
 C467 C 1.06518 0.84771 0.93550
 C468 C 0.94966 1.11550 0.94776
 H469 H 0.95467 1.10129 0.95296
 C470 C 0.93606 1.15190 0.93364
 C471 C 0.88525 1.05171 0.94778
 H472 H 0.89950 1.04666 0.95288
 C473 C 0.84877 1.06540 0.93393
 C474 C 1.11569 0.94804 0.94865
 H475 H 1.10147 0.95319 0.95370
 C476 C 1.15212 0.93409 0.93488
 O477 O 1.01881 0.92951 1.09816
 O478 O 1.01863 0.90665 1.12121
 C479 C 1.02546 0.92260 1.11422
 C480 C 1.04165 0.93295 1.12455
 C481 C 1.04849 0.92616 1.14284
 H482 H 1.04118 0.91386 1.14990
 O483 O 0.98134 1.07174 1.09745
 O484 O 0.98138 1.09479 1.12032
 C485 C 0.97461 1.07876 1.11343
 C486 C 0.95840 1.06844 1.12376
 C487 C 0.95159 1.07522 1.14207
 H488 H 0.95885 1.08755 1.14912
 O489 O 0.90206 1.02031 1.07063
 O490 O 0.87902 1.02056 1.09351
 C491 C 0.88606 1.02715 1.07748
 C492 C 0.87586 1.04328 1.06691
 C493 C 0.85763 1.05041 1.07361
 H494 H 0.85077 1.04379 1.08640
 O495 O 1.09814 0.98079 1.07139
 O496 O 1.12110 0.98073 1.09436
 C497 C 1.11413 0.97401 1.07834
 C498 C 1.12441 0.95783 1.06791
 C499 C 1.14261 0.95075 1.07474
 H500 H 1.14941 0.95744 1.08752
 O501 O 1.07106 0.90210 1.01952
 O502 O 1.09384 0.87898 1.01974
 C503 C 1.07785 0.88609 1.02638
 C504 C 1.06726 0.87592 1.04254
 C505 C 1.07388 0.85765 1.04962
 H506 H 1.08665 0.85078 1.04298
 O507 O 0.92966 1.09843 1.01828
 O508 O 0.90689 1.12157 1.01811
 C509 C 0.92284 1.11452 1.02491
 C510 C 0.93328 1.12484 1.04105
 C511 C 0.92656 1.14316 1.04787
 H512 H 0.91425 1.15022 1.04060
 O513 O 0.92880 0.98186 1.09775
 O514 O 0.90587 0.98208 1.12076
 C515 C 0.92184 0.97523 1.11380
 C516 C 0.93217 0.95906 1.12417
 C517 C 0.92539 0.95228 1.14249
 H518 H 0.91304 0.95954 1.14951
 O519 O 1.07124 1.01943 1.09811
 O520 O 1.09407 1.01942 1.12120
 C521 C 1.07813 1.02621 1.11412
 C522 C 1.06780 1.04254 1.12426
 C523 C 1.07462 1.04962 1.14245
 H524 H 1.08691 1.04240 1.14960
 O525 O 0.98032 0.90263 1.07117
 O526 O 0.98012 0.87967 1.09412
 C527 C 0.97348 0.88666 1.07809
 C528 C 0.95730 0.87643 1.06761
 C529 C 0.95023 0.85819 1.07436
 H530 H 0.95694 0.85133 1.08709
 O531 O 1.01989 1.09841 1.07039
 O532 O 1.01996 1.12160 1.09311
 C533 C 1.02668 1.11446 1.07717
 C534 C 1.04290 1.12458 1.06665
 C535 C 1.04991 1.14291 1.07318
 H536 H 1.04312 1.14993 1.08579
 O537 O 0.90171 0.92997 1.01896
 O538 O 0.87860 0.90716 1.01904
 C539 C 0.88565 0.92316 1.02572
 C540 C 0.87540 0.93365 1.04187
 C541 C 0.85720 0.92684 1.04894
 H542 H 0.85015 0.91440 1.04188
 O543 O 1.09881 1.07051 1.01884
 O544 O 1.12194 1.09330 1.01878
 C545 C 1.11484 1.07738 1.02560
 C546 C 1.12499 1.06706 1.04191
 C547 C 1.14320 1.07387 1.04896
 H548 H 1.15032 1.08621 1.04178
 O549 O 1.01977 1.07172 1.09762
 O550 O 1.01985 1.09479 1.12046
 C551 C 1.02652 1.07871 1.11360
 C552 C 1.04261 1.06826 1.12400
 C553 C 1.04972 1.07520 1.14216
 H554 H 1.04313 1.08812 1.14879
 O555 O 0.98039 0.92968 1.09806
 O556 O 0.98018 0.90683 1.12113
 C557 C 0.97357 0.92286 1.11409
 C558 C 0.95747 0.93345 1.12433
 C559 C 0.95045 0.92686 1.14265
 H560 H 0.95714 0.91414 1.14956
 O561 O 1.09833 1.01916 1.07126
 O562 O 1.12129 1.01917 1.09423
 C563 C 1.11438 1.02584 1.07817
 C564 C 1.12479 1.04187 1.06764
 C565 C 1.14301 1.04891 1.07448
 H566 H 1.14971 1.04230 1.08735
 O567 O 0.90183 0.98191 1.07081
 O568 O 0.87878 0.98210 1.09370
 C569 C 0.88576 0.97528 1.07772
 C570 C 0.87542 0.95912 1.06732
 C571 C 0.85722 0.95207 1.07420
 H572 H 0.85045 0.95879 1.08699
 O573 O 1.07194 1.09759 1.01862
 O574 O 1.09498 1.12047 1.01855
 C575 C 1.07891 1.11362 1.02526
 C576 C 1.06846 1.12412 1.04128
 C577 C 1.07524 1.14245 1.04801
 H578 H 1.08769 1.14938 1.04082
 O579 O 0.92850 0.90284 1.01915
 O580 O 0.90548 0.87993 1.01922
 C581 C 0.92151 0.88687 1.02593
 C582 C 0.93187 0.87658 1.04213
 C583 C 0.92503 0.85834 1.04907
 H584 H 0.91261 0.85134 1.04192
 O585 O 1.07111 0.98099 1.09829
 O586 O 1.09393 0.98092 1.12139
 C587 C 1.07792 0.97426 1.11436
 C588 C 1.06734 0.95817 1.12463
 C589 C 1.07404 0.95109 1.14289
 H590 H 1.08686 0.95770 1.14969
 O591 O 0.92900 1.02026 1.09763
 O592 O 0.90608 1.02053 1.12064
 C593 C 0.92214 1.02710 1.11364
 C594 C 0.93274 1.04319 1.12389
 C595 C 0.92612 1.05020 1.14220
 H596 H 0.91338 1.04353 1.14909
 O597 O 0.98145 1.09860 1.07040
 O598 O 0.98147 1.12177 1.09315
 C599 C 0.97474 1.11468 1.07719
 C600 C 0.95861 1.12494 1.06664
 C601 C 0.95159 1.14322 1.07332
 H602 H 0.95826 1.15004 1.08610
 O603 O 1.01877 0.90253 1.07119
 O604 O 1.01860 0.87957 1.09414
 C605 C 1.02541 0.88649 1.07815
 C606 C 1.04159 0.87612 1.06780
 C607 C 1.04835 0.85780 1.07459
 H608 H 1.04103 0.85078 1.08690
 O609 O 1.09812 0.92897 1.01939
 O610 O 1.12101 0.90595 1.01960
 C611 C 1.11408 0.92201 1.02622
 C612 C 1.12436 0.93243 1.04240
 C613 C 1.14256 0.92558 1.04941
 H614 H 1.14958 0.91315 1.04230
 O615 O 0.90241 1.07175 1.01835
 O616 O 0.87953 1.09479 1.01819
 C617 C 0.88641 1.07879 1.02502
 C618 C 0.87604 1.06853 1.04126
 C619 C 0.85781 1.07544 1.04816
 H620 H 0.85083 1.08783 1.04095
 Cu621 Cu 0.99958 0.91837 1.08234
 Cu622 Cu 0.99937 0.89088 1.10996
 Cu623 Cu 1.00061 1.08281 1.08168
 Cu624 Cu 1.00067 1.11056 1.10905
 Cu625 Cu 0.91744 0.91858 0.99982
 Cu626 Cu 0.88975 0.89114 0.99991
 Cu627 Cu 1.08236 0.91770 1.00021
 Cu628 Cu 1.10978 0.89001 1.00045
 Cu629 Cu 0.91835 1.08269 0.99911
 Cu630 Cu 0.89095 1.11041 0.99890
 Cu631 Cu 1.08312 1.08166 0.99951
 Cu632 Cu 1.11084 1.10907 0.99943
 Cu633 Cu 0.91772 1.00107 1.08191
 Cu634 Cu 0.89013 1.00135 1.10946
 Cu635 Cu 1.08241 1.00009 1.08247
 Cu636 Cu 1.10989 1.00006 1.11012
 C637 C 1.05104 0.94910 1.11568
 H638 H 1.04601 0.95425 1.10145
 C639 C 1.06471 0.93507 1.15211
 C640 C 0.94900 1.05230 1.11489
 H641 H 0.95400 1.04716 1.10064
 C642 C 0.93545 1.06623 1.15139
 C643 C 0.88484 1.05233 1.05061
 H644 H 0.89904 1.04710 1.04555
 C645 C 0.84850 1.06650 1.06434
 C646 C 1.11550 0.94869 1.05162
 H647 H 1.10133 0.95387 1.04646
 C648 C 1.15178 0.93460 1.06560
 C649 C 1.05101 0.88495 1.05163
 H650 H 1.04603 0.89919 1.04647
 C651 C 1.06452 0.84846 1.06564
 C652 C 0.94945 1.11596 1.05040
 H653 H 0.95456 1.10171 1.04537
 C654 C 0.93554 1.15244 1.06405
 C655 C 0.94834 0.94967 1.11531
 H656 H 0.95348 0.95465 1.10105
 C657 C 0.93440 0.93617 1.15183
 C658 C 1.05166 1.05183 1.11526
 H659 H 1.04649 1.04661 1.10111
 C660 C 1.06573 1.06599 1.15150
 C661 C 0.94813 0.88540 1.05138
 H662 H 0.95331 0.89959 1.04628
 C663 C 0.93408 0.84905 1.06519
 C664 C 1.05217 1.11540 1.05058
 H665 H 1.04703 1.10113 1.04564
 C666 C 1.06609 1.15195 1.06396
 C667 C 0.88429 0.94992 1.05104
 H668 H 0.89847 0.95507 1.04585
 C669 C 0.84802 0.93590 1.06513
 C670 C 1.11601 1.05093 1.05124
 H671 H 1.10183 1.04578 1.04606
 C672 C 1.15230 1.06494 1.06526
 O673 O 0.98080 0.42865 0.40182
 O674 O 0.98067 0.40556 0.37899
 C675 C 0.97404 0.42165 0.38585
 C676 C 0.95795 0.43208 0.37545
 C677 C 0.95107 0.42526 0.35718
 H678 H 0.95820 0.41280 0.35022
 O679 O 1.01998 0.57026 0.40110
 O680 O 1.02012 0.59312 0.37805
 C681 C 1.02677 0.57711 0.38507
 C682 C 1.04296 0.56666 0.37482
 C683 C 1.05004 0.57348 0.35664
 H684 H 1.04292 0.58588 0.34958
 O685 O 0.90202 0.48091 0.42829
 O686 O 0.87907 0.48085 0.40532
 C687 C 0.88598 0.47421 0.42140
 C688 C 0.87556 0.45820 0.43194
 C689 C 0.85729 0.45128 0.42516
 H690 H 0.85034 0.45832 0.41265
 O691 O 1.09866 0.51834 0.42826
 O692 O 1.12176 0.51815 0.40542
 C693 C 1.11475 0.52496 0.42139
 C694 C 1.12508 0.54108 0.43186
 C695 C 1.14335 0.54808 0.42511
 H696 H 1.15018 0.54137 0.41235
 O697 O 0.92850 0.40264 0.48086
 O698 O 0.90553 0.37968 0.48090
 C699 C 0.92159 0.38659 0.47420
 C700 C 0.93208 0.37615 0.45817
 C701 C 0.92534 0.35781 0.45141
 H702 H 0.91291 0.35085 0.45858
 O703 O 1.07188 0.59729 0.48003
 O704 O 1.09490 0.62019 0.47995
 C705 C 1.07888 0.61324 0.47323
 C706 C 1.06851 0.62350 0.45700
 C707 C 1.07539 0.64168 0.44992
 H708 H 1.08816 0.64846 0.45665
 O709 O 0.92918 0.51905 0.40114
 O710 O 0.90632 0.51908 0.37807
 C711 C 0.92234 0.52576 0.38507
 C712 C 0.93291 0.54181 0.37475
 C713 C 0.92615 0.54890 0.35652
 H714 H 0.91329 0.54232 0.34977
 O715 O 1.07153 0.47999 0.40144
 O716 O 1.09446 0.47971 0.37843
 C717 C 1.07840 0.47313 0.38545
 C718 C 1.06778 0.45703 0.37524
 C719 C 1.07429 0.45003 0.35688
 H720 H 1.08702 0.45669 0.34996
 O721 O 1.01912 0.40168 0.42893
 O722 O 1.01905 0.37851 0.40618
 C723 C 1.02581 0.38559 0.42213
 C724 C 1.04196 0.37534 0.43262
 C725 C 1.04904 0.35710 0.42588
 H726 H 1.04234 0.35024 0.41313
 O727 O 0.98160 0.59747 0.42797
 O728 O 0.98176 0.62041 0.40500
 C729 C 0.97497 0.61351 0.42101
 C730 C 0.95884 0.62393 0.43137
 C731 C 0.95211 0.64226 0.42457
 H732 H 0.95938 0.64924 0.41221
 O733 O 0.90222 0.57135 0.47979
 O734 O 0.87933 0.59438 0.47963
 C735 C 0.88623 0.57830 0.47300
 C736 C 0.87591 0.56780 0.45690
 C737 C 0.85761 0.57449 0.44993
 H738 H 0.85076 0.58722 0.45667
 O739 O 1.09806 0.42874 0.48090
 O740 O 1.12096 0.40572 0.48109
 C741 C 1.11408 0.42172 0.47426
 C742 C 1.12450 0.43198 0.45807
 C743 C 1.14284 0.42517 0.45135
 H744 H 1.14987 0.41292 0.45874
 O745 O 0.98154 0.57041 0.40107
 O746 O 0.98168 0.59327 0.37801
 C747 C 0.97486 0.57732 0.38502
 C748 C 0.95863 0.56699 0.37473
 C749 C 0.95175 0.57379 0.35646
 H750 H 0.95904 0.58607 0.34939
 O751 O 1.01922 0.42855 0.40187
 O752 O 1.01911 0.40548 0.37900
 C753 C 1.02590 0.42151 0.38587
 C754 C 1.04207 0.43183 0.37546
 C755 C 1.04872 0.42512 0.35706
 H756 H 1.04131 0.41288 0.35001
 O757 O 1.09846 0.47998 0.42842
 O758 O 1.12154 0.47969 0.40557
 C759 C 1.11448 0.47313 0.42161
 C760 C 1.12468 0.45706 0.43226
 C761 C 1.14297 0.44998 0.42568
 H762 H 1.14983 0.45655 0.41287
 O763 O 0.90221 0.51930 0.42810
 O764 O 0.87923 0.51929 0.40515
 C765 C 0.88621 0.52605 0.42115
 C766 C 0.87594 0.54226 0.43153
 C767 C 0.85765 0.54913 0.42479
 H768 H 0.85057 0.54192 0.41244
 O769 O 0.92943 0.59807 0.47969
 O770 O 0.90668 0.62122 0.47952
 C771 C 0.92266 0.61410 0.47287
 C772 C 0.93326 0.62426 0.45672
 C773 C 0.92673 0.64258 0.44969
 H774 H 0.91404 0.64955 0.45640
 O775 O 1.07092 0.40192 0.48091
 O776 O 1.09374 0.37882 0.48107
 C777 C 1.07779 0.38584 0.47426
 C778 C 1.06739 0.37551 0.45810
 C779 C 1.07423 0.35727 0.45117
 H780 H 1.08667 0.35028 0.45830
 O781 O 1.07181 0.51839 0.40122
 O782 O 1.09476 0.51820 0.37824
 C783 C 1.07878 0.52504 0.38519
 C784 C 1.06844 0.54124 0.37487
 C785 C 1.07539 0.54836 0.35672
 H786 H 1.08823 0.54169 0.35002
 O787 O 0.92903 0.48064 0.40135
 O788 O 0.90619 0.48060 0.37826
 C789 C 0.92215 0.47385 0.38533
 C790 C 0.93258 0.45761 0.37516
 C791 C 0.92589 0.45055 0.35690
 H792 H 0.91321 0.45731 0.34997
 O793 O 1.02005 0.59727 0.42804
 O794 O 1.02021 0.62021 0.40507
 C795 C 1.02688 0.61323 0.42110
 C796 C 1.04309 0.62347 0.43151
 C797 C 1.05016 0.64165 0.42466
 H798 H 1.04310 0.64868 0.41221
 O799 O 0.98068 0.40195 0.42905
 O800 O 0.98057 0.37875 0.40633
 C801 C 0.97387 0.38590 0.42228
 C802 C 0.95766 0.37577 0.43281
 C803 C 0.95067 0.35744 0.42625
 H804 H 0.95747 0.35044 0.41362
 O805 O 1.09868 0.57015 0.48025
 O806 O 1.12179 0.59296 0.48019
 C807 C 1.11475 0.57696 0.47352
 C808 C 1.12504 0.56648 0.45738
 C809 C 1.14330 0.57323 0.45045
 H810 H 1.15036 0.58562 0.45760
 O811 O 0.90148 0.42955 0.48067
 O812 O 0.87841 0.40671 0.48071
 C813 C 0.88546 0.42264 0.47392
 C814 C 0.87527 0.43301 0.45764
 C815 C 0.85700 0.42627 0.45063
 H816 H 0.85007 0.41364 0.45747
 Cu817 Cu 0.99997 0.41751 0.41770
 Cu818 Cu 0.99984 0.38975 0.39034
 Cu819 Cu 1.00078 0.58156 0.41685
 Cu820 Cu 1.00096 0.60905 0.38922
 Cu821 Cu 0.91791 0.49998 0.41701
 Cu822 Cu 0.89040 0.49995 0.38939
 Cu823 Cu 1.08281 0.49920 0.41712
 Cu824 Cu 1.11044 0.49890 0.38960
 C825 C 0.94873 0.44838 0.38422
 H826 H 0.95378 0.45355 0.39844
 C827 C 0.93502 0.43436 0.34781
 C828 C 1.05212 0.55040 0.38371
 H829 H 1.04689 0.54521 0.39786
 C830 C 1.06630 0.56450 0.34750
 C831 C 0.88432 0.44909 0.44830
 H832 H 0.89855 0.45417 0.45343
 C833 C 0.84791 0.43530 0.43437
 C834 C 1.11615 0.55027 0.44812
 H835 H 1.10192 0.54516 0.45322
 C836 C 1.15255 0.56419 0.43429
 C837 C 0.94837 0.38491 0.44889
 H838 H 0.95348 0.39919 0.45384
 C839 C 0.93451 0.34836 0.43544
 C840 C 1.05224 0.61462 0.44781
 H841 H 1.04704 0.60046 0.45300
 C842 C 1.06633 0.65085 0.43373
 C843 C 0.94925 0.55086 0.38364
 H844 H 0.95433 0.54570 0.39785
 C845 C 0.93547 0.56491 0.34726
 C846 C 1.05156 0.44792 0.38431
 H847 H 1.04666 0.45302 0.39861
 C848 C 1.06484 0.43408 0.34766
 C849 C 1.05113 0.38432 0.44885
 H850 H 1.04595 0.39852 0.45395
 C851 C 1.06520 0.34797 0.43503
 C852 C 0.94943 0.61515 0.44756
 H853 H 0.95437 0.60089 0.45271
 C854 C 0.93605 0.65169 0.43361
 C855 C 0.88485 0.55157 0.44770
 H856 H 0.89910 0.54651 0.45280
 C857 C 0.84837 0.56525 0.43387
 C858 C 1.11565 0.44806 0.44856
 H859 H 1.10140 0.45323 0.45351
 C860 C 1.15218 0.43403 0.43513
 O861 O 1.01880 0.42936 0.59818
 O862 O 1.01864 0.40650 0.62124
 C863 C 1.02544 0.42247 0.61425
 C864 C 1.04161 0.43285 0.62459
 C865 C 1.04843 0.42611 0.64290
 H866 H 1.04113 0.41381 0.64996
 O867 O 0.98113 0.57163 0.59734
 O868 O 0.98117 0.59472 0.62018
 C869 C 0.97441 0.57868 0.61331
 C870 C 0.95822 0.56837 0.62369
 C871 C 0.95136 0.57523 0.64196
 H872 H 0.95857 0.58763 0.64894
 O873 O 0.90209 0.52006 0.57069
 O874 O 0.87903 0.52035 0.59357
 C875 C 0.88608 0.52692 0.57752
 C876 C 0.87586 0.54300 0.56689
 C877 C 0.85757 0.55004 0.57352
 H878 H 0.85070 0.54340 0.58629
 O879 O 1.09799 0.48071 0.57139
 O880 O 1.12098 0.48067 0.59432
 C881 C 1.11398 0.47394 0.57832
 C882 C 1.12422 0.45774 0.56788
 C883 C 1.14244 0.45066 0.57466
 H884 H 1.14928 0.45737 0.58742
 O885 O 1.07074 0.40209 0.51935
 O886 O 1.09354 0.37898 0.51950
 C887 C 1.07754 0.38606 0.52615
 C888 C 1.06703 0.37584 0.54231
 C889 C 1.07372 0.35756 0.54925
 H890 H 1.08604 0.35044 0.54204
 O891 O 0.92933 0.59832 0.51811
 O892 O 0.90656 0.62146 0.51800
 C893 C 0.92252 0.61441 0.52477
 C894 C 0.93300 0.62471 0.54090
 C895 C 0.92623 0.64296 0.54790
 H896 H 0.91348 0.64978 0.54117
 O897 O 0.92872 0.48160 0.59791
 O898 O 0.90578 0.48183 0.62090
 C899 C 0.92174 0.47496 0.61395
 C900 C 0.93205 0.45873 0.62427
 C901 C 0.92510 0.45168 0.64245
 H902 H 0.91234 0.45845 0.64921
 O903 O 1.07116 0.51933 0.59814
 O904 O 1.09399 0.51937 0.62123
 C905 C 1.07804 0.52613 0.61415
 C906 C 1.06761 0.54240 0.62428
 C907 C 1.07422 0.54944 0.64258
 H908 H 1.08684 0.54264 0.64957
 O909 O 0.98035 0.40246 0.57117
 O910 O 0.98019 0.37948 0.59410
 C911 C 0.97352 0.38648 0.57808
 C912 C 0.95731 0.37627 0.56763
 C913 C 0.95021 0.35806 0.57441
 H914 H 0.95694 0.35119 0.58714
 O915 O 1.01973 0.59826 0.57027
 O916 O 1.01979 0.62146 0.59299
 C917 C 1.02652 0.61432 0.57705
 C918 C 1.04273 0.62445 0.56654
 C919 C 1.04978 0.64275 0.57312
 H920 H 1.04301 0.64975 0.58576
 O921 O 0.90143 0.42974 0.51913
 O922 O 0.87835 0.40690 0.51921
 C923 C 0.88539 0.42290 0.52589
 C924 C 0.87513 0.43344 0.54202
 C925 C 0.85682 0.42682 0.54904
 H926 H 0.84995 0.41408 0.54235
 O927 O 1.09856 0.57040 0.51872
 O928 O 1.12167 0.59321 0.51867
 C929 C 1.11458 0.57729 0.52548
 C930 C 1.12475 0.56697 0.54179
 C931 C 1.14299 0.57376 0.54878
 H932 H 1.15011 0.58608 0.54158
 O933 O 1.01955 0.57144 0.59739
 O934 O 1.01961 0.59453 0.62021
 C935 C 1.02626 0.57844 0.61338
 C936 C 1.04230 0.56799 0.62385
 C937 C 1.04910 0.57480 0.64216
 H938 H 1.04196 0.58727 0.64908
 O939 O 0.98038 0.42950 0.59806
 O940 O 0.98018 0.40663 0.62110
 C941 C 0.97355 0.42265 0.61407
 C942 C 0.95737 0.43314 0.62429
 C943 C 0.95023 0.42633 0.64246
 H944 H 0.95723 0.41384 0.64949
 O945 O 1.09815 0.51907 0.57121
 O946 O 1.12113 0.51913 0.59416
 C947 C 1.11420 0.52578 0.57809
 C948 C 1.12459 0.54179 0.56753
 C949 C 1.14283 0.54882 0.57432
 H950 H 1.14956 0.54220 0.58717
 O951 O 0.90182 0.48168 0.57088
 O952 O 0.87876 0.48193 0.59376
 C953 C 0.88572 0.47510 0.57778
 C954 C 0.87531 0.45900 0.56737
 C955 C 0.85696 0.45225 0.57411
 H956 H 0.84993 0.45954 0.58643
 O957 O 1.07173 0.59751 0.51846
 O958 O 1.09475 0.62040 0.51838
 C959 C 1.07869 0.61355 0.52510
 C960 C 1.06825 0.62403 0.54114
 C961 C 1.07506 0.64234 0.54790
 H962 H 1.08751 0.64927 0.54072
 O963 O 0.92837 0.40275 0.51927
 O964 O 0.90539 0.37980 0.51934
 C965 C 0.92141 0.38676 0.52604
 C966 C 0.93181 0.37646 0.54222
 C967 C 0.92495 0.35825 0.54919
 H968 H 0.91248 0.35127 0.54210
 O969 O 1.07099 0.48091 0.59831
 O970 O 1.09384 0.48088 0.62138
 C971 C 1.07783 0.47420 0.61437
 C972 C 1.06726 0.45811 0.62466
 C973 C 1.07394 0.45107 0.64294
 H974 H 1.08674 0.45772 0.64975
 O975 O 0.92898 0.52002 0.59774
 O976 O 0.90605 0.52031 0.62074
 C977 C 0.92210 0.52689 0.61373
 C978 C 0.93266 0.54303 0.62393
 C979 C 0.92599 0.55012 0.64220
 H980 H 0.91326 0.54344 0.64910
 O981 O 0.98128 0.59831 0.57008
 O982 O 0.98132 0.62149 0.59283
 C983 C 0.97459 0.61440 0.57686
 C984 C 0.95846 0.62468 0.56636
 C985 C 0.95150 0.64293 0.57312
 H986 H 0.95860 0.64998 0.58554
 O987 O 1.01880 0.40230 0.57130
 O988 O 1.01868 0.37933 0.59424
 C989 C 1.02547 0.38627 0.57825
 C990 C 1.04163 0.37592 0.56783
 C991 C 1.04861 0.35767 0.57464
 H992 H 1.04189 0.35092 0.58743
 O993 O 1.09787 0.42891 0.51936
 O994 O 1.12075 0.40588 0.51955
 C995 C 1.11382 0.42194 0.52619
 C996 C 1.12411 0.43233 0.54238
 C997 C 1.14233 0.42548 0.54936
 H998 H 1.14934 0.41306 0.54222
 O999 O 0.90230 0.57145 0.51823
 O1000 O 0.87941 0.59447 0.51812
 C1001 C 0.88631 0.57847 0.52494
 C1002 C 0.87598 0.56819 0.54118
 C1003 C 0.85768 0.57501 0.54801
 H1004 H 0.85065 0.58733 0.54074
 Cu1005 Cu 0.99960 0.41819 0.58237
 Cu1006 Cu 0.99941 0.39068 0.60998
 Cu1007 Cu 1.00043 0.58260 0.58149
 Cu1008 Cu 1.00047 0.61038 0.60883
 Cu1009 Cu 0.91723 0.41847 0.49998
 Cu1010 Cu 0.88961 0.39098 0.50004
 Cu1011 Cu 1.08211 0.41773 0.50011
 Cu1012 Cu 1.10954 0.39004 0.50032
 Cu1013 Cu 0.91810 0.58249 0.49896
 Cu1014 Cu 0.89070 0.61020 0.49880
 Cu1015 Cu 1.08291 0.58155 0.49937
 Cu1016 Cu 1.11060 0.60897 0.49929
 Cu1017 Cu 0.91771 0.50081 0.58202
 Cu1018 Cu 0.89010 0.50114 0.60955
 Cu1019 Cu 1.08228 0.50000 0.58247
 Cu1020 Cu 1.10978 0.50001 0.61009
 C1021 C 1.05099 0.44900 0.61570
 H1022 H 1.04596 0.45412 0.60146
 C1023 C 1.06463 0.43506 0.65218
 C1024 C 0.94889 0.55215 0.61490
 H1025 H 0.95392 0.54695 0.60068
 C1026 C 0.93524 0.56623 0.65132
 C1027 C 0.88485 0.55206 0.55060
 H1028 H 0.89909 0.54690 0.54559
 C1029 C 0.84838 0.56605 0.56418
 C1030 C 1.11528 0.44858 0.55162
 H1031 H 1.10109 0.45376 0.54650
 C1032 C 1.15159 0.43451 0.56551
 C1033 C 1.05085 0.38479 0.55157
 H1034 H 1.04577 0.39902 0.54644
 C1035 C 1.06468 0.34838 0.56545
 C1036 C 0.94923 0.61578 0.55012
 H1037 H 0.95434 0.60157 0.54501
 C1038 C 0.93536 0.65216 0.56404
 C1039 C 0.94830 0.44947 0.61541
 H1040 H 0.95355 0.45463 0.60126
 C1041 C 0.93407 0.43545 0.65163
 C1042 C 1.05153 0.55167 0.61514
 H1043 H 1.04653 0.54651 0.60090
 C1044 C 1.06507 0.56566 0.65162
 C1045 C 0.94812 0.38525 0.55141
 H1046 H 0.95332 0.39943 0.54629
 C1047 C 0.93401 0.34896 0.56530
 C1048 C 1.05196 0.61531 0.55043
 H1049 H 1.04681 0.60105 0.54546
 C1050 C 1.06596 0.65181 0.56390
 C1051 C 0.88416 0.44964 0.55119
 H1052 H 0.89843 0.45462 0.54608
 C1053 C 0.84761 0.43613 0.56509
 C1054 C 1.11577 0.55086 0.55115
 H1055 H 1.10157 0.54572 0.54601
 C1056 C 1.15212 0.56482 0.56506
 O1057 O 0.48100 0.92886 0.40208
 O1058 O 0.48088 0.90587 0.37915
 C1059 C 0.47422 0.92192 0.38609
 C1060 C 0.45809 0.93239 0.37578
 C1061 C 0.45103 0.92559 0.35755
 H1062 H 0.45772 0.91280 0.35076
 O1063 O 0.52001 1.07070 0.40194
 O1064 O 0.52008 1.09363 0.37896
 C1065 C 0.52677 1.07761 0.38592
 C1066 C 0.54292 1.06719 0.37559
 C1067 C 0.54992 1.07405 0.35738
 H1068 H 0.54282 1.08651 0.35041
 O1069 O 0.40205 0.98106 0.42884
 O1070 O 0.37912 0.98110 0.40585
 C1071 C 0.38601 0.97439 0.42190
 C1072 C 0.37560 0.95831 0.43233
 C1073 C 0.35736 0.95139 0.42547
 H1074 H 0.35042 0.95849 0.41299
 O1075 O 0.59871 1.01869 0.42871
 O1076 O 0.62174 1.01864 0.40581
 C1077 C 0.61476 1.02537 0.42182
 C1078 C 0.62510 1.04145 0.43233
 C1079 C 0.64335 1.04846 0.42556
 H1080 H 0.65014 1.04178 0.41276
 O1081 O 0.42854 0.90246 0.48083
 O1082 O 0.40560 0.87949 0.48082
 C1083 C 0.42164 0.88643 0.47411
 C1084 C 0.43217 0.87607 0.45805
 C1085 C 0.42545 0.85777 0.45110
 H1086 H 0.41261 0.85103 0.45776
 O1087 O 0.57202 1.09750 0.48073
 O1088 O 0.59502 1.12042 0.48069
 C1089 C 0.57900 1.11348 0.47396
 C1090 C 0.56860 1.12379 0.45779
 C1091 C 0.57548 1.14197 0.45071
 H1092 H 0.58833 1.14867 0.45737
 O1093 O 0.42924 1.01933 0.40189
 O1094 O 0.40641 1.01940 0.37879
 C1095 C 0.42242 1.02607 0.38583
 C1096 C 0.43298 1.04215 0.37555
 C1097 C 0.42625 1.04924 0.35731
 H1098 H 0.41340 1.04264 0.35053
 O1099 O 0.57163 0.98038 0.40178
 O1100 O 0.59452 0.98023 0.37874
 C1101 C 0.57849 0.97359 0.38576
 C1102 C 0.56792 0.95747 0.37553
 C1103 C 0.57457 0.95041 0.35725
 H1104 H 0.58732 0.95707 0.35035
 O1105 O 0.51938 0.90187 0.42908
 O1106 O 0.51932 0.87877 0.40626
 C1107 C 0.52609 0.88581 0.42222
 C1108 C 0.54227 0.87557 0.43268
 C1109 C 0.54931 0.85731 0.42595
 H1110 H 0.54256 0.85042 0.41325
 O1111 O 0.48156 1.09772 0.42892
 O1112 O 0.48165 1.12072 0.40600
 C1113 C 0.47487 1.11375 0.42199
 C1114 C 0.45868 1.12409 0.43235
 C1115 C 0.45178 1.14232 0.42546
 H1116 H 0.45896 1.14929 0.41304
 O1117 O 0.40218 1.07136 0.48071
 O1118 O 0.37927 1.09436 0.48061
 C1119 C 0.38620 1.07832 0.47392
 C1120 C 0.37592 1.06790 0.45773
 C1121 C 0.35773 1.07473 0.45062
 H1122 H 0.35096 1.08753 0.45730
 O1123 O 0.59841 0.92896 0.48094
 O1124 O 0.62135 0.90598 0.48107
 C1125 C 0.61443 0.92197 0.47427
 C1126 C 0.62480 0.93227 0.45807
 C1127 C 0.64310 0.92545 0.45126
 H1128 H 0.65012 0.91312 0.45855
 O1129 O 0.48157 1.07077 0.40192
 O1130 O 0.48165 1.09369 0.37892
 C1131 C 0.47487 1.07770 0.38589
 C1132 C 0.45867 1.06736 0.37558
 C1133 C 0.45180 1.07416 0.35730
 H1134 H 0.45909 1.08646 0.35024
 O1135 O 0.51943 0.92882 0.40211
 O1136 O 0.51934 0.90583 0.37918
 C1137 C 0.52612 0.92184 0.38610
 C1138 C 0.54231 0.93217 0.37573
 C1139 C 0.54915 0.92534 0.35744
 H1140 H 0.54191 0.91297 0.35044
 O1141 O 0.59868 0.98034 0.42865
 O1142 O 0.62172 0.98019 0.40576
 C1143 C 0.61470 0.97355 0.42179
 C1144 C 0.62496 0.95747 0.43237
 C1145 C 0.64326 0.95042 0.42575
 H1146 H 0.65015 0.95706 0.41299
 O1147 O 0.40227 1.01945 0.42888
 O1148 O 0.37934 1.01952 0.40589
 C1149 C 0.38628 1.02622 0.42192
 C1150 C 0.37599 1.04240 0.43232
 C1151 C 0.35776 1.04936 0.42550
 H1152 H 0.35072 1.04218 0.41312
 O1153 O 0.42935 1.09809 0.48066
 O1154 O 0.40656 1.12121 0.48054
 C1155 C 0.42255 1.11412 0.47386
 C1156 C 0.43310 1.12430 0.45770
 C1157 C 0.42640 1.14253 0.45058
 H1158 H 0.41364 1.14941 0.45723
 O1159 O 0.57131 0.90213 0.48092
 O1160 O 0.59416 0.87906 0.48102
 C1161 C 0.57819 0.88607 0.47425
 C1162 C 0.56776 0.87575 0.45810
 C1163 C 0.57457 0.85750 0.45118
 H1164 H 0.58700 0.85050 0.45832
 O1165 O 0.57184 1.01878 0.40168
 O1166 O 0.59473 1.01872 0.37863
 C1167 C 0.57876 1.02550 0.38565
 C1168 C 0.56834 1.04171 0.37541
 C1169 C 0.57515 1.04881 0.35720
 H1170 H 0.58790 1.04210 0.35035
 O1171 O 0.42921 0.98090 0.40205
 O1172 O 0.40638 0.98094 0.37896
 C1173 C 0.42233 0.97416 0.38601
 C1174 C 0.43272 0.95793 0.37577
 C1175 C 0.42590 0.95093 0.35755
 H1176 H 0.41350 0.95807 0.35050
 O1177 O 0.52002 1.09764 0.42895
 O1178 O 0.52011 1.12066 0.40605
 C1179 C 0.52681 1.11365 0.42206
 C1180 C 0.54303 1.12388 0.43246
 C1181 C 0.55005 1.14210 0.42567
 H1182 H 0.54286 1.14919 0.41332
 O1183 O 0.48092 0.90211 0.42926
 O1184 O 0.48084 0.87901 0.40644
 C1185 C 0.47413 0.88609 0.42242
 C1186 C 0.45790 0.87589 0.43285
 C1187 C 0.45104 0.85757 0.42620
 H1188 H 0.45835 0.85040 0.41397
 O1189 O 0.59882 1.07038 0.48084
 O1190 O 0.62192 1.09320 0.48083
 C1191 C 0.61487 1.07722 0.47411
 C1192 C 0.62514 1.06678 0.45792
 C1193 C 0.64339 1.07355 0.45096
 H1194 H 0.65047 1.08592 0.45811
 O1195 O 0.40157 0.92940 0.48083
 O1196 O 0.37849 0.90655 0.48083
 C1197 C 0.38553 0.92252 0.47408
 C1198 C 0.37532 0.93295 0.45787
 C1199 C 0.35708 0.92621 0.45078
 H1200 H 0.35019 0.91351 0.45752
 Cu1201 Cu 0.50020 0.91771 0.41793
 Cu1202 Cu 0.50008 0.89006 0.39046
 Cu1203 Cu 0.50079 1.08191 0.41773
 Cu1204 Cu 0.50088 1.10948 0.39018
 Cu1205 Cu 0.41799 1.00018 0.41772
 Cu1206 Cu 0.39052 1.00025 0.39005
 Cu1207 Cu 0.58292 0.99955 0.41749
 Cu1208 Cu 0.61048 0.99943 0.38991
 C1209 C 0.44894 0.94868 0.38467
 H1210 H 0.45410 0.95383 0.39886
 C1211 C 0.43492 0.93474 0.34835
 C1212 C 0.55211 1.05089 0.38439
 H1213 H 0.54697 1.04570 0.39857
 C1214 C 0.56605 1.06501 0.34810
 C1215 C 0.38435 0.94912 0.44866
 H1216 H 0.39855 0.95420 0.45384
 C1217 C 0.34801 0.93532 0.43456
 C1218 C 0.61621 1.05060 0.44863
 H1219 H 0.60199 1.04548 0.45375
 C1220 C 0.65259 1.06453 0.43475
 C1221 C 0.44850 0.88492 0.44891
 H1222 H 0.45356 0.89917 0.45396
 C1223 C 0.43478 0.84841 0.43516
 C1224 C 0.55227 1.11496 0.44866
 H1225 H 0.54709 1.10078 0.45383
 C1226 C 0.56631 1.15124 0.43464
 C1227 C 0.44930 1.05121 0.38447
 H1228 H 0.45437 1.04605 0.39868
 C1229 C 0.43555 1.06526 0.34807
 C1230 C 0.55167 0.94836 0.38455
 H1231 H 0.54665 0.95353 0.39878
 C1232 C 0.56529 0.93433 0.34810
 C1233 C 0.55149 0.88457 0.44887
 H1234 H 0.54635 0.89878 0.45395
 C1235 C 0.56548 0.84818 0.43510
 C1236 C 0.44936 1.11530 0.44859
 H1237 H 0.45443 1.10110 0.45380
 C1238 C 0.43563 1.15163 0.43444
 C1239 C 0.38484 1.05163 0.44858
 H1240 H 0.39902 1.04649 0.45376
 C1241 C 0.34853 1.06557 0.43449
 C1242 C 0.61595 0.94840 0.44865
 H1243 H 0.60171 0.95356 0.45365
 C1244 C 0.65243 0.93439 0.43510
 O1245 O 0.51904 0.92900 0.59809
 O1246 O 0.51895 0.90605 0.62106
 C1247 C 0.52572 0.92205 0.61413
 C1248 C 0.54185 0.93244 0.62451
 C1249 C 0.54869 0.92562 0.64279
 H1250 H 0.54149 0.91322 0.64977
 O1251 O 0.48124 1.07145 0.59791
 O1252 O 0.48127 1.09443 0.62085
 C1253 C 0.47453 1.07841 0.61392
 C1254 C 0.45839 1.06800 0.62428
 C1255 C 0.45155 1.07477 0.64258
 H1256 H 0.45874 1.08716 0.64959
 O1257 O 0.40227 1.01974 0.57125
 O1258 O 0.37927 1.01989 0.59419
 C1259 C 0.38627 1.02655 0.57817
 C1260 C 0.37602 1.04272 0.56771
 C1261 C 0.35779 1.04972 0.57449
 H1262 H 0.35075 1.04265 0.58694
 O1263 O 0.59800 0.98074 0.57152
 O1264 O 0.62095 0.98064 0.59450
 C1265 C 0.61400 0.97397 0.57845
 C1266 C 0.62432 0.95785 0.56798
 C1267 C 0.64259 0.95094 0.57475
 H1268 H 0.64961 0.95805 0.58719
 O1269 O 0.57117 0.90219 0.51934
 O1270 O 0.59402 0.87912 0.51945
 C1271 C 0.57800 0.88615 0.52610
 C1272 C 0.56747 0.87586 0.54219
 C1273 C 0.57421 0.85760 0.54913
 H1274 H 0.58665 0.85057 0.54204
 O1275 O 0.42933 1.09824 0.51907
 O1276 O 0.40653 1.12135 0.51900
 C1277 C 0.42251 1.11433 0.52574
 C1278 C 0.43300 1.12465 0.54185
 C1279 C 0.42627 1.14294 0.54874
 H1280 H 0.41391 1.14999 0.54154
 O1281 O 0.42899 0.98120 0.59828
 O1282 O 0.40609 0.98129 0.62132
 C1283 C 0.42205 0.97448 0.61431
 C1284 C 0.43241 0.95823 0.62455
 C1285 C 0.42561 0.95117 0.64278
 H1286 H 0.41292 0.95796 0.64966
 O1287 O 0.57110 1.01923 0.59844
 O1288 O 0.59394 1.01917 0.62152
 C1289 C 0.57800 1.02597 0.61446
 C1290 C 0.56766 1.04225 0.62465
 C1291 C 0.57449 1.04931 0.64285
 H1292 H 0.58685 1.04215 0.64995
 O1293 O 0.48059 0.90213 0.57106
 O1294 O 0.48049 0.87906 0.59391
 C1295 C 0.47381 0.88610 0.57792
 C1296 C 0.45763 0.87588 0.56743
 C1297 C 0.45064 0.85759 0.57410
 H1298 H 0.45741 0.85068 0.58678
 O1299 O 0.51976 1.09825 0.57092
 O1300 O 0.51983 1.12137 0.59372
 C1301 C 0.52655 1.11428 0.57775
 C1302 C 0.54277 1.12443 0.56726
 C1303 C 0.54979 1.14274 0.57385
 H1304 H 0.54301 1.14973 0.58649
 O1305 O 0.40167 0.92947 0.51928
 O1306 O 0.37858 0.90664 0.51934
 C1307 C 0.38563 0.92262 0.52606
 C1308 C 0.37542 0.93312 0.54225
 C1309 C 0.35712 0.92649 0.54927
 H1310 H 0.35023 0.91377 0.54254
 O1311 O 0.59873 1.07051 0.51931
 O1312 O 0.62183 1.09333 0.51932
 C1313 C 0.61475 1.07739 0.52609
 C1314 C 0.62491 1.06704 0.54238
 C1315 C 0.64314 1.07382 0.54941
 H1316 H 0.65028 1.08610 0.54217
 O1317 O 0.51964 1.07148 0.59807
 O1318 O 0.51971 1.09448 0.62100
 C1319 C 0.52637 1.07842 0.61409
 C1320 C 0.54243 1.06792 0.62448
 C1321 C 0.54948 1.07478 0.64268
 H1322 H 0.54285 1.08764 0.64940
 O1323 O 0.48063 0.92910 0.59802
 O1324 O 0.48051 0.90614 0.62098
 C1325 C 0.47385 0.92218 0.61403
 C1326 C 0.45773 0.93264 0.62435
 C1327 C 0.45075 0.92582 0.64258
 H1328 H 0.45782 0.91335 0.64956
 O1329 O 0.59824 1.01911 0.57165
 O1330 O 0.62119 1.01907 0.59462
 C1331 C 0.61428 1.02579 0.57858
 C1332 C 0.62468 1.04186 0.56811
 C1333 C 0.64287 1.04893 0.57499
 H1334 H 0.64953 1.04233 0.58789
 O1335 O 0.40211 0.98134 0.57123
 O1336 O 0.37910 0.98145 0.59415
 C1337 C 0.38604 0.97470 0.57813
 C1338 C 0.37564 0.95861 0.56768
 C1339 C 0.35729 0.95185 0.57440
 H1340 H 0.35026 0.95911 0.58674
 O1341 O 0.57184 1.09757 0.51915
 O1342 O 0.59485 1.12049 0.51913
 C1343 C 0.57879 1.11360 0.52583
 C1344 C 0.56833 1.12405 0.54188
 C1345 C 0.57511 1.14237 0.54866
 H1346 H 0.58755 1.14931 0.54149
 O1347 O 0.42857 0.90246 0.51923
 O1348 O 0.40561 0.87951 0.51927
 C1349 C 0.42165 0.88645 0.52595
 C1350 C 0.43211 0.87609 0.54204
 C1351 C 0.42536 0.85780 0.54890
 H1352 H 0.41294 0.85080 0.54175
 O1353 O 0.57106 0.98079 0.59852
 O1354 O 0.59388 0.98068 0.62162
 C1355 C 0.57789 0.97401 0.61457
 C1356 C 0.56735 0.95785 0.62477
 C1357 C 0.57399 0.95080 0.64306
 H1358 H 0.58670 0.95751 0.64999
 O1359 O 0.42924 1.01963 0.59822
 O1360 O 0.40635 1.01977 0.62127
 C1361 C 0.42238 1.02642 0.61425
 C1362 C 0.43291 1.04256 0.62449
 C1363 C 0.42626 1.04958 0.64279
 H1364 H 0.41356 1.04284 0.64971
 O1365 O 0.48130 1.09841 0.57096
 O1366 O 0.48132 1.12151 0.59378
 C1367 C 0.47458 1.11447 0.57781
 C1368 C 0.45843 1.12473 0.56733
 C1369 C 0.45140 1.14297 0.57409
 H1370 H 0.45810 1.14977 0.58687
 O1371 O 0.51903 0.90206 0.57109
 O1372 O 0.51896 0.87901 0.59396
 C1373 C 0.52573 0.88602 0.57798
 C1374 C 0.54191 0.87574 0.56755
 C1375 C 0.54889 0.85748 0.57431
 H1376 H 0.54210 0.85063 0.58701
 O1377 O 0.59828 0.92903 0.51941
 O1378 O 0.62122 0.90605 0.51954
 C1379 C 0.61425 0.92208 0.52622
 C1380 C 0.62449 0.93250 0.54242
 C1381 C 0.64276 0.92577 0.54943
 H1382 H 0.64964 0.91309 0.54264
 O1383 O 0.40222 1.07143 0.51916
 O1384 O 0.37930 1.09442 0.51912
 C1385 C 0.38623 1.07842 0.52590
 C1386 C 0.37594 1.06806 0.54214
 C1387 C 0.35771 1.07488 0.54916
 H1388 H 0.35087 1.08758 0.54237
 Cu1389 Cu 0.49983 0.91786 0.58226
 Cu1390 Cu 0.49972 0.89025 0.60978
 Cu1391 Cu 0.50049 1.08261 0.58217
 Cu1392 Cu 0.50053 1.11027 0.60963
 Cu1393 Cu 0.41737 0.91825 0.50003
 Cu1394 Cu 0.38975 0.89075 0.50007
 Cu1395 Cu 0.58251 0.91790 0.50014
 Cu1396 Cu 0.60999 0.89024 0.50029
 Cu1397 Cu 0.41804 1.08246 0.49991
 Cu1398 Cu 0.39062 1.11015 0.49982
 Cu1399 Cu 0.58305 1.08170 0.50001
 Cu1400 Cu 0.61073 1.10914 0.50000
 Cu1401 Cu 0.41795 1.00046 0.58246
 Cu1402 Cu 0.39040 1.00061 0.61004
 Cu1403 Cu 0.58230 0.99997 0.58274
 Cu1404 Cu 0.60978 0.99988 0.61039
 C1405 C 0.55116 0.94868 0.61572
 H1406 H 0.54614 0.95384 0.60149
 C1407 C 0.56477 0.93466 0.65217
 C1408 C 0.44909 1.05177 0.61545
 H1409 H 0.45411 1.04664 0.60120
 C1410 C 0.43547 1.06569 0.65194
 C1411 C 0.38488 1.05187 0.55141
 H1412 H 0.39907 1.04671 0.54627
 C1413 C 0.34853 1.06581 0.56536
 C1414 C 0.61549 0.94866 0.55169
 H1415 H 0.60127 0.95374 0.54657
 C1416 C 0.65191 0.93489 0.56560
 C1417 C 0.55119 0.88471 0.55137
 H1418 H 0.54609 0.89894 0.54627
 C1419 C 0.56507 0.84832 0.56521
 C1420 C 0.44922 1.11577 0.55111
 H1421 H 0.45434 1.10154 0.54603
 C1422 C 0.43531 1.15220 0.56490
 C1423 C 0.44859 0.94897 0.61555
 H1424 H 0.45373 0.95413 0.60136
 C1425 C 0.43467 0.93495 0.65189
 C1426 C 0.55150 1.05154 0.61569
 H1427 H 0.54634 1.04636 0.60151
 C1428 C 0.56553 1.06559 0.65196
 C1429 C 0.44838 0.88491 0.55128
 H1430 H 0.45349 0.89916 0.54625
 C1431 C 0.43449 0.84845 0.56494
 C1432 C 0.55203 1.11531 0.55115
 H1433 H 0.54690 1.10105 0.54617
 C1434 C 0.56597 1.15181 0.56466
 C1435 C 0.38447 0.94928 0.55147
 H1436 H 0.39874 0.95427 0.54636
 C1437 C 0.34792 0.93576 0.56535
 C1438 C 0.61591 1.05092 0.55170
 H1439 H 0.60173 1.04577 0.54652
 C1440 C 0.65221 1.06492 0.56575
 O1441 O 0.57106 0.51919 1.09865
 O1442 O 0.59389 0.51920 1.12173
 C1443 C 0.57793 0.52596 1.11467
 C1444 C 0.56747 0.54217 1.12486
 C1445 C 0.57410 0.54919 1.14317
 H1446 H 0.58680 0.54246 1.15007
 O1447 O 0.42840 0.48126 1.09833
 O1448 O 0.40544 0.48137 1.12130
 C1449 C 0.42142 0.47456 1.11435
 C1450 C 0.43179 0.45837 1.12466
 C1451 C 0.42490 0.45130 1.14285
 H1452 H 0.41208 0.45800 1.14958
 O1453 O 0.51940 0.59791 1.07105
 O1454 O 0.51949 0.62104 1.09384
 C1455 C 0.52621 0.61393 1.07789
 C1456 C 0.54246 0.62406 1.06741
 C1457 C 0.54952 0.64233 1.07405
 H1458 H 0.54276 0.64929 1.08671
 O1459 O 0.48025 0.40241 1.07150
 O1460 O 0.48011 0.37937 1.09437
 C1461 C 0.47344 0.38640 1.07837
 C1462 C 0.45726 0.37618 1.06788
 C1463 C 0.45019 0.35793 1.07461
 H1464 H 0.45692 0.35106 1.08734
 O1465 O 0.59845 0.57029 1.01931
 O1466 O 0.62155 0.59311 1.01929
 C1467 C 0.61449 0.57717 1.02606
 C1468 C 0.62469 0.56683 1.04234
 C1469 C 0.64292 0.57364 1.04932
 H1470 H 0.65003 0.58596 1.04211
 O1471 O 0.40140 0.42954 1.01927
 O1472 O 0.37830 0.40672 1.01927
 C1473 C 0.38532 0.42271 1.02598
 C1474 C 0.37502 0.43323 1.04209
 C1475 C 0.35667 0.42661 1.04902
 H1476 H 0.34976 0.41394 1.04223
 O1477 O 0.48080 0.57125 1.09807
 O1478 O 0.48084 0.59426 1.12098
 C1479 C 0.47407 0.57825 1.11406
 C1480 C 0.45785 0.56792 1.12438
 C1481 C 0.45095 0.57475 1.14264
 H1482 H 0.45813 0.58713 1.14966
 O1483 O 0.51869 0.42926 1.09858
 O1484 O 0.51856 0.40634 1.12157
 C1485 C 0.52535 0.42233 1.11462
 C1486 C 0.54153 0.43268 1.12497
 C1487 C 0.54837 0.42588 1.14326
 H1488 H 0.54108 0.41356 1.15030
 O1489 O 0.59787 0.48062 1.07181
 O1490 O 0.62087 0.48054 1.09474
 C1491 C 0.61387 0.47384 1.07872
 C1492 C 0.62412 0.45769 1.06824
 C1493 C 0.64234 0.45060 1.07501
 H1494 H 0.64916 0.45726 1.08780
 O1495 O 0.40171 0.51975 1.07124
 O1496 O 0.37862 0.51994 1.09409
 C1497 C 0.38568 0.52657 1.07807
 C1498 C 0.37548 0.54269 1.06750
 C1499 C 0.35719 0.54976 1.07412
 H1500 H 0.35028 0.54310 1.08687
 O1501 O 0.42918 0.59814 1.01898
 O1502 O 0.40636 0.62123 1.01891
 C1503 C 0.42233 0.61420 1.02567
 C1504 C 0.43277 0.62449 1.04183
 C1505 C 0.42602 0.64276 1.04875
 H1506 H 0.41367 0.64983 1.04154
 O1507 O 0.57062 0.40223 1.01959
 O1508 O 0.59344 0.37914 1.01970
 C1509 C 0.57744 0.38619 1.02637
 C1510 C 0.56696 0.37595 1.04254
 C1511 C 0.57371 0.35770 1.04949
 H1512 H 0.58606 0.35062 1.04230
 O1513 O 0.42866 0.51967 1.09822
 O1514 O 0.40570 0.51985 1.12119
 C1515 C 0.42176 0.52647 1.11422
 C1516 C 0.43229 0.54258 1.12449
 C1517 C 0.42557 0.54963 1.14275
 H1518 H 0.41281 0.54295 1.14960
 O1519 O 0.57092 0.48078 1.09877
 O1520 O 0.59377 0.48070 1.12184
 C1521 C 0.57775 0.47403 1.11482
 C1522 C 0.56719 0.45793 1.12508
 C1523 C 0.57389 0.45084 1.14333
 H1524 H 0.58670 0.45746 1.15014
 O1525 O 0.51870 0.40231 1.07159
 O1526 O 0.51860 0.37928 1.09447
 C1527 C 0.52539 0.38628 1.07849
 C1528 C 0.54156 0.37597 1.06806
 C1529 C 0.54861 0.35776 1.07489
 H1530 H 0.54192 0.35100 1.08769
 O1531 O 0.48095 0.59813 1.07104
 O1532 O 0.48100 0.62125 1.09384
 C1533 C 0.47426 0.61421 1.07787
 C1534 C 0.45813 0.62450 1.06737
 C1535 C 0.45109 0.64274 1.07416
 H1536 H 0.45776 0.64950 1.08697
 O1537 O 0.40209 0.57129 1.01900
 O1538 O 0.37917 0.59428 1.01890
 C1539 C 0.38608 0.57828 1.02568
 C1540 C 0.37570 0.56796 1.04187
 C1541 C 0.35741 0.57480 1.04868
 H1542 H 0.35042 0.58716 1.04143
 O1543 O 0.59779 0.42901 1.01962
 O1544 O 0.62069 0.40600 1.01972
 C1545 C 0.61376 0.42203 1.02642
 C1546 C 0.62405 0.43237 1.04264
 C1547 C 0.64227 0.42551 1.04961
 H1548 H 0.64930 0.41312 1.04244
 O1549 O 0.48026 0.42939 1.09845
 O1550 O 0.48010 0.40646 1.12143
 C1551 C 0.47345 0.42249 1.11445
 C1552 C 0.45727 0.43294 1.12470
 C1553 C 0.45024 0.42617 1.14293
 H1554 H 0.45739 0.41380 1.15000
 O1555 O 0.51922 0.57110 1.09818
 O1556 O 0.51928 0.59412 1.12108
 C1557 C 0.52593 0.57805 1.11420
 C1558 C 0.54200 0.56760 1.12461
 C1559 C 0.54876 0.57433 1.14296
 H1560 H 0.54149 0.58667 1.14997
 O1561 O 0.40162 0.48137 1.07120
 O1562 O 0.37853 0.48150 1.09405
 C1563 C 0.38553 0.47474 1.07805
 C1564 C 0.37517 0.45866 1.06757
 C1565 C 0.35683 0.45186 1.07426
 H1566 H 0.34979 0.45904 1.08665
 O1567 O 0.59809 0.51898 1.07176
 O1568 O 0.62107 0.51899 1.09470
 C1569 C 0.61415 0.52566 1.07864
 C1570 C 0.62454 0.54167 1.06808
 C1571 C 0.64278 0.54871 1.07487
 H1572 H 0.64952 0.54210 1.08773
 O1573 O 0.42840 0.40262 1.01946
 O1574 O 0.40541 0.37968 1.01949
 C1575 C 0.42143 0.38664 1.02622
 C1576 C 0.43181 0.37634 1.04242
 C1577 C 0.42498 0.35810 1.04934
 H1578 H 0.41255 0.35110 1.04220
 O1579 O 0.57148 0.59727 1.01923
 O1580 O 0.59450 0.62017 1.01924
 C1581 C 0.57844 0.61328 1.02594
 C1582 C 0.56801 0.62369 1.04203
 C1583 C 0.57483 0.64197 1.04886
 H1584 H 0.58729 0.64891 1.04171
 Cu1585 Cu 0.58219 0.49990 1.08296
 Cu1586 Cu 0.60970 0.49985 1.11057
 Cu1587 Cu 0.41740 0.50050 1.08247
 Cu1588 Cu 0.38976 0.50068 1.10996
 Cu1589 Cu 0.50009 0.58230 1.08229
 Cu1590 Cu 0.50016 0.60999 1.10973
 Cu1591 Cu 0.49949 0.41813 1.08273
 Cu1592 Cu 0.49933 0.39055 1.11026
 C1593 C 0.55132 0.55138 1.11580
 H1594 H 0.54633 0.54627 1.10154
 C1595 C 0.56484 0.56528 1.15234
 C1596 C 0.44808 0.44918 1.11579
 H1597 H 0.45326 0.45433 1.10161
 C1598 C 0.43402 0.43519 1.15210
 C1599 C 0.55170 0.61495 1.05127
 H1600 H 0.54653 0.60073 1.04625
 C1601 C 0.56572 0.65139 1.06489
 C1602 C 0.44807 0.38516 1.05166
 H1603 H 0.45325 0.39936 1.04657
 C1604 C 0.43404 0.34880 1.06545
 C1605 C 0.61572 0.55072 1.05169
 H1606 H 0.60152 0.54557 1.04656
 C1607 C 0.65206 0.56472 1.06561
 C1608 C 0.38404 0.44938 1.05136
 H1609 H 0.39832 0.45437 1.04629
 C1610 C 0.34748 0.43582 1.06513
 C1611 C 0.44855 0.55171 1.11553
 H1612 H 0.45362 0.54655 1.10131
 C1613 C 0.43480 0.56572 1.15192
 C1614 C 0.55090 0.44884 1.11612
 H1615 H 0.54586 0.45401 1.10189
 C1616 C 0.56458 0.43480 1.15254
 C1617 C 0.61520 0.44859 1.05194
 H1618 H 0.60101 0.45378 1.04682
 C1619 C 0.65151 0.43449 1.06580
 C1620 C 0.38451 0.55178 1.05125
 H1621 H 0.39875 0.54661 1.04624
 C1622 C 0.34806 0.56582 1.06482
 C1623 C 0.44897 0.61559 1.05111
 H1624 H 0.45410 0.60138 1.04601
 C1625 C 0.43502 0.65198 1.06496
 C1626 C 0.55075 0.38486 1.05178
 H1627 H 0.54562 0.39906 1.04665
 C1628 C 0.56471 0.34851 1.06571
 O1629 O 0.57112 0.48022 0.90159
 O1630 O 0.59405 0.48006 0.87858
 C1631 C 0.57802 0.47341 0.88559
 C1632 C 0.56750 0.45724 0.87537
 C1633 C 0.57417 0.45017 0.85709
 H1634 H 0.58688 0.45688 0.85017
 O1635 O 0.42934 0.51932 0.90163
 O1636 O 0.40648 0.51939 0.87857
 C1637 C 0.42249 0.52607 0.88559
 C1638 C 0.43301 0.54220 0.87533
 C1639 C 0.42630 0.54924 0.85706
 H1640 H 0.41357 0.54253 0.85019
 O1641 O 0.48136 0.59808 0.92878
 O1642 O 0.48148 0.62112 0.90590
 C1643 C 0.47469 0.61413 0.92188
 C1644 C 0.45852 0.62444 0.93230
 C1645 C 0.45155 0.64272 0.92554
 H1646 H 0.45835 0.64957 0.91283
 O1647 O 0.51897 0.40172 0.92910
 O1648 O 0.51894 0.37856 0.90635
 C1649 C 0.52568 0.38564 0.92231
 C1650 C 0.54182 0.37542 0.93284
 C1651 C 0.54890 0.35717 0.92614
 H1652 H 0.54220 0.35028 0.91341
 O1653 O 0.59785 0.42895 0.98113
 O1654 O 0.62076 0.40595 0.98125
 C1655 C 0.61385 0.42195 0.97444
 C1656 C 0.62420 0.43221 0.95820
 C1657 C 0.64250 0.42539 0.95139
 H1658 H 0.64955 0.41313 0.95875
 O1659 O 0.40214 0.57127 0.98054
 O1660 O 0.37920 0.59425 0.98042
 C1661 C 0.38615 0.57822 0.97374
 C1662 C 0.37589 0.56777 0.95756
 C1663 C 0.35762 0.57448 0.95055
 H1664 H 0.35073 0.58718 0.95731
 O1665 O 0.51973 0.57092 0.90191
 O1666 O 0.51989 0.59385 0.87892
 C1667 C 0.52651 0.57780 0.88589
 C1668 C 0.54260 0.56728 0.87556
 C1669 C 0.54960 0.57408 0.85733
 H1670 H 0.54256 0.58657 0.85035
 O1671 O 0.48071 0.42865 0.90193
 O1672 O 0.48058 0.40560 0.87905
 C1673 C 0.47396 0.42169 0.88593
 C1674 C 0.45791 0.43221 0.87556
 C1675 C 0.45089 0.42544 0.85731
 H1676 H 0.45754 0.41262 0.85054
 O1677 O 0.59817 0.51855 0.92857
 O1678 O 0.62123 0.51847 0.90569
 C1679 C 0.61424 0.52522 0.92170
 C1680 C 0.62458 0.54132 0.93219
 C1681 C 0.64279 0.54839 0.92535
 H1682 H 0.64954 0.54174 0.91251
 O1683 O 0.40222 0.48104 0.92864
 O1684 O 0.37926 0.48107 0.90568
 C1685 C 0.38617 0.47436 0.92172
 C1686 C 0.37577 0.45828 0.93217
 C1687 C 0.35752 0.45138 0.92533
 H1688 H 0.35058 0.45847 0.91285
 O1689 O 0.57164 0.59735 0.98080
 O1690 O 0.59465 0.62025 0.98083
 C1691 C 0.57862 0.61336 0.97410
 C1692 C 0.56824 0.62376 0.95799
 C1693 C 0.57505 0.64206 0.95119
 H1694 H 0.58745 0.64903 0.95840
 O1695 O 0.42853 0.40242 0.98104
 O1696 O 0.40556 0.37947 0.98104
 C1697 C 0.42162 0.38638 0.97437
 C1698 C 0.43211 0.37595 0.95832
 C1699 C 0.42544 0.35756 0.95163
 H1700 H 0.41312 0.35053 0.95893
 O1701 O 0.42924 0.48088 0.90172
 O1702 O 0.40638 0.48093 0.87866
 C1703 C 0.42233 0.47414 0.88570
 C1704 C 0.43268 0.45788 0.87547
 C1705 C 0.42588 0.45092 0.85722
 H1706 H 0.41354 0.45811 0.85013
 O1707 O 0.57125 0.51865 0.90159
 O1708 O 0.59418 0.51857 0.87858
 C1709 C 0.57821 0.52537 0.88557
 C1710 C 0.56786 0.54163 0.87535
 C1711 C 0.57467 0.54867 0.85712
 H1712 H 0.58736 0.54187 0.85024
 O1713 O 0.48053 0.40189 0.92909
 O1714 O 0.48045 0.37872 0.90635
 C1715 C 0.47374 0.38584 0.92230
 C1716 C 0.45756 0.37568 0.93284
 C1717 C 0.45059 0.35733 0.92629
 H1718 H 0.45735 0.35040 0.91361
 O1719 O 0.51979 0.59789 0.92887
 O1720 O 0.51996 0.62094 0.90600
 C1721 C 0.52662 0.61389 0.92201
 C1722 C 0.54280 0.62407 0.93252
 C1723 C 0.54984 0.64237 0.92591
 H1724 H 0.54310 0.64932 0.91324
 O1725 O 0.40162 0.42944 0.98082
 O1726 O 0.37854 0.40661 0.98078
 C1727 C 0.38561 0.42256 0.97402
 C1728 C 0.37545 0.43296 0.95776
 C1729 C 0.35721 0.42624 0.95067
 H1730 H 0.35029 0.41356 0.95744
 O1731 O 0.59839 0.57016 0.98081
 O1732 O 0.62149 0.59298 0.98080
 C1733 C 0.61443 0.57702 0.97405
 C1734 C 0.62465 0.56662 0.95781
 C1735 C 0.64286 0.57345 0.95077
 H1736 H 0.64993 0.58584 0.95791
 O1737 O 0.51911 0.42852 0.90200
 O1738 O 0.51904 0.40548 0.87911
 C1739 C 0.52582 0.42150 0.88600
 C1740 C 0.54199 0.43184 0.87562
 C1741 C 0.54885 0.42499 0.85735
 H1742 H 0.54166 0.41259 0.85038
 O1743 O 0.48133 0.57107 0.90187
 O1744 O 0.48144 0.59399 0.87887
 C1745 C 0.47466 0.57800 0.88583
 C1746 C 0.45850 0.56762 0.87549
 C1747 C 0.45161 0.57442 0.85722
 H1748 H 0.45878 0.58683 0.85021
 O1749 O 0.40236 0.51943 0.92861
 O1750 O 0.37940 0.51948 0.90564
 C1751 C 0.38636 0.52619 0.92167
 C1752 C 0.37605 0.54234 0.93209
 C1753 C 0.35777 0.54923 0.92531
 H1754 H 0.35075 0.54208 0.91290
 O1755 O 0.59801 0.48018 0.92862
 O1756 O 0.62108 0.48001 0.90576
 C1757 C 0.61403 0.47338 0.92178
 C1758 C 0.62427 0.45730 0.93239
 C1759 C 0.64253 0.45019 0.92571
 H1760 H 0.64933 0.45675 0.91286
 O1761 O 0.57077 0.40207 0.98115
 O1762 O 0.59361 0.37899 0.98127
 C1763 C 0.57764 0.38599 0.97449
 C1764 C 0.56723 0.37564 0.95834
 C1765 C 0.57406 0.35739 0.95146
 H1766 H 0.58648 0.35040 0.95863
 O1767 O 0.42929 0.59805 0.98056
 O1768 O 0.40646 0.62114 0.98047
 C1769 C 0.42246 0.61410 0.97380
 C1770 C 0.43298 0.62437 0.95768
 C1771 C 0.42625 0.64264 0.95074
 H1772 H 0.41383 0.64968 0.95784
 Cu1773 Cu 0.58233 0.49941 0.91737
 Cu1774 Cu 0.60994 0.49926 0.88984
 Cu1775 Cu 0.41809 0.50016 0.91744
 Cu1776 Cu 0.39058 0.50022 0.88982
 Cu1777 Cu 0.58269 0.58146 1.00004
 Cu1778 Cu 0.61038 0.60891 1.00004
 Cu1779 Cu 0.58198 0.41788 1.00036
 Cu1780 Cu 0.60942 0.39021 1.00049
 Cu1781 Cu 0.41795 0.58237 0.99977
 Cu1782 Cu 0.39050 0.61004 0.99967
 Cu1783 Cu 0.41728 0.41831 1.00015
 Cu1784 Cu 0.38964 0.39082 1.00014
 Cu1785 Cu 0.50054 0.58221 0.91766
 Cu1786 Cu 0.50071 0.60978 0.89012
 Cu1787 Cu 0.49983 0.41750 0.91782
 Cu1788 Cu 0.49974 0.38976 0.89043
 C1789 C 0.55130 0.44808 0.88441
 H1790 H 0.54626 0.45326 0.89863
 C1791 C 0.56494 0.43403 0.84798
 C1792 C 0.44922 0.55138 0.88432
 H1793 H 0.45428 0.54623 0.89854
 C1794 C 0.43550 0.56537 0.84791
 C1795 C 0.44924 0.61549 0.94848
 H1796 H 0.45433 0.60127 0.95359
 C1797 C 0.43539 0.65190 0.93465
 C1798 C 0.55099 0.38444 0.94906
 H1799 H 0.54582 0.39866 0.95411
 C1800 C 0.56504 0.34806 0.93534
 C1801 C 0.61532 0.44831 0.94873
 H1802 H 0.60110 0.45349 0.95376
 C1803 C 0.65176 0.43423 0.93512
 C1804 C 0.38488 0.55158 0.94834
 H1805 H 0.39911 0.54651 0.95347
 C1806 C 0.34846 0.56532 0.93440
 C1807 C 0.55170 0.55093 0.88435
 H1808 H 0.54656 0.54578 0.89854
 C1809 C 0.56565 0.56492 0.84802
 C1810 C 0.44882 0.44855 0.88442
 H1811 H 0.45395 0.45367 0.89862
 C1812 C 0.43485 0.43468 0.84805
 C1813 C 0.61573 0.55043 0.94854
 H1814 H 0.60155 0.54526 0.95371
 C1815 C 0.65202 0.56448 0.93452
 C1816 C 0.38451 0.44910 0.94851
 H1817 H 0.39872 0.45418 0.95369
 C1818 C 0.34815 0.43534 0.93444
 C1819 C 0.55199 0.61499 0.94868
 H1820 H 0.54683 0.60075 0.95367
 C1821 C 0.56598 0.65147 0.93515
 C1822 C 0.44831 0.38478 0.94897
 H1823 H 0.45338 0.39907 0.95389
 C1824 C 0.43453 0.34815 0.93559
 C1825 C 1.12022 1.12053 1.27707
 C1826 C 1.14030 1.11835 1.28142
 C1827 C 1.14822 1.12607 1.29875
 C1828 C 1.13632 1.13638 1.31237
 C1829 C 1.11612 1.13855 1.30781
 C1830 C 1.10822 1.13068 1.29050
 C1831 C 1.11195 1.11232 1.25859
 N1832 N 1.09229 1.11298 1.25491
 N1833 N 1.08494 1.10562 1.23827
 C1834 C 1.09694 1.09732 1.22457
 N1835 N 1.11658 1.09667 1.22826
 N1836 N 1.12392 1.10398 1.24491
 C1837 C 1.08886 1.08922 1.20596
 C1838 C 1.10158 1.08237 1.19112
 C1839 C 1.09406 1.07484 1.17352
 C1840 C 1.07364 1.07387 1.17034
 C1841 C 1.06090 1.08067 1.18517
 C1842 C 1.06842 1.08829 1.20278
 H1843 H 1.15004 1.11073 1.27134
 H1844 H 1.16393 1.12457 1.30086
 H1845 H 1.10604 1.14565 1.31790
 H1846 H 1.09264 1.13254 1.28767
 H1847 H 1.11740 1.08297 1.19300
 H1848 H 1.10430 1.07006 1.16226
 H1849 H 1.04508 1.07992 1.18326
 H1850 H 1.05819 1.09335 1.21391
 C1851 C 1.11757 0.61923 0.77840
 C1852 C 1.12380 0.60663 0.79360
 C1853 C 1.13175 0.61430 0.81099
 C1854 C 1.13361 0.63474 0.81358
 C1855 C 1.12727 0.64734 0.79845
 C1856 C 1.11935 0.63968 0.78108
 C1857 C 1.10945 0.61115 0.75980
 N1858 N 1.10360 0.62336 0.74508
 N1859 N 1.09649 0.61617 0.72829
 C1860 C 1.09492 0.59644 0.72545
 N1861 N 1.10073 0.58421 0.74018
 N1862 N 1.10784 0.59141 0.75699
 C1863 C 1.08715 0.58848 0.70665
 C1864 C 1.08548 0.56806 0.70365
 C1865 C 1.07829 0.56064 0.68583
 C1866 C 1.07258 0.57346 0.67063
 C1867 C 1.07423 0.59386 0.67363
 C1868 C 1.08142 0.60128 0.69142
 H1869 H 1.12260 0.59081 0.79208
 H1870 H 1.13630 0.60423 0.82248
 H1871 H 1.12877 0.66314 0.79989
 H1872 H 1.11475 0.64984 0.76968
 H1873 H 1.08971 0.55777 0.71506
 H1874 H 1.07699 0.54485 0.68401
 H1875 H 1.07025 0.60411 0.66209
 H1876 H 1.08257 0.61708 0.69316
 C1877 C 0.61986 1.12061 0.77732
 C1878 C 0.64034 1.12228 0.77982
 C1879 C 0.64818 1.13002 0.79718
 C1880 C 0.63575 1.13626 0.81250
 C1881 C 0.61527 1.13467 0.81002
 C1882 C 0.60740 1.12691 0.79263
 C1883 C 0.61162 1.11233 0.75886
 N1884 N 0.59185 1.11072 0.75621
 N1885 N 0.58454 1.10328 0.73959
 C1886 C 0.59668 1.09712 0.72491
 N1887 N 0.61643 1.09872 0.72759
 N1888 N 0.62374 1.10616 0.74419
 C1889 C 0.58862 1.08890 0.70635
 C1890 C 0.60135 1.08262 0.69127
 C1891 C 0.59385 1.07499 0.67371
 C1892 C 0.57342 1.07345 0.67078
 C1893 C 0.56066 1.07969 0.68584
 C1894 C 0.56817 1.08731 0.70344
 H1895 H 0.65039 1.11766 0.76833
 H1896 H 0.66402 1.13133 0.79852
 H1897 H 0.60532 1.13919 0.82164
 H1898 H 0.59156 1.12581 0.79123
 H1899 H 0.61717 1.08367 0.69296
 H1900 H 0.60405 1.07060 0.66227
 H1901 H 0.54486 1.07849 0.68407
 H1902 H 0.55793 1.09196 0.71474
 C1903 C 0.61701 0.61884 1.27926
 C1904 C 0.62705 0.60670 1.29262
 C1905 C 0.63517 0.61449 1.30986
 C1906 C 0.63341 0.63473 1.31441
 C1907 C 0.62301 0.64674 1.30096
 C1908 C 0.61502 0.63892 1.28369
 C1909 C 0.60887 0.61071 1.26069
 N1910 N 0.60084 0.62280 1.24694
 N1911 N 0.59379 0.61559 1.23012
 C1912 C 0.59444 0.59597 1.22632
 N1913 N 0.60241 0.58386 1.24010
 N1914 N 0.60949 0.59108 1.25692
 C1915 C 0.58676 0.58803 1.20748
 C1916 C 0.58577 0.56761 1.20419
 C1917 C 0.57861 0.56021 1.18635
 C1918 C 0.57232 0.57306 1.17138
 C1919 C 0.57336 0.59346 1.17468
 C1920 C 0.58044 0.60085 1.19251
 H1921 H 0.62872 0.59111 1.28977
 H1922 H 0.64220 0.60430 1.31987
 H1923 H 0.62172 0.66246 1.30308
 H1924 H 0.60745 0.64875 1.27368
 H1925 H 0.59045 0.55731 1.21542
 H1926 H 0.57778 0.54442 1.18435
 H1927 H 0.56897 0.60376 1.16333
 H1928 H 0.58110 0.61665 1.19448
 C1929 C 0.88104 0.88292 1.27839
 C1930 C 0.86059 0.88105 1.28107
 C1931 C 0.85298 0.87297 1.29839
 C1932 C 0.86562 0.86656 1.31346
 C1933 C 0.88606 0.86851 1.31085
 C1934 C 0.89369 0.87660 1.29352
 C1935 C 0.88908 0.89122 1.25984
 N1936 N 0.90882 0.89281 1.25699
 N1937 N 0.91599 0.90007 1.24023
 C1938 C 0.90373 0.90605 1.22560
 N1939 N 0.88399 0.90449 1.22848
 N1940 N 0.87683 0.89724 1.24523
 C1941 C 0.91165 0.91396 1.20683
 C1942 C 0.89882 0.91993 1.19172
 C1943 C 0.90621 0.92719 1.17396
 C1944 C 0.92662 0.92867 1.17085
 C1945 C 0.93947 0.92274 1.18594
 C1946 C 0.93208 0.91548 1.20374
 H1947 H 0.85040 0.88570 1.26972
 H1948 H 0.83717 0.87141 1.29983
 H1949 H 0.89616 0.86391 1.32230
 H1950 H 0.90951 0.87787 1.29200
 H1951 H 0.88301 0.91891 1.19354
 H1952 H 0.89593 0.93135 1.16250
 H1953 H 0.95527 0.92390 1.18405
 H1954 H 0.94239 0.91106 1.21506
 C1955 C 0.87941 0.38076 0.77702
 C1956 C 0.87768 0.36027 0.77939
 C1957 C 0.86997 0.35234 0.79673
 C1958 C 0.86380 0.36468 0.81214
 C1959 C 0.86547 0.38517 0.80980
 C1960 C 0.87321 0.39313 0.79244
 C1961 C 0.88759 0.38908 0.75855
 N1962 N 0.88927 0.40885 0.75600
 N1963 N 0.89661 0.41623 0.73936
 C1964 C 0.90257 0.40415 0.72455
 N1965 N 0.90090 0.38440 0.72713
 N1966 N 0.89357 0.37703 0.74375
 C1967 C 0.91070 0.41227 0.70597
 C1968 C 0.91675 0.39958 0.69076
 C1969 C 0.92435 0.40712 0.67321
 C1970 C 0.92612 0.42754 0.67041
 C1971 C 0.92008 0.44026 0.68557
 C1972 C 0.91247 0.43271 0.70317
 H1973 H 0.88223 0.35029 0.76782
 H1974 H 0.86858 0.33651 0.79795
 H1975 H 0.86100 0.39504 0.82150
 H1976 H 0.87435 0.40897 0.79114
 H1977 H 0.91554 0.38377 0.69234
 H1978 H 0.92858 0.39695 0.66168
 H1979 H 0.92144 0.45605 0.68391
 H1980 H 0.90800 0.44291 0.71458
 C1981 C 0.38208 0.88074 0.77838
 C1982 C 0.37616 0.89326 0.79378
 C1983 C 0.36833 0.88550 0.81117
 C1984 C 0.36624 0.86506 0.81357
 C1985 C 0.37228 0.85254 0.79824
 C1986 C 0.38010 0.86028 0.78086
 C1987 C 0.39010 0.88892 0.75977
 N1988 N 0.39579 0.87679 0.74491
 N1989 N 0.40283 0.88408 0.72813
 C1990 C 0.40449 0.90383 0.72545
 N1991 N 0.39883 0.91597 0.74031
 N1992 N 0.39179 0.90867 0.75711
 C1993 C 0.41224 0.91188 0.70667
 C1994 C 0.41391 0.93232 0.70377
 C1995 C 0.42117 0.93983 0.68601
 C1996 C 0.42696 0.92707 0.67079
 C1997 C 0.42527 0.90666 0.67367
 C1998 C 0.41800 0.89916 0.69139
 H1999 H 0.37754 0.90908 0.79241
 H2000 H 0.36403 0.89551 0.82282
 H2001 H 0.37062 0.83674 0.79956
 H2002 H 0.38446 0.85019 0.76931
 H2003 H 0.40964 0.94255 0.71523
 H2004 H 0.42248 0.95562 0.68428
 H2005 H 0.42931 0.89646 0.66210
 H2006 H 0.41686 0.88335 0.69305
 C2007 C 0.38019 0.38062 1.27792
 C2008 C 0.37015 0.39257 1.29148
 C2009 C 0.36227 0.38456 1.30875
 C2010 C 0.36431 0.36431 1.31312
 C2011 C 0.37458 0.35249 1.29939
 C2012 C 0.38231 0.36051 1.28212
 C2013 C 0.38831 0.38895 1.25943
 N2014 N 0.39646 0.37700 1.24562
 N2015 N 0.40366 0.38436 1.22894
 C2016 C 0.40307 0.40401 1.22533
 N2017 N 0.39495 0.41600 1.23915
 N2018 N 0.38771 0.40862 1.25584
 C2019 C 0.41103 0.41210 1.20667
 C2020 C 0.41210 0.43254 1.20354
 C2021 C 0.41962 0.44005 1.18589
 C2022 C 0.42618 0.42730 1.17096
 C2023 C 0.42505 0.40689 1.17408
 C2024 C 0.41761 0.39938 1.19172
 H2025 H 0.36835 0.40817 1.28878
 H2026 H 0.35524 0.39458 1.31894
 H2027 H 0.37600 0.33676 1.30136
 H2028 H 0.38985 0.35081 1.27195
 H2029 H 0.40723 0.44276 1.21477
 H2030 H 0.42050 0.45586 1.18402
 H2031 H 0.42963 0.39666 1.16274
 H2032 H 0.41690 0.38356 1.19355
 C2033 C 0.88146 1.11973 0.72177
 C2034 C 0.88331 1.13988 0.71761
 C2035 C 0.87527 1.14787 0.70046
 C2036 C 0.86494 1.13598 0.68685
 C2037 C 0.86320 1.11569 0.69116
 C2038 C 0.87139 1.10772 0.70830
 C2039 C 0.88983 1.11142 0.74015
 N2040 N 0.88932 1.09175 0.74373
 N2041 N 0.89672 1.08438 0.76035
 C2042 C 0.90490 1.09638 0.77411
 N2043 N 0.90542 1.11604 0.77051
 N2044 N 0.89806 1.12339 0.75389
 C2045 C 0.91295 1.08830 0.79273
 C2046 C 0.91962 1.10101 0.80765
 C2047 C 0.92702 1.09350 0.82530
 C2048 C 0.92806 1.07308 0.82845
 C2049 C 0.92146 1.06034 0.81352
 C2050 C 0.91397 1.06786 0.79587
 H2051 H 0.89087 1.14962 0.72771
 H2052 H 0.87648 1.16362 0.69855
 H2053 H 0.85615 1.10562 0.68103
 H2054 H 0.86979 1.09208 0.71096
 H2055 H 0.91895 1.11683 0.80581
 H2056 H 0.93165 1.10372 0.83662
 H2057 H 0.92227 1.04453 0.81541
 H2058 H 0.90905 1.05764 0.78467
 C2059 C 0.88174 0.61952 0.22146
 C2060 C 0.88388 0.63960 0.21714
 C2061 C 0.87590 0.64758 0.19996
 C2062 C 0.86536 0.63574 0.18646
 C2063 C 0.86336 0.61551 0.19093
 C2064 C 0.87147 0.60755 0.20810
 C2065 C 0.89002 0.61121 0.23988
 N2066 N 0.88930 0.59156 0.24355
 N2067 N 0.89659 0.58419 0.26021
 C2068 C 0.90487 0.59616 0.27393
 N2069 N 0.90560 0.61580 0.27025
 N2070 N 0.89835 0.62316 0.25359
 C2071 C 0.91282 0.58807 0.29259
 C2072 C 0.91952 0.60077 0.30750
 C2073 C 0.92686 0.59324 0.32517
 C2074 C 0.92778 0.57282 0.32836
 C2075 C 0.92112 0.56009 0.31345
 C2076 C 0.91370 0.56763 0.29578
 H2077 H 0.89160 0.64931 0.22716
 H2078 H 0.87733 0.66330 0.19793
 H2079 H 0.85615 0.60546 0.18090
 H2080 H 0.86967 0.59196 0.21088
 H2081 H 0.91895 0.61659 0.30563
 H2082 H 0.93152 0.60346 0.33649
 H2083 H 0.92184 0.54429 0.31537
 H2084 H 0.90874 0.55742 0.28458
 C2085 C 0.38159 1.11968 0.22227
 C2086 C 0.38371 1.13976 0.21793
 C2087 C 0.37571 1.14770 0.20073
 C2088 C 0.36517 1.13584 0.18727
 C2089 C 0.36317 1.11561 0.19178
 C2090 C 0.37130 1.10769 0.20896
 C2091 C 0.38991 1.11141 0.24070
 N2092 N 0.38923 1.09176 0.24439
 N2093 N 0.39657 1.08442 0.26104
 C2094 C 0.40487 1.09642 0.27473
 N2095 N 0.40556 1.11605 0.27102
 N2096 N 0.39826 1.12338 0.25437
 C2097 C 0.41287 1.08835 0.29338
 C2098 C 0.41957 1.10108 0.30828
 C2099 C 0.42693 1.09357 0.32595
 C2100 C 0.42788 1.07315 0.32915
 C2101 C 0.42124 1.06041 0.31424
 C2102 C 0.41380 1.06792 0.29657
 H2103 H 0.39145 1.14949 0.22792
 H2104 H 0.37714 1.16342 0.19867
 H2105 H 0.35594 1.10555 0.18178
 H2106 H 0.36950 1.09210 0.21177
 H2107 H 0.41897 1.11689 0.30639
 H2108 H 0.43158 1.10380 0.33726
 H2109 H 0.42199 1.04460 0.31617
 H2110 H 0.40884 1.05769 0.28539
 C2111 C 0.38177 0.61944 0.72191
 C2112 C 0.37531 0.60693 0.70671
 C2113 C 0.36735 0.61473 0.68939
 C2114 C 0.36572 0.63520 0.68686
 C2115 C 0.37222 0.64769 0.70202
 C2116 C 0.38015 0.63991 0.71932
 C2117 C 0.39002 0.61126 0.74040
 N2118 N 0.39612 0.62340 0.75507
 N2119 N 0.40340 0.61612 0.77175
 C2120 C 0.40490 0.59638 0.77452
 N2121 N 0.39882 0.58422 0.75984
 N2122 N 0.39153 0.59150 0.74314
 C2123 C 0.41287 0.58836 0.79320
 C2124 C 0.41448 0.56792 0.79614
 C2125 C 0.42186 0.56045 0.81386
 C2126 C 0.42784 0.57323 0.82900
 C2127 C 0.42626 0.59363 0.82604
 C2128 C 0.41888 0.60111 0.80837
 H2129 H 0.37637 0.59110 0.70818
 H2130 H 0.36265 0.60475 0.67788
 H2131 H 0.37087 0.66351 0.70065
 H2132 H 0.38491 0.64999 0.73072
 H2133 H 0.41003 0.55767 0.78477
 H2134 H 0.42309 0.54465 0.81564
 H2135 H 0.43044 0.60386 0.83754
 H2136 H 0.41779 0.61692 0.80666
 C2137 C 1.11796 0.87993 0.72129
 C2138 C 1.12390 0.89254 0.70598
 C2139 C 1.13189 0.88490 0.68860
 C2140 C 1.13412 0.86449 0.68613
 C2141 C 1.12805 0.85187 0.70136
 C2142 C 1.12007 0.85949 0.71873
 C2143 C 1.10981 0.88800 0.73989
 N2144 N 1.10407 0.87581 0.75466
 N2145 N 1.09695 0.88302 0.77146
 C2146 C 1.09527 0.90275 0.77422
 N2147 N 1.10098 0.91496 0.75944
 N2148 N 1.10810 0.90774 0.74263
 C2149 C 1.08749 0.91075 0.79302
 C2150 C 1.08593 0.93118 0.79601
 C2151 C 1.07873 0.93864 0.81381
 C2152 C 1.07291 0.92585 0.82900
 C2153 C 1.07446 0.90545 0.82600
 C2154 C 1.08166 0.89798 0.80824
 H2155 H 1.12243 0.90835 0.70740
 H2156 H 1.13620 0.89498 0.67702
 H2157 H 1.12981 0.83608 0.69999
 H2158 H 1.11569 0.84933 0.73021
 H2159 H 1.09025 0.94144 0.78460
 H2160 H 1.07752 0.95443 0.81562
 H2161 H 1.07038 0.89522 0.83754
 H2162 H 1.08272 0.88217 0.80650
 C2163 C 1.11639 0.38121 0.22017
 C2164 C 1.12633 0.39347 0.20682
 C2165 C 1.13443 0.38580 0.18952
 C2166 C 1.13278 0.36557 0.18490
 C2167 C 1.12247 0.35345 0.19833
 C2168 C 1.11450 0.36114 0.21566
 C2169 C 1.10829 0.38922 0.23881
 N2170 N 1.10029 0.37705 0.25252
 N2171 N 1.09329 0.38416 0.26940
 C2172 C 1.09395 0.40376 0.27332
 N2173 N 1.10189 0.41595 0.25958
 N2174 N 1.10892 0.40884 0.24270
 C2175 C 1.08636 0.41159 0.29224
 C2176 C 1.08551 0.43199 0.29569
 C2177 C 1.07847 0.43930 0.31362
 C2178 C 1.07216 0.42639 0.32851
 C2179 C 1.07303 0.40600 0.32506
 C2180 C 1.07999 0.39870 0.30713
 H2181 H 1.12791 0.40906 0.20973
 H2182 H 1.14138 0.39607 0.17953
 H2183 H 1.12127 0.33773 0.19615
 H2184 H 1.10701 0.35123 0.22566
 H2185 H 1.09022 0.44235 0.28452
 H2186 H 1.07776 0.45508 0.31574
 H2187 H 1.06861 0.39565 0.33635
 H2188 H 1.08054 0.38291 0.30505
 C2189 C 0.61862 0.88025 0.22188
 C2190 C 0.62506 0.89277 0.20669
 C2191 C 0.63301 0.88499 0.18935
 C2192 C 0.63467 0.86452 0.18681
 C2193 C 0.62817 0.85202 0.20196
 C2194 C 0.62024 0.85978 0.21927
 C2195 C 0.61040 0.88843 0.24040
 N2196 N 0.60429 0.87628 0.25507
 N2197 N 0.59706 0.88355 0.27178
 C2198 C 0.59561 0.90330 0.27457
 N2199 N 0.60168 0.91546 0.25990
 N2200 N 0.60892 0.90818 0.24317
 C2201 C 0.58769 0.91132 0.29328
 C2202 C 0.58617 0.93176 0.29627
 C2203 C 0.57886 0.93924 0.31402
 C2204 C 0.57287 0.92646 0.32915
 C2205 C 0.57435 0.90605 0.32615
 C2206 C 0.58166 0.89857 0.30844
 H2207 H 0.62399 0.90860 0.20817
 H2208 H 0.63771 0.89498 0.17785
 H2209 H 0.62954 0.83620 0.20057
 H2210 H 0.61550 0.84969 0.23067
 H2211 H 0.59063 0.94201 0.28491
 H2212 H 0.57770 0.95503 0.31583
 H2213 H 0.57015 0.89583 0.33765
 H2214 H 0.58267 0.88276 0.30671
 C2215 C 0.61778 0.38034 0.72136
 C2216 C 0.62370 0.39296 0.70604
 C2217 C 0.63170 0.38532 0.68867
 C2218 C 0.63396 0.36490 0.68621
 C2219 C 0.62792 0.35229 0.70145
 C2220 C 0.61992 0.35991 0.71882
 C2221 C 0.60960 0.38841 0.73995
 N2222 N 0.60385 0.37621 0.75472
 N2223 N 0.59670 0.38341 0.77149
 C2224 C 0.59497 0.40314 0.77425
 N2225 N 0.60069 0.41536 0.75948
 N2226 N 0.60784 0.40815 0.74269
 C2227 C 0.58715 0.41112 0.79304
 C2228 C 0.58556 0.43155 0.79604
 C2229 C 0.57833 0.43900 0.81383
 C2230 C 0.57250 0.42619 0.82900
 C2231 C 0.57407 0.40579 0.82600
 C2232 C 0.58130 0.39834 0.80824
 H2233 H 0.62220 0.40876 0.70745
 H2234 H 0.63599 0.39540 0.67708
 H2235 H 0.62970 0.33650 0.70009
 H2236 H 0.61557 0.34975 0.73030
 H2237 H 0.58989 0.44182 0.78464
 H2238 H 0.57710 0.45479 0.81565
 H2239 H 0.56998 0.39555 0.83752
 H2240 H 0.58239 0.38254 0.80650
 C2241 C 1.27764 1.11941 1.12019
 C2242 C 1.29301 1.10701 1.12643
 C2243 C 1.31033 1.11493 1.13430
 C2244 C 1.31267 1.13541 1.13606
 C2245 C 1.29731 1.14778 1.12985
 C2246 C 1.28002 1.13989 1.12200
 C2247 C 1.25921 1.11114 1.11187
 N2248 N 1.24451 1.12322 1.10573
 N2249 N 1.22792 1.11588 1.09831
 C2250 C 1.22528 1.09613 1.09669
 N2251 N 1.23998 1.08403 1.10281
 N2252 N 1.25660 1.09137 1.11024
 C2253 C 1.20671 1.08805 1.08850
 C2254 C 1.20379 1.06761 1.08694
 C2255 C 1.18618 1.06009 1.07935
 C2256 C 1.17113 1.07283 1.07310
 C2257 C 1.17406 1.09325 1.07462
 C2258 C 1.19163 1.10077 1.08221
 H2259 H 1.29170 1.09117 1.12522
 H2260 H 1.32199 1.10503 1.13879
 H2261 H 1.29854 1.16361 1.13130
 H2262 H 1.26848 1.14990 1.11743
 H2263 H 1.21510 1.05739 1.09160
 H2264 H 1.18441 1.04429 1.07818
 H2265 H 1.16262 1.10344 1.07022
 H2266 H 1.19331 1.11658 1.08324
 C2267 C 1.27777 0.61903 0.61949
 C2268 C 1.29301 0.60658 0.62594
 C2269 C 1.31039 0.61445 0.63372
 C2270 C 1.31291 0.63493 0.63520
 C2271 C 1.29766 0.64736 0.62879
 C2272 C 1.28032 0.63951 0.62103
 C2273 C 1.25929 0.61080 0.61126
 N2274 N 1.24465 0.62291 0.60504
 N2275 N 1.22801 0.61562 0.59768
 C2276 C 1.22526 0.59587 0.59622
 N2277 N 1.23990 0.58373 0.60242
 N2278 N 1.25656 0.59103 0.60979
 C2279 C 1.20665 0.58783 0.58810
 C2280 C 1.20367 0.56739 0.58658
 C2281 C 1.18603 0.55991 0.57905
 C2282 C 1.17099 0.57268 0.57284
 C2283 C 1.17397 0.59309 0.57432
 C2284 C 1.19158 0.60057 0.58184
 H2285 H 1.29157 0.59074 0.62495
 H2286 H 1.32195 0.60452 0.63837
 H2287 H 1.29903 0.66319 0.63002
 H2288 H 1.26888 0.64955 0.61630
 H2289 H 1.21497 0.55714 0.59122
 H2290 H 1.18421 0.54411 0.57791
 H2291 H 1.16254 0.60331 0.56994
 H2292 H 1.19331 0.61638 0.58284
 C2293 C 0.77789 1.11953 0.61984
 C2294 C 0.78205 1.13966 0.61783
 C2295 C 0.79929 1.14767 0.62563
 C2296 C 0.81302 1.13583 0.63586
 C2297 C 0.80868 1.11556 0.63779
 C2298 C 0.79144 1.10756 0.62985
 C2299 C 0.75943 1.11120 0.61165
 N2300 N 0.75582 1.09153 0.61227
 N2301 N 0.73916 1.08415 0.60497
 C2302 C 0.72539 1.09613 0.59679
 N2303 N 0.72901 1.11578 0.59618
 N2304 N 0.74566 1.12314 0.60343
 C2305 C 0.70675 1.08804 0.58878
 C2306 C 0.69187 1.10075 0.58203
 C2307 C 0.67425 1.09323 0.57457
 C2308 C 0.67107 1.07282 0.57358
 C2309 C 0.68593 1.06008 0.58030
 C2310 C 0.70357 1.06760 0.58784
 H2311 H 0.77188 1.14937 0.61032
 H2312 H 0.80123 1.16341 0.62429
 H2313 H 0.81888 1.10553 0.64479
 H2314 H 0.78877 1.09194 0.63156
 H2315 H 0.69374 1.11656 0.58263
 H2316 H 0.66296 1.10346 0.56985
 H2317 H 0.68402 1.04427 0.57954
 H2318 H 0.71473 1.05738 0.59284
 C2319 C 0.77773 0.61934 1.11962
 C2320 C 0.79314 0.60696 1.12579
 C2321 C 0.81049 0.61489 1.13356
 C2322 C 0.81282 0.63537 1.13532
 C2323 C 0.79743 0.64774 1.12915
 C2324 C 0.78011 0.63983 1.12139
 C2325 C 0.75925 0.61104 1.11144
 N2326 N 0.74450 0.62311 1.10539
 N2327 N 0.72785 0.61575 1.09811
 C2328 C 0.72520 0.59599 1.09657
 N2329 N 0.73996 0.58390 1.10261
 N2330 N 0.75663 0.59127 1.10989
 C2331 C 0.70658 0.58788 1.08853
 C2332 C 0.70365 0.56744 1.08705
 C2333 C 0.68600 0.55990 1.07958
 C2334 C 0.67091 0.57263 1.07338
 C2335 C 0.67384 0.59305 1.07485
 C2336 C 0.69145 0.60058 1.08233
 H2337 H 0.79183 0.59112 1.12460
 H2338 H 0.82218 0.60500 1.13802
 H2339 H 0.79865 0.66357 1.13060
 H2340 H 0.76854 0.64982 1.11687
 H2341 H 0.71499 0.55723 1.09166
 H2342 H 0.68422 0.54409 1.07845
 H2343 H 0.66237 0.60323 1.07050
 H2344 H 0.69314 0.61640 1.08331
 C2345 C 1.27913 0.88201 0.88138
 C2346 C 1.28354 0.88407 0.86129
 C2347 C 1.30089 0.87627 0.85347
 C2348 C 1.31443 0.86597 0.86546
 C2349 C 1.30990 0.86413 0.88570
 C2350 C 1.29257 0.87206 0.89351
 C2351 C 1.26049 0.88998 0.88952
 N2352 N 1.25671 0.88933 0.90916
 N2353 N 1.23985 0.89631 0.91639
 C2354 C 1.22603 0.90419 0.90427
 N2355 N 1.22982 0.90485 0.88464
 N2356 N 1.24668 0.89791 0.87743
 C2357 C 1.20716 0.91181 0.91221
 C2358 C 1.19219 0.91808 0.89936
 C2359 C 1.17438 0.92523 0.90674
 C2360 C 1.17110 0.92639 0.92714
 C2361 C 1.18604 0.92010 0.94001
 C2362 C 1.20386 0.91286 0.93263
 H2363 H 1.27347 0.89157 0.85147
 H2364 H 1.30300 0.87760 0.83774
 H2365 H 1.31996 0.85717 0.89588
 H2366 H 1.28973 0.87034 0.90911
 H2367 H 1.19415 0.91736 0.88355
 H2368 H 1.16304 0.92961 0.89641
 H2369 H 1.18405 0.92100 0.95581
 H2370 H 1.21509 0.90822 0.94295
 C2371 C 1.27835 0.38003 0.38160
 C2372 C 1.28263 0.35992 0.38350
 C2373 C 1.29983 0.35202 0.37546
 C2374 C 1.31337 0.36397 0.36510
 C2375 C 1.30893 0.38423 0.36334
 C2376 C 1.29174 0.39211 0.37151
 C2377 C 1.25990 0.38825 0.38994
 N2378 N 1.25620 0.40789 0.38936
 N2379 N 1.23951 0.41518 0.39670
 C2380 C 1.22581 0.40311 0.40489
 N2381 N 1.22954 0.38348 0.40548
 N2382 N 1.24622 0.37621 0.39818
 C2383 C 1.20710 0.41111 0.41285
 C2384 C 1.19223 0.39834 0.41949
 C2385 C 1.17448 0.40579 0.42676
 C2386 C 1.17119 0.42619 0.42764
 C2387 C 1.18609 0.43899 0.42109
 C2388 C 1.20384 0.43153 0.41375
 H2389 H 1.27258 0.35013 0.39108
 H2390 H 1.30184 0.33628 0.37671
 H2391 H 1.31900 0.39434 0.35626
 H2392 H 1.28898 0.40772 0.36988
 H2393 H 1.19417 0.38253 0.41892
 H2394 H 1.16319 0.39552 0.43136
 H2395 H 1.18410 0.45478 0.42181
 H2396 H 1.21500 0.44180 0.40884
 C2397 C 0.77915 0.88059 0.38270
 C2398 C 0.79437 0.89318 0.37647
 C2399 C 0.81172 0.88549 0.36846
 C2400 C 0.81425 0.86505 0.36652
 C2401 C 0.79912 0.85247 0.37288
 C2402 C 0.78178 0.86014 0.38088
 C2403 C 0.76057 0.88870 0.39084
 N2404 N 0.74587 0.87651 0.39679
 N2405 N 0.72908 0.88374 0.40388
 C2406 C 0.72624 0.90348 0.40534
 N2407 N 0.74095 0.91568 0.39942
 N2408 N 0.75775 0.90844 0.39232
 C2409 C 0.70743 0.91147 0.41308
 C2410 C 0.70437 0.93190 0.41448
 C2411 C 0.68655 0.93936 0.42164
 C2412 C 0.67142 0.92656 0.42759
 C2413 C 0.67449 0.90615 0.42620
 C2414 C 0.69227 0.89869 0.41904
 H2415 H 0.79289 0.90900 0.37771
 H2416 H 0.82322 0.89555 0.36390
 H2417 H 0.80052 0.83666 0.37133
 H2418 H 0.77038 0.84999 0.38548
 H2419 H 0.71573 0.94217 0.41006
 H2420 H 0.68469 0.95515 0.42273
 H2421 H 0.66300 0.89591 0.43038
 H2422 H 0.69406 0.88289 0.41810
 C2423 C 0.77783 0.38009 0.88144
 C2424 C 0.79107 0.39212 0.87109
 C2425 C 0.80825 0.38425 0.86290
 C2426 C 0.81285 0.36405 0.86491
 C2427 C 0.79949 0.35215 0.87554
 C2428 C 0.78228 0.36004 0.88359
 C2429 C 0.75939 0.38831 0.88978
 N2430 N 0.74577 0.37630 0.89818
 N2431 N 0.72909 0.38359 0.90547
 C2432 C 0.72530 0.40320 0.90472
 N2433 N 0.73894 0.41523 0.89638
 N2434 N 0.75562 0.40794 0.88905
 C2435 C 0.70660 0.41122 0.91268
 C2436 C 0.70334 0.43165 0.91353
 C2437 C 0.68562 0.43913 0.92090
 C2438 C 0.67074 0.42636 0.92755
 C2439 C 0.67402 0.40595 0.92670
 C2440 C 0.69174 0.39847 0.91941
 H2441 H 0.78818 0.40769 0.86926
 H2442 H 0.81818 0.39435 0.85562
 H2443 H 0.80162 0.33645 0.87699
 H2444 H 0.77236 0.35028 0.89138
 H2445 H 0.71449 0.44189 0.90855
 H2446 H 0.68364 0.45493 0.92158
 H2447 H 0.66274 0.39570 0.93137
 H2448 H 0.69369 0.38266 0.91888
 C2449 C 0.72257 0.88108 1.11949
 C2450 C 0.72009 0.86058 1.12096
 C2451 C 0.70276 0.85264 1.12867
 C2452 C 0.68746 0.86499 1.13510
 C2453 C 0.68990 0.88548 1.13368
 C2454 C 0.70725 0.89345 1.12594
 C2455 C 0.74104 0.88941 1.11133
 N2456 N 0.74365 0.90919 1.10984
 N2457 N 0.76030 0.91659 1.10254
 C2458 C 0.77505 0.90452 1.09642
 N2459 N 0.77241 0.88476 1.09791
 N2460 N 0.75578 0.87737 1.10520
 C2461 C 0.79364 0.91266 1.08834
 C2462 C 0.80884 0.89999 1.08223
 C2463 C 0.82640 0.90755 1.07468
 C2464 C 0.82923 0.92797 1.07302
 C2465 C 0.81408 0.94068 1.07913
 C2466 C 0.79647 0.93311 1.08669
 H2467 H 0.73158 0.85060 1.11622
 H2468 H 0.70146 0.83680 1.12987
 H2469 H 0.67828 0.89536 1.13834
 H2470 H 0.70863 0.90930 1.12499
 H2471 H 0.80723 0.88417 1.08335
 H2472 H 0.83792 0.89739 1.07041
 H2473 H 0.81576 0.95648 1.07786
 H2474 H 0.78507 0.94330 1.09121
 C2475 C 0.72098 0.38316 0.61862
 C2476 C 0.71654 0.38505 0.63872
 C2477 C 0.69931 0.37696 0.64651
 C2478 C 0.68590 0.36655 0.63446
 C2479 C 0.69046 0.36487 0.61420
 C2480 C 0.70767 0.37309 0.60644
 C2481 C 0.73949 0.39145 0.61050
 N2482 N 0.74328 0.39088 0.59086
 N2483 N 0.76004 0.39811 0.58365
 C2484 C 0.77375 0.40617 0.59578
 N2485 N 0.76995 0.40676 0.61541
 N2486 N 0.75318 0.39957 0.62261
 C2487 C 0.79254 0.41400 0.58785
 C2488 C 0.80745 0.42046 0.60067
 C2489 C 0.82525 0.42763 0.59328
 C2490 C 0.82857 0.42862 0.57287
 C2491 C 0.81366 0.42223 0.56002
 C2492 C 0.79586 0.41497 0.56742
 H2493 H 0.72652 0.39263 0.64858
 H2494 H 0.69718 0.37819 0.66224
 H2495 H 0.68048 0.35783 0.60398
 H2496 H 0.71052 0.37149 0.59083
 H2497 H 0.80547 0.41982 0.61649
 H2498 H 0.83656 0.43211 0.60359
 H2499 H 0.81567 0.42302 0.54422
 H2500 H 0.78467 0.41020 0.55711
 C2501 C 0.22123 0.88275 0.61869
 C2502 C 0.21678 0.88460 0.63879
 C2503 C 0.19953 0.87651 0.64654
 C2504 C 0.18612 0.86614 0.63446
 C2505 C 0.19070 0.86450 0.61420
 C2506 C 0.20792 0.87271 0.60648
 C2507 C 0.23976 0.89104 0.61060
 N2508 N 0.24355 0.89053 0.59096
 N2509 N 0.26031 0.89777 0.58377
 C2510 C 0.27403 0.90578 0.59593
 N2511 N 0.27022 0.90631 0.61557
 N2512 N 0.25345 0.89912 0.62274
 C2513 C 0.29283 0.91362 0.58803
 C2514 C 0.30774 0.92002 0.60088
 C2515 C 0.32555 0.92720 0.59351
 C2516 C 0.32888 0.92825 0.57311
 C2517 C 0.31395 0.92191 0.56024
 C2518 C 0.29614 0.91465 0.56761
 H2519 H 0.22675 0.89215 0.64867
 H2520 H 0.19739 0.87770 0.66228
 H2521 H 0.18073 0.85749 0.60396
 H2522 H 0.21079 0.87115 0.59087
 H2523 H 0.30576 0.91933 0.61669
 H2524 H 0.33686 0.93164 0.60384
 H2525 H 0.31597 0.92275 0.54444
 H2526 H 0.28496 0.90992 0.55728
 C2527 C 0.22064 0.38323 1.11846
 C2528 C 0.20541 0.37709 1.10585
 C2529 C 0.18803 0.36913 1.11353
 C2530 C 0.18549 0.36716 1.13397
 C2531 C 0.20066 0.37339 1.14657
 C2532 C 0.21802 0.38134 1.13892
 C2533 C 0.23925 0.39136 1.11039
 N2534 N 0.25395 0.39720 1.12263
 N2535 N 0.27075 0.40431 1.11545
 C2536 C 0.27361 0.40589 1.09572
 N2537 N 0.25890 0.40008 1.08346
 N2538 N 0.24208 0.39297 1.09065
 C2539 C 0.29243 0.41367 1.08779
 C2540 C 0.29551 0.41526 1.06737
 C2541 C 0.31334 0.42247 1.05999
 C2542 C 0.32847 0.42827 1.07287
 C2543 C 0.32538 0.42668 1.09327
 C2544 C 0.30759 0.41948 1.10064
 H2545 H 0.20689 0.37837 1.09003
 H2546 H 0.17651 0.36462 1.10346
 H2547 H 0.19927 0.37178 1.16238
 H2548 H 0.22945 0.38585 1.14908
 H2549 H 0.28415 0.41096 1.05704
 H2550 H 0.31523 0.42371 1.04420
 H2551 H 0.33686 0.43074 1.10356
 H2552 H 0.30578 0.41839 1.11645
 C2553 C 0.72219 1.11860 0.88061
 C2554 C 0.70880 1.12857 0.89279
 C2555 C 0.69155 1.13669 0.88501
 C2556 C 0.68704 1.13498 0.86475
 C2557 C 0.70056 1.12471 0.85271
 C2558 C 0.71782 1.11672 0.86050
 C2559 C 0.74073 1.11036 0.88872
 N2560 N 0.75442 1.10226 0.87659
 N2561 N 0.77118 1.09507 0.88377
 C2562 C 0.77498 1.09562 0.90340
 N2563 N 0.76127 1.10366 0.91555
 N2564 N 0.74450 1.11090 0.90836
 C2565 C 0.79376 1.08775 0.91130
 C2566 C 0.79709 1.08675 0.93172
 C2567 C 0.81488 1.07943 0.93908
 C2568 C 0.82975 1.07298 0.92619
 C2569 C 0.82641 1.07401 0.90579
 C2570 C 0.80863 1.08125 0.89844
 H2571 H 0.71163 1.13016 0.90840
 H2572 H 0.68151 1.14366 0.89522
 H2573 H 0.69847 1.12350 0.83696
 H2574 H 0.72786 1.10922 0.85064
 H2575 H 0.78594 1.09156 0.94205
 H2576 H 0.81691 1.07861 0.95487
 H2577 H 0.83769 1.06949 0.89546
 H2578 H 0.80663 1.08191 0.88263
 C2579 C 0.72148 0.61780 0.38067
 C2580 C 0.71881 0.61962 0.36021
 C2581 C 0.70141 0.62747 0.35258
 C2582 C 0.68623 0.63368 0.36520
 C2583 C 0.68883 0.63180 0.38565
 C2584 C 0.70625 0.62393 0.39330
 C2585 C 0.74012 0.60972 0.38871
 N2586 N 0.74299 0.60817 0.40846
 N2587 N 0.75982 0.60108 0.41562
 C2588 C 0.77451 0.59523 0.40334
 N2589 N 0.77161 0.59675 0.38361
 N2590 N 0.75479 0.60384 0.37646
 C2591 C 0.79333 0.58746 0.41124
 C2592 C 0.80845 0.58155 0.39838
 C2593 C 0.82624 0.57433 0.40574
 C2594 C 0.82937 0.57282 0.42614
 C2595 C 0.81429 0.57872 0.43903
 C2596 C 0.79646 0.58594 0.43167
 H2597 H 0.73023 0.61511 0.35004
 H2598 H 0.69997 0.62903 0.33677
 H2599 H 0.67731 0.63629 0.39573
 H2600 H 0.70778 0.62270 0.40912
 H2601 H 0.80661 0.58258 0.38257
 H2602 H 0.83769 0.57020 0.39543
 H2603 H 0.81620 0.57755 0.45482
 H2604 H 0.78513 0.59032 0.44200
 C2605 C 0.22260 1.11927 0.38009
 C2606 C 0.20910 1.12921 0.39218
 C2607 C 0.19187 1.13727 0.38430
 C2608 C 0.18748 1.13554 0.36401
 C2609 C 0.20112 1.12533 0.35204
 C2610 C 0.21837 1.11741 0.35995
 C2611 C 0.24107 1.11104 0.38835
 N2612 N 0.25487 1.10296 0.37633
 N2613 N 0.27156 1.09573 0.38366
 C2614 C 0.27518 1.09624 0.40332
 N2615 N 0.26136 1.10428 0.41536
 N2616 N 0.24468 1.11154 0.40803
 C2617 C 0.29386 1.08830 0.41139
 C2618 C 0.29700 1.08725 0.43183
 C2619 C 0.31468 1.07982 0.43935
 C2620 C 0.32963 1.07331 0.42660
 C2621 C 0.32649 1.07440 0.40617
 C2622 C 0.30882 1.08175 0.39866
 H2623 H 0.21181 1.13080 0.40781
 H2624 H 0.18174 1.14420 0.39444
 H2625 H 0.19911 1.12412 0.33629
 H2626 H 0.22850 1.10994 0.35015
 H2627 H 0.28577 1.09210 0.44207
 H2628 H 0.31656 1.07897 0.45516
 H2629 H 0.33784 1.06984 0.39593
 H2630 H 0.30698 1.08244 0.38283
 C2631 C 0.22164 0.61758 0.88073
 C2632 C 0.20639 0.62372 0.89333
 C2633 C 0.18899 0.63160 0.88564
 C2634 C 0.18644 0.63350 0.86519
 C2635 C 0.20162 0.62724 0.85260
 C2636 C 0.21901 0.61938 0.86027
 C2637 C 0.24027 0.60955 0.88884
 N2638 N 0.25501 0.60373 0.87663
 N2639 N 0.27183 0.59670 0.88385
 C2640 C 0.27467 0.59519 0.90359
 N2641 N 0.25991 0.60098 0.91581
 N2642 N 0.24308 0.60801 0.90859
 C2643 C 0.29349 0.58748 0.91157
 C2644 C 0.29652 0.58593 0.93200
 C2645 C 0.31433 0.57874 0.93943
 C2646 C 0.32949 0.57291 0.92660
 C2647 C 0.32646 0.57448 0.90619
 C2648 C 0.30869 0.58166 0.89876
 H2649 H 0.20788 0.62250 0.90916
 H2650 H 0.17746 0.63608 0.89570
 H2651 H 0.20021 0.62878 0.83679
 H2652 H 0.23044 0.61485 0.85012
 H2653 H 0.28513 0.59025 0.94229
 H2654 H 0.31617 0.57753 0.95523
 H2655 H 0.33797 0.57040 0.89593
 H2656 H 0.30693 0.58272 0.88295
 C2657 C 1.11922 1.27879 1.11663
 C2658 C 1.10653 1.29403 1.12257
 C2659 C 1.11409 1.31142 1.13060
 C2660 C 1.13450 1.31396 1.13286
 C2661 C 1.14720 1.29879 1.12680
 C2662 C 1.13965 1.28141 1.11878
 C2663 C 1.11124 1.26019 1.10841
 N2664 N 1.12352 1.24547 1.10272
 N2665 N 1.11639 1.22867 1.09554
 C2666 C 1.09667 1.22585 1.09375
 N2667 N 1.08438 1.24059 1.09941
 N2668 N 1.09151 1.25739 1.10659
 C2669 C 1.08878 1.20704 1.08594
 C2670 C 1.06836 1.20401 1.08422
 C2671 C 1.06099 1.18617 1.07705
 C2672 C 1.07386 1.17099 1.07139
 C2673 C 1.09426 1.17404 1.07307
 C2674 C 1.10163 1.19184 1.08025
 H2675 H 1.09073 1.29256 1.12107
 H2676 H 1.10396 1.32295 1.13490
 H2677 H 1.16298 1.30021 1.12858
 H2678 H 1.14987 1.26999 1.11441
 H2679 H 1.05803 1.21540 1.08843
 H2680 H 1.04520 1.18433 1.07573
 H2681 H 1.10454 1.16252 1.06912
 H2682 H 1.11743 1.19362 1.08143
 C2683 C 1.11967 0.77833 0.61680
 C2684 C 1.10709 0.79356 0.62300
 C2685 C 1.11478 0.81090 0.63101
 C2686 C 1.13523 0.81341 0.63298
 C2687 C 1.14781 0.79823 0.62670
 C2688 C 1.14013 0.78091 0.61870
 C2689 C 1.11157 0.75978 0.60859
 N2690 N 1.12377 0.74506 0.60271
 N2691 N 1.11656 0.72831 0.59552
 C2692 C 1.09682 0.72553 0.59390
 N2693 N 1.08460 0.74025 0.59974
 N2694 N 1.09182 0.75702 0.60693
 C2695 C 1.08884 0.70676 0.58605
 C2696 C 1.06841 0.70377 0.58441
 C2697 C 1.06097 0.68599 0.57718
 C2698 C 1.07378 0.67080 0.57140
 C2699 C 1.09419 0.67380 0.57302
 C2700 C 1.10163 0.69155 0.58024
 H2701 H 1.09126 0.79210 0.62171
 H2702 H 1.10474 0.82242 0.63555
 H2703 H 1.16362 0.79960 0.62830
 H2704 H 1.15027 0.76949 0.61414
 H2705 H 1.05813 0.71517 0.58870
 H2706 H 1.04517 0.68418 0.57592
 H2707 H 1.10444 0.66227 0.56898
 H2708 H 1.11744 0.69329 0.58136
 C2709 C 0.61954 1.27858 0.61712
 C2710 C 0.64000 1.28121 0.61897
 C2711 C 0.64767 1.29857 0.62689
 C2712 C 0.63507 1.31375 0.63314
 C2713 C 0.61463 1.31120 0.63122
 C2714 C 0.60694 1.29382 0.62328
 C2715 C 0.61146 1.25998 0.60900
 N2716 N 0.59171 1.25719 0.60738
 N2717 N 0.58450 1.24038 0.60027
 C2718 C 0.59674 1.22565 0.59448
 N2719 N 0.61647 1.22847 0.59607
 N2720 N 0.62367 1.24526 0.60317
 C2721 C 0.58878 1.20684 0.58672
 C2722 C 0.60159 1.19163 0.58096
 C2723 C 0.59418 1.17385 0.57378
 C2724 C 0.57377 1.17082 0.57216
 C2725 C 0.56093 1.18600 0.57790
 C2726 C 0.56835 1.20382 0.58508
 H2727 H 0.65016 1.26979 0.61444
 H2728 H 0.66347 1.29997 0.62846
 H2729 H 0.60457 1.32272 0.63573
 H2730 H 0.59112 1.29233 0.62203
 H2731 H 0.61740 1.19339 0.58207
 H2732 H 0.60444 1.16232 0.56977
 H2733 H 0.54514 1.18417 0.57664
 H2734 H 0.55805 1.21522 0.58934
 C2735 C 0.61971 0.77763 1.11810
 C2736 C 0.60718 0.79287 1.12441
 C2737 C 0.61495 0.81020 1.13237
 C2738 C 0.63541 0.81269 1.13419
 C2739 C 0.64793 0.79750 1.12781
 C2740 C 0.64018 0.78020 1.11986
 C2741 C 0.61155 0.75911 1.10989
 N2742 N 0.62371 0.74440 1.10394
 N2743 N 0.61645 0.72768 1.09673
 C2744 C 0.59671 0.72493 1.09515
 N2745 N 0.58452 0.73965 1.10106
 N2746 N 0.59179 0.75639 1.10828
 C2747 C 0.58869 0.70621 1.08725
 C2748 C 0.56826 0.70327 1.08558
 C2749 C 0.56079 0.68553 1.07828
 C2750 C 0.57358 0.67034 1.07246
 C2751 C 0.59399 0.67328 1.07411
 C2752 C 0.60146 0.69099 1.08141
 H2753 H 0.59135 0.79143 1.12322
 H2754 H 0.60494 0.82173 1.13696
 H2755 H 0.66375 0.79886 1.12928
 H2756 H 0.65029 0.76877 1.11522
 H2757 H 0.55799 0.71468 1.08990
 H2758 H 0.54499 0.68376 1.07699
 H2759 H 0.60422 0.66174 1.07005
 H2760 H 0.61727 0.69268 1.08255
 C2761 C 0.88138 1.27745 0.87955
 C2762 C 0.87920 1.27985 0.85909
 C2763 C 0.87101 1.29705 0.85138
 C2764 C 0.86481 1.31230 0.86391
 C2765 C 0.86704 1.30998 0.88435
 C2766 C 0.87524 1.29275 0.89209
 C2767 C 0.88989 1.25906 0.88769
 N2768 N 0.89174 1.25645 0.90745
 N2769 N 0.89923 1.23984 0.91471
 C2770 C 0.90519 1.22512 0.90253
 N2771 N 0.90337 1.22776 0.88279
 N2772 N 0.89588 1.24436 0.87553
 C2773 C 0.91335 1.20652 0.91056
 C2774 C 0.91939 1.19136 0.89781
 C2775 C 0.92684 1.17373 0.90531
 C2776 C 0.92845 1.17081 0.92574
 C2777 C 0.92248 1.18597 0.93850
 C2778 C 0.91503 1.20363 0.93100
 H2779 H 0.88371 1.26837 0.84899
 H2780 H 0.86925 1.29831 0.83557
 H2781 H 0.86263 1.32157 0.89437
 H2782 H 0.87675 1.29144 0.90791
 H2783 H 0.91826 1.19303 0.88200
 H2784 H 0.93104 1.16222 0.89510
 H2785 H 0.92374 1.18422 0.95430
 H2786 H 0.91057 1.21500 0.94125
 C2787 C 0.88339 0.77842 0.38024
 C2788 C 0.88152 0.78110 0.35979
 C2789 C 0.87349 0.79844 0.35219
 C2790 C 0.86715 0.81354 0.36484
 C2791 C 0.86913 0.81094 0.38528
 C2792 C 0.87716 0.79359 0.39289
 C2793 C 0.89161 0.75985 0.38827
 N2794 N 0.89320 0.75700 0.40802
 N2795 N 0.90038 0.74022 0.41518
 C2796 C 0.90627 0.72555 0.40292
 N2797 N 0.90471 0.72842 0.38318
 N2798 N 0.89753 0.74520 0.37602
 C2799 C 0.91408 0.70675 0.41084
 C2800 C 0.91995 0.69160 0.39801
 C2801 C 0.92713 0.67381 0.40541
 C2802 C 0.92862 0.67072 0.42582
 C2803 C 0.92278 0.68585 0.43867
 C2804 C 0.91561 0.70368 0.43127
 H2805 H 0.88610 0.76973 0.34960
 H2806 H 0.87191 0.79988 0.33638
 H2807 H 0.86459 0.82241 0.39538
 H2808 H 0.87845 0.79207 0.40872
 H2809 H 0.91892 0.69341 0.38220
 H2810 H 0.93122 0.66233 0.39513
 H2811 H 0.92395 0.68398 0.45446
 H2812 H 0.91126 0.71503 0.44159
 C2813 C 0.38125 1.27711 0.37994
 C2814 C 0.37523 1.29250 0.39242
 C2815 C 0.36715 1.30975 0.38462
 C2816 C 0.36491 1.31200 0.36417
 C2817 C 0.37099 1.29666 0.35169
 C2818 C 0.37907 1.27943 0.35948
 C2819 C 0.38965 1.25870 0.38815
 N2820 N 0.39556 1.24392 0.37604
 N2821 N 0.40296 1.22732 0.38336
 C2822 C 0.40477 1.22475 0.40312
 N2823 N 0.39889 1.23953 0.41524
 N2824 N 0.39148 1.25616 0.40791
 C2825 C 0.41286 1.20615 0.41121
 C2826 C 0.41453 1.20332 0.43166
 C2827 C 0.42197 1.18567 0.43922
 C2828 C 0.42795 1.17049 0.42649
 C2829 C 0.42634 1.17334 0.40606
 C2830 C 0.41889 1.19095 0.39851
 H2831 H 0.37676 1.29125 0.40824
 H2832 H 0.36283 1.32142 0.39459
 H2833 H 0.36923 1.29788 0.33589
 H2834 H 0.38349 1.26788 0.34941
 H2835 H 0.41007 1.21472 0.44187
 H2836 H 0.42323 1.18397 0.45502
 H2837 H 0.43054 1.16180 0.39589
 H2838 H 0.41777 1.19257 0.38269
 C2839 C 0.38143 0.77842 0.88208
 C2840 C 0.36096 0.78095 0.88028
 C2841 C 0.35319 0.79832 0.87250
 C2842 C 0.36569 0.81361 0.86634
 C2843 C 0.38615 0.81116 0.86820
 C2844 C 0.39395 0.79377 0.87599
 C2845 C 0.38962 0.75982 0.89008
 N2846 N 0.40938 0.75710 0.89165
 N2847 N 0.41666 0.74030 0.89870
 C2848 C 0.40448 0.72550 0.90447
 N2849 N 0.38474 0.72826 0.90292
 N2850 N 0.37746 0.74504 0.89588
 C2851 C 0.41250 0.70673 0.91223
 C2852 C 0.39972 0.69152 0.91805
 C2853 C 0.40717 0.67379 0.92531
 C2854 C 0.42758 0.67082 0.92696
 C2855 C 0.44039 0.68598 0.92111
 C2856 C 0.43294 0.70375 0.91384
 H2857 H 0.35087 0.76945 0.88475
 H2858 H 0.33737 0.79964 0.87096
 H2859 H 0.39614 0.82276 0.86374
 H2860 H 0.40978 0.79235 0.87721
 H2861 H 0.38391 0.69323 0.91695
 H2862 H 0.39693 0.66227 0.92940
 H2863 H 0.45619 0.68418 0.92237
 H2864 H 0.44321 0.71515 0.90952
 C2865 C 1.11908 0.72125 0.88268
 C2866 C 1.13955 0.71866 0.88089
 C2867 C 1.14727 0.70135 0.87292
 C2868 C 1.13472 0.68619 0.86655
 C2869 C 1.11427 0.68869 0.86843
 C2870 C 1.10653 0.70602 0.87642
 C2871 C 1.11094 0.73980 0.89085
 N2872 N 1.09118 0.74257 0.89239
 N2873 N 1.08392 0.75933 0.89954
 C2874 C 1.09611 0.77406 0.90544
 N2875 N 1.11586 0.77126 0.90393
 N2876 N 1.12311 0.75451 0.89679
 C2877 C 1.08810 0.79282 0.91325
 C2878 C 1.10088 0.80800 0.91915
 C2879 C 1.09342 0.82574 0.92639
 C2880 C 1.07300 0.82875 0.92793
 C2881 C 1.06020 0.81360 0.92204
 C2882 C 1.06766 0.79582 0.91480
 H2883 H 1.14967 0.73008 0.88551
 H2884 H 1.16309 0.69998 0.87140
 H2885 H 1.10423 0.67717 0.86386
 H2886 H 1.09070 0.70747 0.87763
 H2887 H 1.11669 0.80626 0.91810
 H2888 H 1.10366 0.83725 0.93050
 H2889 H 1.04440 0.81542 0.92324
 H2890 H 1.05739 0.78444 0.91043
 C2891 C 1.11987 0.22237 0.38091
 C2892 C 1.10746 0.20699 0.37470
 C2893 C 1.11537 0.18972 0.36675
 C2894 C 1.13585 0.18742 0.36486
 C2895 C 1.14824 0.20277 0.37108
 C2896 C 1.14036 0.22002 0.37902
 C2897 C 1.11158 0.24081 0.38919
 N2898 N 1.12365 0.25558 0.39519
 N2899 N 1.11629 0.27221 0.40250
 C2900 C 1.09653 0.27482 0.40415
 N2901 N 1.08444 0.26004 0.39818
 N2902 N 1.09180 0.24339 0.39086
 C2903 C 1.08841 0.29344 0.41220
 C2904 C 1.06796 0.29629 0.41384
 C2905 C 1.06041 0.31394 0.42129
 C2906 C 1.07313 0.32912 0.42730
 C2907 C 1.09356 0.32625 0.42568
 C2908 C 1.10111 0.30864 0.41823
 H2909 H 1.09162 0.20828 0.37597
 H2910 H 1.10546 0.17807 0.36222
 H2911 H 1.16406 0.20158 0.36951
 H2912 H 1.15037 0.23156 0.38356
 H2913 H 1.05775 0.28489 0.40937
 H2914 H 1.04460 0.31565 0.42254
 H2915 H 1.10374 0.33778 0.42989
 H2916 H 1.11693 0.30701 0.41712
 C2917 C 0.61935 0.72169 0.38231
 C2918 C 0.60676 0.70632 0.37645
 C2919 C 0.61444 0.68895 0.36851
 C2920 C 0.63487 0.68654 0.36625
 C2921 C 0.64746 0.70183 0.37223
 C2922 C 0.63980 0.71919 0.38016
 C2923 C 0.61124 0.74028 0.39042
 N2924 N 0.62342 0.75508 0.39611
 N2925 N 0.61618 0.77185 0.40322
 C2926 C 0.59644 0.77457 0.40495
 N2927 N 0.58424 0.75976 0.39930
 N2928 N 0.59149 0.74297 0.39219
 C2929 C 0.58843 0.79334 0.41275
 C2930 C 0.56799 0.79630 0.41440
 C2931 C 0.56052 0.81407 0.42165
 C2932 C 0.57332 0.82925 0.42746
 C2933 C 0.59373 0.82630 0.42581
 C2934 C 0.60120 0.80857 0.41855
 H2935 H 0.59095 0.70770 0.37795
 H2936 H 0.60439 0.67733 0.36427
 H2937 H 0.66325 0.70050 0.37044
 H2938 H 0.64993 0.73071 0.38447
 H2939 H 0.55773 0.78489 0.41010
 H2940 H 0.54473 0.81585 0.42293
 H2941 H 0.60397 0.83783 0.42987
 H2942 H 0.61701 0.80686 0.41743
 C2943 C 0.61968 0.22220 0.88186
 C2944 C 0.64018 0.21971 0.88022
 C2945 C 0.64804 0.20245 0.87228
 C2946 C 0.63562 0.18723 0.86580
 C2947 C 0.61514 0.18965 0.86747
 C2948 C 0.60725 0.20693 0.87543
 C2949 C 0.61141 0.24067 0.89007
 N2950 N 0.59163 0.24332 0.89156
 N2951 N 0.58426 0.26001 0.89880
 C2952 C 0.59636 0.27475 0.90484
 N2953 N 0.61613 0.27206 0.90337
 N2954 N 0.62349 0.25540 0.89615
 C2955 C 0.58825 0.29342 0.91277
 C2956 C 0.60095 0.30863 0.91877
 C2957 C 0.59340 0.32629 0.92612
 C2958 C 0.57297 0.32917 0.92768
 C2959 C 0.56024 0.31399 0.92170
 C2960 C 0.56780 0.29630 0.91434
 H2961 H 0.65021 0.23117 0.88494
 H2962 H 0.66388 0.20117 0.87089
 H2963 H 0.60521 0.17810 0.86276
 H2964 H 0.59140 0.20832 0.87650
 H2965 H 0.61677 0.30698 0.91770
 H2966 H 0.60358 0.33782 0.93030
 H2967 H 0.54444 0.31572 0.92291
 H2968 H 0.55759 0.28489 0.90990
 C2969 C 0.88014 0.72296 1.11882
 C2970 C 0.85968 0.72048 1.12087
 C2971 C 0.85196 0.70315 1.12882
 C2972 C 0.86450 0.68787 1.13491
 C2973 C 0.88495 0.69028 1.13279
 C2974 C 0.89269 0.70762 1.12484
 C2975 C 0.88828 0.74148 1.11059
 N2976 N 0.90803 0.74416 1.10883
 N2977 N 0.91528 0.76088 1.10157
 C2978 C 0.90310 0.77563 1.09575
 N2979 N 0.88335 0.77293 1.09748
 N2980 N 0.87611 0.75622 1.10474
 C2981 C 0.91110 0.79433 1.08779
 C2982 C 0.89834 0.80951 1.08186
 C2983 C 0.90581 0.82719 1.07449
 C2984 C 0.92622 0.83014 1.07286
 C2985 C 0.93901 0.81499 1.07877
 C2986 C 0.93154 0.79728 1.08613
 H2987 H 0.84957 0.73198 1.11645
 H2988 H 0.83616 0.70183 1.13049
 H2989 H 0.89497 0.67866 1.13712
 H2990 H 0.90851 0.70899 1.12341
 H2991 H 0.88252 0.80781 1.08299
 H2992 H 0.89558 0.83870 1.07035
 H2993 H 0.95481 0.81677 1.07750
 H2994 H 0.94181 0.78590 1.09053
 C2995 C 0.87970 0.22327 0.61948
 C2996 C 0.89220 0.20787 0.62542
 C2997 C 0.88442 0.19056 0.63340
 C2998 C 0.86397 0.18826 0.63562
 C2999 C 0.85148 0.20361 0.62962
 C3000 C 0.85924 0.22090 0.62165
 C3001 C 0.88789 0.24174 0.61119
 N3002 N 0.87577 0.25653 0.60537
 N3003 N 0.88307 0.27318 0.59804
 C3004 C 0.90281 0.27578 0.59620
 N3005 N 0.91496 0.26097 0.60199
 N3006 N 0.90765 0.24431 0.60932
 C3007 C 0.91088 0.29441 0.58815
 C3008 C 0.93132 0.29725 0.58640
 C3009 C 0.93885 0.31491 0.57895
 C3010 C 0.92610 0.33010 0.57304
 C3011 C 0.90568 0.32725 0.57476
 C3012 C 0.89816 0.30963 0.58222
 H3013 H 0.90802 0.20915 0.62391
 H3014 H 0.89440 0.17888 0.63766
 H3015 H 0.83568 0.20236 0.63137
 H3016 H 0.84917 0.23246 0.61729
 H3017 H 0.94155 0.28584 0.59078
 H3018 H 0.95465 0.31662 0.57761
 H3019 H 0.89549 0.33879 0.57063
 H3020 H 0.88234 0.30800 0.58341
 C3021 C 0.38074 0.72218 0.61829
 C3022 C 0.36027 0.71962 0.62009
 C3023 C 0.35253 0.70231 0.62802
 C3024 C 0.36505 0.68711 0.63434
 C3025 C 0.38551 0.68960 0.63250
 C3026 C 0.39328 0.70694 0.62455
 C3027 C 0.38888 0.74071 0.61008
 N3028 N 0.40864 0.74345 0.60846
 N3029 N 0.41588 0.76019 0.60123
 C3030 C 0.40368 0.77490 0.59531
 N3031 N 0.38393 0.77212 0.59692
 N3032 N 0.37670 0.75540 0.60414
 C3033 C 0.41165 0.79362 0.58740
 C3034 C 0.39885 0.80879 0.58153
 C3035 C 0.40628 0.82651 0.57421
 C3036 C 0.42669 0.82950 0.57255
 C3037 C 0.43951 0.81435 0.57839
 C3038 C 0.43208 0.79660 0.58572
 H3039 H 0.35016 0.73105 0.61548
 H3040 H 0.33671 0.70095 0.62951
 H3041 H 0.39552 0.67805 0.63705
 H3042 H 0.40911 0.70838 0.62334
 H3043 H 0.38304 0.80706 0.58268
 H3044 H 0.39602 0.83801 0.57013
 H3045 H 0.45531 0.81616 0.57710
 H3046 H 0.44237 0.78522 0.59006
 C3047 C 0.38005 0.22287 1.11940
 C3048 C 0.35959 0.22041 1.12146
 C3049 C 0.35187 0.20312 1.12946
 C3050 C 0.36439 0.18785 1.13559
 C3051 C 0.38484 0.19023 1.13347
 C3052 C 0.39259 0.20754 1.12546
 C3053 C 0.38820 0.24135 1.11110
 N3054 N 0.40796 0.24401 1.10932
 N3055 N 0.41522 0.26071 1.10201
 C3056 C 0.40304 0.27545 1.09615
 N3057 N 0.38329 0.27277 1.09791
 N3058 N 0.37604 0.25609 1.10522
 C3059 C 0.41105 0.29412 1.08814
 C3060 C 0.39829 0.30930 1.08219
 C3061 C 0.40576 0.32696 1.07479
 C3062 C 0.42618 0.32990 1.07313
 C3063 C 0.43896 0.31475 1.07904
 C3064 C 0.43149 0.29705 1.08645
 H3065 H 0.34949 0.23191 1.11701
 H3066 H 0.33606 0.20182 1.13114
 H3067 H 0.39485 0.17861 1.13783
 H3068 H 0.40841 0.20889 1.12403
 H3069 H 0.38248 0.30761 1.08334
 H3070 H 0.39554 0.33847 1.07064
 H3071 H 0.45476 0.31651 1.07776
 H3072 H 0.44175 0.28567 1.09084
 C3073 C 1.11823 1.11908 0.72099
 C3074 C 1.12436 1.10666 0.70560
 C3075 C 1.13210 1.11454 0.68821
 C3076 C 1.13384 1.13501 0.68581
 C3077 C 1.12761 1.14743 0.70114
 C3078 C 1.11990 1.13957 0.71851
 C3079 C 1.11034 1.11080 0.73961
 N3080 N 1.10456 1.12286 0.75447
 N3081 N 1.09764 1.11550 0.77127
 C3082 C 1.09619 1.09574 0.77396
 N3083 N 1.10194 1.08365 0.75909
 N3084 N 1.10887 1.09103 0.74227
 C3085 C 1.08853 1.08763 0.79275
 C3086 C 1.08694 1.06718 0.79564
 C3087 C 1.07971 1.05965 0.81341
 C3088 C 1.07388 1.07238 0.82864
 C3089 C 1.07553 1.09280 0.82577
 C3090 C 1.08276 1.10033 0.80805
 H3091 H 1.12325 1.09082 0.70697
 H3092 H 1.13660 1.10462 0.67657
 H3093 H 1.12906 1.16325 0.69987
 H3094 H 1.11538 1.14959 0.73006
 H3095 H 1.09123 1.05697 0.78418
 H3096 H 1.07844 1.04385 0.81513
 H3097 H 1.07147 1.10298 0.83735
 H3098 H 1.08385 1.11614 0.80641
 C3099 C 1.12027 0.61950 0.22191
 C3100 C 1.13038 0.60758 0.20838
 C3101 C 1.13811 0.61558 0.19105
 C3102 C 1.13585 0.63578 0.18658
 C3103 C 1.12558 0.64758 0.20032
 C3104 C 1.11799 0.63958 0.21766
 C3105 C 1.11221 0.61113 0.24042
 N3106 N 1.10401 0.62304 0.25424
 N3107 N 1.09682 0.61563 0.27090
 C3108 C 1.09747 0.59597 0.27448
 N3109 N 1.10563 0.58403 0.26065
 N3110 N 1.11287 0.59146 0.24398
 C3111 C 1.08947 0.58781 0.29310
 C3112 C 1.08841 0.56736 0.29614
 C3113 C 1.08084 0.55978 0.31374
 C3114 C 1.07421 0.57246 0.32870
 C3115 C 1.07535 0.59289 0.32566
 C3116 C 1.08284 0.60047 0.30807
 H3117 H 1.13231 0.59200 0.21113
 H3118 H 1.14519 0.60557 0.18088
 H3119 H 1.12402 0.66330 0.19827
 H3120 H 1.11040 0.64925 0.22782
 H3121 H 1.09332 0.55719 0.28490
 H3122 H 1.07996 0.54396 0.31555
 H3123 H 1.07072 0.60308 0.33703
 H3124 H 1.08355 0.61630 0.30631
 C3125 C 0.61957 1.11989 0.22228
 C3126 C 0.62593 1.10750 0.20694
 C3127 C 0.63373 1.11544 0.18961
 C3128 C 0.63530 1.13593 0.18721
 C3129 C 0.62892 1.14830 0.20251
 C3130 C 0.62114 1.14038 0.21983
 C3131 C 0.61145 1.11157 0.24078
 N3132 N 0.60542 1.12361 0.25557
 N3133 N 0.59824 1.11622 0.27225
 C3134 C 0.59676 1.09645 0.27489
 N3135 N 0.60276 1.08439 0.26010
 N3136 N 0.60996 1.09179 0.24340
 C3137 C 0.58883 1.08831 0.29355
 C3138 C 0.58722 1.06786 0.29638
 C3139 C 0.57981 1.06027 0.31404
 C3140 C 0.57382 1.07297 0.32925
 C3141 C 0.57544 1.09339 0.32643
 C3142 C 0.58284 1.10097 0.30880
 H3143 H 0.62490 1.09166 0.20831
 H3144 H 0.63838 1.10555 0.17799
 H3145 H 0.63025 1.16413 0.20124
 H3146 H 0.61647 1.15038 0.23134
 H3147 H 0.59165 1.05767 0.28494
 H3148 H 0.57856 1.04447 0.31573
 H3149 H 0.57126 1.10355 0.33799
 H3150 H 0.58394 1.11679 0.30720
 C3151 C 0.61928 0.61929 0.72206
 C3152 C 0.62085 0.63977 0.71953
 C3153 C 0.62864 0.64762 0.70219
 C3154 C 0.63503 0.63519 0.68694
 C3155 C 0.63346 0.61471 0.68942
 C3156 C 0.62565 0.60685 0.70678
 C3157 C 0.61115 0.61104 0.74058
 N3158 N 0.60959 0.59128 0.74325
 N3159 N 0.60238 0.58395 0.75996
 C3160 C 0.59642 0.59607 0.77473
 N3161 N 0.59796 0.61582 0.77204
 N3162 N 0.60517 0.62314 0.75534
 C3163 C 0.58847 0.58799 0.79341
 C3164 C 0.58260 0.60071 0.80865
 C3165 C 0.57518 0.59321 0.82630
 C3166 C 0.57343 0.57280 0.82915
 C3167 C 0.57930 0.56005 0.81395
 C3168 C 0.58673 0.56756 0.79626
 H3169 H 0.61616 0.64981 0.73100
 H3170 H 0.62995 0.66345 0.70085
 H3171 H 0.63810 0.60478 0.67784
 H3172 H 0.62462 0.59101 0.70820
 H3173 H 0.58380 0.61652 0.80703
 H3174 H 0.57109 0.60341 0.83786
 H3175 H 0.57795 0.54426 0.81565
 H3176 H 0.59107 0.55733 0.78482
 C3177 C 0.88212 0.88063 0.72163
 C3178 C 0.87581 0.89315 0.70639
 C3179 C 0.86784 0.88537 0.68906
 C3180 C 0.86604 0.86491 0.68657
 C3181 C 0.87243 0.85241 0.70176
 C3182 C 0.88038 0.86016 0.71907
 C3183 C 0.89034 0.88879 0.74015
 N3184 N 0.89628 0.87663 0.75486
 N3185 N 0.90351 0.88388 0.77158
 C3186 C 0.90512 0.90362 0.77433
 N3187 N 0.89920 0.91580 0.75960
 N3188 N 0.89197 0.90854 0.74287
 C3189 C 0.91303 0.91162 0.79305
 C3190 C 0.91477 0.93205 0.79598
 C3191 C 0.92209 0.93950 0.81373
 C3192 C 0.92787 0.92670 0.82892
 C3193 C 0.92616 0.90630 0.82599
 C3194 C 0.91884 0.89885 0.80827
 H3195 H 0.87698 0.90898 0.70783
 H3196 H 0.86324 0.89536 0.67752
 H3197 H 0.87098 0.83659 0.70041
 H3198 H 0.88503 0.85007 0.73050
 H3199 H 0.91047 0.94231 0.78457
 H3200 H 0.92343 0.95529 0.81550
 H3201 H 0.93019 0.89607 0.83753
 H3202 H 0.91765 0.88305 0.80659
 C3203 C 0.88174 0.38033 0.22156
 C3204 C 0.88018 0.35985 0.21894
 C3205 C 0.87230 0.35208 0.20161
 C3206 C 0.86580 0.36457 0.18646
 C3207 C 0.86737 0.38504 0.18903
 C3208 C 0.87528 0.39284 0.20637
 C3209 C 0.88992 0.38851 0.24010
 N3210 N 0.89142 0.40826 0.24286
 N3211 N 0.89863 0.41554 0.25959
 C3212 C 0.90465 0.40337 0.27429
 N3213 N 0.90317 0.38363 0.27151
 N3214 N 0.89596 0.37636 0.25478
 C3215 C 0.91255 0.41139 0.29301
 C3216 C 0.91844 0.39863 0.30821
 C3217 C 0.92576 0.40610 0.32592
 C3218 C 0.92740 0.42651 0.32887
 C3219 C 0.92153 0.43929 0.31369
 C3220 C 0.91420 0.43182 0.29595
 H3221 H 0.88493 0.34977 0.23033
 H3222 H 0.87097 0.33625 0.20021
 H3223 H 0.86263 0.39502 0.17753
 H3224 H 0.87629 0.40867 0.20787
 H3225 H 0.91731 0.38283 0.30652
 H3226 H 0.92986 0.39588 0.33745
 H3227 H 0.92281 0.45508 0.31547
 H3228 H 0.90985 0.44207 0.28455
 C3229 C 0.38059 0.88041 0.22267
 C3230 C 0.36012 0.87851 0.22028
 C3231 C 0.35228 0.87062 0.20298
 C3232 C 0.36471 0.86445 0.18763
 C3233 C 0.38518 0.86634 0.18998
 C3234 C 0.39304 0.87425 0.20730
 C3235 C 0.38883 0.88868 0.24114
 N3236 N 0.40860 0.89037 0.24376
 N3237 N 0.41592 0.89771 0.26042
 C3238 C 0.40378 0.90369 0.27517
 N3239 N 0.38403 0.90202 0.27253
 N3240 N 0.37672 0.89468 0.25588
 C3241 C 0.41185 0.91177 0.29380
 C3242 C 0.39911 0.91786 0.30896
 C3243 C 0.40662 0.92536 0.32657
 C3244 C 0.42704 0.92696 0.32949
 C3245 C 0.43980 0.92089 0.31436
 C3246 C 0.43229 0.91340 0.29670
 H3247 H 0.35007 0.88302 0.23181
 H3248 H 0.33646 0.86906 0.20175
 H3249 H 0.39512 0.86188 0.17833
 H3250 H 0.40888 0.87553 0.20862
 H3251 H 0.38329 0.91677 0.30729
 H3252 H 0.39641 0.92962 0.33807
 H3253 H 0.45560 0.92213 0.31611
 H3254 H 0.44253 0.90889 0.28534
 C3255 C 0.38072 0.38077 0.72213
 C3256 C 0.36025 0.37887 0.71970
 C3257 C 0.35243 0.37100 0.70239
 C3258 C 0.36489 0.36486 0.68704
 C3259 C 0.38536 0.36677 0.68942
 C3260 C 0.39319 0.37465 0.70676
 C3261 C 0.38893 0.38900 0.74063
 N3262 N 0.40870 0.39062 0.74330
 N3263 N 0.41599 0.39791 0.76000
 C3264 C 0.40384 0.40388 0.77473
 N3265 N 0.38409 0.40227 0.77203
 N3266 N 0.37680 0.39499 0.75535
 C3267 C 0.41187 0.41189 0.79340
 C3268 C 0.39911 0.41802 0.80852
 C3269 C 0.40659 0.42545 0.82617
 C3270 C 0.42700 0.42696 0.82916
 C3271 C 0.43979 0.42085 0.81407
 C3272 C 0.43231 0.41342 0.79637
 H3273 H 0.35019 0.38335 0.73124
 H3274 H 0.33661 0.36943 0.70114
 H3275 H 0.39531 0.36233 0.67777
 H3276 H 0.40903 0.37594 0.70810
 H3277 H 0.38329 0.41700 0.80679
 H3278 H 0.39636 0.42974 0.83764
 H3279 H 0.45559 0.42202 0.81588
 H3280 H 0.44257 0.40888 0.78504
 C3281 C 1.11821 0.88062 1.27809
 C3282 C 1.12825 0.89267 1.29155
 C3283 C 1.13645 0.88474 1.30869
 C3284 C 1.13479 0.86445 1.31302
 C3285 C 1.12444 0.85253 1.29945
 C3286 C 1.11636 0.86048 1.28229
 C3287 C 1.10990 0.88890 1.25966
 N3288 N 1.10173 0.87692 1.24590
 N3289 N 1.09448 0.88425 1.22922
 C3290 C 1.09507 0.90390 1.22558
 N3291 N 1.10319 0.91591 1.23937
 N3292 N 1.11047 0.90856 1.25604
 C3293 C 1.08716 0.91197 1.20689
 C3294 C 1.08623 0.93240 1.20370
 C3295 C 1.07888 0.93992 1.18599
 C3296 C 1.07233 0.92717 1.17105
 C3297 C 1.07329 0.90676 1.17424
 C3298 C 1.08056 0.89925 1.19195
 H3299 H 1.12981 0.90830 1.28886
 H3300 H 1.14346 0.89486 1.31879
 H3301 H 1.12324 0.83678 1.30140
 H3302 H 1.10881 0.85072 1.27220
 H3303 H 1.09112 0.94263 1.21492
 H3304 H 1.07813 0.95572 1.18407
 H3305 H 1.06870 0.89653 1.16291
 H3306 H 1.08116 0.88343 1.19383
 C3307 C 1.11801 0.38090 0.77832
 C3308 C 1.11617 0.36076 0.78255
 C3309 C 1.12424 0.35284 0.79972
 C3310 C 1.13459 0.36478 0.81327
 C3311 C 1.13624 0.38507 0.80891
 C3312 C 1.12804 0.39297 0.79176
 C3313 C 1.10971 0.38914 0.75987
 N3314 N 1.11027 0.40880 0.75622
 N3315 N 1.10300 0.41611 0.73952
 C3316 C 1.09490 0.40406 0.72575
 N3317 N 1.09432 0.38442 0.72943
 N3318 N 1.10155 0.37712 0.74612
 C3319 C 1.08701 0.41209 0.70703
 C3320 C 1.08046 0.39934 0.69210
 C3321 C 1.07320 0.40680 0.67437
 C3322 C 1.07222 0.42721 0.67114
 C3323 C 1.07873 0.43999 0.68607
 C3324 C 1.08606 0.43252 0.70381
 H3325 H 1.10862 0.35098 0.77247
 H3326 H 1.12306 0.33709 0.80169
 H3327 H 1.14325 0.39520 0.81899
 H3328 H 1.12960 0.40860 0.78905
 H3329 H 1.08108 0.38352 0.69401
 H3330 H 1.06865 0.39654 0.66305
 H3331 H 1.07796 0.45579 0.68412
 H3332 H 1.09092 0.44277 0.71501
 C3333 C 0.61738 0.88063 0.77868
 C3334 C 0.61919 0.86017 0.78126
 C3335 C 0.62716 0.85246 0.79859
 C3336 C 0.63352 0.86500 0.81376
 C3337 C 0.63160 0.88545 0.81126
 C3338 C 0.62362 0.89318 0.79393
 C3339 C 0.60924 0.88878 0.76012
 N3340 N 0.60769 0.90853 0.75737
 N3341 N 0.60058 0.91580 0.74060
 C3342 C 0.59471 0.90363 0.72584
 N3343 N 0.59622 0.88389 0.72862
 N3344 N 0.60333 0.87662 0.74538
 C3345 C 0.58693 0.91165 0.70707
 C3346 C 0.58107 0.89891 0.69185
 C3347 C 0.57386 0.90639 0.67410
 C3348 C 0.57232 0.92680 0.67113
 C3349 C 0.57818 0.93957 0.68631
 C3350 C 0.58539 0.93209 0.70410
 H3351 H 0.61459 0.85006 0.76983
 H3352 H 0.62870 0.83665 0.79994
 H3353 H 0.63616 0.89548 0.82279
 H3354 H 0.62239 0.90901 0.79249
 H3355 H 0.58212 0.88310 0.69356
 H3356 H 0.56976 0.89617 0.66256
 H3357 H 0.57698 0.95537 0.68452
 H3358 H 0.58974 0.94234 0.71551
 C3359 C 0.61820 0.38042 1.27849
 C3360 C 0.61640 0.36028 1.28269
 C3361 C 0.62442 0.35236 1.29988
 C3362 C 0.63466 0.36432 1.31350
 C3363 C 0.63632 0.38460 1.30915
 C3364 C 0.62817 0.39250 1.29197
 C3365 C 0.60990 0.38868 1.26005
 N3366 N 0.61041 0.40834 1.25644
 N3367 N 0.60311 0.41568 1.23977
 C3368 C 0.59503 0.40365 1.22597
 N3369 N 0.59451 0.38399 1.22960
 N3370 N 0.60177 0.37667 1.24627
 C3371 C 0.58709 0.41171 1.20729
 C3372 C 0.58050 0.39898 1.19235
 C3373 C 0.57320 0.40649 1.17465
 C3374 C 0.57221 0.42691 1.17147
 C3375 C 0.57873 0.43965 1.18642
 C3376 C 0.58612 0.43214 1.20412
 H3377 H 0.60891 0.35048 1.27258
 H3378 H 0.62325 0.33660 1.30187
 H3379 H 0.64328 0.39474 1.31927
 H3380 H 0.62971 0.40813 1.28928
 H3381 H 0.58114 0.38317 1.19422
 H3382 H 0.56863 0.39626 1.16331
 H3383 H 0.57795 0.45546 1.18451
 H3384 H 0.59099 0.44237 1.21533
 C3385 C 0.88227 1.11973 1.27791
 C3386 C 0.87582 1.10715 1.29304
 C3387 C 0.86787 1.11485 1.31041
 C3388 C 0.86623 1.13531 1.31305
 C3389 C 0.87272 1.14787 1.29796
 C3390 C 0.88065 1.14019 1.28061
 C3391 C 0.89048 1.11164 1.25935
 N3392 N 0.89659 1.12386 1.24474
 N3393 N 0.90382 1.11666 1.22800
 C3394 C 0.90525 1.09693 1.22511
 N3395 N 0.89917 1.08470 1.23972
 N3396 N 0.89194 1.09190 1.25649
 C3397 C 0.91316 1.08899 1.20635
 C3398 C 0.91465 1.06857 1.20327
 C3399 C 0.92194 1.06117 1.18548
 C3400 C 0.92791 1.07401 1.17040
 C3401 C 0.92646 1.09441 1.17349
 C3402 C 0.91918 1.10181 1.19125
 H3403 H 0.87688 1.09132 1.29149
 H3404 H 0.86317 1.10481 1.32187
 H3405 H 0.87137 1.16369 1.29942
 H3406 H 0.88540 1.15033 1.26926
 H3407 H 0.91019 1.05827 1.21459
 H3408 H 0.92308 1.04538 1.18359
 H3409 H 0.93066 1.10468 1.16204
 H3410 H 0.91818 1.11761 1.19306
 C3411 C 0.88146 0.62016 0.77742
 C3412 C 0.87495 0.60761 0.79256
 C3413 C 0.86694 0.61537 0.80988
 C3414 C 0.86529 0.63583 0.81247
 C3415 C 0.87184 0.64836 0.79736
 C3416 C 0.87983 0.64062 0.78006
 C3417 C 0.88976 0.61202 0.75892
 N3418 N 0.89591 0.62419 0.74429
 N3419 N 0.90323 0.61694 0.72760
 C3420 C 0.90472 0.59720 0.72479
 N3421 N 0.89860 0.58502 0.73943
 N3422 N 0.89128 0.59227 0.75614
 C3423 C 0.91272 0.58920 0.70610
 C3424 C 0.91430 0.56877 0.70312
 C3425 C 0.92166 0.56130 0.68540
 C3426 C 0.92765 0.57409 0.67027
 C3427 C 0.92612 0.59450 0.67326
 C3428 C 0.91876 0.60196 0.69096
 H3429 H 0.87602 0.59178 0.79105
 H3430 H 0.86220 0.60535 0.82135
 H3431 H 0.87049 0.66417 0.79878
 H3432 H 0.88462 0.65074 0.76870
 H3433 H 0.90983 0.55851 0.71448
 H3434 H 0.92286 0.54551 0.68359
 H3435 H 0.93032 0.60473 0.66177
 H3436 H 0.91770 0.61777 0.69269
 C3437 C 0.38268 1.11950 0.77851
 C3438 C 0.37629 1.10696 0.79370
 C3439 C 0.36837 1.11473 0.81106
 C3440 C 0.36672 1.13519 0.81364
 C3441 C 0.37318 1.14771 0.79849
 C3442 C 0.38107 1.13997 0.78115
 C3443 C 0.39081 1.11135 0.75993
 N3444 N 0.39682 1.12352 0.74525
 N3445 N 0.40396 1.11628 0.72848
 C3446 C 0.40540 1.09654 0.72565
 N3447 N 0.39942 1.08435 0.74034
 N3448 N 0.39228 1.09160 0.75713
 C3449 C 0.41321 1.08856 0.70687
 C3450 C 0.41477 1.06813 0.70386
 C3451 C 0.42202 1.06069 0.68606
 C3452 C 0.42790 1.07350 0.67092
 C3453 C 0.42635 1.09391 0.67394
 C3454 C 0.41910 1.10134 0.69169
 H3455 H 0.37735 1.09113 0.79220
 H3456 H 0.36367 1.10472 0.82256
 H3457 H 0.37179 1.16353 0.79989
 H3458 H 0.38578 1.15007 0.76975
 H3459 H 0.41040 1.05785 0.71523
 H3460 H 0.42323 1.04490 0.68423
 H3461 H 0.43046 1.10415 0.66244
 H3462 H 0.41804 1.11715 0.69345
 C3463 C 0.38090 0.61958 1.27799
 C3464 C 0.37924 0.64004 1.28059
 C3465 C 0.37152 0.64780 1.29800
 C3466 C 0.36528 0.63530 1.31325
 C3467 C 0.36689 0.61483 1.31068
 C3468 C 0.37463 0.60705 1.29325
 C3469 C 0.38908 0.61142 1.25944
 N3470 N 0.39068 0.59168 1.25670
 N3471 N 0.39798 0.58443 1.23998
 C3472 C 0.40401 0.59662 1.22531
 N3473 N 0.40243 0.61635 1.22807
 N3474 N 0.39513 0.62359 1.24477
 C3475 C 0.41205 0.58863 1.20663
 C3476 C 0.41811 0.60141 1.19151
 C3477 C 0.42555 0.59396 1.17384
 C3478 C 0.42713 0.57356 1.17085
 C3479 C 0.42112 0.56076 1.18595
 C3480 C 0.41368 0.56820 1.20366
 H3481 H 0.38384 0.65014 1.26914
 H3482 H 0.37019 0.66362 1.29942
 H3483 H 0.36238 0.60484 1.32226
 H3484 H 0.37573 0.59122 1.29177
 H3485 H 0.41702 0.61721 1.19324
 H3486 H 0.42977 0.60420 1.16236
 H3487 H 0.42235 0.54497 1.18415
 H3488 H 0.40920 0.55793 1.21500
 C3489 C 1.12091 1.27684 0.87995
 C3490 C 1.12722 1.29209 0.89246
 C3491 C 1.13486 1.30955 0.88465
 C3492 C 1.13632 1.31216 0.86417
 C3493 C 1.13006 1.29690 0.85168
 C3494 C 1.12244 1.27946 0.85947
 C3495 C 1.11277 1.25829 0.88814
 N3496 N 1.10670 1.24362 0.87598
 N3497 N 1.09940 1.22695 0.88325
 C3498 C 1.09782 1.22420 0.90300
 N3499 N 1.10388 1.23888 0.91517
 N3500 N 1.11119 1.25557 0.90790
 C3501 C 1.08972 1.20557 0.91101
 C3502 C 1.08803 1.20265 0.93145
 C3503 C 1.08047 1.18502 0.93892
 C3504 C 1.07440 1.16993 0.92613
 C3505 C 1.07607 1.17285 0.90571
 C3506 C 1.08363 1.19045 0.89825
 H3507 H 1.12623 1.29059 0.90831
 H3508 H 1.13939 1.32112 0.89464
 H3509 H 1.13127 1.29835 0.83585
 H3510 H 1.11780 1.26802 0.84938
 H3511 H 1.09253 1.21399 0.94171
 H3512 H 1.07917 1.18326 0.95472
 H3513 H 1.07181 1.16139 0.89548
 H3514 H 1.08477 1.19214 0.88243
 C3515 C 1.12091 0.77651 0.37967
 C3516 C 1.12724 0.79175 0.39219
 C3517 C 1.13493 0.80919 0.38438
 C3518 C 1.13642 0.81179 0.36390
 C3519 C 1.13014 0.79654 0.35141
 C3520 C 1.12248 0.77912 0.35919
 C3521 C 1.11272 0.75798 0.38785
 N3522 N 1.10664 0.74331 0.37570
 N3523 N 1.09929 0.72666 0.38296
 C3524 C 1.09768 0.72393 0.40271
 N3525 N 1.10375 0.73860 0.41489
 N3526 N 1.11111 0.75527 0.40762
 C3527 C 1.08953 0.70532 0.41073
 C3528 C 1.08782 0.70241 0.43117
 C3529 C 1.08024 0.68479 0.43865
 C3530 C 1.07418 0.66969 0.42586
 C3531 C 1.07586 0.67260 0.40545
 C3532 C 1.08344 0.69019 0.39797
 H3533 H 1.12622 0.79026 0.40803
 H3534 H 1.13947 0.82076 0.39437
 H3535 H 1.13138 0.79799 0.33557
 H3536 H 1.11784 0.76769 0.34910
 H3537 H 1.09232 0.71376 0.44143
 H3538 H 1.07893 0.68304 0.45445
 H3539 H 1.07161 0.66113 0.39522
 H3540 H 1.08460 0.69187 0.38216
 C3541 C 0.62033 1.27712 0.38048
 C3542 C 0.61804 1.28154 0.36043
 C3543 C 0.62566 1.29893 0.35255
 C3544 C 0.63597 1.31253 0.36446
 C3545 C 0.63826 1.30789 0.38463
 C3546 C 0.63049 1.29052 0.39249
 C3547 C 0.61222 1.25858 0.38871
 N3548 N 0.61289 1.25486 0.40836
 N3549 N 0.60560 1.23817 0.41566
 C3550 C 0.59738 1.22447 0.40362
 N3551 N 0.59672 1.22820 0.38398
 N3552 N 0.60396 1.24489 0.37669
 C3553 C 0.58935 1.20582 0.41165
 C3554 C 0.58266 1.19095 0.39889
 C3555 C 0.57520 1.17331 0.40636
 C3556 C 0.57413 1.17011 0.42678
 C3557 C 0.58077 1.18498 0.43956
 C3558 C 0.58832 1.20262 0.43209
 H3559 H 0.61041 1.27149 0.35068
 H3560 H 0.62408 1.30111 0.33685
 H3561 H 0.64538 1.31795 0.39472
 H3562 H 0.63244 1.28763 0.40805
 H3563 H 0.58334 1.19284 0.38307
 H3564 H 0.57054 1.16203 0.39610
 H3565 H 0.57993 1.18306 0.45537
 H3566 H 0.59326 1.21378 0.44234
 C3567 C 0.61953 0.77820 0.88261
 C3568 C 0.63999 0.78086 0.88076
 C3569 C 0.64763 0.79822 0.87281
 C3570 C 0.63501 0.81335 0.86652
 C3571 C 0.61457 0.81077 0.86846
 C3572 C 0.60691 0.79340 0.87642
 C3573 C 0.61146 0.75960 0.89075
 N3574 N 0.59172 0.75678 0.89235
 N3575 N 0.58452 0.73998 0.89947
 C3576 C 0.59676 0.72527 0.90530
 N3577 N 0.61649 0.72812 0.90373
 N3578 N 0.62369 0.74491 0.89661
 C3579 C 0.58880 0.70647 0.91308
 C3580 C 0.60161 0.69129 0.91890
 C3581 C 0.59419 0.67351 0.92609
 C3582 C 0.57378 0.67047 0.92765
 C3583 C 0.56095 0.68562 0.92185
 C3584 C 0.56837 0.70344 0.91466
 H3585 H 0.65015 0.76946 0.88531
 H3586 H 0.66343 0.79964 0.87125
 H3587 H 0.60448 0.82227 0.86395
 H3588 H 0.59109 0.79189 0.87768
 H3589 H 0.61742 0.69306 0.91782
 H3590 H 0.60446 0.66201 0.93014
 H3591 H 0.54516 0.68378 0.92307
 H3592 H 0.55808 0.71481 0.91035
 C3593 C 0.88135 1.27861 1.11728
 C3594 C 0.86123 1.28287 1.11536
 C3595 C 0.85329 1.30004 1.12341
 C3596 C 0.86521 1.31357 1.13380
 C3597 C 0.88550 1.30919 1.13553
 C3598 C 0.89341 1.29204 1.12735
 C3599 C 0.88961 1.26015 1.10902
 N3600 N 0.90927 1.25649 1.10961
 N3601 N 0.91659 1.23979 1.10238
 C3602 C 0.90454 1.22601 1.09428
 N3603 N 0.88490 1.22970 1.09368
 N3604 N 0.87759 1.24640 1.10087
 C3605 C 0.91258 1.20729 1.08643
 C3606 C 0.89981 1.19235 1.07992
 C3607 C 0.90728 1.17462 1.07268
 C3608 C 0.92770 1.17140 1.07166
 C3609 C 0.94049 1.18633 1.07813
 C3610 C 0.93301 1.20407 1.08545
 H3611 H 0.85145 1.27280 1.10778
 H3612 H 0.83754 1.30203 1.12216
 H3613 H 0.89562 1.31926 1.14257
 H3614 H 0.90904 1.28931 1.12897
 H3615 H 0.88400 1.19425 1.08057
 H3616 H 0.89702 1.16328 1.06816
 H3617 H 0.95630 1.18439 1.07732
 H3618 H 0.94327 1.21528 1.09027
 C3619 C 0.88089 0.77771 0.61839
 C3620 C 0.87441 0.79295 0.60596
 C3621 C 0.86661 0.81030 0.61386
 C3622 C 0.86517 0.81280 0.63436
 C3623 C 0.87163 0.79756 0.64676
 C3624 C 0.87939 0.78024 0.63889
 C3625 C 0.88913 0.75924 0.61013
 N3626 N 0.89529 0.74457 0.62223
 N3627 N 0.90264 0.72795 0.61491
 C3628 C 0.90417 0.72525 0.59515
 N3629 N 0.89802 0.73992 0.58302
 N3630 N 0.89066 0.75657 0.59035
 C3631 C 0.91229 0.70665 0.58709
 C3632 C 0.91397 0.70376 0.56664
 C3633 C 0.92151 0.68612 0.55914
 C3634 C 0.92757 0.67101 0.57191
 C3635 C 0.92591 0.67391 0.59233
 C3636 C 0.91837 0.69151 0.59982
 H3637 H 0.87537 0.79151 0.59011
 H3638 H 0.86193 0.82186 0.60394
 H3639 H 0.87042 0.79892 0.66261
 H3640 H 0.88416 0.76880 0.64892
 H3641 H 0.90947 0.71511 0.55640
 H3642 H 0.92279 0.68438 0.54334
 H3643 H 0.93015 0.66243 0.60254
 H3644 H 0.91723 0.69317 0.61564
 C3645 C 0.38105 1.27798 0.61898
 C3646 C 0.36098 1.28233 0.61675
 C3647 C 0.35302 1.29957 0.62462
 C3648 C 0.36486 1.31309 0.63512
 C3649 C 0.38507 1.30856 0.63727
 C3650 C 0.39302 1.29133 0.62926
 C3651 C 0.38933 1.25953 0.61073
 N3652 N 0.40899 1.25585 0.61137
 N3653 N 0.41632 1.23919 0.60403
 C3654 C 0.40430 1.22550 0.59577
 N3655 N 0.38466 1.22920 0.59513
 N3656 N 0.37734 1.24585 0.60243
 C3657 C 0.41234 1.20685 0.58775
 C3658 C 0.39957 1.19195 0.58116
 C3659 C 0.40704 1.17429 0.57374
 C3660 C 0.42746 1.17111 0.57263
 C3661 C 0.44025 1.18602 0.57916
 C3662 C 0.43277 1.20368 0.58666
 H3663 H 0.35127 1.27232 0.60903
 H3664 H 0.33731 1.30165 0.62310
 H3665 H 0.39511 1.31858 0.64450
 H3666 H 0.40859 1.28850 0.63115
 H3667 H 0.38376 1.19381 0.58188
 H3668 H 0.39678 1.16297 0.56918
 H3669 H 0.45606 1.18411 0.57829
 H3670 H 0.44303 1.21487 0.59153
 C3671 C 0.38076 0.77760 1.11946
 C3672 C 0.39273 0.79091 1.12978
 C3673 C 0.38479 0.80813 1.13783
 C3674 C 0.36459 0.81268 1.13568
 C3675 C 0.35274 0.79919 1.12516
 C3676 C 0.36069 0.78196 1.11725
 C3677 C 0.38903 0.75917 1.11114
 N3678 N 0.37703 0.74553 1.10278
 N3679 N 0.38435 0.72890 1.09542
 C3680 C 0.40399 0.72519 1.09605
 N3681 N 0.41601 0.73885 1.10437
 N3682 N 0.40868 0.75548 1.11177
 C3683 C 0.41203 0.70657 1.08795
 C3684 C 0.43246 0.70340 1.08689
 C3685 C 0.43994 0.68576 1.07933
 C3686 C 0.42716 0.67088 1.07272
 C3687 C 0.40674 0.67407 1.07380
 C3688 C 0.39927 0.69170 1.08128
 H3689 H 0.40830 0.78807 1.13166
 H3690 H 0.39484 0.81812 1.14508
 H3691 H 0.33703 0.80129 1.12364
 H3692 H 0.35097 0.77198 1.10950
 H3693 H 0.44272 0.71456 1.09182
 H3694 H 0.45575 0.68385 1.07848
 H3695 H 0.39648 0.66277 1.06918
 H3696 H 0.38345 0.69357 1.08198
 C3697 C 0.88031 0.72245 0.88153
 C3698 C 0.89283 0.70721 0.87517
 C3699 C 0.88503 0.68994 0.86711
 C3700 C 0.86457 0.68750 0.86524
 C3701 C 0.85207 0.70269 0.87166
 C3702 C 0.85984 0.71994 0.87971
 C3703 C 0.88850 0.74091 0.88985
 N3704 N 0.87635 0.75562 0.89584
 N3705 N 0.88363 0.77229 0.90315
 C3706 C 0.90338 0.77498 0.90480
 N3707 N 0.91554 0.76026 0.89885
 N3708 N 0.90826 0.74358 0.89153
 C3709 C 0.91141 0.79365 0.91279
 C3710 C 0.93185 0.79653 0.91454
 C3711 C 0.93934 0.81425 0.92189
 C3712 C 0.92657 0.82946 0.92769
 C3713 C 0.90616 0.82657 0.92598
 C3714 C 0.89867 0.80889 0.91864
 H3715 H 0.90866 0.70861 0.87640
 H3716 H 0.89503 0.67841 0.86249
 H3717 H 0.83625 0.70137 0.87016
 H3718 H 0.84975 0.73136 0.88438
 H3719 H 0.94210 0.78511 0.91022
 H3720 H 0.95514 0.81598 0.92321
 H3721 H 0.89594 0.83812 0.93003
 H3722 H 0.88285 0.80723 0.91745
 C3723 C 0.88104 0.22201 0.38203
 C3724 C 0.86058 0.21943 0.38019
 C3725 C 0.85288 0.20213 0.37218
 C3726 C 0.86544 0.18698 0.36581
 C3727 C 0.88590 0.18949 0.36769
 C3728 C 0.89362 0.20681 0.37573
 C3729 C 0.88913 0.24052 0.39031
 N3730 N 0.90888 0.24329 0.39199
 N3731 N 0.91608 0.26002 0.39928
 C3732 C 0.90384 0.27470 0.40520
 N3733 N 0.88411 0.27191 0.40354
 N3734 N 0.87691 0.25519 0.39627
 C3735 C 0.91177 0.29343 0.41314
 C3736 C 0.89894 0.30861 0.41895
 C3737 C 0.90634 0.32635 0.42624
 C3738 C 0.92673 0.32936 0.42793
 C3739 C 0.93959 0.31420 0.42218
 C3740 C 0.93219 0.29642 0.41488
 H3741 H 0.85044 0.23083 0.38482
 H3742 H 0.83707 0.20076 0.37065
 H3743 H 0.89594 0.17798 0.36312
 H3744 H 0.90944 0.20828 0.37697
 H3745 H 0.88314 0.30687 0.41776
 H3746 H 0.89606 0.33786 0.43026
 H3747 H 0.95538 0.31602 0.42350
 H3748 H 0.94250 0.28504 0.41059
 C3749 C 0.38225 0.72166 0.38166
 C3750 C 0.38428 0.71730 0.36156
 C3751 C 0.37644 0.70000 0.35370
 C3752 C 0.36615 0.68643 0.36567
 C3753 C 0.36429 0.69092 0.38593
 C3754 C 0.37227 0.70821 0.39376
 C3755 C 0.39032 0.74024 0.38982
 N3756 N 0.38962 0.74403 0.40946
 N3757 N 0.39672 0.76084 0.41668
 C3758 C 0.40478 0.77457 0.40458
 N3759 N 0.40549 0.77075 0.38496
 N3760 N 0.39843 0.75395 0.37774
 C3761 C 0.41252 0.79339 0.41251
 C3762 C 0.41907 0.80824 0.39966
 C3763 C 0.42625 0.82603 0.40703
 C3764 C 0.42717 0.82941 0.42743
 C3765 C 0.42064 0.81457 0.44030
 C3766 C 0.41337 0.79677 0.43292
 H3767 H 0.39179 0.72738 0.35175
 H3768 H 0.37776 0.69793 0.33797
 H3769 H 0.35731 0.68085 0.39608
 H3770 H 0.37056 0.71102 0.40937
 H3771 H 0.41851 0.80621 0.38385
 H3772 H 0.43083 0.83729 0.39670
 H3773 H 0.42136 0.81664 0.45610
 H3774 H 0.40852 0.78563 0.44324
 C3775 C 0.38142 0.22135 0.88277
 C3776 C 0.36132 0.21695 0.88462
 C3777 C 0.35354 0.19970 0.87657
 C3778 C 0.36561 0.18624 0.86624
 C3779 C 0.38587 0.19078 0.86458
 C3780 C 0.39362 0.20801 0.87276
 C3781 C 0.38950 0.23988 0.89103
 N3782 N 0.40914 0.24368 0.89053
 N3783 N 0.41631 0.26045 0.89776
 C3784 C 0.40413 0.27417 0.90575
 N3785 N 0.38450 0.27035 0.90627
 N3786 N 0.37735 0.25357 0.89909
 C3787 C 0.41200 0.29298 0.91357
 C3788 C 0.39911 0.30788 0.91992
 C3789 C 0.40643 0.32571 0.92707
 C3790 C 0.42683 0.32906 0.92815
 C3791 C 0.43974 0.31415 0.92186
 C3792 C 0.43241 0.29632 0.91463
 H3793 H 0.35144 0.22695 0.89215
 H3794 H 0.33780 0.19759 0.87777
 H3795 H 0.39609 0.18078 0.85758
 H3796 H 0.40923 0.21085 0.87119
 H3797 H 0.38331 0.30588 0.91921
 H3798 H 0.39608 0.33701 0.93146
 H3799 H 0.45553 0.31619 0.92273
 H3800 H 0.44276 0.28514 0.90994
 C3801 C 1.11808 0.72223 1.11933
 C3802 C 1.12803 0.70884 1.10714
 C3803 C 1.13619 0.69161 1.11490
 C3804 C 1.13457 0.68713 1.13517
 C3805 C 1.12435 0.70066 1.14725
 C3806 C 1.11631 0.71790 1.13946
 C3807 C 1.10974 0.74071 1.11120
 N3808 N 1.10163 0.75441 1.12330
 N3809 N 1.09434 0.77111 1.11609
 C3810 C 1.09481 0.77484 1.09644
 N3811 N 1.10287 0.76111 1.08431
 N3812 N 1.11019 0.74441 1.09154
 C3813 C 1.08685 0.79355 1.08849
 C3814 C 1.08585 0.79681 1.06806
 C3815 C 1.07850 0.81455 1.06063
 C3816 C 1.07204 0.82946 1.07346
 C3817 C 1.07304 0.82618 1.09388
 C3818 C 1.08031 0.80844 1.10129
 H3819 H 1.12954 0.71163 1.09151
 H3820 H 1.14312 0.68156 1.10468
 H3821 H 1.12321 0.69857 1.16300
 H3822 H 1.10885 0.72795 1.14934
 H3823 H 1.09068 0.78563 1.05776
 H3824 H 1.07770 0.81653 1.04483
 H3825 H 1.06851 0.83749 1.10417
 H3826 H 1.08097 0.80650 1.11711
 C3827 C 1.11863 0.22161 0.61750
 C3828 C 1.10654 0.20810 0.62741
 C3829 C 1.11440 0.19081 0.63534
 C3830 C 1.13467 0.18637 0.63353
 C3831 C 1.14663 0.19998 0.62327
 C3832 C 1.13874 0.21729 0.61547
 C3833 C 1.11042 0.24021 0.60953
 N3834 N 1.12246 0.25404 0.60155
 N3835 N 1.11519 0.27087 0.59461
 C3836 C 1.09555 0.27460 0.59532
 N3837 N 1.08349 0.26075 0.60325
 N3838 N 1.09077 0.24393 0.61023
 C3839 C 1.08755 0.29344 0.58770
 C3840 C 1.06711 0.29671 0.58678
 C3841 C 1.05967 0.31450 0.57956
 C3842 C 1.07248 0.32943 0.57314
 C3843 C 1.09290 0.32618 0.57416
 C3844 C 1.10033 0.30840 0.58130
 H3845 H 1.09093 0.21086 0.62910
 H3846 H 1.10425 0.18069 0.64227
 H3847 H 1.16236 0.19795 0.62196
 H3848 H 1.14853 0.22742 0.60800
 H3849 H 1.05684 0.28548 0.59153
 H3850 H 1.04387 0.31648 0.57877
 H3851 H 1.10318 0.33751 0.56968
 H3852 H 1.11615 0.30647 0.58191
 C3853 C 0.61925 0.72234 0.61875
 C3854 C 0.63973 0.71985 0.62042
 C3855 C 0.64757 0.70254 0.62825
 C3856 C 0.63513 0.68728 0.63459
 C3857 C 0.61464 0.68971 0.63290
 C3858 C 0.60679 0.70705 0.62505
 C3859 C 0.61102 0.74085 0.61060
 N3860 N 0.59125 0.74353 0.60903
 N3861 N 0.58393 0.76024 0.60181
 C3862 C 0.59608 0.77499 0.59586
 N3863 N 0.61583 0.77228 0.59742
 N3864 N 0.62314 0.75559 0.60463
 C3865 C 0.58804 0.79367 0.58793
 C3866 C 0.60079 0.80887 0.58203
 C3867 C 0.59332 0.82653 0.57464
 C3868 C 0.57291 0.82944 0.57295
 C3869 C 0.56012 0.81428 0.57884
 C3870 C 0.56760 0.79658 0.58624
 H3871 H 0.64978 0.73132 0.61578
 H3872 H 0.66340 0.70122 0.62964
 H3873 H 0.60470 0.67812 0.63747
 H3874 H 0.59094 0.70844 0.62393
 H3875 H 0.61661 0.80720 0.58319
 H3876 H 0.60354 0.83805 0.57053
 H3877 H 0.54432 0.81603 0.57753
 H3878 H 0.55735 0.78518 0.59061
 C3879 C 0.61924 0.22245 1.11884
 C3880 C 0.63935 0.21820 1.11673
 C3881 C 0.64734 0.20098 1.12459
 C3882 C 0.63549 0.18738 1.13499
 C3883 C 0.61522 0.19177 1.13693
 C3884 C 0.60725 0.20898 1.12893
 C3885 C 0.61093 0.24095 1.11072
 N3886 N 0.59126 0.24458 1.11140
 N3887 N 0.58389 0.26129 1.10425
 C3888 C 0.59588 0.27511 1.09615
 N3889 N 0.61554 0.27146 1.09546
 N3890 N 0.62289 0.25474 1.10257
 C3891 C 0.58780 0.29382 1.08833
 C3892 C 0.60052 0.30879 1.08181
 C3893 C 0.59302 0.32648 1.07452
 C3894 C 0.57259 0.32963 1.07346
 C3895 C 0.55983 0.31468 1.07998
 C3896 C 0.56735 0.29698 1.08736
 H3897 H 0.64907 0.22831 1.10913
 H3898 H 0.66308 0.19898 1.12320
 H3899 H 0.60516 0.18166 1.14400
 H3900 H 0.59164 0.21171 1.13070
 H3901 H 0.61635 0.30694 1.08246
 H3902 H 0.60325 0.33782 1.06997
 H3903 H 0.54402 0.31658 1.07916
 H3904 H 0.55713 0.28575 1.09219
 C3905 C 1.27809 1.11897 0.87990
 C3906 C 1.29344 1.10656 0.87360
 C3907 C 1.31087 1.11448 0.86599
 C3908 C 1.31335 1.13497 0.86455
 C3909 C 1.29801 1.14735 0.87080
 C3910 C 1.28060 1.13946 0.87839
 C3911 C 1.25957 1.11068 0.88800
 N3912 N 1.24483 1.12275 0.89407
 N3913 N 1.22817 1.11540 0.90134
 C3914 C 1.22551 1.09564 0.90287
 N3915 N 1.24025 1.08355 0.89680
 N3916 N 1.25693 1.09091 0.88953
 C3917 C 1.20690 1.08754 0.91094
 C3918 C 1.20403 1.06710 0.91257
 C3919 C 1.18641 1.05956 0.92012
 C3920 C 1.17129 1.07229 0.92625
 C3921 C 1.17416 1.09271 0.92463
 C3922 C 1.19174 1.10024 0.91708
 H3923 H 1.29203 1.09072 0.87459
 H3924 H 1.32251 1.10457 0.86147
 H3925 H 1.29936 1.16319 0.86960
 H3926 H 1.26909 1.14947 0.88302
 H3927 H 1.21540 1.05689 0.90802
 H3928 H 1.18469 1.04376 0.92137
 H3929 H 1.16267 1.10289 0.92892
 H3930 H 1.19338 1.11606 0.91598
 C3931 C 1.27887 0.61888 0.38186
 C3932 C 1.29421 0.60648 0.37555
 C3933 C 1.31158 0.61441 0.36782
 C3934 C 1.31400 0.63489 0.36626
 C3935 C 1.29871 0.64728 0.37263
 C3936 C 1.28136 0.63937 0.38035
 C3937 C 1.26030 0.61057 0.38981
 N3938 N 1.24549 0.62262 0.39577
 N3939 N 1.22873 0.61524 0.40277
 C3940 C 1.22602 0.59548 0.40413
 N3941 N 1.24083 0.58340 0.39819
 N3942 N 1.25761 0.59079 0.39118
 C3943 C 1.20727 0.58735 0.41185
 C3944 C 1.20436 0.56691 0.41335
 C3945 C 1.18661 0.55936 0.42061
 C3946 C 1.17143 0.57209 0.42658
 C3947 C 1.17433 0.59251 0.42504
 C3948 C 1.19203 0.60005 0.41778
 H3949 H 1.29282 0.59064 0.37654
 H3950 H 1.32319 0.60451 0.36318
 H3951 H 1.30000 0.66311 0.37131
 H3952 H 1.26985 0.64937 0.38499
 H3953 H 1.21578 0.55670 0.40894
 H3954 H 1.18486 0.54356 0.42179
 H3955 H 1.16279 0.60269 0.42920
 H3956 H 1.19370 0.61586 0.41677
 C3957 C 0.77822 1.11881 0.38032
 C3958 C 0.79348 1.10639 0.37386
 C3959 C 0.81086 1.11429 0.36610
 C3960 C 0.81336 1.13477 0.36469
 C3961 C 0.79810 1.14717 0.37110
 C3962 C 0.78075 1.13930 0.37883
 C3963 C 0.75974 1.11056 0.38854
 N3964 N 0.74507 1.12266 0.39473
 N3965 N 0.72844 1.11535 0.40208
 C3966 C 0.72572 1.09560 0.40358
 N3967 N 0.74039 1.08347 0.39740
 N3968 N 0.75705 1.09079 0.39004
 C3969 C 0.70711 1.08755 0.41170
 C3970 C 0.70419 1.06711 0.41331
 C3971 C 0.68654 1.05962 0.42084
 C3972 C 0.67146 1.07239 0.42697
 C3973 C 0.67439 1.09280 0.42539
 C3974 C 0.69200 1.10029 0.41786
 H3975 H 0.79204 1.09054 0.37481
 H3976 H 0.82244 1.10437 0.36144
 H3977 H 0.79946 1.16301 0.36991
 H3978 H 0.76930 1.14932 0.38358
 H3979 H 0.71552 1.05687 0.40874
 H3980 H 0.68477 1.04383 0.42206
 H3981 H 0.66293 1.10301 0.42969
 H3982 H 0.69369 1.11610 0.41678
 C3983 C 0.77735 0.61924 0.87982
 C3984 C 0.79263 0.60686 0.87330
 C3985 C 0.80997 0.61481 0.86552
 C3986 C 0.81244 0.63531 0.86412
 C3987 C 0.79716 0.64766 0.87061
 C3988 C 0.77984 0.63974 0.87836
 C3989 C 0.75891 0.61093 0.88806
 N3990 N 0.74422 0.62298 0.89430
 N3991 N 0.72762 0.61560 0.90167
 C3992 C 0.72496 0.59585 0.90314
 N3993 N 0.73964 0.58377 0.89690
 N3994 N 0.75627 0.59115 0.88952
 C3995 C 0.70639 0.58772 0.91129
 C3996 C 0.70353 0.56727 0.91286
 C3997 C 0.68593 0.55971 0.92045
 C3998 C 0.67082 0.57242 0.92666
 C3999 C 0.67370 0.59284 0.92511
 C4000 C 0.69125 0.60040 0.91753
 H4001 H 0.79123 0.59102 0.87423
 H4002 H 0.82156 0.60492 0.86082
 H4003 H 0.79849 0.66351 0.86944
 H4004 H 0.76838 0.64973 0.88315
 H4005 H 0.71488 0.55707 0.90824
 H4006 H 0.68421 0.54391 0.92164
 H4007 H 0.66222 0.60301 0.92947
 H4008 H 0.69289 0.61622 0.91648
 C4009 C 1.27739 0.87999 1.11970
 C4010 C 1.29272 0.89242 1.12598
 C4011 C 1.31003 0.88454 1.13387
 C4012 C 1.31242 0.86406 1.13563
 C4013 C 1.29712 0.85165 1.12931
 C4014 C 1.27983 0.85951 1.12145
 C4015 C 1.25892 0.88826 1.11148
 N4016 N 1.24417 0.87618 1.10544
 N4017 N 1.22752 0.88353 1.09815
 C4018 C 1.22488 0.90329 1.09657
 N4019 N 1.23964 0.91538 1.10259
 N4020 N 1.25631 0.90802 1.10989
 C4021 C 1.20626 0.91139 1.08854
 C4022 C 1.20341 0.93184 1.08692
 C4023 C 1.18577 0.93939 1.07945
 C4024 C 1.17061 0.92667 1.07340
 C4025 C 1.17346 0.90625 1.07501
 C4026 C 1.19107 0.89870 1.08248
 H4027 H 1.29137 0.90825 1.12481
 H4028 H 1.32165 0.89447 1.13841
 H4029 H 1.29841 0.83582 1.13073
 H4030 H 1.26833 0.84948 1.11683
 H4031 H 1.21480 0.94204 1.09141
 H4032 H 1.18406 0.95519 1.07820
 H4033 H 1.16194 0.89608 1.07077
 H4034 H 1.19270 0.88289 1.08357
 C4035 C 1.27750 0.38020 0.61918
 C4036 C 1.28000 0.35973 0.62092
 C4037 C 1.29733 0.35192 0.62876
 C4038 C 1.31260 0.36437 0.63504
 C4039 C 1.31016 0.38484 0.63328
 C4040 C 1.29281 0.39267 0.62542
 C4041 C 1.25899 0.38842 0.61100
 N4042 N 1.25633 0.40818 0.60941
 N4043 N 1.23962 0.41549 0.60217
 C4044 C 1.22487 0.40336 0.59621
 N4045 N 1.22756 0.38362 0.59778
 N4046 N 1.24425 0.37631 0.60502
 C4047 C 1.20621 0.41142 0.58824
 C4048 C 1.19101 0.39870 0.58225
 C4049 C 1.17336 0.40621 0.57485
 C4050 C 1.17046 0.42662 0.57323
 C4051 C 1.18562 0.43937 0.57921
 C4052 C 1.20331 0.43186 0.58661
 H4053 H 1.26851 0.34967 0.61633
 H4054 H 1.29865 0.33610 0.63019
 H4055 H 1.32177 0.39480 0.63779
 H4056 H 1.29142 0.40851 0.62425
 H4057 H 1.19267 0.38289 0.58335
 H4058 H 1.16184 0.39601 0.57066
 H4059 H 1.18388 0.45517 0.57796
 H4060 H 1.21470 0.44209 0.59105
 C4061 C 0.77821 0.88138 0.61920
 C4062 C 0.78087 0.87975 0.63967
 C4063 C 0.79822 0.87187 0.64738
 C4064 C 0.81336 0.86544 0.63482
 C4065 C 0.81076 0.86709 0.61436
 C4066 C 0.79338 0.87499 0.60662
 C4067 C 0.75966 0.88958 0.61108
 N4068 N 0.75686 0.89113 0.59133
 N4069 N 0.74012 0.89838 0.58411
 C4070 C 0.72545 0.90436 0.59634
 N4071 N 0.72827 0.90282 0.61608
 N4072 N 0.74500 0.89559 0.62329
 C4073 C 0.70672 0.91230 0.58839
 C4074 C 0.69156 0.91820 0.60120
 C4075 C 0.67385 0.92556 0.59379
 C4076 C 0.67085 0.92722 0.57339
 C4077 C 0.68599 0.92135 0.56055
 C4078 C 0.70373 0.91399 0.56796
 H4079 H 0.76949 0.88445 0.64980
 H4080 H 0.79965 0.87051 0.66320
 H4081 H 0.82225 0.86243 0.60432
 H4082 H 0.79186 0.87607 0.59079
 H4083 H 0.69330 0.91705 0.61701
 H4084 H 0.66236 0.92966 0.60406
 H4085 H 0.68417 0.92265 0.54475
 H4086 H 0.71510 0.90963 0.55766
 C4087 C 0.77733 0.38031 1.11988
 C4088 C 0.79257 0.39279 1.12626
 C4089 C 0.81001 0.38497 1.13394
 C4090 C 0.81260 0.36450 1.13538
 C4091 C 0.79736 0.35203 1.12904
 C4092 C 0.77995 0.35983 1.12138
 C4093 C 0.75880 0.38851 1.11172
 N4094 N 0.74413 0.37637 1.10559
 N4095 N 0.72747 0.38366 1.09829
 C4096 C 0.72472 0.40340 1.09678
 N4097 N 0.73939 0.41556 1.10290
 N4098 N 0.75607 0.40827 1.11021
 C4099 C 0.70608 0.41144 1.08871
 C4100 C 0.70315 0.43188 1.08712
 C4101 C 0.68550 0.43937 1.07963
 C4102 C 0.67039 0.42661 1.07353
 C4103 C 0.67333 0.40620 1.07509
 C4104 C 0.69096 0.39870 1.08258
 H4105 H 0.79108 0.40863 1.12529
 H4106 H 0.82158 0.39494 1.13853
 H4107 H 0.79880 0.33620 1.13023
 H4108 H 0.76851 0.34976 1.11669
 H4109 H 0.71450 0.44212 1.09165
 H4110 H 0.68373 0.45517 1.07842
 H4111 H 0.66186 0.39599 1.07081
 H4112 H 0.69265 0.38289 1.08364
 C4113 C 0.72309 1.12062 1.11951
 C4114 C 0.72053 1.14109 1.12122
 C4115 C 0.70322 1.14885 1.12916
 C4116 C 0.68803 1.13636 1.13559
 C4117 C 0.69057 1.11590 1.13395
 C4118 C 0.70790 1.10811 1.12598
 C4119 C 0.74151 1.11245 1.11106
 N4120 N 0.74420 1.09270 1.10941
 N4121 N 0.76079 1.08543 1.10187
 C4122 C 0.77541 1.09760 1.09564
 N4123 N 0.77269 1.11734 1.09728
 N4124 N 0.75611 1.12460 1.10482
 C4125 C 0.79397 1.08958 1.08737
 C4126 C 0.80906 1.10231 1.08115
 C4127 C 0.82666 1.09482 1.07357
 C4128 C 0.82960 1.07440 1.07202
 C4129 C 0.81450 1.06165 1.07815
 C4130 C 0.79688 1.06914 1.08573
 H4131 H 0.73193 1.15117 1.11648
 H4132 H 0.70183 1.16468 1.13051
 H4133 H 0.67904 1.10591 1.13859
 H4134 H 0.70935 1.09228 1.12486
 H4135 H 0.80738 1.11812 1.08224
 H4136 H 0.83812 1.10502 1.06925
 H4137 H 0.81627 1.04585 1.07695
 H4138 H 0.78556 1.05890 1.09032
 C4139 C 0.72253 0.61963 0.61877
 C4140 C 0.70738 0.60709 0.62528
 C4141 C 0.69004 0.61485 0.63325
 C4142 C 0.68744 0.63531 0.63483
 C4143 C 0.70259 0.64783 0.62836
 C4144 C 0.71991 0.64009 0.62042
 C4145 C 0.74099 0.61152 0.61037
 N4146 N 0.75555 0.62372 0.60413
 N4147 N 0.77218 0.61652 0.59666
 C4148 C 0.77500 0.59679 0.59510
 N4149 N 0.76043 0.58456 0.60132
 N4150 N 0.74378 0.59177 0.60880
 C4151 C 0.79363 0.58885 0.58692
 C4152 C 0.79666 0.56843 0.58534
 C4153 C 0.81436 0.56102 0.57786
 C4154 C 0.82941 0.57385 0.57177
 C4155 C 0.82635 0.59425 0.57327
 C4156 C 0.80868 0.60166 0.58074
 H4157 H 0.70889 0.59126 0.62421
 H4158 H 0.67855 0.60484 0.63794
 H4159 H 0.70117 0.66365 0.62968
 H4160 H 0.73127 0.65021 0.61565
 H4161 H 0.78538 0.55813 0.58990
 H4162 H 0.81622 0.54523 0.57668
 H4163 H 0.83778 0.60451 0.56898
 H4164 H 0.80690 0.61746 0.58179
 C4165 C 0.22205 1.11897 0.61901
 C4166 C 0.21948 1.12098 0.63947
 C4167 C 0.20208 1.12882 0.64714
 C4168 C 0.18681 1.13484 0.63455
 C4169 C 0.18930 1.13276 0.61411
 C4170 C 0.20672 1.12491 0.60642
 C4171 C 0.24066 1.11087 0.61092
 N4172 N 0.24340 1.10913 0.59117
 N4173 N 0.26019 1.10199 0.58395
 C4174 C 0.27496 1.09627 0.59617
 N4175 N 0.27220 1.09799 0.61591
 N4176 N 0.25542 1.10513 0.62312
 C4177 C 0.29372 1.08841 0.58820
 C4178 C 0.30892 1.08257 0.60100
 C4179 C 0.32663 1.07524 0.59357
 C4180 C 0.32961 1.07353 0.57316
 C4181 C 0.31446 1.07937 0.56034
 C4182 C 0.29671 1.08671 0.56777
 H4183 H 0.23098 1.11662 0.64962
 H4184 H 0.20069 1.13048 0.66294
 H4185 H 0.17769 1.13704 0.60405
 H4186 H 0.20815 1.12352 0.59060
 H4187 H 0.30719 1.08373 0.61681
 H4188 H 0.33814 1.07115 0.60383
 H4189 H 0.31626 1.07806 0.54454
 H4190 H 0.28532 1.09103 0.55748
 C4191 C 0.22175 0.61996 1.11787
 C4192 C 0.21929 0.64043 1.11977
 C4193 C 0.20198 0.64821 1.12770
 C4194 C 0.18669 0.63574 1.13391
 C4195 C 0.18908 0.61528 1.13197
 C4196 C 0.20641 0.60748 1.12403
 C4197 C 0.24027 0.61177 1.10968
 N4198 N 0.24297 0.59202 1.10809
 N4199 N 0.25971 0.58473 1.10089
 C4200 C 0.27447 0.59688 1.09498
 N4201 N 0.27174 0.61662 1.09654
 N4202 N 0.25502 0.62391 1.10374
 C4203 C 0.29320 0.58884 1.08711
 C4204 C 0.30838 0.60159 1.08113
 C4205 C 0.32611 0.59410 1.07386
 C4206 C 0.32910 0.57369 1.07237
 C4207 C 0.31394 0.56092 1.07832
 C4208 C 0.29618 0.56841 1.08559
 H4209 H 0.23080 0.65050 1.11526
 H4210 H 0.20072 0.66402 1.12930
 H4211 H 0.17748 0.60532 1.13648
 H4212 H 0.20778 0.59165 1.12275
 H4213 H 0.30666 0.61740 1.08214
 H4214 H 0.33762 0.60432 1.06968
 H4215 H 0.31575 0.54513 1.07717
 H4216 H 0.28480 0.55816 1.09002
 C4217 C 0.72160 0.88247 0.88069
 C4218 C 0.70642 0.87620 0.89330
 C4219 C 0.68907 0.86818 0.88564
 C4220 C 0.68649 0.86628 0.86519
 C4221 C 0.70161 0.87265 0.85258
 C4222 C 0.71895 0.88065 0.86023
 C4223 C 0.74017 0.89067 0.88876
 N4224 N 0.75487 0.89655 0.87653
 N4225 N 0.77163 0.90374 0.88373
 C4226 C 0.77444 0.90537 0.90347
 N4227 N 0.75973 0.89953 0.91571
 N4228 N 0.74295 0.89233 0.90851
 C4229 C 0.79321 0.91323 0.91142
 C4230 C 0.79619 0.91497 0.93185
 C4231 C 0.81397 0.92224 0.93926
 C4232 C 0.82916 0.92797 0.92642
 C4233 C 0.82618 0.92625 0.90602
 C4234 C 0.80843 0.91898 0.89861
 H4235 H 0.70792 0.87743 0.90913
 H4236 H 0.67759 0.86361 0.89572
 H4237 H 0.70019 0.87112 0.83677
 H4238 H 0.73033 0.88527 0.85006
 H4239 H 0.78478 0.91072 0.94214
 H4240 H 0.81576 0.92358 0.95505
 H4241 H 0.83772 0.93024 0.89575
 H4242 H 0.80671 0.91778 0.88280
 C4243 C 0.72193 0.38120 0.38053
 C4244 C 0.71945 0.37932 0.36006
 C4245 C 0.70215 0.37137 0.35229
 C4246 C 0.68688 0.36513 0.36479
 C4247 C 0.68932 0.36700 0.38525
 C4248 C 0.70664 0.37497 0.39305
 C4249 C 0.74042 0.38949 0.38869
 N4250 N 0.74309 0.39125 0.40845
 N4251 N 0.75979 0.39858 0.41570
 C4252 C 0.77452 0.40448 0.40351
 N4253 N 0.77183 0.40274 0.38377
 N4254 N 0.75515 0.39541 0.37652
 C4255 C 0.79320 0.41252 0.41150
 C4256 C 0.80841 0.41837 0.39871
 C4257 C 0.82608 0.42580 0.40615
 C4258 C 0.82899 0.42760 0.42656
 C4259 C 0.81381 0.42179 0.43937
 C4260 C 0.79610 0.41435 0.43193
 H4261 H 0.73092 0.38388 0.34997
 H4262 H 0.70085 0.36981 0.33647
 H4263 H 0.67773 0.36245 0.39523
 H4264 H 0.70803 0.37622 0.40888
 H4265 H 0.80674 0.41711 0.38291
 H4266 H 0.83761 0.42985 0.39590
 H4267 H 0.81555 0.42319 0.45516
 H4268 H 0.78470 0.41003 0.44221
 C4269 C 0.22228 0.88130 0.38005
 C4270 C 0.21974 0.87974 0.35956
 C4271 C 0.20248 0.87176 0.35171
 C4272 C 0.18732 0.86517 0.36416
 C4273 C 0.18981 0.86673 0.38464
 C4274 C 0.20709 0.87473 0.39251
 C4275 C 0.24073 0.88958 0.38830
 N4276 N 0.24341 0.89110 0.40808
 N4277 N 0.26007 0.89842 0.41542
 C4278 C 0.27477 0.90454 0.40330
 N4279 N 0.27207 0.90304 0.38353
 N4280 N 0.25543 0.89573 0.37620
 C4281 C 0.29341 0.91256 0.41139
 C4282 C 0.30863 0.91855 0.39868
 C4283 C 0.32626 0.92596 0.40621
 C4284 C 0.32913 0.92761 0.42664
 C4285 C 0.31394 0.92166 0.43938
 C4286 C 0.29627 0.91423 0.43184
 H4287 H 0.23114 0.88457 0.34951
 H4288 H 0.20114 0.87045 0.33588
 H4289 H 0.17831 0.86192 0.39459
 H4290 H 0.20852 0.87573 0.40836
 H4291 H 0.30700 0.91741 0.38286
 H4292 H 0.33780 0.93013 0.39602
 H4293 H 0.31565 0.92293 0.45518
 H4294 H 0.28485 0.90980 0.44206
 C4295 C 0.22220 0.38163 0.88016
 C4296 C 0.20701 0.37510 0.89265
 C4297 C 0.18971 0.36712 0.88482
 C4298 C 0.18719 0.36555 0.86434
 C4299 C 0.20233 0.37212 0.85186
 C4300 C 0.21961 0.38007 0.85967
 C4301 C 0.24068 0.38988 0.88837
 N4302 N 0.25537 0.39597 0.87625
 N4303 N 0.27205 0.40324 0.88355
 C4304 C 0.27479 0.40473 0.90331
 N4305 N 0.26008 0.39867 0.91545
 N4306 N 0.24339 0.39140 0.90814
 C4307 C 0.29346 0.41270 0.91136
 C4308 C 0.29635 0.41439 0.93181
 C4309 C 0.31405 0.42178 0.93932
 C4310 C 0.32924 0.42766 0.92655
 C4311 C 0.32635 0.42599 0.90613
 C4312 C 0.30869 0.41862 0.89863
 H4313 H 0.20848 0.37610 0.90849
 H4314 H 0.17822 0.36233 0.89478
 H4315 H 0.20096 0.37081 0.83603
 H4316 H 0.23100 0.38488 0.84960
 H4317 H 0.28493 0.41002 0.94205
 H4318 H 0.31577 0.42307 0.95512
 H4319 H 0.33790 0.43011 0.89592
 H4320 H 0.30704 0.41746 0.88281
   
