data_POSCAR
  _audit_creation_date              2014-09-24
  _audit_creation_method            'ToBaCCo'
  _symmetry_space_group_name_H-M    'P1'
  _symmetry_Int_Tables_number       1
  _symmetry_cell_setting            triclinic
  loop_
  _symmetry_equiv_pos_as_xyz
 x,y,z
_cell_length_a 48.7738
_cell_length_b 49.1064
_cell_length_c 48.7176
_cell_angle_alpha 89.090800
_cell_angle_beta 88.421100
_cell_angle_gamma 89.085300
loop_
  _atom_site_label
  _atom_site_type_symbol
  _atom_site_fract_x
  _atom_site_fract_y
  _atom_site_fract_z
Si1 Si 0.73726 0.61310 1.00751
 Si2 Si 0.75978 0.37871 0.51109
 Si3 Si 0.24191 -0.12352 0.00118
 Si4 Si 0.25388 0.11170 0.50313
 Si5 Si 0.11329 0.50690 0.24191
 Si6 Si -0.10989 0.00588 0.25405
 Si7 Si 0.38185 0.49510 0.73288
 Si8 Si 0.62134 0.99746 0.76125
 Si9 Si 0.00707 0.24842 -0.10979
 Si10 Si 0.50042 0.26337 0.12232
 Si11 Si 1.00169 0.74729 0.61930
 Si12 Si 0.50644 0.76019 0.37719
 C13 C 0.41530 -0.02175 0.27472
 H14 H 0.41333 -0.00302 0.28605
 C15 C 0.43001 -0.04386 0.28564
 H16 H 0.43917 -0.04184 0.30547
 C17 C 0.40364 -0.04766 0.23627
 H18 H 0.39276 -0.04944 0.21743
 C19 C 0.41847 -0.07009 0.24619
 H20 H 0.41932 -0.08854 0.23433
 N21 N 0.40208 -0.02417 0.25069
 C22 C 0.38128 0.05397 0.21283
 H23 H 0.35958 0.05064 0.21067
 C24 C 0.39300 0.07770 0.20219
 H25 H 0.38011 0.09265 0.19198
 C26 C 0.42418 0.03863 0.22943
 H27 H 0.43615 0.02326 0.24005
 C28 C 0.43676 0.06230 0.21925
 H29 H 0.45851 0.06496 0.22193
 Zn30 Zn 0.37783 0.00433 0.23996
 N31 N 0.39686 0.03509 0.22621
 C32 C 0.35728 0.04071 0.27986
 N33 N 0.35662 0.01445 0.27148
 C34 C 0.34306 -0.00488 0.28661
 C35 C 0.32942 0.00200 0.31126
 C36 C 0.34391 0.04844 0.30420
 C37 C 0.36834 -0.01099 0.18653
 C38 C 0.35380 -0.01997 0.16427
 C39 C 0.31284 -0.02097 0.19330
 C40 C 0.32823 -0.01192 0.21509
 N41 N 0.35557 -0.00756 0.21142
 H42 H 0.36874 0.05567 0.26807
 H43 H 0.34329 -0.02574 0.27977
 H44 H 0.31870 -0.01359 0.32307
 H45 H 0.34525 0.06935 0.31071
 H46 H 0.39005 -0.00707 0.18413
 H47 H 0.36465 -0.02337 0.14491
 H48 H 0.29112 -0.02445 0.19656
 H49 H 0.31837 -0.00855 0.23490
 C50 C 0.42106 0.08216 0.20539
 C51 C 0.43132 -0.06867 0.27158
 C52 C 0.32569 -0.02529 0.16750
 C53 C 0.32980 0.02901 0.32033
 C54 C 0.07127 1.02538 0.78324
 H55 H 0.06888 1.00620 0.79421
 C56 C 0.05842 1.04896 0.79337
 H57 H 0.04620 1.04771 0.81223
 C58 C 0.09213 1.05063 0.74669
 H59 H 0.10599 1.05148 0.72906
 C60 C 0.07958 1.07461 0.75599
 H61 H 0.08347 1.09350 0.74491
 N62 N 0.08817 1.02672 0.76059
 C63 C 0.10411 0.94522 0.72996
 H64 H 0.12626 0.94602 0.73013
 C65 C 0.09150 0.92311 0.71844
 H66 H 0.10405 0.90675 0.70988
 C67 C 0.06091 0.96605 0.74028
 H68 H 0.04922 0.98318 0.74832
 C69 C 0.04735 0.94395 0.72922
 H70 H 0.02516 0.94406 0.72879
 Zn71 Zn 0.10995 0.99573 0.75150
 N72 N 0.08883 0.96625 0.74024
 C73 C 0.12345 0.96147 0.79614
 N74 N 0.12944 0.98549 0.78320
 C75 C 0.14762 1.00301 0.79377
 C76 C 0.16122 0.99621 0.81789
 C77 C 0.13605 0.95421 0.82059
 C78 C 0.12183 1.00902 0.69702
 C79 C 0.13761 1.01538 0.67357
 C80 C 0.17836 1.01045 0.70041
 C81 C 0.16176 1.00397 0.72337
 N82 N 0.13399 1.00398 0.72140
 H83 H 0.10841 0.94817 0.78788
 H84 H 0.15141 1.02234 0.78352
 H85 H 0.17572 1.01019 0.82613
 H86 H 0.13093 0.93514 0.83083
 H87 H 0.09972 1.00844 0.69594
 H88 H 0.12744 1.02016 0.65457
 H89 H 0.20042 1.01071 0.70235
 H90 H 0.17115 0.99901 0.74266
 C91 C 0.06283 0.92246 0.71764
 C92 C 0.06312 1.07415 0.78010
 C93 C 0.16625 1.01647 0.67516
 C94 C 0.15519 0.97165 0.83162
 C95 C 0.57419 0.52897 0.29428
 H96 H 0.56971 0.51084 0.30638
 C97 C 0.56108 0.55367 0.30080
 H98 H 0.54690 0.55434 0.31826
 C99 C 0.59934 0.55031 0.25790
 H100 H 0.61459 0.54918 0.24145
 C101 C 0.58646 0.57524 0.26342
 H102 H 0.59170 0.59280 0.25074
 N103 N 0.59368 0.52794 0.27376
 C104 C 0.60562 0.44055 0.26015
 H105 H 0.62722 0.43838 0.26398
 C106 C 0.59123 0.41804 0.25161
 H107 H 0.60205 0.39879 0.24897
 C108 C 0.56596 0.46873 0.25659
 H109 H 0.55645 0.48873 0.25764
 C110 C 0.55082 0.44675 0.24769
 H111 H 0.52957 0.44993 0.24244
 Zn112 Zn 0.61540 0.49586 0.26779
 N113 N 0.59302 0.46537 0.26208
 C114 C 0.66038 0.47154 0.29501
 N115 N 0.63846 0.48883 0.29818
 C116 C 0.63221 0.50012 0.32296
 C117 C 0.64729 0.49302 0.34600
 C118 C 0.67621 0.46411 0.31749
 C119 C 0.62333 0.49777 0.21134
 C120 C 0.63574 0.50503 0.18626
 C121 C 0.67575 0.51873 0.21043
 C122 C 0.66249 0.51124 0.23519
 N123 N 0.63659 0.50133 0.23516
 H124 H 0.66542 0.46321 0.27507
 H125 H 0.61517 0.51419 0.32522
 H126 H 0.64161 0.50175 0.36566
 H127 H 0.69305 0.44967 0.31476
 H128 H 0.60261 0.49026 0.21189
 H129 H 0.62457 0.50264 0.16756
 H130 H 0.69589 0.52767 0.21078
 H131 H 0.67235 0.51450 0.25445
 C132 C 0.56367 0.42114 0.24453
 C133 C 0.56776 0.57745 0.28574
 C134 C 0.66201 0.51627 0.18564
 C135 C 0.66930 0.47444 0.34351
 C136 C 0.92071 0.47166 0.79427
 H137 H 0.91897 0.49015 0.80602
 C138 C 0.93475 0.44897 0.80488
 H139 H 0.94360 0.45025 0.82494
 C140 C 0.90930 0.44706 0.75486
 H141 H 0.89883 0.44606 0.73569
 C142 C 0.92345 0.42408 0.76448
 H143 H 0.92419 0.40596 0.75209
 N144 N 0.90794 0.47017 0.76989
 C145 C 0.89045 0.55066 0.73519
 H146 H 0.86842 0.54895 0.73398
 C147 C 0.90330 0.57412 0.72540
 H148 H 0.89105 0.59033 0.71637
 C149 C 0.93311 0.53110 0.74789
 H150 H 0.94452 0.51419 0.75666
 C151 C 0.94691 0.55421 0.73802
 H152 H 0.96900 0.55506 0.73937
 Zn153 Zn 0.88490 0.49959 0.75902
 N154 N 0.90533 0.52992 0.74647
 C155 C 0.86379 0.53579 0.79896
 N156 N 0.86272 0.50976 0.78997
 C157 C 0.84749 0.49074 0.80383
 C158 C 0.83211 0.49785 0.82742
 C159 C 0.84861 0.54380 0.82215
 C160 C 0.87715 0.48647 0.70473
 C161 C 0.86349 0.47815 0.68163
 C162 C 0.82163 0.47575 0.70919
 C163 C 0.83613 0.48426 0.73184
 N164 N 0.86350 0.48896 0.72929
 H165 H 0.87672 0.55045 0.78846
 H166 H 0.84747 0.47000 0.79667
 H167 H 0.81991 0.48261 0.83814
 H168 H 0.84991 0.56460 0.82898
 H169 H 0.89887 0.49054 0.70324
 H170 H 0.87500 0.47552 0.66250
 H171 H 0.79990 0.47185 0.71156
 H172 H 0.82555 0.48682 0.75142
 C173 C 0.93187 0.57617 0.72682
 C174 C 0.93586 0.42454 0.79015
 C175 C 0.83541 0.47242 0.68370
 C176 C 0.83243 0.52479 0.83665
 C177 C 0.28061 0.42578 -0.03916
 H178 H 0.29160 0.42886 -0.02049
 C179 C 0.28915 0.43884 -0.06356
 H180 H 0.30689 0.45179 -0.06344
 C181 C 0.24548 0.40341 -0.06222
 H182 H 0.22898 0.38900 -0.06188
 C183 C 0.25316 0.41619 -0.08698
 H184 H 0.24194 0.41189 -0.10524
 N185 N 0.25943 0.40811 -0.03901
 C186 C 0.23549 0.39615 0.04706
 H187 H 0.23930 0.37441 0.04847
 C188 C 0.22593 0.41022 0.07006
 H189 H 0.22225 0.39922 0.08923
 C190 C 0.23501 0.43674 0.02001
 H191 H 0.23839 0.44681 0.00034
 C192 C 0.22478 0.45158 0.04248
 H193 H 0.22044 0.47317 0.04012
 Zn194 Zn 0.25222 0.38736 -0.00659
 N195 N 0.24015 0.40953 0.02278
 C196 C 0.29888 0.37871 0.02496
 N197 N 0.28550 0.36937 0.00293
 C198 C 0.29661 0.34914 -0.01284
 C199 C 0.32146 0.33655 -0.00576
 C200 C 0.32389 0.36714 0.03240
 C201 C 0.19846 0.37508 -0.01621
 C202 C 0.17557 0.35953 -0.02134
 C203 C 0.20390 0.31891 -0.01750
 C204 C 0.22629 0.33530 -0.01211
 N205 N 0.22331 0.36291 -0.01227
 H206 H 0.29048 0.39557 0.03657
 H207 H 0.28622 0.34280 -0.03095
 H208 H 0.32998 0.32025 -0.01823
 H209 H 0.33409 0.37474 0.05013
 H210 H 0.19659 0.39705 -0.01587
 H211 H 0.15620 0.36972 -0.02532
 H212 H 0.20662 0.29699 -0.01784
 H213 H 0.24593 0.32590 -0.00805
 C214 C 0.22033 0.43822 0.06787
 C215 C 0.27572 0.43366 -0.08807
 C216 C 0.17820 0.33108 -0.02243
 C217 C 0.33537 0.34569 0.01709
 C218 C 0.78280 0.08076 1.03387
 H219 H 0.79293 0.07841 1.01399
 C220 C 0.79309 0.06705 1.05687
 H221 H 0.81124 0.05423 1.05449
 C222 C 0.74818 0.10208 1.06142
 H223 H 0.73130 0.11643 1.06345
 C224 C 0.75767 0.08872 1.08484
 H225 H 0.74743 0.09249 1.10445
 N226 N 0.76096 0.09818 1.03659
 C227 C 0.72993 0.11421 0.95475
 H228 H 0.73048 0.13622 0.95510
 C229 C 0.71981 0.10122 0.93204
 H230 H 0.71236 0.11344 0.91503
 C231 C 0.73812 0.07177 0.97717
 H232 H 0.74505 0.06049 0.99497
 C233 C 0.72799 0.05787 0.95480
 H234 H 0.72754 0.03584 0.95539
 Zn235 Zn 0.75108 0.12027 1.00605
 N236 N 0.73903 0.09945 0.97659
 C237 C 0.79471 0.13503 0.96988
 N238 N 0.78266 0.14001 0.99484
 C239 C 0.79423 0.15705 1.01282
 C240 C 0.81881 0.17008 1.00580
 C241 C 0.81932 0.14741 0.96214
 C242 C 0.69761 0.13060 1.02307
 C243 C 0.67464 0.14537 1.03224
 C244 C 0.70012 0.18684 1.02527
 C245 C 0.72284 0.17116 1.01646
 N246 N 0.72132 0.14351 1.01616
 H247 H 0.78568 0.12088 0.95614
 H248 H 0.78460 0.16014 1.03282
 H249 H 0.82796 0.18331 1.02045
 H250 H 0.82857 0.14316 0.94217
 H251 H 0.69685 0.10863 1.02210
 H252 H 0.65613 0.13466 1.03824
 H253 H 0.70174 0.20877 1.02619
 H254 H 0.74168 0.18106 1.01023
 C255 C 0.71877 0.07268 0.93181
 C256 C 0.78085 0.07147 1.08290
 C257 C 0.67587 0.17380 1.03386
 C258 C 0.83180 0.16504 0.98026
 C259 C 0.28837 0.58504 0.51088
 H260 H 0.30029 0.58649 0.49187
 C261 C 0.29877 0.57040 0.53325
 H262 H 0.31882 0.56078 0.53118
 C263 C 0.24885 0.59790 0.53719
 H264 H 0.22981 0.60928 0.53908
 C265 C 0.25821 0.58317 0.55985
 H266 H 0.24571 0.58284 0.57855
 N267 N 0.26407 0.59885 0.51339
 C268 C 0.23468 0.62039 0.43219
 H269 H 0.23593 0.64228 0.43373
 C270 C 0.22358 0.60904 0.40908
 H271 H 0.21685 0.62242 0.39264
 C272 C 0.24183 0.57660 0.45216
 H273 H 0.24844 0.56420 0.46936
 C274 C 0.23051 0.56432 0.42941
 H275 H 0.22842 0.54241 0.42932
 Zn276 Zn 0.25396 0.62296 0.48455
 N277 N 0.24337 0.60419 0.45317
 C278 C 0.29763 0.64168 0.45084
 N279 N 0.28479 0.64476 0.47576
 C280 C 0.29535 0.66095 0.49516
 C281 C 0.31964 0.67507 0.48963
 C282 C 0.32198 0.65515 0.44459
 C283 C 0.19937 0.62915 0.49860
 C284 C 0.17523 0.64134 0.50854
 C285 C 0.19905 0.68397 0.51106
 C286 C 0.22292 0.67086 0.50105
 N287 N 0.22277 0.64372 0.49583
 H288 H 0.28954 0.62808 0.43599
 H289 H 0.28524 0.66239 0.51513
 H290 H 0.32803 0.68759 0.50535
 H291 H 0.33192 0.65233 0.42466
 H292 H 0.19973 0.60771 0.49380
 H293 H 0.15699 0.62918 0.51115
 H294 H 0.19963 0.70533 0.51618
 H295 H 0.24157 0.68223 0.49809
 C296 C 0.22072 0.58069 0.40771
 C297 C 0.28387 0.56979 0.55840
 C298 C 0.17501 0.66893 0.51553
 C299 C 0.33342 0.67189 0.46418
 C300 C 0.79125 0.91760 0.47838
 H301 H 0.80320 0.91339 0.49639
 C302 C 0.80295 0.93189 0.45603
 H303 H 0.82395 0.93852 0.45710
 C304 C 0.75025 0.91203 0.45431
 H305 H 0.73001 0.90377 0.45319
 C306 C 0.76095 0.92649 0.43175
 H307 H 0.74836 0.92965 0.41399
 N308 N 0.76548 0.90762 0.47698
 C309 C 0.72013 0.89196 0.55247
 H310 H 0.71061 0.87354 0.54587
 C311 C 0.71151 0.90356 0.57715
 H312 H 0.69471 0.89436 0.58873
 C313 C 0.75369 0.92589 0.54537
 H314 H 0.77042 0.93418 0.53304
 C315 C 0.74585 0.93809 0.57023
 H316 H 0.75670 0.95578 0.57686
 Zn317 Zn 0.75240 0.88387 0.50541
 N318 N 0.74077 0.90322 0.53705
 C319 C 0.78759 0.85743 0.54214
 N320 N 0.78133 0.85979 0.51517
 C321 C 0.79664 0.84683 0.49544
 C322 C 0.81959 0.83103 0.50259
 C323 C 0.81019 0.84186 0.55016
 C324 C 0.69837 0.87947 0.48967
 C325 C 0.67517 0.86746 0.47951
 C326 C 0.70017 0.82463 0.47726
 C327 C 0.72308 0.83757 0.48742
 N328 N 0.72188 0.86466 0.49288
 H329 H 0.77537 0.86804 0.55752
 H330 H 0.79137 0.84926 0.47411
 H331 H 0.83168 0.82097 0.48666
 H332 H 0.81516 0.84095 0.57168
 H333 H 0.69785 0.90087 0.49464
 H334 H 0.65676 0.87972 0.47680
 H335 H 0.70158 0.80325 0.47223
 H336 H 0.74188 0.82611 0.49047
 C337 C 0.72461 0.92672 0.58660
 C338 C 0.78791 0.93604 0.43205
 C339 C 0.67600 0.83980 0.47275
 C340 C 0.82668 0.82855 0.53030
 C341 C -0.01710 0.28700 0.41396
 H342 H 0.00120 0.29907 0.41145
 C343 C -0.03972 0.29713 0.42903
 H344 H -0.03859 0.31716 0.43785
 C345 C -0.04126 0.24715 0.40364
 H346 H -0.04209 0.22795 0.39325
 C347 C -0.06417 0.25629 0.41884
 H348 H -0.08205 0.24354 0.42044
 N349 N -0.01838 0.26259 0.40132
 C350 C 0.06258 0.22845 0.38262
 H351 H 0.06085 0.22684 0.36061
 C352 C 0.08538 0.21736 0.39550
 H353 H 0.10135 0.20746 0.38321
 C354 C 0.04344 0.24296 0.42531
 H355 H 0.02674 0.25254 0.43679
 C356 C 0.06608 0.23218 0.43910
 H357 H 0.06663 0.23342 0.46125
 Zn358 Zn 0.01122 0.25202 0.37764
 N359 N 0.04212 0.24075 0.39758
 C360 C 0.04639 0.29138 0.35353
 N361 N 0.02021 0.28221 0.35465
 C362 C -0.00003 0.29520 0.34063
 C363 C 0.00580 0.31832 0.32451
 C364 C 0.05314 0.31420 0.33754
 C365 C -0.00101 0.19757 0.37020
 C366 C -0.00826 0.17428 0.35629
 C367 C -0.01000 0.20117 0.31438
 C368 C -0.00257 0.22397 0.32911
 N369 N 0.00126 0.22186 0.35661
 H370 H 0.06207 0.28129 0.36533
 H371 H -0.02077 0.28773 0.34222
 H372 H -0.01051 0.32844 0.31345
 H373 H 0.07402 0.32140 0.33728
 H374 H 0.00253 0.19641 0.39201
 H375 H -0.01077 0.15533 0.36768
 H376 H -0.01324 0.20321 0.29254
 H377 H -0.00005 0.24332 0.31857
 C378 C 0.08715 0.21877 0.42413
 C379 C -0.06388 0.28188 0.43134
 C380 C -0.01314 0.17595 0.32805
 C381 C 0.03273 0.32802 0.32281
 C382 C 1.01254 0.78068 0.07007
 H383 H 0.99298 0.79086 0.06714
 C384 C 1.03608 0.79028 0.05630
 H385 H 1.03431 0.80754 0.04232
 C386 C 1.03877 0.74668 0.09288
 H387 H 1.04007 0.73046 0.10801
 C388 C 1.06277 0.75565 0.07967
 H389 H 1.08211 0.74603 0.08485
 N390 N 1.01434 0.75945 0.08822
 C391 C 0.93148 0.73121 0.10707
 H392 H 0.93305 0.73082 0.12918
 C393 C 0.90771 0.72227 0.09516
 H394 H 0.89121 0.71469 0.10834
 C395 C 0.95183 0.74055 0.06326
 H396 H 0.96925 0.74743 0.05099
 C397 C 0.92828 0.73170 0.05039
 H398 H 0.92763 0.73217 0.02820
 Zn399 Zn 0.98356 0.75087 0.11109
 N400 N 0.95283 0.74034 0.09116
 C401 C 0.94929 0.79398 0.13042
 N402 N 0.97468 0.78227 0.13183
 C403 C 0.99458 0.79351 0.14685
 C404 C 0.98911 0.81723 0.16168
 C405 C 0.94290 0.81754 0.14503
 C406 C 0.99788 0.69703 0.12145
 C407 C 1.00571 0.67399 0.13653
 C408 C 1.00108 0.70028 0.17796
 C409 C 0.99343 0.72293 0.16200
 N410 N 0.99251 0.72099 0.13423
 H411 H 0.93399 0.78531 0.11772
 H412 H 1.01475 0.78404 0.14724
 H413 H 1.00506 0.82575 0.17380
 H414 H 0.92263 0.82665 0.14348
 H415 H 0.99673 0.69606 0.09934
 H416 H 1.01100 0.65547 0.12571
 H417 H 1.00191 0.70219 0.20003
 H418 H 0.98846 0.74203 0.17181
 C419 C 0.90575 0.72253 0.06646
 C420 C 1.06176 0.77814 0.06157
 C421 C 1.00769 0.67546 0.16517
 C422 C 0.96290 0.82943 0.16099
 C423 C 0.53126 0.27536 0.57412
 H424 H 0.51146 0.28560 0.57402
 C425 C 0.55383 0.28727 0.56068
 H426 H 0.55115 0.30650 0.54983
 C427 C 0.55914 0.23865 0.58981
 H428 H 0.56134 0.22021 0.60199
 C429 C 0.58221 0.24975 0.57653
 H430 H 0.60196 0.23966 0.57867
 N431 N 0.53442 0.25180 0.58881
 C432 C 0.45587 0.21415 0.60738
 H433 H 0.45856 0.21112 0.62919
 C434 C 0.43238 0.20476 0.59530
 H435 H 0.41731 0.19408 0.60796
 C436 C 0.47269 0.23142 0.56456
 H437 H 0.48848 0.24193 0.55277
 C438 C 0.44933 0.22232 0.55154
 H439 H 0.44721 0.22606 0.52973
 Zn440 Zn 0.50504 0.24036 0.61207
 N441 N 0.47524 0.22755 0.59210
 C442 C 0.46614 0.27807 0.63362
 N443 N 0.49317 0.27082 0.63302
 C444 C 0.51200 0.28601 0.64577
 C445 C 0.50380 0.30948 0.65994
 C446 C 0.45706 0.30110 0.64772
 C447 C 0.51951 0.18642 0.62378
 C448 C 0.52695 0.16380 0.63976
 C449 C 0.52925 0.19309 0.67901
 C450 C 0.52129 0.21511 0.66236
 N451 N 0.51678 0.21142 0.63524
 H452 H 0.45151 0.26630 0.62283
 H453 H 0.53346 0.28008 0.64458
 H454 H 0.51899 0.32141 0.66995
 H455 H 0.43549 0.30669 0.64759
 H456 H 0.51567 0.18406 0.60219
 H457 H 0.52914 0.14405 0.63029
 H458 H 0.53286 0.19626 0.70055
 H459 H 0.51871 0.23508 0.67114
 C460 C 0.42861 0.20914 0.56710
 C461 C 0.57986 0.27478 0.56240
 C462 C 0.53199 0.16704 0.66771
 C463 C 0.47595 0.31717 0.66108
 C464 C 0.46403 0.77590 0.90773
 H465 H 0.48374 0.78549 0.90922
 C466 C 0.44090 0.78714 0.92118
 H467 H 0.44298 0.80545 0.93300
 C468 C 0.43709 0.74132 0.88918
 H469 H 0.43549 0.72376 0.87629
 C470 C 0.41351 0.75187 0.90219
 H471 H 0.39412 0.74194 0.89954
 N472 N 0.46170 0.75348 0.89197
 C473 C 0.54099 0.71303 0.87970
 H474 H 0.54012 0.71084 0.85768
 C475 C 0.56287 0.70159 0.89381
 H476 H 0.57891 0.69081 0.88243
 C477 C 0.52112 0.73013 0.92104
 H478 H 0.50463 0.74106 0.93151
 C479 C 0.54284 0.71906 0.93604
 H480 H 0.54287 0.72145 0.95809
 Zn481 Zn 0.49242 0.74072 0.87092
 N482 N 0.52075 0.72705 0.89334
 C483 C 0.53275 0.77717 0.85161
 N484 N 0.50605 0.77025 0.84917
 C485 C 0.48879 0.78554 0.83347
 C486 C 0.49827 0.80897 0.81967
 C487 C 0.54308 0.80011 0.83802
 C488 C 0.47819 0.68734 0.86359
 C489 C 0.47049 0.66394 0.85022
 C490 C 0.46985 0.68979 0.80764
 C491 C 0.47801 0.71276 0.82186
 N492 N 0.48169 0.71114 0.84941
 H493 H 0.54605 0.76542 0.86474
 H494 H 0.46751 0.77993 0.83225
 H495 H 0.48427 0.82114 0.80751
 H496 H 0.56424 0.80553 0.84088
 H497 H 0.48150 0.68658 0.88546
 H498 H 0.46840 0.64520 0.86203
 H499 H 0.46626 0.69164 0.78586
 H500 H 0.48107 0.73186 0.81096
 C501 C 0.56397 0.70444 0.92235
 C502 C 0.41512 0.77532 0.91812
 C503 C 0.46583 0.66493 0.82190
 C504 C 0.52578 0.81651 0.82197
 C505 C 0.47725 -0.16401 0.32599
 C506 C 0.48171 -0.18913 0.31299
 C507 C 0.49068 -0.21197 0.32799
 C508 C 0.49479 -0.21009 0.35624
 C509 C 0.49046 -0.18505 0.36920
 C510 C 0.48190 -0.16217 0.35420
 C511 C 0.46687 -0.13994 0.31053
 C512 C 0.47850 -0.11424 0.31377
 C513 C 0.46752 -0.09122 0.30055
 C514 C 0.44443 -0.09335 0.28407
 C515 C 0.43314 -0.11925 0.28056
 C516 C 0.44435 -0.14228 0.29349
 H517 H 0.49423 -0.23100 0.31750
 H518 H 0.49363 -0.18322 0.39101
 H519 H 0.47707 -0.07175 0.30333
 H520 H 0.41502 -0.12169 0.26856
 H521 H 0.47833 -0.14315 0.36477
 H522 H 0.49608 -0.11197 0.32660
 H523 H 0.47843 -0.19099 0.29121
 H524 H 0.43478 -0.16180 0.29097
 C525 C 0.98005 0.32679 0.84172
 C526 C 0.98463 0.32744 0.87002
 C527 C 0.99269 0.30384 0.88417
 C528 C 0.99653 0.27925 0.87027
 C529 C 0.99261 0.27858 0.84191
 C530 C 0.98417 0.30214 0.82776
 C531 C 0.97002 0.35156 0.82715
 C532 C 0.94762 0.35013 0.80982
 C533 C 0.93682 0.37372 0.79759
 C534 C 0.94840 0.39931 0.80211
 C535 C 0.97131 0.40056 0.81895
 C536 C 0.98189 0.37696 0.83147
 H537 H 0.99574 0.30476 0.90607
 H538 H 0.99585 0.25994 0.83068
 H539 H 0.91881 0.37195 0.78529
 H540 H 0.98107 0.41977 0.82252
 H541 H 0.98098 0.30118 0.80588
 H542 H 0.93785 0.33085 0.80648
 H543 H 0.98134 0.34608 0.88132
 H544 H 0.99937 0.37854 0.84455
 C545 C 0.02934 1.17254 0.83651
 C546 C 0.00273 1.18400 0.83640
 C547 C -0.00378 1.20698 0.85212
 C548 C 0.01618 1.21884 0.86810
 C549 C 0.04256 1.20714 0.86856
 C550 C 0.04911 1.18435 0.85284
 C551 C 0.03668 1.14810 0.82015
 C552 C 0.06223 1.14642 0.80622
 C553 C 0.07037 1.12270 0.79269
 C554 C 0.05314 1.10002 0.79263
 C555 C 0.02722 1.10193 0.80590
 C556 C 0.01902 1.12578 0.81945
 H557 H -0.02443 1.21541 0.85192
 H558 H 0.05815 1.21517 0.88137
 H559 H 0.09063 1.12183 0.78304
 H560 H 0.01340 1.08489 0.80604
 H561 H 0.06958 1.17559 0.85392
 H562 H 0.07615 1.16339 0.80612
 H563 H -0.01293 1.17533 0.82403
 H564 H -0.00073 1.12644 0.83014
 C565 C 0.53161 0.68172 0.32879
 C566 C 0.55096 0.69567 0.34390
 C567 C 0.54366 0.71956 0.35754
 C568 C 0.51688 0.73014 0.35633
 C569 C 0.49744 0.71644 0.34124
 C570 C 0.50474 0.69244 0.32751
 C571 C 0.53954 0.65567 0.31539
 C572 C 0.52188 0.63329 0.31638
 C573 C 0.53062 0.60805 0.30606
 C574 C 0.55720 0.60466 0.29454
 C575 C 0.57445 0.62734 0.29281
 C576 C 0.56568 0.65250 0.30294
 H577 H 0.55894 0.72920 0.36958
 H578 H 0.47651 0.72406 0.34047
 H579 H 0.51668 0.59111 0.30743
 H580 H 0.59519 0.62551 0.28448
 H581 H 0.48939 0.68223 0.31597
 H582 H 0.50166 0.63502 0.32600
 H583 H 0.57164 0.68766 0.34590
 H584 H 0.57964 0.66943 0.30146
 C585 C 0.52311 0.33256 0.18189
 C586 C 0.50995 0.30919 0.19239
 C587 C 0.50323 0.28812 0.17484
 C588 C 0.50987 0.29011 0.14671
 C589 C 0.52355 0.31308 0.13635
 C590 C 0.52997 0.33419 0.15373
 C591 C 0.53024 0.35518 0.20002
 C592 C 0.52562 0.38230 0.19156
 C593 C 0.53516 0.40378 0.20691
 C594 C 0.54970 0.39858 0.23098
 C595 C 0.55321 0.37147 0.24014
 C596 C 0.54343 0.34996 0.22487
 H597 H 0.49263 0.27053 0.18320
 H598 H 0.52895 0.31485 0.11469
 H599 H 0.53240 0.42441 0.19917
 H600 H 0.56420 0.36691 0.25871
 H601 H 0.54056 0.35173 0.14518
 H602 H 0.51522 0.38687 0.17263
 H603 H 0.50444 0.30747 0.21402
 H604 H 0.54731 0.32922 0.23179
 C605 C 0.02370 0.82644 0.66562
 C606 C 0.04400 0.81135 0.65123
 C607 C 0.03751 0.78742 0.63807
 C608 C 0.01067 0.77770 0.63935
 C609 C -0.00961 0.79220 0.65427
 C610 C -0.00316 0.81640 0.66738
 C611 C 0.03091 0.85270 0.67813
 C612 C 0.02066 0.86007 0.70432
 C613 C 0.02998 0.88358 0.71688
 C614 C 0.04979 0.89986 0.70349
 C615 C 0.05892 0.89323 0.67685
 C616 C 0.04946 0.87007 0.66424
 H617 H 0.05360 0.77692 0.62659
 H618 H -0.03054 0.78513 0.65522
 H619 H 0.02273 0.88835 0.73749
 H620 H 0.07387 0.90577 0.66598
 H621 H -0.01929 0.82762 0.67819
 H622 H 0.00638 0.84710 0.71554
 H623 H 0.06502 0.81813 0.64999
 H624 H 0.05712 0.86546 0.64374
 C625 C 0.97741 0.67158 0.67345
 C626 C 0.98003 0.69712 0.68573
 C627 C 0.98755 0.71996 0.66984
 C628 C 0.99214 0.71760 0.64146
 C629 C 0.98986 0.69212 0.62925
 C630 C 0.98262 0.66932 0.64507
 C631 C 0.96790 0.64756 0.68966
 C632 C 0.97994 0.62171 0.68536
 C633 C 0.96898 0.59858 0.69838
 C634 C 0.94563 0.60086 0.71574
 C635 C 0.93430 0.62683 0.72091
 C636 C 0.94538 0.64996 0.70808
 H637 H 0.98952 0.73937 0.67972
 H638 H 0.99343 0.68992 0.60735
 H639 H 0.97805 0.57881 0.69395
 H640 H 0.91646 0.62918 0.73445
 H641 H 0.98037 0.65002 0.63497
 H642 H 0.99751 0.61933 0.67147
 H643 H 0.97631 0.69938 0.70759
 H644 H 0.93558 0.66958 0.71165
 C645 C 0.46489 0.18426 0.16390
 C646 C 0.44792 0.20199 0.14873
 C647 C 0.45823 0.22608 0.13720
 C648 C 0.48571 0.23298 0.14055
 C649 C 0.50231 0.21603 0.15678
 C650 C 0.49208 0.19183 0.16823
 C651 C 0.45439 0.15772 0.17445
 C652 C 0.46180 0.14735 0.20034
 C653 C 0.45152 0.12249 0.21019
 C654 C 0.43351 0.10759 0.19441
 C655 C 0.42650 0.11771 0.16836
 C656 C 0.43686 0.14242 0.15848
 H657 H 0.44464 0.23909 0.12549
 H658 H 0.52339 0.22104 0.16022
 H659 H 0.45702 0.11529 0.23046
 H660 H 0.41303 0.10643 0.15556
 H661 H 0.50572 0.17867 0.17977
 H662 H 0.47506 0.15874 0.21326
 H663 H 0.42665 0.19718 0.14566
 H664 H 0.43129 0.14945 0.13818
 C665 C 0.32746 0.47049 -0.19018
 C666 C 0.34425 0.45111 -0.20368
 C667 C 0.35992 0.45834 -0.22694
 C668 C 0.35905 0.48507 -0.23742
 C669 C 0.34241 0.50458 -0.22405
 C670 C 0.32668 0.49737 -0.20062
 C671 C 0.31172 0.46252 -0.16483
 C672 C 0.31052 0.47948 -0.14183
 C673 C 0.29810 0.47055 -0.11710
 C674 C 0.28658 0.44449 -0.11487
 C675 C 0.28693 0.42801 -0.13823
 C676 C 0.29924 0.43694 -0.16288
 H677 H 0.37311 0.44297 -0.23621
 H678 H 0.34185 0.52546 -0.23153
 H679 H 0.29788 0.48389 -0.09962
 H680 H 0.27861 0.40770 -0.13725
 H681 H 0.31393 0.51276 -0.19069
 H682 H 0.32008 0.49923 -0.14264
 H683 H 0.34590 0.43042 -0.19579
 H684 H 0.29946 0.42355 -0.18033
 C685 C 0.84108 0.98082 0.33397
 C686 C 0.82699 0.98632 0.30963
 C687 C 0.84130 0.99433 0.28563
 C688 C 0.86990 0.99653 0.28558
 C689 C 0.88392 0.99156 0.30992
 C690 C 0.86966 0.98383 0.33394
 C691 C 0.82634 0.97070 0.35901
 C692 C 0.80712 0.94991 0.35715
 C693 C 0.79455 0.93892 0.38080
 C694 C 0.80064 0.94868 0.40693
 C695 C 0.81952 0.96988 0.40873
 C696 C 0.83231 0.98070 0.38501
 H697 H 0.83002 0.99849 0.26720
 H698 H 0.90602 0.99328 0.31026
 H699 H 0.78063 0.92220 0.37861
 H700 H 0.82440 0.97814 0.42844
 H701 H 0.88107 0.97945 0.35229
 H702 H 0.80251 0.94149 0.33742
 H703 H 0.80492 0.98440 0.30921
 H704 H 0.84690 0.99691 0.38698
 C705 C 0.83715 0.03223 1.17915
 C706 C 0.83513 0.00577 1.19042
 C707 C 0.85067 -0.00200 1.21310
 C708 C 0.86839 0.01653 1.22479
 C709 C 0.87080 0.04270 1.21318
 C710 C 0.85525 0.05051 1.19073
 C711 C 0.82084 0.04105 1.15525
 C712 C 0.80870 0.06716 1.15465
 C713 C 0.79525 0.07665 1.13141
 C714 C 0.79351 0.06024 1.10816
 C715 C 0.80504 0.03381 1.10897
 C716 C 0.81849 0.02425 1.13236
 H717 H 0.84896 -0.02250 1.22145
 H718 H 0.88494 0.05718 1.22102
 H719 H 0.78697 0.09723 1.13137
 H720 H 0.80384 0.02063 1.09145
 H721 H 0.85779 0.07079 1.18206
 H722 H 0.80992 0.08044 1.17209
 H723 H 0.82138 -0.00875 1.18188
 H724 H 0.82780 0.00409 1.13222
 C725 C 0.33467 0.52404 0.65522
 C726 C 0.32033 0.52036 0.68041
 C727 C 0.33414 0.51144 0.70377
 C728 C 0.36252 0.50659 0.70234
 C729 C 0.37681 0.51003 0.67720
 C730 C 0.36300 0.51856 0.65380
 C731 C 0.32042 0.53456 0.63069
 C732 C 0.32506 0.52260 0.60495
 C733 C 0.31271 0.53354 0.58157
 C734 C 0.29571 0.55690 0.58340
 C735 C 0.29094 0.56863 0.60933
 C736 C 0.30299 0.55747 0.63270
 H737 H 0.32262 0.50855 0.72283
 H738 H 0.39874 0.50624 0.67571
 H739 H 0.31650 0.52370 0.56208
 H740 H 0.27856 0.58698 0.61153
 H741 H 0.37457 0.52149 0.63471
 H742 H 0.33825 0.50475 0.60294
 H743 H 0.29843 0.52426 0.68195
 H744 H 0.29943 0.56732 0.65224
 C745 C 0.16256 0.53553 0.31711
 C746 C 0.13385 0.53829 0.31662
 C747 C 0.11947 0.52942 0.29420
 C748 C 0.13331 0.51704 0.27201
 C749 C 0.16194 0.51400 0.27241
 C750 C 0.17646 0.52308 0.29483
 C751 C 0.17781 0.54678 0.34025
 C752 C 0.20076 0.53301 0.35097
 C753 C 0.21478 0.54388 0.37290
 C754 C 0.20616 0.56874 0.38447
 C755 C 0.18317 0.58236 0.37373
 C756 C 0.16932 0.57164 0.35184
 H757 H 0.09754 0.53296 0.29398
 H758 H 0.17325 0.50509 0.25533
 H759 H 0.23251 0.53297 0.38061
 H760 H 0.17563 0.60129 0.38242
 H761 H 0.19860 0.52107 0.29436
 H762 H 0.20768 0.51371 0.34262
 H763 H 0.12244 0.54754 0.33351
 H764 H 0.15203 0.58302 0.34383
 C765 C 0.66846 0.02472 0.83820
 C766 C 0.64030 0.01899 0.84015
 C767 C 0.62644 0.01049 0.81714
 C768 C 0.64045 0.00758 0.79185
 C769 C 0.66859 0.01279 0.78988
 C770 C 0.68250 0.02126 0.81286
 C771 C 0.68278 0.03554 0.86214
 C772 C 0.70149 0.05684 0.85849
 C773 C 0.71371 0.06831 0.88105
 C774 C 0.70751 0.05881 0.90783
 C775 C 0.68943 0.03697 0.91148
 C776 C 0.67714 0.02549 0.88887
 H777 H 0.60467 0.00660 0.81898
 H778 H 0.67983 0.01076 0.77055
 H779 H 0.72783 0.08489 0.87756
 H780 H 0.68413 0.02933 0.93188
 H781 H 0.70424 0.02520 0.81078
 H782 H 0.70608 0.06523 0.83823
 H783 H 0.62881 0.02183 0.85925
 H784 H 0.66305 0.00888 0.89230
 C785 C 0.67949 0.97176 0.68755
 C786 C 0.66217 0.99480 0.68523
 C787 C 0.64588 1.00337 0.70757
 C788 C 0.64598 0.98871 0.73252
 C789 C 0.66436 0.96671 0.73542
 C790 C 0.68104 0.95837 0.71323
 C791 C 0.69409 0.96056 0.66287
 C792 C 0.69665 0.93224 0.65964
 C793 C 0.70763 0.92141 0.63538
 C794 C 0.71594 0.93857 0.61342
 C795 C 0.71451 0.96690 0.61698
 C796 C 0.70380 0.97778 0.64148
 H797 H 0.63289 1.02115 0.70489
 H798 H 0.66570 0.95566 0.75469
 H799 H 0.70907 0.89948 0.63363
 H800 H 0.72073 0.98070 0.60049
 H801 H 0.69480 0.94111 0.71611
 H802 H 0.68916 0.91827 0.67543
 H803 H 0.66032 1.00566 0.66585
 H804 H 0.70266 0.99970 0.64343
 C805 C 0.16792 0.48404 0.16473
 C806 C 0.16958 0.46881 0.18939
 C807 C 0.15407 0.47637 0.21266
 C808 C 0.13625 0.49900 0.21169
 C809 C 0.13487 0.51454 0.18736
 C810 C 0.15074 0.50732 0.16422
 C811 C 0.18286 0.47481 0.13936
 C812 C 0.17096 0.47811 0.11346
 C813 C 0.18387 0.46740 0.08995
 C814 C 0.20868 0.45280 0.09190
 C815 C 0.22106 0.45017 0.11748
 C816 C 0.20844 0.46129 0.14092
 H817 H 0.15525 0.46395 0.23117
 H818 H 0.12125 0.53203 0.18587
 H819 H 0.17382 0.46937 0.07045
 H820 H 0.24034 0.43913 0.11936
 H821 H 0.14928 0.51986 0.14583
 H822 H 0.15109 0.48795 0.11143
 H823 H 0.18211 0.45047 0.19053
 H824 H 0.21858 0.45892 0.16031
 C825 C -0.16148 0.33126 0.48102
 C826 C -0.18580 0.31700 0.48678
 C827 C -0.20945 0.33080 0.49632
 C828 C -0.20919 0.35908 0.49969
 C829 C -0.18490 0.37327 0.49426
 C830 C -0.16120 0.35949 0.48513
 C831 C -0.13671 0.31711 0.46972
 C832 C -0.13874 0.29955 0.44747
 C833 C -0.11518 0.28787 0.43530
 C834 C -0.08903 0.29317 0.44536
 C835 C -0.08717 0.31017 0.46821
 C836 C -0.11073 0.32214 0.48013
 H837 H -0.22784 0.31937 0.50080
 H838 H -0.18432 0.39512 0.49682
 H839 H -0.11748 0.27540 0.41742
 H840 H -0.06749 0.31431 0.47686
 H841 H -0.14283 0.37101 0.48057
 H842 H -0.15849 0.29566 0.43882
 H843 H -0.18645 0.29519 0.48398
 H844 H -0.10867 0.33542 0.49747
 C845 C 0.31687 0.82705 0.96411
 C846 C 0.30838 0.82309 0.99166
 C847 C 0.28544 0.83713 1.00242
 C848 C 0.27082 0.85571 0.98602
 C849 C 0.27869 0.85895 0.95826
 C850 C 0.30152 0.84485 0.94743
 C851 C 0.34181 0.81299 0.95280
 C852 C 0.34201 0.80212 0.92630
 C853 C 0.36571 0.78974 0.91523
 C854 C 0.38983 0.78797 0.93036
 C855 C 0.38962 0.79869 0.95695
 C856 C 0.36582 0.81099 0.96808
 H857 H 0.27933 0.83345 1.02359
 H858 H 0.26751 0.87253 0.94481
 H859 H 0.36530 0.78198 0.89457
 H860 H 0.40782 0.79745 0.96917
 H861 H 0.30753 0.84838 0.92613
 H862 H 0.32378 0.80313 0.91411
 H863 H 0.31942 0.80902 1.00484
 H864 H 0.36637 0.81942 0.98846
 C865 C 1.16543 0.82669 0.02928
 C866 C 1.17336 0.84954 0.04398
 C867 C 1.19734 0.86325 0.03667
 C868 C 1.21416 0.85414 0.01483
 C869 C 1.20707 0.83068 0.00079
 C870 C 1.18290 0.81697 0.00801
 C871 C 1.13849 0.81397 0.03555
 C872 C 1.13563 0.78555 0.03579
 C873 C 1.11045 0.77385 0.04323
 C874 C 1.08762 0.79033 0.05055
 C875 C 1.09031 0.81877 0.04935
 C876 C 1.11538 0.83042 0.04187
 H877 H 1.20207 0.88162 0.04744
 H878 H 1.21952 0.82374 -0.01655
 H879 H 1.10898 0.75187 0.04364
 H880 H 1.07332 0.83210 0.05517
 H881 H 1.17726 0.79956 -0.00384
 H882 H 1.15303 0.77233 0.03102
 H883 H 1.16066 0.85722 0.06081
 H884 H 1.11673 0.85241 0.04129
 C885 C 0.68065 0.32910 0.53155
 C886 C 0.69193 0.34573 0.55141
 C887 C 0.71618 0.35967 0.54571
 C888 C 0.72966 0.35723 0.52007
 C889 C 0.71861 0.34050 0.50024
 C890 C 0.69442 0.32629 0.50602
 C891 C 0.65421 0.31542 0.53746
 C892 C 0.65088 0.28781 0.53143
 C893 C 0.62644 0.27465 0.53883
 C894 C 0.60479 0.28899 0.55204
 C895 C 0.60787 0.31683 0.55717
 C896 C 0.63232 0.32987 0.55003
 H897 H 0.72381 0.37291 0.56118
 H898 H 0.72839 0.33887 0.48009
 H899 H 0.62457 0.25321 0.53452
 H900 H 0.59172 0.32834 0.56763
 H901 H 0.68601 0.31382 0.49026
 H902 H 0.66747 0.27621 0.52180
 H903 H 0.68184 0.34809 0.57133
 H904 H 0.63423 0.35126 0.55460
 C905 C 0.33094 0.16124 0.52615
 C906 C 0.32106 0.16286 0.49934
 C907 C 0.29780 0.14827 0.49245
 C908 C 0.28436 0.13175 0.51219
 C909 C 0.29479 0.12957 0.53867
 C910 C 0.31765 0.14434 0.54564
 C911 C 0.35518 0.17666 0.53429
 C912 C 0.35427 0.19083 0.55909
 C913 C 0.37788 0.20237 0.56900
 C914 C 0.40307 0.19984 0.55448
 C915 C 0.40371 0.18697 0.52886
 C916 C 0.37990 0.17551 0.51881
 H917 H 0.29035 0.14980 0.47174
 H918 H 0.28559 0.11635 0.55412
 H919 H 0.37654 0.21281 0.58842
 H920 H 0.42282 0.18465 0.51724
 H921 H 0.32525 0.14223 0.56626
 H922 H 0.33534 0.19239 0.57116
 H923 H 0.33109 0.17565 0.48392
 H924 H 0.38110 0.16459 0.49967
 C925 C 0.80919 0.67058 0.02801
 C926 C 0.80174 0.66711 0.00064
 C927 C 0.77958 0.65063 -0.00543
 C928 C 0.76491 0.63709 0.01573
 C929 C 0.77238 0.64056 0.04300
 C930 C 0.79414 0.65730 0.04909
 C931 C 0.83322 0.68697 0.03495
 C932 C 0.83134 0.70504 0.05696
 C933 C 0.85470 0.71767 0.06621
 C934 C 0.88057 0.71231 0.05383
 C935 C 0.88222 0.69542 0.03077
 C936 C 0.85871 0.68290 0.02137
 H937 H 0.77422 0.64801 -0.02664
 H938 H 0.76179 0.63012 0.05973
 H939 H 0.85262 0.73112 0.08357
 H940 H 0.90185 0.69076 0.02089
 H941 H 0.79975 0.65924 0.07032
 H942 H 0.81183 0.70887 0.06748
 H943 H 0.81303 0.67714 -0.01598
 H944 H 0.86071 0.66892 0.00444
 C945 C 0.65759 0.65608 0.97629
 C946 C 0.65809 0.62823 0.98338
 C947 C 0.68189 0.61588 0.99316
 C948 C 0.70566 0.63108 0.99608
 C949 C 0.70510 0.65907 0.99006
 C950 C 0.68120 0.67151 0.98018
 C951 C 0.63297 0.66841 0.96350
 C952 C 0.62331 0.69456 0.97062
 C953 C 0.60045 0.70612 0.95780
 C954 C 0.58704 0.69183 0.93745
 C955 C 0.59651 0.66556 0.93067
 C956 C 0.61919 0.65402 0.94350
 H957 H 0.68189 0.59428 0.99800
 H958 H 0.72319 0.67119 0.99239
 H959 H 0.59367 0.72648 0.96329
 H960 H 0.58641 0.65394 0.91529
 H961 H 0.68146 0.69298 0.97475
 H962 H 0.63341 0.70603 0.98612
 H963 H 0.64010 0.61591 0.98110
 H964 H 0.62630 0.63397 0.93731
 C965 C 0.17771 0.16329 0.47652
 C966 C 0.17564 0.13541 0.48297
 C967 C 0.19836 0.12063 0.49196
 C968 C 0.22362 0.13337 0.49464
 C969 C 0.22553 0.16148 0.48971
 C970 C 0.20267 0.17639 0.48067
 C971 C 0.15441 0.17787 0.46365
 C972 C 0.14619 0.20415 0.47181
 C973 C 0.12409 0.21749 0.45928
 C974 C 0.11018 0.20487 0.43814
 C975 C 0.11849 0.17862 0.43007
 C976 C 0.14031 0.16530 0.44266
 H977 H 0.19643 0.09897 0.49594
 H978 H 0.24475 0.17177 0.49198
 H979 H 0.11813 0.23777 0.46578
 H980 H 0.10794 0.16827 0.41408
 H981 H 0.20481 0.19786 0.47582
 H982 H 0.15668 0.21423 0.48802
 H983 H 0.15654 0.12490 0.48047
 H984 H 0.14641 0.14521 0.43569
 C985 C 0.57092 0.07218 0.72798
 C986 C 0.58497 0.07395 0.75272
 C987 C 0.59883 0.05127 0.76354
 C988 C 0.59857 0.02624 0.75012
 C989 C 0.58310 0.02390 0.72647
 C990 C 0.56962 0.04665 0.71535
 C991 C 0.55946 0.09708 0.71435
 C992 C 0.53579 0.09583 0.69856
 C993 C 0.52662 0.11866 0.68374
 C994 C 0.54064 0.14336 0.68473
 C995 C 0.56366 0.14499 0.70121
 C996 C 0.57310 0.12208 0.71569
 H997 H 0.61049 0.05372 0.78186
 H998 H 0.58286 0.00483 0.71562
 H999 H 0.50859 0.11704 0.67141
 H1000 H 0.57496 0.16375 0.70207
 H1001 H 0.55939 0.04446 0.69610
 H1002 H 0.52442 0.07715 0.69746
 H1003 H 0.58585 0.09305 0.76341
 H1004 H 0.59170 0.12377 0.72711
 C1005 C 1.05934 0.58245 0.21766
 C1006 C 1.04709 0.55693 0.22217
 C1007 C 1.06293 0.53425 0.23001
 C1008 C 1.09118 0.53678 0.23343
 C1009 C 1.10331 0.56227 0.22979
 C1010 C 1.08760 0.58487 0.22188
 C1011 C 1.04334 0.60610 0.20687
 C1012 C 1.04884 0.63268 0.21527
 C1013 C 1.03643 0.65518 0.20250
 C1014 C 1.01809 0.65161 0.18115
 C1015 C 1.01142 0.62498 0.17384
 C1016 C 1.02396 0.60249 0.18648
 H1017 H 1.05317 0.51473 0.23286
 H1018 H 1.12514 0.56454 0.23238
 H1019 H 1.04215 0.67538 0.20856
 H1020 H 0.99698 0.62151 0.15782
 H1021 H 1.09782 0.60403 0.21812
 H1022 H 1.06331 0.63614 0.23127
 H1023 H 1.02533 0.55446 0.21942
 H1024 H 1.01936 0.58233 0.17939
 C1025 C 0.93352 0.92815 0.21904
 C1026 C 0.93768 0.95366 0.20618
 C1027 C 0.92622 0.97734 0.21771
 C1028 C 0.91061 0.97583 0.24226
 C1029 C 0.90769 0.95062 0.25583
 C1030 C 0.91913 0.92704 0.24440
 C1031 C 0.94197 0.90256 0.20511
 C1032 C 0.92388 0.88056 0.20504
 C1033 C 0.93090 0.85679 0.19103
 C1034 C 0.95620 0.85438 0.17676
 C1035 C 0.97455 0.87617 0.17714
 C1036 C 0.96743 0.90012 0.19106
 H1037 H 0.92844 0.99660 0.20681
 H1038 H 0.89561 0.94873 0.27467
 H1039 H 0.91647 0.84025 0.19134
 H1040 H 0.99412 0.87493 0.16615
 H1041 H 0.91598 0.90775 0.25501
 H1042 H 0.90395 0.88195 0.21531
 H1043 H 0.94850 0.95513 0.18652
 H1044 H 0.98180 0.91670 0.19087
 C1045 C 0.42967 0.41671 0.70493
 C1046 C 0.44411 0.43817 0.71639
 C1047 C 0.43022 0.46204 0.72461
 C1048 C 0.40183 0.46466 0.72137
 C1049 C 0.38761 0.44364 0.70928
 C1050 C 0.40134 0.41991 0.70118
 C1051 C 0.44366 0.39096 0.69662
 C1052 C 0.43081 0.36593 0.70189
 C1053 C 0.44198 0.34187 0.69129
 C1054 C 0.46633 0.34220 0.67525
 C1055 C 0.48010 0.36696 0.67126
 C1056 C 0.46884 0.39116 0.68186
 H1057 H 0.44156 0.47818 0.73374
 H1058 H 0.36571 0.44545 0.70637
 H1059 H 0.43124 0.32299 0.69515
 H1060 H 0.49884 0.36780 0.65886
 H1061 H 0.38976 0.40405 0.69182
 H1062 H 0.41174 0.36506 0.71376
 H1063 H 0.46596 0.43625 0.71945
 H1064 H 0.47913 0.41016 0.67741
 C1065 C 0.42890 0.56813 0.76803
 C1066 C 0.42876 0.54275 0.78179
 C1067 C 0.41626 0.52038 0.77023
 C1068 C 0.40343 0.52314 0.74494
 C1069 C 0.40441 0.54818 0.73070
 C1070 C 0.41726 0.57044 0.74204
 C1071 C 0.43908 0.59261 0.78168
 C1072 C 0.45628 0.61111 0.76759
 C1073 C 0.46505 0.63458 0.78053
 C1074 C 0.45648 0.64019 0.80772
 C1075 C 0.43893 0.62172 0.82154
 C1076 C 0.43053 0.59816 0.80877
 H1077 H 0.41556 0.50126 0.78160
 H1078 H 0.39444 0.55098 0.71130
 H1079 H 0.47883 0.64810 0.76936
 H1080 H 0.43125 0.62564 0.84218
 H1081 H 0.41688 0.58984 0.73115
 H1082 H 0.46316 0.60723 0.74667
 H1083 H 0.43777 0.54041 0.80178
 H1084 H 0.41676 0.58454 0.81987
 C1085 C -0.06066 0.08115 0.28108
 C1086 C -0.04636 0.05818 0.27083
 C1087 C -0.06070 0.03535 0.26248
 C1088 C -0.08941 0.03528 0.26450
 C1089 C -0.10359 0.05792 0.27522
 C1090 C -0.08940 0.08068 0.28327
 C1091 C -0.04606 0.10545 0.29032
 C1092 C -0.05603 0.13168 0.28372
 C1093 C -0.04458 0.15463 0.29513
 C1094 C -0.02295 0.15184 0.31345
 C1095 C -0.01216 0.12567 0.31910
 C1096 C -0.02355 0.10268 0.30755
 H1097 H -0.04943 0.01790 0.25452
 H1098 H -0.12577 0.05804 0.27723
 H1099 H -0.05346 0.17447 0.29053
 H1100 H 0.00474 0.12295 0.33289
 H1101 H -0.10093 0.09780 0.29166
 H1102 H -0.07319 0.13439 0.27024
 H1103 H -0.02418 0.05804 0.26903
 H1104 H -0.01555 0.08269 0.31305
 C1105 C 0.06620 0.42823 0.26909
 C1106 C 0.06400 0.45191 0.28488
 C1107 C 0.07688 0.47581 0.27602
 C1108 C 0.09237 0.47646 0.25136
 C1109 C 0.09306 0.45341 0.23469
 C1110 C 0.08022 0.42947 0.24353
 C1111 C 0.05588 0.40193 0.28029
 C1112 C 0.07213 0.37817 0.27777
 C1113 C 0.06411 0.35396 0.29082
 C1114 C 0.03963 0.35293 0.30664
 C1115 C 0.02276 0.37635 0.30823
 C1116 C 0.03086 0.40065 0.29526
 H1117 H 0.07534 0.49341 0.28896
 H1118 H 0.10389 0.45356 0.21504
 H1119 H 0.07735 0.33613 0.28898
 H1120 H 0.00384 0.37616 0.32040
 H1121 H 0.08170 0.41174 0.23060
 H1122 H 0.09165 0.37855 0.26663
 H1123 H 0.05338 0.45163 0.30469
 H1124 H 0.01780 0.41858 0.29734
 C1125 C 0.57429 0.91752 0.78456
 C1126 C 0.60177 0.92091 0.79159
 C1127 C 0.61529 0.94506 0.78501
 C1128 C 0.60180 0.96629 0.77108
 C1129 C 0.57409 0.96343 0.76482
 C1130 C 0.56044 0.93921 0.77145
 C1131 C 0.56039 0.89144 0.79128
 C1132 C 0.53341 0.89114 0.80224
 C1133 C 0.52156 0.86659 0.81105
 C1134 C 0.53649 0.84194 0.80909
 C1135 C 0.56289 0.84215 0.79684
 C1136 C 0.57468 0.86658 0.78802
 H1137 H 0.63631 0.94714 0.79110
 H1138 H 0.56295 0.97968 0.75464
 H1139 H 0.50125 0.86707 0.82061
 H1140 H 0.57468 0.82340 0.79461
 H1141 H 0.53923 0.93725 0.76589
 H1142 H 0.52193 0.90998 0.80512
 H1143 H 0.61277 0.90496 0.80248
 H1144 H 0.59524 0.86606 0.77904
 C1145 C 0.70703 0.56630 0.08654
 C1146 C 0.70119 0.59414 0.08260
 C1147 C 0.71082 0.60782 0.05910
 C1148 C 0.72635 0.59394 0.03900
 C1149 C 0.73245 0.56616 0.04281
 C1150 C 0.72303 0.55244 0.06662
 C1151 C 0.69557 0.55195 0.11110
 C1152 C 0.71222 0.53530 0.12769
 C1153 C 0.70140 0.52343 0.15192
 C1154 C 0.67368 0.52768 0.15960
 C1155 C 0.65701 0.54383 0.14258
 C1156 C 0.66784 0.55587 0.11867
 H1157 H 0.70592 0.62928 0.05651
 H1158 H 0.74426 0.55504 0.02744
 H1159 H 0.71464 0.51099 0.16465
 H1160 H 0.63567 0.54774 0.14815
 H1161 H 0.72763 0.53091 0.06916
 H1162 H 0.73370 0.53211 0.12230
 H1163 H 0.68916 0.60535 0.09778
 H1164 H 0.65455 0.56846 0.10611
 C1165 C 0.22205 1.06238 0.57994
 C1166 C 0.22232 1.09096 0.57966
 C1167 C 0.23199 1.10523 0.55655
 C1168 C 0.24203 1.09128 0.53345
 C1169 C 0.24180 1.06275 0.53344
 C1170 C 0.23173 1.04834 0.55656
 C1171 C 0.21053 1.04775 0.60433
 C1172 C 0.19094 1.02743 0.60138
 C1173 C 0.17723 1.01646 0.62448
 C1174 C 0.18305 1.02542 0.65094
 C1175 C 0.20371 1.04466 0.65392
 C1176 C 0.21724 1.05577 0.63084
 H1177 H 0.23161 1.12730 0.55672
 H1178 H 0.24914 1.05165 0.51561
 H1179 H 0.16160 1.00141 0.62164
 H1180 H 0.20852 1.05208 0.67401
 H1181 H 0.23161 1.02630 0.55627
 H1182 H 0.18531 1.02099 0.58116
 H1183 H 0.21443 1.10231 0.59713
 H1184 H 0.23246 1.07123 0.63365
 C1185 C 0.20370 0.92945 0.93043
 C1186 C 0.18813 0.90984 0.94496
 C1187 C 0.19927 0.89497 0.96665
 C1188 C 0.22642 0.89895 0.97419
 C1189 C 0.24199 0.91881 0.96016
 C1190 C 0.23072 0.93403 0.93854
 C1191 C 0.19200 0.94373 0.90611
 C1192 C 0.20846 0.94943 0.88256
 C1193 C 0.19667 0.95978 0.85860
 C1194 C 0.16824 0.96418 0.85766
 C1195 C 0.15193 0.95959 0.88134
 C1196 C 0.16372 0.94982 0.90542
 H1197 H 0.18661 0.87985 0.97687
 H1198 H 0.26306 0.92211 0.96551
 H1199 H 0.20953 0.96313 0.84041
 H1200 H 0.12997 0.96317 0.88104
 H1201 H 0.24323 0.94916 0.92805
 H1202 H 0.23022 0.94475 0.88218
 H1203 H 0.16752 0.90521 0.93902
 H1204 H 0.15050 0.94646 0.92332
 C1205 C 0.72497 0.43034 0.43829
 C1206 C 0.71467 0.43393 0.46530
 C1207 C 0.72595 0.41932 0.48722
 C1208 C 0.74811 0.40133 0.48267
 C1209 C 0.75914 0.39839 0.45601
 C1210 C 0.74767 0.41271 0.43401
 C1211 C 0.71104 0.44340 0.41454
 C1212 C 0.72607 0.45188 0.39092
 C1213 C 0.71261 0.46226 0.36791
 C1214 C 0.68389 0.46473 0.36818
 C1215 C 0.66891 0.45691 0.39194
 C1216 C 0.68228 0.44623 0.41477
 H1217 H 0.71694 0.42158 0.50764
 H1218 H 0.77585 0.38418 0.45184
 H1219 H 0.72464 0.46842 0.34992
 H1220 H 0.64671 0.45820 0.39254
 H1221 H 0.75585 0.40899 0.41351
 H1222 H 0.74824 0.45042 0.39015
 H1223 H 0.69753 0.44766 0.46947
 H1224 H 0.66994 0.43937 0.43227
 C1225 C 0.78795 0.42450 0.58862
 C1226 C 0.78798 0.39590 0.58785
 C1227 C 0.77942 0.38258 0.56457
 C1228 C 0.77043 0.39753 0.54172
 C1229 C 0.77047 0.42605 0.54222
 C1230 C 0.77914 0.43946 0.56552
 C1231 C 0.79804 0.43844 0.61313
 C1232 C 0.81547 0.46085 0.61011
 C1233 C 0.82691 0.47245 0.63309
 C1234 C 0.82110 0.46195 0.65960
 C1235 C 0.80283 0.44021 0.66270
 C1236 C 0.79146 0.42856 0.63971
 H1237 H 0.77986 0.36052 0.56438
 H1238 H 0.76406 0.43801 0.52464
 H1239 H 0.84064 0.48941 0.63009
 H1240 H 0.79811 0.43154 0.68281
 H1241 H 0.77886 0.46151 0.56553
 H1242 H 0.82107 0.46881 0.58990
 H1243 H 0.79518 0.38380 0.60505
 H1244 H 0.77780 0.41154 0.64269
 C1245 C 0.27380 -0.07541 0.07600
 C1246 C 0.27198 -0.10393 0.07687
 C1247 C 0.26237 -0.11793 0.05447
 C1248 C 0.25463 -0.10385 0.03060
 C1249 C 0.25580 -0.07533 0.02982
 C1250 C 0.26546 -0.06122 0.05227
 C1251 C 0.28505 -0.06080 0.09958
 C1252 C 0.30330 -0.03922 0.09511
 C1253 C 0.31579 -0.02709 0.11721
 C1254 C 0.31035 -0.03627 0.14429
 C1255 C 0.29130 -0.05714 0.14881
 C1256 C 0.27878 -0.06925 0.12672
 H1257 H 0.26059 -0.13980 0.05612
 H1258 H 0.24921 -0.06382 0.01206
 H1259 H 0.33005 -0.01076 0.11307
 H1260 H 0.28678 -0.06480 0.16938
 H1261 H 0.26617 -0.03921 0.05116
 H1262 H 0.30868 -0.03234 0.07447
 H1263 H 0.27837 -0.11552 0.09473
 H1264 H 0.26447 -0.08553 0.13086
 C1265 C 0.28199 0.06528 0.42393
 C1266 C 0.25721 0.08024 0.42478
 C1267 C 0.24823 0.09307 0.44877
 C1268 C 0.26354 0.09086 0.47265
 C1269 C 0.28757 0.07481 0.47243
 C1270 C 0.29678 0.06211 0.44823
 C1271 C 0.29315 0.05493 0.39730
 C1272 C 0.30678 0.02954 0.39555
 C1273 C 0.31809 0.02068 0.37042
 C1274 C 0.31612 0.03712 0.34663
 C1275 C 0.30205 0.06223 0.34836
 C1276 C 0.29081 0.07105 0.37335
 H1277 H 0.22969 0.10535 0.44811
 H1278 H 0.29976 0.07300 0.49063
 H1279 H 0.32901 0.00132 0.36976
 H1280 H 0.29991 0.07523 0.33035
 H1281 H 0.31606 0.05088 0.44822
 H1282 H 0.30875 0.01658 0.41360
 H1283 H 0.24502 0.08262 0.40662
 H1284 H 0.28084 0.09090 0.37400
 C1285 C 0.77424 0.56360 0.93382
 C1286 C 0.78741 0.56325 0.95916
 C1287 C 0.77565 0.57692 0.98173
 C1288 C 0.75055 0.59094 0.97931
 C1289 C 0.73690 0.59032 0.95438
 C1290 C 0.74854 0.57669 0.93194
 C1291 C 0.78807 0.55251 0.90879
 C1292 C 0.78755 0.56762 0.88407
 C1293 C 0.80143 0.55822 0.86061
 C1294 C 0.81617 0.53344 0.86123
 C1295 C 0.81625 0.51793 0.88573
 C1296 C 0.80246 0.52748 0.90939
 H1297 H 0.78665 0.57743 1.00072
 H1298 H 0.71765 0.60108 0.95169
 H1299 H 0.80084 0.57048 0.84196
 H1300 H 0.82762 0.49883 0.88678
 H1301 H 0.73774 0.57701 0.91280
 H1302 H 0.77696 0.58715 0.88304
 H1303 H 0.80736 0.55355 0.96115
 H1304 H 0.80308 0.51537 0.92814
 C1305 C 0.07907 0.71559 0.57032
 C1306 C 0.05755 0.72836 0.55610
 C1307 C 0.03420 0.73812 0.57045
 C1308 C 0.03236 0.73553 0.59913
 C1309 C 0.05396 0.72318 0.61330
 C1310 C 0.07708 0.71331 0.59906
 C1311 C 0.10322 0.70377 0.55547
 C1312 C 0.11300 0.67773 0.56293
 C1313 C 0.13619 0.66657 0.54983
 C1314 C 0.15024 0.68118 0.52895
 C1315 C 0.14049 0.70724 0.52136
 C1316 C 0.11702 0.71837 0.53439
 H1317 H 0.01766 0.74747 0.55914
 H1318 H 0.05288 0.72106 0.63547
 H1319 H 0.14341 0.64659 0.55635
 H1320 H 0.15088 0.71885 0.50523
 H1321 H 0.09349 0.70387 0.61055
 H1322 H 0.10261 0.66593 0.57893
 H1323 H 0.05852 0.73015 0.53392
 H1324 H 0.10995 0.73856 0.52839
 C1325 C 0.58186 0.23175 1.08013
 C1326 C 0.55948 0.23909 1.06385
 C1327 C 0.53525 0.24955 1.07601
 C1328 C 0.53310 0.25272 1.10456
 C1329 C 0.55606 0.24708 1.12048
 C1330 C 0.58012 0.23650 1.10846
 C1331 C 0.60631 0.21760 1.06815
 C1332 C 0.61681 0.19419 1.08133
 C1333 C 0.63943 0.18019 1.07015
 C1334 C 0.65223 0.18936 1.04564
 C1335 C 0.64204 0.21299 1.03255
 C1336 C 0.61906 0.22687 1.04360
 H1337 H 0.51819 0.25450 1.06309
 H1338 H 0.55537 0.25053 1.14237
 H1339 H 0.64704 0.16217 1.08077
 H1340 H 0.65154 0.22038 1.01357
 H1341 H 0.59731 0.23167 1.12137
 H1342 H 0.60719 0.18644 1.10012
 H1343 H 0.56037 0.23575 1.04193
 H1344 H 0.61139 0.24494 1.03313
 C1345 C 0.93266 0.21522 0.94211
 C1346 C 0.93020 0.23989 0.92730
 C1347 C 0.95279 0.25066 0.91289
 C1348 C 0.97830 0.23713 0.91325
 C1349 C 0.98117 0.21315 0.92894
 C1350 C 0.95853 0.20223 0.94323
 C1351 C 0.90786 0.20207 0.95427
 C1352 C 0.90375 0.17412 0.95060
 C1353 C 0.87929 0.16207 0.95955
 C1354 C 0.85841 0.17764 0.97249
 C1355 C 0.86285 0.20538 0.97705
 C1356 C 0.88728 0.21752 0.96789
 H1357 H 0.94988 0.26899 0.90066
 H1358 H 1.00069 0.20234 0.92931
 H1359 H 0.87658 0.14056 0.95610
 H1360 H 0.84707 0.21787 0.98691
 H1361 H 0.96109 0.18332 0.95467
 H1362 H 0.91907 0.16175 0.93992
 H1363 H 0.91048 0.25017 0.92572
 H1364 H 0.88998 0.23906 0.97116
 C1365 C 0.43332 0.72558 0.42978
 C1366 C 0.45954 0.71336 0.43098
 C1367 C 0.48180 0.72478 0.41651
 C1368 C 0.47818 0.74852 0.40062
 C1369 C 0.45234 0.76140 0.40031
 C1370 C 0.43011 0.75011 0.41489
 C1371 C 0.40891 0.71149 0.44152
 C1372 C 0.38760 0.72608 0.45501
 C1373 C 0.36336 0.71305 0.46333
 C1374 C 0.35990 0.68532 0.45796
 C1375 C 0.38157 0.67058 0.44533
 C1376 C 0.40581 0.68350 0.43727
 H1377 H 0.50159 0.71448 0.41685
 H1378 H 0.44889 0.77955 0.38796
 H1379 H 0.34694 0.72485 0.47300
 H1380 H 0.37956 0.64910 0.44128
 H1381 H 0.41010 0.75978 0.41327
 H1382 H 0.38952 0.74764 0.45870
 H1383 H 0.46265 0.69456 0.44247
 H1384 H 0.42172 0.67178 0.42665
 C1385 C 0.58243 0.79282 0.42186
 C1386 C 0.56111 0.78048 0.43732
 C1387 C 0.53818 0.77050 0.42427
 C1388 C 0.53653 0.77245 0.39563
 C1389 C 0.55789 0.78445 0.38020
 C1390 C 0.58062 0.79455 0.39316
 C1391 C 0.60618 0.80468 0.43541
 C1392 C 0.61563 0.83043 0.42700
 C1393 C 0.63826 0.84168 0.43918
 C1394 C 0.65205 0.82742 0.46001
 C1395 C 0.64270 0.80161 0.46845
 C1396 C 0.61981 0.79040 0.45637
 H1397 H 0.52178 0.76149 0.43656
 H1398 H 0.55693 0.78610 0.35804
 H1399 H 0.64520 0.86148 0.43206
 H1400 H 0.65289 0.79029 0.48458
 H1401 H 0.59688 0.80366 0.38072
 H1402 H 0.60536 0.84198 0.41107
 H1403 H 0.56190 0.77915 0.45949
 H1404 H 0.61302 0.77043 0.46308
 C1405 C 0.08430 0.27741 -0.06448
 C1406 C 0.06143 0.26801 -0.04907
 C1407 C 0.03826 0.25879 -0.06231
 C1408 C 0.03767 0.25909 -0.09106
 C1409 C 0.06030 0.26873 -0.10639
 C1410 C 0.08349 0.27758 -0.09327
 C1411 C 0.10856 0.28833 -0.05094
 C1412 C 0.13516 0.28158 -0.06065
 C1413 C 0.15795 0.29450 -0.05037
 C1414 C 0.15454 0.31462 -0.03033
 C1415 C 0.12803 0.32046 -0.01972
 C1416 C 0.10526 0.30734 -0.02983
 H1417 H 0.02082 0.25177 -0.05012
 H1418 H 0.06000 0.26948 -0.12862
 H1419 H 0.17810 0.28972 -0.05904
 H1420 H 0.12487 0.33571 -0.00408
 H1421 H 0.10056 0.28524 -0.10564
 H1422 H 0.13826 0.26680 -0.07676
 H1423 H 0.06154 0.26777 -0.02684
 H1424 H 0.08497 0.31301 -0.02209
 C1425 C 0.43250 0.29945 0.06521
 C1426 C 0.44355 0.27323 0.06059
 C1427 C 0.46432 0.26264 0.07717
 C1428 C 0.47455 0.27814 0.09845
 C1429 C 0.46361 0.30430 0.10297
 C1430 C 0.44288 0.31483 0.08658
 C1431 C 0.40923 0.31048 0.04908
 C1432 C 0.40746 0.33849 0.04275
 C1433 C 0.38386 0.34970 0.03127
 C1434 C 0.36167 0.33312 0.02544
 C1435 C 0.36401 0.30490 0.02999
 C1436 C 0.38754 0.29367 0.04186
 H1437 H 0.47192 0.24210 0.07378
 H1438 H 0.47034 0.31651 0.11969
 H1439 H 0.38264 0.37149 0.02755
 H1440 H 0.34705 0.29176 0.02576
 H1441 H 0.43434 0.33474 0.09131
 H1442 H 0.42406 0.35191 0.04736
 H1443 H 0.43603 0.26083 0.04432
 H1444 H 0.38811 0.27207 0.04664
 C1445 C 0.92569 0.77626 0.56965
 C1446 C 0.92532 0.75133 0.58424
 C1447 C 0.94839 0.74207 0.59814
 C1448 C 0.97246 0.75729 0.59737
 C1449 C 0.97345 0.78150 0.58180
 C1450 C 0.95024 0.79097 0.56808
 C1451 C 0.90002 0.78779 0.55804
 C1452 C 0.90040 0.80265 0.53311
 C1453 C 0.87640 0.81514 0.52353
 C1454 C 0.85157 0.81307 0.53873
 C1455 C 0.85105 0.79745 0.56313
 C1456 C 0.87496 0.78507 0.57271
 H1457 H 0.94695 0.72336 0.61002
 H1458 H 0.99182 0.79362 0.58115
 H1459 H 0.87750 0.82720 0.50475
 H1460 H 0.83218 0.79517 0.57513
 H1461 H 0.95117 0.81040 0.55730
 H1462 H 0.91930 0.80488 0.52117
 H1463 H 0.90696 0.73923 0.58544
 H1464 H 0.87392 0.77412 0.59216
   
