data_POSCAR
  _audit_creation_date              2014-09-24
  _audit_creation_method            'ToBaCCo'
  _symmetry_space_group_name_H-M    'P1'
  _symmetry_Int_Tables_number       1
  _symmetry_cell_setting            triclinic
  loop_
  _symmetry_equiv_pos_as_xyz
 x,y,z
_cell_length_a 73.8774
_cell_length_b 73.8876
_cell_length_c 73.8806
_cell_angle_alpha 89.999100
_cell_angle_beta 89.994900
_cell_angle_gamma 89.978000
loop_
  _atom_site_label
  _atom_site_type_symbol
  _atom_site_fract_x
  _atom_site_fract_y
  _atom_site_fract_z
C1 C 0.20563 0.19696 0.22323
 C2 C 0.19097 0.19996 0.23493
 C3 C 0.17910 0.21460 0.23214
 C4 C 0.18212 0.22630 0.21740
 C5 C 0.19673 0.22347 0.20560
 C6 C 0.20854 0.20876 0.20851
 C7 C 0.21743 0.18235 0.22604
 C8 C 0.23215 0.17931 0.21433
 C9 C 0.23493 0.19116 0.19968
 C10 C 0.22324 0.20583 0.19670
 C11 C 0.22605 0.21762 0.18208
 C12 C 0.21434 0.23235 0.17905
 C13 C 0.19970 0.23515 0.19092
 H14 H 0.18882 0.19083 0.24621
 H15 H 0.17311 0.23764 0.21508
 H16 H 0.21510 0.17334 0.23739
 H17 H 0.24620 0.18900 0.19054
 H18 H 0.23738 0.21528 0.17306
 H19 H 0.19057 0.24643 0.18878
 C20 C 0.70572 0.69680 0.72312
 C21 C 0.69103 0.69974 0.73480
 C22 C 0.67913 0.71436 0.73200
 C23 C 0.68214 0.72606 0.71727
 C24 C 0.69677 0.72328 0.70549
 C25 C 0.70861 0.70860 0.70841
 C26 C 0.71755 0.68221 0.72595
 C27 C 0.73229 0.67921 0.71425
 C28 C 0.73506 0.69107 0.69960
 C29 C 0.72334 0.70572 0.69661
 C30 C 0.72612 0.71751 0.68200
 C31 C 0.71438 0.73221 0.67896
 C32 C 0.69972 0.73497 0.69081
 H33 H 0.68890 0.69061 0.74608
 H34 H 0.67309 0.73738 0.71494
 H35 H 0.71524 0.67320 0.73728
 H36 H 0.74635 0.68895 0.69047
 H37 H 0.73747 0.71521 0.67299
 H38 H 0.69056 0.74622 0.68866
 C39 C 0.29381 0.80334 0.72352
 C40 C 0.30846 0.80033 0.73523
 C41 C 0.32031 0.78566 0.73247
 C42 C 0.31728 0.77396 0.71774
 C43 C 0.30269 0.77680 0.70593
 C44 C 0.29090 0.79154 0.70882
 C45 C 0.28204 0.81798 0.72632
 C46 C 0.26729 0.82110 0.71460
 C47 C 0.26455 0.80917 0.69994
 C48 C 0.27622 0.79448 0.69700
 C49 C 0.27341 0.78268 0.68238
 C50 C 0.28510 0.76793 0.67937
 C51 C 0.29972 0.76512 0.69126
 H52 H 0.31062 0.80946 0.74651
 H53 H 0.32628 0.76260 0.71543
 H54 H 0.28447 0.82692 0.73770
 H55 H 0.25332 0.81124 0.69072
 H56 H 0.26210 0.78503 0.67334
 H57 H 0.30883 0.75382 0.68913
 C58 C 0.79459 0.30313 0.22336
 C59 C 0.80925 0.30019 0.23508
 C60 C 0.82120 0.28553 0.23239
 C61 C 0.81813 0.27381 0.21762
 C62 C 0.80353 0.27660 0.20581
 C63 C 0.79171 0.29131 0.20867
 C64 C 0.78278 0.31775 0.22612
 C65 C 0.76807 0.32075 0.21440
 C66 C 0.76531 0.30886 0.19977
 C67 C 0.77701 0.29419 0.19684
 C68 C 0.77423 0.28237 0.18224
 C69 C 0.78595 0.26765 0.17926
 C70 C 0.80058 0.26489 0.19115
 H71 H 0.81127 0.30942 0.24631
 H72 H 0.82709 0.26243 0.21523
 H73 H 0.78508 0.32678 0.23745
 H74 H 0.75404 0.31098 0.19062
 H75 H 0.76290 0.28468 0.17321
 H76 H 0.80972 0.25361 0.18903
 C77 C 0.79469 0.69705 0.27625
 C78 C 0.80938 0.69996 0.26457
 C79 C 0.82133 0.71461 0.26729
 C80 C 0.81823 0.72634 0.28205
 C81 C 0.80359 0.72357 0.29382
 C82 C 0.79177 0.70889 0.29093
 C83 C 0.78287 0.68245 0.27346
 C84 C 0.76812 0.67947 0.28515
 C85 C 0.76533 0.69138 0.29976
 C86 C 0.77703 0.70603 0.30272
 C87 C 0.77422 0.71786 0.31730
 C88 C 0.78594 0.73256 0.32032
 C89 C 0.80060 0.73530 0.30847
 H90 H 0.81142 0.69073 0.25335
 H91 H 0.82719 0.73770 0.28446
 H92 H 0.78520 0.67340 0.26215
 H93 H 0.75404 0.68927 0.30889
 H94 H 0.76286 0.71557 0.32630
 H95 H 0.80975 0.74656 0.31061
 C96 C 0.29470 0.19716 -0.22356
 C97 C 0.30939 0.20010 -0.23523
 C98 C 0.32129 0.21479 -0.23253
 C99 C 0.31813 0.22654 -0.21780
 C100 C 0.30349 0.22374 -0.20603
 C101 C 0.29173 0.20901 -0.20891
 C102 C 0.28293 0.18251 -0.22634
 C103 C 0.26819 0.17950 -0.21465
 C104 C 0.26534 0.19142 -0.20006
 C105 C 0.27699 0.20612 -0.19712
 C106 C 0.27412 0.21796 -0.18256
 C107 C 0.28579 0.23271 -0.17957
 C108 C 0.30045 0.23548 -0.19141
 H109 H 0.31148 0.19086 -0.24644
 H110 H 0.32705 0.23794 -0.21539
 H111 H 0.28530 0.17345 -0.23763
 H112 H 0.25405 0.18929 -0.19095
 H113 H 0.26277 0.21565 -0.17356
 H114 H 0.30956 0.24678 -0.18928
 C115 C 0.70555 0.30281 -0.22346
 C116 C 0.69087 0.29987 -0.23514
 C117 C 0.67894 0.28520 -0.23242
 C118 C 0.68205 0.27349 -0.21765
 C119 C 0.69668 0.27629 -0.20587
 C120 C 0.70847 0.29100 -0.20877
 C121 C 0.71734 0.31743 -0.22625
 C122 C 0.73208 0.32044 -0.21456
 C123 C 0.73488 0.30856 -0.19994
 C124 C 0.72320 0.29389 -0.19697
 C125 C 0.72602 0.28208 -0.18238
 C126 C 0.71433 0.26735 -0.17936
 C127 C 0.69968 0.26458 -0.19122
 H128 H 0.68881 0.30908 -0.24637
 H129 H 0.67311 0.26211 -0.21523
 H130 H 0.71501 0.32647 -0.23757
 H131 H 0.74616 0.31069 -0.19081
 H132 H 0.73737 0.28439 -0.17337
 H133 H 0.69055 0.25330 -0.18907
 C134 C 0.20588 0.80336 0.27634
 C135 C 0.19124 0.80037 0.26462
 C136 C 0.17939 0.78571 0.26738
 C137 C 0.18241 0.77401 0.28210
 C138 C 0.19700 0.77683 0.29393
 C139 C 0.20878 0.79156 0.29104
 C140 C 0.21765 0.81800 0.27355
 C141 C 0.23241 0.82111 0.28527
 C142 C 0.23513 0.80917 0.29993
 C143 C 0.22346 0.79449 0.30287
 C144 C 0.22626 0.78269 0.31749
 C145 C 0.21457 0.76795 0.32049
 C146 C 0.19996 0.76514 0.30859
 H147 H 0.18909 0.80950 0.25334
 H148 H 0.17341 0.76266 0.28441
 H149 H 0.21523 0.82695 0.26217
 H150 H 0.24636 0.81122 0.30916
 H151 H 0.23757 0.78502 0.32653
 H152 H 0.19084 0.75386 0.31072
 C153 C 0.44708 0.45574 0.47358
 C154 C 0.45005 0.44107 0.48526
 C155 C 0.46469 0.42919 0.48248
 C156 C 0.47641 0.43222 0.46776
 C157 C 0.47361 0.44684 0.45597
 C158 C 0.45890 0.45865 0.45888
 C159 C 0.43247 0.46754 0.47639
 C160 C 0.42946 0.48228 0.46469
 C161 C 0.44133 0.48506 0.45005
 C162 C 0.45600 0.47337 0.44708
 C163 C 0.46781 0.47618 0.43247
 C164 C 0.48253 0.46446 0.42945
 C165 C 0.48531 0.44981 0.44131
 H166 H 0.44091 0.43892 0.49653
 H167 H 0.48775 0.42320 0.46544
 H168 H 0.42345 0.46522 0.48772
 H169 H 0.43919 0.49634 0.44092
 H170 H 0.46549 0.48752 0.42346
 H171 H 0.49658 0.44067 0.43916
 C172 C -0.05323 -0.04422 0.97333
 C173 C -0.05031 -0.05894 0.98498
 C174 C -0.03568 -0.07082 0.98219
 C175 C -0.02393 -0.06777 0.96751
 C176 C -0.02669 -0.05311 0.95575
 C177 C -0.04139 -0.04128 0.95867
 C178 C -0.06784 -0.03241 0.97615
 C179 C -0.07088 -0.01758 0.96450
 C180 C -0.05890 -0.01482 0.94988
 C181 C -0.04424 -0.02653 0.94691
 C182 C -0.03239 -0.02370 0.93234
 C183 C -0.01768 -0.03543 0.92931
 C184 C -0.01495 -0.05011 0.94113
 H185 H -0.05948 -0.06111 0.99622
 H186 H -0.01260 -0.07680 0.96518
 H187 H -0.07683 -0.03486 0.98749
 H188 H -0.06090 -0.00354 0.94071
 H189 H -0.03468 -0.01233 0.92335
 H190 H -0.00369 -0.05926 0.93898
 C191 C 1.05308 0.54421 0.97378
 C192 C 1.05010 0.55887 0.98548
 C193 C 1.03542 0.57079 0.98276
 C194 C 1.02372 0.56769 0.96799
 C195 C 1.02655 0.55308 0.95619
 C196 C 1.04128 0.54129 0.95909
 C197 C 1.06772 0.53243 0.97658
 C198 C 1.07083 0.51765 0.96488
 C199 C 1.05889 0.51491 0.95023
 C200 C 1.04420 0.52659 0.94728
 C201 C 1.03240 0.52378 0.93267
 C202 C 1.01766 0.53546 0.92966
 C203 C 1.01486 0.55010 0.94153
 H204 H 1.05930 0.56092 0.99672
 H205 H 1.01233 0.57663 0.96557
 H206 H 1.07667 0.53485 0.98795
 H207 H 1.06094 0.50368 0.94102
 H208 H 1.03474 0.51245 0.92365
 H209 H 1.00357 0.55922 0.93939
 C210 C 0.55328 0.04392 0.47361
 C211 C 0.55032 0.05858 0.48532
 C212 C 0.53565 0.07043 0.48260
 C213 C 0.52390 0.06741 0.46792
 C214 C 0.52669 0.05281 0.45610
 C215 C 0.54143 0.04102 0.45895
 C216 C 0.56793 0.03215 0.47637
 C217 C 0.57100 0.01738 0.46465
 C218 C 0.55902 0.01465 0.45003
 C219 C 0.54432 0.02633 0.44712
 C220 C 0.53247 0.02352 0.43255
 C221 C 0.51772 0.03521 0.42958
 C222 C 0.51495 0.04983 0.44147
 H223 H 0.55949 0.06073 0.49657
 H224 H 0.51254 0.07641 0.46564
 H225 H 0.57691 0.03458 0.48771
 H226 H 0.56105 0.00341 0.44080
 H227 H 0.53478 0.01220 0.42351
 H228 H 0.50366 0.05896 0.43937
 C229 C -0.05320 0.04461 0.52680
 C230 C -0.05026 0.05930 0.51513
 C231 C -0.03562 0.07116 0.51790
 C232 C -0.02389 0.06812 0.53260
 C233 C -0.02666 0.05350 0.54439
 C234 C -0.04137 0.04169 0.54149
 C235 C -0.06781 0.03282 0.52401
 C236 C -0.07081 0.01808 0.53570
 C237 C -0.05892 0.01528 0.55032
 C238 C -0.04425 0.02696 0.55328
 C239 C -0.03243 0.02414 0.56787
 C240 C -0.01771 0.03585 0.57089
 C241 C -0.01495 0.05051 0.55903
 H242 H -0.05941 0.06145 0.50387
 H243 H -0.01255 0.07714 0.53492
 H244 H -0.07685 0.03515 0.51269
 H245 H -0.06104 0.00399 0.55944
 H246 H -0.03473 0.01279 0.57688
 H247 H -0.00368 0.05964 0.56117
 C248 C 0.44679 0.54464 0.02648
 C249 C 0.44977 0.55928 0.01476
 C250 C 0.46446 0.57118 0.01747
 C251 C 0.47616 0.56809 0.03225
 C252 C 0.47332 0.55349 0.04406
 C253 C 0.45859 0.54173 0.04118
 C254 C 0.43215 0.53287 0.02370
 C255 C 0.42910 0.51817 0.03543
 C256 C 0.44096 0.51538 0.05007
 C257 C 0.45566 0.52704 0.05301
 C258 C 0.46745 0.52422 0.06763
 C259 C 0.48220 0.53589 0.07062
 C260 C 0.48501 0.55051 0.05873
 H261 H 0.44057 0.56133 0.00352
 H262 H 0.48755 0.57701 0.03466
 H263 H 0.42313 0.53519 0.01236
 H264 H 0.43880 0.50412 0.05922
 H265 H 0.46511 0.51291 0.07666
 H266 H 0.49630 0.55962 0.06087
 C267 C 0.55327 -0.04453 0.02691
 C268 C 0.55028 -0.05918 0.01521
 C269 C 0.53563 -0.07104 0.01798
 C270 C 0.52393 -0.06801 0.03271
 C271 C 0.52674 -0.05341 0.04452
 C272 C 0.54146 -0.04162 0.04162
 C273 C 0.56788 -0.03274 0.02411
 C274 C 0.57092 -0.01803 0.03583
 C275 C 0.55905 -0.01525 0.05047
 C276 C 0.54438 -0.02692 0.05344
 C277 C 0.53258 -0.02412 0.06806
 C278 C 0.51785 -0.03581 0.07107
 C279 C 0.51506 -0.05044 0.05919
 H280 H 0.55942 -0.06133 0.00393
 H281 H 0.51259 -0.07702 0.03503
 H282 H 0.57690 -0.03507 0.01277
 H283 H 0.56121 -0.00398 0.05962
 H284 H 0.53491 -0.01279 0.07708
 H285 H 0.50378 -0.05957 0.06133
 C286 C 1.05298 0.45557 0.52627
 C287 C 1.04998 0.44095 0.51453
 C288 C 1.03534 0.42901 0.51727
 C289 C 1.02368 0.43205 0.53210
 C290 C 1.02653 0.44662 0.54393
 C291 C 1.04122 0.45843 0.54102
 C292 C 1.06758 0.46739 0.52346
 C293 C 1.07063 0.48207 0.53521
 C294 C 1.05881 0.48480 0.54989
 C295 C 1.04416 0.47310 0.55287
 C296 C 1.03240 0.47586 0.56753
 C297 C 1.01769 0.46415 0.57056
 C298 C 1.01488 0.44955 0.55865
 H299 H 1.05916 0.43894 0.50326
 H300 H 1.01232 0.42309 0.53453
 H301 H 1.07657 0.46510 0.51209
 H302 H 1.06098 0.49604 0.55906
 H303 H 1.03475 0.48717 0.57657
 H304 H 1.00361 0.44041 0.56080
 C305 C 0.40248 0.00815 0.22598
 H306 H 0.40319 0.02043 0.23393
 C307 C 0.41433 0.00560 0.21148
 H308 H 0.42408 0.01607 0.20834
 C309 C 0.38899 -0.02045 0.22071
 H310 H 0.37930 -0.03070 0.22452
 C311 C 0.40058 -0.02357 0.20611
 H312 H 0.39950 -0.03618 0.19874
 N313 N 0.39000 -0.00469 0.23018
 C314 C 0.34709 0.02420 0.25867
 H315 H 0.34633 0.01627 0.27096
 C316 C 0.33531 0.03875 0.25608
 H317 H 0.32555 0.04195 0.26654
 C318 C 0.36064 0.02935 0.23007
 H319 H 0.37032 0.02548 0.21983
 C320 C 0.34912 0.04400 0.22691
 H321 H 0.35025 0.05134 0.21428
 Zn322 Zn 0.37473 -0.00027 0.25029
 N323 N 0.35957 0.01992 0.24584
 C324 C 0.38889 0.01988 0.27993
 N325 N 0.38989 0.00411 0.27049
 C326 C 0.40232 -0.00878 0.27476
 C327 C 0.41412 -0.00625 0.28931
 C328 C 0.40043 0.02298 0.29458
 C329 C 0.34707 -0.02462 0.24175
 C330 C 0.33523 -0.03914 0.24426
 C331 C 0.34886 -0.04447 0.27350
 C332 C 0.36044 -0.02985 0.27042
 N333 N 0.35949 -0.02040 0.25465
 H334 H 0.37925 0.03016 0.27607
 H335 H 0.40303 -0.02107 0.26683
 H336 H 0.42383 -0.01675 0.29250
 H337 H 0.39935 0.03561 0.30193
 H338 H 0.34640 -0.01669 0.22946
 H339 H 0.32553 -0.04230 0.23374
 H340 H 0.34991 -0.05183 0.28613
 H341 H 0.37008 -0.02603 0.28071
 C342 C 0.33625 0.04891 0.24004
 C343 C 0.41345 -0.01042 0.20128
 C344 C 0.33606 -0.04932 0.26030
 C345 C 0.41324 0.00980 0.29948
 C346 C 0.09768 -0.00833 0.72569
 H347 H 0.09696 -0.02061 0.73364
 C348 C 0.08586 -0.00577 0.71118
 H349 H 0.07610 -0.01623 0.70802
 C350 C 0.11119 0.02027 0.72046
 H351 H 0.12087 0.03052 0.72429
 C352 C 0.09962 0.02340 0.70584
 H353 H 0.10072 0.03602 0.69848
 N354 N 0.11016 0.00451 0.72992
 C355 C 0.15301 -0.02438 0.75849
 H356 H 0.15375 -0.01646 0.77078
 C357 C 0.16480 -0.03894 0.75593
 H358 H 0.17454 -0.04214 0.76640
 C359 C 0.13951 -0.02955 0.72987
 H360 H 0.12985 -0.02568 0.71961
 C361 C 0.15104 -0.04420 0.72673
 H362 H 0.14992 -0.05155 0.71411
 Zn363 Zn 0.12538 0.00008 0.75006
 N364 N 0.14055 -0.02011 0.74564
 C365 C 0.11118 -0.02007 0.77968
 N366 N 0.11019 -0.00430 0.77023
 C367 C 0.09776 0.00859 0.77449
 C368 C 0.08594 0.00607 0.78902
 C369 C 0.09962 -0.02316 0.79431
 C370 C 0.15307 0.02443 0.74157
 C371 C 0.16490 0.03894 0.74410
 C372 C 0.15122 0.04427 0.77332
 C373 C 0.13964 0.02965 0.77022
 N374 N 0.14063 0.02021 0.75445
 H375 H 0.12083 -0.03035 0.77583
 H376 H 0.09706 0.02088 0.76655
 H377 H 0.07622 0.01657 0.79220
 H378 H 0.10069 -0.03579 0.80167
 H379 H 0.15376 0.01649 0.72928
 H380 H 0.17463 0.04210 0.73360
 H381 H 0.15015 0.05163 0.78594
 H382 H 0.12999 0.02583 0.78049
 C383 C 0.16388 -0.04911 0.73988
 C384 C 0.08676 0.01026 0.70099
 C385 C 0.16404 0.04913 0.76014
 C386 C 0.08681 -0.00998 0.79920
 C387 C 0.59747 0.49173 0.22553
 H388 H 0.59677 0.47943 0.23345
 C389 C 0.58565 0.49429 0.21101
 H390 H 0.57591 0.48381 0.20784
 C391 C 0.61093 0.52036 0.22034
 H392 H 0.62059 0.53062 0.22418
 C393 C 0.59936 0.52349 0.20572
 H394 H 0.60044 0.53612 0.19838
 N395 N 0.60993 0.50458 0.22977
 C396 C 0.65286 0.47577 0.25831
 H397 H 0.65359 0.48371 0.27059
 C398 C 0.66467 0.46124 0.25574
 H399 H 0.67442 0.45807 0.26621
 C400 C 0.63934 0.47056 0.22970
 H401 H 0.62966 0.47439 0.21945
 C402 C 0.65089 0.45592 0.22657
 H403 H 0.64978 0.44856 0.21395
 Zn404 Zn 0.62517 0.50016 0.24990
 N405 N 0.64038 0.48001 0.24546
 C406 C 0.61103 0.47997 0.27951
 N407 N 0.61000 0.49575 0.27009
 C408 C 0.59756 0.50861 0.27437
 C409 C 0.58577 0.50605 0.28893
 C410 C 0.59951 0.47684 0.29417
 C411 C 0.65282 0.52455 0.24140
 C412 C 0.66464 0.53907 0.24391
 C413 C 0.65096 0.54440 0.27314
 C414 C 0.63940 0.52977 0.27005
 N415 N 0.64038 0.52031 0.25428
 H416 H 0.62069 0.46971 0.27564
 H417 H 0.59682 0.52091 0.26645
 H418 H 0.57604 0.51653 0.29213
 H419 H 0.60062 0.46421 0.30150
 H420 H 0.65351 0.51661 0.22911
 H421 H 0.67435 0.54224 0.23341
 H422 H 0.64989 0.55176 0.28576
 H423 H 0.62975 0.52594 0.28033
 C424 C 0.66375 0.45105 0.23971
 C425 C 0.58652 0.51034 0.20085
 C426 C 0.66378 0.54926 0.25995
 C427 C 0.58668 0.49000 0.29909
 C428 C 0.90275 0.50813 0.72576
 H429 H 0.90347 0.52042 0.73368
 C430 C 0.91457 0.50555 0.71124
 H431 H 0.92432 0.51602 0.70806
 C432 C 0.88925 0.47952 0.72057
 H433 H 0.87957 0.46927 0.72441
 C434 C 0.90081 0.47637 0.70595
 H435 H 0.89971 0.46374 0.69860
 N436 N 0.89027 0.49529 0.73000
 C437 C 0.84738 0.52420 0.75850
 H438 H 0.84663 0.51628 0.77080
 C439 C 0.83560 0.53875 0.75593
 H440 H 0.82585 0.54195 0.76639
 C441 C 0.86092 0.52936 0.72990
 H442 H 0.87060 0.52550 0.71965
 C443 C 0.84940 0.54401 0.72675
 H444 H 0.85052 0.55136 0.71412
 Zn445 Zn 0.87503 0.49975 0.75013
 N446 N 0.85986 0.51993 0.74567
 C447 C 0.88919 0.51994 0.77972
 N448 N 0.89020 0.50416 0.77031
 C449 C 0.90263 0.49128 0.77461
 C450 C 0.91441 0.49384 0.78916
 C451 C 0.90072 0.52307 0.79437
 C452 C 0.84735 0.47540 0.74164
 C453 C 0.83552 0.46089 0.74416
 C454 C 0.84918 0.45556 0.77339
 C455 C 0.86076 0.47018 0.77029
 N456 N 0.85979 0.47962 0.75452
 H457 H 0.87955 0.53022 0.77584
 H458 H 0.90334 0.47898 0.76670
 H459 H 0.92413 0.48334 0.79238
 H460 H 0.89963 0.53571 0.80170
 H461 H 0.84667 0.48333 0.72935
 H462 H 0.82580 0.45773 0.73366
 H463 H 0.85024 0.44821 0.78602
 H464 H 0.87041 0.47400 0.78058
 C465 C 0.83654 0.54892 0.73988
 C466 C 0.91366 0.48951 0.70107
 C467 C 0.83636 0.45070 0.76020
 C468 C 0.91352 0.50990 0.79931
 C469 C 0.22524 0.40306 0.00838
 H470 H 0.23318 0.40373 0.02067
 C471 C 0.21069 0.41487 0.00589
 H472 H 0.20752 0.42456 0.01641
 C473 C 0.22003 0.38968 -0.02029
 H474 H 0.22387 0.38005 -0.03059
 C475 C 0.20538 0.40124 -0.02335
 H476 H 0.19801 0.40019 -0.03598
 N477 N 0.22949 0.39065 -0.00452
 C478 C 0.25818 0.34772 0.02413
 H479 H 0.27047 0.34705 0.01619
 C480 C 0.25566 0.33587 0.03863
 H481 H 0.26616 0.32614 0.04178
 C482 C 0.22953 0.36114 0.02939
 H483 H 0.21924 0.37080 0.02558
 C484 C 0.22644 0.34954 0.04399
 H485 H 0.21381 0.35060 0.05135
 Zn486 Zn 0.24967 0.37545 -0.00018
 N487 N 0.24530 0.36018 0.01993
 C488 C 0.27927 0.38961 0.02001
 N489 N 0.26980 0.39066 0.00426
 C490 C 0.27401 0.40317 -0.00857
 C491 C 0.28853 0.41498 -0.00600
 C492 C 0.29389 0.40117 0.02315
 C493 C 0.24125 0.34786 -0.02469
 C494 C 0.24383 0.33610 -0.03925
 C495 C 0.27302 0.34987 -0.04449
 C496 C 0.26987 0.36138 -0.02982
 N497 N 0.25409 0.36032 -0.02039
 H498 H 0.27546 0.37991 0.03025
 H499 H 0.26606 0.40391 -0.02084
 H500 H 0.29168 0.42475 -0.01646
 H501 H 0.30127 0.40004 0.03576
 H502 H 0.22896 0.34711 -0.01676
 H503 H 0.23337 0.32636 -0.04246
 H504 H 0.28565 0.35099 -0.05183
 H505 H 0.28012 0.37104 -0.02595
 C506 C 0.23962 0.33671 0.04883
 C507 C 0.20050 0.41403 -0.01014
 C508 C 0.25988 0.33703 -0.04941
 C509 C 0.29874 0.41405 0.01002
 C510 C 0.72599 0.09693 -0.00834
 H511 H 0.73391 0.09620 -0.02064
 C512 C 0.71146 0.08513 -0.00576
 H513 H 0.70827 0.07539 -0.01623
 C514 C 0.72083 0.11043 0.02028
 H515 H 0.72468 0.12011 0.03053
 C516 C 0.70620 0.09889 0.02343
 H517 H 0.69886 0.10000 0.03607
 N518 N 0.73025 0.10940 0.00450
 C519 C 0.75876 0.15225 -0.02443
 H520 H 0.77106 0.15298 -0.01653
 C521 C 0.75616 0.16404 -0.03897
 H522 H 0.76663 0.17377 -0.04218
 C523 C 0.73013 0.13876 -0.02954
 H524 H 0.71988 0.12909 -0.02566
 C525 C 0.72696 0.15029 -0.04418
 H526 H 0.71432 0.14918 -0.05150
 Zn527 Zn 0.75039 0.12461 0.00003
 N528 N 0.74592 0.13979 -0.02013
 C529 C 0.77997 0.11042 -0.02019
 N530 N 0.77055 0.10942 -0.00440
 C531 C 0.77484 0.09698 0.00847
 C532 C 0.78938 0.08518 0.00591
 C533 C 0.79461 0.09888 -0.02332
 C534 C 0.74195 0.15229 0.02442
 C535 C 0.74451 0.16412 0.03894
 C536 C 0.77373 0.15042 0.04420
 C537 C 0.77060 0.13885 0.02958
 N538 N 0.75482 0.13984 0.02016
 H539 H 0.77609 0.12007 -0.03046
 H540 H 0.76693 0.09627 0.02077
 H541 H 0.79259 0.07547 0.01640
 H542 H 0.80194 0.09996 -0.03596
 H543 H 0.72965 0.15299 0.01651
 H544 H 0.73402 0.17384 0.04212
 H545 H 0.78637 0.14934 0.05153
 H546 H 0.78087 0.12919 0.02573
 C547 C 0.74010 0.16313 -0.04911
 C548 C 0.70130 0.08604 0.01029
 C549 C 0.76056 0.16325 0.04909
 C550 C 0.79953 0.08606 -0.01015
 C551 C 0.22555 0.59741 0.49140
 H552 H 0.23352 0.59670 0.47913
 C553 C 0.21103 0.58558 0.49391
 H554 H 0.20790 0.57584 0.48342
 C555 C 0.22026 0.61087 0.52002
 H556 H 0.22406 0.62053 0.53030
 C557 C 0.20564 0.59930 0.52310
 H558 H 0.19825 0.60038 0.53571
 N559 N 0.22975 0.60986 0.50428
 C560 C 0.25840 0.65275 0.47554
 H561 H 0.27066 0.65347 0.48351
 C562 C 0.25588 0.66456 0.46101
 H563 H 0.26636 0.67430 0.45787
 C564 C 0.22979 0.63927 0.47027
 H565 H 0.21952 0.62960 0.47408
 C566 C 0.22670 0.65082 0.45563
 H567 H 0.21409 0.64973 0.44825
 Zn568 Zn 0.24990 0.62508 0.49992
 N569 N 0.24554 0.64029 0.47976
 C570 C 0.27958 0.61091 0.47983
 N571 N 0.27009 0.60989 0.49557
 C572 C 0.27431 0.59744 0.50844
 C573 C 0.28886 0.58564 0.50594
 C574 C 0.29423 0.59936 0.47675
 C575 C 0.24135 0.65274 0.52431
 C576 C 0.24385 0.66455 0.53884
 C577 C 0.27306 0.65085 0.54421
 C578 C 0.26999 0.63929 0.52957
 N579 N 0.25424 0.64029 0.52009
 H580 H 0.27576 0.62057 0.46955
 H581 H 0.26634 0.59672 0.52071
 H582 H 0.29201 0.57590 0.51643
 H583 H 0.30162 0.60046 0.46414
 H584 H 0.22908 0.65344 0.51635
 H585 H 0.23335 0.67428 0.54199
 H586 H 0.28567 0.64977 0.55159
 H587 H 0.28028 0.62964 0.52576
 C588 C 0.23986 0.66367 0.45079
 C589 C 0.20081 0.58646 0.50993
 C590 C 0.25987 0.66368 0.54906
 C591 C 0.29908 0.58653 0.48992
 C592 C 0.72544 0.90289 0.50822
 H593 H 0.73335 0.90358 0.52052
 C594 C 0.71089 0.91469 0.50569
 H595 H 0.70769 0.92439 0.51619
 C596 C 0.72030 0.88950 0.47954
 H597 H 0.72418 0.87987 0.46926
 C598 C 0.70566 0.90104 0.47644
 H599 H 0.69833 0.89998 0.46380
 N600 N 0.72972 0.89048 0.49533
 C601 C 0.75834 0.84756 0.52408
 H602 H 0.77065 0.84688 0.51616
 C603 C 0.75579 0.83572 0.53858
 H604 H 0.76628 0.82599 0.54175
 C605 C 0.72968 0.86099 0.52927
 H606 H 0.71941 0.87065 0.52543
 C607 C 0.72656 0.84940 0.54387
 H608 H 0.71392 0.85046 0.55121
 Zn609 Zn 0.74989 0.87528 0.49973
 N610 N 0.74547 0.86002 0.51984
 C611 C 0.77944 0.88944 0.52000
 N612 N 0.77002 0.89049 0.50422
 C613 C 0.77428 0.90298 0.49139
 C614 C 0.78880 0.91478 0.49399
 C615 C 0.79407 0.90099 0.52316
 C616 C 0.74152 0.84768 0.47524
 C617 C 0.74412 0.83590 0.46069
 C618 C 0.77332 0.84966 0.45548
 C619 C 0.77015 0.86118 0.47013
 N620 N 0.75436 0.86013 0.47954
 H621 H 0.77559 0.87975 0.53023
 H622 H 0.76637 0.90372 0.47909
 H623 H 0.79199 0.92454 0.48353
 H624 H 0.80140 0.89987 0.53580
 H625 H 0.72922 0.84693 0.48314
 H626 H 0.73365 0.82617 0.45747
 H627 H 0.78596 0.85078 0.44816
 H628 H 0.78040 0.87084 0.47402
 C629 C 0.73973 0.83657 0.54874
 C630 C 0.70074 0.91384 0.48963
 C631 C 0.76018 0.83682 0.45055
 C632 C 0.79896 0.91386 0.51004
 C633 C 0.00816 0.22616 0.40266
 H634 H 0.02044 0.23410 0.40336
 C635 C 0.00563 0.21165 0.41449
 H636 H 0.01612 0.20850 0.42423
 C637 C -0.02046 0.22091 0.38919
 H638 H -0.03073 0.22473 0.37952
 C639 C -0.02356 0.20630 0.40077
 H640 H -0.03618 0.19893 0.39969
 N641 N -0.00470 0.23037 0.39019
 C642 C 0.02411 0.25888 0.34726
 H643 H 0.01617 0.27117 0.34652
 C644 C 0.03865 0.25631 0.33546
 H645 H 0.04182 0.26677 0.32570
 C646 C 0.02931 0.23028 0.36080
 H647 H 0.02547 0.22004 0.37048
 C648 C 0.04395 0.22714 0.34925
 H649 H 0.05131 0.21451 0.35037
 Zn650 Zn -0.00030 0.25049 0.37494
 N651 N 0.01986 0.24605 0.35975
 C652 C 0.01987 0.28011 0.38908
 N653 N 0.00409 0.27068 0.39010
 C654 C -0.00878 0.27496 0.40254
 C655 C -0.00623 0.28951 0.41433
 C656 C 0.02299 0.29476 0.40061
 C657 C -0.02468 0.24196 0.34729
 C658 C -0.03920 0.24447 0.33546
 C659 C -0.04454 0.27370 0.34910
 C660 C -0.02992 0.27062 0.36068
 N661 N -0.02046 0.25486 0.35971
 H662 H 0.03014 0.27625 0.37942
 H663 H -0.02107 0.26704 0.40326
 H664 H -0.01671 0.29271 0.42406
 H665 H 0.03562 0.30210 0.39952
 H666 H -0.01673 0.22968 0.34661
 H667 H -0.04236 0.23397 0.32574
 H668 H -0.05191 0.28633 0.35016
 H669 H -0.02610 0.28091 0.37032
 C670 C 0.04883 0.24027 0.33639
 C671 C -0.01040 0.20146 0.41362
 C672 C -0.04940 0.26051 0.33629
 C673 C 0.00982 0.29967 0.41344
 C674 C -0.00859 0.72510 0.09724
 H675 H -0.02090 0.73301 0.09654
 C676 C -0.00604 0.71054 0.08546
 H677 H -0.01654 0.70732 0.07576
 C678 C 0.02009 0.71999 0.11064
 H679 H 0.03038 0.72388 0.12026
 C680 C 0.02321 0.70533 0.09911
 H681 H 0.03586 0.69801 0.10018
 N682 N 0.00430 0.72940 0.10964
 C683 C -0.02445 0.75810 0.15251
 H684 H -0.01652 0.77040 0.15317
 C685 C -0.03895 0.75558 0.16436
 H686 H -0.04211 0.76609 0.17408
 C687 C -0.02965 0.72943 0.13914
 H688 H -0.02582 0.71915 0.12949
 C689 C -0.04426 0.72634 0.15073
 H690 H -0.05160 0.71371 0.14969
 Zn691 Zn -0.00010 0.74960 0.12481
 N692 N -0.02022 0.74521 0.14008
 C693 C -0.02035 0.77915 0.11060
 N694 N -0.00458 0.76971 0.10956
 C695 C 0.00825 0.77394 0.09706
 C696 C 0.00567 0.78845 0.08524
 C697 C -0.02351 0.79377 0.09904
 C698 C 0.02439 0.74125 0.15242
 C699 C 0.03895 0.74385 0.16419
 C700 C 0.04416 0.77302 0.15037
 C701 C 0.02950 0.76985 0.13887
 N702 N 0.02009 0.75407 0.13995
 H703 H -0.03059 0.77532 0.12029
 H704 H 0.02054 0.76601 0.09633
 H705 H 0.01612 0.79162 0.07548
 H706 H -0.03613 0.80113 0.10015
 H707 H 0.01648 0.72895 0.15319
 H708 H 0.04217 0.73340 0.17394
 H709 H 0.05148 0.78566 0.14923
 H710 H 0.02561 0.78009 0.12919
 C711 C -0.04912 0.73954 0.16354
 C712 C 0.01002 0.70040 0.08633
 C713 C 0.04910 0.75990 0.16323
 C714 C -0.01037 0.79864 0.08616
 C715 C 0.49174 0.22545 0.59780
 H716 H 0.47945 0.23339 0.59708
 C717 C 0.49428 0.21090 0.58600
 H718 H 0.48379 0.20773 0.57627
 C719 C 0.52036 0.22023 0.61128
 H720 H 0.53063 0.22407 0.62094
 C721 C 0.52347 0.20558 0.59974
 H722 H 0.53610 0.19822 0.60083
 N723 N 0.50460 0.22969 0.61025
 C724 C 0.47578 0.25837 0.65308
 H725 H 0.48373 0.27065 0.65379
 C726 C 0.46124 0.25586 0.66489
 H727 H 0.45806 0.26635 0.67460
 C728 C 0.47058 0.22973 0.63965
 H729 H 0.47442 0.21945 0.63000
 C730 C 0.45593 0.22665 0.65119
 H731 H 0.44857 0.21403 0.65011
 Zn732 Zn 0.50020 0.24987 0.62544
 N733 N 0.48003 0.24549 0.64065
 C734 C 0.48003 0.27946 0.61120
 N735 N 0.49580 0.27001 0.61021
 C736 C 0.50867 0.27423 0.59775
 C737 C 0.50613 0.28875 0.58592
 C738 C 0.47692 0.29408 0.59963
 C739 C 0.52460 0.24142 0.65311
 C740 C 0.53913 0.24396 0.66492
 C741 C 0.54445 0.27314 0.65116
 C742 C 0.52981 0.27003 0.63962
 N743 N 0.52036 0.25427 0.64064
 H744 H 0.46976 0.27563 0.62087
 H745 H 0.52096 0.26629 0.59705
 H746 H 0.51662 0.29191 0.57619
 H747 H 0.46429 0.30144 0.60071
 H748 H 0.51666 0.22914 0.65384
 H749 H 0.54230 0.23348 0.67466
 H750 H 0.55181 0.28576 0.65006
 H751 H 0.52598 0.28029 0.62994
 C752 C 0.45105 0.23983 0.66401
 C753 C 0.51031 0.20071 0.58690
 C754 C 0.54932 0.25999 0.66401
 C755 C 0.49009 0.29894 0.58680
 C756 C 0.50835 0.72527 0.90268
 H757 H 0.52065 0.73319 0.90337
 C758 C 0.50583 0.71074 0.91449
 H759 H 0.51633 0.70755 0.92420
 C760 C 0.47968 0.72010 0.88929
 H761 H 0.46939 0.72396 0.87966
 C762 C 0.47659 0.70547 0.90084
 H763 H 0.46395 0.69813 0.89979
 N764 N 0.49546 0.72954 0.89026
 C765 C 0.52417 0.75818 0.84736
 H766 H 0.51623 0.77047 0.84668
 C767 C 0.53867 0.75565 0.83551
 H768 H 0.54182 0.76614 0.82578
 C769 C 0.52940 0.72953 0.86077
 H770 H 0.52558 0.71926 0.87043
 C771 C 0.54401 0.72643 0.84918
 H772 H 0.55137 0.71380 0.85024
 Zn773 Zn 0.49983 0.74970 0.87507
 N774 N 0.51995 0.74531 0.85980
 C775 C 0.52004 0.77928 0.88924
 N776 N 0.50428 0.76984 0.89029
 C777 C 0.49145 0.77407 0.90278
 C778 C 0.49402 0.78859 0.91460
 C779 C 0.52318 0.79390 0.90080
 C780 C 0.47535 0.74130 0.84746
 C781 C 0.46079 0.74388 0.83569
 C782 C 0.45554 0.77307 0.84946
 C783 C 0.47020 0.76992 0.86098
 N784 N 0.47963 0.75414 0.85992
 H785 H 0.53029 0.77545 0.87955
 H786 H 0.47916 0.76614 0.90352
 H787 H 0.48356 0.79176 0.92436
 H788 H 0.53581 0.80126 0.89968
 H789 H 0.48327 0.72901 0.84672
 H790 H 0.45758 0.73341 0.82595
 H791 H 0.44820 0.78570 0.85059
 H792 H 0.47407 0.78017 0.87064
 C793 C 0.54886 0.73961 0.83635
 C794 C 0.48978 0.70057 0.91364
 C795 C 0.45062 0.75992 0.83662
 C796 C 0.51005 0.79877 0.91368
 N797 N 0.13817 0.23454 0.25309
 C798 C 0.13527 0.22327 0.26727
 N799 N 0.14669 0.20917 0.26996
 N800 N 0.16060 0.20642 0.25882
 C801 C 0.16361 0.21767 0.24456
 N802 N 0.15209 0.23179 0.24195
 C803 C 0.12028 0.22622 0.27926
 C804 C 0.10769 0.22870 0.28934
 C805 C 0.09269 0.23165 0.30133
 N806 N 0.08809 0.21896 0.31374
 N807 N 0.07417 0.22170 0.32487
 C808 C 0.06433 0.23723 0.32400
 N809 N 0.06903 0.24990 0.31151
 N810 N 0.08295 0.24717 0.30038
 N811 N 0.63813 0.73418 0.75293
 C812 C 0.63525 0.72290 0.76710
 N813 N 0.64671 0.70883 0.76980
 N814 N 0.66063 0.70612 0.75867
 C815 C 0.66362 0.71738 0.74441
 N816 N 0.65206 0.73147 0.74180
 C817 C 0.62025 0.72581 0.77910
 C818 C 0.60766 0.72824 0.78918
 C819 C 0.59267 0.73114 0.80120
 N820 N 0.58809 0.71839 0.81356
 N821 N 0.57418 0.72108 0.82472
 C822 C 0.56433 0.73661 0.82392
 N823 N 0.56901 0.74934 0.81148
 N824 N 0.58292 0.74665 0.80032
 N825 N 0.35272 0.79108 0.77029
 C826 C 0.36412 0.77696 0.76761
 N827 N 0.36120 0.76568 0.75344
 N828 N 0.34729 0.76844 0.74230
 C829 C 0.33579 0.78258 0.74490
 N830 N 0.33881 0.79383 0.75914
 C831 C 0.37911 0.77400 0.77960
 C832 C 0.39171 0.77151 0.78966
 C833 C 0.40671 0.76855 0.80164
 N834 N 0.41643 0.75303 0.80069
 N835 N 0.43037 0.75029 0.81180
 C836 C 0.43510 0.76297 0.82426
 N837 N 0.42528 0.77852 0.82513
 N838 N 0.41134 0.78126 0.81403
 N839 N -0.13862 0.26584 0.25284
 C840 C -0.13575 0.27714 0.26699
 N841 N -0.14718 0.29123 0.26963
 N842 N -0.16108 0.29393 0.25846
 C843 C -0.16410 0.28266 0.24421
 N844 N -0.15253 0.26855 0.24168
 C845 C -0.12077 0.27424 0.27901
 C846 C -0.10819 0.27181 0.28911
 C847 C -0.09321 0.26893 0.30113
 N848 N -0.08346 0.25341 0.30027
 N849 N -0.06955 0.25074 0.31144
 C850 C -0.06488 0.26348 0.32387
 N851 N -0.07473 0.27901 0.32465
 N852 N -0.08864 0.28169 0.31349
 N853 N -0.14695 0.70886 0.23013
 C854 C -0.13552 0.72293 0.23280
 N855 N -0.13843 0.73425 0.24693
 N856 N -0.15236 0.73156 0.25807
 C857 C -0.16393 0.71746 0.25551
 N858 N -0.16088 0.70618 0.24127
 C859 C -0.12052 0.72582 0.22081
 C860 C -0.10792 0.72825 0.21072
 C861 C -0.09293 0.73112 0.19871
 N862 N -0.08319 0.74664 0.19956
 N863 N -0.06928 0.74930 0.18840
 C864 C -0.06459 0.73656 0.17598
 N865 N -0.07442 0.72103 0.17521
 N866 N -0.08834 0.71835 0.18637
 N867 N 0.35308 0.20907 0.73036
 C868 C 0.36446 0.22319 0.73303
 N869 N 0.36150 0.23452 0.74714
 N870 N 0.34756 0.23181 0.75825
 C871 C 0.33603 0.21766 0.75570
 N872 N 0.33914 0.20637 0.74148
 C873 C 0.37948 0.22609 0.72106
 C874 C 0.39210 0.22853 0.71100
 C875 C 0.40712 0.23141 0.69903
 N876 N 0.41688 0.24691 0.69994
 N877 N 0.43082 0.24958 0.68882
 C878 C 0.43553 0.23685 0.67639
 N879 N 0.42568 0.22133 0.67556
 N880 N 0.41173 0.21866 0.68668
 N881 N 0.64722 0.29086 0.73041
 C882 C 0.63581 0.27677 0.73309
 N883 N 0.63874 0.26548 0.74724
 N884 N 0.65266 0.26820 0.75837
 C885 C 0.66421 0.28232 0.75580
 N886 N 0.66115 0.29358 0.74154
 C887 C 0.62081 0.27384 0.72111
 C888 C 0.60821 0.27139 0.71104
 C889 C 0.59320 0.26849 0.69906
 N890 N 0.58345 0.25299 0.69999
 N891 N 0.56952 0.25029 0.68886
 C892 C 0.56482 0.26299 0.67640
 N893 N 0.57468 0.27851 0.67555
 N894 N 0.58861 0.28121 0.68667
 N895 N 0.13851 0.76576 0.24639
 C896 C 0.13559 0.77703 0.23222
 N897 N 0.14699 0.79114 0.22954
 N898 N 0.16089 0.79389 0.24069
 C899 C 0.16391 0.78264 0.25494
 N900 N 0.15241 0.76851 0.25754
 C901 C 0.12061 0.77407 0.22022
 C902 C 0.10801 0.77158 0.21016
 C903 C 0.09301 0.76860 0.19819
 N904 N 0.08836 0.78129 0.18579
 N905 N 0.07442 0.77852 0.17469
 C906 C 0.06461 0.76298 0.17558
 N907 N 0.06937 0.75031 0.18806
 N908 N 0.08331 0.75307 0.19916
 N909 N 0.26994 0.14684 0.20887
 C910 C 0.26724 0.13544 0.22298
 N911 N 0.25308 0.13837 0.23426
 N912 N 0.24195 0.15229 0.23152
 C913 C 0.24456 0.16380 0.21739
 N914 N 0.25880 0.16077 0.20613
 C915 C 0.27923 0.12044 0.22593
 C916 C 0.28929 0.10784 0.22842
 C917 C 0.30126 0.09283 0.23138
 N918 N 0.30029 0.08310 0.24690
 N919 N 0.31140 0.06916 0.24965
 C920 C 0.32389 0.06443 0.23698
 N921 N 0.32478 0.07425 0.22144
 N922 N 0.31367 0.08819 0.21869
 N923 N 0.77016 0.64683 0.70880
 C924 C 0.76747 0.63541 0.72290
 N925 N 0.75329 0.63831 0.73417
 N926 N 0.74214 0.65221 0.73143
 C927 C 0.74474 0.66373 0.71731
 N928 N 0.75900 0.66074 0.70606
 C929 C 0.77948 0.62043 0.72584
 C930 C 0.78955 0.60783 0.72832
 C931 C 0.80153 0.59283 0.73127
 N932 N 0.80058 0.58310 0.74679
 N933 N 0.81170 0.56916 0.74952
 C934 C 0.82417 0.56444 0.73684
 N935 N 0.82505 0.57427 0.72130
 N936 N 0.81393 0.58821 0.71857
 N937 N 0.76988 0.35285 0.79094
 C938 C 0.76717 0.36430 0.77687
 N939 N 0.75300 0.36141 0.76559
 N940 N 0.74187 0.34749 0.76831
 C941 C 0.74449 0.33595 0.78240
 N942 N 0.75874 0.33894 0.79366
 C943 C 0.77916 0.37929 0.77396
 C944 C 0.78924 0.39189 0.77152
 C945 C 0.80124 0.40688 0.76864
 N946 N 0.80037 0.41662 0.75313
 N947 N 0.81152 0.43054 0.75045
 C948 C 0.82395 0.43522 0.76319
 N949 N 0.82474 0.42538 0.77872
 N950 N 0.81360 0.41146 0.78139
 N951 N 0.26956 -0.14717 0.29098
 C952 C 0.26688 -0.13575 0.27689
 N953 N 0.25275 -0.13867 0.26558
 N954 N 0.24162 -0.15260 0.26829
 C955 C 0.24419 -0.16416 0.28240
 N956 N 0.25843 -0.16110 0.29368
 C957 C 0.27886 -0.12075 0.27398
 C958 C 0.28894 -0.10815 0.27156
 C959 C 0.30094 -0.09316 0.26869
 N960 N 0.30008 -0.08341 0.25318
 N961 N 0.31123 -0.06949 0.25051
 C962 C 0.32365 -0.06481 0.26326
 N963 N 0.32443 -0.07465 0.27879
 N964 N 0.31328 -0.08857 0.28146
 N965 N 0.23015 -0.14712 0.70892
 C966 C 0.23285 -0.13571 0.72301
 N967 N 0.24698 -0.13865 0.73431
 N968 N 0.25810 -0.15259 0.73159
 C969 C 0.25552 -0.16414 0.71748
 N970 N 0.24127 -0.16106 0.70621
 C971 C 0.22088 -0.12068 0.72592
 C972 C 0.21083 -0.10806 0.72838
 C973 C 0.19887 -0.09304 0.73131
 N974 N 0.19981 -0.08331 0.74683
 N975 N 0.18870 -0.06936 0.74955
 C976 C 0.17625 -0.06463 0.73686
 N977 N 0.17538 -0.07446 0.72132
 N978 N 0.18649 -0.08841 0.71860
 N979 N 0.73024 0.35315 0.20882
 C980 C 0.73291 0.36459 0.22290
 N981 N 0.74706 0.36171 0.23421
 N982 N 0.75822 0.34779 0.23150
 C983 C 0.75563 0.33625 0.21741
 N984 N 0.74140 0.33924 0.20613
 C985 C 0.72090 0.37958 0.22581
 C986 C 0.71082 0.39218 0.22825
 C987 C 0.69883 0.40718 0.23117
 N988 N 0.69976 0.41693 0.24667
 N989 N 0.68862 0.43086 0.24938
 C990 C 0.67615 0.43555 0.23669
 N991 N 0.67529 0.42570 0.22117
 N992 N 0.68643 0.41177 0.21846
 N993 N 0.74716 0.63852 0.26533
 C994 C 0.73297 0.63566 0.27660
 N995 N 0.73027 0.64712 0.29066
 N996 N 0.74142 0.66103 0.29337
 C997 C 0.75569 0.66399 0.28212
 N998 N 0.75831 0.65243 0.26804
 C999 C 0.72097 0.62068 0.27369
 C1000 C 0.71088 0.60809 0.27126
 C1001 C 0.69888 0.59310 0.26837
 N1002 N 0.68652 0.58852 0.28113
 N1003 N 0.67538 0.57460 0.27845
 C1004 C 0.67618 0.56475 0.26293
 N1005 N 0.68861 0.56943 0.25019
 N1006 N 0.69976 0.58335 0.25286
 N1007 N 0.24735 0.13846 0.76556
 C1008 C 0.23317 0.13558 0.77682
 N1009 N 0.23042 0.14705 0.79086
 N1010 N 0.24154 0.16099 0.79356
 C1011 C 0.25580 0.16397 0.78233
 N1012 N 0.25846 0.15240 0.76827
 C1013 C 0.22120 0.12057 0.77391
 C1014 C 0.21113 0.10796 0.77147
 C1015 C 0.19914 0.09297 0.76859
 N1016 N 0.18678 0.08838 0.78134
 N1017 N 0.17564 0.07446 0.77865
 C1018 C 0.17645 0.06461 0.76313
 N1019 N 0.18889 0.06930 0.75040
 N1020 N 0.20003 0.08322 0.75308
 N1021 N 0.23422 0.25328 0.13809
 C1022 C 0.22294 0.26744 0.13519
 N1023 N 0.20885 0.27014 0.14662
 N1024 N 0.20613 0.25901 0.16054
 C1025 C 0.21739 0.24476 0.16354
 N1026 N 0.23149 0.24214 0.15201
 C1027 C 0.22586 0.27944 0.12019
 C1028 C 0.22830 0.28952 0.10760
 C1029 C 0.23119 0.30154 0.09262
 N1030 N 0.21843 0.31391 0.08805
 N1031 N 0.22111 0.32507 0.07415
 C1032 C 0.23664 0.32428 0.06430
 N1033 N 0.24937 0.31183 0.06896
 N1034 N 0.24670 0.30067 0.08287
 N1035 N 0.73425 0.75319 0.63802
 C1036 C 0.72294 0.76732 0.63510
 N1037 N 0.70882 0.76999 0.64651
 N1038 N 0.70611 0.75884 0.66043
 C1039 C 0.71741 0.74463 0.66345
 N1040 N 0.73154 0.74205 0.65194
 C1041 C 0.72585 0.77932 0.62010
 C1042 C 0.72830 0.78940 0.60751
 C1043 C 0.73121 0.80141 0.59254
 N1044 N 0.71847 0.81378 0.58794
 N1045 N 0.72117 0.82494 0.57403
 C1046 C 0.73672 0.82414 0.56421
 N1047 N 0.74944 0.81170 0.56891
 N1048 N 0.74674 0.80054 0.58281
 N1049 N 0.79140 0.77041 0.35270
 C1050 C 0.77728 0.76776 0.36410
 N1051 N 0.76598 0.75361 0.36118
 N1052 N 0.76873 0.74245 0.34729
 C1053 C 0.78287 0.74501 0.33579
 N1054 N 0.79414 0.75924 0.33880
 C1055 C 0.77433 0.77977 0.37907
 C1056 C 0.77184 0.78984 0.39166
 C1057 C 0.76886 0.80182 0.40666
 N1058 N 0.75332 0.80089 0.41635
 N1059 N 0.75057 0.81200 0.43029
 C1060 C 0.76325 0.82446 0.43504
 N1061 N 0.77881 0.82532 0.42524
 N1062 N 0.78157 0.81420 0.41131
 N1063 N 0.29112 0.27062 -0.14724
 C1064 C 0.27701 0.26794 -0.13583
 N1065 N 0.26576 0.25374 -0.13873
 N1066 N 0.26855 0.24258 -0.15261
 C1067 C 0.28268 0.24518 -0.16411
 N1068 N 0.29390 0.25945 -0.16112
 C1069 C 0.27402 0.27995 -0.12087
 C1070 C 0.27152 0.29003 -0.10829
 C1071 C 0.26854 0.30202 -0.09330
 N1072 N 0.25301 0.30108 -0.08359
 N1073 N 0.25026 0.31220 -0.06966
 C1074 C 0.26294 0.32466 -0.06492
 N1075 N 0.27848 0.32553 -0.07473
 N1076 N 0.28124 0.31441 -0.08867
 N1077 N 0.73428 0.24637 -0.13846
 C1078 C 0.72301 0.23220 -0.13555
 N1079 N 0.70890 0.22952 -0.14696
 N1080 N 0.70615 0.24067 -0.16086
 C1081 C 0.71740 0.25492 -0.16388
 N1082 N 0.73152 0.25752 -0.15237
 C1083 C 0.72597 0.22020 -0.12057
 C1084 C 0.72846 0.21013 -0.10797
 C1085 C 0.73143 0.19815 -0.09298
 N1086 N 0.71872 0.18577 -0.08833
 N1087 N 0.72148 0.17465 -0.07440
 C1088 C 0.73703 0.17550 -0.06461
 N1089 N 0.74972 0.18796 -0.06935
 N1090 N 0.74697 0.19908 -0.08328
 N1091 N 0.20909 0.73012 0.35289
 C1092 C 0.22316 0.73283 0.36434
 N1093 N 0.23442 0.74701 0.36146
 N1094 N 0.23170 0.75815 0.34754
 C1095 C 0.21761 0.75553 0.33599
 N1096 N 0.20637 0.74127 0.33897
 C1097 C 0.22608 0.72084 0.37934
 C1098 C 0.22852 0.71076 0.39194
 C1099 C 0.23141 0.69876 0.40693
 N1100 N 0.24690 0.69968 0.41671
 N1101 N 0.24958 0.68853 0.43063
 C1102 C 0.23688 0.67607 0.43529
 N1103 N 0.22137 0.67523 0.42542
 N1104 N 0.21868 0.68637 0.41149
 N1105 N 0.29057 0.73012 0.64696
 C1106 C 0.27650 0.73284 0.63551
 N1107 N 0.26524 0.74703 0.63840
 N1108 N 0.26797 0.75816 0.65232
 C1109 C 0.28205 0.75552 0.66387
 N1110 N 0.29329 0.74125 0.66088
 C1111 C 0.27358 0.72085 0.62051
 C1112 C 0.27115 0.71078 0.60791
 C1113 C 0.26827 0.69878 0.59292
 N1114 N 0.25277 0.69967 0.58315
 N1115 N 0.25011 0.68853 0.56922
 C1116 C 0.26284 0.67608 0.56455
 N1117 N 0.27835 0.67526 0.57442
 N1118 N 0.28102 0.68640 0.58835
 N1119 N 0.79148 0.22979 0.14690
 C1120 C 0.77740 0.23246 0.13546
 N1121 N 0.76611 0.24663 0.13834
 N1122 N 0.76882 0.25779 0.15224
 C1123 C 0.78292 0.25520 0.16378
 N1124 N 0.79419 0.24095 0.16080
 C1125 C 0.77448 0.22044 0.12049
 C1126 C 0.77202 0.21035 0.10791
 C1127 C 0.76910 0.19835 0.09292
 N1128 N 0.75357 0.19924 0.08320
 N1129 N 0.75087 0.18810 0.06929
 C1130 C 0.76358 0.17565 0.06457
 N1131 N 0.77913 0.17484 0.07439
 N1132 N 0.78184 0.18598 0.08831
 N1133 N 0.48457 0.38824 0.50343
 C1134 C 0.47328 0.38533 0.51759
 N1135 N 0.45919 0.39676 0.52028
 N1136 N 0.45647 0.41068 0.50914
 C1137 C 0.46773 0.41369 0.49490
 N1138 N 0.48185 0.40216 0.49229
 C1139 C 0.47621 0.37034 0.52958
 C1140 C 0.47867 0.35775 0.53966
 C1141 C 0.48158 0.34276 0.55167
 N1142 N 0.46884 0.33818 0.56405
 N1143 N 0.47155 0.32426 0.57520
 C1144 C 0.48708 0.31442 0.57438
 N1145 N 0.49979 0.31910 0.56193
 N1146 N 0.49709 0.33302 0.55077
 N1147 N -0.01589 0.88814 0.00305
 C1148 C -0.02721 0.88520 0.01718
 N1149 N -0.04130 0.89664 0.01988
 N1150 N -0.04398 0.91059 0.00877
 C1151 C -0.03268 0.91363 -0.00544
 N1152 N -0.01858 0.90209 -0.00805
 C1153 C -0.02431 0.87017 0.02914
 C1154 C -0.02187 0.85755 0.03918
 C1155 C -0.01895 0.84253 0.05114
 N1156 N -0.03166 0.83793 0.06354
 N1157 N -0.02893 0.82399 0.07465
 C1158 C -0.01341 0.81414 0.07378
 N1159 N -0.00072 0.81883 0.06130
 N1160 N -0.00344 0.83277 0.05019
 N1161 N 0.04102 0.60248 0.01996
 C1162 C 0.02691 0.61389 0.01728
 N1163 N 0.01563 0.61097 0.00312
 N1164 N 0.01838 0.59705 -0.00801
 C1165 C 0.03251 0.58551 -0.00544
 N1166 N 0.04376 0.58857 0.00882
 C1167 C 0.02397 0.62888 0.02927
 C1168 C 0.02150 0.64148 0.03933
 C1169 C 0.01857 0.65649 0.05131
 N1170 N 0.00302 0.66619 0.05043
 N1171 N 0.00031 0.68013 0.06154
 C1172 C 0.01304 0.68488 0.07395
 N1173 N 0.02860 0.67508 0.07476
 N1174 N 0.03132 0.66114 0.06365
 N1175 N 0.54121 0.10284 0.52041
 C1176 C 0.52709 0.11425 0.51777
 N1177 N 0.51576 0.11134 0.50364
 N1178 N 0.51848 0.09743 0.49249
 C1179 C 0.53262 0.08592 0.49504
 N1180 N 0.54392 0.08894 0.50925
 C1181 C 0.52417 0.12923 0.52978
 C1182 C 0.52172 0.14183 0.53986
 C1183 C 0.51881 0.15683 0.55185
 N1184 N 0.50330 0.16658 0.55093
 N1185 N 0.50061 0.18051 0.56206
 C1186 C 0.51332 0.18520 0.57451
 N1187 N 0.52884 0.17535 0.57535
 N1188 N 0.53154 0.16142 0.56423
 N1189 N -0.04118 0.10362 0.48014
 C1190 C -0.02709 0.11504 0.48281
 N1191 N -0.01578 0.11212 0.49696
 N1192 N -0.01849 0.09820 0.50809
 C1193 C -0.03260 0.08668 0.50549
 N1194 N -0.04388 0.08970 0.49127
 C1195 C -0.02418 0.13004 0.47082
 C1196 C -0.02175 0.14264 0.46075
 C1197 C -0.01886 0.15763 0.44875
 N1198 N -0.03159 0.16220 0.43636
 N1199 N -0.02891 0.17612 0.42521
 C1200 C -0.01339 0.18597 0.42604
 N1201 N -0.00067 0.18130 0.43850
 N1202 N -0.00336 0.16739 0.44965
 N1203 N 0.48427 0.61130 0.99704
 C1204 C 0.47298 0.61422 0.98288
 N1205 N 0.45887 0.60282 0.98022
 N1206 N 0.45613 0.58893 0.99138
 C1207 C 0.46738 0.58588 1.00565
 N1208 N 0.48151 0.59741 1.00820
 C1209 C 0.47593 0.62919 0.97087
 C1210 C 0.47839 0.64177 0.96078
 C1211 C 0.48130 0.65674 0.94876
 N1212 N 0.49683 0.66646 0.94963
 N1213 N 0.49952 0.68037 0.93848
 C1214 C 0.48678 0.68508 0.92605
 N1215 N 0.47124 0.67527 0.92526
 N1216 N 0.46854 0.66136 0.93641
 N1217 N 0.51571 0.88807 0.99701
 C1218 C 0.52699 0.88516 0.98284
 N1219 N 0.54109 0.89657 0.98015
 N1220 N 0.54383 0.91047 0.99130
 C1221 C 0.53257 0.91348 1.00555
 N1222 N 0.51845 0.90197 1.00816
 C1223 C 0.52404 0.87018 0.97083
 C1224 C 0.52157 0.85759 0.96075
 C1225 C 0.51863 0.84260 0.94876
 N1226 N 0.53134 0.83802 0.93635
 N1227 N 0.52861 0.82410 0.92521
 C1228 C 0.51309 0.81426 0.92608
 N1229 N 0.50041 0.81894 0.93856
 N1230 N 0.50313 0.83286 0.94970
 N1231 N 0.04086 0.39744 0.47995
 C1232 C 0.02678 0.38601 0.48265
 N1233 N 0.01555 0.38887 0.49685
 N1234 N 0.01831 0.40275 0.50802
 C1235 C 0.03241 0.41432 0.50544
 N1236 N 0.04361 0.41132 0.49112
 C1237 C 0.02382 0.37105 0.47062
 C1238 C 0.02134 0.35848 0.46053
 C1239 C 0.01840 0.34350 0.44852
 N1240 N 0.00287 0.33379 0.44942
 N1241 N 0.00015 0.31988 0.43828
 C1242 C 0.01285 0.31516 0.42583
 N1243 N 0.02840 0.32497 0.42500
 N1244 N 0.03112 0.33888 0.43614
 N1245 N 0.38849 0.50323 0.48455
 C1246 C 0.38559 0.51740 0.47327
 N1247 N 0.39703 0.52009 0.45919
 N1248 N 0.41095 0.50895 0.45647
 C1249 C 0.41395 0.49470 0.46773
 N1250 N 0.40241 0.49209 0.48183
 C1251 C 0.37059 0.52939 0.47619
 C1252 C 0.35799 0.53946 0.47862
 C1253 C 0.34298 0.55146 0.48151
 N1254 N 0.33841 0.56384 0.46877
 N1255 N 0.32447 0.57497 0.47144
 C1256 C 0.31459 0.57414 0.48695
 N1257 N 0.31927 0.56168 0.49967
 N1258 N 0.33320 0.55055 0.49700
 N1259 N 0.89750 0.01969 -0.04109
 C1260 C 0.88603 0.01697 -0.02704
 N1261 N 0.88889 0.00277 -0.01580
 N1262 N 0.90280 -0.00838 -0.01853
 C1263 C 0.91441 -0.00577 -0.03261
 N1264 N 0.91141 0.00854 -0.04381
 C1265 C 0.87104 0.02897 -0.02411
 C1266 C 0.85844 0.03904 -0.02165
 C1267 C 0.84343 0.05103 -0.01872
 N1268 N 0.83372 0.05012 -0.00318
 N1269 N 0.81978 0.06125 -0.00046
 C1270 C 0.81504 0.07368 -0.01318
 N1271 N 0.82485 0.07451 -0.02873
 N1272 N 0.83879 0.06338 -0.03145
 N1273 N 0.60337 0.01974 0.04132
 C1274 C 0.61479 0.01704 0.02722
 N1275 N 0.61187 0.00289 0.01593
 N1276 N 0.59794 -0.00824 0.01867
 C1277 C 0.58643 -0.00562 0.03278
 N1278 N 0.58945 0.00861 0.04405
 C1279 C 0.62979 0.02902 0.02428
 C1280 C 0.64239 0.03908 0.02181
 C1281 C 0.65740 0.05104 0.01888
 N1282 N 0.66713 0.05010 0.00336
 N1283 N 0.68107 0.06121 0.00064
 C1284 C 0.68579 0.07367 0.01333
 N1285 N 0.67597 0.07453 0.02887
 N1286 N 0.66203 0.06342 0.03160
 N1287 N 0.11151 0.50309 0.51527
 C1288 C 0.11445 0.51721 0.52660
 N1289 N 0.10306 0.51985 0.54074
 N1290 N 0.08916 0.50870 0.54346
 C1291 C 0.08612 0.49450 0.53216
 N1292 N 0.09761 0.49194 0.51800
 C1293 C 0.12943 0.52922 0.52368
 C1294 C 0.14201 0.53931 0.52124
 C1295 C 0.15699 0.55132 0.51835
 N1296 N 0.16154 0.56371 0.53109
 N1297 N 0.17545 0.57486 0.52841
 C1298 C 0.18533 0.57404 0.51290
 N1299 N 0.18068 0.56158 0.50018
 N1300 N 0.16677 0.55042 0.50286
 N1301 N 0.11107 0.49732 -0.01542
 C1302 C 0.11398 0.48317 -0.02671
 N1303 N 0.10255 0.48048 -0.04079
 N1304 N 0.08862 0.49161 -0.04349
 C1305 C 0.08557 0.50587 -0.03224
 N1306 N 0.09713 0.50845 -0.01813
 C1307 C 0.12899 0.47119 -0.02380
 C1308 C 0.14160 0.46112 -0.02138
 C1309 C 0.15661 0.44912 -0.01851
 N1310 N 0.16121 0.43678 -0.03128
 N1311 N 0.17514 0.42565 -0.02863
 C1312 C 0.18499 0.42643 -0.01310
 N1313 N 0.18030 0.43884 -0.00035
 N1314 N 0.16636 0.44998 -0.00300
 N1315 N 0.60272 0.98021 0.45889
 C1316 C 0.61418 0.98290 0.47294
 N1317 N 0.61129 0.99705 0.48424
 N1318 N 0.59735 1.00818 0.48156
 C1319 C 0.58575 1.00560 0.46748
 N1320 N 0.58878 0.99134 0.45622
 C1321 C 0.62920 0.97092 0.47582
 C1322 C 0.64181 0.96086 0.47825
 C1323 C 0.65683 0.94888 0.48115
 N1324 N 0.66655 0.94976 0.49668
 N1325 N 0.68049 0.93863 0.49937
 C1326 C 0.68523 0.92622 0.48663
 N1327 N 0.67541 0.92542 0.47108
 N1328 N 0.66147 0.93654 0.46839
 N1329 N 0.89680 0.98025 0.54116
 C1330 C 0.88536 0.98296 0.52708
 N1331 N 0.88824 0.99714 0.51582
 N1332 N 0.90215 1.00828 0.51856
 C1333 C 0.91370 1.00566 0.53265
 N1334 N 0.91071 0.99139 0.54389
 C1335 C 0.87038 0.97096 0.52413
 C1336 C 0.85779 0.96089 0.52165
 C1337 C 0.84280 0.94891 0.51870
 N1338 N 0.83308 0.94985 0.50317
 N1339 N 0.81916 0.93873 0.50043
 C1340 C 0.81444 0.92625 0.51310
 N1341 N 0.82426 0.92538 0.52864
 N1342 N 0.83818 0.93650 0.53139
 N1343 N 0.39662 0.48043 0.04095
 C1344 C 0.38520 0.48312 0.02685
 N1345 N 0.38813 0.49727 0.01555
 N1346 N 0.40206 0.50839 0.01828
 C1347 C 0.41358 0.50578 0.03239
 N1348 N 0.41055 0.49155 0.04367
 C1349 C 0.37020 0.47115 0.02392
 C1350 C 0.35760 0.46109 0.02146
 C1351 C 0.34259 0.44911 0.01855
 N1352 N 0.33282 0.45006 0.00306
 N1353 N 0.31889 0.43893 0.00036
 C1354 C 0.31423 0.42645 0.01304
 N1355 N 0.32410 0.42557 0.02855
 N1356 N 0.33802 0.43669 0.03126
 N1357 N 0.52034 0.45898 0.39702
 C1358 C 0.51765 0.47308 0.38560
 N1359 N 0.50349 0.48437 0.38852
 N1360 N 0.49235 0.48164 0.40244
 C1361 C 0.49495 0.46752 0.41395
 N1362 N 0.50920 0.45625 0.41093
 C1363 C 0.52964 0.47602 0.37061
 C1364 C 0.53971 0.47849 0.35801
 C1365 C 0.55168 0.48143 0.34300
 N1366 N 0.55075 0.49695 0.33328
 N1367 N 0.56186 0.49968 0.31934
 C1368 C 0.57431 0.48697 0.31460
 N1369 N 0.57516 0.47143 0.32442
 N1370 N 0.56405 0.46870 0.33836
 N1371 N 0.00339 -0.01546 0.88847
 C1372 C 0.01754 -0.02676 0.88555
 N1373 N 0.02018 -0.04090 0.89694
 N1374 N 0.00901 -0.04364 0.91083
 C1375 C -0.00522 -0.03236 0.91384
 N1376 N -0.00778 -0.01820 0.90236
 C1377 C 0.02956 -0.02382 0.87058
 C1378 C 0.03966 -0.02137 0.85801
 C1379 C 0.05168 -0.01846 0.84303
 N1380 N 0.06405 -0.03121 0.83843
 N1381 N 0.07520 -0.02851 0.82452
 C1382 C 0.07440 -0.01297 0.81469
 N1383 N 0.06196 -0.00024 0.81938
 N1384 N 0.05080 -0.00294 0.83330
 N1385 N 0.00333 0.01591 0.61176
 C1386 C 0.01749 0.02719 0.61466
 N1387 N 0.02015 0.04130 0.60325
 N1388 N 0.00899 0.04404 0.58936
 C1389 C -0.00526 0.03278 0.58636
 N1390 N -0.00784 0.01866 0.59787
 C1391 C 0.02951 0.02423 0.62963
 C1392 C 0.03961 0.02176 0.64221
 C1393 C 0.05162 0.01883 0.65718
 N1394 N 0.06403 0.03154 0.66175
 N1395 N 0.07518 0.02882 0.67566
 C1396 C 0.07434 0.01329 0.68551
 N1397 N 0.06186 0.00061 0.68084
 N1398 N 0.05071 0.00332 0.66693
 N1399 N 0.50313 0.51600 0.11158
 C1400 C 0.51732 0.52725 0.11446
 N1401 N 0.52004 0.54132 0.10302
 N1402 N 0.50889 0.54406 0.08911
 C1403 C 0.49462 0.53284 0.08612
 N1404 N 0.49199 0.51875 0.09767
 C1405 C 0.52932 0.52430 0.12945
 C1406 C 0.53940 0.52183 0.14204
 C1407 C 0.55141 0.51890 0.15702
 N1408 N 0.56378 0.53162 0.16162
 N1409 N 0.57493 0.52890 0.17554
 C1410 C 0.57411 0.51336 0.18536
 N1411 N 0.56165 0.50066 0.18066
 N1412 N 0.55051 0.50338 0.16675
 N1413 N 0.48003 -0.04130 0.10348
 C1414 C 0.48272 -0.02722 0.11492
 N1415 N 0.49689 -0.01594 0.11203
 N1416 N 0.50803 -0.01867 0.09811
 C1417 C 0.50543 -0.03277 0.08657
 N1418 N 0.49118 -0.04402 0.08957
 C1419 C 0.47072 -0.02429 0.12991
 C1420 C 0.46063 -0.02184 0.14250
 C1421 C 0.44861 -0.01893 0.15748
 N1422 N 0.44952 -0.00343 0.16724
 N1423 N 0.43836 -0.00073 0.18115
 C1424 C 0.42588 -0.01343 0.18581
 N1425 N 0.42505 -0.02894 0.17594
 N1426 N 0.43621 -0.03165 0.16204
 N1427 N 0.99685 0.48393 0.61161
 C1428 C 0.98269 0.47265 0.61452
 N1429 N 0.97997 0.45859 0.60307
 N1430 N 0.99108 0.45589 0.58912
 C1431 C 1.00531 0.46716 0.58610
 N1432 N 1.00795 0.48123 0.59766
 C1433 C 0.97073 0.47555 0.62955
 C1434 C 0.96067 0.47800 0.64217
 C1435 C 0.94871 0.48093 0.65718
 N1436 N 0.93632 0.46822 0.66180
 N1437 N 0.92520 0.47094 0.67573
 C1438 C 0.92606 0.48647 0.68557
 N1439 N 0.93852 0.49916 0.68086
 N1440 N 0.94964 0.49644 0.66692
 N1441 N 0.97984 0.54090 0.89724
 C1442 C 0.98255 0.52681 0.88581
 N1443 N 0.99674 0.51555 0.88872
 N1444 N 1.00787 0.51830 0.90263
 C1445 C 1.00524 0.53240 0.91416
 N1446 N 0.99098 0.54364 0.91115
 C1447 C 0.97057 0.52387 0.87082
 C1448 C 0.96050 0.52139 0.85822
 C1449 C 0.94853 0.51846 0.84321
 N1450 N 0.94944 0.50292 0.83351
 N1451 N 0.93832 0.50021 0.81957
 C1452 C 0.92590 0.51292 0.81482
 N1453 N 0.92506 0.52848 0.82462
 N1454 N 0.93618 0.53120 0.83856
 N1455 N 0.47980 0.04068 0.39729
 C1456 C 0.48248 0.02660 0.38584
 N1457 N 0.49667 0.01533 0.38869
 N1458 N 0.50785 0.01806 0.40258
 C1459 C 0.50525 0.03216 0.41412
 N1460 N 0.49098 0.04340 0.41117
 C1461 C 0.47045 0.02367 0.37088
 C1462 C 0.46035 0.02121 0.35830
 C1463 C 0.44834 0.01830 0.34332
 N1464 N 0.44922 0.00277 0.33360
 N1465 N 0.43808 0.00007 0.31968
 C1466 C 0.42564 0.01280 0.31498
 N1467 N 0.42483 0.02834 0.32480
 N1468 N 0.43597 0.03104 0.33872
   
