data_POSCAR
  _audit_creation_date              2014-09-24
  _audit_creation_method            'ToBaCCo'
  _symmetry_space_group_name_H-M    'P1'
  _symmetry_Int_Tables_number       1
  _symmetry_cell_setting            triclinic
  loop_
  _symmetry_equiv_pos_as_xyz
 x,y,z
_cell_length_a 69.4382
_cell_length_b 69.4232
_cell_length_c 69.4295
_cell_angle_alpha 90.220700
_cell_angle_beta 89.821700
_cell_angle_gamma 90.645300
loop_
  _atom_site_label
  _atom_site_type_symbol
  _atom_site_fract_x
  _atom_site_fract_y
  _atom_site_fract_z
C1 C 0.72530 0.66785 0.98743
 H2 H 0.73629 0.67679 0.99406
 C3 C 0.70969 0.67636 0.97803
 H4 H 0.70880 0.69191 0.97741
 C5 C 0.71297 0.63670 0.98010
 H6 H 0.71439 0.62123 0.98098
 C7 C 0.69739 0.64451 0.97054
 H8 H 0.68683 0.63481 0.96420
 N9 N 0.72668 0.64832 0.98803
 C10 C 0.76827 0.64621 1.03139
 H11 H 0.76023 0.63503 1.03867
 C12 C 0.78268 0.65600 1.04141
 H13 H 0.78510 0.65230 1.05634
 C14 C 0.77560 0.66361 1.00297
 H15 H 0.77296 0.66617 0.98785
 C16 C 0.79039 0.67372 1.01249
 H17 H 0.79899 0.68414 1.00460
 Zn18 Zn 0.74676 0.63424 0.99938
 N19 N 0.76497 0.65006 1.01250
 C20 C 0.77346 0.60726 0.98383
 N21 N 0.75981 0.62050 0.97961
 C22 C 0.75568 0.62499 0.96103
 C23 C 0.76492 0.61568 0.94586
 C24 C 0.78300 0.59743 0.96901
 C25 C 0.72354 0.62703 1.03072
 C26 C 0.71468 0.61694 1.04565
 C27 C 0.72750 0.58746 1.03245
 C28 C 0.73627 0.59825 1.01777
 N29 N 0.73451 0.61773 1.01748
 H30 H 0.77692 0.60431 0.99871
 H31 H 0.74537 0.63604 0.95785
 H32 H 0.76122 0.61951 0.93124
 H33 H 0.79368 0.58681 0.97264
 H34 H 0.72215 0.64252 1.02995
 H35 H 0.70645 0.62504 1.05613
 H36 H 0.72946 0.57200 1.03249
 H37 H 0.74462 0.59105 1.00681
 C38 C 0.79422 0.66975 1.03195
 C39 C 0.69561 0.66457 0.96924
 C40 C 0.71677 0.59681 1.04701
 C41 C 0.77870 0.60159 0.94969
 C42 C 0.72109 0.33546 0.50972
 H43 H 0.73238 0.32702 0.50320
 C44 C 0.70599 0.32626 0.51967
 H45 H 0.70577 0.31071 0.52082
 C46 C 0.70772 0.36601 0.51656
 H47 H 0.70863 0.38153 0.51542
 C48 C 0.69262 0.35752 0.52670
 H49 H 0.68185 0.36669 0.53317
 N50 N 0.72183 0.35503 0.50879
 C51 C 0.76475 0.35853 0.46649
 H52 H 0.75689 0.36945 0.45893
 C53 C 0.77972 0.34925 0.45703
 H54 H 0.78279 0.35301 0.44220
 C55 C 0.77101 0.34134 0.49516
 H56 H 0.76776 0.33872 0.51017
 C57 C 0.78624 0.33168 0.48620
 H58 H 0.79457 0.32153 0.49443
 Zn59 Zn 0.74205 0.36981 0.49793
 N60 N 0.76070 0.35457 0.48524
 C61 C 0.76874 0.39674 0.51423
 N62 N 0.75457 0.38360 0.51810
 C63 C 0.74978 0.37908 0.53657
 C64 C 0.75892 0.38820 0.55197
 C65 C 0.77825 0.40633 0.52929
 C66 C 0.71977 0.37700 0.46611
 C67 C 0.71120 0.38724 0.45128
 C68 C 0.72373 0.41671 0.46529
 C69 C 0.73219 0.40582 0.47988
 N70 N 0.73039 0.38628 0.47976
 H71 H 0.77270 0.39970 0.49945
 H72 H 0.73906 0.36810 0.53950
 H73 H 0.75473 0.38430 0.56649
 H74 H 0.78942 0.41680 0.52594
 H75 H 0.71836 0.36147 0.46653
 H76 H 0.70315 0.37940 0.44041
 H77 H 0.72560 0.43221 0.46536
 H78 H 0.74034 0.41298 0.49109
 C79 C 0.79093 0.33585 0.46693
 C80 C 0.69178 0.33743 0.52870
 C81 C 0.71331 0.40735 0.45056
 C82 C 0.77333 0.40208 0.54850
 C83 C 0.23250 -0.14576 0.03570
 H84 H 0.24356 -0.13782 0.04335
 C85 C 0.21946 -0.15717 0.04602
 H86 H 0.22054 -0.15767 0.06157
 C87 C 0.21765 -0.15465 0.00628
 H88 H 0.21680 -0.15346 -0.00918
 C89 C 0.20439 -0.16639 0.01603
 H90 H 0.19343 -0.17402 0.00788
 N91 N 0.23098 -0.14415 0.01624
 C92 C 0.27686 -0.12702 -0.02291
 H93 H 0.27317 -0.11204 -0.02477
 C94 C 0.29186 -0.13491 -0.03357
 H95 H 0.29968 -0.12579 -0.04358
 C96 C 0.27095 -0.15691 -0.00745
 H97 H 0.26267 -0.16535 0.00276
 C98 C 0.28599 -0.16541 -0.01779
 H99 H 0.28919 -0.18044 -0.01543
 Zn100 Zn 0.24674 -0.12569 0.00334
 N101 N 0.26683 -0.13800 -0.01011
 C102 C 0.27684 -0.10628 0.02322
 N103 N 0.25739 -0.10839 0.02190
 C104 C 0.24544 -0.09953 0.03466
 C105 C 0.25301 -0.08869 0.04992
 C106 C 0.28499 -0.09524 0.03800
 C107 C 0.22805 -0.12195 -0.03182
 C108 C 0.21844 -0.11292 -0.04683
 C109 C 0.21722 -0.08392 -0.02753
 C110 C 0.22694 -0.09358 -0.01287
 N111 N 0.23206 -0.11229 -0.01524
 H112 H 0.28616 -0.11358 0.01316
 H113 H 0.23002 -0.10158 0.03343
 H114 H 0.24330 -0.08220 0.06025
 H115 H 0.30052 -0.09411 0.03899
 H116 H 0.23280 -0.13662 -0.03364
 H117 H 0.21571 -0.12115 -0.05985
 H118 H 0.21345 -0.06900 -0.02518
 H119 H 0.23056 -0.08601 0.00025
 C120 C 0.29669 -0.15433 -0.03105
 C121 C 0.20484 -0.16727 0.03623
 C122 C 0.21291 -0.09351 -0.04500
 C123 C 0.27305 -0.08662 0.05183
 C124 C 0.22364 0.16374 0.49496
 H125 H 0.23473 0.17222 0.50201
 C126 C 0.20858 0.17292 0.48534
 H127 H 0.20821 0.18850 0.48495
 C128 C 0.21056 0.13312 0.48675
 H129 H 0.21150 0.11759 0.48733
 C130 C 0.19552 0.14160 0.47688
 H131 H 0.18485 0.13239 0.47003
 N132 N 0.22445 0.14416 0.49516
 C133 C 0.26591 0.14081 0.53849
 H134 H 0.25782 0.12956 0.54564
 C135 C 0.28037 0.15044 0.54860
 H136 H 0.28283 0.14658 0.56347
 C137 C 0.27319 0.15856 0.51028
 H138 H 0.27051 0.16132 0.49521
 C139 C 0.28797 0.16857 0.51990
 H140 H 0.29653 0.17911 0.51211
 Zn141 Zn 0.24420 0.12951 0.50636
 N142 N 0.26256 0.14492 0.51968
 C143 C 0.27087 0.10267 0.49050
 N144 N 0.25718 0.11591 0.48642
 C145 C 0.25309 0.12064 0.46789
 C146 C 0.26243 0.11160 0.45262
 C147 C 0.28055 0.09314 0.47557
 C148 C 0.22075 0.12216 0.53749
 C149 C 0.21174 0.11198 0.55228
 C150 C 0.22457 0.08256 0.53901
 C151 C 0.23346 0.09339 0.52442
 N152 N 0.23173 0.11290 0.52422
 H153 H 0.27430 0.09953 0.50534
 H154 H 0.24277 0.13171 0.46481
 H155 H 0.25878 0.11566 0.43805
 H156 H 0.29131 0.08256 0.47908
 H157 H 0.21944 0.13766 0.53684
 H158 H 0.20344 0.11982 0.56288
 H159 H 0.22642 0.06710 0.53922
 H160 H 0.24191 0.08624 0.51350
 C161 C 0.29185 0.16434 0.53929
 C162 C 0.19447 0.16174 0.47586
 C163 C 0.21381 0.09193 0.55339
 C164 C 0.27632 0.09758 0.45630
 C165 C 0.16079 0.48693 0.22379
 H166 H 0.16913 0.49460 0.23452
 C167 C 0.17016 0.47703 0.20890
 H168 H 0.18575 0.47703 0.20835
 C169 C 0.13034 0.47753 0.21132
 H170 H 0.11480 0.47781 0.21242
 C171 C 0.13904 0.46734 0.19645
 H172 H 0.13001 0.45989 0.18607
 N173 N 0.14121 0.48667 0.22485
 C174 C 0.13883 0.53082 0.26584
 H175 H 0.12759 0.53803 0.25809
 C176 C 0.14912 0.54099 0.27980
 H177 H 0.14575 0.55599 0.28227
 C178 C 0.15602 0.50239 0.27272
 H179 H 0.15834 0.48723 0.27005
 C180 C 0.16670 0.51207 0.28692
 H181 H 0.17729 0.50423 0.29508
 Zn182 Zn 0.12665 0.49842 0.24459
 N183 N 0.14240 0.51188 0.26251
 C184 C 0.09946 0.48365 0.27179
 N185 N 0.11270 0.47897 0.25810
 C186 C 0.11712 0.46026 0.25448
 C187 C 0.10777 0.44540 0.26432
 C188 C 0.08959 0.46916 0.28193
 C189 C 0.11982 0.52938 0.22108
 C190 C 0.10980 0.54408 0.21209
 C191 C 0.08017 0.53083 0.22502
 C192 C 0.09084 0.51635 0.23390
 N193 N 0.11036 0.51619 0.23213
 H194 H 0.09658 0.49863 0.27485
 H195 H 0.12819 0.45672 0.24415
 H196 H 0.11158 0.43067 0.26106
 H197 H 0.07902 0.47316 0.29267
 H198 H 0.13532 0.52875 0.21971
 H199 H 0.11778 0.55463 0.20373
 H200 H 0.06470 0.53103 0.22693
 H201 H 0.08353 0.50548 0.24237
 C202 C 0.16315 0.53162 0.29072
 C203 C 0.15920 0.46678 0.19521
 C204 C 0.08973 0.54515 0.21422
 C205 C 0.09372 0.44971 0.27821
 C206 C -0.12977 0.01812 0.21482
 H207 H -0.11429 0.01744 0.21636
 C208 C -0.13761 0.02716 0.19893
 H209 H -0.12781 0.03329 0.18838
 C210 C -0.16084 0.01078 0.22713
 H211 H -0.16973 0.00433 0.23823
 C212 C -0.16943 0.01967 0.21124
 H213 H -0.18499 0.01999 0.21033
 N214 N -0.14132 0.01042 0.22864
 C215 C -0.13874 -0.03243 0.27061
 H216 H -0.12777 -0.03970 0.26242
 C217 C -0.14798 -0.04232 0.28542
 H218 H -0.14412 -0.05715 0.28800
 C219 C -0.15606 -0.00411 0.27790
 H220 H -0.15874 0.01094 0.27513
 C221 C -0.16565 -0.01351 0.29305
 H222 H -0.17580 -0.00559 0.30180
 Zn223 Zn -0.12712 -0.00043 0.24894
 N224 N -0.14273 -0.01363 0.26718
 C225 C -0.11809 0.03818 0.25745
 N226 N -0.11364 0.01971 0.26195
 C227 C -0.10086 0.01579 0.27619
 C228 C -0.09161 0.03084 0.28614
 C229 C -0.10932 0.05357 0.26705
 C230 C -0.11969 -0.03151 0.22570
 C231 C -0.10957 -0.04632 0.21688
 C232 C -0.08021 -0.03337 0.23060
 C233 C -0.09099 -0.01874 0.23929
 N234 N -0.11044 -0.01837 0.23702
 H235 H -0.12876 0.04112 0.24662
 H236 H -0.09794 0.00099 0.27990
 H237 H -0.08145 0.02746 0.29740
 H238 H -0.11317 0.06810 0.26312
 H239 H -0.13514 -0.03072 0.22395
 H240 H -0.11742 -0.05679 0.20827
 H241 H -0.06480 -0.03373 0.23286
 H242 H -0.08384 -0.00792 0.24801
 C243 C -0.16134 -0.03281 0.29717
 C244 C -0.15773 0.02823 0.19690
 C245 C -0.08959 -0.04761 0.21948
 C246 C -0.09585 0.05006 0.28161
 C247 C 0.33283 0.51344 0.72407
 H248 H 0.32345 0.50685 0.73468
 C249 C 0.32499 0.52285 0.70808
 H250 H 0.30950 0.52352 0.70650
 C251 C 0.36445 0.52065 0.71311
 H252 H 0.37985 0.51972 0.71520
 C253 C 0.35733 0.53023 0.69719
 H254 H 0.36746 0.53652 0.68706
 N255 N 0.35228 0.51279 0.72631
 C256 C 0.35279 0.46907 0.76742
 H257 H 0.36384 0.46184 0.75932
 C258 C 0.34298 0.45889 0.78166
 H259 H 0.34653 0.44391 0.78387
 C260 C 0.33578 0.49746 0.77513
 H261 H 0.33342 0.51264 0.77273
 C262 C 0.32566 0.48778 0.78977
 H263 H 0.31543 0.49561 0.79851
 Zn264 Zn 0.36559 0.50141 0.74694
 N265 N 0.34922 0.48804 0.76444
 C266 C 0.37473 0.53979 0.75630
 N267 N 0.37887 0.52121 0.76070
 C268 C 0.39132 0.51702 0.77515
 C269 C 0.40068 0.53187 0.78531
 C270 C 0.38359 0.55498 0.76611
 C271 C 0.37355 0.47064 0.72340
 C272 C 0.38377 0.45562 0.71504
 C273 C 0.41265 0.46785 0.73034
 C274 C 0.40178 0.48268 0.73853
 N275 N 0.38248 0.48346 0.73532
 H276 H 0.36428 0.54297 0.74532
 H277 H 0.39397 0.50216 0.77881
 H278 H 0.41064 0.52827 0.79667
 H279 H 0.38004 0.56959 0.76218
 H280 H 0.35823 0.47175 0.72091
 H281 H 0.37614 0.44534 0.70602
 H282 H 0.42789 0.46710 0.73343
 H283 H 0.40871 0.49326 0.74769
 C284 C 0.32950 0.46827 0.79338
 C285 C 0.33737 0.53161 0.69453
 C286 C 0.40352 0.45383 0.71874
 C287 C 0.39685 0.55118 0.78078
 C288 C 0.66525 0.98897 0.72739
 H289 H 0.67342 0.99627 0.73852
 C290 C 0.67486 0.97918 0.71257
 H291 H 0.69044 0.97894 0.71242
 C292 C 0.63501 0.98023 0.71402
 H293 H 0.61945 0.98066 0.71477
 C294 C 0.64392 0.97020 0.69918
 H295 H 0.63504 0.96305 0.68847
 N296 N 0.64566 0.98894 0.72799
 C297 C 0.64156 1.03202 0.77013
 H298 H 0.63041 1.03921 0.76221
 C299 C 0.65091 1.04190 0.78492
 H300 H 0.64688 1.05668 0.78773
 C301 C 0.65927 1.00385 0.77662
 H302 H 0.66210 0.98886 0.77352
 C303 C 0.66906 1.01323 0.79164
 H304 H 0.67951 1.00526 0.79987
 Zn305 Zn 0.63065 1.00004 0.74774
 N306 N 0.64577 1.01333 0.76628
 C307 C 0.60357 0.98433 0.77436
 N308 N 0.61686 0.98008 0.76059
 C309 C 0.62139 0.96150 0.75646
 C310 C 0.61204 0.94634 0.76584
 C311 C 0.59372 0.96954 0.78404
 C312 C 0.62331 1.03148 0.72488
 C313 C 0.61293 1.04608 0.71613
 C314 C 0.58358 1.03163 0.72842
 C315 C 0.59459 1.01727 0.73705
 N316 N 0.61413 1.01774 0.73549
 H317 H 0.60062 0.99921 0.77782
 H318 H 0.63251 0.95831 0.74608
 H319 H 0.61591 0.93171 0.76217
 H320 H 0.58308 0.97320 0.79484
 H321 H 0.63884 1.03134 0.72367
 H322 H 0.62067 1.05707 0.70813
 H323 H 0.56808 1.03130 0.73016
 H324 H 0.58752 1.00598 0.74516
 C325 C 0.66469 1.03249 0.79622
 C326 C 0.66409 0.96932 0.69845
 C327 C 0.59281 1.04649 0.71807
 C328 C 0.59792 0.95021 0.77977
 C329 C 0.02934 0.23017 -0.14458
 H330 H 0.03699 0.23840 -0.13380
 C331 C 0.03893 0.21549 -0.15416
 H332 H 0.05391 0.21306 -0.15074
 C333 C 0.00041 0.22262 -0.16108
 H334 H -0.01474 0.22525 -0.16332
 C335 C 0.00950 0.20758 -0.17099
 H336 H 0.00123 0.19878 -0.18095
 N337 N 0.01039 0.23343 -0.14802
 C338 C -0.02067 0.28578 -0.13430
 H339 H -0.01914 0.28451 -0.11886
 C340 C -0.03039 0.30133 -0.14196
 H341 H -0.03614 0.31203 -0.13219
 C342 C -0.01499 0.27302 -0.16551
 H343 H -0.00901 0.26184 -0.17451
 C344 C -0.02462 0.28856 -0.17387
 H345 H -0.02605 0.28921 -0.18938
 Zn346 Zn -0.00223 0.25164 -0.13208
 N347 N -0.01351 0.27187 -0.14600
 C348 C 0.02931 0.27494 -0.12516
 N349 N 0.01627 0.26361 -0.11577
 C350 C 0.01710 0.26120 -0.09635
 C351 C 0.03216 0.26965 -0.08579
 C352 C 0.04454 0.28354 -0.11524
 C353 C -0.01793 0.22457 -0.10523
 C354 C -0.03280 0.21486 -0.09546
 C355 C -0.05582 0.23361 -0.11319
 C356 C -0.04057 0.24299 -0.12239
 N357 N -0.02204 0.23859 -0.11815
 H358 H 0.02814 0.27681 -0.14058
 H359 H 0.00636 0.25251 -0.08907
 H360 H 0.03290 0.26722 -0.07042
 H361 H 0.05496 0.29211 -0.12319
 H362 H -0.00309 0.22089 -0.10252
 H363 H -0.02901 0.20389 -0.08513
 H364 H -0.07033 0.23765 -0.11705
 H365 H -0.04368 0.25362 -0.13321
 C366 C -0.03271 0.30281 -0.16196
 C367 C 0.02897 0.20368 -0.16730
 C368 C -0.05221 0.21931 -0.09933
 C369 C 0.04634 0.28070 -0.09533
 C370 C 0.49640 0.22200 0.15646
 H371 H 0.51147 0.22508 0.15911
 C372 C 0.48693 0.20735 0.16674
 H373 H 0.49482 0.19928 0.17737
 C374 C 0.46806 0.22819 0.13873
 H375 H 0.46082 0.23582 0.12740
 C376 C 0.45810 0.21380 0.14861
 H377 H 0.44321 0.21092 0.14487
 N378 N 0.48687 0.23205 0.14273
 C379 C 0.51995 0.28419 0.13057
 H380 H 0.51935 0.28295 0.11504
 C381 C 0.52995 0.29946 0.13899
 H382 H 0.53689 0.31000 0.12977
 C383 C 0.51161 0.27166 0.16123
 H384 H 0.50446 0.26070 0.16976
 C385 C 0.52136 0.28696 0.17035
 H386 H 0.52175 0.28763 0.18593
 Zn387 Zn 0.50007 0.25029 0.12714
 N388 N 0.51143 0.27045 0.14166
 C389 C 0.46878 0.27301 0.11992
 N390 N 0.48215 0.26226 0.11059
 C391 C 0.48215 0.26061 0.09105
 C392 C 0.46771 0.26938 0.08021
 C393 C 0.45412 0.28187 0.10973
 C394 C 0.53843 0.24143 0.11829
 C395 C 0.55359 0.23198 0.10926
 C396 C 0.53043 0.21366 0.09065
 C397 C 0.51562 0.22343 0.10019
 N398 N 0.51986 0.23728 0.11349
 H399 H 0.46930 0.27430 0.13544
 H400 H 0.49317 0.25238 0.08385
 H401 H 0.46767 0.26764 0.06471
 H402 H 0.44347 0.29003 0.11762
 H403 H 0.54162 0.25188 0.12941
 H404 H 0.56820 0.23567 0.11338
 H405 H 0.52679 0.20278 0.08002
 H406 H 0.50074 0.21994 0.09701
 C407 C 0.53099 0.30089 0.15913
 C408 C 0.46754 0.20296 0.16267
 C409 C 0.54975 0.21794 0.09517
 C410 C 0.45326 0.27994 0.08962
 C411 C 0.99629 0.72094 0.65924
 H412 H 1.00254 0.73216 0.66814
 C413 C 0.98638 0.70548 0.66781
 H414 H 0.98500 0.70498 0.68334
 C415 C 0.99029 0.70795 0.62818
 H416 H 0.99179 0.70912 0.61271
 C417 C 0.98025 0.69244 0.63606
 H418 H 0.97419 0.68166 0.62646
 N419 N 0.99768 0.72201 0.63971
 C420 C 1.04035 0.76468 0.64007
 H421 H 1.04843 0.75719 0.62913
 C422 C 1.04953 0.77894 0.65091
 H423 H 1.06464 0.78190 0.64823
 C424 C 1.01075 0.77061 0.65595
 H425 H 0.99553 0.76748 0.65752
 C426 C 1.01939 0.78514 0.66711
 H427 H 1.01071 0.79307 0.67733
 Zn428 Zn 1.00919 0.74265 0.62609
 N429 N 1.02130 0.76075 0.64271
 C430 C 0.99429 0.77033 0.59999
 N431 N 0.98973 0.75561 0.61214
 C432 C 0.97106 0.75056 0.61557
 C433 C 0.95615 0.76007 0.60638
 C434 C 0.97974 0.78022 0.59033
 C435 C 1.04134 0.72070 0.61880
 C436 C 1.05650 0.71261 0.60852
 C437 C 1.04341 0.72600 0.57935
 C438 C 1.02848 0.73398 0.59028
 N439 N 1.02798 0.73154 0.60971
 H440 H 1.00921 0.77446 0.59788
 H441 H 0.96757 0.73933 0.62574
 H442 H 0.94144 0.75569 0.60941
 H443 H 0.98363 0.79186 0.58069
 H444 H 1.04042 0.71876 0.63424
 H445 H 1.06714 0.70437 0.61621
 H446 H 1.04380 0.72838 0.56395
 H447 H 1.01749 0.74227 0.58324
 C448 C 1.03903 0.78960 0.66448
 C449 C 0.97792 0.69116 0.65611
 C450 C 1.05785 0.71540 0.58855
 C451 C 0.96034 0.77511 0.59352
 C452 C 0.51149 0.72877 0.33592
 H453 H 0.49629 0.73149 0.33417
 C454 C 0.52027 0.71402 0.32531
 H455 H 0.51171 0.70554 0.31531
 C456 C 0.54086 0.73571 0.35189
 H457 H 0.54881 0.74357 0.36273
 C458 C 0.55016 0.72133 0.34158
 H459 H 0.56521 0.71875 0.34454
 N460 N 0.52183 0.73911 0.34908
 C461 C 0.49188 0.79137 0.36555
 H462 H 0.49369 0.78949 0.38089
 C463 C 0.48253 0.80751 0.35869
 H464 H 0.47734 0.81791 0.36908
 C465 C 0.49653 0.77961 0.33381
 H466 H 0.50201 0.76859 0.32428
 C467 C 0.48719 0.79570 0.32621
 H468 H 0.48558 0.79686 0.31075
 Zn469 Zn 0.50957 0.75667 0.36604
 N470 N 0.49840 0.77770 0.35321
 C471 C 0.54146 0.77928 0.37402
 N472 N 0.52832 0.76756 0.38280
 C473 C 0.52915 0.76410 0.40205
 C474 C 0.54423 0.77189 0.41306
 C475 C 0.55674 0.78724 0.38439
 C476 C 0.49401 0.72808 0.39125
 C477 C 0.47921 0.71783 0.40057
 C478 C 0.45609 0.73829 0.38505
 C479 C 0.47125 0.74818 0.37622
 N480 N 0.48981 0.74312 0.37954
 H481 H 0.54030 0.78200 0.35874
 H482 H 0.51834 0.75509 0.40885
 H483 H 0.54492 0.76866 0.42828
 H484 H 0.56722 0.79617 0.37692
 H485 H 0.50884 0.72397 0.39328
 H486 H 0.48282 0.70594 0.40988
 H487 H 0.44148 0.74267 0.38210
 H488 H 0.46804 0.75972 0.36640
 C489 C 0.47980 0.80988 0.33876
 C490 C 0.53981 0.70993 0.32838
 C491 C 0.45991 0.72290 0.39746
 C492 C 0.55847 0.78337 0.40413
 C493 C 0.35917 -0.00321 0.22987
 C494 C 0.36763 0.00712 0.24517
 C495 C 0.37608 0.02527 0.24171
 C496 C 0.37611 0.03315 0.22314
 C497 C 0.36762 0.02266 0.20801
 C498 C 0.35913 0.00450 0.21119
 C499 C 0.36790 -0.00107 0.26478
 C500 C 0.37626 -0.01909 0.26802
 C501 C 0.37741 -0.02657 0.28675
 C502 C 0.36958 -0.01596 0.30214
 C503 C 0.36099 0.00200 0.29915
 C504 C 0.36034 0.00941 0.28037
 H505 H 0.35269 -0.01723 0.23253
 H506 H 0.38264 0.03319 0.25351
 H507 H 0.38231 -0.02698 0.25599
 H508 H 0.35394 0.02332 0.27776
 H509 H 0.36762 0.02867 0.19364
 H510 H 0.37027 -0.02167 0.31660
 C511 C 0.13204 1.00236 0.72978
 C512 C 0.12402 0.99227 0.74544
 C513 C 0.11755 0.97320 0.74283
 C514 C 0.11941 0.96406 0.72488
 C515 C 0.12791 0.97416 0.70951
 C516 C 0.13416 0.99335 0.71173
 C517 C 0.12311 1.00138 0.76473
 C518 C 0.11531 1.01982 0.76707
 C519 C 0.11518 1.02878 0.78523
 C520 C 0.12304 1.01913 0.80108
 C521 C 0.13069 1.00057 0.79907
 C522 C 0.13058 0.99179 0.78079
 H523 H 0.13713 1.01702 0.73185
 H524 H 0.11121 0.96545 0.75484
 H525 H 0.10945 1.02718 0.75470
 H526 H 0.13672 0.97764 0.77888
 H527 H 0.12926 0.96714 0.69562
 H528 H 0.12291 1.02601 0.81511
 C529 C 0.63799 0.50765 0.22277
 C530 C 0.63011 0.49748 0.23844
 C531 C 0.62350 0.47845 0.23576
 C532 C 0.62490 0.46950 0.21764
 C533 C 0.63327 0.47975 0.20227
 C534 C 0.63979 0.49881 0.20463
 C535 C 0.62939 0.50658 0.25776
 C536 C 0.62207 0.52522 0.26007
 C537 C 0.62240 0.53431 0.27816
 C538 C 0.63022 0.52459 0.29397
 C539 C 0.63728 0.50580 0.29201
 C540 C 0.63670 0.49686 0.27382
 H541 H 0.64325 0.52225 0.22489
 H542 H 0.61723 0.47068 0.24779
 H543 H 0.61628 0.53269 0.24773
 H544 H 0.64247 0.48253 0.27196
 H545 H 0.63434 0.47299 0.18824
 H546 H 0.63043 0.53155 0.30796
 C547 C 0.85670 0.49252 0.72424
 C548 C 0.86440 0.50345 0.73955
 C549 C 0.87263 0.52166 0.73586
 C550 C 0.87332 0.52895 0.71704
 C551 C 0.86544 0.51788 0.70197
 C552 C 0.85713 0.49968 0.70534
 C553 C 0.86431 0.49565 0.75937
 C554 C 0.87149 0.47716 0.76289
 C555 C 0.87197 0.46979 0.78168
 C556 C 0.86491 0.48109 0.79693
 C557 C 0.85763 0.49959 0.79372
 C558 C 0.85745 0.50680 0.77483
 H559 H 0.85037 0.47849 0.72713
 H560 H 0.87877 0.52995 0.74763
 H561 H 0.87700 0.46869 0.75099
 H562 H 0.85191 0.52104 0.77205
 H563 H 0.86594 0.52342 0.68742
 H564 H 0.86522 0.47549 0.81145
 C565 C 0.22622 0.35822 -0.00786
 C566 C 0.24191 0.36625 0.00224
 C567 C 0.23931 0.37272 0.02127
 C568 C 0.22125 0.37106 0.03028
 C569 C 0.20587 0.36256 0.02012
 C570 C 0.20814 0.35615 0.00106
 C571 C 0.26113 0.36732 -0.00696
 C572 C 0.26338 0.37547 -0.02531
 C573 C 0.28142 0.37562 -0.03448
 C574 C 0.29723 0.36735 -0.02516
 C575 C 0.29531 0.35942 -0.00665
 C576 C 0.27718 0.35959 0.00239
 H577 H 0.22830 0.35311 -0.02247
 H578 H 0.25136 0.37910 0.02897
 H579 H 0.25102 0.38157 -0.03246
 H580 H 0.27534 0.35321 0.01650
 H581 H 0.19187 0.36132 0.02695
 H582 H 0.31119 0.36749 -0.03217
 C583 C 0.72461 0.13389 1.00639
 C584 C 0.74020 0.12658 0.99578
 C585 C 0.73697 0.11874 0.97738
 C586 C 0.71843 0.11838 0.96944
 C587 C 0.70304 0.12592 0.98012
 C588 C 0.70591 0.13365 0.99864
 C589 C 0.75994 0.12723 1.00376
 C590 C 0.76361 0.11994 1.02223
 C591 C 0.78244 0.11994 1.02959
 C592 C 0.79750 0.12760 1.01830
 C593 C 0.79411 0.13508 0.99989
 C594 C 0.77522 0.13480 0.99270
 H595 H 0.72716 0.13995 1.02057
 H596 H 0.74895 0.11298 0.96924
 H597 H 0.75185 0.11393 1.03064
 H598 H 0.77234 0.14049 0.97850
 H599 H 0.68872 0.12563 0.97398
 H600 H 0.81205 0.12772 1.02387
 C601 C 0.23358 0.63726 0.49585
 C602 C 0.24881 0.62886 0.48555
 C603 C 0.24548 0.62150 0.46696
 C604 C 0.22723 0.62280 0.45850
 C605 C 0.21230 0.63172 0.46877
 C606 C 0.21525 0.63887 0.48750
 C607 C 0.26833 0.62814 0.49401
 C608 C 0.27104 0.62078 0.51260
 C609 C 0.28954 0.62017 0.52070
 C610 C 0.30532 0.62722 0.50998
 C611 C 0.30286 0.63477 0.49142
 C612 C 0.28427 0.63506 0.48351
 H613 H 0.23619 0.64297 0.51016
 H614 H 0.25716 0.61481 0.45911
 H615 H 0.25873 0.61541 0.52066
 H616 H 0.28208 0.64091 0.46924
 H617 H 0.19816 0.63261 0.46232
 H618 H 0.31961 0.62689 0.51614
 C619 C 0.73598 0.86024 0.49703
 C620 C 0.75123 0.86852 0.50759
 C621 C 0.74794 0.87501 0.52650
 C622 C 0.72963 0.87315 0.53495
 C623 C 0.71470 0.86438 0.52435
 C624 C 0.71766 0.85795 0.50539
 C625 C 0.77071 0.87001 0.49901
 C626 C 0.77338 0.87838 0.48081
 C627 C 0.79176 0.87927 0.47237
 C628 C 0.80751 0.87164 0.48235
 C629 C 0.80513 0.86330 0.50062
 C630 C 0.78662 0.86264 0.50887
 H631 H 0.73858 0.85515 0.48249
 H632 H 0.75965 0.88161 0.53453
 H633 H 0.76109 0.88408 0.47322
 H634 H 0.78444 0.85609 0.52286
 H635 H 0.70051 0.86299 0.53073
 H636 H 0.82170 0.87227 0.47584
 C637 C -0.00967 0.22663 0.36863
 C638 C 0.00108 0.24234 0.37585
 C639 C 0.01972 0.23935 0.38300
 C640 C 0.02766 0.22085 0.38296
 C641 C 0.01673 0.20534 0.37562
 C642 C -0.00192 0.20802 0.36841
 C643 C -0.00716 0.26192 0.37585
 C644 C -0.02564 0.26504 0.38342
 C645 C -0.03371 0.28347 0.38315
 C646 C -0.02309 0.29884 0.37516
 C647 C -0.00452 0.29605 0.36763
 C648 C 0.00336 0.27749 0.36810
 H649 H -0.02399 0.22899 0.36304
 H650 H 0.02796 0.25144 0.38865
 H651 H -0.03371 0.25306 0.38950
 H652 H 0.01759 0.27501 0.36221
 H653 H 0.02278 0.19104 0.37556
 H654 H -0.02930 0.31307 0.37494
 C655 C 1.00418 0.72336 0.13759
 C656 C 0.99500 0.73962 0.13012
 C657 C 0.97632 0.73773 0.12259
 C658 C 0.96672 0.71982 0.12278
 C659 C 0.97593 0.70381 0.13076
 C660 C 0.99473 0.70537 0.13807
 C661 C 1.00482 0.75866 0.13074
 C662 C 1.02383 0.76068 0.12404
 C663 C 1.03365 0.77838 0.12566
 C664 C 1.02431 0.79410 0.13421
 C665 C 1.00516 0.79246 0.14066
 C666 C 0.99548 0.77466 0.13876
 H667 H 1.01855 0.72490 0.14348
 H668 H 0.96929 0.75022 0.11664
 H669 H 1.03099 0.74840 0.11767
 H670 H 0.98085 0.77303 0.14403
 H671 H 0.96860 0.68995 0.13084
 H672 H 1.03184 0.80780 0.13538
 C673 C 0.50128 0.22281 0.64391
 C674 C 0.49145 0.23874 0.63657
 C675 C 0.47275 0.23623 0.62927
 C676 C 0.46377 0.21802 0.62951
 C677 C 0.47362 0.20232 0.63734
 C678 C 0.49244 0.20451 0.64444
 C679 C 0.50065 0.25807 0.63694
 C680 C 0.51944 0.26072 0.62977
 C681 C 0.52849 0.27888 0.63065
 C682 C 0.51862 0.29433 0.63911
 C683 C 0.49979 0.29201 0.64621
 C684 C 0.49082 0.27381 0.64490
 H685 H 0.51567 0.22483 0.64962
 H686 H 0.46524 0.24847 0.62341
 H687 H 0.52690 0.24862 0.62341
 H688 H 0.47638 0.27172 0.65054
 H689 H 0.46677 0.18823 0.63744
 H690 H 0.52546 0.30841 0.63977
 C691 C 0.48779 0.72661 0.86499
 C692 C 0.49895 0.74220 0.87185
 C693 C 0.51740 0.73882 0.87930
 C694 C 0.52474 0.72008 0.87997
 C695 C 0.51338 0.70470 0.87302
 C696 C 0.49493 0.70775 0.86547
 C697 C 0.49132 0.76204 0.87129
 C698 C 0.47274 0.76585 0.87833
 C699 C 0.46543 0.78462 0.87797
 C700 C 0.47693 0.79956 0.87039
 C701 C 0.49554 0.79608 0.86333
 C702 C 0.50265 0.77721 0.86385
 H703 H 0.47363 0.72925 0.85913
 H704 H 0.52594 0.75082 0.88471
 H705 H 0.46409 0.75420 0.88425
 H706 H 0.51694 0.77424 0.85837
 H707 H 0.51895 0.69021 0.87348
 H708 H 0.47137 0.81406 0.87011
 C709 C 0.44928 -0.14326 0.31962
 N710 N 0.45220 -0.14621 0.33865
 N711 N 0.46216 -0.16124 0.34466
 C712 C 0.46965 -0.17408 0.33195
 N713 N 0.46675 -0.17109 0.31280
 N714 N 0.45678 -0.15594 0.30674
 C715 C 0.43802 -0.12656 0.31357
 N716 N 0.43585 -0.12188 0.29471
 N717 N 0.42572 -0.10644 0.28974
 C718 C 0.41738 -0.09524 0.30348
 N719 N 0.41954 -0.10003 0.32225
 N720 N 0.42966 -0.11535 0.32719
 C721 C 0.40648 -0.07793 0.29858
 N722 N 0.39803 -0.06765 0.31286
 N723 N 0.38863 -0.05156 0.30897
 C724 C 0.38727 -0.04502 0.29063
 N725 N 0.39564 -0.05540 0.27627
 N726 N 0.40506 -0.07158 0.28016
 C727 C 0.93573 0.34929 0.81672
 N728 N 0.93555 0.34487 0.83571
 N729 N 0.94553 0.33009 0.84228
 C730 C 0.95613 0.31903 0.83017
 N731 N 0.95622 0.32334 0.81106
 N732 N 0.94624 0.33825 0.80446
 C733 C 0.92501 0.36611 0.81011
 N734 N 0.92605 0.37234 0.79159
 N735 N 0.91679 0.38819 0.78624
 C736 C 0.90616 0.39828 0.79921
 N737 N 0.90505 0.39191 0.81761
 N738 N 0.91429 0.37616 0.82295
 C739 C 0.89660 0.41627 0.79402
 N740 N 0.88682 0.42618 0.80769
 N741 N 0.87881 0.44298 0.80362
 C742 C 0.88022 0.45060 0.78569
 N743 N 0.88986 0.44056 0.77190
 N744 N 0.89793 0.42371 0.77599
 C745 C 0.05635 1.15443 0.81113
 N746 N 0.06557 1.16670 0.82332
 N747 N 0.05697 1.18252 0.82967
 C748 C 0.03876 1.18676 0.82418
 N749 N 0.02957 1.17457 0.81178
 N750 N 0.03822 1.15870 0.80534
 C751 C 0.06564 1.13636 0.80550
 N752 N 0.05763 1.12426 0.79226
 N753 N 0.06591 1.10749 0.78805
 C754 C 0.08238 1.10221 0.79703
 N755 N 0.09038 1.11436 0.81017
 N756 N 0.08220 1.13112 0.81427
 C757 C 0.09113 1.08338 0.79340
 N758 N 0.10499 1.07685 0.80537
 N759 N 0.11267 1.05957 0.80267
 C760 C 0.10690 1.04816 0.78780
 N761 N 0.09312 1.05478 0.77569
 N762 N 0.08531 1.07203 0.77849
 C763 C 0.56622 0.66088 0.30521
 N764 N 0.57599 0.67307 0.31705
 N765 N 0.56770 0.68886 0.32386
 C766 C 0.54926 0.69316 0.31921
 N767 N 0.53953 0.68105 0.30713
 N768 N 0.54787 0.66521 0.30023
 C769 C 0.57518 0.64275 0.29919
 N770 N 0.56653 0.63066 0.28635
 N771 N 0.57449 0.61380 0.28189
 C772 C 0.59127 0.60842 0.29021
 N773 N 0.59990 0.62056 0.30295
 N774 N 0.59205 0.63742 0.30730
 C775 C 0.59965 0.58944 0.28642
 N776 N 0.61379 0.58281 0.29799
 N777 N 0.62108 0.56537 0.29524
 C778 C 0.61462 0.55390 0.28070
 N779 N 0.60058 0.56062 0.26897
 N780 N 0.59316 0.57804 0.27183
 C781 C 0.56322 0.34655 0.18286
 N782 N 0.54989 0.33712 0.19380
 N783 N 0.53974 0.32239 0.18647
 C784 C 0.54247 0.31670 0.16789
 N785 N 0.55590 0.32610 0.15712
 N786 N 0.56607 0.34068 0.16444
 C787 C 0.57398 0.36337 0.19013
 N788 N 0.58765 0.37169 0.17882
 N789 N 0.59678 0.38765 0.18446
 C790 C 0.59259 0.39597 0.20164
 N791 N 0.57904 0.38757 0.21313
 N792 N 0.56989 0.37152 0.20748
 C793 C 0.60184 0.41439 0.20680
 N794 N 0.59752 0.42374 0.22345
 N795 N 0.60516 0.44108 0.22719
 C796 C 0.61732 0.44972 0.21437
 N797 N 0.62174 0.44017 0.19787
 N798 N 0.61418 0.42288 0.19417
 C799 C 0.06544 0.83725 0.69132
 N800 N 0.04687 0.83248 0.69554
 N801 N 0.03853 0.81709 0.68741
 C802 C 0.04844 0.80590 0.67477
 N803 N 0.06707 0.81060 0.67084
 N804 N 0.07539 0.82595 0.67892
 C805 C 0.07440 0.85500 0.69878
 N806 N 0.09176 0.86085 0.69181
 N807 N 0.09953 0.87757 0.69733
 C808 C 0.09029 0.88905 0.71013
 N809 N 0.07301 0.88312 0.71734
 N810 N 0.06517 0.86640 0.71172
 C811 C 0.09840 0.90808 0.71492
 N812 N 0.09077 0.91905 0.72920
 N813 N 0.09771 0.93671 0.73270
 C814 C 0.11239 0.94410 0.72192
 N815 N 0.12003 0.93302 0.70774
 N816 N 0.11323 0.91535 0.70436
 C817 C 0.94446 0.64578 0.67862
 N818 N 0.94454 0.64968 0.65951
 N819 N 0.95520 0.66406 0.65252
 C820 C 0.96624 0.67519 0.66432
 N821 N 0.96611 0.67136 0.68352
 N822 N 0.95545 0.65686 0.69055
 C823 C 0.93279 0.62956 0.68578
 N824 N 0.93376 0.62362 0.70438
 N825 N 0.92352 0.60834 0.71028
 C826 C 0.91194 0.59856 0.69778
 N827 N 0.91091 0.60464 0.67928
 N828 N 0.92114 0.61982 0.67340
 C829 C 0.90121 0.58117 0.70354
 N830 N 0.89025 0.57175 0.69033
 N831 N 0.88118 0.55541 0.69483
 C832 C 0.88267 0.54776 0.71271
 N833 N 0.89349 0.55733 0.72605
 N834 N 0.90262 0.57374 0.72154
 C835 C 0.43877 0.15555 0.18736
 N836 N 0.43021 0.16641 0.17373
 N837 N 0.43927 0.18162 0.16626
 C838 C 0.45730 0.18662 0.17204
 N839 N 0.46585 0.17583 0.18585
 N840 N 0.45674 0.16058 0.19339
 C841 C 0.42892 0.13815 0.19448
 N842 N 0.43649 0.12733 0.20880
 N843 N 0.42769 0.11110 0.21444
 C844 C 0.41108 0.10512 0.20587
 N845 N 0.40353 0.11601 0.19166
 N846 N 0.41224 0.13222 0.18611
 C847 C 0.40173 0.08677 0.21105
 N848 N 0.38750 0.07949 0.19975
 N849 N 0.37931 0.06256 0.20374
 C850 C 0.38492 0.05226 0.21928
 N851 N 0.39905 0.05965 0.23075
 N852 N 0.40737 0.07657 0.22666
 C853 C 0.30753 0.43901 -0.15834
 N854 N 0.30185 0.45729 -0.16210
 N855 N 0.30839 0.46654 -0.17768
 C856 C 0.32080 0.45783 -0.19007
 N857 N 0.32617 0.43948 -0.18633
 N858 N 0.31971 0.43028 -0.17081
 C859 C 0.30180 0.42902 -0.14058
 N860 N 0.31047 0.41228 -0.13585
 N861 N 0.30629 0.40346 -0.11936
 C862 C 0.29318 0.41095 -0.10700
 N863 N 0.28431 0.42761 -0.11178
 N864 N 0.28859 0.43654 -0.12827
 C865 C 0.28951 0.40149 -0.08845
 N866 N 0.27471 0.40693 -0.07689
 N867 N 0.27192 0.39851 -0.05986
 C868 C 0.28392 0.38449 -0.05368
 N869 N 0.29867 0.37908 -0.06531
 N870 N 0.30136 0.38737 -0.08237
 C871 C 0.81808 0.93935 0.34684
 N872 N 0.81124 0.95694 0.34198
 N873 N 0.81740 0.96572 0.32599
 C874 C 0.83056 0.95720 0.31427
 N875 N 0.83712 0.93952 0.31912
 N876 N 0.83105 0.93080 0.33506
 C877 C 0.81261 0.92996 0.36500
 N878 N 0.82223 0.91412 0.37080
 N879 N 0.81816 0.90584 0.38759
 C880 C 0.80422 0.91301 0.39920
 N881 N 0.79441 0.92877 0.39336
 N882 N 0.79858 0.93715 0.37656
 C883 C 0.80051 0.90412 0.41802
 N884 N 0.78498 0.90901 0.42884
 N885 N 0.78205 0.90099 0.44605
 C886 C 0.79462 0.88794 0.45313
 N887 N 0.81012 0.88310 0.44225
 N888 N 0.81297 0.89098 0.42502
 C889 C 0.82022 0.05675 1.14996
 N890 N 0.83944 0.05587 1.15296
 N891 N 0.84639 0.04660 1.16807
 C892 C 0.83447 0.03781 1.18094
 N893 N 0.81512 0.03872 1.17794
 N894 N 0.80811 0.04798 1.16270
 C895 C 0.81317 0.06707 1.13301
 N896 N 0.79428 0.06681 1.12791
 N897 N 0.78852 0.07589 1.11204
 C898 C 0.80146 0.08555 1.10082
 N899 N 0.82024 0.08586 1.10606
 N900 N 0.82598 0.07679 1.12181
 C901 C 0.79582 0.09509 1.08290
 N902 N 0.80942 0.10450 1.07240
 N903 N 0.80500 0.11256 1.05569
 C904 C 0.78678 0.11157 1.04871
 N905 N 0.77306 0.10228 1.05932
 N906 N 0.77749 0.09416 1.07612
 C907 C 0.31794 0.56145 0.64598
 N908 N 0.30550 0.55011 0.65614
 N909 N 0.31145 0.54075 0.67178
 C910 C 0.33006 0.54234 0.67771
 N911 N 0.34231 0.55383 0.66757
 N912 N 0.33639 0.56318 0.65206
 C913 C 0.31220 0.57128 0.62824
 N914 N 0.32534 0.58233 0.61877
 N915 N 0.32093 0.59070 0.60220
 C916 C 0.30318 0.58834 0.59440
 N917 N 0.28989 0.57739 0.60391
 N918 N 0.29433 0.56899 0.62057
 C919 C 0.29905 0.59703 0.57563
 N920 N 0.28152 0.59509 0.56716
 N921 N 0.27837 0.60259 0.54980
 C922 C 0.29262 0.61222 0.54024
 N923 N 0.31006 0.61417 0.54885
 N924 N 0.31321 0.60675 0.56616
 C925 C 0.18956 0.56110 0.33668
 N926 N 0.17618 0.56978 0.32562
 N927 N 0.16816 0.56049 0.31085
 C928 C 0.17312 0.54211 0.30652
 N929 N 0.18668 0.53346 0.31751
 N930 N 0.19477 0.54278 0.33231
 C931 C 0.19726 0.57114 0.35369
 N932 N 0.21117 0.56319 0.36475
 N933 N 0.21721 0.57206 0.38074
 C934 C 0.20949 0.58911 0.38627
 N935 N 0.19570 0.59707 0.37513
 N936 N 0.18974 0.58828 0.35913
 C937 C 0.21497 0.59839 0.40452
 N938 N 0.20442 0.61320 0.41149
 N939 N 0.20853 0.62110 0.42850
 C940 C 0.22344 0.61460 0.43917
 N941 N 0.23418 0.59992 0.43206
 N942 N 0.22998 0.59190 0.41508
 C943 C 0.68715 0.05985 0.84413
 N944 N 0.67437 0.06882 0.83261
 N945 N 0.66752 0.06009 0.81695
 C946 C 0.67303 0.04197 0.81215
 N947 N 0.68605 0.03309 0.82362
 N948 N 0.69300 0.04186 0.83930
 C949 C 0.69348 0.06921 0.86206
 N950 N 0.70734 0.06139 0.87326
 N951 N 0.71224 0.06965 0.88995
 C952 C 0.70336 0.08592 0.89605
 N953 N 0.68959 0.09374 0.88479
 N954 N 0.68479 0.08557 0.86809
 C955 C 0.70781 0.09462 0.91483
 N956 N 0.69609 0.10825 0.92231
 N957 N 0.69956 0.11584 0.93960
 C958 C 0.71498 0.11019 0.95005
 N959 N 0.72684 0.09665 0.94247
 N960 N 0.72327 0.08894 0.92521
 C961 C 0.68957 0.93644 0.65464
 N962 N 0.67082 0.93383 0.65953
 N963 N 0.66291 0.94425 0.67349
 C964 C 0.67340 0.95769 0.68322
 N965 N 0.69229 0.96020 0.67849
 N966 N 0.70022 0.94982 0.66437
 C967 C 0.69760 0.92537 0.63852
 N968 N 0.71534 0.92938 0.63115
 N969 N 0.72174 0.91994 0.61566
 C970 C 0.71063 0.90615 0.60708
 N971 N 0.69305 0.90203 0.61465
 N972 N 0.68665 0.91146 0.63004
 C973 C 0.71663 0.89662 0.58917
 N974 N 0.70450 0.88385 0.58054
 N975 N 0.70891 0.87612 0.56357
 C976 C 0.72565 0.88080 0.55450
 N977 N 0.73798 0.89338 0.56330
 N978 N 0.73353 0.90119 0.58031
 C979 C 0.18415 0.43402 0.15102
 N980 N 0.19476 0.44776 0.16026
 N981 N 0.18700 0.45810 0.17450
 C982 C 0.16833 0.45518 0.17985
 N983 N 0.15788 0.44137 0.17061
 N984 N 0.16563 0.43099 0.15652
 C985 C 0.19194 0.42297 0.13476
 N986 N 0.18108 0.40871 0.12677
 N987 N 0.18718 0.39931 0.11124
 C988 C 0.20439 0.40380 0.10305
 N989 N 0.21544 0.41794 0.11112
 N990 N 0.20933 0.42735 0.12675
 C991 C 0.20995 0.39431 0.08497
 N992 N 0.22643 0.39918 0.07548
 N993 N 0.23037 0.39142 0.05831
 C994 C 0.21795 0.37860 0.05000
 N995 N 0.20167 0.37360 0.05971
 N996 N 0.19776 0.38128 0.07683
 C997 C -0.15949 0.31404 0.44027
 N998 N -0.16503 0.30746 0.45786
 N999 N -0.18097 0.31406 0.46628
 C1000 C -0.19197 0.32743 0.45738
 N1001 N -0.18645 0.33376 0.43971
 N1002 N -0.17055 0.32725 0.43135
 C1003 C -0.14140 0.30795 0.43125
 N1004 N -0.13490 0.31709 0.41522
 N1005 N -0.11814 0.31239 0.40727
 C1006 C -0.10727 0.29828 0.41496
 N1007 N -0.11381 0.28896 0.43091
 N1008 N -0.13057 0.29375 0.43896
 C1009 C -0.08844 0.29389 0.40645
 N1010 N -0.07826 0.27833 0.41215
 N1011 N -0.06097 0.27484 0.40458
 C1012 C -0.05315 0.28684 0.39117
 N1013 N -0.06341 0.30235 0.38550
 N1014 N -0.08072 0.30577 0.39294
 C1015 C 0.34345 0.82289 0.93826
 N1016 N 0.33426 0.81214 0.95184
 N1017 N 0.31925 0.81922 0.96148
 C1018 C 0.31292 0.83733 0.95793
 N1019 N 0.32210 0.84795 0.94425
 N1020 N 0.33704 0.84089 0.93462
 C1021 C 0.36050 0.81573 0.92806
 N1022 N 0.36958 0.82711 0.91497
 N1023 N 0.38556 0.82126 0.90622
 C1024 C 0.39308 0.80378 0.91021
 N1025 N 0.38393 0.79226 0.92319
 N1026 N 0.36791 0.79814 0.93198
 C1027 C 0.41132 0.79810 0.90119
 N1028 N 0.41937 0.78075 0.90484
 N1029 N 0.43641 0.77625 0.89722
 C1030 C 0.44605 0.78896 0.88574
 N1031 N 0.43783 0.80620 0.88203
 N1032 N 0.42083 0.81067 0.88958
 C1033 C 1.15900 0.80710 0.06653
 N1034 N 1.16159 0.80328 0.04752
 N1035 N 1.17647 0.81095 0.03797
 C1036 C 1.18938 0.82265 0.04709
 N1037 N 1.18692 0.82615 0.06620
 N1038 N 1.17200 0.81858 0.07572
 C1039 C 1.14164 0.80032 0.07666
 N1040 N 1.13711 0.80765 0.09423
 N1041 N 1.12060 0.80283 0.10283
 C1042 C 1.10805 0.79040 0.09425
 N1043 N 1.11270 0.78281 0.07681
 N1044 N 1.12917 0.78774 0.06813
 C1045 C 1.08923 0.78636 0.10311
 N1046 N 1.07745 0.77231 0.09601
 N1047 N 1.05994 0.76946 0.10346
 C1048 C 1.05348 0.78070 0.11814
 N1049 N 1.06534 0.79467 0.12526
 N1050 N 1.08289 0.79740 0.11794
 C1051 C 0.64791 0.31375 0.56319
 N1052 N 0.65719 0.30248 0.55015
 N1053 N 0.67131 0.30983 0.53922
 C1054 C 0.67649 0.32872 0.54084
 N1055 N 0.66723 0.33983 0.55396
 N1056 N 0.65327 0.33250 0.56491
 C1057 C 0.63182 0.30644 0.57490
 N1058 N 0.62399 0.31805 0.58850
 N1059 N 0.60860 0.31237 0.59848
 C1060 C 0.60039 0.29486 0.59526
 N1061 N 0.60831 0.28306 0.58179
 N1062 N 0.62381 0.28875 0.57178
 C1063 C 0.58250 0.28968 0.60538
 N1064 N 0.57305 0.27280 0.60186
 N1065 N 0.55609 0.26908 0.61022
 C1066 C 0.54793 0.28213 0.62234
 N1067 N 0.55758 0.29885 0.62597
 N1068 N 0.57450 0.30254 0.61768
 C1069 C 0.33970 0.18765 0.56837
 N1070 N 0.33540 0.19371 0.55031
 N1071 N 0.32000 0.18665 0.54111
 C1072 C 0.30832 0.17331 0.54965
 N1073 N 0.31259 0.16752 0.56778
 N1074 N 0.32795 0.17450 0.57693
 C1075 C 0.35728 0.19413 0.57826
 N1076 N 0.36254 0.18552 0.59492
 N1077 N 0.37894 0.19040 0.60361
 C1078 C 0.39068 0.20417 0.59604
 N1079 N 0.38536 0.21299 0.57947
 N1080 N 0.36896 0.20801 0.57070
 C1081 C 0.40925 0.20853 0.60522
 N1082 N 0.42030 0.22373 0.59949
 N1083 N 0.43749 0.22702 0.60747
 C1084 C 0.44430 0.21514 0.62134
 N1085 N 0.43314 0.20002 0.62708
 N1086 N 0.41594 0.19683 0.61923
 C1087 C 0.84224 0.69282 0.06098
 N1088 N 0.83848 0.69822 0.04259
 N1089 N 0.82301 0.69130 0.03340
 C1090 C 0.81072 0.67875 0.04228
 N1091 N 0.81445 0.67364 0.06074
 N1092 N 0.82987 0.68049 0.06988
 C1093 C 0.85992 0.69899 0.07092
 N1094 N 0.86455 0.69082 0.08798
 N1095 N 0.88102 0.69531 0.09673
 C1096 C 0.89347 0.70824 0.08882
 N1097 N 0.88878 0.71664 0.07184
 N1098 N 0.87230 0.71205 0.06300
 C1099 C 0.91211 0.71207 0.09810
 N1100 N 0.92390 0.72660 0.09207
 N1101 N 0.94111 0.72936 0.10017
 C1102 C 0.94724 0.71758 0.11445
 N1103 N 0.93537 0.70315 0.12049
 N1104 N 0.91813 0.70049 0.11253
 C1105 C 0.64811 0.68625 0.93938
 N1106 N 0.65893 0.69819 0.95065
 N1107 N 0.67423 0.69150 0.96002
 C1108 C 0.67915 0.67263 0.95853
 N1109 N 0.66833 0.66087 0.94714
 N1110 N 0.65317 0.66753 0.93776
 C1111 C 0.63076 0.69285 0.92945
 N1112 N 0.62079 0.68025 0.91819
 N1113 N 0.60454 0.68545 0.90971
 C1114 C 0.59757 0.70346 0.91214
 N1115 N 0.60758 0.71620 0.92329
 N1116 N 0.62392 0.71098 0.93181
 C1117 C 0.57908 0.70842 0.90333
 N1118 N 0.57131 0.72617 0.90545
 N1119 N 0.55414 0.73004 0.89786
 C1120 C 0.54411 0.71628 0.88797
 N1121 N 0.55204 0.69862 0.88583
 N1122 N 0.56915 0.69478 0.89333
 C1123 C 0.14938 0.18558 0.44408
 N1124 N 0.15465 0.16701 0.44149
 N1125 N 0.16905 0.15966 0.45151
 C1126 C 0.17886 0.17055 0.46454
 N1127 N 0.17376 0.18926 0.46702
 N1128 N 0.15921 0.19664 0.45701
 C1129 C 0.13274 0.19287 0.43347
 N1130 N 0.12518 0.21047 0.43722
 N1131 N 0.10927 0.21615 0.42821
 C1132 C 0.10043 0.20441 0.41515
 N1133 N 0.10816 0.18697 0.41131
 N1134 N 0.12398 0.18132 0.42028
 C1135 C 0.08216 0.20960 0.40605
 N1136 N 0.07319 0.19667 0.39436
 N1137 N 0.05608 0.20046 0.38685
 C1138 C 0.04718 0.21736 0.39068
 N1139 N 0.05628 0.23047 0.40219
 N1140 N 0.07345 0.22664 0.40979
 C1141 C 0.56197 0.09285 0.69538
 N1142 N 0.58149 0.09313 0.69559
 N1143 N 0.59120 0.07832 0.70262
 C1144 C 0.58180 0.06263 0.70979
 N1145 N 0.56222 0.06236 0.70957
 N1146 N 0.55249 0.07717 0.70246
 C1147 C 0.55142 0.10939 0.68780
 N1148 N 0.53195 0.10878 0.68605
 N1149 N 0.52250 0.12389 0.67919
 C1150 C 0.53218 0.14016 0.67392
 N1151 N 0.55163 0.14075 0.67570
 N1152 N 0.56107 0.12564 0.68248
 C1153 C 0.52184 0.15685 0.66639
 N1154 N 0.53137 0.17362 0.66270
 N1155 N 0.52203 0.18876 0.65582
 C1156 C 0.50281 0.18772 0.65229
 N1157 N 0.49332 0.17090 0.65599
 N1158 N 0.50263 0.15578 0.66294
 C1159 C 1.06024 0.59200 0.19071
 N1160 N 1.07975 0.59169 0.19090
 N1161 N 1.08902 0.57673 0.19819
 C1162 C 1.07917 0.56146 0.20566
 N1163 N 1.05959 0.56178 0.20547
 N1164 N 1.05030 0.57675 0.19809
 C1165 C 1.05021 0.60875 0.18285
 N1166 N 1.03075 0.60873 0.18100
 N1167 N 1.02182 0.62404 0.17390
 C1168 C 1.03202 0.63994 0.16848
 N1169 N 1.05147 0.63994 0.17036
 N1170 N 1.06039 0.62463 0.17738
 C1171 C 1.02228 0.65689 0.16069
 N1172 N 1.03239 0.67331 0.15695
 N1173 N 1.02364 0.68870 0.14985
 C1174 C 1.00444 0.68827 0.14613
 N1175 N 0.99436 0.67180 0.14987
 N1176 N 1.00309 0.65642 0.15705
 C1177 C 0.93988 0.90521 0.19609
 N1178 N 0.94982 0.92018 0.20408
 N1179 N 0.94055 0.93525 0.21145
 C1180 C 0.92100 0.93596 0.21102
 N1181 N 0.91115 0.92097 0.20295
 N1182 N 0.92039 0.90591 0.19565
 C1183 C 0.94985 0.88841 0.18808
 N1184 N 0.93955 0.87296 0.18164
 N1185 N 0.94841 0.85765 0.17434
 C1186 C 0.96791 0.85724 0.17316
 N1187 N 0.97823 0.87270 0.17959
 N1188 N 0.96936 0.88801 0.18695
 C1189 C 0.97760 0.84038 0.16495
 N1190 N 0.99694 0.84055 0.16212
 N1191 N 1.00566 0.82533 0.15444
 C1192 C 0.99542 0.80931 0.14936
 N1193 N 0.97606 0.80915 0.15230
 N1194 N 0.96732 0.82440 0.15991
 C1195 C 0.43302 0.40560 0.69771
 N1196 N 0.41358 0.40665 0.69637
 N1197 N 0.40434 0.42206 0.70287
 C1198 C 0.41412 0.43704 0.71104
 N1199 N 0.43360 0.43598 0.71238
 N1200 N 0.44288 0.42057 0.70579
 C1201 C 0.44305 0.38845 0.69061
 N1202 N 0.46258 0.38789 0.69017
 N1203 N 0.47157 0.37233 0.68357
 C1204 C 0.46136 0.35674 0.67727
 N1205 N 0.44184 0.35728 0.67779
 N1206 N 0.43286 0.37286 0.68431
 C1207 C 0.47129 0.33973 0.66968
 N1208 N 0.46126 0.32354 0.66478
 N1209 N 0.47029 0.30829 0.65752
 C1210 C 0.48968 0.30868 0.65480
 N1211 N 0.49965 0.32489 0.65979
 N1212 N 0.49065 0.34009 0.66712
 C1213 C 0.42413 0.59740 0.80936
 N1214 N 0.40944 0.60050 0.79697
 N1215 N 0.40078 0.58579 0.78804
 C1216 C 0.40640 0.56738 0.79114
 N1217 N 0.42107 0.56429 0.80364
 N1218 N 0.42979 0.57902 0.81255
 C1219 C 0.43396 0.61378 0.81873
 N1220 N 0.44956 0.61101 0.83008
 N1221 N 0.45874 0.62597 0.83809
 C1222 C 0.45264 0.64423 0.83508
 N1223 N 0.43697 0.64699 0.82383
 N1224 N 0.42782 0.63204 0.81579
 C1225 C 0.46317 0.66073 0.84344
 N1226 N 0.45696 0.67902 0.84083
 N1227 N 0.46689 0.69396 0.84797
 C1228 C 0.48343 0.69120 0.85795
 N1229 N 0.48951 0.67286 0.86060
 N1230 N 0.47959 0.65794 0.85351
 C1231 C -0.06966 0.09675 0.31043
 N1232 N -0.08433 0.09958 0.29795
 N1233 N -0.09262 0.08474 0.28890
 C1234 C -0.08661 0.06644 0.29196
 N1235 N -0.07196 0.06361 0.30454
 N1236 N -0.06362 0.07849 0.31357
 C1237 C -0.06029 0.11327 0.32000
 N1238 N -0.04469 0.11076 0.33142
 N1239 N -0.03593 0.12584 0.33965
 C1240 C -0.04246 0.14398 0.33681
 N1241 N -0.05812 0.14648 0.32548
 N1242 N -0.06686 0.13141 0.31722
 C1243 C -0.03239 0.16061 0.34544
 N1244 N -0.03909 0.17877 0.34317
 N1245 N -0.02958 0.19384 0.35061
 C1246 C -0.01296 0.19133 0.36055
 N1247 N -0.00638 0.17312 0.36285
 N1248 N -0.01589 0.15807 0.35547
 C1249 C 0.06527 0.40460 0.30725
 N1250 N 0.08060 0.40107 0.29567
 N1251 N 0.08960 0.41542 0.28656
 C1252 C 0.08370 0.43390 0.28867
 N1253 N 0.06838 0.43744 0.30035
 N1254 N 0.05931 0.42306 0.30944
 C1255 C 0.05521 0.38861 0.31696
 N1256 N 0.03901 0.39170 0.32747
 N1257 N 0.02977 0.37705 0.33592
 C1258 C 0.03641 0.35879 0.33420
 N1259 N 0.05265 0.35572 0.32375
 N1260 N 0.06186 0.37035 0.31528
 C1261 C 0.02602 0.34257 0.34318
 N1262 N 0.03301 0.32442 0.34200
 N1263 N 0.02341 0.30967 0.34986
 C1264 C 0.00642 0.31248 0.35916
 N1265 N -0.00050 0.33069 0.36034
 N1266 N 0.00911 0.34544 0.35253
 C1267 C 0.56909 0.90437 0.80720
 N1268 N 0.58436 0.90107 0.79547
 N1269 N 0.59352 0.91565 0.78688
 C1270 C 0.58782 0.93412 0.78968
 N1271 N 0.57256 0.93740 0.80151
 N1272 N 0.56336 0.92280 0.81008
 C1273 C 0.55876 0.88820 0.81630
 N1274 N 0.54267 0.89131 0.82696
 N1275 N 0.53305 0.87659 0.83483
 C1276 C 0.53919 0.85824 0.83237
 N1277 N 0.55533 0.85513 0.82178
 N1278 N 0.56493 0.86985 0.81388
 C1279 C 0.52823 0.84205 0.84069
 N1280 N 0.53448 0.82366 0.83888
 N1281 N 0.52423 0.80903 0.84616
 C1282 C 0.50730 0.81224 0.85548
 N1283 N 0.50117 0.83068 0.85728
 N1284 N 0.51141 0.84528 0.85006
 C1285 C 0.69409 0.56759 0.09277
 N1286 N 0.69220 0.58694 0.09136
 N1287 N 0.69945 0.59639 0.07631
 C1288 C 0.70899 0.58697 0.06201
 N1289 N 0.71078 0.56752 0.06348
 N1290 N 0.70345 0.55802 0.07852
 C1291 C 0.68626 0.55731 0.10956
 N1292 N 0.68628 0.53777 0.11025
 N1293 N 0.67912 0.52853 0.12551
 C1294 C 0.67177 0.53849 0.14067
 N1295 N 0.67180 0.55802 0.14000
 N1296 N 0.67888 0.56726 0.12470
 C1297 C 0.66374 0.52827 0.15741
 N1298 N 0.65808 0.53808 0.17337
 N1299 N 0.65060 0.52876 0.18845
 C1300 C 0.64843 0.50928 0.18809
 N1301 N 0.65415 0.49954 0.17210
 N1302 N 0.66169 0.50883 0.15707
 C1303 C 0.19004 1.06190 0.60038
 N1304 N 0.19781 1.05215 0.58530
 N1305 N 0.20528 1.06161 0.57030
 C1306 C 0.20519 1.08118 0.56978
 N1307 N 0.19735 1.09085 0.58488
 N1308 N 0.18995 1.08142 0.59988
 C1309 C 0.18195 1.05163 0.61707
 N1310 N 0.17566 1.06157 0.63271
 N1311 N 0.16831 1.05235 0.64789
 C1312 C 0.16693 1.03284 0.64797
 N1313 N 0.17320 1.02289 0.63232
 N1314 N 0.18061 1.03210 0.61716
 C1315 C 0.15863 1.02266 0.66462
 N1316 N 0.15572 1.00332 0.66396
 N1317 N 0.14800 0.99408 0.67893
 C1318 C 0.14293 1.00377 0.69519
 N1319 N 0.14594 1.02314 0.69584
 N1320 N 0.15361 1.03241 0.68084
 C1321 C 0.18712 0.93405 0.91031
 N1322 N 0.19217 0.91531 0.90872
 N1323 N 0.20045 0.90631 0.92338
 C1324 C 0.20410 0.91564 0.94028
 N1325 N 0.19890 0.93444 0.94181
 N1326 N 0.19058 0.94346 0.92715
 C1327 C 0.17831 0.94397 0.89394
 N1328 N 0.17285 0.96264 0.89544
 N1329 N 0.16508 0.97162 0.88045
 C1330 C 0.16252 0.96226 0.86342
 N1331 N 0.16796 0.94359 0.86194
 N1332 N 0.17570 0.93462 0.87692
 C1333 C 0.15415 0.97217 0.84680
 N1334 N 0.15236 0.96299 0.82959
 N1335 N 0.14490 0.97199 0.81447
 C1336 C 0.13892 0.99051 0.81595
 N1337 N 0.14071 0.99963 0.83322
 N1338 N 0.14819 0.99066 0.84834
 C1339 C 0.69026 0.43772 0.40394
 N1340 N 0.69065 0.41820 0.40385
 N1341 N 0.69784 0.40865 0.41872
 C1342 C 0.70500 0.41821 0.43428
 N1343 N 0.70463 0.43779 0.43436
 N1344 N 0.69735 0.44736 0.41948
 C1345 C 0.68241 0.44808 0.38736
 N1346 N 0.68048 0.46752 0.38775
 N1347 N 0.67331 0.47677 0.37263
 C1348 C 0.66789 0.46692 0.35656
 N1349 N 0.66986 0.44750 0.35617
 N1350 N 0.67695 0.43826 0.37130
 C1351 C 0.66000 0.47704 0.33984
 N1352 N 0.65608 0.46733 0.32327
 N1353 N 0.64892 0.47645 0.30809
 C1354 C 0.64532 0.49563 0.30888
 N1355 N 0.64924 0.50531 0.32550
 N1356 N 0.65647 0.49621 0.34067
 C1357 C 0.80056 0.42957 0.59522
 N1358 N 0.78800 0.41477 0.59812
 N1359 N 0.77946 0.40606 0.58326
 C1360 C 0.78312 0.41177 0.56489
 N1361 N 0.79577 0.42657 0.56201
 N1362 N 0.80430 0.43532 0.57689
 C1363 C 0.80965 0.43938 0.61169
 N1364 N 0.82131 0.45495 0.60897
 N1365 N 0.82920 0.46406 0.62396
 C1366 C 0.82575 0.45794 0.64222
 N1367 N 0.81415 0.44231 0.64494
 N1368 N 0.80623 0.43321 0.62994
 C1369 C 0.83414 0.46836 0.65868
 N1370 N 0.83129 0.46216 0.67702
 N1371 N 0.83867 0.47196 0.69188
 C1372 C 0.84912 0.48837 0.68896
 N1373 N 0.85197 0.49446 0.67058
 N1374 N 0.84465 0.48467 0.65576
 C1375 C 0.29794 -0.05917 0.09977
 N1376 N 0.30800 -0.06115 0.08310
 N1377 N 0.30001 -0.06967 0.06783
 C1378 C 0.28156 -0.07635 0.06853
 N1379 N 0.27143 -0.07418 0.08517
 N1380 N 0.27948 -0.06580 0.10052
 C1381 C 0.30704 -0.05016 0.11668
 N1382 N 0.29871 -0.05135 0.13438
 N1383 N 0.30718 -0.04331 0.14969
 C1384 C 0.32422 -0.03369 0.14781
 N1385 N 0.33249 -0.03248 0.13011
 N1386 N 0.32411 -0.04064 0.11486
 C1387 C 0.33346 -0.02431 0.16445
 N1388 N 0.34811 -0.01153 0.16167
 N1389 N 0.35631 -0.00257 0.17656
 C1390 C 0.35032 -0.00612 0.19486
 N1391 N 0.33577 -0.01909 0.19767
 N1392 N 0.32745 -0.02797 0.18273
 C1393 C 0.30382 0.07019 0.40983
 N1394 N 0.29185 0.08518 0.40686
 N1395 N 0.28324 0.09384 0.42164
 C1396 C 0.28624 0.08792 0.44001
 N1397 N 0.29831 0.07294 0.44298
 N1398 N 0.30691 0.06423 0.42817
 C1399 C 0.31296 0.06049 0.39338
 N1400 N 0.32412 0.04480 0.39604
 N1401 N 0.33207 0.03584 0.38103
 C1402 C 0.32919 0.04225 0.36282
 N1403 N 0.31808 0.05798 0.36016
 N1404 N 0.31011 0.06692 0.37517
 C1405 C 0.33768 0.03212 0.34627
 N1406 N 0.33523 0.03867 0.32804
 N1407 N 0.34270 0.02922 0.31307
 C1408 C 0.35287 0.01283 0.31574
 N1409 N 0.35531 0.00638 0.33402
 N1410 N 0.34789 0.01582 0.34898
 C1411 C 0.80514 0.57266 0.90357
 N1412 N 0.80794 0.56675 0.92197
 N1413 N 0.79972 0.57599 0.93668
 C1414 C 0.78833 0.59146 0.93353
 N1415 N 0.78564 0.59734 0.91510
 N1416 N 0.79388 0.58815 0.90042
 C1417 C 0.81375 0.56228 0.88724
 N1418 N 0.81129 0.56866 0.86895
 N1419 N 0.81869 0.55908 0.85406
 C1420 C 0.82880 0.54272 0.85690
 N1421 N 0.83131 0.53636 0.87520
 N1422 N 0.82394 0.54597 0.89010
 C1423 C 0.83657 0.53184 0.84048
 N1424 N 0.84565 0.51491 0.84338
 N1425 N 0.85237 0.50480 0.82853
 C1426 C 0.85032 0.51117 0.81017
 N1427 N 0.84129 0.52819 0.80731
 N1428 N 0.83453 0.53831 0.82217
 C1429 C 0.10520 0.69364 0.55795
 N1430 N 0.08995 0.70106 0.54841
 N1431 N 0.07487 0.70793 0.55807
 C1432 C 0.07442 0.70757 0.57763
 N1433 N 0.08970 0.70010 0.58711
 N1434 N 0.10479 0.69329 0.57748
 C1435 C 0.12188 0.68607 0.54741
 N1436 N 0.13771 0.68011 0.55707
 N1437 N 0.15281 0.67309 0.54758
 C1438 C 0.15261 0.67172 0.52808
 N1439 N 0.13679 0.67768 0.51842
 N1440 N 0.12172 0.68477 0.52790
 C1441 C 0.16907 0.66360 0.51760
 N1442 N 0.16797 0.66042 0.49835
 N1443 N 0.18268 0.65268 0.48884
 C1444 C 0.19911 0.64787 0.49816
 N1445 N 0.20023 0.65119 0.51743
 N1446 N 0.18548 0.65886 0.52698
 C1447 C 0.59584 0.19028 1.06763
 N1448 N 0.57748 0.18725 1.06152
 N1449 N 0.56279 0.19590 1.07030
 C1450 C 0.56590 0.20793 1.08549
 N1451 N 0.58429 0.21086 1.09156
 N1452 N 0.59895 0.20221 1.08283
 C1453 C 0.61216 0.18112 1.05783
 N1454 N 0.63039 0.18383 1.06444
 N1455 N 0.64529 0.17587 1.05540
 C1456 C 0.64251 0.16493 1.03939
 N1457 N 0.62429 0.16217 1.03280
 N1458 N 0.60938 0.17010 1.04186
 C1459 C 0.65897 0.15651 1.02912
 N1460 N 0.65621 0.14662 1.01246
 N1461 N 0.67111 0.13932 1.00290
 C1462 C 0.68937 0.14156 1.00960
 N1463 N 0.69209 0.15140 1.02636
 N1464 N 0.67718 0.15875 1.03592
 C1465 C 0.90307 0.19237 0.92819
 N1466 N 0.92155 0.18801 0.93260
 N1467 N 0.93620 0.19672 0.92357
 C1468 C 0.93300 0.21023 0.90980
 N1469 N 0.91441 0.21447 0.90549
 N1470 N 0.89978 0.20574 0.91444
 C1471 C 0.88682 0.18307 0.93825
 N1472 N 0.86841 0.18670 0.93290
 N1473 N 0.85361 0.17861 0.94222
 C1474 C 0.85667 0.16664 0.95729
 N1475 N 0.87508 0.16298 0.96261
 N1476 N 0.88988 0.17102 0.95325
 C1477 C 0.84039 0.15813 0.96796
 N1478 N 0.84355 0.14766 0.98407
 N1479 N 0.82885 0.14030 0.99407
 C1480 C 0.81038 0.14305 0.98838
 N1481 N 0.80723 0.15345 0.97216
 N1482 N 0.82196 0.16088 0.96217
 C1483 C 0.41381 0.69348 0.42400
 N1484 N 0.43224 0.69004 0.42943
 N1485 N 0.44693 0.69924 0.42095
 C1486 C 0.44376 0.71229 0.40679
 N1487 N 0.42530 0.71563 0.40140
 N1488 N 0.41064 0.70641 0.40980
 C1489 C 0.39746 0.68373 0.43348
 N1490 N 0.37922 0.68663 0.42719
 N1491 N 0.36427 0.67823 0.43597
 C1492 C 0.36699 0.66665 0.45140
 N1493 N 0.38523 0.66370 0.45767
 N1494 N 0.40020 0.67206 0.44885
 C1495 C 0.35041 0.65788 0.46142
 N1496 N 0.35295 0.64768 0.47783
 N1497 N 0.33787 0.64023 0.48723
 C1498 C 0.31966 0.64262 0.48059
 N1499 N 0.31718 0.65274 0.46407
 N1500 N 0.33226 0.66024 0.45470
 C1501 C 0.60655 0.80432 0.43458
 N1502 N 0.60571 0.80577 0.41513
 N1503 N 0.59038 0.79922 0.40556
 C1504 C 0.57529 0.79092 0.41501
 N1505 N 0.57616 0.78946 0.43451
 N1506 N 0.59148 0.79608 0.44411
 C1507 C 0.62348 0.81162 0.44507
 N1508 N 0.62372 0.81180 0.46462
 N1509 N 0.63900 0.81866 0.47409
 C1510 C 0.65462 0.82552 0.46438
 N1511 N 0.65441 0.82527 0.44483
 N1512 N 0.63911 0.81847 0.43536
 C1513 C 0.67124 0.83347 0.47491
 N1514 N 0.68747 0.83919 0.46546
 N1515 N 0.70233 0.84678 0.47510
 C1516 C 0.70148 0.84901 0.49455
 N1517 N 0.68523 0.84319 0.50392
 N1518 N 0.67043 0.83555 0.49432
 C1519 C 0.09478 0.30279 -0.06628
 N1520 N 0.09363 0.30362 -0.08575
 N1521 N 0.07817 0.29677 -0.09487
 C1522 C 0.06322 0.28877 -0.08493
 N1523 N 0.06439 0.28795 -0.06541
 N1524 N 0.07985 0.29488 -0.05626
 C1525 C 0.11193 0.31028 -0.05631
 N1526 N 0.11259 0.31089 -0.03678
 N1527 N 0.12813 0.31780 -0.02778
 C1528 C 0.14361 0.32427 -0.03797
 N1529 N 0.14299 0.32360 -0.05750
 N1530 N 0.12742 0.31674 -0.06650
 C1531 C 0.16057 0.33215 -0.02797
 N1532 N 0.17665 0.33749 -0.03788
 N1533 N 0.19186 0.34494 -0.02871
 C1534 C 0.19153 0.34743 -0.00928
 N1535 N 0.17543 0.34200 0.00056
 N1536 N 0.16028 0.33449 -0.00858
 C1537 C 0.40695 0.30394 0.05960
 N1538 N 0.42229 0.29678 0.04984
 N1539 N 0.43707 0.28920 0.05929
 C1540 C 0.43710 0.28858 0.07887
 N1541 N 0.42175 0.29581 0.08854
 N1542 N 0.40697 0.30331 0.07912
 C1543 C 0.39045 0.31214 0.04942
 N1544 N 0.37456 0.31754 0.05943
 N1545 N 0.35948 0.32494 0.05039
 C1546 C 0.35974 0.32731 0.03100
 N1547 N 0.37565 0.32196 0.02097
 N1548 N 0.39073 0.31447 0.03001
 C1549 C 0.34305 0.33554 0.02116
 N1550 N 0.34379 0.33967 0.00208
 N1551 N 0.32865 0.34726 -0.00673
 C1552 C 0.31216 0.35095 0.00315
 N1553 N 0.31146 0.34674 0.02223
 N1554 N 0.32661 0.33923 0.03107
 C1555 C 0.91494 0.80367 0.56627
 N1556 N 0.91144 0.79094 0.58066
 N1557 N 0.92588 0.78197 0.58926
 C1558 C 0.94444 0.78536 0.58388
 N1559 N 0.94794 0.79817 0.56949
 N1560 N 0.93346 0.80713 0.56082
 C1561 C 0.89882 0.81327 0.55674
 N1562 N 0.90182 0.82484 0.54127
 N1563 N 0.88704 0.83321 0.53253
 C1564 C 0.86874 0.83035 0.53899
 N1565 N 0.86578 0.81884 0.55450
 N1566 N 0.88053 0.81045 0.56319
 C1567 C 0.85235 0.83925 0.52923
 N1568 N 0.83422 0.83704 0.53632
 N1569 N 0.81928 0.84479 0.52733
 C1570 C 0.82184 0.85502 0.51086
 N1571 N 0.84002 0.85725 0.50383
 N1572 N 0.85498 0.84955 0.51284
   
