data_POSCAR
  _audit_creation_date              2014-09-24
  _audit_creation_method            'ToBaCCo'
  _symmetry_space_group_name_H-M    'P1'
  _symmetry_Int_Tables_number       1
  _symmetry_cell_setting            triclinic
  loop_
  _symmetry_equiv_pos_as_xyz
 x,y,z
_cell_length_a 59.3207
_cell_length_b 59.3251
_cell_length_c 59.2942
_cell_angle_alpha 89.957700
_cell_angle_beta 90.009400
_cell_angle_gamma 89.988600
loop_
  _atom_site_label
  _atom_site_type_symbol
  _atom_site_fract_x
  _atom_site_fract_y
  _atom_site_fract_z
C1 C 0.35851 1.35956 0.32956
 C2 C 0.33919 1.36919 0.33920
 C3 C 0.32954 1.35954 0.35852
 C4 C 0.33925 1.34029 0.36821
 C5 C 0.35855 1.33066 0.35859
 C6 C 0.36818 1.34030 0.33929
 H7 H 0.33157 1.38398 0.33157
 H8 H 0.33171 1.33266 0.38304
 H9 H 0.38301 1.33268 0.33177
 C10 C 0.35815 0.85926 0.83043
 C11 C 0.33886 0.86888 0.84008
 C12 C 0.32917 0.85920 0.85936
 C13 C 0.33885 0.83990 0.86899
 C14 C 0.35814 0.83027 0.85935
 C15 C 0.36779 0.83997 0.84008
 H16 H 0.33132 0.88371 0.83244
 H17 H 0.33130 0.83223 0.88379
 H18 H 0.38261 0.83240 0.83250
 C19 C 0.85801 1.35918 0.83007
 C20 C 0.83871 1.36882 0.83968
 C21 C 0.82903 1.35918 0.85899
 C22 C 0.83872 1.33990 0.86867
 C23 C 0.85801 1.33027 0.85905
 C24 C 0.86766 1.33993 0.83977
 H25 H 0.83115 1.38362 0.83202
 H26 H 0.83117 1.33227 0.88349
 H27 H 0.88248 1.33235 0.83220
 C28 C 0.85893 0.85906 0.32933
 C29 C 0.83965 0.86870 0.33904
 C30 C 0.83002 0.85903 0.35833
 C31 C 0.83968 0.83973 0.36794
 C32 C 0.85893 0.83008 0.35827
 C33 C 0.86857 0.83975 0.33899
 H34 H 0.83201 0.88353 0.33151
 H35 H 0.83210 0.83213 0.38275
 H36 H 0.88337 0.83212 0.33142
 C37 C 0.64005 0.64040 0.33111
 C38 C 0.65934 0.63075 0.34073
 C39 C 0.66906 0.64039 0.35998
 C40 C 0.65945 0.65968 0.36963
 C41 C 0.64015 0.66934 0.36002
 C42 C 0.63045 0.65969 0.34077
 H43 H 0.66692 0.61595 0.33312
 H44 H 0.66709 0.66728 0.38439
 H45 H 0.61564 0.66729 0.33319
 C46 C 0.64067 0.14079 0.82957
 C47 C 0.65997 0.13114 0.83925
 C48 C 0.66960 0.14075 0.85856
 C49 C 0.65992 0.15999 0.86823
 C50 C 0.64065 0.16966 0.85859
 C51 C 0.63101 0.16006 0.83928
 H52 H 0.66762 0.11635 0.83168
 H53 H 0.66749 0.16755 0.88305
 H54 H 0.61620 0.16771 0.83173
 C55 C 1.14004 0.64020 0.83072
 C56 C 1.13039 0.65948 0.84036
 C57 C 1.14002 0.66913 0.85964
 C58 C 1.15929 0.65946 0.86931
 C59 C 1.16894 0.64019 0.85969
 C60 C 1.15930 0.63055 0.84041
 H61 H 1.11561 0.66708 0.83273
 H62 H 1.16688 0.66706 0.88411
 H63 H 1.16691 0.61576 0.83282
 C64 C 1.14212 0.14098 0.32895
 C65 C 1.16144 0.13136 0.33863
 C66 C 1.17110 0.14103 0.35792
 C67 C 1.16138 0.16030 0.36755
 C68 C 1.14209 0.16992 0.35790
 C69 C 1.13245 0.16025 0.33863
 H70 H 1.16905 0.11655 0.33104
 H71 H 1.16891 0.16794 0.38237
 H72 H 1.11761 0.16786 0.33109
 C73 C 0.64189 1.35950 0.66981
 C74 C 0.66120 1.36910 0.66017
 C75 C 0.67086 1.35944 0.64087
 C76 C 0.66113 1.34018 0.63122
 C77 C 0.64183 1.33059 0.64087
 C78 C 0.63221 1.34026 0.66014
 H79 H 0.66878 1.38389 0.66781
 H80 H 0.66866 1.33253 0.61641
 H81 H 0.61738 1.33271 0.66772
 C82 C 0.64038 0.85948 1.16953
 C83 C 0.65966 0.86910 1.15987
 C84 C 0.66934 0.85944 1.14061
 C85 C 0.65969 0.84015 1.13099
 C86 C 0.64040 0.83051 1.14064
 C87 C 0.63075 0.84020 1.15989
 H88 H 0.66726 0.88390 1.16745
 H89 H 0.66730 0.83253 1.11622
 H90 H 0.61595 0.83261 1.16750
 C91 C 1.14187 1.35896 1.17058
 C92 C 1.16118 1.36859 1.16092
 C93 C 1.17085 1.35894 1.14162
 C94 C 1.16116 1.33968 1.13198
 C95 C 1.14186 1.33005 1.14161
 C96 C 1.13222 1.33970 1.16089
 H97 H 1.16878 1.38340 1.16852
 H98 H 1.16869 1.33205 1.11716
 H99 H 1.11739 1.33208 1.16842
 C100 C 1.14028 0.85938 0.66925
 C101 C 1.15954 0.86906 0.65960
 C102 C 1.16922 0.85946 0.64032
 C103 C 1.15961 0.84017 0.63067
 C104 C 1.14035 0.83047 0.64031
 C105 C 1.13069 0.84009 0.65959
 H106 H 1.16710 0.88386 0.66721
 H107 H 1.16723 0.83260 0.61587
 H108 H 1.11591 0.83246 0.66719
 C109 C 0.35796 0.64107 0.66982
 C110 C 0.36758 0.66036 0.66017
 C111 C 0.35793 0.67004 0.64090
 C112 C 0.33866 0.66040 0.63123
 C113 C 0.32900 0.64108 0.64086
 C114 C 0.33869 0.63142 0.66015
 H115 H 0.38238 0.66794 0.66777
 H116 H 0.33111 0.66805 0.61641
 H117 H 0.33116 0.61659 0.66778
 C118 C 0.36042 0.13947 1.16842
 C119 C 0.34115 0.12982 1.15878
 C120 C 0.33148 0.13945 1.13949
 C121 C 0.34112 0.15872 1.12982
 C122 C 0.36039 0.16838 1.13945
 C123 C 0.37005 0.15874 1.15874
 H124 H 0.33354 0.11504 1.16642
 H125 H 0.33350 0.16633 1.11503
 H126 H 0.38483 0.16636 1.16634
 C127 C 0.85940 0.64044 1.17019
 C128 C 0.86903 0.65974 1.16051
 C129 C 0.85936 0.66941 1.14123
 C130 C 0.84008 0.65977 1.13160
 C131 C 0.83043 0.64049 1.14125
 C132 C 0.84010 0.63081 1.16052
 H133 H 0.88385 0.66736 1.16805
 H134 H 0.83247 0.66738 1.11681
 H135 H 0.83246 0.61600 1.16807
 C136 C 0.85776 0.14134 0.67117
 C137 C 0.83843 0.13173 0.66154
 C138 C 0.82877 0.14138 0.64221
 C139 C 0.83849 0.16063 0.63253
 C140 C 0.85780 0.17024 0.64214
 C141 C 0.86744 0.16059 0.66144
 H142 H 0.83081 0.11693 0.66916
 H143 H 0.83097 0.16826 0.61768
 H144 H 0.88229 0.16818 0.66895
 C145 C 1.35974 0.35885 0.66936
 C146 C 1.36940 0.33956 0.65974
 C147 C 1.35977 0.32989 0.64044
 C148 C 1.34049 0.33957 0.63076
 C149 C 1.33084 0.35885 0.64038
 C150 C 1.34048 0.36849 0.65967
 H151 H 1.38419 0.33200 0.66742
 H152 H 1.33286 0.33202 0.61595
 H153 H 1.33289 0.38329 0.66724
 C154 C 1.35929 0.85913 1.17098
 C155 C 1.34001 0.86878 1.16126
 C156 C 1.33038 0.85913 1.14197
 C157 C 1.34004 0.83985 1.13236
 C158 C 1.35929 0.83018 1.14204
 C159 C 1.36893 0.83983 1.16133
 H160 H 1.33237 0.88360 1.16878
 H161 H 1.33246 0.83227 1.11755
 H162 H 1.38373 0.83218 1.16890
 C163 C 0.85971 0.35948 1.17007
 C164 C 0.86936 0.34020 1.16038
 C165 C 0.85969 0.33056 1.14111
 C166 C 0.84039 0.34021 1.13149
 C167 C 0.83073 0.35947 1.14114
 C168 C 0.84040 0.36911 1.16042
 H169 H 0.88418 0.33256 1.16792
 H170 H 0.83278 0.33262 1.11670
 H171 H 0.83276 0.38391 1.16798
 C172 C 0.85959 0.85923 0.66938
 C173 C 0.86921 0.83995 0.65970
 C174 C 0.85954 0.83033 0.64043
 C175 C 0.84026 0.84001 0.63080
 C176 C 0.83063 0.85928 0.64047
 C177 C 0.84032 0.86890 0.65974
 H178 H 0.88401 0.83234 0.66729
 H179 H 0.83263 0.83244 0.61601
 H180 H 0.83274 0.88369 0.66735
 C181 C 0.64075 0.64056 0.66950
 C182 C 0.63111 0.65985 0.65987
 C183 C 0.64074 0.66954 0.64059
 C184 C 0.66000 0.65989 0.63092
 C185 C 0.66966 0.64059 0.64053
 C186 C 0.66001 0.63092 0.65981
 H187 H 0.61632 0.66745 0.66749
 H188 H 0.66759 0.66751 0.61612
 H189 H 0.66760 0.61610 0.66739
 C190 C 0.64084 1.14157 1.16960
 C191 C 0.66011 1.13193 1.15994
 C192 C 0.66977 1.14158 1.14067
 C193 C 0.66013 1.16088 1.13102
 C194 C 0.64084 1.17055 1.14066
 C195 C 0.63120 1.16086 1.15996
 H196 H 0.66769 1.11712 1.16753
 H197 H 0.66778 1.16844 1.11621
 H198 H 0.61639 1.16840 1.16760
 C199 C 0.14093 0.64188 1.17061
 C200 C 0.13132 0.66122 1.16097
 C201 C 0.14099 0.67090 1.14168
 C202 C 0.16025 0.66120 1.13202
 C203 C 0.16987 0.64188 1.14164
 C204 C 0.16020 0.63222 1.16091
 H205 H 0.11651 0.66882 1.16857
 H206 H 0.16790 0.66875 1.11721
 H207 H 0.16780 0.61737 1.16843
 C208 C 0.14029 1.14130 0.66926
 C209 C 0.13064 1.16060 0.65961
 C210 C 0.14029 1.17028 0.64032
 C211 C 0.15958 1.16061 0.63068
 C212 C 0.16922 1.14132 0.64033
 C213 C 0.15956 1.13167 0.65960
 H214 H 0.11584 1.16815 0.66725
 H215 H 0.16724 1.16817 0.61587
 H216 H 0.16715 1.11686 0.66720
 C217 C 1.35949 0.64195 0.33055
 C218 C 1.36909 0.66127 0.34016
 C219 C 1.35941 0.67096 0.35943
 C220 C 1.34013 0.66126 0.36908
 C221 C 1.33054 0.64194 0.35946
 C222 C 1.34024 0.63229 0.34022
 H223 H 1.38389 0.66884 0.33251
 H224 H 1.33246 0.66881 0.38387
 H225 H 1.33269 0.61746 0.33266
 C226 C 1.35923 1.14191 0.83046
 C227 C 1.36885 1.16120 0.84011
 C228 C 1.35919 1.17085 0.85940
 C229 C 1.33991 1.16115 0.86904
 C230 C 1.33029 1.14186 0.85939
 C231 C 1.33997 1.13225 0.84012
 H232 H 1.38365 1.16877 0.83247
 H233 H 1.33225 1.16868 0.88385
 H234 H 1.33241 1.11744 0.83252
 C235 C 0.85933 0.64060 0.83025
 C236 C 0.86898 0.65987 0.83989
 C237 C 0.85935 0.66953 0.85917
 C238 C 0.84008 0.65988 0.86883
 C239 C 0.83042 0.64061 0.85921
 C240 C 0.84006 0.63097 0.83992
 H241 H 0.88378 0.66746 0.83228
 H242 H 0.83250 0.66747 0.88364
 H243 H 0.83246 0.61617 0.83234
 C244 C 0.86044 1.13956 0.33152
 C245 C 0.87010 1.15882 0.34115
 C246 C 0.86046 1.16851 0.36041
 C247 C 0.84118 1.15890 0.37007
 C248 C 0.83150 1.13963 0.36045
 C249 C 0.84115 1.12995 0.34119
 H250 H 0.88489 1.16641 0.33353
 H251 H 0.83357 1.16654 0.38484
 H252 H 0.83353 1.11517 0.33360
 C253 C 0.64113 0.35810 0.32927
 C254 C 0.66044 0.36774 0.33891
 C255 C 0.67012 0.35810 0.35819
 C256 C 0.66049 0.33883 0.36788
 C257 C 0.64118 0.32915 0.35828
 C258 C 0.63150 0.33881 0.33898
 H259 H 0.66805 0.38256 0.33134
 H260 H 0.66815 0.33130 0.38270
 H261 H 0.61666 0.33123 0.33142
 C262 C 0.64024 0.85976 0.83108
 C263 C 0.65952 0.86938 0.84073
 C264 C 0.66920 0.85971 0.86000
 C265 C 0.65955 0.84042 0.86964
 C266 C 0.64027 0.83079 0.86000
 C267 C 0.63060 0.84048 0.84073
 H268 H 0.66712 0.88418 0.83313
 H269 H 0.66717 0.83280 0.88442
 H270 H 0.61581 0.83289 0.83313
 C271 C 0.14063 0.35937 0.82934
 C272 C 0.15989 0.36903 0.83905
 C273 C 0.16949 0.35941 0.85839
 C274 C 0.15981 0.34015 0.86805
 C275 C 0.14056 0.33048 0.85837
 C276 C 0.13096 0.34010 0.83904
 H277 H 0.16755 0.38383 0.83149
 H278 H 0.16736 0.33259 0.88289
 H279 H 0.11617 0.33245 0.83146
 C280 C 0.14065 0.85946 0.32979
 C281 C 0.15991 0.86912 0.33950
 C282 C 0.16955 0.85947 0.35880
 C283 C 0.15992 0.84017 0.36842
 C284 C 0.14068 0.83049 0.35875
 C285 C 0.13104 0.84014 0.33945
 H286 H 0.16753 0.88395 0.33197
 H287 H 0.16751 0.83257 0.38323
 H288 H 0.11625 0.83248 0.33187
 O289 O 1.08159 1.02201 1.11256
 O290 O 1.10788 1.02206 1.13886
 C291 C 1.08953 1.02974 1.13088
 C292 C 1.07757 1.04821 1.14268
 C293 C 1.08515 1.05602 1.16372
 H294 H 1.09948 1.04812 1.17186
 O295 O 0.91873 0.97792 1.11250
 O296 O 0.89252 0.97791 1.13888
 C297 C 0.91084 0.97022 1.13087
 C298 C 0.92284 0.95177 1.14269
 C299 C 0.91532 0.94398 1.16377
 H300 H 0.90099 0.95188 1.17191
 O301 O 1.02220 1.11240 1.08158
 O302 O 1.02218 1.13875 1.10780
 C303 C 1.02986 1.13077 1.08946
 C304 C 1.04827 1.14260 1.07742
 C305 C 1.05607 1.16366 1.08494
 H306 H 1.04821 1.17179 1.09930
 O307 O 0.97824 0.88763 1.08170
 O308 O 0.97822 0.86126 1.10793
 C309 C 0.97055 0.86927 1.08958
 C310 C 0.95213 0.85747 1.07754
 C311 C 0.94441 0.83635 1.08500
 H312 H 0.95234 0.82816 1.09930
 O313 O 1.11215 1.08150 1.02194
 O314 O 1.13855 1.10767 1.02195
 C315 C 1.13053 1.08933 1.02962
 C316 C 1.14238 1.07723 1.04799
 C317 C 1.16360 1.08455 1.05555
 H318 H 1.17181 1.09878 1.04754
 O319 O 0.88789 0.91854 1.02220
 O320 O 0.86151 0.89235 1.02224
 C321 C 0.86952 0.91068 1.02990
 C322 C 0.85770 0.92273 1.04829
 C323 C 0.83656 0.91533 1.05598
 H324 H 0.82837 0.90105 1.04804
 O325 O 0.97831 1.08140 1.11243
 O326 O 0.97823 1.10758 1.13881
 C327 C 0.97061 1.08924 1.13080
 C328 C 0.95225 1.07713 1.14264
 C329 C 0.94465 1.08444 1.16385
 H330 H 0.95262 1.09868 1.17207
 O331 O 1.02216 0.91852 1.11259
 O332 O 1.02221 0.89232 1.13899
 C333 C 1.02986 0.91066 1.13097
 C334 C 1.04827 0.92271 1.14278
 C335 C 1.05602 0.91526 1.16391
 H336 H 1.04811 0.90095 1.17210
 O337 O 1.11238 0.97799 1.08167
 O338 O 1.13880 0.97799 1.10784
 C339 C 1.13077 0.97030 1.08953
 C340 C 1.14258 0.95189 1.07750
 C341 C 1.16368 0.94415 1.08500
 H342 H 1.17184 0.95205 1.09931
 O343 O 0.88789 1.02197 1.08163
 O344 O 0.86155 1.02202 1.10787
 C345 C 0.86954 1.02969 1.08952
 C346 C 0.85773 1.04812 1.07748
 C347 C 0.83663 1.05586 1.08496
 H348 H 0.82846 1.04794 1.09928
 O349 O 0.91871 1.11231 1.02204
 O350 O 0.89249 1.13867 1.02211
 C351 C 0.91083 1.13066 1.02976
 C352 C 0.92288 1.14246 1.04818
 C353 C 0.91545 1.16358 1.05588
 H354 H 0.90116 1.17177 1.04795
 O355 O 1.08162 0.88768 1.02225
 O356 O 1.10786 0.86133 1.02226
 C357 C 1.08954 0.86932 1.02996
 C358 C 1.07756 0.85751 1.04844
 C359 C 1.08510 0.83645 1.05625
 H360 H 1.09943 0.82831 1.04835
 O361 O 0.91885 1.02189 1.11243
 O362 O 0.89266 1.02193 1.13883
 C363 C 0.91100 1.02958 1.13081
 C364 C 0.92309 1.04794 1.14264
 C365 C 0.91576 1.05552 1.16385
 H366 H 0.90153 1.04753 1.17208
 O367 O 1.08150 0.97803 1.11254
 O368 O 1.10777 0.97802 1.13887
 C369 C 1.08942 0.97034 1.13090
 C370 C 1.07742 0.95192 1.14275
 C371 C 1.08490 0.94420 1.16387
 H372 H 1.09919 0.95213 1.17204
 O373 O 1.02222 0.88764 1.08175
 O374 O 1.02226 0.86128 1.10800
 C375 C 1.02994 0.86929 1.08966
 C376 C 1.04839 0.85750 1.07765
 C377 C 1.05621 0.83644 1.08519
 H378 H 1.04832 0.82828 1.09953
 O379 O 0.97823 1.11230 1.08156
 O380 O 0.97815 1.13864 1.10778
 C381 C 0.97050 1.13064 1.08943
 C382 C 0.95207 1.14244 1.07738
 C383 C 0.94436 1.16356 1.08481
 H384 H 0.95230 1.17174 1.09910
 O385 O 0.88784 1.08145 1.02209
 O386 O 0.86147 1.10766 1.02215
 C387 C 0.86949 1.08933 1.02981
 C388 C 0.85770 1.07729 1.04826
 C389 C 0.83660 1.08476 1.05600
 H390 H 0.82842 1.09905 1.04807
 O391 O 1.11244 0.91859 1.02219
 O392 O 1.13882 0.89239 1.02219
 C393 C 1.13081 0.91071 1.02988
 C394 C 1.14261 0.92273 1.04831
 C395 C 1.16371 0.91525 1.05607
 H396 H 1.17189 0.90095 1.04816
 O397 O 0.97819 0.91847 1.11258
 O398 O 0.97817 0.89225 1.13897
 C399 C 0.97048 0.91057 1.13095
 C400 C 0.95203 0.92258 1.14273
 C401 C 0.94423 0.91506 1.16381
 H402 H 0.95212 0.90074 1.17198
 O403 O 1.02228 1.08154 1.11249
 O404 O 1.02226 1.10774 1.13885
 C405 C 1.02997 1.08943 1.13085
 C406 C 1.04843 1.07743 1.14266
 C407 C 1.05628 1.08498 1.16371
 H408 H 1.04842 1.09933 1.17184
 O409 O 0.88789 0.97800 1.08159
 O410 O 0.86153 0.97800 1.10782
 C411 C 0.86952 0.97032 1.08948
 C412 C 0.85769 0.95193 1.07745
 C413 C 0.83655 0.94426 1.08487
 H414 H 0.82836 0.95221 1.09914
 O415 O 1.11226 1.02195 1.08149
 O416 O 1.13870 1.02200 1.10764
 C417 C 1.13065 1.02965 1.08930
 C418 C 1.14244 1.04803 1.07718
 C419 C 1.16366 1.05561 1.08447
 H420 H 1.17191 1.04761 1.09869
 O421 O 0.91878 0.88769 1.02222
 O422 O 0.89256 0.86134 1.02226
 C423 C 0.91090 0.86933 1.02993
 C424 C 0.92294 0.85750 1.04836
 C425 C 0.91548 0.83638 1.05608
 H426 H 0.90118 0.82822 1.04816
 O427 O 1.08143 1.11251 1.02198
 O428 O 1.10767 1.13884 1.02199
 C429 C 1.08934 1.13085 1.02969
 C430 C 1.07737 1.14265 1.04816
 C431 C 1.08491 1.16370 1.05595
 H432 H 1.09922 1.17186 1.04802
 Cu433 Cu 1.09430 0.99999 1.09445
 Cu434 Cu 1.12593 1.00002 1.12594
 Cu435 Cu 0.90596 0.99995 1.09441
 Cu436 Cu 0.87442 0.99997 1.12600
 Cu437 Cu 1.00026 1.09428 1.09439
 Cu438 Cu 1.00019 1.12582 1.12595
 Cu439 Cu 1.00021 0.90569 1.09453
 Cu440 Cu 1.00022 0.87413 1.12612
 C441 C 1.05905 1.05889 1.13240
 H442 H 1.05331 1.05316 1.11604
 C443 C 1.07452 1.07429 1.17419
 C444 C 0.94135 0.94109 1.13242
 H445 H 0.94706 0.94679 1.11603
 C446 C 0.92599 0.92575 1.17429
 C447 C 1.05890 1.13235 1.05887
 H448 H 1.05319 1.11598 1.05317
 C449 C 1.07428 1.17417 1.07422
 C450 C 0.94142 0.86779 1.05906
 H451 H 0.94707 0.88421 1.05341
 C452 C 0.92621 0.82585 1.07429
 C453 C 1.13204 1.05882 1.05878
 H454 H 1.11555 1.05327 1.05326
 C455 C 1.17420 1.07374 1.07366
 C456 C 0.86802 0.94119 1.05900
 H457 H 0.88446 0.94680 1.05338
 C458 C 0.82602 0.92608 1.07414
 C459 C 0.94149 1.05872 1.13228
 H460 H 0.94705 1.05318 1.11579
 C461 C 0.92653 1.07364 1.17442
 C462 C 1.05895 0.94119 1.13246
 H463 H 1.05328 0.94684 1.11603
 C464 C 1.07421 0.92599 1.17441
 C465 C 1.13230 0.94120 1.05900
 H466 H 1.11589 0.94687 1.05332
 C467 C 1.17421 0.92595 1.07430
 C468 C 0.86802 1.05882 1.05898
 H469 H 0.88443 1.05315 1.05331
 C470 C 0.82610 1.07406 1.07423
 C471 C 0.94135 1.13213 1.05891
 H472 H 0.94699 1.11571 1.05327
 C473 C 0.92617 1.17409 1.07408
 C474 C 1.05905 0.86779 1.05912
 H475 H 1.05333 0.88416 1.05340
 C476 C 1.07444 0.82595 1.07450
 O477 O 1.08146 0.97812 0.88777
 O478 O 1.10765 0.97810 0.86138
 C479 C 1.08932 0.97043 0.86940
 C480 C 1.07728 0.95202 0.85760
 C481 C 1.08469 0.94434 0.83645
 H482 H 1.09896 0.95228 0.82824
 O483 O 0.91852 1.02215 0.88763
 O484 O 0.89225 1.02213 0.86131
 C485 C 0.91058 1.02984 0.86927
 C486 C 0.92252 1.04831 0.85743
 C487 C 0.91490 1.05615 0.83640
 H488 H 0.90055 1.04827 0.82829
 O489 O 0.97789 1.11238 0.91845
 O490 O 0.97787 1.13876 0.89222
 C491 C 0.97020 1.13075 0.91057
 C492 C 0.95179 1.14256 0.92262
 C493 C 0.94400 1.16364 0.91513
 H494 H 0.95187 1.17181 0.90079
 O495 O 1.02203 0.88781 0.91876
 O496 O 1.02207 0.86145 0.89255
 C497 C 1.02973 0.86945 0.91089
 C498 C 1.04813 0.85762 0.92296
 C499 C 1.05578 0.83646 0.91556
 H500 H 1.04782 0.82828 0.90129
 O501 O 1.11238 0.91860 0.97819
 O502 O 1.13876 0.89239 0.97813
 C503 C 1.13073 0.91072 0.97046
 C504 C 1.14251 0.92276 0.95200
 C505 C 1.16360 0.91527 0.94422
 H506 H 1.17177 0.90096 0.95213
 O507 O 0.88776 1.08149 0.97809
 O508 O 0.86139 1.10770 0.97810
 C509 C 0.86939 1.08937 0.97041
 C510 C 0.85756 1.07736 0.95198
 C511 C 0.83645 1.08483 0.94425
 H512 H 0.82828 1.09912 0.95216
 O513 O 1.02184 1.08148 0.88762
 O514 O 1.02189 1.10769 0.86123
 C515 C 1.02956 1.08936 0.86925
 C516 C 1.04799 1.07732 0.85747
 C517 C 1.05569 1.08476 0.83633
 H518 H 1.04774 1.09903 0.82812
 O519 O 0.97805 0.91867 0.88785
 O520 O 0.97804 0.89247 0.86148
 C521 C 0.97037 0.91080 0.86948
 C522 C 0.95196 0.92285 0.85764
 C523 C 0.94427 0.91541 0.83651
 H524 H 0.95221 0.90112 0.82834
 O525 O 1.11232 1.02209 0.91860
 O526 O 1.13868 1.02213 0.89237
 C527 C 1.13067 1.02980 0.91071
 C528 C 1.14246 1.04824 0.92271
 C529 C 1.16356 1.05600 0.91524
 H530 H 1.17175 1.04807 0.90095
 O531 O 0.88782 0.97814 0.91866
 O532 O 0.86140 0.97806 0.89249
 C533 C 0.86946 0.97042 0.91082
 C534 C 0.85768 0.95200 0.92291
 C535 C 0.83652 0.94433 0.91554
 H536 H 0.82829 0.95229 0.90128
 O537 O 1.08128 1.11243 0.97798
 O538 O 1.10751 1.13878 0.97792
 C539 C 1.08917 1.13078 0.97025
 C540 C 1.07714 1.14259 0.95181
 C541 C 1.08459 1.16369 0.94405
 H542 H 1.09888 1.17187 0.95198
 O543 O 0.91872 0.88766 0.97823
 O544 O 0.89250 0.86132 0.97821
 C545 C 0.91083 0.86931 0.97053
 C546 C 0.92284 0.85751 0.95209
 C547 C 0.91539 0.83641 0.94437
 H548 H 0.90111 0.82822 0.95231
 O549 O 0.91864 0.97818 0.88773
 O550 O 0.89238 0.97809 0.86140
 C551 C 0.91074 0.97045 0.86939
 C552 C 0.92279 0.95204 0.85759
 C553 C 0.91536 0.94433 0.83646
 H554 H 0.90108 0.95227 0.82825
 O555 O 1.08142 1.02208 0.88775
 O556 O 1.10762 1.02212 0.86137
 C557 C 1.08928 1.02978 0.86937
 C558 C 1.07722 1.04818 0.85753
 C559 C 1.08466 1.05589 0.83639
 H560 H 1.09896 1.04798 0.82822
 O561 O 0.97807 0.88775 0.91871
 O562 O 0.97806 0.86140 0.89249
 C563 C 0.97038 0.86939 0.91083
 C564 C 0.95199 0.85756 0.92287
 C565 C 0.94427 0.83645 0.91541
 H566 H 0.95218 0.82829 0.90110
 O567 O 1.02185 1.11239 0.91843
 O568 O 1.02189 1.13876 0.89220
 C569 C 1.02956 1.13075 0.91054
 C570 C 1.04797 1.14256 0.92259
 C571 C 1.05569 1.16367 0.91510
 H572 H 1.04778 1.17183 0.90079
 O573 O 0.88794 0.91861 0.97822
 O574 O 0.86155 0.89242 0.97820
 C575 C 0.86956 0.91075 0.97053
 C576 C 0.85773 0.92281 0.95212
 C577 C 0.83657 0.91541 0.94448
 H578 H 0.82839 0.90114 0.95244
 O579 O 1.11222 1.08162 0.97796
 O580 O 1.13859 1.10782 0.97792
 C581 C 1.13058 1.08949 0.97026
 C582 C 1.14240 1.07746 0.95185
 C583 C 1.16350 1.08494 0.94411
 H584 H 1.17165 1.09925 0.95202
 O585 O 1.02202 0.91866 0.88784
 O586 O 1.02206 0.89246 0.86147
 C587 C 1.02972 0.91079 0.86947
 C588 C 1.04811 0.92284 0.85764
 C589 C 1.05578 0.91542 0.83649
 H590 H 1.04784 0.90115 0.82831
 O591 O 0.97786 1.08159 0.88752
 O592 O 0.97784 1.10782 0.86114
 C593 C 0.97015 1.08949 0.86915
 C594 C 0.95168 1.07751 0.85737
 C595 C 0.94379 1.08508 0.83634
 H596 H 0.95164 1.09944 0.82818
 O597 O 0.88776 1.02211 0.91861
 O598 O 0.86134 1.02209 0.89244
 C599 C 0.86937 1.02978 0.91076
 C600 C 0.85756 1.04819 0.92280
 C601 C 0.83645 1.05593 0.91533
 H602 H 0.82828 1.04801 0.90102
 O603 O 1.11232 0.97811 0.91866
 O604 O 1.13867 0.97809 0.89242
 C605 C 1.13068 0.97040 0.91077
 C606 C 1.14249 0.95196 0.92280
 C607 C 1.16357 0.94420 0.91529
 H608 H 1.17172 0.95211 0.90097
 O609 O 1.08151 0.88774 0.97826
 O610 O 1.10773 0.86138 0.97820
 C611 C 1.08938 0.86938 0.97055
 C612 C 1.07732 0.85758 0.95215
 C613 C 1.08470 0.83642 0.94449
 H614 H 1.09897 0.82821 0.95244
 O615 O 0.91861 1.11237 0.97804
 O616 O 0.89239 1.13872 0.97806
 C617 C 0.91070 1.13073 0.97035
 C618 C 0.92268 1.14254 0.95188
 C619 C 0.91516 1.16363 0.94413
 H620 H 0.90087 1.17179 0.95207
 Cu621 Cu 1.09426 1.00010 0.90583
 Cu622 Cu 1.12580 1.00011 0.87424
 Cu623 Cu 0.90582 1.00015 0.90578
 Cu624 Cu 0.87419 1.00008 0.87427
 Cu625 Cu 1.09413 1.09440 0.99997
 Cu626 Cu 1.12572 1.12592 0.99994
 Cu627 Cu 1.09436 0.90577 1.00023
 Cu628 Cu 1.12594 0.87423 1.00019
 Cu629 Cu 0.90586 1.09428 1.00006
 Cu630 Cu 0.87429 1.12583 1.00011
 Cu631 Cu 0.90597 0.90575 1.00022
 Cu632 Cu 0.87439 0.87421 1.00023
 Cu633 Cu 0.99986 1.09433 0.90563
 Cu634 Cu 0.99988 1.12590 0.87405
 Cu635 Cu 1.00004 0.90585 0.90592
 Cu636 Cu 1.00006 0.87430 0.87435
 C637 C 1.05884 0.94130 0.86795
 H638 H 1.05322 0.94692 0.88439
 C639 C 1.07395 0.92616 0.82593
 C640 C 0.94106 1.05897 0.86766
 H641 H 0.94684 1.05322 0.88402
 C642 C 0.92552 1.07442 0.82589
 C643 C 0.94115 1.13226 0.94115
 H644 H 0.94685 1.11586 0.94683
 C645 C 0.92580 1.17414 0.92587
 C646 C 1.05887 0.86793 0.94141
 H647 H 1.05327 0.88438 0.94702
 C648 C 1.07394 0.82590 0.92631
 C649 C 1.13221 0.94126 0.94131
 H650 H 1.11581 0.94694 0.94701
 C651 C 1.17409 0.92597 0.92599
 C652 C 0.86787 1.05888 0.94128
 H653 H 0.88428 1.05322 0.94694
 C654 C 0.82593 1.07412 0.92604
 C655 C 1.05873 1.05887 0.86782
 H656 H 1.05309 1.05323 0.88425
 C657 C 1.07391 1.07406 0.82583
 C658 C 0.94124 0.94132 0.86794
 H659 H 0.94687 0.94696 0.88437
 C660 C 0.92609 0.92614 0.82595
 C661 C 1.13213 1.05895 0.94117
 H662 H 1.11573 1.05328 0.94684
 C663 C 1.17404 1.07422 0.92593
 C664 C 0.86804 0.94127 0.94136
 H665 H 0.88449 0.94688 0.94695
 C666 C 0.82600 0.92616 0.92631
 C667 C 1.05867 1.13227 0.94109
 H668 H 1.05301 1.11585 0.94677
 C669 C 1.07388 1.17419 0.92582
 C670 C 0.94130 0.86784 0.94137
 H671 H 0.94695 0.88425 0.94702
 C672 C 0.92609 0.82591 0.92615
 O673 O 0.97839 0.41841 0.38717
 O674 O 0.97833 0.39218 0.36083
 C675 C 0.97067 0.41052 0.36882
 C676 C 0.95222 0.42254 0.35702
 C677 C 0.94449 0.41508 0.33590
 H678 H 0.95244 0.40081 0.32771
 O679 O 1.02220 0.58123 0.38715
 O680 O 1.02219 0.60747 0.36079
 C681 C 1.02990 0.58914 0.36880
 C682 C 1.04836 0.57717 0.35699
 C683 C 1.05616 0.58475 0.33593
 H684 H 1.04824 0.59908 0.32779
 O685 O 0.88791 0.47767 0.41810
 O686 O 0.86155 0.47765 0.39187
 C687 C 0.86956 0.46996 0.41020
 C688 C 0.85777 0.45151 0.42223
 C689 C 0.83670 0.44372 0.41470
 H690 H 0.82855 0.45161 0.40036
 O691 O 1.11255 0.52183 0.41807
 O692 O 1.13895 0.52190 0.39188
 C693 C 1.13092 0.52955 0.41021
 C694 C 1.14270 0.54796 0.42228
 C695 C 1.16381 0.55573 0.41485
 H696 H 1.17200 0.54785 0.40054
 O697 O 0.91892 0.38756 0.47777
 O698 O 0.89277 0.36114 0.47769
 C699 C 0.91110 0.36919 0.47006
 C700 C 0.92322 0.35740 0.45168
 C701 C 0.91592 0.33619 0.44409
 H702 H 0.90170 0.32795 0.45209
 O703 O 1.08158 0.61204 0.47761
 O704 O 1.10776 0.63844 0.47758
 C705 C 1.08944 0.63041 0.46990
 C706 C 1.07739 0.64222 0.45147
 C707 C 1.08482 0.66336 0.44376
 H708 H 1.09910 0.67154 0.45170
 O709 O 0.91875 0.52170 0.38724
 O710 O 0.89253 0.52175 0.36087
 C711 C 0.91086 0.52941 0.36887
 C712 C 0.92288 0.54784 0.35705
 C713 C 0.91539 0.55559 0.33594
 H714 H 0.90109 0.54768 0.32778
 O715 O 1.08175 0.47788 0.38713
 O716 O 1.10799 0.47788 0.36078
 C717 C 1.08966 0.47019 0.36877
 C718 C 1.07767 0.45174 0.35697
 C719 C 1.08522 0.44394 0.33591
 H720 H 1.09955 0.45183 0.32776
 O721 O 1.02241 0.38754 0.41803
 O722 O 1.02240 0.36117 0.39184
 C723 C 1.03009 0.36917 0.41016
 C724 C 1.04853 0.35736 0.42219
 C725 C 1.05633 0.33630 0.41467
 H726 H 1.04845 0.32816 0.40033
 O727 O 0.97817 0.61202 0.41804
 O728 O 0.97812 0.63840 0.39182
 C729 C 0.97045 0.63038 0.41015
 C730 C 0.95202 0.64217 0.42218
 C731 C 0.94425 0.66327 0.41469
 H732 H 0.95216 0.67144 0.40037
 O733 O 0.88790 0.58109 0.47760
 O734 O 0.86151 0.60728 0.47754
 C735 C 0.86953 0.58895 0.46990
 C736 C 0.85771 0.57688 0.45151
 C737 C 0.83654 0.58426 0.44387
 H738 H 0.82833 0.59852 0.45183
 O739 O 1.11257 0.41838 0.47757
 O740 O 1.13895 0.39218 0.47759
 C741 C 1.13094 0.41050 0.46988
 C742 C 1.14274 0.42253 0.45144
 C743 C 1.16384 0.41504 0.44368
 H744 H 1.17200 0.40073 0.45160
 O745 O 0.97821 0.58115 0.38719
 O746 O 0.97815 0.60738 0.36081
 C747 C 0.97050 0.58904 0.36882
 C748 C 0.95207 0.57701 0.35702
 C749 C 0.94432 0.58449 0.33591
 H750 H 0.95223 0.59879 0.32773
 O751 O 1.02238 0.41844 0.38716
 O752 O 1.02237 0.39221 0.36082
 C753 C 1.03007 0.41054 0.36880
 C754 C 1.04851 0.42255 0.35698
 C755 C 1.05632 0.41501 0.33592
 H756 H 1.04845 0.40067 0.32778
 O757 O 1.11257 0.47786 0.41806
 O758 O 1.13897 0.47787 0.39187
 C759 C 1.13094 0.47017 0.41020
 C760 C 1.14275 0.45173 0.42224
 C761 C 1.16384 0.44398 0.41475
 H762 H 1.17200 0.45189 0.40044
 O763 O 0.88790 0.52164 0.41814
 O764 O 0.86152 0.52168 0.39193
 C765 C 0.86953 0.52933 0.41027
 C766 C 0.85770 0.54771 0.42233
 C767 C 0.83653 0.55536 0.41495
 H768 H 0.82832 0.54741 0.40069
 O769 O 0.91873 0.61200 0.47756
 O770 O 0.89249 0.63834 0.47749
 C771 C 0.91083 0.63035 0.46982
 C772 C 0.92284 0.64215 0.45138
 C773 C 0.91535 0.66325 0.44361
 H774 H 0.90104 0.67141 0.45153
 O775 O 1.08176 0.38747 0.47757
 O776 O 1.10798 0.36112 0.47759
 C777 C 1.08966 0.36912 0.46989
 C778 C 1.07767 0.35732 0.45142
 C779 C 1.08521 0.33627 0.44364
 H780 H 1.09953 0.32811 0.45155
 O781 O 1.08172 0.52186 0.38714
 O782 O 1.10797 0.52193 0.36080
 C783 C 1.08962 0.52959 0.36879
 C784 C 1.07759 0.54804 0.35698
 C785 C 1.08513 0.55588 0.33592
 H786 H 1.09947 0.54803 0.32777
 O787 O 0.91880 0.47773 0.38724
 O788 O 0.89259 0.47772 0.36086
 C789 C 0.91093 0.47006 0.36886
 C790 C 0.92299 0.45167 0.35704
 C791 C 0.91553 0.44395 0.33592
 H792 H 0.90121 0.45186 0.32775
 O793 O 1.02215 0.61203 0.41808
 O794 O 1.02214 0.63842 0.39187
 C795 C 1.02982 0.63040 0.41021
 C796 C 1.04822 0.64222 0.42226
 C797 C 1.05591 0.66335 0.41482
 H798 H 1.04798 0.67153 0.40052
 O799 O 0.97844 0.38765 0.41818
 O800 O 0.97838 0.36125 0.39200
 C801 C 0.97074 0.36927 0.41035
 C802 C 0.95238 0.35744 0.42246
 C803 C 0.94481 0.33623 0.41515
 H804 H 0.95279 0.32802 0.40091
 O805 O 1.11246 0.58118 0.47764
 O806 O 1.13879 0.60742 0.47762
 C807 C 1.13081 0.58908 0.46994
 C808 C 1.14264 0.57708 0.45152
 C809 C 1.16375 0.58458 0.44381
 H810 H 1.17190 0.59887 0.45177
 O811 O 0.88788 0.41826 0.47768
 O812 O 0.86157 0.39200 0.47759
 C813 C 0.86955 0.41034 0.46993
 C814 C 0.85776 0.42234 0.45145
 C815 C 0.83670 0.41482 0.44366
 H816 H 0.82855 0.40050 0.45157
 Cu817 Cu 1.00041 0.40564 0.40526
 Cu818 Cu 1.00036 0.37406 0.37373
 Cu819 Cu 1.00019 0.59397 0.40524
 Cu820 Cu 1.00015 0.62556 0.37368
 Cu821 Cu 0.90597 0.49968 0.40531
 Cu822 Cu 0.87440 0.49970 0.37374
 Cu823 Cu 1.09452 0.49985 0.40522
 Cu824 Cu 1.12611 0.49990 0.37369
 C825 C 0.94149 0.44099 0.36734
 H826 H 0.94715 0.44663 0.38376
 C827 C 0.92627 0.42578 0.32539
 C828 C 1.05906 0.55866 0.36726
 H829 H 1.05335 0.55292 0.38364
 C830 C 1.07442 0.57412 0.32544
 C831 C 0.86805 0.44084 0.44076
 H832 H 0.88443 0.44655 0.44647
 C833 C 0.82621 0.42549 0.42540
 C834 C 1.13237 0.55862 0.44078
 H835 H 1.11596 0.55293 0.44642
 C836 C 1.17429 0.57392 0.42560
 C837 C 0.94161 0.36778 0.44089
 H838 H 0.94715 0.38427 0.44644
 C839 C 0.92670 0.32564 0.42596
 C840 C 1.05894 0.63190 0.44075
 H841 H 1.05331 0.61547 0.44639
 C842 C 1.07409 0.67388 0.42555
 C843 C 0.94137 0.55853 0.36734
 H844 H 0.94705 0.55286 0.38376
 C845 C 0.92610 0.57380 0.32541
 C846 C 1.05916 0.44107 0.36725
 H847 H 1.05344 0.44678 0.38362
 C848 C 1.07456 0.42569 0.32542
 C849 C 1.05918 0.36762 0.44072
 H850 H 1.05346 0.38399 0.44643
 C851 C 1.07455 0.32579 0.42538
 C852 C 0.94133 0.63186 0.44068
 H853 H 0.94701 0.61546 0.44636
 C854 C 0.92604 0.67377 0.42539
 C855 C 0.86804 0.55845 0.44077
 H856 H 0.88451 0.55286 0.44637
 C857 C 0.82598 0.57351 0.42571
 C858 C 1.13245 0.44103 0.44073
 H859 H 1.11605 0.44671 0.44641
 C860 C 1.17435 0.42575 0.42546
 O861 O 1.02216 0.41827 0.61201
 O862 O 1.02224 0.39204 0.63840
 C863 C 1.02989 0.41038 0.63038
 C864 C 1.04832 0.42241 0.64217
 C865 C 1.05606 0.41495 0.66330
 H866 H 1.04813 0.40066 0.67149
 O867 O 0.97809 0.58108 0.61194
 O868 O 0.97806 0.60728 0.63832
 C869 C 0.97039 0.58895 0.63031
 C870 C 0.95197 0.57691 0.64213
 C871 C 0.94425 0.58436 0.66325
 H872 H 0.95217 0.59866 0.67142
 O873 O 0.88782 0.52162 0.58106
 O874 O 0.86145 0.52166 0.60728
 C875 C 0.86946 0.52933 0.58894
 C876 C 0.85767 0.54777 0.57689
 C877 C 0.83655 0.55549 0.58434
 H878 H 0.82836 0.54756 0.59863
 O879 O 1.11252 0.47779 0.58106
 O880 O 1.13888 0.47774 0.60729
 C881 C 1.13089 0.47009 0.58894
 C882 C 1.14272 0.45170 0.57690
 C883 C 1.16385 0.44400 0.58434
 H884 H 1.17203 0.45192 0.59863
 O885 O 1.08166 0.38753 0.52158
 O886 O 1.10789 0.36117 0.52165
 C887 C 1.08954 0.36917 0.52930
 C888 C 1.07749 0.35735 0.54773
 C889 C 1.08494 0.33623 0.55545
 H890 H 1.09924 0.32805 0.54753
 O891 O 0.91873 0.61202 0.52155
 O892 O 0.89250 0.63837 0.52154
 C893 C 0.91083 0.63038 0.52923
 C894 C 0.92285 0.64219 0.54766
 C895 C 0.91541 0.66331 0.55535
 H896 H 0.90113 0.67150 0.54740
 O897 O 0.91868 0.47764 0.61197
 O898 O 0.89247 0.47761 0.63834
 C899 C 0.91080 0.46994 0.63035
 C900 C 0.92284 0.45152 0.64218
 C901 C 0.91534 0.44376 0.66327
 H902 H 0.90102 0.45166 0.67142
 O903 O 1.08160 0.52168 0.61195
 O904 O 1.10779 0.52169 0.63835
 C905 C 1.08945 0.52935 0.63034
 C906 C 1.07737 0.54772 0.64216
 C907 C 1.08476 0.55538 0.66333
 H908 H 1.09903 0.54744 0.67154
 O909 O 0.97816 0.38737 0.58121
 O910 O 0.97818 0.36100 0.60744
 C911 C 0.97047 0.36901 0.58912
 C912 C 0.95200 0.35722 0.57713
 C913 C 0.94415 0.33620 0.58474
 H914 H 0.95202 0.32806 0.59910
 O915 O 1.02207 0.61195 0.58107
 O916 O 1.02209 0.63830 0.60729
 C917 C 1.02976 0.63031 0.58895
 C918 C 1.04816 0.64214 0.57690
 C919 C 1.05583 0.66327 0.58433
 H920 H 1.04789 0.67145 0.59861
 O921 O 0.88784 0.41829 0.52169
 O922 O 0.86152 0.39204 0.52165
 C923 C 0.86948 0.41037 0.52935
 C924 C 0.85764 0.42237 0.54778
 C925 C 0.83656 0.41486 0.55554
 H926 H 0.82841 0.40055 0.54763
 O927 O 1.11249 0.58121 0.52164
 O928 O 1.13881 0.60746 0.52167
 C929 C 1.13083 0.58912 0.52936
 C930 C 1.14264 0.57712 0.54783
 C931 C 1.16369 0.58467 0.55564
 H932 H 1.17183 0.59901 0.54774
 O933 O 1.02206 0.58106 0.61195
 O934 O 1.02208 0.60725 0.63833
 C935 C 1.02975 0.58892 0.63032
 C936 C 1.04816 0.57687 0.64215
 C937 C 1.05580 0.58426 0.66332
 H938 H 1.04783 0.59851 0.67152
 O939 O 0.97817 0.41825 0.61205
 O940 O 0.97820 0.39203 0.63843
 C941 C 0.97049 0.41036 0.63042
 C942 C 0.95205 0.42236 0.64222
 C943 C 0.94428 0.41486 0.66332
 H944 H 0.95219 0.40055 0.67151
 O945 O 1.11252 0.52176 0.58113
 O946 O 1.13887 0.52178 0.60738
 C947 C 1.13087 0.52947 0.58904
 C948 C 1.14266 0.54794 0.57703
 C949 C 1.16371 0.55575 0.58458
 H950 H 1.17186 0.54786 0.59892
 O951 O 0.88779 0.47765 0.58112
 O952 O 0.86142 0.47763 0.60733
 C953 C 0.86942 0.46995 0.58900
 C954 C 0.85762 0.45153 0.57697
 C955 C 0.83654 0.44376 0.58446
 H956 H 0.82837 0.45166 0.59878
 O957 O 1.08155 0.61201 0.52161
 O958 O 1.10772 0.63841 0.52163
 C959 C 1.08940 0.63038 0.52930
 C960 C 1.07734 0.64218 0.54771
 C961 C 1.08474 0.66331 0.55540
 H962 H 1.09901 0.67152 0.54746
 O963 O 0.91870 0.38740 0.52177
 O964 O 0.89253 0.36101 0.52174
 C965 C 0.91083 0.36903 0.52946
 C966 C 0.92281 0.35723 0.54794
 C967 C 0.91523 0.33621 0.55581
 H968 H 0.90087 0.32809 0.54795
 O969 O 1.08167 0.47771 0.61195
 O970 O 1.10787 0.47767 0.63834
 C971 C 1.08954 0.47000 0.63032
 C972 C 1.07751 0.45157 0.64214
 C973 C 1.08498 0.44384 0.66327
 H974 H 1.09928 0.45176 0.67144
 O975 O 0.91866 0.52161 0.61198
 O976 O 0.89244 0.52164 0.63835
 C977 C 0.91077 0.52931 0.63034
 C978 C 0.92280 0.54773 0.64215
 C979 C 0.91535 0.55545 0.66327
 H980 H 0.90106 0.54752 0.67145
 O981 O 0.97810 0.61197 0.58106
 O982 O 0.97807 0.63832 0.60728
 C983 C 0.97041 0.63033 0.58894
 C984 C 0.95201 0.64216 0.57688
 C985 C 0.94430 0.66328 0.58431
 H986 H 0.95222 0.67145 0.59861
 O987 O 1.02214 0.38747 0.58109
 O988 O 1.02223 0.36109 0.60731
 C989 C 1.02987 0.36911 0.58896
 C990 C 1.04830 0.35732 0.57691
 C991 C 1.05602 0.33620 0.58436
 H992 H 1.04809 0.32800 0.59865
 O993 O 1.11256 0.41837 0.52157
 O994 O 1.13894 0.39217 0.52164
 C995 C 1.13092 0.41050 0.52929
 C996 C 1.14273 0.42254 0.54770
 C997 C 1.16386 0.41511 0.55542
 H998 H 1.17205 0.40083 0.54748
 O999 O 0.88788 0.58114 0.52159
 O1000 O 0.86150 0.60734 0.52158
 C1001 C 0.86951 0.58901 0.52928
 C1002 C 0.85769 0.57697 0.54770
 C1003 C 0.83658 0.58443 0.55541
 H1004 H 0.82841 0.59873 0.54748
 Cu1005 Cu 1.00015 0.40547 0.59396
 Cu1006 Cu 1.00022 0.37390 0.62554
 Cu1007 Cu 1.00008 0.59389 0.59388
 Cu1008 Cu 1.00008 0.62543 0.62545
 Cu1009 Cu 0.90595 0.40551 0.49974
 Cu1010 Cu 0.87446 0.37390 0.49966
 Cu1011 Cu 1.09451 0.40556 0.49957
 Cu1012 Cu 1.12608 0.37402 0.49963
 Cu1013 Cu 0.90594 0.59394 0.49958
 Cu1014 Cu 0.87435 0.62547 0.49953
 Cu1015 Cu 1.09440 0.59398 0.49963
 Cu1016 Cu 1.12591 0.62558 0.49962
 Cu1017 Cu 0.90586 0.49963 0.59391
 Cu1018 Cu 0.87430 0.49963 0.62547
 Cu1019 Cu 1.09446 0.49974 0.59389
 Cu1020 Cu 1.12600 0.49972 0.62549
 C1021 C 1.05903 0.44088 0.63184
 H1022 H 1.05337 0.44653 0.61541
 C1023 C 1.07426 0.42565 0.67381
 C1024 C 0.94127 0.55844 0.63183
 H1025 H 0.94692 0.55279 0.61541
 C1026 C 0.92606 0.57364 0.67378
 C1027 C 0.86799 0.55848 0.55842
 H1028 H 0.88441 0.55282 0.55277
 C1029 C 0.82604 0.57371 0.57361
 C1030 C 1.13240 0.44099 0.55842
 H1031 H 1.11597 0.44663 0.55278
 C1032 C 1.17438 0.42582 0.57361
 C1033 C 1.05901 0.36766 0.55844
 H1034 H 1.05336 0.38408 0.55279
 C1035 C 1.07422 0.32569 0.57364
 C1036 C 0.94131 0.63186 0.55839
 H1037 H 0.94696 0.61544 0.55276
 C1038 C 0.92612 0.67382 0.57356
 C1039 C 0.94135 0.44084 0.63190
 H1040 H 0.94703 0.44653 0.61550
 C1041 C 0.92604 0.42555 0.67381
 C1042 C 1.05892 0.55845 0.63182
 H1043 H 1.05332 0.55285 0.61536
 C1044 C 1.07398 0.57352 0.67387
 C1045 C 0.94135 0.36748 0.55858
 H1046 H 0.94711 0.38383 0.55282
 C1047 C 0.92588 0.32573 0.57409
 C1048 C 1.05889 0.63183 0.55844
 H1049 H 1.05328 0.61540 0.55281
 C1050 C 1.07400 0.67382 0.57359
 C1051 C 0.86792 0.44086 0.55848
 H1052 H 0.88432 0.44655 0.55280
 C1053 C 0.82604 0.42555 0.57376
 C1054 C 1.13238 0.55860 0.55850
 H1055 H 1.11601 0.55288 0.55278
 C1056 C 1.17419 0.57400 0.57390
 O1057 O 0.47785 0.91884 0.38786
 O1058 O 0.47786 0.89263 0.36149
 C1059 C 0.47017 0.91096 0.36949
 C1060 C 0.45175 0.92298 0.35766
 C1061 C 0.44397 0.91548 0.33657
 H1062 H 0.45187 0.90115 0.32843
 O1063 O 0.52213 1.08189 0.38790
 O1064 O 0.52216 1.10806 0.36146
 C1065 C 0.52983 1.08974 0.36951
 C1066 C 0.54822 1.07767 0.35770
 C1067 C 0.55595 1.08512 0.33658
 H1068 H 0.54805 1.09944 0.32839
 O1069 O 0.38762 0.97842 0.41868
 O1070 O 0.36131 0.97845 0.39241
 C1071 C 0.36927 0.97075 0.41077
 C1072 C 0.35742 0.95234 0.42278
 C1073 C 0.33632 0.94463 0.41529
 H1074 H 0.32816 0.95257 0.40098
 O1075 O 0.61226 1.02219 0.41884
 O1076 O 0.63863 1.02220 0.39262
 C1077 C 0.63063 1.02986 0.41097
 C1078 C 0.64249 1.04821 0.42305
 C1079 C 0.66370 1.05577 0.41571
 H1080 H 0.67191 1.04777 0.40147
 O1081 O 0.41839 0.88798 0.47812
 O1082 O 0.39214 0.86167 0.47812
 C1083 C 0.41048 0.86964 0.47044
 C1084 C 0.42250 0.85781 0.45201
 C1085 C 0.41499 0.83673 0.44426
 H1086 H 0.40067 0.82858 0.45217
 O1087 O 0.58164 1.11274 0.47815
 O1088 O 0.60790 1.13904 0.47808
 C1089 C 0.58956 1.13107 0.47040
 C1090 C 0.57756 1.14287 0.45193
 C1091 C 0.58512 1.16391 0.44408
 H1092 H 0.59947 1.17204 0.45195
 O1093 O 0.41868 1.02230 0.38788
 O1094 O 0.39254 1.02239 0.36143
 C1095 C 0.41087 1.03001 0.36948
 C1096 C 0.42299 1.04837 0.35766
 C1097 C 0.41571 1.05594 0.33642
 H1098 H 0.40151 1.04794 0.32817
 O1099 O 0.58133 0.97830 0.38793
 O1100 O 0.60753 0.97827 0.36155
 C1101 C 0.58919 0.97062 0.36956
 C1102 C 0.57713 0.95223 0.35774
 C1103 C 0.58456 0.94454 0.33659
 H1104 H 0.59884 0.95248 0.32840
 O1105 O 0.52181 0.88798 0.41881
 O1106 O 0.52188 0.86162 0.39259
 C1107 C 0.52952 0.86963 0.41094
 C1108 C 0.54793 0.85781 0.42302
 C1109 C 0.55560 0.83666 0.41563
 H1110 H 0.54765 0.82846 0.40137
 O1111 O 0.47816 1.11284 0.41868
 O1112 O 0.47813 1.13915 0.39238
 C1113 C 0.47045 1.13118 0.41074
 C1114 C 0.45200 1.14299 0.42271
 C1115 C 0.44425 1.16408 0.41519
 H1116 H 0.45219 1.17225 0.40089
 O1117 O 0.38765 1.08196 0.47790
 O1118 O 0.36130 1.10818 0.47785
 C1119 C 0.36931 1.08985 0.47017
 C1120 C 0.35752 1.07785 0.45172
 C1121 C 0.33647 1.08539 0.44387
 H1122 H 0.32832 1.09973 0.45172
 O1123 O 0.61225 0.91881 0.47822
 O1124 O 0.63859 0.89257 0.47825
 C1125 C 0.63060 0.91090 0.47053
 C1126 C 0.64242 0.92288 0.45207
 C1127 C 0.66348 0.91534 0.44429
 H1128 H 0.67163 0.90102 0.45220
 O1129 O 0.47818 1.08184 0.38794
 O1130 O 0.47816 1.10800 0.36149
 C1131 C 0.47050 1.08967 0.36954
 C1132 C 0.45215 1.07757 0.35769
 C1133 C 0.44460 1.08487 0.33645
 H1134 H 0.45259 1.09910 0.32822
 O1135 O 0.52182 0.91886 0.38792
 O1136 O 0.52189 0.89267 0.36155
 C1137 C 0.52954 0.91100 0.36956
 C1138 C 0.54795 0.92305 0.35774
 C1139 C 0.55564 0.91564 0.33660
 H1140 H 0.54770 0.90137 0.32841
 O1141 O 0.61228 0.97822 0.41873
 O1142 O 0.63863 0.97818 0.39250
 C1143 C 0.63063 0.97050 0.41084
 C1144 C 0.64243 0.95205 0.42286
 C1145 C 0.66349 0.94425 0.41534
 H1146 H 0.67164 0.95215 0.40100
 O1147 O 0.38764 1.02240 0.41857
 O1148 O 0.36134 1.02249 0.39228
 C1149 C 0.36932 1.03015 0.41063
 C1150 C 0.35753 1.04862 0.42259
 C1151 C 0.33648 1.05643 0.41501
 H1152 H 0.32834 1.04852 0.40069
 O1153 O 0.41855 1.11279 0.47795
 O1154 O 0.39235 1.13917 0.47789
 C1155 C 0.41069 1.13116 0.47024
 C1156 C 0.42275 1.14298 0.45183
 C1157 C 0.41527 1.16407 0.44404
 H1158 H 0.40094 1.17222 0.45192
 O1159 O 0.58130 0.88804 0.47827
 O1160 O 0.60748 0.86164 0.47831
 C1161 C 0.58916 0.86966 0.47061
 C1162 C 0.57711 0.85783 0.45221
 C1163 C 0.58452 0.83668 0.44457
 H1164 H 0.59879 0.82849 0.45253
 O1165 O 0.58146 1.02228 0.38788
 O1166 O 0.60767 1.02230 0.36151
 C1167 C 0.58935 1.02999 0.36952
 C1168 C 0.57735 1.04844 0.35770
 C1169 C 0.58481 1.05616 0.33658
 H1170 H 0.59909 1.04821 0.32839
 O1171 O 0.41846 0.97833 0.38778
 O1172 O 0.39229 0.97837 0.36135
 C1173 C 0.41059 0.97065 0.36940
 C1174 C 0.42259 0.95219 0.35761
 C1175 C 0.41508 0.94442 0.33653
 H1176 H 0.40077 0.95233 0.32835
 O1177 O 0.52215 1.11278 0.41873
 O1178 O 0.52218 1.13909 0.39244
 C1179 C 0.52986 1.13111 0.41080
 C1180 C 0.54834 1.14290 0.42277
 C1181 C 0.55616 1.16394 0.41519
 H1182 H 0.54826 1.17208 0.40085
 O1183 O 0.47783 0.88794 0.41873
 O1184 O 0.47785 0.86159 0.39251
 C1185 C 0.47015 0.86959 0.41084
 C1186 C 0.45170 0.85778 0.42285
 C1187 C 0.44394 0.83670 0.41536
 H1188 H 0.45186 0.82853 0.40106
 O1189 O 0.61234 1.08170 0.47827
 O1190 O 0.63877 1.10785 0.47821
 C1191 C 0.63073 1.08952 0.47058
 C1192 C 0.64254 1.07740 0.45221
 C1193 C 0.66375 1.08469 0.44460
 H1194 H 0.67199 1.09892 0.45257
 O1195 O 0.38757 0.91891 0.47808
 O1196 O 0.36116 0.89275 0.47808
 C1197 C 0.36920 0.91106 0.47039
 C1198 C 0.35740 0.92312 0.45196
 C1199 C 0.33629 0.91568 0.44420
 H1200 H 0.32811 0.90137 0.45211
 Cu1201 Cu 0.49982 0.90603 0.40596
 Cu1202 Cu 0.49988 0.87449 0.37439
 Cu1203 Cu 0.50015 1.09473 0.40596
 Cu1204 Cu 0.50015 1.12622 0.37430
 Cu1205 Cu 0.40572 1.00035 0.40586
 Cu1206 Cu 0.37423 1.00043 0.37422
 Cu1207 Cu 0.59420 1.00025 0.40597
 Cu1208 Cu 0.62576 1.00024 0.37440
 C1209 C 0.44107 0.94150 0.36793
 H1210 H 0.44677 0.94719 0.38432
 C1211 C 0.42576 0.92618 0.32605
 C1212 C 0.55890 1.05918 0.36802
 H1213 H 0.55324 1.05353 0.38445
 C1214 C 0.57412 1.07438 0.32605
 C1215 C 0.36771 0.94161 0.44127
 H1216 H 0.38412 0.94725 0.44695
 C1217 C 0.32579 0.92642 0.42599
 C1218 C 0.63215 1.05900 0.44146
 H1219 H 0.61566 1.05347 0.44703
 C1220 C 0.67429 1.07389 0.42648
 C1221 C 0.44100 0.86808 0.44133
 H1222 H 0.44669 0.88448 0.44701
 C1223 C 0.42570 0.82621 0.42605
 C1224 C 0.55901 1.13262 0.44130
 H1225 H 0.55328 1.11626 0.44704
 C1226 C 0.57443 1.17440 0.42583
 C1227 C 0.44137 1.05916 0.36806
 H1228 H 0.44689 1.05362 0.38458
 C1229 C 0.42651 1.07406 0.32585
 C1230 C 0.55867 0.94150 0.36807
 H1231 H 0.55305 0.94712 0.38451
 C1232 C 0.57382 0.92637 0.32606
 C1233 C 0.55866 0.86815 0.44146
 H1234 H 0.55304 0.88460 0.44706
 C1235 C 0.57378 0.82613 0.42640
 C1236 C 0.44127 1.13269 0.44119
 H1237 H 0.44694 1.11629 0.44689
 C1238 C 0.42600 1.17458 0.42584
 C1239 C 0.36779 1.05931 0.44110
 H1240 H 0.38416 1.05359 0.44684
 C1241 C 0.32599 1.07470 0.42563
 C1242 C 0.63214 0.94139 0.44138
 H1243 H 0.61576 0.94710 0.44707
 C1244 C 0.67398 0.92602 0.42604
 O1245 O 0.52174 0.91897 0.61244
 O1246 O 0.52178 0.89279 0.63886
 C1247 C 0.52944 0.91112 0.63082
 C1248 C 0.54785 0.92317 0.64264
 C1249 C 0.55551 0.91576 0.66381
 H1250 H 0.54755 0.90149 0.67201
 O1251 O 0.47800 1.08190 0.61235
 O1252 O 0.47794 1.10812 0.63870
 C1253 C 0.47028 1.08979 0.63070
 C1254 C 0.45185 1.07776 0.64251
 C1255 C 0.44411 1.08524 0.66361
 H1256 H 0.45203 1.09953 0.67178
 O1257 O 0.38764 1.02247 0.58147
 O1258 O 0.36125 1.02252 0.60766
 C1259 C 0.36927 1.03017 0.58932
 C1260 C 0.35746 1.04857 0.57723
 C1261 C 0.33632 1.05627 0.58464
 H1262 H 0.32813 1.04834 0.59893
 O1263 O 0.61222 0.97846 0.58163
 O1264 O 0.63855 0.97835 0.60789
 C1265 C 0.63056 0.97072 0.58953
 C1266 C 0.64236 0.95230 0.57750
 C1267 C 0.66350 0.94459 0.58493
 H1268 H 0.67170 0.95253 0.59920
 O1269 O 0.58131 0.88806 0.52225
 O1270 O 0.60750 0.86167 0.52234
 C1271 C 0.58916 0.86969 0.52998
 C1272 C 0.57710 0.85789 0.54840
 C1273 C 0.58451 0.83675 0.55611
 H1274 H 0.59880 0.82857 0.54819
 O1275 O 0.41852 1.11275 0.52193
 O1276 O 0.39232 1.13913 0.52194
 C1277 C 0.41065 1.13111 0.52963
 C1278 C 0.42268 1.14291 0.54805
 C1279 C 0.41523 1.16403 0.55576
 H1280 H 0.40093 1.17221 0.54783
 O1281 O 0.41845 0.97849 0.61245
 O1282 O 0.39221 0.97849 0.63879
 C1283 C 0.41054 0.97080 0.63081
 C1284 C 0.42253 0.95235 0.64264
 C1285 C 0.41501 0.94460 0.66374
 H1286 H 0.40071 0.95253 0.67189
 O1287 O 0.58138 1.02243 0.61249
 O1288 O 0.60754 1.02238 0.63892
 C1289 C 0.58924 1.03009 0.63088
 C1290 C 0.57722 1.04853 0.64268
 C1291 C 0.58469 1.05627 0.66378
 H1292 H 0.59898 1.04834 0.67197
 O1293 O 0.47776 0.88804 0.58165
 O1294 O 0.47775 0.86170 0.60791
 C1295 C 0.47007 0.86969 0.58956
 C1296 C 0.45164 0.85787 0.57754
 C1297 C 0.44387 0.83679 0.58505
 H1298 H 0.45176 0.82863 0.59939
 O1299 O 0.52200 1.11278 0.58151
 O1300 O 0.52201 1.13915 0.60771
 C1301 C 0.52970 1.13114 0.58939
 C1302 C 0.54814 1.14294 0.57737
 C1303 C 0.55591 1.16403 0.58484
 H1304 H 0.54799 1.17220 0.59914
 O1305 O 0.38762 0.91897 0.52207
 O1306 O 0.36121 0.89282 0.52213
 C1307 C 0.36925 0.91114 0.52978
 C1308 C 0.35745 0.92321 0.54817
 C1309 C 0.33630 0.91581 0.55587
 H1310 H 0.32811 0.90154 0.54794
 O1311 O 0.61244 1.08190 0.52226
 O1312 O 0.63883 1.10808 0.52226
 C1313 C 0.63080 1.08978 0.52998
 C1314 C 0.64256 1.07777 0.54848
 C1315 C 0.66359 1.08532 0.55636
 H1316 H 0.67175 1.09966 0.54849
 O1317 O 0.52197 1.08191 0.61241
 O1318 O 0.52198 1.10812 0.63876
 C1319 C 0.52966 1.08979 0.63078
 C1320 C 0.54807 1.07775 0.64262
 C1321 C 0.55581 1.08522 0.66373
 H1322 H 0.54791 1.09954 0.67188
 O1323 O 0.47777 0.91892 0.61249
 O1324 O 0.47775 0.89274 0.63891
 C1325 C 0.47007 0.91106 0.63087
 C1326 C 0.45166 0.92311 0.64267
 C1327 C 0.44387 0.91562 0.66377
 H1328 H 0.45175 0.90129 0.67195
 O1329 O 0.61232 1.02244 0.58170
 O1330 O 0.63863 1.02238 0.60798
 C1331 C 0.63067 1.03011 0.58963
 C1332 C 0.64250 1.04857 0.57767
 C1333 C 0.66353 1.05638 0.58528
 H1334 H 0.67163 1.04848 0.59964
 O1335 O 0.38765 0.97850 0.58150
 O1336 O 0.36126 0.97850 0.60769
 C1337 C 0.36927 0.97082 0.58937
 C1338 C 0.35746 0.95241 0.57733
 C1339 C 0.33631 0.94474 0.58476
 H1340 H 0.32812 0.95269 0.59903
 O1341 O 0.58151 1.11270 0.52214
 O1342 O 0.60775 1.13903 0.52213
 C1343 C 0.58940 1.13106 0.52981
 C1344 C 0.57736 1.14290 0.54821
 C1345 C 0.58485 1.16398 0.55595
 H1346 H 0.59918 1.17213 0.54804
 O1347 O 0.41840 0.88802 0.52211
 O1348 O 0.39214 0.86170 0.52218
 C1349 C 0.41049 0.86968 0.52985
 C1350 C 0.42249 0.85788 0.54831
 C1351 C 0.41498 0.83680 0.55609
 H1352 H 0.40068 0.82864 0.54816
 O1353 O 0.58130 0.97846 0.61245
 O1354 O 0.60746 0.97835 0.63887
 C1355 C 0.58913 0.97072 0.63083
 C1356 C 0.57704 0.95233 0.64264
 C1357 C 0.58443 0.94464 0.66381
 H1358 H 0.59870 0.95257 0.67201
 O1359 O 0.41850 1.02247 0.61237
 O1360 O 0.39227 1.02253 0.63872
 C1361 C 0.41061 1.03018 0.63072
 C1362 C 0.42265 1.04861 0.64252
 C1363 C 0.41517 1.05635 0.66362
 H1364 H 0.40087 1.04845 0.67180
 O1365 O 0.47802 1.11276 0.58143
 O1366 O 0.47797 1.13912 0.60763
 C1367 C 0.47031 1.13111 0.58929
 C1368 C 0.45188 1.14292 0.57724
 C1369 C 0.44416 1.16403 0.58468
 H1370 H 0.45209 1.17221 0.59897
 O1371 O 0.52174 0.88805 0.58165
 O1372 O 0.52178 0.86170 0.60791
 C1373 C 0.52945 0.86969 0.58956
 C1374 C 0.54788 0.85788 0.57754
 C1375 C 0.55556 0.83674 0.58500
 H1376 H 0.54761 0.82855 0.59927
 O1377 O 0.61216 0.91894 0.52221
 O1378 O 0.63851 0.89270 0.52230
 C1379 C 0.63052 0.91105 0.52994
 C1380 C 0.64234 0.92311 0.54833
 C1381 C 0.66347 0.91567 0.55603
 H1382 H 0.67165 0.90139 0.54810
 O1383 O 0.38765 1.08189 0.52190
 O1384 O 0.36129 1.10811 0.52190
 C1385 C 0.36929 1.08977 0.52958
 C1386 C 0.35747 1.07773 0.54800
 C1387 C 0.33633 1.08516 0.55567
 H1388 H 0.32814 1.09944 0.54771
 Cu1389 Cu 0.49975 0.90612 0.59442
 Cu1390 Cu 0.49977 0.87459 0.62605
 Cu1391 Cu 0.50001 1.09471 0.59430
 Cu1392 Cu 0.49997 1.12627 0.62584
 Cu1393 Cu 0.40563 0.90609 0.50009
 Cu1394 Cu 0.37402 0.87460 0.50013
 Cu1395 Cu 0.59413 0.90609 0.50023
 Cu1396 Cu 0.62566 0.87450 0.50031
 Cu1397 Cu 0.40572 1.09472 0.49992
 Cu1398 Cu 0.37417 1.12629 0.49990
 Cu1399 Cu 0.59435 1.09464 0.50021
 Cu1400 Cu 0.62596 1.12614 0.50016
 Cu1401 Cu 0.40569 1.00048 0.59432
 Cu1402 Cu 0.37410 1.00052 0.62586
 Cu1403 Cu 0.59418 1.00045 0.59443
 Cu1404 Cu 0.62568 1.00035 0.62606
 C1405 C 0.55859 0.94161 0.63230
 H1406 H 0.55299 0.94723 0.61584
 C1407 C 0.57368 0.92648 0.67435
 C1408 C 0.44114 1.05929 0.63221
 H1409 H 0.44681 1.05362 0.61580
 C1410 C 0.42589 1.07455 0.67413
 C1411 C 0.36779 1.05928 0.55876
 H1412 H 0.38422 1.05365 0.55314
 C1413 C 0.32579 1.07444 0.57387
 C1414 C 0.63203 0.94158 0.55904
 H1415 H 0.61560 0.94721 0.55341
 C1416 C 0.67401 0.92640 0.57421
 C1417 C 0.55862 0.86821 0.55909
 H1418 H 0.55300 0.88464 0.55344
 C1419 C 0.57376 0.82622 0.57429
 C1420 C 0.44117 1.13260 0.55877
 H1421 H 0.44682 1.11619 0.55313
 C1422 C 0.42596 1.17455 0.57396
 C1423 C 0.44101 0.94163 0.63236
 H1424 H 0.44671 0.94730 0.61596
 C1425 C 0.42567 0.92635 0.67426
 C1426 C 0.55875 1.05925 0.63235
 H1427 H 0.55309 1.05358 0.61593
 C1428 C 0.57400 1.07450 0.67427
 C1429 C 0.44097 0.86816 0.55901
 H1430 H 0.44666 0.88456 0.55332
 C1431 C 0.42566 0.82629 0.57434
 C1432 C 0.55885 1.13262 0.55890
 H1433 H 0.55317 1.11622 0.55323
 C1434 C 0.57414 1.17451 0.57414
 C1435 C 0.36778 0.94167 0.55888
 H1436 H 0.38422 0.94728 0.55325
 C1437 C 0.32578 0.92656 0.57404
 C1438 C 0.63227 1.05924 0.55911
 H1439 H 0.61592 1.05352 0.55334
 C1440 C 0.67404 1.07464 0.57464
 O1441 O 0.47793 0.41857 0.88783
 O1442 O 0.47789 0.39237 0.86146
 C1443 C 0.47023 0.41070 0.86946
 C1444 C 0.45182 0.42275 0.85763
 C1445 C 0.44412 0.41532 0.83649
 H1446 H 0.45206 0.40105 0.82832
 O1447 O 0.52178 0.58134 0.88791
 O1448 O 0.52185 0.60758 0.86154
 C1449 C 0.52950 0.58923 0.86955
 C1450 C 0.54792 0.57719 0.85775
 C1451 C 0.55563 0.58464 0.83661
 H1452 H 0.54769 0.59893 0.82841
 O1453 O 0.38754 0.47799 0.91863
 O1454 O 0.36117 0.47800 0.89240
 C1455 C 0.36917 0.47031 0.91074
 C1456 C 0.35733 0.45191 0.92278
 C1457 C 0.33623 0.44418 0.91529
 H1458 H 0.32809 0.45210 0.90096
 O1459 O 0.61221 0.52181 0.91878
 O1460 O 0.63856 0.52189 0.89254
 C1461 C 0.63057 0.52952 0.91090
 C1462 C 0.64238 0.54792 0.92295
 C1463 C 0.66350 0.55564 0.91550
 H1464 H 0.67167 0.54773 0.90120
 O1465 O 0.41831 0.38776 0.97813
 O1466 O 0.39212 0.36138 0.97811
 C1467 C 0.41044 0.36940 0.97043
 C1468 C 0.42247 0.35760 0.95200
 C1469 C 0.41498 0.33651 0.94425
 H1470 H 0.40066 0.32836 0.95215
 O1471 O 0.58129 0.61203 0.97826
 O1472 O 0.60749 0.63840 0.97824
 C1473 C 0.58916 0.63040 0.97057
 C1474 C 0.57710 0.64225 0.95217
 C1475 C 0.58451 0.66341 0.94452
 H1476 H 0.59878 0.67158 0.95247
 O1477 O 0.41841 0.52198 0.88776
 O1478 O 0.39218 0.52205 0.86139
 C1479 C 0.41051 0.52971 0.86940
 C1480 C 0.42253 0.54815 0.85759
 C1481 C 0.41503 0.55593 0.83650
 H1482 H 0.40072 0.54803 0.82833
 O1483 O 0.58135 0.47789 0.88787
 O1484 O 0.60755 0.47791 0.86149
 C1485 C 0.58922 0.47022 0.86950
 C1486 C 0.57721 0.45180 0.85767
 C1487 C 0.58471 0.44407 0.83658
 H1488 H 0.59902 0.45199 0.82842
 O1489 O 0.52186 0.38764 0.91875
 O1490 O 0.52187 0.36128 0.89254
 C1491 C 0.52954 0.36927 0.91088
 C1492 C 0.54796 0.35744 0.92292
 C1493 C 0.55569 0.33634 0.91544
 H1494 H 0.54776 0.32819 0.90113
 O1495 O 0.47779 0.61222 0.91874
 O1496 O 0.47780 0.63862 0.89253
 C1497 C 0.47011 0.63059 0.91085
 C1498 C 0.45168 0.64240 0.92288
 C1499 C 0.44392 0.66350 0.91538
 H1500 H 0.45182 0.67166 0.90106
 O1501 O 0.38756 0.58133 0.97828
 O1502 O 0.36118 0.60753 0.97823
 C1503 C 0.36920 0.58920 0.97057
 C1504 C 0.35740 0.57716 0.95215
 C1505 C 0.33623 0.58455 0.94449
 H1506 H 0.32802 0.59879 0.95245
 O1507 O 0.61226 0.41837 0.97818
 O1508 O 0.63860 0.39214 0.97817
 C1509 C 0.63061 0.41047 0.97048
 C1510 C 0.64241 0.42249 0.95202
 C1511 C 0.66348 0.41497 0.94423
 H1512 H 0.67164 0.40064 0.95212
 O1513 O 0.47780 0.58142 0.88781
 O1514 O 0.47782 0.60766 0.86145
 C1515 C 0.47013 0.58933 0.86944
 C1516 C 0.45170 0.57733 0.85761
 C1517 C 0.44393 0.58485 0.83652
 H1518 H 0.45183 0.59918 0.82836
 O1519 O 0.52190 0.41848 0.88782
 O1520 O 0.52192 0.39228 0.86146
 C1521 C 0.52960 0.41060 0.86946
 C1522 C 0.54804 0.42262 0.85765
 C1523 C 0.55581 0.41514 0.83656
 H1524 H 0.54791 0.40084 0.82838
 O1525 O 0.61223 0.47784 0.91874
 O1526 O 0.63858 0.47786 0.89250
 C1527 C 0.63059 0.47015 0.91083
 C1528 C 0.64240 0.45170 0.92284
 C1529 C 0.66347 0.44392 0.91531
 H1530 H 0.67161 0.45183 0.90098
 O1531 O 0.38762 0.52194 0.91872
 O1532 O 0.36124 0.52201 0.89250
 C1533 C 0.36925 0.52965 0.91085
 C1534 C 0.35743 0.54803 0.92293
 C1535 C 0.33626 0.55568 0.91553
 H1536 H 0.32807 0.54775 0.90125
 O1537 O 0.41839 0.61223 0.97826
 O1538 O 0.39216 0.63859 0.97820
 C1539 C 0.41049 0.63059 0.97053
 C1540 C 0.42251 0.64239 0.95209
 C1541 C 0.41502 0.66349 0.94432
 H1542 H 0.40071 0.67165 0.95224
 O1543 O 0.58135 0.38756 0.97822
 O1544 O 0.60753 0.36117 0.97821
 C1545 C 0.58921 0.36919 0.97053
 C1546 C 0.57716 0.35740 0.95210
 C1547 C 0.58462 0.33630 0.94435
 H1548 H 0.59893 0.32812 0.95226
 O1549 O 0.58130 0.52186 0.88793
 O1550 O 0.60750 0.52193 0.86154
 C1551 C 0.58916 0.52959 0.86957
 C1552 C 0.57711 0.54801 0.85776
 C1553 C 0.58454 0.55572 0.83662
 H1554 H 0.59883 0.54779 0.82843
 O1555 O 0.41846 0.47801 0.88780
 O1556 O 0.39225 0.47802 0.86142
 C1557 C 0.41058 0.47033 0.86943
 C1558 C 0.42263 0.45193 0.85761
 C1559 C 0.41519 0.44423 0.83647
 H1560 H 0.40090 0.45216 0.82828
 O1561 O 0.52177 0.61218 0.91878
 O1562 O 0.52184 0.63858 0.89258
 C1563 C 0.52949 0.63054 0.91092
 C1564 C 0.54790 0.64232 0.92299
 C1565 C 0.55557 0.66348 0.91560
 H1566 H 0.54762 0.67171 0.90134
 O1567 O 0.47788 0.38768 0.91871
 O1568 O 0.47783 0.36133 0.89250
 C1569 C 0.47015 0.36934 0.91083
 C1570 C 0.45169 0.35756 0.92284
 C1571 C 0.44393 0.33648 0.91536
 H1572 H 0.45185 0.32830 0.90107
 O1573 O 0.61220 0.58120 0.97827
 O1574 O 0.63855 0.60741 0.97825
 C1575 C 0.63056 0.58909 0.97057
 C1576 C 0.64238 0.57707 0.95215
 C1577 C 0.66349 0.58453 0.94443
 H1578 H 0.67167 0.59881 0.95237
 O1579 O 0.38744 0.41863 0.97817
 O1580 O 0.36110 0.39239 0.97815
 C1581 C 0.36909 0.41073 0.97047
 C1582 C 0.35728 0.42276 0.95202
 C1583 C 0.33618 0.41529 0.94427
 H1584 H 0.32800 0.40100 0.95220
 Cu1585 Cu 0.49989 0.40572 0.90590
 Cu1586 Cu 0.49987 0.37417 0.87435
 Cu1587 Cu 0.49978 0.59416 0.90594
 Cu1588 Cu 0.49984 0.62575 0.87438
 Cu1589 Cu 0.40564 0.49998 0.90585
 Cu1590 Cu 0.37407 0.50002 0.87428
 Cu1591 Cu 0.59415 0.49984 0.90596
 Cu1592 Cu 0.62569 0.49991 0.87437
 C1593 C 0.44110 0.44121 0.86794
 H1594 H 0.44673 0.44684 0.88437
 C1595 C 0.42593 0.42605 0.82595
 C1596 C 0.55864 0.55872 0.86807
 H1597 H 0.55301 0.55307 0.88451
 C1598 C 0.57382 0.57392 0.82608
 C1599 C 0.36761 0.44122 0.94130
 H1600 H 0.38401 0.44688 0.94698
 C1601 C 0.32570 0.42600 0.92602
 C1602 C 0.63207 0.55861 0.94143
 H1603 H 0.61565 0.55296 0.94708
 C1604 C 0.67402 0.57383 0.92623
 C1605 C 0.44098 0.36788 0.94132
 H1606 H 0.44667 0.38427 0.94699
 C1607 C 0.42569 0.32599 0.92605
 C1608 C 0.55864 0.63195 0.94143
 H1609 H 0.55302 0.61550 0.94703
 C1610 C 0.57375 0.67399 0.92635
 C1611 C 0.44102 0.55882 0.86790
 H1612 H 0.44670 0.55312 0.88430
 C1613 C 0.42571 0.57417 0.82600
 C1614 C 0.55872 0.44110 0.86796
 H1615 H 0.55303 0.44677 0.88437
 C1616 C 0.57403 0.42586 0.82606
 C1617 C 0.55867 0.36772 0.94140
 H1618 H 0.55302 0.38413 0.94707
 C1619 C 0.57390 0.32581 0.92614
 C1620 C 0.44100 0.63210 0.94139
 H1621 H 0.44668 0.61570 0.94707
 C1622 C 0.42570 0.67400 0.92609
 C1623 C 0.36775 0.55874 0.94139
 H1624 H 0.38420 0.55314 0.94700
 C1625 C 0.32571 0.57382 0.92630
 C1626 C 0.63212 0.44100 0.94135
 H1627 H 0.61574 0.44670 0.94706
 C1628 C 0.67397 0.42567 0.92599
 O1629 O 0.52190 0.41839 1.11271
 O1630 O 0.52187 0.39211 1.13904
 C1631 C 0.52958 0.41045 1.13107
 C1632 C 0.54804 0.42240 1.14290
 C1633 C 0.55585 0.41482 1.16395
 H1634 H 0.54794 0.40049 1.17209
 O1635 O 0.47780 0.58120 1.11254
 O1636 O 0.47781 0.60738 1.13892
 C1637 C 0.47012 0.58907 1.13092
 C1638 C 0.45169 0.57706 1.14274
 C1639 C 0.44397 0.58455 1.16384
 H1640 H 0.45190 0.59884 1.17199
 O1641 O 0.38745 0.52185 1.08172
 O1642 O 0.36110 0.52186 1.10795
 C1643 C 0.36910 0.52956 1.08961
 C1644 C 0.35731 0.54802 1.07760
 C1645 C 0.33624 0.55582 1.08512
 H1646 H 0.32808 0.54793 1.09945
 O1647 O 0.61216 0.47772 1.08174
 O1648 O 0.63854 0.47770 1.10796
 C1649 C 0.63053 0.47004 1.08961
 C1650 C 0.64237 0.45166 1.07755
 C1651 C 0.66350 0.44397 1.08499
 H1652 H 0.67168 0.45189 1.09928
 O1653 O 0.58135 0.38757 1.02221
 O1654 O 0.60755 0.36118 1.02227
 C1655 C 0.58923 0.36921 1.02994
 C1656 C 0.57720 0.35741 1.04839
 C1657 C 0.58467 0.33631 1.05614
 H1658 H 0.59896 0.32813 1.04822
 O1659 O 0.41838 0.61223 1.02226
 O1660 O 0.39216 0.63860 1.02226
 C1661 C 0.41049 0.63059 1.02995
 C1662 C 0.42252 0.64238 1.04838
 C1663 C 0.41505 0.66347 1.05616
 H1664 H 0.40074 0.67165 1.04825
 O1665 O 0.41834 0.47783 1.11256
 O1666 O 0.39215 0.47779 1.13895
 C1667 C 0.41048 0.47012 1.13093
 C1668 C 0.42251 0.45168 1.14274
 C1669 C 0.41502 0.44391 1.16384
 H1670 H 0.40070 0.45181 1.17200
 O1671 O 0.58125 0.52164 1.11260
 O1672 O 0.60746 0.52168 1.13899
 C1673 C 0.58912 0.52934 1.13097
 C1674 C 0.57705 0.54774 1.14278
 C1675 C 0.58445 0.55540 1.16394
 H1676 H 0.59872 0.54746 1.17215
 O1677 O 0.47796 0.38769 1.08166
 O1678 O 0.47788 0.36125 1.10782
 C1679 C 0.47026 0.36930 1.08948
 C1680 C 0.45190 0.35750 1.07735
 C1681 C 0.44433 0.33627 1.08463
 H1682 H 0.45233 0.32801 1.09885
 O1683 O 0.52179 0.61205 1.08167
 O1684 O 0.52186 0.63839 1.10790
 C1685 C 0.52951 0.63039 1.08955
 C1686 C 0.54793 0.64220 1.07751
 C1687 C 0.55561 0.66334 1.08493
 H1688 H 0.54766 0.67153 1.09920
 O1689 O 0.38742 0.41854 1.02218
 O1690 O 0.36111 0.39228 1.02222
 C1691 C 0.36909 0.41061 1.02990
 C1692 C 0.35729 0.42259 1.04837
 C1693 C 0.33623 0.41504 1.05618
 H1694 H 0.32809 0.40072 1.04828
 O1695 O 0.61218 0.58115 1.02227
 O1696 O 0.63853 0.60737 1.02230
 C1697 C 0.63053 0.58903 1.02997
 C1698 C 0.64234 0.57700 1.04841
 C1699 C 0.66346 0.58445 1.05614
 H1700 H 0.67163 0.59874 1.04820
 O1701 O 0.52177 0.58114 1.11254
 O1702 O 0.52183 0.60733 1.13892
 C1703 C 0.52948 0.58899 1.13091
 C1704 C 0.54787 0.57692 1.14274
 C1705 C 0.55553 0.58432 1.16390
 H1706 H 0.54758 0.59859 1.17209
 O1707 O 0.47791 0.41844 1.11263
 O1708 O 0.47782 0.39216 1.13896
 C1709 C 0.47017 0.41051 1.13097
 C1710 C 0.45172 0.42252 1.14277
 C1711 C 0.44395 0.41501 1.16386
 H1712 H 0.45186 0.40070 1.17204
 O1713 O 0.61218 0.52169 1.08179
 O1714 O 0.63855 0.52173 1.10802
 C1715 C 0.63054 0.52940 1.08968
 C1716 C 0.64234 0.54782 1.07763
 C1717 C 0.66346 0.55554 1.08508
 H1718 H 0.67163 0.54761 1.09939
 O1719 O 0.38743 0.47787 1.08172
 O1720 O 0.36108 0.47782 1.10795
 C1721 C 0.36908 0.47016 1.08961
 C1722 C 0.35728 0.45173 1.07759
 C1723 C 0.33623 0.44391 1.08512
 H1724 H 0.32808 0.45178 1.09946
 O1725 O 0.58131 0.61202 1.02225
 O1726 O 0.60751 0.63839 1.02228
 C1727 C 0.58918 0.63038 1.02994
 C1728 C 0.57712 0.64220 1.04834
 C1729 C 0.58454 0.66333 1.05603
 H1730 H 0.59882 0.67152 1.04809
 O1731 O 0.41843 0.38780 1.02211
 O1732 O 0.39227 0.36139 1.02215
 C1733 C 0.41060 0.36940 1.02980
 C1734 C 0.42271 0.35756 1.04816
 C1735 C 0.41542 0.33632 1.05570
 H1736 H 0.40120 0.32810 1.04770
 O1737 O 0.58138 0.47768 1.11271
 O1738 O 0.60760 0.47765 1.13908
 C1739 C 0.58928 0.46997 1.13108
 C1740 C 0.57727 0.45153 1.14289
 C1741 C 0.58481 0.44368 1.16395
 H1742 H 0.59916 0.45153 1.17210
 O1743 O 0.41831 0.52180 1.11260
 O1744 O 0.39212 0.52182 1.13899
 C1745 C 0.41044 0.52949 1.13098
 C1746 C 0.42249 0.54791 1.14278
 C1747 C 0.41502 0.55567 1.16388
 H1748 H 0.40071 0.54778 1.17207
 O1749 O 0.47782 0.61211 1.08169
 O1750 O 0.47783 0.63845 1.10792
 C1751 C 0.47014 0.63047 1.08959
 C1752 C 0.45172 0.64232 1.07757
 C1753 C 0.44399 0.66340 1.08507
 H1754 H 0.45191 0.67154 1.09939
 O1755 O 0.52193 0.38762 1.08177
 O1756 O 0.52190 0.36119 1.10794
 C1757 C 0.52961 0.36923 1.08963
 C1758 C 0.54803 0.35743 1.07760
 C1759 C 0.55578 0.33632 1.08508
 H1760 H 0.54787 0.32815 1.09940
 O1761 O 0.61224 0.41840 1.02218
 O1762 O 0.63859 0.39217 1.02223
 C1763 C 0.63060 0.41051 1.02989
 C1764 C 0.64240 0.42253 1.04833
 C1765 C 0.66354 0.41510 1.05603
 H1766 H 0.67174 0.40084 1.04808
 O1767 O 0.38751 0.58137 1.02228
 O1768 O 0.36115 0.60758 1.02228
 C1769 C 0.36915 0.58925 1.02997
 C1770 C 0.35734 0.57723 1.04842
 C1771 C 0.33628 0.58477 1.05620
 H1772 H 0.32814 0.59911 1.04831
 Cu1773 Cu 0.49993 0.40567 1.09458
 Cu1774 Cu 0.49986 0.37403 1.12608
 Cu1775 Cu 0.49979 0.59400 1.09448
 Cu1776 Cu 0.49984 0.62553 1.12606
 Cu1777 Cu 0.40551 0.40582 1.00015
 Cu1778 Cu 0.37401 0.37422 1.00016
 Cu1779 Cu 0.59418 0.40560 1.00019
 Cu1780 Cu 0.62571 0.37402 1.00022
 Cu1781 Cu 0.40559 0.59417 1.00027
 Cu1782 Cu 0.37402 0.62572 1.00023
 Cu1783 Cu 0.59412 0.59397 1.00026
 Cu1784 Cu 0.62566 0.62554 1.00026
 Cu1785 Cu 0.40551 0.49984 1.09452
 Cu1786 Cu 0.37397 0.49982 1.12610
 Cu1787 Cu 0.59411 0.49968 1.09459
 Cu1788 Cu 0.62568 0.49969 1.12616
 C1789 C 0.55873 0.44091 1.13262
 H1790 H 0.55301 0.44666 1.11625
 C1791 C 0.57411 0.42545 1.17444
 C1792 C 0.44098 0.55858 1.13246
 H1793 H 0.44664 0.55291 1.11605
 C1794 C 0.42575 0.57387 1.17437
 C1795 C 0.36760 0.55870 1.05909
 H1796 H 0.38398 0.55299 1.05339
 C1797 C 0.32577 0.57408 1.07444
 C1798 C 0.63206 0.44096 1.05907
 H1799 H 0.61563 0.44659 1.05343
 C1800 C 0.67405 0.42581 1.07424
 C1801 C 0.55873 0.36773 1.05909
 H1802 H 0.55306 0.38414 1.05342
 C1803 C 0.57398 0.32580 1.07437
 C1804 C 0.44101 0.63206 1.05907
 H1805 H 0.44668 0.61566 1.05338
 C1806 C 0.42577 0.67394 1.07438
 C1807 C 0.44102 0.44101 1.13245
 H1808 H 0.44670 0.44670 1.11605
 C1809 C 0.42572 0.42569 1.17436
 C1810 C 0.55861 0.55847 1.13243
 H1811 H 0.55300 0.55286 1.11597
 C1812 C 0.57370 0.57357 1.17446
 C1813 C 0.44111 0.36791 1.05895
 H1814 H 0.44664 0.38441 1.05343
 C1815 C 0.42622 0.32572 1.07381
 C1816 C 0.55866 0.63188 1.05906
 H1817 H 0.55303 0.61545 1.05344
 C1818 C 0.57380 0.67386 1.07420
 C1819 C 0.36756 0.44109 1.05906
 H1820 H 0.38393 0.44681 1.05334
 C1821 C 0.32574 0.42569 1.07443
 C1822 C 0.63203 0.55853 1.05914
 H1823 H 0.61561 0.55288 1.05348
 C1824 C 0.67397 0.57373 1.07435
 C1825 C 1.11847 1.11594 1.23547
 C1826 C 1.10488 1.12927 1.25333
 C1827 C 1.11581 1.11493 1.27193
 C1828 C 1.12954 1.10173 1.25438
 C1829 C 1.09922 1.09866 1.23416
 C1830 C 1.11015 1.08430 1.25276
 C1831 C 1.08549 1.11186 1.25170
 C1832 C 1.09656 1.09765 1.27065
 C1833 C 1.12521 1.12417 1.29282
 C1834 C 1.13309 1.13197 1.30985
 C1835 C 1.09017 1.08978 1.21297
 C1836 C 1.08292 1.08263 1.19538
 H1837 H 1.12738 1.12336 1.22077
 H1838 H 1.10282 1.14786 1.25379
 H1839 H 1.14776 1.09766 1.25572
 H1840 H 1.11222 1.06571 1.25229
 H1841 H 1.06727 1.11593 1.25036
 H1842 H 1.08766 1.09023 1.28535
 C1843 C 1.08374 0.60123 0.75570
 C1844 C 1.10291 0.59042 0.76981
 C1845 C 1.11381 0.61377 0.77233
 C1846 C 1.09479 0.62473 0.75857
 C1847 C 1.09783 0.59757 0.73428
 C1848 C 1.10873 0.62092 0.73682
 C1849 C 1.11685 0.58661 0.74804
 C1850 C 1.12788 0.61010 0.75089
 C1851 C 1.12291 0.62298 0.79335
 C1852 C 1.13061 0.63074 0.81048
 C1853 C 1.08912 0.58875 0.71293
 C1854 C 1.08213 0.58170 0.69521
 H1855 H 1.06549 0.59748 0.75743
 H1856 H 1.10063 0.57799 0.78362
 H1857 H 1.08582 0.64050 0.76313
 H1858 H 1.11103 0.63336 0.72302
 H1859 H 1.12582 0.57084 0.74347
 H1860 H 1.14613 0.61385 0.74915
 C1861 C 0.62264 1.09523 0.74261
 C1862 C 0.62383 1.12055 0.74882
 C1863 C 0.61463 1.11489 0.77237
 C1864 C 0.61357 1.08970 0.76648
 C1865 C 0.59830 1.09869 0.73446
 C1866 C 0.58908 1.09302 0.75800
 C1867 C 0.59936 1.12388 0.74036
 C1868 C 0.59028 1.11836 0.76423
 C1869 C 0.62390 1.12409 0.79333
 C1870 C 0.63169 1.13185 0.81042
 C1871 C 0.58940 1.08985 0.71319
 C1872 C 0.58227 1.08276 0.69554
 H1873 H 0.63585 1.08562 0.73348
 H1874 H 0.63823 1.13197 0.74528
 H1875 H 0.61952 1.07575 0.77746
 H1876 H 0.57468 1.08160 0.76153
 H1877 H 0.59342 1.13784 0.72939
 H1878 H 0.57708 1.12798 0.77336
 C1879 C 0.61112 0.61969 1.23678
 C1880 C 0.59675 0.62628 1.25756
 C1881 C 0.61366 0.61393 1.27281
 C1882 C 0.62816 0.60748 1.25234
 C1883 C 0.59762 0.59768 1.23481
 C1884 C 0.61454 0.58533 1.25006
 C1885 C 0.58310 0.60413 1.25527
 C1886 C 0.60017 0.59192 1.27086
 C1887 C 0.62281 0.62316 1.29381
 C1888 C 0.63055 0.63093 1.31090
 C1889 C 0.58887 0.58884 1.21349
 C1890 C 0.58186 0.58176 1.19578
 H1891 H 0.61552 0.63101 1.22254
 H1892 H 0.58953 0.64323 1.26089
 H1893 H 0.64679 0.60896 1.25137
 H1894 H 0.62175 0.56839 1.24673
 H1895 H 0.56447 0.60265 1.25622
 H1896 H 0.59577 0.58061 1.28512
 C1897 C 0.89094 0.87792 1.23687
 C1898 C 0.90453 0.87444 1.25890
 C1899 C 0.88507 0.88514 1.27223
 C1900 C 0.87135 0.88848 1.25050
 C1901 C 0.90151 0.90143 1.23438
 C1902 C 0.88205 0.91213 1.24771
 C1903 C 0.91525 0.89809 1.25610
 C1904 C 0.89564 0.90866 1.26977
 C1905 C 0.87575 0.87589 1.29315
 C1906 C 0.86792 0.86808 1.31021
 C1907 C 0.91048 0.91031 1.21315
 C1908 C 0.91766 0.91744 1.19552
 H1909 H 0.88910 0.86537 1.22311
 H1910 H 0.91366 0.85883 1.26374
 H1911 H 0.85320 0.88443 1.24843
 H1912 H 0.87292 0.92774 1.24286
 H1913 H 0.93340 0.90215 1.25816
 H1914 H 0.89746 0.92119 1.28354
 C1915 C 0.89078 0.37803 0.73654
 C1916 C 0.90429 0.37461 0.75863
 C1917 C 0.88485 0.38547 0.77185
 C1918 C 0.87120 0.38876 0.75006
 C1919 C 0.90146 0.40148 0.73396
 C1920 C 0.88202 0.41234 0.74717
 C1921 C 0.91512 0.39821 0.75573
 C1922 C 0.89552 0.40893 0.76929
 C1923 C 0.87543 0.37636 0.79279
 C1924 C 0.86756 0.36865 0.80986
 C1925 C 0.91051 0.41023 0.71270
 C1926 C 0.91772 0.41729 0.69506
 H1927 H 0.88893 0.36542 0.72284
 H1928 H 0.91335 0.35899 0.76358
 H1929 H 0.85304 0.38477 0.74796
 H1930 H 0.87296 0.42796 0.74222
 H1931 H 0.93329 0.40219 0.75782
 H1932 H 0.89736 0.42153 0.78299
 C1933 C 0.40096 0.91486 0.75693
 C1934 C 0.37623 0.90729 0.76057
 C1935 C 0.38482 0.88583 0.77226
 C1936 C 0.40941 0.89324 0.76895
 C1937 C 0.40123 0.90209 0.73439
 C1938 C 0.40982 0.88062 0.74608
 C1939 C 0.37664 0.89468 0.73772
 C1940 C 0.38509 0.87308 0.74971
 C1941 C 0.37551 0.87658 0.79319
 C1942 C 0.36768 0.86878 0.81025
 C1943 C 0.41018 0.91097 0.71315
 C1944 C 0.41735 0.91808 0.69551
 H1945 H 0.40759 0.93214 0.75965
 H1946 H 0.36231 0.91816 0.76677
 H1947 H 0.42278 0.89254 0.78203
 H1948 H 0.42374 0.86976 0.73988
 H1949 H 0.36326 0.89536 0.72464
 H1950 H 0.37847 0.85580 0.74698
 C1951 C 0.39479 0.37675 1.23833
 C1952 C 0.40683 0.37747 1.26150
 C1953 C 0.38473 0.38543 1.27240
 C1954 C 0.37255 0.38457 1.24955
 C1955 C 0.40124 0.40154 1.23451
 C1956 C 0.37913 0.40949 1.24541
 C1957 C 0.41343 0.40241 1.25736
 C1958 C 0.39117 0.41022 1.26860
 C1959 C 0.37537 0.37627 1.29335
 C1960 C 0.36752 0.36852 1.31042
 C1961 C 0.41023 0.41034 1.21326
 C1962 C 0.41741 0.41742 1.19561
 H1963 H 0.39638 0.36308 1.22566
 H1964 H 0.41811 0.36420 1.26836
 H1965 H 0.35564 0.37713 1.24656
 H1966 H 0.36784 0.42276 1.23856
 H1967 H 0.43034 0.40984 1.26032
 H1968 H 0.38957 0.42388 1.28128
 C1969 C 0.91504 1.10778 0.74627
 C1970 C 0.89977 1.09465 0.72962
 C1971 C 0.88411 1.11523 0.72820
 C1972 C 0.89923 1.12850 0.74451
 C1973 C 0.90073 1.09889 0.76596
 C1974 C 0.88507 1.11947 0.76451
 C1975 C 0.88561 1.08562 0.74965
 C1976 C 0.86981 1.10634 0.74789
 C1977 C 0.87469 1.12451 0.70732
 C1978 C 0.86680 1.13232 0.69028
 C1979 C 0.90981 1.08996 0.78714
 C1980 C 0.91708 1.08279 0.80471
 H1981 H 0.93374 1.10826 0.74584
 H1982 H 0.90571 1.08454 0.71503
 H1983 H 0.90473 1.14623 0.74217
 H1984 H 0.87912 1.12959 0.77909
 H1985 H 0.88011 1.06789 0.75200
 H1986 H 0.85111 1.10585 0.74834
 C1987 C 0.91222 0.59405 0.24185
 C1988 C 0.88836 0.58913 0.23239
 C1989 C 0.88548 0.61437 0.22733
 C1990 C 0.90918 0.61944 0.23645
 C1991 C 0.90180 0.59807 0.26522
 C1992 C 0.89890 0.62331 0.26015
 C1993 C 0.87809 0.59301 0.25610
 C1994 C 0.87507 0.61838 0.25071
 C1995 C 0.87621 0.62363 0.20638
 C1996 C 0.86840 0.63144 0.18931
 C1997 C 0.91069 0.58919 0.28649
 C1998 C 0.91782 0.58207 0.30414
 H1999 H 0.92760 0.58394 0.23846
 H2000 H 0.88392 0.57519 0.22074
 H2001 H 0.92186 0.63041 0.22813
 H2002 H 0.90334 0.63726 0.27180
 H2003 H 0.86541 0.58204 0.26442
 H2004 H 0.85969 0.62848 0.25412
 C2005 C 0.41341 1.09338 0.24195
 C2006 C 0.38965 1.08826 0.23235
 C2007 C 0.38671 1.11343 0.22698
 C2008 C 0.41032 1.11869 0.23624
 C2009 C 0.40277 1.09763 0.26519
 C2010 C 0.39983 1.12279 0.25980
 C2011 C 0.37916 1.09237 0.25592
 C2012 C 0.37610 1.11767 0.25023
 C2013 C 0.37757 1.12244 0.20588
 C2014 C 0.36985 1.13008 0.18871
 C2015 C 0.41150 1.08902 0.28662
 C2016 C 0.41846 1.08211 0.30442
 H2017 H 0.42885 1.08329 0.23881
 H2018 H 0.38535 1.07417 0.22082
 H2019 H 0.42303 1.12961 0.22790
 H2020 H 0.40412 1.13689 0.27133
 H2021 H 0.36645 1.08145 0.26426
 H2022 H 0.36065 1.12775 0.25340
 C2023 C 0.41287 0.59652 0.74282
 C2024 C 0.39003 0.58959 0.73218
 C2025 C 0.38471 0.61459 0.72801
 C2026 C 0.40739 0.62167 0.73831
 C2027 C 0.40122 0.59841 0.76588
 C2028 C 0.39589 0.62341 0.76170
 C2029 C 0.37853 0.59134 0.75557
 C2030 C 0.37307 0.61647 0.75108
 C2031 C 0.37535 0.62379 0.70708
 C2032 C 0.36750 0.63156 0.69001
 C2033 C 0.41021 0.58957 0.78712
 C2034 C 0.41740 0.58247 0.80476
 H2035 H 0.42934 0.58822 0.73967
 H2036 H 0.38752 0.57579 0.71980
 H2037 H 0.41915 0.63425 0.73098
 H2038 H 0.39839 0.63722 0.77407
 H2039 H 0.36677 0.57877 0.76291
 H2040 H 0.35660 0.62478 0.75425
 C2041 C 1.08913 0.90844 0.74206
 C2042 C 1.11382 0.91091 0.73388
 C2043 C 1.11394 0.88579 0.72759
 C2044 C 1.08939 0.88318 0.73543
 C2045 C 1.09789 0.90203 0.76560
 C2046 C 1.09800 0.87692 0.75930
 C2047 C 1.12243 0.90464 0.75775
 C2048 C 1.12268 0.87940 0.75114
 C2049 C 1.12308 0.87657 0.70659
 C2050 C 1.13081 0.86882 0.68948
 C2051 C 1.08914 0.91088 0.78692
 C2052 C 1.08212 0.91796 0.80462
 H2053 H 1.07524 0.92049 0.73858
 H2054 H 1.12043 0.92478 0.72319
 H2055 H 1.07591 0.87424 0.72602
 H2056 H 1.09140 0.86304 0.76999
 H2057 H 1.13591 0.91357 0.76716
 H2058 H 1.13657 0.86735 0.75464
 C2059 C 1.11856 0.38424 0.26407
 C2060 C 1.10500 0.37066 0.24638
 C2061 C 1.11563 0.38502 0.22762
 C2062 C 1.12934 0.39847 0.24500
 C2063 C 1.09913 0.40131 0.26542
 C2064 C 1.10976 0.41568 0.24666
 C2065 C 1.08542 0.38787 0.24804
 C2066 C 1.09620 0.40209 0.22894
 C2067 C 1.12499 0.37576 0.20672
 C2068 C 1.13284 0.36796 0.18968
 C2069 C 1.09013 0.41021 0.28662
 C2070 C 1.08292 0.41736 0.30422
 H2071 H 1.12766 0.37700 0.27875
 H2072 H 1.10314 0.35204 0.24604
 H2073 H 1.14750 0.40272 0.24352
 H2074 H 1.11162 0.43430 0.24701
 H2075 H 1.06726 0.38361 0.24954
 H2076 H 1.08711 0.40933 0.21426
 C2077 C 0.60333 0.91654 0.24486
 C2078 C 0.62596 0.90371 0.24241
 C2079 C 0.61398 0.88599 0.22780
 C2080 C 0.59150 0.89867 0.22991
 C2081 C 0.59786 0.90224 0.26577
 C2082 C 0.58589 0.88453 0.25117
 C2083 C 0.62034 0.88956 0.26364
 C2084 C 0.60851 0.87171 0.24872
 C2085 C 0.62316 0.87676 0.20682
 C2086 C 0.63090 0.86898 0.18973
 C2087 C 0.58907 0.91109 0.28707
 C2088 C 0.58202 0.91816 0.30476
 H2089 H 0.60110 0.93507 0.24352
 H2090 H 0.64254 0.91149 0.23857
 H2091 H 0.57975 0.90231 0.21580
 H2092 H 0.56931 0.87674 0.25501
 H2093 H 0.63211 0.88591 0.27774
 H2094 H 0.61073 0.85318 0.25007
 C2095 C 0.61443 0.38141 0.76432
 C2096 C 0.60024 0.37234 0.74437
 C2097 C 0.61514 0.38583 0.72802
 C2098 C 0.62946 0.39476 0.74766
 C2099 C 0.59857 0.40183 0.76591
 C2100 C 0.61347 0.41532 0.74956
 C2101 C 0.58424 0.39290 0.74627
 C2102 C 0.59928 0.40625 0.72958
 C2103 C 0.62452 0.37671 0.70708
 C2104 C 0.63237 0.36899 0.69001
 C2105 C 0.58955 0.41058 0.78716
 C2106 C 0.58235 0.41762 0.80481
 H2107 H 0.62055 0.37130 0.77884
 H2108 H 0.59490 0.35457 0.74201
 H2109 H 0.64816 0.39543 0.74800
 H2110 H 0.61881 0.43310 0.75194
 H2111 H 0.56554 0.39223 0.74595
 H2112 H 0.59317 0.41636 0.71505
 C2113 C 1.25259 1.10975 1.08313
 C2114 C 1.25468 1.12772 1.10196
 C2115 C 1.27297 1.11330 1.11331
 C2116 C 1.27123 1.09546 1.09462
 C2117 C 1.23480 1.09740 1.09734
 C2118 C 1.25308 1.08297 1.10869
 C2119 C 1.23657 1.11524 1.11602
 C2120 C 1.25517 1.10095 1.12750
 C2121 C 1.29405 1.12236 1.12240
 C2122 C 1.31121 1.13004 1.13008
 C2123 C 1.21338 1.08874 1.08866
 C2124 C 1.19561 1.08181 1.08171
 H2125 H 1.25128 1.11326 1.06479
 H2126 H 1.25558 1.14622 1.09929
 H2127 H 1.28572 1.08743 1.08593
 H2128 H 1.25217 1.06447 1.11135
 H2129 H 1.22209 1.12328 1.12473
 H2130 H 1.25647 1.09744 1.14585
 C2131 C 1.24325 0.59353 0.62211
 C2132 C 1.26699 0.58966 0.61192
 C2133 C 1.27197 0.61492 0.61472
 C2134 C 1.24856 0.61892 0.62504
 C2135 C 1.23418 0.59850 0.59834
 C2136 C 1.23918 0.62375 0.60115
 C2137 C 1.25759 0.59449 0.58800
 C2138 C 1.26291 0.61989 0.59095
 C2139 C 1.29287 0.62424 0.62401
 C2140 C 1.30990 0.63207 0.63184
 C2141 C 1.21298 0.58953 0.58941
 C2142 C 1.19539 0.58235 0.58224
 H2143 H 1.23493 0.58259 0.63482
 H2144 H 1.27866 0.57575 0.61646
 H2145 H 1.24507 0.62907 0.64037
 H2146 H 1.22751 0.63767 0.59662
 H2147 H 1.26106 0.58434 0.57267
 H2148 H 1.27123 0.63084 0.57825
 C2149 C 0.75693 1.08714 0.59797
 C2150 C 0.76790 1.10979 0.59093
 C2151 C 0.77173 1.11535 0.61594
 C2152 C 0.76110 1.09285 0.62313
 C2153 C 0.73397 1.09904 0.59937
 C2154 C 0.73781 1.10461 0.62438
 C2155 C 0.74460 1.12154 0.59218
 C2156 C 0.74876 1.12724 0.61733
 C2157 C 0.79261 1.12461 0.62532
 C2158 C 0.80965 1.13240 0.63319
 C2159 C 0.71279 1.09014 0.59032
 C2160 C 0.69521 1.08298 0.58307
 H2161 H 0.76005 1.07055 0.58990
 H2162 H 0.78051 1.11203 0.57728
 H2163 H 0.76811 1.08116 0.63596
 H2164 H 0.72521 1.10238 0.63804
 H2165 H 0.73758 1.13324 0.57936
 H2166 H 0.74562 1.14383 0.62539
 C2167 C 0.74335 0.59282 1.12225
 C2168 C 0.76702 0.58885 1.11196
 C2169 C 0.77215 0.61407 1.11477
 C2170 C 0.74880 0.61818 1.12520
 C2171 C 0.73421 0.59788 1.09853
 C2172 C 0.73935 0.62310 1.10135
 C2173 C 0.75754 0.59375 1.08809
 C2174 C 0.76301 0.61913 1.09105
 C2175 C 0.79312 0.62327 1.12399
 C2176 C 0.81021 0.63102 1.13176
 C2177 C 0.71292 0.58904 1.08968
 C2178 C 0.69525 0.58196 1.08259
 H2179 H 0.73502 0.58191 1.13498
 H2180 H 0.77864 0.57487 1.11642
 H2181 H 0.74543 0.62832 1.14056
 H2182 H 0.72774 0.63708 1.09689
 H2183 H 0.76089 0.58361 1.07272
 H2184 H 0.77134 0.63004 1.07832
 C2185 C 1.25460 0.91601 0.89478
 C2186 C 1.27027 0.89915 0.90718
 C2187 C 1.27205 0.88527 0.88539
 C2188 C 1.25672 0.90198 0.87285
 C2189 C 1.23419 0.90162 0.90167
 C2190 C 1.23599 0.88774 0.87988
 C2191 C 1.24952 0.88491 0.91421
 C2192 C 1.25164 0.87090 0.89228
 C2193 C 1.29298 0.87599 0.87614
 C2194 C 1.31005 0.86819 0.86835
 C2195 C 1.21295 0.91054 0.91055
 C2196 C 1.19532 0.91768 0.91768
 H2197 H 1.25557 0.93466 0.89592
 H2198 H 1.28461 0.90374 0.91830
 H2199 H 1.25991 0.90889 0.85575
 H2200 H 1.22167 0.88314 0.86875
 H2201 H 1.24632 0.87800 0.93131
 H2202 H 1.25065 0.85225 0.89114
 C2203 C 1.25436 0.39331 0.41549
 C2204 C 1.25633 0.37227 0.40015
 C2205 C 1.27238 0.38543 0.38464
 C2206 C 1.27074 0.40634 0.39984
 C2207 C 1.23449 0.40158 0.40106
 C2208 C 1.25053 0.41475 0.38556
 C2209 C 1.23615 0.38068 0.38587
 C2210 C 1.25250 0.39371 0.37023
 C2211 C 1.29332 0.37625 0.37533
 C2212 C 1.31040 0.36850 0.36751
 C2213 C 1.21323 0.41040 0.41001
 C2214 C 1.19559 0.41748 0.41717
 H2215 H 1.25487 0.39324 0.43421
 H2216 H 1.25895 0.35470 0.40605
 H2217 H 1.28520 0.41678 0.40547
 H2218 H 1.24790 0.43232 0.37966
 H2219 H 1.22170 0.37023 0.38022
 H2220 H 1.25197 0.39377 0.35151
 C2221 C 0.75156 0.88852 0.41536
 C2222 C 0.75327 0.87113 0.39596
 C2223 C 0.77187 0.88550 0.38508
 C2224 C 0.77050 0.90276 0.40434
 C2225 C 0.73404 0.90172 0.40156
 C2226 C 0.75264 0.91610 0.39068
 C2227 C 0.73544 0.88445 0.38230
 C2228 C 0.75435 0.89869 0.37129
 C2229 C 0.79279 0.87628 0.37573
 C2230 C 0.80984 0.86852 0.36788
 C2231 C 0.71281 0.91058 0.41053
 C2232 C 0.69520 0.91770 0.41771
 H2233 H 0.75017 0.88445 0.43358
 H2234 H 0.75376 0.85253 0.39802
 H2235 H 0.78516 0.91018 0.41329
 H2236 H 0.75214 0.93469 0.38862
 H2237 H 0.72079 0.87702 0.37334
 H2238 H 0.75573 0.90277 0.35307
 C2239 C 0.74777 0.38233 0.91245
 C2240 C 0.75042 0.37122 0.88897
 C2241 C 0.77190 0.38516 0.88510
 C2242 C 0.76959 0.39614 0.90845
 C2243 C 0.73405 0.40140 0.90152
 C2244 C 0.75552 0.41536 0.89766
 C2245 C 0.73639 0.39042 0.87818
 C2246 C 0.75818 0.40423 0.87417
 C2247 C 0.79283 0.37594 0.87579
 C2248 C 0.80990 0.36816 0.86797
 C2249 C 0.71282 0.41026 0.91048
 C2250 C 0.69520 0.41738 0.91766
 H2251 H 0.74326 0.37343 0.92829
 H2252 H 0.74855 0.35297 0.88530
 H2253 H 0.78348 0.39839 0.92079
 H2254 H 0.75738 0.43361 0.90134
 H2255 H 0.72250 0.38816 0.86583
 H2256 H 0.76269 0.41313 0.85833
 C2257 C 0.74238 0.90618 1.08763
 C2258 C 0.73688 0.88081 1.09057
 C2259 C 0.72768 0.88583 1.11426
 C2260 C 0.73284 0.91106 1.11147
 C2261 C 0.76569 0.90202 1.09815
 C2262 C 0.75648 0.90704 1.12184
 C2263 C 0.76051 0.87680 1.10095
 C2264 C 0.75099 0.88168 1.12476
 C2265 C 0.70668 0.87664 1.12342
 C2266 C 0.68957 0.86889 1.13115
 C2267 C 0.78701 0.91083 1.08937
 C2268 C 0.80471 0.91789 1.08233
 H2269 H 0.73909 0.91636 1.07226
 H2270 H 0.72858 0.86992 1.07781
 H2271 H 0.72122 0.92504 1.11590
 H2272 H 0.76478 0.91792 1.13460
 H2273 H 0.77212 0.86281 1.09652
 H2274 H 0.75431 0.87151 1.14013
 C2275 C 0.74253 0.40547 0.58784
 C2276 C 0.73705 0.38012 0.59095
 C2277 C 0.72802 0.38527 0.61468
 C2278 C 0.73315 0.41048 0.61172
 C2279 C 0.76591 0.40138 0.59821
 C2280 C 0.75687 0.40652 0.62193
 C2281 C 0.76076 0.37617 0.60118
 C2282 C 0.75142 0.38118 0.62504
 C2283 C 0.70708 0.37611 0.62403
 C2284 C 0.69000 0.36838 0.63187
 C2285 C 0.78716 0.41018 0.58923
 C2286 C 0.80480 0.41727 0.58206
 H2287 H 0.73911 0.41556 0.57243
 H2288 H 0.72867 0.36915 0.57832
 H2289 H 0.72156 0.42448 0.61616
 H2290 H 0.76526 0.41748 0.63457
 H2291 H 0.77235 0.36216 0.59675
 H2292 H 0.75485 0.37110 0.64044
 C2293 C 0.25254 0.91241 0.61808
 C2294 C 0.23031 0.91001 0.60457
 C2295 C 0.22750 0.88607 0.61404
 C2296 C 0.24940 0.88832 0.62769
 C2297 C 0.26547 0.90239 0.59801
 C2298 C 0.26265 0.87845 0.60749
 C2299 C 0.24359 0.90014 0.58434
 C2300 C 0.24044 0.87606 0.59396
 C2301 C 0.20652 0.87679 0.62316
 C2302 C 0.18943 0.86898 0.63087
 C2303 C 0.28678 0.91127 0.58926
 C2304 C 0.30447 0.91836 0.58223
 H2305 H 0.25776 0.92745 0.62790
 H2306 H 0.21676 0.92289 0.60347
 H2307 H 0.25156 0.88336 0.64562
 H2308 H 0.27618 0.86557 0.60859
 H2309 H 0.24144 0.90511 0.56641
 H2310 H 0.23522 0.86101 0.58415
 C2311 C 0.24232 0.40533 1.08862
 C2312 C 0.23694 0.37994 1.09166
 C2313 C 0.22792 0.38498 1.11542
 C2314 C 0.23296 0.41022 1.11253
 C2315 C 0.26573 0.40128 1.09895
 C2316 C 0.25670 0.40632 1.12271
 C2317 C 0.26068 0.37605 1.10185
 C2318 C 0.25134 0.38095 1.12573
 C2319 C 0.20702 0.37572 1.12476
 C2320 C 0.18997 0.36793 1.13260
 C2321 C 0.28693 0.41019 1.08997
 C2322 C 0.30454 0.41734 1.08278
 H2323 H 0.23885 0.41545 1.07326
 H2324 H 0.22858 0.36899 1.07900
 H2325 H 0.22132 0.42416 1.11703
 H2326 H 0.26506 0.41726 1.13537
 H2327 H 0.27230 0.36209 1.09735
 H2328 H 0.25483 0.37082 1.14110
 C2329 C 0.74827 1.11146 0.91545
 C2330 C 0.74646 1.12878 0.89596
 C2331 C 0.72783 1.11435 0.88523
 C2332 C 0.72930 1.09717 0.90457
 C2333 C 0.76574 1.09824 0.90166
 C2334 C 0.74712 1.08379 0.89093
 C2335 C 0.76426 1.11542 0.88231
 C2336 C 0.74532 1.10112 0.87144
 C2337 C 0.70688 1.12352 0.87591
 C2338 C 0.68980 1.13126 0.86808
 C2339 C 0.78701 1.08944 0.91061
 C2340 C 0.80467 1.08237 0.91776
 H2341 H 0.74972 1.11562 0.93364
 H2342 H 0.74596 1.14738 0.89793
 H2343 H 0.71468 1.08976 0.91361
 H2344 H 0.74764 1.06519 0.88896
 H2345 H 0.77886 1.12283 0.87326
 H2346 H 0.74387 1.09697 0.85325
 C2347 C 0.74827 0.61078 0.41603
 C2348 C 0.74627 0.62822 0.39666
 C2349 C 0.72748 0.61388 0.38608
 C2350 C 0.72914 0.59658 0.40530
 C2351 C 0.76555 0.59760 0.40195
 C2352 C 0.74677 0.58325 0.39137
 C2353 C 0.76387 0.61490 0.38273
 C2354 C 0.74477 0.60070 0.37201
 C2355 C 0.70645 0.62313 0.37703
 C2356 C 0.68931 0.63091 0.36938
 C2357 C 0.78691 0.58875 0.41061
 C2358 C 0.80464 0.58168 0.41758
 H2359 H 0.74995 0.61483 0.43423
 H2360 H 0.74582 0.64681 0.39874
 H2361 H 0.71462 0.58916 0.41448
 H2362 H 0.74723 0.56466 0.38929
 H2363 H 0.77838 0.62233 0.37354
 H2364 H 0.74310 0.59665 0.35381
 C2365 C 0.24996 1.11481 0.41368
 C2366 C 0.24807 1.12965 0.39225
 C2367 C 0.22817 1.11512 0.38428
 C2368 C 0.22972 1.10042 0.40557
 C2369 C 0.26598 1.09896 0.40091
 C2370 C 0.24608 1.08442 0.39295
 C2371 C 0.26440 1.11367 0.37963
 C2372 C 0.24419 1.09927 0.37153
 C2373 C 0.20726 1.12431 0.37486
 C2374 C 0.19021 1.13206 0.36697
 C2375 C 0.28719 1.09012 0.40999
 C2376 C 0.30479 1.08301 0.41724
 H2377 H 0.25257 1.12110 0.43111
 H2378 H 0.24867 1.14835 0.39186
 H2379 H 0.21522 1.09507 0.41612
 H2380 H 0.24550 1.06572 0.39335
 H2381 H 0.27890 1.11902 0.36907
 H2382 H 0.24159 1.09298 0.35409
 C2383 C 0.25768 0.59538 0.87765
 C2384 C 0.23383 0.58879 0.88599
 C2385 C 0.22729 0.61385 0.88612
 C2386 C 0.25082 0.62057 0.87764
 C2387 C 0.26532 0.59777 0.90229
 C2388 C 0.25877 0.62282 0.90241
 C2389 C 0.24180 0.59103 0.91079
 C2390 C 0.23492 0.61624 0.91077
 C2391 C 0.20628 0.62301 0.87693
 C2392 C 0.18917 0.63073 0.86917
 C2393 C 0.28666 0.58900 0.91109
 C2394 C 0.30437 0.58198 0.91813
 H2395 H 0.26728 0.58671 0.86413
 H2396 H 0.22333 0.57491 0.87914
 H2397 H 0.25430 0.63281 0.86391
 H2398 H 0.26927 0.63671 0.90926
 H2399 H 0.23834 0.57879 0.92452
 H2400 H 0.22532 0.62492 0.92428
 C2401 C 1.12190 1.23637 1.11005
 C2402 C 1.12633 1.25806 1.09620
 C2403 C 1.11517 1.27196 1.11498
 C2404 C 1.11088 1.25058 1.12897
 C2405 C 1.09876 1.23417 1.09863
 C2406 C 1.08759 1.24807 1.11742
 C2407 C 1.10305 1.25554 1.08463
 C2408 C 1.09203 1.26978 1.10356
 C2409 C 1.12449 1.29285 1.12427
 C2410 C 1.13232 1.30989 1.13208
 C2411 C 1.08980 1.21297 1.08970
 C2412 C 1.08262 1.19537 1.08255
 H2413 H 1.13409 1.22240 1.11262
 H2414 H 1.14237 1.26240 1.08758
 H2415 H 1.11420 1.24876 1.14731
 H2416 H 1.07156 1.24372 1.12604
 H2417 H 1.09972 1.25734 1.06629
 H2418 H 1.07985 1.28376 1.10100
 C2419 C 1.08668 0.75725 0.59473
 C2420 C 1.09096 0.76221 0.62003
 C2421 C 1.11408 0.77213 0.61387
 C2422 C 1.10995 0.76752 0.58871
 C2423 C 1.09799 0.73414 0.59768
 C2424 C 1.12110 0.74406 0.59152
 C2425 C 1.10212 0.73876 0.62283
 C2426 C 1.12536 0.74900 0.61680
 C2427 C 1.12322 0.79313 0.62307
 C2428 C 1.13093 0.81024 0.63083
 C2429 C 1.08921 0.71282 0.58886
 C2430 C 1.08218 0.69513 0.58179
 H2431 H 1.07068 0.76040 0.58554
 H2432 H 1.07867 0.76991 0.63186
 H2433 H 1.11327 0.77959 0.57478
 H2434 H 1.13339 0.73636 0.57969
 H2435 H 1.09880 0.72670 0.63676
 H2436 H 1.14137 0.74584 0.62598
 C2437 C 0.59811 1.25730 0.58579
 C2438 C 0.59026 1.26892 0.60784
 C2439 C 0.61506 1.27246 0.61445
 C2440 C 0.62305 1.26118 0.59255
 C2441 C 0.59858 1.23461 0.59829
 C2442 C 0.62337 1.23817 0.60491
 C2443 C 0.59059 1.24589 0.62019
 C2444 C 0.61552 1.24976 0.62694
 C2445 C 0.62441 1.29338 0.62363
 C2446 C 0.63226 1.31042 0.63138
 C2447 C 0.58961 1.21338 0.58948
 C2448 C 0.58244 1.19575 0.58240
 H2449 H 0.59085 1.26015 0.56877
 H2450 H 0.57676 1.28181 0.60915
 H2451 H 0.63650 1.26770 0.58128
 H2452 H 0.63689 1.22529 0.60360
 H2453 H 0.57714 1.23937 0.63146
 H2454 H 0.62278 1.24689 0.64395
 C2455 C 0.61542 0.74890 1.08615
 C2456 C 0.60120 0.77005 1.09190
 C2457 C 0.61401 0.77218 1.11432
 C2458 C 0.62836 0.75136 1.10870
 C2459 C 0.59785 0.73418 1.09821
 C2460 C 0.61066 0.73632 1.12062
 C2461 C 0.58349 0.75498 1.10382
 C2462 C 0.59645 0.75745 1.12638
 C2463 C 0.62320 0.79317 1.12347
 C2464 C 0.63094 0.81028 1.13120
 C2465 C 0.58904 0.71286 1.08943
 C2466 C 0.58199 0.69517 1.08239
 H2467 H 0.62311 0.74515 1.06950
 H2468 H 0.59741 0.78417 1.08019
 H2469 H 0.64691 0.75011 1.11081
 H2470 H 0.61446 0.72222 1.13234
 H2471 H 0.56493 0.75622 1.10171
 H2472 H 0.58875 0.76119 1.14302
 C2473 C 0.91562 1.25454 0.89439
 C2474 C 0.90112 1.25662 0.87274
 C2475 C 0.88477 1.27211 0.88553
 C2476 C 0.89912 1.27037 0.90704
 C2477 C 0.90128 1.23425 0.90169
 C2478 C 0.88493 1.24973 0.91449
 C2479 C 0.88693 1.23601 0.88019
 C2480 C 0.87044 1.25181 0.89285
 C2481 C 0.87541 1.29303 0.87634
 C2482 C 0.86755 1.31009 0.86857
 C2483 C 0.91028 1.21301 0.91051
 C2484 C 0.91747 1.19538 0.91760
 H2485 H 0.93430 1.25542 0.89512
 H2486 H 0.90767 1.25969 0.85548
 H2487 H 0.90402 1.28474 0.91797
 H2488 H 0.87838 1.24665 0.93175
 H2489 H 0.88201 1.22166 0.86925
 H2490 H 0.85176 1.25091 0.89211
 C2491 C 0.91312 0.74800 0.38254
 C2492 C 0.88997 0.75057 0.37072
 C2493 C 0.88547 0.77183 0.38480
 C2494 C 0.90848 0.76959 0.39649
 C2495 C 0.90175 0.73393 0.40109
 C2496 C 0.89725 0.75517 0.41519
 C2497 C 0.87875 0.73619 0.38940
 C2498 C 0.87410 0.75776 0.40335
 C2499 C 0.87622 0.79278 0.37555
 C2500 C 0.86843 0.80986 0.36777
 C2501 C 0.91063 0.71267 0.40998
 C2502 C 0.91776 0.69502 0.41710
 H2503 H 0.92926 0.74375 0.37409
 H2504 H 0.88688 0.74891 0.35233
 H2505 H 0.92059 0.78356 0.39930
 H2506 H 0.90034 0.75682 0.43358
 H2507 H 0.86662 0.72222 0.38658
 H2508 H 0.85795 0.76200 0.41180
 C2509 C 0.37948 1.24560 0.40928
 C2510 C 0.39151 1.26877 0.41006
 C2511 C 0.38523 1.27253 0.38520
 C2512 C 0.37306 1.24969 0.38429
 C2513 C 0.40164 1.23468 0.40150
 C2514 C 0.39535 1.23846 0.37664
 C2515 C 0.41382 1.25751 0.40241
 C2516 C 0.40739 1.26162 0.37741
 C2517 C 0.37592 1.29345 0.37594
 C2518 C 0.36809 1.31049 0.36813
 C2519 C 0.41057 1.21345 0.41039
 C2520 C 0.41772 1.19582 0.41753
 H2521 H 0.36811 1.23877 0.42249
 H2522 H 0.38983 1.28147 0.42369
 H2523 H 0.35620 1.24670 0.37674
 H2524 H 0.39703 1.22577 0.36300
 H2525 H 0.43069 1.26048 0.40996
 H2526 H 0.41876 1.26844 0.36420
 C2527 C 0.37913 0.74504 0.90977
 C2528 C 0.39116 0.76821 0.91059
 C2529 C 0.38483 0.77204 0.88575
 C2530 C 0.37266 0.74920 0.88481
 C2531 C 0.40128 0.73415 0.90190
 C2532 C 0.39494 0.73800 0.87707
 C2533 C 0.41346 0.75698 0.90286
 C2534 C 0.40697 0.76116 0.87788
 C2535 C 0.37550 0.79299 0.87657
 C2536 C 0.36767 0.81007 0.86882
 C2537 C 0.41024 0.71289 0.91073
 C2538 C 0.41740 0.69525 0.91782
 H2539 H 0.36779 0.73817 0.92298
 H2540 H 0.38950 0.78087 0.92426
 H2541 H 0.35579 0.74623 0.87728
 H2542 H 0.39659 0.72535 0.86339
 H2543 H 0.43034 0.75994 0.91039
 H2544 H 0.41832 0.76802 0.86467
 C2545 C 1.10864 0.76297 0.87887
 C2546 C 1.12783 0.74893 0.88967
 C2547 C 1.11377 0.72749 0.88605
 C2548 C 1.09471 0.74122 0.87511
 C2549 C 1.09779 0.76553 0.90225
 C2550 C 1.08371 0.74410 0.89864
 C2551 C 1.11684 0.75180 0.91319
 C2552 C 1.10292 0.73003 0.90943
 C2553 C 1.12287 0.70648 0.87684
 C2554 C 1.13057 0.68936 0.86909
 C2555 C 1.08908 0.78687 0.91108
 C2556 C 1.08209 0.80458 0.91813
 H2557 H 1.11090 0.77676 0.86640
 H2558 H 1.14607 0.75069 0.88588
 H2559 H 1.08572 0.73663 0.85935
 H2560 H 1.06547 0.74236 0.90243
 H2561 H 1.12584 0.75640 0.92894
 H2562 H 1.10067 0.71623 0.92189
 C2563 C 1.09666 0.25830 0.37625
 C2564 C 1.12191 0.25165 0.37620
 C2565 C 1.11540 0.22800 0.38454
 C2566 C 1.09028 0.23434 0.38445
 C2567 C 1.09900 0.26579 0.40093
 C2568 C 1.09248 0.24216 0.40929
 C2569 C 1.12412 0.25945 0.40102
 C2570 C 1.11774 0.23548 0.40923
 C2571 C 1.12470 0.20711 0.37524
 C2572 C 1.13253 0.19008 0.36742
 C2573 C 1.09006 0.28699 0.40988
 C2574 C 1.08289 0.30459 0.41705
 H2575 H 1.08789 0.26792 0.36278
 H2576 H 1.13411 0.25532 0.36249
 H2577 H 1.07647 0.22377 0.37753
 H2578 H 1.08027 0.23850 0.42300
 H2579 H 1.13793 0.27001 0.40793
 H2580 H 1.12652 0.22586 0.42269
 C2581 C 0.61079 0.74828 0.41646
 C2582 C 0.59651 0.72933 0.40553
 C2583 C 0.61386 0.72772 0.38637
 C2584 C 0.62828 0.74633 0.39716
 C2585 C 0.59777 0.76576 0.40246
 C2586 C 0.61512 0.76413 0.38330
 C2587 C 0.58334 0.74716 0.39167
 C2588 C 0.60084 0.74521 0.37238
 C2589 C 0.62301 0.70671 0.37721
 C2590 C 0.63073 0.68959 0.36948
 C2591 C 0.58899 0.78710 0.41123
 C2592 C 0.58196 0.80481 0.41824
 H2593 H 0.61479 0.74978 0.43469
 H2594 H 0.58896 0.71478 0.41457
 H2595 H 0.64686 0.74575 0.39931
 H2596 H 0.62268 0.77867 0.37425
 H2597 H 0.56476 0.74775 0.38952
 H2598 H 0.59684 0.74372 0.35415
 C2599 C 0.59560 0.25820 0.87705
 C2600 C 0.62081 0.25142 0.87695
 C2601 C 0.61420 0.22781 0.88530
 C2602 C 0.58912 0.23427 0.88527
 C2603 C 0.59804 0.26568 0.90174
 C2604 C 0.59141 0.24207 0.91011
 C2605 C 0.62312 0.25921 0.90176
 C2606 C 0.61664 0.23528 0.90998
 C2607 C 0.62339 0.20689 0.87597
 C2608 C 0.63115 0.18983 0.86813
 C2609 C 0.58922 0.28692 0.91069
 C2610 C 0.58214 0.30456 0.91785
 H2611 H 0.58685 0.26787 0.86361
 H2612 H 0.63300 0.25504 0.86321
 H2613 H 0.57524 0.22378 0.87838
 H2614 H 0.57922 0.23848 0.92385
 H2615 H 0.63700 0.26970 0.90864
 H2616 H 0.62540 0.22561 0.92342
 C2617 C 0.90578 0.75724 1.12272
 C2618 C 0.88044 0.75117 1.12421
 C2619 C 0.88581 0.72768 1.11473
 C2620 C 0.91103 0.73343 1.11337
 C2621 C 0.90203 0.76562 1.09848
 C2622 C 0.90742 0.74214 1.08898
 C2623 C 0.87682 0.75986 1.09985
 C2624 C 0.88206 0.73605 1.09049
 C2625 C 0.87660 0.70671 1.12396
 C2626 C 0.86884 0.68962 1.13174
 C2627 C 0.91088 0.78690 1.08963
 C2628 C 0.91797 0.80457 1.08253
 H2629 H 0.91564 0.76619 1.13587
 H2630 H 0.86925 0.75465 1.13880
 H2631 H 0.92499 0.72232 1.11903
 H2632 H 0.91862 0.73868 1.07439
 H2633 H 0.86285 0.77096 1.09419
 H2634 H 0.87219 0.72710 1.07734
 C2635 C 0.90486 0.25766 0.62308
 C2636 C 0.87946 0.25180 0.62460
 C2637 C 0.88465 0.22820 0.61530
 C2638 C 0.90992 0.23373 0.61392
 C2639 C 0.90120 0.26588 0.59878
 C2640 C 0.90640 0.24229 0.58946
 C2641 C 0.87594 0.26034 0.60016
 C2642 C 0.88099 0.23642 0.59100
 C2643 C 0.87527 0.20736 0.62467
 C2644 C 0.86739 0.19037 0.63255
 C2645 C 0.91023 0.28703 0.58975
 C2646 C 0.91747 0.30458 0.58251
 H2647 H 0.91478 0.26663 0.63617
 H2648 H 0.86828 0.25549 0.63915
 H2649 H 0.92378 0.22256 0.61968
 H2650 H 0.91758 0.23862 0.57491
 H2651 H 0.86207 0.27151 0.59441
 H2652 H 0.87107 0.22745 0.57791
 C2653 C 0.38664 0.74959 0.58487
 C2654 C 0.40084 0.72981 0.59439
 C2655 C 0.38465 0.72827 0.61455
 C2656 C 0.37031 0.74771 0.60518
 C2657 C 0.40116 0.76616 0.59847
 C2658 C 0.38497 0.76460 0.61864
 C2659 C 0.41551 0.74673 0.60785
 C2660 C 0.39917 0.74485 0.62815
 C2661 C 0.37529 0.70733 0.62370
 C2662 C 0.36745 0.69025 0.63142
 C2663 C 0.41016 0.78741 0.58969
 C2664 C 0.41734 0.80505 0.58261
 H2665 H 0.38159 0.75178 0.56698
 H2666 H 0.40725 0.71527 0.58452
 H2667 H 0.35163 0.74788 0.60418
 H2668 H 0.37855 0.77913 0.62852
 H2669 H 0.43420 0.74657 0.60884
 H2670 H 0.40423 0.74267 0.64605
 C2671 C 0.38817 0.24843 1.08374
 C2672 C 0.40266 0.22877 1.09307
 C2673 C 0.38657 0.22690 1.11328
 C2674 C 0.37195 0.24621 1.10409
 C2675 C 0.40253 0.26509 1.09740
 C2676 C 0.38644 0.26319 1.11761
 C2677 C 0.41716 0.24578 1.10659
 C2678 C 0.40093 0.24356 1.12694
 C2679 C 0.37747 0.20581 1.12234
 C2680 C 0.36979 0.18865 1.13002
 C2681 C 0.41122 0.28651 1.08876
 C2682 C 0.41816 0.30430 1.08185
 H2683 H 0.38303 0.25068 1.06588
 H2684 H 0.40921 0.21437 1.08308
 H2685 H 0.35326 0.24615 1.10316
 H2686 H 0.37987 0.27758 1.12761
 H2687 H 0.43585 0.24586 1.10752
 H2688 H 0.40607 0.24132 1.14480
 C2689 C 1.08346 1.10432 0.74488
 C2690 C 1.09662 1.12676 0.74254
 C2691 C 1.11396 1.11469 0.72756
 C2692 C 1.10095 1.09239 0.72956
 C2693 C 1.09791 1.09833 0.76554
 C2694 C 1.11526 1.08626 0.75056
 C2695 C 1.11093 1.12063 0.76352
 C2696 C 1.12840 1.10870 0.74823
 C2697 C 1.12310 1.12398 0.70658
 C2698 C 1.13082 1.13179 0.68948
 C2699 C 1.08915 1.08942 0.78684
 C2700 C 1.08212 1.08230 0.80453
 H2701 H 1.06488 1.10241 0.74375
 H2702 H 1.08906 1.14351 0.73901
 H2703 H 1.09695 1.08089 0.71535
 H2704 H 1.12282 1.06951 0.75410
 H2705 H 1.11494 1.13214 0.77771
 H2706 H 1.14698 1.11061 0.74938
 C2707 C 1.08525 0.61365 0.24895
 C2708 C 1.10572 0.62977 0.24719
 C2709 C 1.11492 0.61550 0.22764
 C2710 C 1.09459 0.59951 0.22907
 C2711 C 1.09871 0.59885 0.26543
 C2712 C 1.10791 0.58456 0.24589
 C2713 C 1.11903 0.61484 0.26398
 C2714 C 1.12837 0.60070 0.24412
 C2715 C 1.12414 0.62492 0.20674
 C2716 C 1.13192 0.63282 0.18971
 C2717 C 1.08986 0.58978 0.28663
 C2718 C 1.08274 0.58252 0.30423
 H2719 H 1.06742 0.61887 0.25118
 H2720 H 1.10492 0.64847 0.24749
 H2721 H 1.08465 0.59332 0.21447
 H2722 H 1.10871 0.56587 0.24559
 H2723 H 1.12899 0.62104 0.27856
 H2724 H 1.14620 0.59548 0.24190
 C2725 C 0.60784 1.12254 0.26303
 C2726 C 0.62802 1.11259 0.24979
 C2727 C 0.61442 1.11497 0.22787
 C2728 C 0.59437 1.12505 0.24079
 C2729 C 0.59826 1.09864 0.26581
 C2730 C 0.58464 1.10101 0.24389
 C2731 C 0.61831 1.08855 0.25289
 C2732 C 0.60484 1.09106 0.23062
 C2733 C 0.62361 1.12424 0.20690
 C2734 C 0.63136 1.13205 0.18981
 C2735 C 0.58944 1.08974 0.28710
 C2736 C 0.58237 1.08263 0.30477
 H2737 H 0.60898 1.13538 0.27659
 H2738 H 0.64595 1.11745 0.25199
 H2739 H 0.58463 1.14017 0.23558
 H2740 H 0.56671 1.09614 0.24171
 H2741 H 0.62805 1.07344 0.25810
 H2742 H 0.60371 1.07823 0.21706
 C2743 C 0.58460 0.61266 0.74915
 C2744 C 0.60514 0.62866 0.74719
 C2745 C 0.61427 0.61412 0.72781
 C2746 C 0.59387 0.59825 0.72943
 C2747 C 0.59800 0.59799 0.76579
 C2748 C 0.60713 0.58344 0.74641
 C2749 C 0.61839 0.61387 0.76415
 C2750 C 0.62766 0.59946 0.74445
 C2751 C 0.62350 0.62330 0.70682
 C2752 C 0.63128 0.63106 0.68972
 C2753 C 0.58913 0.58919 0.78710
 C2754 C 0.58204 0.58214 0.80478
 H2755 H 0.56679 0.61798 0.75133
 H2756 H 0.60442 0.64736 0.74728
 H2757 H 0.58389 0.59193 0.71491
 H2758 H 0.60784 0.56474 0.74633
 H2759 H 0.62838 0.62019 0.77866
 H2760 H 0.64547 0.59413 0.74228
 C2761 C 0.87822 0.90653 0.75670
 C2762 C 0.88827 0.91093 0.73298
 C2763 C 0.88599 0.88568 0.72768
 C2764 C 0.87581 0.88116 0.75107
 C2765 C 0.90209 0.90195 0.76566
 C2766 C 0.89980 0.87671 0.76035
 C2767 C 0.91229 0.90649 0.74228
 C2768 C 0.90986 0.88110 0.73664
 C2769 C 0.87683 0.87645 0.70670
 C2770 C 0.86909 0.86868 0.68960
 C2771 C 0.91086 0.91082 0.78697
 C2772 C 0.91789 0.91791 0.80465
 H2773 H 0.86531 0.91709 0.76518
 H2774 H 0.88343 0.92489 0.72148
 H2775 H 0.86070 0.87064 0.75446
 H2776 H 0.90464 0.86275 0.77184
 H2777 H 0.92740 0.91701 0.73891
 H2778 H 0.92277 0.87054 0.72816
 C2779 C 0.88906 0.41560 0.24762
 C2780 C 0.90323 0.40448 0.22870
 C2781 C 0.88576 0.38542 0.22724
 C2782 C 0.87145 0.39639 0.24582
 C2783 C 0.90204 0.40162 0.26516
 C2784 C 0.88458 0.38257 0.26368
 C2785 C 0.91637 0.39065 0.24658
 C2786 C 0.89875 0.37146 0.24478
 C2787 C 0.87651 0.37621 0.20628
 C2788 C 0.86871 0.36844 0.18920
 C2789 C 0.91092 0.41046 0.28644
 C2790 C 0.91802 0.41754 0.30411
 H2791 H 0.88517 0.43385 0.24904
 H2792 H 0.91080 0.41339 0.21407
 H2793 H 0.85288 0.39865 0.24528
 H2794 H 0.87700 0.37365 0.27830
 H2795 H 0.93493 0.38840 0.24714
 H2796 H 0.90264 0.35321 0.24338
 C2797 C 0.38311 0.91315 0.25169
 C2798 C 0.39712 0.90822 0.23019
 C2799 C 0.38526 0.88530 0.22809
 C2800 C 0.37112 0.89008 0.24925
 C2801 C 0.40149 0.90173 0.26594
 C2802 C 0.38963 0.87881 0.26382
 C2803 C 0.41565 0.89695 0.24479
 C2804 C 0.40364 0.87389 0.24235
 C2805 C 0.37604 0.87598 0.20716
 C2806 C 0.36826 0.86814 0.19010
 C2807 C 0.41035 0.91069 0.28718
 C2808 C 0.41746 0.91786 0.30481
 H2809 H 0.37477 0.92939 0.25577
 H2810 H 0.40010 0.92021 0.21612
 H2811 H 0.35270 0.88716 0.25086
 H2812 H 0.38664 0.86681 0.27789
 H2813 H 0.43406 0.89988 0.24319
 H2814 H 0.41198 0.85764 0.23827
 C2815 C 0.39242 0.41621 0.74636
 C2816 C 0.40598 0.40182 0.72928
 C2817 C 0.38598 0.38544 0.72768
 C2818 C 0.37229 0.39968 0.74442
 C2819 C 0.40198 0.40180 0.76566
 C2820 C 0.38199 0.38542 0.76403
 C2821 C 0.41568 0.38755 0.74893
 C2822 C 0.39555 0.37104 0.74699
 C2823 C 0.37688 0.37615 0.70669
 C2824 C 0.36918 0.36835 0.68959
 C2825 C 0.41071 0.41070 0.78697
 C2826 C 0.41773 0.41782 0.80465
 H2827 H 0.39123 0.43488 0.74635
 H2828 H 0.41574 0.40845 0.71475
 H2829 H 0.35434 0.40457 0.74233
 H2830 H 0.37222 0.37877 0.77856
 H2831 H 0.43363 0.38267 0.75103
 H2832 H 0.39674 0.35236 0.74701
 C2833 C 1.08865 0.90675 1.25811
 C2834 C 1.09060 0.88136 1.26399
 C2835 C 1.11468 0.88549 1.27259
 C2836 C 1.11288 0.91073 1.26705
 C2837 C 1.09844 0.90177 1.23465
 C2838 C 1.12252 0.90589 1.24325
 C2839 C 1.10024 0.87654 1.24020
 C2840 C 1.12445 0.88053 1.24912
 C2841 C 1.12391 0.87624 1.29355
 C2842 C 1.13168 0.86845 1.31064
 C2843 C 1.08958 0.91064 1.21336
 C2844 C 1.08248 0.91774 1.19570
 H2845 H 1.07382 0.91763 1.26156
 H2846 H 1.07758 0.87117 1.27276
 H2847 H 1.11818 0.92468 1.27833
 H2848 H 1.13554 0.91608 1.23448
 H2849 H 1.09495 0.86257 1.22893
 H2850 H 1.13927 0.86964 1.24565
 C2851 C 1.08866 0.40649 0.75753
 C2852 C 1.09064 0.38112 0.76345
 C2853 C 1.11471 0.38529 0.77206
 C2854 C 1.11288 0.41052 0.76647
 C2855 C 1.09847 0.40149 0.73408
 C2856 C 1.12254 0.40566 0.74269
 C2857 C 1.10030 0.37627 0.73968
 C2858 C 1.12450 0.38031 0.74860
 C2859 C 1.12393 0.37609 0.79305
 C2860 C 1.13169 0.36833 0.81016
 C2861 C 1.08961 0.41033 0.71278
 C2862 C 1.08251 0.41741 0.69510
 H2863 H 1.07382 0.41737 0.76095
 H2864 H 1.07762 0.37092 0.77223
 H2865 H 1.11816 0.42450 0.77773
 H2866 H 1.13555 0.41585 0.73391
 H2867 H 1.09503 0.36228 0.72842
 H2868 H 1.13934 0.36944 0.74515
 C2869 C 0.58782 0.90743 0.75815
 C2870 C 0.58977 0.88206 0.76409
 C2871 C 0.61383 0.88622 0.77274
 C2872 C 0.61203 0.91145 0.76714
 C2873 C 0.59768 0.90241 0.73472
 C2874 C 0.62173 0.90657 0.74338
 C2875 C 0.59949 0.87719 0.74034
 C2876 C 0.62367 0.88121 0.74931
 C2877 C 0.62301 0.87702 0.79374
 C2878 C 0.63076 0.86925 0.81085
 C2879 C 0.58889 0.91122 0.71339
 C2880 C 0.58185 0.91828 0.69568
 H2881 H 0.57298 0.91832 0.76153
 H2882 H 0.57674 0.87188 0.77285
 H2883 H 0.61729 0.92543 0.77840
 H2884 H 0.63478 0.91674 0.73463
 H2885 H 0.59423 0.86320 0.72908
 H2886 H 0.63851 0.87033 0.74590
 C2887 C 0.58887 0.40567 1.25797
 C2888 C 0.59084 0.38025 1.26371
 C2889 C 0.61495 0.38433 1.27223
 C2890 C 0.61314 0.40960 1.26684
 C2891 C 0.59857 0.40083 1.23444
 C2892 C 0.62268 0.40490 1.24298
 C2893 C 0.60039 0.37556 1.23985
 C2894 C 0.62463 0.37950 1.24870
 C2895 C 0.62426 0.37498 1.29313
 C2896 C 0.63209 0.36713 1.31017
 C2897 C 0.58963 0.40984 1.21324
 C2898 C 0.58246 0.41705 1.19564
 H2899 H 0.57406 0.41654 1.26154
 H2900 H 0.57785 0.37002 1.27247
 H2901 H 0.61848 0.42349 1.27817
 H2902 H 0.63568 0.41513 1.23422
 H2903 H 0.59505 0.36166 1.22852
 H2904 H 0.63944 0.36863 1.24511
 C2905 C 0.87936 1.10821 1.23762
 C2906 C 0.87570 1.09426 1.25941
 C2907 C 0.88669 1.11331 1.27308
 C2908 C 0.89021 1.12738 1.25161
 C2909 C 0.90272 1.09735 1.23496
 C2910 C 0.91371 1.11639 1.24863
 C2911 C 0.89921 1.08326 1.25642
 C2912 C 0.91006 1.10245 1.27044
 C2913 C 0.87757 1.12240 1.29414
 C2914 C 0.86986 1.13011 1.31128
 C2915 C 0.91145 1.08867 1.21356
 C2916 C 0.91843 1.08172 1.19580
 H2917 H 0.86684 1.11048 1.22389
 H2918 H 0.85997 1.08527 1.26408
 H2919 H 0.88641 1.14562 1.24987
 H2920 H 0.92944 1.12539 1.24395
 H2921 H 0.90301 1.06502 1.25814
 H2922 H 0.92257 1.10019 1.28418
 C2923 C 0.88421 0.58593 0.74870
 C2924 C 0.89839 0.59159 0.76991
 C2925 C 0.88574 0.61410 0.77196
 C2926 C 0.87143 0.60858 0.75109
 C2927 C 0.90192 0.59784 0.73402
 C2928 C 0.88927 0.62035 0.73610
 C2929 C 0.91625 0.60336 0.75488
 C2930 C 0.90345 0.62600 0.75728
 C2931 C 0.87655 0.62333 0.79294
 C2932 C 0.86880 0.63111 0.81003
 C2933 C 0.91074 0.58898 0.71273
 C2934 C 0.91782 0.58188 0.69506
 H2935 H 0.87639 0.56936 0.74492
 H2936 H 0.90203 0.57987 0.78405
 H2937 H 0.85290 0.61083 0.74976
 H2938 H 0.88562 0.63207 0.72196
 H2939 H 0.93478 0.60110 0.75619
 H2940 H 0.91127 0.64258 0.76105
 C2941 C 0.38636 1.11967 0.73591
 C2942 C 0.37109 1.10665 0.75263
 C2943 C 0.38565 1.11531 0.77222
 C2944 C 0.40079 1.12846 0.75582
 C2945 C 0.40177 1.09891 0.73431
 C2946 C 0.41635 1.10756 0.75390
 C2947 C 0.38664 1.08576 0.75071
 C2948 C 0.40106 1.09455 0.77064
 C2949 C 0.37648 1.12461 0.79318
 C2950 C 0.36873 1.13242 0.81025
 C2951 C 0.41057 1.08998 0.71304
 C2952 C 0.41764 1.08283 0.69539
 H2953 H 0.38041 1.12989 0.72140
 H2954 H 0.35238 1.10638 0.75233
 H2955 H 0.40651 1.14612 0.75816
 H2956 H 0.43505 1.10783 0.75418
 H2957 H 0.38092 1.06810 0.74837
 H2958 H 0.40700 1.08433 0.78517
 C2959 C 0.37684 0.60408 1.23869
 C2960 C 0.37846 0.59252 1.26207
 C2961 C 0.38581 0.61510 1.27239
 C2962 C 0.38405 0.62679 1.24932
 C2963 C 0.40178 0.59846 1.23452
 C2964 C 0.40912 0.62105 1.24484
 C2965 C 0.40355 0.58676 1.25757
 C2966 C 0.41075 0.60950 1.26823
 C2967 C 0.37671 0.62453 1.29332
 C2968 C 0.36899 0.63241 1.31037
 C2969 C 0.41050 0.58941 1.21327
 C2970 C 0.41752 0.58219 1.19563
 H2971 H 0.36299 0.60175 1.22632
 H2972 H 0.36576 0.58089 1.26939
 H2973 H 0.37593 0.64336 1.24616
 H2974 H 0.42182 0.63268 1.23751
 H2975 H 0.41166 0.57019 1.26071
 H2976 H 0.42459 0.61183 1.28061
 C2977 C 1.08798 1.24703 0.88117
 C2978 C 1.09017 1.26942 0.89443
 C2979 C 1.11413 1.27228 0.88504
 C2980 C 1.11208 1.25022 0.87164
 C2981 C 1.09800 1.23438 0.90145
 C2982 C 1.12196 1.23725 0.89205
 C2983 C 1.10005 1.25642 0.91486
 C2984 C 1.12415 1.25963 0.90532
 C2985 C 1.12332 1.29322 0.87573
 C2986 C 1.13107 1.31029 0.86790
 C2987 C 1.08919 1.21311 0.91039
 C2988 C 1.08212 1.19546 0.91753
 H2989 H 1.07300 1.24160 0.87134
 H2990 H 1.07720 1.28288 0.89531
 H2991 H 1.11712 1.24790 0.85376
 H2992 H 1.13493 1.22380 0.89117
 H2993 H 1.09500 1.25873 0.93274
 H2994 H 1.13913 1.26504 0.91514
 C2995 C 1.08386 0.75246 0.38990
 C2996 C 1.09642 0.77062 0.40386
 C2997 C 1.11431 0.77215 0.38519
 C2998 C 1.10190 0.75433 0.37110
 C2999 C 1.09816 0.73417 0.40140
 C3000 C 1.11606 0.73572 0.38274
 C3001 C 1.11058 0.75199 0.41550
 C3002 C 1.12861 0.75386 0.39669
 C3003 C 1.12349 0.79315 0.37598
 C3004 C 1.13123 0.81025 0.36822
 C3005 C 1.08936 0.71286 0.41024
 C3006 C 1.08230 0.69518 0.41732
 H3007 H 1.06536 0.75163 0.38721
 H3008 H 1.08844 0.78521 0.41243
 H3009 H 1.09843 0.75552 0.35274
 H3010 H 1.12404 0.72114 0.37415
 H3011 H 1.11404 0.75078 0.43386
 H3012 H 1.14711 0.75467 0.39939
 C3013 C 0.58460 1.25263 0.38956
 C3014 C 0.59729 1.27085 0.40334
 C3015 C 0.61515 1.27214 0.38462
 C3016 C 0.60261 1.25426 0.37070
 C3017 C 0.59884 1.23437 0.40118
 C3018 C 0.61670 1.23568 0.38246
 C3019 C 0.61138 1.25224 0.41511
 C3020 C 0.62937 1.25387 0.39624
 C3021 C 0.62440 1.29303 0.37523
 C3022 C 0.63220 1.31006 0.36734
 C3023 C 0.58993 1.21318 0.41021
 C3024 C 0.58278 1.19559 0.41744
 H3025 H 0.56609 1.25189 0.38692
 H3026 H 0.58941 1.28555 0.41182
 H3027 H 0.59910 1.25533 0.35234
 H3028 H 0.62459 1.22099 0.37397
 H3029 H 0.61488 1.25117 0.43347
 H3030 H 0.64789 1.25461 0.39889
 C3031 C 0.61870 0.73618 0.88726
 C3032 C 0.60568 0.75266 0.87174
 C3033 C 0.61390 0.77241 0.88633
 C3034 C 0.62706 0.75624 0.90172
 C3035 C 0.59777 0.73437 0.90241
 C3036 C 0.60599 0.75411 0.91701
 C3037 C 0.58461 0.75053 0.88702
 C3038 C 0.59297 0.77062 0.90148
 C3039 C 0.62308 0.79343 0.87717
 C3040 C 0.63081 0.81055 0.86945
 C3041 C 0.58898 0.71303 0.91117
 C3042 C 0.58194 0.69532 0.91819
 H3043 H 0.62918 0.72179 0.88151
 H3044 H 0.60565 0.75230 0.85302
 H3045 H 0.64462 0.75882 0.90766
 H3046 H 0.60601 0.75446 0.93573
 H3047 H 0.56705 0.74794 0.88108
 H3048 H 0.58250 0.78502 0.90721
 C3049 C 0.88684 1.25061 1.08512
 C3050 C 0.87146 1.25262 1.10614
 C3051 C 0.88604 1.27230 1.11456
 C3052 C 0.90128 1.27063 1.09368
 C3053 C 0.90214 1.23435 1.09827
 C3054 C 0.91672 1.25402 1.10669
 C3055 C 0.88689 1.23604 1.11914
 C3056 C 0.90133 1.25603 1.12770
 C3057 C 0.87688 1.29327 1.12381
 C3058 C 0.86915 1.31036 1.13160
 C3059 C 0.91092 1.21306 1.08940
 C3060 C 0.91796 1.19538 1.08230
 H3061 H 0.88099 1.24814 1.06751
 H3062 H 0.85275 1.25228 1.10601
 H3063 H 0.90710 1.28510 1.08332
 H3064 H 0.93543 1.25434 1.10681
 H3065 H 0.88106 1.22159 1.12951
 H3066 H 0.90718 1.25849 1.14531
 C3067 C 0.91658 0.75406 0.60541
 C3068 C 0.90054 0.77028 0.59264
 C3069 C 0.88589 0.77204 0.61393
 C3070 C 0.90178 0.75616 0.62684
 C3071 C 0.90203 0.73408 0.59770
 C3072 C 0.88738 0.73586 0.61899
 C3073 C 0.88613 0.74995 0.58478
 C3074 C 0.87135 0.75205 0.60621
 C3075 C 0.87672 0.79302 0.62315
 C3076 C 0.86898 0.81011 0.63093
 C3077 C 0.91083 0.71278 0.58886
 C3078 C 0.91790 0.69511 0.58178
 H3079 H 0.93528 0.75464 0.60497
 H3080 H 0.90585 0.78467 0.58191
 H3081 H 0.90812 0.75895 0.64423
 H3082 H 0.88206 0.72148 0.62973
 H3083 H 0.87980 0.74715 0.56739
 H3084 H 0.85265 0.75145 0.60665
 C3085 C 0.40977 1.25835 0.59096
 C3086 C 0.38482 1.26596 0.58946
 C3087 C 0.38569 1.27270 0.61446
 C3088 C 0.41050 1.26544 0.61611
 C3089 C 0.40185 1.23477 0.59817
 C3090 C 0.40271 1.24153 0.62316
 C3091 C 0.37704 1.24204 0.59653
 C3092 C 0.37778 1.24911 0.62165
 C3093 C 0.37650 1.29366 0.62371
 C3094 C 0.36874 1.31075 0.63149
 C3095 C 0.41066 1.21349 0.58929
 C3096 C 0.41773 1.19583 0.58219
 H3097 H 0.42303 1.26191 0.57823
 H3098 H 0.37735 1.27624 0.57571
 H3099 H 0.42415 1.27530 0.62426
 H3100 H 0.41017 1.23124 0.63692
 H3101 H 0.36338 1.23219 0.58838
 H3102 H 0.36452 1.24554 0.63438
 C3103 C 0.41268 0.75730 1.09556
 C3104 C 0.38915 0.76731 1.09012
 C3105 C 0.38564 0.77196 1.11536
 C3106 C 0.40901 0.76230 1.12095
 C3107 C 0.40171 0.73408 1.09887
 C3108 C 0.39819 0.73875 1.12411
 C3109 C 0.37833 0.74375 1.09329
 C3110 C 0.37469 0.74873 1.11866
 C3111 C 0.37650 0.79290 1.12471
 C3112 C 0.36877 0.80998 1.13254
 C3113 C 0.41048 0.71283 1.08988
 C3114 C 0.41753 0.69519 1.08270
 H3115 H 0.42840 0.76059 1.08595
 H3116 H 0.38533 0.77929 1.07625
 H3117 H 0.42153 0.77016 1.13243
 H3118 H 0.40200 0.72677 1.13799
 H3119 H 0.36581 0.73588 1.08181
 H3120 H 0.35897 0.74543 1.12827
 C3121 C 0.87815 0.76293 0.89214
 C3122 C 0.88827 0.74969 0.87205
 C3123 C 0.88579 0.72778 0.88566
 C3124 C 0.87553 0.74071 0.90561
 C3125 C 0.90196 0.76570 0.90193
 C3126 C 0.89949 0.74380 0.91555
 C3127 C 0.91223 0.75277 0.88198
 C3128 C 0.90962 0.73053 0.89545
 C3129 C 0.87660 0.70682 0.87642
 C3130 C 0.86884 0.68974 0.86865
 C3131 C 0.91078 0.78698 0.91080
 C3132 C 0.91786 0.80464 0.91790
 H3133 H 0.86530 0.77649 0.89087
 H3134 H 0.88356 0.75188 0.85406
 H3135 H 0.86034 0.73551 0.91523
 H3136 H 0.90421 0.74163 0.93354
 H3137 H 0.92742 0.75798 0.87236
 H3138 H 0.92245 0.71697 0.89670
 C3139 C 0.87800 0.25808 0.40352
 C3140 C 0.87927 0.25047 0.37858
 C3141 C 0.88681 0.22697 0.38647
 C3142 C 0.88539 0.23426 0.41129
 C3143 C 0.90290 0.26510 0.40232
 C3144 C 0.91045 0.24162 0.41024
 C3145 C 0.90430 0.25780 0.37751
 C3146 C 0.91171 0.23398 0.38527
 C3147 C 0.87765 0.20592 0.37744
 C3148 C 0.86991 0.18877 0.36979
 C3149 C 0.91164 0.28650 0.41096
 C3150 C 0.91862 0.30426 0.41789
 H3151 H 0.86424 0.26823 0.41112
 H3152 H 0.86636 0.25388 0.36546
 H3153 H 0.87751 0.22434 0.42507
 H3154 H 0.92337 0.23823 0.42335
 H3155 H 0.91218 0.26772 0.36372
 H3156 H 0.92546 0.22383 0.37767
 C3157 C 0.39219 0.74668 0.41622
 C3158 C 0.37180 0.74479 0.40000
 C3159 C 0.38529 0.72815 0.38544
 C3160 C 0.40555 0.72971 0.40152
 C3161 C 0.40148 0.76606 0.40175
 C3162 C 0.41498 0.74943 0.38720
 C3163 C 0.38123 0.76449 0.38568
 C3164 C 0.39459 0.74754 0.37099
 C3165 C 0.37610 0.70720 0.37618
 C3166 C 0.36835 0.69011 0.36840
 C3167 C 0.41033 0.78732 0.41065
 C3168 C 0.41743 0.80496 0.41778
 H3169 H 0.39131 0.74657 0.43492
 H3170 H 0.35394 0.74265 0.40516
 H3171 H 0.41544 0.71516 0.40792
 H3172 H 0.43284 0.75158 0.38204
 H3173 H 0.37133 0.77902 0.37926
 H3174 H 0.39548 0.74767 0.35229
 C3175 C 0.38543 0.26432 0.88144
 C3176 C 0.39976 0.24464 0.87203
 C3177 C 0.38516 0.22799 0.88546
 C3178 C 0.37068 0.24736 0.89473
 C3179 C 0.40142 0.26586 0.90176
 C3180 C 0.38681 0.24921 0.91519
 C3181 C 0.41590 0.24650 0.89249
 C3182 C 0.40115 0.22950 0.90578
 C3183 C 0.37592 0.20705 0.87619
 C3184 C 0.36815 0.18998 0.86839
 C3185 C 0.41029 0.28711 0.91065
 C3186 C 0.41741 0.30475 0.91777
 H3187 H 0.37906 0.27887 0.87152
 H3188 H 0.40499 0.24253 0.85418
 H3189 H 0.35199 0.24748 0.89554
 H3190 H 0.38159 0.25133 0.93304
 H3191 H 0.43460 0.24639 0.89168
 H3192 H 0.40751 0.21494 0.91569
 C3193 C 1.10234 0.74426 1.08523
 C3194 C 1.12589 0.74150 1.09620
 C3195 C 1.11503 0.72804 1.11549
 C3196 C 1.09161 0.73046 1.10467
 C3197 C 1.09878 0.76589 1.09902
 C3198 C 1.08792 0.75243 1.11831
 C3199 C 1.12219 0.76345 1.10985
 C3200 C 1.11146 0.74967 1.12927
 C3201 C 1.12425 0.70711 1.12483
 C3202 C 1.13202 0.69004 1.13267
 C3203 C 1.08990 0.78712 1.09004
 C3204 C 1.08277 0.80473 1.08285
 H3205 H 1.09849 0.74228 1.06702
 H3206 H 1.14161 0.73678 1.08722
 H3207 H 1.07915 0.71666 1.10265
 H3208 H 1.07220 0.75716 1.12730
 H3209 H 1.13467 0.77724 1.11188
 H3210 H 1.11531 0.75167 1.14748
 C3211 C 1.09453 0.25713 0.62216
 C3212 C 1.08922 0.23331 0.61287
 C3213 C 1.11442 0.22749 0.61425
 C3214 C 1.11986 0.25099 0.62368
 C3215 C 1.09830 0.26544 0.59791
 C3216 C 1.12350 0.25961 0.59930
 C3217 C 1.09285 0.24196 0.58846
 C3218 C 1.11820 0.23580 0.58999
 C3219 C 1.12359 0.20652 0.62353
 C3220 C 1.13134 0.18943 0.63133
 C3221 C 1.08950 0.28673 0.58901
 C3222 C 1.08244 0.30440 0.58189
 H3223 H 1.08469 0.26614 0.63529
 H3224 H 1.07523 0.22226 0.61855
 H3225 H 1.13106 0.25447 0.63827
 H3226 H 1.13749 0.27066 0.59362
 H3227 H 1.08165 0.23849 0.57387
 H3228 H 1.12804 0.22679 0.57687
 C3229 C 0.60717 0.76287 0.62230
 C3230 C 0.59389 0.74048 0.62429
 C3231 C 0.61422 0.72790 0.61432
 C3232 C 0.62763 0.74997 0.61248
 C3233 C 0.59792 0.76590 0.59829
 C3234 C 0.61825 0.75332 0.58832
 C3235 C 0.58449 0.74383 0.60013
 C3236 C 0.60497 0.73091 0.59031
 C3237 C 0.62347 0.70690 0.62345
 C3238 C 0.63126 0.68978 0.63115
 C3239 C 0.58905 0.78722 0.58954
 C3240 C 0.58197 0.80491 0.58250
 H3241 H 0.60798 0.77624 0.63536
 H3242 H 0.58398 0.73496 0.63918
 H3243 H 0.64547 0.75227 0.61765
 H3244 H 0.62816 0.75884 0.57344
 H3245 H 0.56666 0.74156 0.59495
 H3246 H 0.60417 0.71753 0.57725
 C3247 C 0.60049 0.26015 1.12379
 C3248 C 0.59073 0.23637 1.11918
 C3249 C 0.61473 0.22772 1.11473
 C3250 C 0.62462 0.25117 1.11947
 C3251 C 0.59833 0.26562 1.09855
 C3252 C 0.62233 0.25696 1.09410
 C3253 C 0.58842 0.24218 1.09379
 C3254 C 0.61258 0.23318 1.08949
 C3255 C 0.62404 0.20677 1.12392
 C3256 C 0.63185 0.18969 1.13169
 C3257 C 0.58940 0.28689 1.08973
 C3258 C 0.58225 0.30454 1.08264
 H3259 H 0.59542 0.27147 1.13780
 H3260 H 0.57784 0.22767 1.12960
 H3261 H 0.63961 0.25465 1.13013
 H3262 H 0.63522 0.26566 1.08369
 H3263 H 0.57343 0.23872 1.08313
 H3264 H 0.61765 0.22185 1.07549
 C3265 C 1.25546 1.08461 0.89716
 C3266 C 1.25802 1.09674 0.87415
 C3267 C 1.27209 1.11512 0.88574
 C3268 C 1.26987 1.10315 0.90862
 C3269 C 1.23420 1.09865 0.90183
 C3270 C 1.24827 1.11704 0.91343
 C3271 C 1.23645 1.11063 0.87896
 C3272 C 1.25083 1.12915 0.89042
 C3273 C 1.29304 1.12447 0.87659
 C3274 C 1.31010 1.13232 0.86886
 C3275 C 1.21294 1.08968 0.91062
 C3276 C 1.19530 1.08251 0.91768
 H3277 H 1.25711 1.06619 0.90003
 H3278 H 1.26227 1.08849 0.85789
 H3279 H 1.28385 1.10018 0.92071
 H3280 H 1.24402 1.12528 0.92968
 H3281 H 1.22248 1.11361 0.86686
 H3282 H 1.24916 1.14757 0.88755
 C3283 C 1.25647 0.58506 0.39930
 C3284 C 1.25962 0.59507 0.37536
 C3285 C 1.27235 0.61510 0.38572
 C3286 C 1.26954 0.60524 0.40952
 C3287 C 1.23446 0.59849 0.40167
 C3288 C 1.24718 0.61852 0.41204
 C3289 C 1.23728 0.60835 0.37787
 C3290 C 1.25032 0.62851 0.38810
 C3291 C 1.29329 0.62451 0.37663
 C3292 C 1.31035 0.63239 0.36893
 C3293 C 1.21320 0.58945 0.41038
 C3294 C 1.19555 0.58224 0.41739
 H3295 H 1.25876 0.56709 0.40400
 H3296 H 1.26497 0.58553 0.36017
 H3297 H 1.28304 0.60408 0.42243
 H3298 H 1.24182 0.62806 0.42722
 H3299 H 1.22379 0.60953 0.36495
 H3300 H 1.24802 0.64648 0.38340
 C3301 C 0.75821 1.09228 0.41258
 C3302 C 0.76721 1.08831 0.38837
 C3303 C 0.77300 1.11350 0.38670
 C3304 C 0.76435 1.11761 0.41076
 C3305 C 0.73485 1.09756 0.40269
 C3306 C 0.74066 1.12274 0.40102
 C3307 C 0.74352 1.09345 0.37863
 C3308 C 0.74964 1.11876 0.37682
 C3309 C 0.79407 1.12257 0.37759
 C3310 C 0.81123 1.13024 0.36988
 C3311 C 0.71345 1.08888 0.41140
 C3312 C 0.69568 1.08194 0.41837
 H3313 H 0.76148 1.08129 0.42739
 H3314 H 0.77837 1.07426 0.38306
 H3315 H 0.77315 1.12765 0.42387
 H3316 H 0.72950 1.13679 0.40631
 H3317 H 0.73471 1.08341 0.36552
 H3318 H 0.74635 1.12974 0.36202
 C3319 C 0.75770 0.59287 0.91175
 C3320 C 0.76656 0.58895 0.88747
 C3321 C 0.77217 0.61418 0.88575
 C3322 C 0.76365 0.61824 0.90987
 C3323 C 0.73424 0.59798 0.90202
 C3324 C 0.73986 0.62320 0.90030
 C3325 C 0.74276 0.59392 0.87790
 C3326 C 0.74870 0.61928 0.87604
 C3327 C 0.79313 0.62338 0.87650
 C3328 C 0.81021 0.63113 0.86871
 C3329 C 0.71296 0.58915 0.91089
 C3330 C 0.69529 0.58207 0.91799
 H3331 H 0.76115 0.58191 0.92653
 H3332 H 0.77777 0.57498 0.88209
 H3333 H 0.77248 0.62834 0.92292
 H3334 H 0.72865 0.63719 0.90567
 H3335 H 0.73393 0.58382 0.86485
 H3336 H 0.74522 0.63023 0.86126
 C3337 C 1.23667 0.89072 1.12208
 C3338 C 1.25078 0.87159 1.11128
 C3339 C 1.27221 0.88559 1.11522
 C3340 C 1.25841 0.90458 1.12615
 C3341 C 1.23434 0.90176 1.09875
 C3342 C 1.25576 0.91577 1.10268
 C3343 C 1.24813 0.88277 1.08781
 C3344 C 1.26990 0.89663 1.09188
 C3345 C 1.29314 0.87639 1.12456
 C3346 C 1.31020 0.86863 1.13241
 C3347 C 1.21309 0.91059 1.08978
 C3348 C 1.19546 0.91768 1.08261
 H3349 H 1.22277 0.88838 1.13440
 H3350 H 1.24895 0.85333 1.11492
 H3351 H 1.26287 0.91344 1.14202
 H3352 H 1.25757 0.93404 1.09903
 H3353 H 1.24367 0.87391 1.07195
 H3354 H 1.28381 0.89896 1.07958
 C3355 C 1.25762 0.40367 0.58596
 C3356 C 1.26838 0.41042 0.60881
 C3357 C 1.27259 0.38537 0.61391
 C3358 C 1.26218 0.37848 0.59121
 C3359 C 1.23464 0.40164 0.59773
 C3360 C 1.23887 0.37660 0.60284
 C3361 C 1.24505 0.40853 0.62042
 C3362 C 1.24960 0.38336 0.62566
 C3363 C 1.29356 0.37613 0.62311
 C3364 C 1.31064 0.36835 0.63088
 C3365 C 1.21335 0.41050 0.58891
 C3366 C 1.19567 0.41759 0.58184
 H3367 H 1.26068 0.41212 0.56953
 H3368 H 1.28075 0.42421 0.61137
 H3369 H 1.26946 0.36601 0.57931
 H3370 H 1.22650 0.36280 0.60028
 H3371 H 1.23777 0.42099 0.63233
 H3372 H 1.24652 0.37491 0.64208
 C3373 C 0.73651 0.88950 0.62066
 C3374 C 0.75137 0.87163 0.60878
 C3375 C 0.77231 0.88587 0.61420
 C3376 C 0.75776 0.90360 0.62622
 C3377 C 0.73432 0.90219 0.59818
 C3378 C 0.75525 0.91645 0.60359
 C3379 C 0.74886 0.88445 0.58616
 C3380 C 0.77014 0.89856 0.59171
 C3381 C 0.79330 0.87659 0.62332
 C3382 C 0.81040 0.86879 0.63103
 C3383 C 0.71301 0.91108 0.58943
 C3384 C 0.69532 0.91818 0.58240
 H3385 H 0.72245 0.88587 0.63247
 H3386 H 0.75000 0.85310 0.61102
 H3387 H 0.76166 0.91137 0.64279
 H3388 H 0.75660 0.93498 0.60135
 H3389 H 0.74496 0.87668 0.56958
 H3390 H 0.78421 0.90218 0.57991
 C3391 C 0.75505 0.39579 1.08403
 C3392 C 0.77031 0.40794 1.10142
 C3393 C 0.77238 0.38577 1.11467
 C3394 C 0.75746 0.37349 1.09743
 C3395 C 0.73437 0.40183 1.09841
 C3396 C 0.73646 0.37967 1.11166
 C3397 C 0.74929 0.41412 1.11565
 C3398 C 0.75169 0.39181 1.12903
 C3399 C 0.79338 0.37664 1.12391
 C3400 C 0.81049 0.36892 1.13168
 C3401 C 0.71305 0.41059 1.08954
 C3402 C 0.69536 0.41762 1.08246
 H3403 H 0.75619 0.39753 1.06542
 H3404 H 0.78447 0.41947 1.09731
 H3405 H 0.76106 0.35668 1.09004
 H3406 H 0.72231 0.36813 1.11577
 H3407 H 0.74568 0.43093 1.12303
 H3408 H 0.75054 0.39008 1.14764
 C3409 C 0.75494 1.09094 1.12052
 C3410 C 0.75081 1.11599 1.12658
 C3411 C 0.72801 1.11490 1.11434
 C3412 C 0.73181 1.08998 1.10842
 C3413 C 0.76592 1.09845 1.09829
 C3414 C 0.74312 1.09735 1.08603
 C3415 C 0.76210 1.12337 1.10421
 C3416 C 0.73898 1.12241 1.09211
 C3417 C 0.70705 1.12423 1.12348
 C3418 C 0.68998 1.13207 1.13120
 C3419 C 0.78718 1.08949 1.08952
 C3420 C 0.80484 1.08233 1.08247
 H3421 H 0.76174 1.07790 1.13211
 H3422 H 0.75375 1.12376 1.14335
 H3423 H 0.71911 1.07636 1.11025
 H3424 H 0.74021 1.08957 1.06926
 H3425 H 0.77479 1.13700 1.10239
 H3426 H 0.73218 1.13546 1.08052
 C3427 C 0.75650 0.62146 0.59243
 C3428 C 0.73286 0.61096 0.58878
 C3429 C 0.72790 0.61413 0.61401
 C3430 C 0.75121 0.62476 0.61779
 C3431 C 0.76583 0.59790 0.59778
 C3432 C 0.76085 0.60107 0.62301
 C3433 C 0.74253 0.58725 0.59399
 C3434 C 0.73722 0.59056 0.61937
 C3435 C 0.70694 0.62335 0.62324
 C3436 C 0.68986 0.63111 0.63103
 C3437 C 0.78710 0.58904 0.58893
 C3438 C 0.80477 0.58195 0.58185
 H3439 H 0.76466 0.63407 0.58126
 H3440 H 0.72111 0.61514 0.57482
 H3441 H 0.75455 0.64029 0.62768
 H3442 H 0.77259 0.59690 0.63698
 H3443 H 0.73920 0.57172 0.58410
 H3444 H 0.72906 0.57796 0.63055
 C3445 C 0.25824 1.12339 0.59609
 C3446 C 0.23435 1.11560 0.58899
 C3447 C 0.22752 1.11483 0.61398
 C3448 C 0.25109 1.12275 0.62120
 C3449 C 0.26549 1.09859 0.59787
 C3450 C 0.25865 1.09782 0.62285
 C3451 C 0.24193 1.09065 0.59062
 C3452 C 0.23476 1.09003 0.61575
 C3453 C 0.20654 1.12406 0.62314
 C3454 C 0.18944 1.13183 0.63087
 C3455 C 0.28680 1.08974 0.58909
 C3456 C 0.30449 1.08266 0.58205
 H3457 H 0.26814 1.13701 0.58791
 H3458 H 0.22411 1.12302 0.57518
 H3459 H 0.25463 1.13606 0.63388
 H3460 H 0.26889 1.09041 0.63666
 H3461 H 0.23841 1.07735 0.57795
 H3462 H 0.22486 1.07641 0.62394
 C3463 C 0.24265 0.59641 1.08728
 C3464 C 0.23214 0.59001 1.11034
 C3465 C 0.22796 0.61512 1.11507
 C3466 C 0.23813 0.62167 1.09216
 C3467 C 0.26575 0.59862 1.09878
 C3468 C 0.26156 0.62374 1.10351
 C3469 C 0.25558 0.59208 1.12169
 C3470 C 0.25107 0.61732 1.12655
 C3471 C 0.20706 0.62448 1.12432
 C3472 C 0.19003 0.63233 1.13211
 C3473 C 0.28696 0.58963 1.08989
 C3474 C 0.30456 0.58243 1.08276
 H3475 H 0.23943 0.58771 1.07103
 H3476 H 0.21980 0.57624 1.11326
 H3477 H 0.23072 0.63395 1.08011
 H3478 H 0.27389 0.63751 1.10060
 H3479 H 0.26299 0.57980 1.13374
 H3480 H 0.25431 0.62603 1.14280
 C3481 C 0.76211 0.87762 0.89491
 C3482 C 0.73934 0.87729 0.90769
 C3483 C 0.72758 0.88604 0.88632
 C3484 C 0.75003 0.88624 0.87341
 C3485 C 0.76562 0.90216 0.90239
 C3486 C 0.75386 0.91091 0.88103
 C3487 C 0.74317 0.90197 0.91532
 C3488 C 0.73107 0.91058 0.89380
 C3489 C 0.70656 0.87688 0.87717
 C3490 C 0.68944 0.86915 0.86945
 C3491 C 0.78696 0.91095 0.91115
 C3492 C 0.80467 0.91798 0.91816
 H3493 H 0.77511 0.86417 0.89546
 H3494 H 0.73313 0.86336 0.91854
 H3495 H 0.75262 0.87967 0.85608
 H3496 H 0.76007 0.92484 0.87016
 H3497 H 0.74060 0.90854 0.93265
 H3498 H 0.71806 0.92403 0.89324
 C3499 C 0.74534 0.41536 0.39514
 C3500 C 0.74308 0.40226 0.37266
 C3501 C 0.72830 0.38472 0.38472
 C3502 C 0.73023 0.39768 0.40706
 C3503 C 0.76614 0.40109 0.40103
 C3504 C 0.75137 0.38355 0.41309
 C3505 C 0.76420 0.38813 0.37868
 C3506 C 0.74912 0.37047 0.39060
 C3507 C 0.70738 0.37544 0.37546
 C3508 C 0.69032 0.36762 0.36768
 C3509 C 0.78737 0.41002 0.40993
 C3510 C 0.80499 0.41717 0.41708
 H3511 H 0.74403 0.43392 0.39711
 H3512 H 0.73943 0.40984 0.35593
 H3513 H 0.71602 0.40149 0.41863
 H3514 H 0.75503 0.37597 0.42981
 H3515 H 0.77840 0.38431 0.36711
 H3516 H 0.75044 0.35191 0.38864
 C3517 C 0.26134 0.87717 0.39679
 C3518 C 0.23796 0.87923 0.40823
 C3519 C 0.22773 0.88599 0.38539
 C3520 C 0.25080 0.88379 0.37383
 C3521 C 0.26562 0.90224 0.40170
 C3522 C 0.25540 0.90899 0.37886
 C3523 C 0.24256 0.90444 0.41328
 C3524 C 0.23200 0.91105 0.39029
 C3525 C 0.20680 0.87675 0.37613
 C3526 C 0.18973 0.86897 0.36833
 C3527 C 0.28688 0.91109 0.41059
 C3528 C 0.30453 0.91818 0.41771
 H3529 H 0.27364 0.86334 0.39957
 H3530 H 0.23055 0.86689 0.42020
 H3531 H 0.25397 0.87520 0.35751
 H3532 H 0.26281 0.92132 0.36689
 H3533 H 0.23942 0.91304 0.42960
 H3534 H 0.21969 0.92488 0.38751
 C3535 C 0.26122 0.37687 0.89660
 C3536 C 0.23780 0.37895 0.90797
 C3537 C 0.22766 0.38580 0.88513
 C3538 C 0.25076 0.38358 0.87363
 C3539 C 0.26554 0.40190 0.90159
 C3540 C 0.25541 0.40875 0.87874
 C3541 C 0.24245 0.40414 0.91311
 C3542 C 0.23198 0.41084 0.89011
 C3543 C 0.20673 0.37663 0.87578
 C3544 C 0.18967 0.36889 0.86794
 C3545 C 0.28680 0.41070 0.91056
 C3546 C 0.30444 0.41776 0.91772
 H3547 H 0.27347 0.36300 0.89937
 H3548 H 0.23032 0.36660 0.91988
 H3549 H 0.25395 0.37502 0.85729
 H3550 H 0.26288 0.42110 0.86683
 H3551 H 0.23928 0.41269 0.92945
 H3552 H 0.21971 0.42470 0.88733
   
