data_POSCAR
  _audit_creation_date              2014-09-24
  _audit_creation_method            'ToBaCCo'
  _symmetry_space_group_name_H-M    'P1'
  _symmetry_Int_Tables_number       1
  _symmetry_cell_setting            triclinic
  loop_
  _symmetry_equiv_pos_as_xyz
 x,y,z
_cell_length_a 43.8541
_cell_length_b 43.8559
_cell_length_c 43.9910
_cell_angle_alpha 91.002700
_cell_angle_beta 91.019200
_cell_angle_gamma 91.056400
loop_
  _atom_site_label
  _atom_site_type_symbol
  _atom_site_fract_x
  _atom_site_fract_y
  _atom_site_fract_z
N1 N 0.16148 0.23318 0.23958
 N2 N 0.16914 0.20904 0.25503
 C3 C 0.14977 0.20556 0.27816
 C4 C 0.12911 0.22896 0.27726
 C5 C 0.13711 0.24594 0.25233
 H6 H 0.15048 0.18747 0.29452
 H7 H 0.12591 0.26582 0.24372
 Cu8 Cu 0.20417 0.18554 0.24347
 Cu9 Cu 0.18357 0.24673 0.20422
 Cu10 Cu 0.24640 0.20454 0.18377
 N11 N 0.23940 0.16216 0.23233
 N12 N 0.25561 0.16961 0.20865
 C13 C 0.27860 0.15000 0.20575
 C14 C 0.27697 0.12942 0.22907
 C15 C 0.25169 0.13769 0.24547
 H16 H 0.29535 0.15058 0.18802
 H17 H 0.24264 0.12653 0.26514
 N18 N 0.23312 0.24066 0.16176
 N19 N 0.20904 0.25654 0.16929
 C20 C 0.20581 0.27949 0.14967
 C21 C 0.22915 0.27819 0.12909
 C22 C 0.24593 0.25317 0.13729
 H23 H 0.18786 0.29605 0.15018
 H24 H 0.26571 0.24438 0.12608
 H25 H 0.20035 0.20474 0.19208
 H26 H 0.22525 0.22945 0.21751
 N27 N 0.66215 0.73413 0.74022
 N28 N 0.66962 0.70979 0.75543
 C29 C 0.65022 0.70627 0.77852
 C30 C 0.62971 0.72979 0.77780
 C31 C 0.63786 0.74694 0.75306
 H32 H 0.65083 0.68803 0.79473
 H33 H 0.62676 0.76693 0.74457
 Cu34 Cu 0.70390 0.68524 0.74376
 Cu35 Cu 0.68395 0.74739 0.70477
 Cu36 Cu 0.74661 0.70537 0.68419
 N37 N 0.73990 0.66306 0.73260
 N38 N 0.75624 0.67076 0.70911
 C39 C 0.77935 0.65130 0.70622
 C40 C 0.77766 0.63055 0.72939
 C41 C 0.75224 0.63858 0.74565
 H42 H 0.79617 0.65202 0.68856
 H43 H 0.74309 0.62724 0.76517
 N44 N 0.73307 0.74122 0.66199
 N45 N 0.70903 0.75708 0.66962
 C46 C 0.70568 0.78001 0.65000
 C47 C 0.72894 0.77872 0.62931
 C48 C 0.74576 0.75371 0.63745
 H49 H 0.68774 0.79658 0.65060
 H50 H 0.76552 0.74493 0.62619
 H51 H 0.70048 0.70531 0.69250
 H52 H 0.72535 0.72956 0.71847
 N53 N 0.33390 0.76039 0.74607
 N54 N 0.32635 0.78490 0.76159
 C55 C 0.34601 0.78889 0.78535
 C56 C 0.36669 0.76539 0.78485
 C57 C 0.35841 0.74797 0.75936
 H58 H 0.34594 0.80781 0.80143
 H59 H 0.36997 0.72834 0.75036
 Cu60 Cu 0.29224 0.80937 0.74803
 Cu61 Cu 0.31222 0.74650 0.70920
 Cu62 Cu 0.25125 0.79003 0.68530
 N63 N 0.25819 0.83385 0.73449
 N64 N 0.24236 0.82635 0.70973
 C65 C 0.22017 0.84681 0.70564
 C66 C 0.22185 0.86810 0.72932
 C67 C 0.24657 0.85922 0.74703
 H68 H 0.20370 0.84613 0.68704
 H69 H 0.25559 0.87034 0.76743
 N70 N 0.26385 0.75247 0.66375
 N71 N 0.28725 0.73613 0.67265
 C72 C 0.29040 0.71249 0.65302
 C73 C 0.26768 0.71368 0.63091
 C74 C 0.25147 0.73955 0.63831
 H75 H 0.30823 0.69584 0.65424
 H76 H 0.23264 0.74885 0.62557
 H77 H 0.29727 0.78883 0.69649
 H78 H 0.27105 0.76530 0.71984
 N79 N 0.83547 0.26001 0.24634
 N80 N 0.82805 0.28465 0.26173
 C81 C 0.84732 0.28837 0.28582
 C82 C 0.86773 0.26458 0.28567
 C83 C 0.85968 0.24733 0.25992
 H84 H 0.84720 0.30732 0.30188
 H85 H 0.87121 0.22768 0.25093
 Cu86 Cu 0.79439 0.30935 0.24760
 Cu87 Cu 0.81384 0.24611 0.20935
 Cu88 Cu 0.75302 0.28979 0.18534
 N89 N 0.76026 0.33383 0.23436
 N90 N 0.74431 0.32617 0.20972
 C91 C 0.72191 0.34639 0.20576
 C92 C 0.72353 0.36758 0.22944
 C93 C 0.74832 0.35897 0.24707
 H94 H 0.70527 0.34556 0.18732
 H95 H 0.75699 0.37003 0.26766
 N96 N 0.76551 0.25223 0.16384
 N97 N 0.78890 0.23584 0.17268
 C98 C 0.79195 0.21223 0.15300
 C99 C 0.76915 0.21347 0.13097
 C100 C 0.75304 0.23937 0.13841
 H101 H 0.80978 0.19556 0.15413
 H102 H 0.73425 0.24877 0.12569
 H103 H 0.79893 0.28814 0.19631
 H104 H 0.77276 0.26513 0.22016
 N105 N 0.83478 0.73534 0.25940
 N106 N 0.82648 0.71066 0.24377
 C107 C 0.84644 0.70624 0.22120
 C108 C 0.86811 0.72963 0.22254
 C109 C 0.86007 0.74749 0.24730
 H110 H 0.84522 0.68769 0.20467
 H111 H 0.87164 0.76784 0.25600
 Cu112 Cu 0.78965 0.68783 0.25409
 Cu113 Cu 0.81178 0.75082 0.29368
 Cu114 Cu 0.74690 0.70952 0.31287
 N115 N 0.75301 0.66490 0.26489
 N116 N 0.73672 0.67328 0.28828
 C117 C 0.71334 0.65331 0.29139
 C118 C 0.71471 0.63140 0.26849
 C119 C 0.74042 0.63935 0.25225
 H120 H 0.69683 0.65420 0.30932
 H121 H 0.74987 0.62690 0.23335
 N122 N 0.76081 0.74693 0.33484
 N123 N 0.78541 0.76278 0.32758
 C124 C 0.78891 0.78664 0.34717
 C125 C 0.76523 0.78598 0.36750
 C126 C 0.74807 0.76027 0.35914
 H127 H 0.80771 0.80294 0.34727
 H128 H 0.72836 0.75124 0.37056
 H129 H 0.79345 0.70919 0.30559
 H130 H 0.77000 0.73293 0.27967
 N131 N 0.33557 0.23524 -0.24081
 N132 N 0.32782 0.21014 -0.25597
 C133 C 0.34772 0.20587 -0.27864
 C134 C 0.36886 0.22983 -0.27786
 C135 C 0.36049 0.24783 -0.25324
 H136 H 0.34681 0.18700 -0.29481
 H137 H 0.37151 0.26856 -0.24475
 Cu138 Cu 0.29170 0.18628 -0.24531
 Cu139 Cu 0.31238 0.25059 -0.20671
 Cu140 Cu 0.24731 0.20941 -0.18791
 N141 N 0.25423 0.16431 -0.23516
 N142 N 0.23725 0.17323 -0.21248
 C143 C 0.21342 0.15367 -0.20997
 C144 C 0.21519 0.13149 -0.23257
 C145 C 0.24162 0.13883 -0.24794
 H146 H 0.19634 0.15503 -0.19261
 H147 H 0.25149 0.12603 -0.26639
 N148 N 0.26116 0.24678 -0.16583
 N149 N 0.28586 0.26257 -0.17291
 C150 C 0.28938 0.28630 -0.15315
 C151 C 0.26563 0.28559 -0.13288
 C152 C 0.24839 0.26000 -0.14148
 H153 H 0.30823 0.30255 -0.15285
 H154 H 0.22865 0.25095 -0.13015
 H155 H 0.29385 0.20932 -0.19418
 H156 H 0.27092 0.23207 -0.22138
 N157 N 0.66318 0.26349 -0.24707
 N158 N 0.67245 0.28660 -0.26336
 C159 C 0.65290 0.28994 -0.28704
 C160 C 0.63047 0.26732 -0.28591
 C161 C 0.63759 0.25125 -0.25987
 H162 H 0.65431 0.30789 -0.30352
 H163 H 0.62468 0.23265 -0.25028
 Cu164 Cu 0.70890 0.31019 -0.25144
 Cu165 Cu 0.68454 0.25127 -0.21003
 Cu166 Cu 0.74960 0.29314 -0.18870
 N167 N 0.74538 0.33354 -0.23921
 N168 N 0.76119 0.32681 -0.21465
 C169 C 0.78475 0.34677 -0.21117
 C170 C 0.78384 0.36701 -0.23492
 C171 C 0.75833 0.35806 -0.25211
 H172 H 0.80097 0.34712 -0.19236
 H173 H 0.74914 0.36924 -0.27184
 N174 N 0.73421 0.25819 -0.16553
 N175 N 0.70932 0.24237 -0.17337
 C176 C 0.70529 0.21984 -0.15326
 C177 C 0.72894 0.22132 -0.13199
 C178 C 0.74671 0.24607 -0.14044
 H179 H 0.68686 0.20312 -0.15419
 H180 H 0.76731 0.25466 -0.12927
 H181 H 0.70361 0.29360 -0.19915
 H182 H 0.72729 0.26723 -0.22211
 N183 N 0.16450 0.76412 0.25290
 N184 N 0.17303 0.78806 0.23743
 C185 C 0.15370 0.79122 0.21356
 C186 C 0.13207 0.76786 0.21389
 C187 C 0.13954 0.75126 0.23942
 H188 H 0.15459 0.80965 0.19758
 H189 H 0.12708 0.73202 0.24832
 Cu190 Cu 0.20770 0.81372 0.25046
 Cu191 Cu 0.18556 0.75209 0.29002
 Cu192 Cu 0.25023 0.79395 0.31152
 N193 N 0.24566 0.83501 0.26176
 N194 N 0.26213 0.82750 0.28562
 C195 C 0.28634 0.84678 0.28848
 C196 C 0.28526 0.86732 0.26491
 C197 C 0.25882 0.85927 0.24864
 H198 H 0.30300 0.84663 0.30689
 H199 H 0.24909 0.87093 0.22946
 N200 N 0.23472 0.75917 0.33481
 N201 N 0.20992 0.74332 0.32683
 C202 C 0.20579 0.72074 0.34684
 C203 C 0.22933 0.72218 0.36820
 C204 C 0.24709 0.74702 0.35995
 H205 H 0.18737 0.70399 0.34575
 H206 H 0.26761 0.75563 0.37128
 H207 H 0.20391 0.79434 0.30204
 H208 H 0.22744 0.76965 0.27696
 N209 N 0.48442 0.40987 0.48837
 N210 N 0.46062 0.41730 0.50448
 C211 C 0.45735 0.39710 0.52697
 C212 C 0.48040 0.37597 0.52506
 C213 C 0.49715 0.38483 0.50018
 H214 H 0.43944 0.39742 0.54354
 H215 H 0.51681 0.37368 0.49099
 Cu216 Cu 0.43596 0.45246 0.49414
 Cu217 Cu 0.49647 0.43277 0.45267
 Cu218 Cu 0.45248 0.49508 0.43370
 N219 N 0.41122 0.48742 0.48343
 N220 N 0.41783 0.50378 0.45959
 C221 C 0.39720 0.52592 0.45671
 C222 C 0.37654 0.52359 0.48004
 C223 C 0.38614 0.49879 0.49659
 H224 H 0.39703 0.54257 0.43887
 H225 H 0.37546 0.48948 0.51642
 N226 N 0.48848 0.48273 0.41024
 N227 N 0.50497 0.45889 0.41735
 C228 C 0.52748 0.45615 0.39709
 C229 C 0.52531 0.47939 0.37632
 C230 C 0.50025 0.49580 0.38534
 H231 H 0.54438 0.43851 0.39721
 H232 H 0.49108 0.51559 0.37443
 H233 H 0.47894 0.47389 0.46621
 H234 H 0.45382 0.44869 0.44176
 N235 N -0.01567 -0.08991 0.98749
 N236 N -0.03951 -0.08262 1.00362
 C237 C -0.04273 -0.10290 1.02606
 C238 C -0.01963 -0.12396 1.02405
 C239 C -0.00288 -0.11496 0.99923
 H240 H -0.06056 -0.10257 1.04274
 H241 H 0.01688 -0.12595 0.99008
 Cu242 Cu -0.06406 -0.04743 0.99326
 Cu243 Cu -0.00360 -0.06683 0.95183
 Cu244 Cu -0.04725 -0.00439 0.93311
 N245 N -0.08859 -0.01228 0.98289
 N246 N -0.08185 0.00421 0.95916
 C247 C -0.10237 0.02645 0.95639
 C248 C -0.12306 0.02405 0.97966
 C249 C -0.11362 -0.00088 0.99610
 H250 H -0.10243 0.04322 0.93866
 H251 H -0.12432 -0.01021 1.01592
 N252 N -0.01141 -0.01679 0.90955
 N253 N 0.00498 -0.04072 0.91657
 C254 C 0.02746 -0.04348 0.89629
 C255 C 0.02538 -0.02014 0.87560
 C256 C 0.00038 -0.00365 0.88470
 H257 H 0.04430 -0.06118 0.89639
 H258 H -0.00871 0.01626 0.87392
 H259 H -0.02119 -0.02559 0.96585
 H260 H -0.04632 -0.05061 0.94110
 N261 N 1.02441 0.59475 0.98399
 N262 N 1.04893 0.58835 1.00009
 C263 C 1.05196 0.60879 1.02331
 C264 C 1.02807 0.62907 1.02157
 C265 C 1.01111 0.61933 0.99625
 H266 H 1.06975 0.60868 1.04064
 H267 H 0.99026 0.62887 0.98759
 Cu268 Cu 1.07341 0.55326 0.98875
 Cu269 Cu 1.01040 0.57015 0.94894
 Cu270 Cu 1.05376 0.50795 0.92884
 N271 N 1.09790 0.51824 0.97742
 N272 N 1.09011 0.50116 0.95356
 C273 C 1.11002 0.47844 0.95064
 C274 C 1.13137 0.48104 0.97400
 C275 C 1.12303 0.50664 0.99066
 H276 H 1.10862 0.46060 0.93337
 H277 H 1.13391 0.51570 1.01118
 N278 N 1.01622 0.51868 0.90680
 N279 N 0.99990 0.54256 0.91430
 C280 C 0.97604 0.54414 0.89481
 C281 C 0.97725 0.52004 0.87421
 C282 C 1.00308 0.50437 0.88243
 H283 H 0.95903 0.56166 0.89520
 H284 H 1.01199 0.48443 0.87118
 H285 H 1.02963 0.52967 0.96227
 H286 H 1.05284 0.55430 0.93694
 N287 N 0.52439 0.09527 0.48397
 N288 N 0.54882 0.08874 0.50013
 C289 C 0.55195 0.10923 0.52329
 C290 C 0.52816 0.12962 0.52155
 C291 C 0.51121 0.11995 0.49619
 H292 H 0.56969 0.10901 0.54066
 H293 H 0.49035 0.12952 0.48758
 Cu294 Cu 0.57315 0.05326 0.48968
 Cu295 Cu 0.51018 0.07045 0.44926
 Cu296 Cu 0.55367 0.00848 0.42905
 N297 N 0.59785 0.01872 0.47736
 N298 N 0.59024 0.00186 0.45331
 C299 C 0.61033 -0.02068 0.45018
 C300 C 0.63163 -0.01817 0.47361
 C301 C 0.62307 0.00720 0.49047
 H302 H 0.60898 -0.03846 0.43284
 H303 H 0.63379 0.01609 0.51115
 N304 N 0.51588 0.01885 0.40730
 N305 N 0.49945 0.04261 0.41488
 C306 C 0.47547 0.04402 0.39551
 C307 C 0.47675 0.01995 0.37489
 C308 C 0.50271 0.00444 0.38300
 H309 H 0.45836 0.06145 0.39596
 H310 H 0.51171 -0.01541 0.37167
 H311 H 0.52932 0.03007 0.46261
 H312 H 0.55279 0.05495 0.43773
 N313 N -0.02237 0.09980 0.51842
 N314 N -0.04652 0.09155 0.50190
 C315 C -0.04986 0.11103 0.47885
 C316 C -0.02649 0.13256 0.48074
 C317 C -0.00945 0.12477 0.50623
 H318 H -0.06733 0.10927 0.46122
 H319 H 0.01123 0.13579 0.51487
 Cu320 Cu -0.06967 0.05481 0.51077
 Cu321 Cu -0.00870 0.07666 0.55371
 Cu322 Cu -0.05087 0.01133 0.56966
 N323 N -0.09266 0.01783 0.51903
 N324 N -0.08522 0.00116 0.54246
 C325 C -0.10469 -0.02274 0.54373
 C326 C -0.12534 -0.02115 0.51975
 C327 C -0.11712 0.00497 0.50449
 H328 H -0.10423 -0.03995 0.56102
 H329 H -0.12847 0.01425 0.48482
 N330 N -0.01533 0.02530 0.59445
 N331 N 0.00103 0.04995 0.58842
 C332 C 0.02422 0.05251 0.60896
 C333 C 0.02233 0.02836 0.62884
 C334 C -0.00310 0.01165 0.61884
 H335 H 0.04165 0.07028 0.60923
 H336 H -0.01183 -0.00928 0.62818
 H337 H -0.02558 0.03511 0.53808
 H338 H -0.05065 0.05802 0.56311
 N339 N 0.47843 0.59904 0.01824
 N340 N 0.45459 0.59049 0.00142
 C341 C 0.45124 0.61002 -0.02160
 C342 C 0.47428 0.63188 -0.01937
 C343 C 0.49113 0.62424 0.00629
 H344 H 0.43398 0.60808 -0.03942
 H345 H 0.51151 0.63558 0.01526
 Cu346 Cu 0.43140 0.55366 0.01009
 Cu347 Cu 0.49182 0.57612 0.05377
 Cu348 Cu 0.44942 0.51100 0.06987
 N349 N 0.40815 0.51689 0.01877
 N350 N 0.41517 0.50059 0.04258
 C351 C 0.39537 0.47697 0.04413
 C352 C 0.37493 0.47836 0.01993
 C353 C 0.38365 0.50407 0.00426
 H354 H 0.39551 0.46003 0.06171
 H355 H 0.37268 0.51307 -0.01576
 N356 N 0.48487 0.52503 0.09478
 N357 N 0.50131 0.54962 0.08870
 C358 C 0.52447 0.55221 0.10928
 C359 C 0.52250 0.52814 0.12924
 C360 C 0.49705 0.51144 0.11923
 H361 H 0.54195 0.56993 0.10951
 H362 H 0.48828 0.49054 0.12861
 H363 H 0.47515 0.53454 0.03843
 H364 H 0.44965 0.55773 0.06274
 N365 N 0.51784 -0.09311 0.01705
 N366 N 0.54160 -0.08526 0.00096
 C367 C 0.54347 -0.10458 -0.02299
 C368 C 0.51952 -0.12550 -0.02195
 C369 C 0.50374 -0.11758 0.00385
 H370 H 0.56101 -0.10381 -0.03995
 H371 H 0.48389 -0.12905 0.01275
 Cu372 Cu 0.56769 -0.05064 0.01307
 Cu373 Cu 0.50732 -0.07141 0.05416
 Cu374 Cu 0.55364 -0.00954 0.07628
 N375 N 0.59388 -0.01632 0.02568
 N376 N 0.58837 -0.00018 0.05036
 C377 C 0.60931 0.02267 0.05309
 C378 C 0.62897 0.02078 0.02880
 C379 C 0.61837 -0.00431 0.01190
 H380 H 0.60985 0.03989 0.07099
 H381 H 0.62723 -0.01280 -0.00929
 N382 N 0.51747 -0.02285 0.09933
 N383 N 0.50026 -0.04668 0.09101
 C384 C 0.47725 -0.04965 0.11063
 C385 C 0.47976 -0.02651 0.13225
 C386 C 0.50560 -0.00991 0.12442
 H387 H 0.45923 -0.06679 0.10893
 H388 H 0.51473 0.01044 0.13565
 H389 H 0.52621 -0.02973 0.04262
 H390 H 0.55079 -0.05551 0.06527
 N391 N 1.01755 0.40722 0.51632
 N392 N 1.04147 0.41488 0.50037
 C393 C 1.04330 0.39561 0.47638
 C394 C 1.01920 0.37486 0.47729
 C395 C 1.00332 0.38288 0.50300
 H396 H 1.06103 0.39615 0.45961
 H397 H 0.98339 0.37150 0.51182
 Cu398 Cu 1.06778 0.44907 0.51307
 Cu399 Cu 1.00712 0.42883 0.55358
 Cu400 Cu 1.05358 0.49069 0.57573
 N401 N 1.09392 0.48356 0.52513
 N402 N 1.08825 0.49993 0.54964
 C403 C 1.10904 0.52290 0.55218
 C404 C 1.12878 0.52085 0.52799
 C405 C 1.11839 0.49555 0.51129
 H406 H 1.10949 0.54027 0.56993
 H407 H 1.12750 0.48682 0.49031
 N408 N 1.01747 0.47733 0.59882
 N409 N 1.00024 0.45349 0.59054
 C410 C 0.97728 0.45054 0.61022
 C411 C 0.97982 0.47372 0.63180
 C412 C 1.00566 0.49029 0.62392
 H413 H 0.95928 0.43339 0.60856
 H414 H 1.01480 0.51066 0.63511
 H415 H 1.02632 0.47046 0.54210
 H416 H 1.05056 0.44473 0.56514
 C417 C 0.35406 0.02915 0.24474
 C418 C 0.33599 -0.00015 0.25021
 C419 C 0.35317 -0.02532 0.25454
 C420 C 0.38790 -0.01864 0.25270
 C421 C 0.37607 0.03220 0.27185
 C422 C 0.39416 0.00758 0.27618
 C423 C 0.37430 0.02172 0.21778
 C424 C 0.39198 -0.00341 0.22143
 H425 H 0.31121 -0.00112 0.24968
 H426 H 0.40190 -0.03884 0.25626
 H427 H 0.37748 0.05248 0.28639
 H428 H 0.37603 0.03639 0.19822
 C429 C 0.14497 -0.03260 0.74543
 C430 C 0.16315 -0.00329 0.75253
 C431 C 0.14613 0.02204 0.75694
 C432 C 0.11136 0.01543 0.75405
 C433 C 0.12299 -0.03552 0.77180
 C434 C 0.10497 -0.01081 0.77649
 C435 C 0.12460 -0.02494 0.71805
 C436 C 0.10715 0.00041 0.72204
 H437 H 0.18792 -0.00231 0.75230
 H438 H 0.09741 0.03562 0.75806
 H439 H 0.12189 -0.05560 0.78588
 H440 H 0.12320 -0.03916 0.69761
 C441 C 0.64486 0.46735 0.24624
 C442 C 0.66292 0.49668 0.25344
 C443 C 0.64582 0.52193 0.25792
 C444 C 0.61108 0.51524 0.25489
 C445 C 0.62287 0.46427 0.27254
 C446 C 0.60477 0.48891 0.27724
 C447 C 0.62450 0.47499 0.21885
 C448 C 0.60698 0.50028 0.22283
 H449 H 0.68770 0.49776 0.25322
 H450 H 0.59708 0.53540 0.25889
 H451 H 0.62187 0.44417 0.28660
 H452 H 0.62315 0.46078 0.19839
 C453 C 0.85434 0.52987 0.74441
 C454 C 0.83614 0.50064 0.74972
 C455 C 0.85319 0.47536 0.75390
 C456 C 0.88795 0.48189 0.75217
 C457 C 0.87635 0.53270 0.77153
 C458 C 0.89432 0.50798 0.77576
 C459 C 0.87457 0.52246 0.71741
 C460 C 0.89214 0.49723 0.72099
 H461 H 0.81135 0.49980 0.74931
 H462 H 0.90184 0.46161 0.75572
 H463 H 0.87792 0.55295 0.78610
 H464 H 0.87634 0.53717 0.69789
 C465 C 0.24438 0.35568 0.02930
 C466 C 0.24975 0.33766 0.00010
 C467 C 0.25408 0.35486 -0.02498
 C468 C 0.25228 0.38957 -0.01835
 C469 C 0.27160 0.37770 0.03228
 C470 C 0.27589 0.39581 0.00770
 C471 C 0.21733 0.37590 0.02196
 C472 C 0.22098 0.39365 -0.00307
 H473 H 0.24927 0.31288 -0.00087
 H474 H 0.25583 0.40356 -0.03852
 H475 H 0.28625 0.37908 0.05245
 H476 H 0.19771 0.37755 0.03658
 C477 C 0.74603 0.14298 -0.03217
 C478 C 0.75320 0.16115 -0.00300
 C479 C 0.75791 0.14412 0.02221
 C480 C 0.75499 0.10935 0.01566
 C481 C 0.77254 0.12115 -0.03520
 C482 C 0.77738 0.10309 -0.01060
 C483 C 0.71869 0.12251 -0.02447
 C484 C 0.72283 0.10508 0.00079
 H485 H 0.75287 0.18591 -0.00200
 H486 H 0.75910 0.09540 0.03579
 H487 H 0.78663 0.12022 -0.05525
 H488 H 0.69814 0.12101 -0.03860
 C489 C 0.24599 0.64319 0.46762
 C490 C 0.25292 0.66132 0.49686
 C491 C 0.25748 0.64429 0.52208
 C492 C 0.25466 0.60953 0.51550
 C493 C 0.27257 0.62135 0.46478
 C494 C 0.27726 0.60328 0.48942
 C495 C 0.21861 0.62268 0.47513
 C496 C 0.22261 0.60522 0.50039
 H497 H 0.25242 0.68608 0.49790
 H498 H 0.25864 0.59558 0.53566
 H499 H 0.28672 0.62035 0.44478
 H500 H 0.19813 0.62123 0.46090
 C501 C 0.74415 0.85629 0.52960
 C502 C 0.74971 0.83823 0.50045
 C503 C 0.75405 0.85538 0.47536
 C504 C 0.75211 0.89008 0.48190
 C505 C 0.77129 0.87840 0.53264
 C506 C 0.77559 0.89646 0.50803
 C507 C 0.71705 0.87642 0.52211
 C508 C 0.72075 0.89409 0.49704
 H509 H 0.74926 0.81344 0.49954
 H510 H 0.75570 0.90403 0.46173
 H511 H 0.78592 0.87982 0.55283
 H512 H 0.69741 0.87810 0.53670
 C513 C 0.02913 0.24438 0.35471
 C514 C 0.00000 0.25045 0.33667
 C515 C -0.02516 0.25504 0.35373
 C516 C -0.01873 0.25260 0.38831
 C517 C 0.03245 0.27128 0.37705
 C518 C 0.00775 0.27574 0.39499
 C519 C 0.02118 0.21716 0.37448
 C520 C -0.00394 0.22099 0.39211
 H521 H -0.00094 0.24976 0.31197
 H522 H -0.03902 0.25620 0.40213
 H523 H 0.05283 0.28572 0.37859
 H524 H 0.03572 0.19746 0.37623
 C525 C -0.03189 0.74601 0.14409
 C526 C -0.00263 0.75357 0.16208
 C527 C 0.02263 0.75818 0.14503
 C528 C 0.01603 0.75472 0.11041
 C529 C -0.03506 0.77219 0.12188
 C530 C -0.01041 0.77692 0.10381
 C531 C -0.02403 0.71842 0.12410
 C532 C 0.00126 0.72243 0.10661
 H533 H -0.00155 0.75326 0.18677
 H534 H 0.03625 0.75866 0.09648
 H535 H -0.05520 0.78621 0.12078
 H536 H -0.03824 0.69788 0.12278
 C537 C 0.46791 0.24563 0.64492
 C538 C 0.49712 0.25319 0.66303
 C539 C 0.52243 0.25792 0.64607
 C540 C 0.51593 0.25455 0.61141
 C541 C 0.46479 0.27189 0.62278
 C542 C 0.48947 0.27673 0.60479
 C543 C 0.47589 0.21811 0.62486
 C544 C 0.50122 0.22224 0.60744
 H545 H 0.49812 0.25282 0.68772
 H546 H 0.53619 0.25859 0.59756
 H547 H 0.44464 0.28590 0.62168
 H548 H 0.46169 0.19757 0.62340
 C549 C 0.52946 0.74456 0.85503
 C550 C 0.50027 0.75041 0.83701
 C551 C 0.47506 0.75471 0.85409
 C552 C 0.48157 0.75242 0.88868
 C553 C 0.53259 0.77150 0.87732
 C554 C 0.50789 0.77578 0.89529
 C555 C 0.52176 0.71731 0.87485
 C556 C 0.49661 0.72094 0.89249
 H557 H 0.49937 0.75003 0.81230
 H558 H 0.46129 0.75590 0.90256
 H559 H 0.55289 0.78605 0.87887
 H560 H 0.53640 0.69769 0.87652
 C561 C 0.10274 0.23353 0.29807
 C562 C 0.11132 0.23160 0.33202
 C563 C 0.08726 0.23492 0.35089
 C564 C 0.05677 0.24005 0.33408
 C565 C 0.06295 0.26773 0.31390
 C566 C 0.08688 0.26436 0.29512
 C567 C 0.07726 0.20943 0.29289
 C568 C 0.05325 0.21280 0.31168
 H569 H 0.13433 0.22795 0.34049
 H570 H 0.08969 0.23407 0.37545
 H571 H 0.04976 0.28843 0.31463
 H572 H 0.09399 0.28245 0.28020
 H573 H 0.07800 0.19130 0.27581
 H574 H 0.03349 0.19752 0.31072
 C575 C 0.60328 0.73423 0.79856
 C576 C 0.57805 0.70987 0.79344
 C577 C 0.55397 0.71309 0.81216
 C578 C 0.55718 0.74045 0.83445
 C579 C 0.58770 0.73569 0.85134
 C580 C 0.61183 0.73252 0.83254
 C581 C 0.58713 0.76490 0.79546
 C582 C 0.56313 0.76810 0.81419
 H583 H 0.57906 0.69163 0.77652
 H584 H 0.53440 0.69756 0.81126
 H585 H 0.59011 0.73505 0.87592
 H586 H 0.63488 0.72916 0.84106
 H587 H 0.59413 0.78303 0.78055
 H588 H 0.54980 0.78871 0.81489
 C589 C 0.39482 0.76226 0.80478
 C590 C 0.41070 0.73143 0.80140
 C591 C 0.43643 0.72922 0.81869
 C592 C 0.44448 0.75792 0.83791
 C593 C 0.44514 0.78419 0.81514
 C594 C 0.41937 0.78632 0.79782
 C595 C 0.38970 0.76583 0.83924
 C596 C 0.41574 0.76360 0.85668
 H597 H 0.40197 0.71227 0.78778
 H598 H 0.44945 0.70841 0.81943
 H599 H 0.46419 0.80017 0.81321
 H600 H 0.41654 0.80394 0.78103
 H601 H 0.36754 0.76973 0.84901
 H602 H 0.41547 0.76570 0.88124
 C603 C -0.10555 0.26181 0.30453
 C604 C -0.09018 0.23055 0.30245
 C605 C -0.06435 0.22870 0.31964
 C606 C -0.05575 0.25805 0.33757
 C607 C -0.05482 0.28329 0.31368
 C608 C -0.08063 0.28510 0.29640
 C609 C -0.11035 0.26697 0.33891
 C610 C -0.08422 0.26506 0.35627
 H611 H -0.09930 0.21088 0.28982
 H612 H -0.05160 0.20777 0.32117
 H613 H -0.03557 0.29888 0.31099
 H614 H -0.08324 0.30206 0.27890
 H615 H -0.13231 0.27178 0.34873
 H616 H -0.08421 0.26847 0.38071
 C617 C -0.10542 0.73430 0.20149
 C618 C -0.11428 0.73166 0.16752
 C619 C -0.09032 0.73522 0.14846
 C620 C -0.05956 0.74132 0.16501
 C621 C -0.06520 0.76916 0.18581
 C622 C -0.08899 0.76554 0.20481
 C623 C -0.08022 0.71087 0.20591
 C624 C -0.05630 0.71450 0.18693
 H625 H -0.13743 0.72744 0.15918
 H626 H -0.09302 0.73397 0.12390
 H627 H -0.05173 0.79016 0.18537
 H628 H -0.09561 0.78372 0.22017
 H629 H -0.08108 0.69298 0.22263
 H630 H -0.03678 0.69963 0.18742
 C631 C 0.39401 0.23425 0.70213
 C632 C 0.38531 0.23134 0.66809
 C633 C 0.40937 0.23476 0.64911
 C634 C 0.44009 0.24097 0.66574
 C635 C 0.43435 0.26896 0.68627
 C636 C 0.41046 0.26556 0.70516
 C637 C 0.41926 0.21086 0.70681
 C638 C 0.44326 0.21435 0.68789
 H639 H 0.36218 0.22722 0.65960
 H640 H 0.40676 0.23353 0.62454
 H641 H 0.44773 0.29000 0.68556
 H642 H 0.40367 0.28414 0.71995
 H643 H 0.41838 0.19305 0.72363
 H644 H 0.46280 0.19952 0.68862
 C645 C 0.60342 0.26454 0.69536
 C646 C 0.57992 0.28871 0.70347
 C647 C 0.55395 0.28687 0.68621
 C648 C 0.55327 0.26077 0.66233
 C649 C 0.58212 0.26644 0.64362
 C650 C 0.60839 0.26829 0.66094
 C651 C 0.58620 0.23377 0.69751
 C652 C 0.56025 0.23186 0.68029
 H653 H 0.58370 0.30640 0.72079
 H654 H 0.53578 0.30317 0.68864
 H655 H 0.58226 0.26907 0.61919
 H656 H 0.63060 0.27219 0.65105
 H657 H 0.59420 0.21445 0.71025
 H658 H 0.54634 0.21113 0.67872
 C659 C 0.10361 0.76481 0.19412
 C660 C 0.08024 0.78911 0.20211
 C661 C 0.05424 0.78724 0.18490
 C662 C 0.05347 0.76099 0.16120
 C663 C 0.08232 0.76642 0.14242
 C664 C 0.10859 0.76831 0.15972
 C665 C 0.08632 0.73418 0.19661
 C666 C 0.06035 0.73220 0.17940
 H667 H 0.08404 0.80671 0.21949
 H668 H 0.03602 0.80347 0.18745
 H669 H 0.08244 0.76889 0.11798
 H670 H 0.13083 0.77213 0.14988
 H671 H 0.09413 0.71514 0.20987
 H672 H 0.04622 0.71160 0.17826
 C673 C 0.29755 0.10292 0.23389
 C674 C 0.33168 0.11148 0.23271
 C675 C 0.35047 0.08736 0.23608
 C676 C 0.33343 0.05683 0.24052
 C677 C 0.31268 0.06269 0.26781
 C678 C 0.29393 0.08670 0.26436
 C679 C 0.29276 0.07777 0.20948
 C680 C 0.31147 0.05369 0.21292
 H681 H 0.34030 0.13452 0.22943
 H682 H 0.37513 0.08977 0.23566
 H683 H 0.31308 0.04931 0.28833
 H684 H 0.27861 0.09363 0.28215
 H685 H 0.27609 0.07884 0.19101
 H686 H 0.31088 0.03421 0.19734
 C687 C 0.79816 0.60397 0.73407
 C688 C 0.83233 0.61238 0.73286
 C689 C 0.85100 0.58814 0.73606
 C690 C 0.83383 0.55767 0.74038
 C691 C 0.81319 0.56352 0.76776
 C692 C 0.79454 0.58762 0.76447
 C693 C 0.79318 0.57895 0.70957
 C694 C 0.81180 0.55477 0.71283
 H695 H 0.84106 0.63541 0.72980
 H696 H 0.87568 0.59044 0.73571
 H697 H 0.81365 0.55010 0.78827
 H698 H 0.77934 0.59459 0.78236
 H699 H 0.77640 0.58016 0.69122
 H700 H 0.81101 0.53534 0.69718
 C701 C 0.80364 0.39519 0.76161
 C702 C 0.83824 0.38999 0.76447
 C703 C 0.85575 0.41599 0.76213
 C704 C 0.83690 0.44481 0.75707
 C705 C 0.81702 0.43704 0.72874
 C706 C 0.79964 0.41132 0.73109
 C707 C 0.79717 0.41958 0.78592
 C708 C 0.81456 0.44532 0.78367
 H709 H 0.84807 0.36777 0.76800
 H710 H 0.88040 0.41563 0.76373
 H711 H 0.81723 0.45033 0.70815
 H712 H 0.78534 0.40292 0.71231
 H713 H 0.78047 0.41674 0.80362
 H714 H 0.81281 0.46436 0.79962
 C715 C 0.30398 -0.10584 0.26179
 C716 C 0.33863 -0.11076 0.26531
 C717 C 0.35597 -0.08462 0.26317
 C718 C 0.33701 -0.05597 0.25761
 C719 C 0.31774 -0.06400 0.22897
 C720 C 0.30053 -0.08986 0.23106
 C721 C 0.29691 -0.08135 0.28584
 C722 C 0.31418 -0.05551 0.28378
 H723 H 0.34864 -0.13286 0.26904
 H724 H 0.38062 -0.08476 0.26523
 H725 H 0.31832 -0.05080 0.20833
 H726 H 0.28693 -0.09853 0.21188
 H727 H 0.28003 -0.08424 0.30338
 H728 H 0.31210 -0.03648 0.29969
 C729 C 0.20214 -0.10653 0.73391
 C730 C 0.20645 -0.08149 0.71027
 C731 C 0.18754 -0.05747 0.71386
 C732 C 0.16581 -0.06041 0.74083
 C733 C 0.14901 -0.09113 0.73522
 C734 C 0.16795 -0.11520 0.73172
 C735 C 0.20583 -0.08981 0.76492
 C736 C 0.18689 -0.06591 0.76846
 H737 H 0.22299 -0.08249 0.69223
 H738 H 0.18791 -0.03810 0.69883
 H739 H 0.12435 -0.09374 0.73444
 H740 H 0.15934 -0.13835 0.72795
 H741 H 0.22119 -0.09632 0.78313
 H742 H 0.18650 -0.05242 0.78937
 C743 C 0.70250 0.39401 0.23442
 C744 C 0.70626 0.41062 0.26540
 C745 C 0.68711 0.43432 0.26914
 C746 C 0.66584 0.43972 0.24160
 C747 C 0.68740 0.44291 0.21454
 C748 C 0.70649 0.41908 0.21082
 C749 C 0.66841 0.38500 0.23234
 C750 C 0.64926 0.40888 0.23598
 H751 H 0.72202 0.40419 0.28330
 H752 H 0.68679 0.44782 0.29005
 H753 H 0.68755 0.46231 0.19953
 H754 H 0.72299 0.41821 0.19274
 H755 H 0.66007 0.36178 0.22850
 H756 H 0.62462 0.40607 0.23523
 C757 C 0.69504 0.60288 0.26513
 C758 C 0.66043 0.60792 0.26748
 C759 C 0.64308 0.58166 0.26534
 C760 C 0.66203 0.55276 0.26085
 C761 C 0.68119 0.55936 0.23266
 C762 C 0.69847 0.58531 0.23490
 C763 C 0.70226 0.57974 0.28984
 C764 C 0.68501 0.55374 0.28771
 H765 H 0.65049 0.63020 0.27065
 H766 H 0.61847 0.58188 0.26689
 H767 H 0.68070 0.54501 0.21228
 H768 H 0.71246 0.59286 0.21631
 H769 H 0.71928 0.58363 0.30777
 H770 H 0.68718 0.53555 0.30401
 C771 C 0.19545 0.10300 0.76397
 C772 C 0.20257 0.07990 0.78874
 C773 C 0.18529 0.05393 0.78665
 C774 C 0.16239 0.05289 0.75974
 C775 C 0.14347 0.08182 0.76412
 C776 C 0.16083 0.10808 0.76620
 C777 C 0.19895 0.08538 0.73379
 C778 C 0.18163 0.05943 0.73155
 H779 H 0.21946 0.08387 0.80677
 H780 H 0.18723 0.03590 0.80314
 H781 H 0.11887 0.08204 0.76582
 H782 H 0.15089 0.13037 0.76933
 H783 H 0.21297 0.09296 0.71521
 H784 H 0.18107 0.04512 0.71114
 C785 C 0.23381 0.29891 0.10271
 C786 C 0.26438 0.29551 0.08649
 C787 C 0.26770 0.31434 0.06259
 C788 C 0.24023 0.33495 0.05683
 C789 C 0.21263 0.31285 0.05368
 C790 C 0.20932 0.29404 0.07766
 C791 C 0.23249 0.33301 0.11131
 C792 C 0.23576 0.35188 0.08729
 H793 H 0.28235 0.28034 0.09336
 H794 H 0.28826 0.31489 0.04921
 H795 H 0.19706 0.31212 0.03422
 H796 H 0.19096 0.27718 0.07866
 H797 H 0.22935 0.34157 0.13431
 H798 H 0.23536 0.37653 0.08972
 C799 C 0.73356 0.79950 0.60297
 C800 C 0.76416 0.79619 0.58679
 C801 C 0.76748 0.81504 0.56292
 C802 C 0.73997 0.83559 0.55713
 C803 C 0.71243 0.81344 0.55392
 C804 C 0.70911 0.79461 0.57787
 C805 C 0.73215 0.83359 0.61159
 C806 C 0.73541 0.85249 0.58758
 H807 H 0.78218 0.78108 0.59369
 H808 H 0.78806 0.81564 0.54956
 H809 H 0.69686 0.81273 0.53444
 H810 H 0.69072 0.77777 0.57886
 H811 H 0.72892 0.84213 0.63458
 H812 H 0.73492 0.87714 0.59002
 C813 C 0.76185 0.80598 0.39547
 C814 C 0.78594 0.79917 0.41997
 C815 C 0.78371 0.81655 0.44562
 C816 C 0.75732 0.83920 0.44492
 C817 C 0.76292 0.85805 0.41628
 C818 C 0.76524 0.84057 0.39033
 C819 C 0.73103 0.80240 0.41127
 C820 C 0.72870 0.81974 0.43691
 H821 H 0.80369 0.78248 0.41716
 H822 H 0.79970 0.81477 0.46461
 H823 H 0.76492 0.88270 0.41601
 H824 H 0.76906 0.85041 0.36823
 H825 H 0.71192 0.78868 0.40251
 H826 H 0.70787 0.82039 0.44987
 C827 C 0.26217 0.30551 -0.10486
 C828 C 0.28625 0.29878 -0.08033
 C829 C 0.28391 0.31614 -0.05468
 C830 C 0.25744 0.33870 -0.05542
 C831 C 0.26300 0.35758 -0.08405
 C832 C 0.26545 0.34010 -0.10998
 C833 C 0.23133 0.30180 -0.08910
 C834 C 0.22891 0.31914 -0.06347
 H835 H 0.30403 0.28211 -0.08308
 H836 H 0.29984 0.31436 -0.03563
 H837 H 0.26484 0.38223 -0.08433
 H838 H 0.26929 0.34995 -0.13207
 H839 H 0.21230 0.28798 -0.09784
 H840 H 0.20806 0.31969 -0.05053
 C841 C 0.73388 0.20031 -0.10554
 C842 C 0.73167 0.16620 -0.11433
 C843 C 0.73540 0.14715 -0.09043
 C844 C 0.74121 0.16385 -0.05979
 C845 C 0.76884 0.18504 -0.06538
 C846 C 0.76504 0.20406 -0.08910
 C847 C 0.71033 0.20446 -0.08046
 C848 C 0.71412 0.18547 -0.05660
 H849 H 0.72774 0.15776 -0.13743
 H850 H 0.73466 0.12250 -0.09310
 H851 H 0.78989 0.18468 -0.05203
 H852 H 0.78311 0.21962 -0.09571
 H853 H 0.69225 0.22101 -0.08131
 H854 H 0.69919 0.18575 -0.03717
 C855 C 0.23417 0.70098 0.39451
 C856 C 0.23194 0.66692 0.38551
 C857 C 0.23555 0.64770 0.40931
 C858 C 0.24128 0.66421 0.44006
 C859 C 0.26895 0.68542 0.43469
 C860 C 0.26527 0.70459 0.41106
 C861 C 0.21053 0.70501 0.41952
 C862 C 0.21419 0.68586 0.44326
 H863 H 0.22801 0.65863 0.36236
 H864 H 0.23463 0.62307 0.40650
 H865 H 0.28993 0.68504 0.44815
 H866 H 0.28336 0.72020 0.40461
 H867 H 0.19248 0.72159 0.41866
 H868 H 0.19915 0.68604 0.46260
 C869 C 0.26447 0.69379 0.60260
 C870 C 0.23400 0.69675 0.58521
 C871 C 0.23184 0.67940 0.55939
 C872 C 0.26033 0.66060 0.55276
 C873 C 0.28701 0.68391 0.55354
 C874 C 0.28906 0.70124 0.57940
 C875 C 0.26728 0.65924 0.60774
 C876 C 0.26521 0.64179 0.58162
 H877 H 0.21514 0.71035 0.59289
 H878 H 0.21130 0.67853 0.54523
 H879 H 0.30334 0.68612 0.53541
 H880 H 0.30702 0.71832 0.58322
 H881 H 0.27072 0.64939 0.62997
 H882 H 0.26711 0.61721 0.58188
 C883 C 0.76569 0.19359 0.10268
 C884 C 0.76851 0.15904 0.10780
 C885 C 0.76620 0.14160 0.08169
 C886 C 0.76109 0.16042 0.05287
 C887 C 0.73269 0.17926 0.05974
 C888 C 0.73508 0.19660 0.08555
 C889 C 0.79008 0.20103 0.07927
 C890 C 0.78779 0.18370 0.05342
 H891 H 0.77214 0.14919 0.13000
 H892 H 0.76815 0.11703 0.08193
 H893 H 0.71207 0.17852 0.04569
 H894 H 0.71634 0.21030 0.09332
 H895 H 0.80800 0.21817 0.08291
 H896 H 0.80392 0.18595 0.03512
 C897 C 0.48467 0.34890 0.54554
 C898 C 0.48599 0.35806 0.57937
 C899 C 0.48844 0.33412 0.59844
 C900 C 0.48928 0.30279 0.58225
 C901 C 0.46066 0.30160 0.56140
 C902 C 0.45820 0.32564 0.54248
 C903 C 0.51350 0.32982 0.54084
 C904 C 0.51590 0.30569 0.56001
 H905 H 0.48556 0.38152 0.58761
 H906 H 0.49031 0.33727 0.62294
 H907 H 0.44415 0.28283 0.56091
 H908 H 0.43954 0.32744 0.52609
 H909 H 0.53050 0.33455 0.52389
 H910 H 0.53478 0.29018 0.55876
 C911 C -0.01525 0.84898 0.04449
 C912 C -0.04160 0.82560 0.04130
 C913 C -0.03914 0.80159 0.06027
 C914 C -0.01061 0.80292 0.08123
 C915 C 0.01613 0.80595 0.05912
 C916 C 0.01370 0.83006 0.03993
 C917 C -0.01413 0.85815 0.07832
 C918 C -0.01170 0.83423 0.09741
 H919 H -0.06024 0.82736 0.02490
 H920 H -0.05571 0.78289 0.05990
 H921 H 0.03515 0.79060 0.05804
 H922 H 0.03079 0.83490 0.02308
 H923 H -0.01484 0.88159 0.08657
 H924 H -0.01028 0.83735 0.12193
 C925 C 0.02117 0.65469 0.04382
 C926 C -0.00771 0.67286 0.03647
 C927 C -0.01340 0.69545 0.05704
 C928 C 0.00996 0.69811 0.08338
 C929 C 0.01084 0.66595 0.09687
 C930 C 0.01650 0.64338 0.07625
 C931 C 0.04676 0.67905 0.04711
 C932 C 0.04103 0.70172 0.06782
 H933 H -0.02268 0.66864 0.01695
 H934 H -0.03292 0.71017 0.05478
 H935 H 0.00774 0.66138 0.12080
 H936 H 0.01793 0.61962 0.08255
 H937 H 0.06790 0.67813 0.03470
 H938 H 0.05773 0.71961 0.07309
 C939 C 0.52123 0.15503 0.54403
 C940 C 0.49224 0.17312 0.53693
 C941 C 0.48650 0.19551 0.55770
 C942 C 0.50995 0.19809 0.58399
 C943 C 0.51100 0.16583 0.59722
 C944 C 0.51673 0.14344 0.57640
 C945 C 0.54670 0.17948 0.54741
 C946 C 0.54094 0.20197 0.56832
 H947 H 0.47728 0.16902 0.51738
 H948 H 0.46693 0.21018 0.55562
 H949 H 0.50791 0.16103 0.62110
 H950 H 0.51829 0.11964 0.58252
 H951 H 0.56775 0.17882 0.53481
 H952 H 0.55751 0.21999 0.57351
 C953 C -0.02036 0.15700 0.45780
 C954 C -0.04638 0.17985 0.45470
 C955 C -0.04176 0.20130 0.43306
 C956 C -0.01129 0.19806 0.41651
 C957 C 0.01308 0.19835 0.44209
 C958 C 0.00846 0.17690 0.46359
 C959 C -0.01667 0.14367 0.42561
 C960 C -0.01217 0.16502 0.40407
 H961 H -0.06694 0.17890 0.46805
 H962 H -0.05877 0.21814 0.42800
 H963 H 0.03247 0.21412 0.44312
 H964 H 0.02414 0.17445 0.48267
 H965 H -0.01780 0.11943 0.42014
 H966 H -0.00977 0.15894 0.38022
 C967 C 0.48033 0.65649 0.95781
 C968 C 0.45413 0.67912 0.95462
 C969 C 0.45870 0.70069 0.93309
 C970 C 0.48931 0.69782 0.91674
 C971 C 0.51352 0.69821 0.94248
 C972 C 0.50894 0.67664 0.96387
 C973 C 0.48435 0.64334 0.92559
 C974 C 0.48881 0.66484 0.90417
 H975 H 0.43348 0.67790 0.96782
 H976 H 0.44154 0.71737 0.92794
 H977 H 0.53276 0.71415 0.94368
 H978 H 0.52449 0.67428 0.98306
 H979 H 0.48343 0.61913 0.91999
 H980 H 0.49138 0.65889 0.88031
 C981 C 0.51424 0.84774 0.95661
 C982 C 0.48435 0.82909 0.96000
 C983 C 0.48132 0.80491 0.94006
 C984 C 0.50846 0.80170 0.91853
 C985 C 0.51120 0.83290 0.90327
 C986 C 0.51424 0.85687 0.92311
 C987 C 0.53953 0.82430 0.95969
 C988 C 0.53645 0.80023 0.94002
 H989 H 0.46704 0.83422 0.97652
 H990 H 0.46164 0.78966 0.94028
 H991 H 0.51038 0.83587 0.87882
 H992 H 0.51608 0.88027 0.91560
 H993 H 0.55786 0.82605 0.97657
 H994 H 0.55213 0.78136 0.94029
 C995 C 0.01402 0.34798 0.45599
 C996 C -0.01585 0.32932 0.45944
 C997 C -0.01883 0.30505 0.43961
 C998 C 0.00833 0.30177 0.41810
 C999 C 0.01105 0.33289 0.40271
 C1000 C 0.01404 0.35696 0.42245
 C1001 C 0.03933 0.32456 0.45920
 C1002 C 0.03630 0.30042 0.43962
 H1003 H -0.03318 0.33450 0.47593
 H1004 H -0.03849 0.28978 0.43992
 H1005 H 0.01023 0.33576 0.37825
 H1006 H 0.01580 0.38033 0.41484
 H1007 H 0.05762 0.32637 0.47612
 H1008 H 0.05199 0.28156 0.43996
 C1009 C 0.34938 0.54390 0.48465
 C1010 C 0.35849 0.57787 0.48579
 C1011 C 0.33455 0.59696 0.48824
 C1012 C 0.30328 0.58066 0.48936
 C1013 C 0.30194 0.55965 0.46093
 C1014 C 0.32595 0.54068 0.45843
 C1015 C 0.33054 0.53923 0.51354
 C1016 C 0.30640 0.55846 0.51603
 H1017 H 0.38192 0.58621 0.48517
 H1018 H 0.33764 0.62155 0.48972
 H1019 H 0.28324 0.55933 0.44441
 H1020 H 0.32770 0.52427 0.43981
 H1021 H 0.33552 0.52235 0.53056
 H1022 H 0.29119 0.55744 0.53513
 C1023 C 0.84977 0.04426 -0.01574
 C1024 C 0.82638 0.04100 -0.04197
 C1025 C 0.80223 0.05978 -0.03935
 C1026 C 0.80349 0.08067 -0.01083
 C1027 C 0.80674 0.05841 0.01573
 C1028 C 0.83098 0.03936 0.01315
 C1029 C 0.85871 0.07827 -0.01450
 C1030 C 0.83466 0.09719 -0.01191
 H1031 H 0.82826 0.02474 -0.06070
 H1032 H 0.78348 0.05933 -0.05581
 H1033 H 0.79150 0.05715 0.03478
 H1034 H 0.83604 0.02243 0.03008
 H1035 H 0.88209 0.08676 -0.01524
 H1036 H 0.83759 0.12180 -0.01029
 C1037 C 0.65471 0.04284 0.02156
 C1038 C 0.64376 0.07554 0.01719
 C1039 C 0.66651 0.09595 0.01124
 C1040 C 0.69844 0.08201 0.00981
 C1041 C 0.70233 0.06627 0.04067
 C1042 C 0.67949 0.04575 0.04669
 C1043 C 0.67235 0.03530 -0.00753
 C1044 C 0.69509 0.05567 -0.01351
 H1045 H 0.62014 0.08221 0.01908
 H1046 H 0.66225 0.12004 0.00831
 H1047 H 0.72059 0.07118 0.05700
 H1048 H 0.67876 0.03319 0.06771
 H1049 H 0.66783 0.01563 -0.02226
 H1050 H 0.70966 0.05314 -0.03306
 C1051 C 0.15452 0.54286 0.52080
 C1052 C 0.17227 0.53536 0.49180
 C1053 C 0.19501 0.55578 0.48592
 C1054 C 0.19820 0.58212 0.50927
 C1055 C 0.16623 0.59600 0.51055
 C1056 C 0.14350 0.57552 0.51638
 C1057 C 0.17916 0.54582 0.54605
 C1058 C 0.20198 0.56639 0.54015
 H1059 H 0.16772 0.51578 0.47696
 H1060 H 0.20957 0.55335 0.46635
 H1061 H 0.16189 0.62006 0.50760
 H1062 H 0.11985 0.58210 0.51812
 H1063 H 0.17833 0.53330 0.56710
 H1064 H 0.22007 0.57141 0.55664
 C1065 C 0.15616 0.45854 -0.01969
 C1066 C 0.17903 0.45562 -0.04564
 C1067 C 0.20075 0.43423 -0.04096
 C1068 C 0.19777 0.41778 -0.01048
 C1069 C 0.19773 0.44357 0.01369
 C1070 C 0.17599 0.46481 0.00898
 C1071 C 0.14326 0.42610 -0.01580
 C1072 C 0.16491 0.40484 -0.01122
 H1073 H 0.17779 0.46879 -0.06628
 H1074 H 0.21748 0.42913 -0.05803
 H1075 H 0.21340 0.44483 0.03308
 H1076 H 0.17322 0.48397 0.02452
 H1077 H 0.11910 0.42026 -0.01682
 H1078 H 0.15914 0.38086 -0.00864
 C1079 C 0.65630 0.95924 0.48005
 C1080 C 0.64320 0.92691 0.48427
 C1081 C 0.66471 0.90555 0.48898
 C1082 C 0.69765 0.91828 0.48953
 C1083 C 0.70063 0.93441 0.45887
 C1084 C 0.67907 0.95591 0.45405
 C1085 C 0.67627 0.96565 0.50860
 C1086 C 0.69787 0.94430 0.51345
 H1087 H 0.61900 0.92121 0.48324
 H1088 H 0.65881 0.88161 0.49164
 H1089 H 0.71718 0.92893 0.44174
 H1090 H 0.67783 0.96887 0.43328
 H1091 H 0.67381 0.98507 0.52387
 H1092 H 0.71371 0.94571 0.53270
 C1093 C 0.84776 0.95764 0.51432
 C1094 C 0.85675 0.92399 0.51384
 C1095 C 0.83268 0.90421 0.51082
 C1096 C 0.80156 0.91967 0.50854
 C1097 C 0.80038 0.94090 0.53669
 C1098 C 0.82453 0.96051 0.53978
 C1099 C 0.82894 0.96149 0.48474
 C1100 C 0.80464 0.94160 0.48170
 H1101 H 0.88012 0.91636 0.51538
 H1102 H 0.83554 0.87968 0.50971
 H1103 H 0.78167 0.94097 0.55253
 H1104 H 0.82653 0.97715 0.55830
 H1105 H 0.83404 0.97828 0.46767
 H1106 H 0.78925 0.94212 0.46222
 C1107 C 0.34802 0.45712 0.01437
 C1108 C 0.32933 0.46094 -0.01533
 C1109 C 0.30506 0.44100 -0.01850
 C1110 C 0.30185 0.41908 0.00832
 C1111 C 0.33298 0.40367 0.01076
 C1112 C 0.35702 0.42348 0.01393
 C1113 C 0.32463 0.45996 0.03967
 C1114 C 0.30050 0.44032 0.03645
 H1115 H 0.33448 0.47774 -0.03237
 H1116 H 0.28977 0.44146 -0.03807
 H1117 H 0.33587 0.37914 0.00957
 H1118 H 0.38040 0.41586 0.01554
 H1119 H 0.32648 0.47663 0.05818
 H1120 H 0.28168 0.44042 0.05216
 C1121 C 0.54573 0.48396 0.34933
 C1122 C 0.54251 0.45759 0.32607
 C1123 C 0.56136 0.46012 0.30204
 C1124 C 0.58230 0.48871 0.30324
 C1125 C 0.56007 0.51536 0.30632
 C1126 C 0.54096 0.51289 0.33046
 C1127 C 0.57972 0.48520 0.35832
 C1128 C 0.59872 0.48769 0.33437
 H1129 H 0.52618 0.43885 0.32798
 H1130 H 0.56093 0.44355 0.28340
 H1131 H 0.55876 0.53431 0.29092
 H1132 H 0.52403 0.52990 0.33534
 H1133 H 0.58814 0.48449 0.38164
 H1134 H 0.62334 0.48918 0.33732
 C1135 C 0.04582 -0.01557 0.84860
 C1136 C 0.07981 -0.01435 0.85760
 C1137 C 0.09882 -0.01191 0.83365
 C1138 C 0.08243 -0.01091 0.80250
 C1139 C 0.06143 -0.03946 0.80133
 C1140 C 0.04257 -0.04194 0.82536
 C1141 C 0.04110 0.01335 0.82972
 C1142 C 0.06022 0.01579 0.80556
 H1143 H 0.08821 -0.01493 0.88093
 H1144 H 0.12343 -0.01032 0.83663
 H1145 H 0.06088 -0.05599 0.78265
 H1146 H 0.02616 -0.06061 0.82725
 H1147 H 0.02420 0.03040 0.83462
 H1148 H 0.05895 0.03473 0.79016
 C1149 C 0.04453 0.02112 0.65441
 C1150 C 0.07711 0.01651 0.64325
 C1151 C 0.09768 0.01056 0.66579
 C1152 C 0.08399 0.00938 0.69776
 C1153 C 0.06843 0.04044 0.70157
 C1154 C 0.04776 0.04643 0.67895
 C1155 C 0.03699 -0.00795 0.67222
 C1156 C 0.05751 -0.01392 0.69476
 H1157 H 0.08357 0.01823 0.61963
 H1158 H 0.12170 0.00746 0.66133
 H1159 H 0.07365 0.05696 0.71957
 H1160 H 0.03535 0.06760 0.67820
 H1161 H 0.01733 -0.02278 0.66785
 H1162 H 0.05510 -0.03356 0.70929
 C1163 C 0.54461 0.52094 0.15493
 C1164 C 0.53702 0.49187 0.17271
 C1165 C 0.55744 0.48592 0.19535
 C1166 C 0.58388 0.50924 0.19847
 C1167 C 0.59772 0.51043 0.16656
 C1168 C 0.57724 0.51635 0.14392
 C1169 C 0.54773 0.54627 0.17948
 C1170 C 0.56830 0.54028 0.20220
 H1171 H 0.51745 0.47696 0.16818
 H1172 H 0.55501 0.46623 0.20980
 H1173 H 0.62176 0.50733 0.16221
 H1174 H 0.58381 0.51802 0.12033
 H1175 H 0.53535 0.56745 0.17864
 H1176 H 0.57349 0.55683 0.22019
 C1177 C 0.45706 -0.02024 0.15690
 C1178 C 0.45379 -0.04638 0.17956
 C1179 C 0.43235 -0.04162 0.20117
 C1180 C 0.41616 -0.01090 0.19830
 C1181 C 0.44213 0.01316 0.19846
 C1182 C 0.46343 0.00839 0.17685
 C1183 C 0.42471 -0.01603 0.14395
 C1184 C 0.40338 -0.01139 0.16547
 H1185 H 0.46674 -0.06720 0.17824
 H1186 H 0.42701 -0.05878 0.21775
 H1187 H 0.44344 0.03257 0.21411
 H1188 H 0.48263 0.02395 0.17417
 H1189 H 0.41898 -0.01688 0.11984
 H1190 H 0.37945 -0.00857 0.15965
 C1191 C 0.95713 0.48010 0.65643
 C1192 C 0.95380 0.45402 0.67915
 C1193 C 0.93240 0.45888 0.70076
 C1194 C 0.91627 0.48963 0.69784
 C1195 C 0.94231 0.51361 0.69796
 C1196 C 0.96358 0.50874 0.67635
 C1197 C 0.92477 0.48435 0.64350
 C1198 C 0.90347 0.48910 0.66503
 H1199 H 0.96678 0.43321 0.67793
 H1200 H 0.92714 0.44182 0.71747
 H1201 H 0.94381 0.53290 0.71376
 H1202 H 0.98296 0.52411 0.67381
 H1203 H 0.91899 0.48332 0.61939
 H1204 H 0.87952 0.49184 0.65923
 C1205 C 0.95584 0.51459 0.84748
 C1206 C 0.95877 0.53992 0.82410
 C1207 C 0.93907 0.53671 0.80010
 C1208 C 0.91767 0.50859 0.80157
 C1209 C 0.93943 0.48159 0.80478
 C1210 C 0.95942 0.48473 0.82891
 C1211 C 0.92223 0.51435 0.85656
 C1212 C 0.90235 0.51120 0.83265
 H1213 H 0.97548 0.55847 0.82591
 H1214 H 0.93915 0.55246 0.78133
 H1215 H 0.93966 0.46186 0.78966
 H1216 H 0.97601 0.46748 0.83413
 H1217 H 0.91468 0.51606 0.87988
 H1218 H 0.87783 0.51017 0.83561
 C1219 C 0.45541 0.01448 0.34811
 C1220 C 0.45835 0.03978 0.32470
 C1221 C 0.43873 0.03650 0.30064
 C1222 C 0.41740 0.00832 0.30208
 C1223 C 0.43920 -0.01862 0.30541
 C1224 C 0.45912 -0.01539 0.32958
 C1225 C 0.42177 0.01418 0.35708
 C1226 C 0.40197 0.01094 0.33311
 H1227 H 0.47501 0.05838 0.32654
 H1228 H 0.43881 0.05224 0.28186
 H1229 H 0.43950 -0.03839 0.29035
 H1230 H 0.47574 -0.03259 0.33486
 H1231 H 0.41414 0.01596 0.38037
 H1232 H 0.37743 0.00987 0.33599
   
