data_POSCAR
  _audit_creation_date              2014-09-24
  _audit_creation_method            'ToBaCCo'
  _symmetry_space_group_name_H-M    'P1'
  _symmetry_Int_Tables_number       1
  _symmetry_cell_setting            triclinic
  loop_
  _symmetry_equiv_pos_as_xyz
 x,y,z
_cell_length_a 43.8935
_cell_length_b 45.9539
_cell_length_c 54.0920
_cell_angle_alpha 89.726200
_cell_angle_beta 90.097400
_cell_angle_gamma 90.010600
loop_
  _atom_site_label
  _atom_site_type_symbol
  _atom_site_fract_x
  _atom_site_fract_y
  _atom_site_fract_z
B1 B 0.26183 0.23310 0.26940
 B2 B 0.22625 0.22260 0.26215
 B3 B 0.23254 0.25687 0.27179
 B4 B 0.26656 0.26810 0.26034
 B5 B 0.28078 0.24027 0.24317
 B6 B 0.25554 0.21196 0.24436
 B7 B 0.22686 0.25769 0.22220
 B8 B 0.26247 0.26829 0.22926
 B9 B 0.25615 0.23410 0.21979
 B10 B 0.22226 0.22287 0.23117
 B11 B 0.20791 0.25069 0.24837
 B12 B 0.23310 0.27904 0.24708
 B13 B 0.74117 0.77174 0.27173
 B14 B 0.77702 0.78120 0.26455
 B15 B 0.76976 0.74751 0.27521
 B16 B 0.73576 0.73658 0.26384
 B17 B 0.72223 0.76420 0.24558
 B18 B 0.74806 0.79187 0.24620
 B19 B 0.77580 0.74482 0.22555
 B20 B 0.73990 0.73501 0.23308
 B21 B 0.74720 0.76893 0.22213
 B22 B 0.78122 0.77979 0.23355
 B23 B 0.79468 0.75248 0.25191
 B24 B 0.76915 0.72450 0.25121
 B25 B 0.74306 0.23566 -0.22203
 B26 B 0.73487 0.26974 -0.23226
 B27 B 0.77102 0.26054 -0.22493
 B28 B 0.77730 0.22598 -0.23367
 B29 B 0.74443 0.21346 -0.24661
 B30 B 0.71786 0.24050 -0.24540
 B31 B 0.76487 0.25917 -0.27465
 B32 B 0.77308 0.22540 -0.26469
 B33 B 0.73695 0.23415 -0.27170
 B34 B 0.73063 0.26895 -0.26306
 B35 B 0.76377 0.28145 -0.25019
 B36 B 0.78999 0.25414 -0.25144
 B37 B 0.25295 0.76306 -0.22289
 B38 B 0.25923 0.72866 -0.23192
 B39 B 0.22389 0.73901 -0.22410
 B40 B 0.21838 0.77355 -0.23350
 B41 B 0.25095 0.78458 -0.24775
 B42 B 0.27662 0.75660 -0.24678
 B43 B 0.22743 0.73881 -0.27382
 B44 B 0.22083 0.77305 -0.26452
 B45 B 0.25631 0.76305 -0.27252
 B46 B 0.26198 0.72822 -0.26308
 B47 B 0.22925 0.71716 -0.24881
 B48 B 0.20363 0.74511 -0.24984
 B49 B 1.23436 1.26159 0.72651
 B50 B 1.22761 1.22724 0.73661
 B51 B 1.26348 1.23791 0.72995
 B52 B 1.26785 1.27292 0.73880
 B53 B 1.23397 1.28385 0.75111
 B54 B 1.20891 1.25561 0.74939
 B55 B 1.25606 1.23907 0.77945
 B56 B 1.26260 1.27328 0.76981
 B57 B 1.22681 1.26259 0.77601
 B58 B 1.22264 1.22770 0.76729
 B59 B 1.25655 1.21681 0.75505
 B60 B 1.28146 1.24534 0.75673
 B61 B 0.77629 0.74156 0.77551
 B62 B 0.74080 0.73183 0.76736
 B63 B 0.74751 0.76594 0.77685
 B64 B 0.78224 0.77621 0.76653
 B65 B 0.79666 0.74785 0.74994
 B66 B 0.77066 0.72019 0.75052
 B67 B 0.74436 0.76670 0.72712
 B68 B 0.77988 0.77622 0.73545
 B69 B 0.77290 0.74215 0.72578
 B70 B 0.73819 0.73187 0.73622
 B71 B 0.72386 0.76021 0.75271
 B72 B 0.74985 0.78791 0.75215
 B73 B 1.23020 0.74306 0.27275
 B74 B 1.22248 0.77715 0.26319
 B75 B 1.25829 0.76813 0.27106
 B76 B 1.26497 0.73354 0.26190
 B77 B 1.23250 0.72142 0.24797
 B78 B 1.20595 0.74861 0.24889
 B79 B 1.25416 0.76789 0.22138
 B80 B 1.26186 0.73384 0.23076
 B81 B 1.22599 0.74293 0.22310
 B82 B 1.21947 0.77739 0.23218
 B83 B 1.25192 0.78953 0.24609
 B84 B 1.27846 0.76236 0.24520
 B85 B 0.77554 1.25456 0.22275
 B86 B 0.73978 1.26524 0.22904
 B87 B 0.74615 1.23114 0.21931
 B88 B 0.77963 1.21957 0.23139
 B89 B 0.79349 1.24707 0.24929
 B90 B 0.76847 1.27549 0.24778
 B91 B 0.73889 1.22927 0.26875
 B92 B 0.77468 1.21889 0.26226
 B93 B 0.76803 1.25292 0.27216
 B94 B 0.73455 1.26450 0.26000
 B95 B 0.72076 1.23702 0.24217
 B96 B 0.74578 1.20856 0.24366
 N97 N 0.55315 1.02759 0.02560
 N98 N 0.57491 1.04627 0.03108
 N99 N 0.53222 0.96588 0.04172
 N100 N 0.53951 0.94663 0.05895
 N101 N 0.55310 0.96655 0.02436
 N102 N 0.57501 0.94777 0.02928
 N103 N 0.53244 1.02688 0.04309
 N104 N 0.53981 1.04493 0.06108
 C105 C 0.56614 1.05719 0.05312
 C106 C 0.56608 0.93519 0.05073
 N107 N 0.44547 0.96646 0.02428
 N108 N 0.42345 0.94780 0.02924
 N109 N 0.46633 1.02696 0.04310
 N110 N 0.45921 1.04509 0.06105
 N111 N 0.44547 1.02764 0.02567
 N112 N 0.42384 1.04644 0.03117
 N113 N 0.46619 0.96604 0.04183
 N114 N 0.45852 0.94731 0.05935
 Mn115 Mn 0.49931 0.99644 0.04267
 C116 C 0.43207 0.93571 0.05100
 C117 C 0.43286 1.05741 0.05315
 N118 N 0.55301 0.96842 -0.02877
 N119 N 0.57485 0.94993 -0.03446
 N120 N 0.53218 1.03033 -0.04479
 N121 N 0.53935 1.04973 -0.06192
 N122 N 0.55318 1.02951 -0.02748
 N123 N 0.57506 1.04835 -0.03233
 N124 N 0.53226 0.96932 -0.04628
 N125 N 0.53967 0.95162 -0.06447
 Mn126 Mn 0.55329 0.99801 -0.00157
 C127 C 0.56606 0.93932 -0.05663
 C128 C 0.56599 1.06110 -0.05370
 N129 N 0.44535 1.02961 -0.02743
 N130 N 0.42342 1.04840 -0.03238
 N131 N 0.46623 0.96931 -0.04627
 N132 N 0.45894 0.95144 -0.06438
 N133 N 0.44545 0.96849 -0.02883
 N134 N 0.42371 0.94983 -0.03449
 N135 N 0.46619 1.03020 -0.04482
 N136 N 0.45878 1.04922 -0.06217
 Mn137 Mn 0.44524 0.99804 -0.00157
 Mn138 Mn 0.49921 0.99980 -0.04576
 Cl139 Cl 0.49925 0.99807 -0.00156
 C140 C 0.43228 1.06074 -0.05395
 C141 C 0.43259 0.93911 -0.05657
 N142 N 1.05175 0.52663 0.52516
 N143 N 1.07320 0.54564 0.53097
 N144 N 1.03059 0.46464 0.54116
 N145 N 1.03741 0.44524 0.55838
 N146 N 1.05187 0.46539 0.52411
 N147 N 1.07364 0.44648 0.52931
 N148 N 1.03075 0.52570 0.54242
 N149 N 1.03747 0.54387 0.56044
 C150 C 1.06379 0.55647 0.55293
 C151 C 1.06414 0.43377 0.55060
 N152 N 0.94336 0.46543 0.52411
 N153 N 0.92139 0.44676 0.52941
 N154 N 0.96489 0.52585 0.54245
 N155 N 0.95854 0.54427 0.56034
 N156 N 0.94376 0.52679 0.52523
 N157 N 0.92259 0.54609 0.53094
 N158 N 0.96449 0.46488 0.54134
 N159 N 0.95718 0.44612 0.55893
 Mn160 Mn 0.99769 0.49522 0.54200
 C161 C 0.93049 0.43459 0.55105
 C162 C 0.93230 0.55704 0.55281
 N163 N 1.05173 0.46683 0.47069
 N164 N 1.07328 0.44794 0.46498
 N165 N 1.03059 0.52829 0.45436
 N166 N 1.03770 0.54687 0.43660
 N167 N 1.05172 0.52815 0.47160
 N168 N 1.07362 0.54683 0.46603
 N169 N 1.03049 0.46728 0.45355
 N170 N 1.03719 0.44891 0.43567
 Mn171 Mn 1.05201 0.49679 0.49789
 C172 C 1.06374 0.43667 0.44319
 C173 C 1.06436 0.55863 0.44427
 N174 N 0.94362 0.52834 0.47172
 N175 N 0.92231 0.54782 0.46666
 N176 N 0.96440 0.46743 0.45358
 N177 N 0.95765 0.44892 0.43581
 N178 N 0.94328 0.46701 0.47076
 N179 N 0.92178 0.44798 0.46520
 N180 N 0.96465 0.52846 0.45447
 N181 N 0.95807 0.54784 0.43719
 Mn182 Mn 0.94325 0.49692 0.49795
 Mn183 Mn 0.99752 0.49784 0.45383
 Cl184 Cl 0.99762 0.49669 0.49791
 C185 C 0.93181 0.56005 0.44517
 C186 C 0.93120 0.43664 0.44344
 N187 N 1.05528 0.52996 0.02790
 N188 N 1.07438 0.55169 0.03164
 N189 N 1.03474 0.46793 0.04363
 N190 N 1.03927 0.44565 0.05865
 N191 N 1.05567 0.46874 0.02636
 N192 N 1.07512 0.44705 0.02920
 N193 N 1.03436 0.52923 0.04519
 N194 N 1.03864 0.55046 0.06118
 C195 C 1.06367 0.56437 0.05245
 C196 C 1.06449 0.43274 0.04939
 N197 N 0.94757 0.46791 0.02766
 N198 N 0.92858 0.44594 0.03122
 N199 N 0.96887 0.52858 0.04588
 N200 N 0.96458 0.54902 0.06250
 N201 N 0.94712 0.52915 0.02919
 N202 N 0.92736 0.55001 0.03408
 N203 N 0.96942 0.46743 0.04427
 N204 N 0.96609 0.44509 0.05939
 Mn205 Mn 1.00184 0.49830 0.04502
 C206 C 0.94060 0.43179 0.05104
 C207 C 0.93870 0.56233 0.05488
 N208 N 1.05460 0.47095 -0.02677
 N209 N 1.07382 0.44946 -0.03095
 N210 N 1.03273 0.53281 -0.04201
 N211 N 1.03679 0.55496 -0.05726
 N212 N 1.05428 0.53212 -0.02518
 N213 N 1.07363 0.55376 -0.02853
 N214 N 1.03309 0.47151 -0.04364
 N215 N 1.03705 0.45035 -0.05975
 Mn216 Mn 1.05532 0.50044 0.00057
 C217 C 1.06253 0.43671 -0.05155
 C218 C 1.06234 0.56794 -0.04855
 N219 N 0.94606 0.53149 -0.02415
 N220 N 0.92595 0.55251 -0.02764
 N221 N 0.96760 0.47126 -0.04292
 N222 N 0.96271 0.45110 -0.05970
 N223 N 0.94653 0.47030 -0.02574
 N224 N 0.92662 0.44949 -0.03046
 N225 N 0.96718 0.53241 -0.04131
 N226 N 0.96208 0.55410 -0.05683
 Mn227 Mn 0.94640 0.49970 0.00175
 Mn228 Mn 1.00014 0.50202 -0.04275
 Cl229 Cl 1.00090 0.50012 0.00114
 C230 C 0.93637 0.56659 -0.04803
 C231 C 0.93720 0.43755 -0.05164
 N232 N 0.53030 1.05091 0.52693
 N233 N 0.53702 1.07218 0.54226
 N234 N 0.55154 1.03157 0.47484
 N235 N 0.57301 1.03882 0.45881
 N236 N 0.53006 1.05147 0.47515
 N237 N 0.53645 1.07277 0.45955
 N238 N 0.55192 1.03113 0.52696
 N239 N 0.57390 1.03855 0.54248
 C240 C 0.56403 1.06407 0.55213
 C241 C 0.56308 1.06447 0.44920
 N242 N 0.53056 0.94828 0.47491
 N243 N 0.53725 0.92731 0.45928
 N244 N 0.55231 0.96782 0.52680
 N245 N 0.57451 0.96041 0.54217
 N246 N 0.53102 0.94770 0.52668
 N247 N 0.53825 0.92618 0.54183
 N248 N 0.55182 0.96841 0.47473
 N249 N 0.57345 0.96165 0.45877
 Mn250 Mn 0.55218 0.99973 0.50084
 C251 C 0.56382 0.93608 0.44906
 C252 C 0.56520 0.93452 0.55169
 N253 N 0.46446 1.05090 0.47531
 N254 N 0.45796 1.07212 0.45970
 N255 N 0.44324 1.03055 0.52737
 N256 N 0.42153 1.03768 0.54319
 N257 N 0.46472 1.05047 0.52719
 N258 N 0.45826 1.07146 0.54285
 N259 N 0.44272 1.03123 0.47543
 N260 N 0.42067 1.03888 0.45997
 Mn261 Mn 0.49736 1.05101 0.50114
 C262 C 0.43080 1.06428 0.45001
 C263 C 0.43148 1.06313 0.55297
 N264 N 0.46527 0.94734 0.52682
 N265 N 0.45862 0.92561 0.54187
 N266 N 0.44324 0.96777 0.47508
 N267 N 0.42124 0.96043 0.45955
 N268 N 0.46483 0.94794 0.47509
 N269 N 0.45803 0.92672 0.45971
 N270 N 0.44366 0.96714 0.52715
 N271 N 0.42181 0.95928 0.54263
 Mn272 Mn 0.49792 0.94774 0.50087
 Mn273 Mn 0.44291 0.99916 0.50126
 Cl274 Cl 0.49759 0.99940 0.50104
 C275 C 0.43171 0.93347 0.55192
 C276 C 0.43102 0.93491 0.44984
 N277 N 1.03614 1.05260 0.52643
 N278 N 1.04064 1.06962 0.54564
 N279 N 1.05445 1.03422 0.47323
 N280 N 1.07094 1.03742 0.45306
 N281 N 1.03342 1.05445 0.47449
 N282 N 1.03505 1.07201 0.45518
 N283 N 1.05755 1.03274 0.52507
 N284 N 1.07735 1.03582 0.54327
 C285 C 1.06644 1.05890 0.55596
 C286 C 1.05861 1.06112 0.44201
 N287 N 1.03347 0.95162 0.47243
 N288 N 1.03533 0.93489 0.45278
 N289 N 1.05750 0.97032 0.52391
 N290 N 1.07565 0.96783 0.54325
 N291 N 1.03639 0.95008 0.52434
 N292 N 1.03966 0.93324 0.54398
 N293 N 1.05463 0.97178 0.47195
 N294 N 1.07157 0.96925 0.45193
 Mn295 Mn 1.05646 1.00225 0.49851
 C296 C 1.05920 0.94611 0.44016
 C297 C 1.06434 0.94451 0.55552
 N298 N 0.96818 1.05425 0.47672
 N299 N 0.96524 1.07114 0.45710
 N300 N 0.94967 1.03217 0.52876
 N301 N 0.93177 1.03483 0.54814
 N302 N 0.97068 1.05247 0.52868
 N303 N 0.96759 1.06961 0.54804
 N304 N 0.94713 1.03396 0.47685
 N305 N 0.92927 1.03653 0.45732
 Mn306 Mn 1.00211 1.05385 0.50163
 C307 C 0.94079 1.05992 0.44524
 C308 C 0.94322 1.05824 0.56004
 N309 N 0.97111 0.94985 0.52650
 N310 N 0.96976 0.93255 0.54596
 N311 N 0.94720 0.97160 0.47561
 N312 N 0.92863 0.96980 0.45650
 N313 N 0.96826 0.95140 0.47454
 N314 N 0.96458 0.93526 0.45464
 N315 N 0.94988 0.96989 0.52756
 N316 N 0.93346 0.96677 0.54781
 Mn317 Mn 1.00232 0.95034 0.49945
 Mn318 Mn 0.94806 1.00190 0.50220
 Cl319 Cl 1.00224 1.00210 0.50046
 C320 C 0.94611 0.94332 0.55905
 C321 C 0.93969 0.94698 0.44361
 N322 N 0.55738 0.53480 0.02767
 N323 N 0.57996 0.55165 0.03539
 N324 N 0.53700 0.47294 0.04328
 N325 N 0.54448 0.45568 0.06174
 N326 N 0.55874 0.47375 0.02662
 N327 N 0.58178 0.45699 0.03366
 N328 N 0.53568 0.53377 0.04437
 N329 N 0.54288 0.54973 0.06363
 C330 C 0.57022 0.56118 0.05774
 C331 C 0.57216 0.44549 0.05547
 N332 N 0.44982 0.47097 0.02790
 N333 N 0.42796 0.45307 0.03525
 N334 N 0.47037 0.53217 0.04516
 N335 N 0.46378 0.54890 0.06407
 N336 N 0.44792 0.53202 0.02906
 N337 N 0.42536 0.54878 0.03683
 N338 N 0.47204 0.47131 0.04419
 N339 N 0.46600 0.45372 0.06280
 Mn340 Mn 0.50377 0.50258 0.04421
 C341 C 0.43874 0.44209 0.05690
 C342 C 0.43592 0.55951 0.05858
 N343 N 0.55743 0.47534 -0.02738
 N344 N 0.57986 0.45843 -0.03522
 N345 N 0.53339 0.53673 -0.04209
 N346 N 0.53930 0.55422 -0.06074
 N347 N 0.55613 0.53641 -0.02626
 N348 N 0.57830 0.55368 -0.03413
 N349 N 0.53521 0.47588 -0.04369
 N350 N 0.54184 0.45951 -0.06282
 Mn351 Mn 0.55778 0.50505 0.00015
 C352 C 0.56945 0.44836 -0.05725
 C353 C 0.56706 0.56506 -0.05550
 N354 N 0.44642 0.53345 -0.02475
 N355 N 0.42274 0.54923 -0.03185
 N356 N 0.47007 0.47417 -0.04279
 N357 N 0.46341 0.45760 -0.06180
 N358 N 0.44858 0.47264 -0.02595
 N359 N 0.42657 0.45498 -0.03336
 N360 N 0.46831 0.53521 -0.04124
 N361 N 0.46036 0.55263 -0.05954
 Mn362 Mn 0.44787 0.50223 0.00158
 Mn363 Mn 0.50175 0.50553 -0.04243
 Cl364 Cl 0.50281 0.50385 0.00088
 C365 C 0.43216 0.56163 -0.05331
 C366 C 0.43652 0.44538 -0.05564
 C367 C 0.30232 1.18916 0.15828
 C368 C 0.31550 1.21359 0.16947
 C369 C 0.30027 1.22849 0.18800
 C370 C 0.27050 1.22065 0.19509
 C371 C 0.25640 1.19738 0.18269
 C372 C 0.27218 1.18171 0.16456
 C373 C 0.32113 1.17038 0.14190
 C374 C 0.30833 1.15556 0.12171
 C375 C 0.32637 1.13747 0.10695
 C376 C 0.35768 1.13398 0.11193
 C377 C 0.37041 1.14907 0.13196
 C378 C 0.35238 1.16667 0.14686
 C379 C 0.37709 1.11451 0.09665
 C380 C 0.40108 1.09863 0.10757
 C381 C 0.41967 1.08068 0.09331
 C382 C 0.41435 1.07771 0.06789
 C383 C 0.39038 1.09334 0.05689
 C384 C 0.37207 1.11172 0.07107
 H385 H 0.33831 1.22057 0.16469
 H386 H 0.31275 1.24533 0.19753
 H387 H 0.23390 1.19005 0.18798
 H388 H 0.26134 1.16284 0.15651
 H389 H 0.28441 1.15799 0.11724
 H390 H 0.31566 1.12590 0.09188
 H391 H 0.39446 1.14741 0.13617
 H392 H 0.36303 1.17703 0.16259
 H393 H 0.40526 1.09963 0.12727
 H394 H 0.43776 1.06858 0.10231
 H395 H 0.38587 1.09146 0.03727
 H396 H 0.35420 1.12394 0.06193
 C397 C 0.81653 0.69632 0.66316
 C398 C 0.83214 0.71811 0.67624
 C399 C 0.81797 0.73321 0.69532
 C400 C 0.78719 0.72821 0.70124
 C401 C 0.77095 0.70770 0.68717
 C402 C 0.78548 0.69180 0.66850
 C403 C 0.83331 0.67720 0.64547
 C404 C 0.81876 0.66477 0.62483
 C405 C 0.83451 0.64574 0.60918
 C406 C 0.86534 0.63891 0.61356
 C407 C 0.87999 0.65198 0.63379
 C408 C 0.86418 0.67043 0.64965
 C409 C 0.88216 0.61780 0.59765
 C410 C 0.90485 0.59978 0.60798
 C411 C 0.92129 0.58049 0.59327
 C412 C 0.91507 0.57812 0.56793
 C413 C 0.89210 0.59558 0.55750
 C414 C 0.87598 0.61540 0.57216
 H415 H 0.85573 0.72306 0.67227
 H416 H 0.83165 0.74831 0.70587
 H417 H 0.74739 0.70279 0.69132
 H418 H 0.77265 0.67505 0.65912
 H419 H 0.79516 0.66965 0.62074
 H420 H 0.82228 0.63596 0.59394
 H421 H 0.90384 0.64793 0.63757
 H422 H 0.87622 0.67885 0.66554
 H423 H 0.90977 0.60021 0.62758
 H424 H 0.93857 0.56701 0.60190
 H425 H 0.88690 0.59419 0.53796
 H426 H 0.85901 0.62910 0.56342
 C427 C 0.70368 0.81241 0.15787
 C428 C 0.69943 0.78254 0.16179
 C429 C 0.71472 0.76814 0.18083
 C430 C 0.73492 0.78298 0.19657
 C431 C 0.74103 0.81250 0.19115
 C432 C 0.72550 0.82706 0.17217
 C433 C 0.68380 0.82848 0.14026
 C434 C 0.69537 0.85110 0.12546
 C435 C 0.67600 0.86706 0.10995
 C436 C 0.64465 0.86079 0.10900
 C437 C 0.63321 0.83788 0.12352
 C438 C 0.65253 0.82195 0.13898
 C439 C 0.62379 0.87859 0.09349
 C440 C 0.59514 0.88707 0.10256
 C441 C 0.57599 0.90486 0.08842
 C442 C 0.58511 0.91453 0.06493
 C443 C 0.61342 0.90553 0.05560
 C444 C 0.63258 0.88777 0.06974
 H445 H 0.68361 0.77035 0.15046
 H446 H 0.71019 0.74543 0.18292
 H447 H 0.75662 0.82499 0.20244
 H448 H 0.72941 0.85014 0.16961
 H449 H 0.71937 0.85652 0.12593
 H450 H 0.68544 0.88478 0.09915
 H451 H 0.60924 0.83233 0.12299
 H452 H 0.64279 0.80495 0.15042
 H453 H 0.58786 0.88062 0.12091
 H454 H 0.55433 0.91155 0.09609
 H455 H 0.62100 0.91259 0.03749
 H456 H 0.65430 0.88123 0.06211
 C457 C 1.19280 0.30582 0.66150
 C458 C 1.18738 0.27613 0.66577
 C459 C 1.20179 0.26151 0.68524
 C460 C 1.22219 0.27601 0.70106
 C461 C 1.22912 0.30533 0.69559
 C462 C 1.21455 0.32004 0.67619
 C463 C 1.17444 0.32225 0.64292
 C464 C 1.18754 0.34458 0.62858
 C465 C 1.16961 0.36121 0.61240
 C466 C 1.13815 0.35593 0.61020
 C467 C 1.12523 0.33317 0.62410
 C468 C 1.14312 0.31658 0.64025
 C469 C 1.11865 0.37478 0.59424
 C470 C 1.08964 0.38354 0.60234
 C471 C 1.07171 0.40219 0.58792
 C472 C 1.08235 0.41255 0.56505
 C473 C 1.11108 0.40343 0.55668
 C474 C 1.12906 0.38476 0.57113
 H475 H 1.17151 0.26422 0.65428
 H476 H 1.19658 0.23890 0.68759
 H477 H 1.24479 0.31753 0.70704
 H478 H 1.21928 0.34296 0.67351
 H479 H 1.21164 0.34934 0.63000
 H480 H 1.18025 0.37873 0.60212
 H481 H 1.10117 0.32827 0.62261
 H482 H 1.13216 0.29983 0.65122
 H483 H 1.08109 0.37661 0.62019
 H484 H 1.04972 0.40890 0.59490
 H485 H 1.11985 0.41101 0.53909
 H486 H 1.15110 0.37813 0.56420
 C487 C 0.70087 1.18912 -0.15878
 C488 C 0.69609 1.21906 -0.16188
 C489 C 0.71102 1.23443 -0.18056
 C490 C 0.73131 1.22052 -0.19676
 C491 C 0.73796 1.19091 -0.19214
 C492 C 0.72284 1.17540 -0.17352
 C493 C 0.68142 1.17205 -0.14154
 C494 C 0.69352 1.14905 -0.12742
 C495 C 0.67459 1.13220 -0.11226
 C496 C 0.64314 1.13791 -0.11100
 C497 C 0.63116 1.16116 -0.12486
 C498 C 0.65005 1.17800 -0.13995
 C499 C 0.62275 1.11927 -0.09579
 C500 C 0.59405 1.11075 -0.10485
 C501 C 0.57527 1.09237 -0.09095
 C502 C 0.58480 1.08212 -0.06771
 C503 C 0.61320 1.09105 -0.05843
 C504 C 0.63199 1.10940 -0.07233
 H505 H 0.68014 1.23056 -0.15020
 H506 H 0.70605 1.25712 -0.18206
 H507 H 0.75367 1.17910 -0.20379
 H508 H 0.72717 1.15231 -0.17160
 H509 H 0.71760 1.14405 -0.12812
 H510 H 0.68445 1.11425 -0.10198
 H511 H 0.60711 1.16632 -0.12408
 H512 H 0.63990 1.19527 -0.15087
 H513 H 0.58642 1.11771 -0.12299
 H514 H 0.55354 1.08576 -0.09860
 H515 H 0.62110 1.08356 -0.04052
 H516 H 0.65376 1.11592 -0.06470
 C517 C 1.18626 0.69563 0.33480
 C518 C 1.21719 0.69074 0.32922
 C519 C 1.23196 0.70714 0.31081
 C520 C 1.21607 0.72856 0.29729
 C521 C 1.18544 0.73386 0.30351
 C522 C 1.17110 0.71830 0.32233
 C523 C 1.16899 0.67614 0.35206
 C524 C 1.13796 0.67029 0.34770
 C525 C 1.12145 0.65199 0.36336
 C526 C 1.13552 0.63811 0.38358
 C527 C 1.16658 0.64383 0.38805
 C528 C 1.18306 0.66272 0.37256
 C529 C 1.11773 0.61747 0.39945
 C530 C 1.12364 0.61459 0.42497
 C531 C 1.10643 0.59542 0.43963
 C532 C 1.08265 0.57911 0.42917
 C533 C 1.07673 0.58194 0.40379
 C534 C 1.09423 0.60055 0.38909
 H535 H 1.22967 0.67334 0.33819
 H536 H 1.25536 0.70193 0.30636
 H537 H 1.17190 0.74951 0.29331
 H538 H 1.14765 0.72357 0.32651
 H539 H 1.12627 0.67944 0.33185
 H540 H 1.09749 0.64880 0.35949
 H541 H 1.17838 0.63337 0.40326
 H542 H 1.20680 0.66680 0.37673
 H543 H 1.14122 0.62744 0.43374
 H544 H 1.11146 0.59363 0.45918
 H545 H 1.05885 0.56931 0.39513
 H546 H 1.08945 0.60134 0.36947
 C547 C 0.30089 0.80951 -0.16293
 C548 C 0.31434 0.78566 -0.17475
 C549 C 0.29867 0.77046 -0.19290
 C550 C 0.26829 0.77739 -0.19895
 C551 C 0.25410 0.80019 -0.18606
 C552 C 0.27026 0.81617 -0.16831
 C553 C 0.31975 0.82835 -0.14661
 C554 C 0.30732 0.84217 -0.12580
 C555 C 0.32548 0.86004 -0.11090
 C556 C 0.35654 0.86428 -0.11635
 C557 C 0.36888 0.85027 -0.13706
 C558 C 0.35071 0.83293 -0.15211
 C559 C 0.37613 0.88335 -0.10081
 C560 C 0.39964 0.89991 -0.11163
 C561 C 0.41848 0.91739 -0.09714
 C562 C 0.41386 0.91925 -0.07157
 C563 C 0.39033 0.90300 -0.06065
 C564 C 0.37180 0.88504 -0.07509
 H565 H 0.33753 0.77925 -0.17065
 H566 H 0.31102 0.75380 -0.20275
 H567 H 0.23110 0.80681 -0.19059
 H568 H 0.25922 0.83460 -0.15975
 H569 H 0.28363 0.83904 -0.12091
 H570 H 0.31505 0.87080 -0.09530
 H571 H 0.39275 0.85251 -0.14167
 H572 H 0.36103 0.82337 -0.16831
 H573 H 0.40327 0.89979 -0.13142
 H574 H 0.43621 0.93002 -0.10606
 H575 H 0.38636 0.90405 -0.04092
 H576 H 0.35432 0.87227 -0.06603
 C577 C 0.81055 0.29792 0.33568
 C578 C 0.82530 0.27458 0.32403
 C579 C 0.81122 0.25950 0.30489
 C580 C 0.78122 0.26607 0.29749
 C581 C 0.76553 0.28797 0.31038
 C582 C 0.78008 0.30385 0.32911
 C583 C 0.82788 0.31719 0.35292
 C584 C 0.81356 0.33146 0.37273
 C585 C 0.83003 0.35047 0.38798
 C586 C 0.86130 0.35549 0.38396
 C587 C 0.87564 0.34072 0.36449
 C588 C 0.85916 0.32223 0.34907
 C589 C 0.87899 0.37639 0.39948
 C590 C 0.90278 0.39291 0.38901
 C591 C 0.91994 0.41201 0.40342
 C592 C 0.91343 0.41563 0.42859
 C593 C 0.88948 0.39958 0.43914
 C594 C 0.87257 0.38001 0.42479
 H595 H 0.84834 0.26856 0.32902
 H596 H 0.82462 0.24342 0.29523
 H597 H 0.74262 0.29410 0.30508
 H598 H 0.76793 0.32176 0.33746
 H599 H 0.78963 0.32801 0.37649
 H600 H 0.81806 0.36164 0.40261
 H601 H 0.89975 0.34341 0.36102
 H602 H 0.87106 0.31236 0.33374
 H603 H 0.90797 0.39146 0.36951
 H604 H 0.93801 0.42437 0.39470
 H605 H 0.88402 0.40193 0.45855
 H606 H 0.85477 0.36745 0.43364
 C607 C 1.17758 0.29607 0.15857
 C608 C 1.17994 0.26570 0.16085
 C609 C 1.19527 0.25329 0.18107
 C610 C 1.20813 0.27107 0.19947
 C611 C 1.20466 0.30145 0.19738
 C612 C 1.18988 0.31373 0.17711
 C613 C 1.16206 0.30992 0.13728
 C614 C 1.17593 0.33344 0.12505
 C615 C 1.15983 0.34960 0.10749
 C616 C 1.12942 0.34270 0.10190
 C617 C 1.11604 0.31821 0.11320
 C618 C 1.13232 0.30182 0.13067
 C619 C 1.11112 0.36281 0.08631
 C620 C 1.08193 0.37140 0.09400
 C621 C 1.06636 0.39352 0.08148
 C622 C 1.07961 0.40740 0.06096
 C623 C 1.10811 0.39785 0.05249
 C624 C 1.12377 0.37581 0.06510
 H625 H 1.17042 0.25167 0.14679
 H626 H 1.19714 0.22986 0.18218
 H627 H 1.21405 0.31603 0.21106
 H628 H 1.18787 0.33720 0.17599
 H629 H 1.19894 0.33994 0.12974
 H630 H 1.17066 0.36849 0.09929
 H631 H 1.09272 0.31227 0.10906
 H632 H 1.12116 0.28381 0.13993
 H633 H 1.07174 0.36203 0.11043
 H634 H 1.04433 0.40034 0.08832
 H635 H 1.11876 0.40803 0.03661
 H636 H 1.14611 0.36940 0.05863
 C637 C 0.69359 0.80939 0.66584
 C638 C 0.71265 0.82543 0.68146
 C639 C 0.72883 0.81174 0.70038
 C640 C 0.72722 0.78135 0.70393
 C641 C 0.70840 0.76515 0.68801
 C642 C 0.69154 0.77908 0.66926
 C643 C 0.67509 0.82495 0.64693
 C644 C 0.64350 0.82057 0.64541
 C645 C 0.62559 0.83791 0.62972
 C646 C 0.63893 0.85980 0.61494
 C647 C 0.67077 0.86330 0.61587
 C648 C 0.68856 0.84624 0.63178
 C649 C 0.61978 0.87919 0.59895
 C650 C 0.62773 0.90860 0.59513
 C651 C 0.60998 0.92666 0.57992
 C652 C 0.58364 0.91588 0.56842
 C653 C 0.57539 0.88669 0.57247
 C654 C 0.59330 0.86854 0.58741
 H655 H 0.71429 0.84885 0.67954
 H656 H 0.74247 0.82529 0.71240
 H657 H 0.70612 0.74185 0.69034
 H658 H 0.67688 0.76622 0.65746
 H659 H 0.63249 0.80457 0.65715
 H660 H 0.60116 0.83474 0.62983
 H661 H 0.68203 0.87933 0.60435
 H662 H 0.71293 0.84989 0.63245
 H663 H 0.64753 0.91784 0.60408
 H664 H 0.61682 0.94910 0.57724
 H665 H 0.55532 0.87767 0.56371
 H666 H 0.58663 0.84600 0.58951
 C667 C 1.17676 0.70190 -0.15901
 C668 C 1.19006 0.68382 -0.17675
 C669 C 1.20451 0.69566 -0.19733
 C670 C 1.20664 0.72602 -0.20051
 C671 C 1.19311 0.74419 -0.18276
 C672 C 1.17811 0.73220 -0.16225
 C673 C 1.16084 0.68856 -0.13772
 C674 C 1.13080 0.69651 -0.13198
 C675 C 1.11420 0.68053 -0.11450
 C676 C 1.12752 0.65659 -0.10232
 C677 C 1.15817 0.64984 -0.10707
 C678 C 1.17461 0.66561 -0.12463
 C679 C 1.10903 0.63689 -0.08657
 C680 C 1.12131 0.62482 -0.06481
 C681 C 1.10559 0.60312 -0.05190
 C682 C 1.07735 0.59301 -0.06058
 C683 C 1.06441 0.60600 -0.08166
 C684 C 1.08008 0.62777 -0.09451
 H685 H 1.18886 0.66037 -0.17490
 H686 H 1.21440 0.68081 -0.21054
 H687 H 1.19393 0.76760 -0.18472
 H688 H 1.16784 0.74655 -0.14881
 H689 H 1.11969 0.71406 -0.14192
 H690 H 1.09070 0.68635 -0.11101
 H691 H 1.16898 0.63137 -0.09818
 H692 H 1.19784 0.65924 -0.12865
 H693 H 1.14343 0.63167 -0.05812
 H694 H 1.11599 0.59364 -0.03558
 H695 H 1.04260 0.59871 -0.08869
 H696 H 1.07019 0.63644 -0.11136
 C697 C 0.68328 1.18526 0.32656
 C698 C 0.68348 1.21590 0.32485
 C699 C 0.70155 1.23021 0.30707
 C700 C 0.71970 1.21417 0.29062
 C701 C 0.71958 1.18358 0.29273
 C702 C 0.70212 1.16949 0.31055
 C703 C 0.66354 1.16922 0.34455
 C704 C 0.65084 1.14214 0.33806
 C705 C 0.63452 1.12563 0.35526
 C706 C 0.62984 1.13596 0.37929
 C707 C 0.64135 1.16351 0.38564
 C708 C 0.65819 1.17991 0.36849
 C709 C 0.61312 1.11779 0.39756
 C710 C 0.58923 1.12962 0.41149
 C711 C 0.57281 1.11216 0.42804
 C712 C 0.58031 1.08264 0.43136
 C713 C 0.60449 1.07089 0.41769
 C714 C 0.62055 1.08823 0.40080
 H715 H 0.66914 1.22879 0.33682
 H716 H 0.70084 1.25372 0.30593
 H717 H 0.73317 1.17015 0.28064
 H718 H 0.70348 1.14601 0.31173
 H719 H 0.65356 1.13353 0.31960
 H720 H 0.62535 1.10476 0.34971
 H721 H 0.63804 1.17195 0.40410
 H722 H 0.66774 1.20053 0.37423
 H723 H 0.58291 1.15226 0.40923
 H724 H 0.55435 1.12186 0.43840
 H725 H 0.61078 1.04823 0.41989
 H726 H 0.63900 1.07861 0.39037
 C727 C 0.82845 0.70087 0.16666
 C728 C 0.84191 0.70743 0.18949
 C729 C 0.82557 0.72213 0.20759
 C730 C 0.79524 0.73098 0.20338
 C731 C 0.78253 0.72587 0.17991
 C732 C 0.79882 0.71085 0.16181
 C733 C 0.84478 0.68217 0.14876
 C734 C 0.84350 0.68769 0.12318
 C735 C 0.85915 0.66976 0.10664
 C736 C 0.87640 0.64610 0.11542
 C737 C 0.87727 0.64043 0.14093
 C738 C 0.86162 0.65818 0.15738
 C739 C 0.89335 0.62696 0.09833
 C740 C 0.92277 0.61742 0.10461
 C741 C 0.93779 0.59708 0.09000
 C742 C 0.92374 0.58586 0.06876
 C743 C 0.89487 0.59628 0.06181
 C744 C 0.87978 0.61672 0.07648
 H745 H 0.86502 0.70068 0.19358
 H746 H 0.83680 0.72575 0.22512
 H747 H 0.75950 0.73198 0.17576
 H748 H 0.78772 0.70597 0.14443
 H749 H 0.83080 0.70610 0.11602
 H750 H 0.85820 0.67464 0.08705
 H751 H 0.88975 0.62192 0.14818
 H752 H 0.86238 0.65284 0.17689
 H753 H 0.93400 0.62538 0.12109
 H754 H 0.96017 0.58969 0.09566
 H755 H 0.88359 0.58802 0.04546
 H756 H 0.85707 0.62363 0.07128
 C757 C 0.31620 1.19208 0.67185
 C758 C 0.32565 1.19184 0.69663
 C759 C 0.30966 1.20738 0.71447
 C760 C 0.28353 1.22373 0.70821
 C761 C 0.27463 1.22463 0.68321
 C762 C 0.29067 1.20891 0.66527
 C763 C 0.33269 1.17414 0.65331
 C764 C 0.31673 1.15823 0.63530
 C765 C 0.33233 1.14001 0.61890
 C766 C 0.36424 1.13736 0.62011
 C767 C 0.38012 1.15352 0.63799
 C768 C 0.36459 1.17171 0.65429
 C769 C 0.38111 1.11805 0.60280
 C770 C 0.40944 1.12681 0.59324
 C771 C 0.42575 1.10874 0.57737
 C772 C 0.41414 1.08146 0.57047
 C773 C 0.38579 1.07259 0.57988
 C774 C 0.36943 1.09071 0.59590
 H775 H 0.34491 1.17878 0.70248
 H776 H 0.31741 1.20561 0.73342
 H777 H 0.25486 1.23663 0.67738
 H778 H 0.28298 1.20981 0.64626
 H779 H 0.29213 1.15937 0.63422
 H780 H 0.31942 1.12814 0.60518
 H781 H 0.40464 1.15179 0.63968
 H782 H 0.37763 1.18387 0.66775
 H783 H 0.41890 1.14789 0.59776
 H784 H 0.44743 1.11633 0.57030
 H785 H 0.37628 1.05169 0.57487
 H786 H 0.34785 1.08314 0.60315
 C787 C 0.82341 0.30323 -0.16504
 C788 C 0.83710 0.29671 -0.18774
 C789 C 0.82082 0.28244 -0.20616
 C790 C 0.79027 0.27401 -0.20243
 C791 C 0.77728 0.27906 -0.17908
 C792 C 0.79354 0.29364 -0.16064
 C793 C 0.83984 0.32144 -0.14680
 C794 C 0.83847 0.31542 -0.12131
 C795 C 0.85457 0.33270 -0.10448
 C796 C 0.87232 0.35618 -0.11291
 C797 C 0.87315 0.36243 -0.13833
 C798 C 0.85708 0.34533 -0.15504
 C799 C 0.88995 0.37451 -0.09556
 C800 C 0.91953 0.38353 -0.10185
 C801 C 0.93518 0.40328 -0.08706
 C802 C 0.92164 0.41440 -0.06561
 C803 C 0.89266 0.40439 -0.05860
 C804 C 0.87692 0.38455 -0.07347
 H805 H 0.86039 0.30314 -0.19147
 H806 H 0.83231 0.27877 -0.22353
 H807 H 0.75409 0.27318 -0.17528
 H808 H 0.78229 0.29847 -0.14334
 H809 H 0.82543 0.29709 -0.11445
 H810 H 0.85361 0.32740 -0.08497
 H811 H 0.88598 0.38084 -0.14529
 H812 H 0.85790 0.35103 -0.17447
 H813 H 0.93036 0.37568 -0.11851
 H814 H 0.95765 0.41035 -0.09276
 H815 H 0.88176 0.41258 -0.04209
 H816 H 0.85411 0.37801 -0.06825
 C817 C 0.30758 0.81044 0.33290
 C818 C 0.30947 0.78012 0.32980
 C819 C 0.29326 0.76634 0.31073
 C820 C 0.27533 0.78273 0.29416
 C821 C 0.27398 0.81315 0.29734
 C822 C 0.28948 0.82668 0.31658
 C823 C 0.32519 0.82581 0.35229
 C824 C 0.31094 0.84677 0.36713
 C825 C 0.32797 0.86375 0.38350
 C826 C 0.35979 0.86051 0.38517
 C827 C 0.37389 0.83895 0.37068
 C828 C 0.35673 0.82167 0.35455
 C829 C 0.37817 0.87982 0.40162
 C830 C 0.40436 0.86921 0.41368
 C831 C 0.42167 0.88731 0.42895
 C832 C 0.41307 0.91637 0.43286
 C833 C 0.38696 0.92710 0.42093
 C834 C 0.36982 0.90910 0.40535
 H835 H 0.32342 0.76714 0.34216
 H836 H 0.29521 0.74299 0.30874
 H837 H 0.26087 0.82680 0.28492
 H838 H 0.28799 0.85012 0.31829
 H839 H 0.28658 0.85023 0.36584
 H840 H 0.31614 0.87952 0.39476
 H841 H 0.39834 0.83602 0.37113
 H842 H 0.36830 0.80593 0.34305
 H843 H 0.41129 0.84675 0.41169
 H844 H 0.44157 0.87832 0.43806
 H845 H 0.37987 0.94945 0.42351
 H846 H 0.35021 0.91830 0.39602
 C847 C 1.17009 1.16380 0.30787
 C848 C 1.16674 1.16387 0.28210
 C849 C 1.18534 1.18160 0.26744
 C850 C 1.20778 1.19939 0.27832
 C851 C 1.21200 1.19778 0.30407
 C852 C 1.19334 1.18033 0.31864
 C853 C 1.14855 1.14796 0.32389
 C854 C 1.13559 1.16221 0.34419
 C855 C 1.11715 1.14707 0.36072
 C856 C 1.11140 1.11731 0.35734
 C857 C 1.12348 1.10323 0.33652
 C858 C 1.14179 1.11853 0.31978
 C859 C 1.09511 1.10083 0.37676
 C860 C 1.10703 1.07438 0.38554
 C861 C 1.09453 1.06098 0.40637
 C862 C 1.06987 1.07378 0.41872
 C863 C 1.05692 1.09941 0.40920
 C864 C 1.06947 1.11285 0.38840
 H865 H 1.14891 1.15119 0.27343
 H866 H 1.18135 1.18200 0.24770
 H867 H 1.22835 1.21134 0.31341
 H868 H 1.19656 1.18034 0.33850
 H869 H 1.14021 1.18503 0.34750
 H870 H 1.10845 1.15838 0.37675
 H871 H 1.11920 1.08032 0.33347
 H872 H 1.15157 1.10718 0.30420
 H873 H 1.12696 1.06480 0.37705
 H874 H 1.10478 1.04109 0.41325
 H875 H 1.03767 1.10953 0.41823
 H876 H 1.05966 1.13307 0.38179
 C877 C 0.68833 0.67120 -0.18520
 C878 C 0.71007 0.68978 -0.17500
 C879 C 0.72622 0.70884 -0.18997
 C880 C 0.72187 0.70941 -0.21581
 C881 C 0.70004 0.69051 -0.22607
 C882 C 0.68313 0.67176 -0.21082
 C883 C 0.67012 0.65290 -0.16839
 C884 C 0.68472 0.63495 -0.15098
 C885 C 0.66793 0.62088 -0.13258
 C886 C 0.63625 0.62490 -0.13100
 C887 C 0.62167 0.64254 -0.14883
 C888 C 0.63845 0.65621 -0.16747
 C889 C 0.61841 0.61066 -0.11099
 C890 C 0.58890 0.60041 -0.11584
 C891 C 0.57212 0.58661 -0.09742
 C892 C 0.58453 0.58220 -0.07373
 C893 C 0.61387 0.59262 -0.06861
 C894 C 0.63062 0.60691 -0.08706
 H895 H 0.71382 0.69027 -0.15520
 H896 H 0.74144 0.72377 -0.18085
 H897 H 0.69568 0.69045 -0.24577
 H898 H 0.66610 0.65768 -0.21897
 H899 H 0.70924 0.63226 -0.15140
 H900 H 0.67981 0.60697 -0.11956
 H901 H 0.59741 0.64655 -0.14797
 H902 H 0.62690 0.67048 -0.18044
 H903 H 0.57894 0.60235 -0.13409
 H904 H 0.54960 0.57865 -0.10204
 H905 H 0.62392 0.58952 -0.05049
 H906 H 0.65310 0.61503 -0.08255
 C907 C 0.82784 1.16463 0.69026
 C908 C 0.83196 1.16579 0.71596
 C909 C 0.81447 1.18475 0.73027
 C910 C 0.79270 1.20315 0.71912
 C911 C 0.78905 1.20197 0.69329
 C912 C 0.80623 1.18291 0.67911
 C913 C 0.84619 1.14489 0.67477
 C914 C 0.83208 1.12884 0.65595
 C915 C 0.84946 1.11236 0.63966
 C916 C 0.88135 1.11161 0.64181
 C917 C 0.89544 1.12695 0.66112
 C918 C 0.87797 1.14336 0.67756
 C919 C 0.89962 1.09628 0.62293
 C920 C 0.92548 1.10955 0.61251
 C921 C 0.94038 1.09675 0.59251
 C922 C 0.92964 1.07049 0.58261
 C923 C 0.90470 1.05656 0.59376
 C924 C 0.88985 1.06931 0.61373
 H925 H 0.84850 1.15182 0.72498
 H926 H 0.81820 1.18498 0.75005
 H927 H 0.77314 1.21603 0.68375
 H928 H 0.80302 1.18286 0.65925
 H929 H 0.80758 1.12948 0.65356
 H930 H 0.83798 1.10105 0.62480
 H931 H 0.91997 1.12656 0.66328
 H932 H 0.88936 1.15569 0.69187
 H933 H 0.93335 1.13046 0.61911
 H934 H 0.95966 1.10786 0.58429
 H935 H 0.89616 1.03610 0.58669
 H936 H 0.87029 1.05838 0.62167
 C937 C 0.31490 0.67435 0.18291
 C938 C 0.29318 0.69319 0.17278
 C939 C 0.27690 0.71196 0.18785
 C940 C 0.28123 0.71211 0.21369
 C941 C 0.30316 0.69314 0.22386
 C942 C 0.32005 0.67459 0.20855
 C943 C 0.33260 0.65547 0.16620
 C944 C 0.36451 0.65593 0.16670
 C945 C 0.38119 0.64064 0.14901
 C946 C 0.36627 0.62419 0.13069
 C947 C 0.33426 0.62319 0.13073
 C948 C 0.31762 0.63882 0.14819
 C949 C 0.38406 0.60804 0.11177
 C950 C 0.37333 0.60514 0.08731
 C951 C 0.39011 0.58954 0.06978
 C952 C 0.41807 0.57689 0.07632
 C953 C 0.42891 0.58007 0.10061
 C954 C 0.41205 0.59522 0.11814
 H955 H 0.28930 0.69390 0.15300
 H956 H 0.26123 0.72670 0.17887
 H957 H 0.30746 0.69269 0.24356
 H958 H 0.33691 0.66027 0.21672
 H959 H 0.37651 0.66903 0.18017
 H960 H 0.40578 0.64236 0.14933
 H961 H 0.32200 0.61028 0.11730
 H962 H 0.29296 0.63810 0.14755
 H963 H 0.35210 0.61513 0.08163
 H964 H 0.38129 0.58745 0.05116
 H965 H 0.45027 0.57033 0.10631
 H966 H 0.42077 0.59640 0.13683
 C967 C 1.16920 0.83681 0.69057
 C968 C 1.16597 0.83639 0.71635
 C969 C 1.18206 0.81609 0.73062
 C970 C 1.20141 0.79565 0.71931
 C971 C 1.20374 0.79585 0.69337
 C972 C 1.18800 0.81621 0.67923
 C973 C 1.15302 0.85835 0.67511
 C974 C 1.16869 0.87287 0.65613
 C975 C 1.15299 0.89036 0.63933
 C976 C 1.12127 0.89362 0.64115
 C977 C 1.10576 0.88020 0.66086
 C978 C 1.12157 0.86278 0.67781
 C979 C 1.10444 0.90880 0.62120
 C980 C 1.07800 0.89631 0.61113
 C981 C 1.06447 0.90835 0.59008
 C982 C 1.07716 0.93306 0.57876
 C983 C 1.10276 0.94632 0.58945
 C984 C 1.11629 0.93430 0.61049
 H985 H 1.15148 0.85210 0.72545
 H986 H 1.17943 0.81667 0.75050
 H987 H 1.21799 0.78044 0.68376
 H988 H 1.19038 0.81572 0.65931
 H989 H 1.19302 0.86997 0.65387
 H990 H 1.16550 0.90017 0.62420
 H991 H 1.08134 0.88261 0.66278
 H992 H 1.10905 0.85170 0.69230
 H993 H 1.06859 0.87647 0.61884
 H994 H 1.04459 0.89784 0.58227
 H995 H 1.11277 0.96562 0.58125
 H996 H 1.13642 0.94456 0.61809
 C997 C 0.69149 0.32627 0.17866
 C998 C 0.68446 0.32579 0.20406
 C999 C 0.70020 0.30715 0.22029
 C1000 C 0.72312 0.28855 0.21140
 C1001 C 0.73017 0.28972 0.18601
 C1002 C 0.71502 0.30848 0.17007
 C1003 C 0.67407 0.34431 0.16069
 C1004 C 0.66774 0.33347 0.13691
 C1005 C 0.65269 0.35060 0.11941
 C1006 C 0.64309 0.37874 0.12541
 C1007 C 0.64887 0.38953 0.14925
 C1008 C 0.66435 0.37251 0.16671
 C1009 C 0.62564 0.39615 0.10724
 C1010 C 0.63556 0.39911 0.08262
 C1011 C 0.61836 0.41521 0.06551
 C1012 C 0.59080 0.42804 0.07275
 C1013 C 0.58092 0.42475 0.09732
 C1014 C 0.59824 0.40917 0.11440
 H1015 H 0.66624 0.33916 0.21125
 H1016 H 0.69387 0.30684 0.23962
 H1017 H 0.74639 0.27514 0.17776
 H1018 H 0.72151 0.30861 0.15077
 H1019 H 0.67415 0.31155 0.13184
 H1020 H 0.64789 0.34160 0.10134
 H1021 H 0.64165 0.41125 0.15425
 H1022 H 0.66914 0.38159 0.18474
 H1023 H 0.65671 0.38922 0.07674
 H1024 H 0.62646 0.41749 0.04670
 H1025 H 0.55981 0.43446 0.10352
 H1026 H 0.58994 0.40685 0.13315
 C1027 C 0.82852 0.84552 0.30870
 C1028 C 0.83302 0.84379 0.28307
 C1029 C 0.81664 0.82362 0.26901
 C1030 C 0.79569 0.80458 0.28037
 C1031 C 0.79169 0.80637 0.30613
 C1032 C 0.80774 0.82659 0.32004
 C1033 C 0.84591 0.86622 0.32408
 C1034 C 0.83105 0.88178 0.34278
 C1035 C 0.84773 0.89817 0.35965
 C1036 C 0.87965 0.89936 0.35819
 C1037 C 0.89443 0.88497 0.33870
 C1038 C 0.87766 0.86860 0.32172
 C1039 C 0.89729 0.91351 0.37818
 C1040 C 0.92311 0.89973 0.38823
 C1041 C 0.93745 0.91104 0.40916
 C1042 C 0.92616 0.93626 0.42043
 C1043 C 0.90117 0.95073 0.40980
 C1044 C 0.88689 0.93948 0.38886
 H1045 H 0.84900 0.85819 0.27392
 H1046 H 0.82056 0.82296 0.24928
 H1047 H 0.77640 0.79188 0.31584
 H1048 H 0.80434 0.82700 0.33986
 H1049 H 0.80653 0.88052 0.34480
 H1050 H 0.83569 0.90876 0.37457
 H1051 H 0.91899 0.88579 0.33699
 H1052 H 0.88963 0.85669 0.30749
 H1053 H 0.93144 0.87951 0.38058
 H1054 H 0.95680 0.89956 0.41692
 H1055 H 0.89226 0.97045 0.41795
 H1056 H 0.86732 0.95079 0.38128
 C1057 C 0.31399 0.33150 -0.17985
 C1058 C 0.32040 0.33148 -0.20535
 C1059 C 0.30348 0.31398 -0.22156
 C1060 C 0.27992 0.29605 -0.21258
 C1061 C 0.27337 0.29689 -0.18709
 C1062 C 0.28974 0.31456 -0.17115
 C1063 C 0.33283 0.34809 -0.16193
 C1064 C 0.33922 0.33619 -0.13844
 C1065 C 0.35551 0.35204 -0.12092
 C1066 C 0.36631 0.37996 -0.12660
 C1067 C 0.36062 0.39172 -0.15021
 C1068 C 0.34393 0.37598 -0.16769
 C1069 C 0.38414 0.39641 -0.10811
 C1070 C 0.41158 0.40972 -0.11501
 C1071 C 0.42873 0.42501 -0.09770
 C1072 C 0.41864 0.42768 -0.07316
 C1073 C 0.39121 0.41433 -0.06615
 C1074 C 0.37418 0.39861 -0.08347
 H1075 H 0.33911 0.34422 -0.21265
 H1076 H 0.30950 0.31386 -0.24096
 H1077 H 0.25664 0.28275 -0.17881
 H1078 H 0.28370 0.31442 -0.15175
 H1079 H 0.33177 0.31444 -0.13359
 H1080 H 0.36014 0.34227 -0.10304
 H1081 H 0.36867 0.41331 -0.15497
 H1082 H 0.33919 0.38587 -0.18549
 H1083 H 0.41992 0.40801 -0.13378
 H1084 H 0.44978 0.43509 -0.10370
 H1085 H 0.38292 0.41612 -0.04737
 H1086 H 0.35300 0.38857 -0.07776
 C1087 C 1.17487 0.30154 -0.16245
 C1088 C 1.17741 0.27115 -0.16414
 C1089 C 1.19362 0.25854 -0.18368
 C1090 C 1.20714 0.27615 -0.20200
 C1091 C 1.20345 0.30655 -0.20052
 C1092 C 1.18783 0.31902 -0.18091
 C1093 C 1.15883 0.31564 -0.14169
 C1094 C 1.17289 0.33868 -0.12911
 C1095 C 1.15669 0.35492 -0.11185
 C1096 C 1.12597 0.34864 -0.10693
 C1097 C 1.11223 0.32480 -0.11878
 C1098 C 1.12863 0.30828 -0.13592
 C1099 C 1.10800 0.36847 -0.09104
 C1100 C 1.07918 0.37830 -0.09875
 C1101 C 1.06397 0.39996 -0.08554
 C1102 C 1.07724 0.41207 -0.06430
 C1103 C 1.10540 0.40131 -0.05595
 C1104 C 1.12067 0.37979 -0.06923
 H1105 H 1.16741 0.25728 -0.15009
 H1106 H 1.19569 0.23511 -0.18432
 H1107 H 1.21333 0.32102 -0.21415
 H1108 H 1.18576 0.34249 -0.18019
 H1109 H 1.19623 0.34465 -0.13322
 H1110 H 1.16780 0.37332 -0.10322
 H1111 H 1.08863 0.31936 -0.11518
 H1112 H 1.11732 0.29067 -0.14551
 H1113 H 1.06901 0.37020 -0.11563
 H1114 H 1.04222 0.40776 -0.09232
 H1115 H 1.11606 0.41009 -0.03953
 H1116 H 1.14270 0.37238 -0.06272
 C1117 C 0.68673 0.81652 0.32912
 C1118 C 0.68694 0.78588 0.32803
 C1119 C 0.70482 0.77137 0.31045
 C1120 C 0.72269 0.78722 0.29354
 C1121 C 0.72264 0.81781 0.29506
 C1122 C 0.70540 0.83213 0.31275
 C1123 C 0.66699 0.83264 0.34678
 C1124 C 0.65387 0.85939 0.33970
 C1125 C 0.63717 0.87584 0.35652
 C1126 C 0.63259 0.86572 0.38070
 C1127 C 0.64463 0.83855 0.38767
 C1128 C 0.66184 0.82222 0.37091
 C1129 C 0.61529 0.88367 0.39849
 C1130 C 0.59132 0.87147 0.41217
 C1131 C 0.57438 0.88868 0.42835
 C1132 C 0.58145 0.91828 0.43149
 C1133 C 0.60567 0.93041 0.41803
 C1134 C 0.62227 0.91330 0.40150
 H1135 H 0.67270 0.77315 0.34030
 H1136 H 0.70406 0.74785 0.30975
 H1137 H 0.73605 0.83104 0.28256
 H1138 H 0.70669 0.85563 0.31348
 H1139 H 0.65649 0.86773 0.32107
 H1140 H 0.62759 0.89644 0.35057
 H1141 H 0.64139 0.83033 0.40628
 H1142 H 0.67176 0.80187 0.37706
 H1143 H 0.58539 0.84875 0.41001
 H1144 H 0.55589 0.87873 0.43858
 H1145 H 0.61160 0.95314 0.42014
 H1146 H 0.64078 0.92314 0.39121
 C1147 C 0.82278 0.70175 -0.15986
 C1148 C 0.82105 0.73219 -0.16206
 C1149 C 0.80641 0.74505 -0.18246
 C1150 C 0.79362 0.72766 -0.20116
 C1151 C 0.79623 0.69719 -0.19902
 C1152 C 0.81032 0.68448 -0.17860
 C1153 C 0.83807 0.68744 -0.13858
 C1154 C 0.82426 0.66350 -0.12687
 C1155 C 0.84015 0.64717 -0.10925
 C1156 C 0.87032 0.65432 -0.10304
 C1157 C 0.88365 0.67913 -0.11388
 C1158 C 0.86759 0.69566 -0.13140
 C1159 C 0.88845 0.63438 -0.08706
 C1160 C 0.91821 0.62656 -0.09391
 C1161 C 0.93405 0.60510 -0.08077
 C1162 C 0.92057 0.59109 -0.06041
 C1163 C 0.89135 0.59974 -0.05286
 C1164 C 0.87540 0.62110 -0.06613
 H1165 H 0.83065 0.74598 -0.14786
 H1166 H 0.80514 0.76852 -0.18355
 H1167 H 0.78685 0.68285 -0.21290
 H1168 H 0.81180 0.66097 -0.17760
 H1169 H 0.80142 0.65686 -0.13196
 H1170 H 0.82934 0.62807 -0.10142
 H1171 H 0.90677 0.68531 -0.10926
 H1172 H 0.87877 0.71396 -0.14022
 H1173 H 0.92875 0.63611 -0.11011
 H1174 H 0.95660 0.59896 -0.08696
 H1175 H 0.88046 0.58941 -0.03716
 H1176 H 0.85261 0.62688 -0.06027
 C1177 C 0.31479 1.19098 0.32981
 C1178 C 0.30158 1.21844 0.33365
 C1179 C 0.28534 1.23235 0.31453
 C1180 C 0.28117 1.21858 0.29156
 C1181 C 0.29463 1.19101 0.28810
 C1182 C 0.31122 1.17756 0.30685
 C1183 C 0.33259 1.17579 0.34924
 C1184 C 0.36177 1.16518 0.34372
 C1185 C 0.37752 1.14783 0.36070
 C1186 C 0.36429 1.14039 0.38350
 C1187 C 0.33527 1.15143 0.38925
 C1188 C 0.31963 1.16922 0.37232
 C1189 C 0.38086 1.12093 0.40091
 C1190 C 0.36615 1.09725 0.41237
 C1191 C 0.38238 1.07832 0.42797
 C1192 C 0.41349 1.08301 0.43264
 C1193 C 0.42806 1.10678 0.42128
 C1194 C 0.41199 1.12541 0.40552
 H1195 H 0.30426 1.22927 0.35126
 H1196 H 0.27584 1.25362 0.31788
 H1197 H 0.29260 1.17940 0.27084
 H1198 H 0.32106 1.15633 0.30348
 H1199 H 0.37216 1.16990 0.32599
 H1200 H 0.39974 1.13950 0.35569
 H1201 H 0.32468 1.14622 0.40679
 H1202 H 0.29701 1.17693 0.37683
 H1203 H 0.34222 1.09313 0.40892
 H1204 H 0.37055 1.06026 0.43659
 H1205 H 0.45200 1.11102 0.42456
 H1206 H 0.42387 1.14357 0.39709
 C1207 C 1.17734 0.70274 0.16012
 C1208 C 1.17697 0.73310 0.16299
 C1209 C 1.19256 0.74611 0.18272
 C1210 C 1.20847 0.72892 0.20006
 C1211 C 1.20802 0.69845 0.19726
 C1212 C 1.19300 0.68563 0.17746
 C1213 C 1.16088 0.68826 0.13968
 C1214 C 1.17522 0.66603 0.12631
 C1215 C 1.15872 0.64923 0.10956
 C1216 C 1.12745 0.65417 0.10590
 C1217 C 1.11339 0.67731 0.11844
 C1218 C 1.13003 0.69433 0.13510
 C1219 C 1.10937 0.63367 0.09063
 C1220 C 1.08128 0.62302 0.09925
 C1221 C 1.06600 0.60100 0.08649
 C1222 C 1.07846 0.58927 0.06482
 C1223 C 1.10587 0.60074 0.05562
 C1224 C 1.12120 0.62267 0.06843
 H1225 H 1.16485 0.74672 0.14988
 H1226 H 1.19189 0.76953 0.18446
 H1227 H 1.21967 0.68427 0.21021
 H1228 H 1.19318 0.66214 0.17593
 H1229 H 1.19904 0.66106 0.12944
 H1230 H 1.17015 0.63142 0.10038
 H1231 H 1.08938 0.68176 0.11579
 H1232 H 1.11845 0.71127 0.14529
 H1233 H 1.07176 0.63081 0.11645
 H1234 H 1.04484 0.59264 0.09394
 H1235 H 1.11589 0.59227 0.03885
 H1236 H 1.14263 0.63070 0.06120
 C1237 C 0.68654 1.19032 0.66794
 C1238 C 0.70461 1.17443 0.68451
 C1239 C 0.72027 1.18841 0.70341
 C1240 C 0.71909 1.21892 0.70595
 C1241 C 0.70098 1.23493 0.68924
 C1242 C 0.68464 1.22070 0.67051
 C1243 C 0.66906 1.17457 0.64876
 C1244 C 0.63748 1.17844 0.64654
 C1245 C 0.62047 1.16084 0.63060
 C1246 C 0.63476 1.13926 0.61626
 C1247 C 0.66660 1.13626 0.61791
 C1248 C 0.68349 1.15356 0.63410
 C1249 C 0.61655 1.11971 0.59995
 C1250 C 0.62503 1.09042 0.59648
 C1251 C 0.60801 1.07221 0.58103
 C1252 C 0.58190 1.08276 0.56898
 C1253 C 0.57319 1.11184 0.57263
 C1254 C 0.59039 1.13013 0.58776
 H1255 H 0.70607 1.15096 0.68318
 H1256 H 0.73353 1.17506 0.71596
 H1257 H 0.69909 1.25831 0.69081
 H1258 H 0.67065 1.23339 0.65796
 H1259 H 0.62581 1.19422 0.65792
 H1260 H 0.59599 1.16356 0.63015
 H1261 H 0.67854 1.12047 0.60675
 H1262 H 0.70789 1.15033 0.63540
 H1263 H 0.64466 1.08140 0.60593
 H1264 H 0.61516 1.04985 0.57862
 H1265 H 0.55329 1.12068 0.56342
 H1266 H 0.58339 1.15261 0.58956
 C1267 C 0.83138 0.29436 0.16336
 C1268 C 0.82057 0.31098 0.18313
 C1269 C 0.80298 0.29832 0.20161
 C1270 C 0.79560 0.26849 0.20099
 C1271 C 0.80620 0.25180 0.18100
 C1272 C 0.82375 0.26469 0.16222
 C1273 C 0.85084 0.30853 0.14445
 C1274 C 0.84458 0.30578 0.11909
 C1275 C 0.86080 0.32241 0.10171
 C1276 C 0.88372 0.34180 0.10944
 C1277 C 0.89066 0.34348 0.13477
 C1278 C 0.87448 0.32706 0.15201
 C1279 C 0.89927 0.36170 0.09172
 C1280 C 0.93023 0.36854 0.09495
 C1281 C 0.94382 0.39062 0.08103
 C1282 C 0.92689 0.40619 0.06335
 C1283 C 0.89649 0.39820 0.05891
 C1284 C 0.88275 0.37620 0.07305
 H1285 H 0.82561 0.33402 0.18423
 H1286 H 0.79509 0.31227 0.21632
 H1287 H 0.80106 0.22884 0.17988
 H1288 H 0.83188 0.25142 0.14712
 H1289 H 0.82637 0.29172 0.11283
 H1290 H 0.85511 0.32045 0.08231
 H1291 H 0.90783 0.35845 0.14145
 H1292 H 0.87992 0.32940 0.17144
 H1293 H 0.94379 0.35734 0.10877
 H1294 H 0.96745 0.39601 0.08457
 H1295 H 0.88296 0.40984 0.04533
 H1296 H 0.85881 0.37161 0.07021
 C1297 C 0.30974 0.80733 0.66876
 C1298 C 0.28953 0.82269 0.68387
 C1299 C 0.27238 0.80841 0.70170
 C1300 C 0.27379 0.77794 0.70462
 C1301 C 0.29301 0.76218 0.68876
 C1302 C 0.31087 0.77676 0.67098
 C1303 C 0.32987 0.82388 0.65155
 C1304 C 0.33633 0.81376 0.62763
 C1305 C 0.35331 0.83093 0.61113
 C1306 C 0.36385 0.85859 0.61819
 C1307 C 0.35819 0.86826 0.64227
 C1308 C 0.34172 0.85103 0.65880
 C1309 C 0.38067 0.87759 0.60068
 C1310 C 0.37264 0.90707 0.59790
 C1311 C 0.38902 0.92528 0.58193
 C1312 C 0.41406 0.91446 0.56877
 C1313 C 0.42209 0.88499 0.57157
 C1314 C 0.40539 0.86667 0.58720
 H1315 H 0.28722 0.84608 0.68222
 H1316 H 0.25818 0.82171 0.71343
 H1317 H 0.29501 0.73880 0.69058
 H1318 H 0.32627 0.76424 0.65960
 H1319 H 0.32749 0.79305 0.62142
 H1320 H 0.35747 0.82299 0.59262
 H1321 H 0.36667 0.88918 0.64836
 H1322 H 0.33809 0.85916 0.67731
 H1323 H 0.35353 0.91595 0.60802
 H1324 H 0.38232 0.94787 0.58007
 H1325 H 0.44121 0.87600 0.56155
 H1326 H 0.41217 0.84412 0.58915
 C1327 C 0.30071 1.19442 -0.15774
 C1328 C 0.27088 1.18663 -0.16470
 C1329 C 0.25543 1.20229 -0.18320
 C1330 C 0.26962 1.22582 -0.19535
 C1331 C 0.29898 1.23403 -0.18750
 C1332 C 0.31379 1.21924 -0.16854
 C1333 C 0.31952 1.17552 -0.14126
 C1334 C 0.35092 1.17251 -0.14580
 C1335 C 0.36899 1.15471 -0.13093
 C1336 C 0.35616 1.13864 -0.11142
 C1337 C 0.32472 1.14147 -0.10681
 C1338 C 0.30662 1.15980 -0.12152
 C1339 C 0.37565 1.11873 -0.09642
 C1340 C 0.37046 1.11472 -0.07097
 C1341 C 0.38903 1.09604 -0.05707
 C1342 C 0.41338 1.08134 -0.06827
 C1343 C 0.41877 1.08547 -0.09357
 C1344 C 0.39995 1.10369 -0.10753
 H1345 H 0.26012 1.16748 -0.15693
 H1346 H 0.23321 1.19473 -0.18902
 H1347 H 0.31159 1.25104 -0.19680
 H1348 H 0.33630 1.22654 -0.16322
 H1349 H 0.36170 1.18355 -0.16119
 H1350 H 0.39314 1.15361 -0.13481
 H1351 H 0.31397 1.12916 -0.09212
 H1352 H 0.28258 1.16167 -0.11739
 H1353 H 0.35230 1.12624 -0.06170
 H1354 H 0.38444 1.09321 -0.03754
 H1355 H 0.43713 1.07407 -0.10273
 H1356 H 0.40424 1.10559 -0.12717
 C1357 C 0.81250 0.70269 0.33907
 C1358 C 0.78199 0.69682 0.33265
 C1359 C 0.76741 0.71268 0.31382
 C1360 C 0.78309 0.73451 0.30064
 C1361 C 0.81313 0.74106 0.30789
 C1362 C 0.82726 0.72598 0.32715
 C1363 C 0.82982 0.68331 0.35642
 C1364 C 0.86111 0.67828 0.35262
 C1365 C 0.87745 0.65940 0.36794
 C1366 C 0.86298 0.64420 0.38723
 C1367 C 0.83175 0.64934 0.39129
 C1368 C 0.81542 0.66875 0.37617
 C1369 C 0.88042 0.62261 0.40243
 C1370 C 0.87391 0.61809 0.42766
 C1371 C 0.89052 0.59776 0.44164
 C1372 C 0.91428 0.58184 0.43079
 C1373 C 0.92087 0.58636 0.40570
 C1374 C 0.90399 0.60621 0.39166
 H1375 H 0.76981 0.67894 0.34117
 H1376 H 0.74447 0.70657 0.30866
 H1377 H 0.82651 0.75707 0.29799
 H1378 H 0.85035 0.73195 0.33199
 H1379 H 0.87310 0.68837 0.33737
 H1380 H 0.90155 0.65666 0.36448
 H1381 H 0.81967 0.63790 0.40580
 H1382 H 0.79150 0.67222 0.37993
 H1383 H 0.85625 0.63051 0.43673
 H1384 H 0.88501 0.59471 0.46098
 H1385 H 0.93877 0.57412 0.39674
 H1386 H 0.90923 0.60832 0.37219
 C1387 C 0.70023 1.18696 0.15731
 C1388 C 0.72988 1.17858 0.16430
 C1389 C 0.74580 1.19409 0.18249
 C1390 C 0.73232 1.21815 0.19421
 C1391 C 0.70316 1.22698 0.18627
 C1392 C 0.68783 1.21220 0.16769
 C1393 C 0.68093 1.16832 0.14117
 C1394 C 0.64956 1.16565 0.14604
 C1395 C 0.63101 1.14825 0.13133
 C1396 C 0.64331 1.13240 0.11161
 C1397 C 0.67474 1.13480 0.10676
 C1398 C 0.69334 1.15264 0.12135
 C1399 C 0.62331 1.11334 0.09643
 C1400 C 0.62820 1.11027 0.07089
 C1401 C 0.60936 1.09228 0.05677
 C1402 C 0.58501 1.07728 0.06782
 C1403 C 0.57979 1.08057 0.09320
 C1404 C 0.59887 1.09819 0.10740
 H1405 H 0.74009 1.15908 0.15682
 H1406 H 0.76781 1.18603 0.18843
 H1407 H 0.69102 1.24438 0.19529
 H1408 H 0.66542 1.21984 0.16234
 H1409 H 0.63921 1.17672 0.16151
 H1410 H 0.60690 1.14738 0.13543
 H1411 H 0.68510 1.12259 0.09192
 H1412 H 0.71735 1.15424 0.11702
 H1413 H 0.64640 1.12196 0.06174
 H1414 H 0.61381 1.09015 0.03718
 H1415 H 0.56139 1.06897 0.10223
 H1416 H 0.59475 1.09949 0.12708
 C1417 C 1.18304 0.69307 0.66374
 C1418 C 1.16795 0.71544 0.67645
 C1419 C 1.18240 0.73052 0.69544
 C1420 C 1.21298 0.72484 0.70167
 C1421 C 1.22877 0.70374 0.68794
 C1422 C 1.21394 0.68791 0.66934
 C1423 C 1.16585 0.67413 0.64611
 C1424 C 1.18011 0.66124 0.62560
 C1425 C 1.16387 0.64256 0.60991
 C1426 C 1.13285 0.63652 0.61416
 C1427 C 1.11853 0.64997 0.63433
 C1428 C 1.13481 0.66810 0.65020
 C1429 C 1.11544 0.61589 0.59814
 C1430 C 1.09222 0.59843 0.60833
 C1431 C 1.07527 0.57960 0.59351
 C1432 C 1.08147 0.57715 0.56818
 C1433 C 1.10492 0.59409 0.55789
 C1434 C 1.12158 0.61344 0.57267
 H1435 H 1.14451 0.72088 0.67226
 H1436 H 1.16907 0.74614 0.70570
 H1437 H 1.25219 0.69839 0.69230
 H1438 H 1.22638 0.67073 0.66020
 H1439 H 1.20384 0.66554 0.62160
 H1440 H 1.17585 0.63245 0.59474
 H1441 H 1.09457 0.64651 0.63801
 H1442 H 1.12297 0.67689 0.66601
 H1443 H 1.08728 0.59893 0.62792
 H1444 H 1.05761 0.56652 0.60204
 H1445 H 1.11013 0.59264 0.53838
 H1446 H 1.13894 0.62673 0.56403
 C1447 C 0.69947 0.81135 -0.16281
 C1448 C 0.73000 0.81835 -0.16819
 C1449 C 0.74625 0.80261 -0.18600
 C1450 C 0.73225 0.77972 -0.19897
 C1451 C 0.70203 0.77238 -0.19284
 C1452 C 0.68629 0.78734 -0.17463
 C1453 C 0.68038 0.83004 -0.14657
 C1454 C 0.64937 0.83427 -0.15218
 C1455 C 0.63096 0.85142 -0.13720
 C1456 C 0.64308 0.86556 -0.11644
 C1457 C 0.67420 0.86169 -0.11090
 C1458 C 0.69261 0.84403 -0.12574
 C1459 C 0.62321 0.88435 -0.10091
 C1460 C 0.62752 0.88603 -0.07518
 C1461 C 0.60875 0.90370 -0.06074
 C1462 C 0.58498 0.91968 -0.07167
 C1463 C 0.58036 0.91782 -0.09725
 C1464 C 0.59943 0.90061 -0.11174
 H1465 H 0.74086 0.83688 -0.15960
 H1466 H 0.76915 0.80950 -0.19055
 H1467 H 0.68969 0.75580 -0.20281
 H1468 H 0.66317 0.78068 -0.17055
 H1469 H 0.63918 0.82458 -0.16841
 H1470 H 0.60707 0.85338 -0.14190
 H1471 H 0.68448 0.87257 -0.09526
 H1472 H 0.71633 0.84119 -0.12078
 H1473 H 0.64519 0.87347 -0.06610
 H1474 H 0.61273 0.90474 -0.04100
 H1475 H 0.56245 0.93024 -0.10618
 H1476 H 0.59579 0.90048 -0.13153
 C1477 C 1.18732 0.30222 0.33400
 C1478 C 1.17401 0.27759 0.32311
 C1479 C 1.18888 0.26257 0.30431
 C1480 C 1.21829 0.27066 0.29650
 C1481 C 1.23226 0.29450 0.30824
 C1482 C 1.21699 0.31008 0.32669
 C1483 C 1.16934 0.32066 0.35141
 C1484 C 1.18345 0.33599 0.37078
 C1485 C 1.16642 0.35421 0.38623
 C1486 C 1.13476 0.35740 0.38289
 C1487 C 1.12064 0.34158 0.36386
 C1488 C 1.13766 0.32379 0.34824
 C1489 C 1.11650 0.37753 0.39866
 C1490 C 1.09155 0.39284 0.38861
 C1491 C 1.07419 0.41154 0.40321
 C1492 C 1.08157 0.41588 0.42817
 C1493 C 1.10653 0.40086 0.43832
 C1494 C 1.12369 0.38175 0.42378
 H1495 H 1.15151 0.27034 0.32850
 H1496 H 1.17644 0.24539 0.29520
 H1497 H 1.25448 0.30207 0.30240
 H1498 H 1.22792 0.32915 0.33432
 H1499 H 1.20770 0.33396 0.37403
 H1500 H 1.17823 0.36623 0.40049
 H1501 H 1.09629 0.34292 0.36091
 H1502 H 1.12587 0.31297 0.33330
 H1503 H 1.08566 0.39083 0.36926
 H1504 H 1.05528 0.42307 0.39479
 H1505 H 1.11268 0.40374 0.45755
 H1506 H 1.14239 0.37008 0.43233
 C1507 C 0.29590 0.81264 0.15734
 C1508 C 0.26556 0.81851 0.16376
 C1509 C 0.25158 0.80320 0.18312
 C1510 C 0.26790 0.78211 0.19670
 C1511 C 0.29837 0.77652 0.19003
 C1512 C 0.31194 0.79114 0.17032
 C1513 C 0.31217 0.83062 0.13893
 C1514 C 0.32817 0.81747 0.11949
 C1515 C 0.34683 0.83417 0.10402
 C1516 C 0.35031 0.86411 0.10818
 C1517 C 0.33379 0.87735 0.12727
 C1518 C 0.31461 0.86077 0.14237
 C1519 C 0.37206 0.88135 0.09334
 C1520 C 0.39522 0.89721 0.10509
 C1521 C 0.41556 0.91401 0.09121
 C1522 C 0.41260 0.91573 0.06540
 C1523 C 0.38961 0.89962 0.05363
 C1524 C 0.36971 0.88226 0.06748
 H1525 H 0.25293 0.83532 0.15410
 H1526 H 0.22846 0.80885 0.18805
 H1527 H 0.31228 0.76140 0.20048
 H1528 H 0.33559 0.78672 0.16602
 H1529 H 0.32671 0.79419 0.11667
 H1530 H 0.35945 0.82358 0.08942
 H1531 H 0.33610 0.90045 0.13067
 H1532 H 0.30276 0.87125 0.15746
 H1533 H 0.39754 0.89657 0.12502
 H1534 H 0.43298 0.92635 0.10073
 H1535 H 0.38690 0.90060 0.03374
 H1536 H 0.35200 0.87014 0.05810
 C1537 C 0.80376 0.30452 0.66026
 C1538 C 0.77333 0.30934 0.66709
 C1539 C 0.76022 0.29355 0.68659
 C1540 C 0.77747 0.27299 0.70002
 C1541 C 0.80788 0.26809 0.69274
 C1542 C 0.82062 0.28324 0.67287
 C1543 C 0.81904 0.32335 0.64174
 C1544 C 0.83540 0.31115 0.62203
 C1545 C 0.85237 0.32893 0.60607
 C1546 C 0.85389 0.35908 0.60999
 C1547 C 0.83717 0.37131 0.62946
 C1548 C 0.81962 0.35364 0.64503
 C1549 C 0.87396 0.37766 0.59461
 C1550 C 0.89694 0.39429 0.60580
 C1551 C 0.91588 0.41211 0.59151
 C1552 C 0.91172 0.41419 0.56580
 C1553 C 0.88872 0.39751 0.55458
 C1554 C 0.87025 0.37908 0.56885
 H1555 H 0.75995 0.32582 0.65767
 H1556 H 0.73703 0.29851 0.69182
 H1557 H 0.82240 0.25328 0.70295
 H1558 H 0.84429 0.27948 0.66821
 H1559 H 0.83536 0.28782 0.61924
 H1560 H 0.86520 0.31908 0.59121
 H1561 H 0.83800 0.39452 0.63277
 H1562 H 0.80749 0.36347 0.66027
 H1563 H 0.90029 0.39336 0.62563
 H1564 H 0.93332 0.42482 0.60065
 H1565 H 0.88507 0.39871 0.53480
 H1566 H 0.85264 0.36642 0.55987
 C1567 C 1.17553 1.16395 0.69232
 C1568 C 1.20725 1.16111 0.69454
 C1569 C 1.22377 1.18027 0.70940
 C1570 C 1.20895 1.20299 0.72192
 C1571 C 1.17686 1.20397 0.72136
 C1572 C 1.16043 1.18492 0.70649
 C1573 C 1.15837 1.14658 0.67407
 C1574 C 1.13727 1.16044 0.65846
 C1575 C 1.12166 1.14472 0.64052
 C1576 C 1.12659 1.11469 0.63786
 C1577 C 1.14762 1.10074 0.65360
 C1578 C 1.16348 1.11660 0.67149
 C1579 C 1.11041 1.09844 0.61817
 C1580 C 1.12552 1.07695 0.60441
 C1581 C 1.11094 1.06345 0.58455
 C1582 C 1.08113 1.07140 0.57796
 C1583 C 1.06569 1.09217 0.59213
 C1584 C 1.08010 1.10541 0.61212
 H1585 H 1.21939 1.14481 0.68405
 H1586 H 1.24814 1.17745 0.71064
 H1587 H 1.16434 1.22032 0.73146
 H1588 H 1.13587 1.18701 0.70559
 H1589 H 1.13341 1.18367 0.65973
 H1590 H 1.10624 1.15629 0.62831
 H1591 H 1.15168 1.07757 0.65217
 H1592 H 1.17956 1.10543 0.68341
 H1593 H 1.14896 1.07129 0.60843
 H1594 H 1.12331 1.04744 0.57389
 H1595 H 1.04253 1.09839 0.58763
 H1596 H 1.06758 1.12136 0.62270
 C1597 C 0.68786 0.67274 0.18748
 C1598 C 0.67283 0.69512 0.20028
 C1599 C 0.68887 0.71341 0.21621
 C1600 C 0.72065 0.71068 0.21884
 C1601 C 0.73503 0.68651 0.20811
 C1602 C 0.71891 0.66793 0.19244
 C1603 C 0.67148 0.65537 0.16841
 C1604 C 0.68656 0.64593 0.14693
 C1605 C 0.67088 0.63059 0.12858
 C1606 C 0.63962 0.62462 0.13108
 C1607 C 0.62456 0.63431 0.15247
 C1608 C 0.64031 0.64913 0.17097
 C1609 C 0.62269 0.60801 0.11182
 C1610 C 0.59885 0.58932 0.11880
 C1611 C 0.58194 0.57453 0.10107
 C1612 C 0.58878 0.57737 0.07584
 C1613 C 0.61310 0.59529 0.06864
 C1614 C 0.62975 0.61072 0.08647
 H1615 H 0.64893 0.69958 0.19711
 H1616 H 0.67663 0.73106 0.22489
 H1617 H 0.75903 0.68239 0.21111
 H1618 H 0.73096 0.65008 0.18388
 H1619 H 0.71042 0.65079 0.14403
 H1620 H 0.68338 0.62322 0.11256
 H1621 H 0.60038 0.63073 0.15493
 H1622 H 0.62792 0.65564 0.18732
 H1623 H 0.59328 0.58582 0.13807
 H1624 H 0.56365 0.56044 0.10724
 H1625 H 0.61880 0.59779 0.04927
 H1626 H 0.64775 0.62512 0.08034
 C1627 C 1.16591 0.83633 0.30811
 C1628 C 1.18637 0.81707 0.31946
 C1629 C 1.20459 0.79894 0.30528
 C1630 C 1.20265 0.79929 0.27930
 C1631 C 1.18262 0.81926 0.26794
 C1632 C 1.16452 0.83772 0.28224
 C1633 C 1.14569 0.85418 0.32362
 C1634 C 1.14349 0.88438 0.32008
 C1635 C 1.12662 0.90132 0.33657
 C1636 C 1.11142 0.88816 0.35656
 C1637 C 1.11276 0.85780 0.35941
 C1638 C 1.12976 0.84101 0.34315
 C1639 C 1.09586 0.90578 0.37554
 C1640 C 1.06802 0.89635 0.38549
 C1641 C 1.05560 0.91019 0.40600
 C1642 C 1.07078 0.93375 0.41694
 C1643 C 1.09772 0.94428 0.40618
 C1644 C 1.11019 0.93038 0.38562
 H1645 H 1.18819 0.81596 0.33942
 H1646 H 1.21978 0.78425 0.31491
 H1647 H 1.18056 0.82049 0.24803
 H1648 H 1.14886 0.85252 0.27314
 H1649 H 1.15570 0.89494 0.30514
 H1650 H 1.12578 0.92468 0.33393
 H1651 H 1.10161 0.84711 0.37482
 H1652 H 1.13096 0.81770 0.34608
 H1653 H 1.05629 0.87772 0.37782
 H1654 H 1.03455 0.90190 0.41372
 H1655 H 1.10974 0.96254 0.41420
 H1656 H 1.13180 0.93795 0.37840
 C1657 C 0.68273 0.33100 -0.18574
 C1658 C 0.71347 0.33645 -0.19138
 C1659 C 0.72951 0.31805 -0.20719
 C1660 C 0.71539 0.29344 -0.21748
 C1661 C 0.68380 0.28996 -0.21415
 C1662 C 0.66785 0.30807 -0.19800
 C1663 C 0.66662 0.34850 -0.16661
 C1664 C 0.63522 0.35407 -0.16857
 C1665 C 0.61998 0.36957 -0.15021
 C1666 C 0.63575 0.38059 -0.12958
 C1667 C 0.66717 0.37509 -0.12762
 C1668 C 0.68234 0.35909 -0.14578
 C1669 C 0.61946 0.39818 -0.11062
 C1670 C 0.62775 0.39716 -0.08540
 C1671 C 0.61192 0.41371 -0.06785
 C1672 C 0.58721 0.43111 -0.07515
 C1673 C 0.57909 0.43224 -0.10025
 C1674 C 0.59517 0.41630 -0.11774
 H1675 H 0.72536 0.35473 -0.18331
 H1676 H 0.75329 0.32269 -0.21065
 H1677 H 0.67177 0.27193 -0.22248
 H1678 H 0.64419 0.30312 -0.19432
 H1679 H 0.62231 0.34664 -0.18438
 H1680 H 0.59567 0.37274 -0.15221
 H1681 H 0.68021 0.38343 -0.11221
 H1682 H 0.70639 0.35475 -0.14329
 H1683 H 0.64611 0.38324 -0.07913
 H1684 H 0.61857 0.41247 -0.04859
 H1685 H 0.56044 0.44584 -0.10651
 H1686 H 0.58863 0.41851 -0.13696
 C1687 C 0.82923 1.15968 0.30904
 C1688 C 0.80697 1.17754 0.31955
 C1689 C 0.78891 1.19522 0.30469
 C1690 C 0.79276 1.19574 0.27886
 C1691 C 0.81418 1.17668 0.26828
 C1692 C 0.83220 1.15870 0.28327
 C1693 C 0.85024 1.14359 0.32537
 C1694 C 0.85494 1.11359 0.32257
 C1695 C 0.87270 1.09831 0.33977
 C1696 C 0.88630 1.11299 0.35969
 C1697 C 0.88251 1.14320 0.36177
 C1698 C 0.86462 1.15833 0.34481
 C1699 C 0.90256 1.09698 0.37943
 C1700 C 0.92939 1.10845 0.38966
 C1701 C 0.94229 1.09587 0.41070
 C1702 C 0.92856 1.07159 0.42189
 C1703 C 0.90260 1.05920 0.41099
 C1704 C 0.88969 1.07180 0.38990
 H1705 H 0.80403 1.17831 0.33942
 H1706 H 0.77286 1.20942 0.31376
 H1707 H 0.81776 1.17618 0.24850
 H1708 H 0.84926 1.14495 0.27483
 H1709 H 0.84399 1.10189 0.30767
 H1710 H 0.87546 1.07503 0.33774
 H1711 H 0.89240 1.15500 0.37710
 H1712 H 0.86150 1.18154 0.34712
 H1713 H 0.93995 1.12764 0.38172
 H1714 H 0.96257 1.10560 0.41855
 H1715 H 0.89174 1.04032 0.41918
 H1716 H 0.86885 1.06269 0.38249
 C1717 C 0.30775 0.66632 -0.18263
 C1718 C 0.31071 0.66409 -0.20849
 C1719 C 0.29560 0.68376 -0.22426
 C1720 C 0.27726 0.70602 -0.21448
 C1721 C 0.27443 0.70778 -0.18859
 C1722 C 0.28956 0.68858 -0.17303
 C1723 C 0.32418 0.64664 -0.16524
 C1724 C 0.31072 0.63868 -0.14260
 C1725 C 0.32754 0.62427 -0.12440
 C1726 C 0.35812 0.61671 -0.12853
 C1727 C 0.37095 0.62289 -0.15185
 C1728 C 0.35426 0.63788 -0.16992
 C1729 C 0.37676 0.60341 -0.10836
 C1730 C 0.40808 0.60959 -0.10648
 C1731 C 0.42580 0.59669 -0.08800
 C1732 C 0.41255 0.57791 -0.07059
 C1733 C 0.38116 0.57247 -0.07171
 C1734 C 0.36348 0.58483 -0.09057
 H1735 H 0.32449 0.64706 -0.21652
 H1736 H 0.29824 0.68144 -0.24404
 H1737 H 0.26073 0.72433 -0.17992
 H1738 H 0.28737 0.69166 -0.15328
 H1739 H 0.28731 0.64437 -0.13860
 H1740 H 0.31677 0.62010 -0.10676
 H1741 H 0.39412 0.61663 -0.15605
 H1742 H 0.36535 0.64363 -0.18712
 H1743 H 0.41903 0.62443 -0.11927
 H1744 H 0.45002 0.60120 -0.08745
 H1745 H 0.37055 0.55763 -0.05870
 H1746 H 0.33959 0.57914 -0.09154
 C1747 C 0.83869 0.83464 0.69146
 C1748 C 0.83943 0.83584 0.71734
 C1749 C 0.82036 0.81783 0.73134
 C1750 C 0.80003 0.79851 0.71967
 C1751 C 0.79867 0.79847 0.69368
 C1752 C 0.81782 0.81618 0.67979
 C1753 C 0.85996 0.85192 0.67630
 C1754 C 0.87565 0.83850 0.65689
 C1755 C 0.89335 0.85497 0.64074
 C1756 C 0.89566 0.88523 0.64365
 C1757 C 0.88095 0.89855 0.66370
 C1758 C 0.86334 0.88195 0.68003
 C1759 C 0.91112 0.90274 0.62443
 C1760 C 0.89704 0.92779 0.61477
 C1761 C 0.90902 0.94166 0.59393
 C1762 C 0.93522 0.93067 0.58245
 C1763 C 0.95024 0.90662 0.59291
 C1764 C 0.93829 0.89278 0.61373
 H1765 H 0.85536 0.85004 0.72669
 H1766 H 0.82204 0.81877 0.75128
 H1767 H 0.78335 0.78421 0.68383
 H1768 H 0.81649 0.81529 0.65981
 H1769 H 0.87360 0.81529 0.65386
 H1770 H 0.90411 0.84416 0.62530
 H1771 H 0.88257 0.92183 0.66640
 H1772 H 0.85137 0.89269 0.69492
 H1773 H 0.87591 0.93575 0.62252
 H1774 H 0.89716 0.96032 0.58630
 H1775 H 0.97074 0.89797 0.58460
 H1776 H 0.94981 0.87376 0.62106
 C1777 C 0.31583 0.32621 0.17980
 C1778 C 0.32128 0.32628 0.20546
 C1779 C 0.30374 0.30884 0.22136
 C1780 C 0.28055 0.29088 0.21190
 C1781 C 0.27501 0.29158 0.18624
 C1782 C 0.29196 0.30921 0.17059
 C1783 C 0.33524 0.34286 0.16225
 C1784 C 0.34237 0.33101 0.13900
 C1785 C 0.35893 0.34704 0.12169
 C1786 C 0.36928 0.37503 0.12739
 C1787 C 0.36301 0.38669 0.15082
 C1788 C 0.34600 0.37080 0.16807
 C1789 C 0.38705 0.39179 0.10903
 C1790 C 0.41453 0.40491 0.11600
 C1791 C 0.43155 0.42058 0.09877
 C1792 C 0.42120 0.42386 0.07429
 C1793 C 0.39372 0.41067 0.06724
 C1794 C 0.37687 0.39453 0.08446
 H1795 H 0.33968 0.33907 0.21315
 H1796 H 0.30899 0.30882 0.24092
 H1797 H 0.25859 0.27742 0.17764
 H1798 H 0.28664 0.30901 0.15104
 H1799 H 0.33522 0.30922 0.13415
 H1800 H 0.36402 0.33740 0.10394
 H1801 H 0.37076 0.40833 0.15557
 H1802 H 0.34070 0.38062 0.18570
 H1803 H 0.42298 0.40280 0.13475
 H1804 H 0.45264 0.43056 0.10477
 H1805 H 0.38524 0.41293 0.04852
 H1806 H 0.35564 0.38461 0.07873
   
