data_POSCAR
  _audit_creation_date              2014-09-24
  _audit_creation_method            'ToBaCCo'
  _symmetry_space_group_name_H-M    'P1'
  _symmetry_Int_Tables_number       1
  _symmetry_cell_setting            triclinic
  loop_
  _symmetry_equiv_pos_as_xyz
 x,y,z
_cell_length_a 55.8997
_cell_length_b 55.6084
_cell_length_c 55.8027
_cell_angle_alpha 90.035300
_cell_angle_beta 89.977400
_cell_angle_gamma 90.058700
loop_
  _atom_site_label
  _atom_site_type_symbol
  _atom_site_fract_x
  _atom_site_fract_y
  _atom_site_fract_z
C1 C 0.31079 0.44416 0.91140
 C2 C 0.33123 0.45358 0.92267
 C3 C 0.34103 0.44276 0.94332
 C4 C 0.32992 0.42174 0.95216
 C5 C 0.30928 0.41219 0.94138
 C6 C 0.30001 0.42346 0.92087
 H7 H 0.33958 0.46923 0.91485
 H8 H 0.33694 0.41303 0.96794
 H9 H 0.28425 0.41612 0.91232
 C10 C 0.44673 0.83317 0.44528
 C11 C 0.45484 0.82494 0.42272
 C12 C 0.44348 0.80579 0.41076
 C13 C 0.42324 0.79511 0.42134
 C14 C 0.41432 0.80330 0.44340
 C15 C 0.42682 0.82145 0.45558
 H16 H 0.46905 0.83426 0.41353
 H17 H 0.41405 0.78068 0.41219
 H18 H 0.42099 0.82629 0.47339
 C19 C 0.94604 0.91640 0.80679
 C20 C 0.92519 0.92612 0.79665
 C21 C 0.91405 0.94649 0.80663
 C22 C 0.92400 0.95690 0.82732
 C23 C 0.94510 0.94782 0.83788
 C24 C 0.95583 0.92750 0.82721
 H25 H 0.91749 0.91779 0.78095
 H26 H 0.91541 0.97248 0.83495
 H27 H 0.97163 0.91963 0.83501
 C28 C 0.44420 -0.08690 0.30377
 C29 C 0.45489 -0.07601 0.32381
 C30 C 0.44298 -0.05840 0.33737
 C31 C 0.42066 -0.05025 0.32907
 C32 C 0.41009 -0.05975 0.30824
 C33 C 0.42188 -0.07837 0.29589
 H34 H 0.47281 -0.08135 0.32867
 H35 H 0.41093 -0.03688 0.33894
 H36 H 0.41364 -0.08630 0.28027
 C37 C 0.80382 0.30219 0.33252
 C38 C 0.79419 0.32377 0.32355
 C39 C 0.80491 0.33602 0.30435
 C40 C 0.82570 0.32653 0.29394
 C41 C 0.83594 0.30518 0.30261
 C42 C 0.82430 0.29275 0.32120
 H43 H 0.77853 0.33148 0.33182
 H44 H 0.83432 0.33625 0.27960
 H45 H 0.83201 0.27614 0.32733
 C46 C -0.19415 0.83731 0.80576
 C47 C -0.20460 0.82528 0.82546
 C48 C -0.19475 0.80399 0.83529
 C49 C -0.17383 0.79485 0.82431
 C50 C -0.16290 0.80647 0.80482
 C51 C -0.17367 0.82704 0.79523
 H52 H -0.22055 0.83263 0.83320
 H53 H -0.16499 0.77914 0.83110
 H54 H -0.16516 0.83577 0.78021
 C55 C 0.94233 0.33496 0.44579
 C56 C 0.92305 0.32277 0.45659
 C57 C 0.91553 0.30011 0.44822
 C58 C 0.92765 0.28984 0.42866
 C59 C 0.94602 0.30222 0.41676
 C60 C 0.95373 0.32440 0.42590
 H61 H 0.91330 0.33149 0.47088
 H62 H 0.92248 0.27220 0.42230
 H63 H 0.96812 0.33374 0.41699
 C64 C 0.44178 0.44260 0.83940
 C65 C 0.42190 0.45335 0.82811
 C66 C 0.41297 0.44448 0.80635
 C67 C 0.42377 0.42421 0.79604
 C68 C 0.44224 0.41161 0.80765
 C69 C 0.45128 0.42136 0.82916
 H70 H 0.41378 0.46920 0.83578
 H71 H 0.41786 0.41872 0.77847
 H72 H 0.46521 0.41204 0.83848
 C73 C 0.80050 0.91751 0.94670
 C74 C 0.79158 0.92811 0.92568
 C75 C 0.80310 0.94783 0.91507
 C76 C 0.82401 0.95688 0.92577
 C77 C 0.83336 0.94694 0.94700
 C78 C 0.82109 0.92735 0.95739
 H79 H 0.77578 0.92065 0.91736
 H80 H 0.83309 0.97170 0.91723
 H81 H 0.82770 0.91915 0.97351
 C82 C 0.30441 0.83701 0.30420
 C83 C 0.29464 0.82537 0.32449
 C84 C 0.30540 0.80498 0.33467
 C85 C 0.32592 0.79542 0.32378
 C86 C 0.33608 0.80634 0.30352
 C87 C 0.32481 0.82657 0.29355
 H88 H 0.27857 0.83202 0.33277
 H89 H 0.33445 0.77978 0.33143
 H90 H 0.33277 0.83456 0.27800
 C91 C 0.80502 0.41246 0.44360
 C92 C 0.79570 0.42369 0.42307
 C93 C 0.80606 0.44475 0.41382
 C94 C 0.82605 0.45469 0.42550
 C95 C 0.83592 0.44395 0.44618
 C96 C 0.82529 0.42252 0.45467
 H97 H 0.78027 0.41597 0.41427
 H98 H 0.83405 0.47065 0.41794
 H99 H 0.83243 0.41386 0.47040
 C100 C 0.94578 0.83534 -0.05139
 C101 C 0.92613 0.82299 -0.04116
 C102 C 0.91644 0.80220 -0.05183
 C103 C 0.92694 0.79357 -0.07304
 C104 C 0.94540 0.80618 -0.08453
 C105 C 0.95484 0.82681 -0.07345
 H106 H 0.91849 0.82944 -0.02465
 H107 H 0.92058 0.77695 -0.08081
 H108 H 0.96837 0.83688 -0.08296
 C109 C 0.30811 0.33859 0.80615
 C110 C 0.32786 0.32732 0.79515
 C111 C 0.33579 0.30448 0.80257
 C112 C 0.32377 0.29323 0.82166
 C113 C 0.30486 0.30458 0.83375
 C114 C 0.29699 0.32712 0.82566
 H115 H 0.33743 0.33679 0.78121
 H116 H 0.32904 0.27537 0.82722
 H117 H 0.28227 0.33560 0.83472
 C118 C 0.16163 0.55468 0.55586
 C119 C 0.17370 0.57332 0.54386
 C120 C 0.19416 0.58412 0.55381
 C121 C 0.20392 0.57434 0.57483
 C122 C 0.19252 0.55536 0.58695
 C123 C 0.17138 0.54570 0.57728
 H124 H 0.16681 0.57984 0.52698
 H125 H 0.21995 0.58221 0.58230
 H126 H 0.16177 0.53203 0.58719
 C127 C 0.58436 0.69713 0.05306
 C128 C 0.57071 0.70988 0.07018
 C129 C 0.54871 0.70099 0.07869
 C130 C 0.53954 0.67980 0.06846
 C131 C 0.55317 0.66600 0.05250
 C132 C 0.57550 0.67480 0.04500
 H133 H 0.57740 0.72636 0.07758
 H134 H 0.52192 0.67359 0.07352
 H135 H 0.58636 0.66360 0.03355
 C136 C 0.69506 0.19401 0.66225
 C137 C 0.70668 0.17506 0.67428
 C138 C 0.69716 0.16493 0.69542
 C139 C 0.67622 0.17537 0.70497
 C140 C 0.66373 0.19363 0.69289
 C141 C 0.67332 0.20269 0.67143
 H142 H 0.72283 0.16792 0.66650
 H143 H 0.66979 0.16951 0.72225
 H144 H 0.66346 0.21609 0.66150
 C145 C 1.08352 0.05270 0.19812
 C146 C 1.07390 0.07393 0.20778
 C147 C 1.05492 0.08596 0.19639
 C148 C 1.04543 0.07622 0.17519
 C149 C 1.05487 0.05518 0.16473
 C150 C 1.07341 0.04324 0.17703
 H151 H 1.08154 0.08144 0.22388
 H152 H 1.03064 0.08542 0.16686
 H153 H 1.08099 0.02704 0.16957
 C154 C 0.05807 0.16258 1.05947
 C155 C 0.07844 0.17284 1.04877
 C156 C 0.08847 0.19417 1.05760
 C157 C 0.07779 0.20541 1.07744
 C158 C 0.05751 0.19562 1.08892
 C159 C 0.04800 0.17390 1.07971
 H160 H 0.08649 0.16420 1.03341
 H161 H 0.08488 0.22254 1.08322
 H162 H 0.03334 0.16508 1.08873
 C163 C 0.16582 0.69767 0.69699
 C164 C 0.17913 0.67989 0.70879
 C165 C 0.19839 0.66818 0.69753
 C166 C 0.20505 0.67566 0.67435
 C167 C 0.19243 0.69399 0.66231
 C168 C 0.17266 0.70466 0.67379
 H169 H 0.17431 0.67519 0.72697
 H170 H 0.21993 0.66709 0.66552
 H171 H 0.16209 0.71792 0.66436
 C172 C 1.19692 0.16705 0.19493
 C173 C 1.20622 0.17653 0.17355
 C174 C 1.19555 0.19654 0.16239
 C175 C 1.17483 0.20655 0.17264
 C176 C 1.16551 0.19765 0.19432
 C177 C 1.17755 0.17875 0.20585
 H178 H 1.22153 0.16801 0.16529
 H179 H 1.16541 0.22067 0.16325
 H180 H 1.17147 0.17268 0.22320
 C181 C 0.66270 1.05222 0.55553
 C182 C 0.67379 1.04287 0.57622
 C183 C 0.69424 1.05364 0.58607
 C184 C 0.70337 1.07457 0.57540
 C185 C 0.69248 1.08515 0.55524
 C186 C 0.67242 1.07331 0.54524
 H187 H 0.66679 1.02681 0.58453
 H188 H 0.71877 1.08298 0.58350
 H189 H 0.66402 1.08073 0.52961
 C190 C 0.55259 0.54871 0.16798
 C191 C 0.57315 0.54015 0.17955
 C192 C 0.58263 0.55186 0.19975
 C193 C 0.57053 0.57206 0.20889
 C194 C 0.54976 0.58106 0.19783
 C195 C 0.54078 0.56878 0.17763
 H196 H 0.58229 0.52465 0.17231
 H197 H 0.57774 0.58111 0.22425
 H198 H 0.52496 0.57523 0.16885
 C199 C 0.66611 0.69863 0.19689
 C200 C 0.67642 0.70946 0.17659
 C201 C 0.69622 0.69905 0.16486
 C202 C 0.70527 0.67709 0.17353
 C203 C 0.69565 0.66621 0.19413
 C204 C 0.67664 0.67764 0.20604
 H205 H 0.66881 0.72585 0.16962
 H206 H 0.71930 0.66796 0.16380
 H207 H 0.66977 0.67010 0.22250
 C208 C 0.16078 0.05654 1.05625
 C209 C 0.17178 0.07663 1.04537
 C210 C 0.19198 0.08781 1.05555
 C211 C 0.20142 0.07863 1.07698
 C212 C 0.19085 0.05879 1.08844
 C213 C 0.17073 0.04796 1.07786
 H214 H 0.16446 0.08423 1.02918
 H215 H 0.21692 0.08713 1.08485
 H216 H 0.16299 0.03248 1.08656
 C217 C 0.58413 0.19389 0.55158
 C218 C 0.57184 0.17495 0.54035
 C219 C 0.55230 0.16356 0.55146
 C220 C 0.54415 0.17244 0.57358
 C221 C 0.55519 0.19239 0.58453
 C222 C 0.57508 0.20300 0.57325
 H223 H 0.57769 0.16870 0.52296
 H224 H 0.52980 0.16325 0.58283
 H225 H 0.58399 0.21802 0.58166
 C226 C 0.08532 0.55605 0.69913
 C227 C 0.07660 0.54644 0.67740
 C228 C 0.05526 0.55478 0.66701
 C229 C 0.04250 0.57314 0.67870
 C230 C 0.05140 0.58421 0.69947
 C231 C 0.07233 0.57490 0.70996
 H232 H 0.08698 0.53314 0.66786
 H233 H 0.02572 0.57909 0.67137
 H234 H 0.07891 0.58316 0.72611
 C235 C 0.66555 0.55373 0.05314
 C236 C 0.67610 0.57475 0.04393
 C237 C 0.69472 0.58646 0.05607
 C238 C 0.70425 0.57566 0.07666
 C239 C 0.69442 0.55441 0.08624
 C240 C 0.67464 0.54391 0.07456
 H241 H 0.66972 0.58209 0.02718
 H242 H 0.71918 0.58421 0.08552
 H243 H 0.66587 0.52854 0.08247
 C244 C 0.05485 0.69806 0.58554
 C245 C 0.04403 0.67705 0.57653
 C246 C 0.05449 0.66394 0.55765
 C247 C 0.07591 0.67255 0.54752
 C248 C 0.08655 0.69393 0.55561
 C249 C 0.07536 0.70697 0.57401
 H250 H 0.02788 0.67052 0.58488
 H251 H 0.08506 0.66198 0.53408
 H252 H 0.08303 0.72386 0.57977
 C253 C 0.55419 1.05145 0.66400
 C254 C 0.57437 1.04091 0.67499
 C255 C 0.58532 1.05138 0.69518
 C256 C 0.57567 1.07263 0.70472
 C257 C 0.55577 1.08378 0.69413
 C258 C 0.54521 1.07294 0.67400
 H259 H 0.58229 1.02485 0.66760
 H260 H 0.58399 1.08069 0.72023
 H261 H 0.52969 1.08138 0.66620
 C262 C 0.44408 0.33627 0.94305
 C263 C 0.45341 0.32536 0.92223
 C264 C 0.44431 0.30352 0.91316
 C265 C 0.42526 0.29250 0.92558
 C266 C 0.41529 0.30301 0.94616
 C267 C 0.42524 0.32445 0.95501
 H268 H 0.46804 0.33378 0.91301
 H269 H 0.41748 0.27609 0.91907
 H270 H 0.41737 0.33247 0.97077
 C271 C 0.94086 0.44486 0.34027
 C272 C 0.92033 0.45423 0.32914
 C273 C 0.91086 0.44363 0.30835
 C274 C 0.92204 0.42305 0.29889
 C275 C 0.94256 0.41329 0.30966
 C276 C 0.95171 0.42429 0.33045
 H277 H 0.91177 0.46993 0.33668
 H278 H 0.91471 0.41469 0.28301
 H279 H 0.96740 0.41679 0.33895
 C280 C 0.30231 0.94600 0.41413
 C281 C 0.29109 0.92613 0.42510
 C282 C 0.30118 0.91461 0.44506
 C283 C 0.32278 0.92334 0.45449
 C284 C 0.33461 0.94336 0.44440
 C285 C 0.32404 0.95427 0.42418
 H286 H 0.27479 0.91878 0.41781
 H287 H 0.33044 0.91372 0.46928
 H288 H 0.33265 0.96957 0.41628
 O289 O 0.25090 0.56711 0.72042
 O290 O 0.29230 0.55710 0.71958
 O291 O 0.21894 0.50410 0.68855
 O292 O 0.21934 0.46430 0.69536
 O293 O 0.18887 0.53518 0.75139
 O294 O 0.19771 0.53130 0.79250
 O295 O 0.28285 0.43990 0.75200
 O296 O 0.27738 0.44641 0.71064
 O297 O 0.31615 0.50179 0.77936
 O298 O 0.30862 0.54359 0.77826
 O299 O 0.25520 0.47320 0.81432
 O300 O 0.21244 0.47386 0.80669
 O301 O 0.25719 0.44134 0.78358
 O302 O 0.21175 0.44858 0.78004
 O303 O 0.28610 0.49967 0.81162
 O304 O 0.27776 0.54533 0.80320
 O305 O 0.31409 0.47160 0.75183
 O306 O 0.30498 0.47469 0.70794
 O307 O 0.22309 0.56741 0.75021
 O308 O 0.22870 0.55791 0.79323
 O309 O 0.18731 0.50522 0.72356
 O310 O 0.19629 0.46190 0.72751
 O311 O 0.24716 0.53367 0.68752
 O312 O 0.29027 0.52943 0.69369
 Zr313 Zr 0.26419 0.53168 0.72105
 O314 O 0.28772 0.51073 0.74162
 Zr315 Zr 0.22174 0.48984 0.72338
 O316 O 0.24376 0.46662 0.74356
 Zr317 Zr 0.22396 0.53261 0.76513
 O318 O 0.24564 0.51113 0.78740
 Zr319 Zr 0.27985 0.47416 0.73645
 O320 O 0.25783 0.49504 0.71366
 Zr321 Zr 0.28166 0.51678 0.77829
 O322 O 0.26018 0.54018 0.75758
 Zr323 Zr 0.23947 0.47458 0.78016
 O324 O 0.21554 0.49605 0.76004
 O325 O 0.22833 0.52619 0.72879
 O326 O 0.27545 0.48030 0.77292
 C327 C 0.23483 0.57760 0.73315
 C328 C 0.22979 0.52169 0.67822
 C329 C 0.17793 0.52289 0.73514
 C330 C 0.27345 0.43096 0.77102
 C331 C 0.32505 0.48368 0.76816
 C332 C 0.27393 0.48356 0.82275
 H333 H 0.30438 0.51462 0.73715
 H334 H 0.24261 0.51525 0.80439
 H335 H 0.21790 0.53669 0.71905
 H336 H 0.24001 0.44963 0.73991
 H337 H 0.26884 0.45325 0.69667
 H338 H 0.22894 0.45019 0.70018
 H339 H 0.28804 0.54191 0.81726
 H340 H 0.21605 0.57036 0.79196
 H341 H 0.31613 0.48825 0.71054
 H342 H 0.28791 0.51373 0.68567
 H343 H 0.21324 0.48930 0.81547
 H344 H 0.18998 0.51531 0.79148
 H345 H 0.29268 0.56514 0.73541
 H346 H 0.31610 0.54366 0.76221
 H347 H 0.18800 0.46474 0.74293
 H348 H 0.21620 0.43570 0.76866
 O349 O 0.18531 0.03148 0.25006
 O350 O 0.19502 0.03082 0.29215
 O351 O 0.24879 0.06561 0.22096
 O352 O 0.28828 0.05836 0.22088
 O353 O 0.21773 0.00353 0.18764
 O354 O 0.22248 -0.03838 0.19490
 O355 O 0.31147 -0.00218 0.28279
 O356 O 0.30577 0.04048 0.27747
 O357 O 0.25012 -0.02912 0.31428
 O358 O 0.20889 -0.02832 0.30664
 O359 O 0.27923 -0.06197 0.25223
 O360 O 0.27782 -0.05276 0.20909
 O361 O 0.31079 -0.03146 0.25434
 O362 O 0.30352 -0.02658 0.20965
 O363 O 0.25223 -0.06069 0.28265
 O364 O 0.20673 -0.05152 0.27460
 O365 O 0.27977 -0.00100 0.31373
 O366 O 0.27814 0.04230 0.30594
 O367 O 0.18582 0.00294 0.22079
 O368 O 0.19498 -0.04011 0.22541
 O369 O 0.24647 0.03268 0.18789
 O370 O 0.29000 0.02706 0.19602
 O371 O 0.21869 0.06520 0.24847
 O372 O 0.22182 0.05742 0.29117
 Zr373 Zr 0.22047 0.03082 0.26412
 O374 O 0.24140 0.00947 0.28699
 Zr375 Zr 0.26256 0.03043 0.22199
 O376 O 0.28558 0.00917 0.24323
 Zr377 Zr 0.22029 -0.01182 0.22207
 O378 O 0.24130 -0.03494 0.24321
 Zr379 Zr 0.27792 0.01481 0.27959
 O380 O 0.25705 0.03855 0.25851
 Zr381 Zr 0.23543 -0.02705 0.27957
 O382 O 0.21226 -0.00567 0.25855
 Zr383 Zr 0.27759 -0.02733 0.23733
 O384 O 0.25658 -0.00607 0.21405
 O385 O 0.22642 0.02450 0.22810
 O386 O 0.27174 -0.02154 0.27366
 C387 C 0.17537 0.01941 0.23304
 C388 C 0.23101 0.07541 0.23186
 C389 C 0.22906 0.02122 0.17797
 C390 C 0.32058 -0.02049 0.27204
 C391 C 0.26769 -0.01776 0.32402
 C392 C 0.26866 -0.07121 0.27047
 H393 H 0.23742 0.01338 0.30379
 H394 H 0.23720 -0.05187 0.23955
 H395 H 0.21596 0.03481 0.21820
 H396 H 0.30252 0.01291 0.23977
 H397 H 0.29886 0.05498 0.26986
 H398 H 0.30255 0.05274 0.22971
 H399 H 0.21023 -0.06635 0.28379
 H400 H 0.18318 -0.03874 0.21220
 H401 H 0.26300 0.04130 0.31503
 H402 H 0.23756 0.06546 0.28962
 H403 H 0.26303 -0.06245 0.21043
 H404 H 0.23808 -0.03624 0.18678
 H405 H 0.18664 0.01514 0.29133
 H406 H 0.20808 -0.01220 0.31407
 H407 H 0.28663 0.01226 0.18676
 H408 H 0.31542 -0.01402 0.21361
 O409 O 0.56115 0.71760 0.24430
 O410 O 0.55183 0.71914 0.28711
 O411 O 0.49842 0.68660 0.21494
 O412 O 0.45917 0.69422 0.21454
 O413 O 0.52953 0.74971 0.18207
 O414 O 0.52826 0.79014 0.19073
 O415 O 0.43560 0.75270 0.27641
 O416 O 0.44194 0.71120 0.27305
 O417 O 0.49709 0.78163 0.30897
 O418 O 0.53728 0.77552 0.30353
 O419 O 0.46973 0.81431 0.24774
 O420 O 0.47062 0.80550 0.20475
 O421 O 0.43747 0.78364 0.24984
 O422 O 0.44502 0.77944 0.20472
 O423 O 0.49718 0.81265 0.27774
 O424 O 0.54077 0.80372 0.27058
 O425 O 0.46640 0.75468 0.30762
 O426 O 0.47037 0.70971 0.30080
 O427 O 0.56280 0.74749 0.21652
 O428 O 0.55393 0.79097 0.22222
 O429 O 0.49976 0.72170 0.18184
 O430 O 0.45700 0.72538 0.19124
 O431 O 0.52621 0.68520 0.24467
 O432 O 0.52496 0.69410 0.28646
 Zr433 Zr 0.52653 0.72017 0.25895
 O434 O 0.50605 0.74196 0.28194
 Zr435 Zr 0.48502 0.72194 0.21653
 O436 O 0.46226 0.74320 0.23798
 Zr437 Zr 0.52839 0.76309 0.21743
 O438 O 0.50726 0.78635 0.23845
 Zr439 Zr 0.46963 0.73711 0.27434
 O440 O 0.48996 0.71327 0.25294
 Zr441 Zr 0.51270 0.77836 0.27481
 O442 O 0.53582 0.75657 0.25393
 Zr443 Zr 0.47075 0.77966 0.23257
 O444 O 0.49186 0.75840 0.20930
 O445 O 0.52132 0.72674 0.22268
 O446 O 0.47634 0.77342 0.26877
 C447 C 0.57221 0.73008 0.22837
 C448 C 0.51427 0.67556 0.22750
 C449 C 0.51654 0.73374 0.17157
 C450 C 0.42692 0.77154 0.26639
 C451 C 0.47846 0.77144 0.31795
 C452 C 0.48088 0.82351 0.26566
 H453 H 0.50997 0.73820 0.29880
 H454 H 0.51162 0.80322 0.23486
 H455 H 0.53123 0.71627 0.21230
 H456 H 0.44534 0.73960 0.23429
 H457 H 0.44875 0.69669 0.26533
 H458 H 0.44586 0.69882 0.22528
 H459 H 0.53993 0.81511 0.28423
 H460 H 0.56663 0.78928 0.20990
 H461 H 0.48231 0.71411 0.31312
 H462 H 0.50853 0.68745 0.28622
 H463 H 0.48551 0.81503 0.20618
 H464 H 0.51181 0.79079 0.18422
 H465 H 0.56264 0.73306 0.28490
 H466 H 0.55268 0.77031 0.29651
 H467 H 0.45951 0.74084 0.18282
 H468 H 0.43247 0.76762 0.20894
 O469 O 0.06455 0.72049 0.74987
 O470 O 0.05465 0.72168 0.79281
 O471 O 0.00311 0.68950 0.71896
 O472 O -0.03669 0.69646 0.71907
 O473 O 0.03499 0.75135 0.68844
 O474 O 0.03117 0.79291 0.69634
 O475 O -0.06172 0.75449 0.78043
 O476 O -0.05506 0.71307 0.77693
 O477 O -0.00088 0.78357 0.81415
 O478 O 0.03942 0.77789 0.80930
 O479 O -0.02744 0.81656 0.75267
 O480 O -0.02599 0.80821 0.70991
 O481 O -0.05968 0.78556 0.75400
 O482 O -0.05116 0.78168 0.70895
 O483 O -0.00077 0.81479 0.78338
 O484 O 0.04312 0.80630 0.77660
 O485 O -0.03119 0.75623 0.81239
 O486 O -0.02717 0.71144 0.80502
 O487 O 0.06634 0.75071 0.72244
 O488 O 0.05722 0.79391 0.72817
 O489 O 0.00449 0.72416 0.68676
 O490 O -0.03860 0.72800 0.69522
 O491 O 0.03007 0.68785 0.74948
 O492 O 0.02780 0.69637 0.79157
 Zr493 Zr 0.02973 0.72268 0.76431
 O494 O 0.00872 0.74418 0.78707
 Zr495 Zr -0.01114 0.72448 0.72112
 O496 O -0.03436 0.74542 0.74239
 Zr497 Zr 0.03186 0.76593 0.72312
 O498 O 0.01030 0.78892 0.74392
 Zr499 Zr -0.02754 0.73912 0.77885
 O500 O -0.00670 0.71555 0.75758
 Zr501 Zr 0.01521 0.78069 0.78027
 O502 O 0.03884 0.75919 0.75967
 Zr503 Zr -0.02604 0.78198 0.73735
 O504 O -0.00444 0.76103 0.71420
 O505 O 0.02491 0.72959 0.72816
 O506 O -0.02102 0.77552 0.77361
 C507 C 0.07561 0.73299 0.73391
 C508 C 0.01893 0.67849 0.73159
 C509 C 0.02253 0.73521 0.67756
 C510 C -0.07042 0.77325 0.77027
 C511 C -0.01943 0.77309 0.82294
 C512 C -0.01682 0.82567 0.77098
 H513 H 0.01241 0.74034 0.80397
 H514 H 0.01462 0.80584 0.74053
 H515 H 0.03515 0.71921 0.71807
 H516 H -0.05120 0.74176 0.73839
 H517 H -0.04813 0.69878 0.76893
 H518 H -0.05063 0.70145 0.72877
 H519 H 0.04193 0.81765 0.79025
 H520 H 0.06964 0.79266 0.71551
 H521 H -0.01509 0.71551 0.81732
 H522 H 0.01150 0.68945 0.79077
 H523 H -0.01053 0.81683 0.71079
 H524 H 0.01543 0.79178 0.68831
 H525 H 0.06553 0.73555 0.79067
 H526 H 0.05490 0.77266 0.80248
 H527 H -0.03572 0.74334 0.68669
 H528 H -0.06372 0.76976 0.71286
 O529 O -0.06506 -0.00057 -0.02803
 O530 O -0.05592 0.04173 -0.02555
 O531 O -0.00332 -0.02951 -0.06195
 O532 O 0.03612 -0.03084 -0.05546
 O533 O -0.03291 -0.06330 0.00135
 O534 O -0.02906 -0.05515 0.04251
 O535 O 0.06226 0.03024 0.00286
 O536 O 0.05436 0.02730 -0.03841
 O537 O 0.00109 0.06362 0.03312
 O538 O -0.04064 0.05623 0.03219
 O539 O 0.03071 0.00200 0.06438
 O540 O 0.02776 -0.04157 0.05612
 O541 O 0.06157 0.00207 0.03236
 O542 O 0.05246 -0.04233 0.02946
 O543 O 0.00353 0.03235 0.06389
 O544 O -0.04193 0.02433 0.05630
 O545 O 0.03136 0.06200 0.00585
 O546 O 0.02649 0.05543 -0.03874
 O547 O -0.06509 -0.02960 0.00068
 O548 O -0.05571 -0.02403 0.04382
 O549 O -0.00419 -0.06374 -0.02764
 O550 O 0.03887 -0.05487 -0.02484
 O551 O -0.03210 -0.00058 -0.06123
 O552 O -0.02913 0.04174 -0.05229
 Zr553 Zr -0.03021 0.01387 -0.02657
 O554 O -0.00865 0.03659 -0.00558
 Zr555 Zr 0.01114 -0.02904 -0.02704
 O556 O 0.03475 -0.00799 -0.00632
 Zr557 Zr -0.03056 -0.02830 0.01565
 O558 O -0.00865 -0.00749 0.03844
 Zr559 Zr 0.02759 0.02866 -0.01166
 O560 O 0.00608 0.00768 -0.03491
 Zr561 Zr -0.01413 0.02906 0.03086
 O562 O -0.03805 0.00839 0.00985
 Zr563 Zr 0.02748 -0.01375 0.03024
 O564 O 0.00562 -0.03676 0.00944
 O565 O -0.02479 -0.02256 -0.02069
 O566 O 0.02205 0.02273 0.02465
 C567 C -0.07519 -0.01766 -0.01625
 C568 C -0.02022 -0.01728 -0.07177
 C569 C -0.02095 -0.07381 -0.01538
 C570 C 0.07190 0.01888 0.02041
 C571 C 0.01949 0.07260 0.02254
 C572 C 0.02053 0.02044 0.07375
 H573 H -0.01240 0.05354 -0.00928
 H574 H -0.01241 -0.01107 0.05539
 H575 H -0.03507 -0.03275 -0.03096
 H576 H 0.05149 -0.01185 -0.01053
 H577 H 0.04701 0.01961 -0.05263
 H578 H 0.04986 -0.02057 -0.05098
 H579 H -0.03836 0.03448 0.07047
 H580 H -0.06799 -0.03686 0.04244
 H581 H 0.01436 0.06757 -0.03430
 H582 H -0.01311 0.04099 -0.05982
 H583 H 0.01366 -0.03936 0.06660
 H584 H -0.01292 -0.06241 0.04163
 H585 H -0.06428 0.04032 -0.00997
 H586 H -0.04129 0.06391 0.01624
 H587 H 0.03649 -0.06377 -0.00966
 H588 H 0.06362 -0.03937 0.01602
 O589 O -0.03379 0.43565 0.50083
 O590 O -0.03054 0.44353 0.54419
 O591 O -0.06791 0.49882 0.47551
 O592 O -0.06149 0.53854 0.47633
 O593 O -0.00555 0.47080 0.43906
 O594 O 0.03570 0.47351 0.44657
 O595 O -0.00037 0.56160 0.53676
 O596 O -0.04241 0.55455 0.53392
 O597 O 0.03087 0.50049 0.56529
 O598 O 0.02525 0.45978 0.55890
 O599 O 0.05849 0.53213 0.50565
 O600 O 0.04962 0.53015 0.46170
 O601 O 0.02670 0.56292 0.50636
 O602 O 0.02304 0.55507 0.46236
 O603 O 0.06015 0.50192 0.53307
 O604 O 0.05216 0.45823 0.52459
 O605 O 0.00211 0.52945 0.56658
 O606 O -0.04226 0.52531 0.56104
 O607 O -0.00667 0.43714 0.47041
 O608 O 0.03702 0.44544 0.47669
 O609 O -0.03539 0.49867 0.44124
 O610 O -0.03133 0.54207 0.45116
 O611 O -0.06654 0.46855 0.50294
 O612 O -0.05674 0.47010 0.54526
 Zr613 Zr -0.03162 0.46994 0.51694
 O614 O -0.00974 0.49061 0.53972
 Zr615 Zr -0.03315 0.51336 0.47601
 O616 O -0.01182 0.53618 0.49730
 Zr617 Zr 0.00930 0.47130 0.47369
 O618 O 0.03265 0.49250 0.49450
 Zr619 Zr -0.01603 0.52732 0.53362
 O620 O -0.03999 0.50667 0.51258
 Zr621 Zr 0.02635 0.48545 0.53092
 O622 O 0.00463 0.46210 0.51009
 Zr623 Zr 0.02439 0.52902 0.48998
 O624 O 0.00295 0.50800 0.46685
 O625 O -0.02668 0.47707 0.48085
 O626 O 0.01993 0.52198 0.52621
 C627 C -0.02328 0.42658 0.48241
 C628 C -0.07733 0.48102 0.48682
 C629 C -0.02325 0.48250 0.43006
 C630 C 0.01628 0.57206 0.52474
 C631 C 0.02010 0.51818 0.57554
 C632 C 0.06907 0.52031 0.52236
 H633 H -0.01264 0.48597 0.55657
 H634 H 0.04942 0.48886 0.49018
 H635 H -0.03729 0.46729 0.47056
 H636 H -0.01606 0.55317 0.49433
 H637 H -0.05692 0.54753 0.52652
 H638 H -0.05636 0.55221 0.48645
 H639 H 0.06389 0.45879 0.53791
 H640 H 0.03518 0.43357 0.46353
 H641 H -0.03830 0.51165 0.57164
 H642 H -0.06449 0.48610 0.54500
 H643 H 0.06087 0.51662 0.46390
 H644 H 0.03523 0.49016 0.44034
 H645 H -0.01682 0.43289 0.54062
 H646 H 0.02022 0.44439 0.55156
 H647 H -0.01693 0.53937 0.44119
 H648 H 0.00926 0.56573 0.46561
 O649 O 0.56384 0.02665 0.50317
 O650 O 0.55513 0.02528 0.46019
 O651 O 0.50047 0.06119 0.52992
 O652 O 0.46124 0.05414 0.53036
 O653 O 0.52987 -0.00204 0.56505
 O654 O 0.52615 -0.04327 0.55735
 O655 O 0.43807 -0.00573 0.46813
 O656 O 0.44489 0.03621 0.47228
 O657 O 0.49844 -0.03637 0.43875
 O658 O 0.53884 -0.03093 0.44439
 O659 O 0.46914 -0.06646 0.49880
 O660 O 0.46947 -0.05732 0.54213
 O661 O 0.43720 -0.03407 0.49743
 O662 O 0.44481 -0.03104 0.54158
 O663 O 0.49856 -0.06709 0.47069
 O664 O 0.54154 -0.05822 0.47835
 O665 O 0.47105 -0.00615 0.43745
 O666 O 0.47336 0.03714 0.44491
 O667 O 0.56286 -0.00149 0.53273
 O668 O 0.55369 -0.04491 0.52690
 O669 O 0.50161 0.02746 0.56395
 O670 O 0.45837 0.02334 0.55453
 O671 O 0.53061 0.06011 0.50251
 O672 O 0.52900 0.05121 0.46022
 Zr673 Zr 0.52934 0.02531 0.48794
 O674 O 0.50865 0.00377 0.46499
 Zr675 Zr 0.48659 0.02593 0.52933
 O676 O 0.46374 0.00483 0.50776
 Zr677 Zr 0.52845 -0.01664 0.53033
 O678 O 0.50724 -0.03969 0.50924
 Zr679 Zr 0.47218 0.00991 0.47149
 O680 O 0.49285 0.03357 0.49284
 Zr681 Zr 0.51388 -0.03268 0.47290
 O682 O 0.53723 -0.01123 0.49393
 Zr683 Zr 0.47088 -0.03177 0.51406
 O684 O 0.49195 -0.01058 0.53751
 O685 O 0.52276 0.01973 0.52405
 O686 O 0.47744 -0.02658 0.47781
 C687 C 0.57345 0.01503 0.52060
 C688 C 0.51794 0.07091 0.51844
 C689 C 0.51807 0.01533 0.57463
 C690 C 0.42776 -0.02285 0.47967
 C691 C 0.48198 -0.02420 0.42814
 C692 C 0.48124 -0.07694 0.48217
 H693 H 0.51319 0.00714 0.44819
 H694 H 0.51105 -0.05657 0.51331
 H695 H 0.53280 0.03021 0.53427
 H696 H 0.44685 0.00898 0.51095
 H697 H 0.45178 0.05059 0.48017
 H698 H 0.44764 0.04927 0.52013
 H699 H 0.54121 -0.06971 0.46475
 H700 H 0.56559 -0.04345 0.54002
 H701 H 0.48830 0.03517 0.43563
 H702 H 0.51331 0.05940 0.46112
 H703 H 0.48402 -0.06736 0.54102
 H704 H 0.50983 -0.04229 0.56416
 H705 H 0.56546 0.01107 0.46273
 H706 H 0.55426 -0.02585 0.45146
 H707 H 0.46111 0.00850 0.56392
 H708 H 0.43429 -0.01704 0.53870
 O709 O 0.53526 0.49855 0.06225
 O710 O 0.53373 0.45567 0.05190
 O711 O 0.56494 0.52968 -0.00019
 O712 O 0.55684 0.53116 -0.03949
 O713 O 0.50421 0.56061 0.03405
 O714 O 0.46298 0.55326 0.03079
 O715 O 0.49832 0.46887 -0.06369
 O716 O 0.53992 0.47267 -0.05804
 O717 O 0.47081 0.43511 -0.00262
 O718 O 0.47724 0.43955 0.03765
 O719 O 0.43811 0.49678 -0.02846
 O720 O 0.44598 0.53957 -0.02658
 O721 O 0.46843 0.49645 -0.06131
 O722 O 0.47237 0.54142 -0.05171
 O723 O 0.43993 0.46604 -0.00167
 O724 O 0.44927 0.47251 0.04217
 O725 O 0.49761 0.43683 -0.03334
 O726 O 0.54217 0.44418 -0.03033
 O727 O 0.50481 0.52558 0.06500
 O728 O 0.46163 0.52081 0.05608
 O729 O 0.53094 0.56241 0.00325
 O730 O 0.52544 0.55456 -0.04030
 O731 O 0.56693 0.49952 0.02730
 O732 O 0.55833 0.45715 0.02426
 Zr733 Zr 0.53228 0.48452 0.02726
 O734 O 0.51032 0.46196 0.00647
 Zr735 Zr 0.52973 0.52827 -0.01320
 O736 O 0.50848 0.50714 -0.03629
 Zr737 Zr 0.48938 0.52595 0.03061
 O738 O 0.46604 0.50543 0.00920
 Zr739 Zr 0.51467 0.47046 -0.02989
 O740 O 0.53859 0.49160 -0.00931
 Zr741 Zr 0.47417 0.46890 0.01370
 O742 O 0.49614 0.48922 0.03712
 Zr743 Zr 0.47236 0.51232 -0.02725
 O744 O 0.49357 0.53530 -0.00573
 O745 O 0.52539 0.52085 0.02294
 O746 O 0.47864 0.47586 -0.02264
 C747 C 0.52272 0.51413 0.07378
 C748 C 0.57613 0.51719 0.01562
 C749 C 0.52027 0.57154 0.02158
 C750 C 0.48005 0.47985 -0.07232
 C751 C 0.48090 0.42634 -0.02139
 C752 C 0.42906 0.47848 -0.01772
 H753 H 0.51413 0.44496 0.00996
 H754 H 0.44929 0.50884 0.01381
 H755 H 0.53599 0.53076 0.03315
 H756 H 0.51184 0.51127 -0.05319
 H757 H 0.55431 0.48059 -0.05132
 H758 H 0.55199 0.52093 -0.05314
 H759 H 0.43787 0.45887 0.04108
 H760 H 0.46315 0.53322 0.06876
 H761 H 0.53854 0.43193 -0.01801
 H762 H 0.56515 0.45848 0.00794
 H763 H 0.43803 0.53884 -0.01076
 H764 H 0.46355 0.56115 0.01490
 H765 H 0.52003 0.45761 0.06296
 H766 H 0.48276 0.44623 0.05311
 H767 H 0.51081 0.56378 -0.03634
 H768 H 0.48415 0.53784 -0.06445
 O769 O 0.81298 0.24824 0.46772
 O770 O 0.80311 0.20537 0.46853
 O771 O 0.75048 0.27688 0.43315
 O772 O 0.71115 0.27749 0.43976
 O773 O 0.78032 0.31129 0.49562
 O774 O 0.77626 0.30405 0.53671
 O775 O 0.68644 0.21606 0.49930
 O776 O 0.69353 0.21999 0.45735
 O777 O 0.74642 0.18491 0.52959
 O778 O 0.78696 0.19034 0.52463
 O779 O 0.71782 0.24629 0.56009
 O780 O 0.71930 0.28948 0.55106
 O781 O 0.68607 0.24539 0.52771
 O782 O 0.69491 0.28976 0.52430
 O783 O 0.74572 0.21655 0.55993
 O784 O 0.78930 0.22401 0.55242
 O785 O 0.71761 0.18493 0.50075
 O786 O 0.72145 0.19164 0.45688
 O787 O 0.81315 0.27720 0.49654
 O788 O 0.80263 0.27287 0.53940
 O789 O 0.75191 0.31067 0.46632
 O790 O 0.70859 0.30207 0.47053
 O791 O 0.77976 0.24852 0.43394
 O792 O 0.77717 0.20622 0.44260
 Zr793 Zr 0.77807 0.23387 0.46860
 O794 O 0.75684 0.21120 0.48995
 Zr795 Zr 0.73631 0.27625 0.46804
 O796 O 0.71291 0.25515 0.48896
 Zr797 Zr 0.77814 0.27649 0.51055
 O798 O 0.75637 0.25569 0.53339
 Zr799 Zr 0.72056 0.21857 0.48381
 O800 O 0.74174 0.23956 0.46032
 Zr801 Zr 0.76219 0.21908 0.52625
 O802 O 0.78600 0.23975 0.50505
 Zr803 Zr 0.72012 0.26140 0.52545
 O804 O 0.74181 0.28443 0.50442
 O805 O 0.77242 0.27025 0.47429
 O806 O 0.72595 0.22492 0.52011
 C807 C 0.82340 0.26479 0.48003
 C808 C 0.76774 0.26514 0.42341
 C809 C 0.76858 0.32112 0.47835
 C810 C 0.67642 0.22767 0.51649
 C811 C 0.72874 0.17519 0.51841
 C812 C 0.72895 0.22865 0.56999
 H813 H 0.76096 0.19423 0.48664
 H814 H 0.76016 0.25958 0.55027
 H815 H 0.78290 0.28024 0.46403
 H816 H 0.69610 0.25872 0.48478
 H817 H 0.70083 0.22742 0.44297
 H818 H 0.69722 0.26769 0.44468
 H819 H 0.78836 0.21034 0.56379
 H820 H 0.81499 0.28562 0.53806
 H821 H 0.73534 0.18108 0.45994
 H822 H 0.76119 0.20698 0.43499
 H823 H 0.73408 0.28835 0.56073
 H824 H 0.76004 0.31109 0.53566
 H825 H 0.81322 0.20738 0.48293
 H826 H 0.80260 0.19742 0.52028
 H827 H 0.71154 0.31153 0.48528
 H828 H 0.68379 0.28656 0.51088
 O829 O 0.75193 0.77982 -0.06477
 O830 O 0.70988 0.77764 -0.05636
 O831 O 0.77955 0.81504 -0.00271
 O832 O 0.78157 0.80890 0.03648
 O833 O 0.81365 0.75047 -0.03134
 O834 O 0.80549 0.70951 -0.02686
 O835 O 0.71893 0.75058 0.06240
 O836 O 0.72248 0.79216 0.05430
 O837 O 0.68716 0.71956 0.00153
 O838 O 0.69500 0.71968 -0.04008
 O839 O 0.74731 0.68902 0.03324
 O840 O 0.79081 0.69665 0.03050
 O841 O 0.74836 0.72244 0.06385
 O842 O 0.79207 0.72414 0.05417
 O843 O 0.71796 0.68875 0.00507
 O844 O 0.72682 0.69548 -0.04040
 O845 O 0.68753 0.74858 0.03030
 O846 O 0.69505 0.79251 0.02613
 O847 O 0.78058 0.75082 -0.06402
 O848 O 0.77469 0.70763 -0.05372
 O849 O 0.81407 0.78002 -0.00301
 O850 O 0.80434 0.77809 0.04026
 O851 O 0.75153 0.81367 -0.03226
 O852 O 0.70935 0.80472 -0.02984
 Zr853 Zr 0.73712 0.77893 -0.03011
 O854 O 0.71414 0.75826 -0.00859
 Zr855 Zr 0.77926 0.78004 0.01190
 O856 O 0.75774 0.75987 0.03560
 Zr857 Zr 0.77882 0.73644 -0.02910
 O858 O 0.75787 0.71406 -0.00687
 Zr859 Zr 0.72138 0.76508 0.02769
 O860 O 0.74277 0.78793 0.00617
 Zr861 Zr 0.72166 0.72158 -0.01316
 O862 O 0.74250 0.74222 -0.03724
 Zr863 Zr 0.76352 0.72301 0.02929
 O864 O 0.78678 0.74329 0.00718
 O865 O 0.77329 0.77308 -0.02408
 O866 O 0.72728 0.72851 0.02312
 C867 C 0.76889 0.76770 -0.07457
 C868 C 0.76761 0.82460 -0.01996
 C869 C 0.82415 0.76727 -0.01945
 C870 C 0.73095 0.73418 0.07328
 C871 C 0.67745 0.73117 0.01891
 C872 C 0.72931 0.67929 0.02268
 H873 H 0.69737 0.76193 -0.01278
 H874 H 0.76143 0.69697 -0.01023
 H875 H 0.78358 0.78322 -0.03438
 H876 H 0.76134 0.76452 0.05232
 H877 H 0.73052 0.80624 0.04700
 H878 H 0.77034 0.80534 0.04969
 H879 H 0.71657 0.68138 -0.03678
 H880 H 0.78749 0.70879 -0.06600
 H881 H 0.68434 0.78918 0.01242
 H882 H 0.71026 0.81301 -0.01416
 H883 H 0.78862 0.68581 0.01661
 H884 H 0.81204 0.71022 -0.01040
 H885 H 0.71115 0.76174 -0.06426
 H886 H 0.68744 0.73569 -0.04124
 H887 H 0.81374 0.76320 0.03784
 H888 H 0.78960 0.73828 0.06464
 O889 O 1.06459 0.22084 0.24863
 O890 O 1.05567 0.22255 0.29128
 O891 O 1.00307 0.18874 0.21887
 O892 O 0.96319 0.19554 0.21904
 O893 O 1.03342 0.25188 0.18755
 O894 O 1.02945 0.29365 0.19653
 O895 O 0.93822 0.25356 0.28054
 O896 O 0.94505 0.21172 0.27577
 O897 O 0.99963 0.28101 0.31481
 O898 O 1.04099 0.28026 0.30765
 O899 O 0.97137 0.31553 0.25339
 O900 O 0.97370 0.30734 0.20985
 O901 O 0.93966 0.28436 0.25378
 O902 O 0.94783 0.28165 0.20940
 O903 O 0.99769 0.31332 0.28434
 O904 O 1.04323 0.30485 0.27641
 O905 O 0.96927 0.25376 0.31248
 O906 O 0.97221 0.21001 0.30437
 O907 O 1.06538 0.25070 0.22076
 O908 O 1.05669 0.29370 0.22741
 O909 O 1.00398 0.22349 0.18630
 O910 O 0.96117 0.22705 0.19478
 O911 O 1.03168 0.18826 0.24792
 O912 O 1.02851 0.19584 0.29042
 Zr913 Zr 1.02996 0.22252 0.26349
 O914 O 1.00869 0.24321 0.28663
 Zr915 Zr 0.98857 0.22375 0.22077
 O916 O 0.96532 0.24454 0.24214
 Zr917 Zr 1.03100 0.26599 0.22258
 O918 O 1.00957 0.28863 0.24401
 Zr919 Zr 0.97238 0.23791 0.27844
 O920 O 0.99357 0.21474 0.25710
 Zr921 Zr 1.01477 0.27989 0.28026
 O922 O 1.03838 0.25907 0.25903
 Zr923 Zr 0.97334 0.28125 0.23744
 O924 O 0.99474 0.26050 0.21399
 O925 O 1.02454 0.22956 0.22746
 O926 O 0.97854 0.27447 0.27367
 C927 C 1.07494 0.23293 0.23190
 C928 C 1.02017 0.17852 0.23053
 C929 C 1.02132 0.23535 0.17676
 C930 C 0.92921 0.27210 0.27022
 C931 C 0.98133 0.27003 0.32354
 C932 C 0.98157 0.32424 0.27211
 H933 H 1.01241 0.23891 0.30339
 H934 H 1.01372 0.30565 0.24089
 H935 H 1.03471 0.21944 0.21706
 H936 H 0.94848 0.24080 0.23822
 H937 H 0.95225 0.19747 0.26793
 H938 H 0.94883 0.20085 0.22794
 H939 H 1.03968 0.31910 0.28648
 H940 H 1.06859 0.29274 0.21424
 H941 H 0.98607 0.21231 0.31513
 H942 H 1.01253 0.18826 0.28918
 H943 H 0.98819 0.31733 0.21202
 H944 H 1.01385 0.29209 0.18828
 H945 H 1.06460 0.23788 0.28991
 H946 H 1.04208 0.26378 0.31418
 H947 H 0.96347 0.24278 0.18683
 H948 H 0.93635 0.26842 0.21225
 O949 O 0.74941 1.06456 0.71915
 O950 O 0.79151 1.05550 0.72105
 O951 O 0.72129 1.00077 0.68568
 O952 O 0.72167 0.96106 0.69301
 O953 O 0.68679 1.03099 0.74795
 O954 O 0.69470 1.02793 0.78939
 O955 O 0.78201 0.93791 0.75309
 O956 O 0.77787 0.94438 0.71083
 O957 O 0.81376 1.00013 0.78088
 O958 O 0.80582 1.04185 0.77932
 O959 O 0.75191 0.97103 0.81343
 O960 O 0.70871 0.97214 0.80376
 O961 O 0.75377 0.93861 0.78240
 O962 O 0.70969 0.94598 0.77853
 O963 O 0.78223 0.99825 0.81203
 O964 O 0.77388 1.04358 0.80284
 O965 O 0.81317 0.96981 0.75344
 O966 O 0.80652 0.97176 0.71017
 O967 O 0.71987 1.06416 0.74722
 O968 O 0.72486 1.05565 0.79040
 O969 O 0.68778 1.00204 0.71900
 O970 O 0.69655 0.95900 0.72360
 O971 O 0.74884 1.03095 0.68623
 O972 O 0.79123 1.02838 0.69452
 Zr973 Zr 0.76386 1.02954 0.72064
 O974 O 0.78671 1.00870 0.74210
 Zr975 Zr 0.72218 0.98694 0.72082
 O976 O 0.74325 0.96411 0.74236
 Zr977 Zr 0.72157 1.02972 0.76266
 O978 O 0.74272 1.00883 0.78599
 Zr979 Zr 0.77952 0.97197 0.73689
 O980 O 0.75860 0.99274 0.71300
 Zr981 Zr 0.77908 1.01482 0.77840
 O982 O 0.75801 1.03793 0.75689
 Zr983 Zr 0.73716 0.97223 0.77871
 O984 O 0.71401 0.99307 0.75714
 O985 O 0.72777 1.02337 0.72653
 O986 O 0.77344 0.97821 0.77312
 C987 C 0.73217 1.07456 0.73074
 C988 C 0.73256 1.01838 0.67586
 C989 C 0.67717 1.01877 0.73084
 C990 C 0.77104 0.92853 0.77105
 C991 C 0.82338 0.98213 0.77004
 C992 C 0.76992 0.98197 0.82270
 H993 H 0.80350 1.01275 0.73832
 H994 H 0.73895 1.01305 0.80279
 H995 H 0.71759 1.03351 0.71614
 H996 H 0.73981 0.94707 0.73862
 H997 H 0.77070 0.95157 0.69627
 H998 H 0.73072 0.94689 0.69867
 H999 H 0.78365 1.04049 0.81733
 H1000 H 0.71174 1.06755 0.78875
 H1001 H 0.81564 0.98694 0.71138
 H1002 H 0.79024 1.01234 0.68688
 H1003 H 0.71034 0.98671 0.81381
 H1004 H 0.68716 1.01186 0.78810
 H1005 H 0.79028 1.06401 0.73658
 H1006 H 0.81370 1.04215 0.76346
 H1007 H 0.68781 0.96155 0.73882
 H1008 H 0.71275 0.93487 0.76504
 O1009 O 0.68680 0.53327 0.25044
 O1010 O 0.69735 0.53265 0.29326
 O1011 O 0.74868 0.56465 0.21909
 O1012 O 0.78823 0.55756 0.21908
 O1013 O 0.71717 0.50164 0.18813
 O1014 O 0.72024 0.46049 0.19689
 O1015 O 0.81333 0.49923 0.28057
 O1016 O 0.80673 0.54109 0.27631
 O1017 O 0.75194 0.47158 0.31483
 O1018 O 0.71157 0.47655 0.30907
 O1019 O 0.77914 0.43778 0.25325
 O1020 O 0.77720 0.44569 0.21014
 O1021 O 0.81136 0.46877 0.25342
 O1022 O 0.80240 0.47184 0.20890
 O1023 O 0.75311 0.43992 0.28451
 O1024 O 0.70923 0.44715 0.27699
 O1025 O 0.78240 0.49877 0.31282
 O1026 O 0.77963 0.54272 0.30512
 O1027 O 0.68536 0.50332 0.22263
 O1028 O 0.69427 0.46001 0.22861
 O1029 O 0.74664 0.53004 0.18723
 O1030 O 0.78999 0.52577 0.19526
 O1031 O 0.72002 0.56544 0.24807
 O1032 O 0.72431 0.55845 0.29082
 Zr1033 Zr 0.72179 0.53137 0.26433
 O1034 O 0.74292 0.51009 0.28712
 Zr1035 Zr 0.76268 0.52956 0.22130
 O1036 O 0.78593 0.50862 0.24245
 Zr1037 Zr 0.71972 0.48786 0.22330
 O1038 O 0.74126 0.46504 0.24426
 Zr1039 Zr 0.77924 0.51507 0.27890
 O1040 O 0.75822 0.53860 0.25770
 Zr1041 Zr 0.73644 0.47354 0.28060
 O1042 O 0.71275 0.49481 0.25985
 Zr1043 Zr 0.77750 0.47207 0.23750
 O1044 O 0.75599 0.49296 0.21436
 O1045 O 0.72665 0.52419 0.22824
 O1046 O 0.77268 0.47866 0.27382
 C1047 C 0.67598 0.52096 0.23419
 C1048 C 0.73149 0.57496 0.23048
 C1049 C 0.72929 0.51827 0.17758
 C1050 C 0.82218 0.48086 0.26977
 C1051 C 0.77026 0.48242 0.32371
 C1052 C 0.76909 0.42904 0.27203
 H1053 H 0.73916 0.51409 0.30397
 H1054 H 0.73702 0.44807 0.24101
 H1055 H 0.71631 0.53427 0.21799
 H1056 H 0.80276 0.51225 0.23837
 H1057 H 0.79960 0.55543 0.26859
 H1058 H 0.80236 0.55246 0.22844
 H1059 H 0.71037 0.43622 0.29098
 H1060 H 0.68176 0.46131 0.21606
 H1061 H 0.76563 0.54053 0.31573
 H1062 H 0.74028 0.56592 0.28896
 H1063 H 0.76231 0.43623 0.21191
 H1064 H 0.73622 0.46103 0.18926
 H1065 H 0.68653 0.51868 0.29149
 H1066 H 0.69601 0.48082 0.30180
 H1067 H 0.78682 0.51058 0.18657
 H1068 H 0.81440 0.48455 0.21201
 O1069 O 0.56277 0.21789 0.74699
 O1070 O 0.55313 0.22024 0.79041
 O1071 O 0.50142 0.18462 0.71814
 O1072 O 0.46165 0.19100 0.71787
 O1073 O 0.53191 0.24693 0.68557
 O1074 O 0.52692 0.28880 0.69287
 O1075 O 0.43623 0.25058 0.77853
 O1076 O 0.44353 0.20835 0.77492
 O1077 O 0.49681 0.28026 0.81110
 O1078 O 0.53694 0.27579 0.80577
 O1079 O 0.46731 0.31099 0.75095
 O1080 O 0.47057 0.30334 0.70706
 O1081 O 0.43588 0.27872 0.74903
 O1082 O 0.44603 0.27662 0.70560
 O1083 O 0.49618 0.31150 0.77959
 O1084 O 0.53974 0.30360 0.77249
 O1085 O 0.46816 0.25111 0.81075
 O1086 O 0.47041 0.20805 0.80358
 O1087 O 0.56332 0.24720 0.71853
 O1088 O 0.55373 0.29057 0.72425
 O1089 O 0.50254 0.21841 0.68491
 O1090 O 0.45924 0.22199 0.69321
 O1091 O 0.53035 0.18521 0.74686
 O1092 O 0.52686 0.19345 0.78923
 Zr1093 Zr 0.52816 0.21975 0.76193
 O1094 O 0.50676 0.24102 0.78438
 Zr1095 Zr 0.48670 0.21951 0.71923
 O1096 O 0.46320 0.24038 0.74022
 Zr1097 Zr 0.52870 0.26219 0.71994
 O1098 O 0.50679 0.28501 0.74058
 Zr1099 Zr 0.47049 0.23500 0.77672
 O1100 O 0.49183 0.21149 0.75583
 Zr1101 Zr 0.51235 0.27753 0.77697
 O1102 O 0.53638 0.25634 0.75649
 Zr1103 Zr 0.47057 0.27703 0.73447
 O1104 O 0.49242 0.25610 0.71150
 O1105 O 0.52257 0.22587 0.72581
 O1106 O 0.47604 0.27148 0.77088
 C1107 C 0.57301 0.22965 0.72996
 C1108 C 0.51885 0.17496 0.72973
 C1109 C 0.52024 0.22977 0.67537
 C1110 C 0.42595 0.26730 0.76638
 C1111 C 0.47955 0.26849 0.82086
 C1112 C 0.47864 0.32113 0.76830
 H1113 H 0.51079 0.23748 0.80127
 H1114 H 0.51065 0.30198 0.73697
 H1115 H 0.53290 0.21556 0.71578
 H1116 H 0.44644 0.23620 0.73638
 H1117 H 0.45087 0.19405 0.76731
 H1118 H 0.44745 0.19606 0.72716
 H1119 H 0.53872 0.31504 0.78609
 H1120 H 0.56591 0.28930 0.71138
 H1121 H 0.48561 0.20921 0.81256
 H1122 H 0.51122 0.18524 0.78766
 H1123 H 0.48479 0.31367 0.70935
 H1124 H 0.51092 0.28742 0.68540
 H1125 H 0.56426 0.23373 0.78734
 H1126 H 0.55242 0.27064 0.79889
 H1127 H 0.46227 0.23682 0.68386
 H1128 H 0.43559 0.26239 0.70760
 O1129 O 0.27847 0.81303 0.49715
 O1130 O 0.27818 0.80299 0.54007
 O1131 O 0.31359 0.75005 0.46872
 O1132 O 0.30724 0.71012 0.46919
 O1133 O 0.25134 0.77920 0.43461
 O1134 O 0.20999 0.77460 0.44180
 O1135 O 0.24813 0.68529 0.52954
 O1136 O 0.28967 0.69309 0.52683
 O1137 O 0.21712 0.74668 0.56064
 O1138 O 0.22236 0.78762 0.55440
 O1139 O 0.18740 0.71624 0.50041
 O1140 O 0.19599 0.71842 0.45662
 O1141 O 0.21888 0.68548 0.50118
 O1142 O 0.22266 0.69334 0.45675
 O1143 O 0.18758 0.74451 0.52989
 O1144 O 0.19395 0.78850 0.52108
 O1145 O 0.24465 0.71651 0.56029
 O1146 O 0.28959 0.72199 0.55444
 O1147 O 0.25070 0.81184 0.46734
 O1148 O 0.20769 0.80201 0.47246
 O1149 O 0.28088 0.75094 0.43543
 O1150 O 0.27662 0.70722 0.44422
 O1151 O 0.31253 0.78020 0.49632
 O1152 O 0.30443 0.77708 0.53879
 Zr1153 Zr 0.27813 0.77786 0.51160
 O1154 O 0.25685 0.75660 0.53442
 Zr1155 Zr 0.27891 0.73531 0.46976
 O1156 O 0.25798 0.71199 0.49095
 Zr1157 Zr 0.23621 0.77706 0.46910
 O1158 O 0.21336 0.75556 0.49006
 Zr1159 Zr 0.26299 0.72001 0.52739
 O1160 O 0.28646 0.74122 0.50629
 Zr1161 Zr 0.22064 0.76194 0.52641
 O1162 O 0.24172 0.78565 0.50556
 Zr1163 Zr 0.22156 0.71919 0.48459
 O1164 O 0.24260 0.74058 0.46140
 O1165 O 0.27236 0.77155 0.47552
 O1166 O 0.22694 0.72555 0.52080
 C1167 C 0.26676 0.82267 0.47976
 C1168 C 0.32301 0.76805 0.47972
 C1169 C 0.26910 0.76792 0.42514
 C1170 C 0.23034 0.67563 0.51851
 C1171 C 0.22728 0.72820 0.57000
 C1172 C 0.17795 0.72692 0.51854
 H1173 H 0.26009 0.76087 0.55131
 H1174 H 0.19647 0.75921 0.48625
 H1175 H 0.28253 0.78206 0.46549
 H1176 H 0.26216 0.69507 0.48752
 H1177 H 0.30396 0.70036 0.51922
 H1178 H 0.30219 0.69620 0.47899
 H1179 H 0.18278 0.78766 0.53486
 H1180 H 0.20906 0.81406 0.45941
 H1181 H 0.28456 0.73403 0.56647
 H1182 H 0.31172 0.76088 0.53824
 H1183 H 0.18538 0.73250 0.45864
 H1184 H 0.21140 0.75835 0.43468
 H1185 H 0.26375 0.81308 0.53813
 H1186 H 0.22582 0.80333 0.54683
 H1187 H 0.26196 0.71008 0.43471
 H1188 H 0.23614 0.68232 0.46004
 O1189 O 0.31366 0.25079 0.96799
 O1190 O 0.30404 0.20846 0.96962
 O1191 O 0.25075 0.27943 0.93331
 O1192 O 0.21122 0.27977 0.94035
 O1193 O 0.28080 0.31382 0.99590
 O1194 O 0.27645 0.30612 1.03751
 O1195 O 0.18641 0.21944 0.99978
 O1196 O 0.19383 0.22329 0.95779
 O1197 O 0.24771 0.18685 1.02882
 O1198 O 0.28931 0.19422 1.02770
 O1199 O 0.21897 0.24916 1.06076
 O1200 O 0.22104 0.29263 1.05120
 O1201 O 0.18748 0.24772 1.02921
 O1202 O 0.19531 0.29195 1.02568
 O1203 O 0.24589 0.21858 1.05981
 O1204 O 0.29128 0.22638 1.05109
 O1205 O 0.21773 0.18786 1.00123
 O1206 O 0.22085 0.19432 0.95757
 O1207 O 0.31291 0.28066 0.99591
 O1208 O 0.30396 0.27553 1.03887
 O1209 O 0.25260 0.31315 0.96638
 O1210 O 0.20937 0.30513 0.97089
 O1211 O 0.28042 0.25142 0.93429
 O1212 O 0.27761 0.20894 0.94275
 Zr1213 Zr 0.27856 0.23651 0.96883
 O1214 O 0.25717 0.21380 0.99001
 Zr1215 Zr 0.23670 0.27891 0.96837
 O1216 O 0.21342 0.25802 0.98965
 Zr1217 Zr 0.27854 0.27907 1.01084
 O1218 O 0.25726 0.25805 1.03393
 Zr1219 Zr 0.22077 0.22144 0.98433
 O1220 O 0.24211 0.24220 0.96071
 Zr1221 Zr 0.26286 0.22147 1.02638
 O1222 O 0.28641 0.24237 1.00518
 Zr1223 Zr 0.22109 0.26407 1.02611
 O1224 O 0.24233 0.28713 1.00476
 O1225 O 0.27275 0.27281 0.97460
 O1226 O 0.22660 0.22755 1.02061
 C1227 C 0.32344 0.26821 0.97967
 C1228 C 0.26818 0.26783 0.92368
 C1229 C 0.26938 0.32350 0.97835
 C1230 C 0.17715 0.23068 1.01765
 C1231 C 0.22965 0.17749 1.01798
 C1232 C 0.22955 0.23098 1.07020
 H1233 H 0.26101 0.19687 0.98633
 H1234 H 0.26126 0.26181 1.05079
 H1235 H 0.28313 0.28279 0.96423
 H1236 H 0.19659 0.26169 0.98569
 H1237 H 0.20129 0.23054 0.94340
 H1238 H 0.19696 0.27081 0.94587
 H1239 H 0.28782 0.21674 1.06563
 H1240 H 0.31577 0.28881 1.03753
 H1241 H 0.23518 0.18418 0.95986
 H1242 H 0.26154 0.20962 0.93534
 H1243 H 0.23533 0.29078 1.06148
 H1244 H 0.26076 0.31413 1.03562
 H1245 H 0.31229 0.20964 0.98527
 H1246 H 0.28979 0.18635 1.01182
 H1247 H 0.21208 0.31408 0.98599
 H1248 H 0.18461 0.28919 1.01183
 C1249 C 0.29293 0.38118 0.81274
 C1250 C 0.29974 0.36246 0.79725
 C1251 C 0.30037 0.36802 0.77247
 C1252 C 0.29214 0.39038 0.76381
 C1253 C 0.28286 0.40777 0.77966
 C1254 C 0.28507 0.40313 0.80417
 C1255 C 0.26864 0.40723 0.82474
 C1256 C 0.27673 0.38286 0.83410
 H1257 H 0.30625 0.35473 0.75957
 H1258 H 0.29214 0.39364 0.74468
 H1259 H 0.24950 0.40762 0.81934
 H1260 H 0.27462 0.42245 0.83616
 H1261 H 0.26185 0.36960 0.83386
 H1262 H 0.28682 0.38408 0.85123
 C1263 C 0.30048 -0.13095 0.27312
 C1264 C 0.29473 -0.14089 0.29561
 C1265 C 0.27898 -0.12638 0.30973
 C1266 C 0.27002 -0.10412 0.30137
 C1267 C 0.27637 -0.09515 0.27859
 C1268 C 0.29155 -0.10956 0.26516
 C1269 C 0.30368 -0.11057 0.24156
 C1270 C 0.31395 -0.13466 0.25013
 H1271 H 0.27417 -0.13104 0.32786
 H1272 H 0.25865 -0.09368 0.31315
 H1273 H 0.31737 -0.09623 0.23947
 H1274 H 0.29078 -0.11236 0.22652
 H1275 H 0.33368 -0.13389 0.25248
 H1276 H 0.30719 -0.15037 0.23982
 C1277 C 0.80397 0.86932 0.77512
 C1278 C 0.79715 0.85993 0.79756
 C1279 C 0.78285 0.87523 0.81211
 C1280 C 0.77426 0.89736 0.80347
 C1281 C 0.77962 0.90514 0.78006
 C1282 C 0.79550 0.89119 0.76671
 C1283 C 0.79333 0.88232 0.74162
 C1284 C 0.80248 0.85829 0.75068
 H1285 H 0.77848 0.87076 0.83042
 H1286 H 0.76334 0.90835 0.81519
 H1287 H 0.80605 0.89153 0.72936
 H1288 H 0.77447 0.88168 0.73530
 H1289 H 0.82038 0.85365 0.74333
 H1290 H 0.78896 0.84365 0.74965
 C1291 C 0.47178 0.87752 0.30530
 C1292 C 0.45627 0.89223 0.29207
 C1293 C 0.45239 0.88581 0.26784
 C1294 C 0.46122 0.86387 0.25863
 C1295 C 0.47443 0.84807 0.27333
 C1296 C 0.48068 0.85619 0.29618
 C1297 C 0.47870 0.84374 0.31980
 C1298 C 0.46896 0.86713 0.32985
 H1299 H 0.44177 0.89710 0.25621
 H1300 H 0.45680 0.85883 0.24041
 H1301 H 0.46531 0.82895 0.31963
 H1302 H 0.49650 0.83888 0.32719
 H1303 H 0.48118 0.87566 0.34308
 H1304 H 0.44993 0.86590 0.33555
 C1305 C -0.02823 0.87940 0.81064
 C1306 C -0.04223 0.89462 0.79635
 C1307 C -0.04424 0.88847 0.77180
 C1308 C -0.03526 0.86639 0.76310
 C1309 C -0.02359 0.85018 0.77861
 C1310 C -0.01906 0.85793 0.80200
 C1311 C -0.02322 0.84530 0.82521
 C1312 C -0.03332 0.86878 0.83471
 H1313 H -0.05338 0.90019 0.75936
 H1314 H -0.03822 0.86168 0.74451
 H1315 H -0.00616 0.84003 0.83397
 H1316 H -0.03682 0.83076 0.82375
 H1317 H -0.02211 0.87689 0.84905
 H1318 H -0.05279 0.86789 0.83875
 C1319 C -0.05696 -0.13106 -0.02243
 C1320 C -0.04426 -0.14400 -0.04001
 C1321 C -0.02097 -0.13529 -0.04548
 C1322 C -0.01274 -0.11310 -0.03644
 C1323 C -0.02732 -0.09894 -0.02145
 C1324 C -0.04872 -0.10921 -0.01350
 C1325 C -0.07312 -0.09856 -0.01290
 C1326 C -0.08229 -0.12229 -0.02261
 H1327 H -0.00899 -0.14517 -0.05706
 H1328 H 0.00461 -0.10657 -0.04214
 H1329 H -0.07508 -0.08347 -0.02580
 H1330 H -0.07915 -0.09482 0.00571
 H1331 H -0.08979 -0.12089 -0.04101
 H1332 H -0.09377 -0.13202 -0.00954
 C1333 C -0.05440 0.36631 0.47836
 C1334 C -0.05041 0.35924 0.45454
 C1335 C -0.03985 0.37647 0.43919
 C1336 C -0.03080 0.39823 0.44834
 C1337 C -0.03245 0.40359 0.47299
 C1338 C -0.04588 0.38799 0.48728
 C1339 C -0.04005 0.37722 0.51104
 C1340 C -0.04937 0.35345 0.50127
 H1341 H -0.03805 0.37313 0.42018
 H1342 H -0.02230 0.41072 0.43611
 H1343 H -0.05138 0.38475 0.52560
 H1344 H -0.02051 0.37711 0.51480
 H1345 H -0.06603 0.34730 0.51028
 H1346 H -0.03525 0.33951 0.49931
 C1347 C 0.44514 -0.13401 0.47507
 C1348 C 0.45742 -0.14677 0.45702
 C1349 C 0.48054 -0.13799 0.45105
 C1350 C 0.48897 -0.11589 0.46018
 C1351 C 0.47472 -0.10192 0.47571
 C1352 C 0.45355 -0.11229 0.48405
 C1353 C 0.42917 -0.10165 0.48538
 C1354 C 0.41979 -0.12527 0.47565
 H1355 H 0.49214 -0.14765 0.43891
 H1356 H 0.50616 -0.10925 0.45412
 H1357 H 0.42690 -0.08643 0.47268
 H1358 H 0.42357 -0.09806 0.50416
 H1359 H 0.41179 -0.12368 0.45748
 H1360 H 0.40867 -0.13517 0.48891
 C1361 C 0.44771 0.36722 -0.02537
 C1362 C 0.45258 0.35897 -0.04873
 C1363 C 0.46529 0.37516 -0.06380
 C1364 C 0.47470 0.39687 -0.05488
 C1365 C 0.47166 0.40331 -0.03068
 C1366 C 0.45694 0.38870 -0.01668
 C1367 C 0.46117 0.37871 0.00769
 C1368 C 0.45119 0.35510 -0.00167
 H1369 H 0.46792 0.37167 -0.08265
 H1370 H 0.48442 0.40855 -0.06699
 H1371 H 0.44954 0.38733 0.02139
 H1372 H 0.48049 0.37783 0.01237
 H1373 H 0.43395 0.35010 0.00693
 H1374 H 0.46470 0.34045 -0.00245
 C1375 C 0.77975 0.37510 0.43906
 C1376 C 0.79327 0.39050 0.45366
 C1377 C 0.79475 0.38439 0.47828
 C1378 C 0.78607 0.36212 0.48674
 C1379 C 0.77507 0.34573 0.47095
 C1380 C 0.77076 0.35347 0.44750
 C1381 C 0.77532 0.34096 0.42427
 C1382 C 0.78530 0.36463 0.41502
 H1383 H 0.80328 0.39631 0.49100
 H1384 H 0.78870 0.35742 0.50538
 H1385 H 0.75843 0.33553 0.41527
 H1386 H 0.78902 0.32654 0.42578
 H1387 H 0.77420 0.37264 0.40056
 H1388 H 0.80483 0.36402 0.41125
 C1389 C 0.77599 0.87979 -0.05809
 C1390 C 0.78881 0.89555 -0.04323
 C1391 C 0.79061 0.88913 -0.01873
 C1392 C 0.78304 0.86628 -0.01068
 C1393 C 0.77292 0.84964 -0.02681
 C1394 C 0.76808 0.85761 -0.05005
 C1395 C 0.77313 0.84577 -0.07352
 C1396 C 0.78193 0.87005 -0.08235
 H1397 H 0.79873 0.90117 -0.00586
 H1398 H 0.78595 0.86135 0.00786
 H1399 H 0.75646 0.83974 -0.08255
 H1400 H 0.78748 0.83199 -0.07234
 H1401 H 0.77040 0.87777 -0.09663
 H1402 H 0.80145 0.87044 -0.08620
 C1403 C 0.77241 0.29952 0.36517
 C1404 C 0.79387 0.29113 0.35498
 C1405 C 0.80681 0.27396 0.36852
 C1406 C 0.79760 0.26455 0.38995
 C1407 C 0.77567 0.27260 0.39931
 C1408 C 0.76373 0.29073 0.38683
 C1409 C 0.73846 0.29108 0.37832
 C1410 C 0.74784 0.30057 0.35463
 H1411 H 0.82420 0.26756 0.36314
 H1412 H 0.80789 0.25105 0.39930
 H1413 H 0.72748 0.30441 0.38828
 H1414 H 0.73053 0.27278 0.37699
 H1415 H 0.74196 0.31929 0.35096
 H1416 H 0.74543 0.28778 0.33949
 C1417 C 0.77500 0.80333 -0.13205
 C1418 C 0.79536 0.79343 -0.14340
 C1419 C 0.80634 0.77385 -0.13115
 C1420 C 0.79714 0.76486 -0.10950
 C1421 C 0.77681 0.77504 -0.09879
 C1422 C 0.76622 0.79454 -0.11035
 C1423 C 0.74080 0.79699 -0.11789
 C1424 C 0.75008 0.80640 -0.14156
 H1425 H 0.82214 0.76491 -0.13759
 H1426 H 0.80608 0.74981 -0.10113
 H1427 H 0.73113 0.81079 -0.10722
 H1428 H 0.73149 0.77938 -0.11943
 H1429 H 0.74528 0.82558 -0.14446
 H1430 H 0.74619 0.79429 -0.15694
 C1431 C 0.31528 0.46905 0.87403
 C1432 C 0.30057 0.45643 0.89002
 C1433 C 0.27571 0.45651 0.88529
 C1434 C 0.26672 0.46620 0.86378
 C1435 C 0.28231 0.47638 0.84671
 C1436 C 0.30639 0.47885 0.85302
 C1437 C 0.32835 0.47234 0.83922
 C1438 C 0.33809 0.46155 0.86225
 H1439 H 0.26324 0.44843 0.89775
 H1440 H 0.24774 0.46486 0.86011
 H1441 H 0.33841 0.48849 0.83322
 H1442 H 0.32483 0.45874 0.82502
 H1443 H 0.35382 0.47147 0.86941
 H1444 H 0.34019 0.44168 0.86144
 C1445 C 0.30618 -0.02742 0.37877
 C1446 C 0.29236 -0.04271 0.39343
 C1447 C 0.26813 -0.04598 0.38626
 C1448 C 0.25966 -0.03717 0.36413
 C1449 C 0.27489 -0.02440 0.34862
 C1450 C 0.29766 -0.01855 0.35714
 C1451 C 0.32124 -0.02119 0.34500
 C1452 C 0.33073 -0.03096 0.36849
 H1453 H 0.25544 -0.05556 0.39729
 H1454 H 0.24142 -0.04108 0.35886
 H1455 H 0.32911 -0.00352 0.34003
 H1456 H 0.32087 -0.03484 0.33043
 H1457 H 0.34427 -0.01891 0.37679
 H1458 H 0.33596 -0.05023 0.36752
 C1459 C -0.05845 -0.02550 -0.12686
 C1460 C -0.04488 -0.04109 -0.14139
 C1461 C -0.02074 -0.04479 -0.13419
 C1462 C -0.01219 -0.03618 -0.11203
 C1463 C -0.02726 -0.02321 -0.09656
 C1464 C -0.04985 -0.01683 -0.10517
 C1465 C -0.07361 -0.01887 -0.09320
 C1466 C -0.08315 -0.02848 -0.11678
 H1467 H -0.00821 -0.05457 -0.14522
 H1468 H 0.00592 -0.04048 -0.10666
 H1469 H -0.08105 -0.00099 -0.08835
 H1470 H -0.07376 -0.03243 -0.07855
 H1471 H -0.09633 -0.01615 -0.12521
 H1472 H -0.08884 -0.04763 -0.11584
 C1473 C -0.06360 0.47009 0.37748
 C1474 C -0.04895 0.45698 0.36180
 C1475 C -0.02421 0.45635 0.36710
 C1476 C -0.01541 0.46564 0.38890
 C1477 C -0.03105 0.47626 0.40563
 C1478 C -0.05487 0.47955 0.39874
 C1479 C -0.07739 0.47382 0.41199
 C1480 C -0.08696 0.46342 0.38870
 H1481 H -0.01168 0.44797 0.35491
 H1482 H 0.00340 0.46361 0.39306
 H1483 H -0.08701 0.49031 0.41782
 H1484 H -0.07475 0.46009 0.42625
 H1485 H -0.10212 0.47391 0.38119
 H1486 H -0.08983 0.44363 0.38939
 C1487 C 0.44950 -0.02551 0.36860
 C1488 C 0.45417 -0.04881 0.35989
 C1489 C 0.47116 -0.06258 0.37287
 C1490 C 0.48144 -0.05400 0.39424
 C1491 C 0.47478 -0.03154 0.40372
 C1492 C 0.45966 -0.01717 0.38980
 C1493 C 0.43790 -0.00351 0.39691
 C1494 C 0.42646 -0.01282 0.37414
 H1495 H 0.47564 -0.08071 0.36754
 H1496 H 0.49335 -0.06573 0.40411
 H1497 H 0.44095 0.01624 0.39678
 H1498 H 0.42941 -0.01075 0.41341
 H1499 H 0.42245 0.00169 0.36105
 H1500 H 0.41140 -0.02534 0.37795
 C1501 C 0.43942 0.46978 -0.12561
 C1502 C 0.45216 0.45324 -0.13986
 C1503 C 0.47624 0.44883 -0.13301
 C1504 C 0.48573 0.45833 -0.11163
 C1505 C 0.47161 0.47267 -0.09638
 C1506 C 0.44884 0.47909 -0.10449
 C1507 C 0.42542 0.47777 -0.09175
 C1508 C 0.41501 0.46758 -0.11473
 H1509 H 0.48806 0.43806 -0.14394
 H1510 H 0.50388 0.45371 -0.10667
 H1511 H 0.41835 0.49588 -0.08720
 H1512 H 0.42553 0.46466 -0.07670
 H1513 H 0.40183 0.47985 -0.12324
 H1514 H 0.40902 0.44858 -0.11300
 C1515 C 0.47596 0.79923 0.37967
 C1516 C 0.45197 0.79777 0.38669
 C1517 C 0.43619 0.78797 0.36926
 C1518 C 0.44481 0.77920 0.34698
 C1519 C 0.46945 0.78023 0.34117
 C1520 C 0.48414 0.79101 0.35817
 C1521 C 0.50971 0.79487 0.36436
 C1522 C 0.50060 0.80422 0.38869
 H1523 H 0.41714 0.78709 0.37257
 H1524 H 0.43212 0.77181 0.33428
 H1525 H 0.51822 0.80894 0.35308
 H1526 H 0.51974 0.77767 0.36573
 H1527 H 0.50405 0.82372 0.39139
 H1528 H 0.50553 0.79243 0.40399
 C1529 C -0.02296 0.80408 0.88324
 C1530 C -0.04613 0.79868 0.89125
 C1531 C -0.06151 0.78708 0.87474
 C1532 C -0.05284 0.77867 0.85257
 C1533 C -0.02865 0.78191 0.84613
 C1534 C -0.01450 0.79601 0.86129
 C1535 C 0.00993 0.79149 0.87101
 C1536 C 0.00066 0.80032 0.89509
 H1537 H -0.08016 0.78409 0.87898
 H1538 H -0.06503 0.76939 0.84064
 H1539 H 0.02350 0.80367 0.86294
 H1540 H 0.01474 0.77209 0.87094
 H1541 H 0.00895 0.81755 0.90087
 H1542 H 0.00006 0.78606 0.90904
 C1543 C 0.36705 0.77398 0.29761
 C1544 C 0.35955 0.79777 0.29412
 C1545 C 0.37615 0.81366 0.28331
 C1546 C 0.39792 0.80510 0.27393
 C1547 C 0.40389 0.78055 0.27551
 C1548 C 0.38869 0.76565 0.28875
 C1549 C 0.37831 0.74177 0.28231
 C1550 C 0.35458 0.75092 0.29201
 H1551 H 0.37246 0.83269 0.28189
 H1552 H 0.41000 0.81771 0.26541
 H1553 H 0.38606 0.72699 0.29322
 H1554 H 0.37814 0.73852 0.26265
 H1555 H 0.34868 0.74134 0.30846
 H1556 H 0.34061 0.75302 0.27798
 C1557 C -0.13161 0.77436 0.79890
 C1558 C -0.13904 0.79826 0.79602
 C1559 C -0.12201 0.81458 0.78660
 C1560 C -0.09981 0.80644 0.77789
 C1561 C -0.09381 0.78186 0.77882
 C1562 C -0.10954 0.76642 0.79076
 C1563 C -0.11952 0.74280 0.78292
 C1564 C -0.14371 0.75151 0.79183
 H1565 H -0.12568 0.83366 0.78578
 H1566 H -0.08740 0.81939 0.77040
 H1567 H -0.11223 0.72762 0.79360
 H1568 H -0.11874 0.74030 0.76316
 H1569 H -0.15034 0.74128 0.80760
 H1570 H -0.15701 0.75412 0.77725
 C1571 C 0.88067 0.27155 0.44488
 C1572 C 0.89416 0.28776 0.45864
 C1573 C 0.88589 0.29236 0.48218
 C1574 C 0.86330 0.28392 0.48983
 C1575 C 0.84866 0.27031 0.47429
 C1576 C 0.85869 0.26294 0.45256
 C1577 C 0.84844 0.26369 0.42792
 C1578 C 0.87246 0.27318 0.41945
 H1579 H 0.89618 0.30340 0.49437
 H1580 H 0.85684 0.28909 0.50739
 H1581 H 0.83373 0.27704 0.42621
 H1582 H 0.84439 0.24537 0.42106
 H1583 H 0.87170 0.29202 0.41281
 H1584 H 0.88202 0.26036 0.40754
 C1585 C 0.88024 0.77535 -0.05611
 C1586 C 0.89486 0.78988 -0.04162
 C1587 C 0.88753 0.79271 -0.01745
 C1588 C 0.86486 0.78452 -0.00971
 C1589 C 0.84928 0.77268 -0.02571
 C1590 C 0.85831 0.76676 -0.04829
 C1591 C 0.84721 0.76953 -0.07241
 C1592 C 0.87113 0.77918 -0.08101
 H1593 H 0.89861 0.80210 -0.00464
 H1594 H 0.85918 0.78838 0.00844
 H1595 H 0.83265 0.78315 -0.07268
 H1596 H 0.84265 0.75181 -0.08039
 H1597 H 0.87056 0.79851 -0.08609
 H1598 H 0.87990 0.76716 -0.09428
 C1599 C -0.13267 -0.02272 -0.05173
 C1600 C -0.14353 -0.04372 -0.04272
 C1601 C -0.13060 -0.05633 -0.02486
 C1602 C -0.10920 -0.04712 -0.01538
 C1603 C -0.09920 -0.02559 -0.02405
 C1604 C -0.11103 -0.01410 -0.04287
 C1605 C -0.11888 0.01145 -0.04443
 C1606 C -0.14253 0.00218 -0.05405
 H1607 H -0.13657 -0.07333 -0.01778
 H1608 H -0.10045 -0.05702 -0.00122
 H1609 H -0.10841 0.02174 -0.05791
 H1610 H -0.12043 0.02018 -0.02657
 H1611 H -0.14560 0.00741 -0.07302
 H1612 H -0.15787 0.00550 -0.04179
 C1613 C -0.13029 0.44087 0.47451
 C1614 C -0.14430 0.45440 0.45845
 C1615 C -0.13782 0.47899 0.45581
 C1616 C -0.11680 0.48825 0.46627
 C1617 C -0.10167 0.47340 0.47992
 C1618 C -0.10962 0.45009 0.48485
 C1619 C -0.09649 0.42688 0.48248
 C1620 C -0.11896 0.41668 0.47116
 H1621 H -0.14860 0.49133 0.44550
 H1622 H -0.11186 0.50674 0.46270
 H1623 H -0.09227 0.41878 0.50019
 H1624 H -0.08117 0.42803 0.46981
 H1625 H -0.12751 0.40256 0.48237
 H1626 H -0.11665 0.41184 0.45195
 C1627 C 0.37075 -0.02849 0.44311
 C1628 C 0.35840 -0.04782 0.45394
 C1629 C 0.37038 -0.05928 0.47325
 C1630 C 0.39246 -0.05085 0.48187
 C1631 C 0.40394 -0.03100 0.47132
 C1632 C 0.39290 -0.02051 0.45147
 C1633 C 0.38687 0.00529 0.44772
 C1634 C 0.36273 -0.00314 0.43870
 H1635 H 0.36299 -0.07452 0.48254
 H1636 H 0.40037 -0.05981 0.49713
 H1637 H 0.39803 0.01372 0.43354
 H1638 H 0.38582 0.01558 0.46478
 H1639 H 0.36017 0.00080 0.41934
 H1640 H 0.34761 0.00228 0.45047
 C1641 C 0.37516 0.43911 -0.02888
 C1642 C 0.36118 0.45283 -0.04478
 C1643 C 0.36809 0.47725 -0.04773
 C1644 C 0.38953 0.48609 -0.03785
 C1645 C 0.40468 0.47096 -0.02455
 C1646 C 0.39628 0.44793 -0.01914
 C1647 C 0.40873 0.42437 -0.02154
 C1648 C 0.38575 0.41459 -0.03217
 H1649 H 0.35732 0.48979 -0.05782
 H1650 H 0.39471 0.50449 -0.04157
 H1651 H 0.41318 0.41641 -0.00383
 H1652 H 0.42371 0.42505 -0.03463
 H1653 H 0.37712 0.40085 -0.02056
 H1654 H 0.38747 0.40942 -0.05135
 C1655 C 0.37715 0.44248 0.77938
 C1656 C 0.39233 0.45611 0.79405
 C1657 C 0.38700 0.48087 0.79646
 C1658 C 0.36558 0.49043 0.78708
 C1659 C 0.34925 0.47554 0.77476
 C1660 C 0.35630 0.45193 0.76992
 C1661 C 0.34294 0.42897 0.77359
 C1662 C 0.36581 0.41857 0.78391
 H1663 H 0.39879 0.49272 0.80631
 H1664 H 0.36131 0.50913 0.79042
 H1665 H 0.33757 0.42052 0.75635
 H1666 H 0.32841 0.43075 0.78707
 H1667 H 0.37365 0.40415 0.77256
 H1668 H 0.36448 0.41424 0.80332
 C1669 C 0.37905 -0.02696 0.30550
 C1670 C 0.38639 -0.05049 0.30009
 C1671 C 0.36994 -0.06502 0.28741
 C1672 C 0.34862 -0.05521 0.27818
 C1673 C 0.34301 -0.03069 0.28157
 C1674 C 0.35793 -0.01739 0.29666
 C1675 C 0.36879 0.00686 0.29319
 C1676 C 0.39198 -0.00360 0.30290
 H1677 H 0.37356 -0.08385 0.28419
 H1678 H 0.33669 -0.06680 0.26815
 H1679 H 0.36069 0.02053 0.30525
 H1680 H 0.36987 0.01212 0.27400
 H1681 H 0.39721 0.00413 0.32051
 H1682 H 0.40655 -0.00443 0.28935
 C1683 C 0.11981 0.52660 0.70059
 C1684 C 0.10886 0.54766 0.70915
 C1685 C 0.12202 0.56109 0.72630
 C1686 C 0.14377 0.55248 0.73570
 C1687 C 0.15375 0.53070 0.72762
 C1688 C 0.14166 0.51855 0.70931
 C1689 C 0.13407 0.49285 0.70827
 C1690 C 0.11017 0.50159 0.69878
 H1691 H 0.11591 0.57828 0.73282
 H1692 H 0.15274 0.56295 0.74933
 H1693 H 0.13286 0.48443 0.72631
 H1694 H 0.14452 0.48247 0.69484
 H1695 H 0.09502 0.49829 0.71128
 H1696 H 0.10692 0.49603 0.67993
 C1697 C 0.12067 0.02737 0.19462
 C1698 C 0.10519 0.04118 0.20884
 C1699 C 0.11168 0.04417 0.23323
 C1700 C 0.13426 0.03649 0.24167
 C1701 C 0.15056 0.02512 0.22609
 C1702 C 0.14255 0.01943 0.20305
 C1703 C 0.15451 0.02328 0.17943
 C1704 C 0.13055 0.03209 0.17014
 H1705 H 0.09991 0.05327 0.24564
 H1706 H 0.13925 0.04024 0.26004
 H1707 H 0.16033 0.00609 0.17111
 H1708 H 0.16843 0.03758 0.18008
 H1709 H 0.12273 0.01998 0.15634
 H1710 H 0.13051 0.05152 0.16543
 C1711 C 0.62814 0.69296 0.22059
 C1712 C 0.64373 0.70825 0.20804
 C1713 C 0.63666 0.73260 0.20589
 C1714 C 0.61361 0.74008 0.21313
 C1715 C 0.59728 0.72354 0.22315
 C1716 C 0.60571 0.70043 0.22812
 C1717 C 0.59464 0.67659 0.22274
 C1718 C 0.61919 0.66839 0.21441
 H1719 H 0.64839 0.74576 0.19780
 H1720 H 0.60831 0.75855 0.21008
 H1721 H 0.58119 0.67746 0.20808
 H1722 H 0.58855 0.66729 0.23925
 H1723 H 0.62007 0.66458 0.19486
 H1724 H 0.62703 0.65426 0.22609
 C1725 C 0.13002 0.69419 0.72401
 C1726 C 0.14442 0.70821 0.70888
 C1727 C 0.13763 0.73244 0.70551
 C1728 C 0.11575 0.74111 0.71470
 C1729 C 0.10027 0.72580 0.72765
 C1730 C 0.10857 0.70276 0.73316
 C1731 C 0.09639 0.67905 0.73005
 C1732 C 0.11983 0.66965 0.72001
 H1733 H 0.14870 0.74443 0.69498
 H1734 H 0.11048 0.75940 0.71069
 H1735 H 0.08173 0.67964 0.71657
 H1736 H 0.09144 0.67079 0.74749
 H1737 H 0.11884 0.66475 0.70071
 H1738 H 0.12819 0.65592 0.73173
 C1739 C 0.61698 0.22501 0.54884
 C1740 C 0.60752 0.20264 0.54200
 C1741 C 0.62246 0.18764 0.52802
 C1742 C 0.64455 0.19597 0.51927
 C1743 C 0.65277 0.21929 0.52477
 C1744 C 0.63905 0.23302 0.54064
 C1745 C 0.63042 0.25827 0.53814
 C1746 C 0.60625 0.24952 0.54707
 H1747 H 0.61731 0.16940 0.52369
 H1748 H 0.65511 0.18414 0.50813
 H1749 H 0.63014 0.26446 0.51919
 H1750 H 0.63950 0.27065 0.55088
 H1751 H 0.59190 0.25056 0.53331
 H1752 H 0.60142 0.25696 0.56491
 C1753 C 0.62083 0.69442 0.02604
 C1754 C 0.60844 0.70598 0.04476
 C1755 C 0.62043 0.72557 0.05580
 C1756 C 0.64229 0.73427 0.04683
 C1757 C 0.65363 0.72316 0.02724
 C1758 C 0.64286 0.70258 0.01777
 C1759 C 0.63693 0.69694 -0.00766
 C1760 C 0.61283 0.68808 0.00124
 H1761 H 0.61325 0.73483 0.07115
 H1762 H 0.65014 0.74996 0.05515
 H1763 H 0.64838 0.68233 -0.01497
 H1764 H 0.63571 0.71329 -0.01905
 H1765 H 0.61051 0.66838 -0.00126
 H1766 H 0.59755 0.69927 -0.00495
 C1767 C 0.12578 0.02960 0.05967
 C1768 C 0.14030 0.04516 0.04603
 C1769 C 0.13343 0.04837 0.02170
 C1770 C 0.11173 0.03892 0.01285
 C1771 C 0.09631 0.02575 0.02786
 C1772 C 0.10453 0.02021 0.05081
 C1773 C 0.09195 0.02277 0.07422
 C1774 C 0.11502 0.03314 0.08405
 H1775 H 0.14439 0.05832 0.00923
 H1776 H 0.10662 0.04277 -0.00547
 H1777 H 0.08722 0.00505 0.08212
 H1778 H 0.07713 0.03608 0.07352
 H1779 H 0.12331 0.02140 0.09786
 H1780 H 0.11357 0.05243 0.08911
 C1781 C 0.12895 0.52347 0.55373
 C1782 C 0.13773 0.54624 0.54746
 C1783 C 0.12200 0.56155 0.53477
 C1784 C 0.09978 0.55310 0.52639
 C1785 C 0.09248 0.52922 0.53077
 C1786 C 0.10691 0.51525 0.54576
 C1787 C 0.11599 0.49025 0.54241
 C1788 C 0.14016 0.49927 0.55114
 H1789 H 0.12675 0.58004 0.53108
 H1790 H 0.08843 0.56524 0.51635
 H1791 H 0.11605 0.48457 0.52330
 H1792 H 0.10741 0.47737 0.55499
 H1793 H 0.15428 0.49887 0.53710
 H1794 H 0.14546 0.49153 0.56871
 C1795 C 0.62800 0.02492 0.55923
 C1796 C 0.64224 0.04068 0.54553
 C1797 C 0.63504 0.04411 0.52133
 C1798 C 0.61319 0.03487 0.51275
 C1799 C 0.59796 0.02162 0.52788
 C1800 C 0.60653 0.01573 0.55064
 C1801 C 0.59442 0.01797 0.57436
 C1802 C 0.61777 0.02810 0.58387
 H1803 H 0.64591 0.05407 0.50877
 H1804 H 0.60783 0.03892 0.49455
 H1805 H 0.57958 0.03130 0.57423
 H1806 H 0.58977 0.00016 0.58212
 H1807 H 0.62638 0.01613 0.59728
 H1808 H 0.61652 0.04732 0.58927
 C1809 C 0.62970 0.55684 0.02600
 C1810 C 0.64459 0.54279 0.04060
 C1811 C 0.63862 0.51815 0.04278
 C1812 C 0.61685 0.50919 0.03354
 C1813 C 0.60081 0.52455 0.02147
 C1814 C 0.60853 0.54795 0.01660
 C1815 C 0.59584 0.57132 0.02007
 C1816 C 0.61902 0.58109 0.03040
 H1817 H 0.65014 0.50593 0.05247
 H1818 H 0.61208 0.49061 0.03688
 H1819 H 0.58114 0.57013 0.03345
 H1820 H 0.59084 0.57978 0.00274
 H1821 H 0.61780 0.58557 0.04979
 H1822 H 0.62726 0.59526 0.01901
 C1823 C 0.05243 0.02371 0.13344
 C1824 C 0.04707 0.04700 0.14186
 C1825 C 0.03499 0.06231 0.12547
 C1826 C 0.02644 0.05365 0.10343
 C1827 C 0.02976 0.02948 0.09677
 C1828 C 0.04407 0.01528 0.11155
 C1829 C 0.03961 -0.00937 0.12094
 C1830 C 0.04861 -0.00029 0.14498
 H1831 H 0.03220 0.08117 0.12909
 H1832 H 0.01703 0.06593 0.09169
 H1833 H 0.05164 -0.02289 0.11258
 H1834 H 0.02030 -0.01421 0.12102
 H1835 H 0.06569 -0.00890 0.15047
 H1836 H 0.03454 0.00017 0.15907
 C1837 C 0.05420 0.52310 0.63425
 C1838 C 0.04741 0.54580 0.64299
 C1839 C 0.03389 0.56042 0.62733
 C1840 C 0.02496 0.55127 0.60564
 C1841 C 0.02979 0.52746 0.59843
 C1842 C 0.04582 0.51425 0.61246
 C1843 C 0.04366 0.48930 0.62203
 C1844 C 0.05281 0.49897 0.64584
 H1845 H 0.02970 0.57886 0.63184
 H1846 H 0.01389 0.56279 0.59471
 H1847 H 0.05636 0.47674 0.61320
 H1848 H 0.02480 0.48295 0.62279
 H1849 H 0.07077 0.49191 0.65066
 H1850 H 0.03929 0.49825 0.66044
 C1851 C 0.52772 0.05469 0.62873
 C1852 C 0.54320 0.04113 0.64338
 C1853 C 0.54677 0.01678 0.63644
 C1854 C 0.53768 0.00785 0.61461
 C1855 C 0.52448 0.02277 0.59916
 C1856 C 0.51866 0.04576 0.60736
 C1857 C 0.52113 0.06928 0.59478
 C1858 C 0.53115 0.07919 0.61801
 H1859 H 0.55674 0.00438 0.64747
 H1860 H 0.54181 -0.01046 0.60944
 H1861 H 0.50349 0.07709 0.58992
 H1862 H 0.53446 0.06877 0.57997
 H1863 H 0.51930 0.09293 0.62627
 H1864 H 0.55032 0.08442 0.61673
 C1865 C 0.52104 0.53816 0.13688
 C1866 C 0.54480 0.53791 0.14477
 C1867 C 0.56153 0.52778 0.12838
 C1868 C 0.55428 0.51898 0.10564
 C1869 C 0.53013 0.52033 0.09831
 C1870 C 0.51422 0.52984 0.11496
 C1871 C 0.48869 0.53643 0.11824
 C1872 C 0.49615 0.54581 0.14307
 H1873 H 0.58044 0.52749 0.13247
 H1874 H 0.56777 0.51214 0.09348
 H1875 H 0.47683 0.52039 0.11893
 H1876 H 0.48300 0.55091 0.10578
 H1877 H 0.48856 0.53523 0.15817
 H1878 H 0.49410 0.56561 0.14459
 C1879 C 0.19634 0.52395 0.61934
 C1880 C 0.20132 0.54714 0.61078
 C1881 C 0.21371 0.56280 0.62643
 C1882 C 0.22327 0.55437 0.64813
 C1883 C 0.22031 0.53018 0.65509
 C1884 C 0.20538 0.51575 0.64102
 C1885 C 0.20950 0.49109 0.63132
 C1886 C 0.19958 0.50008 0.60758
 H1887 H 0.21637 0.58153 0.62197
 H1888 H 0.23307 0.56682 0.65940
 H1889 H 0.19783 0.47749 0.64009
 H1890 H 0.22879 0.48630 0.63051
 H1891 H 0.18221 0.49164 0.60272
 H1892 H 0.21310 0.50054 0.59297
 C1893 C 0.19582 0.02589 0.11923
 C1894 C 0.20020 0.04961 0.11179
 C1895 C 0.21256 0.06463 0.12808
 C1896 C 0.22243 0.05524 0.14930
 C1897 C 0.21987 0.03068 0.15509
 C1898 C 0.20513 0.01676 0.14039
 C1899 C 0.20964 -0.00732 0.12953
 C1900 C 0.19947 0.00265 0.10631
 H1901 H 0.21490 0.08360 0.12453
 H1902 H 0.23205 0.06726 0.16117
 H1903 H 0.19824 -0.02151 0.13769
 H1904 H 0.22901 -0.01172 0.12843
 H1905 H 0.18226 -0.00592 0.10112
 H1906 H 0.21292 0.00409 0.09170
 C1907 C 0.72060 0.19047 0.62524
 C1908 C 0.70549 0.20426 0.63983
 C1909 C 0.70118 0.22826 0.63251
 C1910 C 0.70923 0.23667 0.61004
 C1911 C 0.72218 0.22144 0.59455
 C1912 C 0.72879 0.19886 0.60335
 C1913 C 0.72655 0.17469 0.59194
 C1914 C 0.71755 0.16546 0.61591
 H1915 H 0.69100 0.24040 0.64372
 H1916 H 0.70469 0.25476 0.60452
 H1917 H 0.74425 0.16718 0.58683
 H1918 H 0.71272 0.17426 0.57762
 H1919 H 0.73006 0.15254 0.62448
 H1920 H 0.69851 0.15964 0.61551
 C1921 C 0.69339 0.72662 0.12907
 C1922 C 0.70683 0.71077 0.14320
 C1923 C 0.73074 0.70660 0.13588
 C1924 C 0.73916 0.71507 0.11356
 C1925 C 0.72409 0.72838 0.09824
 C1926 C 0.70184 0.73531 0.10736
 C1927 C 0.67773 0.73401 0.09608
 C1928 C 0.66843 0.72438 0.11975
 H1929 H 0.74275 0.69601 0.14679
 H1930 H 0.75706 0.71027 0.10789
 H1931 H 0.67695 0.72062 0.08130
 H1932 H 0.67076 0.75219 0.09176
 H1933 H 0.66225 0.70540 0.11874
 H1934 H 0.65587 0.73696 0.12876
 C1935 C 0.52069 0.69861 0.11401
 C1936 C 0.53633 0.71223 0.09974
 C1937 C 0.54123 0.73597 0.10776
 C1938 C 0.53408 0.74367 0.13084
 C1939 C 0.52126 0.72811 0.14611
 C1940 C 0.51319 0.70646 0.13633
 C1941 C 0.51384 0.68178 0.14666
 C1942 C 0.52220 0.67307 0.12232
 H1943 H 0.55163 0.74829 0.09701
 H1944 H 0.53954 0.76128 0.13708
 H1945 H 0.49563 0.67530 0.15140
 H1946 H 0.52761 0.67986 0.16090
 H1947 H 0.50886 0.66128 0.11335
 H1948 H 0.54084 0.66608 0.12241
 C1949 C 0.02328 0.70439 0.61723
 C1950 C 0.04639 0.70890 0.60852
 C1951 C 0.06229 0.72109 0.62413
 C1952 C 0.05439 0.73033 0.64624
 C1953 C 0.03049 0.72728 0.65364
 C1954 C 0.01561 0.71316 0.63922
 C1955 C -0.00883 0.71847 0.62993
 C1956 C -0.00044 0.70893 0.60583
 H1957 H 0.08095 0.72339 0.61960
 H1958 H 0.06709 0.73962 0.65761
 H1959 H -0.01291 0.73804 0.62979
 H1960 H -0.02268 0.70696 0.63848
 H1961 H 0.00042 0.72296 0.59166
 H1962 H -0.00957 0.69199 0.60050
 C1963 C 0.54201 0.61375 0.22913
 C1964 C 0.53853 0.60412 0.20614
 C1965 C 0.52432 0.61860 0.19061
 C1966 C 0.51505 0.64112 0.19806
 C1967 C 0.52021 0.65055 0.22097
 C1968 C 0.53322 0.63557 0.23603
 C1969 C 0.54394 0.63465 0.26034
 C1970 C 0.55410 0.61012 0.25281
 H1971 H 0.52095 0.61342 0.17228
 H1972 H 0.50458 0.65145 0.18552
 H1973 H 0.53012 0.63347 0.27462
 H1974 H 0.55783 0.64866 0.26308
 H1975 H 0.54642 0.59476 0.26298
 H1976 H 0.57394 0.61046 0.25160
 C1977 C 0.03310 0.62503 0.69224
 C1978 C 0.04090 0.60730 0.70842
 C1979 C 0.04277 0.61426 0.73278
 C1980 C 0.03571 0.63738 0.74044
 C1981 C 0.02609 0.65408 0.72410
 C1982 C 0.02601 0.64767 0.69990
 C1983 C 0.00678 0.64969 0.68159
 C1984 C 0.01406 0.62473 0.67332
 H1985 H 0.04933 0.60178 0.74610
 H1986 H 0.03718 0.64193 0.75926
 H1987 H 0.01068 0.66394 0.66817
 H1988 H -0.01142 0.65032 0.68960
 H1989 H 0.02169 0.62455 0.65492
 H1990 H -0.00010 0.61110 0.67675
 C1991 C 0.06115 0.12445 0.03527
 C1992 C 0.04728 0.14032 0.04900
 C1993 C 0.02259 0.13496 0.05102
 C1994 C 0.01316 0.11321 0.04194
 C1995 C 0.02808 0.09653 0.03016
 C1996 C 0.05181 0.10330 0.02603
 C1997 C 0.07437 0.08972 0.03068
 C1998 C 0.08461 0.11288 0.04089
 H1999 H 0.01054 0.14723 0.05999
 H2000 H -0.00560 0.10921 0.04468
 H2001 H 0.08324 0.08401 0.01379
 H2002 H 0.07209 0.07530 0.04430
 H2003 H 0.09948 0.12032 0.02993
 H2004 H 0.08821 0.11194 0.06047
 C2005 C 0.05089 0.63034 0.52753
 C2006 C 0.04445 0.64030 0.54972
 C2007 C 0.02963 0.62605 0.56464
 C2008 C 0.01983 0.60424 0.55634
 C2009 C 0.02512 0.59561 0.53319
 C2010 C 0.04172 0.60857 0.51962
 C2011 C 0.04002 0.61715 0.49435
 C2012 C 0.05004 0.64103 0.50300
 H2013 H 0.02530 0.63153 0.58270
 H2014 H 0.00798 0.59429 0.56801
 H2015 H 0.02124 0.61833 0.48790
 H2016 H 0.05244 0.60728 0.48228
 H2017 H 0.03709 0.65613 0.50164
 H2018 H 0.06818 0.64489 0.49580
 C2019 C 0.55558 0.12660 0.52578
 C2020 C 0.54168 0.14154 0.54047
 C2021 C 0.51773 0.13435 0.54462
 C2022 C 0.50941 0.11168 0.53676
 C2023 C 0.52472 0.09590 0.52425
 C2024 C 0.54732 0.10453 0.51783
 C2025 C 0.57129 0.09301 0.52068
 C2026 C 0.58038 0.11722 0.52941
 H2027 H 0.50567 0.14571 0.55470
 H2028 H 0.49139 0.10616 0.54132
 H2029 H 0.57910 0.08751 0.50319
 H2030 H 0.57146 0.07886 0.53476
 H2031 H 0.59347 0.12560 0.51695
 H2032 H 0.58582 0.11716 0.54858
 C2033 C 0.55266 0.63125 0.02352
 C2034 C 0.54507 0.64154 0.04514
 C2035 C 0.53096 0.62696 0.06038
 C2036 C 0.52264 0.60429 0.05274
 C2037 C 0.52841 0.59547 0.02975
 C2038 C 0.54461 0.60888 0.01608
 C2039 C 0.54333 0.61655 -0.00951
 C2040 C 0.55216 0.64111 -0.00134
 H2041 H 0.52607 0.63302 0.07814
 H2042 H 0.51152 0.59385 0.06475
 H2043 H 0.52471 0.61678 -0.01651
 H2044 H 0.55648 0.60682 -0.02088
 H2045 H 0.53868 0.65562 -0.00358
 H2046 H 0.57037 0.64547 -0.00807
 C2047 C 0.72353 0.11690 0.55300
 C2048 C 0.70111 0.10750 0.54606
 C2049 C 0.68720 0.12241 0.53080
 C2050 C 0.69637 0.14403 0.52150
 C2051 C 0.71959 0.15193 0.52729
 C2052 C 0.73237 0.13844 0.54399
 C2053 C 0.75734 0.12928 0.54254
 C2054 C 0.74786 0.10564 0.55226
 H2055 H 0.66900 0.11806 0.52603
 H2056 H 0.68520 0.15451 0.50964
 H2057 H 0.76946 0.13875 0.55522
 H2058 H 0.76400 0.12801 0.52380
 H2059 H 0.75488 0.10150 0.57042
 H2060 H 0.74898 0.09058 0.53918
 C2061 C 0.72613 0.61911 0.05411
 C2062 C 0.70321 0.61065 0.04825
 C2063 C 0.68778 0.62694 0.03645
 C2064 C 0.69623 0.64931 0.02828
 C2065 C 0.72021 0.65624 0.03203
 C2066 C 0.73436 0.64136 0.04637
 C2067 C 0.75901 0.63204 0.04207
 C2068 C 0.75001 0.60766 0.05053
 H2069 H 0.66924 0.62241 0.03316
 H2070 H 0.68404 0.66099 0.01869
 H2071 H 0.77230 0.64026 0.05443
 H2072 H 0.76409 0.63234 0.02280
 H2073 H 0.75820 0.60187 0.06773
 H2074 H 0.74983 0.59378 0.03618
 C2075 C 0.19884 0.63459 0.72790
 C2076 C 0.21056 0.64756 0.70978
 C2077 C 0.23368 0.63935 0.70327
 C2078 C 0.24249 0.61711 0.71180
 C2079 C 0.22862 0.60281 0.72741
 C2080 C 0.20765 0.61296 0.73644
 C2081 C 0.18332 0.60224 0.73859
 C2082 C 0.17355 0.62594 0.72950
 H2083 H 0.24461 0.64930 0.69074
 H2084 H 0.25948 0.61059 0.70514
 H2085 H 0.17847 0.59847 0.75754
 H2086 H 0.18057 0.58713 0.72583
 H2087 H 0.16325 0.63573 0.74344
 H2088 H 0.16470 0.62454 0.71170
 C2089 C 0.22879 0.13512 0.19934
 C2090 C 0.20580 0.14371 0.20461
 C2091 C 0.19042 0.12805 0.21733
 C2092 C 0.19884 0.10620 0.22669
 C2093 C 0.22277 0.09906 0.22324
 C2094 C 0.23700 0.11329 0.20825
 C2095 C 0.26153 0.12303 0.21239
 C2096 C 0.25255 0.14690 0.20265
 H2097 H 0.17180 0.13249 0.22019
 H2098 H 0.18651 0.09489 0.23656
 H2099 H 0.27503 0.11433 0.20061
 H2100 H 0.26635 0.12371 0.23172
 H2101 H 0.26092 0.15191 0.18528
 H2102 H 0.25212 0.16147 0.21631
 C2103 C 0.69454 1.13025 0.72286
 C2104 C 0.70770 1.14448 0.70663
 C2105 C 0.73147 1.13670 0.70185
 C2106 C 0.74002 1.11445 0.71047
 C2107 C 0.72526 1.09938 0.72435
 C2108 C 0.70307 1.10846 0.73140
 C2109 C 0.67907 1.09678 0.73034
 C2110 C 0.66959 1.12049 0.72091
 H2111 H 0.74364 1.14731 0.69116
 H2112 H 0.75782 1.10866 0.70544
 H2113 H 0.67215 1.09217 0.74845
 H2114 H 0.67821 1.08195 0.71697
 H2115 H 0.65701 1.12932 0.73359
 H2116 H 0.66321 1.11945 0.70206
 C2117 C 0.72759 0.63407 0.19694
 C2118 C 0.70449 0.64230 0.20243
 C2119 C 0.68953 0.62633 0.21527
 C2120 C 0.69859 0.60483 0.22482
 C2121 C 0.72265 0.59820 0.22131
 C2122 C 0.73636 0.61249 0.20591
 C2123 C 0.76082 0.62265 0.20935
 C2124 C 0.75124 0.64626 0.19954
 H2125 H 0.67089 0.63044 0.21838
 H2126 H 0.68670 0.59347 0.23511
 H2127 H 0.77417 0.61400 0.19736
 H2128 H 0.76608 0.62364 0.22855
 H2129 H 0.75912 0.65119 0.18192
 H2130 H 0.75089 0.66099 0.21303
 C2131 C 0.52311 0.11496 0.69810
 C2132 C 0.54651 0.10729 0.70318
 C2133 C 0.56132 0.12365 0.71567
 C2134 C 0.55203 0.14522 0.72490
 C2135 C 0.52787 0.15152 0.72136
 C2136 C 0.51412 0.13662 0.70664
 C2137 C 0.48999 0.12607 0.71115
 C2138 C 0.49980 0.10237 0.70182
 H2139 H 0.58008 0.11998 0.71858
 H2140 H 0.56384 0.15697 0.73482
 H2141 H 0.47611 0.13401 0.69931
 H2142 H 0.48531 0.12561 0.73052
 H2143 H 0.49147 0.09669 0.68463
 H2144 H 0.50086 0.08812 0.71575
 C2145 C 1.02321 0.11817 0.19936
 C2146 C 1.04613 0.10968 0.20529
 C2147 C 1.06119 0.12562 0.21798
 C2148 C 1.05251 0.14771 0.22655
 C2149 C 1.02872 0.15488 0.22220
 C2150 C 1.01481 0.14028 0.20733
 C2151 C 0.99018 0.13072 0.21127
 C2152 C 0.99935 0.10652 0.20256
 H2153 H 1.07969 0.12121 0.22149
 H2154 H 1.06450 0.15913 0.23666
 H2155 H 0.97696 0.13900 0.19891
 H2156 H 0.98492 0.13073 0.23050
 H2157 H 0.99134 0.10089 0.18521
 H2158 H 0.99947 0.09246 0.21672
 C2159 C 0.22695 0.61506 0.54917
 C2160 C 0.20360 0.60726 0.54411
 C2161 C 0.18838 0.62383 0.53243
 C2162 C 0.19721 0.64588 0.52389
 C2163 C 0.22139 0.65228 0.52717
 C2164 C 0.23558 0.63706 0.54109
 C2165 C 0.25972 0.62694 0.53585
 C2166 C 0.25030 0.60286 0.54464
 H2167 H 0.16960 0.61998 0.52983
 H2168 H 0.18504 0.65790 0.51472
 H2169 H 0.27373 0.63471 0.54768
 H2170 H 0.26406 0.62711 0.51639
 H2171 H 0.25896 0.59677 0.56150
 H2172 H 0.24911 0.58902 0.53030
 C2173 C 0.18875 0.12499 1.03013
 C2174 C 0.20281 0.10934 1.04384
 C2175 C 0.22746 0.11491 1.04581
 C2176 C 0.23662 0.13680 1.03684
 C2177 C 0.22146 0.15337 1.02528
 C2178 C 0.19783 0.14628 1.02100
 C2179 C 0.17507 0.15952 1.02567
 C2180 C 0.16511 0.13619 1.03575
 H2181 H 0.23960 0.10284 1.05490
 H2182 H 0.25532 0.14107 1.03965
 H2183 H 0.16616 0.16521 1.00881
 H2184 H 0.17711 0.17390 1.03938
 H2185 H 0.15040 0.12856 1.02471
 H2186 H 0.16144 0.13701 1.05532
 C2187 C 0.19421 0.72486 0.62916
 C2188 C 0.19944 0.70169 0.63761
 C2189 C 0.21137 0.68609 0.62151
 C2190 C 0.22041 0.69466 0.59951
 C2191 C 0.21743 0.71894 0.59280
 C2192 C 0.20275 0.73317 0.60731
 C2193 C 0.20679 0.75790 0.61686
 C2194 C 0.19746 0.74881 0.64081
 H2195 H 0.21433 0.66741 0.62597
 H2196 H 0.23010 0.68237 0.58800
 H2197 H 0.19480 0.77132 0.60832
 H2198 H 0.22605 0.76294 0.61725
 H2199 H 0.18013 0.75707 0.64604
 H2200 H 0.21130 0.74853 0.65513
 C2201 C 0.21885 0.19163 1.12412
 C2202 C 0.20572 0.20634 1.13971
 C2203 C 0.20338 0.23085 1.13331
 C2204 C 0.21157 0.23926 1.11090
 C2205 C 0.22262 0.22344 1.09456
 C2206 C 0.22717 0.19997 1.10227
 C2207 C 0.22204 0.17663 1.09003
 C2208 C 0.21281 0.16750 1.11397
 H2209 H 0.19472 0.24347 1.14525
 H2210 H 0.20864 0.25790 1.10612
 H2211 H 0.23867 0.16746 1.08406
 H2212 H 0.20788 0.17815 1.07613
 H2213 H 0.22408 0.15296 1.12166
 H2214 H 0.19325 0.16383 1.11401
 C2215 C 0.71893 0.55780 0.12397
 C2216 C 0.70476 0.54378 0.10860
 C2217 C 0.70178 0.51926 0.11493
 C2218 C 0.71022 0.51039 0.13712
 C2219 C 0.72241 0.52566 0.15316
 C2220 C 0.72765 0.54895 0.14541
 C2221 C 0.72406 0.57233 0.15805
 C2222 C 0.71435 0.58208 0.13460
 H2223 H 0.69244 0.50694 0.10320
 H2224 H 0.70664 0.49188 0.14196
 H2225 H 0.74132 0.58068 0.16341
 H2226 H 0.71038 0.57125 0.17249
 H2227 H 0.72596 0.59626 0.12674
 H2228 H 0.69498 0.58657 0.13536
 C2229 C 0.71938 1.05820 0.62316
 C2230 C 0.70618 1.04339 0.60769
 C2231 C 0.70531 1.01858 0.61334
 C2232 C 0.71467 1.00993 0.63518
 C2233 C 0.72567 1.02578 0.65152
 C2234 C 0.72898 1.04962 0.64434
 C2235 C 0.72349 1.07237 0.65749
 C2236 C 0.71290 1.08179 0.63426
 H2237 H 0.69677 1.00588 0.60140
 H2238 H 0.71254 0.99110 0.63963
 H2239 H 0.73998 1.08207 0.66303
 H2240 H 0.70999 1.06984 0.67193
 H2241 H 0.72327 1.09699 0.62654
 H2242 H 0.69323 1.08466 0.63517
 C2243 C 0.52313 0.19744 0.61591
 C2244 C 0.54678 0.20114 0.60836
 C2245 C 0.56234 0.21264 0.62476
 C2246 C 0.55358 0.22253 0.64626
 C2247 C 0.52914 0.22078 0.65219
 C2248 C 0.51461 0.20674 0.63735
 C2249 C 0.49078 0.21243 0.62673
 C2250 C 0.50012 0.20223 0.60324
 H2251 H 0.58126 0.21434 0.62108
 H2252 H 0.56597 0.23152 0.65821
 H2253 H 0.48718 0.23208 0.62602
 H2254 H 0.47625 0.20142 0.63478
 H2255 H 0.50198 0.21594 0.58886
 H2256 H 0.49093 0.18535 0.59778
 C2257 C 1.05978 0.22522 0.12201
 C2258 C 1.04704 0.20769 0.10889
 C2259 C 1.02318 0.20332 0.11650
 C2260 C 1.01414 0.21356 0.13778
 C2261 C 1.02853 0.22860 0.15215
 C2262 C 1.05083 0.23522 0.14300
 C2263 C 1.07465 0.23525 0.15498
 C2264 C 1.08461 0.22442 0.13211
 H2265 H 1.01131 0.19176 0.10644
 H2266 H 0.99628 0.20870 0.14353
 H2267 H 1.07542 0.22278 0.17053
 H2268 H 1.08129 0.25376 0.15854
 H2269 H 1.09139 0.20577 0.13441
 H2270 H 1.09698 0.23687 0.12268
 C2271 C 0.63099 0.22493 0.69518
 C2272 C 0.64022 0.20251 0.70209
 C2273 C 0.62557 0.18823 0.71711
 C2274 C 0.60426 0.19742 0.72688
 C2275 C 0.59643 0.22086 0.72136
 C2276 C 0.60958 0.23373 0.70431
 C2277 C 0.61897 0.25883 0.70545
 C2278 C 0.64239 0.24920 0.69548
 H2279 H 0.63045 0.17000 0.72166
 H2280 H 0.59399 0.18612 0.73882
 H2281 H 0.62048 0.26566 0.72412
 H2282 H 0.60950 0.27098 0.69281
 H2283 H 0.65752 0.25038 0.70836
 H2284 H 0.64637 0.25589 0.67713
 C2285 C 1.13319 0.22923 0.19757
 C2286 C 1.14224 0.20659 0.20388
 C2287 C 1.12733 0.19182 0.21817
 C2288 C 1.10595 0.20070 0.22797
 C2289 C 1.09838 0.22438 0.22327
 C2290 C 1.11178 0.23780 0.20684
 C2291 C 1.12121 0.26283 0.20880
 C2292 C 1.14467 0.25344 0.19867
 H2293 H 1.13203 0.17337 0.22204
 H2294 H 1.09538 0.18895 0.23922
 H2295 H 1.12261 0.26908 0.22769
 H2296 H 1.11183 0.27537 0.19648
 H2297 H 1.15972 0.25417 0.21167
 H2298 H 1.14877 0.26065 0.18056
 C2299 C 0.11829 0.69503 0.52342
 C2300 C 0.11049 0.70127 0.54651
 C2301 C 0.12707 0.71326 0.56143
 C2302 C 0.14901 0.72146 0.55229
 C2303 C 0.15520 0.71757 0.52810
 C2304 C 0.14015 0.70283 0.51448
 C2305 C 0.13017 0.70663 0.48999
 C2306 C 0.10622 0.69807 0.49977
 H2307 H 0.12304 0.71677 0.58007
 H2308 H 0.16094 0.73121 0.56413
 H2309 H 0.13807 0.69408 0.47666
 H2310 H 0.13018 0.72588 0.48459
 H2311 H 0.10037 0.68060 0.49205
 H2312 H 0.09230 0.71234 0.50008
 C2313 C 0.12580 0.21912 1.05965
 C2314 C 0.10992 0.20516 1.04611
 C2315 C 0.11498 0.20260 1.02137
 C2316 C 0.13656 0.21146 1.01159
 C2317 C 0.15328 0.22345 1.02624
 C2318 C 0.14676 0.22812 1.04997
 C2319 C 0.16047 0.22367 1.07250
 C2320 C 0.13751 0.21369 1.08309
 H2321 H 0.10271 0.19324 1.00963
 H2322 H 0.14047 0.20826 0.99285
 H2323 H 0.16638 0.24069 1.08112
 H2324 H 0.17469 0.20989 1.07024
 H2325 H 0.13040 0.22493 1.09791
 H2326 H 0.13836 0.19408 1.08692
 C2327 C 0.61509 0.52094 0.20505
 C2328 C 0.60620 0.54407 0.20969
 C2329 C 0.62174 0.56020 0.22166
 C2330 C 0.64405 0.55249 0.23043
 C2331 C 0.65183 0.52865 0.22691
 C2332 C 0.63735 0.51353 0.21315
 C2333 C 0.62846 0.48886 0.21877
 C2334 C 0.60407 0.49698 0.20996
 H2335 H 0.61697 0.57885 0.22429
 H2336 H 0.65525 0.56526 0.23981
 H2337 H 0.62891 0.48479 0.23828
 H2338 H 0.63678 0.47499 0.20709
 H2339 H 0.59032 0.49771 0.22435
 H2340 H 0.59838 0.48768 0.19327
 C2341 C 0.62325 1.02736 0.69133
 C2342 C 0.60733 1.04047 0.70568
 C2343 C 0.61341 1.04307 0.73020
 C2344 C 0.63592 1.03551 0.73884
 C2345 C 0.65259 1.02467 0.72331
 C2346 C 0.64515 1.01956 0.69993
 C2347 C 0.65745 1.02458 0.67669
 C2348 C 0.63345 1.03318 0.66725
 H2349 H 0.60126 1.05168 0.74260
 H2350 H 0.64053 1.03885 0.75740
 H2351 H 0.66385 1.00786 0.66784
 H2352 H 0.67102 1.03916 0.67813
 H2353 H 0.62610 1.02142 0.65291
 H2354 H 0.63305 1.05276 0.66324
 C2355 C 0.87400 0.43968 0.28284
 C2356 C 0.88961 0.45416 0.29619
 C2357 C 0.88446 0.47906 0.29711
 C2358 C 0.86288 0.48815 0.28774
 C2359 C 0.84621 0.47265 0.27677
 C2360 C 0.85296 0.44869 0.27328
 C2361 C 0.83952 0.42612 0.27869
 C2362 C 0.86255 0.41626 0.28923
 H2363 H 0.89662 0.49148 0.30575
 H2364 H 0.85887 0.50707 0.28989
 H2365 H 0.83388 0.41663 0.26212
 H2366 H 0.82517 0.42880 0.29224
 H2367 H 0.87002 0.40100 0.27875
 H2368 H 0.86161 0.41329 0.30892
 C2369 C 0.87698 0.94254 0.78124
 C2370 C 0.89215 0.95686 0.79525
 C2371 C 0.88588 0.98147 0.79754
 C2372 C 0.86378 0.99012 0.78884
 C2373 C 0.84769 0.97456 0.77710
 C2374 C 0.85553 0.95117 0.77229
 C2375 C 0.84311 0.92775 0.77628
 C2376 C 0.86657 0.91829 0.78621
 H2377 H 0.89757 0.99402 0.80660
 H2378 H 0.85902 1.00873 0.79196
 H2379 H 0.83788 0.91911 0.75910
 H2380 H 0.82868 0.92897 0.78995
 H2381 H 0.87463 0.90403 0.77482
 H2382 H 0.86581 0.91411 0.80568
 C2383 C 0.36977 0.27465 0.80326
 C2384 C 0.35684 0.29245 0.79106
 C2385 C 0.36497 0.29833 0.76772
 C2386 C 0.38695 0.28933 0.75895
 C2387 C 0.40115 0.27390 0.77310
 C2388 C 0.39119 0.26565 0.79452
 C2389 C 0.40200 0.26437 0.81886
 C2390 C 0.37854 0.27399 0.82855
 H2391 H 0.35502 0.31061 0.75650
 H2392 H 0.39329 0.29539 0.74163
 H2393 H 0.41710 0.27721 0.82098
 H2394 H 0.40565 0.24553 0.82435
 H2395 H 0.38010 0.29218 0.83670
 H2396 H 0.36882 0.26048 0.83950
 C2397 C 0.86719 0.27296 0.29699
 C2398 C 0.85991 0.29694 0.29413
 C2399 C 0.87729 0.31333 0.28556
 C2400 C 0.89979 0.30523 0.27766
 C2401 C 0.90574 0.28063 0.27858
 C2402 C 0.88957 0.26506 0.28966
 C2403 C 0.87989 0.24159 0.28104
 C2404 C 0.85536 0.25024 0.28902
 H2405 H 0.87370 0.33241 0.28480
 H2406 H 0.91247 0.31823 0.27073
 H2407 H 0.88668 0.22623 0.29180
 H2408 H 0.88151 0.23940 0.26129
 H2409 H 0.84804 0.23976 0.30431
 H2410 H 0.84272 0.25313 0.27392
 C2411 C 0.38203 0.77158 0.44649
 C2412 C 0.39099 0.79427 0.45282
 C2413 C 0.37583 0.80918 0.46666
 C2414 C 0.35407 0.80047 0.47588
 C2415 C 0.34655 0.77670 0.47125
 C2416 C 0.36035 0.76309 0.45532
 C2417 C 0.36975 0.73812 0.45792
 C2418 C 0.39346 0.74742 0.44827
 H2419 H 0.38066 0.82762 0.47052
 H2420 H 0.34314 0.81242 0.48661
 H2421 H 0.36071 0.72533 0.44556
 H2422 H 0.37067 0.73221 0.47693
 H2423 H 0.39805 0.73992 0.43038
 H2424 H 0.40817 0.74693 0.46167
 C2425 C 0.37728 0.30754 0.96982
 C2426 C 0.39346 0.29263 0.95766
 C2427 C 0.38754 0.26788 0.95622
 C2428 C 0.36494 0.25945 0.96386
 C2429 C 0.34807 0.27546 0.97368
 C2430 C 0.35536 0.29916 0.97777
 C2431 C 0.34299 0.32213 0.97160
 C2432 C 0.36702 0.33135 0.96281
 H2433 H 0.39985 0.25510 0.94840
 H2434 H 0.36043 0.24067 0.96139
 H2435 H 0.33639 0.33172 0.98779
 H2436 H 0.32957 0.31994 0.95705
 H2437 H 0.37416 0.34633 0.97391
 H2438 H 0.36759 0.33446 0.94313
 C2439 C 0.81055 0.46994 0.37653
 C2440 C 0.79594 0.45667 0.39211
 C2441 C 0.77129 0.45552 0.38647
 C2442 C 0.76259 0.46461 0.36455
 C2443 C 0.77822 0.47551 0.34796
 C2444 C 0.80193 0.47919 0.35513
 C2445 C 0.82467 0.47376 0.34216
 C2446 C 0.83413 0.46361 0.36560
 H2447 H 0.75876 0.44694 0.39853
 H2448 H 0.74383 0.46235 0.36027
 H2449 H 0.83412 0.49037 0.33638
 H2450 H 0.82237 0.45993 0.32794
 H2451 H 0.84905 0.47438 0.37325
 H2452 H 0.83730 0.44387 0.36500
 C2453 C 0.80891 0.97078 0.87658
 C2454 C 0.79365 0.95885 0.89262
 C2455 C 0.76906 0.95809 0.88659
 C2456 C 0.76102 0.96608 0.86402
 C2457 C 0.77727 0.97556 0.84720
 C2458 C 0.80091 0.97905 0.85459
 C2459 C 0.82370 0.97237 0.84232
 C2460 C 0.83249 0.96323 0.86641
 H2461 H 0.75604 0.95067 0.89888
 H2462 H 0.74227 0.96421 0.85950
 H2463 H 0.83367 0.98841 0.83587
 H2464 H 0.82127 0.95788 0.82878
 H2465 H 0.84759 0.97398 0.87373
 H2466 H 0.83510 0.94341 0.86691
 C2467 C 0.27251 0.79904 0.36512
 C2468 C 0.29622 0.79513 0.35780
 C2469 C 0.31153 0.78373 0.37445
 C2470 C 0.30255 0.77438 0.39606
 C2471 C 0.27811 0.77655 0.40190
 C2472 C 0.26375 0.79026 0.38668
 C2473 C 0.24001 0.78431 0.37602
 C2474 C 0.24958 0.79390 0.35239
 H2475 H 0.33048 0.78194 0.37100
 H2476 H 0.31481 0.76554 0.40823
 H2477 H 0.22545 0.79555 0.38369
 H2478 H 0.23635 0.76465 0.37576
 H2479 H 0.24044 0.81060 0.34644
 H2480 H 0.25155 0.77981 0.33837
 C2481 C 0.30794 0.27857 0.87031
 C2482 C 0.29395 0.29288 0.85514
 C2483 C 0.26955 0.29571 0.86125
 C2484 C 0.26056 0.28671 0.88315
 C2485 C 0.27569 0.27439 0.89920
 C2486 C 0.29904 0.26952 0.89166
 C2487 C 0.32208 0.27378 0.90454
 C2488 C 0.33183 0.28375 0.88118
 H2489 H 0.25759 0.30559 0.84963
 H2490 H 0.24212 0.29025 0.88792
 H2491 H 0.33078 0.25670 0.91008
 H2492 H 0.32052 0.28754 0.91894
 H2493 H 0.34620 0.27240 0.87345
 H2494 H 0.33590 0.30332 0.88197
 C2495 C 0.47371 0.30388 0.87846
 C2496 C 0.45375 0.29350 0.88994
 C2497 C 0.44205 0.27470 0.87736
 C2498 C 0.45106 0.26591 0.85557
 C2499 C 0.47139 0.27619 0.84483
 C2500 C 0.48207 0.29566 0.85645
 C2501 C 0.50761 0.29865 0.86349
 C2502 C 0.49866 0.30752 0.88755
 H2503 H 0.42596 0.26629 0.88392
 H2504 H 0.44201 0.25092 0.84717
 H2505 H 0.51672 0.31285 0.85283
 H2506 H 0.51735 0.28125 0.86454
 H2507 H 0.50298 0.32678 0.89067
 H2508 H 0.50314 0.29528 0.90265
 C2509 C 0.97899 0.29621 0.38601
 C2510 C 0.95537 0.29298 0.39357
 C2511 C 0.94009 0.28123 0.37695
 C2512 C 0.94865 0.27332 0.35439
 C2513 C 0.97277 0.27702 0.34753
 C2514 C 0.98719 0.28856 0.36430
 C2515 C 1.01212 0.29670 0.36885
 C2516 C 1.00294 0.30550 0.39337
 H2517 H 0.92132 0.27865 0.38098
 H2518 H 0.93619 0.26484 0.34215
 H2519 H 1.01774 0.31147 0.35669
 H2520 H 1.02481 0.28138 0.37014
 H2521 H 1.00335 0.32540 0.39515
 H2522 H 1.01050 0.29537 0.40876
 C2523 C 0.47525 0.38017 0.80237
 C2524 C 0.45227 0.38895 0.79670
 C2525 C 0.43943 0.37591 0.77896
 C2526 C 0.44862 0.35477 0.76864
 C2527 C 0.47074 0.34533 0.77605
 C2528 C 0.48411 0.35903 0.79229
 C2529 C 0.49623 0.35139 0.81476
 C2530 C 0.48643 0.37407 0.82606
 H2531 H 0.42153 0.38095 0.77374
 H2532 H 0.43758 0.34501 0.75598
 H2533 H 0.51603 0.35145 0.81298
 H2534 H 0.48841 0.33471 0.82245
 H2535 H 0.50072 0.38702 0.83119
 H2536 H 0.47298 0.37029 0.84028
 C2537 C 0.96782 0.37605 0.31356
 C2538 C 0.95476 0.39192 0.29912
 C2539 C 0.95413 0.38689 0.27425
 C2540 C 0.96351 0.36520 0.26511
 C2541 C 0.97420 0.34828 0.28053
 C2542 C 0.97736 0.35490 0.30450
 C2543 C 0.97158 0.34126 0.32680
 C2544 C 0.96110 0.36441 0.33672
 H2545 H 0.94575 0.39924 0.26186
 H2546 H 0.96166 0.36135 0.24617
 H2547 H 0.98796 0.33544 0.33639
 H2548 H 0.95802 0.32691 0.32385
 H2549 H 0.97144 0.37175 0.35209
 H2550 H 0.94141 0.36357 0.33947
 C2551 C 0.27571 0.87743 0.44108
 C2552 C 0.28946 0.89283 0.45545
 C2553 C 0.29190 0.88644 0.47990
 C2554 C 0.28379 0.86392 0.48835
 C2555 C 0.27255 0.84756 0.47267
 C2556 C 0.26738 0.85554 0.44948
 C2557 C 0.27152 0.84341 0.42595
 C2558 C 0.28070 0.86741 0.41672
 H2559 H 0.30092 0.89828 0.49236
 H2560 H 0.28716 0.85898 0.50680
 H2561 H 0.25451 0.83767 0.41735
 H2562 H 0.28558 0.82930 0.42687
 H2563 H 0.26899 0.87540 0.40275
 H2564 H 0.30011 0.86726 0.41233
 C2565 C 0.28348 0.37531 0.93736
 C2566 C 0.29691 0.39087 0.95183
 C2567 C 0.29755 0.38575 0.97669
 C2568 C 0.28782 0.36419 0.98575
 C2569 C 0.27668 0.34760 0.97029
 C2570 C 0.27354 0.35434 0.94636
 C2571 C 0.27890 0.34062 0.92396
 C2572 C 0.28986 0.36360 0.91411
 H2573 H 0.30617 0.39790 0.98912
 H2574 H 0.28978 0.36014 1.00463
 H2575 H 0.26236 0.33507 0.91438
 H2576 H 0.29218 0.32601 0.92680
 H2577 H 0.27963 0.37120 0.89881
 H2578 H 0.30951 0.36236 0.91129
 C2579 C 0.79618 0.36709 0.27248
 C2580 C 0.79528 0.35958 0.29634
 C2581 C 0.78488 0.37617 0.31267
 C2582 C 0.77579 0.39861 0.30476
 C2583 C 0.77703 0.40528 0.28032
 C2584 C 0.78749 0.38864 0.26497
 C2585 C 0.79321 0.38409 0.23935
 C2586 C 0.80309 0.35966 0.24772
 H2587 H 0.78414 0.37219 0.33163
 H2588 H 0.76835 0.41089 0.31786
 H2589 H 0.80716 0.39650 0.23238
 H2590 H 0.77684 0.38255 0.22815
 H2591 H 0.82277 0.35811 0.24536
 H2592 H 0.79247 0.34405 0.24125
   
