data_POSCAR
  _audit_creation_date              2014-09-24
  _audit_creation_method            'ToBaCCo'
  _symmetry_space_group_name_H-M    'P1'
  _symmetry_Int_Tables_number       1
  _symmetry_cell_setting            triclinic
  loop_
  _symmetry_equiv_pos_as_xyz
 x,y,z
_cell_length_a 65.6563
_cell_length_b 66.2281
_cell_length_c 69.1543
_cell_angle_alpha 90.266500
_cell_angle_beta 89.950100
_cell_angle_gamma 89.580700
loop_
  _atom_site_label
  _atom_site_type_symbol
  _atom_site_fract_x
  _atom_site_fract_y
  _atom_site_fract_z
C1 C 0.42598 0.01296 0.27676
 H2 H 0.42892 0.02528 0.26695
 C3 C 0.43725 0.01120 0.29391
 H4 H 0.44875 0.02231 0.29724
 C5 C 0.40676 -0.01589 0.28486
 H6 H 0.39456 -0.02620 0.28174
 C7 C 0.41762 -0.01824 0.30200
 H8 H 0.41388 -0.03068 0.31143
 N9 N 0.41108 -0.00057 0.27251
 C10 C 0.40026 0.00169 0.21001
 H11 H 0.38379 0.00133 0.21039
 C12 C 0.41031 0.00385 0.19239
 H13 H 0.40147 0.00484 0.17922
 C14 C 0.43167 0.00135 0.22684
 H15 H 0.43991 0.00062 0.24033
 C16 C 0.44242 0.00332 0.20941
 H17 H 0.45888 0.00421 0.20965
 Zn18 Zn 0.39482 0.00214 0.24972
 N19 N 0.41092 0.00119 0.22683
 C20 C 0.38472 0.04170 0.23680
 N21 N 0.38088 0.02767 0.25065
 C22 C 0.36756 0.03176 0.26526
 C23 C 0.35686 0.05013 0.26580
 C24 C 0.37448 0.06027 0.23685
 C25 C 0.38412 -0.03869 0.24697
 C26 C 0.37183 -0.05573 0.24874
 C27 C 0.34267 -0.03369 0.25230
 C28 C 0.35564 -0.01710 0.25064
 N29 N 0.37606 -0.01983 0.24868
 H30 H 0.39590 0.03867 0.22569
 H31 H 0.36502 0.02061 0.27637
 H32 H 0.34590 0.05274 0.27726
 H33 H 0.37801 0.07117 0.22575
 H34 H 0.40037 -0.04052 0.24492
 H35 H 0.37925 -0.07021 0.24692
 H36 H 0.32684 -0.03031 0.25508
 H37 H 0.34934 -0.00203 0.25156
 C38 C 0.43164 0.00522 0.19197
 C39 C 0.43295 -0.00449 0.30690
 C40 C 0.35057 -0.05373 0.25202
 C41 C 0.36014 0.06469 0.25136
 C42 C 0.07996 0.01041 0.72457
 H43 H 0.07812 0.02140 0.73607
 C44 C 0.06750 0.01145 0.70818
 H45 H 0.05598 0.02319 0.70746
 C46 C 0.09693 -0.01840 0.71195
 H47 H 0.10860 -0.02988 0.71326
 C48 C 0.08500 -0.01777 0.69522
 H49 H 0.08791 -0.02873 0.68388
 N50 N 0.09401 -0.00465 0.72640
 C51 C 0.10168 -0.01211 0.78884
 H52 H 0.11813 -0.01309 0.78941
 C53 C 0.09032 -0.01350 0.80584
 H54 H 0.09819 -0.01544 0.81947
 C55 C 0.07159 -0.00802 0.77037
 H56 H 0.06427 -0.00622 0.75652
 C57 C 0.05961 -0.00920 0.78708
 H58 H 0.04319 -0.00827 0.78587
 Zn59 Zn 0.10967 -0.00654 0.74966
 N60 N 0.09228 -0.00912 0.77158
 C61 C 0.12255 0.02980 0.76803
 N62 N 0.12572 0.01737 0.75255
 C63 C 0.13995 0.02190 0.73896
 C64 C 0.15210 0.03909 0.74101
 C65 C 0.13429 0.04715 0.77060
 C66 C 0.11644 -0.04826 0.74757
 C67 C 0.12733 -0.06643 0.74630
 C68 C 0.15859 -0.04760 0.74826
 C69 C 0.14708 -0.02972 0.74935
 N70 N 0.12636 -0.03032 0.74871
 H71 H 0.11088 0.02636 0.77848
 H72 H 0.14198 0.01206 0.72656
 H73 H 0.16332 0.04238 0.73000
 H74 H 0.13172 0.05652 0.78325
 H75 H 0.09997 -0.04839 0.74741
 H76 H 0.11905 -0.08048 0.74536
 H77 H 0.17505 -0.04678 0.74846
 H78 H 0.15475 -0.01541 0.75066
 C79 C 0.06898 -0.01192 0.80513
 C80 C 0.06982 -0.00285 0.69319
 C81 C 0.14872 -0.06630 0.74649
 C82 C 0.14946 0.05196 0.75709
 C83 C 0.57146 0.52457 0.21960
 H84 H 0.56951 0.53584 0.23084
 C85 C 0.55839 0.52449 0.20360
 H86 H 0.54633 0.53567 0.20281
 C87 C 0.58941 0.49623 0.20719
 H88 H 0.60172 0.48542 0.20835
 C89 C 0.57685 0.49569 0.19092
 H90 H 0.57989 0.48453 0.17979
 N91 N 0.58638 0.51032 0.22130
 C92 C 0.59834 0.50583 0.28347
 H93 H 0.61482 0.50562 0.28311
 C94 C 0.58817 0.50578 0.30121
 H95 H 0.59709 0.50566 0.31436
 C96 C 0.56700 0.50732 0.26664
 H97 H 0.55875 0.50783 0.25315
 C98 C 0.55617 0.50720 0.28411
 H99 H 0.53969 0.50748 0.28378
 Zn100 Zn 0.60353 0.50996 0.24359
 N101 N 0.58775 0.50716 0.26664
 C102 C 0.61524 0.54735 0.26050
 N103 N 0.61829 0.53491 0.24500
 C104 C 0.63140 0.54017 0.23065
 C105 C 0.64278 0.55797 0.23207
 C106 C 0.62621 0.56523 0.26247
 C107 C 0.61283 0.46851 0.24245
 C108 C 0.62464 0.45104 0.23981
 C109 C 0.65431 0.47200 0.23637
 C110 C 0.64193 0.48908 0.23916
 N111 N 0.62150 0.48710 0.24177
 H112 H 0.60419 0.54356 0.27142
 H113 H 0.63329 0.53037 0.21821
 H114 H 0.65356 0.56150 0.22076
 H115 H 0.62336 0.57482 0.27492
 H116 H 0.59658 0.46728 0.24471
 H117 H 0.61734 0.43647 0.24050
 H118 H 0.67042 0.47405 0.23378
 H119 H 0.64870 0.50387 0.23892
 C120 C 0.56677 0.50672 0.30176
 C121 C 0.56093 0.50982 0.18897
 C122 C 0.64571 0.45259 0.23651
 C123 C 0.64046 0.57070 0.24830
 C124 C 0.91887 0.51157 0.77861
 H125 H 0.91933 0.52456 0.76925
 C126 C 0.93094 0.51121 0.79534
 H127 H 0.94100 0.52379 0.79781
 C128 C 0.90516 0.47977 0.78630
 H129 H 0.89463 0.46776 0.78332
 C130 C 0.91707 0.47864 0.80299
 H131 H 0.91487 0.46577 0.81230
 N132 N 0.90648 0.49584 0.77419
 C133 C 0.90433 0.48138 0.71462
 H134 H 0.89253 0.47030 0.71645
 C135 C 0.91583 0.48113 0.69762
 H136 H 0.91304 0.46936 0.68706
 C137 C 0.92195 0.51012 0.72588
 H138 H 0.92400 0.52173 0.73668
 C139 C 0.93366 0.51059 0.70892
 H140 H 0.94455 0.52260 0.70700
 Zn141 Zn 0.89027 0.49625 0.75099
 N142 N 0.90750 0.49571 0.72844
 C143 C 0.87433 0.53254 0.73469
 N144 N 0.87398 0.52042 0.75054
 C145 C 0.86212 0.52523 0.76605
 C146 C 0.84991 0.54267 0.76593
 C147 C 0.86255 0.55024 0.73405
 C148 C 0.88197 0.45423 0.75013
 C149 C 0.87020 0.43674 0.75080
 C150 C 0.84003 0.45765 0.75267
 C151 C 0.85240 0.47478 0.75187
 N152 N 0.87303 0.47284 0.75083
 H153 H 0.88371 0.52850 0.72241
 H154 H 0.86199 0.51537 0.77849
 H155 H 0.84028 0.54580 0.77831
 H156 H 0.86353 0.55973 0.72140
 H157 H 0.89839 0.45297 0.74921
 H158 H 0.87776 0.42218 0.75001
 H159 H 0.82371 0.45964 0.75393
 H160 H 0.84544 0.48960 0.75229
 C161 C 0.93056 0.49605 0.69436
 C162 C 0.93044 0.49443 0.80792
 C163 C 0.84889 0.43823 0.75222
 C164 C 0.85001 0.55559 0.74979
 C165 C 0.22665 0.39197 1.00444
 H166 H 0.24084 0.39996 1.00295
 C167 C 0.20819 0.40260 1.00290
 H168 H 0.20842 0.41866 1.00010
 C169 C 0.20897 0.36140 1.00945
 H170 H 0.20940 0.34525 1.01169
 C171 C 0.19023 0.37136 1.00781
 H172 H 0.17632 0.36282 1.00923
 N173 N 0.22671 0.37161 1.00704
 C174 C 0.29043 0.36738 1.01655
 H175 H 0.28891 0.35567 1.02724
 C176 C 0.30847 0.37838 1.01584
 H177 H 0.32046 0.37487 1.02605
 C178 C 0.27739 0.38494 0.98949
 H179 H 0.26532 0.38723 0.97907
 C180 C 0.29520 0.39644 0.98835
 H181 H 0.29640 0.40777 0.97719
 Zn182 Zn 0.25080 0.35523 1.00548
 N183 N 0.27513 0.37097 1.00369
 C184 C 0.26301 0.32416 0.97877
 N185 N 0.24870 0.33851 0.98299
 C186 C 0.23270 0.34184 0.97089
 C187 C 0.23036 0.33038 0.95414
 C188 C 0.26128 0.31231 0.96198
 C189 C 0.25294 0.35077 1.04511
 C190 C 0.25597 0.34135 1.06285
 C191 C 0.25614 0.30908 1.04646
 C192 C 0.25332 0.31920 1.02888
 N193 N 0.25218 0.33973 1.02852
 H194 H 0.27584 0.32200 0.98836
 H195 H 0.22179 0.35367 0.97394
 H196 H 0.21732 0.33328 0.94496
 H197 H 0.27295 0.30118 0.95868
 H198 H 0.25200 0.36707 1.04441
 H199 H 0.25750 0.35070 1.07563
 H200 H 0.25704 0.29276 1.04646
 H201 H 0.25233 0.31065 1.01558
 C202 C 0.31109 0.39328 1.00170
 C203 C 0.18964 0.39217 1.00405
 C204 C 0.25775 0.32020 1.06378
 C205 C 0.24481 0.31548 0.94933
 C206 C 0.77053 0.10840 0.99293
 H207 H 0.75649 0.10101 0.99676
 C208 C 0.78852 0.09700 0.99123
 H209 H 0.78757 0.08091 0.99358
 C210 C 0.78796 0.13802 0.98398
 H211 H 0.78762 0.15407 0.98114
 C212 C 0.80618 0.12723 0.98184
 H213 H 0.81964 0.13565 0.97806
 N214 N 0.77059 0.12858 0.98944
 C215 C 0.70856 0.12834 0.97790
 H216 H 0.71092 0.13701 0.96491
 C217 C 0.69091 0.11681 0.97980
 H218 H 0.67992 0.11677 0.96814
 C219 C 0.71960 0.11846 1.00905
 H220 H 0.73084 0.11928 1.02045
 C221 C 0.70210 0.10677 1.01158
 H222 H 0.70021 0.09837 1.02485
 Zn223 Zn 0.74651 0.14490 0.98990
 N224 N 0.72263 0.12877 0.99232
 C225 C 0.74915 0.14754 0.94997
 N226 N 0.74677 0.15911 0.96612
 C227 C 0.74768 0.17962 0.96525
 C228 C 0.75171 0.18921 0.94763
 C229 C 0.75330 0.15645 0.93219
 C230 C 0.76410 0.16383 1.02257
 C231 C 0.76434 0.17580 1.03921
 C232 C 0.72979 0.18626 1.03241
 C233 C 0.73031 0.17421 1.01570
 N234 N 0.74721 0.16309 1.01125
 H235 H 0.74871 0.13126 0.95112
 H236 H 0.74620 0.18851 0.97834
 H237 H 0.75310 0.20548 0.94728
 H238 H 0.75552 0.14689 0.91960
 H239 H 0.77736 0.15484 1.01894
 H240 H 0.77805 0.17613 1.04788
 H241 H 0.71594 0.19437 1.03606
 H242 H 0.71699 0.17323 1.00655
 C243 C 0.68752 0.10568 0.99676
 C244 C 0.80690 0.10626 0.98545
 C245 C 0.74688 0.18689 1.04464
 C246 C 0.75512 0.17752 0.93091
 C247 C 0.26897 0.60752 0.49552
 H248 H 0.25395 0.60116 0.49439
 C249 C 0.28597 0.59496 0.49274
 H250 H 0.28360 0.57923 0.48917
 C251 C 0.29024 0.63554 0.50132
 H252 H 0.29190 0.65131 0.50498
 C253 C 0.30766 0.62351 0.49880
 H254 H 0.32249 0.63026 0.50069
 N255 N 0.27131 0.62754 0.49938
 C256 C 0.21068 0.63368 0.51788
 H257 H 0.21478 0.64435 0.52903
 C258 C 0.19256 0.62294 0.51983
 H259 H 0.18307 0.62568 0.53239
 C260 C 0.21751 0.61785 0.48783
 H261 H 0.22728 0.61588 0.47535
 C262 C 0.19946 0.60674 0.48922
 H263 H 0.19572 0.59616 0.47781
 Zn264 Zn 0.24833 0.64550 0.50154
 N265 N 0.22300 0.63084 0.50222
 C266 C 0.23546 0.66248 0.46556
 N267 N 0.24924 0.66375 0.48020
 C268 C 0.26493 0.67706 0.47929
 C269 C 0.26781 0.68898 0.46289
 C270 C 0.23788 0.67398 0.44881
 C271 C 0.25444 0.64896 0.54126
 C272 C 0.25269 0.65768 0.55959
 C273 C 0.24380 0.68942 0.54459
 C274 C 0.24550 0.68000 0.52647
 N275 N 0.25038 0.66001 0.52519
 H276 H 0.22291 0.65210 0.46654
 H277 H 0.27551 0.67820 0.49118
 H278 H 0.28082 0.69890 0.46222
 H279 H 0.22705 0.67235 0.43711
 H280 H 0.25806 0.63306 0.53985
 H281 H 0.25534 0.64847 0.57224
 H282 H 0.23912 0.70511 0.54547
 H283 H 0.24194 0.68840 0.51353
 C284 C 0.18676 0.60906 0.50550
 C285 C 0.30572 0.60291 0.49426
 C286 C 0.24682 0.67803 0.56143
 C287 C 0.25448 0.68714 0.44715
 C288 C 0.72726 0.89308 0.50632
 H289 H 0.74201 0.90005 0.50508
 C290 C 0.70962 0.90505 0.50486
 H291 H 0.71108 0.92110 0.50236
 C292 C 0.70734 0.86376 0.51043
 H293 H 0.70656 0.84757 0.51227
 C294 C 0.68939 0.87510 0.50893
 H295 H 0.67488 0.86752 0.51006
 N296 N 0.72582 0.87271 0.50844
 C297 C 0.78846 0.86449 0.51991
 H298 H 0.78567 0.85291 0.53048
 C299 C 0.80716 0.87444 0.52013
 H300 H 0.81835 0.87030 0.53091
 C301 C 0.77795 0.88283 0.49235
 H302 H 0.76658 0.88587 0.48141
 C303 C 0.79648 0.89321 0.49207
 H304 H 0.79898 0.90444 0.48101
 Zn305 Zn 0.74875 0.85474 0.50661
 N306 N 0.77412 0.86897 0.50633
 C307 C 0.76003 0.82494 0.47819
 N308 N 0.74628 0.83960 0.48310
 C309 C 0.73071 0.84448 0.47097
 C310 C 0.72835 0.83446 0.45338
 C311 C 0.75825 0.81450 0.46056
 C312 C 0.74880 0.84755 0.54602
 C313 C 0.75028 0.83677 0.56322
 C314 C 0.74944 0.80574 0.54480
 C315 C 0.74820 0.81719 0.52782
 N316 N 0.74827 0.83774 0.52873
 H317 H 0.77253 0.82152 0.48785
 H318 H 0.72019 0.85647 0.47465
 H319 H 0.71570 0.83863 0.44414
 H320 H 0.76952 0.80316 0.45672
 H321 H 0.74882 0.86388 0.54635
 H322 H 0.75166 0.84513 0.57663
 H323 H 0.74936 0.78943 0.54378
 H324 H 0.74743 0.80964 0.51397
 C325 C 0.81143 0.88911 0.50614
 C326 C 0.69033 0.89597 0.50561
 C327 C 0.75072 0.81553 0.56287
 C328 C 0.74230 0.81939 0.44779
 C329 C 0.01175 0.27430 0.39387
 H330 H 0.02448 0.26401 0.39566
 C331 C 0.01124 0.29251 0.40399
 H332 H 0.02345 0.29595 0.41396
 C333 C -0.01948 0.28231 0.37838
 H334 H -0.03104 0.27859 0.36789
 C335 C -0.02049 0.30077 0.38803
 H336 H -0.03295 0.31103 0.38489
 N337 N -0.00355 0.26952 0.38150
 C338 C 0.00261 0.20515 0.37307
 H339 H 0.00282 0.20477 0.35743
 C340 C 0.00279 0.18723 0.38342
 H341 H 0.00267 0.17327 0.37525
 C342 C 0.00051 0.22429 0.40202
 H343 H -0.00078 0.23877 0.40915
 C344 C 0.00060 0.20673 0.41301
 H345 H 0.00034 0.20832 0.42858
 Zn346 Zn -0.00062 0.24589 0.36680
 N347 N 0.00160 0.22314 0.38245
 C348 C 0.03846 0.23594 0.35236
 N349 N 0.02260 0.24920 0.35161
 C350 C 0.02334 0.26617 0.34066
 C351 C 0.04063 0.27038 0.32978
 C352 C 0.05595 0.23944 0.34154
 C353 C -0.04155 0.23986 0.36042
 C354 C -0.05937 0.23783 0.34977
 C355 C -0.03924 0.23849 0.32045
 C356 C -0.02182 0.24076 0.33169
 N357 N -0.02341 0.24195 0.35124
 H358 H 0.03775 0.22286 0.36158
 H359 H 0.01053 0.27653 0.34061
 H360 H 0.04111 0.28398 0.32115
 H361 H 0.06863 0.22894 0.34246
 H362 H -0.04219 0.24048 0.37605
 H363 H -0.07380 0.23737 0.35733
 H364 H -0.03778 0.23782 0.30486
 H365 H -0.00709 0.24175 0.32479
 C366 C 0.00161 0.18767 0.40380
 C367 C -0.00493 0.30611 0.40095
 C368 C -0.05837 0.23754 0.32949
 C369 C 0.05715 0.25690 0.33020
 C370 C 0.02328 0.72560 0.10815
 H371 H 0.03625 0.73541 0.10995
 C372 C 0.02464 0.70882 0.09600
 H373 H 0.03866 0.70602 0.08814
 C374 C -0.01078 0.71751 0.11631
 H375 H -0.02438 0.72071 0.12459
 C376 C -0.00999 0.70041 0.10456
 H377 H -0.02307 0.69057 0.10403
 N378 N 0.00566 0.72975 0.11774
 C379 C 0.00624 0.79365 0.13071
 H380 H 0.00278 0.79322 0.14601
 C381 C 0.00681 0.81208 0.12114
 H382 H 0.00369 0.82585 0.12914
 C383 C 0.01291 0.77599 0.10144
 H384 H 0.01465 0.76192 0.09369
 C385 C 0.01367 0.79407 0.09131
 H386 H 0.01645 0.79373 0.07587
 Zn387 Zn 0.00507 0.75210 0.13439
 N388 N 0.00918 0.77612 0.12077
 C389 C 0.03872 0.76296 0.15728
 N390 N 0.02529 0.74811 0.15297
 C391 C 0.02636 0.72966 0.16147
 C392 C 0.04159 0.72549 0.17492
 C393 C 0.05389 0.75958 0.17091
 C394 C -0.03643 0.75920 0.13487
 C395 C -0.05559 0.76256 0.14291
 C396 C -0.04111 0.75664 0.17452
 C397 C -0.02225 0.75338 0.16578
 N398 N -0.02034 0.75460 0.14632
 H399 H 0.03785 0.77735 0.15008
 H400 H 0.01550 0.71813 0.15758
 H401 H 0.04257 0.71069 0.18147
 H402 H 0.06468 0.77143 0.17412
 H403 H -0.03431 0.76023 0.11939
 H404 H -0.06792 0.76511 0.13288
 H405 H -0.04137 0.75650 0.19012
 H406 H -0.00904 0.75035 0.17464
 C407 C 0.01022 0.81236 0.10113
 C408 C 0.00787 0.69593 0.09414
 C409 C -0.05849 0.76138 0.16319
 C410 C 0.05545 0.74064 0.17975
 C411 C 0.50421 0.22186 0.59989
 H412 H 0.51858 0.22965 0.59865
 C413 C 0.50007 0.20557 0.58790
 H414 H 0.51145 0.20058 0.57754
 C415 C 0.47207 0.21875 0.61529
 H416 H 0.46134 0.22391 0.62611
 C417 C 0.46738 0.20211 0.60370
 H418 H 0.45295 0.19452 0.60554
 N419 N 0.49012 0.22838 0.61291
 C420 C 0.50698 0.29097 0.61773
 H421 H 0.50995 0.29232 0.63307
 C422 C 0.50906 0.30767 0.60575
 H423 H 0.51349 0.32202 0.61197
 C424 C 0.49659 0.27078 0.59114
 H425 H 0.49120 0.25657 0.58553
 C426 C 0.49852 0.28703 0.57865
 H427 H 0.49509 0.28498 0.56346
 Zn428 Zn 0.49782 0.25117 0.62705
 N429 N 0.50106 0.27296 0.61022
 C430 C 0.53975 0.25444 0.63518
 N431 N 0.52229 0.24444 0.63924
 C432 C 0.52201 0.22855 0.65161
 C433 C 0.53970 0.22268 0.66121
 C434 C 0.55782 0.24895 0.64430
 C435 C 0.45920 0.26318 0.63858
 C436 C 0.44342 0.26726 0.65148
 C437 C 0.46715 0.26301 0.67793
 C438 C 0.48247 0.25900 0.66449
 N439 N 0.47805 0.25844 0.64529
 H440 H 0.53973 0.26661 0.62485
 H441 H 0.50793 0.22060 0.65415
 H442 H 0.53928 0.21018 0.67124
 H443 H 0.57157 0.25731 0.64127
 H444 H 0.45630 0.26303 0.62318
 H445 H 0.42822 0.26984 0.64592
 H446 H 0.47071 0.26280 0.69321
 H447 H 0.49777 0.25599 0.66946
 C448 C 0.50477 0.30576 0.58595
 C449 C 0.48141 0.19562 0.58965
 C450 C 0.44723 0.26666 0.67145
 C451 C 0.55783 0.23303 0.65761
 C452 C 0.51876 0.77388 0.90329
 H453 H 0.53416 0.76977 0.89922
 C454 C 0.51537 0.78979 0.91617
 H455 H 0.52832 0.79799 0.92174
 C456 C 0.48322 0.76929 0.89945
 H457 H 0.47071 0.76163 0.89259
 C458 C 0.47914 0.78485 0.91251
 H459 H 0.46345 0.78870 0.91577
 N460 N 0.50278 0.76437 0.89485
 C461 C 0.51752 0.70481 0.87409
 H462 H 0.51087 0.70575 0.85982
 C463 C 0.52294 0.68607 0.88153
 H464 H 0.52033 0.67267 0.87288
 C465 C 0.52698 0.72100 0.90337
 H466 H 0.52805 0.73459 0.91197
 C467 C 0.53258 0.70252 0.91141
 H468 H 0.53809 0.70204 0.92615
 Zn469 Zn 0.50824 0.74558 0.87501
 N470 N 0.51935 0.72173 0.88512
 C471 C 0.53646 0.74431 0.84497
 N472 N 0.52616 0.75699 0.85702
 C473 C 0.52801 0.77739 0.85568
 C474 C 0.54142 0.78574 0.84231
 C475 C 0.54989 0.75196 0.83139
 C476 C 0.46982 0.72783 0.87151
 C477 C 0.45126 0.72381 0.86257
 C478 C 0.46313 0.74158 0.83427
 C479 C 0.48132 0.74543 0.84380
 N480 N 0.48411 0.73893 0.86221
 H481 H 0.53452 0.72821 0.84605
 H482 H 0.51912 0.78720 0.86501
 H483 H 0.54314 0.80197 0.84163
 H484 H 0.55861 0.74151 0.82252
 H485 H 0.47265 0.72267 0.88608
 H486 H 0.43963 0.71579 0.87048
 H487 H 0.46108 0.74706 0.81967
 H488 H 0.49301 0.75399 0.83661
 C489 C 0.53008 0.68474 0.90058
 C490 C 0.49531 0.79579 0.92054
 C491 C 0.44763 0.73112 0.84386
 C492 C 0.55271 0.77290 0.83011
 C493 C -0.23762 0.66039 0.96874
 H494 H -0.22510 0.64987 0.97014
 C495 C -0.23950 0.67175 0.95181
 H496 H -0.22858 0.66957 0.94022
 C497 C -0.26711 0.67608 0.98181
 H498 H -0.27746 0.67826 0.99377
 C499 C -0.26973 0.68747 0.96506
 H500 H -0.28242 0.69796 0.96409
 N501 N -0.25176 0.66222 0.98308
 C502 C -0.26730 0.65880 1.04150
 H503 H -0.27740 0.64604 1.04029
 C504 C -0.26824 0.67124 1.05785
 H505 H -0.27894 0.66722 1.06905
 C506 C -0.24030 0.67805 1.02870
 H507 H -0.22951 0.68062 1.01716
 C508 C -0.24058 0.69081 1.04484
 H509 H -0.23020 0.70340 1.04496
 Zn510 Zn -0.25147 0.64530 1.00539
 N511 N -0.25342 0.66234 1.02739
 C512 C -0.21439 0.63224 1.02265
 N513 N -0.22663 0.63002 1.00690
 C514 C -0.22149 0.61696 0.99242
 C515 C -0.20333 0.60583 0.99329
 C516 C -0.19610 0.62140 1.02411
 C517 C -0.29342 0.63590 1.00249
 C518 C -0.31049 0.62377 0.99975
 C519 C -0.28873 0.59435 1.00144
 C520 C -0.27197 0.60710 1.00398
 N521 N -0.27449 0.62754 1.00409
 H522 H -0.21880 0.64234 1.03424
 H523 H -0.23151 0.61520 0.98013
 H524 H -0.19943 0.59583 0.98141
 H525 H -0.18676 0.62329 1.03688
 H526 H -0.29541 0.65203 1.00330
 H527 H -0.32535 0.63083 0.99839
 H528 H -0.28635 0.57816 1.00097
 H529 H -0.25696 0.60057 1.00563
 C530 C -0.25467 0.68762 1.05996
 C531 C -0.25607 0.68505 0.94964
 C532 C -0.30827 0.60271 0.99890
 C533 C -0.19030 0.60798 1.00930
 C534 C -0.23919 0.32682 0.51863
 H535 H -0.22683 0.32412 0.50856
 C536 C -0.24057 0.31577 0.53482
 H537 H -0.22888 0.30457 0.53755
 C538 C -0.26840 0.34649 0.52692
 H539 H -0.27909 0.35856 0.52423
 C540 C -0.27057 0.33479 0.54480
 H541 H -0.28368 0.33828 0.55367
 N542 N -0.25390 0.34245 0.51463
 C543 C -0.25750 0.35195 0.45216
 H544 H -0.25841 0.36827 0.45223
 C545 C -0.25834 0.34140 0.43469
 H546 H -0.25977 0.34978 0.42135
 C547 C -0.25388 0.32139 0.46954
 H548 H -0.25224 0.31364 0.48315
 C549 C -0.25453 0.31020 0.45232
 H550 H -0.25346 0.29389 0.45287
 Zn551 Zn -0.25263 0.35830 0.49163
 N552 N -0.25502 0.34192 0.46911
 C553 C -0.21462 0.36933 0.47535
 N554 N -0.22724 0.37228 0.49076
 C555 C -0.22186 0.38483 0.50550
 C556 C -0.20354 0.39552 0.50474
 C557 C -0.19619 0.37965 0.47403
 C558 C -0.29397 0.36849 0.48976
 C559 C -0.31149 0.38037 0.49201
 C560 C -0.29009 0.40934 0.49717
 C561 C -0.27297 0.39683 0.49486
 N562 N -0.27518 0.37670 0.49174
 H563 H -0.21872 0.35888 0.46401
 H564 H -0.23193 0.38672 0.51778
 H565 H -0.19984 0.40580 0.51641
 H566 H -0.18641 0.37688 0.46167
 H567 H -0.29535 0.35247 0.48700
 H568 H -0.32601 0.37309 0.49002
 H569 H -0.28743 0.42500 0.50073
 H570 H -0.25795 0.40319 0.49622
 C571 C -0.25667 0.32024 0.43457
 C572 C -0.25724 0.31983 0.54913
 C573 C -0.30995 0.40121 0.49623
 C574 C -0.19045 0.39312 0.48874
 C575 C 0.26253 -0.17019 0.03278
 H576 H 0.27456 -0.17407 0.02269
 C577 C 0.26114 -0.17999 0.04972
 H578 H 0.27245 -0.19141 0.05296
 C579 C 0.23455 -0.14864 0.04049
 H580 H 0.22435 -0.13628 0.03728
 C581 C 0.23244 -0.15886 0.05920
 H582 H 0.21976 -0.15410 0.06812
 N583 N 0.24825 -0.15441 0.02799
 C584 C 0.24430 -0.15052 -0.03519
 H585 H 0.24251 -0.13430 -0.03610
 C586 C 0.24386 -0.16222 -0.05198
 H587 H 0.24176 -0.15485 -0.06579
 C588 C 0.24957 -0.17965 -0.01603
 H589 H 0.25157 -0.18643 -0.00200
 C590 C 0.24944 -0.19196 -0.03257
 H591 H 0.25128 -0.20814 -0.03109
 Zn592 Zn 0.24842 -0.14084 0.00353
 N593 N 0.24731 -0.15926 -0.01766
 C594 C 0.28593 -0.12923 -0.01341
 N595 N 0.27264 -0.12506 0.00122
 C596 C 0.27657 -0.11010 0.01422
 C597 C 0.29414 -0.09834 0.01243
 C598 C 0.30364 -0.11789 -0.01572
 C599 C 0.20649 -0.13478 0.00271
 C600 C 0.18791 -0.12450 0.00413
 C601 C 0.20609 -0.09302 0.00259
 C602 C 0.22442 -0.10400 0.00154
 N603 N 0.22432 -0.12451 0.00210
 H604 H 0.28291 -0.14140 -0.02341
 H605 H 0.26601 -0.10725 0.02595
 H606 H 0.29698 -0.08658 0.02299
 H607 H 0.31369 -0.12130 -0.02773
 H608 H 0.20678 -0.15111 0.00279
 H609 H 0.17419 -0.13341 0.00447
 H610 H 0.20698 -0.07674 0.00304
 H611 H 0.23872 -0.09605 0.00082
 C612 C 0.24653 -0.18323 -0.05084
 C613 C 0.24501 -0.17426 0.06409
 C614 C 0.18731 -0.10318 0.00450
 C615 C 0.30795 -0.10210 -0.00277
 C616 C 0.26212 1.17321 0.47726
 H617 H 0.27444 1.17498 0.48749
 C618 C 0.26136 1.18529 0.46065
 H619 H 0.27327 1.19618 0.45811
 C620 C 0.23203 1.15642 0.46771
 H621 H 0.22077 1.14495 0.47011
 C622 C 0.23068 1.16809 0.45108
 H623 H 0.21806 1.16567 0.44129
 N624 N 0.24738 1.15928 0.48062
 C625 C 0.24371 1.14883 0.54280
 H626 H 0.24197 1.13260 0.54233
 C627 C 0.24398 1.15885 0.56055
 H628 H 0.24259 1.15009 0.57366
 C629 C 0.24853 1.17962 0.52618
 H630 H 0.25025 1.18766 0.51274
 C631 C 0.24895 1.19030 0.54371
 H632 H 0.25091 1.20651 0.54358
 Zn633 Zn 0.24758 1.14301 0.50334
 N634 N 0.24634 1.15918 0.52609
 C635 C 0.28505 1.12922 0.51917
 N636 N 0.27202 1.12702 0.50400
 C637 C 0.27632 1.11381 0.48941
 C638 C 0.29387 1.10165 0.49012
 C639 C 0.30272 1.11742 0.52045
 C640 C 0.20561 1.13642 0.50451
 C641 C 0.18733 1.12601 0.50228
 C642 C 0.20662 1.09506 0.49859
 C643 C 0.22460 1.10612 0.50072
 N644 N 0.22380 1.12652 0.50313
 H645 H 0.28180 1.14010 0.53044
 H646 H 0.26601 1.11258 0.47727
 H647 H 0.29696 1.09122 0.47836
 H648 H 0.31250 1.11915 0.53293
 H649 H 0.20536 1.15262 0.50664
 H650 H 0.17306 1.13428 0.50307
 H651 H 0.20756 1.07893 0.49610
 H652 H 0.23912 1.09841 0.49997
 C653 C 0.24681 1.17985 0.56123
 C654 C 0.24546 1.18274 0.44727
 C655 C 0.18767 1.10509 0.49893
 C656 C 0.30731 1.10325 0.50590
 C657 C 0.14109 0.47752 0.23751
 H658 H 0.14345 0.48752 0.22540
 C659 C 0.15251 0.45959 0.23896
 H660 H 0.16381 0.45615 0.22801
 C661 C 0.12372 0.47002 0.26656
 H662 H 0.11232 0.47384 0.27723
 C663 C 0.13468 0.45201 0.26852
 H664 H 0.13136 0.44228 0.28064
 N665 N 0.12726 0.48261 0.25142
 C666 C 0.12050 0.54879 0.25444
 H667 H 0.10418 0.54974 0.25647
 C668 C 0.13204 0.56645 0.25409
 H669 H 0.12448 0.58086 0.25624
 C670 C 0.15004 0.52877 0.24934
 H671 H 0.15705 0.51411 0.24741
 C672 C 0.16218 0.54606 0.24890
 H673 H 0.17838 0.54438 0.24642
 Zn674 Zn 0.11205 0.50745 0.25022
 N675 N 0.12951 0.53043 0.25169
 C676 C 0.10264 0.51209 0.28938
 N677 N 0.09405 0.50847 0.27184
 C678 C 0.07379 0.50455 0.27018
 C679 C 0.06149 0.50349 0.28669
 C680 C 0.09090 0.51137 0.30619
 C681 C 0.09840 0.52536 0.21539
 C682 C 0.08683 0.52727 0.19857
 C683 C 0.07306 0.49423 0.20446
 C684 C 0.08482 0.49311 0.22132
 N685 N 0.09697 0.50867 0.22663
 H686 H 0.11879 0.51503 0.29034
 H687 H 0.06717 0.50181 0.25614
 H688 H 0.04545 0.50016 0.28516
 H689 H 0.09819 0.51378 0.32004
 H690 H 0.10861 0.53737 0.21934
 H691 H 0.08940 0.54063 0.19005
 H692 H 0.06299 0.48174 0.20166
 H693 H 0.08397 0.47988 0.23041
 C694 C 0.15319 0.56529 0.25104
 C695 C 0.14952 0.44661 0.25477
 C696 C 0.07359 0.51165 0.19256
 C697 C 0.07007 0.50680 0.30502
 C698 C -0.13563 1.03931 0.23290
 H699 H -0.13495 1.03010 0.21995
 C700 C -0.14650 1.05762 0.23282
 H701 H -0.15437 1.06215 0.21978
 C702 C -0.12633 1.04440 0.26560
 H703 H -0.11847 1.03925 0.27840
 C704 C -0.13696 1.06278 0.26615
 H705 H -0.13679 1.07163 0.27934
 N706 N -0.12570 1.03312 0.24911
 C707 C -0.11805 0.96693 0.24791
 H708 H -0.10163 0.96577 0.24873
 C709 C -0.12967 0.94940 0.24656
 H710 H -0.12202 0.93486 0.24674
 C711 C -0.14777 0.98735 0.24692
 H712 H -0.15476 1.00217 0.24693
 C713 C -0.16001 0.97013 0.24561
 H714 H -0.17637 0.97197 0.24454
 Zn715 Zn -0.10985 1.00877 0.24853
 N716 N -0.12714 0.98549 0.24793
 C717 C -0.09582 0.99289 0.28440
 N718 N -0.09297 1.00785 0.27125
 C719 C -0.07889 1.02252 0.27451
 C720 C -0.06684 1.02225 0.29122
 C721 C -0.08397 0.99192 0.30113
 C722 C -0.09552 0.99315 0.21261
 C723 C -0.08367 0.99225 0.19586
 C724 C -0.06804 1.02356 0.20532
 C725 C -0.08013 1.02373 0.22202
 N726 N -0.09337 1.00850 0.22556
 H727 H -0.10754 0.98179 0.28219
 H728 H -0.07724 1.03472 0.26438
 H729 H -0.05570 1.03400 0.29348
 H730 H -0.08667 0.97995 0.31141
 H731 H -0.10676 0.98164 0.21488
 H732 H -0.08661 0.98006 0.18582
 H733 H -0.05730 1.03570 0.20356
 H734 H -0.07904 1.03623 0.23202
 C735 C -0.15097 0.95080 0.24529
 C736 C -0.14719 1.06974 0.24959
 C737 C -0.06950 1.00757 0.19177
 C738 C -0.06918 1.00668 0.30472
 C739 C 0.36756 0.51857 -0.23078
 H740 H 0.36833 0.50717 -0.21965
 C741 C 0.35675 0.53655 -0.22738
 H742 H 0.34894 0.53863 -0.21372
 C743 C 0.37694 0.52962 -0.26203
 H744 H 0.38517 0.52707 -0.27537
 C745 C 0.36629 0.54780 -0.25925
 H746 H 0.36649 0.55901 -0.27059
 N747 N 0.37734 0.51540 -0.24790
 C748 C 0.38652 0.44873 -0.25424
 H749 H 0.40289 0.44817 -0.25601
 C750 C 0.37569 0.43169 -0.25532
 H751 H 0.38392 0.41766 -0.25736
 C752 C 0.35701 0.46896 -0.24846
 H753 H 0.34971 0.48347 -0.24633
 C754 C 0.34441 0.45055 -0.24942
 H755 H 0.32814 0.45267 -0.24822
 Zn756 Zn 0.39329 0.49134 -0.25080
 N757 N 0.37667 0.46782 -0.25058
 C758 C 0.41317 0.47484 -0.21782
 N759 N 0.41221 0.49085 -0.23003
 C760 C 0.42410 0.50736 -0.22722
 C761 C 0.43775 0.50813 -0.21171
 C762 C 0.42668 0.47492 -0.20222
 C763 C 0.39573 0.48862 -0.29099
 C764 C 0.40490 0.48641 -0.30910
 C765 C 0.43781 0.48926 -0.29383
 C766 C 0.42799 0.49124 -0.27594
 N767 N 0.40729 0.49096 -0.27485
 H768 H 0.40328 0.46207 -0.21996
 H769 H 0.42286 0.52001 -0.23700
 H770 H 0.44713 0.52136 -0.20977
 H771 H 0.42695 0.46215 -0.19251
 H772 H 0.37932 0.48800 -0.28969
 H773 H 0.39530 0.48401 -0.32161
 H774 H 0.45427 0.48978 -0.29437
 H775 H 0.43696 0.49271 -0.26293
 C776 C 0.35307 0.43221 -0.25275
 C777 C 0.35602 0.55153 -0.24171
 C778 C 0.42625 0.48671 -0.31077
 C779 C 0.43918 0.49174 -0.19897
 C780 C 0.64722 -0.02487 -0.24991
 H781 H 0.65554 -0.01090 -0.25091
 C782 C 0.65747 -0.04233 -0.24797
 H783 H 0.67390 -0.04177 -0.24725
 C784 C 0.61509 -0.04113 -0.24775
 H785 H 0.59863 -0.04051 -0.24723
 C786 C 0.62570 -0.06072 -0.24548
 H787 H 0.61631 -0.07401 -0.24449
 N788 N 0.62532 -0.02454 -0.24989
 C789 C 0.62501 0.03891 -0.23975
 H790 H 0.61410 0.03822 -0.22805
 C791 C 0.63641 0.05648 -0.24245
 H792 H 0.63445 0.06869 -0.23217
 C793 C 0.64038 0.02369 -0.26714
 H794 H 0.64130 0.01111 -0.27715
 C795 C 0.65255 0.04065 -0.27004
 H796 H 0.66250 0.04069 -0.28251
 Zn797 Zn 0.60991 0.00003 -0.25017
 N798 N 0.62717 0.02295 -0.25203
 C799 C 0.60604 -0.00167 -0.21032
 N800 N 0.59485 0.00039 -0.22671
 C801 C 0.57412 0.00043 -0.22611
 C802 C 0.56389 -0.00171 -0.20845
 C803 C 0.59649 -0.00406 -0.19246
 C804 C 0.58028 0.01778 -0.27392
 C805 C 0.56867 0.02057 -0.29065
 C806 C 0.58199 -0.01105 -0.30299
 C807 C 0.59321 -0.01332 -0.28596
 N808 N 0.59232 0.00110 -0.27192
 H809 H 0.62249 -0.00213 -0.21125
 H810 H 0.56547 0.00162 -0.23934
 H811 H 0.54741 -0.00154 -0.20830
 H812 H 0.60587 -0.00645 -0.17981
 H813 H 0.58017 0.02923 -0.26270
 H814 H 0.55968 0.03423 -0.29222
 H815 H 0.58317 -0.02251 -0.31416
 H816 H 0.60316 -0.02626 -0.28429
 C817 C 0.65063 0.05765 -0.25776
 C818 C 0.64629 -0.06174 -0.24544
 C819 C 0.56976 0.00623 -0.30562
 C820 C 0.57509 -0.00419 -0.19127
 C821 C 0.02870 0.26556 0.85833
 H822 H 0.01931 0.27893 0.85663
 C823 C 0.04823 0.26493 0.85053
 H824 H 0.05359 0.27776 0.84240
 C825 C 0.03271 0.23243 0.87070
 H826 H 0.02671 0.21996 0.87887
 C827 C 0.05244 0.23124 0.86338
 H828 H 0.06144 0.21777 0.86598
 N829 N 0.02119 0.24926 0.86770
 C830 C -0.04402 0.25501 0.86303
 H831 H -0.04792 0.25218 0.87798
 C832 C -0.05930 0.25822 0.84951
 H833 H -0.07505 0.25755 0.85409
 C834 C -0.01862 0.25842 0.83886
 H835 H -0.00277 0.25812 0.83474
 C836 C -0.03347 0.26169 0.82480
 H837 H -0.02892 0.26420 0.80995
 Zn838 Zn -0.00532 0.25112 0.87743
 N839 N -0.02416 0.25552 0.85760
 C840 C -0.01971 0.28777 0.89306
 N841 N -0.00591 0.27254 0.89509
 C842 C 0.00864 0.27297 0.90906
 C843 C 0.00976 0.28936 0.92173
 C844 C -0.01936 0.30422 0.90558
 C845 C -0.01366 0.21050 0.87766
 C846 C -0.01785 0.19168 0.88548
 C847 C -0.02068 0.20744 0.91703
 C848 C -0.01636 0.22598 0.90858
 N849 N -0.01245 0.22699 0.88932
 H850 H -0.03074 0.28746 0.88153
 H851 H 0.01960 0.26074 0.91007
 H852 H 0.02153 0.28976 0.93267
 H853 H -0.03023 0.31642 0.90363
 H854 H -0.01071 0.21193 0.86234
 H855 H -0.01772 0.17854 0.87612
 H856 H -0.02339 0.20672 0.93246
 H857 H -0.01580 0.23945 0.91744
 C858 C -0.05408 0.26176 0.83016
 C859 C 0.06031 0.24752 0.85289
 C860 C -0.02102 0.18996 0.90547
 C861 C -0.00441 0.30516 0.91998
 C862 C 0.48443 0.24851 0.15711
 H863 H 0.50000 0.25303 0.15944
 C864 C 0.47168 0.24557 0.17298
 H865 H 0.47738 0.24815 0.18747
 C866 C 0.45788 0.23953 0.13554
 H867 H 0.45265 0.23742 0.12084
 C868 C 0.44474 0.23617 0.15092
 H869 H 0.42919 0.23178 0.14798
 N870 N 0.47714 0.24597 0.13886
 C871 C 0.53515 0.24539 0.11598
 H872 H 0.53209 0.23317 0.10605
 C873 C 0.55506 0.24881 0.12183
 H874 H 0.56713 0.23899 0.11657
 C875 C 0.52337 0.27336 0.13448
 H876 H 0.51082 0.28276 0.13936
 C877 C 0.54313 0.27732 0.14078
 H878 H 0.54573 0.28963 0.15082
 Zn879 Zn 0.49273 0.25054 0.11668
 N880 N 0.51970 0.25705 0.12303
 C881 C 0.49219 0.27710 0.08622
 N882 N 0.48200 0.27210 0.10257
 C883 C 0.46604 0.28335 0.10924
 C884 C 0.45995 0.30070 0.09938
 C885 C 0.48644 0.29407 0.07579
 C886 C 0.49960 0.20999 0.11164
 C887 C 0.50264 0.19199 0.10164
 C888 C 0.48977 0.20808 0.07273
 C889 C 0.48706 0.22587 0.08331
 N890 N 0.49266 0.22661 0.10222
 H891 H 0.50519 0.26815 0.08162
 H892 H 0.45853 0.27934 0.12258
 H893 H 0.44762 0.30994 0.10506
 H894 H 0.49517 0.29822 0.06314
 H895 H 0.50361 0.21105 0.12678
 H896 H 0.50868 0.17899 0.10922
 H897 H 0.48604 0.20782 0.05748
 H898 H 0.48103 0.23913 0.07626
 C899 C 0.55910 0.26451 0.13489
 C900 C 0.45153 0.23951 0.16988
 C901 C 0.49819 0.19108 0.08184
 C902 C 0.47036 0.30625 0.08254
 C903 C -0.02404 0.74688 0.66462
 H904 H -0.01037 0.75170 0.67193
 C905 C -0.04087 0.74338 0.67483
 H906 H -0.04044 0.74625 0.69022
 C907 C -0.04030 0.73860 0.63481
 H908 H -0.03971 0.73638 0.61932
 C909 C -0.05918 0.73451 0.64540
 H910 H -0.07184 0.72886 0.63706
 N911 N -0.02414 0.74443 0.64402
 C912 C 0.03662 0.73664 0.64638
 H913 H 0.03552 0.72320 0.63760
 C914 C 0.05332 0.73902 0.65839
 H915 H 0.06494 0.72733 0.65877
 C916 C 0.02346 0.76863 0.65596
 H917 H 0.01167 0.78006 0.65478
 C918 C 0.04013 0.77175 0.66808
 H919 H 0.04123 0.78561 0.67637
 Zn920 Zn -0.00049 0.74741 0.62946
 N921 N 0.02194 0.75117 0.64564
 C922 C 0.01432 0.77483 0.60307
 N923 N -0.00253 0.76973 0.61328
 C924 C -0.01985 0.78107 0.61276
 C925 C -0.02067 0.79841 0.60150
 C926 C 0.01415 0.79199 0.59157
 C927 C 0.00145 0.70623 0.62539
 C928 C 0.00399 0.68772 0.61616
 C929 C 0.00876 0.70537 0.58594
 C930 C 0.00612 0.72360 0.59579
 N931 N 0.00286 0.72363 0.61520
 H932 H 0.02799 0.76568 0.60415
 H933 H -0.03292 0.77690 0.62131
 H934 H -0.03452 0.80738 0.60122
 H935 H 0.02782 0.79614 0.58381
 H936 H -0.00151 0.70681 0.64078
 H937 H 0.00266 0.67398 0.62448
 H938 H 0.01167 0.70548 0.57053
 H939 H 0.00674 0.73763 0.58793
 C940 C 0.05511 0.75666 0.66948
 C941 C -0.05986 0.73673 0.66483
 C942 C 0.00784 0.68719 0.59623
 C943 C -0.00347 0.80406 0.59085
 C944 C 0.51676 0.74452 0.34748
 H945 H 0.50181 0.74810 0.34194
 C946 C 0.53269 0.74097 0.33462
 H947 H 0.52993 0.74206 0.31923
 C948 C 0.53860 0.73866 0.37421
 H949 H 0.54072 0.73811 0.38972
 C950 C 0.55501 0.73510 0.36188
 H951 H 0.56990 0.73215 0.36801
 N952 N 0.52023 0.74421 0.36685
 C953 C 0.45924 0.74811 0.37184
 H954 H 0.45856 0.73553 0.38167
 C955 C 0.44267 0.75226 0.36000
 H956 H 0.42931 0.74279 0.36077
 C957 C 0.47726 0.77589 0.35887
 H958 H 0.49102 0.78476 0.35839
 C959 C 0.46091 0.78070 0.34684
 H960 H 0.46205 0.79333 0.33702
 Zn961 Zn 0.49977 0.75204 0.38420
 N962 N 0.47633 0.75945 0.37055
 C963 C 0.49441 0.78185 0.41188
 N964 N 0.50798 0.77442 0.39878
 C965 C 0.52638 0.78325 0.39591
 C966 C 0.53201 0.79992 0.40700
 C967 C 0.49955 0.79822 0.42348
 C968 C 0.49041 0.71224 0.39106
 C969 C 0.48608 0.69510 0.40179
 C970 C 0.49068 0.71470 0.43105
 C971 C 0.49505 0.73144 0.41974
 N972 N 0.49449 0.72997 0.40014
 H973 H 0.47965 0.77487 0.41338
 H974 H 0.53662 0.77758 0.38491
 H975 H 0.54666 0.80691 0.40465
 H976 H 0.48862 0.80400 0.43390
 H977 H 0.49049 0.71149 0.37543
 H978 H 0.48320 0.68101 0.39432
 H979 H 0.49090 0.71617 0.44665
 H980 H 0.49895 0.74549 0.42670
 C981 C 0.44366 0.76839 0.34700
 C982 C 0.55226 0.73699 0.34184
 C983 C 0.48610 0.69627 0.42205
 C984 C 0.51856 0.80736 0.42109
 Zr985 Zr 0.01272 -0.01385 1.02388
 O986 O 0.03433 -0.00117 1.04303
 O987 O 0.00868 -0.04255 1.03587
 O988 O 0.00048 -0.00957 1.05205
 O989 O 0.04826 -0.02682 0.98882
 O990 O -0.02890 0.00817 1.04669
 O991 O 0.04173 -0.02795 1.02122
 O992 O -0.01631 -0.05619 1.01717
 O993 O -0.01870 -0.01809 1.02061
 O994 O 0.00900 -0.03174 0.99916
 O995 O 0.00008 0.01532 1.02128
 O996 O 0.02680 0.00208 1.00113
 Zr997 Zr -0.02247 0.00908 0.96909
 Zr998 Zr -0.03106 0.01080 1.01657
 Zr999 Zr 0.02138 -0.01546 0.97637
 Zr1000 Zr -0.02220 -0.03499 0.99532
 O1001 O 0.04700 -0.00119 0.96401
 O1002 O -0.05040 -0.04193 1.00863
 O1003 O -0.00973 -0.02019 0.97132
 O1004 O -0.03621 -0.00680 0.99186
 O1005 O -0.01880 0.02723 0.99370
 O1006 O 0.00888 0.01327 0.97250
 C1007 C -0.00369 -0.05679 1.03137
 C1008 C 0.05328 -0.03104 1.00634
 C1009 C -0.01569 -0.00012 1.05790
 O1010 O -0.05804 -0.00285 1.02673
 O1011 O -0.05631 0.02559 1.00433
 O1012 O -0.05054 0.02493 0.97181
 C1013 C -0.06133 0.02970 0.98680
 O1014 O 0.03606 0.03667 1.01770
 Zr1015 Zr 0.01252 0.03031 0.99754
 O1016 O -0.01926 0.03801 0.95760
 O1017 O -0.03426 0.03963 1.02958
 O1018 O 0.00343 0.05611 1.01374
 O1019 O 0.03921 0.03894 0.98248
 O1020 O 0.00351 0.05290 0.97792
 C1021 C -0.00895 0.05322 0.96356
 O1022 O -0.04493 -0.00341 0.95073
 O1023 O 0.02646 -0.04489 0.96520
 O1024 O -0.01104 0.00357 0.94081
 O1025 O 0.01727 -0.01581 0.94632
 O1026 O -0.01231 -0.06195 0.98142
 O1027 O -0.04286 -0.04285 0.97291
 C1028 C 0.00430 -0.00722 0.93506
 H1029 H 0.01583 -0.04507 1.00020
 H1030 H -0.05093 -0.00875 0.98948
 H1031 H 0.01514 0.02011 0.96129
 H1032 H 0.00258 0.02345 1.03308
 H1033 H -0.05186 -0.05681 1.00840
 H1034 H -0.06508 0.00729 1.03498
 H1035 H -0.04733 0.03963 1.03678
 H1036 H 0.01137 0.06774 1.00893
 H1037 H -0.02071 -0.07313 0.98646
 H1038 H 0.03942 -0.04453 0.95786
 H1039 H 0.05397 -0.01143 0.95580
 H1040 H 0.03999 0.05387 0.98312
 H1041 H -0.04904 -0.05610 0.97578
 H1042 H -0.04825 0.00694 0.94087
 H1043 H 0.03766 -0.01163 1.05278
 H1044 H 0.04047 0.05085 1.01620
 Zr1045 Zr 0.51378 0.48171 0.52174
 O1046 O 0.53169 0.49122 0.54549
 O1047 O 0.51309 0.45048 0.52582
 O1048 O 0.49895 0.47692 0.54863
 O1049 O 0.55372 0.48388 0.48923
 O1050 O 0.46683 0.48898 0.54340
 O1051 O 0.54462 0.47226 0.51899
 O1052 O 0.49339 0.43901 0.50102
 O1053 O 0.48404 0.47403 0.51363
 O1054 O 0.51533 0.47129 0.49317
 O1055 O 0.49645 0.50836 0.52497
 O1056 O 0.52688 0.50544 0.50578
 Zr1057 Zr 0.48006 0.51441 0.47065
 Zr1058 Zr 0.46721 0.50088 0.51540
 Zr1059 Zr 0.52670 0.49517 0.47708
 Zr1060 Zr 0.48571 0.46479 0.48478
 O1061 O 0.55062 0.51589 0.47256
 O1062 O 0.45811 0.45040 0.49238
 O1063 O 0.49749 0.48769 0.46719
 O1064 O 0.46734 0.49069 0.48672
 O1065 O 0.47841 0.52493 0.49923
 O1066 O 0.50977 0.52185 0.47890
 C1067 C 0.50411 0.43636 0.51638
 C1068 C 0.55771 0.47500 0.50530
 C1069 C 0.48053 0.48084 0.55417
 O1070 O 0.44189 0.48145 0.51768
 O1071 O 0.44132 0.51571 0.50466
 O1072 O 0.44985 0.52565 0.47421
 C1073 C 0.43731 0.52454 0.48858
 O1074 O 0.52838 0.53472 0.53137
 Zr1075 Zr 0.50817 0.53124 0.50761
 O1076 O 0.48021 0.54579 0.46692
 O1077 O 0.45807 0.52358 0.53529
 O1078 O 0.49338 0.54975 0.52852
 O1079 O 0.53401 0.54778 0.49859
 O1080 O 0.49693 0.55712 0.49368
 C1081 C 0.48675 0.55994 0.47804
 O1082 O 0.46094 0.50522 0.44765
 O1083 O 0.53754 0.47131 0.45927
 O1084 O 0.49428 0.51715 0.44310
 O1085 O 0.52581 0.50347 0.44797
 O1086 O 0.50127 0.44458 0.46591
 O1087 O 0.46887 0.46090 0.45881
 C1088 C 0.51214 0.51155 0.43714
 H1089 H 0.52414 0.45920 0.49163
 H1090 H 0.45342 0.48758 0.48215
 H1091 H 0.51574 0.53241 0.47059
 H1092 H 0.49637 0.51305 0.53858
 H1093 H 0.45928 0.43607 0.48832
 H1094 H 0.43257 0.48754 0.52739
 H1095 H 0.44461 0.51958 0.54046
 H1096 H 0.49965 0.56330 0.52796
 H1097 H 0.49449 0.43130 0.46685
 H1098 H 0.55094 0.47551 0.45412
 H1099 H 0.56002 0.50960 0.46304
 H1100 H 0.53210 0.56188 0.50315
 H1101 H 0.46462 0.44664 0.45761
 H1102 H 0.45714 0.51756 0.44037
 H1103 H 0.53577 0.47891 0.55270
 H1104 H 0.53049 0.54927 0.53397
 Zr1105 Zr 0.48240 1.01787 0.52750
 O1106 O 0.46382 1.00714 0.55022
 O1107 O 0.48214 1.04894 0.53274
 O1108 O 0.49624 1.02203 0.55498
 O1109 O 0.44377 1.01729 0.49349
 O1110 O 0.52876 1.01070 0.55019
 O1111 O 0.45165 1.02735 0.52416
 O1112 O 0.50243 1.06157 0.50899
 O1113 O 0.51237 1.02609 0.52075
 O1114 O 0.48185 1.02925 0.49934
 O1115 O 0.49989 0.99128 0.53020
 O1116 O 0.47004 0.99465 0.51016
 Zr1117 Zr 0.51821 0.98742 0.47631
 Zr1118 Zr 0.52943 0.99931 0.52191
 Zr1119 Zr 0.47118 1.00595 0.48191
 Zr1120 Zr 0.51168 1.03637 0.49230
 O1121 O 0.44742 0.98534 0.47627
 O1122 O 0.53858 1.05075 0.50198
 O1123 O 0.50069 1.01408 0.47335
 O1124 O 0.53026 1.01057 0.49371
 O1125 O 0.51891 0.97584 0.50441
 O1126 O 0.48831 0.97940 0.48323
 C1127 C 0.49083 1.06358 0.52392
 C1128 C 0.43917 1.02553 0.50983
 C1129 C 0.51458 1.01835 0.56083
 O1130 O 0.55479 1.01851 0.52545
 O1131 O 0.55564 0.98436 0.51156
 O1132 O 0.54811 0.97587 0.48040
 C1133 C 0.56005 0.97597 0.49524
 O1134 O 0.46797 0.96451 0.53453
 Zr1135 Zr 0.48894 0.96896 0.51154
 O1136 O 0.51867 0.95623 0.47120
 O1137 O 0.53777 0.97623 0.54150
 O1138 O 0.50316 0.94976 0.53204
 O1139 O 0.46360 0.95250 0.50109
 O1140 O 0.50089 0.94370 0.49674
 C1141 C 0.51182 0.94158 0.48140
 O1142 O 0.53812 0.99781 0.45448
 O1143 O 0.46110 1.03015 0.46436
 O1144 O 0.50516 0.98535 0.44827
 O1145 O 0.47307 0.99806 0.45261
 O1146 O 0.49709 1.05712 0.47348
 O1147 O 0.52977 1.04134 0.46728
 C1148 C 0.48732 0.99050 0.44201
 H1149 H 0.47300 1.04131 0.49788
 H1150 H 0.54433 1.01386 0.48972
 H1151 H 0.48276 0.96905 0.47434
 H1152 H 0.49952 0.98616 0.54362
 H1153 H 0.53740 1.06523 0.49858
 H1154 H 0.56371 1.01217 0.53529
 H1155 H 0.55105 0.98009 0.54718
 H1156 H 0.49704 0.93619 0.53066
 H1157 H 0.50381 1.07036 0.47516
 H1158 H 0.44790 1.02607 0.45866
 H1159 H 0.43833 0.99180 0.46664
 H1160 H 0.46549 0.93828 0.50514
 H1161 H 0.53443 1.05553 0.46719
 H1162 H 0.54244 0.98584 0.44679
 H1163 H 0.45927 1.01909 0.55784
 H1164 H 0.46591 0.94986 0.53648
 Zr1165 Zr -0.01420 0.52152 1.02601
 O1166 O -0.03570 0.51493 1.04790
 O1167 O -0.00789 0.55182 1.03213
 O1168 O -0.00119 0.52211 1.05418
 O1169 O -0.05006 0.52909 0.99009
 O1170 O 0.02677 0.50164 1.05131
 O1171 O -0.04277 0.53608 1.02165
 O1172 O 0.01764 0.55948 1.01107
 O1173 O 0.01729 0.52281 1.02120
 O1174 O -0.01029 0.53364 0.99838
 O1175 O -0.00354 0.49161 1.02855
 O1176 O -0.03008 0.50222 1.00695
 Zr1177 Zr 0.01739 0.48498 0.97562
 Zr1178 Zr 0.02760 0.49287 1.02222
 Zr1179 Zr -0.02440 0.51375 0.97929
 Zr1180 Zr 0.02091 0.53383 0.99320
 O1181 O -0.05135 0.49907 0.97030
 O1182 O 0.05014 0.54131 1.00400
 O1183 O 0.00675 0.51504 0.97275
 O1184 O 0.03287 0.50452 0.99461
 O1185 O 0.01345 0.47276 1.00325
 O1186 O -0.01403 0.48396 0.98057
 C1187 C 0.00550 0.56382 1.02512
 C1188 C -0.05460 0.53666 1.00672
 C1189 C 0.01452 0.51284 1.06120
 O1190 O 0.05566 0.50666 1.02910
 O1191 O 0.05160 0.47447 1.01240
 O1192 O 0.04485 0.46857 0.98055
 C1193 C 0.05596 0.46661 0.99587
 O1194 O -0.04095 0.47284 1.03001
 Zr1195 Zr -0.01788 0.47293 1.00843
 O1196 O 0.01148 0.45436 0.97007
 O1197 O 0.02954 0.46703 1.04003
 O1198 O -0.00989 0.45044 1.02887
 O1199 O -0.04575 0.46337 0.99603
 O1200 O -0.01155 0.44610 0.99334
 C1201 C 0.00009 0.44168 0.97897
 O1202 O 0.03986 0.49121 0.95454
 O1203 O -0.02787 0.54062 0.96312
 O1204 O 0.00532 0.48571 0.94708
 O1205 O -0.02154 0.50762 0.94966
 O1206 O 0.01196 0.55797 0.97495
 O1207 O 0.04105 0.53551 0.96918
 C1208 C -0.00951 0.49615 0.93980
 H1209 H -0.01628 0.54734 0.99716
 H1210 H 0.04759 0.50498 0.99154
 H1211 H -0.02119 0.47540 0.97100
 H1212 H -0.00611 0.48626 1.04167
 H1213 H 0.05260 0.55570 1.00097
 H1214 H 0.06240 0.49801 1.03889
 H1215 H 0.04282 0.46764 1.04681
 H1216 H -0.01895 0.43874 1.02670
 H1217 H 0.02116 0.56944 0.97765
 H1218 H -0.04118 0.53977 0.95643
 H1219 H -0.05796 0.50792 0.96060
 H1220 H -0.04769 0.44904 0.99964
 H1221 H 0.04792 0.54877 0.96923
 H1222 H 0.04187 0.47869 0.94680
 H1223 H -0.03788 0.52750 1.05552
 H1224 H -0.04637 0.45901 1.03140
 Zr1225 Zr -0.01687 0.48412 0.47230
 O1226 O -0.03866 0.49621 0.45292
 O1227 O -0.01278 0.45496 0.46119
 O1228 O -0.00473 0.48726 0.44395
 O1229 O -0.05160 0.47142 0.50789
 O1230 O 0.02482 0.50435 0.44903
 O1231 O -0.04573 0.47022 0.47540
 O1232 O 0.01238 0.44165 0.48008
 O1233 O 0.01459 0.47976 0.47562
 O1234 O -0.01284 0.46714 0.49748
 O1235 O -0.00447 0.51327 0.47408
 O1236 O -0.03107 0.50092 0.49468
 Zr1237 Zr 0.01831 0.50886 0.52645
 Zr1238 Zr 0.02668 0.50870 0.47894
 Zr1239 Zr -0.02532 0.48430 0.51987
 Zr1240 Zr 0.01838 0.46378 0.50130
 O1241 O -0.05166 0.49888 0.53099
 O1242 O 0.04650 0.45632 0.48783
 O1243 O 0.00585 0.47956 0.52501
 O1244 O 0.03214 0.49204 0.50406
 O1245 O 0.01433 0.52606 0.50138
 O1246 O -0.01310 0.51308 0.52286
 C1247 C -0.00044 0.44070 0.46603
 C1248 C -0.05682 0.46686 0.49049
 C1249 C 0.01163 0.49599 0.43794
 O1250 O 0.05411 0.49481 0.46957
 O1251 O 0.05133 0.52455 0.49059
 O1252 O 0.04621 0.52465 0.52319
 C1253 C 0.05653 0.52934 0.50792
 O1254 O -0.04056 0.53491 0.47708
 Zr1255 Zr -0.01701 0.52919 0.49744
 O1256 O 0.01469 0.53820 0.53715
 O1257 O 0.02935 0.53674 0.46464
 O1258 O -0.00796 0.55431 0.48065
 O1259 O -0.04383 0.53858 0.51215
 O1260 O -0.00839 0.55242 0.51659
 C1261 C 0.00404 0.55317 0.53096
 O1262 O 0.04089 0.49694 0.54509
 O1263 O -0.02922 0.45558 0.53259
 O1264 O 0.00679 0.50476 0.55494
 O1265 O -0.02201 0.48643 0.54994
 O1266 O 0.00894 0.43741 0.51601
 O1267 O 0.03933 0.45662 0.52370
 C1268 C -0.00910 0.49526 0.56104
 H1269 H -0.01948 0.45378 0.49688
 H1270 H 0.04690 0.49021 0.50644
 H1271 H -0.01951 0.52044 0.53379
 H1272 H -0.00700 0.52092 0.46205
 H1273 H 0.04810 0.44144 0.48831
 H1274 H 0.06095 0.50455 0.46093
 H1275 H 0.04248 0.53645 0.45755
 H1276 H -0.01599 0.56617 0.48512
 H1277 H 0.01744 0.42602 0.51121
 H1278 H -0.04231 0.45606 0.53972
 H1279 H -0.05847 0.48909 0.53960
 H1280 H -0.04480 0.55347 0.51102
 H1281 H 0.04577 0.44334 0.52097
 H1282 H 0.04413 0.50767 0.55464
 H1283 H -0.04193 0.48541 0.44344
 H1284 H -0.04491 0.54923 0.47803
 Zr1285 Zr 0.48429 -0.02091 -0.02665
 O1286 O 0.46567 -0.01121 -0.04986
 O1287 O 0.48546 -0.05212 -0.03130
 O1288 O 0.49869 -0.02513 -0.05397
 O1289 O 0.44503 -0.01979 0.00681
 O1290 O 0.53091 -0.01370 -0.04865
 O1291 O 0.45365 -0.03058 -0.02352
 O1292 O 0.50560 -0.06390 -0.00693
 O1293 O 0.51432 -0.02856 -0.01918
 O1294 O 0.48349 -0.03166 0.00175
 O1295 O 0.50108 0.00586 -0.02962
 O1296 O 0.47107 0.00258 -0.00997
 Zr1297 Zr 0.51838 0.01130 0.02443
 Zr1298 Zr 0.53064 -0.00161 -0.02067
 Zr1299 Zr 0.47196 -0.00805 0.01854
 Zr1300 Zr 0.51338 -0.03817 0.00949
 O1301 O 0.44736 0.01219 0.02339
 O1302 O 0.54100 -0.05238 0.00087
 O1303 O 0.50151 -0.01552 0.02778
 O1304 O 0.53127 -0.01218 0.00776
 O1305 O 0.51931 0.02227 -0.00389
 O1306 O 0.48837 0.01864 0.01682
 C1307 C 0.49458 -0.06640 -0.02214
 C1308 C 0.44084 -0.02836 -0.00943
 C1309 C 0.51712 -0.02151 -0.05946
 O1310 O 0.55649 -0.02067 -0.02351
 O1311 O 0.55637 0.01347 -0.01017
 O1312 O 0.54809 0.02321 0.02053
 C1313 C 0.56038 0.02240 0.00593
 O1314 O 0.46920 0.03243 -0.03546
 Zr1315 Zr 0.48925 0.02852 -0.01163
 O1316 O 0.51739 0.04253 0.02907
 O1317 O 0.53885 0.02111 -0.04058
 O1318 O 0.50407 0.04756 -0.03173
 O1319 O 0.46270 0.04434 -0.00253
 O1320 O 0.49902 0.05437 0.00349
 C1321 C 0.50946 0.05688 0.01906
 O1322 O 0.53820 0.00172 0.04677
 O1323 O 0.46251 -0.03201 0.03653
 O1324 O 0.50468 0.01404 0.05216
 O1325 O 0.47290 0.00106 0.04759
 O1326 O 0.49873 -0.05861 0.02838
 O1327 O 0.53095 -0.04229 0.03499
 C1328 C 0.48672 0.00922 0.05815
 H1329 H 0.47495 -0.04381 0.00326
 H1330 H 0.54535 -0.01522 0.01203
 H1331 H 0.48220 0.02907 0.02534
 H1332 H 0.50089 0.01070 -0.04314
 H1333 H 0.54020 -0.06676 0.00467
 H1334 H 0.56547 -0.01447 -0.03333
 H1335 H 0.55235 0.01727 -0.04593
 H1336 H 0.49764 0.06111 -0.03074
 H1337 H 0.50578 -0.07183 0.02712
 H1338 H 0.44907 -0.02806 0.04194
 H1339 H 0.43833 0.00581 0.03306
 H1340 H 0.46407 0.05854 -0.00676
 H1341 H 0.53568 -0.05649 0.03569
 H1342 H 0.54195 0.01392 0.05429
 H1343 H 0.46172 -0.02345 -0.05725
 H1344 H 0.46722 0.04702 -0.03793
 Zr1345 Zr 0.52457 0.50599 -0.03161
 O1346 O 0.54744 0.49204 -0.04875
 O1347 O 0.52326 0.53491 -0.04348
 O1348 O 0.51492 0.50309 -0.06077
 O1349 O 0.55650 0.51813 0.00648
 O1350 O 0.48466 0.48652 -0.05827
 O1351 O 0.55339 0.51903 -0.02637
 O1352 O 0.49745 0.55023 -0.02677
 O1353 O 0.49315 0.51176 -0.03129
 O1354 O 0.51886 0.52394 -0.00722
 O1355 O 0.51083 0.47745 -0.03044
 O1356 O 0.53585 0.48944 -0.00780
 Zr1357 Zr 0.48314 0.48466 0.01956
 Zr1358 Zr 0.47956 0.48343 -0.02854
 Zr1359 Zr 0.52839 0.50711 0.01645
 Zr1360 Zr 0.48759 0.52878 -0.00638
 O1361 O 0.55224 0.49141 0.03058
 O1362 O 0.46175 0.53700 -0.02304
 O1363 O 0.49704 0.51331 0.01856
 O1364 O 0.47237 0.50120 -0.00433
 O1365 O 0.48889 0.46652 -0.00474
 O1366 O 0.51456 0.47898 0.01904
 C1367 C 0.51169 0.55012 -0.03962
 C1368 C 0.56328 0.52226 -0.01053
 C1369 C 0.49905 0.49459 -0.06811
 O1370 O 0.45371 0.49794 -0.04052
 O1371 O 0.45337 0.46867 -0.01873
 O1372 O 0.45492 0.47015 0.01418
 C1373 C 0.44619 0.46495 -0.00182
 O1374 O 0.54607 0.45497 -0.02320
 Zr1375 Zr 0.52029 0.46192 -0.00571
 O1376 O 0.48409 0.45543 0.03099
 O1377 O 0.47725 0.45501 -0.04246
 O1378 O 0.51287 0.43671 -0.02331
 O1379 O 0.54431 0.45151 0.01224
 O1380 O 0.50758 0.43947 0.01191
 C1381 C 0.49376 0.43960 0.02513
 O1382 O 0.45926 0.49812 0.03581
 O1383 O 0.53322 0.53610 0.02860
 O1384 O 0.49166 0.48997 0.04879
 O1385 O 0.52125 0.50762 0.04595
 O1386 O 0.49630 0.55500 0.00918
 O1387 O 0.46438 0.53750 0.01348
 C1388 C 0.50670 0.50002 0.05594
 H1389 H 0.52616 0.53696 -0.00736
 H1390 H 0.45752 0.50371 -0.00335
 H1391 H 0.51928 0.47179 0.03075
 H1392 H 0.51428 0.46935 -0.04207
 H1393 H 0.46087 0.55194 -0.02304
 H1394 H 0.44738 0.48813 -0.04952
 H1395 H 0.46495 0.45554 -0.05076
 H1396 H 0.51998 0.42476 -0.01791
 H1397 H 0.48898 0.56665 0.00344
 H1398 H 0.54541 0.53507 0.03698
 H1399 H 0.55873 0.50120 0.03949
 H1400 H 0.54451 0.43657 0.01137
 H1401 H 0.45873 0.55082 0.00971
 H1402 H 0.45460 0.48791 0.04526
 H1403 H 0.55221 0.50230 -0.05809
 H1404 H 0.55014 0.44070 -0.02123
 Zr1405 Zr 0.01596 1.01283 0.47321
 O1406 O 0.03817 1.00381 0.45264
 O1407 O 0.00945 1.04232 0.46435
 O1408 O 0.00359 1.01105 0.44486
 O1409 O 0.05051 1.02455 0.50926
 O1410 O -0.02416 0.99093 0.44867
 O1411 O 0.04393 1.02825 0.47708
 O1412 O -0.01635 1.05236 0.48436
 O1413 O -0.01568 1.01439 0.47698
 O1414 O 0.01091 1.02774 0.49953
 O1415 O 0.00602 0.98270 0.47297
 O1416 O 0.03161 0.99571 0.49429
 Zr1417 Zr -0.01662 0.98176 0.52569
 Zr1418 Zr -0.02532 0.98439 0.47826
 Zr1419 Zr 0.02484 1.01010 0.52060
 Zr1420 Zr -0.02046 1.02830 0.50374
 O1421 O 0.05177 0.99656 0.53148
 O1422 O -0.04911 1.03454 0.49084
 O1423 O -0.00654 1.01198 0.52616
 O1424 O -0.03186 0.99889 0.50452
 O1425 O -0.01148 0.96660 0.49944
 O1426 O 0.01498 0.98031 0.52173
 C1427 C -0.00386 1.05526 0.47032
 C1428 C 0.05525 1.03061 0.49220
 C1429 C -0.01197 1.00139 0.43825
 O1430 O -0.05394 0.99652 0.47011
 O1431 O -0.04828 0.96559 0.48883
 O1432 O -0.04359 0.96464 0.52150
 C1433 C -0.05328 0.95980 0.50590
 O1434 O 0.04366 0.96376 0.47430
 Zr1435 Zr 0.01996 0.96631 0.49516
 O1436 O -0.01031 0.95209 0.53430
 O1437 O -0.02571 0.95730 0.46189
 O1438 O 0.01277 0.94167 0.47675
 O1439 O 0.04766 0.95836 0.50904
 O1440 O 0.01367 0.94127 0.51268
 C1441 C 0.00160 0.93852 0.52706
 O1442 O -0.03993 0.99026 0.54533
 O1443 O 0.02735 1.03853 0.53450
 O1444 O -0.00552 0.98558 0.55439
 O1445 O 0.02117 1.00707 0.55050
 O1446 O -0.01297 1.05411 0.52048
 O1447 O -0.04185 1.03217 0.52658
 C1448 C 0.00898 0.99675 0.56104
 H1449 H 0.01660 1.04153 0.49982
 H1450 H -0.04670 0.99943 0.50703
 H1451 H 0.02198 0.97289 0.53224
 H1452 H 0.00905 0.97612 0.46040
 H1453 H -0.05192 1.04916 0.49250
 H1454 H -0.06002 0.98685 0.46082
 H1455 H -0.03888 0.95697 0.45490
 H1456 H 0.02181 0.93022 0.48030
 H1457 H -0.02234 1.06518 0.51662
 H1458 H 0.04043 1.03844 0.54164
 H1459 H 0.05793 1.00639 0.54056
 H1460 H 0.04991 0.94370 0.50692
 H1461 H -0.04923 1.04513 0.52490
 H1462 H -0.04204 0.97868 0.55415
 H1463 H 0.04050 1.01552 0.44402
 H1464 H 0.04917 0.94980 0.47430
 Zr1465 Zr 0.73609 0.27984 0.21016
 O1466 O 0.74855 0.30126 0.19095
 O1467 O 0.70655 0.27699 0.19939
 O1468 O 0.73830 0.26799 0.18158
 O1469 O 0.72523 0.31413 0.24673
 O1470 O 0.75597 0.23847 0.18565
 O1471 O 0.72276 0.30900 0.21416
 O1472 O 0.69312 0.25186 0.21774
 O1473 O 0.73150 0.24867 0.21285
 O1474 O 0.71918 0.27581 0.23550
 O1475 O 0.76535 0.26666 0.21116
 O1476 O 0.75341 0.29295 0.23261
 Zr1477 Zr 0.76134 0.24322 0.26304
 Zr1478 Zr 0.76059 0.23574 0.21545
 Zr1479 Zr 0.73693 0.28712 0.25796
 Zr1480 Zr 0.71550 0.24486 0.23860
 O1481 O 0.75215 0.31217 0.27022
 O1482 O 0.70748 0.21747 0.22463
 O1483 O 0.73188 0.25626 0.26233
 O1484 O 0.74390 0.23041 0.24067
 O1485 O 0.77849 0.24720 0.23782
 O1486 O 0.76587 0.27428 0.26017
 C1487 C 0.69217 0.26487 0.20398
 C1488 C 0.72053 0.31995 0.22958
 C1489 C 0.74709 0.25179 0.17508
 O1490 O 0.74613 0.20919 0.20556
 O1491 O 0.77624 0.21037 0.22645
 O1492 O 0.77649 0.21517 0.25909
 C1493 C 0.78089 0.20486 0.24374
 O1494 O 0.78749 0.30182 0.21444
 Zr1495 Zr 0.78177 0.27830 0.23449
 O1496 O 0.79128 0.24584 0.27327
 O1497 O 0.78878 0.23265 0.20083
 O1498 O 0.80690 0.26910 0.21721
 O1499 O 0.79149 0.30449 0.24954
 O1500 O 0.80525 0.26912 0.25312
 C1501 C 0.80625 0.25645 0.26711
 O1502 O 0.74942 0.22070 0.28142
 O1503 O 0.70793 0.29194 0.27062
 O1504 O 0.75727 0.25379 0.29177
 O1505 O 0.73855 0.28262 0.28792
 O1506 O 0.68920 0.25466 0.25391
 O1507 O 0.70816 0.22380 0.26060
 C1508 C 0.74736 0.26922 0.29847
 H1509 H 0.70584 0.28286 0.23521
 H1510 H 0.74185 0.21579 0.24278
 H1511 H 0.77341 0.28017 0.27121
 H1512 H 0.77295 0.26923 0.19906
 H1513 H 0.69245 0.21631 0.22526
 H1514 H 0.75580 0.20233 0.19665
 H1515 H 0.78822 0.21985 0.19338
 H1516 H 0.81895 0.27678 0.22164
 H1517 H 0.67752 0.24675 0.24900
 H1518 H 0.70873 0.30468 0.27815
 H1519 H 0.74233 0.31900 0.27901
 H1520 H 0.80650 0.30524 0.24816
 H1521 H 0.69463 0.21792 0.25794
 H1522 H 0.76029 0.21706 0.29077
 H1523 H 0.73760 0.30505 0.18175
 H1524 H 0.80195 0.30587 0.21530
 Zr1525 Zr 0.76172 0.72840 0.72970
 O1526 O 0.75000 0.70971 0.70749
 O1527 O 0.79296 0.72764 0.72389
 O1528 O 0.76573 0.74147 0.70190
 O1529 O 0.76107 0.69082 0.76434
 O1530 O 0.75578 0.77419 0.70661
 O1531 O 0.77086 0.69777 0.73343
 O1532 O 0.80666 0.74736 0.74759
 O1533 O 0.77114 0.75788 0.73614
 O1534 O 0.77349 0.72789 0.75781
 O1535 O 0.73550 0.74667 0.72706
 O1536 O 0.73802 0.71724 0.74733
 Zr1537 Zr 0.73310 0.76569 0.78068
 Zr1538 Zr 0.74479 0.77578 0.73496
 Zr1539 Zr 0.74980 0.71831 0.77551
 Zr1540 Zr 0.78184 0.75725 0.76453
 O1541 O 0.72830 0.69534 0.78078
 O1542 O 0.79718 0.78339 0.75483
 O1543 O 0.75927 0.74734 0.78374
 O1544 O 0.75658 0.77663 0.76302
 O1545 O 0.72105 0.76643 0.75272
 O1546 O 0.72364 0.73632 0.77418
 C1547 C 0.80806 0.73604 0.73247
 C1548 C 0.76930 0.68579 0.74808
 C1549 C 0.76262 0.75972 0.69594
 O1550 O 0.76505 0.80010 0.73096
 O1551 O 0.73066 0.80241 0.74522
 O1552 O 0.72249 0.79559 0.77655
 C1553 C 0.72262 0.80720 0.76162
 O1554 O 0.70740 0.71544 0.72371
 Zr1555 Zr 0.71276 0.73696 0.74599
 O1556 O 0.70184 0.76777 0.78590
 O1557 O 0.72157 0.78463 0.71548
 O1558 O 0.69383 0.75070 0.72489
 O1559 O 0.69481 0.71333 0.75740
 O1560 O 0.68802 0.75124 0.76014
 C1561 C 0.68666 0.76244 0.77538
 O1562 O 0.74471 0.78525 0.80226
 O1563 O 0.77373 0.70800 0.79351
 O1564 O 0.73081 0.75331 0.80875
 O1565 O 0.74143 0.72063 0.80476
 O1566 O 0.80270 0.74223 0.78305
 O1567 O 0.78754 0.77501 0.78960
 C1568 C 0.73479 0.73544 0.81512
 H1569 H 0.78548 0.71889 0.75926
 H1570 H 0.76045 0.79050 0.76687
 H1571 H 0.71300 0.73150 0.78317
 H1572 H 0.73013 0.74627 0.71369
 H1573 H 0.81175 0.78179 0.75829
 H1574 H 0.75878 0.80908 0.72117
 H1575 H 0.72588 0.79755 0.70964
 H1576 H 0.67994 0.74519 0.72652
 H1577 H 0.81617 0.74865 0.78134
 H1578 H 0.76921 0.69511 0.79929
 H1579 H 0.73444 0.68624 0.79054
 H1580 H 0.68055 0.71594 0.75337
 H1581 H 0.80196 0.77928 0.78965
 H1582 H 0.73293 0.79015 0.81001
 H1583 H 0.76180 0.70480 0.69977
 H1584 H 0.69255 0.71353 0.72211
 Zr1585 Zr 0.23739 0.22401 0.78303
 O1586 O 0.24787 0.20443 0.80505
 O1587 O 0.20636 0.22674 0.78972
 O1588 O 0.23507 0.23757 0.81083
 O1589 O 0.23527 0.18613 0.74854
 O1590 O 0.24784 0.26913 0.80612
 O1591 O 0.22610 0.19419 0.77945
 O1592 O 0.19458 0.24920 0.76737
 O1593 O 0.23061 0.25427 0.77677
 O1594 O 0.22483 0.22454 0.75526
 O1595 O 0.26519 0.23957 0.78520
 O1596 O 0.25965 0.21061 0.76489
 Zr1597 Zr 0.26818 0.25821 0.73143
 Zr1598 Zr 0.25836 0.26941 0.77753
 Zr1599 Zr 0.24730 0.21278 0.73704
 Zr1600 Zr 0.21917 0.25464 0.74866
 O1601 O 0.26661 0.18800 0.73029
 O1602 O 0.20666 0.28288 0.75736
 O1603 O 0.24037 0.24255 0.72897
 O1604 O 0.24606 0.27131 0.74969
 O1605 O 0.28091 0.25788 0.75919
 O1606 O 0.27497 0.22803 0.73778
 C1607 C 0.19240 0.23808 0.78242
 C1608 C 0.22725 0.18181 0.76496
 C1609 C 0.23973 0.25549 0.81674
 O1610 O 0.24018 0.29547 0.78234
 O1611 O 0.27355 0.29482 0.76693
 O1612 O 0.28045 0.28758 0.73533
 C1613 C 0.28097 0.29933 0.75030
 O1614 O 0.29086 0.20623 0.78818
 Zr1615 Zr 0.28655 0.22766 0.76574
 O1616 O 0.29944 0.25696 0.72573
 O1617 O 0.28289 0.27605 0.79628
 O1618 O 0.30716 0.24018 0.78605
 O1619 O 0.30150 0.20173 0.75431
 O1620 O 0.31217 0.23824 0.75058
 C1621 C 0.31425 0.24927 0.73544
 O1622 O 0.25798 0.27844 0.70981
 O1623 O 0.22171 0.20461 0.72020
 O1624 O 0.26892 0.24526 0.70324
 O1625 O 0.25436 0.21444 0.70763
 O1626 O 0.19615 0.24098 0.73165
 O1627 O 0.21441 0.27182 0.72316
 C1628 C 0.26254 0.22801 0.69697
 H1629 H 0.21209 0.21669 0.75430
 H1630 H 0.24319 0.28546 0.74596
 H1631 H 0.28484 0.22199 0.72855
 H1632 H 0.27080 0.23872 0.79845
 H1633 H 0.19197 0.28280 0.75406
 H1634 H 0.24740 0.30387 0.79200
 H1635 H 0.27982 0.28932 0.80232
 H1636 H 0.32051 0.23334 0.78420
 H1637 H 0.18337 0.24870 0.73393
 H1638 H 0.22495 0.19139 0.71412
 H1639 H 0.25927 0.17954 0.72075
 H1640 H 0.31607 0.20266 0.75791
 H1641 H 0.20013 0.27673 0.72279
 H1642 H 0.27002 0.28205 0.70189
 H1643 H 0.23587 0.20077 0.81300
 H1644 H 0.30557 0.20319 0.78959
 Zr1645 Zr 0.26769 0.77556 0.28182
 O1646 O 0.25712 0.79394 0.30492
 O1647 O 0.29917 0.77638 0.28594
 O1648 O 0.27290 0.76198 0.30921
 O1649 O 0.26455 0.81390 0.24807
 O1650 O 0.26263 0.72948 0.30457
 O1651 O 0.27628 0.80614 0.27821
 O1652 O 0.31183 0.75645 0.26170
 O1653 O 0.27685 0.74606 0.27460
 O1654 O 0.27815 0.77639 0.25326
 O1655 O 0.24163 0.75767 0.28536
 O1656 O 0.24326 0.78737 0.26541
 Zr1657 Zr 0.23646 0.73948 0.23153
 Zr1658 Zr 0.25051 0.72860 0.27660
 Zr1659 Zr 0.25367 0.78651 0.23675
 Zr1660 Zr 0.28617 0.74701 0.24577
 O1661 O 0.23179 0.80958 0.23206
 O1662 O 0.30191 0.72055 0.25458
 O1663 O 0.26261 0.75743 0.22775
 O1664 O 0.26088 0.72808 0.24800
 O1665 O 0.22585 0.73850 0.26006
 O1666 O 0.22755 0.76895 0.23891
 C1667 C 0.31391 0.76794 0.27663
 C1668 C 0.27349 0.81850 0.26404
 C1669 C 0.26992 0.74373 0.31510
 O1670 O 0.27107 0.70405 0.27950
 O1671 O 0.23648 0.70220 0.26649
 O1672 O 0.22641 0.70942 0.23574
 C1673 C 0.22780 0.69752 0.25043
 O1674 O 0.21381 0.78892 0.29075
 Zr1675 Zr 0.21811 0.76808 0.26761
 O1676 O 0.20478 0.73843 0.22769
 O1677 O 0.22805 0.71966 0.29672
 O1678 O 0.20002 0.75383 0.28892
 O1679 O 0.20015 0.79269 0.25772
 O1680 O 0.19259 0.75544 0.25404
 C1681 C 0.19020 0.74470 0.23868
 O1682 O 0.24664 0.71998 0.20911
 O1683 O 0.27706 0.79708 0.21838
 O1684 O 0.23338 0.75238 0.20359
 O1685 O 0.24486 0.78456 0.20772
 O1686 O 0.30588 0.76208 0.22637
 O1687 O 0.29095 0.72933 0.22041
 C1688 C 0.23771 0.77018 0.19727
 H1689 H 0.28997 0.78537 0.25141
 H1690 H 0.26463 0.71422 0.24380
 H1691 H 0.21662 0.77420 0.23042
 H1692 H 0.23685 0.75791 0.29894
 H1693 H 0.31634 0.72201 0.25064
 H1694 H 0.26530 0.69499 0.28944
 H1695 H 0.23262 0.70659 0.30222
 H1696 H 0.18612 0.75972 0.28815
 H1697 H 0.31954 0.75574 0.22753
 H1698 H 0.27228 0.81010 0.21294
 H1699 H 0.23763 0.81878 0.22228
 H1700 H 0.18605 0.79051 0.26235
 H1701 H 0.30544 0.72515 0.21967
 H1702 H 0.23441 0.71557 0.20185
 H1703 H 0.26929 0.79860 0.31213
 H1704 H 0.19905 0.79087 0.29315
 Zr1705 Zr 0.23630 0.75889 0.73149
 O1706 O 0.24839 0.77812 0.71003
 O1707 O 0.20557 0.75768 0.72367
 O1708 O 0.23517 0.74531 0.70363
 O1709 O 0.23034 0.79643 0.76617
 O1710 O 0.24904 0.71411 0.70864
 O1711 O 0.22488 0.78872 0.73442
 O1712 O 0.19197 0.73576 0.74541
 O1713 O 0.22960 0.72851 0.73670
 O1714 O 0.22169 0.75787 0.75836
 O1715 O 0.26454 0.74372 0.73098
 O1716 O 0.25657 0.77234 0.75138
 Zr1717 Zr 0.26379 0.72423 0.78450
 Zr1718 Zr 0.25783 0.71373 0.73773
 Zr1719 Zr 0.24211 0.76961 0.77830
 Zr1720 Zr 0.21608 0.72762 0.76395
 O1721 O 0.26056 0.79397 0.78729
 O1722 O 0.20471 0.70045 0.75191
 O1723 O 0.23544 0.73952 0.78519
 O1724 O 0.24346 0.71124 0.76460
 O1725 O 0.27863 0.72523 0.75773
 O1726 O 0.27015 0.75467 0.77923
 C1727 C 0.19060 0.74788 0.73095
 C1728 C 0.22401 0.80088 0.74905
 C1729 C 0.24064 0.72752 0.69783
 O1730 O 0.24118 0.68719 0.73166
 O1731 O 0.27330 0.68853 0.74882
 O1732 O 0.27759 0.69530 0.78090
 C1733 C 0.27979 0.68391 0.76578
 O1734 O 0.28951 0.77716 0.73008
 Zr1735 Zr 0.28390 0.75564 0.75213
 O1736 O 0.29437 0.72591 0.79271
 O1737 O 0.28373 0.70797 0.72025
 O1738 O 0.30661 0.74333 0.73360
 O1739 O 0.29697 0.78188 0.76451
 O1740 O 0.30834 0.74584 0.76950
 C1741 C 0.30956 0.73460 0.78459
 O1742 O 0.25231 0.70335 0.80480
 O1743 O 0.21501 0.77803 0.79300
 O1744 O 0.26204 0.73659 0.81284
 O1745 O 0.24515 0.76649 0.80830
 O1746 O 0.19246 0.73999 0.78138
 O1747 O 0.20957 0.70826 0.78756
 C1748 C 0.25322 0.75285 0.81909
 H1749 H 0.20888 0.76582 0.75887
 H1750 H 0.24073 0.69697 0.76785
 H1751 H 0.27897 0.76067 0.78932
 H1752 H 0.27102 0.74481 0.71810
 H1753 H 0.18976 0.70048 0.75389
 H1754 H 0.24929 0.67920 0.72221
 H1755 H 0.28158 0.69470 0.71391
 H1756 H 0.31956 0.75029 0.73655
 H1757 H 0.17975 0.73272 0.77817
 H1758 H 0.21766 0.79105 0.79962
 H1759 H 0.25225 0.80213 0.79644
 H1760 H 0.31181 0.78130 0.76191
 H1761 H 0.19561 0.70290 0.78615
 H1762 H 0.26374 0.69965 0.81349
 H1763 H 0.23693 0.78212 0.70149
 H1764 H 0.30425 0.78014 0.72956
 Zr1765 Zr 0.27639 0.24037 0.23257
 O1766 O 0.26814 0.22082 0.20960
 O1767 O 0.30798 0.24204 0.22896
 O1768 O 0.28063 0.25365 0.20494
 O1769 O 0.27669 0.20300 0.26735
 O1770 O 0.26690 0.28516 0.20865
 O1771 O 0.28721 0.21037 0.23678
 O1772 O 0.31836 0.26337 0.25291
 O1773 O 0.28247 0.27072 0.23911
 O1774 O 0.28659 0.24118 0.26120
 O1775 O 0.24867 0.25592 0.22845
 O1776 O 0.25300 0.22714 0.24912
 Zr1777 Zr 0.24118 0.27509 0.28177
 Zr1778 Zr 0.25448 0.28585 0.23652
 Zr1779 Zr 0.26302 0.22962 0.27780
 Zr1780 Zr 0.29155 0.27133 0.26803
 O1781 O 0.24371 0.20474 0.28284
 O1782 O 0.30481 0.29858 0.25835
 O1783 O 0.26895 0.25950 0.28622
 O1784 O 0.26452 0.28802 0.26513
 O1785 O 0.23069 0.27444 0.25319
 O1786 O 0.23534 0.24484 0.27498
 C1787 C 0.32178 0.25164 0.23836
 C1788 C 0.28561 0.19832 0.25136
 C1789 C 0.27576 0.27134 0.19853
 O1790 O 0.27249 0.31197 0.23320
 O1791 O 0.23747 0.31114 0.24574
 O1792 O 0.22844 0.30413 0.27680
 C1793 C 0.22841 0.31559 0.26173
 O1794 O 0.22373 0.22294 0.22326
 Zr1795 Zr 0.22603 0.24416 0.24629
 O1796 O 0.20956 0.27363 0.28547
 O1797 O 0.23157 0.29233 0.21589
 O1798 O 0.20667 0.25703 0.22505
 O1799 O 0.21096 0.21792 0.25614
 O1800 O 0.19921 0.25398 0.26021
 C1801 C 0.19574 0.26505 0.27521
 O1802 O 0.24941 0.29572 0.30385
 O1803 O 0.28712 0.22184 0.29674
 O1804 O 0.23839 0.26250 0.30984
 O1805 O 0.25318 0.23136 0.30652
 O1806 O 0.31225 0.25859 0.28818
 O1807 O 0.29426 0.29026 0.29278
 C1808 C 0.24405 0.24513 0.31647
 H1809 H 0.29916 0.23316 0.26336
 H1810 H 0.26682 0.30224 0.26897
 H1811 H 0.22490 0.23879 0.28346
 H1812 H 0.24407 0.25494 0.21485
 H1813 H 0.31925 0.29848 0.26250
 H1814 H 0.26597 0.32020 0.22296
 H1815 H 0.23488 0.30560 0.21014
 H1816 H 0.19332 0.25021 0.22595
 H1817 H 0.32525 0.26600 0.28708
 H1818 H 0.28369 0.20859 0.30245
 H1819 H 0.25031 0.19640 0.29295
 H1820 H 0.19671 0.21866 0.25148
 H1821 H 0.30827 0.29566 0.29346
 H1822 H 0.23675 0.29941 0.31092
 H1823 H 0.28086 0.21696 0.20271
 H1824 H 0.20919 0.22024 0.22055
 Zr1825 Zr 0.73067 0.74193 0.27498
 O1826 O 0.74182 0.72061 0.29517
 O1827 O 0.69996 0.74426 0.28291
 O1828 O 0.73014 0.75349 0.30371
 O1829 O 0.72404 0.70725 0.23784
 O1830 O 0.74479 0.78444 0.30071
 O1831 O 0.71851 0.71276 0.27000
 O1832 O 0.68711 0.76779 0.26217
 O1833 O 0.72479 0.77287 0.27157
 O1834 O 0.71641 0.74533 0.24813
 O1835 O 0.75926 0.75600 0.27658
 O1836 O 0.75089 0.72914 0.25443
 Zr1837 Zr 0.75970 0.77903 0.22442
 Zr1838 Zr 0.75337 0.78666 0.27164
 Zr1839 Zr 0.73683 0.73423 0.22764
 Zr1840 Zr 0.71163 0.77608 0.24432
 O1841 O 0.75461 0.70957 0.21755
 O1842 O 0.70075 0.80290 0.25778
 O1843 O 0.73098 0.76495 0.22251
 O1844 O 0.73937 0.79139 0.24489
 O1845 O 0.77423 0.77577 0.25116
 O1846 O 0.76522 0.74808 0.22792
 C1847 C 0.68533 0.75506 0.27606
 C1848 C 0.71744 0.70177 0.25454
 C1849 C 0.73623 0.77054 0.31068
 O1850 O 0.73692 0.81303 0.27958
 O1851 O 0.76883 0.81237 0.26205
 O1852 O 0.77345 0.80747 0.22969
 C1853 C 0.77528 0.81800 0.24537
 O1854 O 0.78351 0.72185 0.27587
 Zr1855 Zr 0.77863 0.74481 0.25496
 O1856 O 0.79039 0.77669 0.21644
 O1857 O 0.77944 0.79058 0.28919
 O1858 O 0.80142 0.75530 0.27418
 O1859 O 0.79106 0.71871 0.24139
 O1860 O 0.80349 0.75430 0.23814
 C1861 C 0.80518 0.76650 0.22380
 O1862 O 0.74891 0.80135 0.20506
 O1863 O 0.70976 0.72830 0.21205
 O1864 O 0.75848 0.76841 0.19547
 O1865 O 0.74090 0.73887 0.19792
 O1866 O 0.68795 0.76570 0.22604
 O1867 O 0.70586 0.79715 0.22184
 C1868 C 0.74973 0.75276 0.18816
 H1869 H 0.70340 0.73796 0.24708
 H1870 H 0.73690 0.80593 0.24248
 H1871 H 0.77403 0.74232 0.21762
 H1872 H 0.76564 0.75382 0.28937
 H1873 H 0.68584 0.80359 0.25566
 H1874 H 0.74515 0.82017 0.28945
 H1875 H 0.77748 0.80345 0.29635
 H1876 H 0.81425 0.74807 0.27094
 H1877 H 0.67538 0.77325 0.22954
 H1878 H 0.71203 0.71558 0.20472
 H1879 H 0.74625 0.70241 0.20781
 H1880 H 0.80587 0.71844 0.24418
 H1881 H 0.69198 0.80288 0.22340
 H1882 H 0.76054 0.80520 0.19671
 H1883 H 0.73014 0.71658 0.30337
 H1884 H 0.79821 0.71849 0.27650
 Zr1885 Zr 0.76990 0.26169 0.76487
 O1886 O 0.75938 0.27946 0.78843
 O1887 O 0.80148 0.26194 0.76918
 O1888 O 0.77461 0.24742 0.79193
 O1889 O 0.76763 0.30099 0.73213
 O1890 O 0.76416 0.21508 0.78655
 O1891 O 0.77845 0.29242 0.76234
 O1892 O 0.81403 0.24252 0.74453
 O1893 O 0.77882 0.23229 0.75701
 O1894 O 0.78073 0.26320 0.73647
 O1895 O 0.74358 0.24397 0.76768
 O1896 O 0.74572 0.27413 0.74854
 Zr1897 Zr 0.73898 0.22738 0.71347
 Zr1898 Zr 0.75230 0.21500 0.75839
 Zr1899 Zr 0.75656 0.27405 0.72002
 Zr1900 Zr 0.78843 0.23390 0.72828
 O1901 O 0.73509 0.29759 0.71574
 O1902 O 0.80384 0.20703 0.73650
 O1903 O 0.76529 0.24517 0.71030
 O1904 O 0.76299 0.21514 0.72988
 O1905 O 0.72793 0.22563 0.74179
 O1906 O 0.73027 0.25671 0.72148
 C1907 C 0.81619 0.25357 0.75972
 C1908 C 0.77604 0.30521 0.74845
 C1909 C 0.77147 0.22908 0.79739
 O1910 O 0.77266 0.19024 0.76091
 O1911 O 0.73821 0.18893 0.74740
 O1912 O 0.72761 0.19778 0.71714
 C1913 C 0.72897 0.18530 0.73137
 O1914 O 0.71567 0.27489 0.77381
 Zr1915 Zr 0.72029 0.25503 0.74995
 O1916 O 0.70759 0.22714 0.70873
 O1917 O 0.72954 0.20571 0.77806
 O1918 O 0.70175 0.23987 0.77030
 O1919 O 0.70291 0.28038 0.74087
 O1920 O 0.69475 0.24355 0.73515
 C1921 C 0.69274 0.23344 0.71932
 O1922 O 0.74945 0.20812 0.69099
 O1923 O 0.78026 0.28478 0.70211
 O1924 O 0.73619 0.24098 0.68586
 O1925 O 0.74778 0.27299 0.69092
 O1926 O 0.80861 0.24921 0.70951
 O1927 O 0.79307 0.21694 0.70246
 C1928 C 0.74050 0.25898 0.68008
 H1929 H 0.79264 0.27214 0.73501
 H1930 H 0.76657 0.20136 0.72536
 H1931 H 0.71953 0.26240 0.71302
 H1932 H 0.73864 0.24389 0.78121
 H1933 H 0.81828 0.20839 0.73258
 H1934 H 0.76671 0.18098 0.77057
 H1935 H 0.73395 0.19245 0.78325
 H1936 H 0.68786 0.24573 0.76941
 H1937 H 0.82211 0.24248 0.71046
 H1938 H 0.77568 0.29798 0.69693
 H1939 H 0.74112 0.30693 0.70620
 H1940 H 0.68869 0.27821 0.74515
 H1941 H 0.80747 0.21245 0.70172
 H1942 H 0.73731 0.20401 0.68343
 H1943 H 0.77152 0.28382 0.79585
 H1944 H 0.70088 0.27655 0.77622
 C1945 C 0.46204 0.99001 0.36233
 C1946 C 0.47376 0.99568 0.34620
 C1947 C 0.46437 0.99761 0.32807
 C1948 C 0.44345 0.99386 0.32594
 C1949 C 0.43239 0.98835 0.34244
 N1950 N 0.44179 0.98667 0.35981
 C1951 C 0.47018 0.98854 0.38235
 N1952 N 0.45638 0.98687 0.39691
 C1953 C 0.46173 0.98645 0.41581
 C1954 C 0.48225 0.98793 0.42127
 C1955 C 0.49701 0.98882 0.40660
 C1956 C 0.49106 0.98916 0.38708
 H1957 H 0.47350 1.00184 0.31570
 H1958 H 0.41617 0.98572 0.34167
 H1959 H 0.44982 0.98544 0.42658
 H1960 H 0.51300 0.98999 0.41022
 H1961 H 0.48981 0.99890 0.34744
 H1962 H 0.50268 0.99011 0.37606
 C1963 C -0.03615 0.49246 0.86056
 C1964 C -0.04188 0.47440 0.85152
 C1965 C -0.05254 0.47501 0.83403
 C1966 C -0.05761 0.49359 0.82517
 C1967 C -0.05079 0.51129 0.83455
 N1968 N -0.04080 0.51024 0.85175
 C1969 C -0.02703 0.49301 0.88023
 N1970 N -0.02991 0.50997 0.89108
 C1971 C -0.02358 0.51145 0.90970
 C1972 C -0.01370 0.49513 0.91874
 C1973 C -0.00967 0.47775 0.90766
 C1974 C -0.01636 0.47659 0.88841
 H1975 H -0.05640 0.46072 0.82742
 H1976 H -0.05440 0.52612 0.82903
 H1977 H -0.02672 0.52529 0.91759
 H1978 H -0.00205 0.46486 0.91407
 H1979 H -0.03886 0.45990 0.85810
 H1980 H -0.01333 0.46297 0.88019
 C1981 C 0.03476 -0.01442 0.85792
 C1982 C 0.05109 -0.02791 0.85477
 C1983 C 0.06193 -0.02729 0.83746
 C1984 C 0.05673 -0.01324 0.82317
 C1985 C 0.04018 -0.00013 0.82672
 N1986 N 0.02991 -0.00089 0.84384
 C1987 C 0.02383 -0.01373 0.87674
 N1988 N 0.01539 0.00400 0.88307
 C1989 C 0.00731 0.00613 0.90116
 C1990 C 0.00811 -0.01004 0.91418
 C1991 C 0.01562 -0.02868 0.90756
 C1992 C 0.02320 -0.03068 0.88885
 H1993 H 0.07448 -0.03776 0.83531
 H1994 H 0.03581 0.01109 0.81615
 H1995 H 0.00158 0.02074 0.90578
 H1996 H 0.01624 -0.04159 0.91712
 H1997 H 0.05602 -0.03845 0.86574
 H1998 H 0.02898 -0.04525 0.88421
 C1999 C 0.53766 0.51101 0.35736
 C2000 C 0.52903 0.52126 0.34159
 C2001 C 0.53817 0.51954 0.32331
 C2002 C 0.55580 0.50758 0.32068
 C2003 C 0.56343 0.49713 0.33675
 N2004 N 0.55446 0.49925 0.35434
 C2005 C 0.53009 0.51317 0.37749
 N2006 N 0.54350 0.50930 0.39195
 C2007 C 0.53817 0.50973 0.41086
 C2008 C 0.51795 0.51384 0.41645
 C2009 C 0.50377 0.51839 0.40184
 C2010 C 0.50980 0.51812 0.38231
 H2011 H 0.53186 0.52812 0.31142
 H2012 H 0.57665 0.48737 0.33545
 H2013 H 0.54979 0.50631 0.42147
 H2014 H 0.48801 0.52152 0.40545
 H2015 H 0.51591 0.53106 0.34343
 H2016 H 0.49856 0.52102 0.37121
 C2017 C 0.52677 0.50903 0.13603
 C2018 C 0.53024 0.52749 0.14558
 C2019 C 0.54084 0.52774 0.16307
 C2020 C 0.54776 0.50965 0.17138
 C2021 C 0.54276 0.49143 0.16201
 N2022 N 0.53276 0.49160 0.14478
 C2023 C 0.51846 0.50808 0.11606
 N2024 N 0.51031 0.49050 0.10929
 C2025 C 0.50475 0.48794 0.09042
 C2026 C 0.50812 0.50339 0.07702
 C2027 C 0.51590 0.52177 0.08380
 C2028 C 0.52100 0.52421 0.10319
 H2029 H 0.54424 0.54217 0.16966
 H2030 H 0.54716 0.47706 0.16816
 H2031 H 0.49895 0.47348 0.08568
 H2032 H 0.51884 0.53403 0.07388
 H2033 H 0.52523 0.54170 0.13951
 H2034 H 0.52801 0.53821 0.10760
 C2035 C 0.03542 0.99968 0.64025
 C2036 C 0.03946 1.01755 0.65059
 C2037 C 0.05037 1.01671 0.66788
 C2038 C 0.05702 0.99810 0.67532
 C2039 C 0.05166 0.98048 0.66506
 N2040 N 0.04135 0.98172 0.64802
 C2041 C 0.02612 0.99996 0.62060
 N2042 N 0.01757 0.98285 0.61317
 C2043 C 0.01057 0.98168 0.59459
 C2044 C 0.01264 0.99822 0.58214
 C2045 C 0.02090 1.01608 0.58968
 C2046 C 0.02761 1.01703 0.60873
 H2047 H 0.05408 1.03074 0.67508
 H2048 H 0.05584 0.96572 0.67046
 H2049 H 0.00445 0.96758 0.58929
 H2050 H 0.02284 1.02920 0.58058
 H2051 H 0.03451 1.03215 0.64540
 H2052 H 0.03484 1.03075 0.61358
 C2053 C -0.03771 0.49711 0.63984
 C2054 C -0.02755 0.50353 0.65663
 C2055 C -0.03780 0.50329 0.67445
 C2056 C -0.05814 0.49677 0.67559
 C2057 C -0.06770 0.49083 0.65833
 N2058 N -0.05739 0.49101 0.64132
 C2059 C -0.02796 0.49609 0.62047
 N2060 N -0.03625 0.48340 0.60720
 C2061 C -0.02964 0.48224 0.58866
 C2062 C -0.01391 0.49478 0.58208
 C2063 C -0.00462 0.50768 0.59560
 C2064 C -0.01157 0.50836 0.61484
 H2065 H -0.02966 0.50779 0.68735
 H2066 H -0.08346 0.48618 0.65823
 H2067 H -0.03722 0.47188 0.57894
 H2068 H 0.00745 0.51771 0.59116
 H2069 H -0.01179 0.50816 0.65616
 H2070 H -0.00476 0.51893 0.62485
 C2071 C 0.45953 0.01525 0.13690
 C2072 C 0.44296 0.02729 0.14287
 C2073 C 0.43427 0.02427 0.16099
 C2074 C 0.44216 0.00951 0.17343
 C2075 C 0.45960 -0.00130 0.16751
 N2076 N 0.46759 0.00161 0.14953
 C2077 C 0.46714 0.01598 0.11669
 N2078 N 0.48687 0.01095 0.11254
 C2079 C 0.49403 0.00992 0.09401
 C2080 C 0.48080 0.01337 0.07841
 C2081 C 0.46057 0.01884 0.08243
 C2082 C 0.45373 0.02023 0.10142
 H2083 H 0.42122 0.03336 0.16523
 H2084 H 0.46629 -0.01265 0.17680
 H2085 H 0.50969 0.00544 0.09144
 H2086 H 0.44985 0.02153 0.07081
 H2087 H 0.43652 0.03876 0.13355
 H2088 H 0.43780 0.02362 0.10396
 C2089 C 0.36824 0.42467 -0.00124
 C2090 C 0.35734 0.42048 -0.01831
 C2091 C 0.33872 0.41050 -0.01733
 C2092 C 0.33054 0.40484 0.00058
 C2093 C 0.34157 0.40993 0.01735
 N2094 N 0.35982 0.41950 0.01603
 C2095 C 0.38859 0.43454 -0.00155
 N2096 N 0.39586 0.44363 0.01478
 C2097 C 0.41428 0.45308 0.01535
 C2098 C 0.42654 0.45390 -0.00129
 C2099 C 0.41951 0.44416 -0.01807
 C2100 C 0.40079 0.43443 -0.01824
 H2101 H 0.33095 0.40687 -0.03069
 H2102 H 0.33571 0.40634 0.03154
 H2103 H 0.41913 0.46023 0.02866
 H2104 H 0.42853 0.44396 -0.03119
 H2105 H 0.36292 0.42487 -0.03237
 H2106 H 0.39624 0.42673 -0.03133
 C2107 C -0.12973 0.91744 0.50576
 C2108 C -0.13969 0.91318 0.48821
 C2109 C -0.15884 0.90415 0.48836
 C2110 C -0.16841 0.89946 0.50590
 C2111 C -0.15817 0.90443 0.52316
 N2112 N -0.13944 0.91316 0.52266
 C2113 C -0.10915 0.92682 0.50625
 N2114 N -0.10307 0.93742 0.52220
 C2115 C -0.08484 0.94721 0.52303
 C2116 C -0.07169 0.94696 0.50700
 C2117 C -0.07730 0.93539 0.49083
 C2118 C -0.09578 0.92522 0.49045
 H2119 H -0.16597 0.90054 0.47467
 H2120 H -0.16509 0.90149 0.53706
 H2121 H -0.08106 0.95586 0.53583
 H2122 H -0.06747 0.93441 0.47827
 H2123 H -0.13301 0.91692 0.47441
 H2124 H -0.09943 0.91630 0.47781
 C2125 C -0.13758 0.07317 0.98071
 C2126 C -0.14031 0.09080 0.96986
 C2127 C -0.15862 0.10163 0.97129
 C2128 C -0.17458 0.09502 0.98342
 C2129 C -0.17115 0.07693 0.99370
 N2130 N -0.15304 0.06692 0.99229
 C2131 C -0.11798 0.06183 0.98104
 N2132 N -0.11343 0.05084 0.99705
 C2133 C -0.09567 0.04043 0.99896
 C2134 C -0.08103 0.04051 0.98412
 C2135 C -0.08552 0.05132 0.96721
 C2136 C -0.10394 0.06206 0.96564
 H2137 H -0.16025 0.11490 0.96236
 H2138 H -0.18229 0.07116 1.00372
 H2139 H -0.09303 0.03210 1.01217
 H2140 H -0.07471 0.05173 0.95538
 H2141 H -0.12832 0.09655 0.96072
 H2142 H -0.10713 0.07024 0.95247
 C2143 C 0.35944 0.56571 0.48813
 C2144 C 0.34149 0.55750 0.49583
 C2145 C 0.32406 0.56954 0.49769
 C2146 C 0.32413 0.58974 0.49164
 C2147 C 0.34216 0.59715 0.48331
 N2148 N 0.35908 0.58518 0.48186
 C2149 C 0.37887 0.55397 0.48739
 N2150 N 0.39386 0.55928 0.47472
 C2151 C 0.41235 0.54970 0.47414
 C2152 C 0.41677 0.53403 0.48715
 C2153 C 0.40144 0.52828 0.50014
 C2154 C 0.38265 0.53814 0.50035
 H2155 H 0.31067 0.56307 0.50429
 H2156 H 0.34285 0.61246 0.47797
 H2157 H 0.42376 0.55475 0.46398
 H2158 H 0.40407 0.51633 0.51051
 H2159 H 0.34078 0.54195 0.50045
 H2160 H 0.37161 0.53377 0.51112
 C2161 C 0.13119 0.57532 0.51106
 C2162 C 0.14301 0.57930 0.52756
 C2163 C 0.16109 0.59023 0.52576
 C2164 C 0.16757 0.59724 0.50759
 C2165 C 0.15535 0.59282 0.49150
 N2166 N 0.13786 0.58217 0.49362
 C2167 C 0.11202 0.56341 0.51158
 N2168 N 0.10461 0.55637 0.49451
 C2169 C 0.08722 0.54552 0.49320
 C2170 C 0.07575 0.54105 0.50983
 C2171 C 0.08295 0.54819 0.52770
 C2172 C 0.10103 0.55937 0.52866
 H2173 H 0.17018 0.59289 0.53856
 H2174 H 0.15950 0.59806 0.47724
 H2175 H 0.08241 0.54046 0.47903
 H2176 H 0.07456 0.54528 0.54088
 H2177 H 0.13873 0.57378 0.54166
 H2178 H 0.10600 0.56498 0.54256
 C2179 C 0.63482 0.06788 0.00232
 C2180 C 0.64500 0.06927 -0.01551
 C2181 C 0.66206 0.08154 -0.01725
 C2182 C 0.66915 0.09267 -0.00134
 C2183 C 0.65842 0.09108 0.01623
 N2184 N 0.64172 0.07901 0.01757
 C2185 C 0.61656 0.05488 0.00457
 N2186 N 0.60162 0.06001 0.01749
 C2187 C 0.58397 0.04933 0.01908
 C2188 C 0.58045 0.03259 0.00698
 C2189 C 0.59608 0.02659 -0.00572
 C2190 C 0.61407 0.03752 -0.00687
 H2191 H 0.66985 0.08214 -0.03104
 H2192 H 0.66315 0.09961 0.02880
 H2193 H 0.57237 0.05443 0.02915
 H2194 H 0.59427 0.01357 -0.01509
 H2195 H 0.63972 0.06122 -0.02818
 H2196 H 0.62581 0.03242 -0.01677
 C2197 C 0.63550 0.93054 0.49630
 C2198 C 0.63752 0.91117 0.48811
 C2199 C 0.65537 0.90000 0.49112
 C2200 C 0.67133 0.90795 0.50227
 C2201 C 0.66876 0.92741 0.51009
 N2202 N 0.65115 0.93794 0.50711
 C2203 C 0.61643 0.94270 0.49455
 N2204 N 0.61237 0.95700 0.50823
 C2205 C 0.59490 0.96817 0.50831
 C2206 C 0.58002 0.96527 0.49396
 C2207 C 0.58413 0.95108 0.47929
 C2208 C 0.60226 0.93979 0.47952
 H2209 H 0.65672 0.88514 0.48463
 H2210 H 0.68055 0.93408 0.51892
 H2211 H 0.59255 0.97907 0.51981
 H2212 H 0.57314 0.94834 0.46793
 H2213 H 0.62534 0.90440 0.47986
 H2214 H 0.60504 0.92898 0.46804
 C2215 C 0.13238 0.42276 0.99583
 C2216 C 0.13563 0.40373 0.98728
 C2217 C 0.15429 0.39379 0.98993
 C2218 C 0.16981 0.40274 1.00096
 C2219 C 0.16600 0.42186 1.00905
 N2220 N 0.14764 0.43111 1.00648
 C2221 C 0.11253 0.43362 0.99470
 N2222 N 0.10796 0.44718 1.00889
 C2223 C 0.09016 0.45769 1.00937
 C2224 C 0.07545 0.45506 0.99481
 C2225 C 0.07990 0.44145 0.97973
 C2226 C 0.09838 0.43063 0.97966
 H2227 H 0.15663 0.37911 0.98329
 H2228 H 0.17742 0.42926 1.01780
 H2229 H 0.08761 0.46821 1.02117
 H2230 H 0.06907 0.43904 0.96816
 H2231 H 0.12381 0.39630 0.97908
 H2232 H 0.10157 0.42033 0.96784
 C2233 C -0.00522 0.36435 0.42744
 C2234 C -0.02366 0.35407 0.42514
 C2235 C -0.02357 0.33495 0.41672
 C2236 C -0.00519 0.32610 0.41054
 C2237 C 0.01293 0.33686 0.41329
 N2238 N 0.01247 0.35541 0.42164
 C2239 C -0.00435 0.38435 0.43663
 N2240 N 0.01250 0.38929 0.44699
 C2241 C 0.01425 0.40731 0.45620
 C2242 C -0.00155 0.42163 0.45512
 C2243 C -0.01882 0.41705 0.44405
 C2244 C -0.02030 0.39841 0.43482
 H2245 H -0.03785 0.32699 0.41526
 H2246 H 0.02742 0.33074 0.40851
 H2247 H 0.02791 0.41035 0.46443
 H2248 H -0.03135 0.42770 0.44282
 H2249 H -0.03793 0.36050 0.43015
 H2250 H -0.03369 0.39514 0.42627
 C2251 C 0.48763 -0.14719 -0.05150
 C2252 C 0.47334 -0.15343 -0.06533
 C2253 C 0.47541 -0.17236 -0.07390
 C2254 C 0.49136 -0.18536 -0.06845
 C2255 C 0.50443 -0.17912 -0.05356
 N2256 N 0.50240 -0.16037 -0.04573
 C2257 C 0.48790 -0.12641 -0.04375
 N2258 N 0.49859 -0.12265 -0.02729
 C2259 C 0.50075 -0.10372 -0.01998
 C2260 C 0.49203 -0.08714 -0.02955
 C2261 C 0.48090 -0.09069 -0.04652
 C2262 C 0.47887 -0.11021 -0.05369
 H2263 H 0.46500 -0.17640 -0.08539
 H2264 H 0.51660 -0.18885 -0.04852
 H2265 H 0.50944 -0.10170 -0.00683
 H2266 H 0.47401 -0.07836 -0.05447
 H2267 H 0.46091 -0.14379 -0.06988
 H2268 H 0.47089 -0.11228 -0.06721
 C2269 C 0.00290 -0.13200 1.07127
 C2270 C -0.00479 -0.14982 1.06313
 C2271 C -0.00206 -0.16801 1.07274
 C2272 C 0.00848 -0.16855 1.09034
 C2273 C 0.01642 -0.15051 1.09777
 N2274 N 0.01351 -0.13289 1.08815
 C2275 C 0.00013 -0.11237 1.06174
 N2276 N 0.01420 -0.09767 1.06463
 C2277 C 0.01296 -0.07951 1.05565
 C2278 C -0.00307 -0.07549 1.04278
 C2279 C -0.01810 -0.09019 1.04020
 C2280 C -0.01663 -0.10855 1.04971
 H2281 H -0.00858 -0.18156 1.06659
 H2282 H 0.02488 -0.15039 1.11119
 H2283 H 0.02481 -0.06852 1.05816
 H2284 H -0.03094 -0.08760 1.03068
 H2285 H -0.01270 -0.14985 1.04941
 H2286 H -0.02854 -0.11955 1.04764
 C2287 C 0.50723 0.35784 0.55023
 C2288 C 0.49138 0.34398 0.54770
 C2289 C 0.49080 0.32679 0.55914
 C2290 C 0.50591 0.32339 0.57308
 C2291 C 0.52167 0.33742 0.57495
 N2292 N 0.52183 0.35415 0.56374
 C2293 C 0.50748 0.37726 0.54005
 N2294 N 0.51711 0.39304 0.54862
 C2295 C 0.51680 0.41186 0.54101
 C2296 C 0.50607 0.41566 0.52386
 C2297 C 0.49668 0.39943 0.51437
 C2298 C 0.49744 0.38019 0.52236
 H2299 H 0.47814 0.31653 0.55753
 H2300 H 0.53373 0.33520 0.58540
 H2301 H 0.52451 0.42385 0.54868
 H2302 H 0.48850 0.40162 0.50094
 H2303 H 0.47904 0.34669 0.53767
 H2304 H 0.49015 0.36790 0.51478
 C2305 C 0.47707 1.14239 0.55585
 C2306 C 0.48154 1.16071 0.54670
 C2307 C 0.48189 1.17840 0.55759
 C2308 C 0.47744 1.17790 0.57740
 C2309 C 0.47137 1.15965 0.58564
 N2310 N 0.47163 1.14250 0.57486
 C2311 C 0.47960 1.12276 0.54604
 N2312 N 0.47039 1.10636 0.55381
 C2313 C 0.47350 1.08743 0.54682
 C2314 C 0.48690 1.08414 0.53127
 C2315 C 0.49642 1.10085 0.52291
 C2316 C 0.49287 1.12015 0.53026
 H2317 H 0.48623 1.19239 0.55071
 H2318 H 0.46772 1.15877 0.60088
 H2319 H 0.46569 1.07501 0.55364
 H2320 H 0.50691 1.09901 0.51092
 H2321 H 0.48520 1.16142 0.53148
 H2322 H 0.50112 1.13262 0.52406
 C2323 C 0.01022 0.64161 1.06086
 C2324 C 0.02788 0.64829 1.07020
 C2325 C 0.02725 0.66619 1.08081
 C2326 C 0.00913 0.67753 1.08196
 C2327 C -0.00804 0.67052 1.07194
 N2328 N -0.00714 0.65285 1.06200
 C2329 C 0.00953 0.62196 1.05102
 N2330 N -0.00796 0.61114 1.05191
 C2331 C -0.00960 0.59259 1.04371
 C2332 C 0.00698 0.58407 1.03374
 C2333 C 0.02502 0.59517 1.03227
 C2334 C 0.02640 0.61410 1.04099
 H2335 H 0.04074 0.67076 1.08864
 H2336 H -0.02222 0.67895 1.07212
 H2337 H -0.02386 0.58459 1.04494
 H2338 H 0.03813 0.58911 1.02463
 H2339 H 0.04177 0.63938 1.07000
 H2340 H 0.04039 0.62254 1.03975
 C2341 C 0.52924 0.62615 -0.07478
 C2342 C 0.53862 0.62879 -0.09284
 C2343 C 0.54002 0.64815 -0.10052
 C2344 C 0.53214 0.66477 -0.09025
 C2345 C 0.52374 0.66156 -0.07189
 N2346 N 0.52228 0.64258 -0.06486
 C2347 C 0.52506 0.60608 -0.06673
 N2348 N 0.50961 0.60445 -0.05374
 C2349 C 0.50464 0.58668 -0.04542
 C2350 C 0.51570 0.56910 -0.04994
 C2351 C 0.53166 0.57037 -0.06342
 C2352 C 0.53641 0.58883 -0.07183
 H2353 H 0.54663 0.65007 -0.11474
 H2354 H 0.51722 0.67392 -0.06361
 H2355 H 0.49232 0.58647 -0.03502
 H2356 H 0.54076 0.55722 -0.06718
 H2357 H 0.54393 0.61611 -0.10141
 H2358 H 0.54911 0.58955 -0.08176
 C2359 C -0.00230 1.13294 0.43439
 C2360 C -0.01016 1.15066 0.44275
 C2361 C -0.00861 1.16882 0.43284
 C2362 C 0.00082 1.16955 0.41451
 C2363 C 0.00904 1.15138 0.40706
 N2364 N 0.00730 1.13393 0.41703
 C2365 C -0.00356 1.11319 0.44392
 N2366 N 0.00979 1.09846 0.43838
 C2367 C 0.00974 1.07980 0.44632
 C2368 C -0.00440 1.07509 0.46080
 C2369 C -0.01861 1.08992 0.46646
 C2370 C -0.01830 1.10894 0.45801
 H2371 H -0.01570 1.18197 0.43935
 H2372 H 0.01742 1.15091 0.39361
 H2373 H 0.02092 1.06882 0.44144
 H2374 H -0.02992 1.08687 0.47745
 H2375 H -0.01738 1.15068 0.45681
 H2376 H -0.02965 1.11996 0.46236
 C2377 C 0.73392 0.71228 0.89453
 C2378 C 0.71768 0.70302 0.90416
 C2379 C 0.72084 0.69471 0.92241
 C2380 C 0.74018 0.69539 0.93100
 C2381 C 0.75589 0.70524 0.92112
 N2382 N 0.75241 0.71337 0.90336
 C2383 C 0.73172 0.71950 0.87446
 N2384 N 0.74146 0.73658 0.86876
 C2385 C 0.74134 0.74288 0.85004
 C2386 C 0.73177 0.73122 0.83577
 C2387 C 0.72151 0.71371 0.84135
 C2388 C 0.72121 0.70795 0.86070
 H2389 H 0.70835 0.68717 0.92955
 H2390 H 0.77094 0.70627 0.92740
 H2391 H 0.74967 0.75630 0.84612
 H2392 H 0.71421 0.70424 0.83063
 H2393 H 0.70278 0.70204 0.89754
 H2394 H 0.71375 0.69405 0.86467
 C2395 C 0.24097 0.21597 0.39423
 C2396 C 0.24737 0.22602 0.41112
 C2397 C 0.24909 0.21524 0.42847
 C2398 C 0.24440 0.19458 0.42905
 C2399 C 0.23822 0.18519 0.41183
 N2400 N 0.23673 0.19592 0.39525
 C2401 C 0.23955 0.22558 0.37488
 N2402 N 0.23535 0.21324 0.35964
 C2403 C 0.23528 0.21971 0.34110
 C2404 C 0.23995 0.23979 0.33679
 C2405 C 0.24332 0.25325 0.35215
 C2406 C 0.24317 0.24620 0.37129
 H2407 H 0.25380 0.22311 0.44146
 H2408 H 0.23483 0.16923 0.41142
 H2409 H 0.23236 0.20889 0.32966
 H2410 H 0.24708 0.26885 0.34932
 H2411 H 0.25117 0.24186 0.41111
 H2412 H 0.24638 0.25672 0.38286
 C2413 C 0.74444 0.29040 0.37937
 C2414 C 0.75745 0.28354 0.39416
 C2415 C 0.75672 0.29286 0.41238
 C2416 C 0.74316 0.30895 0.41593
 C2417 C 0.73000 0.31483 0.40100
 N2418 N 0.73105 0.30564 0.38344
 C2419 C 0.74507 0.28264 0.35914
 N2420 N 0.73171 0.29089 0.34634
 C2421 C 0.73176 0.28619 0.32724
 C2422 C 0.74612 0.27246 0.31969
 C2423 C 0.75970 0.26315 0.33260
 C2424 C 0.75928 0.26821 0.35232
 H2425 H 0.76723 0.28791 0.42348
 H2426 H 0.71900 0.32688 0.40318
 H2427 H 0.72077 0.29357 0.31794
 H2428 H 0.77104 0.25249 0.32737
 H2429 H 0.76832 0.27146 0.39184
 H2430 H 0.77029 0.26117 0.36177
 C2431 C 0.24623 0.78237 0.89651
 C2432 C 0.23137 0.79740 0.89975
 C2433 C 0.23127 0.80821 0.91706
 C2434 C 0.24594 0.80426 0.93127
 C2435 C 0.26042 0.78895 0.92766
 N2436 N 0.26036 0.77869 0.91051
 C2437 C 0.24745 0.77157 0.87766
 N2438 N 0.26589 0.76534 0.87059
 C2439 C 0.26811 0.75761 0.85236
 C2440 C 0.25121 0.75646 0.84003
 C2441 C 0.23202 0.76174 0.84738
 C2442 C 0.23002 0.76899 0.86619
 H2443 H 0.21979 0.81982 0.91927
 H2444 H 0.27213 0.78559 0.93820
 H2445 H 0.28316 0.75363 0.84712
 H2446 H 0.21862 0.76086 0.83829
 H2447 H 0.22028 0.80137 0.88883
 H2448 H 0.21500 0.77304 0.87143
 C2449 C 0.23828 0.79602 0.11813
 C2450 C 0.24831 0.78605 0.10285
 C2451 C 0.25067 0.79584 0.08504
 C2452 C 0.24295 0.81557 0.08215
 C2453 C 0.23309 0.82486 0.09810
 N2454 N 0.23121 0.81509 0.11518
 C2455 C 0.23630 0.78757 0.13792
 N2456 N 0.23165 0.80069 0.15247
 C2457 C 0.23073 0.79505 0.17127
 C2458 C 0.23483 0.77502 0.17657
 C2459 C 0.23868 0.76084 0.16183
 C2460 C 0.23948 0.76705 0.14245
 H2461 H 0.25805 0.78752 0.07349
 H2462 H 0.22762 0.84026 0.09757
 H2463 H 0.22746 0.80644 0.18214
 H2464 H 0.24200 0.74525 0.16537
 H2465 H 0.25462 0.77105 0.10456
 H2466 H 0.24280 0.75596 0.13136
 C2467 C 0.73788 0.28760 0.60192
 C2468 C 0.74829 0.27875 0.58626
 C2469 C 0.74992 0.28931 0.56881
 C2470 C 0.74109 0.30870 0.56667
 C2471 C 0.73073 0.31677 0.58292
 N2472 N 0.72962 0.30630 0.59968
 C2473 C 0.73692 0.27847 0.62146
 N2474 N 0.73266 0.29102 0.63657
 C2475 C 0.73261 0.28472 0.65517
 C2476 C 0.73719 0.26457 0.65965
 C2477 C 0.74070 0.25097 0.64436
 C2478 C 0.74064 0.25787 0.62519
 H2479 H 0.75771 0.28188 0.55695
 H2480 H 0.72434 0.33184 0.58296
 H2481 H 0.72956 0.29565 0.66651
 H2482 H 0.74432 0.23529 0.64727
 H2483 H 0.75552 0.26409 0.58748
 H2484 H 0.74367 0.24724 0.61360
 C2485 C 0.25414 0.20597 0.61738
 C2486 C 0.23863 0.19193 0.61410
 C2487 C 0.23560 0.18422 0.59560
 C2488 C 0.24803 0.19036 0.58024
 C2489 C 0.26258 0.20544 0.58388
 N2490 N 0.26540 0.21266 0.60219
 C2491 C 0.25925 0.21187 0.63740
 N2492 N 0.26115 0.23166 0.64262
 C2493 C 0.26372 0.23739 0.66148
 C2494 C 0.26408 0.22277 0.67616
 C2495 C 0.26342 0.20234 0.67072
 C2496 C 0.26100 0.19688 0.65149
 H2497 H 0.22383 0.17308 0.59340
 H2498 H 0.27241 0.21068 0.57242
 H2499 H 0.26433 0.25330 0.66506
 H2500 H 0.26404 0.19049 0.68146
 H2501 H 0.22927 0.18658 0.62589
 H2502 H 0.25994 0.18104 0.64768
 C2503 C 0.74502 0.72377 0.11082
 C2504 C 0.72729 0.71365 0.10513
 C2505 C 0.72730 0.70204 0.08828
 C2506 C 0.74496 0.70017 0.07676
 C2507 C 0.76233 0.71096 0.08293
 N2508 N 0.76196 0.72200 0.09959
 C2509 C 0.74623 0.73479 0.12953
 N2510 N 0.76466 0.73667 0.13846
 C2511 C 0.76653 0.74435 0.15668
 C2512 C 0.74912 0.75010 0.16710
 C2513 C 0.73018 0.74931 0.15790
 C2514 C 0.72868 0.74200 0.13904
 H2515 H 0.71314 0.69495 0.08424
 H2516 H 0.77663 0.70986 0.07526
 H2517 H 0.78137 0.74462 0.16348
 H2518 H 0.71643 0.75358 0.16563
 H2519 H 0.71358 0.71407 0.11379
 H2520 H 0.71382 0.74149 0.13234
 C2521 C 0.18858 0.61966 0.24906
 C2522 C 0.19682 0.60215 0.25754
 C2523 C 0.18537 0.58448 0.25811
 C2524 C 0.16572 0.58398 0.25014
 C2525 C 0.15826 0.60166 0.24132
 N2526 N 0.16967 0.61875 0.24102
 C2527 C 0.19972 0.63916 0.24901
 N2528 N 0.19514 0.65342 0.23548
 C2529 C 0.20425 0.67187 0.23515
 C2530 C 0.21870 0.67704 0.24929
 C2531 C 0.22362 0.66251 0.26331
 C2532 C 0.21424 0.64371 0.26324
 H2533 H 0.19179 0.57130 0.26510
 H2534 H 0.14339 0.60189 0.23459
 H2535 H 0.19983 0.68264 0.22417
 H2536 H 0.23458 0.66575 0.27459
 H2537 H 0.21199 0.60195 0.26362
 H2538 H 0.21793 0.63320 0.27466
 C2539 C 0.68552 0.11046 0.73339
 C2540 C 0.69342 0.09166 0.72770
 C2541 C 0.68183 0.07427 0.73033
 C2542 C 0.66243 0.07532 0.73915
 C2543 C 0.65523 0.09468 0.74466
 N2544 N 0.66666 0.11142 0.74149
 C2545 C 0.69754 0.12915 0.73128
 N2546 N 0.68835 0.14638 0.72487
 C2547 C 0.69847 0.16423 0.72360
 C2548 C 0.71880 0.16555 0.72972
 C2549 C 0.72853 0.14798 0.73636
 C2550 C 0.71806 0.12971 0.73688
 H2551 H 0.68862 0.05996 0.72619
 H2552 H 0.64023 0.09675 0.75085
 H2553 H 0.69039 0.17756 0.71871
 H2554 H 0.74413 0.14850 0.74142
 H2555 H 0.70840 0.09043 0.72121
 H2556 H 0.72567 0.11634 0.74235
 C2557 C 0.82197 0.12744 0.25018
 C2558 C 0.82152 0.11517 0.26671
 C2559 C 0.83141 0.09638 0.26647
 C2560 C 0.84176 0.08959 0.24984
 C2561 C 0.84160 0.10222 0.23355
 N2562 N 0.83187 0.12045 0.23413
 C2563 C 0.81157 0.14751 0.24938
 N2564 N 0.80693 0.15543 0.23178
 C2565 C 0.79737 0.17359 0.22968
 C2566 C 0.79184 0.18520 0.24598
 C2567 C 0.79678 0.17751 0.26430
 C2568 C 0.80662 0.15878 0.26608
 H2569 H 0.83066 0.08704 0.27925
 H2570 H 0.84950 0.09781 0.22044
 H2571 H 0.79404 0.17886 0.21523
 H2572 H 0.79303 0.18595 0.27729
 H2573 H 0.81332 0.11970 0.27960
 H2574 H 0.81051 0.15345 0.28037
 C2575 C 0.32359 0.60770 0.76678
 C2576 C 0.33417 0.59897 0.78237
 C2577 C 0.34465 0.58064 0.77968
 C2578 C 0.34470 0.57091 0.76156
 C2579 C 0.33379 0.58006 0.74647
 N2580 N 0.32373 0.59782 0.74944
 C2581 C 0.31210 0.62719 0.76814
 N2582 N 0.30060 0.63269 0.75266
 C2583 C 0.29000 0.65033 0.75192
 C2584 C 0.29056 0.66411 0.76745
 C2585 C 0.30209 0.65878 0.78378
 C2586 C 0.31291 0.64040 0.78419
 H2587 H 0.35298 0.57426 0.79173
 H2588 H 0.33303 0.57303 0.73234
 H2589 H 0.28128 0.65359 0.73903
 H2590 H 0.30309 0.66898 0.79603
 H2591 H 0.33441 0.60595 0.79651
 H2592 H 0.32199 0.63697 0.79678
 C2593 C 0.31944 0.37750 0.74629
 C2594 C 0.31099 0.39484 0.75492
 C2595 C 0.32184 0.41287 0.75505
 C2596 C 0.34134 0.41409 0.74645
 C2597 C 0.34882 0.39634 0.73731
 N2598 N 0.33790 0.37891 0.73749
 C2599 C 0.30898 0.35766 0.74710
 N2600 N 0.31231 0.34348 0.73303
 C2601 C 0.30338 0.32491 0.73339
 C2602 C 0.29048 0.31960 0.74876
 C2603 C 0.28704 0.33401 0.76341
 C2604 C 0.29619 0.35288 0.76266
 H2605 H 0.31505 0.42544 0.76276
 H2606 H 0.36311 0.39621 0.72959
 H2607 H 0.30662 0.31424 0.72187
 H2608 H 0.27731 0.33071 0.77563
 H2609 H 0.29612 0.39458 0.76166
 H2610 H 0.29363 0.36334 0.77448
 C2611 C 0.81429 0.89603 0.24351
 C2612 C 0.80686 0.91285 0.25389
 C2613 C 0.81795 0.93077 0.25418
 C2614 C 0.83643 0.93215 0.24409
 C2615 C 0.84296 0.91521 0.23331
 N2616 N 0.83193 0.89786 0.23331
 C2617 C 0.80371 0.87623 0.24393
 N2618 N 0.80565 0.86308 0.22877
 C2619 C 0.79663 0.84455 0.22864
 C2620 C 0.78512 0.83818 0.24460
 C2621 C 0.78317 0.85150 0.26039
 C2622 C 0.79236 0.87038 0.26012
 H2623 H 0.81229 0.94336 0.26272
 H2624 H 0.85688 0.91572 0.22495
 H2625 H 0.79868 0.83476 0.21620
 H2626 H 0.77452 0.84736 0.27310
 H2627 H 0.79263 0.91226 0.26177
 H2628 H 0.79094 0.88001 0.27273
 C2629 C 0.67862 0.88295 0.76174
 C2630 C 0.65869 0.88482 0.76884
 C2631 C 0.64799 0.90295 0.76647
 C2632 C 0.65696 0.91959 0.75707
 C2633 C 0.67712 0.91691 0.75030
 N2634 N 0.68707 0.89897 0.75257
 C2635 C 0.69035 0.86372 0.76299
 N2636 N 0.70478 0.85966 0.74934
 C2637 C 0.71561 0.84208 0.74898
 C2638 C 0.71227 0.82718 0.76302
 C2639 C 0.69791 0.83128 0.77761
 C2640 C 0.68692 0.84947 0.77764
 H2641 H 0.63289 0.90389 0.77267
 H2642 H 0.68482 0.92863 0.74239
 H2643 H 0.72664 0.83967 0.73754
 H2644 H 0.69480 0.82024 0.78872
 H2645 H 0.65120 0.87234 0.77586
 H2646 H 0.67596 0.85227 0.78904
 C2647 C 0.18352 0.39115 0.26116
 C2648 C 0.17838 0.40264 0.27760
 C2649 C 0.16750 0.42073 0.27548
 C2650 C 0.16165 0.42757 0.25706
 C2651 C 0.16739 0.41577 0.24099
 N2652 N 0.17799 0.39821 0.24342
 C2653 C 0.19516 0.37181 0.26236
 N2654 N 0.20519 0.36510 0.24632
 C2655 C 0.21597 0.34750 0.24595
 C2656 C 0.21706 0.33515 0.26243
 C2657 C 0.20673 0.34167 0.27915
 C2658 C 0.19579 0.35993 0.27919
 H2659 H 0.16393 0.42952 0.28830
 H2660 H 0.16315 0.42026 0.22651
 H2661 H 0.22354 0.34314 0.23265
 H2662 H 0.20693 0.33260 0.29214
 H2663 H 0.18297 0.39805 0.29194
 H2664 H 0.18761 0.36433 0.29213
 C2665 C 0.11784 0.24398 0.82459
 C2666 C 0.11159 0.26232 0.83295
 C2667 C 0.09309 0.26335 0.84270
 C2668 C 0.08075 0.24621 0.84398
 C2669 C 0.08792 0.22798 0.83592
 N2670 N 0.10607 0.22732 0.82654
 C2671 C 0.13671 0.24255 0.81336
 N2672 N 0.14854 0.22567 0.81470
 C2673 C 0.16627 0.22367 0.80471
 C2674 C 0.17266 0.23913 0.79236
 C2675 C 0.16033 0.25637 0.79041
 C2676 C 0.14241 0.25817 0.80095
 H2677 H 0.08845 0.27757 0.84918
 H2678 H 0.07886 0.21441 0.83647
 H2679 H 0.17534 0.21008 0.80647
 H2680 H 0.16476 0.26868 0.78108
 H2681 H 0.12093 0.27568 0.83201
 H2682 H 0.13302 0.27156 0.79929
 C2683 C 0.60599 0.74206 0.30796
 C2684 C 0.58931 0.75485 0.30426
 C2685 C 0.57142 0.75245 0.31470
 C2686 C 0.57006 0.73743 0.32885
 C2687 C 0.58680 0.72454 0.33170
 N2688 N 0.60419 0.72727 0.32144
 C2689 C 0.62601 0.74529 0.29892
 N2690 N 0.64287 0.73793 0.30798
 C2691 C 0.66194 0.74094 0.30107
 C2692 C 0.66483 0.75211 0.28412
 C2693 C 0.64765 0.75962 0.27442
 C2694 C 0.62824 0.75612 0.28166
 H2695 H 0.55904 0.76307 0.31242
 H2696 H 0.58628 0.71269 0.34241
 H2697 H 0.67477 0.73469 0.30890
 H2698 H 0.64914 0.76794 0.26105
 H2699 H 0.59023 0.76727 0.29423
 H2700 H 0.61528 0.76167 0.27360
 C2701 C 0.61724 0.26835 0.16177
 C2702 C 0.60765 0.28618 0.15549
 C2703 C 0.58871 0.28506 0.14643
 C2704 C 0.57951 0.26625 0.14356
 C2705 C 0.58967 0.24884 0.14996
 N2706 N 0.60793 0.25033 0.15889
 C2707 C 0.63665 0.26836 0.17234
 N2708 N 0.64064 0.25271 0.18445
 C2709 C 0.65818 0.25130 0.19468
 C2710 C 0.67310 0.26619 0.19284
 C2711 C 0.66943 0.28238 0.18023
 C2712 C 0.65121 0.28354 0.16997
 H2713 H 0.58123 0.29881 0.14173
 H2714 H 0.58288 0.23408 0.14836
 H2715 H 0.66043 0.23849 0.20411
 H2716 H 0.68058 0.29418 0.17834
 H2717 H 0.61434 0.30084 0.15800
 H2718 H 0.64881 0.29594 0.16009
 C2719 C 0.11058 0.76027 0.70038
 C2720 C 0.10378 0.77726 0.69005
 C2721 C 0.08496 0.77663 0.68074
 C2722 C 0.07308 0.75920 0.68185
 C2723 C 0.07976 0.74318 0.69342
 N2724 N 0.09817 0.74404 0.70213
 C2725 C 0.13116 0.75868 0.70856
 N2726 N 0.13458 0.74452 0.72238
 C2727 C 0.15337 0.74076 0.72964
 C2728 C 0.17023 0.75142 0.72273
 C2729 C 0.16710 0.76608 0.70843
 C2730 C 0.14761 0.76975 0.70129
 H2731 H 0.08016 0.78930 0.67197
 H2732 H 0.07072 0.72967 0.69489
 H2733 H 0.15503 0.72938 0.74072
 H2734 H 0.17968 0.77471 0.70272
 H2735 H 0.11294 0.79070 0.68880
 H2736 H 0.14569 0.78065 0.68983
 C2737 C 0.88606 0.72906 0.69669
 C2738 C 0.90483 0.72681 0.70600
 C2739 C 0.92272 0.72890 0.69540
 C2740 C 0.92207 0.73325 0.67545
 C2741 C 0.90269 0.73453 0.66668
 N2742 N 0.88556 0.73256 0.67739
 C2743 C 0.86667 0.72876 0.70722
 N2744 N 0.84954 0.72361 0.69739
 C2745 C 0.83076 0.72503 0.70543
 C2746 C 0.82846 0.73263 0.72427
 C2747 C 0.84595 0.73773 0.73480
 C2748 C 0.86510 0.73576 0.72635
 H2749 H 0.93693 0.72653 0.70295
 H2750 H 0.90079 0.73830 0.65161
 H2751 H 0.81766 0.72094 0.69682
 H2752 H 0.84482 0.74362 0.74940
 H2753 H 0.90576 0.72337 0.72125
 H2754 H 0.87834 0.74057 0.73440
 C2755 C 0.40322 0.24039 0.21039
 C2756 C 0.41803 0.25559 0.21131
 C2757 C 0.43487 0.25449 0.19905
 C2758 C 0.43689 0.23838 0.18596
 C2759 C 0.42268 0.22274 0.18662
 N2760 N 0.40625 0.22431 0.19839
 C2761 C 0.38303 0.24271 0.21946
 N2762 N 0.36735 0.23217 0.21161
 C2763 C 0.34784 0.23460 0.21757
 C2764 C 0.34309 0.24858 0.23221
 C2765 C 0.35907 0.25919 0.24099
 C2766 C 0.37907 0.25627 0.23471
 H2767 H 0.44546 0.26695 0.19878
 H2768 H 0.42397 0.20991 0.17693
 H2769 H 0.33610 0.22577 0.21063
 H2770 H 0.35613 0.26987 0.25259
 H2771 H 0.41605 0.26891 0.22022
 H2772 H 0.39113 0.26461 0.24168
 C2773 C 0.39280 0.77596 0.30986
 C2774 C 0.40095 0.79303 0.31909
 C2775 C 0.41810 0.79081 0.33081
 C2776 C 0.42693 0.77168 0.33325
 C2777 C 0.41902 0.75529 0.32292
 N2778 N 0.40230 0.75778 0.31173
 C2779 C 0.37332 0.77650 0.29945
 N2780 N 0.36954 0.76172 0.28623
 C2781 C 0.35095 0.75930 0.27804
 C2782 C 0.33465 0.77177 0.28369
 C2783 C 0.33834 0.78747 0.29690
 C2784 C 0.35766 0.78992 0.30478
 H2785 H 0.42400 0.80381 0.33847
 H2786 H 0.42583 0.74040 0.32411
 H2787 H 0.34878 0.74709 0.26780
 H2788 H 0.32619 0.79754 0.30153
 H2789 H 0.39403 0.80782 0.31757
 H2790 H 0.35988 0.80146 0.31567
 C2791 C 0.89582 0.26462 0.79146
 C2792 C 0.91377 0.25462 0.78555
 C2793 C 0.93062 0.25448 0.79779
 C2794 C 0.92969 0.26447 0.81568
 C2795 C 0.91215 0.27564 0.82029
 N2796 N 0.89582 0.27519 0.80838
 C2797 C 0.87624 0.26274 0.78117
 N2798 N 0.86012 0.27372 0.78794
 C2799 C 0.84096 0.27140 0.78106
 C2800 C 0.83707 0.25702 0.76663
 C2801 C 0.85350 0.24589 0.75901
 C2802 C 0.87306 0.24864 0.76624
 H2803 H 0.94396 0.24576 0.79368
 H2804 H 0.91109 0.28404 0.83372
 H2805 H 0.82880 0.28055 0.78714
 H2806 H 0.85118 0.23467 0.74779
 H2807 H 0.91483 0.24644 0.77205
 H2808 H 0.88516 0.23923 0.76053
 C2809 C 0.54145 1.01753 0.63956
 C2810 C 0.53043 1.02154 0.65660
 C2811 C 0.53955 1.01783 0.67457
 C2812 C 0.55946 1.00994 0.67557
 C2813 C 0.56987 1.00623 0.65820
 N2814 N 0.56079 1.01014 0.64098
 C2815 C 0.53313 1.02095 0.61990
 N2816 N 0.54665 1.02253 0.60510
 C2817 C 0.54082 1.02342 0.58633
 C2818 C 0.52016 1.02205 0.58130
 C2819 C 0.50573 1.02139 0.59629
 C2820 C 0.51215 1.02083 0.61565
 H2821 H 0.53102 1.02098 0.68767
 H2822 H 0.58537 1.00057 0.65826
 H2823 H 0.55250 1.02421 0.57530
 H2824 H 0.48966 1.02012 0.59303
 H2825 H 0.51516 1.02775 0.65615
 H2826 H 0.50088 1.01920 0.62693
 C2827 C 0.04097 0.51587 1.14037
 C2828 C 0.04785 0.53348 1.14940
 C2829 C 0.05838 0.53216 1.16692
 C2830 C 0.06225 0.51326 1.17589
 C2831 C 0.05412 0.49609 1.16641
 N2832 N 0.04433 0.49786 1.14919
 C2833 C 0.03212 0.51583 1.12063
 N2834 N 0.03427 0.49871 1.10990
 C2835 C 0.02806 0.49745 1.09126
 C2836 C 0.01902 0.51415 1.08212
 C2837 C 0.01575 0.53178 1.09303
 C2838 C 0.02240 0.53274 1.11232
 H2839 H 0.06283 0.54629 1.17345
 H2840 H 0.05664 0.48097 1.17164
 H2841 H 0.03051 0.48342 1.08347
 H2842 H 0.00874 0.54493 1.08650
 H2843 H 0.04577 0.54813 1.14281
 H2844 H 0.02001 0.54652 1.12048
 C2845 C -0.03844 0.00642 1.13797
 C2846 C -0.04066 0.02473 1.14804
 C2847 C -0.05028 0.02509 1.16605
 C2848 C -0.05791 0.00721 1.17430
 C2849 C -0.05414 -0.01099 1.16404
 N2850 N -0.04481 -0.01087 1.14647
 C2851 C -0.03075 0.00570 1.11781
 N2852 N -0.02094 -0.01115 1.11104
 C2853 C -0.01501 -0.01313 1.09219
 C2854 C -0.01963 0.00214 1.07886
 C2855 C -0.02955 0.01963 1.08562
 C2856 C -0.03501 0.02152 1.10498
 H2857 H -0.05269 0.03970 1.17272
 H2858 H -0.05838 -0.02545 1.16992
 H2859 H -0.00749 -0.02690 1.08749
 H2860 H -0.03339 0.03178 1.07581
 H2861 H -0.03539 0.03878 1.14193
 H2862 H -0.04331 0.03487 1.10960
 C2863 C 0.45365 0.47901 0.63315
 C2864 C 0.46363 0.47115 0.64945
 C2865 C 0.45485 0.47375 0.66779
 C2866 C 0.43624 0.48423 0.66996
 C2867 C 0.42700 0.49201 0.65324
 N2868 N 0.43572 0.48913 0.63564
 C2869 C 0.46153 0.47660 0.61317
 N2870 N 0.44797 0.47828 0.59842
 C2871 C 0.45370 0.47818 0.57959
 C2872 C 0.47439 0.47691 0.57448
 C2873 C 0.48872 0.47436 0.58937
 C2874 C 0.48235 0.47417 0.60876
 H2875 H 0.46240 0.46715 0.68017
 H2876 H 0.41290 0.50051 0.65411
 H2877 H 0.44202 0.47994 0.56867
 H2878 H 0.50484 0.47350 0.58611
 H2879 H 0.47771 0.46268 0.64809
 H2880 H 0.49368 0.47314 0.62006
 C2881 C 0.47562 0.49228 -0.14763
 C2882 C 0.47513 0.47484 -0.15928
 C2883 C 0.46377 0.47487 -0.17631
 C2884 C 0.45306 0.49226 -0.18199
 C2885 C 0.45502 0.50978 -0.17059
 N2886 N 0.46589 0.50928 -0.15383
 C2887 C 0.48475 0.49200 -0.12802
 N2888 N 0.49156 0.50949 -0.11982
 C2889 C 0.49790 0.51048 -0.10105
 C2890 C 0.49672 0.49336 -0.08926
 C2891 C 0.49020 0.47518 -0.09751
 C2892 C 0.48436 0.47438 -0.11682
 H2893 H 0.46315 0.46120 -0.18493
 H2894 H 0.44710 0.52356 -0.17447
 H2895 H 0.50261 0.52483 -0.09506
 H2896 H 0.48887 0.46172 -0.08875
 H2897 H 0.48313 0.46119 -0.15515
 H2898 H 0.47843 0.46035 -0.12248
 C2899 C -0.03680 1.00355 0.35842
 C2900 C -0.03904 0.98609 0.34700
 C2901 C -0.04908 0.98727 0.32929
 C2902 C -0.05670 1.00582 0.32266
 C2903 C -0.05302 1.02316 0.33391
 N2904 N -0.04350 1.02159 0.35137
 C2905 C -0.02879 1.00235 0.37848
 N2906 N -0.01923 1.01849 0.38671
 C2907 C -0.01278 1.01840 0.40550
 C2908 C -0.01649 1.00159 0.41726
 C2909 C -0.02617 0.98485 0.40896
 C2910 C -0.03227 0.98513 0.38973
 H2911 H -0.05108 0.97362 0.32085
 H2912 H -0.05853 1.03779 0.32926
 H2913 H -0.00551 1.03168 0.41141
 H2914 H -0.02936 0.97155 0.41748
 H2915 H -0.03335 0.97157 0.35177
 H2916 H -0.04037 0.97224 0.38404
 C2917 C 0.03709 0.50124 0.35832
 C2918 C 0.03341 0.48738 0.34325
 C2919 C 0.04369 0.48948 0.32560
 C2920 C 0.05764 0.50524 0.32293
 C2921 C 0.06034 0.51904 0.33811
 N2922 N 0.05027 0.51665 0.35507
 C2923 C 0.02834 0.49951 0.37810
 N2924 N 0.03491 0.51299 0.39155
 C2925 C 0.02917 0.51235 0.41033
 C2926 C 0.01602 0.49723 0.41693
 C2927 C 0.00836 0.48343 0.40334
 C2928 C 0.01452 0.48446 0.38389
 H2929 H 0.04126 0.47841 0.31428
 H2930 H 0.07064 0.53162 0.33660
 H2931 H 0.03520 0.52359 0.42015
 H2932 H -0.00186 0.47158 0.40784
 H2933 H 0.02321 0.47480 0.34502
 H2934 H 0.00870 0.47343 0.37381
 C2935 C 0.54735 -0.01624 -0.13628
 C2936 C 0.56516 -0.00473 -0.13723
 C2937 C 0.57372 -0.00028 -0.15511
 C2938 C 0.56481 -0.00743 -0.17225
 C2939 C 0.54652 -0.01835 -0.17070
 N2940 N 0.53834 -0.02243 -0.15300
 C2941 C 0.53869 -0.02166 -0.11725
 N2942 N 0.51840 -0.01918 -0.11357
 C2943 C 0.51050 -0.02119 -0.09540
 C2944 C 0.52344 -0.02535 -0.07971
 C2945 C 0.54405 -0.02942 -0.08358
 C2946 C 0.55168 -0.02763 -0.10224
 H2947 H 0.58737 0.00877 -0.15546
 H2948 H 0.53907 -0.02422 -0.18346
 H2949 H 0.49451 -0.01799 -0.09300
 H2950 H 0.55453 -0.03288 -0.07194
 H2951 H 0.57237 0.00087 -0.12421
 H2952 H 0.56780 -0.03005 -0.10477
 C2953 C 0.63897 0.56597 -0.01030
 C2954 C 0.64177 0.58342 -0.02144
 C2955 C 0.65908 0.59521 -0.01858
 C2956 C 0.67371 0.58972 -0.00473
 C2957 C 0.67051 0.57200 0.00588
 N2958 N 0.65339 0.56089 0.00303
 C2959 C 0.62012 0.55375 -0.01163
 N2960 N 0.61405 0.54319 0.00417
 C2961 C 0.59642 0.53256 0.00458
 C2962 C 0.58352 0.53211 -0.01163
 C2963 C 0.58980 0.54229 -0.02835
 C2964 C 0.60803 0.55311 -0.02842
 H2965 H 0.66099 0.60869 -0.02718
 H2966 H 0.68130 0.56730 0.01682
 H2967 H 0.59236 0.52476 0.01773
 H2968 H 0.58039 0.54233 -0.04121
 H2969 H 0.63050 0.58835 -0.03181
 H2970 H 0.61251 0.56086 -0.04146
 C2971 C 0.13170 1.07305 0.49045
 C2972 C 0.13449 1.09180 0.48144
 C2973 C 0.15277 1.10217 0.48411
 C2974 C 0.16836 1.09393 0.49562
 C2975 C 0.16505 1.07504 0.50413
 N2976 N 0.14704 1.06537 0.50153
 C2977 C 0.11214 1.06195 0.48948
 N2978 N 0.10768 1.04901 0.50407
 C2979 C 0.08991 1.03871 0.50489
 C2980 C 0.07511 1.04104 0.49037
 C2981 C 0.07954 1.05385 0.47482
 C2982 C 0.09799 1.06438 0.47435
 H2983 H 0.15473 1.11664 0.47714
 H2984 H 0.17654 1.06821 0.51326
 H2985 H 0.08735 1.02879 0.51703
 H2986 H 0.06861 1.05601 0.46328
 H2987 H 0.12257 1.09873 0.47291
 H2988 H 0.10110 1.07416 0.46223
 C2989 C 0.13118 -0.07146 1.01087
 C2990 C 0.13323 -0.09098 1.01835
 C2991 C 0.15168 -0.10140 1.01627
 C2992 C 0.16850 -0.09250 1.00688
 C2993 C 0.16573 -0.07263 0.99996
 N2994 N 0.14743 -0.06301 1.00183
 C2995 C 0.11143 -0.06040 1.01121
 N2996 N 0.10715 -0.04742 0.99655
 C2997 C 0.08901 -0.03755 0.99513
 C2998 C 0.07369 -0.04039 1.00906
 C2999 C 0.07798 -0.05311 1.02474
 C3000 C 0.09678 -0.06321 1.02582
 H3001 H 0.15274 -0.11626 1.02263
 H3002 H 0.17765 -0.06498 0.99216
 H3003 H 0.08647 -0.02766 0.98293
 H3004 H 0.06663 -0.05568 1.03581
 H3005 H 0.12059 -0.09842 1.02531
 H3006 H 0.09976 -0.07308 1.03794
 C3007 C 0.63669 0.43688 0.50504
 C3008 C 0.65502 0.44622 0.49993
 C3009 C 0.67260 0.43458 0.49715
 C3010 C 0.67232 0.41340 0.49948
 C3011 C 0.65359 0.40486 0.50530
 N3012 N 0.63668 0.41658 0.50785
 C3013 C 0.61720 0.44831 0.50670
 N3014 N 0.60172 0.44075 0.51760
 C3015 C 0.58294 0.44965 0.51845
 C3016 C 0.57870 0.46689 0.50738
 C3017 C 0.59455 0.47512 0.49636
 C3018 C 0.61372 0.46598 0.49601
 H3019 H 0.68608 0.44236 0.49234
 H3020 H 0.65228 0.38896 0.50841
 H3021 H 0.57109 0.44270 0.52699
 H3022 H 0.59196 0.48836 0.48753
 H3023 H 0.65588 0.46239 0.49797
 H3024 H 0.62528 0.47222 0.48669
 C3025 C -0.13379 0.42522 0.48530
 C3026 C -0.14526 0.42198 0.46843
 C3027 C -0.16371 0.41160 0.46955
 C3028 C -0.17090 0.40442 0.48740
 C3029 C -0.15904 0.40814 0.50390
 N3030 N -0.14116 0.41826 0.50243
 C3031 C -0.11416 0.43633 0.48539
 N3032 N -0.10716 0.44341 0.50262
 C3033 C -0.08925 0.45335 0.50439
 C3034 C -0.07682 0.45667 0.48815
 C3035 C -0.08367 0.44954 0.47014
 C3036 C -0.10227 0.43936 0.46869
 H3037 H -0.17251 0.40949 0.45648
 H3038 H -0.16377 0.40275 0.51793
 H3039 H -0.08472 0.45848 0.51862
 H3040 H -0.07454 0.45156 0.45726
 H3041 H -0.14040 0.42767 0.45456
 H3042 H -0.10690 0.43362 0.45473
 C3043 C 0.36225 -0.06669 -0.00932
 C3044 C 0.34393 -0.05731 -0.00350
 C3045 C 0.32631 -0.06881 -0.00138
 C3046 C 0.32668 -0.08966 -0.00517
 C3047 C 0.34518 -0.09834 -0.01146
 N3048 N 0.36220 -0.08685 -0.01329
 C3049 C 0.38173 -0.05538 -0.01060
 N3050 N 0.39708 -0.06245 -0.02217
 C3051 C 0.41572 -0.05349 -0.02298
 C3052 C 0.41997 -0.03668 -0.01124
 C3053 C 0.40426 -0.02902 0.00055
 C3054 C 0.38524 -0.03823 0.00090
 H3055 H 0.31233 -0.06132 0.00299
 H3056 H 0.34627 -0.11435 -0.01451
 H3057 H 0.42745 -0.06003 -0.03213
 H3058 H 0.40683 -0.01615 0.00993
 H3059 H 0.34305 -0.04124 -0.00077
 H3060 H 0.37380 -0.03239 0.01074
 C3061 C 0.36104 1.06591 0.51009
 C3062 C 0.34288 1.05774 0.50276
 C3063 C 0.32546 1.06989 0.50133
 C3064 C 0.32587 1.09017 0.50730
 C3065 C 0.34422 1.09763 0.51494
 N3066 N 0.36103 1.08553 0.51608
 C3067 C 0.38031 1.05397 0.51102
 N3068 N 0.39524 1.05959 0.52362
 C3069 C 0.41374 1.05009 0.52434
 C3070 C 0.41829 1.03420 0.51148
 C3071 C 0.40300 1.02800 0.49860
 C3072 C 0.38411 1.03775 0.49833
 H3073 H 0.31156 1.06330 0.49583
 H3074 H 0.34534 1.11317 0.51966
 H3075 H 0.42513 1.05552 0.53436
 H3076 H 0.40582 1.01590 0.48833
 H3077 H 0.34194 1.04208 0.49838
 H3078 H 0.37302 1.03309 0.48769
 C3079 C -0.13376 0.57500 1.01110
 C3080 C -0.15138 0.56565 1.00397
 C3081 C -0.16979 0.57629 1.00364
 C3082 C -0.17087 0.59624 1.01049
 C3083 C -0.15305 0.60479 1.01822
 N3084 N -0.13520 0.59415 1.01825
 C3085 C -0.11361 0.56470 1.01023
 N3086 N -0.09905 0.56874 1.02376
 C3087 C -0.08020 0.55988 1.02327
 C3088 C -0.07502 0.54636 1.00830
 C3089 C -0.08982 0.54223 0.99419
 C3090 C -0.10897 0.55128 0.99510
 H3091 H -0.18320 0.56883 0.99810
 H3092 H -0.15313 0.62012 1.02368
 H3093 H -0.06923 0.56363 1.03437
 H3094 H -0.08664 0.53194 0.98232
 H3095 H -0.15103 0.55023 0.99872
 H3096 H -0.11983 0.54811 0.98374
 C3097 C 0.01193 0.62991 0.56844
 C3098 C 0.02205 0.63294 0.58608
 C3099 C 0.02121 0.65184 0.59488
 C3100 C 0.01025 0.66764 0.58625
 C3101 C 0.00071 0.66414 0.56846
 N3102 N 0.00163 0.64556 0.56021
 C3103 C 0.01081 0.60998 0.55907
 N3104 N -0.00449 0.60671 0.54621
 C3105 C -0.00700 0.58873 0.53714
 C3106 C 0.00638 0.57265 0.54093
 C3107 C 0.02243 0.57572 0.55397
 C3108 C 0.02478 0.59437 0.56299
 H3109 H 0.02890 0.65405 0.60858
 H3110 H -0.00809 0.67589 0.56146
 H3111 H -0.01951 0.58706 0.52709
 H3112 H 0.03335 0.56381 0.55701
 H3113 H 0.02994 0.62084 0.59344
 H3114 H 0.03755 0.59648 0.57261
 C3115 C 0.51036 0.13631 0.05148
 C3116 C 0.52514 0.14413 0.06404
 C3117 C 0.52125 0.16219 0.07374
 C3118 C 0.50282 0.17255 0.07079
 C3119 C 0.48888 0.16477 0.05743
 N3120 N 0.49288 0.14699 0.04834
 C3121 C 0.51261 0.11637 0.04224
 N3122 N 0.50122 0.11227 0.02631
 C3123 C 0.50076 0.09365 0.01810
 C3124 C 0.51181 0.07766 0.02635
 C3125 C 0.52407 0.08166 0.04249
 C3126 C 0.52450 0.10096 0.05049
 H3127 H 0.53262 0.16807 0.08355
 H3128 H 0.47455 0.17242 0.05471
 H3129 H 0.49114 0.09127 0.00561
 H3130 H 0.53286 0.06976 0.04931
 H3131 H 0.53952 0.13648 0.06643
 H3132 H 0.53329 0.10338 0.06350
 C3133 C -0.02164 0.13081 0.92921
 C3134 C -0.03297 0.13476 0.91240
 C3135 C -0.03354 0.15430 0.90504
 C3136 C -0.02282 0.16983 0.91431
 C3137 C -0.01219 0.16536 0.93133
 N3138 N -0.01174 0.14622 0.93813
 C3139 C -0.01888 0.11035 0.93708
 N3140 N -0.00320 0.10724 0.94958
 C3141 C 0.00056 0.08907 0.95779
 C3142 C -0.01198 0.07259 0.95359
 C3143 C -0.02820 0.07536 0.94065
 C3144 C -0.03177 0.09422 0.93242
 H3145 H -0.04200 0.15720 0.89189
 H3146 H -0.00346 0.17680 0.93877
 H3147 H 0.01322 0.08765 0.96772
 H3148 H -0.03844 0.06310 0.93723
 H3149 H -0.04071 0.12295 0.90455
 H3150 H -0.04474 0.09607 0.92296
 C3151 C 0.47875 0.64145 0.45291
 C3152 C 0.49266 0.65583 0.45966
 C3153 C 0.49454 0.67406 0.44999
 C3154 C 0.48257 0.67801 0.43366
 C3155 C 0.46826 0.66359 0.42783
 N3156 N 0.46694 0.64577 0.43730
 C3157 C 0.47849 0.62088 0.46071
 N3158 N 0.47359 0.60538 0.44864
 C3159 C 0.47527 0.58579 0.45407
 C3160 C 0.48271 0.58099 0.47250
 C3161 C 0.48687 0.59678 0.48547
 C3162 C 0.48465 0.61673 0.47968
 H3163 H 0.50606 0.68460 0.45472
 H3164 H 0.45851 0.66623 0.41547
 H3165 H 0.47154 0.57406 0.44374
 H3166 H 0.49217 0.59377 0.50001
 H3167 H 0.50288 0.65269 0.47155
 H3168 H 0.48804 0.62868 0.48988
 C3169 C 0.52621 0.86156 0.45284
 C3170 C 0.52198 0.84363 0.46283
 C3171 C 0.52039 0.82562 0.45255
 C3172 C 0.52355 0.82537 0.43253
 C3173 C 0.52954 0.84316 0.42336
 N3174 N 0.53037 0.86068 0.43356
 C3175 C 0.52428 0.88160 0.46201
 N3176 N 0.53233 0.89781 0.45279
 C3177 C 0.52907 0.91704 0.45898
 C3178 C 0.51662 0.92081 0.47511
 C3179 C 0.50851 0.90430 0.48506
 C3180 C 0.51223 0.88474 0.47856
 H3181 H 0.51615 0.81198 0.46009
 H3182 H 0.53223 0.84343 0.40792
 H3183 H 0.53583 0.92932 0.45100
 H3184 H 0.49882 0.90647 0.49759
 H3185 H 0.51935 0.84347 0.47826
 H3186 H 0.50487 0.87247 0.48599
 C3187 C -0.00153 0.36012 0.95144
 C3188 C -0.01999 0.34958 0.95063
 C3189 C -0.02073 0.33115 0.94100
 C3190 C -0.00315 0.32320 0.93232
 C3191 C 0.01516 0.33379 0.93399
 N3192 N 0.01545 0.35196 0.94315
 C3193 C -0.00059 0.38059 0.95960
 N3194 N 0.01254 0.39410 0.95175
 C3195 C 0.01323 0.41364 0.95776
 C3196 C 0.00009 0.42048 0.97243
 C3197 C -0.01314 0.40658 0.98103
 C3198 C -0.01348 0.38667 0.97471
 H3199 H -0.03513 0.32334 0.93988
 H3200 H 0.02895 0.32813 0.92723
 H3201 H 0.02390 0.42377 0.95095
 H3202 H -0.02338 0.41106 0.99260
 H3203 H -0.03393 0.35588 0.95654
 H3204 H -0.02372 0.37619 0.98163
 C3205 C 0.46935 0.36329 0.05563
 C3206 C 0.46761 0.34589 0.04411
 C3207 C 0.46631 0.32713 0.05293
 C3208 C 0.46641 0.32578 0.07313
 C3209 C 0.46602 0.34364 0.08409
 N3210 N 0.46785 0.36177 0.07518
 C3211 C 0.47506 0.38277 0.04718
 N3212 N 0.46916 0.40026 0.05604
 C3213 C 0.47511 0.41862 0.04949
 C3214 C 0.48808 0.41996 0.03339
 C3215 C 0.49461 0.40205 0.02436
 C3216 C 0.48814 0.38350 0.03117
 H3217 H 0.46625 0.31362 0.04403
 H3218 H 0.46597 0.34315 0.09974
 H3219 H 0.46972 0.43209 0.05686
 H3220 H 0.50458 0.40231 0.01188
 H3221 H 0.46814 0.34665 0.02848
 H3222 H 0.49381 0.36989 0.02424
 C3223 C -0.00143 0.85967 0.56048
 C3224 C 0.00631 0.84209 0.55161
 C3225 C 0.00537 0.82381 0.56140
 C3226 C -0.00347 0.82300 0.57982
 C3227 C -0.01164 0.84073 0.58790
 N3228 N -0.01036 0.85839 0.57818
 C3229 C -0.00022 0.87961 0.55132
 N3230 N -0.01324 0.89440 0.55740
 C3231 C -0.01286 0.91333 0.55003
 C3232 C 0.00135 0.91825 0.53569
 C3233 C 0.01511 0.90329 0.52939
 C3234 C 0.01444 0.88401 0.53721
 H3235 H 0.01147 0.81031 0.55458
 H3236 H -0.01849 0.84070 0.60214
 H3237 H -0.02374 0.92440 0.55532
 H3238 H 0.02647 0.90647 0.51848
 H3239 H 0.01287 0.84228 0.53727
 H3240 H 0.02557 0.87294 0.53246
 C3241 C 0.27092 0.29400 0.11912
 C3242 C 0.27870 0.28464 0.10241
 C3243 C 0.27411 0.29283 0.08424
 C3244 C 0.26162 0.31014 0.08272
 C3245 C 0.25362 0.31845 0.09986
 N3246 N 0.25859 0.31047 0.11726
 C3247 C 0.27593 0.28724 0.13892
 N3248 N 0.27586 0.30141 0.15318
 C3249 C 0.27781 0.29664 0.17212
 C3250 C 0.27914 0.27636 0.17789
 C3251 C 0.28034 0.26143 0.16341
 C3252 C 0.27882 0.26683 0.14384
 H3253 H 0.28086 0.28600 0.07148
 H3254 H 0.24349 0.33139 0.09953
 H3255 H 0.27712 0.30872 0.18270
 H3256 H 0.28118 0.24561 0.16723
 H3257 H 0.28875 0.27166 0.10337
 H3258 H 0.27865 0.25513 0.13287
 C3259 C 0.75946 0.78518 0.61706
 C3260 C 0.76731 0.77628 0.60015
 C3261 C 0.76411 0.78581 0.58231
 C3262 C 0.75288 0.80400 0.58129
 C3263 C 0.74456 0.81173 0.59855
 N3264 N 0.74827 0.80247 0.61564
 C3265 C 0.76361 0.77730 0.63665
 N3266 N 0.76480 0.79094 0.65131
 C3267 C 0.76635 0.78544 0.67008
 C3268 C 0.76590 0.76496 0.67531
 C3269 C 0.76567 0.75044 0.66040
 C3270 C 0.76463 0.75658 0.64097
 H3271 H 0.77103 0.77933 0.56947
 H3272 H 0.73528 0.82529 0.59857
 H3273 H 0.76684 0.79722 0.68097
 H3274 H 0.76516 0.73450 0.66377
 H3275 H 0.77649 0.76265 0.60079
 H3276 H 0.76347 0.74531 0.62964
 C3277 C 0.23644 0.70140 0.61845
 C3278 C 0.22754 0.68309 0.61270
 C3279 C 0.23078 0.67573 0.59406
 C3280 C 0.24251 0.68666 0.58087
 C3281 C 0.25009 0.70551 0.58670
 N3282 N 0.24712 0.71222 0.60518
 C3283 C 0.23557 0.70830 0.63891
 N3284 N 0.23728 0.72832 0.64339
 C3285 C 0.23786 0.73514 0.66206
 C3286 C 0.23732 0.72139 0.67745
 C3287 C 0.23529 0.70080 0.67306
 C3288 C 0.23444 0.69424 0.65398
 H3289 H 0.22413 0.66142 0.58994
 H3290 H 0.25899 0.71451 0.57682
 H3291 H 0.23959 0.75114 0.66484
 H3292 H 0.23483 0.68963 0.68444
 H3293 H 0.21829 0.67437 0.62250
 H3294 H 0.23378 0.67817 0.65120
 C3295 C 0.74692 0.21949 0.09849
 C3296 C 0.75695 0.20078 0.09694
 C3297 C 0.75663 0.19019 0.07954
 C3298 C 0.74642 0.19811 0.06342
 C3299 C 0.73596 0.21663 0.06571
 N3300 N 0.73645 0.22673 0.08297
 C3301 C 0.74779 0.23105 0.11687
 N3302 N 0.73086 0.24052 0.12410
 C3303 C 0.73055 0.24901 0.14217
 C3304 C 0.74780 0.24761 0.15410
 C3305 C 0.76563 0.23906 0.14637
 C3306 C 0.76574 0.23094 0.12783
 H3307 H 0.76424 0.17565 0.07882
 H3308 H 0.72779 0.22327 0.05372
 H3309 H 0.71652 0.25556 0.14765
 H3310 H 0.77934 0.23792 0.15504
 H3311 H 0.76483 0.19422 0.10918
 H3312 H 0.77959 0.22401 0.12236
 C3313 C 0.77160 0.20276 0.87614
 C3314 C 0.78209 0.18576 0.88319
 C3315 C 0.77692 0.17785 0.90116
 C3316 C 0.76150 0.18688 0.91237
 C3317 C 0.75219 0.20455 0.90535
 N3318 N 0.75724 0.21181 0.88757
 C3319 C 0.77475 0.21010 0.85609
 N3320 N 0.77018 0.22965 0.85158
 C3321 C 0.77076 0.23663 0.83306
 C3322 C 0.77538 0.22341 0.81772
 C3323 C 0.78066 0.20341 0.82212
 C3324 C 0.78046 0.19673 0.84118
 H3325 H 0.78496 0.16458 0.90629
 H3326 H 0.74037 0.21210 0.91362
 H3327 H 0.76635 0.25212 0.83023
 H3328 H 0.78413 0.19267 0.81069
 H3329 H 0.79407 0.17849 0.87491
 H3330 H 0.78357 0.18095 0.84393
 C3331 C 0.26747 0.71637 0.39329
 C3332 C 0.26954 0.72732 0.41063
 C3333 C 0.26522 0.71792 0.42828
 C3334 C 0.25864 0.69776 0.42866
 C3335 C 0.25681 0.68744 0.41101
 N3336 N 0.26129 0.69681 0.39413
 C3337 C 0.27160 0.72503 0.37393
 N3338 N 0.27517 0.71194 0.35909
 C3339 C 0.27666 0.71798 0.34045
 C3340 C 0.27379 0.73837 0.33556
 C3341 C 0.27117 0.75242 0.35065
 C3342 C 0.27007 0.74582 0.36989
 H3343 H 0.26689 0.72641 0.44159
 H3344 H 0.25221 0.67178 0.41062
 H3345 H 0.27894 0.70663 0.32932
 H3346 H 0.26863 0.76824 0.34749
 H3347 H 0.27472 0.74278 0.41067
 H3348 H 0.26684 0.75673 0.38119
 C3349 C 0.73635 0.79286 0.39124
 C3350 C 0.74218 0.78053 0.40685
 C3351 C 0.74429 0.78907 0.42534
 C3352 C 0.74056 0.80978 0.42834
 C3353 C 0.73491 0.82148 0.41233
 N3354 N 0.73306 0.81289 0.39459
 C3355 C 0.73474 0.78559 0.37092
 N3356 N 0.73374 0.79985 0.35686
 C3357 C 0.73320 0.79520 0.33778
 C3358 C 0.73382 0.77500 0.33159
 C3359 C 0.73400 0.75984 0.34572
 C3360 C 0.73450 0.76506 0.36544
 H3361 H 0.74865 0.77948 0.43731
 H3362 H 0.73228 0.83756 0.41378
 H3363 H 0.73276 0.80741 0.32743
 H3364 H 0.73448 0.74407 0.34154
 H3365 H 0.74541 0.76462 0.40490
 H3366 H 0.73486 0.75315 0.37607
 C3367 C 0.23844 0.28395 0.89526
 C3368 C 0.24539 0.27330 0.91158
 C3369 C 0.24763 0.28349 0.92927
 C3370 C 0.24293 0.30418 0.93076
 C3371 C 0.23615 0.31417 0.91409
 N3372 N 0.23419 0.30400 0.89714
 C3373 C 0.23672 0.27494 0.87560
 N3374 N 0.23400 0.28788 0.86060
 C3375 C 0.23360 0.28171 0.84191
 C3376 C 0.23632 0.26125 0.83718
 C3377 C 0.23814 0.24733 0.85233
 C3378 C 0.23838 0.25410 0.87161
 H3379 H 0.25284 0.27518 0.94179
 H3380 H 0.23274 0.33017 0.91436
 H3381 H 0.23185 0.29295 0.83070
 H3382 H 0.24030 0.23140 0.84925
 H3383 H 0.24939 0.25746 0.91080
 H3384 H 0.24018 0.24313 0.88301
 C3385 C 0.81305 0.38402 0.75304
 C3386 C 0.80541 0.40148 0.74396
 C3387 C 0.81696 0.41911 0.74384
 C3388 C 0.83607 0.41968 0.75292
 C3389 C 0.84282 0.40212 0.76243
 N3390 N 0.83138 0.38504 0.76219
 C3391 C 0.80206 0.36441 0.75247
 N3392 N 0.80678 0.34978 0.76560
 C3393 C 0.79814 0.33111 0.76522
 C3394 C 0.78406 0.32606 0.75071
 C3395 C 0.77884 0.34100 0.73720
 C3396 C 0.78774 0.36003 0.73799
 H3397 H 0.81107 0.43216 0.73625
 H3398 H 0.85720 0.40192 0.77006
 H3399 H 0.80276 0.32005 0.77586
 H3400 H 0.76815 0.33787 0.72566
 H3401 H 0.79068 0.40170 0.73700
 H3402 H 0.78390 0.37079 0.72685
 C3403 C 0.31383 0.89523 0.26092
 C3404 C 0.30477 0.91371 0.25599
 C3405 C 0.31687 0.93070 0.25309
 C3406 C 0.33837 0.92970 0.25497
 C3407 C 0.34658 0.91063 0.26037
 N3408 N 0.33436 0.89440 0.26318
 C3409 C 0.30179 0.87647 0.26320
 N3410 N 0.30906 0.86134 0.27466
 C3411 C 0.29957 0.84317 0.27623
 C3412 C 0.28199 0.83916 0.26535
 C3413 C 0.27407 0.85466 0.25373
 C3414 C 0.28381 0.87328 0.25267
 H3415 H 0.30902 0.94419 0.24844
 H3416 H 0.36259 0.90848 0.26328
 H3417 H 0.30634 0.83157 0.28518
 H3418 H 0.26063 0.85219 0.24497
 H3419 H 0.28843 0.91515 0.25434
 H3420 H 0.27779 0.88461 0.24298
 C3421 C 0.18229 0.87777 0.74293
 C3422 C 0.16502 0.88073 0.73124
 C3423 C 0.15425 0.89899 0.73227
 C3424 C 0.16053 0.91443 0.74488
 C3425 C 0.17796 0.91094 0.75618
 N3426 N 0.18810 0.89295 0.75507
 C3427 C 0.19370 0.85826 0.74330
 N3428 N 0.20469 0.85351 0.75936
 C3429 C 0.21487 0.83566 0.76125
 C3430 C 0.21440 0.82111 0.74638
 C3431 C 0.20366 0.82591 0.72943
 C3432 C 0.19335 0.84440 0.72782
 H3433 H 0.14098 0.90103 0.72318
 H3434 H 0.18323 0.92229 0.76627
 H3435 H 0.22307 0.83278 0.77453
 H3436 H 0.20290 0.81524 0.71754
 H3437 H 0.15946 0.86897 0.72177
 H3438 H 0.18530 0.84771 0.71456
 C3439 C 0.68199 0.39859 0.22962
 C3440 C 0.69026 0.41564 0.23884
 C3441 C 0.67855 0.43319 0.24091
 C3442 C 0.65862 0.43412 0.23362
 C3443 C 0.65120 0.41700 0.22380
 N3444 N 0.66284 0.39994 0.22215
 C3445 C 0.69324 0.37898 0.22874
 N3446 N 0.68897 0.36519 0.21459
 C3447 C 0.69807 0.34657 0.21383
 C3448 C 0.71198 0.34074 0.22823
 C3449 C 0.71667 0.35484 0.24276
 C3450 C 0.70742 0.37380 0.24308
 H3451 H 0.68500 0.44586 0.24865
 H3452 H 0.63613 0.41713 0.21749
 H3453 H 0.69389 0.33611 0.20246
 H3454 H 0.72728 0.35107 0.25420
 H3455 H 0.70560 0.41550 0.24452
 H3456 H 0.71084 0.38389 0.25496
 C3457 C 0.67478 0.62555 0.25464
 C3458 C 0.67045 0.61381 0.27099
 C3459 C 0.65943 0.59593 0.26889
 C3460 C 0.65266 0.58955 0.25057
 C3461 C 0.65762 0.60157 0.23458
 N3462 N 0.66834 0.61892 0.23699
 C3463 C 0.68635 0.64480 0.25578
 N3464 N 0.69501 0.65201 0.23934
 C3465 C 0.70532 0.66972 0.23881
 C3466 C 0.70731 0.68172 0.25555
 C3467 C 0.69857 0.67459 0.27274
 C3468 C 0.68811 0.65621 0.27293
 H3469 H 0.65646 0.58696 0.28161
 H3470 H 0.65266 0.59742 0.22019
 H3471 H 0.71168 0.67452 0.22515
 H3472 H 0.69949 0.68337 0.28596
 H3473 H 0.67574 0.61805 0.28522
 H3474 H 0.68107 0.65143 0.28627
 C3475 C 0.18658 0.10482 0.76421
 C3476 C 0.19533 0.08672 0.75732
 C3477 C 0.18328 0.06957 0.75505
 C3478 C 0.16249 0.07017 0.75980
 C3479 C 0.15446 0.08838 0.76724
 N3480 N 0.16648 0.10497 0.76914
 C3481 C 0.19846 0.12388 0.76555
 N3482 N 0.19232 0.13890 0.77788
 C3483 C 0.20187 0.15714 0.77884
 C3484 C 0.21832 0.16131 0.76651
 C3485 C 0.22500 0.14591 0.75393
 C3486 C 0.21522 0.12732 0.75341
 H3487 H 0.19030 0.05576 0.74979
 H3488 H 0.13853 0.08960 0.77109
 H3489 H 0.19607 0.16864 0.78862
 H3490 H 0.23756 0.14841 0.74408
 H3491 H 0.21136 0.08563 0.75382
 H3492 H 0.22030 0.11618 0.74296
 C3493 C 0.32739 0.12123 0.25154
 C3494 C 0.33333 0.11239 0.26912
 C3495 C 0.34399 0.09408 0.26905
 C3496 C 0.34889 0.08439 0.25154
 C3497 C 0.34298 0.09395 0.23424
 N3498 N 0.33259 0.11184 0.23467
 C3499 C 0.31571 0.14054 0.25110
 N3500 N 0.31799 0.15355 0.23602
 C3501 C 0.30816 0.17179 0.23532
 C3502 C 0.29515 0.17786 0.25047
 C3503 C 0.29213 0.16426 0.26575
 C3504 C 0.30226 0.14574 0.26610
 H3505 H 0.34869 0.08769 0.28273
 H3506 H 0.34629 0.08706 0.22036
 H3507 H 0.31089 0.18168 0.22319
 H3508 H 0.28206 0.16800 0.27768
 H3509 H 0.33013 0.11967 0.28284
 H3510 H 0.29945 0.13559 0.27801
 C3511 C 0.81325 0.60988 0.74869
 C3512 C 0.82127 0.60287 0.76627
 C3513 C 0.83323 0.58534 0.76660
 C3514 C 0.83730 0.57452 0.74947
 C3515 C 0.82913 0.58223 0.73212
 N3516 N 0.81760 0.59945 0.73216
 C3517 C 0.80045 0.62852 0.74792
 N3518 N 0.80148 0.64102 0.73232
 C3519 C 0.79098 0.65889 0.73148
 C3520 C 0.77861 0.66518 0.74705
 C3521 C 0.77673 0.65199 0.76283
 C3522 C 0.78753 0.63380 0.76331
 H3523 H 0.83956 0.58052 0.78027
 H3524 H 0.83160 0.57443 0.71854
 H3525 H 0.79285 0.66844 0.71896
 H3526 H 0.76725 0.65591 0.77513
 H3527 H 0.81872 0.61106 0.77965
 H3528 H 0.78581 0.62403 0.77570
 C3529 C 0.88399 0.76965 0.18829
 C3530 C 0.88769 0.77720 0.16977
 C3531 C 0.90688 0.77471 0.16149
 C3532 C 0.92278 0.76455 0.17143
 C3533 C 0.91817 0.75757 0.19025
 N3534 N 0.89929 0.76009 0.19783
 C3535 C 0.86371 0.77033 0.19744
 N3536 N 0.86006 0.75733 0.21218
 C3537 C 0.84170 0.75617 0.22103
 C3538 C 0.82550 0.76851 0.21497
 C3539 C 0.82901 0.78243 0.20012
 C3540 C 0.84810 0.78347 0.19137
 H3541 H 0.90907 0.78157 0.14751
 H3542 H 0.92885 0.74891 0.19873
 H3543 H 0.83977 0.74532 0.23252
 H3544 H 0.81700 0.79245 0.19518
 H3545 H 0.87593 0.78461 0.16143
 H3546 H 0.85045 0.79448 0.18013
 C3547 C 0.39459 0.26476 0.70708
 C3548 C 0.41132 0.25224 0.71139
 C3549 C 0.42903 0.25375 0.70045
 C3550 C 0.43012 0.26763 0.68525
 C3551 C 0.41353 0.28064 0.68212
 N3552 N 0.39632 0.27870 0.69278
 C3553 C 0.37439 0.26161 0.71578
 N3554 N 0.35775 0.26812 0.70582
 C3555 C 0.33849 0.26454 0.71188
 C3556 C 0.33512 0.25355 0.72886
 C3557 C 0.35204 0.24714 0.73965
 C3558 C 0.37168 0.25124 0.73324
 H3559 H 0.44135 0.24317 0.70310
 H3560 H 0.41392 0.29176 0.67071
 H3561 H 0.32590 0.27006 0.70325
 H3562 H 0.35015 0.23897 0.75306
 H3563 H 0.41048 0.24051 0.72217
 H3564 H 0.38445 0.24632 0.74193
 C3565 C 0.38866 0.72718 0.81855
 C3566 C 0.39642 0.71049 0.82868
 C3567 C 0.41581 0.71158 0.83686
 C3568 C 0.42737 0.72919 0.83486
 C3569 C 0.41907 0.74540 0.82448
 N3570 N 0.40025 0.74397 0.81669
 C3571 C 0.36835 0.72743 0.80966
 N3572 N 0.36492 0.74073 0.79509
 C3573 C 0.34642 0.74299 0.78671
 C3574 C 0.32984 0.73167 0.79323
 C3575 C 0.33302 0.71774 0.80820
 C3576 C 0.35226 0.71556 0.81646
 H3577 H 0.42182 0.69865 0.84455
 H3578 H 0.42730 0.75939 0.82287
 H3579 H 0.34471 0.75390 0.77522
 H3580 H 0.32062 0.70868 0.81364
 H3581 H 0.38786 0.69668 0.83006
 H3582 H 0.35426 0.70520 0.82836
 C3583 C 0.88545 0.24365 0.29944
 C3584 C 0.90294 0.25298 0.29210
 C3585 C 0.92144 0.25035 0.30150
 C3586 C 0.92271 0.23813 0.31796
 C3587 C 0.90515 0.22798 0.32406
 N3588 N 0.88716 0.23109 0.31487
 C3589 C 0.86514 0.24752 0.29121
 N3590 N 0.85009 0.23383 0.29414
 C3591 C 0.83096 0.23656 0.28710
 C3592 C 0.82623 0.25388 0.27636
 C3593 C 0.84137 0.26840 0.27365
 C3594 C 0.86074 0.26537 0.28114
 H3595 H 0.93454 0.25856 0.29631
 H3596 H 0.90559 0.21799 0.33639
 H3597 H 0.81968 0.22500 0.28950
 H3598 H 0.83827 0.28215 0.26572
 H3599 H 0.90243 0.26245 0.27941
 H3600 H 0.87193 0.27708 0.27923
 C3601 C 0.11355 0.26774 0.30215
 C3602 C 0.10380 0.28369 0.31197
 C3603 C 0.08496 0.28038 0.32064
 C3604 C 0.07596 0.26128 0.31950
 C3605 C 0.08577 0.24604 0.30885
 N3606 N 0.10410 0.24959 0.30060
 C3607 C 0.13419 0.26948 0.29417
 N3608 N 0.13979 0.25662 0.27972
 C3609 C 0.15913 0.25557 0.27294
 C3610 C 0.17436 0.26756 0.28126
 C3611 C 0.16887 0.28126 0.29593
 C3612 C 0.14878 0.28230 0.30241
 H3613 H 0.07775 0.29250 0.32875
 H3614 H 0.07906 0.23123 0.30739
 H3615 H 0.16265 0.24484 0.26155
 H3616 H 0.18014 0.29083 0.30269
 H3617 H 0.11066 0.29845 0.31312
 H3618 H 0.14504 0.29232 0.31431
 C3619 C 0.60648 0.78569 0.79940
 C3620 C 0.60167 0.79748 0.81577
 C3621 C 0.58303 0.79474 0.82500
 C3622 C 0.56913 0.78068 0.81769
 C3623 C 0.57333 0.77147 0.79984
 N3624 N 0.59185 0.77376 0.79153
 C3625 C 0.62751 0.78302 0.79220
 N3626 N 0.63037 0.77161 0.77599
 C3627 C 0.64906 0.76529 0.77007
 C3628 C 0.66633 0.76997 0.78107
 C3629 C 0.66389 0.78231 0.79746
 C3630 C 0.64458 0.78885 0.80309
 H3631 H 0.58025 0.80236 0.83865
 H3632 H 0.56262 0.76111 0.79335
 H3633 H 0.65026 0.75618 0.75708
 H3634 H 0.67684 0.78656 0.80624
 H3635 H 0.61243 0.80778 0.82218
 H3636 H 0.64326 0.79747 0.81632
 C3637 C 0.61305 0.22321 0.68809
 C3638 C 0.59457 0.22298 0.69831
 C3639 C 0.57634 0.22534 0.68824
 C3640 C 0.57660 0.22786 0.66813
 C3641 C 0.59527 0.22678 0.65837
 N3642 N 0.61280 0.22465 0.66848
 C3643 C 0.63290 0.22350 0.69786
 N3644 N 0.64962 0.21757 0.68764
 C3645 C 0.66877 0.21982 0.69455
 C3646 C 0.67195 0.22913 0.71256
 C3647 C 0.65490 0.23489 0.72358
 C3648 C 0.63536 0.23209 0.71629
 H3649 H 0.56215 0.22603 0.69623
 H3650 H 0.59597 0.22822 0.64280
 H3651 H 0.68146 0.21496 0.68563
 H3652 H 0.65665 0.24208 0.73757
 H3653 H 0.59415 0.22139 0.71387
 H3654 H 0.62249 0.23758 0.72462
 C3655 C 0.10832 0.73321 0.21389
 C3656 C 0.09411 0.74833 0.21885
 C3657 C 0.07618 0.75008 0.20832
 C3658 C 0.07232 0.73667 0.19311
 C3659 C 0.08622 0.72100 0.18934
 N3660 N 0.10392 0.71994 0.19943
 C3661 C 0.12903 0.73347 0.22188
 N3662 N 0.14486 0.72793 0.21024
 C3663 C 0.16456 0.73051 0.21558
 C3664 C 0.16912 0.73961 0.23340
 C3665 C 0.15301 0.74438 0.24602
 C3666 C 0.13299 0.74124 0.24036
 H3667 H 0.06573 0.76239 0.21147
 H3668 H 0.08366 0.71049 0.17757
 H3669 H 0.17654 0.72619 0.20559
 H3670 H 0.15581 0.75096 0.26013
 H3671 H 0.09735 0.75959 0.22979
 H3672 H 0.12077 0.74530 0.25019
   
