data_POSCAR
  _audit_creation_date              2014-09-24
  _audit_creation_method            'ToBaCCo'
  _symmetry_space_group_name_H-M    'P1'
  _symmetry_Int_Tables_number       1
  _symmetry_cell_setting            triclinic
  loop_
  _symmetry_equiv_pos_as_xyz
 x,y,z
_cell_length_a 71.8389
_cell_length_b 71.2817
_cell_length_c 70.6710
_cell_angle_alpha 89.835600
_cell_angle_beta 89.993000
_cell_angle_gamma 90.233900
loop_
  _atom_site_label
  _atom_site_type_symbol
  _atom_site_fract_x
  _atom_site_fract_y
  _atom_site_fract_z
N1 N 0.29609 0.43822 0.90409
 N2 N 0.31148 0.44819 0.90290
 C3 C 0.31056 0.45937 0.88755
 C4 C 0.29357 0.45633 0.87883
 C5 C 0.28489 0.44258 0.88953
 H6 H 0.32142 0.46892 0.88301
 H7 H 0.27155 0.43604 0.88678
 Cu8 Cu 0.33144 0.44499 0.92118
 Cu9 Cu 0.29211 0.41997 0.92418
 Cu10 Cu 0.31720 0.43152 0.96430
 N11 N 0.34825 0.44483 0.94269
 N12 N 0.34217 0.44115 0.95985
 C13 C 0.35608 0.44386 0.97231
 C14 C 0.37203 0.44852 0.96228
 C15 C 0.36643 0.44928 0.94351
 H16 H 0.35488 0.44166 0.98741
 H17 H 0.37473 0.45362 0.93149
 N18 N 0.29602 0.41374 0.96449
 N19 N 0.28672 0.40914 0.94906
 C20 C 0.27631 0.39385 0.95260
 C21 C 0.27932 0.38838 0.97108
 C22 C 0.29185 0.40129 0.97824
 H23 H 0.26912 0.38580 0.94189
 H24 H 0.29931 0.40013 0.99149
 H25 H 0.30325 0.44035 0.94003
 H26 H 0.31795 0.41881 0.93847
 N27 N 0.44667 0.84250 0.45944
 N28 N 0.45773 0.84302 0.44464
 C29 C 0.46609 0.85991 0.44374
 C30 C 0.45994 0.87068 0.45881
 C31 C 0.44803 0.85888 0.46881
 H32 H 0.47623 0.86388 0.43312
 H33 H 0.44007 0.86234 0.48131
 Cu34 Cu 0.46018 0.82157 0.42797
 Cu35 Cu 0.43028 0.82115 0.46439
 Cu36 Cu 0.42571 0.78985 0.42697
 N37 N 0.45773 0.80405 0.40716
 N38 N 0.44411 0.79169 0.40683
 C39 C 0.44474 0.78219 0.39044
 C40 C 0.45935 0.78920 0.37980
 C41 C 0.46748 0.80289 0.39093
 H42 H 0.43496 0.77139 0.38626
 H43 H 0.47907 0.81187 0.38713
 N44 N 0.40861 0.79023 0.44871
 N45 N 0.41020 0.80221 0.46285
 C46 C 0.39569 0.79977 0.47472
 C47 C 0.38475 0.78531 0.46787
 C48 C 0.39325 0.77969 0.45135
 H49 H 0.39303 0.80813 0.48717
 H50 H 0.38815 0.76913 0.44167
 H51 H 0.44221 0.79992 0.44824
 H52 H 0.42758 0.81761 0.43583
 N53 N 0.94773 0.90787 0.79082
 N54 N 0.96151 0.91013 0.80286
 C55 C 0.97302 0.89531 0.80173
 C56 C 0.96600 0.88313 0.78828
 C57 C 0.95006 0.89158 0.78152
 H58 H 0.98502 0.89306 0.81068
 H59 H 0.94039 0.88581 0.77132
 Cu60 Cu 0.96195 0.93096 0.82048
 Cu61 Cu 0.92703 0.92544 0.78920
 Cu62 Cu 0.92819 0.96312 0.82019
 N63 N 0.95752 0.94686 0.84234
 N64 N 0.94415 0.95935 0.84214
 C65 C 0.94358 0.96804 0.85898
 C66 C 0.95700 0.96023 0.87075
 C67 C 0.96592 0.94713 0.85939
 H68 H 0.93429 0.97950 0.86218
 H69 H 0.97715 0.93789 0.86345
 N70 N 0.90846 0.95963 0.80118
 N71 N 0.90764 0.94502 0.78977
 C72 C 0.89191 0.94609 0.77943
 C73 C 0.88254 0.96224 0.78442
 C74 C 0.89332 0.97037 0.79839
 H75 H 0.88746 0.93584 0.76911
 H76 H 0.89004 0.98285 0.80638
 H77 H 0.94148 0.94825 0.79857
 H78 H 0.92857 0.93467 0.81694
 N79 N 0.44651 -0.09094 0.29197
 N80 N 0.46073 -0.08952 0.30360
 C81 C 0.47259 -0.10370 0.30030
 C82 C 0.46546 -0.11434 0.28567
 C83 C 0.44883 -0.10600 0.28082
 H84 H 0.48517 -0.10641 0.30824
 H85 H 0.43883 -0.11092 0.27050
 Cu86 Cu 0.46133 -0.07013 0.32282
 Cu87 Cu 0.42523 -0.07428 0.29354
 Cu88 Cu 0.43521 -0.03196 0.31553
 N89 N 0.46200 -0.04915 0.34021
 N90 N 0.45167 -0.03421 0.33736
 C91 C 0.45343 -0.02261 0.35225
 C92 C 0.46540 -0.03085 0.36508
 C93 C 0.47061 -0.04763 0.35704
 H94 H 0.44563 -0.00981 0.35417
 H95 H 0.47897 -0.05844 0.36358
 N96 N 0.41386 -0.03553 0.29839
 N97 N 0.40969 -0.05191 0.29078
 C98 C 0.39336 -0.05054 0.28164
 C99 C 0.38702 -0.03240 0.28344
 C100 C 0.40026 -0.02324 0.29424
 H101 H 0.38628 -0.06202 0.27466
 H102 H 0.39945 -0.00908 0.29963
 H103 H 0.44415 -0.05389 0.29801
 H104 H 0.42932 -0.05959 0.31897
 N105 N 0.80353 0.31282 0.35187
 N106 N 0.81774 0.30128 0.35259
 C107 C 0.81522 0.28912 0.36697
 C108 C 0.79845 0.29321 0.37558
 C109 C 0.79152 0.30847 0.36582
 H110 H 0.82488 0.27821 0.37096
 H111 H 0.77861 0.31572 0.36859
 Cu112 Cu 0.83818 0.30320 0.33479
 Cu113 Cu 0.80153 0.33232 0.33272
 Cu114 Cu 0.83452 0.33187 0.29701
 N115 N 0.85447 0.30088 0.31309
 N116 N 0.85308 0.31205 0.29833
 C117 C 0.86642 0.30763 0.28573
 C118 C 0.87654 0.29276 0.29295
 C119 C 0.86870 0.28899 0.31041
 H120 H 0.86896 0.31502 0.27260
 H121 H 0.87325 0.27855 0.32051
 N122 N 0.81454 0.35070 0.29841
 N123 N 0.80197 0.35081 0.31204
 C124 C 0.79018 0.36514 0.30910
 C125 C 0.79544 0.37434 0.29273
 C126 C 0.81108 0.36502 0.28646
 H127 H 0.77869 0.36878 0.31825
 H128 H 0.81925 0.36843 0.27405
 H129 H 0.81576 0.31649 0.31291
 H130 H 0.82945 0.33498 0.32561
 N131 N -0.19254 0.84020 0.78731
 N132 N -0.20625 0.83865 0.79951
 C133 C -0.21741 0.85369 0.79791
 C134 C -0.21048 0.86526 0.78368
 C135 C -0.19438 0.85638 0.77764
 H136 H -0.22930 0.85628 0.80690
 H137 H -0.18513 0.86090 0.76643
 Cu138 Cu -0.20820 0.81714 0.81637
 Cu139 Cu -0.17437 0.82031 0.78383
 Cu140 Cu -0.17180 0.78777 0.82028
 N141 N -0.20573 0.80010 0.83772
 N142 N -0.19156 0.78856 0.83906
 C143 C -0.19249 0.77940 0.85570
 C144 C -0.20785 0.78581 0.86546
 C145 C -0.21613 0.79874 0.85354
 H146 H -0.18232 0.76940 0.86071
 H147 H -0.22825 0.80717 0.85657
 N148 N -0.15324 0.78932 0.79981
 N149 N -0.15416 0.80181 0.78601
 C150 C -0.13865 0.80063 0.77540
 C151 C -0.12744 0.78682 0.78298
 C152 C -0.13714 0.77982 0.79830
 H153 H -0.13522 0.80984 0.76371
 H154 H -0.13222 0.76944 0.80828
 H155 H -0.18680 0.79772 0.79774
 H156 H -0.17464 0.81568 0.81242
 N157 N 0.94957 0.34869 0.44260
 N158 N 0.93823 0.34696 0.45708
 C159 C 0.93892 0.36273 0.46745
 C160 C 0.95115 0.37533 0.45888
 C161 C 0.95798 0.36561 0.44335
 H162 H 0.93148 0.36460 0.48060
 H163 H 0.96781 0.37072 0.43294
 Cu164 Cu 0.92338 0.32442 0.46108
 Cu165 Cu 0.95210 0.32904 0.42368
 Cu166 Cu 0.92136 0.29160 0.42703
 N167 N 0.90406 0.30522 0.46096
 N168 N 0.90331 0.29245 0.44760
 C169 C 0.88856 0.28115 0.45074
 C170 C 0.87971 0.28699 0.46709
 C171 C 0.88978 0.30249 0.47304
 H172 H 0.88432 0.26976 0.44160
 H173 H 0.88683 0.31120 0.48518
 N174 N 0.94072 0.29337 0.40733
 N175 N 0.95237 0.30769 0.40600
 C176 C 0.96382 0.30489 0.39120
 C177 C 0.95940 0.28784 0.38304
 C178 C 0.94452 0.28106 0.39344
 H179 H 0.97450 0.31459 0.38654
 H180 H 0.93711 0.26805 0.39105
 H181 H 0.92476 0.32045 0.42701
 H182 H 0.94291 0.30640 0.43959
 N183 N 0.45629 0.44433 0.84137
 N184 N 0.44556 0.45906 0.83905
 C185 C 0.44568 0.46930 0.85502
 C186 C 0.45683 0.46032 0.86819
 C187 C 0.46362 0.44470 0.85891
 H188 H 0.43789 0.48209 0.85705
 H189 H 0.47277 0.43411 0.86468
 Cu190 Cu 0.43121 0.46269 0.81602
 Cu191 Cu 0.45950 0.42570 0.82148
 Cu192 Cu 0.42487 0.42583 0.78726
 N193 N 0.41085 0.46205 0.79792
 N194 N 0.40813 0.44732 0.78710
 C195 C 0.39207 0.44946 0.77754
 C196 C 0.38444 0.46654 0.78245
 C197 C 0.39665 0.47414 0.79552
 H198 H 0.38600 0.43909 0.76824
 H199 H 0.39477 0.48693 0.80349
 N200 N 0.44330 0.40549 0.78973
 N201 N 0.45627 0.40526 0.80296
 C202 C 0.46551 0.38886 0.80203
 C203 C 0.45785 0.37820 0.78765
 C204 C 0.44411 0.38938 0.77989
 H205 H 0.47644 0.38461 0.81163
 H206 H 0.43496 0.38568 0.76833
 H207 H 0.44818 0.43893 0.79778
 H208 H 0.43188 0.42865 0.81556
 N209 N 0.78873 0.91071 0.94993
 N210 N 0.80264 0.90866 0.96186
 C211 C 0.80059 0.89227 0.97117
 C212 C 0.78454 0.88370 0.96471
 C213 C 0.77725 0.89582 0.95138
 H214 H 0.81068 0.88633 0.98080
 H215 H 0.76529 0.89333 0.94241
 Cu216 Cu 0.82339 0.92621 0.96156
 Cu217 Cu 0.78785 0.93130 0.93166
 Cu218 Cu 0.83044 0.95340 0.92395
 N219 N 0.84366 0.94432 0.96128
 N220 N 0.84640 0.95485 0.94619
 C221 C 0.86248 0.96434 0.94812
 C222 C 0.87013 0.95960 0.96537
 C223 C 0.85792 0.94686 0.97340
 H224 H 0.86872 0.97313 0.93732
 H225 H 0.85998 0.93909 0.98640
 N226 N 0.80924 0.95551 0.90643
 N227 N 0.79298 0.94731 0.90948
 C228 C 0.78191 0.95025 0.89441
 C229 C 0.79167 0.96092 0.88142
 C230 C 0.80887 0.96408 0.88944
 H231 H 0.76818 0.94425 0.89256
 H232 H 0.82052 0.97129 0.88295
 H233 H 0.81571 0.92832 0.92811
 H234 H 0.80868 0.94966 0.94148
 N235 N 0.29384 0.84002 0.29718
 N236 N 0.30488 0.83797 0.28250
 C237 C 0.30442 0.85366 0.27186
 C238 C 0.29271 0.86639 0.28053
 C239 C 0.28595 0.85712 0.29638
 H240 H 0.31252 0.85589 0.25914
 H241 H 0.27658 0.86270 0.30693
 Cu242 Cu 0.32031 0.81586 0.27972
 Cu243 Cu 0.29134 0.82053 0.31656
 Cu244 Cu 0.32745 0.78827 0.31748
 N245 N 0.34143 0.79899 0.28090
 N246 N 0.34413 0.78818 0.29574
 C247 C 0.36072 0.77963 0.29408
 C248 C 0.36890 0.78559 0.27743
 C249 C 0.35628 0.79781 0.26933
 H250 H 0.36702 0.77089 0.30482
 H251 H 0.35834 0.80619 0.25671
 N252 N 0.30905 0.79054 0.33803
 N253 N 0.29533 0.80282 0.33776
 C254 C 0.28593 0.80164 0.35425
 C255 C 0.29433 0.78818 0.36546
 C256 C 0.30872 0.78122 0.35462
 H257 H 0.27426 0.81037 0.35811
 H258 H 0.31845 0.77044 0.35878
 H259 H 0.31917 0.81592 0.31401
 H260 H 0.30379 0.79736 0.30397
 N261 N 0.79839 0.39653 0.43780
 N262 N 0.80918 0.39782 0.45278
 C263 C 0.80445 0.38435 0.46525
 C264 C 0.78982 0.37413 0.45778
 C265 C 0.78648 0.38207 0.44020
 H266 H 0.81137 0.38189 0.47862
 H267 H 0.77652 0.37739 0.42973
 Cu268 Cu 0.82921 0.41614 0.45404
 Cu269 Cu 0.80152 0.41334 0.41613
 Cu270 Cu 0.82241 0.45541 0.42903
 N271 N 0.84616 0.43729 0.45607
 N272 N 0.84320 0.45290 0.44659
 C273 C 0.85703 0.46516 0.45032
 C274 C 0.86934 0.45661 0.46259
 C275 C 0.86209 0.43894 0.46595
 H276 H 0.85852 0.47884 0.44383
 H277 H 0.86829 0.42796 0.47441
 N278 N 0.80714 0.45246 0.40604
 N279 N 0.80010 0.43623 0.40054
 C280 C 0.79246 0.43834 0.38326
 C281 C 0.79508 0.45674 0.37750
 C282 C 0.80407 0.46536 0.39247
 H283 H 0.78590 0.42723 0.37525
 H284 H 0.80864 0.47982 0.39316
 H285 H 0.82641 0.42805 0.42175
 H286 H 0.80520 0.43270 0.43622
 N287 N 0.94042 0.84771 -0.04457
 N288 N 0.95118 0.84913 -0.05955
 C289 C 0.96312 0.86352 -0.05715
 C290 C 0.95984 0.87135 -0.03958
 C291 C 0.94518 0.86110 -0.03210
 H292 H 0.97309 0.86827 -0.06760
 H293 H 0.93829 0.86348 -0.01872
 Cu294 Cu 0.94836 0.83242 -0.08095
 Cu295 Cu 0.92045 0.82931 -0.04283
 Cu296 Cu 0.91899 0.79551 -0.07780
 N297 N 0.94994 0.81133 -0.09811
 N298 N 0.93834 0.79706 -0.09704
 C299 C 0.94249 0.78467 -0.11073
 C300 C 0.95770 0.79143 -0.12064
 C301 C 0.96194 0.80848 -0.11242
 H302 H 0.93512 0.77166 -0.11324
 H303 H 0.97283 0.81813 -0.11667
 N304 N 0.90079 0.79657 -0.05698
 N305 N 0.90133 0.80952 -0.04368
 C306 C 0.88699 0.80678 -0.03172
 C307 C 0.87716 0.79118 -0.03760
 C308 C 0.88613 0.78516 -0.05376
 H309 H 0.88381 0.81548 -0.01964
 H310 H 0.88202 0.77355 -0.06267
 H311 H 0.93525 0.81003 -0.05868
 H312 H 0.91686 0.82371 -0.07140
 N313 N 0.29327 0.34152 0.79930
 N314 N 0.30424 0.33870 0.78472
 C315 C 0.30425 0.35412 0.77365
 C316 C 0.29301 0.36752 0.78203
 C317 C 0.28599 0.35885 0.79809
 H318 H 0.31206 0.35555 0.76064
 H319 H 0.27662 0.36487 0.80838
 Cu320 Cu 0.31853 0.31570 0.78242
 Cu321 Cu 0.28947 0.32249 0.81877
 Cu322 Cu 0.32515 0.29002 0.82190
 N323 N 0.33865 0.29767 0.78425
 N324 N 0.34138 0.28797 0.79985
 C325 C 0.35712 0.27798 0.79804
 C326 C 0.36463 0.28150 0.78034
 C327 C 0.35261 0.29422 0.77202
 H328 H 0.36313 0.26937 0.80907
 H329 H 0.35451 0.30131 0.75860
 N330 N 0.30697 0.29415 0.84247
 N331 N 0.29307 0.30613 0.84094
 C332 C 0.28326 0.30605 0.85715
 C333 C 0.29157 0.29372 0.86968
 C334 C 0.30637 0.28618 0.85979
 H335 H 0.27119 0.31467 0.85983
 H336 H 0.31620 0.27598 0.86505
 H337 H 0.31735 0.31745 0.81671
 H338 H 0.30196 0.29841 0.80759
 N339 N 0.15722 0.55216 0.53701
 N340 N 0.15492 0.54177 0.55225
 C341 C 0.13839 0.53279 0.55110
 C342 C 0.12989 0.53796 0.53431
 C343 C 0.14250 0.54982 0.52551
 H344 H 0.13237 0.52420 0.56218
 H345 H 0.14036 0.55741 0.51242
 Cu346 Cu 0.17294 0.54289 0.57282
 Cu347 Cu 0.17646 0.57145 0.53513
 Cu348 Cu 0.20760 0.57459 0.57249
 N349 N 0.19109 0.54396 0.59328
 N350 N 0.20450 0.55659 0.59304
 C351 C 0.21442 0.55526 0.60912
 C352 C 0.20680 0.54111 0.62003
 C353 C 0.19212 0.53407 0.60954
 H354 H 0.22603 0.56421 0.61286
 H355 H 0.18257 0.52309 0.61381
 N356 N 0.20848 0.59147 0.55038
 N357 N 0.19670 0.59022 0.53609
 C358 C 0.19988 0.60457 0.52405
 C359 C 0.21453 0.61516 0.53093
 C360 C 0.21954 0.60655 0.54770
 H361 H 0.19173 0.60758 0.51155
 H362 H 0.22987 0.61152 0.55764
 H363 H 0.19563 0.55798 0.55205
 H364 H 0.18004 0.57520 0.56392
 N365 N 0.59162 0.69223 0.03642
 N366 N 0.59055 0.70751 0.04675
 C367 C 0.60571 0.71824 0.04357
 C368 C 0.61683 0.70911 0.03064
 C369 C 0.60754 0.69266 0.02639
 H370 H 0.60893 0.73115 0.05091
 H371 H 0.61239 0.68153 0.01728
 Cu372 Cu 0.57081 0.71102 0.06517
 Cu373 Cu 0.57280 0.67252 0.03759
 Cu374 Cu 0.54281 0.67439 0.07560
 N375 N 0.55687 0.70980 0.08866
 N376 N 0.54674 0.69505 0.09313
 C377 C 0.53988 0.69728 0.11069
 C378 C 0.54618 0.71428 0.11770
 C379 C 0.55660 0.72203 0.10313
 H380 H 0.53109 0.68722 0.11793
 H381 H 0.56361 0.73549 0.10308
 N382 N 0.54113 0.65484 0.05605
 N383 N 0.55262 0.65412 0.04150
 C384 C 0.54783 0.63951 0.03047
 C385 C 0.53238 0.63083 0.03830
 C386 C 0.52869 0.64074 0.05465
 H387 H 0.55507 0.63539 0.01774
 H388 H 0.51762 0.63794 0.06466
 H389 H 0.55137 0.68717 0.05057
 H390 H 0.56999 0.67715 0.06629
 N391 N 0.68887 0.20196 0.65756
 N392 N 0.70457 0.19277 0.65968
 C393 C 0.71529 0.19543 0.64426
 C394 C 0.70565 0.20669 0.63169
 C395 C 0.68907 0.21083 0.64073
 H396 H 0.72861 0.18884 0.64188
 H397 H 0.67770 0.21905 0.63513
 Cu398 Cu 0.70855 0.17639 0.68127
 Cu399 Cu 0.66851 0.19987 0.67575
 Cu400 Cu 0.67947 0.17809 0.71819
 N401 N 0.70772 0.15627 0.69991
 N402 N 0.69641 0.15698 0.71452
 C403 C 0.69793 0.14095 0.72453
 C404 C 0.71065 0.12949 0.71549
 C405 C 0.71677 0.13976 0.70006
 H406 H 0.68980 0.13753 0.73698
 H407 H 0.72642 0.13519 0.68928
 N408 N 0.65718 0.19380 0.71485
 N409 N 0.65242 0.20119 0.69842
 C410 C 0.63552 0.20918 0.70015
 C411 C 0.62923 0.20647 0.71849
 C412 C 0.64359 0.19707 0.72751
 H413 H 0.62809 0.21607 0.68880
 H414 H 0.64389 0.19241 0.74209
 H415 H 0.68712 0.19792 0.69723
 H416 H 0.67577 0.17548 0.69007
 N417 N 1.10163 0.05804 0.20533
 N418 N 1.10213 0.04677 0.19065
 C419 C 1.11672 0.03513 0.19239
 C420 C 1.12574 0.03924 0.20915
 C421 C 1.11594 0.05399 0.21689
 H422 H 1.12080 0.02478 0.18203
 H423 H 1.11917 0.06136 0.22984
 Cu424 Cu 1.08429 0.04877 0.17022
 Cu425 Cu 1.08282 0.07738 0.20804
 Cu426 Cu 1.04737 0.07734 0.17491
 N427 N 1.06277 0.04675 0.15386
 N428 N 1.04846 0.05804 0.15558
 C429 C 1.03604 0.05418 0.14187
 C430 C 1.04284 0.03951 0.13121
 C431 C 1.05991 0.03524 0.13908
 H432 H 1.02319 0.06170 0.13955
 H433 H 1.06975 0.02497 0.13401
 N434 N 1.04888 0.09568 0.19561
 N435 N 1.06243 0.09574 0.20822
 C436 C 1.05994 0.11025 0.22009
 C437 C 1.04394 0.11959 0.21485
 C438 C 1.03740 0.11013 0.19914
 H439 H 1.06922 0.11400 0.23153
 H440 H 1.02550 0.11391 0.19060
 H441 H 1.06319 0.06168 0.19360
 H442 H 1.07562 0.08041 0.17985
 N443 N 0.05521 0.15524 1.04486
 N444 N 0.04088 0.15781 1.05611
 C445 C 0.02814 0.14428 1.05283
 C446 C 0.03482 0.13290 1.03854
 C447 C 0.05211 0.14011 1.03400
 H448 H 0.01517 0.14261 1.06044
 H449 H 0.06195 0.13443 1.02396
 Cu450 Cu 0.04089 0.17798 1.07458
 Cu451 Cu 0.07745 0.17065 1.04618
 Cu452 Cu 0.07204 0.21284 1.06970
 N453 N 0.04465 0.19653 1.09438
 N454 N 0.05675 0.21029 1.09239
 C455 C 0.05670 0.22089 1.10813
 C456 C 0.04409 0.21313 1.12075
 C457 C 0.03652 0.19785 1.11148
 H458 H 0.06541 0.23309 1.11036
 H459 H 0.02619 0.18819 1.11697
 N460 N 0.09234 0.20818 1.05163
 N461 N 0.09478 0.19180 1.04335
 C462 C 0.11069 0.19226 1.03334
 C463 C 0.11867 0.20973 1.03554
 C464 C 0.10669 0.21956 1.04711
 H465 H 0.11637 0.18059 1.02552
 H466 H 0.10881 0.23353 1.05267
 H467 H 0.07406 0.18481 1.07180
 H468 H 0.06072 0.19304 1.05072
 N469 N 0.16031 0.71049 0.69776
 N470 N 0.16281 0.69949 0.71249
 C471 C 0.14892 0.70222 0.72497
 C472 C 0.13733 0.71591 0.71775
 C473 C 0.14487 0.72076 0.70043
 H474 H 0.14715 0.69456 0.73808
 H475 H 0.13906 0.73042 0.69021
 Cu476 Cu 0.18335 0.68196 0.71348
 Cu477 Cu 0.17602 0.70924 0.67538
 Cu478 Cu 0.20733 0.67248 0.67376
 N479 N 0.19850 0.65966 0.71132
 N480 N 0.20743 0.65566 0.69561
 C481 C 0.21519 0.63858 0.69736
 C482 C 0.21065 0.63143 0.71500
 C483 C 0.20038 0.64537 0.72363
 H484 H 0.22293 0.63153 0.68636
 H485 H 0.19414 0.64485 0.73756
 N486 N 0.20499 0.69123 0.65328
 N487 N 0.19309 0.70528 0.65402
 C488 C 0.19409 0.71513 0.63778
 C489 C 0.20708 0.70675 0.62620
 C490 C 0.21393 0.69182 0.63653
 H491 H 0.18575 0.72727 0.63439
 H492 H 0.22426 0.68184 0.63190
 H493 H 0.18043 0.68084 0.67933
 H494 H 0.19955 0.69698 0.68714
 N495 N 1.19493 0.15593 0.21119
 N496 N 1.20448 0.15380 0.19546
 C497 C 1.21452 0.13793 0.19670
 C498 C 1.21127 0.12998 0.21424
 C499 C 1.19870 0.14164 0.22303
 H500 H 1.22331 0.13237 0.18565
 H501 H 1.19234 0.13952 0.23674
 Cu502 Cu 1.20229 0.17159 0.17467
 Cu503 Cu 1.17722 0.17615 0.21460
 Cu504 Cu 1.17862 0.21169 0.18118
 N505 N 1.20080 0.19064 0.15496
 N506 N 1.19177 0.20638 0.15781
 C507 C 1.19282 0.21708 0.14216
 C508 C 1.20269 0.20736 0.12860
 C509 C 1.20783 0.19076 0.13728
 H510 H 1.18665 0.23083 0.14067
 H511 H 1.21583 0.17955 0.13104
 N512 N 1.16135 0.21164 0.20276
 N513 N 1.16065 0.19796 0.21536
 C514 C 1.14610 0.20083 0.22695
 C515 C 1.13724 0.21712 0.22144
 C516 C 1.14719 0.22353 0.20596
 H517 H 1.14161 0.19127 0.23796
 H518 H 1.14355 0.23518 0.19687
 H519 H 1.17307 0.18359 0.18635
 H520 H 1.19361 0.19377 0.19921
 N521 N 0.65375 1.03857 0.55407
 N522 N 0.65515 1.05090 0.54026
 C523 C 0.63932 1.05074 0.53008
 C524 C 0.62738 1.03768 0.53805
 C525 C 0.63702 1.03006 0.55309
 H526 H 0.63645 1.05985 0.51817
 H527 H 0.63188 1.01975 0.56307
 Cu528 Cu 0.67692 1.06691 0.53759
 Cu529 Cu 0.67285 1.03575 0.57335
 Cu530 Cu 0.70852 1.06843 0.57268
 N531 N 0.69516 1.08700 0.53929
 N532 N 0.70738 1.08756 0.55312
 C533 C 0.71794 1.10307 0.55127
 C534 C 0.71218 1.11262 0.53530
 C535 C 0.69756 1.10215 0.52812
 H536 H 0.72890 1.10724 0.56089
 H537 H 0.68905 1.10555 0.51596
 N538 N 0.70720 1.04793 0.59126
 N539 N 0.69357 1.03546 0.59157
 C540 C 0.69596 1.02401 0.60655
 C541 C 0.71198 1.02940 0.61591
 C542 C 0.71865 1.04470 0.60596
 H543 H 0.68648 1.01293 0.61074
 H544 H 0.73051 1.05331 0.60971
 H545 H 0.68007 1.06377 0.57163
 H546 H 0.69515 1.04684 0.55850
 N547 N 0.55527 0.54306 0.15705
 N548 N 0.54294 0.55663 0.15661
 C549 C 0.53186 0.55426 0.14143
 C550 C 0.53736 0.53820 0.13206
 C551 C 0.55240 0.53157 0.14225
 H552 H 0.52082 0.56366 0.13724
 H553 H 0.56095 0.51962 0.13876
 Cu554 Cu 0.54288 0.57666 0.17530
 Cu555 Cu 0.57469 0.54184 0.17614
 Cu556 Cu 0.57662 0.57803 0.20853
 N557 N 0.54522 0.59747 0.19297
 N558 N 0.55829 0.59780 0.20598
 C559 C 0.55737 0.61408 0.21549
 C560 C 0.54318 0.62467 0.20783
 C561 C 0.53557 0.61363 0.19374
 H562 H 0.56674 0.61825 0.22671
 H563 H 0.52439 0.61747 0.18426
 N564 N 0.59400 0.55682 0.20890
 N565 N 0.59331 0.54301 0.19652
 C566 C 0.60757 0.53123 0.19984
 C567 C 0.61759 0.53787 0.21513
 C568 C 0.60873 0.55421 0.22038
 H569 H 0.61092 0.51913 0.19132
 H570 H 0.61306 0.56371 0.23145
 H571 H 0.56081 0.55675 0.19673
 H572 H 0.57591 0.57059 0.18017
 N573 N 0.65954 0.69928 0.21266
 N574 N 0.66053 0.71318 0.20043
 C575 C 0.64627 0.72498 0.20344
 C576 C 0.63600 0.71825 0.21857
 C577 C 0.64472 0.70185 0.22399
 H578 H 0.64309 0.73707 0.19476
 H579 H 0.63999 0.69201 0.23465
 Cu580 Cu 0.67908 0.71361 0.18050
 Cu581 Cu 0.67641 0.67804 0.21177
 Cu582 Cu 0.70806 0.67741 0.17468
 N583 N 0.69202 0.70966 0.15676
 N584 N 0.70312 0.69525 0.15441
 C585 C 0.71017 0.69577 0.13678
 C586 C 0.70285 0.71118 0.12749
 C587 C 0.69159 0.71985 0.14071
 H588 H 0.71989 0.68568 0.13111
 H589 H 0.68381 0.73268 0.13885
 N590 N 0.70681 0.65767 0.19418
 N591 N 0.69479 0.65793 0.20832
 C592 C 0.69733 0.64257 0.21911
 C593 C 0.71170 0.63226 0.21147
 C594 C 0.71723 0.64206 0.19554
 H595 H 0.68920 0.63894 0.23148
 H596 H 0.72802 0.63807 0.18569
 H597 H 0.69817 0.69133 0.19855
 H598 H 0.68083 0.67969 0.18279
 N599 N 0.15915 0.05335 1.03727
 N600 N 0.15542 0.04581 1.05395
 C601 C 0.13852 0.03754 1.05318
 C602 C 0.13128 0.04025 1.03526
 C603 C 0.14471 0.05025 1.02552
 H604 H 0.13158 0.03085 1.06500
 H605 H 0.14358 0.05580 1.01131
 Cu606 Cu 0.17221 0.04836 1.07605
 Cu607 Cu 0.18109 0.06931 1.03249
 Cu608 Cu 0.21051 0.07430 1.06871
 N609 N 0.19347 0.04741 1.09334
 N610 N 0.20867 0.05728 1.09017
 C611 C 0.22051 0.05494 1.10472
 C612 C 0.21209 0.04343 1.11805
 C613 C 0.19504 0.03866 1.11020
 H614 H 0.23389 0.06185 1.10598
 H615 H 0.18425 0.03019 1.11669
 N616 N 0.20802 0.09379 1.04949
 N617 N 0.19733 0.09121 1.03464
 C618 C 0.19831 0.10644 1.02340
 C619 C 0.20955 0.11972 1.03209
 C620 C 0.21580 0.11100 1.04846
 H621 H 0.19082 0.10797 1.01021
 H622 H 0.22490 0.11695 1.05908
 H623 H 0.19004 0.05078 1.05409
 H624 H 0.17761 0.07270 1.06067
 N625 N 0.59116 0.20735 0.55103
 N626 N 0.58855 0.19492 0.53756
 C627 C 0.60377 0.19449 0.52641
 C628 C 0.61659 0.20727 0.53340
 C629 C 0.60802 0.21534 0.54886
 H630 H 0.60557 0.18528 0.51441
 H631 H 0.61392 0.22579 0.55820
 Cu632 Cu 0.56607 0.17963 0.53676
 Cu633 Cu 0.57288 0.21162 0.57091
 Cu634 Cu 0.53580 0.18020 0.57283
 N635 N 0.54832 0.15926 0.54064
 N636 N 0.53655 0.15964 0.55488
 C637 C 0.52650 0.14368 0.55507
 C638 C 0.53254 0.13251 0.54037
 C639 C 0.54622 0.14291 0.53130
 H640 H 0.51599 0.14020 0.56548
 H641 H 0.55449 0.13860 0.51930
 N642 N 0.54115 0.19852 0.59289
 N643 N 0.55525 0.21046 0.59231
 C644 C 0.55612 0.21970 0.60892
 C645 C 0.54208 0.21299 0.62049
 C646 C 0.53275 0.19976 0.60984
 H647 H 0.56676 0.22978 0.61274
 H648 H 0.52126 0.19106 0.61449
 H649 H 0.56426 0.18396 0.57065
 H650 H 0.54937 0.20129 0.55809
 N651 N 0.09595 0.55372 0.71039
 N652 N 0.09477 0.54028 0.69773
 C653 C 0.10893 0.52821 0.70032
 C654 C 0.11948 0.53440 0.71545
 C655 C 0.11098 0.55074 0.72135
 H656 H 0.11194 0.51633 0.69137
 H657 H 0.11572 0.56001 0.73245
 Cu658 Cu 0.07582 0.54107 0.67809
 Cu659 Cu 0.07852 0.57463 0.71119
 Cu660 Cu 0.04401 0.57534 0.67681
 N661 N 0.05687 0.54187 0.65846
 N662 N 0.04427 0.55521 0.65826
 C663 C 0.03381 0.55354 0.64256
 C664 C 0.04034 0.53851 0.63231
 C665 C 0.05488 0.53130 0.64282
 H666 H 0.02306 0.56324 0.63826
 H667 H 0.06389 0.51987 0.63881
 N668 N 0.04614 0.59449 0.69672
 N669 N 0.05944 0.59445 0.70961
 C670 C 0.05757 0.60976 0.72058
 C671 C 0.04223 0.61973 0.71445
 C672 C 0.03547 0.60978 0.69917
 H673 H 0.06672 0.61354 0.73212
 H674 H 0.02392 0.61373 0.69022
 H675 H 0.05677 0.56063 0.69847
 H676 H 0.07226 0.57474 0.68265
 N677 N 0.64944 0.54664 0.05358
 N678 N 0.65217 0.55822 0.03932
 C679 C 0.63723 0.55782 0.02783
 C680 C 0.62449 0.54533 0.03537
 C681 C 0.63271 0.53833 0.05157
 H682 H 0.63562 0.56618 0.01515
 H683 H 0.62671 0.52836 0.06141
 Cu684 Cu 0.67457 0.57324 0.03736
 Cu685 Cu 0.66725 0.54415 0.07424
 Cu686 Cu 0.70362 0.57616 0.07448
 N687 N 0.69284 0.59314 0.03930
 N688 N 0.70402 0.59444 0.05396
 C689 C 0.71479 0.60980 0.05196
 C690 C 0.71027 0.61841 0.03501
 C691 C 0.69610 0.60759 0.02747
 H692 H 0.72486 0.61461 0.06226
 H693 H 0.68858 0.61020 0.01448
 N694 N 0.70071 0.55643 0.09382
 N695 N 0.68683 0.54422 0.09379
 C696 C 0.68871 0.53262 0.10875
 C697 C 0.70469 0.53761 0.11842
 C698 C 0.71182 0.55287 0.10872
 H699 H 0.67928 0.52130 0.11234
 H700 H 0.72414 0.56082 0.11239
 H701 H 0.67525 0.57187 0.07164
 H702 H 0.69084 0.55400 0.06059
 N703 N 0.06174 0.70896 0.59308
 N704 N 0.04789 0.69685 0.59344
 C705 C 0.03918 0.69798 0.61028
 C706 C 0.04820 0.71138 0.62110
 C707 C 0.06229 0.71826 0.60963
 H708 H 0.02731 0.68955 0.61446
 H709 H 0.07218 0.72921 0.61306
 Cu710 Cu 0.04265 0.68062 0.57194
 Cu711 Cu 0.07781 0.71185 0.57106
 Cu712 Cu 0.07686 0.67430 0.54006
 N713 N 0.04227 0.65965 0.55438
 N714 N 0.05609 0.65691 0.54252
 C715 C 0.05302 0.64099 0.53286
 C716 C 0.03628 0.63346 0.53877
 C717 C 0.02983 0.64555 0.55257
 H718 H 0.06230 0.63519 0.52236
 H719 H 0.01740 0.64385 0.56105
 N720 N 0.09651 0.69360 0.53964
 N721 N 0.09666 0.70813 0.55117
 C722 C 0.11157 0.71895 0.54714
 C723 C 0.12104 0.71099 0.53215
 C724 C 0.11126 0.69483 0.52793
 H725 H 0.11545 0.73152 0.55475
 H726 H 0.11464 0.68479 0.51703
 H727 H 0.06332 0.69753 0.54990
 H728 H 0.07615 0.68345 0.56792
 N729 N 0.55773 1.04363 0.65433
 N730 N 0.54487 1.05665 0.65493
 C731 C 0.53231 1.05340 0.64117
 C732 C 0.53750 1.03738 0.63139
 C733 C 0.55398 1.03185 0.63997
 H734 H 0.52076 1.06253 0.63792
 H735 H 0.56240 1.01984 0.63634
 Cu736 Cu 0.54584 1.07680 0.67343
 Cu737 Cu 0.57815 1.04267 0.67240
 Cu738 Cu 0.58305 1.08090 0.70217
 N739 N 0.54667 1.09511 0.69380
 N740 N 0.56141 1.09694 0.70463
 C741 C 0.55872 1.11122 0.71672
 C742 C 0.54106 1.11850 0.71374
 C743 C 0.53398 1.10801 0.69882
 H744 H 0.56880 1.11569 0.72716
 H745 H 0.52104 1.11033 0.69138
 N746 N 0.60004 1.05932 0.70259
 N747 N 0.59792 1.04454 0.69159
 C748 C 0.61122 1.03194 0.69578
 C749 C 0.62203 1.03900 0.71031
 C750 C 0.61471 1.05650 0.71411
 H751 H 0.61298 1.01857 0.68883
 H752 H 0.61976 1.06645 0.72446
 H753 H 0.56632 1.05885 0.69379
 H754 H 0.57948 1.07105 0.67446
 N755 N 0.45600 0.34325 0.94582
 N756 N 0.44636 0.34156 0.96154
 C757 C 0.45015 0.35625 0.97284
 C758 C 0.46344 0.36747 0.96405
 C759 C 0.46657 0.35885 0.94676
 H760 H 0.44397 0.35840 0.98662
 H761 H 0.47519 0.36400 0.93531
 Cu762 Cu 0.42970 0.32044 0.96578
 Cu763 Cu 0.45377 0.32545 0.92510
 Cu764 Cu 0.42331 0.28825 0.93195
 N765 N 0.40783 0.30428 0.96547
 N766 N 0.40485 0.29249 0.95154
 C767 C 0.38801 0.28447 0.95377
 C768 C 0.37983 0.29174 0.96990
 C769 C 0.39312 0.30389 0.97726
 H770 H 0.38200 0.27438 0.94411
 H771 H 0.39213 0.31207 0.99008
 N772 N 0.43873 0.29102 0.90920
 N773 N 0.44959 0.30568 0.90608
 C774 C 0.45711 0.30415 0.88870
 C775 C 0.45055 0.28782 0.88046
 C776 C 0.43926 0.27965 0.89405
 H777 H 0.46661 0.31417 0.88240
 H778 H 0.43186 0.26646 0.89297
 H779 H 0.42704 0.31673 0.93175
 H780 H 0.44687 0.30292 0.94147
 N781 N 0.95003 0.44213 0.34846
 N782 N 0.93492 0.45236 0.34967
 C783 C 0.93674 0.46446 0.36414
 C784 C 0.95420 0.46206 0.37220
 C785 C 0.96207 0.44748 0.36200
 H786 H 0.92632 0.47461 0.36813
 H787 H 0.97516 0.44057 0.36480
 Cu788 Cu 0.91443 0.44939 0.33206
 Cu789 Cu 0.95246 0.42201 0.33010
 Cu790 Cu 0.91968 0.42095 0.29437
 N791 N 0.89865 0.45134 0.30989
 N792 N 0.90081 0.44040 0.29512
 C793 C 0.88762 0.44445 0.28222
 C794 C 0.87681 0.45886 0.28923
 C795 C 0.88407 0.46273 0.30690
 H796 H 0.88559 0.43702 0.26906
 H797 H 0.87888 0.47286 0.31696
 N798 N 0.93989 0.40250 0.29638
 N799 N 0.95229 0.40280 0.31017
 C800 C 0.96313 0.38752 0.30881
 C801 C 0.95720 0.37714 0.29349
 C802 C 0.94258 0.38706 0.28581
 H803 H 0.97398 0.38372 0.31870
 H804 H 0.93393 0.38276 0.27407
 H805 H 0.93750 0.43729 0.31035
 H806 H 0.92459 0.41812 0.32314
 N807 N 0.28770 0.94832 0.41004
 N808 N 0.29923 0.96263 0.41145
 C809 C 0.29749 0.97357 0.39597
 C810 C 0.28392 0.96583 0.38446
 C811 C 0.27810 0.94977 0.39376
 H812 H 0.30585 0.98589 0.39302
 H813 H 0.26821 0.93951 0.38862
 Cu814 Cu 0.31658 0.96472 0.43250
 Cu815 Cu 0.28707 0.92799 0.42847
 Cu816 Cu 0.31794 0.93136 0.46590
 N817 N 0.33832 0.96156 0.44869
 N818 N 0.33908 0.94776 0.46103
 C819 C 0.35606 0.94741 0.46896
 C820 C 0.36673 0.96164 0.46103
 C821 C 0.35478 0.97071 0.44859
 H822 H 0.36024 0.93761 0.47987
 H823 H 0.35818 0.98232 0.43930
 N824 N 0.30015 0.91052 0.46328
 N825 N 0.28861 0.90904 0.44882
 C826 C 0.28007 0.89223 0.44966
 C827 C 0.28681 0.88256 0.46517
 C828 C 0.29931 0.89465 0.47367
 H829 H 0.27055 0.88684 0.43913
 H830 H 0.30820 0.89154 0.48561
 H831 H 0.29589 0.94363 0.45069
 H832 H 0.31431 0.93106 0.43720
 O833 O 0.20076 0.51991 0.75098
 O834 O 0.20804 0.51585 0.78413
 O835 O 0.24602 0.55088 0.72959
 O836 O 0.27708 0.54820 0.72766
 O837 O 0.22545 0.50231 0.70063
 O838 O 0.23074 0.46922 0.70479
 O839 O 0.30141 0.50142 0.77265
 O840 O 0.29309 0.53314 0.77183
 O841 O 0.25610 0.47326 0.79793
 O842 O 0.22405 0.47000 0.79234
 O843 O 0.27892 0.45231 0.74583
 O844 O 0.27766 0.46160 0.71372
 O845 O 0.30211 0.47964 0.74918
 O846 O 0.29398 0.48468 0.71400
 O847 O 0.25918 0.44966 0.77071
 O848 O 0.22360 0.45342 0.76933
 O849 O 0.27771 0.49670 0.79821
 O850 O 0.27192 0.53071 0.79443
 O851 O 0.20114 0.49769 0.72786
 O852 O 0.21123 0.46536 0.72678
 O853 O 0.24593 0.52677 0.70140
 O854 O 0.28010 0.52547 0.70693
 O855 O 0.22540 0.54774 0.75366
 O856 O 0.22726 0.53762 0.78602
 Zr857 Zr 0.22790 0.51958 0.76234
 O858 O 0.24610 0.50323 0.77871
 Zr859 Zr 0.25913 0.52459 0.72799
 O860 O 0.27897 0.50882 0.74318
 Zr861 Zr 0.22912 0.48897 0.72699
 O862 O 0.24778 0.47143 0.74166
 Zr863 Zr 0.27374 0.51070 0.77234
 O864 O 0.25545 0.52858 0.75734
 Zr865 Zr 0.24400 0.47490 0.77090
 O866 O 0.22378 0.49094 0.75625
 Zr867 Zr 0.27535 0.48024 0.73682
 O868 O 0.25672 0.49624 0.72000
 O869 O 0.23168 0.51729 0.73338
 O870 O 0.27167 0.48219 0.76597
 C871 C 0.19294 0.51027 0.73781
 C872 C 0.23302 0.55728 0.74031
 C873 C 0.23302 0.51704 0.69341
 C874 C 0.30966 0.48888 0.76279
 C875 C 0.26918 0.48275 0.80583
 C876 C 0.27200 0.44318 0.75986
 H877 H 0.24305 0.50499 0.79222
 H878 H 0.24575 0.45830 0.73768
 H879 H 0.22286 0.52532 0.72634
 H880 H 0.29166 0.51329 0.74015
 H881 H 0.28650 0.54411 0.76648
 H882 H 0.28843 0.54476 0.73475
 H883 H 0.22730 0.44464 0.75919
 H884 H 0.20589 0.46438 0.73964
 H885 H 0.26194 0.52675 0.80324
 H886 H 0.23915 0.54469 0.78589
 H887 H 0.26563 0.45489 0.71264
 H888 H 0.24229 0.47209 0.69769
 H889 H 0.20171 0.50373 0.78170
 H890 H 0.22024 0.48244 0.79707
 H891 H 0.27823 0.51435 0.69877
 H892 H 0.30292 0.49460 0.71773
 O893 O 0.30389 0.00082 0.27329
 O894 O 0.29524 0.03303 0.27365
 O895 O 0.25478 -0.02506 0.29771
 O896 O 0.22487 -0.03032 0.28964
 O897 O 0.28110 -0.04826 0.24594
 O898 O 0.28022 -0.03877 0.21371
 O899 O 0.20494 0.02164 0.24754
 O900 O 0.20990 0.01575 0.28034
 O901 O 0.25041 0.05072 0.22765
 O902 O 0.28533 0.04583 0.22991
 O903 O 0.23076 0.00555 0.19902
 O904 O 0.23583 -0.02986 0.20265
 O905 O 0.20615 0.00034 0.22368
 O906 O 0.21492 -0.03248 0.22158
 O907 O 0.25352 0.02757 0.20014
 O908 O 0.28620 0.02858 0.20771
 O909 O 0.22786 0.04784 0.25010
 O910 O 0.22989 0.03924 0.28333
 O911 O 0.30567 -0.01998 0.24894
 O912 O 0.29926 -0.01662 0.21556
 O913 O 0.25989 -0.05066 0.26965
 O914 O 0.22598 -0.04642 0.26497
 O915 O 0.27710 -0.00236 0.29915
 O916 O 0.27419 0.03063 0.29395
 Zr917 Zr 0.27628 0.01032 0.27231
 O918 O 0.25919 0.02841 0.25660
 Zr919 Zr 0.24578 -0.02476 0.26929
 O920 O 0.22716 -0.00803 0.25353
 Zr921 Zr 0.27887 -0.02014 0.23687
 O922 O 0.26180 -0.00331 0.21949
 Zr923 Zr 0.23124 0.02037 0.26021
 O924 O 0.24819 0.00353 0.27773
 Zr925 Zr 0.26447 0.02487 0.22761
 O926 O 0.28327 0.00831 0.24344
 Zr927 Zr 0.23367 -0.00975 0.22454
 O928 O 0.25088 -0.02835 0.24019
 O929 O 0.27368 -0.01799 0.26575
 O930 O 0.23638 0.01850 0.23124
 C931 C 0.31269 -0.01092 0.26293
 C932 C 0.26710 -0.01537 0.30665
 C933 C 0.27305 -0.05738 0.25938
 C934 C 0.19771 0.01282 0.23353
 C935 C 0.23658 0.05698 0.23720
 C936 C 0.23965 0.01966 0.19195
 H937 H 0.26147 0.04147 0.26063
 H938 H 0.26521 -0.00515 0.20608
 H939 H 0.28192 -0.02581 0.27373
 H940 H 0.21421 -0.01201 0.25614
 H941 H 0.21574 0.00947 0.29135
 H942 H 0.21452 -0.02157 0.28714
 H943 H 0.28685 0.01705 0.20000
 H944 H 0.30496 -0.00412 0.21759
 H945 H 0.24088 0.04761 0.28277
 H946 H 0.26187 0.02877 0.29997
 H947 H 0.24510 -0.02526 0.19337
 H948 H 0.26774 -0.04460 0.21263
 H949 H 0.30129 0.03387 0.26109
 H950 H 0.28210 0.05400 0.24070
 H951 H 0.22963 -0.05312 0.25330
 H952 H 0.20952 -0.03490 0.23422
 O953 O 0.49742 0.77705 0.29855
 O954 O 0.53058 0.77538 0.29523
 O955 O 0.48122 0.80486 0.24750
 O956 O 0.48118 0.79947 0.21611
 O957 O 0.45194 0.75451 0.26721
 O958 O 0.45904 0.72184 0.26555
 O959 O 0.53158 0.75590 0.20054
 O960 O 0.52876 0.78793 0.20768
 O961 O 0.55272 0.73158 0.25144
 O962 O 0.54274 0.72932 0.28320
 O963 O 0.50694 0.70644 0.22182
 O964 O 0.47414 0.71279 0.21982
 O965 O 0.51022 0.73267 0.19805
 O966 O 0.47496 0.73490 0.20187
 O967 O 0.52817 0.70604 0.24567
 O968 O 0.52136 0.71112 0.28117
 O969 O 0.55428 0.75381 0.22833
 O970 O 0.54832 0.78742 0.23133
 O971 O 0.47528 0.75424 0.29592
 O972 O 0.47826 0.72107 0.28807
 O973 O 0.45417 0.77849 0.24600
 O974 O 0.46427 0.77569 0.21234
 O975 O 0.50063 0.80371 0.27291
 O976 O 0.53330 0.79638 0.27455
 Zr977 Zr 0.51152 0.77646 0.27245
 O978 O 0.53080 0.76048 0.25714
 Zr979 Zr 0.48189 0.77754 0.23629
 O980 O 0.50022 0.76204 0.21919
 Zr981 Zr 0.47905 0.74346 0.26840
 O982 O 0.49683 0.72612 0.25243
 Zr983 Zr 0.52779 0.76619 0.22809
 O984 O 0.50974 0.78379 0.24357
 Zr985 Zr 0.52459 0.73179 0.25981
 O986 O 0.50672 0.74771 0.27739
 Zr987 Zr 0.49517 0.73331 0.22362
 O988 O 0.47543 0.74886 0.23933
 O989 O 0.48389 0.77204 0.26505
 O990 O 0.52298 0.73746 0.23091
 C991 C 0.48360 0.76748 0.30499
 C992 C 0.48930 0.81232 0.26189
 C993 C 0.44510 0.76849 0.25806
 C994 C 0.52385 0.74246 0.19143
 C995 C 0.56153 0.74091 0.23867
 C996 C 0.52011 0.69869 0.23122
 H997 H 0.54344 0.76334 0.26186
 H998 H 0.49353 0.71282 0.25461
 H999 H 0.47537 0.78001 0.27249
 H1000 H 0.49861 0.76576 0.20580
 H1001 H 0.52214 0.79879 0.21318
 H1002 H 0.49166 0.79741 0.20731
 H1003 H 0.51271 0.70138 0.27641
 H1004 H 0.48976 0.72205 0.29573
 H1005 H 0.55503 0.78520 0.24334
 H1006 H 0.53375 0.80310 0.26229
 H1007 H 0.47317 0.70551 0.23172
 H1008 H 0.45421 0.72271 0.25246
 H1009 H 0.52840 0.76332 0.30186
 H1010 H 0.54674 0.74218 0.28649
 H1011 H 0.45640 0.76438 0.21405
 H1012 H 0.47861 0.74518 0.19318
 O1013 O -0.01676 0.80188 0.75261
 O1014 O -0.01317 0.79534 0.71897
 O1015 O -0.04513 0.75253 0.77245
 O1016 O -0.04037 0.72131 0.77094
 O1017 O 0.00251 0.77307 0.80269
 O1018 O 0.03572 0.77247 0.79681
 O1019 O 0.00717 0.70231 0.72728
 O1020 O -0.02609 0.71046 0.72775
 O1021 O 0.03336 0.74953 0.70396
 O1022 O 0.02972 0.78465 0.71073
 O1023 O 0.05456 0.72740 0.75275
 O1024 O 0.04547 0.72776 0.78654
 O1025 O 0.02925 0.70214 0.75033
 O1026 O 0.02572 0.70793 0.78460
 O1027 O 0.05649 0.75143 0.73163
 O1028 O 0.04952 0.78395 0.73059
 O1029 O 0.01050 0.72749 0.70204
 O1030 O -0.02057 0.73022 0.70350
 O1031 O 0.00338 0.80052 0.77743
 O1032 O 0.03625 0.79403 0.77709
 O1033 O -0.02081 0.75152 0.80027
 O1034 O -0.01814 0.71835 0.79229
 O1035 O -0.04310 0.77641 0.75105
 O1036 O -0.03485 0.77580 0.71781
 Zr1037 Zr -0.01568 0.77486 0.74051
 O1038 O 0.00139 0.75831 0.72293
 Zr1039 Zr -0.01822 0.74088 0.77270
 O1040 O -0.00100 0.72306 0.75674
 Zr1041 Zr 0.01495 0.77349 0.77568
 O1042 O 0.03349 0.75729 0.75961
 Zr1043 Zr -0.00358 0.72970 0.72794
 O1044 O -0.02260 0.74622 0.74364
 Zr1045 Zr 0.02936 0.76232 0.73058
 O1046 O 0.01245 0.78055 0.74683
 Zr1047 Zr 0.02710 0.72867 0.76313
 O1048 O 0.00975 0.74487 0.78093
 O1049 O -0.01288 0.76930 0.76922
 O1050 O 0.02452 0.73368 0.73420
 C1051 C -0.00887 0.80898 0.76732
 C1052 C -0.05197 0.76664 0.76349
 C1053 C -0.01142 0.76386 0.80948
 C1054 C 0.02003 0.69427 0.73693
 C1055 C 0.02481 0.73612 0.69542
 C1056 C 0.06360 0.73771 0.74094
 H1057 H -0.00088 0.76147 0.70950
 H1058 H 0.04632 0.76040 0.76361
 H1059 H -0.02112 0.77708 0.77717
 H1060 H -0.00450 0.70986 0.75927
 H1061 H -0.03749 0.71760 0.73089
 H1062 H -0.03606 0.71078 0.76302
 H1063 H 0.05252 0.78640 0.74400
 H1064 H 0.03512 0.80190 0.76559
 H1065 H -0.02727 0.74227 0.70373
 H1066 H -0.04304 0.76465 0.71907
 H1067 H 0.05412 0.73855 0.78545
 H1068 H 0.03537 0.75958 0.80200
 H1069 H -0.00094 0.80153 0.72082
 H1070 H 0.02102 0.78149 0.70035
 H1071 H -0.00665 0.71964 0.79992
 H1072 H 0.01455 0.70013 0.78224
 O1073 O 0.04766 0.02782 -0.00049
 O1074 O 0.03949 0.02557 -0.03328
 O1075 O -0.00123 0.05075 0.02467
 O1076 O -0.03120 0.04359 0.02723
 O1077 O 0.02533 0.00192 0.04983
 O1078 O 0.02657 -0.03072 0.04124
 O1079 O -0.05066 -0.00276 -0.02022
 O1080 O -0.04647 0.03041 -0.01685
 O1081 O -0.00599 -0.02356 -0.04831
 O1082 O 0.02929 -0.01836 -0.04483
 O1083 O -0.02186 -0.04938 0.00048
 O1084 O -0.01886 -0.04262 0.03467
 O1085 O -0.04781 -0.02621 0.00151
 O1086 O -0.03959 -0.02365 0.03580
 O1087 O -0.00086 -0.04826 -0.02353
 O1088 O 0.03178 -0.03929 -0.02565
 O1089 O -0.02774 -0.00072 -0.04733
 O1090 O -0.02709 0.03247 -0.04075
 O1091 O 0.04999 0.00533 0.02227
 O1092 O 0.04558 -0.02810 0.01928
 O1093 O 0.00265 0.02407 0.05110
 O1094 O -0.03071 0.01912 0.04606
 O1095 O 0.01953 0.05238 0.00040
 O1096 O 0.01807 0.04476 -0.03290
 Zr1097 Zr 0.02016 0.02498 -0.01073
 O1098 O 0.00333 0.00786 -0.02809
 Zr1099 Zr -0.01046 0.02276 0.02455
 O1100 O -0.02858 0.00565 0.00875
 Zr1101 Zr 0.02393 -0.00826 0.02191
 O1102 O 0.00729 -0.02693 0.00612
 Zr1103 Zr -0.02468 0.01083 -0.02021
 O1104 O -0.00813 0.02970 -0.00440
 Zr1105 Zr 0.00929 -0.02049 -0.02289
 O1106 O 0.02787 -0.00329 -0.00719
 Zr1107 Zr -0.02092 -0.02256 0.01262
 O1108 O -0.00407 -0.00552 0.03017
 O1109 O 0.01758 0.01991 0.01811
 O1110 O -0.01874 -0.01751 -0.01633
 C1111 C 0.05662 0.01915 0.01265
 C1112 C 0.01038 0.05975 0.01414
 C1113 C 0.01600 0.01462 0.05851
 C1114 C -0.05681 -0.01718 -0.01125
 C1115 C -0.01997 -0.01472 -0.05540
 C1116 C -0.01310 -0.05684 -0.01341
 H1117 H 0.00534 0.01117 -0.04151
 H1118 H 0.01123 -0.03993 0.00886
 H1119 H 0.02534 0.02845 0.02585
 H1120 H -0.04162 0.00798 0.01251
 H1121 H -0.04090 0.04181 -0.01115
 H1122 H -0.04238 0.03910 0.02042
 H1123 H 0.03418 -0.04452 -0.01293
 H1124 H 0.05174 -0.02564 0.00698
 H1125 H -0.01657 0.03144 -0.04971
 H1126 H 0.00495 0.04887 -0.03299
 H1127 H -0.00810 -0.05078 0.03190
 H1128 H 0.01411 -0.03251 0.04690
 H1129 H 0.04537 0.01304 -0.03359
 H1130 H 0.02471 -0.00922 -0.05429
 H1131 H -0.02775 0.00725 0.05270
 H1132 H -0.04881 -0.01351 0.03415
 O1133 O -0.00222 0.55250 0.52499
 O1134 O -0.03386 0.54522 0.52629
 O1135 O 0.02347 0.50388 0.54939
 O1136 O 0.02352 0.47280 0.54420
 O1137 O 0.04591 0.52639 0.49782
 O1138 O 0.03665 0.52755 0.46608
 O1139 O -0.02700 0.45289 0.50306
 O1140 O -0.02474 0.45925 0.53435
 O1141 O -0.05306 0.49990 0.47796
 O1142 O -0.04764 0.53423 0.48051
 O1143 O -0.00675 0.47945 0.45097
 O1144 O 0.02534 0.47699 0.45659
 O1145 O -0.01008 0.45446 0.47613
 O1146 O 0.02656 0.45952 0.47931
 O1147 O -0.02933 0.50167 0.45226
 O1148 O -0.02773 0.53578 0.46015
 O1149 O -0.05190 0.47763 0.50105
 O1150 O -0.04384 0.48265 0.53652
 O1151 O 0.01951 0.55269 0.50150
 O1152 O 0.01477 0.54584 0.46732
 O1153 O 0.04744 0.50490 0.52143
 O1154 O 0.04003 0.47066 0.51821
 O1155 O 0.00098 0.52629 0.55105
 O1156 O -0.03295 0.52300 0.54608
 Zr1157 Zr -0.01255 0.52496 0.52458
 O1158 O -0.03141 0.50872 0.50870
 Zr1159 Zr 0.02063 0.49260 0.52207
 O1160 O 0.00269 0.47432 0.50717
 Zr1161 Zr 0.01794 0.52571 0.48912
 O1162 O 0.00098 0.50858 0.47211
 Zr1163 Zr -0.02525 0.48036 0.51330
 O1164 O -0.00729 0.49652 0.53055
 Zr1165 Zr -0.02697 0.51315 0.47958
 O1166 O -0.01001 0.53155 0.49556
 Zr1167 Zr 0.00524 0.47994 0.47813
 O1168 O 0.02459 0.49716 0.49288
 O1169 O 0.01534 0.52090 0.51789
 O1170 O -0.02255 0.48466 0.48426
 C1171 C 0.01051 0.56051 0.51511
 C1172 C 0.01484 0.51716 0.55794
 C1173 C 0.05465 0.51804 0.51119
 C1174 C -0.02180 0.44612 0.48719
 C1175 C -0.05997 0.48605 0.48724
 C1176 C -0.02014 0.48888 0.44358
 H1177 H -0.04433 0.51169 0.51238
 H1178 H 0.00366 0.51159 0.45871
 H1179 H 0.02376 0.52902 0.52535
 H1180 H 0.00566 0.46112 0.51022
 H1181 H -0.01630 0.46381 0.54442
 H1182 H 0.01478 0.46241 0.54151
 H1183 H -0.01727 0.53417 0.45120
 H1184 H 0.00359 0.55330 0.47046
 H1185 H -0.05471 0.49016 0.53254
 H1186 H -0.03022 0.51149 0.55344
 H1187 H 0.02927 0.48986 0.45320
 H1188 H 0.04301 0.51529 0.46529
 H1189 H -0.03613 0.54950 0.51316
 H1190 H -0.05570 0.53177 0.49160
 H1191 H 0.04691 0.47343 0.50639
 H1192 H 0.02158 0.44831 0.48589
 O1193 O 0.51891 -0.00003 0.55125
 O1194 O 0.51916 -0.03252 0.54215
 O1195 O 0.54425 0.02695 0.50327
 O1196 O 0.53910 0.02804 0.47187
 O1197 O 0.49494 0.04924 0.52791
 O1198 O 0.46252 0.04120 0.52536
 O1199 O 0.49635 -0.01928 0.44937
 O1200 O 0.52901 -0.01569 0.45688
 O1201 O 0.47467 -0.04940 0.49627
 O1202 O 0.47551 -0.04446 0.53092
 O1203 O 0.44719 -0.00175 0.47598
 O1204 O 0.45218 0.03239 0.47976
 O1205 O 0.47195 0.00088 0.45109
 O1206 O 0.47235 0.03484 0.45993
 O1207 O 0.44830 -0.02576 0.49714
 O1208 O 0.45465 -0.02578 0.53177
 O1209 O 0.49616 -0.04659 0.47286
 O1210 O 0.52691 -0.04169 0.47597
 O1211 O 0.49568 0.02147 0.55254
 O1212 O 0.46268 0.01870 0.54469
 O1213 O 0.51698 0.05167 0.50485
 O1214 O 0.51466 0.04622 0.47075
 O1215 O 0.54504 0.00362 0.52532
 O1216 O 0.53982 -0.03027 0.52208
 Zr1217 Zr 0.51879 -0.00959 0.52311
 O1218 O 0.50330 -0.02732 0.50524
 Zr1219 Zr 0.51729 0.02519 0.49180
 O1220 O 0.50171 0.00896 0.47257
 Zr1221 Zr 0.48455 0.02164 0.52492
 O1222 O 0.46749 0.00520 0.50717
 Zr1223 Zr 0.50740 -0.01958 0.47688
 O1224 O 0.52493 -0.00328 0.49460
 Zr1225 Zr 0.47472 -0.02321 0.50995
 O1226 O 0.49026 -0.00699 0.52951
 Zr1227 Zr 0.47320 0.01169 0.47873
 O1228 O 0.48872 0.02977 0.49657
 O1229 O 0.51287 0.01871 0.52011
 O1230 O 0.47890 -0.01681 0.48148
 C1231 C 0.50905 0.01213 0.56013
 C1232 C 0.55236 0.01760 0.51646
 C1233 C 0.50773 0.05826 0.51889
 C1234 C 0.48209 -0.01104 0.44228
 C1235 C 0.48329 -0.05565 0.48165
 C1236 C 0.44023 -0.01646 0.48388
 H1237 H 0.50709 -0.04049 0.50736
 H1238 H 0.45427 0.00733 0.51034
 H1239 H 0.52040 0.02657 0.52874
 H1240 H 0.50473 0.01288 0.45949
 H1241 H 0.54021 -0.01168 0.46401
 H1242 H 0.53580 0.02020 0.46084
 H1243 H 0.44563 -0.01544 0.53030
 H1244 H 0.46342 0.00569 0.54954
 H1245 H 0.53646 -0.03873 0.48555
 H1246 H 0.54849 -0.02673 0.51177
 H1247 H 0.44438 0.02985 0.49102
 H1248 H 0.46291 0.04789 0.51308
 H1249 H 0.50683 -0.03282 0.54840
 H1250 H 0.48704 -0.05175 0.52902
 H1251 H 0.50255 0.05245 0.47289
 H1252 H 0.48315 0.03389 0.45131
 O1253 O 0.54181 0.52968 -0.00177
 O1254 O 0.53271 0.52697 -0.03446
 O1255 O 0.49293 0.54944 0.02532
 O1256 O 0.46289 0.54062 0.02740
 O1257 O 0.52222 0.50216 0.04920
 O1258 O 0.52570 0.46994 0.04043
 O1259 O 0.44590 0.49155 -0.01999
 O1260 O 0.44664 0.52516 -0.01532
 O1261 O 0.49117 0.47604 -0.04887
 O1262 O 0.52522 0.48167 -0.04607
 O1263 O 0.47781 0.44806 0.00093
 O1264 O 0.48133 0.45568 0.03540
 O1265 O 0.45027 0.46918 0.00262
 O1266 O 0.45861 0.47221 0.03626
 O1267 O 0.49712 0.45103 -0.02430
 O1268 O 0.53027 0.46251 -0.02601
 O1269 O 0.46789 0.49729 -0.04712
 O1270 O 0.46561 0.52994 -0.03942
 O1271 O 0.54602 0.50731 0.02083
 O1272 O 0.54366 0.47367 0.01790
 O1273 O 0.49846 0.52313 0.05111
 O1274 O 0.46552 0.51615 0.04704
 O1275 O 0.51258 0.55239 0.00020
 O1276 O 0.51029 0.54521 -0.03291
 Zr1277 Zr 0.51427 0.52521 -0.01120
 O1278 O 0.49820 0.50710 -0.02816
 Zr1279 Zr 0.48479 0.52101 0.02485
 O1280 O 0.46743 0.50263 0.00946
 Zr1281 Zr 0.52091 0.49212 0.02118
 O1282 O 0.50522 0.47242 0.00569
 Zr1283 Zr 0.47024 0.50804 -0.01959
 O1284 O 0.48588 0.52805 -0.00415
 Zr1285 Zr 0.50616 0.47919 -0.02332
 O1286 O 0.52389 0.49755 -0.00798
 Zr1287 Zr 0.47701 0.47497 0.01300
 O1288 O 0.49303 0.49313 0.03017
 O1289 O 0.51277 0.51983 0.01766
 O1290 O 0.47819 0.48020 -0.01601
 C1291 C 0.55155 0.52149 0.01107
 C1292 C 0.50381 0.55907 0.01452
 C1293 C 0.51245 0.51435 0.05813
 C1294 C 0.44086 0.47689 -0.01067
 C1295 C 0.47671 0.48426 -0.05573
 C1296 C 0.48621 0.44138 -0.01360
 H1297 H 0.49969 0.51072 -0.04158
 H1298 H 0.51002 0.45970 0.00829
 H1299 H 0.52025 0.52871 0.02528
 H1300 H 0.45432 0.50399 0.01346
 H1301 H 0.45118 0.53696 -0.00953
 H1302 H 0.45154 0.53480 0.02205
 H1303 H 0.53203 0.45593 -0.01382
 H1304 H 0.54925 0.47643 0.00538
 H1305 H 0.47637 0.53045 -0.04813
 H1306 H 0.49709 0.54901 -0.03212
 H1307 H 0.49212 0.44777 0.03204
 H1308 H 0.51364 0.46744 0.04670
 H1309 H 0.53985 0.51513 -0.03457
 H1310 H 0.52177 0.49286 -0.05357
 H1311 H 0.46912 0.50423 0.05323
 H1312 H 0.44932 0.48238 0.03542
 O1313 O 0.70051 0.21903 0.49773
 O1314 O 0.70973 0.22228 0.46471
 O1315 O 0.74829 0.19512 0.52370
 O1316 O 0.77884 0.20174 0.52582
 O1317 O 0.72138 0.24235 0.54851
 O1318 O 0.72279 0.27563 0.54201
 O1319 O 0.79986 0.24828 0.48046
 O1320 O 0.79356 0.21451 0.48251
 O1321 O 0.75370 0.27012 0.45126
 O1322 O 0.71887 0.26567 0.45550
 O1323 O 0.77114 0.29533 0.50003
 O1324 O 0.76757 0.28899 0.53407
 O1325 O 0.79727 0.27093 0.50285
 O1326 O 0.78717 0.26919 0.53656
 O1327 O 0.74978 0.29478 0.47632
 O1328 O 0.71733 0.28663 0.47442
 O1329 O 0.77696 0.24862 0.45276
 O1330 O 0.77671 0.21591 0.45744
 O1331 O 0.69788 0.24149 0.52038
 O1332 O 0.70351 0.27505 0.51938
 O1333 O 0.74474 0.22090 0.55026
 O1334 O 0.77823 0.22559 0.54574
 O1335 O 0.72823 0.19416 0.49876
 O1336 O 0.72988 0.20189 0.46601
 Zr1337 Zr 0.72816 0.22176 0.48803
 O1338 O 0.74540 0.23901 0.47125
 Zr1339 Zr 0.75830 0.22287 0.52381
 O1340 O 0.77684 0.24021 0.50852
 Zr1341 Zr 0.72437 0.25429 0.52138
 O1342 O 0.74135 0.27310 0.50602
 Zr1343 Zr 0.77333 0.23578 0.47938
 O1344 O 0.75631 0.21670 0.49464
 Zr1345 Zr 0.73935 0.26722 0.47700
 O1346 O 0.72050 0.24993 0.49220
 Zr1347 Zr 0.76955 0.26847 0.51257
 O1348 O 0.75231 0.25114 0.52975
 O1349 O 0.73044 0.22620 0.51695
 O1350 O 0.76753 0.26409 0.48353
 C1351 C 0.69135 0.22778 0.51058
 C1352 C 0.73675 0.18655 0.51280
 C1353 C 0.73053 0.22943 0.55713
 C1354 C 0.80663 0.26166 0.49049
 C1355 C 0.76799 0.26181 0.44439
 C1356 C 0.76236 0.30303 0.48619
 H1357 H 0.74354 0.23598 0.45775
 H1358 H 0.73752 0.28610 0.50881
 H1359 H 0.72235 0.21758 0.52425
 H1360 H 0.78974 0.23755 0.51255
 H1361 H 0.78710 0.20318 0.48742
 H1362 H 0.79013 0.20643 0.51931
 H1363 H 0.71499 0.29172 0.48718
 H1364 H 0.69728 0.27327 0.50702
 H1365 H 0.76440 0.21389 0.45158
 H1366 H 0.74275 0.19707 0.46632
 H1367 H 0.75572 0.29577 0.53225
 H1368 H 0.73466 0.27528 0.54911
 H1369 H 0.70258 0.23408 0.46567
 H1370 H 0.72267 0.25590 0.44639
 H1371 H 0.77520 0.23720 0.55272
 H1372 H 0.79577 0.25842 0.53566
 O1373 O 0.75233 0.77260 -0.05387
 O1374 O 0.71951 0.77090 -0.05005
 O1375 O 0.76967 0.80052 -0.00289
 O1376 O 0.76695 0.79594 0.02822
 O1377 O 0.79880 0.75117 -0.02148
 O1378 O 0.79198 0.71841 -0.02209
 O1379 O 0.71820 0.75013 0.04407
 O1380 O 0.72102 0.78223 0.03736
 O1381 O 0.69938 0.72370 -0.00432
 O1382 O 0.70829 0.72600 -0.03881
 O1383 O 0.74527 0.70094 0.02147
 O1384 O 0.77665 0.70902 0.02677
 O1385 O 0.73929 0.72663 0.04605
 O1386 O 0.77526 0.73142 0.04328
 O1387 O 0.72510 0.69987 -0.00328
 O1388 O 0.72878 0.70671 -0.03705
 O1389 O 0.69612 0.74794 0.01629
 O1390 O 0.70190 0.78194 0.01317
 O1391 O 0.77563 0.75126 -0.05074
 O1392 O 0.77269 0.71776 -0.04342
 O1393 O 0.79603 0.77497 -0.00028
 O1394 O 0.78556 0.77192 0.03303
 O1395 O 0.75005 0.79938 -0.02820
 O1396 O 0.71698 0.79182 -0.02924
 Zr1397 Zr 0.73877 0.77205 -0.02748
 O1398 O 0.71963 0.75534 -0.01234
 Zr1399 Zr 0.76817 0.77340 0.00886
 O1400 O 0.74996 0.75725 0.02581
 Zr1401 Zr 0.77179 0.73981 -0.02348
 O1402 O 0.75439 0.72190 -0.00770
 Zr1403 Zr 0.72242 0.76088 0.01669
 O1404 O 0.74031 0.77908 0.00142
 Zr1405 Zr 0.72650 0.72686 -0.01525
 O1406 O 0.74416 0.74347 -0.03257
 Zr1407 Zr 0.75547 0.72870 0.02122
 O1408 O 0.77511 0.74485 0.00568
 O1409 O 0.76644 0.76813 -0.01997
 O1410 O 0.72776 0.73229 0.01369
 C1411 C 0.76674 0.76390 -0.06003
 C1412 C 0.76196 0.80781 -0.01758
 C1413 C 0.80546 0.76500 -0.01197
 C1414 C 0.72558 0.73614 0.05267
 C1415 C 0.69011 0.73323 0.00783
 C1416 C 0.73354 0.69232 0.01081
 H1417 H 0.70688 0.75784 -0.01690
 H1418 H 0.75829 0.70882 -0.01004
 H1419 H 0.77505 0.77615 -0.02736
 H1420 H 0.75135 0.76075 0.03926
 H1421 H 0.72772 0.79325 0.03212
 H1422 H 0.75830 0.79221 0.03847
 H1423 H 0.74042 0.69966 -0.03488
 H1424 H 0.76175 0.71932 -0.05179
 H1425 H 0.69498 0.77942 0.00135
 H1426 H 0.71689 0.79867 -0.01708
 H1427 H 0.78126 0.70489 0.01431
 H1428 H 0.79664 0.71836 -0.00894
 H1429 H 0.71977 0.75786 -0.05480
 H1430 H 0.69878 0.73585 -0.03716
 H1431 H 0.79343 0.76064 0.03158
 H1432 H 0.76998 0.73973 0.05308
 O1433 O 1.00657 0.20017 0.22968
 O1434 O 0.97438 0.20694 0.22760
 O1435 O 1.03039 0.25022 0.20429
 O1436 O 1.02771 0.28133 0.20931
 O1437 O 1.05407 0.22801 0.25425
 O1438 O 1.04574 0.22826 0.28711
 O1439 O 0.97791 0.29817 0.25415
 O1440 O 0.98372 0.29323 0.22107
 O1441 O 0.95467 0.25107 0.27629
 O1442 O 0.96115 0.21635 0.27327
 O1443 O 1.00061 0.27192 0.30380
 O1444 O 1.03413 0.27400 0.29680
 O1445 O 0.99773 0.29769 0.27924
 O1446 O 1.03255 0.29432 0.27765
 O1447 O 0.97862 0.24899 0.30231
 O1448 O 0.98037 0.21558 0.29399
 O1449 O 0.95428 0.27250 0.25237
 O1450 O 0.96155 0.27140 0.21959
 O1451 O 1.02877 0.20090 0.25265
 O1452 O 1.02546 0.20726 0.28594
 O1453 O 1.05485 0.25185 0.23278
 O1454 O 1.04586 0.28437 0.23415
 O1455 O 1.00898 0.22662 0.20305
 O1456 O 0.97549 0.22822 0.20764
 Zr1457 Zr 0.99555 0.22747 0.22954
 O1458 O 0.97639 0.24297 0.24569
 Zr1459 Zr 1.02720 0.26149 0.23164
 O1460 O 1.00930 0.27871 0.24766
 Zr1461 Zr 1.02655 0.22790 0.26441
 O1462 O 1.00895 0.24360 0.28200
 Zr1463 Zr 0.98151 0.27175 0.24169
 O1464 O 0.99933 0.25623 0.22377
 Zr1465 Zr 0.98105 0.23832 0.27468
 O1466 O 0.99866 0.22086 0.25845
 Zr1467 Zr 1.01256 0.27241 0.27657
 O1468 O 1.03204 0.25672 0.26067
 O1469 O 1.02335 0.23283 0.23568
 O1470 O 0.98472 0.26701 0.27067
 C1471 C 1.01952 0.19253 0.23958
 C1472 C 1.02226 0.23648 0.19586
 C1473 C 1.06259 0.23861 0.24230
 C1474 C 0.98487 0.30530 0.26923
 C1475 C 0.94672 0.26388 0.26636
 C1476 C 0.98753 0.26193 0.31117
 H1477 H 0.96356 0.23948 0.24206
 H1478 H 1.01173 0.24029 0.29530
 H1479 H 1.03202 0.22509 0.22815
 H1480 H 1.01174 0.29209 0.24489
 H1481 H 0.98936 0.28753 0.20967
 H1482 H 1.02008 0.29215 0.21328
 H1483 H 0.99144 0.21672 0.30224
 H1484 H 1.01363 0.20031 0.28419
 H1485 H 0.95687 0.25842 0.21833
 H1486 H 0.97746 0.24013 0.20065
 H1487 H 1.03542 0.26129 0.30223
 H1488 H 1.05272 0.24023 0.28620
 H1489 H 0.97149 0.20322 0.24076
 H1490 H 0.95205 0.21947 0.26326
 H1491 H 1.04958 0.28485 0.24760
 H1492 H 1.02941 0.30367 0.26780
 O1493 O 0.74618 1.04635 0.72500
 O1494 O 0.77960 1.04108 0.72649
 O1495 O 0.72559 0.99632 0.70007
 O1496 O 0.72571 0.96566 0.70596
 O1497 O 0.70012 1.01892 0.75098
 O1498 O 0.70895 1.01802 0.78388
 O1499 O 0.77462 0.94760 0.74964
 O1500 O 0.77121 0.95403 0.71707
 O1501 O 0.80041 0.99725 0.77140
 O1502 O 0.79332 1.02951 0.77178
 O1503 O 0.75534 0.97175 0.79861
 O1504 O 0.72055 0.97389 0.79409
 O1505 O 0.75263 0.94680 0.77275
 O1506 O 0.71966 0.95390 0.77498
 O1507 O 0.77648 0.99555 0.79820
 O1508 O 0.77238 1.03045 0.79076
 O1509 O 0.79936 0.97311 0.75044
 O1510 O 0.79273 0.97581 0.71627
 O1511 O 0.72512 1.04586 0.74907
 O1512 O 0.72902 1.03936 0.78242
 O1513 O 0.70008 0.99724 0.72748
 O1514 O 0.70747 0.96374 0.73036
 O1515 O 0.74797 1.01900 0.69881
 O1516 O 0.78019 1.02107 0.70566
 Zr1517 Zr 0.75905 1.01974 0.72638
 O1518 O 0.77790 1.00363 0.74238
 Zr1519 Zr 0.72710 0.98586 0.72781
 O1520 O 0.74458 0.96824 0.74374
 Zr1521 Zr 0.72776 1.01884 0.76091
 O1522 O 0.74522 1.00262 0.77849
 Zr1523 Zr 0.77264 0.97485 0.73829
 O1524 O 0.75517 0.99098 0.72046
 Zr1525 Zr 0.77312 1.00789 0.77135
 O1526 O 0.75574 1.02586 0.75528
 Zr1527 Zr 0.74120 0.97401 0.77268
 O1528 O 0.72197 0.99013 0.75678
 O1529 O 0.73120 1.01435 0.73205
 O1530 O 0.76925 0.97915 0.76723
 C1531 C 0.73322 1.05389 0.73497
 C1532 C 0.73505 1.00895 0.69129
 C1533 C 0.69204 1.00977 0.73762
 C1534 C 0.76548 0.93912 0.76279
 C1535 C 0.80784 0.98341 0.76262
 C1536 C 0.76865 0.98129 0.80601
 H1537 H 0.79076 1.00717 0.73887
 H1538 H 0.74270 1.00555 0.79190
 H1539 H 0.72283 1.02190 0.72395
 H1540 H 0.74162 0.95504 0.74068
 H1541 H 0.76471 0.95971 0.70612
 H1542 H 0.73390 0.95513 0.70959
 H1543 H 0.76325 1.02730 0.80076
 H1544 H 0.74097 1.04613 0.78074
 H1545 H 0.80152 0.98621 0.71880
 H1546 H 0.78288 1.00792 0.70225
 H1547 H 0.72370 0.98378 0.80336
 H1548 H 0.70415 1.00501 0.78450
 H1549 H 0.77768 1.04851 0.73815
 H1550 H 0.79669 1.03212 0.75848
 H1551 H 0.69967 0.96643 0.74158
 H1552 H 0.71719 0.94939 0.76203
 O1553 O 0.69974 0.52396 0.25002
 O1554 O 0.70850 0.52253 0.28311
 O1555 O 0.74638 0.54964 0.22361
 O1556 O 0.77706 0.54494 0.22211
 O1557 O 0.72209 0.49991 0.20044
 O1558 O 0.72526 0.46697 0.20836
 O1559 O 0.79913 0.49954 0.27082
 O1560 O 0.79405 0.53239 0.26589
 O1561 O 0.75531 0.47760 0.29891
 O1562 O 0.71989 0.47998 0.29446
 O1563 O 0.77396 0.45195 0.25080
 O1564 O 0.76919 0.45771 0.21595
 O1565 O 0.79823 0.47692 0.24816
 O1566 O 0.78963 0.47703 0.21450
 O1567 O 0.75260 0.45192 0.27456
 O1568 O 0.71958 0.45817 0.27667
 O1569 O 0.77649 0.50097 0.29690
 O1570 O 0.77370 0.53449 0.28940
 O1571 O 0.69807 0.50001 0.22886
 O1572 O 0.70562 0.46730 0.22989
 O1573 O 0.74487 0.52207 0.19785
 O1574 O 0.77817 0.52090 0.20319
 O1575 O 0.72629 0.55045 0.24853
 O1576 O 0.72774 0.54386 0.28139
 Zr1577 Zr 0.72728 0.52317 0.26008
 O1578 O 0.74505 0.50750 0.27775
 Zr1579 Zr 0.75774 0.52258 0.22466
 O1580 O 0.77690 0.50687 0.24073
 Zr1581 Zr 0.72535 0.48926 0.22804
 O1582 O 0.74298 0.47199 0.24428
 Zr1583 Zr 0.77280 0.51210 0.26966
 O1584 O 0.75521 0.52968 0.25353
 Zr1585 Zr 0.74055 0.47876 0.27311
 O1586 O 0.72108 0.49441 0.25702
 Zr1587 Zr 0.77088 0.47816 0.23757
 O1588 O 0.75314 0.49386 0.21967
 O1589 O 0.72994 0.51787 0.23131
 O1590 O 0.76835 0.48343 0.26641
 C1591 C 0.69085 0.51367 0.23813
 C1592 C 0.73465 0.55806 0.23433
 C1593 C 0.73124 0.51240 0.19113
 C1594 C 0.80639 0.48599 0.26148
 C1595 C 0.76897 0.48721 0.30570
 C1596 C 0.76566 0.44424 0.26491
 H1597 H 0.74286 0.51094 0.29110
 H1598 H 0.73982 0.45869 0.24192
 H1599 H 0.72147 0.52567 0.22356
 H1600 H 0.78979 0.50995 0.23689
 H1601 H 0.78814 0.54355 0.26011
 H1602 H 0.78859 0.54115 0.22873
 H1603 H 0.71822 0.45165 0.26443
 H1604 H 0.70110 0.46731 0.24310
 H1605 H 0.76400 0.53231 0.29910
 H1606 H 0.74086 0.54792 0.28247
 H1607 H 0.75902 0.44890 0.21926
 H1608 H 0.73692 0.46810 0.20097
 H1609 H 0.70230 0.51011 0.28283
 H1610 H 0.72353 0.48986 0.30355
 H1611 H 0.77779 0.50788 0.19846
 H1612 H 0.79742 0.48848 0.21490
 O1613 O 0.54683 0.22272 0.75702
 O1614 O 0.53608 0.22460 0.78931
 O1615 O 0.50136 0.19655 0.72884
 O1616 O 0.47115 0.20241 0.72287
 O1617 O 0.52793 0.24635 0.70518
 O1618 O 0.52548 0.27904 0.71236
 O1619 O 0.44646 0.24768 0.77025
 O1620 O 0.45199 0.21493 0.76683
 O1621 O 0.48891 0.27023 0.80078
 O1622 O 0.52408 0.26862 0.79868
 O1623 O 0.47300 0.29528 0.75099
 O1624 O 0.47914 0.28947 0.71720
 O1625 O 0.44852 0.26914 0.74643
 O1626 O 0.46072 0.26882 0.71353
 O1627 O 0.49274 0.29561 0.77612
 O1628 O 0.52591 0.28947 0.77941
 O1629 O 0.46818 0.24636 0.79853
 O1630 O 0.47047 0.21345 0.79162
 O1631 O 0.55017 0.24538 0.73483
 O1632 O 0.54304 0.27881 0.73650
 O1633 O 0.50634 0.22303 0.70248
 O1634 O 0.47216 0.22648 0.70462
 O1635 O 0.52135 0.19683 0.75383
 O1636 O 0.51554 0.20355 0.78671
 Zr1637 Zr 0.51874 0.22394 0.76516
 O1638 O 0.50012 0.24019 0.78107
 Zr1639 Zr 0.49080 0.22404 0.72771
 O1640 O 0.47073 0.24002 0.74214
 Zr1641 Zr 0.52323 0.25716 0.73249
 O1642 O 0.50440 0.27485 0.74677
 Zr1643 Zr 0.47291 0.23538 0.77140
 O1644 O 0.49130 0.21739 0.75683
 Zr1645 Zr 0.50496 0.26881 0.77587
 O1646 O 0.52540 0.25257 0.76183
 Zr1647 Zr 0.47689 0.26869 0.73855
 O1648 O 0.49596 0.25267 0.72238
 O1649 O 0.51804 0.22874 0.73621
 O1650 O 0.47749 0.26407 0.76767
 C1651 C 0.55668 0.23180 0.74495
 C1652 C 0.51331 0.18869 0.73982
 C1653 C 0.52014 0.23275 0.69622
 C1654 C 0.43951 0.26038 0.75949
 C1655 C 0.47525 0.26039 0.80727
 C1656 C 0.48020 0.30314 0.76564
 H1657 H 0.50155 0.23705 0.79461
 H1658 H 0.50766 0.28810 0.74422
 H1659 H 0.52690 0.22068 0.72931
 H1660 H 0.45815 0.23676 0.73748
 H1661 H 0.45823 0.20384 0.76134
 H1662 H 0.45971 0.20567 0.72986
 H1663 H 0.52690 0.29659 0.76742
 H1664 H 0.54787 0.27736 0.74954
 H1665 H 0.48126 0.21422 0.80026
 H1666 H 0.50379 0.19675 0.78399
 H1667 H 0.49021 0.29725 0.72003
 H1668 H 0.51380 0.27880 0.70492
 H1669 H 0.54209 0.23712 0.78944
 H1670 H 0.52069 0.25811 0.80720
 H1671 H 0.47579 0.23788 0.69746
 H1672 H 0.45326 0.25714 0.71342
 O1673 O 0.25692 0.77252 0.44685
 O1674 O 0.22383 0.77110 0.45137
 O1675 O 0.27542 0.79806 0.49876
 O1676 O 0.27234 0.79223 0.52965
 O1677 O 0.30346 0.74884 0.47809
 O1678 O 0.29600 0.71643 0.47529
 O1679 O 0.22313 0.74490 0.54374
 O1680 O 0.22794 0.77835 0.53924
 O1681 O 0.20306 0.72360 0.49399
 O1682 O 0.21223 0.72557 0.46051
 O1683 O 0.24967 0.69776 0.51914
 O1684 O 0.28136 0.70498 0.52377
 O1685 O 0.24537 0.72239 0.54522
 O1686 O 0.28090 0.72649 0.54134
 O1687 O 0.22842 0.69836 0.49531
 O1688 O 0.23258 0.70629 0.46133
 O1689 O 0.20072 0.74700 0.51567
 O1690 O 0.20687 0.77892 0.51660
 O1691 O 0.27979 0.75061 0.44865
 O1692 O 0.27638 0.71696 0.45464
 O1693 O 0.30124 0.77187 0.50022
 O1694 O 0.29114 0.76785 0.53322
 O1695 O 0.25585 0.79810 0.47340
 O1696 O 0.22260 0.79171 0.47245
 Zr1697 Zr 0.24372 0.77114 0.47341
 O1698 O 0.22456 0.75417 0.48817
 Zr1699 Zr 0.27342 0.77045 0.50940
 O1700 O 0.25534 0.75365 0.52592
 Zr1701 Zr 0.27614 0.73817 0.47550
 O1702 O 0.25860 0.71984 0.49069
 Zr1703 Zr 0.22775 0.75807 0.51744
 O1704 O 0.24553 0.77683 0.50261
 Zr1705 Zr 0.23065 0.72565 0.48389
 O1706 O 0.24843 0.74270 0.46702
 Zr1707 Zr 0.26040 0.72528 0.51984
 O1708 O 0.27993 0.74195 0.50479
 O1709 O 0.27139 0.76640 0.48036
 O1710 O 0.23249 0.72955 0.51306
 C1711 C 0.27100 0.76378 0.44003
 C1712 C 0.26788 0.80598 0.48430
 C1713 C 0.31046 0.76206 0.48825
 C1714 C 0.23124 0.73106 0.55196
 C1715 C 0.19387 0.73337 0.50605
 C1716 C 0.23722 0.68997 0.50869
 H1717 H 0.21184 0.75735 0.48394
 H1718 H 0.26216 0.70680 0.48771
 H1719 H 0.28015 0.77447 0.47321
 H1720 H 0.25695 0.75646 0.53951
 H1721 H 0.23373 0.78985 0.53391
 H1722 H 0.26437 0.78783 0.54019
 H1723 H 0.24364 0.69837 0.46361
 H1724 H 0.26514 0.71882 0.44676
 H1725 H 0.20459 0.78185 0.50315
 H1726 H 0.22370 0.79917 0.48421
 H1727 H 0.28506 0.70079 0.51102
 H1728 H 0.30039 0.71514 0.48847
 H1729 H 0.22469 0.75868 0.44521
 H1730 H 0.20457 0.73704 0.46123
 H1731 H 0.29863 0.75638 0.53137
 H1732 H 0.27648 0.73512 0.55130
 O1733 O 0.29857 0.25770 0.98202
 O1734 O 0.29221 0.22435 0.98051
 O1735 O 0.25214 0.28086 0.95211
 O1736 O 0.22150 0.28149 0.95460
 O1737 O 0.27095 0.30337 1.00545
 O1738 O 0.26474 0.29415 1.03801
 O1739 O 0.19894 0.22827 0.99629
 O1740 O 0.20660 0.23571 0.96359
 O1741 O 0.24233 0.20278 1.02057
 O1742 O 0.27607 0.20900 1.02359
 O1743 O 0.21863 0.24958 1.04754
 O1744 O 0.21984 0.28336 1.04244
 O1745 O 0.19633 0.24974 1.01990
 O1746 O 0.20244 0.28434 1.02021
 O1747 O 0.23925 0.22561 1.04724
 O1748 O 0.27447 0.22807 1.04463
 O1749 O 0.22412 0.20402 0.99444
 O1750 O 0.22829 0.21366 0.96241
 O1751 O 0.29632 0.27670 1.00754
 O1752 O 0.28555 0.27356 1.03907
 O1753 O 0.25039 0.30532 0.98097
 O1754 O 0.21676 0.29770 0.98021
 O1755 O 0.27545 0.25938 0.95312
 O1756 O 0.27370 0.22568 0.95733
 Zr1757 Zr 0.27178 0.24558 0.97937
 O1758 O 0.25386 0.22615 0.99276
 Zr1759 Zr 0.23889 0.27822 0.97853
 O1760 O 0.21948 0.26019 0.99169
 Zr1761 Zr 0.26810 0.27548 1.01507
 O1762 O 0.24995 0.25756 1.02999
 Zr1763 Zr 0.22610 0.23217 0.98572
 O1764 O 0.24414 0.25026 0.97044
 Zr1765 Zr 0.25492 0.22955 1.02226
 O1766 O 0.27477 0.24739 1.00899
 Zr1767 Zr 0.22252 0.26269 1.02119
 O1768 O 0.24050 0.28225 1.00798
 O1769 O 0.26645 0.27335 0.98581
 O1770 O 0.22739 0.23453 1.01506
 C1771 C 0.30551 0.26961 0.99381
 C1772 C 0.26646 0.27275 0.94497
 C1773 C 0.26274 0.31233 0.99206
 C1774 C 0.19007 0.23618 1.00987
 C1775 C 0.23062 0.19540 1.00893
 C1776 C 0.22575 0.23475 1.05480
 H1777 H 0.25738 0.21331 0.98900
 H1778 H 0.25159 0.25959 1.04371
 H1779 H 0.27512 0.28185 0.97914
 H1780 H 0.20670 0.26311 0.98747
 H1781 H 0.21318 0.24238 0.95324
 H1782 H 0.21047 0.27336 0.95654
 H1783 H 0.27085 0.23737 1.05431
 H1784 H 0.29082 0.26076 1.03897
 H1785 H 0.24049 0.20734 0.96324
 H1786 H 0.26249 0.22734 0.94936
 H1787 H 0.23073 0.28223 1.05092
 H1788 H 0.25321 0.30132 1.03554
 H1789 H 0.29667 0.22391 0.99376
 H1790 H 0.27650 0.20263 1.01119
 H1791 H 0.21785 0.30411 0.99257
 H1792 H 0.19485 0.28262 1.00866
 C1793 C 0.26547 0.41100 0.77108
 C1794 C 0.27045 0.39298 0.77661
 C1795 C 0.28890 0.38690 0.77546
 C1796 C 0.30272 0.39950 0.76853
 C1797 C 0.29755 0.41778 0.76216
 C1798 C 0.27866 0.42374 0.76389
 C1799 C 0.31175 0.42953 0.75500
 N1800 N 0.32967 0.42370 0.75487
 N1801 N 0.33454 0.40698 0.76158
 C1802 C 0.32175 0.39481 0.76855
 H1803 H 0.25100 0.41502 0.77247
 H1804 H 0.25968 0.38365 0.78189
 H1805 H 0.30916 0.44340 0.74975
 H1806 H 0.32678 0.38182 0.77444
 C1807 C 0.26558 -0.09003 0.26866
 C1808 C 0.27024 -0.10824 0.27400
 C1809 C 0.28883 -0.11397 0.27475
 C1810 C 0.30311 -0.10083 0.27033
 C1811 C 0.29838 -0.08227 0.26458
 C1812 C 0.27931 -0.07682 0.26377
 C1813 C 0.31306 -0.06966 0.26069
 N1814 N 0.33099 -0.07520 0.26248
 N1815 N 0.33537 -0.09241 0.26818
 C1816 C 0.32210 -0.10532 0.27232
 H1817 H 0.25100 -0.08624 0.26830
 H1818 H 0.25917 -0.11802 0.27749
 H1819 H 0.31071 -0.05536 0.25659
 H1820 H 0.32665 -0.11876 0.27756
 C1821 C 0.78933 0.91445 0.76661
 C1822 C 0.79517 0.89647 0.77141
 C1823 C 0.78241 0.88257 0.77714
 C1824 C 0.76300 0.88667 0.77603
 C1825 C 0.75708 0.90505 0.77086
 C1826 C 0.77046 0.91927 0.76690
 C1827 C 0.73788 0.90824 0.76866
 N1828 N 0.72548 0.89419 0.77161
 N1829 N 0.73095 0.87697 0.77614
 C1830 C 0.74919 0.87266 0.77813
 H1831 H 0.79978 0.92488 0.76311
 H1832 H 0.81001 0.89383 0.77167
 H1833 H 0.73259 0.92145 0.76377
 H1834 H 0.75256 0.85811 0.78035
 C1835 C 0.48100 0.83556 0.28608
 C1836 C 0.47529 0.85323 0.29187
 C1837 C 0.47260 0.86763 0.27869
 C1838 C 0.47651 0.86440 0.25933
 C1839 C 0.48279 0.84648 0.25345
 C1840 C 0.48448 0.83180 0.26695
 C1841 C 0.48778 0.84415 0.23435
 N1842 N 0.48591 0.85858 0.22197
 N1843 N 0.47963 0.87526 0.22742
 C1844 C 0.47496 0.87870 0.24567
 H1845 H 0.48226 0.82458 0.29664
 H1846 H 0.47240 0.85554 0.30674
 H1847 H 0.49364 0.83123 0.22921
 H1848 H 0.47041 0.89265 0.24933
 C1849 C -0.01630 0.84216 0.76011
 C1850 C -0.02242 0.86000 0.76517
 C1851 C -0.02745 0.86401 0.78386
 C1852 C -0.02691 0.84956 0.79767
 C1853 C -0.02084 0.83134 0.79252
 C1854 C -0.01509 0.82776 0.77359
 C1855 C -0.02174 0.81707 0.80633
 N1856 N -0.02774 0.82095 0.82406
 N1857 N -0.03318 0.83808 0.82893
 C1858 C -0.03309 0.85246 0.81635
 H1859 H -0.01237 0.83959 0.74555
 H1860 H -0.02311 0.87083 0.75441
 H1861 H -0.01830 0.80277 0.80315
 H1862 H -0.03823 0.86588 0.82105
 C1863 C -0.03731 -0.08113 -0.01707
 C1864 C -0.04391 -0.09825 -0.02359
 C1865 C -0.03183 -0.11137 -0.03160
 C1866 C -0.01243 -0.10753 -0.03191
 C1867 C -0.00568 -0.08994 -0.02531
 C1868 C -0.01843 -0.07631 -0.01855
 C1869 C 0.01369 -0.08699 -0.02496
 N1870 N 0.02538 -0.10052 -0.03117
 N1871 N 0.01905 -0.11693 -0.03746
 C1872 C 0.00061 -0.12095 -0.03790
 H1873 H -0.04728 -0.07125 -0.01143
 H1874 H -0.05874 -0.10099 -0.02293
 H1875 H 0.01976 -0.07440 -0.01922
 H1876 H -0.00356 -0.13479 -0.04244
 C1877 C -0.01902 0.41684 0.46862
 C1878 C -0.02569 0.40012 0.46100
 C1879 C -0.04369 0.39351 0.46509
 C1880 C -0.05565 0.40516 0.47599
 C1881 C -0.04850 0.42160 0.48493
 C1882 C -0.02986 0.42772 0.48090
 C1883 C -0.06081 0.43165 0.49674
 N1884 N -0.07901 0.42676 0.49790
 N1885 N -0.08596 0.41255 0.48804
 C1886 C -0.07501 0.40179 0.47697
 H1887 H -0.00496 0.42114 0.46507
 H1888 H -0.01622 0.39195 0.45245
 H1889 H -0.05667 0.44344 0.50504
 H1890 H -0.08177 0.39124 0.46845
 C1891 C 0.47330 -0.08832 0.48795
 C1892 C 0.46687 -0.10595 0.48251
 C1893 C 0.46487 -0.11068 0.46334
 C1894 C 0.46794 -0.09647 0.44942
 C1895 C 0.47442 -0.07839 0.45503
 C1896 C 0.47759 -0.07447 0.47452
 C1897 C 0.47631 -0.06449 0.44095
 N1898 N 0.47196 -0.06829 0.42272
 N1899 N 0.46541 -0.08496 0.41756
 C1900 C 0.46299 -0.09902 0.43025
 H1901 H 0.47507 -0.08553 0.50291
 H1902 H 0.46430 -0.11627 0.49351
 H1903 H 0.48059 -0.05047 0.44417
 H1904 H 0.45638 -0.11165 0.42524
 C1905 C 0.46446 0.41443 -0.01393
 C1906 C 0.45900 0.39640 -0.01894
 C1907 C 0.47077 0.38468 -0.02940
 C1908 C 0.48933 0.39087 -0.03312
 C1909 C 0.49507 0.40924 -0.02758
 C1910 C 0.48218 0.42143 -0.01855
 C1911 C 0.51384 0.41430 -0.03038
 N1912 N 0.52589 0.40206 -0.03832
 N1913 N 0.52062 0.38487 -0.04326
 C1914 C 0.50293 0.37878 -0.04069
 H1915 H 0.45438 0.42322 -0.00683
 H1916 H 0.44488 0.39214 -0.01560
 H1917 H 0.51942 0.42747 -0.02569
 H1918 H 0.50005 0.36426 -0.04380
 C1919 C 0.78705 0.32637 0.48016
 C1920 C 0.79372 0.34328 0.47301
 C1921 C 0.78153 0.35684 0.46592
 C1922 C 0.76206 0.35359 0.46701
 C1923 C 0.75525 0.33631 0.47448
 C1924 C 0.76798 0.32232 0.48053
 C1925 C 0.73589 0.33398 0.47628
 N1926 N 0.72421 0.34778 0.47057
 N1927 N 0.73058 0.36386 0.46341
 C1928 C 0.74907 0.36729 0.46155
 H1929 H 0.79697 0.31606 0.48487
 H1930 H 0.80864 0.34554 0.47251
 H1931 H 0.72989 0.32164 0.48270
 H1932 H 0.75335 0.38084 0.45621
 C1933 C 0.76733 0.84104 -0.00915
 C1934 C 0.77280 0.85935 -0.01343
 C1935 C 0.77880 0.86414 -0.03165
 C1936 C 0.77992 0.85009 -0.04575
 C1937 C 0.77450 0.83141 -0.04137
 C1938 C 0.76778 0.82700 -0.02298
 C1939 C 0.77677 0.81763 -0.05540
 N1940 N 0.78356 0.82237 -0.07267
 N1941 N 0.78847 0.83992 -0.07682
 C1942 C 0.78699 0.85390 -0.06396
 H1943 H 0.76257 0.83782 0.00504
 H1944 H 0.77220 0.86991 -0.00246
 H1945 H 0.77362 0.80309 -0.05275
 H1946 H 0.79166 0.86774 -0.06806
 C1947 C 0.77732 0.28816 0.42390
 C1948 C 0.78470 0.29574 0.40737
 C1949 C 0.79016 0.28416 0.39243
 C1950 C 0.78740 0.26449 0.39390
 C1951 C 0.77972 0.25675 0.41074
 C1952 C 0.77505 0.26873 0.42600
 C1953 C 0.77629 0.23733 0.41139
 N1954 N 0.78063 0.22641 0.39636
 N1955 N 0.78793 0.23363 0.38062
 C1956 C 0.79134 0.25227 0.37882
 H1957 H 0.77372 0.29756 0.43535
 H1958 H 0.78656 0.31081 0.40641
 H1959 H 0.76977 0.23077 0.42344
 H1960 H 0.79672 0.25732 0.36547
 C1961 C 0.76184 0.76977 -0.09414
 C1962 C 0.76793 0.77528 -0.11204
 C1963 C 0.78642 0.78084 -0.11505
 C1964 C 0.79888 0.78159 -0.09947
 C1965 C 0.79272 0.77581 -0.08127
 C1966 C 0.77408 0.76955 -0.07873
 C1967 C 0.80524 0.77738 -0.06602
 N1968 N 0.82268 0.78412 -0.06888
 N1969 N 0.82842 0.78963 -0.08592
 C1970 C 0.81711 0.78875 -0.10124
 H1971 H 0.74748 0.76542 -0.09234
 H1972 H 0.75818 0.77493 -0.12373
 H1973 H 0.80127 0.77380 -0.05177
 H1974 H 0.82242 0.79410 -0.11449
 C1975 C 0.29331 0.47175 0.82792
 C1976 C 0.29922 0.46552 0.84560
 C1977 C 0.28685 0.46468 0.86092
 C1978 C 0.26835 0.47121 0.85857
 C1979 C 0.26230 0.47737 0.84050
 C1980 C 0.27485 0.47723 0.82504
 C1981 C 0.24399 0.48406 0.83864
 N1982 N 0.23258 0.48453 0.85390
 N1983 N 0.23830 0.47895 0.87092
 C1984 C 0.25578 0.47244 0.87381
 H1985 H 0.30310 0.47182 0.81624
 H1986 H 0.31344 0.46076 0.84716
 H1987 H 0.23875 0.48928 0.82532
 H1988 H 0.25973 0.46876 0.88807
 C1989 C 0.28884 -0.02157 0.33298
 C1990 C 0.29293 -0.02580 0.35178
 C1991 C 0.27870 -0.02828 0.36509
 C1992 C 0.25994 -0.02561 0.35949
 C1993 C 0.25576 -0.02101 0.34037
 C1994 C 0.27038 -0.01954 0.32691
 C1995 C 0.23711 -0.01731 0.33561
 N1996 N 0.22361 -0.01869 0.34895
 N1997 N 0.22749 -0.02327 0.36678
 C1998 C 0.24516 -0.02667 0.37253
 H1999 H 0.30022 -0.02020 0.32299
 H2000 H 0.30735 -0.02767 0.35584
 H2001 H 0.23313 -0.01288 0.32158
 H2002 H 0.24748 -0.02979 0.38731
 C2003 C -0.01485 -0.03009 -0.08635
 C2004 C -0.02037 -0.03678 -0.10397
 C2005 C -0.03881 -0.03499 -0.11026
 C2006 C -0.05228 -0.02778 -0.09740
 C2007 C -0.04655 -0.02005 -0.07971
 C2008 C -0.02741 -0.02122 -0.07410
 C2009 C -0.06052 -0.01230 -0.06806
 N2010 N -0.07869 -0.01346 -0.07305
 N2011 N -0.08406 -0.02202 -0.08879
 C2012 C -0.07157 -0.02947 -0.10091
 H2013 H -0.00032 -0.03147 -0.08249
 H2014 H -0.00974 -0.04256 -0.11309
 H2015 H -0.05771 -0.00583 -0.05475
 H2016 H -0.07699 -0.03734 -0.11270
 C2017 C -0.04478 0.48360 0.41977
 C2018 C -0.05107 0.47723 0.40231
 C2019 C -0.03853 0.47122 0.38831
 C2020 C -0.01911 0.47413 0.39139
 C2021 C -0.01275 0.48067 0.40927
 C2022 C -0.02574 0.48440 0.42390
 C2023 C 0.00639 0.48431 0.41156
 N2024 N 0.01833 0.48153 0.39701
 N2025 N 0.01239 0.47577 0.38018
 C2026 C -0.00585 0.47227 0.37678
 H2027 H -0.05497 0.48711 0.43047
 H2028 H -0.06596 0.47576 0.40041
 H2029 H 0.01192 0.49014 0.42443
 H2030 H -0.00978 0.46900 0.36244
 C2031 C 0.49055 -0.01449 0.40859
 C2032 C 0.48649 -0.01917 0.38991
 C2033 C 0.46865 -0.02525 0.38482
 C2034 C 0.45469 -0.02713 0.39884
 C2035 C 0.45889 -0.02263 0.41789
 C2036 C 0.47690 -0.01588 0.42268
 C2037 C 0.44515 -0.02597 0.43167
 N2038 N 0.42821 -0.03273 0.42658
 N2039 N 0.42415 -0.03659 0.40864
 C2040 C 0.43680 -0.03411 0.39462
 H2041 H 0.50447 -0.00971 0.41208
 H2042 H 0.49736 -0.01805 0.37933
 H2043 H 0.44786 -0.02380 0.44646
 H2044 H 0.43281 -0.03788 0.38038
 C2045 C 0.48373 0.47181 -0.08759
 C2046 C 0.47907 0.46585 -0.10573
 C2047 C 0.46062 0.46603 -0.11199
 C2048 C 0.44641 0.47179 -0.09935
 C2049 C 0.45112 0.47849 -0.08096
 C2050 C 0.47017 0.47841 -0.07495
 C2051 C 0.43635 0.48431 -0.06919
 N2052 N 0.41847 0.48293 -0.07513
 N2053 N 0.41414 0.47606 -0.09203
 C2054 C 0.42744 0.47032 -0.10424
 H2055 H 0.49828 0.47153 -0.08354
 H2056 H 0.49010 0.46132 -0.11510
 H2057 H 0.43839 0.48940 -0.05511
 H2058 H 0.42291 0.46423 -0.11742
 C2059 C 0.48902 0.77362 0.33893
 C2060 C 0.48322 0.77911 0.35689
 C2061 C 0.46464 0.78391 0.36031
 C2062 C 0.45173 0.78379 0.34510
 C2063 C 0.45764 0.77814 0.32681
 C2064 C 0.47641 0.77273 0.32384
 C2065 C 0.44468 0.77892 0.31191
 N2066 N 0.42704 0.78475 0.31517
 N2067 N 0.42151 0.79011 0.33228
 C2068 C 0.43325 0.78997 0.34730
 H2069 H 0.50348 0.76992 0.33681
 H2070 H 0.49329 0.77940 0.36829
 H2071 H 0.44843 0.77535 0.29764
 H2072 H 0.42805 0.79511 0.36063
 C2073 C -0.03757 0.77095 0.83077
 C2074 C -0.04505 0.77776 0.84753
 C2075 C -0.03349 0.78296 0.86256
 C2076 C -0.01401 0.78023 0.86105
 C2077 C -0.00637 0.77305 0.84402
 C2078 C -0.01828 0.76894 0.82854
 C2079 C 0.01288 0.76966 0.84334
 N2080 N 0.02373 0.77362 0.85852
 N2081 N 0.01661 0.78054 0.87441
 C2082 C -0.00186 0.78387 0.87625
 H2083 H -0.04695 0.76792 0.81915
 H2084 H -0.05998 0.77963 0.84850
 H2085 H 0.01937 0.76339 0.83117
 H2086 H -0.00686 0.78894 0.88970
 C2087 C 0.41201 0.75989 0.26246
 C2088 C 0.39363 0.76403 0.26709
 C2089 C 0.38839 0.78232 0.27176
 C2090 C 0.40206 0.79672 0.27223
 C2091 C 0.42083 0.79250 0.26767
 C2092 C 0.42573 0.77391 0.26243
 C2093 C 0.43422 0.80689 0.26951
 N2094 N 0.42902 0.82429 0.27503
 N2095 N 0.41139 0.82827 0.27908
 C2096 C 0.39778 0.81511 0.27797
 H2097 H 0.41557 0.74557 0.25887
 H2098 H 0.38338 0.75283 0.26707
 H2099 H 0.44882 0.80447 0.26710
 H2100 H 0.38383 0.81913 0.28191
 C2101 C -0.08537 0.75923 0.76813
 C2102 C -0.10357 0.76413 0.77281
 C2103 C -0.10796 0.78255 0.77797
 C2104 C -0.09360 0.79619 0.77910
 C2105 C -0.07507 0.79118 0.77444
 C2106 C -0.07103 0.77260 0.76852
 C2107 C -0.06103 0.80481 0.77669
 N2108 N -0.06534 0.82227 0.78275
 N2109 N -0.08273 0.82700 0.78702
 C2110 C -0.09697 0.81457 0.78553
 H2111 H -0.08248 0.74490 0.76401
 H2112 H -0.11437 0.75349 0.77226
 H2113 H -0.04663 0.80167 0.77413
 H2114 H -0.11065 0.81914 0.78975
 C2115 C 0.83083 0.28624 0.48634
 C2116 C 0.84834 0.29236 0.48045
 C2117 C 0.86212 0.27953 0.47526
 C2118 C 0.85857 0.26005 0.47762
 C2119 C 0.84069 0.25383 0.48368
 C2120 C 0.82638 0.26711 0.48712
 C2121 C 0.83800 0.23451 0.48683
 N2122 N 0.85206 0.22230 0.48362
 N2123 N 0.86873 0.22810 0.47777
 C2124 C 0.87251 0.24652 0.47480
 H2125 H 0.82045 0.29661 0.48963
 H2126 H 0.85087 0.30731 0.47921
 H2127 H 0.82513 0.22901 0.49244
 H2128 H 0.88652 0.25036 0.47080
 C2129 C 0.82807 0.79002 -0.01938
 C2130 C 0.84528 0.79632 -0.02586
 C2131 C 0.85976 0.78370 -0.02932
 C2132 C 0.85718 0.76443 -0.02499
 C2133 C 0.83967 0.75803 -0.01816
 C2134 C 0.82482 0.77090 -0.01600
 C2135 C 0.83783 0.73902 -0.01316
 N2136 N 0.85241 0.72719 -0.01528
 N2137 N 0.86877 0.73314 -0.02186
 C2138 C 0.87169 0.75134 -0.02667
 H2139 H 0.81692 0.80011 -0.01781
 H2140 H 0.84707 0.81113 -0.02892
 H2141 H 0.82518 0.73355 -0.00704
 H2142 H 0.88544 0.75540 -0.03136
 C2143 C -0.09102 -0.01652 -0.00848
 C2144 C -0.10873 -0.02228 -0.01410
 C2145 C -0.11094 -0.03587 -0.02819
 C2146 C -0.09506 -0.04425 -0.03643
 C2147 C -0.07708 -0.03850 -0.03062
 C2148 C -0.07516 -0.02439 -0.01671
 C2149 C -0.06154 -0.04687 -0.03923
 N2150 N -0.06399 -0.06020 -0.05267
 N2151 N -0.08091 -0.06572 -0.05803
 C2152 C -0.09651 -0.05823 -0.05039
 H2153 H -0.08965 -0.00569 0.00216
 H2154 H -0.12081 -0.01579 -0.00774
 H2155 H -0.04748 -0.04285 -0.03551
 H2156 H -0.10988 -0.06333 -0.05523
 C2157 C -0.09437 0.48468 0.48855
 C2158 C -0.11146 0.47757 0.48245
 C2159 C -0.11228 0.46374 0.46843
 C2160 C -0.09563 0.45712 0.46013
 C2161 C -0.07830 0.46455 0.46612
 C2162 C -0.07776 0.47830 0.48055
 C2163 C -0.06200 0.45791 0.45743
 N2164 N -0.06309 0.44465 0.44375
 N2165 N -0.07938 0.43766 0.43812
 C2166 C -0.09567 0.44346 0.44579
 H2167 H -0.09408 0.49525 0.49953
 H2168 H -0.12414 0.48276 0.48882
 H2169 H -0.04841 0.46311 0.46138
 H2170 H -0.10848 0.43739 0.44053
 C2171 C 0.40839 -0.00968 0.47210
 C2172 C 0.39072 -0.01496 0.46587
 C2173 C 0.38549 -0.03394 0.46489
 C2174 C 0.39932 -0.04788 0.46806
 C2175 C 0.41750 -0.04242 0.47391
 C2176 C 0.42176 -0.02314 0.47694
 C2177 C 0.43117 -0.05642 0.47532
 N2178 N 0.42698 -0.07454 0.47148
 N2179 N 0.41005 -0.07966 0.46590
 C2180 C 0.39620 -0.06699 0.46382
 H2181 H 0.41150 0.00513 0.47355
 H2182 H 0.38069 -0.00401 0.46299
 H2183 H 0.44533 -0.05311 0.47857
 H2184 H 0.38324 -0.07199 0.45799
 C2185 C 0.40724 0.47078 -0.00691
 C2186 C 0.39046 0.46331 -0.01336
 C2187 C 0.38964 0.45298 -0.03028
 C2188 C 0.40659 0.44811 -0.03949
 C2189 C 0.42368 0.45526 -0.03249
 C2190 C 0.42373 0.46744 -0.01674
 C2191 C 0.44035 0.44970 -0.04129
 N2192 N 0.43987 0.43762 -0.05605
 N2193 N 0.42389 0.43058 -0.06243
 C2194 C 0.40731 0.43526 -0.05462
 H2195 H 0.40726 0.47967 0.00550
 H2196 H 0.37786 0.46690 -0.00577
 H2197 H 0.45375 0.45475 -0.03652
 H2198 H 0.39502 0.42828 -0.05987
 C2199 C 0.33244 0.46698 0.77637
 C2200 C 0.35048 0.46147 0.78084
 C2201 C 0.36566 0.47339 0.77736
 C2202 C 0.36251 0.49127 0.76912
 C2203 C 0.34410 0.49674 0.76430
 C2204 C 0.32904 0.48433 0.76779
 C2205 C 0.34143 0.51437 0.75580
 N2206 N 0.35626 0.52573 0.75241
 N2207 N 0.37353 0.52058 0.75683
 C2208 C 0.37717 0.50375 0.76499
 H2209 H 0.32097 0.45767 0.77979
 H2210 H 0.35258 0.44786 0.78734
 H2211 H 0.32774 0.51920 0.75176
 H2212 H 0.39149 0.50025 0.76800
 C2213 C 0.33504 -0.03059 0.27984
 C2214 C 0.35302 -0.03592 0.28458
 C2215 C 0.36841 -0.02562 0.27810
 C2216 C 0.36558 -0.00957 0.26658
 C2217 C 0.34721 -0.00433 0.26154
 C2218 C 0.33196 -0.01511 0.26812
 C2219 C 0.34473 0.01146 0.24987
 N2220 N 0.35976 0.02126 0.24365
 N2221 N 0.37704 0.01626 0.24824
 C2222 C 0.38047 0.00117 0.25943
 H2223 H 0.32341 -0.03871 0.28527
 H2224 H 0.35494 -0.04815 0.29350
 H2225 H 0.33101 0.01605 0.24563
 H2226 H 0.39478 -0.00234 0.26248
 C2227 C 0.17044 0.53381 0.72715
 C2228 C 0.15274 0.53975 0.72199
 C2229 C 0.13773 0.52717 0.72174
 C2230 C 0.14065 0.50822 0.72716
 C2231 C 0.15871 0.50226 0.73271
 C2232 C 0.17367 0.51526 0.73270
 C2233 C 0.16106 0.48354 0.73850
 N2234 N 0.14631 0.47161 0.73858
 N2235 N 0.12938 0.47718 0.73340
 C2236 C 0.12603 0.49506 0.72778
 H2237 H 0.18187 0.54369 0.72631
 H2238 H 0.15086 0.55422 0.71768
 H2239 H 0.17440 0.47834 0.74317
 H2240 H 0.11193 0.49884 0.72411
 C2241 C 0.17490 0.03754 0.22686
 C2242 C 0.15758 0.04394 0.22107
 C2243 C 0.14344 0.03133 0.21609
 C2244 C 0.14664 0.01176 0.21770
 C2245 C 0.16433 0.00521 0.22375
 C2246 C 0.17866 0.01829 0.22798
 C2247 C 0.16677 -0.01424 0.22604
 N2248 N 0.15258 -0.02622 0.22218
 N2249 N 0.13605 -0.02009 0.21643
 C2250 C 0.13255 -0.00154 0.21417
 H2251 H 0.18563 0.04777 0.23012
 H2252 H 0.15535 0.05894 0.22001
 H2253 H 0.17960 -0.02004 0.23129
 H2254 H 0.11868 0.00256 0.21004
 C2255 C 0.58609 0.73307 0.21591
 C2256 C 0.60402 0.72781 0.21097
 C2257 C 0.61759 0.72493 0.22485
 C2258 C 0.61308 0.72805 0.24412
 C2259 C 0.59481 0.73378 0.24912
 C2260 C 0.58113 0.73598 0.23481
 C2261 C 0.59107 0.73765 0.26823
 N2262 N 0.60460 0.73550 0.28142
 N2263 N 0.62167 0.72994 0.27677
 C2264 C 0.62640 0.72625 0.25859
 H2265 H 0.57574 0.73415 0.20491
 H2266 H 0.60713 0.72534 0.19618
 H2267 H 0.57770 0.74275 0.27280
 H2268 H 0.64060 0.72225 0.25563
 C2269 C 0.08810 0.71406 0.73553
 C2270 C 0.10586 0.70877 0.72982
 C2271 C 0.11941 0.72230 0.72558
 C2272 C 0.11538 0.74152 0.72839
 C2273 C 0.09740 0.74690 0.73464
 C2274 C 0.08338 0.73304 0.73734
 C2275 C 0.09433 0.76596 0.73860
 N2276 N 0.10807 0.77875 0.73571
 N2277 N 0.12477 0.77375 0.72938
 C2278 C 0.12893 0.75559 0.72572
 H2279 H 0.07775 0.70323 0.73785
 H2280 H 0.10881 0.69400 0.72794
 H2281 H 0.08142 0.77077 0.74458
 H2282 H 0.14290 0.75233 0.72115
 C2283 C 0.65838 0.23490 0.51721
 C2284 C 0.64044 0.22997 0.52283
 C2285 C 0.63568 0.21125 0.52654
 C2286 C 0.64947 0.19717 0.52478
 C2287 C 0.66783 0.20218 0.51909
 C2288 C 0.67223 0.22128 0.51513
 C2289 C 0.68140 0.18797 0.51869
 N2290 N 0.67679 0.17007 0.52327
 N2291 N 0.65960 0.16539 0.52849
 C2292 C 0.64585 0.17830 0.52953
 H2293 H 0.66154 0.24956 0.51460
 H2294 H 0.63015 0.24093 0.52439
 H2295 H 0.69572 0.19085 0.51529
 H2296 H 0.63237 0.17366 0.53445
 C2297 C 0.65580 0.73536 0.00670
 C2298 C 0.63809 0.72958 0.01240
 C2299 C 0.63584 0.71447 0.02492
 C2300 C 0.65173 0.70520 0.03215
 C2301 C 0.66971 0.71112 0.02641
 C2302 C 0.67166 0.72617 0.01343
 C2303 C 0.68526 0.70217 0.03445
 N2304 N 0.68282 0.68815 0.04723
 N2305 N 0.66591 0.68251 0.05254
 C2306 C 0.65030 0.69055 0.04547
 H2307 H 0.65716 0.74713 -0.00295
 H2308 H 0.62603 0.73693 0.00700
 H2309 H 0.69931 0.70635 0.03088
 H2310 H 0.63696 0.68557 0.05054
 C2311 C 0.08942 0.01205 0.02039
 C2312 C 0.10736 0.01705 0.02600
 C2313 C 0.11216 0.03586 0.02890
 C2314 C 0.09849 0.04993 0.02640
 C2315 C 0.08009 0.04485 0.02100
 C2316 C 0.07563 0.02567 0.01764
 C2317 C 0.06662 0.05914 0.02004
 N2318 N 0.07146 0.07719 0.02356
 N2319 N 0.08879 0.08197 0.02823
 C2320 C 0.10243 0.06898 0.02985
 H2321 H 0.08625 -0.00266 0.01821
 H2322 H 0.11763 0.00614 0.02807
 H2323 H 0.05223 0.05622 0.01693
 H2324 H 0.11612 0.07367 0.03408
 C2325 C 0.08626 0.51065 0.52303
 C2326 C 0.10414 0.51538 0.52905
 C2327 C 0.11043 0.53396 0.52843
 C2328 C 0.09818 0.54820 0.52203
 C2329 C 0.08024 0.54335 0.51491
 C2330 C 0.07405 0.52423 0.51575
 C2331 C 0.06908 0.55811 0.50792
 N2332 N 0.07507 0.57612 0.50881
 N2333 N 0.09137 0.58063 0.51644
 C2334 C 0.10298 0.56736 0.52327
 H2335 H 0.08196 0.49609 0.52398
 H2336 H 0.11321 0.50437 0.53416
 H2337 H 0.05553 0.55601 0.50200
 H2338 H 0.11559 0.57210 0.53004
 C2339 C 0.58519 0.01003 0.52331
 C2340 C 0.60328 0.01490 0.52848
 C2341 C 0.60795 0.03351 0.53266
 C2342 C 0.59393 0.04745 0.53232
 C2343 C 0.57546 0.04247 0.52719
 C2344 C 0.57122 0.02362 0.52224
 C2345 C 0.56169 0.05643 0.52800
 N2346 N 0.56623 0.07416 0.53318
 N2347 N 0.58357 0.07886 0.53786
 C2348 C 0.59753 0.06612 0.53772
 H2349 H 0.58212 -0.00447 0.51988
 H2350 H 0.61380 0.00405 0.52900
 H2351 H 0.54731 0.05338 0.52502
 H2352 H 0.61117 0.07071 0.54220
 C2353 C 0.58472 0.51608 0.01767
 C2354 C 0.60223 0.52174 0.02383
 C2355 C 0.60587 0.54055 0.02802
 C2356 C 0.59151 0.55401 0.02605
 C2357 C 0.57353 0.54821 0.01999
 C2358 C 0.57021 0.52901 0.01566
 C2359 C 0.55931 0.56175 0.01945
 N2360 N 0.56302 0.57981 0.02415
 N2361 N 0.57991 0.58524 0.02963
 C2362 C 0.59423 0.57298 0.03085
 H2363 H 0.58238 0.50134 0.01472
 H2364 H 0.61304 0.51130 0.02543
 H2365 H 0.54522 0.55823 0.01567
 H2366 H 0.60748 0.57817 0.03585
 C2367 C 0.02311 0.03890 0.08212
 C2368 C 0.02954 0.04494 0.09961
 C2369 C 0.03490 0.03203 0.11350
 C2370 C 0.03286 0.01256 0.10999
 C2371 C 0.02606 0.00638 0.09218
 C2372 C 0.02167 0.01974 0.07795
 C2373 C 0.02324 -0.01297 0.08954
 N2374 N 0.02744 -0.02524 0.10359
 N2375 N 0.03402 -0.01946 0.12019
 C2376 C 0.03677 -0.00101 0.12392
 H2377 H 0.01973 0.04934 0.07153
 H2378 H 0.03091 0.05988 0.10209
 H2379 H 0.01729 -0.01846 0.07671
 H2380 H 0.04160 0.00282 0.13786
 C2381 C 0.00990 0.52254 0.59212
 C2382 C 0.01614 0.52764 0.61007
 C2383 C 0.03463 0.53322 0.61298
 C2384 C 0.04695 0.53442 0.59735
 C2385 C 0.04056 0.52938 0.57906
 C2386 C 0.02199 0.52297 0.57659
 C2387 C 0.05283 0.53166 0.56369
 N2388 N 0.07036 0.53816 0.56655
 N2389 N 0.07640 0.54275 0.58373
 C2390 C 0.06531 0.54122 0.59918
 H2391 H -0.00441 0.51801 0.59036
 H2392 H 0.00649 0.52702 0.62185
 H2393 H 0.04856 0.52876 0.54940
 H2394 H 0.07090 0.54566 0.61262
 C2395 C 0.53376 0.01546 0.58418
 C2396 C 0.54071 0.02138 0.60151
 C2397 C 0.52906 0.02937 0.61522
 C2398 C 0.50946 0.02932 0.61189
 C2399 C 0.50232 0.02292 0.59419
 C2400 C 0.51475 0.01669 0.57988
 C2401 C 0.48287 0.02207 0.59186
 N2402 N 0.47141 0.02734 0.60608
 N2403 N 0.47802 0.03301 0.62268
 C2404 C 0.49654 0.03391 0.62617
 H2405 H 0.54362 0.01058 0.57370
 H2406 H 0.55565 0.02087 0.60354
 H2407 H 0.47653 0.01653 0.57926
 H2408 H 0.50080 0.03734 0.64037
 C2409 C 0.52201 0.53830 0.08122
 C2410 C 0.52790 0.54408 0.09903
 C2411 C 0.53020 0.53112 0.11377
 C2412 C 0.52581 0.51194 0.11057
 C2413 C 0.51978 0.50608 0.09236
 C2414 C 0.51816 0.51940 0.07754
 C2415 C 0.51493 0.48713 0.08981
 N2416 N 0.51623 0.47490 0.10447
 N2417 N 0.52184 0.48037 0.12154
 C2418 C 0.52656 0.49845 0.12513
 H2419 H 0.52086 0.54864 0.07006
 H2420 H 0.53111 0.55878 0.10118
 H2421 H 0.50977 0.48200 0.07645
 H2422 H 0.53046 0.50209 0.13941
 C2423 C 0.22486 0.51123 0.65991
 C2424 C 0.21833 0.51700 0.64226
 C2425 C 0.21251 0.53550 0.63929
 C2426 C 0.21244 0.54825 0.65465
 C2427 C 0.21888 0.54233 0.67267
 C2428 C 0.22568 0.52379 0.67510
 C2429 C 0.21759 0.55502 0.68784
 N2430 N 0.21081 0.57251 0.68498
 N2431 N 0.20499 0.57813 0.66802
 C2432 C 0.20548 0.56661 0.65280
 H2433 H 0.22961 0.49692 0.66166
 H2434 H 0.21821 0.50706 0.63069
 H2435 H 0.22149 0.55112 0.70202
 H2436 H 0.20008 0.57183 0.63954
 C2437 C 0.22525 0.01412 0.16050
 C2438 C 0.21835 0.01974 0.14295
 C2439 C 0.21908 0.03852 0.13725
 C2440 C 0.22649 0.05209 0.14987
 C2441 C 0.23412 0.04638 0.16761
 C2442 C 0.23336 0.02702 0.17310
 C2443 C 0.24158 0.06056 0.17933
 N2444 N 0.24097 0.07880 0.17397
 N2445 N 0.23322 0.08408 0.15776
 C2446 C 0.22581 0.07143 0.14566
 H2447 H 0.22437 -0.00062 0.16419
 H2448 H 0.21256 0.00920 0.13359
 H2449 H 0.24759 0.05778 0.19288
 H2450 H 0.21908 0.07677 0.13313
 C2451 C 0.73524 0.22504 0.59157
 C2452 C 0.72920 0.21949 0.60951
 C2453 C 0.71138 0.21182 0.61219
 C2454 C 0.69968 0.20897 0.59625
 C2455 C 0.70576 0.21485 0.57805
 C2456 C 0.72359 0.22320 0.57581
 C2457 C 0.69401 0.21150 0.56250
 N2458 N 0.67737 0.20284 0.56503
 N2459 N 0.67177 0.19708 0.58202
 C2460 C 0.68238 0.19969 0.59765
 H2461 H 0.74902 0.23109 0.59002
 H2462 H 0.73843 0.22145 0.62147
 H2463 H 0.69800 0.21535 0.54832
 H2464 H 0.67729 0.19405 0.61086
 C2465 C 0.73144 0.72392 0.08479
 C2466 C 0.72607 0.71767 0.10261
 C2467 C 0.70736 0.71763 0.10806
 C2468 C 0.69366 0.72374 0.09497
 C2469 C 0.69914 0.73062 0.07684
 C2470 C 0.71836 0.73056 0.07166
 C2471 C 0.68497 0.73659 0.06443
 N2472 N 0.66685 0.73535 0.06961
 N2473 N 0.66178 0.72843 0.08633
 C2474 C 0.67451 0.72247 0.09910
 H2475 H 0.74613 0.72371 0.08130
 H2476 H 0.73673 0.71299 0.11237
 H2477 H 0.68782 0.74184 0.05051
 H2478 H 0.66942 0.71643 0.11212
 C2479 C 0.51818 0.72755 0.16046
 C2480 C 0.52352 0.72038 0.14307
 C2481 C 0.54172 0.72249 0.13645
 C2482 C 0.55486 0.73236 0.14771
 C2483 C 0.54918 0.74081 0.16508
 C2484 C 0.53068 0.73754 0.17201
 C2485 C 0.56254 0.75175 0.17477
 N2486 N 0.58030 0.75284 0.16840
 N2487 N 0.58581 0.74379 0.15300
 C2488 C 0.57378 0.73349 0.14256
 H2489 H 0.50394 0.72511 0.16492
 H2490 H 0.51321 0.71300 0.13469
 H2491 H 0.55955 0.75954 0.18734
 H2492 H 0.57932 0.72599 0.13062
 C2493 C 0.01905 0.72831 0.66187
 C2494 C 0.02465 0.72218 0.64406
 C2495 C 0.04324 0.71750 0.64048
 C2496 C 0.05638 0.71847 0.65546
 C2497 C 0.05065 0.72466 0.67366
 C2498 C 0.03185 0.72994 0.67674
 C2499 C 0.06382 0.72451 0.68839
 N2500 N 0.08152 0.71891 0.68502
 N2501 N 0.08690 0.71318 0.66799
 C2502 C 0.07495 0.71263 0.65315
 H2503 H 0.00458 0.73195 0.66404
 H2504 H 0.01437 0.72131 0.63287
 H2505 H 0.06017 0.72836 0.70261
 H2506 H 0.08004 0.70724 0.63988
 C2507 C 0.51373 0.66555 0.22300
 C2508 C 0.51930 0.64776 0.21718
 C2509 C 0.53797 0.64408 0.21289
 C2510 C 0.55118 0.65893 0.21361
 C2511 C 0.54550 0.67702 0.21955
 C2512 C 0.52669 0.68019 0.22470
 C2513 C 0.55875 0.69159 0.21940
 N2514 N 0.57650 0.68817 0.21395
 N2515 N 0.58184 0.67122 0.20836
 C2516 C 0.56980 0.65655 0.20785
 H2517 H 0.49924 0.66785 0.22652
 H2518 H 0.50900 0.63664 0.21642
 H2519 H 0.55509 0.70574 0.22314
 H2520 H 0.57486 0.64334 0.20253
 C2521 C 0.04353 0.67041 0.72904
 C2522 C 0.04891 0.65243 0.72377
 C2523 C 0.03569 0.63813 0.72141
 C2524 C 0.01668 0.64189 0.72532
 C2525 C 0.01121 0.66024 0.73075
 C2526 C 0.02479 0.67469 0.73219
 C2527 C -0.00763 0.66331 0.73519
 N2528 N -0.02009 0.64903 0.73401
 N2529 N -0.01497 0.63185 0.72892
 C2530 C 0.00296 0.62776 0.72467
 H2531 H 0.05408 0.68122 0.73019
 H2532 H 0.06349 0.64980 0.72098
 H2533 H -0.01256 0.67677 0.73998
 H2534 H 0.00629 0.61341 0.72124
 C2535 C 0.01538 0.08401 0.03849
 C2536 C 0.02128 0.10162 0.04445
 C2537 C 0.02654 0.11535 0.03132
 C2538 C 0.02458 0.11168 0.01172
 C2539 C 0.01821 0.09380 0.00562
 C2540 C 0.01437 0.07956 0.01919
 C2541 C 0.01532 0.09109 -0.01386
 N2542 N 0.01919 0.10506 -0.02632
 N2543 N 0.02552 0.12168 -0.02062
 C2544 C 0.02824 0.12551 -0.00205
 H2545 H 0.01225 0.07352 0.04914
 H2546 H 0.02254 0.10427 0.05949
 H2547 H 0.00943 0.07829 -0.01929
 H2548 H 0.03282 0.13946 0.00173
 C2549 C 0.03342 0.58176 0.52938
 C2550 C 0.03965 0.59933 0.53511
 C2551 C 0.02842 0.61520 0.53293
 C2552 C 0.01051 0.61325 0.52472
 C2553 C 0.00432 0.59533 0.51856
 C2554 C 0.01607 0.57958 0.52073
 C2555 C -0.01333 0.59385 0.51013
 N2556 N -0.02405 0.60934 0.50807
 N2557 N -0.01824 0.62617 0.51377
 C2558 C -0.00132 0.62868 0.52194
 H2559 H 0.04212 0.56966 0.53201
 H2560 H 0.05330 0.60053 0.54154
 H2561 H -0.01865 0.58057 0.50505
 H2562 H 0.00272 0.64271 0.52605
 C2563 C 0.51392 0.09175 0.51228
 C2564 C 0.52036 0.10951 0.51733
 C2565 C 0.52627 0.11324 0.53583
 C2566 C 0.52616 0.09854 0.54943
 C2567 C 0.51951 0.08045 0.54431
 C2568 C 0.51313 0.07716 0.52558
 C2569 C 0.52041 0.06602 0.55792
 N2570 N 0.52730 0.06953 0.57541
 N2571 N 0.53358 0.08645 0.58018
 C2572 C 0.53337 0.10100 0.56780
 H2573 H 0.50956 0.08935 0.49781
 H2574 H 0.52059 0.12052 0.50672
 H2575 H 0.51610 0.05189 0.55480
 H2576 H 0.53926 0.11418 0.57238
 C2577 C 0.51144 0.58243 0.03904
 C2578 C 0.51876 0.59960 0.04474
 C2579 C 0.52271 0.61373 0.03152
 C2580 C 0.51772 0.61096 0.01229
 C2581 C 0.51026 0.59341 0.00648
 C2582 C 0.50789 0.57875 0.01991
 C2583 C 0.50485 0.59134 -0.01252
 N2584 N 0.50706 0.60576 -0.02487
 N2585 N 0.51409 0.62219 -0.01945
 C2586 C 0.51936 0.62534 -0.00131
 H2587 H 0.50942 0.57158 0.04957
 H2588 H 0.52215 0.60154 0.05955
 H2589 H 0.49832 0.57866 -0.01754
 H2590 H 0.52430 0.63919 0.00231
 C2591 C 0.72683 0.16321 0.53645
 C2592 C 0.72065 0.14548 0.54182
 C2593 C 0.71922 0.13096 0.52859
 C2594 C 0.72487 0.13423 0.50963
 C2595 C 0.73134 0.15230 0.50419
 C2596 C 0.73191 0.16698 0.51768
 C2597 C 0.73769 0.15485 0.48554
 N2598 N 0.73720 0.14039 0.47314
 N2599 N 0.73101 0.12347 0.47820
 C2600 C 0.72495 0.11986 0.49601
 H2601 H 0.72715 0.17426 0.54696
 H2602 H 0.71652 0.14319 0.55640
 H2603 H 0.74350 0.16802 0.48083
 H2604 H 0.72063 0.10572 0.49937
 C2605 C 0.71023 0.66701 0.01432
 C2606 C 0.70457 0.64934 0.02045
 C2607 C 0.71749 0.63640 0.02744
 C2608 C 0.73672 0.64098 0.02698
 C2609 C 0.74248 0.65907 0.02078
 C2610 C 0.72895 0.67250 0.01528
 C2611 C 0.76167 0.66275 0.01940
 N2612 N 0.77417 0.64944 0.02442
 N2613 N 0.76878 0.63256 0.03043
 C2614 C 0.75054 0.62782 0.03172
 H2615 H 0.69974 0.67669 0.00932
 H2616 H 0.68985 0.64599 0.02026
 H2617 H 0.76690 0.67575 0.01370
 H2618 H 0.74714 0.61365 0.03591
 C2619 C 0.23899 0.58894 0.72733
 C2620 C 0.23362 0.60647 0.72070
 C2621 C 0.21527 0.61258 0.72254
 C2622 C 0.20196 0.60065 0.73136
 C2623 C 0.20753 0.58296 0.73893
 C2624 C 0.22631 0.57674 0.73629
 C2625 C 0.19376 0.57213 0.74825
 N2626 N 0.17591 0.57812 0.74902
 N2627 N 0.17064 0.59413 0.74105
 C2628 C 0.18297 0.60548 0.73213
 H2629 H 0.25333 0.58481 0.72520
 H2630 H 0.24396 0.61536 0.71396
 H2631 H 0.19649 0.55892 0.75492
 H2632 H 0.17761 0.61792 0.72540
 C2633 C 0.21903 0.07804 0.21641
 C2634 C 0.21328 0.09575 0.21059
 C2635 C 0.21794 0.11169 0.22111
 C2636 C 0.22865 0.10977 0.23784
 C2637 C 0.23477 0.09174 0.24356
 C2638 C 0.22999 0.07588 0.23260
 C2639 C 0.24571 0.09024 0.25998
 N2640 N 0.25015 0.10585 0.26997
 N2641 N 0.24446 0.12280 0.26457
 C2642 C 0.23393 0.12532 0.24884
 H2643 H 0.21498 0.06591 0.20814
 H2644 H 0.20497 0.09700 0.19785
 H2645 H 0.25082 0.07684 0.26491
 H2646 H 0.22994 0.13943 0.24503
 C2647 C 0.73987 1.08721 0.72724
 C2648 C 0.73438 1.10542 0.72263
 C2649 C 0.71554 1.10985 0.72016
 C2650 C 0.70199 1.09537 0.72154
 C2651 C 0.70759 1.07680 0.72607
 C2652 C 0.72669 1.07283 0.72943
 C2653 C 0.69390 1.06262 0.72629
 N2654 N 0.67587 1.06685 0.72266
 N2655 N 0.67061 1.08426 0.71856
 C2656 C 0.68302 1.09861 0.71774
 H2657 H 0.75452 1.08438 0.72941
 H2658 H 0.74493 1.11625 0.72127
 H2659 H 0.69737 1.04817 0.72881
 H2660 H 0.67792 1.11228 0.71374
 C2661 C 0.72508 0.58139 0.21051
 C2662 C 0.71961 0.59928 0.20496
 C2663 C 0.71870 0.61392 0.21808
 C2664 C 0.72428 0.61065 0.23706
 C2665 C 0.73000 0.59243 0.24268
 C2666 C 0.72991 0.57760 0.22934
 C2667 C 0.73632 0.58987 0.26133
 N2668 N 0.73650 0.60447 0.27357
 N2669 N 0.73101 0.62153 0.26835
 C2670 C 0.72504 0.62516 0.25052
 H2671 H 0.72513 0.57028 0.20007
 H2672 H 0.71557 0.60159 0.19037
 H2673 H 0.74159 0.57657 0.26618
 H2674 H 0.72136 0.63942 0.24701
 C2675 C 0.53836 0.16576 0.73505
 C2676 C 0.54517 0.14859 0.72897
 C2677 C 0.53311 0.13438 0.72251
 C2678 C 0.51351 0.13712 0.72446
 C2679 C 0.50663 0.15478 0.73062
 C2680 C 0.51925 0.16938 0.73527
 C2681 C 0.48729 0.15694 0.73284
 N2682 N 0.47566 0.14235 0.72941
 N2683 N 0.48207 0.12564 0.72425
 C2684 C 0.50051 0.12246 0.72195
 H2685 H 0.54823 0.17668 0.73875
 H2686 H 0.56014 0.14708 0.72807
 H2687 H 0.48130 0.16984 0.73794
 H2688 H 0.50475 0.10826 0.71907
 C2689 C 1.04374 0.16945 0.23185
 C2690 C 1.04964 0.15189 0.22587
 C2691 C 1.03683 0.13737 0.22274
 C2692 C 1.01772 0.14038 0.22678
 C2693 C 1.01172 0.15832 0.23293
 C2694 C 1.02485 0.17309 0.23495
 C2695 C 0.99282 0.16065 0.23749
 N2696 N 0.98077 0.14608 0.23572
 N2697 N 0.98637 0.12928 0.22992
 C2698 C 1.00442 0.12589 0.22551
 H2699 H 1.05398 0.18051 0.23346
 H2700 H 1.06431 0.14984 0.22302
 H2701 H 0.98758 0.17374 0.24291
 H2702 H 1.00818 0.11180 0.22150
 C2703 C 0.21354 0.66519 0.51386
 C2704 C 0.20806 0.64720 0.51926
 C2705 C 0.22127 0.63346 0.52365
 C2706 C 0.24045 0.63769 0.52140
 C2707 C 0.24602 0.65598 0.51562
 C2708 C 0.23240 0.67006 0.51258
 C2709 C 0.26505 0.65931 0.51236
 N2710 N 0.27763 0.64548 0.51531
 N2711 N 0.27244 0.62844 0.52104
 C2712 C 0.25431 0.62403 0.52407
 H2713 H 0.20293 0.67557 0.51121
 H2714 H 0.19333 0.64418 0.52069
 H2715 H 0.27001 0.67253 0.50690
 H2716 H 0.25094 0.60980 0.52811
 C2717 C 0.23706 0.16379 1.02188
 C2718 C 0.23200 0.14586 1.02787
 C2719 C 0.21379 0.13920 1.02564
 C2720 C 0.20031 0.15114 1.01723
 C2721 C 0.20572 0.16900 1.00983
 C2722 C 0.22430 0.17572 1.01286
 C2723 C 0.19195 0.17960 1.00043
 N2724 N 0.17409 0.17346 0.99978
 N2725 N 0.16888 0.15746 1.00790
 C2726 C 0.18129 0.14622 1.01673
 H2727 H 0.25125 0.16838 1.02434
 H2728 H 0.24250 0.13708 1.03437
 H2729 H 0.19471 0.19282 0.99378
 H2730 H 0.17595 0.13388 1.02373
 C2731 C 0.23694 0.72151 0.58505
 C2732 C 0.23118 0.71547 0.60287
 C2733 C 0.21231 0.71237 0.60676
 C2734 C 0.19901 0.71468 0.59210
 C2735 C 0.20490 0.72076 0.57389
 C2736 C 0.22404 0.72459 0.57051
 C2737 C 0.19145 0.72200 0.55948
 N2738 N 0.17339 0.71782 0.56317
 N2739 N 0.16787 0.71219 0.58024
 C2740 C 0.18004 0.71035 0.59477
 H2741 H 0.25164 0.72406 0.58267
 H2742 H 0.24152 0.71354 0.61386
 H2743 H 0.19513 0.72581 0.54524
 H2744 H 0.17476 0.70512 0.60809
 C2745 C 0.23107 0.21886 1.08542
 C2746 C 0.22561 0.21199 1.10300
 C2747 C 0.20721 0.21364 1.10914
 C2748 C 0.19378 0.22168 1.09689
 C2749 C 0.19936 0.22922 1.07909
 C2750 C 0.21839 0.22781 1.07329
 C2751 C 0.18541 0.23726 1.06762
 N2752 N 0.16740 0.23725 1.07333
 N2753 N 0.16221 0.22968 1.08971
 C2754 C 0.17472 0.22180 1.10159
 H2755 H 0.24557 0.21749 1.08145
 H2756 H 0.23601 0.20571 1.11211
 H2757 H 0.18819 0.24309 1.05393
 H2758 H 0.16949 0.21532 1.11436
 C2759 C 0.70615 0.52091 0.16891
 C2760 C 0.69973 0.52704 0.15136
 C2761 C 0.71198 0.52924 0.13608
 C2762 C 0.73088 0.52397 0.13823
 C2763 C 0.73738 0.51762 0.15609
 C2764 C 0.72499 0.51672 0.17168
 C2765 C 0.75599 0.51179 0.15756
 N2766 N 0.76736 0.51261 0.14227
 N2767 N 0.76130 0.51867 0.12554
 C2768 C 0.74346 0.52426 0.12296
 H2769 H 0.69644 0.52012 0.18063
 H2770 H 0.68520 0.53079 0.14991
 H2771 H 0.76147 0.50610 0.17055
 H2772 H 0.73926 0.52844 0.10890
 C2773 C 0.71127 1.01581 0.66723
 C2774 C 0.70566 1.02061 0.64904
 C2775 C 0.71868 1.02251 0.63441
 C2776 C 0.73768 1.01851 0.63802
 C2777 C 0.74337 1.01350 0.65659
 C2778 C 0.73006 1.01269 0.67138
 C2779 C 0.76215 1.00883 0.65954
 N2780 N 0.77439 1.00951 0.64495
 N2781 N 0.76908 1.01433 0.62756
 C2782 C 0.75116 1.01874 0.62357
 H2783 H 0.70090 1.01510 0.67831
 H2784 H 0.69107 1.02352 0.64653
 H2785 H 0.76713 1.00418 0.67315
 H2786 H 0.74762 1.02197 0.60908
 C2787 C 0.52953 0.24114 0.66356
 C2788 C 0.53488 0.23632 0.64523
 C2789 C 0.53865 0.21764 0.64054
 C2790 C 0.53833 0.20372 0.65492
 C2791 C 0.53297 0.20862 0.67356
 C2792 C 0.52786 0.22739 0.67766
 C2793 C 0.53337 0.19460 0.68764
 N2794 N 0.53853 0.17688 0.68318
 N2795 N 0.54351 0.17227 0.66567
 C2796 C 0.54369 0.18506 0.65143
 H2797 H 0.52598 0.25558 0.66657
 H2798 H 0.53535 0.24714 0.63444
 H2799 H 0.53004 0.19759 0.70220
 H2800 H 0.54838 0.18056 0.63766
 C2801 C 1.01564 0.22842 0.16258
 C2802 C 1.02090 0.22269 0.14454
 C2803 C 1.03962 0.21950 0.14012
 C2804 C 1.05333 0.22169 0.15441
 C2805 C 1.04796 0.22740 0.17287
 C2806 C 1.02892 0.23108 0.17683
 C2807 C 1.06180 0.22835 0.18696
 N2808 N 1.07972 0.22426 0.18271
 N2809 N 1.08476 0.21904 0.16540
 C2810 C 1.07220 0.21749 0.15117
 H2811 H 1.00102 0.23083 0.16543
 H2812 H 1.01023 0.22083 0.13386
 H2813 H 1.05857 0.23187 0.20139
 H2814 H 1.07711 0.21262 0.13762
 C2815 C 0.58705 0.23623 0.72854
 C2816 C 0.60403 0.22991 0.72157
 C2817 C 0.61090 0.21221 0.72644
 C2818 C 0.60037 0.20075 0.73898
 C2819 C 0.58386 0.20784 0.74757
 C2820 C 0.57633 0.22542 0.74123
 C2821 C 0.57567 0.19674 0.76199
 N2822 N 0.58201 0.17921 0.76556
 N2823 N 0.59612 0.17193 0.75596
 C2824 C 0.60545 0.18204 0.74277
 H2825 H 0.58215 0.24973 0.72360
 H2826 H 0.61181 0.23893 0.71204
 H2827 H 0.56482 0.20165 0.77111
 H2828 H 0.61647 0.17513 0.73516
 C2829 C 1.08690 0.21542 0.23555
 C2830 C 1.10481 0.21022 0.23046
 C2831 C 1.11884 0.22369 0.22799
 C2832 C 1.11481 0.24283 0.23150
 C2833 C 1.09648 0.24815 0.23677
 C2834 C 1.08233 0.23428 0.23835
 C2835 C 1.09317 0.26711 0.24096
 N2836 N 1.10716 0.27986 0.23959
 N2837 N 1.12430 0.27491 0.23456
 C2838 C 1.12864 0.25685 0.23059
 H2839 H 1.07635 0.20461 0.23678
 H2840 H 1.10757 0.19551 0.22789
 H2841 H 1.07979 0.27188 0.24579
 H2842 H 1.14292 0.25364 0.22718
 C2843 C 0.17030 0.70941 0.51420
 C2844 C 0.15282 0.70409 0.52088
 C2845 C 0.13873 0.71737 0.52343
 C2846 C 0.14199 0.73623 0.51782
 C2847 C 0.15982 0.74162 0.51098
 C2848 C 0.17427 0.72816 0.50986
 C2849 C 0.16244 0.76026 0.50493
 N2850 N 0.14822 0.77265 0.50593
 N2851 N 0.13151 0.76763 0.51236
 C2852 C 0.12787 0.74986 0.51821
 H2853 H 0.18110 0.69895 0.51337
 H2854 H 0.15055 0.68956 0.52484
 H2855 H 0.17546 0.76496 0.49891
 H2856 H 0.11386 0.74653 0.52266
 C2857 C 0.15570 0.23673 1.00942
 C2858 C 0.13845 0.23057 1.01609
 C2859 C 0.13723 0.21570 1.02903
 C2860 C 0.15369 0.20700 1.03566
 C2861 C 0.17119 0.21333 1.02896
 C2862 C 0.17209 0.22820 1.01564
 C2863 C 0.18736 0.20490 1.03631
 N2864 N 0.18595 0.19099 1.04935
 N2865 N 0.16950 0.18505 1.05566
 C2866 C 0.15335 0.19260 1.04935
 H2867 H 0.15629 0.24840 0.99958
 H2868 H 0.12594 0.23743 1.01108
 H2869 H 0.20108 0.20931 1.03187
 H2870 H 0.14047 0.18743 1.05532
 C2871 C 0.66774 0.53786 0.23023
 C2872 C 0.65013 0.54370 0.22462
 C2873 C 0.63556 0.53078 0.22241
 C2874 C 0.63863 0.51163 0.22689
 C2875 C 0.65660 0.50568 0.23272
 C2876 C 0.67138 0.51889 0.23388
 C2877 C 0.65896 0.48677 0.23784
 N2878 N 0.64441 0.47464 0.23684
 N2879 N 0.62760 0.48018 0.23129
 C2880 C 0.62418 0.49825 0.22640
 H2881 H 0.67880 0.54820 0.23113
 H2882 H 0.64805 0.55841 0.22139
 H2883 H 0.67204 0.48160 0.24312
 H2884 H 0.61011 0.50198 0.22261
 C2885 C 0.66860 1.01542 0.71279
 C2886 C 0.65195 1.02278 0.70616
 C2887 C 0.63884 1.03027 0.71863
 C2888 C 0.64216 1.02921 0.73840
 C2889 C 0.65916 1.02153 0.74522
 C2890 C 0.67281 1.01522 0.73218
 C2891 C 0.66154 1.01984 0.76491
 N2892 N 0.64807 1.02585 0.77686
 N2893 N 0.63226 1.03318 0.77048
 C2894 C 0.62878 1.03494 0.75171
 H2895 H 0.67861 1.01051 0.70253
 H2896 H 0.64959 1.02322 0.69102
 H2897 H 0.67362 1.01326 0.77098
 H2898 H 0.61541 1.04038 0.74747
 C2899 C 0.82687 0.47367 0.28618
 C2900 C 0.84385 0.46730 0.29295
 C2901 C 0.85945 0.46648 0.28110
 C2902 C 0.85793 0.47271 0.26206
 C2903 C 0.84055 0.47931 0.25520
 C2904 C 0.82497 0.47970 0.26744
 C2905 C 0.83953 0.48580 0.23644
 N2906 N 0.85490 0.48560 0.22531
 N2907 N 0.87122 0.47953 0.23174
 C2908 C 0.87330 0.47320 0.24973
 H2909 H 0.81495 0.47349 0.29554
 H2910 H 0.84468 0.46255 0.30751
 H2911 H 0.82676 0.49128 0.23061
 H2912 H 0.88702 0.46896 0.25424
 C2913 C 0.83151 0.96029 0.77237
 C2914 C 0.84951 0.95517 0.77754
 C2915 C 0.86400 0.96839 0.77768
 C2916 C 0.86036 0.98703 0.77164
 C2917 C 0.84201 0.99221 0.76627
 C2918 C 0.82742 0.97876 0.76706
 C2919 C 0.83905 1.01057 0.75962
 N2920 N 0.85343 1.02292 0.75872
 N2921 N 0.87060 1.01810 0.76379
 C2922 C 0.87458 1.00059 0.77010
 H2923 H 0.82057 0.94982 0.77298
 H2924 H 0.85203 0.94084 0.78198
 H2925 H 0.82559 1.01514 0.75471
 H2926 H 0.88889 0.99741 0.77342
 C2927 C 0.41616 0.27291 0.78130
 C2928 C 0.39816 0.27774 0.78646
 C2929 C 0.38336 0.27586 0.77370
 C2930 C 0.38694 0.26876 0.75529
 C2931 C 0.40541 0.26377 0.75009
 C2932 C 0.42007 0.26583 0.76333
 C2933 C 0.40847 0.25634 0.73197
 N2934 N 0.39398 0.25411 0.71988
 N2935 N 0.37667 0.25864 0.72476
 C2936 C 0.37264 0.26578 0.74205
 H2937 H 0.42732 0.27523 0.79130
 H2938 H 0.39585 0.28336 0.80049
 H2939 H 0.42216 0.25211 0.72739
 H2940 H 0.35827 0.26875 0.74531
 C2941 C 0.92591 0.27593 0.29096
 C2942 C 0.90906 0.28297 0.29736
 C2943 C 0.89374 0.28444 0.28521
 C2944 C 0.89537 0.27807 0.26626
 C2945 C 0.91262 0.27082 0.25977
 C2946 C 0.92801 0.26995 0.27226
 C2947 C 0.91370 0.26420 0.24108
 N2948 N 0.89853 0.26491 0.22970
 N2949 N 0.88233 0.27162 0.23579
 C2950 C 0.88020 0.27811 0.25368
 H2951 H 0.93764 0.27575 0.30054
 H2952 H 0.90815 0.28781 0.31186
 H2953 H 0.92632 0.25817 0.23551
 H2954 H 0.86659 0.28291 0.25791
 C2955 C 0.33445 0.78623 0.48231
 C2956 C 0.35241 0.79191 0.47748
 C2957 C 0.36659 0.77872 0.47512
 C2958 C 0.36286 0.75952 0.47879
 C2959 C 0.34464 0.75377 0.48404
 C2960 C 0.33019 0.76721 0.48513
 C2961 C 0.34168 0.73478 0.48860
 N2962 N 0.35588 0.72238 0.48740
 N2963 N 0.37290 0.72771 0.48216
 C2964 C 0.37691 0.74584 0.47791
 H2965 H 0.32362 0.79674 0.48317
 H2966 H 0.35506 0.80665 0.47478
 H2967 H 0.32840 0.72978 0.49364
 H2968 H 0.39110 0.74940 0.47425
 C2969 C 0.33704 0.26325 0.98154
 C2970 C 0.35464 0.26863 0.97537
 C2971 C 0.36096 0.28712 0.97736
 C2972 C 0.34919 0.30042 0.98629
 C2973 C 0.33182 0.29457 0.99419
 C2974 C 0.32517 0.27590 0.99069
 C2975 C 0.32171 0.30801 1.00464
 N2976 N 0.32767 0.32604 1.00554
 N2977 N 0.34297 0.33175 0.99666
 C2978 C 0.35375 0.31966 0.98688
 H2979 H 0.33259 0.24894 0.97894
 H2980 H 0.36333 0.25818 0.96869
 H2981 H 0.30911 0.30488 1.01213
 H2982 H 0.36542 0.32545 0.97925
 C2983 C 0.76543 0.46914 0.33549
 C2984 C 0.77174 0.46133 0.35233
 C2985 C 0.78958 0.46521 0.35912
 C2986 C 0.80142 0.47726 0.34852
 C2987 C 0.79469 0.48629 0.33181
 C2988 C 0.77652 0.48150 0.32471
 C2989 C 0.80679 0.49938 0.32296
 N2990 N 0.82440 0.50188 0.32937
 N2991 N 0.83096 0.49234 0.34407
 C2992 C 0.82015 0.48008 0.35376
 H2993 H 0.75155 0.46531 0.33087
 H2994 H 0.76249 0.45212 0.36019
 H2995 H 0.80295 0.50793 0.31114
 H2996 H 0.82653 0.47239 0.36520
 C2997 C 0.77672 0.98897 0.83907
 C2998 C 0.78209 0.98401 0.85735
 C2999 C 0.78616 0.96535 0.86187
 C3000 C 0.78554 0.95149 0.84758
 C3001 C 0.78040 0.95657 0.82890
 C3002 C 0.77543 0.97541 0.82481
 C3003 C 0.78108 0.94270 0.81479
 N3004 N 0.78594 0.92488 0.81931
 N3005 N 0.79037 0.92003 0.83694
 C3006 C 0.79041 0.93271 0.85121
 H3007 H 0.77322 1.00345 0.83612
 H3008 H 0.78282 0.99476 0.86813
 H3009 H 0.77826 0.94590 0.80016
 H3010 H 0.79447 0.92802 0.86516
 C3011 C 0.26503 0.77180 0.40653
 C3012 C 0.27059 0.77798 0.38867
 C3013 C 0.28922 0.78258 0.38500
 C3014 C 0.30241 0.78162 0.39993
 C3015 C 0.29679 0.77515 0.41810
 C3016 C 0.27793 0.76993 0.42128
 C3017 C 0.31012 0.77508 0.43274
 N3018 N 0.32776 0.78094 0.42932
 N3019 N 0.33299 0.78709 0.41234
 C3020 C 0.32094 0.78776 0.39760
 H3021 H 0.25052 0.76823 0.40881
 H3022 H 0.26029 0.77887 0.37751
 H3023 H 0.30666 0.77095 0.44699
 H3024 H 0.32591 0.79356 0.38441
 C3025 C 0.27868 0.26561 0.91304
 C3026 C 0.28484 0.27061 0.89501
 C3027 C 0.28592 0.28946 0.88945
 C3028 C 0.28144 0.30363 0.90276
 C3029 C 0.27478 0.29855 0.92105
 C3030 C 0.27319 0.27925 0.92614
 C3031 C 0.27064 0.31310 0.93381
 N3032 N 0.27318 0.33127 0.92870
 N3033 N 0.27978 0.33597 0.91175
 C3034 C 0.28414 0.32282 0.89871
 H3035 H 0.27780 0.25084 0.91665
 H3036 H 0.28844 0.25959 0.88515
 H3037 H 0.26589 0.31040 0.94797
 H3038 H 0.29011 0.32758 0.88553
 C3039 C 0.47995 0.27504 0.83850
 C3040 C 0.47409 0.28199 0.85581
 C3041 C 0.45553 0.28037 0.86153
 C3042 C 0.44252 0.27151 0.84931
 C3043 C 0.44865 0.26338 0.83197
 C3044 C 0.46764 0.26577 0.82619
 C3045 C 0.43524 0.25373 0.82105
 N3046 N 0.41716 0.25330 0.82647
 N3047 N 0.41135 0.26191 0.84202
 C3048 C 0.42334 0.27113 0.85349
 H3049 H 0.49447 0.27690 0.83476
 H3050 H 0.48427 0.28867 0.86490
 H3051 H 0.43844 0.24665 0.80811
 H3052 H 0.41758 0.27843 0.86546
 C3053 C 0.96257 0.26552 0.33501
 C3054 C 0.95573 0.27210 0.35216
 C3055 C 0.96776 0.27936 0.36592
 C3056 C 0.98727 0.27849 0.36287
 C3057 C 0.99424 0.27178 0.34532
 C3058 C 0.98165 0.26618 0.33087
 C3059 C 1.01363 0.27014 0.34321
 N3060 N 1.02518 0.27534 0.35744
 N3061 N 1.01866 0.28178 0.37379
 C3062 C 1.00015 0.28338 0.37706
 H3063 H 0.95272 0.26055 0.32458
 H3064 H 0.94081 0.27219 0.35437
 H3065 H 1.01974 0.26411 0.33075
 H3066 H 0.99578 0.28792 0.39091
 C3067 C 0.48684 0.33604 0.77486
 C3068 C 0.48148 0.35401 0.78036
 C3069 C 0.46264 0.35863 0.78247
 C3070 C 0.44894 0.34449 0.77964
 C3071 C 0.45439 0.32631 0.77362
 C3072 C 0.47355 0.32210 0.77106
 C3073 C 0.44042 0.31267 0.77117
 N3074 N 0.42236 0.31689 0.77455
 N3075 N 0.41729 0.33376 0.78059
 C3076 C 0.42993 0.34760 0.78346
 H3077 H 0.50154 0.33305 0.77331
 H3078 H 0.49216 0.36452 0.78274
 H3079 H 0.44366 0.29860 0.76700
 H3080 H 0.42494 0.36065 0.78918
 C3081 C 0.97777 0.33879 0.26380
 C3082 C 0.97104 0.35613 0.26969
 C3083 C 0.96358 0.35835 0.28785
 C3084 C 0.96208 0.34260 0.30006
 C3085 C 0.96876 0.32493 0.29398
 C3086 C 0.97712 0.32321 0.27589
 C3087 C 0.96620 0.30936 0.30600
 N3088 N 0.95789 0.31152 0.32307
 N3089 N 0.95178 0.32814 0.32886
 C3090 C 0.95350 0.34371 0.31793
 H3091 H 0.98379 0.33757 0.24980
 H3092 H 0.97196 0.36800 0.26013
 H3093 H 0.97030 0.29545 0.30181
 H3094 H 0.94781 0.35668 0.32322
 C3095 C 0.27249 0.83947 0.49264
 C3096 C 0.27715 0.85795 0.48800
 C3097 C 0.28357 0.86258 0.46985
 C3098 C 0.28650 0.84811 0.45646
 C3099 C 0.28162 0.82936 0.46111
 C3100 C 0.27408 0.82514 0.47921
 C3101 C 0.28503 0.81531 0.44762
 N3102 N 0.29273 0.81980 0.43069
 N3103 N 0.29748 0.83735 0.42639
 C3104 C 0.29476 0.85162 0.43870
 H3105 H 0.26711 0.83641 0.50664
 H3106 H 0.27522 0.86883 0.49849
 H3107 H 0.28205 0.80077 0.45049
 H3108 H 0.29951 0.86543 0.43460
 C3109 C 0.25704 0.34636 0.99398
 C3110 C 0.26109 0.36486 0.98895
 C3111 C 0.27677 0.36907 0.97798
 C3112 C 0.28892 0.35450 0.97233
 C3113 C 0.28476 0.33573 0.97738
 C3114 C 0.26863 0.33171 0.98820
 C3115 C 0.29663 0.32150 0.97082
 N3116 N 0.31173 0.32592 0.96018
 N3117 N 0.31579 0.34360 0.95565
 C3118 C 0.30494 0.35803 0.96136
 H3119 H 0.24454 0.34338 1.00206
 H3120 H 0.25164 0.37589 0.99316
 H3121 H 0.29407 0.30693 0.97402
 H3122 H 0.30894 0.37208 0.95721
 C3123 C 0.79150 0.42333 0.27351
 C3124 C 0.79871 0.40648 0.28017
 C3125 C 0.78696 0.39134 0.28446
 C3126 C 0.76756 0.39295 0.28108
 C3127 C 0.76021 0.41014 0.27422
 C3128 C 0.77230 0.42556 0.27087
 C3129 C 0.74105 0.41106 0.27030
 N3130 N 0.73001 0.39587 0.27333
 N3131 N 0.73687 0.37977 0.27979
 C3132 C 0.75524 0.37774 0.28364
 H3133 H 0.80097 0.43493 0.27089
 H3134 H 0.81358 0.40545 0.28253
 H3135 H 0.73479 0.42349 0.26441
 H3136 H 0.76002 0.36413 0.28824
   
