data_POSCAR
  _audit_creation_date              2014-09-24
  _audit_creation_method            'ToBaCCo'
  _symmetry_space_group_name_H-M    'P1'
  _symmetry_Int_Tables_number       1
  _symmetry_cell_setting            triclinic
  loop_
  _symmetry_equiv_pos_as_xyz
 x,y,z
_cell_length_a 94.9412
_cell_length_b 96.1596
_cell_length_c 96.6403
_cell_angle_alpha 90.112600
_cell_angle_beta 89.951300
_cell_angle_gamma 89.965300
loop_
  _atom_site_label
  _atom_site_type_symbol
  _atom_site_fract_x
  _atom_site_fract_y
  _atom_site_fract_z
N1 N 0.35656 0.31866 0.33025
 N2 N 0.35677 0.32845 0.32078
 C3 C 0.36753 0.32600 0.31200
 C4 C 0.37450 0.31402 0.31619
 C5 C 0.36717 0.30969 0.32784
 H6 H 0.37003 0.33241 0.30317
 H7 H 0.36937 0.30071 0.33417
 Cu8 Cu 0.34290 0.34342 0.32076
 Cu9 Cu 0.34250 0.31807 0.34494
 Cu10 Cu 0.31709 0.34385 0.34463
 N11 N 0.32815 0.35757 0.32060
 N12 N 0.31814 0.35757 0.32998
 C13 C 0.30938 0.36829 0.32766
 C14 C 0.31407 0.37552 0.31617
 C15 C 0.32605 0.36836 0.31194
 H16 H 0.30022 0.37056 0.33391
 H17 H 0.33278 0.37084 0.30327
 N18 N 0.31768 0.32914 0.35868
 N19 N 0.32736 0.31930 0.35889
 C20 C 0.32488 0.31090 0.36978
 C21 C 0.31305 0.31569 0.37678
 C22 C 0.30882 0.32728 0.36937
 H23 H 0.33126 0.30199 0.37242
 H24 H 0.29990 0.33390 0.37156
 H25 H 0.32719 0.32812 0.33367
 H26 H 0.33839 0.33907 0.34526
 N27 N 0.35642 0.81849 -0.17124
 N28 N 0.35654 0.82843 -0.18053
 C29 C 0.36742 0.82632 -0.18926
 C30 C 0.37455 0.81433 -0.18525
 C31 C 0.36713 0.80969 -0.17374
 H32 H 0.36990 0.83303 -0.19787
 H33 H 0.36938 0.80069 -0.16745
 Cu34 Cu 0.34247 0.84320 -0.18020
 Cu35 Cu 0.34267 0.81776 -0.15629
 Cu36 Cu 0.31769 0.84399 -0.15536
 N37 N 0.32788 0.85748 -0.17992
 N38 N 0.31851 0.85789 -0.16993
 C39 C 0.30987 0.86879 -0.17191
 C40 C 0.31391 0.87565 -0.18391
 C41 C 0.32543 0.86807 -0.18871
 H42 H 0.30111 0.87126 -0.16520
 H43 H 0.33170 0.87017 -0.19780
 N44 N 0.31849 0.82898 -0.14158
 N45 N 0.32789 0.81889 -0.14198
 C46 C 0.32545 0.81011 -0.13139
 C47 C 0.31392 0.81489 -0.12395
 C48 C 0.30984 0.82691 -0.13074
 H49 H 0.33153 0.80084 -0.12935
 H50 H 0.30118 0.83367 -0.12803
 H51 H 0.32696 0.82817 -0.16677
 H52 H 0.33886 0.83882 -0.15559
 N53 N 0.85719 0.31880 -0.16902
 N54 N 0.85688 0.32811 -0.17895
 C55 C 0.86771 0.32576 -0.18766
 C56 C 0.87525 0.31433 -0.18295
 C57 C 0.86819 0.31022 -0.17107
 H58 H 0.86994 0.33194 -0.19673
 H59 H 0.87069 0.30155 -0.16443
 Cu60 Cu 0.84234 0.34242 -0.17927
 Cu61 Cu 0.84309 0.31801 -0.15439
 Cu62 Cu 0.81496 0.34076 -0.15738
 N63 N 0.82736 0.35630 -0.17965
 N64 N 0.81686 0.35567 -0.17082
 C65 C 0.80806 0.36639 -0.17304
 C66 C 0.81322 0.37427 -0.18397
 C67 C 0.82554 0.36745 -0.18790
 H68 H 0.79854 0.36810 -0.16716
 H69 H 0.83275 0.37039 -0.19603
 N70 N 0.81670 0.32725 -0.14219
 N71 N 0.82755 0.31879 -0.14087
 C72 C 0.82569 0.31094 -0.12948
 C73 C 0.81305 0.31464 -0.12327
 C74 C 0.80770 0.32507 -0.13165
 H75 H 0.83299 0.30305 -0.12606
 H76 H 0.79794 0.33067 -0.13025
 H77 H 0.82768 0.32575 -0.16685
 H78 H 0.83640 0.33861 -0.15511
 N79 N 0.85699 0.81932 0.33140
 N80 N 0.85588 0.82768 0.32073
 C81 C 0.86674 0.82531 0.31205
 C82 C 0.87512 0.81484 0.31756
 C83 C 0.86853 0.81136 0.32989
 H84 H 0.86832 0.83073 0.30239
 H85 H 0.87167 0.80341 0.33714
 Cu86 Cu 0.84027 0.84076 0.31908
 Cu87 Cu 0.84294 0.81844 0.34599
 Cu88 Cu 0.81406 0.84006 0.34254
 N89 N 0.82627 0.85559 0.32025
 N90 N 0.81624 0.85531 0.32961
 C91 C 0.80791 0.86649 0.32807
 C92 C 0.81287 0.87436 0.31705
 C93 C 0.82461 0.86703 0.31236
 H94 H 0.79875 0.86846 0.33442
 H95 H 0.83147 0.86971 0.30385
 N96 N 0.81625 0.82696 0.35794
 N97 N 0.82742 0.81897 0.35950
 C98 C 0.82578 0.81127 0.37101
 C99 C 0.81294 0.81459 0.37706
 C100 C 0.80725 0.82463 0.36843
 H101 H 0.83333 0.80370 0.37462
 H102 H 0.79724 0.82985 0.36961
 H103 H 0.82680 0.82459 0.33365
 H104 H 0.83564 0.83868 0.34376
 N105 N 0.64194 0.68194 0.32986
 N106 N 0.64167 0.67219 0.32034
 C107 C 0.63077 0.67460 0.31174
 C108 C 0.62379 0.68651 0.31616
 C109 C 0.63124 0.69084 0.32772
 H110 H 0.62808 0.66808 0.30302
 H111 H 0.62913 0.69983 0.33412
 Cu112 Cu 0.65560 0.65731 0.32023
 Cu113 Cu 0.65600 0.68241 0.34441
 Cu114 Cu 0.68151 0.65663 0.34424
 N115 N 0.67036 0.64326 0.31994
 N116 N 0.68039 0.64297 0.32930
 C117 C 0.68900 0.63214 0.32668
 C118 C 0.68415 0.62524 0.31498
 C119 C 0.67229 0.63267 0.31102
 H120 H 0.69805 0.62946 0.33290
 H121 H 0.66553 0.63056 0.30229
 N122 N 0.68071 0.67148 0.35841
 N123 N 0.67099 0.68128 0.35833
 C124 C 0.67309 0.68983 0.36915
 C125 C 0.68470 0.68527 0.37651
 C126 C 0.68927 0.67357 0.36935
 H127 H 0.66661 0.69877 0.37147
 H128 H 0.69808 0.66696 0.37199
 H129 H 0.67159 0.67203 0.33346
 H130 H 0.66030 0.66110 0.34489
 N131 N 0.64228 0.18176 -0.17051
 N132 N 0.64251 0.17207 -0.18010
 C133 C 0.63179 0.17422 -0.18894
 C134 C 0.62443 0.18594 -0.18471
 C135 C 0.63143 0.19042 -0.17293
 H136 H 0.62952 0.16770 -0.19778
 H137 H 0.62893 0.19938 -0.16663
 Cu138 Cu 0.65692 0.15774 -0.18013
 Cu139 Cu 0.65609 0.18244 -0.15568
 Cu140 Cu 0.68194 0.15682 -0.15551
 N141 N 0.67124 0.14333 -0.17991
 N142 N 0.68116 0.14306 -0.17044
 C143 C 0.68968 0.13211 -0.17288
 C144 C 0.68480 0.12503 -0.18452
 C145 C 0.67304 0.13256 -0.18862
 H146 H 0.69863 0.12947 -0.16651
 H147 H 0.66628 0.13049 -0.19735
 N148 N 0.68078 0.17172 -0.14139
 N149 N 0.67094 0.18142 -0.14156
 C150 C 0.67289 0.19006 -0.13078
 C151 C 0.68451 0.18565 -0.12333
 C152 C 0.68925 0.17397 -0.13041
 H153 H 0.66635 0.19899 -0.12860
 H154 H 0.69816 0.16752 -0.12773
 H155 H 0.67232 0.17265 -0.16636
 H156 H 0.66079 0.16137 -0.15549
 N157 N 0.14163 0.68148 -0.17113
 N158 N 0.14150 0.67139 -0.18029
 C159 C 0.13072 0.67343 -0.18909
 C160 C 0.12371 0.68550 -0.18529
 C161 C 0.13095 0.69029 -0.17378
 H162 H 0.12810 0.66656 -0.19756
 H163 H 0.12876 0.69959 -0.16787
 Cu164 Cu 0.15539 0.65652 -0.18000
 Cu165 Cu 0.15563 0.68238 -0.15654
 Cu166 Cu 0.18140 0.65684 -0.15617
 N167 N 0.17042 0.64279 -0.18004
 N168 N 0.18054 0.64284 -0.17078
 C169 C 0.18934 0.63214 -0.17337
 C170 C 0.18448 0.62496 -0.18491
 C171 C 0.17243 0.63209 -0.18880
 H172 H 0.19857 0.62978 -0.16727
 H173 H 0.16558 0.62968 -0.19738
 N174 N 0.18044 0.67195 -0.14232
 N175 N 0.17063 0.68166 -0.14257
 C176 C 0.17265 0.69043 -0.13191
 C177 C 0.18429 0.68607 -0.12447
 C178 C 0.18898 0.67430 -0.13143
 H179 H 0.16610 0.69936 -0.12978
 H180 H 0.19788 0.66785 -0.12873
 H181 H 0.17118 0.67190 -0.16734
 H182 H 0.16007 0.66119 -0.15551
 N183 N 0.14480 0.18329 0.32813
 N184 N 0.14435 0.17321 0.31893
 C185 C 0.13350 0.17549 0.31025
 C186 C 0.12691 0.18773 0.31414
 C187 C 0.13438 0.19241 0.32552
 H188 H 0.13069 0.16886 0.30164
 H189 H 0.13223 0.20161 0.33160
 Cu190 Cu 0.15815 0.15824 0.31905
 Cu191 Cu 0.15842 0.18358 0.34318
 Cu192 Cu 0.18196 0.15611 0.34464
 N193 N 0.17167 0.14302 0.31992
 N194 N 0.18062 0.14207 0.33023
 C195 C 0.18860 0.13064 0.32853
 C196 C 0.18454 0.12410 0.31643
 C197 C 0.17377 0.13225 0.31120
 H198 H 0.19702 0.12752 0.33539
 H199 H 0.16788 0.13042 0.30180
 N200 N 0.18179 0.17131 0.35825
 N201 N 0.17297 0.18189 0.35762
 C202 C 0.17566 0.19060 0.36823
 C203 C 0.18674 0.18526 0.37592
 C204 C 0.19032 0.17301 0.36922
 H205 H 0.16993 0.20011 0.37019
 H206 H 0.19856 0.16583 0.37208
 H207 H 0.17391 0.17249 0.33309
 H208 H 0.16106 0.16240 0.34374
 N209 N 0.64339 0.31793 0.66970
 N210 N 0.64382 0.32747 0.67944
 C211 C 0.63297 0.32541 0.68822
 C212 C 0.62535 0.31392 0.68373
 C213 C 0.63234 0.30950 0.67193
 H214 H 0.63079 0.33181 0.69717
 H215 H 0.62972 0.30073 0.66544
 Cu216 Cu 0.65862 0.34153 0.67961
 Cu217 Cu 0.65713 0.31691 0.65485
 Cu218 Cu 0.68308 0.34211 0.65429
 N219 N 0.67305 0.35593 0.67881
 N220 N 0.68252 0.35605 0.66889
 C221 C 0.69119 0.36694 0.67074
 C222 C 0.68698 0.37414 0.68248
 C223 C 0.67539 0.36680 0.68732
 H224 H 0.69995 0.36935 0.66402
 H225 H 0.66909 0.36920 0.69632
 N226 N 0.68187 0.32713 0.64042
 N227 N 0.67194 0.31756 0.64065
 C228 C 0.67396 0.30873 0.63002
 C229 C 0.68577 0.31289 0.62268
 C230 C 0.69049 0.32463 0.62962
 H231 H 0.66729 0.29991 0.62780
 H232 H 0.69962 0.33083 0.62710
 H233 H 0.67344 0.32644 0.66539
 H234 H 0.66176 0.33792 0.65483
 N235 N 0.64335 0.81813 1.16954
 N236 N 0.64301 0.82800 1.17896
 C237 C 0.63203 0.82569 1.18751
 C238 C 0.62510 0.81373 1.18319
 C239 C 0.63266 0.80925 1.17175
 H240 H 0.62925 0.83229 1.19615
 H241 H 0.63062 0.80017 1.16547
 Cu242 Cu 0.65696 0.84289 1.17904
 Cu243 Cu 0.65750 0.81740 1.15504
 Cu244 Cu 0.68296 0.84309 1.15530
 N245 N 0.67176 0.85697 1.17927
 N246 N 0.68183 0.85691 1.16995
 C247 C 0.69064 0.86756 1.17239
 C248 C 0.68592 0.87480 1.18390
 C249 C 0.67387 0.86773 1.18801
 H250 H 0.69989 0.86975 1.16625
 H251 H 0.66710 0.87024 1.19665
 N252 N 0.68237 0.82822 1.14131
 N253 N 0.67268 0.81840 1.14121
 C254 C 0.67516 0.80977 1.13049
 C255 C 0.68701 0.81436 1.12347
 C256 C 0.69126 0.82610 1.13066
 H257 H 0.66885 0.80075 1.12806
 H258 H 0.70016 0.83268 1.12832
 H259 H 0.67287 0.82757 1.16632
 H260 H 0.66174 0.83844 1.15462
 N261 N 0.14357 0.31926 1.17090
 N262 N 0.14368 0.32976 1.17963
 C263 C 0.13281 0.32840 1.18848
 C264 C 0.12562 0.31633 1.18521
 C265 C 0.13275 0.31079 1.17399
 H266 H 0.13044 0.33549 1.19686
 H267 H 0.13012 0.30140 1.16837
 Cu268 Cu 0.15835 0.34380 1.17880
 Cu269 Cu 0.15715 0.31760 1.15586
 Cu270 Cu 0.18297 0.34306 1.15387
 N271 N 0.17295 0.35791 1.17777
 N272 N 0.18258 0.35756 1.16800
 C273 C 0.19154 0.36824 1.16983
 C274 C 0.18735 0.37573 1.18142
 C275 C 0.17547 0.36883 1.18614
 H276 H 0.20057 0.37025 1.16330
 H277 H 0.16914 0.37147 1.19506
 N278 N 0.18156 0.32752 1.14058
 N279 N 0.17178 0.31782 1.14140
 C280 C 0.17356 0.30874 1.13092
 C281 C 0.18503 0.31288 1.12308
 C282 C 0.18983 0.32485 1.12956
 H283 H 0.16699 0.29974 1.12917
 H284 H 0.19862 0.33124 1.12642
 H285 H 0.17337 0.32791 1.16575
 H286 H 0.16168 0.33852 1.15437
 N287 N 0.14490 0.81645 0.67126
 N288 N 0.14379 0.82682 0.68006
 C289 C 0.13204 0.82512 0.68767
 C290 C 0.12545 0.81296 0.68346
 C291 C 0.13397 0.80774 0.67300
 H292 H 0.12862 0.83219 0.69570
 H293 H 0.13254 0.79820 0.66724
 Cu294 Cu 0.15829 0.84104 0.68123
 Cu295 Cu 0.16085 0.81477 0.65868
 Cu296 Cu 0.17878 0.84580 0.65339
 N297 N 0.17212 0.85590 0.68058
 N298 N 0.18003 0.85783 0.66958
 C299 C 0.18832 0.86899 0.67163
 C300 C 0.18556 0.87429 0.68471
 C301 C 0.17520 0.86569 0.69007
 H302 H 0.19590 0.87282 0.66420
 H303 H 0.17011 0.86662 0.70004
 N304 N 0.18020 0.82974 0.64077
 N305 N 0.17358 0.81788 0.64294
 C306 C 0.17692 0.80889 0.63277
 C307 C 0.18622 0.81535 0.62381
 C308 C 0.18807 0.82856 0.62924
 H309 H 0.17299 0.79836 0.63205
 H310 H 0.19466 0.83673 0.62512
 H311 H 0.17538 0.82949 0.66620
 H312 H 0.15951 0.83562 0.65660
 N313 N 0.35764 0.68140 0.67090
 N314 N 0.35762 0.67138 0.68012
 C315 C 0.36834 0.67341 0.68901
 C316 C 0.37553 0.68535 0.68518
 C317 C 0.36838 0.69013 0.67360
 H318 H 0.37064 0.66672 0.69768
 H319 H 0.37076 0.69926 0.66754
 Cu320 Cu 0.34355 0.65667 0.67987
 Cu321 Cu 0.34364 0.68246 0.65619
 Cu322 Cu 0.31782 0.65705 0.65595
 N323 N 0.32853 0.64289 0.67982
 N324 N 0.31854 0.64310 0.67043
 C325 C 0.30950 0.63263 0.67283
 C326 C 0.31399 0.62538 0.68441
 C327 C 0.32614 0.63224 0.68855
 H328 H 0.30033 0.63049 0.66657
 H329 H 0.33270 0.62977 0.69734
 N330 N 0.31877 0.67197 0.64210
 N331 N 0.32855 0.68170 0.64215
 C332 C 0.32622 0.69039 0.63146
 C333 C 0.31436 0.68593 0.62434
 C334 C 0.30998 0.67419 0.63142
 H335 H 0.33262 0.69937 0.62912
 H336 H 0.30108 0.66766 0.62895
 H337 H 0.32814 0.67239 0.66719
 H338 H 0.33924 0.66149 0.65542
 N339 N 0.35692 0.18253 1.17100
 N340 N 0.35686 0.17294 1.18064
 C341 C 0.36762 0.17530 1.18943
 C342 C 0.37481 0.18708 1.18508
 C343 C 0.36767 0.19136 1.17332
 H344 H 0.37000 0.16895 1.19833
 H345 H 0.37011 0.20014 1.16681
 Cu346 Cu 0.34279 0.15818 1.18058
 Cu347 Cu 0.34321 0.18297 1.15603
 Cu348 Cu 0.31852 0.15652 1.15537
 N349 N 0.32857 0.14353 1.18023
 N350 N 0.31947 0.14277 1.17005
 C351 C 0.31119 0.13156 1.17188
 C352 C 0.31528 0.12495 1.18391
 C353 C 0.32634 0.13285 1.18900
 H354 H 0.30271 0.12857 1.16505
 H355 H 0.33240 0.13081 1.19823
 N356 N 0.31917 0.17139 1.14144
 N357 N 0.32848 0.18156 1.14173
 C358 C 0.32592 0.19023 1.13107
 C359 C 0.31442 0.18529 1.12371
 C360 C 0.31047 0.17330 1.13063
 H361 H 0.33188 0.19955 1.12894
 H362 H 0.30188 0.16645 1.12800
 H363 H 0.32745 0.17269 1.16653
 H364 H 0.33968 0.16183 1.15583
 N365 N 0.85827 0.68072 1.17244
 N366 N 0.85804 0.67074 1.18170
 C367 C 0.86869 0.67274 1.19069
 C368 C 0.87602 0.68460 1.18685
 C369 C 0.86904 0.68936 1.17519
 H370 H 0.87096 0.66601 1.19935
 H371 H 0.87149 0.69850 1.16917
 Cu372 Cu 0.84380 0.65617 1.18113
 Cu373 Cu 0.84462 0.68183 1.15751
 Cu374 Cu 0.81861 0.65663 1.15653
 N375 N 0.82875 0.64240 1.18069
 N376 N 0.81899 0.64263 1.17107
 C377 C 0.80992 0.63211 1.17325
 C378 C 0.81417 0.62484 1.18491
 C379 C 0.82619 0.63172 1.18934
 H380 H 0.80091 0.62994 1.16677
 H381 H 0.83255 0.62925 1.19827
 N382 N 0.82002 0.67168 1.14275
 N383 N 0.82992 0.68128 1.14317
 C384 C 0.82812 0.69006 1.13249
 C385 C 0.81650 0.68584 1.12490
 C386 C 0.81165 0.67412 1.13176
 H387 H 0.83477 0.69893 1.13045
 H388 H 0.80273 0.66775 1.12893
 H389 H 0.82858 0.67180 1.16807
 H390 H 0.83991 0.66083 1.15660
 N391 N 0.85697 0.18147 0.67129
 N392 N 0.85789 0.17111 0.68010
 C393 C 0.86854 0.17356 0.68893
 C394 C 0.87476 0.18612 0.68549
 C395 C 0.86710 0.19084 0.67420
 H396 H 0.87167 0.16656 0.69711
 H397 H 0.86878 0.20035 0.66848
 Cu398 Cu 0.84539 0.15519 0.67908
 Cu399 Cu 0.84304 0.18165 0.65644
 Cu400 Cu 0.82111 0.15278 0.65410
 N401 N 0.82994 0.14200 0.68030
 N402 N 0.82049 0.14100 0.67044
 C403 C 0.81155 0.13058 0.67346
 C404 C 0.81558 0.12470 0.68596
 C405 C 0.82731 0.13231 0.68999
 H406 H 0.80298 0.12735 0.66684
 H407 H 0.83361 0.13083 0.69917
 N408 N 0.82018 0.16855 0.64116
 N409 N 0.82830 0.17963 0.64214
 C410 C 0.82495 0.18852 0.63190
 C411 C 0.81415 0.18279 0.62407
 C412 C 0.81142 0.17011 0.63032
 H413 H 0.83007 0.19841 0.63026
 H414 H 0.80364 0.16252 0.62726
 H415 H 0.82839 0.16891 0.66617
 H416 H 0.84163 0.16067 0.65451
 N417 N 0.31816 0.35855 0.67071
 N418 N 0.32793 0.35809 0.68031
 C419 C 0.32604 0.36879 0.68911
 C420 C 0.31441 0.37639 0.68485
 C421 C 0.30971 0.36954 0.67308
 H422 H 0.33263 0.37083 0.69799
 H423 H 0.30069 0.37218 0.66680
 Cu424 Cu 0.34191 0.34333 0.68068
 Cu425 Cu 0.31692 0.34458 0.65610
 Cu426 Cu 0.34168 0.31802 0.65673
 N427 N 0.35605 0.32868 0.68063
 N428 N 0.35583 0.31879 0.67125
 C429 C 0.36662 0.31002 0.67352
 C430 C 0.37406 0.31461 0.68499
 C431 C 0.36700 0.32652 0.68922
 H432 H 0.36886 0.30102 0.66719
 H433 H 0.36957 0.33311 0.69793
 N434 N 0.32657 0.31913 0.64285
 N435 N 0.31741 0.32945 0.64231
 C436 C 0.30872 0.32737 0.63148
 C437 C 0.31252 0.31508 0.62501
 C438 C 0.32385 0.31015 0.63250
 H439 H 0.30007 0.33410 0.62867
 H440 H 0.32977 0.30076 0.63043
 H441 H 0.32606 0.32862 0.66726
 H442 H 0.33802 0.33916 0.65609
 N443 N 0.31663 0.85838 0.16943
 N444 N 0.32616 0.85856 0.17927
 C445 C 0.32372 0.86954 0.18761
 C446 C 0.31198 0.87662 0.18276
 C447 C 0.30780 0.86918 0.17117
 H448 H 0.33008 0.87219 0.19649
 H449 H 0.29896 0.87138 0.16449
 Cu450 Cu 0.34076 0.84440 0.18031
 Cu451 Cu 0.31641 0.84423 0.15502
 Cu452 Cu 0.34282 0.81938 0.15600
 N453 N 0.35566 0.83049 0.18054
 N454 N 0.35640 0.82077 0.17100
 C455 C 0.36752 0.81251 0.17362
 C456 C 0.37418 0.81729 0.18548
 C457 C 0.36632 0.82875 0.18956
 H458 H 0.37053 0.80372 0.16730
 H459 H 0.36813 0.83528 0.19849
 N460 N 0.32810 0.81970 0.14167
 N461 N 0.31798 0.82910 0.14135
 C462 C 0.30948 0.82640 0.13053
 C463 C 0.31446 0.81473 0.12366
 C464 C 0.32631 0.81079 0.13106
 H465 H 0.30025 0.83244 0.12795
 H466 H 0.33316 0.80209 0.12888
 H467 H 0.32629 0.82882 0.16632
 H468 H 0.33780 0.84030 0.15560
 N469 N 0.81784 0.35845 0.17002
 N470 N 0.82773 0.35896 0.17950
 C471 C 0.82529 0.36992 0.18788
 C472 C 0.81320 0.37667 0.18342
 C473 C 0.80879 0.36904 0.17202
 H474 H 0.83187 0.37276 0.19655
 H475 H 0.79962 0.37094 0.16569
 Cu476 Cu 0.84273 0.34515 0.18015
 Cu477 Cu 0.81739 0.34411 0.15580
 Cu478 Cu 0.84345 0.31892 0.15700
 N479 N 0.85694 0.33056 0.18095
 N480 N 0.85716 0.32036 0.17189
 C481 C 0.86793 0.31177 0.17484
 C482 C 0.87492 0.31680 0.18642
 C483 C 0.86758 0.32878 0.18998
 H484 H 0.87044 0.30254 0.16893
 H485 H 0.86977 0.33568 0.19855
 N486 N 0.82865 0.31923 0.14272
 N487 N 0.81869 0.32878 0.14230
 C488 C 0.81014 0.32612 0.13151
 C489 C 0.81493 0.31429 0.12475
 C490 C 0.82671 0.31025 0.13219
 H491 H 0.80105 0.33230 0.12885
 H492 H 0.83344 0.30142 0.13010
 H493 H 0.82751 0.32913 0.16751
 H494 H 0.83872 0.33985 0.15575
 N495 N 0.81747 0.85914 0.67138
 N496 N 0.82770 0.85905 0.68051
 C497 C 0.82580 0.86965 0.68943
 C498 C 0.81371 0.87682 0.68570
 C499 C 0.80872 0.86980 0.67416
 H500 H 0.83274 0.87200 0.69797
 H501 H 0.79935 0.87215 0.66826
 Cu502 Cu 0.84248 0.84503 0.68010
 Cu503 Cu 0.81622 0.84546 0.65660
 Cu504 Cu 0.84165 0.81968 0.65598
 N505 N 0.85615 0.82995 0.67995
 N506 N 0.85579 0.82012 0.67050
 C507 C 0.86629 0.81104 0.67286
 C508 C 0.87369 0.81535 0.68447
 C509 C 0.86690 0.82742 0.68868
 H510 H 0.86835 0.80199 0.66654
 H511 H 0.86947 0.83384 0.69751
 N512 N 0.82649 0.82095 0.64218
 N513 N 0.81675 0.83073 0.64245
 C514 C 0.80783 0.82870 0.63181
 C515 C 0.81214 0.81706 0.62444
 C516 C 0.82404 0.81246 0.63137
 H517 H 0.79882 0.83520 0.62966
 H518 H 0.83049 0.80359 0.62874
 H519 H 0.82638 0.82990 0.66746
 H520 H 0.83743 0.84079 0.65568
 N521 N 0.68110 0.64064 0.67220
 N522 N 0.67087 0.64086 0.68134
 C523 C 0.67266 0.63026 0.69026
 C524 C 0.68466 0.62292 0.68650
 C525 C 0.68972 0.62988 0.67496
 H526 H 0.66576 0.62813 0.69889
 H527 H 0.69897 0.62733 0.66893
 Cu528 Cu 0.65616 0.65496 0.68090
 Cu529 Cu 0.68246 0.65432 0.65745
 Cu530 Cu 0.65729 0.68040 0.65690
 N531 N 0.64264 0.67016 0.68077
 N532 N 0.64307 0.68006 0.67143
 C533 C 0.63261 0.68919 0.67394
 C534 C 0.62519 0.68481 0.68551
 C535 C 0.63192 0.67267 0.68954
 H536 H 0.63067 0.69842 0.66786
 H537 H 0.62922 0.66611 0.69820
 N538 N 0.67251 0.67897 0.64308
 N539 N 0.68211 0.66905 0.64332
 C540 C 0.69108 0.67092 0.63269
 C541 C 0.68697 0.68260 0.62532
 C542 C 0.67514 0.68742 0.63227
 H543 H 0.70000 0.66429 0.63054
 H544 H 0.66885 0.69640 0.62967
 H545 H 0.67243 0.67007 0.66842
 H546 H 0.66132 0.65932 0.65655
 N547 N 0.68215 0.14066 0.17179
 N548 N 0.67215 0.14065 0.18117
 C549 C 0.67435 0.13000 0.18996
 C550 C 0.68640 0.12291 0.18584
 C551 C 0.69102 0.13004 0.17423
 H552 H 0.66773 0.12767 0.19875
 H553 H 0.70015 0.12771 0.16796
 Cu554 Cu 0.65731 0.15466 0.18110
 Cu555 Cu 0.68307 0.15446 0.15716
 Cu556 Cu 0.65752 0.18017 0.15714
 N557 N 0.64339 0.16956 0.18120
 N558 N 0.64350 0.17947 0.17186
 C559 C 0.63287 0.18839 0.17448
 C560 C 0.62569 0.18387 0.18615
 C561 C 0.63272 0.17186 0.19009
 H562 H 0.63068 0.19757 0.16842
 H563 H 0.63024 0.16525 0.19878
 N564 N 0.67260 0.17907 0.14311
 N565 N 0.68232 0.16927 0.14317
 C566 C 0.69109 0.17124 0.13242
 C567 C 0.68674 0.18287 0.12513
 C568 C 0.67496 0.18756 0.13226
 H569 H 0.70003 0.16470 0.13011
 H570 H 0.66850 0.19645 0.12972
 H571 H 0.67296 0.17007 0.16826
 H572 H 0.66176 0.15918 0.15662
 N573 N 0.18184 0.64164 0.17051
 N574 N 0.17182 0.64142 0.17987
 C575 C 0.17414 0.63071 0.18856
 C576 C 0.18629 0.62382 0.18440
 C577 C 0.19084 0.63111 0.17287
 H578 H 0.16753 0.62820 0.19731
 H579 H 0.20001 0.62897 0.16661
 Cu580 Cu 0.15684 0.65525 0.17991
 Cu581 Cu 0.18265 0.65558 0.15604
 Cu582 Cu 0.15693 0.68111 0.15623
 N583 N 0.14289 0.67008 0.18018
 N584 N 0.14293 0.68013 0.17099
 C585 C 0.13225 0.68894 0.17378
 C586 C 0.12509 0.68418 0.18538
 C587 C 0.13222 0.67216 0.18912
 H588 H 0.12994 0.69814 0.16779
 H589 H 0.12990 0.66544 0.19776
 N590 N 0.17204 0.68024 0.14217
 N591 N 0.18180 0.67049 0.14220
 C592 C 0.19057 0.67255 0.13147
 C593 C 0.18618 0.68418 0.12422
 C594 C 0.17436 0.68879 0.13136
 H595 H 0.19954 0.66604 0.12915
 H596 H 0.16785 0.69765 0.12882
 H597 H 0.17235 0.67095 0.16726
 H598 H 0.16126 0.66011 0.15547
 N599 N 0.18198 0.14065 0.66988
 N600 N 0.17252 0.14084 0.67981
 C601 C 0.17493 0.13007 0.68840
 C602 C 0.18649 0.12270 0.68354
 C603 C 0.19066 0.12976 0.67175
 H604 H 0.16866 0.12769 0.69742
 H605 H 0.19948 0.12730 0.66511
 Cu606 Cu 0.15790 0.15507 0.68039
 Cu607 Cu 0.18265 0.15472 0.65548
 Cu608 Cu 0.15771 0.18100 0.65699
 N609 N 0.14393 0.16990 0.68105
 N610 N 0.14391 0.17998 0.67190
 C611 C 0.13316 0.18869 0.67465
 C612 C 0.12599 0.18386 0.68620
 C613 C 0.13320 0.17189 0.68996
 H614 H 0.13072 0.19780 0.66857
 H615 H 0.13085 0.16511 0.69855
 N616 N 0.17249 0.18015 0.64265
 N617 N 0.18169 0.16988 0.64188
 C618 C 0.18998 0.17184 0.63075
 C619 C 0.18590 0.18398 0.62425
 C620 C 0.17481 0.18901 0.63210
 H621 H 0.19849 0.16504 0.62767
 H622 H 0.16870 0.19827 0.63007
 H623 H 0.17341 0.17026 0.66721
 H624 H 0.16147 0.15987 0.65583
 N625 N 0.31871 0.64165 0.32803
 N626 N 0.32843 0.64251 0.31839
 C627 C 0.32675 0.63194 0.30938
 C628 C 0.31533 0.62400 0.31357
 C629 C 0.31051 0.63053 0.32548
 H630 H 0.33330 0.63023 0.30040
 H631 H 0.30174 0.62741 0.33190
 Cu632 Cu 0.34232 0.65736 0.31849
 Cu633 Cu 0.31739 0.65500 0.34315
 Cu634 Cu 0.34243 0.68122 0.34397
 N635 N 0.35647 0.67197 0.31928
 N636 N 0.35645 0.68125 0.32928
 C637 C 0.36716 0.69018 0.32729
 C638 C 0.37435 0.68632 0.31539
 C639 C 0.36723 0.67468 0.31061
 H640 H 0.36951 0.69884 0.33406
 H641 H 0.36959 0.66869 0.30143
 N642 N 0.32737 0.67946 0.35790
 N643 N 0.31782 0.66951 0.35758
 C644 C 0.30892 0.67126 0.36831
 C645 C 0.31302 0.68290 0.37577
 C646 C 0.32480 0.68779 0.36883
 H647 H 0.30003 0.66459 0.37043
 H648 H 0.33107 0.69676 0.37152
 H649 H 0.32659 0.67144 0.33281
 H650 H 0.33845 0.66007 0.34327
 N651 N 0.31757 0.14116 0.82787
 N652 N 0.32680 0.14177 0.81775
 C653 C 0.32429 0.13134 0.80878
 C654 C 0.31292 0.12374 0.81355
 C655 C 0.30894 0.13025 0.82574
 H656 H 0.33038 0.12931 0.79954
 H657 H 0.30027 0.12741 0.83242
 Cu658 Cu 0.34131 0.15603 0.81718
 Cu659 Cu 0.31719 0.15482 0.84278
 Cu660 Cu 0.34328 0.18000 0.84244
 N661 N 0.35618 0.16995 0.81749
 N662 N 0.35690 0.17928 0.82740
 C663 C 0.36800 0.18765 0.82510
 C664 C 0.37468 0.18336 0.81306
 C665 C 0.36685 0.17206 0.80854
 H666 H 0.37097 0.19619 0.83176
 H667 H 0.36868 0.16592 0.79933
 N668 N 0.32859 0.17910 0.85679
 N669 N 0.31860 0.16958 0.85692
 C670 C 0.31001 0.17201 0.86777
 C671 C 0.31480 0.18365 0.87483
 C672 C 0.32664 0.18781 0.86754
 H673 H 0.30080 0.16587 0.87019
 H674 H 0.33335 0.19658 0.86983
 H675 H 0.32665 0.17071 0.83194
 H676 H 0.33843 0.15895 0.84206
 N677 N 0.81851 0.64051 0.82848
 N678 N 0.82795 0.64093 0.81855
 C679 C 0.82569 0.63025 0.80979
 C680 C 0.81417 0.62272 0.81447
 C681 C 0.80994 0.62959 0.82639
 H682 H 0.83186 0.62821 0.80060
 H683 H 0.80127 0.62688 0.83312
 Cu684 Cu 0.84212 0.65553 0.81808
 Cu685 Cu 0.81775 0.65427 0.84321
 Cu686 Cu 0.84320 0.68009 0.84302
 N687 N 0.85654 0.66987 0.81828
 N688 N 0.85696 0.67940 0.82803
 C689 C 0.86793 0.68794 0.82566
 C690 C 0.87481 0.68353 0.81376
 C691 C 0.86723 0.67202 0.80938
 H692 H 0.87071 0.69665 0.83220
 H693 H 0.86926 0.66572 0.80034
 N694 N 0.82832 0.67892 0.85725
 N695 N 0.81865 0.66908 0.85725
 C696 C 0.80996 0.67105 0.86807
 C697 C 0.81430 0.68271 0.87534
 C698 C 0.82601 0.68743 0.86813
 H699 H 0.80105 0.66450 0.87040
 H700 H 0.83241 0.69638 0.87061
 H701 H 0.82718 0.67039 0.83238
 H702 H 0.83905 0.65908 0.84289
 N703 N 0.81972 0.14114 0.32843
 N704 N 0.82975 0.14096 0.31907
 C705 C 0.82761 0.13024 0.31039
 C706 C 0.81557 0.12321 0.31446
 C707 C 0.81084 0.13048 0.32600
 H708 H 0.83433 0.12782 0.30169
 H709 H 0.80166 0.12821 0.33221
 Cu710 Cu 0.84476 0.15465 0.31879
 Cu711 Cu 0.81903 0.15526 0.34292
 Cu712 Cu 0.84471 0.18082 0.34198
 N713 N 0.85857 0.16951 0.31815
 N714 N 0.85851 0.17974 0.32717
 C715 C 0.86914 0.18850 0.32426
 C716 C 0.87630 0.18353 0.31274
 C717 C 0.86923 0.17143 0.30918
 H718 H 0.87147 0.19778 0.33015
 H719 H 0.87161 0.16452 0.30068
 N720 N 0.82990 0.18018 0.35620
 N721 N 0.82014 0.17044 0.35664
 C722 C 0.81177 0.17277 0.36768
 C723 C 0.81650 0.18457 0.37454
 C724 C 0.82801 0.18895 0.36690
 H725 H 0.80299 0.16626 0.37058
 H726 H 0.83456 0.19789 0.36895
 H727 H 0.82904 0.17037 0.33124
 H728 H 0.84029 0.15981 0.34312
 N729 N 0.68237 0.35821 0.33095
 N730 N 0.67383 0.35732 0.32031
 C731 C 0.67630 0.36808 0.31174
 C732 C 0.68704 0.37617 0.31727
 C733 C 0.69058 0.36951 0.32951
 H734 H 0.67075 0.36979 0.30213
 H735 H 0.69869 0.37248 0.33677
 Cu736 Cu 0.66037 0.34214 0.31856
 Cu737 Cu 0.68293 0.34419 0.34539
 Cu738 Cu 0.66059 0.31596 0.34174
 N739 N 0.64548 0.32822 0.31917
 N740 N 0.64558 0.31803 0.32820
 C741 C 0.63442 0.30972 0.32591
 C742 C 0.62684 0.31497 0.31481
 C743 C 0.63421 0.32677 0.31086
 H744 H 0.63219 0.30039 0.33174
 H745 H 0.63163 0.33377 0.30251
 N746 N 0.67390 0.31791 0.35728
 N747 N 0.68213 0.32884 0.35881
 C748 C 0.69010 0.32710 0.37019
 C749 C 0.68676 0.31445 0.37616
 C750 C 0.67637 0.30893 0.36770
 H751 H 0.69788 0.33445 0.37377
 H752 H 0.67121 0.29898 0.36886
 H753 H 0.67635 0.32819 0.33294
 H754 H 0.66226 0.33712 0.34314
 N755 N 0.68239 0.85818 0.83059
 N756 N 0.67241 0.85822 0.82118
 C757 C 0.67453 0.86903 0.81256
 C758 C 0.68649 0.87617 0.81683
 C759 C 0.69115 0.86890 0.82831
 H760 H 0.66781 0.87156 0.80390
 H761 H 0.70028 0.87115 0.83458
 Cu762 Cu 0.65764 0.84410 0.82130
 Cu763 Cu 0.68337 0.84440 0.84523
 Cu764 Cu 0.65790 0.81871 0.84536
 N765 N 0.64366 0.82923 0.82129
 N766 N 0.64387 0.81940 0.83071
 C767 C 0.63319 0.81053 0.82838
 C768 C 0.62579 0.81497 0.81685
 C769 C 0.63280 0.82691 0.81262
 H770 H 0.63106 0.80146 0.83462
 H771 H 0.63015 0.83347 0.80394
 N772 N 0.67299 0.81979 0.85932
 N773 N 0.68268 0.82960 0.85923
 C774 C 0.69151 0.82757 0.86993
 C775 C 0.68722 0.81588 0.87717
 C776 C 0.67541 0.81124 0.87009
 H777 H 0.70047 0.83409 0.87220
 H778 H 0.66899 0.80232 0.87260
 H779 H 0.67334 0.82880 0.83419
 H780 H 0.66209 0.83974 0.84579
 N781 N 0.18191 0.35947 0.83057
 N782 N 0.17251 0.35931 0.82063
 C783 C 0.17502 0.37002 0.81200
 C784 C 0.18667 0.37730 0.81680
 C785 C 0.19072 0.37023 0.82864
 H786 H 0.16881 0.37233 0.80292
 H787 H 0.19954 0.37256 0.83530
 Cu788 Cu 0.15789 0.34515 0.82016
 Cu789 Cu 0.18250 0.34546 0.84505
 Cu790 Cu 0.15930 0.31782 0.84178
 N791 N 0.14379 0.33049 0.81960
 N792 N 0.14430 0.31987 0.82812
 C793 C 0.13346 0.31128 0.82539
 C794 C 0.12566 0.31680 0.81455
 C795 C 0.13260 0.32903 0.81119
 H796 H 0.13150 0.30169 0.83088
 H797 H 0.12980 0.33632 0.80317
 N798 N 0.17297 0.31940 0.85712
 N799 N 0.18155 0.33010 0.85842
 C800 C 0.18957 0.32831 0.86973
 C801 C 0.18595 0.31585 0.87596
 C802 C 0.17530 0.31051 0.86765
 H803 H 0.19759 0.33552 0.87306
 H804 H 0.16971 0.30083 0.86908
 H805 H 0.17457 0.33028 0.83240
 H806 H 0.16161 0.33890 0.84420
 N807 N 0.18262 0.85969 0.33042
 N808 N 0.17410 0.85871 0.31978
 C809 C 0.17663 0.86935 0.31109
 C810 C 0.18738 0.87745 0.31656
 C811 C 0.19088 0.87094 0.32887
 H812 H 0.17111 0.87097 0.30146
 H813 H 0.19897 0.87397 0.33612
 Cu814 Cu 0.16057 0.84361 0.31818
 Cu815 Cu 0.18309 0.84587 0.34503
 Cu816 Cu 0.16044 0.81783 0.34176
 N817 N 0.14547 0.82997 0.31904
 N818 N 0.14542 0.81990 0.32820
 C819 C 0.13411 0.81175 0.32602
 C820 C 0.12657 0.81700 0.31487
 C821 C 0.13416 0.82862 0.31077
 H822 H 0.13168 0.80261 0.33206
 H823 H 0.13179 0.83549 0.30226
 N824 N 0.17381 0.81984 0.35726
 N825 N 0.18214 0.83072 0.35862
 C826 C 0.19004 0.82914 0.37005
 C827 C 0.18658 0.81664 0.37628
 C828 C 0.17618 0.81105 0.36786
 H829 H 0.19788 0.83652 0.37345
 H830 H 0.17082 0.80123 0.36922
 H831 H 0.17637 0.82981 0.33286
 H832 H 0.16237 0.83906 0.34287
 C833 C 0.24512 1.00141 0.25439
 C834 C 0.25485 1.00149 0.24411
 C835 C 0.26032 1.01473 0.23854
 C836 C 0.26008 0.98852 0.23755
 C837 C 0.23984 0.98836 0.26070
 C838 C 0.23966 1.01457 0.26018
 C839 C 0.25410 1.02060 0.22681
 C840 C 0.25955 1.03281 0.22113
 C841 C 0.27148 1.03924 0.22696
 C842 C 0.27752 1.03337 0.23891
 C843 C 0.27192 1.02126 0.24470
 C844 C 0.25070 0.97898 0.23155
 C845 C 0.25574 0.96678 0.22542
 C846 C 0.27026 0.96394 0.22511
 C847 C 0.27963 0.97361 0.23096
 C848 C 0.27459 0.98580 0.23707
 C849 C 0.24919 0.97866 0.26647
 C850 C 0.24409 0.96646 0.27252
 C851 C 0.22953 0.96380 0.27301
 C852 C 0.22021 0.97361 0.26734
 C853 C 0.22532 0.98578 0.26129
 C854 C 0.24583 1.02025 0.27205
 C855 C 0.24035 1.03235 0.27796
 C856 C 0.22843 1.03887 0.27222
 C857 C 0.22243 1.03321 0.26013
 C858 C 0.22807 1.02120 0.25412
 H859 H 0.24506 1.01569 0.22203
 H860 H 0.25442 1.03718 0.21214
 H861 H 0.28680 1.03790 0.24360
 H862 H 0.27679 1.01681 0.25380
 H863 H 0.23947 0.98099 0.23163
 H864 H 0.24826 0.95948 0.22107
 H865 H 0.28202 0.99304 0.24157
 H866 H 0.26044 0.98055 0.26632
 H867 H 0.25154 0.95906 0.27672
 H868 H 0.20893 0.97198 0.26776
 H869 H 0.21790 0.99314 0.25697
 H870 H 0.25487 1.01527 0.27674
 H871 H 0.24543 1.03658 0.28706
 H872 H 0.21316 1.03782 0.25551
 H873 H 0.22323 1.01690 0.24491
 H874 H 0.29089 0.97182 0.23068
 C875 C 0.24552 0.50102 0.75526
 C876 C 0.25547 0.50102 0.74509
 C877 C 0.26129 0.51413 0.73933
 C878 C 0.26108 0.48790 0.73912
 C879 C 0.24025 0.48791 0.76150
 C880 C 0.23932 0.51412 0.76072
 C881 C 0.26071 0.51645 0.72503
 C882 C 0.26601 0.52872 0.71939
 C883 C 0.27206 0.53894 0.72794
 C884 C 0.27290 0.53647 0.74226
 C885 C 0.26761 0.52415 0.74790
 C886 C 0.25210 0.47797 0.73315
 C887 C 0.25760 0.46565 0.72765
 C888 C 0.27219 0.46310 0.72795
 C889 C 0.28114 0.47320 0.73372
 C890 C 0.27564 0.48549 0.73921
 C891 C 0.24950 0.47832 0.76759
 C892 C 0.24432 0.46607 0.77346
 C893 C 0.22978 0.46326 0.77347
 C894 C 0.22055 0.47299 0.76752
 C895 C 0.22574 0.48520 0.76163
 C896 C 0.23956 0.51673 0.77500
 C897 C 0.23370 0.52892 0.78036
 C898 C 0.22745 0.53875 0.77154
 C899 C 0.22705 0.53601 0.75723
 C900 C 0.23284 0.52376 0.75188
 H901 H 0.25602 0.50877 0.71823
 H902 H 0.26547 0.53018 0.70829
 H903 H 0.27747 0.54415 0.74912
 H904 H 0.26839 0.52243 0.75895
 H905 H 0.24084 0.47976 0.73278
 H906 H 0.25044 0.45803 0.72333
 H907 H 0.28275 0.49309 0.74365
 H908 H 0.26072 0.48034 0.76783
 H909 H 0.25170 0.45874 0.77790
 H910 H 0.20928 0.47127 0.76760
 H911 H 0.21842 0.49255 0.75711
 H912 H 0.24432 0.50931 0.78200
 H913 H 0.23387 0.53054 0.79145
 H914 H 0.22232 0.54337 0.75015
 H915 H 0.23225 0.52179 0.74086
 H916 H 0.29244 0.47165 0.73388
 C917 C 0.74403 -0.00173 0.24714
 C918 C 0.75416 -0.00157 0.25713
 C919 C 0.75977 -0.01459 0.26334
 C920 C 0.76033 0.01164 0.26232
 C921 C 0.73806 0.01131 0.24130
 C922 C 0.73870 -0.01493 0.24111
 C923 C 0.75077 -0.02442 0.26941
 C924 C 0.75627 -0.03654 0.27529
 C925 C 0.77089 -0.03898 0.27537
 C926 C 0.77986 -0.02902 0.26942
 C927 C 0.77436 -0.01695 0.26350
 C928 C 0.76030 0.01444 0.27657
 C929 C 0.76618 0.02672 0.28168
 C930 C 0.77227 0.03645 0.27263
 C931 C 0.77243 0.03354 0.25835
 C932 C 0.76661 0.02120 0.25326
 C933 C 0.73849 0.01346 0.22696
 C934 C 0.73317 0.02570 0.22124
 C935 C 0.72724 0.03605 0.22973
 C936 C 0.72652 0.03375 0.24409
 C937 C 0.73185 0.02146 0.24982
 C938 C 0.74792 -0.02457 0.23502
 C939 C 0.74271 -0.03679 0.22907
 C940 C 0.72815 -0.03951 0.22896
 C941 C 0.71895 -0.02978 0.23501
 C942 C 0.72417 -0.01759 0.24098
 H943 H 0.73950 -0.02270 0.26962
 H944 H 0.74906 -0.04405 0.27970
 H945 H 0.79118 -0.03044 0.26954
 H946 H 0.78150 -0.00943 0.25899
 H947 H 0.75568 0.00711 0.28375
 H948 H 0.76617 0.02850 0.29274
 H949 H 0.76702 0.01910 0.24225
 H950 H 0.74312 0.00572 0.22019
 H951 H 0.73362 0.02702 0.21012
 H952 H 0.72207 0.04154 0.25092
 H953 H 0.73120 0.01989 0.26090
 H954 H 0.75915 -0.02259 0.23478
 H955 H 0.75008 -0.04412 0.22458
 H956 H 0.70767 -0.03145 0.23487
 H957 H 0.71688 -0.01020 0.24549
 H958 H 0.77698 0.04084 0.25110
 C959 C 0.74572 0.49813 0.74420
 C960 C 0.75585 0.49796 0.75420
 C961 C 0.76126 0.48477 0.76020
 C962 C 0.76185 0.51100 0.75996
 C963 C 0.73947 0.51135 0.73908
 C964 C 0.74030 0.48511 0.73784
 C965 C 0.75208 0.47493 0.76602
 C966 C 0.75739 0.46278 0.77198
 C967 C 0.77199 0.46031 0.77244
 C968 C 0.78114 0.47025 0.76671
 C969 C 0.77582 0.48235 0.76068
 C970 C 0.76152 0.51327 0.77429
 C971 C 0.76693 0.52551 0.77992
 C972 C 0.77286 0.53573 0.77133
 C973 C 0.77347 0.53333 0.75698
 C974 C 0.76805 0.52104 0.75135
 C975 C 0.73954 0.51422 0.72486
 C976 C 0.73360 0.52650 0.71983
 C977 C 0.72741 0.53617 0.72893
 C978 C 0.72724 0.53321 0.74318
 C979 C 0.73314 0.52088 0.74820
 C980 C 0.74946 0.47545 0.73166
 C981 C 0.74416 0.46330 0.72567
 C982 C 0.72959 0.46065 0.72562
 C983 C 0.72045 0.47042 0.73169
 C984 C 0.72576 0.48254 0.73771
 H985 H 0.74082 0.47672 0.76603
 H986 H 0.75004 0.45529 0.77620
 H987 H 0.79245 0.46882 0.76712
 H988 H 0.78309 0.48988 0.75640
 H989 H 0.75690 0.50559 0.78112
 H990 H 0.76656 0.52695 0.79103
 H991 H 0.76862 0.51938 0.74027
 H992 H 0.74426 0.50695 0.71764
 H993 H 0.73369 0.52833 0.70878
 H994 H 0.72265 0.54048 0.75047
 H995 H 0.73274 0.51875 0.75919
 H996 H 0.76070 0.47734 0.73148
 H997 H 0.75147 0.45592 0.72118
 H998 H 0.70917 0.46880 0.73162
 H999 H 0.71852 0.48991 0.74235
 H1000 H 0.77791 0.54104 0.75010
 C1001 C 0.24588 0.49936 0.24386
 C1002 C 0.25588 0.49936 0.25396
 C1003 C 0.26125 0.48623 0.26012
 C1004 C 0.26204 0.51247 0.25942
 C1005 C 0.23983 0.51246 0.23829
 C1006 C 0.24061 0.48624 0.23760
 C1007 C 0.25204 0.47652 0.26607
 C1008 C 0.25729 0.46432 0.27200
 C1009 C 0.27186 0.46168 0.27223
 C1010 C 0.28105 0.47150 0.26636
 C1011 C 0.27580 0.48366 0.26039
 C1012 C 0.26184 0.51507 0.27370
 C1013 C 0.26773 0.52725 0.27905
 C1014 C 0.27401 0.53705 0.27021
 C1015 C 0.27432 0.53436 0.25590
 C1016 C 0.26845 0.52215 0.25056
 C1017 C 0.24016 0.51487 0.22399
 C1018 C 0.23461 0.52711 0.21851
 C1019 C 0.22854 0.53720 0.22722
 C1020 C 0.22795 0.53465 0.24154
 C1021 C 0.23350 0.52235 0.24702
 C1022 C 0.24989 0.47670 0.23141
 C1023 C 0.24473 0.46453 0.22533
 C1024 C 0.23018 0.46174 0.22522
 C1025 C 0.22093 0.47140 0.23131
 C1026 C 0.22610 0.48355 0.23739
 H1027 H 0.24079 0.47840 0.26616
 H1028 H 0.24992 0.45692 0.27634
 H1029 H 0.29234 0.46990 0.26659
 H1030 H 0.28309 0.49107 0.25594
 H1031 H 0.25706 0.50767 0.28072
 H1032 H 0.26753 0.52890 0.29013
 H1033 H 0.26894 0.52022 0.23953
 H1034 H 0.24485 0.50730 0.21706
 H1035 H 0.23499 0.52864 0.20742
 H1036 H 0.22340 0.54224 0.24851
 H1037 H 0.23290 0.52056 0.25807
 H1038 H 0.26111 0.47872 0.23124
 H1039 H 0.25212 0.45725 0.22080
 H1040 H 0.20967 0.46968 0.23118
 H1041 H 0.21877 0.49086 0.24198
 H1042 H 0.27899 0.54175 0.24882
 C1043 C 0.74398 1.00097 0.75574
 C1044 C 0.75405 1.00121 0.74567
 C1045 C 0.76006 1.01444 0.74034
 C1046 C 0.75985 0.98821 0.73961
 C1047 C 0.73872 0.98771 0.76173
 C1048 C 0.73775 1.01396 0.76141
 C1049 C 0.76002 1.01705 0.72607
 C1050 C 0.76589 1.02927 0.72082
 C1051 C 0.77198 1.03913 0.72976
 C1052 C 0.77211 1.03644 0.74406
 C1053 C 0.76627 1.02418 0.74930
 C1054 C 0.75104 0.97829 0.73339
 C1055 C 0.75670 0.96601 0.72796
 C1056 C 0.77128 0.96350 0.72857
 C1057 C 0.78008 0.97358 0.73459
 C1058 C 0.77442 0.98583 0.74001
 C1059 C 0.74797 0.97806 0.76772
 C1060 C 0.74280 0.96575 0.77349
 C1061 C 0.72825 0.96293 0.77352
 C1062 C 0.71902 0.97269 0.76761
 C1063 C 0.72421 0.98496 0.76181
 C1064 C 0.73796 1.01634 0.77573
 C1065 C 0.73216 1.02848 0.78128
 C1066 C 0.72595 1.03847 0.77260
 C1067 C 0.72561 1.03597 0.75825
 C1068 C 0.73137 1.02379 0.75272
 H1069 H 0.75542 1.00960 0.71897
 H1070 H 0.76587 1.03089 0.70974
 H1071 H 0.77666 1.04384 0.75123
 H1072 H 0.76666 1.02224 0.76033
 H1073 H 0.73978 0.98003 0.73280
 H1074 H 0.74966 0.95839 0.72345
 H1075 H 0.78139 0.99341 0.74467
 H1076 H 0.75919 0.98009 0.76800
 H1077 H 0.75020 0.95841 0.77787
 H1078 H 0.70776 0.97097 0.76770
 H1079 H 0.71688 0.99234 0.75736
 H1080 H 0.74271 1.00881 0.78263
 H1081 H 0.73235 1.02995 0.79239
 H1082 H 0.72098 1.04349 0.75128
 H1083 H 0.73087 1.02203 0.74166
 H1084 H 0.79137 0.97205 0.73500
 C1085 C 0.74478 0.50071 0.25576
 C1086 C 0.75456 0.50072 0.24541
 C1087 C 0.76034 0.51384 0.23960
 C1088 C 0.75985 0.48759 0.23913
 C1089 C 0.73959 0.48757 0.26207
 C1090 C 0.73857 0.51382 0.26121
 C1091 C 0.75964 0.51619 0.22530
 C1092 C 0.76501 0.52843 0.21961
 C1093 C 0.77129 0.53856 0.22810
 C1094 C 0.77219 0.53610 0.24242
 C1095 C 0.76680 0.52383 0.24812
 C1096 C 0.75056 0.47787 0.23327
 C1097 C 0.75574 0.46567 0.22722
 C1098 C 0.77032 0.46303 0.22681
 C1099 C 0.77957 0.47289 0.23254
 C1100 C 0.77439 0.48506 0.23859
 C1101 C 0.74894 0.47787 0.26786
 C1102 C 0.74383 0.46562 0.27383
 C1103 C 0.72927 0.46290 0.27422
 C1104 C 0.71996 0.47273 0.26855
 C1105 C 0.72507 0.48494 0.26258
 C1106 C 0.73890 0.51654 0.27547
 C1107 C 0.73298 0.52873 0.28080
 C1108 C 0.72652 0.53843 0.27197
 C1109 C 0.72606 0.53559 0.25769
 C1110 C 0.73193 0.52336 0.25237
 H1111 H 0.75483 0.50857 0.21853
 H1112 H 0.76440 0.52988 0.20852
 H1113 H 0.77690 0.54373 0.24924
 H1114 H 0.76767 0.52211 0.25916
 H1115 H 0.73932 0.47975 0.23334
 H1116 H 0.74834 0.45825 0.22296
 H1117 H 0.78173 0.49251 0.24290
 H1118 H 0.76017 0.47981 0.26779
 H1119 H 0.75128 0.45822 0.27802
 H1120 H 0.70869 0.47107 0.26891
 H1121 H 0.71767 0.49235 0.25829
 H1122 H 0.74379 0.50922 0.28249
 H1123 H 0.73326 0.53045 0.29187
 H1124 H 0.72123 0.54288 0.25060
 H1125 H 0.73128 0.52131 0.24137
 H1126 H 0.79086 0.47128 0.23216
 C1127 C 0.24472 -0.00151 0.74474
 C1128 C 0.25519 -0.00146 0.75426
 C1129 C 0.26076 -0.01453 0.76022
 C1130 C 0.26068 0.01174 0.75996
 C1131 C 0.23921 0.01156 0.73874
 C1132 C 0.23914 -0.01468 0.73907
 C1133 C 0.25213 -0.02292 0.76851
 C1134 C 0.25742 -0.03513 0.77434
 C1135 C 0.27153 -0.03908 0.77219
 C1136 C 0.28013 -0.03061 0.76386
 C1137 C 0.27478 -0.01847 0.75792
 C1138 C 0.25298 0.01896 0.77006
 C1139 C 0.25807 0.03149 0.77545
 C1140 C 0.27097 0.03697 0.77083
 C1141 C 0.27861 0.02967 0.76066
 C1142 C 0.27350 0.01718 0.75526
 C1143 C 0.24779 0.01969 0.73015
 C1144 C 0.24257 0.03191 0.72426
 C1145 C 0.22861 0.03616 0.72676
 C1146 C 0.22007 0.02797 0.73541
 C1147 C 0.22533 0.01577 0.74133
 C1148 C 0.24664 -0.02184 0.72879
 C1149 C 0.24137 -0.03426 0.72334
 C1150 C 0.22851 -0.03971 0.72811
 C1151 C 0.22110 -0.03251 0.73850
 C1152 C 0.22637 -0.02009 0.74391
 H1153 H 0.24131 -0.01996 0.77052
 H1154 H 0.25044 -0.04149 0.78053
 H1155 H 0.29109 -0.03321 0.76214
 H1156 H 0.28161 -0.01220 0.75151
 H1157 H 0.24301 0.01489 0.77372
 H1158 H 0.25183 0.03696 0.78310
 H1159 H 0.27948 0.01185 0.74733
 H1160 H 0.25852 0.01652 0.72795
 H1161 H 0.24948 0.03806 0.71780
 H1162 H 0.20923 0.03084 0.73740
 H1163 H 0.21854 0.00966 0.74795
 H1164 H 0.25657 -0.01780 0.72502
 H1165 H 0.24740 -0.03968 0.71549
 H1166 H 0.21111 -0.03637 0.74230
 H1167 H 0.22053 -0.01477 0.75197
 H1168 H 0.28864 0.03354 0.75698
 C1169 C 0.25497 0.24334 0.99896
 C1170 C 0.24472 0.25327 0.99890
 C1171 C 0.23841 0.25868 1.01191
 C1172 C 0.23929 0.25940 0.98584
 C1173 C 0.26072 0.23741 0.98591
 C1174 C 0.26099 0.23783 1.01205
 C1175 C 0.23206 0.24973 1.02153
 C1176 C 0.22611 0.25505 1.03367
 C1177 C 0.22629 0.26944 1.03635
 C1178 C 0.23246 0.27837 1.02657
 C1179 C 0.23843 0.27304 1.01447
 C1180 C 0.22476 0.25931 0.98320
 C1181 C 0.21941 0.26530 0.97115
 C1182 C 0.22848 0.27158 0.96151
 C1183 C 0.24304 0.27172 0.96422
 C1184 C 0.24839 0.26576 0.97631
 C1185 C 0.27528 0.23778 0.98351
 C1186 C 0.28090 0.23239 0.97127
 C1187 C 0.27207 0.22642 0.96121
 C1188 C 0.25749 0.22585 0.96374
 C1189 C 0.25187 0.23124 0.97602
 C1190 C 0.26701 0.24671 1.02196
 C1191 C 0.27246 0.24132 1.03429
 C1192 C 0.27208 0.22693 1.03686
 C1193 C 0.26634 0.21806 1.02675
 C1194 C 0.26089 0.22345 1.01447
 H1195 H 0.23171 0.23863 1.01962
 H1196 H 0.22150 0.24790 1.04103
 H1197 H 0.23252 0.28951 1.02819
 H1198 H 0.24315 0.28013 1.00711
 H1199 H 0.21756 0.25458 0.99050
 H1200 H 0.20813 0.26525 0.96952
 H1201 H 0.25961 0.26618 0.97827
 H1202 H 0.28229 0.24239 0.99107
 H1203 H 0.29219 0.23275 0.96975
 H1204 H 0.25041 0.22140 0.95616
 H1205 H 0.24062 0.23064 0.97779
 H1206 H 0.26744 0.25782 1.02017
 H1207 H 0.27678 0.24842 1.04189
 H1208 H 0.26616 0.20691 1.02829
 H1209 H 0.25645 0.21641 1.00688
 H1210 H 0.25032 0.27639 0.95696
 C1211 C 0.25517 0.74470 0.49977
 C1212 C 0.24532 0.75502 0.49976
 C1213 C 0.23954 0.76091 0.51281
 C1214 C 0.23984 0.76110 0.48670
 C1215 C 0.26031 0.73823 0.48673
 C1216 C 0.26124 0.73915 0.51282
 C1217 C 0.23311 0.75239 0.52277
 C1218 C 0.22775 0.75815 0.53499
 C1219 C 0.22859 0.77256 0.53740
 C1220 C 0.23479 0.78107 0.52727
 C1221 C 0.24018 0.77530 0.51511
 C1222 C 0.22526 0.76149 0.48435
 C1223 C 0.21988 0.76741 0.47227
 C1224 C 0.22897 0.77314 0.46231
 C1225 C 0.24358 0.77281 0.46473
 C1226 C 0.24896 0.76691 0.47684
 C1227 C 0.27481 0.73780 0.48399
 C1228 C 0.27986 0.73169 0.47185
 C1229 C 0.27050 0.72582 0.46220
 C1230 C 0.25597 0.72607 0.46507
 C1231 C 0.25092 0.73217 0.47725
 C1232 C 0.26786 0.74792 0.52247
 C1233 C 0.27334 0.74247 0.53476
 C1234 C 0.27241 0.72815 0.53755
 C1235 C 0.26609 0.71939 0.52768
 C1236 C 0.26060 0.72483 0.51545
 H1237 H 0.23227 0.74128 0.52108
 H1238 H 0.22311 0.75130 0.54261
 H1239 H 0.23536 0.79222 0.52867
 H1240 H 0.24497 0.78206 0.50749
 H1241 H 0.21805 0.75717 0.49189
 H1242 H 0.20857 0.76772 0.47085
 H1243 H 0.26023 0.76694 0.47856
 H1244 H 0.28222 0.74228 0.49126
 H1245 H 0.29112 0.73140 0.47009
 H1246 H 0.24849 0.72169 0.45782
 H1247 H 0.23971 0.73215 0.47931
 H1248 H 0.26872 0.75897 0.52050
 H1249 H 0.27811 0.74950 0.54216
 H1250 H 0.26547 0.70828 0.52938
 H1251 H 0.25569 0.71787 0.50806
 H1252 H 0.25087 0.77706 0.45723
 C1253 C 0.24487 0.74428 -0.00008
 C1254 C 0.25503 0.75429 -0.00010
 C1255 C 0.26089 0.76006 -0.01315
 C1256 C 0.26080 0.76016 0.01295
 C1257 C 0.23946 0.73813 0.01299
 C1258 C 0.23857 0.73892 -0.01313
 C1259 C 0.26700 0.75140 -0.02324
 C1260 C 0.27238 0.75707 -0.03547
 C1261 C 0.27183 0.77150 -0.03779
 C1262 C 0.26597 0.78013 -0.02753
 C1263 C 0.26060 0.77447 -0.01534
 C1264 C 0.27537 0.75981 0.01528
 C1265 C 0.28102 0.76527 0.02746
 C1266 C 0.27221 0.77130 0.03752
 C1267 C 0.25762 0.77183 0.03507
 C1268 C 0.25197 0.76636 0.02286
 C1269 C 0.22494 0.73829 0.01571
 C1270 C 0.21963 0.73251 0.02789
 C1271 C 0.22874 0.72639 0.03759
 C1272 C 0.24328 0.72613 0.03478
 C1273 C 0.24858 0.73187 0.02256
 C1274 C 0.23225 0.74793 -0.02271
 C1275 C 0.22638 0.74268 -0.03492
 C1276 C 0.22655 0.72831 -0.03769
 C1277 C 0.23271 0.71932 -0.02795
 C1278 C 0.23862 0.72458 -0.01579
 H1279 H 0.26757 0.74027 -0.02163
 H1280 H 0.27679 0.75016 -0.04320
 H1281 H 0.26566 0.79130 -0.02887
 H1282 H 0.25608 0.78133 -0.00762
 H1283 H 0.28237 0.75520 0.00769
 H1284 H 0.29232 0.76492 0.02894
 H1285 H 0.24071 0.76694 0.02113
 H1286 H 0.21771 0.74296 0.00840
 H1287 H 0.20836 0.73264 0.02961
 H1288 H 0.25059 0.72157 0.04208
 H1289 H 0.25979 0.73142 0.02055
 H1290 H 0.23188 0.75901 -0.02075
 H1291 H 0.22181 0.74989 -0.04224
 H1292 H 0.23278 0.70819 -0.02963
 H1293 H 0.24333 0.71745 -0.00846
 H1294 H 0.25056 0.77633 0.04266
 C1295 C 0.24364 0.24587 0.50069
 C1296 C 0.25341 0.25618 0.50082
 C1297 C 0.25897 0.26255 0.48795
 C1298 C 0.25881 0.26168 0.51407
 C1299 C 0.23823 0.23995 0.51376
 C1300 C 0.23840 0.23954 0.48767
 C1301 C 0.27355 0.26304 0.48563
 C1302 C 0.27892 0.26888 0.47351
 C1303 C 0.26981 0.27443 0.46347
 C1304 C 0.25521 0.27411 0.46591
 C1305 C 0.24984 0.26829 0.47806
 C1306 C 0.27002 0.25508 0.52080
 C1307 C 0.27524 0.26046 0.53321
 C1308 C 0.26921 0.27243 0.53921
 C1309 C 0.25780 0.27885 0.53245
 C1310 C 0.25272 0.27356 0.51994
 C1311 C 0.22663 0.24593 0.52047
 C1312 C 0.22121 0.23990 0.53250
 C1313 C 0.22743 0.22786 0.53812
 C1314 C 0.23931 0.22216 0.53146
 C1315 C 0.24458 0.22809 0.51934
 C1316 C 0.22390 0.23919 0.48497
 C1317 C 0.21883 0.23325 0.47276
 C1318 C 0.22817 0.22745 0.46305
 C1319 C 0.24271 0.22766 0.46586
 C1320 C 0.24777 0.23360 0.47809
 H1321 H 0.28080 0.25874 0.49313
 H1322 H 0.29022 0.26919 0.47206
 H1323 H 0.24791 0.27823 0.45834
 H1324 H 0.23856 0.26822 0.47974
 H1325 H 0.27479 0.24586 0.51636
 H1326 H 0.28417 0.25536 0.53798
 H1327 H 0.24396 0.27867 0.51487
 H1328 H 0.22165 0.25513 0.51625
 H1329 H 0.21195 0.24448 0.53720
 H1330 H 0.24458 0.21310 0.53563
 H1331 H 0.25363 0.22344 0.51429
 H1332 H 0.21648 0.24364 0.49226
 H1333 H 0.20757 0.23302 0.47101
 H1334 H 0.25017 0.22336 0.45854
 H1335 H 0.25899 0.23357 0.48009
 H1336 H 0.25270 0.28789 0.53688
 C1337 C 0.75655 0.74329 1.00001
 C1338 C 0.74654 0.75346 0.99991
 C1339 C 0.74064 0.75932 1.01291
 C1340 C 0.74114 0.75953 0.98682
 C1341 C 0.76188 0.73691 0.98701
 C1342 C 0.76281 0.73807 1.01312
 C1343 C 0.73429 0.75076 1.02288
 C1344 C 0.72883 0.75652 1.03506
 C1345 C 0.72953 0.77095 1.03740
 C1346 C 0.73568 0.77948 1.02727
 C1347 C 0.74114 0.77372 1.01514
 C1348 C 0.72658 0.75985 0.98435
 C1349 C 0.72126 0.76587 0.97230
 C1350 C 0.73040 0.77179 0.96249
 C1351 C 0.74499 0.77154 0.96503
 C1352 C 0.75030 0.76553 0.97711
 C1353 C 0.77641 0.73670 0.98435
 C1354 C 0.78161 0.73082 0.97215
 C1355 C 0.77239 0.72495 0.96238
 C1356 C 0.75783 0.72501 0.96516
 C1357 C 0.75264 0.73086 0.97739
 C1358 C 0.76922 0.74716 1.02259
 C1359 C 0.77508 0.74206 1.03484
 C1360 C 0.77480 0.72773 1.03778
 C1361 C 0.76857 0.71865 1.02815
 C1362 C 0.76267 0.72376 1.01594
 H1363 H 0.73360 0.73964 1.02124
 H1364 H 0.72423 0.74968 1.04271
 H1365 H 0.73615 0.79065 1.02866
 H1366 H 0.74589 0.78051 1.00752
 H1367 H 0.71933 0.75541 0.99179
 H1368 H 0.70997 0.76612 0.97079
 H1369 H 0.76155 0.76563 0.97894
 H1370 H 0.78372 0.74120 0.99170
 H1371 H 0.79288 0.73071 0.97045
 H1372 H 0.75045 0.72064 0.95781
 H1373 H 0.74141 0.73069 0.97936
 H1374 H 0.76969 0.75821 1.02049
 H1375 H 0.77973 0.74934 1.04207
 H1376 H 0.76843 0.70754 1.02995
 H1377 H 0.75793 0.71656 1.00869
 H1378 H 0.75231 0.77594 0.95764
 C1379 C 0.75611 0.24241 0.49928
 C1380 C 0.74608 0.25256 0.49920
 C1381 C 0.74030 0.25849 0.51222
 C1382 C 0.74032 0.25840 0.48612
 C1383 C 0.76253 0.23706 0.48628
 C1384 C 0.76129 0.23615 0.51239
 C1385 C 0.72572 0.25829 0.51449
 C1386 C 0.72004 0.26382 0.52663
 C1387 C 0.72884 0.26975 0.53674
 C1388 C 0.74345 0.27016 0.53435
 C1389 C 0.74913 0.26461 0.52217
 C1390 C 0.73412 0.24983 0.47603
 C1391 C 0.72862 0.25561 0.46389
 C1392 C 0.72916 0.27006 0.46167
 C1393 C 0.73516 0.27858 0.47193
 C1394 C 0.74063 0.27282 0.48402
 C1395 C 0.76906 0.24606 0.47683
 C1396 C 0.77504 0.24084 0.46466
 C1397 C 0.77475 0.22649 0.46179
 C1398 C 0.76842 0.21750 0.47142
 C1399 C 0.76241 0.22274 0.48355
 C1400 C 0.77576 0.23614 0.51527
 C1401 C 0.78084 0.23034 0.52754
 C1402 C 0.77154 0.22435 0.53716
 C1403 C 0.75704 0.22421 0.53416
 C1404 C 0.75197 0.22999 0.52186
 H1405 H 0.71873 0.25374 0.50687
 H1406 H 0.70873 0.26358 0.52806
 H1407 H 0.75050 0.27460 0.54197
 H1408 H 0.76040 0.26508 0.52049
 H1409 H 0.73353 0.23869 0.47757
 H1410 H 0.72411 0.24876 0.45617
 H1411 H 0.74521 0.27962 0.49175
 H1412 H 0.76953 0.25713 0.47888
 H1413 H 0.77977 0.24804 0.45743
 H1414 H 0.76827 0.20637 0.46967
 H1415 H 0.75757 0.21560 0.49080
 H1416 H 0.78314 0.24074 0.50805
 H1417 H 0.79208 0.23039 0.52940
 H1418 H 0.74959 0.21977 0.54139
 H1419 H 0.74078 0.22967 0.51973
 H1420 H 0.73549 0.28976 0.47066
 C1421 C 0.74484 0.24405 0.00109
 C1422 C 0.75490 0.25416 0.00108
 C1423 C 0.76064 0.26006 -0.01196
 C1424 C 0.76072 0.25997 0.01414
 C1425 C 0.73953 0.23777 0.01414
 C1426 C 0.73856 0.23869 -0.01196
 C1427 C 0.76684 0.25153 -0.02209
 C1428 C 0.77214 0.25733 -0.03430
 C1429 C 0.77143 0.27177 -0.03655
 C1430 C 0.76543 0.28027 -0.02626
 C1431 C 0.76013 0.27448 -0.01409
 C1432 C 0.77531 0.25975 0.01635
 C1433 C 0.78101 0.26516 0.02852
 C1434 C 0.77223 0.27101 0.03871
 C1435 C 0.75761 0.27142 0.03639
 C1436 C 0.75191 0.26599 0.02418
 C1437 C 0.72502 0.23776 0.01689
 C1438 C 0.71980 0.23183 0.02903
 C1439 C 0.72898 0.22569 0.03866
 C1440 C 0.74352 0.22559 0.03581
 C1441 C 0.74874 0.23151 0.02363
 C1442 C 0.73212 0.24767 -0.02150
 C1443 C 0.72629 0.24241 -0.03371
 C1444 C 0.72663 0.22805 -0.03654
 C1445 C 0.73292 0.21909 -0.02686
 C1446 C 0.73879 0.22436 -0.01470
 H1447 H 0.76756 0.24041 -0.02054
 H1448 H 0.77662 0.25050 -0.04206
 H1449 H 0.76496 0.29144 -0.02755
 H1450 H 0.75551 0.28124 -0.00635
 H1451 H 0.78229 0.25528 0.00866
 H1452 H 0.79233 0.26492 0.02990
 H1453 H 0.74063 0.26648 0.02255
 H1454 H 0.71773 0.24242 0.00963
 H1455 H 0.70853 0.23185 0.03079
 H1456 H 0.75088 0.22103 0.04306
 H1457 H 0.75995 0.23118 0.02160
 H1458 H 0.73160 0.25874 -0.01947
 H1459 H 0.72162 0.24959 -0.04100
 H1460 H 0.73312 0.20797 -0.02859
 H1461 H 0.74360 0.21725 -0.00741
 H1462 H 0.75058 0.27579 0.04407
 C1463 C 0.74526 0.74313 0.50106
 C1464 C 0.75494 0.75359 0.50119
 C1465 C 0.76077 0.75956 0.48822
 C1466 C 0.76004 0.75989 0.51431
 C1467 C 0.73995 0.73673 0.51404
 C1468 C 0.73921 0.73770 0.48794
 C1469 C 0.76732 0.75112 0.47823
 C1470 C 0.77263 0.75695 0.46605
 C1471 C 0.77161 0.77135 0.46369
 C1472 C 0.76528 0.77978 0.47385
 C1473 C 0.75996 0.77395 0.48599
 C1474 C 0.77455 0.76058 0.51691
 C1475 C 0.77958 0.76682 0.52899
 C1476 C 0.77019 0.77256 0.53870
 C1477 C 0.75564 0.77195 0.53602
 C1478 C 0.75061 0.76573 0.52391
 C1479 C 0.72540 0.73618 0.51652
 C1480 C 0.72018 0.73019 0.52863
 C1481 C 0.72941 0.72454 0.53851
 C1482 C 0.74400 0.72494 0.53592
 C1483 C 0.74921 0.73093 0.52378
 C1484 C 0.73261 0.74662 0.47845
 C1485 C 0.72682 0.74133 0.46624
 C1486 C 0.72733 0.72698 0.46337
 C1487 C 0.73380 0.71808 0.47298
 C1488 C 0.73965 0.72339 0.48515
 H1489 H 0.76828 0.74002 0.47986
 H1490 H 0.77737 0.75017 0.45839
 H1491 H 0.76456 0.79093 0.47248
 H1492 H 0.75508 0.78066 0.49363
 H1493 H 0.78200 0.75628 0.50956
 H1494 H 0.79085 0.76735 0.53062
 H1495 H 0.73938 0.76554 0.52196
 H1496 H 0.71807 0.74052 0.50910
 H1497 H 0.70889 0.72983 0.53019
 H1498 H 0.75138 0.72077 0.54337
 H1499 H 0.76047 0.73105 0.52197
 H1500 H 0.73189 0.75767 0.48053
 H1501 H 0.72201 0.74848 0.45902
 H1502 H 0.73413 0.70696 0.47122
 H1503 H 0.74455 0.71632 0.49241
 H1504 H 0.74814 0.77622 0.54334
 C1505 C 1.00065 0.25615 0.24480
 C1506 C 1.00100 0.24570 0.25422
 C1507 C 1.01456 0.24049 0.25962
 C1508 C 0.98804 0.23895 0.25950
 C1509 C 0.98730 0.26228 0.23967
 C1510 C 1.01385 0.26220 0.23945
 C1511 C 1.02074 0.22862 0.25381
 C1512 C 1.03342 0.22348 0.25907
 C1513 C 1.04002 0.23002 0.27039
 C1514 C 1.03372 0.24199 0.27612
 C1515 C 1.02117 0.24723 0.27070
 C1516 C 0.97817 0.23309 0.25039
 C1517 C 0.96589 0.22696 0.25552
 C1518 C 0.96335 0.22648 0.26985
 C1519 C 0.97341 0.23210 0.27892
 C1520 C 0.98564 0.23825 0.27380
 C1521 C 0.97730 0.26780 0.24888
 C1522 C 0.96481 0.27366 0.24388
 C1523 C 0.96215 0.27418 0.22958
 C1524 C 0.97228 0.26878 0.22040
 C1525 C 0.98473 0.26293 0.22540
 C1526 C 1.01942 0.27418 0.24559
 C1527 C 1.03180 0.28008 0.24045
 C1528 C 1.03868 0.27420 0.22892
 C1529 C 1.03301 0.26209 0.22287
 C1530 C 1.02076 0.25609 0.22818
 H1531 H 1.01576 0.22338 0.24517
 H1532 H 1.03808 0.21443 0.25420
 H1533 H 1.03833 0.24716 0.28498
 H1534 H 1.01646 0.25641 0.27529
 H1535 H 0.97995 0.23331 0.23932
 H1536 H 0.95831 0.22277 0.24827
 H1537 H 0.99315 0.24261 0.28102
 H1538 H 0.97919 0.26761 0.25993
 H1539 H 0.95719 0.27768 0.25121
 H1540 H 0.97066 0.26925 0.20932
 H1541 H 0.99232 0.25882 0.21809
 H1542 H 1.01420 0.27892 0.25439
 H1543 H 1.03599 0.28920 0.24555
 H1544 H 1.03784 0.25740 0.21386
 H1545 H 1.01653 0.24680 0.22338
 H1546 H 0.97187 0.23164 0.29002
 C1547 C 0.49981 0.25718 0.74635
 C1548 C 0.49949 0.24707 0.75619
 C1549 C 0.51259 0.24123 0.76220
 C1550 C 0.48609 0.24088 0.76116
 C1551 C 0.48671 0.26313 0.74044
 C1552 C 0.51326 0.26240 0.74046
 C1553 C 0.51492 0.22684 0.76157
 C1554 C 0.52721 0.22110 0.76700
 C1555 C 0.53742 0.22965 0.77322
 C1556 C 0.53497 0.24405 0.77406
 C1557 C 0.52262 0.24979 0.76864
 C1558 C 0.47658 0.23463 0.75193
 C1559 C 0.46426 0.22840 0.75687
 C1560 C 0.46131 0.22821 0.77114
 C1561 C 0.47095 0.23436 0.78033
 C1562 C 0.48321 0.24061 0.77539
 C1563 C 0.47636 0.26918 0.74892
 C1564 C 0.46397 0.27445 0.74312
 C1565 C 0.46179 0.27384 0.72873
 C1566 C 0.47231 0.26802 0.72029
 C1567 C 0.48465 0.26275 0.72608
 C1568 C 0.51607 0.27672 0.74051
 C1569 C 0.52844 0.28185 0.73458
 C1570 C 0.53821 0.27275 0.72842
 C1571 C 0.53534 0.25840 0.72836
 C1572 C 0.52294 0.25328 0.73425
 H1573 H 0.50727 0.22006 0.75671
 H1574 H 0.52869 0.20995 0.76641
 H1575 H 0.54269 0.25089 0.77872
 H1576 H 0.52091 0.26090 0.76939
 H1577 H 0.47875 0.23447 0.74093
 H1578 H 0.45701 0.22381 0.74953
 H1579 H 0.49052 0.24522 0.78268
 H1580 H 0.47784 0.26974 0.76002
 H1581 H 0.45601 0.27881 0.74989
 H1582 H 0.47105 0.26762 0.70916
 H1583 H 0.49255 0.25820 0.71936
 H1584 H 0.50864 0.28393 0.74511
 H1585 H 0.53021 0.29297 0.73457
 H1586 H 0.54270 0.25111 0.72378
 H1587 H 0.52083 0.24222 0.73385
 H1588 H 0.46912 0.23413 0.79139
 C1589 C 0.00062 0.24633 0.74430
 C1590 C 0.00048 0.25636 0.75429
 C1591 C -0.01290 0.26161 0.76038
 C1592 C 0.01368 0.26254 0.75985
 C1593 C 0.01398 0.24015 0.73908
 C1594 C -0.01259 0.24065 0.73827
 C1595 C -0.01565 0.27594 0.76050
 C1596 C -0.02798 0.28110 0.76652
 C1597 C -0.03779 0.27203 0.77261
 C1598 C -0.03496 0.25766 0.77255
 C1599 C -0.02260 0.25251 0.76656
 C1600 C 0.02369 0.26864 0.75105
 C1601 C 0.03597 0.27452 0.75649
 C1602 C 0.03841 0.27455 0.77085
 C1603 C 0.02827 0.26857 0.77963
 C1604 C 0.01603 0.26267 0.77418
 C1605 C 0.02372 0.23403 0.74815
 C1606 C 0.03605 0.22794 0.74301
 C1607 C 0.03879 0.22773 0.72870
 C1608 C 0.02891 0.23372 0.71967
 C1609 C 0.01663 0.23983 0.72481
 C1610 C -0.01499 0.22627 0.73857
 C1611 C -0.02735 0.22069 0.73309
 C1612 C -0.03758 0.22938 0.72711
 C1613 C -0.03503 0.24378 0.72654
 C1614 C -0.02263 0.24936 0.73204
 H1615 H -0.00822 0.28314 0.75594
 H1616 H -0.02970 0.29223 0.76662
 H1617 H -0.04234 0.25039 0.77707
 H1618 H -0.02054 0.24143 0.76683
 H1619 H 0.02197 0.26888 0.73997
 H1620 H 0.04361 0.27897 0.74945
 H1621 H 0.00838 0.25815 0.78117
 H1622 H 0.02174 0.23391 0.75918
 H1623 H 0.04347 0.22347 0.75025
 H1624 H 0.03055 0.23347 0.70858
 H1625 H 0.00916 0.24434 0.71763
 H1626 H -0.00732 0.21935 0.74320
 H1627 H -0.02888 0.20954 0.73346
 H1628 H -0.04274 0.25073 0.72204
 H1629 H -0.02087 0.26048 0.73149
 H1630 H 0.02970 0.26865 0.79074
 C1631 C 0.50071 0.24543 0.24576
 C1632 C 0.50064 0.25551 0.25571
 C1633 C 0.48731 0.26134 0.26137
 C1634 C 0.51388 0.26126 0.26157
 C1635 C 0.51402 0.23965 0.24004
 C1636 C 0.48747 0.23957 0.23999
 C1637 C 0.47725 0.26760 0.25275
 C1638 C 0.46476 0.27297 0.25835
 C1639 C 0.46218 0.27223 0.27267
 C1640 C 0.47244 0.26620 0.28126
 C1641 C 0.48487 0.26085 0.27567
 C1642 C 0.51625 0.27564 0.26108
 C1643 C 0.52858 0.28133 0.26654
 C1644 C 0.53878 0.27275 0.27271
 C1645 C 0.53628 0.25834 0.27342
 C1646 C 0.52391 0.25266 0.26795
 C1647 C 0.51641 0.22528 0.24063
 C1648 C 0.52878 0.21957 0.23525
 C1649 C 0.53900 0.22812 0.22907
 C1650 C 0.53649 0.24252 0.22828
 C1651 C 0.52408 0.24823 0.23368
 C1652 C 0.47736 0.23324 0.24852
 C1653 C 0.46498 0.22781 0.24281
 C1654 C 0.46254 0.22855 0.22847
 C1655 C 0.47284 0.23465 0.21997
 C1656 C 0.48518 0.24006 0.22567
 H1657 H 0.47905 0.26830 0.24170
 H1658 H 0.45705 0.27751 0.25146
 H1659 H 0.47090 0.26571 0.29235
 H1660 H 0.49258 0.25620 0.28251
 H1661 H 0.50857 0.28248 0.25635
 H1662 H 0.53007 0.29248 0.26606
 H1663 H 0.52216 0.24155 0.26867
 H1664 H 0.50870 0.21846 0.24534
 H1665 H 0.53027 0.20842 0.23579
 H1666 H 0.54420 0.24937 0.22364
 H1667 H 0.52232 0.25933 0.23290
 H1668 H 0.47906 0.23253 0.25957
 H1669 H 0.45722 0.22323 0.24963
 H1670 H 0.47141 0.23514 0.20886
 H1671 H 0.49293 0.24476 0.21890
 H1672 H 0.54396 0.25146 0.27805
 C1673 C 0.99919 0.75623 0.74460
 C1674 C 0.99910 0.74629 0.75462
 C1675 C 1.01232 0.74056 0.76047
 C1676 C 0.98579 0.74025 0.76001
 C1677 C 0.98596 0.76216 0.73895
 C1678 C 1.01250 0.76141 0.73839
 C1679 C 1.01466 0.72617 0.76007
 C1680 C 1.02702 0.72054 0.76547
 C1681 C 1.03727 0.72920 0.77145
 C1682 C 1.03485 0.74362 0.77199
 C1683 C 1.02244 0.74925 0.76659
 C1684 C 0.97606 0.73388 0.75109
 C1685 C 0.96379 0.72788 0.75639
 C1686 C 0.96112 0.72797 0.77071
 C1687 C 0.97096 0.73428 0.77959
 C1688 C 0.98318 0.74032 0.77429
 C1689 C 0.97590 0.76843 0.74761
 C1690 C 0.96342 0.77377 0.74205
 C1691 C 0.96086 0.77298 0.72773
 C1692 C 0.97110 0.76692 0.71910
 C1693 C 0.98352 0.76160 0.72466
 C1694 C 1.01529 0.77573 0.73831
 C1695 C 1.02758 0.78083 0.73224
 C1696 C 1.03730 0.77171 0.72602
 C1697 C 1.03442 0.75736 0.72600
 C1698 C 1.02209 0.75227 0.73207
 H1699 H 1.00694 0.71929 0.75544
 H1700 H 1.02850 0.70938 0.76507
 H1701 H 1.04264 0.75055 0.77640
 H1702 H 1.02074 0.76038 0.76714
 H1703 H 0.97803 0.73347 0.74006
 H1704 H 0.95638 0.72320 0.74926
 H1705 H 0.99066 0.74504 0.78134
 H1706 H 0.97769 0.76913 0.75866
 H1707 H 0.95571 0.77832 0.74895
 H1708 H 0.96954 0.76640 0.70802
 H1709 H 0.99121 0.75689 0.71780
 H1710 H 1.00793 0.78296 0.74299
 H1711 H 1.02939 0.79195 0.73222
 H1712 H 1.04174 0.75008 0.72137
 H1713 H 1.01999 0.74120 0.73177
 H1714 H 0.96934 0.73431 0.79069
 C1715 C 0.49927 0.75615 0.24454
 C1716 C 0.49923 0.74624 0.25460
 C1717 C 0.51250 0.74073 0.26059
 C1718 C 0.48595 0.74056 0.26042
 C1719 C 0.48603 0.76246 0.23930
 C1720 C 0.51257 0.76134 0.23830
 C1721 C 0.51491 0.72634 0.26071
 C1722 C 0.52716 0.72095 0.26662
 C1723 C 0.53721 0.72985 0.27259
 C1724 C 0.53473 0.74427 0.27251
 C1725 C 0.52245 0.74966 0.26663
 C1726 C 0.47573 0.73438 0.25190
 C1727 C 0.46338 0.72896 0.25766
 C1728 C 0.46109 0.72956 0.27203
 C1729 C 0.47143 0.73560 0.28051
 C1730 C 0.48374 0.74102 0.27477
 C1731 C 0.47645 0.76898 0.24829
 C1732 C 0.46414 0.77502 0.24311
 C1733 C 0.46126 0.77475 0.22884
 C1734 C 0.47099 0.76839 0.21987
 C1735 C 0.48326 0.76234 0.22505
 C1736 C 0.51533 0.77566 0.23818
 C1737 C 0.52771 0.78077 0.23228
 C1738 C 0.53758 0.77165 0.22631
 C1739 C 0.53473 0.75729 0.22633
 C1740 C 0.52231 0.75219 0.23221
 H1741 H 0.50728 0.71927 0.25623
 H1742 H 0.52863 0.70978 0.26677
 H1743 H 0.54230 0.75141 0.27696
 H1744 H 0.52065 0.76078 0.26686
 H1745 H 0.47734 0.73374 0.24083
 H1746 H 0.45556 0.72444 0.25086
 H1747 H 0.49154 0.74565 0.28152
 H1748 H 0.47853 0.76944 0.25930
 H1749 H 0.45681 0.77980 0.25028
 H1750 H 0.46922 0.76825 0.20880
 H1751 H 0.49061 0.75751 0.21793
 H1752 H 0.50790 0.78290 0.24275
 H1753 H 0.52945 0.79190 0.23220
 H1754 H 0.54217 0.74998 0.22190
 H1755 H 0.52029 0.74111 0.23200
 H1756 H 0.47008 0.73600 0.29163
 C1757 C 0.00090 0.74641 0.24607
 C1758 C 0.00076 0.75659 0.25592
 C1759 C -0.01260 0.76186 0.26202
 C1760 C 0.01395 0.76290 0.26131
 C1761 C 0.01425 0.74045 0.24061
 C1762 C -0.01232 0.74042 0.24040
 C1763 C -0.01549 0.77616 0.26179
 C1764 C -0.02782 0.78137 0.26774
 C1765 C -0.03751 0.77238 0.27412
 C1766 C -0.03455 0.75804 0.27442
 C1767 C -0.02217 0.75284 0.26850
 C1768 C 0.02382 0.76906 0.25241
 C1769 C 0.03613 0.77501 0.25773
 C1770 C 0.03872 0.77504 0.27206
 C1771 C 0.02870 0.76903 0.28094
 C1772 C 0.01644 0.76306 0.27562
 C1773 C 0.02430 0.73456 0.24949
 C1774 C 0.03663 0.72867 0.24412
 C1775 C 0.03906 0.72843 0.22975
 C1776 C 0.02890 0.73424 0.22091
 C1777 C 0.01661 0.74015 0.22628
 C1778 C -0.01451 0.72601 0.24107
 C1779 C -0.02682 0.72013 0.23578
 C1780 C -0.03718 0.72853 0.22963
 C1781 C -0.03490 0.74296 0.22881
 C1782 C -0.02255 0.74885 0.23411
 H1783 H -0.00816 0.78331 0.25697
 H1784 H -0.02965 0.79248 0.26756
 H1785 H -0.04183 0.75083 0.27918
 H1786 H -0.02002 0.74179 0.26903
 H1787 H 0.02199 0.76928 0.24135
 H1788 H 0.04368 0.77948 0.25061
 H1789 H 0.00889 0.75848 0.28268
 H1790 H 0.02255 0.73443 0.26056
 H1791 H 0.04428 0.72437 0.25122
 H1792 H 0.03031 0.73399 0.20979
 H1793 H 0.00891 0.74450 0.21924
 H1794 H -0.00669 0.71932 0.24578
 H1795 H -0.02814 0.70896 0.23635
 H1796 H -0.04272 0.74971 0.22421
 H1797 H -0.02096 0.75997 0.23330
 H1798 H 0.03024 0.76911 0.29204
 C1799 C 0.50034 0.74771 0.74397
 C1800 C 0.50054 0.75773 0.75396
 C1801 C 0.48736 0.76369 0.75980
 C1802 C 0.51393 0.76288 0.76006
 C1803 C 0.51352 0.74180 0.73803
 C1804 C 0.48695 0.74165 0.73877
 C1805 C 0.47715 0.76989 0.75130
 C1806 C 0.46470 0.77517 0.75703
 C1807 C 0.46229 0.77442 0.77138
 C1808 C 0.47269 0.76847 0.77986
 C1809 C 0.48509 0.76320 0.77414
 C1810 C 0.51673 0.77719 0.76025
 C1811 C 0.52906 0.78226 0.76630
 C1812 C 0.53881 0.77311 0.77236
 C1813 C 0.53591 0.75876 0.77226
 C1814 C 0.52355 0.75370 0.76624
 C1815 C 0.51566 0.72737 0.73837
 C1816 C 0.52801 0.72157 0.73307
 C1817 C 0.53847 0.73006 0.72721
 C1818 C 0.53618 0.74451 0.72659
 C1819 C 0.52379 0.75033 0.73193
 C1820 C 0.47726 0.73541 0.74783
 C1821 C 0.46489 0.72945 0.74270
 C1822 C 0.46205 0.72946 0.72841
 C1823 C 0.47188 0.73557 0.71939
 C1824 C 0.48421 0.74157 0.72452
 H1825 H 0.47879 0.77055 0.74023
 H1826 H 0.45686 0.77962 0.75022
 H1827 H 0.47127 0.76795 0.79097
 H1828 H 0.49287 0.75854 0.78089
 H1829 H 0.50934 0.78445 0.75570
 H1830 H 0.53082 0.79338 0.76646
 H1831 H 0.52143 0.74264 0.76649
 H1832 H 0.50780 0.72060 0.74291
 H1833 H 0.52933 0.71039 0.73346
 H1834 H 0.54407 0.75131 0.72217
 H1835 H 0.52224 0.76147 0.73135
 H1836 H 0.47933 0.73510 0.75884
 H1837 H 0.45751 0.72488 0.74993
 H1838 H 0.47017 0.73549 0.70832
 H1839 H 0.49165 0.74616 0.71736
 H1840 H 0.54324 0.75143 0.77678
 C1841 C 0.41108 0.29448 0.29770
 C1842 C 0.40619 0.30746 0.29277
 C1843 C 0.39426 0.31373 0.29876
 C1844 C 0.38701 0.30729 0.30970
 C1845 C 0.39187 0.29436 0.31447
 C1846 C 0.40369 0.28804 0.30860
 C1847 C 0.42400 0.28825 0.29118
 C1848 C 0.42976 0.27543 0.29540
 C1849 C 0.44200 0.27025 0.28926
 C1850 C 0.44886 0.27765 0.27873
 C1851 C 0.44308 0.29032 0.27427
 C1852 C 0.43077 0.29566 0.28041
 C1853 C 0.41329 0.31417 0.28197
 C1854 C 0.42530 0.30841 0.27593
 H1855 H 0.40953 0.32409 0.27815
 H1856 H 0.43044 0.31407 0.26766
 H1857 H 0.39076 0.32371 0.29492
 H1858 H 0.38656 0.28900 0.32279
 H1859 H 0.44609 0.26035 0.29275
 H1860 H 0.44835 0.29620 0.26623
 H1861 H 0.40686 0.27814 0.31279
 H1862 H 0.42504 0.26924 0.30345
 C1863 C 0.41112 0.79602 0.79675
 C1864 C 0.40577 0.80872 0.79159
 C1865 C 0.39362 0.81468 0.79747
 C1866 C 0.38666 0.80828 0.80867
 C1867 C 0.39217 0.79570 0.81376
 C1868 C 0.40414 0.78967 0.80791
 C1869 C 0.42411 0.79000 0.79019
 C1870 C 0.43009 0.77729 0.79442
 C1871 C 0.44234 0.77225 0.78819
 C1872 C 0.44899 0.77971 0.77758
 C1873 C 0.44299 0.79227 0.77311
 C1874 C 0.43064 0.79743 0.77930
 C1875 C 0.41264 0.81548 0.78066
 C1876 C 0.42483 0.81000 0.77470
 H1877 H 0.40859 0.82523 0.77670
 H1878 H 0.42979 0.81569 0.76635
 H1879 H 0.38979 0.82441 0.79332
 H1880 H 0.38728 0.79028 0.82229
 H1881 H 0.44658 0.76240 0.79166
 H1882 H 0.44808 0.79817 0.76498
 H1883 H 0.40776 0.78005 0.81238
 H1884 H 0.42551 0.77103 0.80250
 C1885 C -0.08780 0.29506 0.79902
 C1886 C -0.09456 0.30625 0.79223
 C1887 C -0.10656 0.31249 0.79812
 C1888 C -0.11202 0.30778 0.81080
 C1889 C -0.10522 0.29670 0.81749
 C1890 C -0.09333 0.29043 0.81172
 C1891 C -0.07502 0.28869 0.79239
 C1892 C -0.06754 0.27751 0.79830
 C1893 C -0.05559 0.27208 0.79182
 C1894 C -0.05076 0.27759 0.77925
 C1895 C -0.05822 0.28863 0.77321
 C1896 C -0.07023 0.29421 0.77966
 C1897 C -0.08932 0.31117 0.77960
 C1898 C -0.07742 0.30529 0.77346
 H1899 H -0.09447 0.31975 0.77438
 H1900 H -0.07376 0.30952 0.76371
 H1901 H -0.11161 0.32100 0.79274
 H1902 H -0.10901 0.29278 0.82728
 H1903 H -0.04995 0.26368 0.79681
 H1904 H -0.05473 0.29284 0.76339
 H1905 H -0.08864 0.28199 0.81742
 H1906 H -0.07065 0.27284 0.80797
 C1907 C -0.08769 0.79560 0.30001
 C1908 C -0.09459 0.80654 0.29294
 C1909 C -0.10664 0.81280 0.29870
 C1910 C -0.11203 0.80836 0.31150
 C1911 C -0.10507 0.79754 0.31847
 C1912 C -0.09312 0.79126 0.31285
 C1913 C -0.07485 0.78919 0.29353
 C1914 C -0.06726 0.77823 0.29971
 C1915 C -0.05527 0.77275 0.29335
 C1916 C -0.05051 0.77800 0.28064
 C1917 C -0.05809 0.78880 0.27433
 C1918 C -0.07015 0.79443 0.28065
 C1919 C -0.08942 0.81118 0.28018
 C1920 C -0.07746 0.80526 0.27418
 H1921 H -0.09468 0.81954 0.27474
 H1922 H -0.07387 0.80926 0.26431
 H1923 H -0.11177 0.82113 0.29313
 H1924 H -0.10881 0.79380 0.32835
 H1925 H -0.04955 0.76454 0.29854
 H1926 H -0.05465 0.79280 0.26441
 H1927 H -0.08834 0.78302 0.31875
 H1928 H -0.07032 0.77378 0.30949
 C1929 C 0.58702 0.70621 0.29849
 C1930 C 0.59365 0.69499 0.29156
 C1931 C 0.60561 0.68862 0.29732
 C1932 C 0.61115 0.69322 0.31001
 C1933 C 0.60448 0.70431 0.31685
 C1934 C 0.59263 0.71072 0.31121
 C1935 C 0.57428 0.71272 0.29200
 C1936 C 0.56699 0.72400 0.29800
 C1937 C 0.55507 0.72955 0.29164
 C1938 C 0.55007 0.72406 0.27913
 C1939 C 0.55734 0.71293 0.27298
 C1940 C 0.56935 0.70725 0.27929
 C1941 C 0.58828 0.69014 0.27895
 C1942 C 0.57639 0.69612 0.27296
 H1943 H 0.59332 0.68153 0.27364
 H1944 H 0.57261 0.69192 0.26323
 H1945 H 0.61057 0.68010 0.29184
 H1946 H 0.60831 0.70809 0.32669
 H1947 H 0.54958 0.73804 0.29669
 H1948 H 0.55371 0.70874 0.26318
 H1949 H 0.58804 0.71917 0.31703
 H1950 H 0.57024 0.72865 0.30764
 C1951 C 0.58800 0.20432 0.79577
 C1952 C 0.59265 0.20916 0.80882
 C1953 C 0.60450 0.20315 0.81511
 C1954 C 0.61192 0.19230 0.80860
 C1955 C 0.60727 0.18758 0.79563
 C1956 C 0.59551 0.19348 0.78929
 C1957 C 0.57519 0.21089 0.78949
 C1958 C 0.56967 0.20675 0.77660
 C1959 C 0.55754 0.21296 0.77133
 C1960 C 0.55057 0.22347 0.77874
 C1961 C 0.55609 0.22784 0.79149
 C1962 C 0.56829 0.22163 0.79691
 C1963 C 0.58542 0.21992 0.81557
 C1964 C 0.57351 0.22602 0.80974
 H1965 H 0.58900 0.22367 0.82555
 H1966 H 0.56826 0.23428 0.81540
 H1967 H 0.60782 0.20690 0.82515
 H1968 H 0.61273 0.17933 0.79023
 H1969 H 0.55362 0.20956 0.76136
 H1970 H 0.55071 0.23586 0.79735
 H1971 H 0.59252 0.18935 0.77934
 H1972 H 0.57448 0.19871 0.77040
 C1973 C 1.08763 0.70399 0.79462
 C1974 C 1.09222 0.70898 0.80764
 C1975 C 1.10399 0.70297 0.81410
 C1976 C 1.11133 0.69194 0.80783
 C1977 C 1.10676 0.68709 0.79489
 C1978 C 1.09513 0.69301 0.78835
 C1979 C 1.07492 0.71057 0.78815
 C1980 C 1.06944 0.70627 0.77529
 C1981 C 1.05737 0.71246 0.76987
 C1982 C 1.05042 0.72311 0.77708
 C1983 C 1.05589 0.72764 0.78980
 C1984 C 1.06803 0.72145 0.79537
 C1985 C 1.08501 0.71988 0.81418
 C1986 C 1.07317 0.72597 0.80819
 H1987 H 1.08855 0.72374 0.82413
 H1988 H 1.06793 0.73432 0.81373
 H1989 H 1.10726 0.70684 0.82412
 H1990 H 1.11219 0.67870 0.78966
 H1991 H 1.05346 0.70891 0.75995
 H1992 H 1.05050 0.73575 0.79553
 H1993 H 1.09224 0.68881 0.77840
 H1994 H 1.07421 0.69807 0.76927
 C1995 C 1.09082 0.20716 0.29528
 C1996 C 1.09255 0.19255 0.29471
 C1997 C 1.10447 0.18631 0.30066
 C1998 C 1.11453 0.19437 0.30763
 C1999 C 1.11261 0.20879 0.30851
 C2000 C 1.10096 0.21515 0.30237
 C2001 C 1.07806 0.21344 0.28860
 C2002 C 1.07586 0.22790 0.28772
 C2003 C 1.06366 0.23321 0.28165
 C2004 C 1.05325 0.22430 0.27637
 C2005 C 1.05552 0.20987 0.27696
 C2006 C 1.06786 0.20442 0.28282
 C2007 C 1.08225 0.18422 0.28846
 C2008 C 1.07007 0.19001 0.28284
 H2009 H 1.08351 0.17303 0.28809
 H2010 H 1.06232 0.18310 0.27831
 H2011 H 1.10571 0.17511 0.30017
 H2012 H 1.12023 0.21524 0.31384
 H2013 H 1.06244 0.24439 0.28100
 H2014 H 1.04757 0.20280 0.27304
 H2015 H 1.10004 0.22627 0.30345
 H2016 H 1.08347 0.23529 0.29152
 C2017 C 0.58831 0.29520 0.70194
 C2018 C 0.59526 0.30629 0.70874
 C2019 C 0.60729 0.31237 0.70279
 C2020 C 0.61259 0.30759 0.69006
 C2021 C 0.60560 0.29660 0.68337
 C2022 C 0.59369 0.29048 0.68919
 C2023 C 0.57548 0.28903 0.70858
 C2024 C 0.56782 0.27798 0.70263
 C2025 C 0.55584 0.27271 0.70913
 C2026 C 0.55115 0.27825 0.72175
 C2027 C 0.55876 0.28919 0.72783
 C2028 C 0.57083 0.29460 0.72136
 C2029 C 0.59015 0.31127 0.72142
 C2030 C 0.57820 0.30556 0.72759
 H2031 H 0.59546 0.31976 0.72666
 H2032 H 0.57466 0.30982 0.73738
 H2033 H 0.61250 0.32080 0.70816
 H2034 H 0.60924 0.29264 0.67353
 H2035 H 0.55006 0.26441 0.70410
 H2036 H 0.55535 0.29344 0.73767
 H2037 H 0.58887 0.28210 0.68349
 H2038 H 0.57082 0.27328 0.69293
 C2039 C 0.58802 0.79446 0.20073
 C2040 C 0.59474 0.80559 0.20769
 C2041 C 0.60681 0.81181 0.20197
 C2042 C 0.61236 0.80715 0.18929
 C2043 C 0.60561 0.79613 0.18243
 C2044 C 0.59365 0.78987 0.18804
 C2045 C 0.57514 0.78813 0.20716
 C2046 C 0.56772 0.77698 0.20110
 C2047 C 0.55566 0.77161 0.20738
 C2048 C 0.55065 0.77716 0.21988
 C2049 C 0.55807 0.78815 0.22609
 C2050 C 0.57020 0.79366 0.21985
 C2051 C 0.58937 0.81050 0.22029
 C2052 C 0.57735 0.80468 0.22622
 H2053 H 0.59450 0.81902 0.22563
 H2054 H 0.57358 0.80891 0.23595
 H2055 H 0.61186 0.82025 0.20747
 H2056 H 0.60944 0.79230 0.17261
 H2057 H 0.55007 0.76323 0.20228
 H2058 H 0.55443 0.79238 0.23587
 H2059 H 0.58898 0.78150 0.18220
 H2060 H 0.57097 0.77228 0.19148
 C2061 C 1.08858 0.29981 0.20496
 C2062 C 1.09840 0.29081 0.19850
 C2063 C 1.11039 0.29629 0.19199
 C2064 C 1.11300 0.31064 0.19211
 C2065 C 1.10350 0.31950 0.19888
 C2066 C 1.09141 0.31420 0.20518
 C2067 C 1.07567 0.29357 0.21138
 C2068 C 1.06479 0.30166 0.21719
 C2069 C 1.05288 0.29536 0.22287
 C2070 C 1.05152 0.28082 0.22306
 C2071 C 1.06235 0.27268 0.21733
 C2072 C 1.07424 0.27892 0.21133
 C2073 C 1.09627 0.27640 0.19866
 C2074 C 1.08455 0.27057 0.20510
 H2075 H 1.10385 0.26950 0.19381
 H2076 H 1.08342 0.25936 0.20500
 H2077 H 1.11783 0.28933 0.18703
 H2078 H 1.10527 0.33062 0.19911
 H2079 H 1.04458 0.30195 0.22688
 H2080 H 1.06157 0.26144 0.21752
 H2081 H 1.08448 0.32153 0.21019
 H2082 H 1.06512 0.31286 0.21725
 C2083 C 1.08778 0.79430 0.70034
 C2084 C 1.09472 0.80517 0.70749
 C2085 C 1.10691 0.81123 0.70191
 C2086 C 1.11243 0.80664 0.68921
 C2087 C 1.10551 0.79589 0.68212
 C2088 C 1.09337 0.78979 0.68757
 C2089 C 1.07480 0.78809 0.70670
 C2090 C 1.06712 0.77722 0.70046
 C2091 C 1.05505 0.77188 0.70678
 C2092 C 1.05031 0.77721 0.71948
 C2093 C 1.05794 0.78797 0.72582
 C2094 C 1.07007 0.79343 0.71956
 C2095 C 1.08950 0.80993 0.72020
 C2096 C 1.07744 0.80419 0.72610
 H2097 H 1.09481 0.81825 0.72569
 H2098 H 1.07382 0.80826 0.73595
 H2099 H 1.11216 0.81943 0.70760
 H2100 H 1.10938 0.79219 0.67225
 H2101 H 1.04926 0.76370 0.70158
 H2102 H 1.05449 0.79204 0.73573
 H2103 H 1.08854 0.78160 0.68161
 H2104 H 1.07017 0.77273 0.69067
 C2105 C 0.41207 0.70336 0.70512
 C2106 C 0.40545 0.71028 0.69397
 C2107 C 0.39357 0.70441 0.68756
 C2108 C 0.38808 0.69161 0.69203
 C2109 C 0.39469 0.68480 0.70311
 C2110 C 0.40648 0.69056 0.70957
 C2111 C 0.42480 0.70993 0.71162
 C2112 C 0.43217 0.70389 0.72276
 C2113 C 0.44412 0.71030 0.72825
 C2114 C 0.44905 0.72292 0.72285
 C2115 C 0.44166 0.72912 0.71189
 C2116 C 0.42966 0.72275 0.70625
 C2117 C 0.41074 0.72301 0.68924
 C2118 C 0.42258 0.72910 0.69523
 H2119 H 0.40568 0.72834 0.68071
 H2120 H 0.42630 0.73892 0.69113
 H2121 H 0.38864 0.70990 0.67908
 H2122 H 0.39086 0.67492 0.70685
 H2123 H 0.44969 0.70519 0.73660
 H2124 H 0.44523 0.73899 0.70777
 H2125 H 0.41105 0.68476 0.71798
 H2126 H 0.42897 0.69417 0.72732
 C2127 C 0.41161 0.20629 0.20332
 C2128 C 0.40669 0.19332 0.20824
 C2129 C 0.39470 0.18714 0.20232
 C2130 C 0.38742 0.19367 0.19146
 C2131 C 0.39234 0.20655 0.18667
 C2132 C 0.40422 0.21279 0.19248
 C2133 C 0.42454 0.21247 0.20980
 C2134 C 0.43030 0.22529 0.20559
 C2135 C 0.44250 0.23048 0.21176
 C2136 C 0.44932 0.22308 0.22230
 C2137 C 0.44357 0.21038 0.22672
 C2138 C 0.43130 0.20504 0.22055
 C2139 C 0.41381 0.18655 0.21900
 C2140 C 0.42584 0.19228 0.22501
 H2141 H 0.41005 0.17663 0.22281
 H2142 H 0.43099 0.18659 0.23326
 H2143 H 0.39116 0.17716 0.20615
 H2144 H 0.38700 0.21198 0.17841
 H2145 H 0.44657 0.24040 0.20830
 H2146 H 0.44884 0.20450 0.23476
 H2147 H 0.40740 0.22267 0.18828
 H2148 H 0.42560 0.23149 0.19754
 C2149 C -0.08747 0.70276 0.20663
 C2150 C -0.09220 0.70776 0.19368
 C2151 C -0.10406 0.70181 0.18733
 C2152 C -0.11143 0.69085 0.19365
 C2153 C -0.10670 0.68593 0.20650
 C2154 C -0.09491 0.69176 0.21290
 C2155 C -0.07469 0.70935 0.21301
 C2156 C -0.06907 0.70509 0.22581
 C2157 C -0.05703 0.71141 0.23119
 C2158 C -0.05025 0.72216 0.22401
 C2159 C -0.05585 0.72660 0.21133
 C2160 C -0.06794 0.72028 0.20578
 C2161 C -0.08507 0.71866 0.18711
 C2162 C -0.07321 0.72478 0.19303
 H2163 H -0.08870 0.72251 0.17720
 H2164 H -0.06805 0.73315 0.18749
 H2165 H -0.10742 0.70572 0.17738
 H2166 H -0.11212 0.67757 0.21173
 H2167 H -0.05305 0.70791 0.24110
 H2168 H -0.05061 0.73478 0.20559
 H2169 H -0.09183 0.68749 0.22275
 H2170 H -0.07377 0.69689 0.23184
 C2171 C -0.08871 0.20459 0.70489
 C2172 C -0.09349 0.20948 0.69191
 C2173 C -0.10547 0.20356 0.68570
 C2174 C -0.11283 0.19271 0.69221
 C2175 C -0.10811 0.18800 0.70513
 C2176 C -0.09627 0.19382 0.71140
 C2177 C -0.07574 0.21101 0.71105
 C2178 C -0.07004 0.20673 0.72382
 C2179 C -0.05780 0.21282 0.72899
 C2180 C -0.05086 0.22334 0.72164
 C2181 C -0.05654 0.22784 0.70900
 C2182 C -0.06885 0.22173 0.70365
 C2183 C -0.08622 0.22018 0.68515
 C2184 C -0.07419 0.22618 0.69089
 H2185 H -0.08987 0.22396 0.67521
 H2186 H -0.06894 0.23439 0.68521
 H2187 H -0.10888 0.20728 0.67568
 H2188 H -0.11359 0.17978 0.71054
 H2189 H -0.05377 0.20931 0.73887
 H2190 H -0.05119 0.23587 0.70316
 H2191 H -0.09322 0.18969 0.72132
 H2192 H -0.07481 0.19866 0.72997
 C2193 C 0.29495 0.41218 0.29833
 C2194 C 0.30638 0.40555 0.29160
 C2195 C 0.31258 0.39363 0.29742
 C2196 C 0.30760 0.38815 0.30997
 C2197 C 0.29632 0.39485 0.31663
 C2198 C 0.29008 0.40665 0.31093
 C2199 C 0.28859 0.42485 0.29179
 C2200 C 0.27711 0.43211 0.29761
 C2201 C 0.27169 0.44395 0.29121
 C2202 C 0.27750 0.44889 0.27881
 C2203 C 0.28885 0.44165 0.27284
 C2204 C 0.29441 0.42973 0.27921
 C2205 C 0.31158 0.41087 0.27911
 C2206 C 0.30575 0.42271 0.27308
 H2207 H 0.32034 0.40583 0.27394
 H2208 H 0.31020 0.42643 0.26344
 H2209 H 0.32125 0.38865 0.29208
 H2210 H 0.29223 0.39109 0.32636
 H2211 H 0.26305 0.44941 0.29613
 H2212 H 0.29329 0.44522 0.26315
 H2213 H 0.28149 0.41127 0.31662
 H2214 H 0.27217 0.42889 0.30712
 C2215 C 0.29491 -0.08838 0.79851
 C2216 C 0.30538 -0.09579 0.79113
 C2217 C 0.31175 -0.10757 0.79704
 C2218 C 0.30763 -0.11244 0.81018
 C2219 C 0.29697 -0.10514 0.81727
 C2220 C 0.29076 -0.09331 0.81159
 C2221 C 0.28860 -0.07567 0.79199
 C2222 C 0.27870 -0.06715 0.79881
 C2223 C 0.27321 -0.05538 0.79235
 C2224 C 0.27732 -0.05178 0.77888
 C2225 C 0.28719 -0.06022 0.77199
 C2226 C 0.29295 -0.07199 0.77847
 C2227 C 0.30933 -0.09150 0.77783
 C2228 C 0.30313 -0.07995 0.77158
 H2229 H 0.31727 -0.09722 0.77211
 H2230 H 0.30651 -0.07712 0.76125
 H2231 H 0.31974 -0.11304 0.79117
 H2232 H 0.29341 -0.10834 0.82740
 H2233 H 0.26588 -0.04892 0.79807
 H2234 H 0.29038 -0.05767 0.76152
 H2235 H 0.28269 -0.08824 0.81762
 H2236 H 0.27519 -0.06924 0.80921
 C2237 C 0.79481 0.41068 0.79866
 C2238 C 0.80685 0.40459 0.79251
 C2239 C 0.81299 0.39264 0.79835
 C2240 C 0.80719 0.38638 0.81023
 C2241 C 0.79512 0.39248 0.81616
 C2242 C 0.78906 0.40441 0.81052
 C2243 C 0.78864 0.42348 0.79217
 C2244 C 0.77694 0.43057 0.79774
 C2245 C 0.77158 0.44243 0.79131
 C2246 C 0.77769 0.44757 0.77912
 C2247 C 0.78940 0.44060 0.77352
 C2248 C 0.79494 0.42871 0.77996
 C2249 C 0.81265 0.41036 0.78048
 C2250 C 0.80678 0.42210 0.77430
 H2251 H 0.82185 0.40569 0.77572
 H2252 H 0.81164 0.42612 0.76498
 H2253 H 0.82217 0.38820 0.79340
 H2254 H 0.79024 0.38820 0.82532
 H2255 H 0.76274 0.44774 0.79605
 H2256 H 0.79416 0.44437 0.76404
 H2257 H 0.77982 0.40848 0.81561
 H2258 H 0.77181 0.42724 0.80713
 C2259 C 0.79452 -0.08868 0.30077
 C2260 C 0.80619 -0.09493 0.29409
 C2261 C 0.81237 -0.10701 0.29961
 C2262 C 0.80698 -0.11325 0.31169
 C2263 C 0.79537 -0.10690 0.31823
 C2264 C 0.78927 -0.09485 0.31290
 C2265 C 0.78819 -0.07583 0.29452
 C2266 C 0.77672 -0.06869 0.30052
 C2267 C 0.77114 -0.05684 0.29426
 C2268 C 0.77680 -0.05173 0.28186
 C2269 C 0.78826 -0.05874 0.27582
 C2270 C 0.79400 -0.07066 0.28207
 C2271 C 0.81153 -0.08919 0.28184
 C2272 C 0.80553 -0.07737 0.27593
 H2273 H 0.82045 -0.09397 0.27668
 H2274 H 0.81002 -0.07340 0.26641
 H2275 H 0.82125 -0.11160 0.29425
 H2276 H 0.79086 -0.11110 0.32759
 H2277 H 0.76247 -0.05152 0.29929
 H2278 H 0.79265 -0.05500 0.26617
 H2279 H 0.78039 -0.09061 0.31844
 H2280 H 0.77195 -0.07199 0.31009
 C2281 C 0.29435 0.58930 0.70286
 C2282 C 0.30746 0.59421 0.70783
 C2283 C 0.31375 0.60598 0.70185
 C2284 C 0.30722 0.61304 0.69087
 C2285 C 0.29418 0.60817 0.68605
 C2286 C 0.28783 0.59650 0.69192
 C2287 C 0.28809 0.57657 0.70938
 C2288 C 0.27515 0.57081 0.70513
 C2289 C 0.26996 0.55874 0.71127
 C2290 C 0.27747 0.55206 0.72185
 C2291 C 0.29025 0.55785 0.72635
 C2292 C 0.29560 0.56998 0.72020
 C2293 C 0.31427 0.58729 0.71868
 C2294 C 0.30847 0.57545 0.72472
 H2295 H 0.32429 0.59106 0.72253
 H2296 H 0.31421 0.57044 0.73303
 H2297 H 0.32383 0.60950 0.70573
 H2298 H 0.28873 0.61334 0.67770
 H2299 H 0.25995 0.55464 0.70777
 H2300 H 0.29621 0.55272 0.73442
 H2301 H 0.27784 0.59329 0.68767
 H2302 H 0.26887 0.57540 0.69705
 C2303 C 0.29664 1.08787 0.20097
 C2304 C 0.30324 1.09770 0.20976
 C2305 C 0.30958 1.10964 0.20413
 C2306 C 0.30910 1.11215 0.18984
 C2307 C 0.30238 1.10250 0.18120
 C2308 C 0.29628 1.09051 0.18664
 C2309 C 0.29012 1.07521 0.20735
 C2310 C 0.28398 1.06450 0.19943
 C2311 C 0.27800 1.05293 0.20583
 C2312 C 0.27784 1.05171 0.22031
 C2313 C 0.28401 1.06232 0.22828
 C2314 C 0.29027 1.07392 0.22193
 C2315 C 0.30325 1.09568 0.22411
 C2316 C 0.29677 1.08413 0.23007
 H2317 H 0.30823 1.10322 0.23087
 H2318 H 0.29697 1.08311 0.24124
 H2319 H 0.31456 1.11714 0.21092
 H2320 H 0.30193 1.10415 0.17013
 H2321 H 0.27369 1.04478 0.19935
 H2322 H 0.28389 1.06162 0.23947
 H2323 H 0.29124 1.08354 0.17943
 H2324 H 0.28383 1.06471 0.18828
 C2325 C 0.79424 0.58871 0.20304
 C2326 C 0.80743 0.59341 0.20798
 C2327 C 0.81383 0.60518 0.20209
 C2328 C 0.80731 0.61246 0.19124
 C2329 C 0.79419 0.60779 0.18644
 C2330 C 0.78773 0.59611 0.19222
 C2331 C 0.78785 0.57599 0.20950
 C2332 C 0.77482 0.57041 0.20526
 C2333 C 0.76947 0.55840 0.21140
 C2334 C 0.77690 0.55160 0.22195
 C2335 C 0.78980 0.55717 0.22638
 C2336 C 0.79531 0.56924 0.22024
 C2337 C 0.81422 0.58631 0.21873
 C2338 C 0.80829 0.57450 0.22472
 H2339 H 0.82431 0.58991 0.22255
 H2340 H 0.81400 0.56936 0.23297
 H2341 H 0.82398 0.60853 0.20594
 H2342 H 0.78876 0.61315 0.17820
 H2343 H 0.75939 0.55445 0.20792
 H2344 H 0.79573 0.55193 0.23441
 H2345 H 0.77767 0.59309 0.18803
 H2346 H 0.76859 0.57511 0.19720
 C2347 C 0.79763 1.08881 0.70634
 C2348 C 0.79052 1.09519 0.69515
 C2349 C 0.79634 1.10693 0.68866
 C2350 C 0.80925 1.11251 0.69308
 C2351 C 0.81619 1.10620 0.70426
 C2352 C 0.81050 1.09456 0.71080
 C2353 C 0.79117 1.07616 0.71285
 C2354 C 0.79745 1.06898 0.72395
 C2355 C 0.79115 1.05709 0.72946
 C2356 C 0.77842 1.05203 0.72410
 C2357 C 0.77199 1.05921 0.71315
 C2358 C 0.77825 1.07115 0.70749
 C2359 C 0.77769 1.08978 0.69044
 C2360 C 0.77169 1.07803 0.69648
 H2361 H 0.77222 1.09467 0.68190
 H2362 H 0.76178 1.07422 0.69239
 H2363 H 0.79073 1.11169 0.68014
 H2364 H 0.82619 1.11011 0.70793
 H2365 H 0.79645 1.05167 0.73778
 H2366 H 0.76205 1.05553 0.70904
 H2367 H 0.81641 1.09019 0.71926
 H2368 H 0.80727 1.07227 0.72848
 C2369 C 0.70133 0.58847 0.29534
 C2370 C 0.70871 0.59510 0.30623
 C2371 C 0.70312 0.60708 0.31254
 C2372 C 0.69016 0.61265 0.30821
 C2373 C 0.68291 0.60603 0.29738
 C2374 C 0.68839 0.59416 0.29103
 C2375 C 0.70761 0.57566 0.28892
 C2376 C 0.70106 0.56826 0.27808
 C2377 C 0.70725 0.55629 0.27258
 C2378 C 0.72012 0.55133 0.27771
 C2379 C 0.72678 0.55869 0.28843
 C2380 C 0.72064 0.57074 0.29406
 C2381 C 0.72162 0.58972 0.31078
 C2382 C 0.72745 0.57781 0.30482
 H2383 H 0.72730 0.59477 0.31912
 H2384 H 0.73743 0.57405 0.30876
 H2385 H 0.70892 0.61200 0.32084
 H2386 H 0.67288 0.60991 0.29378
 H2387 H 0.70179 0.55075 0.26443
 H2388 H 0.73683 0.55509 0.29235
 H2389 H 0.68230 0.58963 0.28277
 H2390 H 0.69112 0.57145 0.27375
 C2391 C 0.70127 1.08854 0.79634
 C2392 C 0.70842 1.09476 0.80759
 C2393 C 0.70292 1.10678 0.81395
 C2394 C 0.69035 1.11293 0.80918
 C2395 C 0.68344 1.10668 0.79788
 C2396 C 0.68877 1.09474 0.79158
 C2397 C 0.70737 1.07564 0.78993
 C2398 C 0.70083 1.06847 0.77894
 C2399 C 0.70691 1.05650 0.77335
 C2400 C 0.71966 1.05132 0.77853
 C2401 C 0.72625 1.05837 0.78950
 C2402 C 0.72020 1.07040 0.79525
 C2403 C 0.72107 1.08902 0.81239
 C2404 C 0.72686 1.07715 0.80631
 H2405 H 0.72663 1.09381 0.82095
 H2406 H 0.73669 1.07315 0.81039
 H2407 H 0.70861 1.11132 0.82253
 H2408 H 0.67373 1.11085 0.79378
 H2409 H 0.70145 1.05114 0.76508
 H2410 H 0.73618 1.05454 0.79353
 H2411 H 0.68291 1.09057 0.78297
 H2412 H 0.69096 1.07182 0.77456
 C2413 C 0.20210 0.58853 0.79518
 C2414 C 0.20927 0.59497 0.80631
 C2415 C 0.20354 0.60684 0.81274
 C2416 C 0.19065 0.61245 0.80829
 C2417 C 0.18364 0.60601 0.79720
 C2418 C 0.18926 0.59429 0.79071
 C2419 C 0.20848 0.57583 0.78866
 C2420 C 0.20206 0.56858 0.77765
 C2421 C 0.20830 0.55669 0.77207
 C2422 C 0.22109 0.55165 0.77729
 C2423 C 0.22762 0.55884 0.78822
 C2424 C 0.22143 0.57082 0.79392
 C2425 C 0.22212 0.58954 0.81096
 C2426 C 0.22806 0.57773 0.80491
 H2427 H 0.22767 0.59449 0.81943
 H2428 H 0.23798 0.57391 0.80893
 H2429 H 0.20919 0.61165 0.82121
 H2430 H 0.17368 0.60991 0.79344
 H2431 H 0.20290 0.55123 0.76383
 H2432 H 0.23758 0.55513 0.79227
 H2433 H 0.18335 0.58996 0.78222
 H2434 H 0.19214 0.57178 0.77328
 C2435 C 0.20324 1.08721 0.29891
 C2436 C 0.19679 1.09720 0.29023
 C2437 C 0.19043 1.10907 0.29601
 C2438 C 0.19073 1.11136 0.31035
 C2439 C 0.19733 1.10156 0.31889
 C2440 C 0.20345 1.08962 0.31329
 C2441 C 0.20976 1.07461 0.29236
 C2442 C 0.21576 1.06373 0.30012
 C2443 C 0.22174 1.05223 0.29355
 C2444 C 0.22206 1.05125 0.27906
 C2445 C 0.21602 1.06201 0.27123
 C2446 C 0.20976 1.07354 0.27775
 C2447 C 0.19693 1.09541 0.27584
 C2448 C 0.20341 1.08392 0.26973
 H2449 H 0.19207 1.10310 0.26918
 H2450 H 0.20333 1.08308 0.25855
 H2451 H 0.18557 1.11671 0.28930
 H2452 H 0.19766 1.10305 0.32999
 H2453 H 0.22595 1.04395 0.29991
 H2454 H 0.21625 1.06149 0.26003
 H2455 H 0.20839 1.08252 0.32041
 H2456 H 0.21578 1.06377 0.31127
 C2457 C 0.70630 0.41100 0.69983
 C2458 C 0.69509 0.40431 0.70683
 C2459 C 0.68885 0.39235 0.70115
 C2460 C 0.69355 0.38684 0.68848
 C2461 C 0.70464 0.39356 0.68157
 C2462 C 0.71093 0.40543 0.68713
 C2463 C 0.71269 0.42374 0.70626
 C2464 C 0.72394 0.43110 0.70018
 C2465 C 0.72943 0.44297 0.70652
 C2466 C 0.72389 0.44784 0.71908
 C2467 C 0.71276 0.44052 0.72527
 C2468 C 0.70714 0.42858 0.71899
 C2469 C 0.69015 0.40961 0.71945
 C2470 C 0.69603 0.42148 0.72538
 H2471 H 0.68157 0.40451 0.72482
 H2472 H 0.69179 0.42518 0.73513
 H2473 H 0.68035 0.38735 0.70670
 H2474 H 0.70853 0.38975 0.67176
 H2475 H 0.73790 0.44850 0.70142
 H2476 H 0.70853 0.44407 0.73509
 H2477 H 0.71937 0.41007 0.68128
 H2478 H 0.72864 0.42793 0.69051
 C2479 C 0.70515 -0.08880 0.20226
 C2480 C 0.69391 -0.09565 0.20906
 C2481 C 0.68768 -0.10749 0.20307
 C2482 C 0.69244 -0.11268 0.19028
 C2483 C 0.70356 -0.10579 0.18359
 C2484 C 0.70983 -0.09407 0.18946
 C2485 C 0.71149 -0.07619 0.20897
 C2486 C 0.72275 -0.06870 0.20308
 C2487 C 0.72816 -0.05692 0.20964
 C2488 C 0.72254 -0.05227 0.22225
 C2489 C 0.71141 -0.05973 0.22828
 C2490 C 0.70587 -0.07160 0.22176
 C2491 C 0.68892 -0.09063 0.22177
 C2492 C 0.69476 -0.07886 0.22797
 H2493 H 0.68033 -0.09586 0.22700
 H2494 H 0.69047 -0.07537 0.23778
 H2495 H 0.67917 -0.11265 0.20845
 H2496 H 0.70746 -0.10934 0.17369
 H2497 H 0.73663 -0.05127 0.20468
 H2498 H 0.70710 -0.05635 0.23812
 H2499 H 0.71829 -0.08930 0.18374
 H2500 H 0.72751 -0.07167 0.19339
 C2501 C 0.20710 0.41216 0.19913
 C2502 C 0.19600 0.40535 0.20617
 C2503 C 0.18968 0.39350 0.20038
 C2504 C 0.19415 0.38823 0.18753
 C2505 C 0.20514 0.39503 0.18058
 C2506 C 0.21154 0.40680 0.18627
 C2507 C 0.21352 0.42483 0.20567
 C2508 C 0.22469 0.43231 0.19959
 C2509 C 0.23013 0.44417 0.20600
 C2510 C 0.22462 0.44891 0.21863
 C2511 C 0.21363 0.44143 0.22485
 C2512 C 0.20807 0.42950 0.21851
 C2513 C 0.19120 0.41044 0.21893
 C2514 C 0.19708 0.42227 0.22494
 H2515 H 0.18270 0.40524 0.22433
 H2516 H 0.19293 0.42582 0.23478
 H2517 H 0.18128 0.38841 0.20600
 H2518 H 0.20882 0.39136 0.17063
 H2519 H 0.23852 0.44982 0.20090
 H2520 H 0.20944 0.44486 0.23473
 H2521 H 0.21988 0.41156 0.18037
 H2522 H 0.22934 0.42924 0.18987
 C2523 C 0.20434 -0.09005 0.70462
 C2524 C 0.20523 -0.09170 0.69009
 C2525 C 0.19921 -0.10339 0.68367
 C2526 C 0.19214 -0.11350 0.69150
 C2527 C 0.19129 -0.11182 0.70589
 C2528 C 0.19730 -0.10030 0.71239
 C2529 C 0.21080 -0.07736 0.71107
 C2530 C 0.21052 -0.07478 0.72543
 C2531 C 0.21640 -0.06267 0.73090
 C2532 C 0.22274 -0.05280 0.72224
 C2533 C 0.22328 -0.05536 0.70794
 C2534 C 0.21737 -0.06751 0.70232
 C2535 C 0.21200 -0.08161 0.68203
 C2536 C 0.21790 -0.06977 0.68800
 H2537 H 0.21266 -0.08285 0.67089
 H2538 H 0.22294 -0.06224 0.68130
 H2539 H 0.19984 -0.10446 0.67253
 H2540 H 0.18605 -0.11950 0.71225
 H2541 H 0.21606 -0.06106 0.74199
 H2542 H 0.22804 -0.04774 0.70114
 H2543 H 0.19625 -0.09964 0.72347
 H2544 H 0.20579 -0.08193 0.73264
 C2545 C 0.29334 0.29894 0.41353
 C2546 C 0.30486 0.29196 0.40731
 C2547 C 0.31122 0.29743 0.39535
 C2548 C 0.30632 0.30985 0.38941
 C2549 C 0.29490 0.31671 0.39566
 C2550 C 0.28849 0.31137 0.40751
 C2551 C 0.28686 0.29281 0.42630
 C2552 C 0.27533 0.29892 0.43324
 C2553 C 0.26981 0.29290 0.44520
 C2554 C 0.27557 0.28062 0.45058
 C2555 C 0.28697 0.27437 0.44368
 C2556 C 0.29263 0.28035 0.43165
 C2557 C 0.30999 0.27960 0.41306
 C2558 C 0.30402 0.27393 0.42497
 H2559 H 0.31880 0.27424 0.40832
 H2560 H 0.30843 0.26438 0.42904
 H2561 H 0.31999 0.29192 0.39072
 H2562 H 0.29081 0.32632 0.39150
 H2563 H 0.26112 0.29803 0.45039
 H2564 H 0.29137 0.26476 0.44761
 H2565 H 0.27980 0.31719 0.41177
 H2566 H 0.27045 0.30837 0.42967
 C2567 C 0.29436 0.79663 -0.08786
 C2568 C 0.30738 0.79145 -0.09284
 C2569 C 0.31368 0.79739 -0.10460
 C2570 C 0.30723 0.80852 -0.11157
 C2571 C 0.29429 0.81355 -0.10660
 C2572 C 0.28794 0.80772 -0.09495
 C2573 C 0.28808 0.79013 -0.07517
 C2574 C 0.27522 0.79459 -0.06936
 C2575 C 0.26996 0.78842 -0.05737
 C2576 C 0.27732 0.77763 -0.05082
 C2577 C 0.29003 0.77295 -0.05664
 C2578 C 0.29545 0.77911 -0.06870
 C2579 C 0.31407 0.78043 -0.08603
 C2580 C 0.30824 0.77441 -0.07422
 H2581 H 0.32402 0.77643 -0.08985
 H2582 H 0.31388 0.76595 -0.06930
 H2583 H 0.32369 0.79338 -0.10819
 H2584 H 0.28890 0.82200 -0.11173
 H2585 H 0.26002 0.79207 -0.05323
 H2586 H 0.29588 0.76471 -0.05160
 H2587 H 0.27802 0.81211 -0.09171
 H2588 H 0.26906 0.80284 -0.07384
 C2589 C 0.79389 0.29704 -0.08661
 C2590 C 0.80675 0.29168 -0.09176
 C2591 C 0.81292 0.29744 -0.10366
 C2592 C 0.80653 0.30860 -0.11062
 C2593 C 0.79380 0.31392 -0.10541
 C2594 C 0.78756 0.30826 -0.09361
 C2595 C 0.78765 0.29059 -0.07387
 C2596 C 0.77482 0.29505 -0.06801
 C2597 C 0.76957 0.28884 -0.05602
 C2598 C 0.77693 0.27802 -0.04952
 C2599 C 0.78963 0.27337 -0.05538
 C2600 C 0.79501 0.27953 -0.06745
 C2601 C 0.81343 0.28063 -0.08498
 C2602 C 0.80772 0.27473 -0.07307
 H2603 H 0.82329 0.27652 -0.08891
 H2604 H 0.81335 0.26625 -0.06818
 H2605 H 0.82272 0.29313 -0.10745
 H2606 H 0.78855 0.32254 -0.11039
 H2607 H 0.75963 0.29248 -0.05188
 H2608 H 0.79549 0.26511 -0.05038
 H2609 H 0.77782 0.31287 -0.09016
 H2610 H 0.76864 0.30329 -0.07250
 C2611 C 0.79398 0.79685 0.41373
 C2612 C 0.80700 0.79173 0.40871
 C2613 C 0.81313 0.79756 0.39681
 C2614 C 0.80653 0.80853 0.38974
 C2615 C 0.79368 0.81363 0.39486
 C2616 C 0.78748 0.80791 0.40664
 C2617 C 0.78777 0.79031 0.42643
 C2618 C 0.77477 0.79451 0.43213
 C2619 C 0.76955 0.78825 0.44410
 C2620 C 0.77709 0.77764 0.45073
 C2621 C 0.78995 0.77323 0.44502
 C2622 C 0.79531 0.77945 0.43297
 C2623 C 0.81386 0.78087 0.41560
 C2624 C 0.80817 0.77489 0.42749
 H2625 H 0.82384 0.77694 0.41177
 H2626 H 0.81394 0.76656 0.43246
 H2627 H 0.82305 0.79344 0.39311
 H2628 H 0.78829 0.82213 0.38981
 H2629 H 0.75948 0.79168 0.44812
 H2630 H 0.79594 0.76512 0.45011
 H2631 H 0.77763 0.81235 0.41002
 H2632 H 0.76845 0.80259 0.42754
 C2633 C 0.70374 0.29304 0.58657
 C2634 C 0.70901 0.30597 0.59126
 C2635 C 0.70314 0.31238 0.60301
 C2636 C 0.69200 0.30611 0.61027
 C2637 C 0.68685 0.29326 0.60557
 C2638 C 0.69259 0.28682 0.59392
 C2639 C 0.71021 0.28659 0.57392
 C2640 C 0.70566 0.27378 0.56841
 C2641 C 0.71183 0.26834 0.55647
 C2642 C 0.72271 0.27546 0.54969
 C2643 C 0.72747 0.28813 0.55520
 C2644 C 0.72130 0.29374 0.56720
 C2645 C 0.72007 0.31247 0.58418
 C2646 C 0.72608 0.30649 0.57242
 H2647 H 0.72413 0.32237 0.58777
 H2648 H 0.73458 0.31197 0.56729
 H2649 H 0.70725 0.32232 0.60638
 H2650 H 0.67835 0.28803 0.61089
 H2651 H 0.70812 0.25843 0.55256
 H2652 H 0.73577 0.29380 0.54997
 H2653 H 0.68810 0.27698 0.59088
 H2654 H 0.69735 0.26778 0.57309
 C2655 C 0.70663 0.79628 1.08727
 C2656 C 0.69352 0.79123 1.09207
 C2657 C 0.68720 0.79713 1.10385
 C2658 C 0.69373 0.80808 1.11104
 C2659 C 0.70675 0.81303 1.10623
 C2660 C 0.71311 0.80725 1.09455
 C2661 C 0.71298 0.78978 1.07460
 C2662 C 0.72596 0.79409 1.06898
 C2663 C 0.73131 0.78786 1.05704
 C2664 C 0.72392 0.77717 1.05035
 C2665 C 0.71107 0.77266 1.05595
 C2666 C 0.70555 0.77888 1.06796
 C2667 C 0.68675 0.78036 1.08507
 C2668 C 0.69263 0.77432 1.07327
 H2669 H 0.67671 0.77647 1.08874
 H2670 H 0.68695 0.76597 1.06822
 H2671 H 0.67712 0.79319 1.10729
 H2672 H 0.71218 0.82137 1.11151
 H2673 H 0.74136 0.79139 1.05306
 H2674 H 0.70519 0.76450 1.05079
 H2675 H 0.72310 0.81156 1.09142
 H2676 H 0.73216 0.80226 1.07359
 C2677 C 0.20161 0.29303 1.08631
 C2678 C 0.20908 0.30400 1.09276
 C2679 C 0.20367 0.31037 1.10473
 C2680 C 0.19079 0.30606 1.11046
 C2681 C 0.18340 0.29521 1.10398
 C2682 C 0.18870 0.28878 1.09211
 C2683 C 0.20775 0.28652 1.07352
 C2684 C 0.20123 0.27546 1.06639
 C2685 C 0.20729 0.26990 1.05442
 C2686 C 0.22001 0.27517 1.04925
 C2687 C 0.22667 0.28607 1.05638
 C2688 C 0.22066 0.29176 1.06840
 C2689 C 0.22188 0.30861 1.08721
 C2690 C 0.22753 0.30265 1.07528
 H2691 H 0.22761 0.31701 1.09214
 H2692 H 0.23743 0.30664 1.07137
 H2693 H 0.20960 0.31866 1.10957
 H2694 H 0.17339 0.29167 1.10798
 H2695 H 0.20185 0.26159 1.04907
 H2696 H 0.23663 0.29008 1.05262
 H2697 H 0.18246 0.28056 1.08763
 H2698 H 0.19143 0.27096 1.06982
 C2699 C 0.20576 0.79776 0.58745
 C2700 C 0.19305 0.79215 0.59267
 C2701 C 0.18678 0.79789 0.60455
 C2702 C 0.19288 0.80933 0.61129
 C2703 C 0.20539 0.81498 0.60601
 C2704 C 0.21178 0.80928 0.59428
 C2705 C 0.21212 0.79129 0.57475
 C2706 C 0.22492 0.79585 0.56894
 C2707 C 0.23025 0.78967 0.55695
 C2708 C 0.22300 0.77878 0.55040
 C2709 C 0.21036 0.77400 0.55625
 C2710 C 0.20492 0.78010 0.56834
 C2711 C 0.18657 0.78093 0.58595
 C2712 C 0.19233 0.77510 0.57401
 H2713 H 0.17682 0.77665 0.58994
 H2714 H 0.18685 0.76650 0.56915
 H2715 H 0.17700 0.79356 0.60838
 H2716 H 0.21039 0.82374 0.61104
 H2717 H 0.24017 0.79338 0.55285
 H2718 H 0.20459 0.76567 0.55125
 H2719 H 0.22138 0.81409 0.59074
 H2720 H 0.23101 0.80413 0.57348
 C2721 C 0.29486 0.70388 0.58807
 C2722 C 0.30808 0.70881 0.59274
 C2723 C 0.31435 0.70300 0.60458
 C2724 C 0.30768 0.69226 0.61193
 C2725 C 0.29451 0.68753 0.60729
 C2726 C 0.28819 0.69321 0.59557
 C2727 C 0.28861 0.71019 0.57527
 C2728 C 0.27560 0.70589 0.56972
 C2729 C 0.27037 0.71185 0.55762
 C2730 C 0.27792 0.72227 0.55069
 C2731 C 0.29079 0.72680 0.55625
 C2732 C 0.29619 0.72082 0.56842
 C2733 C 0.31498 0.71945 0.58554
 C2734 C 0.30917 0.72533 0.57366
 H2735 H 0.32508 0.72327 0.58912
 H2736 H 0.31497 0.73349 0.56844
 H2737 H 0.32452 0.70680 0.60793
 H2738 H 0.28891 0.67941 0.61273
 H2739 H 0.26030 0.70832 0.55370
 H2740 H 0.29678 0.73476 0.55094
 H2741 H 0.27810 0.68904 0.59258
 H2742 H 0.26928 0.69792 0.57448
 C2743 C 0.29469 0.20295 1.08743
 C2744 C 0.30766 0.20828 1.09231
 C2745 C 0.31401 0.20255 1.10415
 C2746 C 0.30765 0.19149 1.11129
 C2747 C 0.29472 0.18634 1.10646
 C2748 C 0.28833 0.19195 1.09473
 C2749 C 0.28837 0.20917 1.07463
 C2750 C 0.27559 0.20448 1.06886
 C2751 C 0.27033 0.21037 1.05675
 C2752 C 0.27760 0.22111 1.05002
 C2753 C 0.29021 0.22603 1.05580
 C2754 C 0.29566 0.22013 1.06798
 C2755 C 0.31426 0.21924 1.08532
 C2756 C 0.30839 0.22504 1.07343
 H2757 H 0.32418 0.22337 1.08907
 H2758 H 0.31396 0.23346 1.06838
 H2759 H 0.32401 0.20666 1.10764
 H2760 H 0.28938 0.17796 1.11173
 H2761 H 0.26044 0.20654 1.05265
 H2762 H 0.29599 0.23424 1.05063
 H2763 H 0.27843 0.18747 1.09158
 H2764 H 0.26950 0.19625 1.07348
 C2765 C 0.79969 0.70504 1.08796
 C2766 C 0.79230 0.69414 1.09458
 C2767 C 0.79779 0.68796 1.10659
 C2768 C 0.81066 0.69242 1.11222
 C2769 C 0.81795 0.70324 1.10559
 C2770 C 0.81258 0.70946 1.09367
 C2771 C 0.79349 0.71131 1.07512
 C2772 C 0.79998 0.72223 1.06777
 C2773 C 0.79386 0.72757 1.05576
 C2774 C 0.78110 0.72223 1.05075
 C2775 C 0.77447 0.71146 1.05808
 C2776 C 0.78055 0.70598 1.07014
 C2777 C 0.77948 0.68941 1.08916
 C2778 C 0.77374 0.69519 1.07720
 H2779 H 0.77380 0.68107 1.09421
 H2780 H 0.76383 0.69112 1.07341
 H2781 H 0.79193 0.67970 1.11154
 H2782 H 0.82793 0.70693 1.10951
 H2783 H 0.79929 0.73577 1.05025
 H2784 H 0.76449 0.70739 1.05444
 H2785 H 0.81873 0.71768 1.08910
 H2786 H 0.80982 0.72675 1.07104
 C2787 C 0.79425 0.19979 0.58750
 C2788 C 0.80548 0.20693 0.59399
 C2789 C 0.81182 0.20141 0.60592
 C2790 C 0.80721 0.18876 0.61160
 C2791 C 0.79599 0.18178 0.60516
 C2792 C 0.78959 0.18718 0.59332
 C2793 C 0.78791 0.20594 0.57465
 C2794 C 0.77677 0.19963 0.56733
 C2795 C 0.77143 0.20566 0.55528
 C2796 C 0.77701 0.21816 0.55020
 C2797 C 0.78799 0.22461 0.55751
 C2798 C 0.79348 0.21862 0.56960
 C2799 C 0.81041 0.21949 0.58851
 C2800 C 0.80454 0.22521 0.57659
 H2801 H 0.81900 0.22498 0.59348
 H2802 H 0.80879 0.23492 0.57274
 H2803 H 0.82045 0.20701 0.61066
 H2804 H 0.79205 0.17206 0.60920
 H2805 H 0.76307 0.20036 0.54978
 H2806 H 0.79224 0.23439 0.55383
 H2807 H 0.78106 0.18127 0.58888
 H2808 H 0.77209 0.18998 0.57064
 C2809 C 0.70186 0.70400 0.41357
 C2810 C 0.70915 0.69307 0.40683
 C2811 C 0.70354 0.68698 0.39479
 C2812 C 0.69066 0.69158 0.38930
 C2813 C 0.68345 0.70237 0.39611
 C2814 C 0.68894 0.70850 0.40802
 C2815 C 0.70820 0.71026 0.42636
 C2816 C 0.70179 0.72121 0.43377
 C2817 C 0.70805 0.72661 0.44568
 C2818 C 0.72088 0.72130 0.45054
 C2819 C 0.72739 0.71044 0.44319
 C2820 C 0.72117 0.70491 0.43120
 C2821 C 0.72199 0.68828 0.41213
 C2822 C 0.72786 0.69406 0.42406
 H2823 H 0.72759 0.67990 0.40700
 H2824 H 0.73779 0.68995 0.42776
 H2825 H 0.70930 0.67871 0.38970
 H2826 H 0.67345 0.70615 0.39235
 H2827 H 0.70267 0.73483 0.45124
 H2828 H 0.73740 0.70635 0.44673
 H2829 H 0.68283 0.71671 0.41271
 H2830 H 0.69191 0.72574 0.43064
 C2831 C 0.70146 0.20478 -0.08637
 C2832 C 0.70880 0.19380 -0.09298
 C2833 C 0.70326 0.18760 -0.10500
 C2834 C 0.69040 0.19212 -0.11059
 C2835 C 0.68313 0.20295 -0.10390
 C2836 C 0.68855 0.20920 -0.09201
 C2837 C 0.70773 0.21116 -0.07360
 C2838 C 0.70130 0.22219 -0.06632
 C2839 C 0.70749 0.22768 -0.05441
 C2840 C 0.72027 0.22237 -0.04942
 C2841 C 0.72683 0.21146 -0.05667
 C2842 C 0.72067 0.20584 -0.06865
 C2843 C 0.72160 0.18905 -0.08756
 C2844 C 0.72740 0.19492 -0.07565
 H2845 H 0.72723 0.18062 -0.09258
 H2846 H 0.73730 0.19083 -0.07185
 H2847 H 0.70907 0.17929 -0.10998
 H2848 H 0.67313 0.20666 -0.10774
 H2849 H 0.70210 0.23596 -0.04895
 H2850 H 0.73682 0.20741 -0.05305
 H2851 H 0.68241 0.21743 -0.08742
 H2852 H 0.69146 0.22672 -0.06957
 C2853 C 0.20133 0.70527 -0.08761
 C2854 C 0.20857 0.69418 -0.09415
 C2855 C 0.20299 0.68796 -0.10612
 C2856 C 0.19020 0.69259 -0.11178
 C2857 C 0.18305 0.70355 -0.10520
 C2858 C 0.18850 0.70982 -0.09333
 C2859 C 0.20762 0.71159 -0.07482
 C2860 C 0.20126 0.72267 -0.06756
 C2861 C 0.20746 0.72809 -0.05561
 C2862 C 0.22016 0.72266 -0.05057
 C2863 C 0.22663 0.71168 -0.05779
 C2864 C 0.22049 0.70614 -0.06981
 C2865 C 0.22131 0.68932 -0.08869
 C2866 C 0.22714 0.69516 -0.07679
 H2867 H 0.22684 0.68081 -0.09367
 H2868 H 0.23700 0.69099 -0.07298
 H2869 H 0.20871 0.67954 -0.11101
 H2870 H 0.17311 0.70735 -0.10911
 H2871 H 0.20213 0.73642 -0.05017
 H2872 H 0.23655 0.70750 -0.05411
 H2873 H 0.18245 0.71816 -0.08882
 H2874 H 0.19147 0.72728 -0.07085
 C2875 C 0.20586 0.20240 0.41281
 C2876 C 0.19466 0.20946 0.40619
 C2877 C 0.18853 0.20387 0.39418
 C2878 C 0.19333 0.19124 0.38856
 C2879 C 0.20448 0.18432 0.39516
 C2880 C 0.21066 0.18979 0.40708
 C2881 C 0.21203 0.20866 0.42568
 C2882 C 0.22320 0.20247 0.43305
 C2883 C 0.22845 0.20862 0.44507
 C2884 C 0.22274 0.22110 0.45009
 C2885 C 0.21170 0.22741 0.44277
 C2886 C 0.20632 0.22131 0.43067
 C2887 C 0.18958 0.22202 0.41161
 C2888 C 0.19527 0.22781 0.42359
 H2889 H 0.18101 0.22744 0.40653
 H2890 H 0.19092 0.23751 0.42739
 H2891 H 0.17997 0.20943 0.38928
 H2892 H 0.20852 0.17459 0.39121
 H2893 H 0.23687 0.20345 0.45060
 H2894 H 0.20734 0.23717 0.44644
 H2895 H 0.21915 0.18392 0.41163
 H2896 H 0.22801 0.19285 0.42977
 C2897 C 0.29670 0.41276 0.70473
 C2898 C 0.29132 0.40806 0.69190
 C2899 C 0.29711 0.39624 0.68547
 C2900 C 0.30826 0.38890 0.69163
 C2901 C 0.31350 0.39360 0.70439
 C2902 C 0.30785 0.40532 0.71085
 C2903 C 0.29036 0.42551 0.71118
 C2904 C 0.29505 0.43106 0.72387
 C2905 C 0.28901 0.44312 0.72930
 C2906 C 0.27814 0.45000 0.72228
 C2907 C 0.27322 0.44444 0.70974
 C2908 C 0.27925 0.43232 0.70414
 C2909 C 0.28023 0.41522 0.68551
 C2910 C 0.27433 0.42708 0.69150
 H2911 H 0.27608 0.41162 0.67570
 H2912 H 0.26582 0.43226 0.68611
 H2913 H 0.29291 0.39286 0.67561
 H2914 H 0.32199 0.38821 0.70955
 H2915 H 0.29283 0.44705 0.73911
 H2916 H 0.26489 0.44974 0.70416
 H2917 H 0.31239 0.40834 0.72062
 H2918 H 0.30338 0.42632 0.72977
 C2919 C 0.29271 0.91364 0.19984
 C2920 C 0.30371 0.90680 0.20700
 C2921 C 0.30988 0.89476 0.20142
 C2922 C 0.30536 0.88934 0.18866
 C2923 C 0.29447 0.89618 0.18159
 C2924 C 0.28822 0.90813 0.18707
 C2925 C 0.28646 0.92651 0.20615
 C2926 C 0.27538 0.93403 0.19996
 C2927 C 0.27009 0.94608 0.20617
 C2928 C 0.27568 0.95096 0.21869
 C2929 C 0.28658 0.94346 0.22503
 C2930 C 0.29197 0.93133 0.21890
 C2931 C 0.30856 0.91204 0.21966
 C2932 C 0.30285 0.92406 0.22546
 H2933 H 0.31699 0.90681 0.22515
 H2934 H 0.30704 0.92773 0.23523
 H2935 H 0.31821 0.88964 0.20711
 H2936 H 0.29074 0.89240 0.17171
 H2937 H 0.26174 0.95173 0.20102
 H2938 H 0.29081 0.94701 0.23484
 H2939 H 0.27996 0.91291 0.18109
 H2940 H 0.27068 0.93085 0.19031
 C2941 C 0.79347 0.41326 0.20100
 C2942 C 0.80485 0.40672 0.20785
 C2943 C 0.81118 0.39482 0.20211
 C2944 C 0.80643 0.38925 0.18950
 C2945 C 0.79516 0.39579 0.18273
 C2946 C 0.78875 0.40760 0.18837
 C2947 C 0.78703 0.42597 0.20747
 C2948 C 0.77562 0.43322 0.20154
 C2949 C 0.77016 0.44512 0.20789
 C2950 C 0.77590 0.45014 0.22030
 C2951 C 0.78715 0.44291 0.22636
 C2952 C 0.79273 0.43093 0.22008
 C2953 C 0.80989 0.41210 0.22038
 C2954 C 0.80398 0.42395 0.22634
 H2955 H 0.81860 0.40710 0.22564
 H2956 H 0.80833 0.42773 0.23601
 H2957 H 0.81981 0.38993 0.20756
 H2958 H 0.79125 0.39190 0.17296
 H2959 H 0.76157 0.45057 0.20291
 H2960 H 0.79153 0.44656 0.23607
 H2961 H 0.78018 0.41213 0.18262
 H2962 H 0.77080 0.42994 0.19198
 C2963 C 0.79599 0.91316 0.70556
 C2964 C 0.79077 0.90857 0.69262
 C2965 C 0.79653 0.89672 0.68625
 C2966 C 0.80752 0.88926 0.69254
 C2967 C 0.81260 0.89381 0.70541
 C2968 C 0.80695 0.90557 0.71183
 C2969 C 0.78966 0.92595 0.71194
 C2970 C 0.79417 0.93142 0.72473
 C2971 C 0.78810 0.94350 0.73011
 C2972 C 0.77738 0.95045 0.72294
 C2973 C 0.77269 0.94500 0.71027
 C2974 C 0.77874 0.93288 0.70473
 C2975 C 0.77988 0.91586 0.68607
 C2976 C 0.77400 0.92775 0.69199
 H2977 H 0.77587 0.91234 0.67616
 H2978 H 0.76564 0.93304 0.68647
 H2979 H 0.79250 0.89345 0.67629
 H2980 H 0.82095 0.88828 0.71065
 H2981 H 0.79177 0.94736 0.74001
 H2982 H 0.76451 0.95038 0.70457
 H2983 H 0.81135 0.90851 0.72169
 H2984 H 0.80238 0.92660 0.73074
 C2985 C 0.70201 0.58632 0.70620
 C2986 C 0.70921 0.59280 0.69512
 C2987 C 0.70354 0.60471 0.68882
 C2988 C 0.69068 0.61037 0.69330
 C2989 C 0.68358 0.60390 0.70431
 C2990 C 0.68915 0.59210 0.71069
 C2991 C 0.70838 0.57355 0.71256
 C2992 C 0.70207 0.56628 0.72360
 C2993 C 0.70831 0.55428 0.72896
 C2994 C 0.72102 0.54919 0.72350
 C2995 C 0.72747 0.55647 0.71263
 C2996 C 0.72128 0.56851 0.70713
 C2997 C 0.72200 0.58735 0.69033
 C2998 C 0.72790 0.57547 0.69620
 H2999 H 0.72754 0.59231 0.68187
 H3000 H 0.73779 0.57164 0.69207
 H3001 H 0.70925 0.60951 0.68039
 H3002 H 0.67362 0.60787 0.70804
 H3003 H 0.70300 0.54880 0.73723
 H3004 H 0.73741 0.55280 0.70847
 H3005 H 0.68316 0.58764 0.71906
 H3006 H 0.69228 0.56960 0.72819
 C3007 C 0.70545 0.08652 0.20436
 C3008 C 0.69249 0.09173 0.20942
 C3009 C 0.68637 0.10359 0.20343
 C3010 C 0.69295 0.11046 0.19233
 C3011 C 0.70584 0.10527 0.18741
 C3012 C 0.71201 0.09351 0.19329
 C3013 C 0.71154 0.07373 0.21092
 C3014 C 0.72436 0.06772 0.20660
 C3015 C 0.72943 0.05564 0.21283
 C3016 C 0.72192 0.04918 0.22354
 C3017 C 0.70925 0.05521 0.22810
 C3018 C 0.70403 0.06737 0.22187
 C3019 C 0.68565 0.08501 0.22039
 C3020 C 0.69128 0.07310 0.22646
 H3021 H 0.67573 0.08899 0.22430
 H3022 H 0.68553 0.06827 0.23487
 H3023 H 0.67640 0.10735 0.20739
 H3024 H 0.71131 0.11026 0.17896
 H3025 H 0.73935 0.05136 0.20927
 H3026 H 0.70329 0.05026 0.23628
 H3027 H 0.72188 0.09007 0.18896
 H3028 H 0.73064 0.07212 0.19841
 C3029 C 0.20595 0.58764 0.20261
 C3030 C 0.19287 0.59254 0.20768
 C3031 C 0.18655 0.60435 0.20179
 C3032 C 0.19304 0.61144 0.19079
 C3033 C 0.20605 0.60655 0.18586
 C3034 C 0.21241 0.59485 0.19164
 C3035 C 0.21225 0.57489 0.20903
 C3036 C 0.22520 0.56920 0.20469
 C3037 C 0.23046 0.55712 0.21073
 C3038 C 0.22301 0.55035 0.22129
 C3039 C 0.21022 0.55607 0.22591
 C3040 C 0.20480 0.56823 0.21986
 C3041 C 0.18611 0.58557 0.21854
 C3042 C 0.19193 0.57368 0.22448
 H3043 H 0.17610 0.58933 0.22246
 H3044 H 0.18624 0.56864 0.23280
 H3045 H 0.17649 0.60788 0.20574
 H3046 H 0.21145 0.61171 0.17747
 H3047 H 0.24047 0.55308 0.20716
 H3048 H 0.20432 0.55087 0.23399
 H3049 H 0.22235 0.59164 0.18729
 H3050 H 0.23144 0.57385 0.19662
 C3051 C 0.20548 0.08576 0.70080
 C3052 C 0.19630 0.09406 0.70890
 C3053 C 0.19014 0.10605 0.70323
 C3054 C 0.19300 0.11003 0.68953
 C3055 C 0.20216 0.10180 0.68157
 C3056 C 0.20831 0.08985 0.68709
 C3057 C 0.21176 0.07296 0.70721
 C3058 C 0.22088 0.06393 0.69999
 C3059 C 0.22634 0.05210 0.70638
 C3060 C 0.22292 0.04892 0.72014
 C3061 C 0.21389 0.05789 0.72745
 C3062 C 0.20829 0.06981 0.72111
 C3063 C 0.19333 0.09036 0.72261
 C3064 C 0.19921 0.07852 0.72858
 H3065 H 0.18633 0.09672 0.72882
 H3066 H 0.19654 0.07611 0.73922
 H3067 H 0.18322 0.11236 0.70958
 H3068 H 0.20450 0.10447 0.67095
 H3069 H 0.23311 0.04527 0.70042
 H3070 H 0.21130 0.05566 0.73814
 H3071 H 0.21521 0.08399 0.68040
 H3072 H 0.22386 0.06572 0.68938
 C3073 C 0.29878 0.58708 0.29383
 C3074 C 0.29127 0.59361 0.30471
 C3075 C 0.29669 0.60561 0.31106
 C3076 C 0.30960 0.61132 0.30680
 C3077 C 0.31702 0.60477 0.29604
 C3078 C 0.31173 0.59285 0.28965
 C3079 C 0.29262 0.57428 0.28732
 C3080 C 0.29919 0.56706 0.27636
 C3081 C 0.29312 0.55506 0.27081
 C3082 C 0.28030 0.54997 0.27595
 C3083 C 0.27359 0.55720 0.28673
 C3084 C 0.27962 0.56923 0.29244
 C3085 C 0.27840 0.58812 0.30922
 C3086 C 0.27271 0.57619 0.30323
 H3087 H 0.27264 0.59311 0.31755
 H3088 H 0.26275 0.57233 0.30713
 H3089 H 0.29074 0.61050 0.31930
 H3090 H 0.32706 0.60876 0.29254
 H3091 H 0.29861 0.54962 0.26260
 H3092 H 0.26356 0.55350 0.29063
 H3093 H 0.31800 0.58830 0.28151
 H3094 H 0.30906 0.57042 0.27197
 C3095 C 0.29442 0.08782 0.79391
 C3096 C 0.29275 0.09000 0.80832
 C3097 C 0.29863 0.10182 0.81465
 C3098 C 0.30641 0.11145 0.80688
 C3099 C 0.30810 0.10921 0.79263
 C3100 C 0.30217 0.09761 0.78621
 C3101 C 0.28809 0.07504 0.78755
 C3102 C 0.28893 0.07207 0.77329
 C3103 C 0.28321 0.05985 0.76792
 C3104 C 0.27651 0.05021 0.77658
 C3105 C 0.27533 0.05321 0.79077
 C3106 C 0.28102 0.06551 0.79628
 C3107 C 0.28541 0.08029 0.81634
 C3108 C 0.27974 0.06827 0.81047
 H3109 H 0.28415 0.08192 0.82737
 H3110 H 0.27428 0.06101 0.81715
 H3111 H 0.29740 0.10334 0.82570
 H3112 H 0.31392 0.11652 0.78634
 H3113 H 0.28398 0.05796 0.75689
 H3114 H 0.27025 0.04582 0.79759
 H3115 H 0.30389 0.09650 0.77524
 H3116 H 0.29394 0.07902 0.76607
 C3117 C 0.79496 0.58630 0.79624
 C3118 C 0.80799 0.59131 0.79117
 C3119 C 0.81418 0.60319 0.79709
 C3120 C 0.80761 0.61023 0.80810
 C3121 C 0.79467 0.60521 0.81305
 C3122 C 0.78843 0.59345 0.80724
 C3123 C 0.78878 0.57349 0.78977
 C3124 C 0.77587 0.56770 0.79408
 C3125 C 0.77074 0.55557 0.78798
 C3126 C 0.77827 0.54887 0.77740
 C3127 C 0.79100 0.55469 0.77284
 C3128 C 0.79630 0.56689 0.77893
 C3129 C 0.81481 0.58439 0.78029
 C3130 C 0.80911 0.57244 0.77432
 H3131 H 0.82477 0.58823 0.77637
 H3132 H 0.81485 0.56743 0.76599
 H3133 H 0.82421 0.60680 0.79317
 H3134 H 0.78922 0.61037 0.82143
 H3135 H 0.76076 0.55144 0.79153
 H3136 H 0.79696 0.54954 0.76474
 H3137 H 0.77851 0.59017 0.81156
 H3138 H 0.76957 0.57231 0.80215
 C3139 C 0.79774 0.08662 0.29516
 C3140 C 0.79077 0.09310 0.30641
 C3141 C 0.79658 0.10500 0.31265
 C3142 C 0.80932 0.11067 0.30785
 C3143 C 0.81609 0.10424 0.29660
 C3144 C 0.81042 0.09244 0.29034
 C3145 C 0.79134 0.07380 0.28893
 C3146 C 0.79759 0.06646 0.27788
 C3147 C 0.79134 0.05445 0.27259
 C3148 C 0.77867 0.04942 0.27812
 C3149 C 0.77230 0.05672 0.28907
 C3150 C 0.77853 0.06878 0.29452
 C3151 C 0.77807 0.08763 0.31140
 C3152 C 0.77207 0.07576 0.30557
 H3153 H 0.77270 0.09258 0.32001
 H3154 H 0.76227 0.07192 0.30986
 H3155 H 0.79111 0.10981 0.32125
 H3156 H 0.82589 0.10823 0.29254
 H3157 H 0.79660 0.04894 0.26428
 H3158 H 0.76241 0.05304 0.29333
 H3159 H 0.81617 0.08807 0.28174
 H3160 H 0.80737 0.06970 0.27322
 C3161 C 0.70636 0.41302 0.29990
 C3162 C 0.69489 0.40653 0.29313
 C3163 C 0.68864 0.39459 0.29883
 C3164 C 0.69361 0.38888 0.31129
 C3165 C 0.70498 0.39539 0.31796
 C3166 C 0.71127 0.40725 0.31238
 C3167 C 0.71271 0.42578 0.29348
 C3168 C 0.72416 0.43302 0.29936
 C3169 C 0.72958 0.44493 0.29304
 C3170 C 0.72375 0.44998 0.28069
 C3171 C 0.71244 0.44276 0.27468
 C3172 C 0.70690 0.43079 0.28095
 C3173 C 0.68969 0.41200 0.28072
 C3174 C 0.69555 0.42385 0.27477
 H3175 H 0.68091 0.40704 0.27552
 H3176 H 0.69109 0.42768 0.26519
 H3177 H 0.67988 0.38980 0.29349
 H3178 H 0.70916 0.39135 0.32754
 H3179 H 0.73820 0.45037 0.29799
 H3180 H 0.70799 0.44642 0.26502
 H3181 H 0.71996 0.41171 0.31803
 H3182 H 0.72904 0.42975 0.30888
 C3183 C 0.70544 0.91307 0.79925
 C3184 C 0.69412 0.90638 0.79242
 C3185 C 0.68799 0.89438 0.79815
 C3186 C 0.69293 0.88886 0.81070
 C3187 C 0.70413 0.89560 0.81743
 C3188 C 0.71030 0.90748 0.81182
 C3189 C 0.71170 0.92585 0.79281
 C3190 C 0.72301 0.93323 0.79878
 C3191 C 0.72838 0.94513 0.79244
 C3192 C 0.72268 0.95004 0.77999
 C3193 C 0.71148 0.94270 0.77391
 C3194 C 0.70597 0.93071 0.78020
 C3195 C 0.68898 0.91171 0.77992
 C3196 C 0.69476 0.92361 0.77396
 H3197 H 0.68031 0.90661 0.77467
 H3198 H 0.69036 0.92732 0.76430
 H3199 H 0.67940 0.88935 0.79275
 H3200 H 0.70820 0.89180 0.82715
 H3201 H 0.73689 0.95067 0.79748
 H3202 H 0.70709 0.94627 0.76419
 H3203 H 0.71884 0.91211 0.81755
 H3204 H 0.72783 0.93007 0.80836
 C3205 C 0.20647 0.41367 0.79914
 C3206 C 0.19521 0.40703 0.79218
 C3207 C 0.18882 0.39520 0.79795
 C3208 C 0.19343 0.38980 0.81067
 C3209 C 0.20459 0.39647 0.81752
 C3210 C 0.21103 0.40819 0.81187
 C3211 C 0.21296 0.42631 0.79267
 C3212 C 0.22424 0.43364 0.79873
 C3213 C 0.22974 0.44550 0.79241
 C3214 C 0.22418 0.45038 0.77989
 C3215 C 0.21307 0.44304 0.77367
 C3216 C 0.20744 0.43112 0.77994
 C3217 C 0.19033 0.41225 0.77954
 C3218 C 0.19630 0.42404 0.77357
 H3219 H 0.18171 0.40717 0.77419
 H3220 H 0.19208 0.42770 0.76381
 H3221 H 0.18026 0.39024 0.79245
 H3222 H 0.20842 0.39272 0.82736
 H3223 H 0.23821 0.45103 0.79751
 H3224 H 0.20884 0.44658 0.76388
 H3225 H 0.21951 0.41280 0.81769
 H3226 H 0.22893 0.43049 0.80838
 C3227 C 0.20674 0.91409 0.29891
 C3228 C 0.19535 0.90748 0.29212
 C3229 C 0.18910 0.89559 0.29790
 C3230 C 0.19398 0.89007 0.31047
 C3231 C 0.20526 0.89670 0.31717
 C3232 C 0.21155 0.90850 0.31151
 C3233 C 0.21307 0.92679 0.29241
 C3234 C 0.22447 0.93410 0.29829
 C3235 C 0.22985 0.94599 0.29192
 C3236 C 0.22404 0.95093 0.27954
 C3237 C 0.21280 0.94363 0.27351
 C3238 C 0.20730 0.93167 0.27982
 C3239 C 0.19021 0.91279 0.27962
 C3240 C 0.19604 0.92463 0.27361
 H3241 H 0.18150 0.90774 0.27440
 H3242 H 0.19164 0.92835 0.26396
 H3243 H 0.18040 0.89072 0.29255
 H3244 H 0.20935 0.89281 0.32685
 H3245 H 0.23844 0.95149 0.29686
 H3246 H 0.20837 0.94722 0.26381
 H3247 H 0.22015 0.91307 0.31720
 H3248 H 0.22935 0.93089 0.30784
 C3249 C 0.41102 0.29576 0.70319
 C3250 C 0.40588 0.30863 0.70823
 C3251 C 0.39387 0.31471 0.70229
 C3252 C 0.38677 0.30818 0.69130
 C3253 C 0.39191 0.29540 0.68637
 C3254 C 0.40383 0.28928 0.69218
 C3255 C 0.42393 0.28967 0.70974
 C3256 C 0.42990 0.27696 0.70542
 C3257 C 0.44205 0.27184 0.71170
 C3258 C 0.44861 0.27920 0.72246
 C3259 C 0.44265 0.29177 0.72697
 C3260 C 0.43043 0.29706 0.72070
 C3261 C 0.41278 0.31538 0.71916
 C3262 C 0.42478 0.30972 0.72525
 H3263 H 0.40886 0.32523 0.72304
 H3264 H 0.42975 0.31538 0.73364
 H3265 H 0.39016 0.32459 0.70625
 H3266 H 0.38673 0.28999 0.67799
 H3267 H 0.44631 0.26200 0.70816
 H3268 H 0.44771 0.29762 0.73518
 H3269 H 0.40721 0.27948 0.68788
 H3270 H 0.42541 0.27081 0.69720
 C3271 C 0.41103 0.80014 0.20543
 C3272 C 0.40428 0.79282 0.19459
 C3273 C 0.39231 0.79844 0.18817
 C3274 C 0.38684 0.81138 0.19232
 C3275 C 0.39358 0.81860 0.20308
 C3276 C 0.40548 0.81310 0.20954
 C3277 C 0.42385 0.79379 0.21195
 C3278 C 0.43136 0.80022 0.22280
 C3279 C 0.44338 0.79398 0.22833
 C3280 C 0.44823 0.78117 0.22324
 C3281 C 0.44070 0.77460 0.21258
 C3282 C 0.42864 0.78079 0.20691
 C3283 C 0.40951 0.77993 0.19017
 C3284 C 0.42143 0.77405 0.19619
 H3285 H 0.40434 0.77431 0.18187
 H3286 H 0.42509 0.76409 0.19235
 H3287 H 0.38725 0.79263 0.17997
 H3288 H 0.38976 0.82863 0.20651
 H3289 H 0.44907 0.79934 0.23645
 H3290 H 0.44421 0.76458 0.20873
 H3291 H 0.41017 0.81920 0.21770
 H3292 H 0.42822 0.81009 0.22711
 C3293 C 0.91160 0.29937 0.20657
 C3294 C 0.90529 0.29246 0.19521
 C3295 C 0.89335 0.29815 0.18877
 C3296 C 0.88748 0.31075 0.19339
 C3297 C 0.89377 0.31754 0.20468
 C3298 C 0.90562 0.31197 0.21119
 C3299 C 0.92444 0.29300 0.21305
 C3300 C 0.93155 0.29903 0.22438
 C3301 C 0.94364 0.29282 0.22983
 C3302 C 0.94897 0.28046 0.22415
 C3303 C 0.94184 0.27426 0.21302
 C3304 C 0.92970 0.28041 0.20745
 C3305 C 0.91096 0.27995 0.19027
 C3306 C 0.92290 0.27406 0.19625
 H3307 H 0.90613 0.27464 0.18159
 H3308 H 0.92691 0.26441 0.19198
 H3309 H 0.88870 0.29267 0.18012
 H3310 H 0.88961 0.32727 0.20855
 H3311 H 0.94901 0.29788 0.23834
 H3312 H 0.94573 0.26458 0.20870
 H3313 H 0.90995 0.31772 0.21977
 H3314 H 0.92804 0.30858 0.22912
 C3315 C 0.91003 0.79554 0.70284
 C3316 C 0.90531 0.80861 0.70775
 C3317 C 0.89346 0.81497 0.70179
 C3318 C 0.88612 0.80852 0.69091
 C3319 C 0.89080 0.79551 0.68615
 C3320 C 0.90256 0.78911 0.69200
 C3321 C 0.92288 0.78922 0.70932
 C3322 C 0.92850 0.77632 0.70509
 C3323 C 0.94068 0.77106 0.71120
 C3324 C 0.94760 0.77845 0.72171
 C3325 C 0.94197 0.79118 0.72618
 C3326 C 0.92973 0.79661 0.72007
 C3327 C 0.91250 0.81532 0.71852
 C3328 C 0.92444 0.80946 0.72454
 H3329 H 0.90888 0.82532 0.72231
 H3330 H 0.92966 0.81511 0.73278
 H3331 H 0.89010 0.82502 0.70561
 H3332 H 0.88540 0.79015 0.67787
 H3333 H 0.94469 0.76110 0.70771
 H3334 H 0.94731 0.79705 0.73420
 H3335 H 0.90560 0.77915 0.68782
 H3336 H 0.92373 0.77015 0.69704
 C3337 C 0.58965 0.29761 0.29552
 C3338 C 0.59445 0.29247 0.30840
 C3339 C 0.60651 0.29817 0.31463
 C3340 C 0.61399 0.30903 0.30827
 C3341 C 0.60916 0.31411 0.29552
 C3342 C 0.59719 0.30852 0.28922
 C3343 C 0.57671 0.29126 0.28923
 C3344 C 0.57110 0.29560 0.27644
 C3345 C 0.55892 0.28950 0.27112
 C3346 C 0.55196 0.27889 0.27834
 C3347 C 0.55754 0.27435 0.29101
 C3348 C 0.56980 0.28044 0.29648
 C3349 C 0.58717 0.28169 0.31500
 C3350 C 0.57511 0.27582 0.30919
 H3351 H 0.59083 0.27773 0.32486
 H3352 H 0.56985 0.26754 0.31475
 H3353 H 0.60998 0.29416 0.32452
 H3354 H 0.61466 0.32238 0.29022
 H3355 H 0.55498 0.29305 0.26122
 H3356 H 0.55219 0.26626 0.29675
 H3357 H 0.59407 0.31290 0.27943
 H3358 H 0.57593 0.30370 0.27037
 C3359 C 0.58896 0.79572 0.79871
 C3360 C 0.59576 0.80690 0.79194
 C3361 C 0.60774 0.81310 0.79786
 C3362 C 0.61315 0.80838 0.81054
 C3363 C 0.60634 0.79728 0.81720
 C3364 C 0.59446 0.79103 0.81140
 C3365 C 0.57615 0.78944 0.79209
 C3366 C 0.56862 0.77828 0.79798
 C3367 C 0.55663 0.77296 0.79151
 C3368 C 0.55181 0.77857 0.77899
 C3369 C 0.55933 0.78957 0.77296
 C3370 C 0.57138 0.79504 0.77939
 C3371 C 0.59055 0.81187 0.77933
 C3372 C 0.57863 0.80608 0.77320
 H3373 H 0.59575 0.82043 0.77412
 H3374 H 0.57499 0.81036 0.76347
 H3375 H 0.61284 0.82159 0.79249
 H3376 H 0.61008 0.79338 0.82702
 H3377 H 0.55095 0.76458 0.79648
 H3378 H 0.55584 0.79386 0.76318
 H3379 H 0.58974 0.78259 0.81708
 H3380 H 0.57173 0.77355 0.80761
 C3381 C 0.08853 0.29981 0.79480
 C3382 C 0.09489 0.29279 0.80604
 C3383 C 0.10693 0.29836 0.81244
 C3384 C 0.11286 0.31092 0.80784
 C3385 C 0.10647 0.31783 0.79669
 C3386 C 0.09452 0.31240 0.79027
 C3387 C 0.07568 0.29353 0.78825
 C3388 C 0.06856 0.29970 0.77703
 C3389 C 0.05658 0.29348 0.77138
 C3390 C 0.05135 0.28095 0.77671
 C3391 C 0.05843 0.27467 0.78783
 C3392 C 0.07047 0.28085 0.79362
 C3393 C 0.08921 0.28025 0.81083
 C3394 C 0.07728 0.27441 0.80476
 H3395 H 0.09406 0.27485 0.81943
 H3396 H 0.07329 0.26470 0.80887
 H3397 H 0.11163 0.29283 0.82102
 H3398 H 0.11066 0.32751 0.79280
 H3399 H 0.05123 0.29866 0.76294
 H3400 H 0.05462 0.26489 0.79193
 H3401 H 0.09017 0.31824 0.78177
 H3402 H 0.07198 0.30936 0.77250
 C3403 C 0.08906 0.80025 0.29560
 C3404 C 0.09562 0.79312 0.30666
 C3405 C 0.10776 0.79863 0.31293
 C3406 C 0.11358 0.81126 0.30839
 C3407 C 0.10695 0.81833 0.29748
 C3408 C 0.09491 0.81294 0.29117
 C3409 C 0.07616 0.79398 0.28914
 C3410 C 0.06892 0.80019 0.27801
 C3411 C 0.05688 0.79399 0.27245
 C3412 C 0.05172 0.78143 0.27780
 C3413 C 0.05893 0.77511 0.28881
 C3414 C 0.07103 0.78126 0.29449
 C3415 C 0.09003 0.78051 0.31141
 C3416 C 0.07800 0.77473 0.30547
 H3417 H 0.09503 0.77503 0.31988
 H3418 H 0.07409 0.76498 0.30956
 H3419 H 0.11266 0.79297 0.32131
 H3420 H 0.11101 0.82812 0.29372
 H3421 H 0.05144 0.79918 0.26408
 H3422 H 0.05518 0.76530 0.29290
 H3423 H 0.09038 0.81890 0.28285
 H3424 H 0.07230 0.80986 0.27347
 C3425 C 0.58904 0.70406 0.70499
 C3426 C 0.59394 0.70886 0.69202
 C3427 C 0.60574 0.70263 0.68576
 C3428 C 0.61283 0.69156 0.69220
 C3429 C 0.60795 0.68689 0.70510
 C3430 C 0.59627 0.69303 0.71142
 C3431 C 0.57626 0.71083 0.71122
 C3432 C 0.57049 0.70672 0.72401
 C3433 C 0.55838 0.71311 0.72920
 C3434 C 0.55167 0.72377 0.72182
 C3435 C 0.55747 0.72813 0.70919
 C3436 C 0.56965 0.72173 0.70384
 C3437 C 0.58699 0.71980 0.68532
 C3438 C 0.57511 0.72609 0.69109
 H3439 H 0.59075 0.72353 0.67541
 H3440 H 0.57009 0.73446 0.68545
 H3441 H 0.60925 0.70635 0.67577
 H3442 H 0.61316 0.67848 0.71046
 H3443 H 0.55426 0.70971 0.73908
 H3444 H 0.55231 0.73627 0.70334
 H3445 H 0.59310 0.68893 0.72132
 H3446 H 0.57508 0.69857 0.73017
 C3447 C 0.58949 0.20261 0.20608
 C3448 C 0.59410 0.20740 0.19300
 C3449 C 0.60590 0.20132 0.18659
 C3450 C 0.61329 0.19042 0.19299
 C3451 C 0.60871 0.18577 0.20599
 C3452 C 0.59702 0.19174 0.21245
 C3453 C 0.57673 0.20924 0.21248
 C3454 C 0.57125 0.20513 0.22540
 C3455 C 0.55915 0.21139 0.23076
 C3456 C 0.55217 0.22193 0.22346
 C3457 C 0.55767 0.22627 0.21069
 C3458 C 0.56982 0.22000 0.20515
 C3459 C 0.58686 0.21819 0.18634
 C3460 C 0.57499 0.22434 0.19228
 H3461 H 0.59038 0.22190 0.17634
 H3462 H 0.56974 0.23260 0.18667
 H3463 H 0.60919 0.20504 0.17652
 H3464 H 0.61418 0.17750 0.21133
 H3465 H 0.55526 0.20799 0.24074
 H3466 H 0.55230 0.23432 0.20488
 H3467 H 0.59407 0.18764 0.22242
 H3468 H 0.57607 0.19708 0.23153
 C3469 C 0.08878 0.70229 0.20573
 C3470 C 0.09500 0.70898 0.19421
 C3471 C 0.10682 0.70307 0.18766
 C3472 C 0.11263 0.69049 0.19235
 C3473 C 0.10639 0.68393 0.20380
 C3474 C 0.09468 0.68971 0.21040
 C3475 C 0.07611 0.70888 0.21238
 C3476 C 0.06912 0.70304 0.22387
 C3477 C 0.05724 0.70946 0.22953
 C3478 C 0.05199 0.72188 0.22395
 C3479 C 0.05898 0.72786 0.21262
 C3480 C 0.07092 0.72147 0.20680
 C3481 C 0.08938 0.72149 0.18927
 C3482 C 0.07761 0.72759 0.19542
 H3483 H 0.09413 0.72663 0.18045
 H3484 H 0.07365 0.73725 0.19116
 H3485 H 0.11142 0.70835 0.17887
 H3486 H 0.11047 0.67423 0.20775
 H3487 H 0.05197 0.70451 0.23815
 H3488 H 0.05517 0.73757 0.20834
 H3489 H 0.09042 0.68411 0.21910
 H3490 H 0.07256 0.69348 0.22859
 C3491 C 0.08909 0.20166 0.70579
 C3492 C 0.09568 0.20851 0.69457
 C3493 C 0.10769 0.20271 0.68830
 C3494 C 0.11334 0.19004 0.69296
 C3495 C 0.10676 0.18330 0.70411
 C3496 C 0.09484 0.18900 0.71044
 C3497 C 0.07623 0.20818 0.71213
 C3498 C 0.06888 0.20224 0.72334
 C3499 C 0.05685 0.20864 0.72874
 C3500 C 0.05180 0.22113 0.72315
 C3501 C 0.05912 0.22720 0.71206
 C3502 C 0.07122 0.22085 0.70654
 C3503 C 0.09024 0.22109 0.68960
 C3504 C 0.07827 0.22711 0.69544
 H3505 H 0.09528 0.22635 0.68102
 H3506 H 0.07445 0.23682 0.69117
 H3507 H 0.11258 0.20815 0.67977
 H3508 H 0.11072 0.17352 0.70800
 H3509 H 0.05133 0.20362 0.73717
 H3510 H 0.05546 0.23696 0.70777
 H3511 H 0.09030 0.18328 0.71893
 H3512 H 0.07218 0.19262 0.72806
 C3513 C 0.41076 0.70631 0.29733
 C3514 C 0.40599 0.69335 0.29221
 C3515 C 0.39414 0.68692 0.29810
 C3516 C 0.38684 0.69319 0.30912
 C3517 C 0.39159 0.70606 0.31415
 C3518 C 0.40337 0.71253 0.30839
 C3519 C 0.42352 0.71277 0.29082
 C3520 C 0.42909 0.72564 0.29515
 C3521 C 0.44117 0.73106 0.28896
 C3522 C 0.44800 0.72387 0.27824
 C3523 C 0.44241 0.71116 0.27368
 C3524 C 0.43029 0.70556 0.27988
 C3525 C 0.41312 0.68681 0.28128
 C3526 C 0.42500 0.69278 0.27526
 H3527 H 0.40947 0.67689 0.27734
 H3528 H 0.43016 0.68728 0.26687
 H3529 H 0.39075 0.67695 0.29412
 H3530 H 0.38621 0.71128 0.32254
 H3531 H 0.44514 0.74099 0.29253
 H3532 H 0.44768 0.70544 0.26549
 H3533 H 0.40650 0.72236 0.31279
 H3534 H 0.42434 0.73169 0.30331
 C3535 C 0.41141 0.20147 0.79371
 C3536 C 0.40456 0.20836 0.80478
 C3537 C 0.39264 0.20241 0.81101
 C3538 C 0.38732 0.18958 0.80643
 C3539 C 0.39415 0.18277 0.79545
 C3540 C 0.40601 0.18860 0.78917
 C3541 C 0.42415 0.20817 0.78739
 C3542 C 0.43176 0.20219 0.77634
 C3543 C 0.44370 0.20876 0.77101
 C3544 C 0.44836 0.22146 0.77650
 C3545 C 0.44074 0.22759 0.78737
 C3546 C 0.42876 0.22106 0.79285
 C3547 C 0.40962 0.22116 0.80961
 C3548 C 0.42146 0.22737 0.80378
 H3549 H 0.40437 0.22645 0.81809
 H3550 H 0.42498 0.23725 0.80793
 H3551 H 0.38750 0.20791 0.81939
 H3552 H 0.39044 0.17283 0.79170
 H3553 H 0.44948 0.20373 0.76272
 H3554 H 0.44411 0.23751 0.79155
 H3555 H 0.41078 0.18282 0.78082
 H3556 H 0.42877 0.19242 0.77173
 C3557 C 0.91150 0.70148 0.79420
 C3558 C 0.90472 0.70847 0.80525
 C3559 C 0.89280 0.70260 0.81157
 C3560 C 0.88744 0.68974 0.80709
 C3561 C 0.89425 0.68283 0.79616
 C3562 C 0.90608 0.68858 0.78980
 C3563 C 0.92419 0.70811 0.78773
 C3564 C 0.93164 0.70206 0.77662
 C3565 C 0.94351 0.70856 0.77108
 C3566 C 0.94827 0.72129 0.77642
 C3567 C 0.94084 0.72748 0.78738
 C3568 C 0.92891 0.72102 0.79306
 C3569 C 0.90987 0.72128 0.80997
 C3570 C 0.92171 0.72740 0.80402
 H3571 H 0.90469 0.72664 0.81844
 H3572 H 0.92531 0.73729 0.80809
 H3573 H 0.88769 0.70815 0.81993
 H3574 H 0.89055 0.67285 0.79249
 H3575 H 0.94914 0.70346 0.76275
 H3576 H 0.94429 0.73742 0.79146
 H3577 H 0.91081 0.68272 0.78148
 H3578 H 0.92857 0.69227 0.77208
 C3579 C 0.91288 0.20118 0.29273
 C3580 C 0.90651 0.20803 0.30410
 C3581 C 0.89459 0.20228 0.31050
 C3582 C 0.88880 0.18969 0.30581
 C3583 C 0.89510 0.18300 0.29444
 C3584 C 0.90693 0.18863 0.28798
 C3585 C 0.92576 0.20754 0.28635
 C3586 C 0.93298 0.20148 0.27510
 C3587 C 0.94507 0.20770 0.26971
 C3588 C 0.95030 0.22009 0.27537
 C3589 C 0.94310 0.22629 0.28648
 C3590 C 0.93095 0.22013 0.29200
 C3591 C 0.91212 0.22054 0.30910
 C3592 C 0.92407 0.22646 0.30317
 H3593 H 0.90724 0.22580 0.31780
 H3594 H 0.92804 0.23610 0.30748
 H3595 H 0.88990 0.20768 0.31919
 H3596 H 0.89097 0.17332 0.29046
 H3597 H 0.95051 0.20264 0.26122
 H3598 H 0.94692 0.23599 0.29079
 H3599 H 0.91125 0.18296 0.27933
 H3600 H 0.92956 0.19191 0.27035
 C3601 C 0.29340 0.29557 0.58955
 C3602 C 0.29299 0.31021 0.59111
 C3603 C 0.29899 0.31651 0.60284
 C3604 C 0.30583 0.30845 0.61288
 C3605 C 0.30647 0.29399 0.61118
 C3606 C 0.30029 0.28760 0.59973
 C3607 C 0.28681 0.28924 0.57694
 C3608 C 0.28593 0.27477 0.57481
 C3609 C 0.28005 0.26939 0.56271
 C3610 C 0.27493 0.27825 0.55233
 C3611 C 0.27546 0.29269 0.55452
 C3612 C 0.28118 0.29821 0.56675
 C3613 C 0.28687 0.31849 0.58084
 C3614 C 0.28127 0.31264 0.56883
 H3615 H 0.28661 0.32971 0.58198
 H3616 H 0.27685 0.31951 0.56109
 H3617 H 0.29867 0.32772 0.60395
 H3618 H 0.31165 0.28754 0.61880
 H3619 H 0.27943 0.25821 0.56154
 H3620 H 0.27166 0.29971 0.54660
 H3621 H 0.30118 0.27645 0.59899
 H3622 H 0.28964 0.26740 0.58237
 C3623 C 0.29693 0.79470 0.08747
 C3624 C 0.29159 0.80765 0.09207
 C3625 C 0.29732 0.81410 0.10384
 C3626 C 0.30839 0.80787 0.11122
 C3627 C 0.31363 0.79501 0.10662
 C3628 C 0.30801 0.78851 0.09494
 C3629 C 0.29059 0.78822 0.07478
 C3630 C 0.29519 0.77539 0.06932
 C3631 C 0.28913 0.76992 0.05735
 C3632 C 0.27830 0.77704 0.05048
 C3633 C 0.27352 0.78974 0.05592
 C3634 C 0.27957 0.79537 0.06795
 C3635 C 0.28060 0.81414 0.08488
 C3636 C 0.27473 0.80813 0.07309
 H3637 H 0.27649 0.82405 0.08842
 H3638 H 0.26628 0.81360 0.06788
 H3639 H 0.29316 0.82405 0.10713
 H3640 H 0.32207 0.78982 0.11205
 H3641 H 0.29287 0.76000 0.05350
 H3642 H 0.26527 0.79540 0.05061
 H3643 H 0.31252 0.77865 0.09198
 H3644 H 0.30347 0.76941 0.07409
 C3645 C 0.79720 0.29431 0.08858
 C3646 C 0.79177 0.30717 0.09333
 C3647 C 0.79756 0.31360 0.10509
 C3648 C 0.80878 0.30744 0.11232
 C3649 C 0.81410 0.29467 0.10757
 C3650 C 0.80844 0.28820 0.09590
 C3651 C 0.79081 0.28785 0.07591
 C3652 C 0.79548 0.27511 0.07033
 C3653 C 0.78935 0.26966 0.05837
 C3654 C 0.77838 0.27671 0.05166
 C3655 C 0.77351 0.28931 0.05724
 C3656 C 0.77963 0.29492 0.06924
 C3657 C 0.78063 0.31359 0.08630
 C3658 C 0.77470 0.30760 0.07452
 H3659 H 0.77645 0.32343 0.08993
 H3660 H 0.76613 0.31301 0.06943
 H3661 H 0.79331 0.32348 0.10849
 H3662 H 0.82267 0.28954 0.11286
 H3663 H 0.79316 0.25980 0.05441
 H3664 H 0.76514 0.29493 0.05205
 H3665 H 0.81304 0.27843 0.09280
 H3666 H 0.80387 0.26918 0.07497
 C3667 C 0.79278 0.79908 0.58808
 C3668 C 0.80420 0.79233 0.59466
 C3669 C 0.81039 0.79821 0.60649
 C3670 C 0.80547 0.81086 0.61196
 C3671 C 0.79416 0.81753 0.60538
 C3672 C 0.78789 0.81176 0.59363
 C3673 C 0.78650 0.79245 0.57544
 C3674 C 0.77505 0.79824 0.56816
 C3675 C 0.76971 0.79172 0.55635
 C3676 C 0.77562 0.77927 0.55147
 C3677 C 0.78692 0.77335 0.55873
 C3678 C 0.79237 0.77980 0.57061
 C3679 C 0.80943 0.77977 0.58940
 C3680 C 0.80367 0.77366 0.57761
 H3681 H 0.81818 0.77460 0.59443
 H3682 H 0.80816 0.76398 0.57392
 H3683 H 0.81904 0.79281 0.61140
 H3684 H 0.79011 0.82732 0.60921
 H3685 H 0.76108 0.79660 0.55087
 H3686 H 0.79143 0.76361 0.55519
 H3687 H 0.77927 0.81743 0.58906
 H3688 H 0.77010 0.80782 0.57135
 C3689 C 0.29331 0.70027 0.41233
 C3690 C 0.30455 0.70731 0.40574
 C3691 C 0.31084 0.70164 0.39384
 C3692 C 0.30622 0.68891 0.38831
 C3693 C 0.29506 0.68198 0.39489
 C3694 C 0.28868 0.68755 0.40670
 C3695 C 0.28694 0.70667 0.42507
 C3696 C 0.27563 0.70060 0.43235
 C3697 C 0.27024 0.70688 0.44428
 C3698 C 0.27595 0.71937 0.44928
 C3699 C 0.28707 0.72559 0.44199
 C3700 C 0.29258 0.71937 0.43000
 C3701 C 0.30954 0.71992 0.41109
 C3702 C 0.30371 0.72580 0.42298
 H3703 H 0.31815 0.72532 0.40606
 H3704 H 0.30802 0.73552 0.42675
 H3705 H 0.31934 0.70726 0.38892
 H3706 H 0.29120 0.67214 0.39100
 H3707 H 0.26174 0.70180 0.44976
 H3708 H 0.29140 0.73537 0.44561
 H3709 H 0.28021 0.68167 0.41126
 H3710 H 0.27084 0.69098 0.42908
 C3711 C 0.29692 0.20339 0.91109
 C3712 C 0.29162 0.19047 0.90636
 C3713 C 0.29745 0.18410 0.89456
 C3714 C 0.30856 0.19039 0.88728
 C3715 C 0.31372 0.20323 0.89201
 C3716 C 0.30803 0.20963 0.90371
 C3717 C 0.29051 0.20979 0.92380
 C3718 C 0.29509 0.22256 0.92937
 C3719 C 0.28899 0.22795 0.94138
 C3720 C 0.27814 0.22080 0.94817
 C3721 C 0.27332 0.20818 0.94259
 C3722 C 0.27944 0.20262 0.93053
 C3723 C 0.28058 0.18396 0.91346
 C3724 C 0.27462 0.18990 0.92527
 H3725 H 0.27649 0.17407 0.90985
 H3726 H 0.26613 0.18441 0.93040
 H3727 H 0.29333 0.17417 0.89117
 H3728 H 0.32216 0.20850 0.88666
 H3729 H 0.29275 0.23782 0.94533
 H3730 H 0.26502 0.20250 0.94781
 H3731 H 0.31252 0.21946 0.90677
 H3732 H 0.30340 0.22857 0.92468
 C3733 C 0.79517 0.69987 0.91228
 C3734 C 0.80645 0.70687 0.90573
 C3735 C 0.81263 0.70128 0.89371
 C3736 C 0.80777 0.68870 0.88803
 C3737 C 0.79657 0.68182 0.89461
 C3738 C 0.79035 0.68729 0.90651
 C3739 C 0.78890 0.70614 0.92512
 C3740 C 0.77766 0.69998 0.93241
 C3741 C 0.77230 0.70614 0.94439
 C3742 C 0.77796 0.71862 0.94946
 C3743 C 0.78909 0.72490 0.94221
 C3744 C 0.79459 0.71878 0.93015
 C3745 C 0.81153 0.71940 0.91121
 C3746 C 0.80574 0.72521 0.92315
 H3747 H 0.82017 0.72478 0.90621
 H3748 H 0.81009 0.73490 0.92699
 H3749 H 0.82121 0.70681 0.88882
 H3750 H 0.79253 0.67209 0.89066
 H3751 H 0.76384 0.70097 0.94986
 H3752 H 0.79342 0.73466 0.94590
 H3753 H 0.78182 0.68145 0.91102
 H3754 H 0.77288 0.69036 0.92912
 C3755 C 0.79979 0.20357 0.41169
 C3756 C 0.79236 0.19271 0.40500
 C3757 C 0.79783 0.18658 0.39292
 C3758 C 0.81071 0.19104 0.38732
 C3759 C 0.81806 0.20176 0.39405
 C3760 C 0.81272 0.20794 0.40603
 C3761 C 0.79357 0.20987 0.42454
 C3762 C 0.80005 0.22081 0.43188
 C3763 C 0.79390 0.22620 0.44388
 C3764 C 0.78113 0.22087 0.44889
 C3765 C 0.77452 0.21007 0.44156
 C3766 C 0.78062 0.20456 0.42949
 C3767 C 0.77953 0.18801 0.41040
 C3768 C 0.77380 0.19378 0.42239
 H3769 H 0.77383 0.17969 0.40530
 H3770 H 0.76387 0.18972 0.42617
 H3771 H 0.79194 0.17837 0.38790
 H3772 H 0.82809 0.20540 0.39019
 H3773 H 0.79932 0.23442 0.44939
 H3774 H 0.76453 0.20602 0.44518
 H3775 H 0.81893 0.21607 0.41070
 H3776 H 0.80987 0.22534 0.42860
 C3777 C 0.70628 0.29592 0.41210
 C3778 C 0.69327 0.29079 0.40709
 C3779 C 0.68697 0.29682 0.39538
 C3780 C 0.69338 0.30804 0.38854
 C3781 C 0.70625 0.31311 0.39359
 C3782 C 0.71263 0.30716 0.40516
 C3783 C 0.71264 0.28922 0.42465
 C3784 C 0.72558 0.29351 0.43038
 C3785 C 0.73092 0.28715 0.44224
 C3786 C 0.72357 0.27633 0.44874
 C3787 C 0.71079 0.27180 0.44299
 C3788 C 0.70528 0.27815 0.43105
 C3789 C 0.68659 0.27972 0.41384
 C3790 C 0.69244 0.27356 0.42556
 H3791 H 0.67662 0.27578 0.41003
 H3792 H 0.68680 0.26508 0.43043
 H3793 H 0.67696 0.29286 0.39172
 H3794 H 0.71159 0.32163 0.38852
 H3795 H 0.74092 0.29069 0.44630
 H3796 H 0.70494 0.26352 0.44798
 H3797 H 0.72251 0.31156 0.40847
 H3798 H 0.73176 0.30177 0.42592
 C3799 C 0.70685 0.79808 0.91345
 C3800 C 0.69548 0.79121 0.90691
 C3801 C 0.68914 0.79703 0.89512
 C3802 C 0.69390 0.80973 0.88967
 C3803 C 0.70514 0.81653 0.89627
 C3804 C 0.71153 0.81082 0.90796
 C3805 C 0.71335 0.79150 0.92600
 C3806 C 0.72481 0.79740 0.93317
 C3807 C 0.73036 0.79094 0.94490
 C3808 C 0.72467 0.77843 0.94980
 C3809 C 0.71335 0.77239 0.94264
 C3810 C 0.70768 0.77879 0.93084
 C3811 C 0.69044 0.77859 0.91217
 C3812 C 0.69638 0.77254 0.92390
 H3813 H 0.68172 0.77333 0.90719
 H3814 H 0.69205 0.76281 0.92759
 H3815 H 0.68052 0.79157 0.89021
 H3816 H 0.70906 0.82636 0.89250
 H3817 H 0.73899 0.79592 0.95030
 H3818 H 0.70900 0.76260 0.94620
 H3819 H 0.72007 0.81661 0.91253
 H3820 H 0.72964 0.80701 0.92997
 C3821 C 0.20511 0.29789 0.91242
 C3822 C 0.19381 0.29103 0.90574
 C3823 C 0.18758 0.29689 0.89390
 C3824 C 0.19241 0.30961 0.88854
 C3825 C 0.20361 0.31635 0.89527
 C3826 C 0.20986 0.31062 0.90699
 C3827 C 0.21149 0.29132 0.92501
 C3828 C 0.22278 0.29733 0.93237
 C3829 C 0.22826 0.29087 0.94410
 C3830 C 0.22272 0.27823 0.94884
 C3831 C 0.21153 0.27211 0.94153
 C3832 C 0.20589 0.27854 0.92972
 C3833 C 0.18880 0.27836 0.91091
 C3834 C 0.19470 0.27226 0.92264
 H3835 H 0.18015 0.27307 0.90582
 H3836 H 0.19041 0.26247 0.92623
 H3837 H 0.17895 0.29150 0.88893
 H3838 H 0.20771 0.32613 0.89153
 H3839 H 0.23674 0.29595 0.94964
 H3840 H 0.20727 0.26224 0.94497
 H3841 H 0.21840 0.31637 0.91160
 H3842 H 0.22750 0.30704 0.92932
 C3843 C 0.20565 0.79905 0.41297
 C3844 C 0.19409 0.79234 0.40657
 C3845 C 0.18789 0.79810 0.39466
 C3846 C 0.19302 0.81054 0.38894
 C3847 C 0.20447 0.81713 0.39539
 C3848 C 0.21069 0.81152 0.40719
 C3849 C 0.21200 0.79259 0.42564
 C3850 C 0.22356 0.79843 0.43272
 C3851 C 0.22903 0.79207 0.44451
 C3852 C 0.22320 0.77970 0.44960
 C3853 C 0.21172 0.77375 0.44258
 C3854 C 0.20610 0.78007 0.43070
 C3855 C 0.18878 0.77995 0.41209
 C3856 C 0.19464 0.77396 0.42389
 H3857 H 0.17992 0.77479 0.40722
 H3858 H 0.19011 0.76438 0.42776
 H3859 H 0.17905 0.79284 0.38992
 H3860 H 0.20881 0.82668 0.39135
 H3861 H 0.23775 0.79700 0.44981
 H3862 H 0.20722 0.76409 0.44630
 H3863 H 0.21944 0.81714 0.41158
 H3864 H 0.22851 0.80794 0.42939
 C3865 C 0.70649 0.69960 0.58854
 C3866 C 0.69510 0.70658 0.59497
 C3867 C 0.68887 0.70107 0.60697
 C3868 C 0.69372 0.68854 0.61273
 C3869 C 0.70503 0.68166 0.60630
 C3870 C 0.71133 0.68708 0.59441
 C3871 C 0.71280 0.70581 0.57572
 C3872 C 0.72423 0.69975 0.56858
 C3873 C 0.72961 0.70586 0.55660
 C3874 C 0.72380 0.71820 0.55139
 C3875 C 0.71250 0.72439 0.55849
 C3876 C 0.70698 0.71832 0.57054
 C3877 C 0.68991 0.71899 0.58937
 C3878 C 0.69570 0.72471 0.57740
 H3879 H 0.68118 0.72435 0.59427
 H3880 H 0.69125 0.73430 0.57345
 H3881 H 0.68022 0.70661 0.61174
 H3882 H 0.70906 0.67198 0.61033
 H3883 H 0.73823 0.70078 0.55125
 H3884 H 0.70805 0.73404 0.55469
 H3885 H 0.71992 0.68125 0.58997
 H3886 H 0.72915 0.69026 0.57203
 C3887 C 0.70593 0.20012 0.08833
 C3888 C 0.69480 0.20722 0.09507
 C3889 C 0.68861 0.20159 0.10703
 C3890 C 0.69329 0.18886 0.11248
 C3891 C 0.70431 0.18185 0.10571
 C3892 C 0.71055 0.18736 0.09385
 C3893 C 0.71226 0.20649 0.07559
 C3894 C 0.72341 0.20029 0.06817
 C3895 C 0.72885 0.20658 0.05630
 C3896 C 0.72336 0.21922 0.05149
 C3897 C 0.71232 0.22554 0.05888
 C3898 C 0.70675 0.21929 0.07082
 C3899 C 0.68988 0.21990 0.08983
 C3900 C 0.69571 0.22579 0.07797
 H3901 H 0.68134 0.22534 0.09497
 H3902 H 0.69148 0.23559 0.07432
 H3903 H 0.68018 0.20722 0.11209
 H3904 H 0.70818 0.17199 0.10948
 H3905 H 0.73724 0.20138 0.05072
 H3906 H 0.70811 0.23541 0.05539
 H3907 H 0.71893 0.18142 0.08917
 H3908 H 0.72806 0.19055 0.07127
 C3909 C 0.20548 0.70129 0.08740
 C3910 C 0.19432 0.70843 0.09405
 C3911 C 0.18807 0.70286 0.10603
 C3912 C 0.19274 0.69015 0.11155
 C3913 C 0.20380 0.68313 0.10486
 C3914 C 0.21009 0.68858 0.09301
 C3915 C 0.21186 0.70756 0.07464
 C3916 C 0.22303 0.70128 0.06730
 C3917 C 0.22850 0.70745 0.05539
 C3918 C 0.22304 0.72005 0.05046
 C3919 C 0.21198 0.72645 0.05776
 C3920 C 0.20637 0.72032 0.06974
 C3921 C 0.18943 0.72107 0.08870
 C3922 C 0.19531 0.72688 0.07681
 H3923 H 0.18087 0.72656 0.09376
 H3924 H 0.19110 0.73665 0.07306
 H3925 H 0.17960 0.70850 0.11102
 H3926 H 0.20768 0.67329 0.10867
 H3927 H 0.23689 0.70218 0.04988
 H3928 H 0.20780 0.73630 0.05417
 H3929 H 0.21850 0.68262 0.08841
 H3930 H 0.22767 0.69157 0.07049
 C3931 C 0.20385 0.20138 0.58712
 C3932 C 0.19733 0.21013 0.59704
 C3933 C 0.19129 0.20439 0.60903
 C3934 C 0.19200 0.19003 0.61151
 C3935 C 0.19874 0.18144 0.60182
 C3936 C 0.20453 0.18699 0.58976
 C3937 C 0.20993 0.20787 0.57434
 C3938 C 0.21584 0.20000 0.56348
 C3939 C 0.22141 0.20651 0.55181
 C3940 C 0.22140 0.22107 0.55064
 C3941 C 0.21541 0.22900 0.56137
 C3942 C 0.20955 0.22253 0.57307
 C3943 C 0.19707 0.22455 0.59504
 C3944 C 0.20320 0.23063 0.58341
 H3945 H 0.19218 0.23127 0.60267
 H3946 H 0.20283 0.24185 0.58242
 H3947 H 0.18632 0.21115 0.61658
 H3948 H 0.19939 0.17033 0.60345
 H3949 H 0.22556 0.20006 0.54357
 H3950 H 0.21538 0.24024 0.56071
 H3951 H 0.20958 0.17982 0.58274
 H3952 H 0.21611 0.18880 0.56368
   
