data_POSCAR
  _audit_creation_date              2014-09-24
  _audit_creation_method            'ToBaCCo'
  _symmetry_space_group_name_H-M    'P1'
  _symmetry_Int_Tables_number       1
  _symmetry_cell_setting            triclinic
  loop_
  _symmetry_equiv_pos_as_xyz
 x,y,z
_cell_length_a 59.1196
_cell_length_b 59.1313
_cell_length_c 59.0803
_cell_angle_alpha 89.986200
_cell_angle_beta 89.970800
_cell_angle_gamma 89.999500
loop_
  _atom_site_label
  _atom_site_type_symbol
  _atom_site_fract_x
  _atom_site_fract_y
  _atom_site_fract_z
C1 C 0.35801 1.35893 0.32993
 N2 N 0.33921 1.36825 0.33926
 C3 C 0.32988 1.35892 0.35807
 N4 N 0.33927 1.34020 0.36746
 C5 C 0.35807 1.33088 0.35813
 N6 N 0.36739 1.34021 0.33933
 C7 C 0.35740 0.85826 0.83043
 N8 N 0.36671 0.83947 0.83975
 C9 C 0.35733 0.83009 0.85851
 N10 N 0.33855 0.83942 0.86785
 C11 C 0.32923 0.85822 0.85853
 N12 N 0.33862 0.86759 0.83977
 C13 C 0.85687 1.35795 0.82885
 N14 N 0.83807 1.36728 0.83818
 C15 C 0.82872 1.35796 0.85698
 N16 N 0.83811 1.33923 0.86637
 C17 C 0.85690 1.32990 0.85705
 N18 N 0.86624 1.33923 0.83825
 C19 C 0.85866 0.85846 0.32976
 N20 N 0.86798 0.83967 0.33909
 C21 C 0.85863 0.83031 0.35786
 N22 N 0.83986 0.83965 0.36723
 C23 C 0.83053 0.85844 0.35791
 N24 N 0.83989 0.86780 0.33913
 C25 C 0.64118 0.64128 0.33086
 N26 N 0.65996 0.63194 0.34018
 C27 C 0.66935 0.64130 0.35892
 N28 N 0.66006 0.66011 0.36824
 C29 C 0.64127 0.66945 0.35892
 N30 N 0.63188 0.66008 0.34019
 C31 C 0.64285 0.14169 0.82919
 N32 N 0.66164 0.13237 0.83853
 C33 C 0.67095 0.14169 0.85734
 N34 N 0.66155 0.16042 0.86672
 C35 C 0.64277 0.16974 0.85738
 N36 N 0.63346 0.16041 0.83859
 C37 C 1.14084 0.64097 0.83104
 N38 N 1.13152 0.65976 0.84036
 C39 C 1.14085 0.66910 0.85914
 N40 N 1.15960 0.65974 0.86851
 C41 C 1.16891 0.64095 0.85919
 N42 N 1.15958 0.63161 0.84041
 C43 C 1.14275 0.14147 0.32938
 N44 N 1.16156 0.13216 0.33871
 C45 C 1.17089 0.14152 0.35749
 N46 N 1.16150 0.16026 0.36685
 C47 C 1.14271 0.16956 0.35752
 N48 N 1.13338 0.16021 0.33875
 C49 C 0.64214 1.35907 0.66907
 N50 N 0.66096 1.36837 0.65976
 C51 C 0.67031 1.35903 0.64097
 N52 N 0.66094 1.34029 0.63160
 C53 C 0.64212 1.33099 0.64092
 N54 N 0.63278 1.34034 0.65969
 C55 C 0.64151 0.85817 1.17059
 N56 N 0.63218 0.83940 1.16126
 C57 C 0.64153 0.83004 1.14248
 N58 N 0.66030 0.83938 1.13312
 C59 C 0.66964 0.85816 1.14245
 N60 N 0.66028 0.86751 1.16122
 C61 C 1.14226 1.35857 1.17023
 N62 N 1.16106 1.36788 1.16089
 C63 C 1.17039 1.35853 1.14210
 N64 N 1.16101 1.33979 1.13274
 C65 C 1.14222 1.33048 1.14208
 N66 N 1.13288 1.33983 1.16087
 C67 C 1.14272 0.85812 0.66979
 N68 N 1.13342 0.83934 0.66044
 C69 C 1.14281 0.83000 0.64168
 N70 N 1.16159 0.83936 0.63235
 C71 C 1.17090 0.85814 0.64170
 N72 N 1.16150 0.86748 0.66046
 C73 C 0.35738 0.64185 0.66971
 N74 N 0.36670 0.66065 0.66039
 C75 C 0.35735 0.67002 0.64164
 N76 N 0.33859 0.66068 0.63228
 C77 C 0.32926 0.64188 0.64159
 N78 N 0.33862 0.63251 0.66035
 C79 C 0.35764 0.14110 1.17037
 N80 N 0.33885 0.13177 1.16106
 C81 C 0.32951 0.14109 1.14225
 N82 N 0.33889 0.15983 1.13287
 C83 C 0.35767 0.16916 1.14218
 N84 N 0.36700 0.15984 1.16097
 C85 C 0.85885 0.64099 1.16893
 N86 N 0.84007 0.63166 1.15962
 C87 C 0.83068 0.64104 1.14088
 N88 N 0.83999 0.65983 1.13155
 C89 C 0.85877 0.66916 1.14087
 N90 N 0.86816 0.65978 1.15960
 C91 C 0.85711 0.14182 0.67100
 N92 N 0.83831 0.13251 0.66168
 C93 C 0.82899 0.14183 0.64287
 N94 N 0.83839 0.16055 0.63347
 C95 C 0.85718 0.16987 0.64279
 N96 N 0.86650 0.16054 0.66159
 C97 C 1.35838 0.35740 0.67075
 N98 N 1.36774 0.33864 0.66139
 C99 C 1.35843 0.32932 0.64258
 N100 N 1.33968 0.33868 0.63321
 C101 C 1.33032 0.35744 0.64256
 N102 N 1.33963 0.36676 0.66137
 C103 C 1.35866 0.85748 1.16955
 N104 N 1.36794 0.83865 1.16027
 C105 C 1.35856 0.82926 1.14153
 N106 N 1.33981 0.83863 1.13217
 C107 C 1.33053 0.85746 1.14145
 N108 N 1.33991 0.86684 1.16018
 C109 C 0.85884 0.35894 1.17003
 N110 N 0.84005 0.36826 1.16070
 C111 C 0.83072 0.35892 1.14192
 N112 N 0.84008 0.34017 1.13256
 C113 C 0.85887 0.33085 1.14188
 N114 N 0.86820 0.34019 1.16066
 C115 C 0.85888 0.85876 0.66924
 N116 N 0.86820 0.83997 0.65991
 C117 C 0.85885 0.83062 0.64114
 N118 N 0.84009 0.83997 0.63179
 C119 C 0.83077 0.85876 0.64112
 N120 N 0.84012 0.86810 0.65989
 C121 C 0.64140 0.64152 0.66938
 N122 N 0.63209 0.66032 0.66006
 C123 C 0.64146 0.66969 0.64130
 N124 N 0.66023 0.66035 0.63194
 C125 C 0.66954 0.64155 0.64126
 N126 N 0.66017 0.63218 0.66002
 C127 C 0.64141 1.14236 1.17025
 N128 N 0.66019 1.13303 1.16090
 C129 C 0.66955 1.14236 1.14212
 N130 N 0.66020 1.16112 1.13275
 C131 C 0.64142 1.17046 1.14209
 N132 N 0.63207 1.16112 1.16088
 C133 C 0.14180 0.64297 1.17073
 N134 N 0.13250 0.66179 1.16143
 C135 C 0.14185 0.67115 1.14265
 N136 N 0.16059 0.66177 1.13325
 C137 C 0.16989 0.64296 1.14256
 N138 N 0.16053 0.63361 1.16133
 C139 C 0.14088 1.14191 0.66904
 N140 N 0.13154 1.16068 0.65970
 C141 C 0.14088 1.17003 0.64091
 N142 N 0.15966 1.16069 0.63156
 C143 C 0.16899 1.14192 0.64090
 N144 N 0.15965 1.13257 0.65968
 C145 C 1.35890 0.64169 0.32975
 N146 N 1.36822 0.66049 0.33905
 C147 C 1.35888 0.66984 0.35784
 N148 N 1.34013 0.66048 0.36723
 C149 C 1.33081 0.64169 0.35792
 N150 N 1.34015 0.63234 0.33914
 C151 C 1.35848 1.14245 0.82943
 N152 N 1.33973 1.13308 0.83880
 C153 C 1.33039 1.14238 0.85760
 N154 N 1.33972 1.16113 0.86697
 C155 C 1.35848 1.17051 0.85762
 N156 N 1.36782 1.16121 0.83881
 C157 C 0.85852 0.64157 0.83049
 N158 N 0.86783 0.66035 0.83982
 C159 C 0.85846 0.66971 0.85858
 N160 N 0.83969 0.66036 0.86793
 C161 C 0.83038 0.64157 0.85860
 N162 N 0.83975 0.63222 0.83984
 C163 C 0.85878 1.14237 0.32970
 N164 N 0.84000 1.13305 0.33906
 C165 C 0.83066 1.14240 0.35784
 N166 N 0.84001 1.16116 0.36717
 C167 C 0.85879 1.17050 0.35782
 N168 N 0.86813 1.16114 0.33904
 C169 C 0.64183 0.35748 0.32930
 N170 N 0.66060 0.36682 0.33863
 C171 C 0.66997 0.35748 0.35740
 N172 N 0.66064 0.33871 0.36676
 C173 C 0.64187 0.32936 0.35745
 N174 N 0.63250 0.33870 0.33867
 C175 C 0.64114 0.85878 0.83086
 N176 N 0.65990 0.86811 0.84023
 C177 C 0.66923 0.85873 0.85900
 N178 N 0.65989 0.83994 0.86831
 C179 C 0.64113 0.83062 0.85894
 N180 N 0.63180 0.84000 0.84017
 C181 C 0.14099 0.35788 0.83081
 N182 N 0.13165 0.33910 0.84015
 C183 C 0.14098 0.32975 0.85893
 N184 N 0.15975 0.33909 0.86828
 C185 C 0.16908 0.35787 0.85894
 N186 N 0.15975 0.36721 0.84016
 C187 C 0.14152 0.85865 0.32980
 N188 N 0.13222 0.83984 0.33914
 C189 C 0.14157 0.83051 0.35792
 N190 N 0.16031 0.83990 0.36727
 C191 C 0.16961 0.85870 0.35795
 N192 N 0.16026 0.86803 0.33917
 O193 O 0.97798 0.91873 0.88749
 O194 O 0.97792 0.89243 0.86103
 C195 C 0.97024 0.91083 0.86906
 C196 C 0.95176 0.92291 0.85721
 C197 C 0.94400 0.91540 0.83603
 H198 H 0.95194 0.90105 0.82784
 O199 O 1.02194 1.08187 0.88745
 O200 O 1.02206 1.10818 0.86098
 C201 C 1.02972 1.08977 0.86903
 C202 C 1.04821 1.07769 0.85719
 C203 C 1.05598 1.08519 0.83600
 H204 H 1.04803 1.09953 0.82779
 O205 O 0.88728 0.97839 0.91848
 O206 O 0.86082 0.97830 0.89218
 C207 C 0.86886 0.97064 0.91059
 C208 C 0.85703 0.95216 0.92271
 C209 C 0.83588 0.94435 0.91521
 H210 H 0.82768 0.95226 0.90083
 O211 O 1.11283 1.02223 0.91836
 O212 O 1.13925 1.02226 0.89200
 C213 C 1.13124 1.02996 0.91041
 C214 C 1.14309 1.04846 0.92245
 C215 C 1.16419 1.05632 0.91483
 H216 H 1.17234 1.04843 0.90041
 O217 O 0.91827 0.88776 0.97819
 O218 O 0.89197 0.86131 0.97819
 C219 C 0.91036 0.86934 0.97046
 C220 C 0.92240 0.85750 0.95194
 C221 C 0.91484 0.83637 0.94414
 H222 H 0.90047 0.82819 0.95208
 O223 O 1.08182 1.11272 0.97807
 O224 O 1.10809 1.13920 0.97800
 C225 C 1.08970 1.13115 0.97032
 C226 C 1.07760 1.14300 0.95184
 C227 C 1.08512 1.16415 0.94404
 H228 H 1.09951 1.17232 0.95194
 O229 O 0.91818 1.02251 0.88739
 O230 O 0.89187 1.02248 0.86094
 C231 C 0.91025 1.03022 0.86896
 C232 C 0.92227 1.04873 0.85709
 C233 C 0.91461 1.05665 0.83602
 H234 H 0.90018 1.04879 0.82789
 O235 O 1.08182 0.97813 0.88739
 O236 O 1.10811 0.97811 0.86090
 C237 C 1.08972 0.97041 0.86895
 C238 C 1.07767 0.95191 0.85711
 C239 C 1.08528 0.94403 0.83600
 H240 H 1.09969 0.95190 0.82784
 O241 O 1.02204 0.88769 0.91848
 O242 O 1.02202 0.86123 0.89218
 C243 C 1.02973 0.86925 0.91058
 C244 C 1.04817 0.85736 0.92267
 C245 C 1.05589 0.83617 0.91518
 H246 H 1.04794 0.82799 0.90081
 O247 O 0.97783 1.11296 0.91837
 O248 O 0.97789 1.13941 0.89205
 C249 C 0.97014 1.13139 0.91044
 C250 C 0.95161 1.14323 0.92247
 C251 C 0.94367 1.16427 0.91479
 H252 H 0.95153 1.17240 0.90034
 O253 O 0.88721 1.08204 0.97808
 O254 O 0.86079 1.10837 0.97814
 C255 C 0.86879 1.08999 0.97038
 C256 C 0.85694 1.07799 0.95184
 C257 C 0.83587 1.08564 0.94392
 H258 H 0.82773 1.10006 0.95180
 O259 O 1.11272 0.91842 0.97811
 O260 O 1.13914 0.89209 0.97803
 C261 C 1.13112 0.91049 0.97034
 C262 C 1.14295 0.92253 0.95180
 C263 C 1.16405 0.91493 0.94391
 H264 H 1.17220 0.90053 0.95180
 O265 O 0.97781 1.08204 0.88733
 O266 O 0.97787 1.10836 0.86087
 C267 C 0.97011 1.08998 0.86890
 C268 C 0.95157 1.07799 0.85706
 C269 C 0.94364 1.08565 0.83598
 H270 H 0.95151 1.10007 0.82783
 O271 O 1.02211 0.91859 0.88741
 O272 O 1.02210 0.89228 0.86096
 C273 C 1.02983 0.91065 0.86898
 C274 C 1.04836 0.92267 0.85713
 C275 C 1.05624 0.91505 0.83602
 H276 H 1.04834 0.90065 0.82786
 O277 O 1.11274 0.97810 0.91842
 O278 O 1.13918 0.97808 0.89206
 C279 C 1.13115 0.97036 0.91047
 C280 C 1.14297 0.95183 0.92251
 C281 C 1.16407 0.94396 0.91490
 H282 H 1.17224 0.95185 0.90049
 O283 O 0.88722 1.02251 0.91841
 O284 O 0.86077 1.02248 0.89210
 C285 C 0.86879 1.03021 0.91049
 C286 C 0.85695 1.04873 0.92253
 C287 C 0.83589 1.05664 0.91488
 H288 H 0.82775 1.04878 0.90045
 O289 O 0.91822 1.11296 0.97804
 O290 O 0.89194 1.13944 0.97811
 C291 C 0.91031 1.13140 0.97034
 C292 C 0.92232 1.14323 0.95178
 C293 C 0.91465 1.16427 0.94383
 H294 H 0.90022 1.17241 0.95170
 O295 O 1.08166 0.88753 0.97820
 O296 O 1.10794 0.86105 0.97812
 C297 C 1.08954 0.86911 0.97046
 C298 C 1.07743 0.85728 0.95198
 C299 C 1.08488 0.83610 0.94421
 H300 H 1.09921 0.82787 0.95216
 O301 O 1.08174 1.02224 0.88749
 O302 O 1.10801 1.02228 0.86098
 C303 C 1.08962 1.02997 0.86904
 C304 C 1.07752 1.04844 0.85719
 C305 C 1.08502 1.05622 0.83601
 H306 H 1.09939 1.04830 0.82780
 O307 O 0.91826 0.97839 0.88748
 O308 O 0.89196 0.97831 0.86102
 C309 C 0.91037 0.97064 0.86905
 C310 C 0.92246 0.95217 0.85721
 C311 C 0.91496 0.94438 0.83603
 H312 H 0.90060 0.95230 0.82783
 O313 O 1.02197 1.11285 0.91843
 O314 O 1.02209 1.13931 0.89212
 C315 C 1.02975 1.13125 0.91052
 C316 C 1.04827 1.14305 0.92260
 C317 C 1.05607 1.16420 0.91507
 H318 H 1.04813 1.17241 0.90071
 O319 O 0.97792 0.88772 0.91844
 O320 O 0.97785 0.86127 0.89213
 C321 C 0.97017 0.86931 0.91053
 C322 C 0.95167 0.85749 0.92262
 C323 C 0.94384 0.83635 0.91508
 H324 H 0.95175 0.82817 0.90070
 O325 O 1.11287 1.08183 0.97804
 O326 O 1.13930 1.10816 0.97797
 C327 C 1.13128 1.08976 0.97028
 C328 C 1.14311 1.07772 0.95175
 C329 C 1.16421 1.08532 0.94385
 H330 H 1.17237 1.09972 0.95174
 O331 O 0.88735 0.91877 0.97825
 O332 O 0.86090 0.89247 0.97825
 C333 C 0.86892 0.91086 0.97054
 C334 C 0.85706 0.92292 0.95205
 C335 C 0.83590 0.91538 0.94428
 H336 H 0.82773 0.90102 0.95223
 Cu337 Cu 1.00002 0.90582 0.90559
 Cu338 Cu 0.99997 0.87415 0.87392
 Cu339 Cu 0.99988 1.09479 0.90553
 Cu340 Cu 1.00000 1.12647 0.87385
 Cu341 Cu 0.90537 1.00046 0.90557
 Cu342 Cu 0.87370 1.00038 0.87391
 Cu343 Cu 1.09465 1.00017 0.90556
 Cu344 Cu 1.12629 1.00019 0.87383
 C345 C 0.94102 0.94146 0.86755
 H346 H 0.94670 0.94715 0.88401
 C347 C 0.92572 0.92612 0.82549
 C348 C 1.05896 1.05915 0.86754
 H349 H 1.05327 1.05347 0.88402
 C350 C 1.07427 1.07447 0.82545
 C351 C 0.86737 0.94147 0.94129
 H352 H 0.88383 0.94718 0.94697
 C353 C 0.82536 0.92608 0.92598
 C354 C 1.13280 1.05913 0.94107
 H355 H 1.11639 1.05338 0.94685
 C356 C 1.17471 1.07464 0.92551
 C357 C 0.94097 0.86781 0.94120
 H358 H 0.94670 0.88425 0.94692
 C359 C 0.92555 0.82583 0.92583
 C360 C 1.05901 1.13269 0.94114
 H361 H 1.05330 1.11624 0.94685
 C362 C 1.07437 1.17471 0.92577
 C363 C 0.94090 1.05938 0.86736
 H364 H 0.94670 1.05358 0.88375
 C365 C 0.92528 1.07499 0.82550
 C366 C 1.05906 0.94125 0.86742
 H367 H 1.05329 0.94702 0.88384
 C368 C 1.07458 0.92571 0.82550
 C369 C 1.05892 0.86767 0.94123
 H370 H 1.05327 0.88414 0.94691
 C371 C 1.07413 0.82558 0.92593
 C372 C 0.94095 1.13296 0.94112
 H373 H 0.94677 1.11659 0.94694
 C374 C 0.92531 1.17475 0.92545
 C375 C 0.86722 1.05938 0.94116
 H376 H 0.88361 1.05358 0.94695
 C377 C 0.82539 1.07498 0.92556
 C378 C 1.13266 0.94114 0.94112
 H379 H 1.11625 0.94690 0.94689
 C380 C 1.17457 0.92562 0.92558
 O381 O 1.02222 0.91854 1.11302
 O382 O 1.02219 0.89225 1.13950
 C383 C 1.02992 0.91063 1.13146
 C384 C 1.04843 0.92266 1.14330
 C385 C 1.05627 0.91508 1.16443
 H386 H 1.04835 0.90070 1.17261
 O387 O 0.97813 1.08186 1.11306
 O388 O 0.97811 1.10820 1.13948
 C389 C 0.97040 1.08981 1.13148
 C390 C 0.95188 1.07779 1.14335
 C391 C 0.94403 1.08541 1.16446
 H392 H 0.95194 1.09980 1.17261
 O393 O 0.88743 1.02238 1.08209
 O394 O 0.86098 1.02241 1.10843
 C395 C 0.86901 1.03011 1.09001
 C396 C 0.85716 1.04860 1.07794
 C397 C 0.83604 1.05643 1.08553
 H398 H 0.82788 1.04854 1.09995
 O399 O 1.11287 0.97810 1.08194
 O400 O 1.13933 0.97805 1.10823
 C401 C 1.13129 0.97035 1.08984
 C402 C 1.14310 0.95185 1.07776
 C403 C 1.16423 0.94399 1.08530
 H404 H 1.17242 0.95187 1.09968
 O405 O 1.08183 0.88744 1.02236
 O406 O 1.10812 0.86098 1.02234
 C407 C 1.08975 0.86903 1.03009
 C408 C 1.07774 0.85721 1.04867
 C409 C 1.08538 0.83615 1.05660
 H410 H 1.09979 0.82799 1.04872
 O411 O 0.91837 1.11283 1.02220
 O412 O 0.89211 1.13932 1.02233
 C413 C 0.91051 1.13125 1.02998
 C414 C 0.92262 1.14305 1.04847
 C415 C 0.91514 1.16422 1.05627
 H416 H 0.90078 1.17243 1.04835
 O417 O 0.91840 0.97824 1.11305
 O418 O 0.89211 0.97821 1.13955
 C419 C 0.91049 0.97050 1.13149
 C420 C 0.92254 0.95199 1.14332
 C421 C 0.91496 0.94413 1.16445
 H422 H 0.90057 0.95203 1.17263
 O423 O 1.08193 1.02223 1.11295
 O424 O 1.10825 1.02225 1.13939
 C425 C 1.08986 1.02996 1.13137
 C426 C 1.07783 1.04848 1.14322
 C427 C 1.08546 1.05637 1.16430
 H428 H 1.09988 1.04848 1.17245
 O429 O 0.97811 0.88764 1.08199
 O430 O 0.97802 0.86118 1.10830
 C431 C 0.97036 0.86922 1.08989
 C432 C 0.95188 0.85740 1.07779
 C433 C 0.94412 0.83621 1.08525
 H434 H 0.95207 0.82798 1.09959
 O435 O 1.02225 1.11278 1.08198
 O436 O 1.02228 1.13927 1.10826
 C437 C 1.02998 1.13121 1.08986
 C438 C 1.04847 1.14305 1.07777
 C439 C 1.05630 1.16417 1.08532
 H440 H 1.04840 1.17235 1.09972
 O441 O 0.88734 0.91869 1.02241
 O442 O 0.86090 0.89238 1.02246
 C443 C 0.86893 0.91076 1.03017
 C444 C 0.85710 0.92280 1.04870
 C445 C 0.83598 0.91521 1.05657
 H446 H 0.82781 0.90083 1.04866
 O447 O 1.11288 1.08182 1.02220
 O448 O 1.13931 1.10814 1.02219
 C449 C 1.13130 1.08975 1.02992
 C450 C 1.14315 1.07772 1.04844
 C451 C 1.16426 1.08531 1.05630
 H452 H 1.17242 1.09970 1.04839
 O453 O 1.02227 1.08184 1.11300
 O454 O 1.02230 1.10818 1.13943
 C455 C 1.03001 1.08978 1.13141
 C456 C 1.04854 1.07776 1.14324
 C457 C 1.05645 1.08538 1.16433
 H458 H 1.04857 1.09979 1.17250
 O459 O 0.97809 0.91855 1.11302
 O460 O 0.97800 0.89225 1.13949
 C461 C 0.97032 0.91064 1.13145
 C462 C 0.95182 0.92270 1.14330
 C463 C 0.94396 0.91512 1.16443
 H464 H 0.95186 0.90072 1.17259
 O465 O 1.11288 1.02221 1.08193
 O466 O 1.13935 1.02222 1.10822
 C467 C 1.13131 1.02993 1.08982
 C468 C 1.14315 1.04844 1.07775
 C469 C 1.16426 1.05629 1.08533
 H470 H 1.17242 1.04839 1.09973
 O471 O 0.88737 0.97827 1.08213
 O472 O 0.86093 0.97824 1.10848
 C473 C 0.86895 0.97054 1.09007
 C474 C 0.85710 0.95205 1.07802
 C475 C 0.83599 0.94419 1.08562
 H476 H 0.82783 0.95208 1.10003
 O477 O 1.08189 1.11278 1.02222
 O478 O 1.10817 1.13924 1.02220
 C479 C 1.08979 1.13120 1.02993
 C480 C 1.07774 1.14304 1.04845
 C481 C 1.08530 1.16417 1.05626
 H482 H 1.09969 1.17234 1.04834
 O483 O 0.91837 0.88778 1.02234
 O484 O 0.89208 0.86132 1.02239
 C485 C 0.91048 0.86935 1.03006
 C486 C 0.92258 0.85747 1.04852
 C487 C 0.91510 0.83628 1.05624
 H488 H 0.90074 0.82810 1.04829
 O489 O 1.08191 0.97812 1.11297
 O490 O 1.10822 0.97807 1.13941
 C491 C 1.08982 0.97038 1.13140
 C492 C 1.07775 0.95190 1.14327
 C493 C 1.08532 0.94405 1.16440
 H494 H 1.09972 0.95193 1.17256
 O495 O 0.91837 1.02236 1.11310
 O496 O 0.89208 1.02239 1.13959
 C497 C 0.91047 1.03008 1.13154
 C498 C 0.92254 1.04857 1.14338
 C499 C 0.91496 1.05646 1.16449
 H500 H 0.90054 1.04860 1.17267
 O501 O 0.97812 1.11272 1.08195
 O502 O 0.97810 1.13921 1.10822
 C503 C 0.97040 1.13116 1.08983
 C504 C 0.95192 1.14300 1.07775
 C505 C 0.94416 1.16417 1.08527
 H506 H 0.95210 1.17234 1.09964
 O507 O 1.02224 0.88752 1.08209
 O508 O 1.02221 0.86108 1.10842
 C509 C 1.02995 0.86910 1.09003
 C510 C 1.04847 0.85725 1.07800
 C511 C 1.05638 0.83619 1.08566
 H512 H 1.04851 0.82806 1.10011
 O513 O 1.11274 0.91846 1.02227
 O514 O 1.13918 0.89215 1.02224
 C515 C 1.13117 0.91054 1.02996
 C516 C 1.14304 0.92259 1.04845
 C517 C 1.16417 0.91500 1.05625
 H518 H 1.17231 0.90061 1.04833
 O519 O 0.88731 1.08195 1.02224
 O520 O 0.86090 1.10829 1.02237
 C521 C 0.86893 1.08988 1.03004
 C522 C 0.85711 1.07783 1.04859
 C523 C 0.83599 1.08540 1.05645
 H524 H 0.82781 1.09976 1.04853
 Cu525 Cu 1.00017 0.90570 1.09489
 Cu526 Cu 1.00009 0.87404 1.12658
 Cu527 Cu 1.00019 1.09466 1.09487
 Cu528 Cu 1.00019 1.12637 1.12649
 Cu529 Cu 0.90547 0.90589 1.00029
 Cu530 Cu 0.87381 0.87422 1.00033
 Cu531 Cu 1.09460 0.90560 1.00024
 Cu532 Cu 1.12624 0.87392 1.00017
 Cu533 Cu 0.90540 1.09481 1.00013
 Cu534 Cu 0.87379 1.12651 1.00025
 Cu535 Cu 1.09474 1.09465 1.00014
 Cu536 Cu 1.12637 1.12634 1.00008
 Cu537 Cu 0.90553 1.00031 1.09495
 Cu538 Cu 0.87387 1.00032 1.12667
 Cu539 Cu 1.09476 1.00016 1.09481
 Cu540 Cu 1.12644 1.00014 1.12646
 C541 C 1.05915 0.94123 1.13297
 H542 H 1.05342 0.94697 1.11653
 C543 C 1.07459 0.92576 1.17494
 C544 C 0.94116 1.05922 1.13306
 H545 H 0.94691 1.05345 1.11663
 C546 C 0.92568 1.07476 1.17499
 C547 C 0.86745 1.05927 1.05931
 H548 H 0.88387 1.05354 1.05356
 C549 C 0.82550 1.07471 1.07480
 C550 C 1.13276 0.94117 1.05918
 H551 H 1.11633 0.94692 1.05347
 C552 C 1.17472 0.92568 1.07456
 C553 C 1.05913 0.86751 1.05935
 H554 H 1.05334 0.88389 1.05354
 C555 C 1.07472 0.82568 1.07499
 C556 C 0.94117 1.13269 1.05918
 H557 H 0.94684 1.11623 1.05348
 C558 C 0.92589 1.17473 1.07455
 C559 C 0.94113 0.94130 1.13299
 H560 H 0.94688 0.94704 1.11655
 C561 C 0.92565 0.92581 1.17496
 C562 C 1.05921 1.05915 1.13294
 H563 H 1.05343 1.05338 1.11653
 C564 C 1.07479 1.07470 1.17482
 C565 C 0.94113 0.86778 1.05926
 H566 H 0.94680 0.88426 1.05361
 C567 C 0.92585 0.82569 1.07449
 C568 C 1.05916 1.13273 1.05917
 H569 H 1.05343 1.11630 1.05345
 C570 C 1.07460 1.17469 1.07458
 C571 C 0.86740 0.94137 1.05940
 H572 H 0.88382 0.94712 1.05364
 C573 C 0.82547 0.92589 1.07491
 C574 C 1.13285 1.05912 1.05915
 H575 H 1.11643 1.05337 1.05340
 C576 C 1.17477 1.07461 1.07462
 O577 O 1.08191 0.52168 0.61248
 O578 O 1.10815 0.52168 0.63900
 C579 C 1.08977 0.52939 0.63093
 C580 C 1.07767 0.54785 0.64279
 C581 C 1.08513 0.55559 0.66399
 H582 H 1.09947 0.54765 0.67221
 O583 O 0.91837 0.47751 0.61261
 O584 O 0.89202 0.47752 0.63905
 C585 C 0.91041 0.46979 0.63103
 C586 C 0.92239 0.45124 0.64289
 C587 C 0.91469 0.44331 0.66395
 H588 H 0.90026 0.45119 0.67207
 O589 O 1.02233 0.61242 0.58155
 O590 O 1.02234 0.63882 0.60791
 C591 C 1.03007 0.63081 0.58950
 C592 C 1.04861 0.64265 0.57748
 C593 C 1.05649 0.66374 0.58509
 H594 H 1.04858 0.67190 0.59950
 O595 O 0.97794 0.38694 0.58159
 O596 O 0.97796 0.36049 0.60791
 C597 C 0.97024 0.36851 0.58952
 C598 C 0.95173 0.35666 0.57748
 C599 C 0.94382 0.33560 0.58514
 H600 H 0.95167 0.32748 0.59959
 O601 O 1.11301 0.58141 0.52194
 O602 O 1.13948 0.60770 0.52195
 C603 C 1.13143 0.58931 0.52967
 C604 C 1.14325 0.57727 0.54820
 C605 C 1.16433 0.58488 0.55611
 H606 H 1.17249 0.59929 0.54823
 O607 O 0.88753 0.41789 0.52181
 O608 O 0.86105 0.39161 0.52184
 C609 C 0.86909 0.41000 0.52954
 C610 C 0.85724 0.42208 0.54804
 C611 C 0.83608 0.41457 0.55584
 H612 H 0.82789 0.40020 0.54792
 O613 O 0.97813 0.58140 0.61243
 O614 O 0.97808 0.60766 0.63893
 C615 C 0.97039 0.58928 0.63087
 C616 C 0.95189 0.57720 0.64272
 C617 C 0.94407 0.58474 0.66387
 H618 H 0.95196 0.59913 0.67204
 O619 O 1.02204 0.41800 0.61251
 O620 O 1.02212 0.39169 0.63898
 C621 C 1.02979 0.41009 0.63093
 C622 C 1.04829 0.42216 0.64277
 C623 C 1.05604 0.41464 0.66395
 H624 H 1.04808 0.40030 0.67215
 O625 O 1.11296 0.47759 0.58153
 O626 O 1.13934 0.47753 0.60790
 C627 C 1.13135 0.46984 0.58948
 C628 C 1.14320 0.45133 0.57744
 C629 C 1.16428 0.44345 0.58507
 H630 H 1.17242 0.45133 0.59949
 O631 O 0.88752 0.52167 0.58154
 O632 O 0.86103 0.52173 0.60784
 C633 C 0.86910 0.52942 0.58944
 C634 C 0.85729 0.54793 0.57737
 C635 C 0.83614 0.55575 0.58490
 H636 H 0.82794 0.54782 0.59927
 O637 O 0.91859 0.61241 0.52184
 O638 O 0.89228 0.63885 0.52186
 C639 C 0.91067 0.63083 0.52956
 C640 C 0.92274 0.64269 0.54804
 C641 C 0.91521 0.66384 0.55583
 H642 H 0.90085 0.67202 0.54790
 O643 O 1.08189 0.38711 0.52185
 O644 O 1.10817 0.36064 0.52189
 C645 C 1.08977 0.36868 0.52959
 C646 C 1.07767 0.35683 0.54807
 C647 C 1.08517 0.33567 0.55586
 H648 H 1.09955 0.32749 0.54794
 O649 O 0.91852 0.52164 0.61250
 O650 O 0.89218 0.52171 0.63895
 C651 C 0.91059 0.52939 0.63091
 C652 C 0.92264 0.54789 0.64275
 C653 C 0.91508 0.55571 0.66390
 H654 H 0.90071 0.54778 0.67209
 O655 O 1.08188 0.47758 0.61245
 O656 O 1.10812 0.47752 0.63897
 C657 C 1.08974 0.46984 0.63090
 C658 C 1.07762 0.45138 0.64275
 C659 C 1.08511 0.44359 0.66393
 H660 H 1.09948 0.45149 0.67213
 O661 O 1.02207 0.38703 0.58153
 O662 O 1.02215 0.36057 0.60785
 C663 C 1.02983 0.36862 0.58943
 C664 C 1.04834 0.35680 0.57735
 C665 C 1.05612 0.33564 0.58486
 H666 H 1.04817 0.32744 0.59922
 O667 O 0.97821 0.61242 0.58148
 O668 O 0.97815 0.63883 0.60783
 C669 C 0.97048 0.63083 0.58941
 C670 C 0.95201 0.64269 0.57733
 C671 C 0.94422 0.66384 0.58486
 H672 H 0.95214 0.67203 0.59923
 O673 O 0.88765 0.58141 0.52187
 O674 O 0.86119 0.60770 0.52190
 C675 C 0.86922 0.58931 0.52960
 C676 C 0.85736 0.57724 0.54810
 C677 C 0.83621 0.58478 0.55590
 H678 H 0.82805 0.59917 0.54798
 O679 O 1.11298 0.41796 0.52187
 O680 O 1.13941 0.39164 0.52191
 C681 C 1.13139 0.41003 0.52962
 C682 C 1.14322 0.42206 0.54815
 C683 C 1.16430 0.41444 0.55605
 H684 H 1.17246 0.40003 0.54816
 O685 O 0.97791 0.41786 0.61263
 O686 O 0.97793 0.39155 0.63909
 C687 C 0.97019 0.40993 0.63106
 C688 C 0.95164 0.42194 0.64291
 C689 C 0.94367 0.41427 0.66397
 H690 H 0.95151 0.39983 0.67211
 O691 O 1.02225 0.58136 0.61245
 O692 O 1.02225 0.60761 0.63896
 C693 C 1.02995 0.58923 0.63091
 C694 C 1.04840 0.57713 0.64277
 C695 C 1.05612 0.58460 0.66398
 H696 H 1.04817 0.59894 0.67218
 O697 O 0.88753 0.47755 0.58150
 O698 O 0.86103 0.47756 0.60779
 C699 C 0.86909 0.46985 0.58940
 C700 C 0.85724 0.45136 0.57732
 C701 C 0.83608 0.44358 0.58486
 H702 H 0.82789 0.45152 0.59923
 O703 O 1.11297 0.52171 0.58155
 O704 O 1.13936 0.52172 0.60793
 C705 C 1.13137 0.52944 0.58951
 C706 C 1.14322 0.54797 0.57749
 C707 C 1.16430 0.55585 0.58514
 H708 H 1.17244 0.54797 0.59956
 O709 O 0.91842 0.38685 0.52184
 O710 O 0.89210 0.36042 0.52187
 C711 C 0.91049 0.36845 0.52959
 C712 C 0.92249 0.35663 0.54815
 C713 C 0.91484 0.33557 0.55608
 H714 H 0.90043 0.32742 0.54821
 O715 O 1.08205 0.61238 0.52194
 O716 O 1.10837 0.63882 0.52195
 C717 C 1.08997 0.63080 0.52967
 C718 C 1.07792 0.64263 0.54819
 C719 C 1.08553 0.66372 0.55607
 H720 H 1.09994 0.67187 0.54818
 Cu721 Cu 1.09481 0.49964 0.59435
 Cu722 Cu 1.12639 0.49961 0.62611
 Cu723 Cu 0.90563 0.49958 0.59441
 Cu724 Cu 0.87391 0.49964 0.62606
 Cu725 Cu 1.00023 0.59427 0.59433
 Cu726 Cu 1.00020 0.62588 0.62607
 Cu727 Cu 0.99998 0.40509 0.59443
 Cu728 Cu 1.00005 0.37342 0.62611
 C729 C 1.05915 0.55860 0.63243
 H730 H 1.05349 0.55293 0.61594
 C731 C 1.07437 0.57385 0.67454
 C732 C 0.94102 0.44058 0.63262
 H733 H 0.94686 0.44639 0.61624
 C734 C 0.92531 0.42494 0.67445
 C735 C 1.05931 0.63235 0.55887
 H736 H 1.05354 0.61595 0.55310
 C737 C 1.07483 0.67424 0.57440
 C738 C 0.94109 0.36692 0.55883
 H739 H 0.94689 0.38331 0.55302
 C740 C 0.92549 0.32510 0.57446
 C741 C 1.13295 0.55865 0.55887
 H742 H 1.11656 0.55288 0.55308
 C743 C 1.17481 0.57419 0.57446
 C744 C 0.86757 0.44063 0.55876
 H745 H 0.88403 0.44633 0.55305
 C746 C 0.82554 0.42530 0.57413
 C747 C 0.94120 0.55862 0.63240
 H748 H 0.94693 0.55290 0.61595
 C749 C 0.92578 0.57401 0.67442
 C750 C 1.05905 0.44068 0.63241
 H751 H 1.05337 0.44638 0.61594
 C752 C 1.07433 0.42534 0.67449
 C753 C 1.13292 0.44066 0.55883
 H754 H 1.11652 0.44643 0.55304
 C755 C 1.17479 0.42512 0.57439
 C756 C 0.86765 0.55865 0.55881
 H757 H 0.88410 0.55293 0.55310
 C758 C 0.82565 0.57406 0.57418
 C759 C 0.94129 0.63236 0.55877
 H760 H 0.94699 0.61591 0.55307
 C761 C 0.92594 0.67438 0.57412
 C762 C 1.05909 0.36715 0.55879
 H763 H 1.05339 0.38361 0.55310
 C764 C 1.07442 0.32512 0.57414
 O765 O 1.08199 0.47771 0.38699
 O766 O 1.10832 0.47767 0.36053
 C767 C 1.08992 0.46997 0.36856
 C768 C 1.07788 0.45147 0.35672
 C769 C 1.08548 0.44363 0.33559
 H770 H 1.09987 0.45154 0.32742
 O771 O 0.91863 0.52168 0.38718
 O772 O 0.89237 0.52176 0.36068
 C773 C 0.91076 0.52943 0.36874
 C774 C 0.92286 0.54791 0.35689
 C775 C 0.91536 0.55568 0.33571
 H776 H 0.90100 0.54776 0.32751
 O777 O 0.97832 0.61242 0.41804
 O778 O 0.97828 0.63886 0.39170
 C779 C 0.97057 0.63083 0.41011
 C780 C 0.95206 0.64266 0.42216
 C781 C 0.94423 0.66378 0.41459
 H782 H 0.95215 0.67196 0.40020
 O783 O 1.02237 0.38701 0.41801
 O784 O 1.02243 0.36058 0.39168
 C785 C 1.03011 0.36860 0.41009
 C786 C 1.04862 0.35677 0.42215
 C787 C 1.05649 0.33567 0.41455
 H788 H 1.04861 0.32751 0.40015
 O789 O 1.11294 0.41804 0.47771
 O790 O 1.13938 0.39173 0.47769
 C791 C 1.13136 0.41013 0.46998
 C792 C 1.14321 0.42218 0.45146
 C793 C 1.16435 0.41462 0.44362
 H794 H 1.17252 0.40025 0.45154
 O795 O 0.88765 0.58139 0.47773
 O796 O 0.86118 0.60767 0.47770
 C797 C 0.86922 0.58928 0.47001
 C798 C 0.85737 0.57719 0.45154
 C799 C 0.83620 0.58469 0.44378
 H800 H 0.82802 0.59906 0.45171
 O801 O 1.02249 0.58149 0.38704
 O802 O 1.02249 0.60780 0.36057
 C803 C 1.03022 0.58942 0.36860
 C804 C 1.04874 0.57740 0.35674
 C805 C 1.05665 0.58508 0.33567
 H806 H 1.04878 0.59951 0.32754
 O807 O 0.97826 0.41797 0.38702
 O808 O 0.97826 0.39170 0.36054
 C809 C 0.97055 0.41008 0.36858
 C810 C 0.95205 0.42214 0.35674
 C811 C 0.94425 0.41462 0.33558
 H812 H 0.95216 0.40026 0.32738
 O813 O 1.11296 0.52179 0.41800
 O814 O 1.13944 0.52182 0.39170
 C815 C 1.13139 0.52951 0.41011
 C816 C 1.14324 0.54799 0.42219
 C817 C 1.16438 0.55581 0.41463
 H818 H 1.17255 0.54791 0.40023
 O819 O 0.88757 0.47754 0.41806
 O820 O 0.86115 0.47756 0.39171
 C821 C 0.86916 0.46983 0.41011
 C822 C 0.85730 0.45130 0.42213
 C823 C 0.83621 0.44344 0.41450
 H824 H 0.82807 0.45136 0.40010
 O825 O 1.08206 0.61239 0.47779
 O826 O 1.10837 0.63883 0.47774
 C827 C 1.08998 0.63081 0.47005
 C828 C 1.07792 0.64265 0.45154
 C829 C 1.08546 0.66379 0.44372
 H830 H 1.09983 0.67198 0.45164
 O831 O 0.91853 0.38691 0.47768
 O832 O 0.89222 0.36047 0.47764
 C833 C 0.91062 0.36850 0.46994
 C834 C 0.92269 0.35668 0.45141
 C835 C 0.91511 0.33559 0.44353
 H836 H 0.90071 0.32742 0.45142
 O837 O 0.91859 0.47758 0.38710
 O838 O 0.89232 0.47760 0.36061
 C839 C 0.91070 0.46989 0.36865
 C840 C 0.92277 0.45141 0.35678
 C841 C 0.91523 0.44363 0.33562
 H842 H 0.90085 0.45155 0.32745
 O843 O 1.08208 0.52184 0.38693
 O844 O 1.10842 0.52186 0.36048
 C845 C 1.09003 0.52958 0.36851
 C846 C 1.07802 0.54812 0.35669
 C847 C 1.08567 0.55607 0.33561
 H848 H 1.10009 0.54822 0.32744
 O849 O 0.97824 0.38698 0.41800
 O850 O 0.97824 0.36055 0.39166
 C851 C 0.97051 0.36857 0.41007
 C852 C 0.95200 0.35672 0.42212
 C853 C 0.94415 0.33562 0.41450
 H854 H 0.95205 0.32748 0.40009
 O855 O 1.02244 0.61238 0.41810
 O856 O 1.02246 0.63883 0.39178
 C857 C 1.03016 0.63080 0.41018
 C858 C 1.04864 0.64265 0.42225
 C859 C 1.05645 0.66379 0.41470
 H860 H 1.04853 0.67197 0.40032
 O861 O 0.88751 0.41783 0.47766
 O862 O 0.86105 0.39154 0.47762
 C863 C 0.86909 0.40992 0.46992
 C864 C 0.85727 0.42198 0.45140
 C865 C 0.83618 0.41440 0.44350
 H866 H 0.82801 0.39999 0.45138
 O867 O 1.11299 0.58139 0.47778
 O868 O 1.13946 0.60767 0.47774
 C869 C 1.13142 0.58929 0.47004
 C870 C 1.14325 0.57723 0.45152
 C871 C 1.16439 0.58478 0.44369
 H872 H 1.17257 0.59915 0.45161
 O873 O 1.02239 0.41798 0.38702
 O874 O 1.02244 0.39170 0.36054
 C875 C 1.03013 0.41009 0.36858
 C876 C 1.04863 0.42216 0.35673
 C877 C 1.05650 0.41459 0.33560
 H878 H 1.04862 0.40019 0.32743
 O879 O 0.97836 0.58136 0.38714
 O880 O 0.97831 0.60765 0.36066
 C881 C 0.97063 0.58925 0.36871
 C882 C 0.95215 0.57717 0.35687
 C883 C 0.94439 0.58467 0.33569
 H884 H 0.95232 0.59903 0.32748
 O885 O 0.88760 0.52166 0.41812
 O886 O 0.86118 0.52174 0.39178
 C887 C 0.86919 0.52941 0.41020
 C888 C 0.85735 0.54789 0.42228
 C889 C 0.83618 0.55567 0.41478
 H890 H 0.82798 0.54773 0.40042
 O891 O 1.11296 0.47768 0.41797
 O892 O 1.13944 0.47765 0.39166
 C893 C 1.13139 0.46995 0.41006
 C894 C 1.14322 0.45145 0.42214
 C895 C 1.16435 0.44363 0.41458
 H896 H 1.17253 0.45154 0.40019
 O897 O 1.08201 0.38704 0.47770
 O898 O 1.10830 0.36058 0.47768
 C899 C 1.08992 0.36862 0.46997
 C900 C 1.07789 0.35678 0.45145
 C901 C 1.08549 0.33568 0.44359
 H902 H 1.09989 0.32753 0.45148
 O903 O 0.91860 0.61239 0.47769
 O904 O 0.89228 0.63882 0.47765
 C905 C 0.91068 0.63080 0.46995
 C906 C 0.92274 0.64264 0.45144
 C907 C 0.91518 0.66376 0.44360
 H908 H 0.90078 0.67193 0.45150
 Cu909 Cu 1.09486 0.49976 0.40510
 Cu910 Cu 1.12656 0.49975 0.37344
 Cu911 Cu 0.90572 0.49961 0.40526
 Cu912 Cu 0.87410 0.49968 0.37354
 Cu913 Cu 1.09489 0.59426 0.49987
 Cu914 Cu 1.12657 0.62590 0.49984
 Cu915 Cu 1.09483 0.40518 0.49978
 Cu916 Cu 1.12647 0.37349 0.49980
 Cu917 Cu 0.90576 0.59427 0.49979
 Cu918 Cu 0.87408 0.62591 0.49978
 Cu919 Cu 0.90563 0.40500 0.49975
 Cu920 Cu 0.87396 0.37336 0.49974
 Cu921 Cu 1.00041 0.59427 0.40522
 Cu922 Cu 1.00038 0.62593 0.37352
 Cu923 Cu 1.00031 0.40512 0.40515
 Cu924 Cu 1.00034 0.37348 0.37345
 C925 C 1.05930 0.44075 0.36704
 H926 H 1.05355 0.44649 0.38347
 C927 C 1.07481 0.42531 0.32507
 C928 C 0.94141 0.55863 0.36723
 H929 H 0.94709 0.55294 0.38370
 C930 C 0.92611 0.57394 0.32515
 C931 C 0.94134 0.63234 0.44074
 H932 H 0.94707 0.61591 0.44648
 C933 C 0.92591 0.67429 0.42529
 C934 C 1.05929 0.36708 0.44075
 H935 H 1.05353 0.38349 0.44651
 C936 C 1.07481 0.32517 0.42526
 C937 C 1.13290 0.44075 0.44074
 H938 H 1.11646 0.44648 0.44647
 C939 C 1.17488 0.42533 0.42530
 C940 C 0.86769 0.55863 0.44082
 H941 H 0.88416 0.55294 0.44650
 C942 C 0.82565 0.57395 0.42552
 C943 C 1.05940 0.55877 0.36700
 H944 H 1.05360 0.55296 0.38339
 C945 C 1.07500 0.57443 0.32514
 C946 C 0.94134 0.44070 0.36709
 H947 H 0.94705 0.44640 0.38355
 C948 C 0.92595 0.42535 0.32506
 C949 C 1.13292 0.55868 0.44079
 H950 H 1.11648 0.55295 0.44652
 C951 C 1.17491 0.57408 0.42536
 C952 C 0.86758 0.44059 0.44073
 H953 H 0.88399 0.44634 0.44651
 C954 C 0.82569 0.42511 0.42517
 C955 C 1.05936 0.63233 0.44083
 H956 H 1.05364 0.61589 0.44655
 C957 C 1.07473 0.67432 0.42542
 C958 C 0.94129 0.36700 0.44073
 H959 H 0.94703 0.38341 0.44649
 C960 C 0.92582 0.32510 0.42519
 O961 O 0.47800 0.91881 0.38719
 O962 O 0.47797 0.89249 0.36075
 C963 C 0.47028 0.91089 0.36877
 C964 C 0.45178 0.92293 0.35691
 C965 C 0.44394 0.91533 0.33580
 H966 H 0.45185 0.90094 0.32764
 O967 O 0.52218 1.08214 0.38704
 O968 O 0.52220 1.10846 0.36058
 C969 C 0.52990 1.09006 0.36860
 C970 C 0.54840 1.07801 0.35674
 C971 C 0.55625 1.08560 0.33561
 H972 H 0.54835 1.10000 0.32745
 O973 O 0.38739 0.97846 0.41820
 O974 O 0.36094 0.97843 0.39189
 C975 C 0.36897 0.97074 0.41030
 C976 C 0.35711 0.95226 0.42238
 C977 C 0.33598 0.94445 0.41482
 H978 H 0.32782 0.95236 0.40042
 O979 O 0.61278 1.02252 0.41801
 O980 O 0.63925 1.02253 0.39169
 C981 C 0.63122 1.03024 0.41010
 C982 C 0.64307 1.04871 0.42217
 C983 C 0.66420 1.05655 0.41459
 H984 H 0.67236 1.04867 0.40017
 O985 O 0.41826 0.88784 0.47794
 O986 O 0.39194 0.86140 0.47789
 C987 C 0.41035 0.86943 0.47019
 C988 C 0.42242 0.85760 0.45167
 C989 C 0.41487 0.83646 0.44385
 H990 H 0.40049 0.82828 0.45176
 O991 O 0.58191 1.11306 0.47774
 O992 O 0.60820 1.13952 0.47770
 C993 C 0.58982 1.13148 0.46998
 C994 C 0.57779 1.14330 0.45144
 C995 C 0.58542 1.16438 0.44353
 H996 H 0.59983 1.17253 0.45141
 O997 O 0.41839 1.02255 0.38716
 O998 O 0.39209 1.02257 0.36070
 C999 C 0.41048 1.03027 0.36873
 C1000 C 0.42253 1.04877 0.35687
 C1001 C 0.41493 1.05662 0.33575
 H1002 H 0.40054 1.04871 0.32760
 O1003 O 0.58181 0.97841 0.38705
 O1004 O 0.60812 0.97835 0.36058
 C1005 C 0.58972 0.97065 0.36863
 C1006 C 0.57767 0.95213 0.35682
 C1007 C 0.58527 0.94423 0.33571
 H1008 H 0.59968 0.95210 0.32752
 O1009 O 0.52208 0.88784 0.41821
 O1010 O 0.52211 0.86136 0.39192
 C1011 C 0.52980 0.86940 0.41032
 C1012 C 0.54827 0.85756 0.42241
 C1013 C 0.55604 0.83639 0.41492
 H1014 H 0.54811 0.82818 0.40056
 O1015 O 0.47810 1.11312 0.41810
 O1016 O 0.47807 1.13959 0.39179
 C1017 C 0.47038 1.13155 0.41021
 C1018 C 0.45191 1.14340 0.42231
 C1019 C 0.44409 1.16454 0.41476
 H1020 H 0.45200 1.17271 0.40035
 O1021 O 0.38741 1.08225 0.47781
 O1022 O 0.36097 1.10856 0.47778
 C1023 C 0.36900 1.09018 0.47007
 C1024 C 0.35717 1.07814 0.45154
 C1025 C 0.33608 1.08575 0.44365
 H1026 H 0.32792 1.10016 0.45153
 O1027 O 0.61270 0.91883 0.47782
 O1028 O 0.63914 0.89252 0.47782
 C1029 C 0.63112 0.91090 0.47009
 C1030 C 0.64297 0.92293 0.45155
 C1031 C 0.66409 0.91534 0.44372
 H1032 H 0.67225 0.90096 0.45165
 O1033 O 0.47805 1.08219 0.38707
 O1034 O 0.47801 1.10850 0.36061
 C1035 C 0.47031 1.09011 0.36865
 C1036 C 0.45179 1.07807 0.35683
 C1037 C 0.44392 1.08565 0.33570
 H1038 H 0.45180 1.10004 0.32752
 O1039 O 0.52213 0.91878 0.38718
 O1040 O 0.52216 0.89245 0.36074
 C1041 C 0.52987 0.91084 0.36875
 C1042 C 0.54838 0.92287 0.35688
 C1043 C 0.55625 0.91524 0.33578
 H1044 H 0.54835 0.90083 0.32764
 O1045 O 0.61276 0.97841 0.41804
 O1046 O 0.63922 0.97836 0.39172
 C1047 C 0.63118 0.97067 0.41013
 C1048 C 0.64300 0.95217 0.42222
 C1049 C 0.66412 0.94432 0.41465
 H1050 H 0.67230 0.95220 0.40024
 O1051 O 0.38741 1.02258 0.41815
 O1052 O 0.36096 1.02261 0.39184
 C1053 C 0.36900 1.03032 0.41023
 C1054 C 0.35717 1.04884 0.42227
 C1055 C 0.33608 1.05671 0.41466
 H1056 H 0.32792 1.04881 0.40026
 O1057 O 0.41846 1.11314 0.47787
 O1058 O 0.39217 1.13961 0.47785
 C1059 C 0.41057 1.13157 0.47014
 C1060 C 0.42264 1.14341 0.45164
 C1061 C 0.41510 1.16455 0.44382
 H1062 H 0.40072 1.17273 0.45175
 O1063 O 0.58171 0.88788 0.47788
 O1064 O 0.60800 0.86142 0.47787
 C1065 C 0.58961 0.86945 0.47017
 C1066 C 0.57754 0.85758 0.45170
 C1067 C 0.58505 0.83641 0.44394
 H1068 H 0.59940 0.82822 0.45189
 O1069 O 0.58183 1.02252 0.38701
 O1070 O 0.60814 1.02253 0.36054
 C1071 C 0.58975 1.03025 0.36857
 C1072 C 0.57770 1.04875 0.35673
 C1073 C 0.58528 1.05661 0.33560
 H1074 H 0.59968 1.04872 0.32742
 O1075 O 0.41834 0.97843 0.38715
 O1076 O 0.39204 0.97840 0.36070
 C1077 C 0.41043 0.97069 0.36873
 C1078 C 0.42248 0.95219 0.35689
 C1079 C 0.41491 0.94432 0.33577
 H1080 H 0.40051 0.95219 0.32760
 O1081 O 0.52223 1.11309 0.41804
 O1082 O 0.52226 1.13954 0.39173
 C1083 C 0.52997 1.13150 0.41012
 C1084 C 0.54851 1.14331 0.42215
 C1085 C 0.55641 1.16439 0.41452
 H1086 H 0.54853 1.17254 0.40010
 O1087 O 0.47796 0.88787 0.41821
 O1088 O 0.47794 0.86140 0.39191
 C1089 C 0.47023 0.86944 0.41031
 C1090 C 0.45172 0.85761 0.42238
 C1091 C 0.44391 0.83648 0.41483
 H1092 H 0.45184 0.82830 0.40044
 O1093 O 0.61284 1.08205 0.47779
 O1094 O 0.63928 1.10837 0.47776
 C1095 C 0.63126 1.08997 0.47005
 C1096 C 0.64310 1.07794 0.45152
 C1097 C 0.66422 1.08551 0.44367
 H1098 H 0.67240 1.09987 0.45160
 O1099 O 0.38730 0.91882 0.47796
 O1100 O 0.36083 0.89254 0.47791
 C1101 C 0.36888 0.91093 0.47021
 C1102 C 0.35706 0.92300 0.45170
 C1103 C 0.33593 0.91545 0.44387
 H1104 H 0.32774 0.90108 0.45178
 Cu1105 Cu 0.50005 0.90596 0.40533
 Cu1106 Cu 0.50004 0.87427 0.37368
 Cu1107 Cu 0.50014 1.09500 0.40520
 Cu1108 Cu 0.50014 1.12668 0.37353
 Cu1109 Cu 0.40552 1.00050 0.40530
 Cu1110 Cu 0.37386 1.00050 0.37363
 Cu1111 Cu 0.59466 1.00047 0.40516
 Cu1112 Cu 0.62633 1.00044 0.37348
 C1113 C 0.44108 0.94151 0.36721
 H1114 H 0.44681 0.94727 0.38364
 C1115 C 0.42563 0.92600 0.32527
 C1116 C 0.55910 1.05943 0.36704
 H1117 H 0.55335 1.05368 0.38348
 C1118 C 0.57457 1.07492 0.32508
 C1119 C 0.36740 0.94156 0.44098
 H1120 H 0.38384 0.94727 0.44671
 C1121 C 0.32543 0.92617 0.42554
 C1122 C 0.63277 1.05938 0.44079
 H1123 H 0.61634 1.05365 0.44654
 C1124 C 0.67473 1.07483 0.42533
 C1125 C 0.44100 0.86792 0.44096
 H1126 H 0.44671 0.88436 0.44669
 C1127 C 0.42561 0.82595 0.42554
 C1128 C 0.55918 1.13301 0.44077
 H1129 H 0.55340 1.11662 0.44656
 C1130 C 0.57474 1.17488 0.42519
 C1131 C 0.44112 1.05948 0.36716
 H1132 H 0.44687 1.05373 0.38358
 C1133 C 0.42560 1.07493 0.32521
 C1134 C 0.55907 0.94147 0.36715
 H1135 H 0.55332 0.94725 0.38357
 C1136 C 0.57457 0.92590 0.32523
 C1137 C 0.55900 0.86791 0.44095
 H1138 H 0.55331 0.88437 0.44663
 C1139 C 0.57431 0.82585 0.42567
 C1140 C 0.44121 1.13309 0.44091
 H1141 H 0.44692 1.11665 0.44662
 C1142 C 0.42581 1.17507 0.42550
 C1143 C 0.36747 1.05954 0.44086
 H1144 H 0.38387 1.05377 0.44663
 C1145 C 0.32557 1.07505 0.42533
 C1146 C 0.63267 0.94150 0.44082
 H1147 H 0.61625 0.94725 0.44656
 C1148 C 0.67463 0.92602 0.42538
 O1149 O 0.52192 0.91882 0.61266
 O1150 O 0.52199 0.89253 0.63914
 C1151 C 0.52967 0.91092 0.63109
 C1152 C 0.54815 0.92300 0.64293
 C1153 C 0.55593 0.91548 0.66410
 H1154 H 0.54800 0.90112 0.67230
 O1155 O 0.47796 1.08212 0.61278
 O1156 O 0.47793 1.10845 0.63921
 C1157 C 0.47022 1.09006 0.63119
 C1158 C 0.45168 1.07804 0.64304
 C1159 C 0.44380 1.08566 0.66415
 H1160 H 0.45171 1.10005 0.67230
 O1161 O 0.38733 1.02251 0.58173
 O1162 O 0.36084 1.02257 0.60803
 C1163 C 0.36890 1.03024 0.58961
 C1164 C 0.35707 1.04871 0.57749
 C1165 C 0.33588 1.05648 0.58497
 H1166 H 0.32767 1.04855 0.59933
 O1167 O 0.61268 0.97853 0.58170
 O1168 O 0.63912 0.97844 0.60802
 C1169 C 0.63110 0.97077 0.58960
 C1170 C 0.64294 0.95230 0.57751
 C1171 C 0.66410 0.94451 0.58502
 H1172 H 0.67228 0.95242 0.59939
 O1173 O 0.58170 0.88791 0.52202
 O1174 O 0.60799 0.86146 0.52207
 C1175 C 0.58960 0.86950 0.52976
 C1176 C 0.57751 0.85764 0.54826
 C1177 C 0.58504 0.83649 0.55606
 H1178 H 0.59942 0.82832 0.54813
 O1179 O 0.41834 1.11316 0.52203
 O1180 O 0.39204 1.13961 0.52207
 C1181 C 0.41042 1.13157 0.52979
 C1182 C 0.42244 1.14338 0.54834
 C1183 C 0.41481 1.16445 0.55625
 H1184 H 0.40040 1.17261 0.54837
 O1185 O 0.41824 0.97842 0.61280
 O1186 O 0.39192 0.97842 0.63926
 C1187 C 0.41031 0.97070 0.63124
 C1188 C 0.42234 0.95219 0.64308
 C1189 C 0.41472 0.94431 0.66419
 H1190 H 0.40033 0.95221 0.67236
 O1191 O 0.58175 1.02263 0.61275
 O1192 O 0.60804 1.02259 0.63922
 C1193 C 0.58967 1.03033 0.63119
 C1194 C 0.57764 1.04884 0.64305
 C1195 C 0.58530 1.05674 0.66413
 H1196 H 0.59972 1.04885 0.67226
 O1197 O 0.47781 0.88777 0.58176
 O1198 O 0.47781 0.86133 0.60809
 C1199 C 0.47009 0.86935 0.58969
 C1200 C 0.45158 0.85751 0.57765
 C1201 C 0.44371 0.83641 0.58525
 H1202 H 0.45159 0.82825 0.59966
 O1203 O 0.52208 1.11303 0.58169
 O1204 O 0.52212 1.13952 0.60796
 C1205 C 0.52981 1.13146 0.58956
 C1206 C 0.54829 1.14329 0.57744
 C1207 C 0.55608 1.16445 0.58494
 H1208 H 0.54817 1.17265 0.59932
 O1209 O 0.38728 0.91878 0.52212
 O1210 O 0.36081 0.89249 0.52213
 C1211 C 0.36885 0.91087 0.52985
 C1212 C 0.35702 0.92289 0.54840
 C1213 C 0.33594 0.91526 0.55630
 H1214 H 0.32779 0.90086 0.54841
 O1215 O 0.61288 1.08217 0.52196
 O1216 O 0.63930 1.10849 0.52199
 C1217 C 0.63127 1.09011 0.52972
 C1218 C 0.64307 1.07811 0.54830
 C1219 C 0.66413 1.08575 0.55624
 H1220 H 0.67230 1.10016 0.54837
 O1221 O 0.52210 1.08220 0.61284
 O1222 O 0.52213 1.10854 0.63926
 C1223 C 0.52984 1.09015 0.63125
 C1224 C 0.54837 1.07813 0.64308
 C1225 C 0.55630 1.08576 0.66417
 H1226 H 0.54843 1.10018 0.67233
 O1227 O 0.47780 0.91875 0.61274
 O1228 O 0.47780 0.89245 0.63922
 C1229 C 0.47009 0.91083 0.63119
 C1230 C 0.45158 0.92288 0.64305
 C1231 C 0.44371 0.91527 0.66417
 H1232 H 0.45158 0.90086 0.67232
 O1233 O 0.61271 1.02264 0.58173
 O1234 O 0.63914 1.02261 0.60806
 C1235 C 0.63113 1.03034 0.58967
 C1236 C 0.64300 1.04886 0.57763
 C1237 C 0.66405 1.05676 0.58531
 H1238 H 0.67216 1.04890 0.59976
 O1239 O 0.38727 0.97839 0.58184
 O1240 O 0.36080 0.97840 0.60815
 C1241 C 0.36884 0.97067 0.58976
 C1242 C 0.35701 0.95215 0.57772
 C1243 C 0.33593 0.94425 0.58535
 H1244 H 0.32777 0.95212 0.59977
 O1245 O 0.58177 1.11300 0.52190
 O1246 O 0.60804 1.13947 0.52191
 C1247 C 0.58965 1.13143 0.52962
 C1248 C 0.57756 1.14327 0.54811
 C1249 C 0.58508 1.16443 0.55587
 H1250 H 0.59944 1.17261 0.54792
 O1251 O 0.41822 0.88779 0.52209
 O1252 O 0.39190 0.86135 0.52210
 C1253 C 0.41029 0.86937 0.52982
 C1254 C 0.42232 0.85752 0.54834
 C1255 C 0.41472 0.83642 0.55620
 H1256 H 0.40033 0.82827 0.54830
 O1257 O 0.58165 0.97851 0.61265
 O1258 O 0.60794 0.97842 0.63913
 C1259 C 0.58954 0.97075 0.63108
 C1260 C 0.57744 0.95227 0.64292
 C1261 C 0.58495 0.94447 0.66409
 H1262 H 0.59931 0.95239 0.67229
 O1263 O 0.41823 1.02254 0.61279
 O1264 O 0.39190 1.02261 0.63924
 C1265 C 0.41030 1.03030 0.63121
 C1266 C 0.42235 1.04881 0.64305
 C1267 C 0.41474 1.05670 0.66415
 H1268 H 0.40032 1.04884 0.67232
 O1269 O 0.47795 1.11310 0.58179
 O1270 O 0.47793 1.13958 0.60808
 C1271 C 0.47022 1.13153 0.58969
 C1272 C 0.45170 1.14335 0.57765
 C1273 C 0.44381 1.16443 0.58528
 H1274 H 0.45168 1.17257 0.59971
 O1275 O 0.52194 0.88783 0.58170
 O1276 O 0.52200 0.86138 0.60803
 C1277 C 0.52969 0.86942 0.58961
 C1278 C 0.54820 0.85760 0.57754
 C1279 C 0.55600 0.83645 0.58507
 H1280 H 0.54806 0.82825 0.59943
 O1281 O 0.61267 0.91888 0.52198
 O1282 O 0.63912 0.89258 0.52202
 C1283 C 0.63109 0.91098 0.52971
 C1284 C 0.64294 0.92305 0.54820
 C1285 C 0.66409 0.91552 0.55598
 H1286 H 0.67228 0.90116 0.54804
 O1287 O 0.38742 1.08214 0.52197
 O1288 O 0.36097 1.10844 0.52199
 C1289 C 0.36899 1.09004 0.52969
 C1290 C 0.35711 1.07796 0.54817
 C1291 C 0.33593 1.08546 0.55591
 H1292 H 0.32774 1.09981 0.54795
 Cu1293 Cu 0.49986 0.90592 0.59458
 Cu1294 Cu 0.49991 0.87427 0.62627
 Cu1295 Cu 0.50002 1.09497 0.59465
 Cu1296 Cu 0.50003 1.12668 0.62628
 Cu1297 Cu 0.40540 0.90594 0.50003
 Cu1298 Cu 0.37372 0.87430 0.50000
 Cu1299 Cu 0.59456 0.90601 0.49992
 Cu1300 Cu 0.62622 0.87434 0.49995
 Cu1301 Cu 0.40554 1.09504 0.49992
 Cu1302 Cu 0.37389 1.12671 0.49992
 Cu1303 Cu 0.59472 1.09493 0.49985
 Cu1304 Cu 0.62636 1.12661 0.49984
 Cu1305 Cu 0.40541 1.00047 0.59466
 Cu1306 Cu 0.37371 1.00051 0.62632
 Cu1307 Cu 0.59456 1.00058 0.59457
 Cu1308 Cu 0.62621 1.00050 0.62626
 C1309 C 0.55889 0.94155 0.63258
 H1310 H 0.55320 0.94725 0.61612
 C1311 C 0.57421 0.92620 0.67464
 C1312 C 0.44098 1.05946 0.63274
 H1313 H 0.44675 1.05368 0.61633
 C1314 C 0.42545 1.07501 0.67466
 C1315 C 0.36743 1.05942 0.55893
 H1316 H 0.38391 1.05374 0.55327
 C1317 C 0.32536 1.07473 0.57419
 C1318 C 0.63261 0.94160 0.55894
 H1319 H 0.61615 0.94730 0.55324
 C1320 C 0.67463 0.92623 0.57427
 C1321 C 0.55893 0.86795 0.55898
 H1322 H 0.55322 0.88440 0.55327
 C1323 C 0.57430 0.82594 0.57434
 C1324 C 0.44104 1.13308 0.55902
 H1325 H 0.44683 1.11669 0.55323
 C1326 C 0.42547 1.17493 0.57461
 C1327 C 0.44092 0.94149 0.63276
 H1328 H 0.44669 0.94726 0.61634
 C1329 C 0.42539 0.92597 0.67469
 C1330 C 0.55903 1.05951 0.63278
 H1331 H 0.55323 1.05373 0.61639
 C1332 C 0.57465 1.07508 0.67465
 C1333 C 0.44091 0.86781 0.55904
 H1334 H 0.44667 0.88423 0.55328
 C1335 C 0.42539 0.82590 0.57454
 C1336 C 0.55901 1.13295 0.55887
 H1337 H 0.55331 1.11649 0.55318
 C1338 C 0.57436 1.17498 0.57417
 C1339 C 0.36731 0.94149 0.55909
 H1340 H 0.38371 0.94727 0.55330
 C1341 C 0.32543 0.92592 0.57466
 C1342 C 0.63276 1.05951 0.55897
 H1343 H 0.61638 1.05371 0.55316
 C1344 C 0.67458 1.07509 0.57463
 O1345 O 0.47776 0.41776 0.88731
 O1346 O 0.47778 0.39148 0.86083
 C1347 C 0.47005 0.40985 0.86888
 C1348 C 0.45153 0.42188 0.85704
 C1349 C 0.44364 0.41426 0.83594
 H1350 H 0.45152 0.39986 0.82779
 O1351 O 0.52173 0.58132 0.88743
 O1352 O 0.52178 0.60761 0.86095
 C1353 C 0.52948 0.58922 0.86900
 C1354 C 0.54800 0.57717 0.85717
 C1355 C 0.55581 0.58471 0.83601
 H1356 H 0.54788 0.59908 0.82782
 O1357 O 0.38723 0.47743 0.91834
 O1358 O 0.36074 0.47740 0.89207
 C1359 C 0.36880 0.46970 0.91047
 C1360 C 0.35696 0.45122 0.92257
 C1361 C 0.33580 0.44344 0.91507
 H1362 H 0.32760 0.45136 0.90070
 O1363 O 0.61245 0.52165 0.91845
 O1364 O 0.63889 0.52175 0.89211
 C1365 C 0.63086 0.52942 0.91053
 C1366 C 0.64267 0.54793 0.92259
 C1367 C 0.66381 0.55575 0.91505
 H1368 H 0.67202 0.54782 0.90069
 O1369 O 0.41816 0.38676 0.97805
 O1370 O 0.39185 0.36033 0.97803
 C1371 C 0.41024 0.36836 0.97031
 C1372 C 0.42228 0.35653 0.95177
 C1373 C 0.41467 0.33545 0.94387
 H1374 H 0.40025 0.32729 0.95175
 O1375 O 0.58127 0.61236 0.97807
 O1376 O 0.60758 0.63880 0.97803
 C1377 C 0.58918 0.63077 0.97033
 C1378 C 0.57712 0.64262 0.95184
 C1379 C 0.58463 0.66378 0.94405
 H1380 H 0.59898 0.67197 0.95199
 O1381 O 0.41814 0.52156 0.88728
 O1382 O 0.39180 0.52159 0.86086
 C1383 C 0.41019 0.52930 0.86887
 C1384 C 0.42220 0.54783 0.85703
 C1385 C 0.41459 0.55570 0.83592
 H1386 H 0.40021 0.54779 0.82775
 O1387 O 0.58150 0.47756 0.88744
 O1388 O 0.60778 0.47761 0.86094
 C1389 C 0.58940 0.46988 0.86898
 C1390 C 0.57735 0.45141 0.85711
 C1391 C 0.58490 0.44366 0.83593
 H1392 H 0.59926 0.45162 0.82775
 O1393 O 0.52193 0.38682 0.91829
 O1394 O 0.52200 0.36040 0.89195
 C1395 C 0.52969 0.36843 0.91035
 C1396 C 0.54822 0.35661 0.92239
 C1397 C 0.55614 0.33554 0.91476
 H1398 H 0.54828 0.32739 0.90033
 O1399 O 0.47755 0.61230 0.91834
 O1400 O 0.47754 0.63874 0.89201
 C1401 C 0.46982 0.63071 0.91041
 C1402 C 0.45131 0.64254 0.92247
 C1403 C 0.44345 0.66365 0.91489
 H1404 H 0.45133 0.67182 0.90048
 O1405 O 0.38714 0.58121 0.97816
 O1406 O 0.36063 0.60745 0.97810
 C1407 C 0.36871 0.58906 0.97042
 C1408 C 0.35690 0.57696 0.95193
 C1409 C 0.33571 0.58442 0.94418
 H1410 H 0.32749 0.59876 0.95213
 O1411 O 0.61260 0.41781 0.97790
 O1412 O 0.63907 0.39152 0.97790
 C1413 C 0.63103 0.40990 0.97017
 C1414 C 0.64285 0.42194 0.95161
 C1415 C 0.66391 0.41429 0.94363
 H1416 H 0.67205 0.39985 0.95147
 O1417 O 0.47761 0.58134 0.88734
 O1418 O 0.47760 0.60763 0.86086
 C1419 C 0.46990 0.58924 0.86890
 C1420 C 0.45142 0.57717 0.85704
 C1421 C 0.44354 0.58477 0.83593
 H1422 H 0.45140 0.59920 0.82778
 O1423 O 0.52189 0.41786 0.88735
 O1424 O 0.52196 0.39159 0.86086
 C1425 C 0.52963 0.40998 0.86891
 C1426 C 0.54811 0.42209 0.85707
 C1427 C 0.55593 0.41461 0.83589
 H1428 H 0.54803 0.40024 0.82768
 O1429 O 0.61256 0.47752 0.91834
 O1430 O 0.63898 0.47757 0.89198
 C1431 C 0.63097 0.46981 0.91037
 C1432 C 0.64282 0.45126 0.92236
 C1433 C 0.66387 0.44336 0.91465
 H1434 H 0.67199 0.45125 0.90021
 O1435 O 0.38725 0.52153 0.91837
 O1436 O 0.36075 0.52156 0.89211
 C1437 C 0.36880 0.52925 0.91050
 C1438 C 0.35694 0.54771 0.92261
 C1439 C 0.33576 0.55544 0.91513
 H1440 H 0.32757 0.54751 0.90077
 O1441 O 0.41798 0.61231 0.97812
 O1442 O 0.39162 0.63870 0.97805
 C1443 C 0.41003 0.63070 0.97035
 C1444 C 0.42206 0.64254 0.95181
 C1445 C 0.41446 0.66364 0.94397
 H1446 H 0.40008 0.67180 0.95189
 O1447 O 0.58160 0.38687 0.97794
 O1448 O 0.60792 0.36044 0.97794
 C1449 C 0.58953 0.36846 0.97022
 C1450 C 0.57750 0.35662 0.95169
 C1451 C 0.58515 0.33556 0.94378
 H1452 H 0.59957 0.32742 0.95166
 O1453 O 0.58149 0.52168 0.88746
 O1454 O 0.60779 0.52177 0.86097
 C1455 C 0.58939 0.52944 0.86902
 C1456 C 0.57730 0.54792 0.85718
 C1457 C 0.58485 0.55574 0.83602
 H1458 H 0.59923 0.54784 0.82784
 O1459 O 0.41816 0.47743 0.88729
 O1460 O 0.39182 0.47740 0.86087
 C1461 C 0.41022 0.46969 0.86888
 C1462 C 0.42225 0.45117 0.85703
 C1463 C 0.41463 0.44328 0.83594
 H1464 H 0.40022 0.45116 0.82778
 O1465 O 0.52167 0.61234 0.91836
 O1466 O 0.52172 0.63878 0.89203
 C1467 C 0.52939 0.63076 0.91045
 C1468 C 0.54786 0.64261 0.92253
 C1469 C 0.55564 0.66378 0.91501
 H1470 H 0.54772 0.67196 0.90064
 O1471 O 0.47780 0.38681 0.91833
 O1472 O 0.47781 0.36038 0.89200
 C1473 C 0.47008 0.36840 0.91040
 C1474 C 0.45157 0.35655 0.92246
 C1475 C 0.44369 0.33547 0.91483
 H1476 H 0.45158 0.32733 0.90041
 O1477 O 0.61228 0.58142 0.97805
 O1478 O 0.63874 0.60771 0.97801
 C1479 C 0.63071 0.58932 0.97032
 C1480 C 0.64258 0.57725 0.95184
 C1481 C 0.66373 0.58480 0.94403
 H1482 H 0.67188 0.59919 0.95194
 O1483 O 0.38725 0.41778 0.97809
 O1484 O 0.36078 0.39150 0.97808
 C1485 C 0.36882 0.40989 0.97037
 C1486 C 0.35697 0.42196 0.95188
 C1487 C 0.33581 0.41444 0.94412
 H1488 H 0.32762 0.40008 0.95206
 Cu1489 Cu 0.49984 0.40494 0.90546
 Cu1490 Cu 0.49989 0.37331 0.87376
 Cu1491 Cu 0.49963 0.59419 0.90551
 Cu1492 Cu 0.49966 0.62584 0.87380
 Cu1493 Cu 0.40534 0.49949 0.90545
 Cu1494 Cu 0.37363 0.49949 0.87383
 Cu1495 Cu 0.59437 0.49960 0.90557
 Cu1496 Cu 0.62601 0.49968 0.87384
 C1497 C 0.44085 0.44049 0.86733
 H1498 H 0.44663 0.44627 0.88374
 C1499 C 0.42531 0.42494 0.82543
 C1500 C 0.55872 0.55862 0.86751
 H1501 H 0.55300 0.55290 0.88397
 C1502 C 0.57412 0.57401 0.82548
 C1503 C 0.36730 0.44051 0.94113
 H1504 H 0.38376 0.44621 0.94682
 C1505 C 0.32526 0.42517 0.92583
 C1506 C 0.63230 0.55865 0.94114
 H1507 H 0.61586 0.55293 0.94686
 C1508 C 0.67430 0.57407 0.92576
 C1509 C 0.44089 0.36683 0.94108
 H1510 H 0.44665 0.38323 0.94686
 C1511 C 0.42535 0.32496 0.92552
 C1512 C 0.55858 0.63229 0.94110
 H1513 H 0.55288 0.61583 0.94680
 C1514 C 0.57390 0.67432 0.92576
 C1515 C 0.44077 0.55855 0.86733
 H1516 H 0.44654 0.55279 0.88375
 C1517 C 0.42524 0.57406 0.82541
 C1518 C 0.55880 0.44065 0.86743
 H1519 H 0.55308 0.44632 0.88390
 C1520 C 0.57420 0.42538 0.82536
 C1521 C 0.55888 0.36690 0.94102
 H1522 H 0.55309 0.38329 0.94680
 C1523 C 0.57449 0.32506 0.92543
 C1524 C 0.44064 0.63224 0.94109
 H1525 H 0.44639 0.61582 0.94684
 C1526 C 0.42514 0.67416 0.92562
 C1527 C 0.36727 0.55844 0.94118
 H1528 H 0.38374 0.55278 0.94685
 C1529 C 0.32518 0.57368 0.92590
 C1530 C 0.63256 0.44058 0.94099
 H1531 H 0.61619 0.44637 0.94683
 C1532 C 0.67438 0.42498 0.92527
 O1533 O 0.52190 0.41778 1.11295
 O1534 O 0.52192 0.39147 1.13941
 C1535 C 0.52962 0.40986 1.13138
 C1536 C 0.54813 0.42191 1.14322
 C1537 C 0.55604 0.41428 1.16431
 H1538 H 0.54817 0.39986 1.17246
 O1539 O 0.47757 0.58136 1.11285
 O1540 O 0.47754 0.60762 1.13935
 C1541 C 0.46984 0.58924 1.13130
 C1542 C 0.45135 0.57716 1.14316
 C1543 C 0.44351 0.58472 1.16430
 H1544 H 0.45141 0.59911 1.17246
 O1545 O 0.38701 0.52163 1.08194
 O1546 O 0.36056 0.52161 1.10828
 C1547 C 0.36859 0.52935 1.08988
 C1548 C 0.35675 0.54788 1.07786
 C1549 C 0.33568 0.55580 1.08553
 H1550 H 0.32753 0.54793 1.09996
 O1551 O 0.61233 0.47751 1.08182
 O1552 O 0.63880 0.47753 1.10811
 C1553 C 0.63078 0.46982 1.08971
 C1554 C 0.64266 0.45137 1.07762
 C1555 C 0.66383 0.44362 1.08515
 H1556 H 0.67199 0.45156 1.09953
 O1557 O 0.58160 0.38688 1.02210
 O1558 O 0.60793 0.36046 1.02217
 C1559 C 0.58953 0.36848 1.02987
 C1560 C 0.57748 0.35666 1.04841
 C1561 C 0.58507 0.33556 1.05629
 H1562 H 0.59947 0.32740 1.04839
 O1563 O 0.41798 0.61232 1.02227
 O1564 O 0.39164 0.63873 1.02227
 C1565 C 0.41004 0.63073 1.02999
 C1566 C 0.42207 0.64260 1.04849
 C1567 C 0.41448 0.66371 1.05633
 H1568 H 0.40010 0.67187 1.04841
 O1569 O 0.41807 0.47752 1.11286
 O1570 O 0.39176 0.47744 1.13934
 C1571 C 0.41017 0.46976 1.13129
 C1572 C 0.42224 0.45127 1.14313
 C1573 C 0.41469 0.44346 1.16428
 H1574 H 0.40031 0.45138 1.17247
 O1575 O 0.58130 0.52158 1.11283
 O1576 O 0.60762 0.52165 1.13928
 C1577 C 0.58921 0.52932 1.13125
 C1578 C 0.57714 0.54781 1.14310
 C1579 C 0.58466 0.55559 1.16427
 H1580 H 0.59902 0.54766 1.17246
 O1581 O 0.47781 0.38682 1.08193
 O1582 O 0.47777 0.36037 1.10825
 C1583 C 0.47009 0.36839 1.08984
 C1584 C 0.45160 0.35655 1.07777
 C1585 C 0.44376 0.33543 1.08535
 H1586 H 0.45165 0.32726 1.09975
 O1587 O 0.52170 0.61239 1.08191
 O1588 O 0.52172 0.63879 1.10826
 C1589 C 0.52943 0.63079 1.08985
 C1590 C 0.54794 0.64264 1.07780
 C1591 C 0.55580 0.66373 1.08540
 H1592 H 0.54790 0.67188 1.09981
 O1593 O 0.38722 0.41774 1.02224
 O1594 O 0.36076 0.39145 1.02229
 C1595 C 0.36879 0.40984 1.02998
 C1596 C 0.35694 0.42190 1.04849
 C1597 C 0.33581 0.41433 1.05634
 H1598 H 0.32766 0.39992 1.04846
 O1599 O 0.61223 0.58137 1.02220
 O1600 O 0.63870 0.60765 1.02221
 C1601 C 0.63066 0.58926 1.02991
 C1602 C 0.64252 0.57717 1.04838
 C1603 C 0.66370 0.58466 1.05612
 H1604 H 0.67188 0.59902 1.04818
 O1605 O 0.52168 0.58133 1.11281
 O1606 O 0.52171 0.60758 1.13932
 C1607 C 0.52940 0.58920 1.13126
 C1608 C 0.54788 0.57711 1.14310
 C1609 C 0.55567 0.58462 1.16427
 H1610 H 0.54776 0.59899 1.17246
 O1611 O 0.47777 0.41784 1.11286
 O1612 O 0.47773 0.39154 1.13934
 C1613 C 0.47003 0.40993 1.13129
 C1614 C 0.45152 0.42199 1.14314
 C1615 C 0.44369 0.41445 1.16429
 H1616 H 0.45160 0.40007 1.17248
 O1617 O 0.61231 0.52162 1.08186
 O1618 O 0.63878 0.52169 1.10815
 C1619 C 0.63073 0.52937 1.08975
 C1620 C 0.64255 0.54787 1.07766
 C1621 C 0.66373 0.55563 1.08514
 H1622 H 0.67195 0.54769 1.09948
 O1623 O 0.38710 0.47750 1.08187
 O1624 O 0.36065 0.47742 1.10821
 C1625 C 0.36869 0.46974 1.08980
 C1626 C 0.35689 0.45122 1.07775
 C1627 C 0.33576 0.44337 1.08532
 H1628 H 0.32757 0.45129 1.09971
 O1629 O 0.58134 0.61241 1.02223
 O1630 O 0.60766 0.63884 1.02224
 C1631 C 0.58926 0.63082 1.02996
 C1632 C 0.57722 0.64265 1.04849
 C1633 C 0.58482 0.66375 1.05636
 H1634 H 0.59921 0.67192 1.04846
 O1635 O 0.41821 0.38679 1.02221
 O1636 O 0.39190 0.36035 1.02225
 C1637 C 0.41030 0.36838 1.02995
 C1638 C 0.42235 0.35654 1.04846
 C1639 C 0.41478 0.33542 1.05631
 H1640 H 0.40040 0.32725 1.04839
 O1641 O 0.58145 0.47746 1.11292
 O1642 O 0.60777 0.47747 1.13935
 C1643 C 0.58939 0.46974 1.13134
 C1644 C 0.57738 0.45121 1.14320
 C1645 C 0.58502 0.44331 1.16429
 H1646 H 0.59943 0.45120 1.17243
 O1647 O 0.41799 0.52164 1.11290
 O1648 O 0.39169 0.52161 1.13939
 C1649 C 0.41007 0.52934 1.13134
 C1650 C 0.42211 0.54785 1.14319
 C1651 C 0.41453 0.55568 1.16433
 H1652 H 0.40015 0.54777 1.17252
 O1653 O 0.47758 0.61237 1.08190
 O1654 O 0.47754 0.63878 1.10825
 C1655 C 0.46984 0.63077 1.08984
 C1656 C 0.45134 0.64261 1.07779
 C1657 C 0.44349 0.66373 1.08536
 H1658 H 0.45139 0.67190 1.09975
 O1659 O 0.52194 0.38690 1.08188
 O1660 O 0.52196 0.36044 1.10820
 C1661 C 0.52967 0.36849 1.08979
 C1662 C 0.54820 0.35666 1.07773
 C1663 C 0.55606 0.33556 1.08534
 H1664 H 0.54817 0.32740 1.09975
 O1665 O 0.61251 0.41790 1.02206
 O1666 O 0.63900 0.39163 1.02212
 C1667 C 0.63094 0.41002 1.02981
 C1668 C 0.64275 0.42211 1.04831
 C1669 C 0.66392 0.41463 1.05611
 H1670 H 0.67214 0.40029 1.04818
 O1671 O 0.38704 0.58133 1.02232
 O1672 O 0.36055 0.60758 1.02231
 C1673 C 0.36860 0.58922 1.03004
 C1674 C 0.35677 0.57718 1.04858
 C1675 C 0.33570 0.58482 1.05651
 H1676 H 0.32757 0.59925 1.04864
 Cu1677 Cu 0.49986 0.40497 1.09477
 Cu1678 Cu 0.49984 0.37330 1.12645
 Cu1679 Cu 0.49963 0.59423 1.09472
 Cu1680 Cu 0.49963 0.62584 1.12645
 Cu1681 Cu 0.40535 0.40490 1.00015
 Cu1682 Cu 0.37367 0.37325 1.00017
 Cu1683 Cu 0.59444 0.40500 1.00000
 Cu1684 Cu 0.62613 0.37336 1.00004
 Cu1685 Cu 0.40518 0.59416 1.00022
 Cu1686 Cu 0.37345 0.62576 1.00017
 Cu1687 Cu 0.59414 0.59426 1.00014
 Cu1688 Cu 0.62582 0.62590 1.00012
 Cu1689 Cu 0.40517 0.49958 1.09475
 Cu1690 Cu 0.37351 0.49951 1.12646
 Cu1691 Cu 0.59421 0.49954 1.09472
 Cu1692 Cu 0.62589 0.49959 1.12637
 C1693 C 0.55878 0.44052 1.13292
 H1694 H 0.55299 0.44630 1.11651
 C1695 C 0.57437 0.42497 1.17480
 C1696 C 0.44067 0.55857 1.13285
 H1697 H 0.44641 0.55284 1.11641
 C1698 C 0.42522 0.57400 1.17484
 C1699 C 0.36704 0.55855 1.05923
 H1700 H 0.38343 0.55276 1.05343
 C1701 C 0.32520 0.57415 1.07486
 C1702 C 0.63237 0.44064 1.05904
 H1703 H 0.61591 0.44631 1.05334
 C1704 C 0.67441 0.42537 1.07441
 C1705 C 0.55888 0.36696 1.05911
 H1706 H 0.55312 0.38337 1.05335
 C1707 C 0.57438 0.32505 1.07463
 C1708 C 0.44065 0.63230 1.05920
 H1709 H 0.44640 0.61588 1.05346
 C1710 C 0.42518 0.67424 1.07464
 C1711 C 0.44081 0.44056 1.13280
 H1712 H 0.44654 0.44628 1.11635
 C1713 C 0.42539 0.42517 1.17482
 C1714 C 0.55859 0.55854 1.13277
 H1715 H 0.55289 0.55285 1.11631
 C1716 C 0.57394 0.57388 1.17481
 C1717 C 0.44092 0.36685 1.05917
 H1718 H 0.44665 0.38328 1.05343
 C1719 C 0.42547 0.32491 1.07463
 C1720 C 0.55863 0.63235 1.05919
 H1721 H 0.55288 0.61594 1.05342
 C1722 C 0.57412 0.67425 1.07470
 C1723 C 0.36722 0.44050 1.05917
 H1724 H 0.38365 0.44625 1.05343
 C1725 C 0.32527 0.42505 1.07464
 C1726 C 0.63219 0.55861 1.05912
 H1727 H 0.61573 0.55293 1.05345
 C1728 C 0.67426 0.57391 1.07438
 C1729 C 1.11641 1.11547 1.27212
 C1730 C 1.09886 1.09668 1.27579
 C1731 C 1.09017 1.08822 1.25617
 C1732 C 1.09990 1.09938 1.23481
 C1733 C 1.12563 1.09657 1.23685
 C1734 C 1.13430 1.10502 1.25646
 C1735 C 1.10431 1.13325 1.25757
 C1736 C 1.09563 1.12479 1.23796
 C1737 C 1.12583 1.12467 1.29315
 C1738 C 1.13373 1.13246 1.31027
 C1739 C 1.09065 1.09037 1.21362
 C1740 C 1.08329 1.08314 1.19602
 H1741 H 1.09371 1.09056 1.29234
 H1742 H 1.07758 1.07486 1.25590
 H1743 H 1.13611 1.08861 1.22403
 H1744 H 1.15222 1.10431 1.26043
 H1745 H 1.10268 1.15092 1.26226
 H1746 H 1.08657 1.13523 1.22586
 C1747 C 1.11457 0.61450 0.77244
 C1748 C 1.12453 0.62570 0.75123
 C1749 C 1.11618 0.61723 0.73150
 C1750 C 1.09867 0.59837 0.73490
 C1751 C 1.08049 0.60872 0.75031
 C1752 C 1.08886 0.61720 0.77005
 C1753 C 1.11900 0.58910 0.76935
 C1754 C 1.11064 0.58062 0.74960
 C1755 C 1.12368 0.62372 0.79360
 C1756 C 1.13139 0.63150 0.81080
 C1757 C 1.08977 0.58934 0.71358
 C1758 C 1.08265 0.58216 0.69587
 H1759 H 1.13706 0.63913 0.75167
 H1760 H 1.12154 0.62339 0.71504
 H1761 H 1.06263 0.60932 0.74608
 H1762 H 1.07816 0.62507 0.78275
 H1763 H 1.12791 0.57870 0.78159
 H1764 H 1.11238 0.56295 0.74492
 C1765 C 0.61645 1.11576 0.77191
 C1766 C 0.62616 1.12690 0.75054
 C1767 C 0.61744 1.11848 0.73095
 C1768 C 0.59986 1.09973 0.73461
 C1769 C 0.58199 1.11020 0.75029
 C1770 C 0.59072 1.11863 0.76991
 C1771 C 0.62067 1.09034 0.76875
 C1772 C 0.61194 1.08191 0.74913
 C1773 C 0.62591 1.12493 0.79295
 C1774 C 0.63382 1.13270 0.81007
 C1775 C 0.59057 1.09075 0.71342
 C1776 C 0.58317 1.08352 0.69584
 H1777 H 0.63877 1.14024 0.75079
 H1778 H 0.62259 1.12461 0.71440
 H1779 H 0.56407 1.11092 0.74635
 H1780 H 0.58027 1.12657 0.78277
 H1781 H 0.62969 1.07988 0.78085
 H1782 H 0.61350 1.06423 0.74443
 C1783 C 0.61463 0.61469 1.27244
 C1784 C 0.59718 0.59579 1.27598
 C1785 C 0.58870 0.58727 1.25629
 C1786 C 0.59851 0.59851 1.23501
 C1787 C 0.62424 0.59587 1.23724
 C1788 C 0.63271 0.60437 1.25691
 C1789 C 0.60252 0.63240 1.25780
 C1790 C 0.59405 0.62389 1.23813
 C1791 C 0.62385 0.62395 1.29353
 C1792 C 0.63165 0.63176 1.31068
 C1793 C 0.58950 0.58946 1.21375
 C1794 C 0.58229 0.58223 1.19609
 H1795 H 0.59195 0.58964 1.29249
 H1796 H 0.57620 0.57383 1.25592
 H1797 H 0.63488 0.58799 1.22450
 H1798 H 0.65060 0.60378 1.26102
 H1799 H 0.60074 0.65006 1.26249
 H1800 H 0.58501 0.63426 1.22596
 C1801 C 0.88473 0.88466 1.27244
 C1802 C 0.88481 0.91061 1.27160
 C1803 C 0.89333 0.91919 1.25194
 C1804 C 0.90092 0.90097 1.23506
 C1805 C 0.88008 0.88586 1.23165
 C1806 C 0.87158 0.87729 1.25129
 C1807 C 0.90932 0.87768 1.26783
 C1808 C 0.91783 0.88626 1.24817
 C1809 C 0.87547 0.87534 1.29350
 C1810 C 0.86766 0.86749 1.31064
 C1811 C 0.90998 0.91009 1.21383
 C1812 C 0.91723 0.91738 1.19620
 H1813 H 0.87874 0.92130 1.28524
 H1814 H 0.89454 0.93723 1.24874
 H1815 H 0.87266 0.88221 1.21525
 H1816 H 0.85687 0.86630 1.25171
 H1817 H 0.91918 0.86697 1.27902
 H1818 H 0.93498 0.88289 1.24253
 C1819 C 0.88336 0.38399 0.77161
 C1820 C 0.89612 0.36639 0.75741
 C1821 C 0.90487 0.37487 0.73783
 C1822 C 0.90000 0.40013 0.73435
 C1823 C 0.90912 0.41175 0.75572
 C1824 C 0.90037 0.40326 0.77532
 C1825 C 0.86543 0.39382 0.75561
 C1826 C 0.87417 0.40230 0.73603
 C1827 C 0.87387 0.37476 0.79263
 C1828 C 0.86593 0.36696 0.80974
 C1829 C 0.90931 0.40918 0.71318
 C1830 C 0.91674 0.41645 0.69562
 H1831 H 0.89813 0.34881 0.76231
 H1832 H 0.91436 0.36456 0.72596
 H1833 H 0.92137 0.42543 0.75548
 H1834 H 0.90512 0.40967 0.79186
 H1835 H 0.84745 0.39411 0.75933
 H1836 H 0.86368 0.40985 0.72298
 C1837 C 0.38415 0.88492 0.77208
 C1838 C 0.37862 0.91002 0.76836
 C1839 C 0.38721 0.91856 0.74873
 C1840 C 0.40048 0.90116 0.73473
 C1841 C 0.38400 0.88142 0.73116
 C1842 C 0.37542 0.87289 0.75078
 C1843 C 0.41003 0.88341 0.77052
 C1844 C 0.41862 0.89195 0.75088
 C1845 C 0.37481 0.87563 0.79313
 C1846 C 0.36696 0.86781 0.81025
 C1847 C 0.40963 0.91025 0.71352
 C1848 C 0.41693 0.91753 0.69591
 H1849 H 0.36884 0.92019 0.78013
 H1850 H 0.38479 0.93604 0.74366
 H1851 H 0.37947 0.87473 0.71466
 H1852 H 0.36354 0.85889 0.75109
 H1853 H 0.42066 0.87627 0.78368
 H1854 H 0.43661 0.89213 0.74722
 C1855 C 0.38419 0.38476 1.27249
 C1856 C 0.40750 0.37509 1.26636
 C1857 C 0.41610 0.38348 1.24666
 C1858 C 0.40054 0.40071 1.23504
 C1859 C 0.39602 0.41891 1.25301
 C1860 C 0.38742 0.41052 1.27271
 C1861 C 0.36928 0.38002 1.25176
 C1862 C 0.37788 0.38841 1.23208
 C1863 C 0.37485 0.37563 1.29360
 C1864 C 0.36700 0.36789 1.31078
 C1865 C 0.40969 0.40965 1.21376
 C1866 C 0.41698 0.41681 1.19610
 H1867 H 0.41647 0.36276 1.27659
 H1868 H 0.43243 0.37834 1.24003
 H1869 H 0.39930 0.43680 1.25049
 H1870 H 0.38333 0.42122 1.28707
 H1871 H 0.35337 0.37089 1.25248
 H1872 H 0.36932 0.38645 1.21594
 C1873 C 0.88351 1.11583 0.72827
 C1874 C 0.89796 1.13290 0.74145
 C1875 C 0.90667 1.12444 0.76105
 C1876 C 0.90008 1.09974 0.76556
 C1877 C 0.90766 1.08678 0.74435
 C1878 C 0.89894 1.09524 0.72474
 C1879 C 0.86542 1.10789 0.74514
 C1880 C 0.87413 1.09943 0.76474
 C1881 C 0.87405 1.12504 0.70724
 C1882 C 0.86614 1.13282 0.69012
 C1883 C 0.90936 1.09071 0.78674
 C1884 C 0.91675 1.08346 0.80432
 H1885 H 0.90109 1.15011 0.73588
 H1886 H 0.91726 1.13441 0.77226
 H1887 H 0.91888 1.07225 0.74471
 H1888 H 0.90269 1.08796 0.70829
 H1889 H 0.84736 1.10881 0.74197
 H1890 H 0.86353 1.09311 0.77835
 C1891 C 0.88540 0.61451 0.22741
 C1892 C 0.88986 0.58895 0.22668
 C1893 C 0.89836 0.58049 0.24639
 C1894 C 0.90155 0.59845 0.26489
 C1895 C 0.87825 0.60960 0.26755
 C1896 C 0.86977 0.61804 0.24786
 C1897 C 0.90806 0.62512 0.23435
 C1898 C 0.91655 0.61667 0.25406
 C1899 C 0.87617 0.62371 0.20629
 C1900 C 0.86837 0.63148 0.18913
 C1901 C 0.91058 0.58946 0.28617
 C1902 C 0.91778 0.58228 0.30385
 H1903 H 0.88665 0.57841 0.21198
 H1904 H 0.90242 0.56272 0.24858
 H1905 H 0.86921 0.61075 0.28351
 H1906 H 0.85346 0.62643 0.24695
 H1907 H 0.91669 0.63810 0.22463
 H1908 H 0.93245 0.62241 0.26122
 C1909 C 0.38400 1.11531 0.22773
 C1910 C 0.40807 1.12362 0.23281
 C1911 C 0.41676 1.11525 0.25247
 C1912 C 0.40053 1.09940 0.26511
 C1913 C 0.39427 1.08103 0.24786
 C1914 C 0.38557 1.08940 0.22820
 C1915 C 0.37012 1.12159 0.24877
 C1916 C 0.37880 1.11323 0.26842
 C1917 C 0.37456 1.12442 0.20666
 C1918 C 0.36666 1.13215 0.18951
 C1919 C 0.40978 1.09048 0.28635
 C1920 C 0.41713 1.08332 0.30397
 H1921 H 0.41746 1.13505 0.22193
 H1922 H 0.43360 1.11952 0.25842
 H1923 H 0.39647 1.06304 0.25082
 H1924 H 0.38033 1.07858 0.21431
 H1925 H 0.35480 1.13171 0.24829
 H1926 H 0.37093 1.11619 0.28475
 C1927 C 0.38407 0.61516 0.72805
 C1928 C 0.37465 0.62658 0.74939
 C1929 C 0.38321 0.61803 0.76901
 C1930 C 0.40036 0.59889 0.76539
 C1931 C 0.41843 0.60891 0.74963
 C1932 C 0.40986 0.61746 0.73000
 C1933 C 0.37930 0.58984 0.73133
 C1934 C 0.38787 0.58129 0.75096
 C1935 C 0.37476 0.62446 0.70701
 C1936 C 0.36692 0.63229 0.68988
 C1937 C 0.40949 0.58978 0.78659
 C1938 C 0.41678 0.58250 0.80420
 H1939 H 0.36233 0.64020 0.74912
 H1940 H 0.37822 0.62433 0.78554
 H1941 H 0.43637 0.60924 0.75355
 H1942 H 0.42046 0.62513 0.71709
 H1943 H 0.37002 0.57954 0.71928
 H1944 H 0.38593 0.56366 0.75573
 C1945 C 1.11590 0.88471 0.72814
 C1946 C 1.11684 0.86805 0.74804
 C1947 C 1.10823 0.87656 0.76766
 C1948 C 1.09952 0.90091 0.76547
 C1949 C 1.08233 0.90021 0.74601
 C1950 C 1.09095 0.89169 0.72638
 C1951 C 1.12826 0.90594 0.73656
 C1952 C 1.11964 0.91446 0.75618
 C1953 C 1.12526 0.87545 0.70709
 C1954 C 1.13314 0.86764 0.68997
 C1955 C 1.09035 0.90999 0.78668
 C1956 C 1.08304 0.91726 0.80428
 H1957 H 1.12366 0.85104 0.74683
 H1958 H 1.10768 0.86685 0.78324
 H1959 H 1.06494 0.90590 0.74752
 H1960 H 1.08093 0.89008 0.71106
 H1961 H 1.14250 0.91361 0.72786
 H1962 H 1.12651 0.92943 0.76430
 C1963 C 1.11606 0.38457 0.22758
 C1964 C 1.11702 0.36785 0.24744
 C1965 C 1.10843 0.37631 0.26708
 C1966 C 1.09971 0.40067 0.26497
 C1967 C 1.08250 0.40001 0.24552
 C1968 C 1.09111 0.39154 0.22586
 C1969 C 1.12842 0.40578 0.23604
 C1970 C 1.11982 0.41424 0.25570
 C1971 C 1.12541 0.37535 0.20651
 C1972 C 1.13325 0.36756 0.18936
 C1973 C 1.09056 0.40969 0.28621
 C1974 C 1.08325 0.41691 0.30383
 H1975 H 1.12384 0.35085 0.24618
 H1976 H 1.10789 0.36656 0.28265
 H1977 H 1.06511 0.40570 0.24706
 H1978 H 1.08108 0.38997 0.21055
 H1979 H 1.14266 0.41347 0.22735
 H1980 H 1.12669 0.42919 0.26384
 C1981 C 0.61545 0.88446 0.22787
 C1982 C 0.61638 0.86786 0.24783
 C1983 C 0.60789 0.87649 0.26745
 C1984 C 0.59929 0.90088 0.26521
 C1985 C 0.58203 0.90019 0.24582
 C1986 C 0.59052 0.89155 0.22618
 C1987 C 0.62794 0.90566 0.23616
 C1988 C 0.61944 0.91429 0.25579
 C1989 C 0.62469 0.87508 0.20682
 C1990 C 0.63250 0.86720 0.18970
 C1991 C 0.59025 0.91007 0.28641
 C1992 C 0.58300 0.91741 0.30402
 H1993 H 0.62312 0.85082 0.24665
 H1994 H 0.60735 0.86684 0.28307
 H1995 H 0.56467 0.90597 0.24737
 H1996 H 0.58044 0.88993 0.21091
 H1997 H 0.64219 0.91323 0.22738
 H1998 H 0.62642 0.92926 0.26382
 C1999 C 0.61542 0.38530 0.72760
 C2000 C 0.61642 0.36846 0.74735
 C2001 C 0.60782 0.37678 0.76705
 C2002 C 0.59905 0.40113 0.76509
 C2003 C 0.58184 0.40056 0.74565
 C2004 C 0.59045 0.39223 0.72593
 C2005 C 0.62774 0.40647 0.73619
 C2006 C 0.61913 0.41480 0.75590
 C2007 C 0.62478 0.37623 0.70648
 C2008 C 0.63263 0.36853 0.68929
 C2009 C 0.58989 0.40999 0.78639
 C2010 C 0.58260 0.41710 0.80406
 H2011 H 0.62328 0.35148 0.74598
 H2012 H 0.60730 0.36692 0.78255
 H2013 H 0.56443 0.40620 0.74723
 H2014 H 0.58043 0.39074 0.71061
 H2015 H 0.64196 0.41426 0.72755
 H2016 H 0.62597 0.42971 0.76415
 C2017 C 1.27219 1.11519 1.11601
 C2018 C 1.25244 1.11549 1.13288
 C2019 C 1.23281 1.10707 1.12425
 C2020 C 1.23483 1.09918 1.09959
 C2021 C 1.25437 1.08207 1.09957
 C2022 C 1.27402 1.09049 1.10821
 C2023 C 1.26354 1.12819 1.09525
 C2024 C 1.24390 1.11977 1.08662
 C2025 C 1.29325 1.12435 1.12539
 C2026 C 1.31039 1.13211 1.13326
 C2027 C 1.21361 1.09021 1.09039
 C2028 C 1.19599 1.08301 1.08307
 H2029 H 1.25376 1.12175 1.15011
 H2030 H 1.21731 1.10613 1.13408
 H2031 H 1.25290 1.06487 1.09332
 H2032 H 1.28938 1.08050 1.10936
 H2033 H 1.27210 1.14271 1.08797
 H2034 H 1.23563 1.12708 1.07193
 C2035 C 1.27205 0.61560 0.61548
 C2036 C 1.26230 0.62942 0.59577
 C2037 C 1.24270 0.62079 0.58725
 C2038 C 1.23476 0.59918 0.59929
 C2039 C 1.23325 0.60561 0.62441
 C2040 C 1.25284 0.61424 0.63292
 C2041 C 1.27448 0.59146 0.60623
 C2042 C 1.25487 0.58283 0.59771
 C2043 C 1.29307 0.62498 0.62475
 C2044 C 1.31017 0.63285 0.63257
 C2045 C 1.21358 0.58999 0.59021
 C2046 C 1.19600 0.58267 0.58293
 H2047 H 1.27011 0.64463 0.58907
 H2048 H 1.23372 0.62861 0.57326
 H2049 H 1.21811 0.60355 0.63462
 H2050 H 1.25449 0.61957 0.65043
 H2051 H 1.29021 0.58199 0.60635
 H2052 H 1.25380 0.56596 0.59053
 C2053 C 0.77175 1.11588 0.61646
 C2054 C 0.75173 1.11689 0.63297
 C2055 C 0.73214 1.10844 0.62426
 C2056 C 0.73448 1.09980 0.59987
 C2057 C 0.75382 1.08248 0.60069
 C2058 C 0.77342 1.09094 0.60941
 C2059 C 0.76360 1.12835 0.59518
 C2060 C 0.74401 1.11990 0.58646
 C2061 C 0.79277 1.12507 0.62592
 C2062 C 0.80988 1.13285 0.63384
 C2063 C 0.71331 1.09079 0.59058
 C2064 C 0.69575 1.08355 0.58318
 H2065 H 0.75283 1.12364 0.65002
 H2066 H 0.71648 1.10796 0.63384
 H2067 H 0.75225 1.06512 0.59492
 H2068 H 0.78865 1.08082 0.61112
 H2069 H 0.77244 1.14256 0.58762
 H2070 H 0.73607 1.12687 0.57143
 C2071 C 0.77210 0.61457 1.11462
 C2072 C 0.75266 0.61454 1.13184
 C2073 C 0.73294 0.60607 1.12348
 C2074 C 0.73458 0.59844 1.09870
 C2075 C 0.75423 0.58149 1.09815
 C2076 C 0.77397 0.58997 1.10652
 C2077 C 0.76298 0.62772 1.09416
 C2078 C 0.74325 0.61924 1.08579
 C2079 C 0.79325 0.62379 1.12373
 C2080 C 0.81044 0.63157 1.13144
 C2081 C 0.71326 0.58942 1.08979
 C2082 C 0.69557 0.58223 1.08267
 H2083 H 0.75424 0.62064 1.14910
 H2084 H 0.71763 0.60490 1.13358
 H2085 H 0.75278 0.56434 1.09175
 H2086 H 0.78943 0.58009 1.10730
 H2087 H 0.77130 0.64238 1.08687
 H2088 H 0.73467 0.62664 1.07133
 C2089 C 1.27194 0.88440 0.88461
 C2090 C 1.25543 0.86623 0.89308
 C2091 C 1.23581 0.87482 0.90159
 C2092 C 1.23460 0.90074 0.90081
 C2093 C 1.23875 0.90692 0.87591
 C2094 C 1.25837 0.89834 0.86740
 C2095 C 1.27545 0.90027 0.90488
 C2096 C 1.25581 0.90886 0.91340
 C2097 C 1.29299 0.87507 0.87535
 C2098 C 1.31012 0.86723 0.86754
 C2099 C 1.21339 0.90988 0.90988
 C2100 C 1.19578 0.91718 0.91714
 H2101 H 1.25887 0.84821 0.89247
 H2102 H 1.22243 0.86414 0.90827
 H2103 H 1.22728 0.91717 0.86586
 H2104 H 1.26372 0.90123 0.85006
 H2105 H 1.29190 0.90439 0.91192
 H2106 H 1.25543 0.92034 0.92773
 C2107 C 1.27247 0.38478 0.38421
 C2108 C 1.27111 0.41070 0.38355
 C2109 C 1.25142 0.41913 0.39212
 C2110 C 1.23504 0.40080 0.40050
 C2111 C 1.24869 0.38686 0.41764
 C2112 C 1.26838 0.37844 0.40907
 C2113 C 1.25130 0.37661 0.37160
 C2114 C 1.23163 0.38503 0.38016
 C2115 C 1.29357 0.37562 0.37489
 C2116 C 1.31073 0.36787 0.36706
 C2117 C 1.21378 0.40977 0.40962
 C2118 C 1.19614 0.41696 0.41690
 H2119 H 1.28443 0.42149 0.37694
 H2120 H 1.24788 0.43713 0.39286
 H2121 H 1.24338 0.38389 0.43498
 H2122 H 1.27992 0.36825 0.41907
 H2123 H 1.25172 0.36521 0.35720
 H2124 H 1.21521 0.38083 0.37310
 C2125 C 0.77212 0.88503 0.38450
 C2126 C 0.77086 0.91095 0.38375
 C2127 C 0.75120 0.91948 0.39226
 C2128 C 0.73473 0.90125 0.40068
 C2129 C 0.74830 0.88732 0.41789
 C2130 C 0.76796 0.87879 0.40938
 C2131 C 0.75094 0.87690 0.37189
 C2132 C 0.73129 0.88542 0.38039
 C2133 C 0.79319 0.87576 0.37524
 C2134 C 0.81034 0.86795 0.36743
 C2135 C 0.71349 0.91033 0.40974
 C2136 C 0.69586 0.91760 0.41698
 H2137 H 0.78423 0.92166 0.37713
 H2138 H 0.74772 0.93750 0.39293
 H2139 H 0.74295 0.88442 0.43523
 H2140 H 0.77946 0.86858 0.41943
 H2141 H 0.75133 0.86544 0.35753
 H2142 H 0.71486 0.88127 0.37332
 C2143 C 0.77151 0.38402 0.88340
 C2144 C 0.75513 0.36577 0.89197
 C2145 C 0.73556 0.37427 0.90068
 C2146 C 0.73426 0.40019 0.89999
 C2147 C 0.73817 0.40646 0.87508
 C2148 C 0.75774 0.39797 0.86636
 C2149 C 0.77515 0.39983 0.90369
 C2150 C 0.75555 0.40833 0.91241
 C2151 C 0.79251 0.37477 0.87394
 C2152 C 0.80962 0.36697 0.86602
 C2153 C 0.71310 0.40925 0.90928
 C2154 C 0.69554 0.41651 0.91669
 H2155 H 0.75861 0.34776 0.89126
 H2156 H 0.72227 0.36353 0.90744
 H2157 H 0.72658 0.41670 0.86516
 H2158 H 0.76293 0.40093 0.84898
 H2159 H 0.79165 0.40398 0.91059
 H2160 H 0.75527 0.41976 0.92679
 C2161 C 0.72803 0.88480 1.11585
 C2162 C 0.72465 0.89974 1.09486
 C2163 C 0.74430 0.90831 1.08635
 C2164 C 0.76540 0.90108 1.09966
 C2165 C 0.76462 0.87513 1.09995
 C2166 C 0.74499 0.86658 1.10846
 C2167 C 0.74104 0.89967 1.13270
 C2168 C 0.76068 0.90823 1.12418
 C2169 C 0.70697 0.87550 1.12511
 C2170 C 0.68983 0.86767 1.13292
 C2171 C 0.78662 0.91019 1.09059
 C2172 C 0.80424 0.91747 1.08333
 H2173 H 0.70827 0.90329 1.08736
 H2174 H 0.74476 0.91918 1.07155
 H2175 H 0.77830 0.86442 1.09398
 H2176 H 0.74184 0.84854 1.10978
 H2177 H 0.73532 0.90319 1.14980
 H2178 H 0.77179 0.91907 1.13400
 C2179 C 0.72780 0.38485 0.61497
 C2180 C 0.72979 0.38264 0.58916
 C2181 C 0.74950 0.39105 0.58065
 C2182 C 0.76529 0.40085 0.59879
 C2183 C 0.76870 0.38160 0.61588
 C2184 C 0.74900 0.37319 0.62438
 C2185 C 0.73128 0.41011 0.61986
 C2186 C 0.75100 0.41852 0.61135
 C2187 C 0.70667 0.37570 0.62422
 C2188 C 0.68948 0.36796 0.63201
 C2189 C 0.78658 0.40981 0.58973
 C2190 C 0.80425 0.41697 0.58250
 H2191 H 0.71685 0.37514 0.57850
 H2192 H 0.75346 0.39076 0.56270
 H2193 H 0.78515 0.37513 0.62086
 H2194 H 0.74858 0.35952 0.63665
 H2195 H 0.71931 0.42048 0.62917
 H2196 H 0.75592 0.43610 0.61337
 C2197 C 0.22816 0.88446 0.61565
 C2198 C 0.24946 0.87540 0.62739
 C2199 C 0.26906 0.88403 0.61889
 C2200 C 0.26546 0.90089 0.59947
 C2201 C 0.24947 0.91894 0.60911
 C2202 C 0.22985 0.91029 0.61762
 C2203 C 0.23169 0.87938 0.59041
 C2204 C 0.25131 0.88803 0.58190
 C2205 C 0.20712 0.87507 0.62490
 C2206 C 0.19000 0.86718 0.63270
 C2207 C 0.28665 0.91009 0.59040
 C2208 C 0.30424 0.91743 0.58313
 H2209 H 0.24918 0.86326 0.64118
 H2210 H 0.28557 0.87929 0.62540
 H2211 H 0.25321 0.93691 0.60924
 H2212 H 0.21679 0.92086 0.62504
 H2213 H 0.21983 0.86986 0.58013
 H2214 H 0.25626 0.88590 0.56433
 C2215 C 0.22776 0.38442 1.11588
 C2216 C 0.22653 0.38989 1.09051
 C2217 C 0.24620 0.39833 1.08190
 C2218 C 0.26516 0.40046 1.09952
 C2219 C 0.26760 0.37670 1.10971
 C2220 C 0.24795 0.36827 1.11831
 C2221 C 0.23541 0.40650 1.12719
 C2222 C 0.25507 0.41494 1.11858
 C2223 C 0.20668 0.37524 1.12523
 C2224 C 0.18953 0.36748 1.13308
 C2225 C 0.28640 0.40945 1.09037
 C2226 C 0.30403 0.41665 1.08307
 H2227 H 0.21153 0.38737 1.08021
 H2228 H 0.24806 0.40304 1.06424
 H2229 H 0.28338 0.36732 1.11013
 H2230 H 0.24690 0.35167 1.12609
 H2231 H 0.22618 0.41479 1.14074
 H2232 H 0.26269 0.43045 1.12477
 C2233 C 0.72819 1.11575 0.88377
 C2234 C 0.72449 1.09765 0.90204
 C2235 C 0.74410 1.08921 0.91077
 C2236 C 0.76546 1.09969 0.90036
 C2237 C 0.76275 1.12528 0.90376
 C2238 C 0.74316 1.13372 0.89504
 C2239 C 0.74343 1.10444 0.86604
 C2240 C 0.76302 1.09600 0.87476
 C2241 C 0.70717 1.12494 0.87430
 C2242 C 0.69006 1.13271 0.86638
 C2243 C 0.78664 1.09069 0.90965
 C2244 C 0.80421 1.08345 0.91704
 H2245 H 0.70794 1.09198 0.90763
 H2246 H 0.74434 1.07630 0.92384
 H2247 H 0.77511 1.13584 0.91228
 H2248 H 0.73875 1.15151 0.89609
 H2249 H 0.73921 1.10316 0.84821
 H2250 H 0.77558 1.08749 0.86439
 C2251 C 0.72789 0.61475 0.38521
 C2252 C 0.72511 0.60268 0.40805
 C2253 C 0.74484 0.59416 0.41643
 C2254 C 0.76538 0.59856 0.40114
 C2255 C 0.76581 0.62428 0.39766
 C2256 C 0.74610 0.63279 0.38929
 C2257 C 0.73911 0.59726 0.36963
 C2258 C 0.75882 0.58875 0.37801
 C2259 C 0.70676 0.62401 0.37608
 C2260 C 0.68958 0.63181 0.36837
 C2261 C 0.78667 0.58951 0.41007
 C2262 C 0.80435 0.58229 0.41721
 H2263 H 0.70908 0.60097 0.41686
 H2264 H 0.74570 0.58515 0.43243
 H2265 H 0.78031 0.63489 0.40146
 H2266 H 0.74373 0.65068 0.38591
 H2267 H 0.73217 0.59201 0.35345
 H2268 H 0.76877 0.57621 0.36901
 C2269 C 0.22820 1.11565 0.38380
 C2270 C 0.24430 1.10615 0.36576
 C2271 C 0.26392 1.09774 0.37443
 C2272 C 0.26555 1.09964 0.40029
 C2273 C 0.24428 1.08774 0.40929
 C2274 C 0.22464 1.09616 0.40062
 C2275 C 0.24224 1.13323 0.39677
 C2276 C 0.26186 1.12481 0.40543
 C2277 C 0.20715 1.12481 0.37439
 C2278 C 0.19001 1.13256 0.36651
 C2279 C 0.28676 1.09066 0.40951
 C2280 C 0.30436 1.08346 0.41686
 H2281 H 0.24060 1.10603 0.34777
 H2282 H 0.27703 1.09041 0.36385
 H2283 H 0.24462 1.07393 0.42140
 H2284 H 0.20815 1.08957 0.40530
 H2285 H 0.23719 1.15075 0.39896
 H2286 H 0.27363 1.13512 0.41505
 C2287 C 0.22741 0.61440 0.88555
 C2288 C 0.24326 0.60493 0.86728
 C2289 C 0.26296 0.59643 0.87567
 C2290 C 0.26490 0.59823 0.90152
 C2291 C 0.24371 0.58636 0.91073
 C2292 C 0.22399 0.59486 0.90233
 C2293 C 0.24164 0.63190 0.89841
 C2294 C 0.26135 0.62340 0.90680
 C2295 C 0.20629 0.62365 0.87642
 C2296 C 0.18912 0.63145 0.86867
 C2297 C 0.28619 0.58919 0.91045
 C2298 C 0.30388 0.58199 0.91759
 H2299 H 0.23934 0.60488 0.84933
 H2300 H 0.27593 0.58910 0.86491
 H2301 H 0.24416 0.57250 0.92278
 H2302 H 0.20754 0.58830 0.90719
 H2303 H 0.23667 0.64942 0.90074
 H2304 H 0.27326 0.63364 0.91631
 C2305 C 1.11557 1.27213 1.11549
 C2306 C 1.10967 1.25459 1.13372
 C2307 C 1.10114 1.23496 1.12520
 C2308 C 1.09934 1.23477 1.09929
 C2309 C 1.12327 1.24024 1.09081
 C2310 C 1.13180 1.25988 1.09933
 C2311 C 1.09368 1.27534 1.10189
 C2312 C 1.08514 1.25569 1.09336
 C2313 C 1.12485 1.29319 1.12475
 C2314 C 1.13267 1.31031 1.13256
 C2315 C 1.09026 1.21355 1.09022
 C2316 C 1.08301 1.19593 1.08298
 H2317 H 1.11197 1.25735 1.15174
 H2318 H 1.09614 1.22091 1.13593
 H2319 H 1.13268 1.22964 1.07913
 H2320 H 1.14852 1.26610 1.09494
 H2321 H 1.08560 1.29161 1.09919
 H2322 H 1.06975 1.25512 1.08336
 C2323 C 1.11612 0.77161 0.61517
 C2324 C 1.13400 0.75629 0.60421
 C2325 C 1.12539 0.73666 0.59575
 C2326 C 1.09975 0.73426 0.59907
 C2327 C 1.08954 0.75557 0.58830
 C2328 C 1.09815 0.77522 0.59677
 C2329 C 1.10456 0.75676 0.63308
 C2330 C 1.09595 0.73713 0.62462
 C2331 C 1.12547 0.79267 0.62438
 C2332 C 1.13331 0.80980 0.63217
 C2333 C 1.09059 0.71305 0.59006
 C2334 C 1.08328 0.69545 0.58282
 H2335 H 1.15184 0.76050 0.60317
 H2336 H 1.13587 0.72406 0.58747
 H2337 H 1.07669 0.75526 0.57518
 H2338 H 1.09268 0.79174 0.59090
 H2339 H 1.10323 0.76127 0.65084
 H2340 H 1.08726 0.72483 0.63513
 C2341 C 0.61543 1.27258 0.61453
 C2342 C 0.62244 1.26782 0.58997
 C2343 C 0.61387 1.24814 0.58158
 C2344 C 0.59912 1.23515 0.59858
 C2345 C 0.58090 1.25208 0.60603
 C2346 C 0.58947 1.27177 0.61442
 C2347 C 0.62277 1.25153 0.62785
 C2348 C 0.61420 1.23186 0.61946
 C2349 C 0.62475 1.29367 0.62367
 C2350 C 0.63259 1.31081 0.63141
 C2351 C 0.59000 1.21390 0.58964
 C2352 C 0.58274 1.19625 0.58249
 H2353 H 0.63318 1.27894 0.58004
 H2354 H 0.61726 1.24239 0.56446
 H2355 H 0.56285 1.24890 0.60482
 H2356 H 0.57878 1.28545 0.62040
 H2357 H 0.63373 1.25202 0.64257
 H2358 H 0.61782 1.21552 0.62701
 C2359 C 0.61499 0.77165 1.11583
 C2360 C 0.60014 0.75855 1.13265
 C2361 C 0.59165 0.73891 1.12408
 C2362 C 0.59883 0.73430 1.09954
 C2363 C 0.62478 0.73515 1.09984
 C2364 C 0.63327 0.75478 1.10840
 C2365 C 0.60005 0.77506 1.09486
 C2366 C 0.59155 0.75541 1.08629
 C2367 C 0.62423 0.79271 1.12514
 C2368 C 0.63202 0.80985 1.13297
 C2369 C 0.58978 0.71308 1.09042
 C2370 C 0.58254 0.69547 1.08314
 H2371 H 0.59660 0.76420 1.14977
 H2372 H 0.58083 0.72775 1.13387
 H2373 H 0.63554 0.72153 1.09383
 H2374 H 0.65130 0.75797 1.10972
 H2375 H 0.59646 0.79145 1.08740
 H2376 H 0.58068 0.75497 1.07149
 C2377 C 0.88376 1.27174 0.88393
 C2378 C 0.88416 1.27111 0.90991
 C2379 C 0.89280 1.25155 0.91854
 C2380 C 0.90020 1.23455 0.90035
 C2381 C 0.91692 1.24757 0.88532
 C2382 C 0.90827 1.26712 0.87669
 C2383 C 0.87056 1.25053 0.87689
 C2384 C 0.87919 1.23099 0.88552
 C2385 C 0.87437 1.29271 0.87455
 C2386 C 0.86648 1.30978 0.86666
 C2387 C 0.90941 1.21343 0.90955
 C2388 C 0.91677 1.19589 0.91691
 H2389 H 0.87819 1.28481 0.92058
 H2390 H 0.89424 1.24850 0.93661
 H2391 H 0.93403 1.24193 0.88178
 H2392 H 0.91799 1.27824 0.86575
 H2393 H 0.85572 1.25083 0.86608
 H2394 H 0.87175 1.21456 0.88209
 C2395 C 0.88512 0.77184 0.38439
 C2396 C 0.87833 0.76739 0.40908
 C2397 C 0.88681 0.74771 0.41759
 C2398 C 0.90126 0.73442 0.40057
 C2399 C 0.91956 0.75111 0.39275
 C2400 C 0.91107 0.77079 0.38424
 C2401 C 0.87746 0.75073 0.37138
 C2402 C 0.88594 0.73107 0.37988
 C2403 C 0.87590 0.79293 0.37514
 C2404 C 0.86812 0.81009 0.36735
 C2405 C 0.91029 0.71317 0.40964
 C2406 C 0.91752 0.69554 0.41688
 H2407 H 0.86779 0.77870 0.41900
 H2408 H 0.88354 0.74216 0.43480
 H2409 H 0.93759 0.74777 0.39381
 H2410 H 0.92183 0.78431 0.37801
 H2411 H 0.86635 0.75118 0.35676
 H2412 H 0.88209 0.71468 0.37254
 C2413 C 0.38476 1.27254 0.38471
 C2414 C 0.38008 1.26924 0.41006
 C2415 C 0.38864 1.24958 0.41855
 C2416 C 0.40104 1.23517 0.40085
 C2417 C 0.41910 1.25088 0.39078
 C2418 C 0.41054 1.27053 0.38229
 C2419 C 0.37525 1.25126 0.37327
 C2420 C 0.38380 1.23163 0.38176
 C2421 C 0.37545 1.29360 0.37548
 C2422 C 0.36762 1.31072 0.36767
 C2423 C 0.41014 1.21394 0.40988
 C2424 C 0.41741 1.19631 0.41711
 H2425 H 0.37086 1.28128 0.42043
 H2426 H 0.38676 1.24478 0.43619
 H2427 H 0.43703 1.24692 0.39036
 H2428 H 0.42114 1.28341 0.37460
 H2429 H 0.36288 1.25159 0.35970
 H2430 H 0.37876 1.21514 0.37545
 C2431 C 0.38398 0.77165 0.88495
 C2432 C 0.39764 0.75797 0.86760
 C2433 C 0.40621 0.73832 0.87605
 C2434 C 0.40029 0.73426 0.90102
 C2435 C 0.37438 0.73562 0.90211
 C2436 C 0.36581 0.75527 0.89367
 C2437 C 0.40010 0.77511 0.90502
 C2438 C 0.40868 0.75544 0.91348
 C2439 C 0.37466 0.79273 0.87576
 C2440 C 0.36683 0.80988 0.86800
 C2441 C 0.40942 0.71302 0.91002
 C2442 C 0.41671 0.69540 0.91723
 H2443 H 0.40036 0.76326 0.85021
 H2444 H 0.41627 0.72678 0.86590
 H2445 H 0.36371 0.72232 0.90894
 H2446 H 0.34779 0.75880 0.89326
 H2447 H 0.40439 0.79155 0.91198
 H2448 H 0.42032 0.75503 0.92767
 C2449 C 1.11450 0.72770 0.88548
 C2450 C 1.10991 0.72699 0.91105
 C2451 C 1.10149 0.74674 0.91948
 C2452 C 1.09850 0.76524 0.90150
 C2453 C 1.08352 0.75453 0.88319
 C2454 C 1.09194 0.73479 0.87477
 C2455 C 1.13027 0.74804 0.88203
 C2456 C 1.12186 0.76776 0.89044
 C2457 C 1.12366 0.70655 0.87633
 C2458 C 1.13140 0.68935 0.86859
 C2459 C 1.08955 0.78657 0.91046
 C2460 C 1.08240 0.80426 0.91762
 H2461 H 1.11299 0.71228 0.92161
 H2462 H 1.09736 0.74894 0.93725
 H2463 H 1.06769 0.76179 0.87737
 H2464 H 1.08332 0.72514 0.86174
 H2465 H 1.14662 0.74703 0.87370
 H2466 H 1.13101 0.78365 0.88932
 C2467 C 1.11598 0.22787 0.38418
 C2468 C 1.11264 0.24640 0.36630
 C2469 C 1.10407 0.26601 0.37485
 C2470 C 1.09968 0.26518 0.40044
 C2471 C 1.12240 0.25831 0.41096
 C2472 C 1.13097 0.23869 0.40241
 C2473 C 1.09272 0.22504 0.39541
 C2474 C 1.08414 0.24466 0.40396
 C2475 C 1.12530 0.20683 0.37489
 C2476 C 1.13315 0.18972 0.36706
 C2477 C 1.09055 0.28637 0.40954
 C2478 C 1.08326 0.30396 0.41682
 H2479 H 1.11664 0.24431 0.34849
 H2480 H 1.10074 0.28071 0.36435
 H2481 H 1.13099 0.26799 0.42399
 H2482 H 1.14690 0.23157 0.40812
 H2483 H 1.08378 0.20904 0.39654
 H2484 H 1.06786 0.24548 0.41242
 C2485 C 0.61489 0.72804 0.38527
 C2486 C 0.61168 0.74648 0.36726
 C2487 C 0.60323 0.76619 0.37567
 C2488 C 0.59881 0.76555 0.40126
 C2489 C 0.62148 0.75861 0.41185
 C2490 C 0.62994 0.73889 0.40344
 C2491 C 0.59161 0.72543 0.39649
 C2492 C 0.58315 0.74516 0.40491
 C2493 C 0.62408 0.70689 0.37612
 C2494 C 0.63183 0.68969 0.36838
 C2495 C 0.58982 0.78686 0.41022
 C2496 C 0.58263 0.80455 0.41737
 H2497 H 0.61568 0.74424 0.34947
 H2498 H 0.60000 0.78084 0.36507
 H2499 H 0.63013 0.76833 0.42482
 H2500 H 0.64582 0.73171 0.40920
 H2501 H 0.58257 0.70949 0.39773
 H2502 H 0.56686 0.74614 0.41335
 C2503 C 0.61592 0.22794 0.88415
 C2504 C 0.61249 0.24649 0.86630
 C2505 C 0.60386 0.26606 0.87488
 C2506 C 0.59951 0.26518 0.90048
 C2507 C 0.62228 0.25838 0.91095
 C2508 C 0.63090 0.23880 0.90237
 C2509 C 0.59269 0.22502 0.89541
 C2510 C 0.58406 0.24461 0.90400
 C2511 C 0.62529 0.20695 0.87482
 C2512 C 0.63318 0.18987 0.86696
 C2513 C 0.59033 0.28633 0.90963
 C2514 C 0.58299 0.30389 0.91694
 H2515 H 0.61646 0.24443 0.84848
 H2516 H 0.60046 0.28076 0.86441
 H2517 H 0.63086 0.26807 0.92398
 H2518 H 0.64687 0.23173 0.90804
 H2519 H 0.58381 0.20899 0.89654
 H2520 H 0.56778 0.24536 0.91249
 C2521 C 0.88521 0.72778 1.11462
 C2522 C 0.89681 0.74252 1.13258
 C2523 C 0.90528 0.76225 1.12423
 C2524 C 0.90133 0.76533 1.09874
 C2525 C 0.87568 0.76286 1.09556
 C2526 C 0.86721 0.74312 1.10391
 C2527 C 0.90309 0.72441 1.09607
 C2528 C 0.91157 0.74416 1.08772
 C2529 C 0.87599 0.70662 1.12372
 C2530 C 0.86822 0.68941 1.13142
 C2531 C 0.91035 0.78666 1.08986
 C2532 C 0.91754 0.80436 1.08275
 H2533 H 0.89825 0.73785 1.15030
 H2534 H 0.91399 0.77449 1.13480
 H2535 H 0.86511 0.77550 1.08745
 H2536 H 0.84937 0.73885 1.10295
 H2537 H 0.90860 0.70797 1.09003
 H2538 H 0.92435 0.74465 1.07452
 C2539 C 0.88405 0.22804 0.61593
 C2540 C 0.90125 0.22430 0.59682
 C2541 C 0.90988 0.24387 0.58818
 C2542 C 0.90045 0.26525 0.59952
 C2543 C 0.90514 0.26208 0.62488
 C2544 C 0.89652 0.24252 0.63350
 C2545 C 0.86605 0.24376 0.60579
 C2546 C 0.87467 0.26332 0.59716
 C2547 C 0.87467 0.20706 0.62530
 C2548 C 0.86678 0.18999 0.63319
 C2549 C 0.90964 0.28639 0.59033
 C2550 C 0.91698 0.30394 0.58299
 H2551 H 0.90622 0.20775 0.59061
 H2552 H 0.92224 0.24409 0.57459
 H2553 H 0.91444 0.27413 0.63515
 H2554 H 0.89843 0.23782 0.65116
 H2555 H 0.84810 0.23987 0.60540
 H2556 H 0.86411 0.27618 0.58939
 C2557 C 0.38407 0.72846 0.61522
 C2558 C 0.38019 0.73142 0.58970
 C2559 C 0.38881 0.75108 0.58126
 C2560 C 0.40046 0.76584 0.59917
 C2561 C 0.41835 0.75045 0.61000
 C2562 C 0.40974 0.73080 0.61844
 C2563 C 0.37395 0.74976 0.62610
 C2564 C 0.38256 0.76940 0.61766
 C2565 C 0.37472 0.70739 0.62440
 C2566 C 0.36687 0.69024 0.63215
 C2567 C 0.40963 0.78707 0.59017
 C2568 C 0.41694 0.80468 0.58296
 H2569 H 0.37146 0.71916 0.57918
 H2570 H 0.38745 0.75566 0.56351
 H2571 H 0.43621 0.75462 0.61094
 H2572 H 0.42022 0.71813 0.62661
 H2573 H 0.36115 0.74944 0.63927
 H2574 H 0.37713 0.78590 0.62361
 C2575 C 0.38436 0.22750 1.11554
 C2576 C 0.40737 0.23403 1.12563
 C2577 C 0.41594 0.25367 1.11712
 C2578 C 0.40065 0.26485 1.09935
 C2579 C 0.37768 0.26774 1.11112
 C2580 C 0.36912 0.24812 1.11963
 C2581 C 0.38817 0.22692 1.08984
 C2582 C 0.39674 0.24657 1.08133
 C2583 C 0.37504 0.20645 1.12480
 C2584 C 0.36721 0.18932 1.13262
 C2585 C 0.40977 0.28606 1.09029
 C2586 C 0.41704 0.30368 1.08305
 H2587 H 0.41618 0.22409 1.13833
 H2588 H 0.43208 0.26056 1.12252
 H2589 H 0.36890 0.28380 1.11264
 H2590 H 0.35301 0.24736 1.12843
 H2591 H 0.38448 0.21237 1.07927
 H2592 H 0.40039 0.24885 1.06346
 C2593 C 1.11457 1.11533 0.72762
 C2594 C 1.11454 1.08938 0.72853
 C2595 C 1.10616 1.08085 0.74827
 C2596 C 1.09864 1.09912 0.76514
 C2597 C 1.08162 1.11375 0.75208
 C2598 C 1.09000 1.12228 0.73235
 C2599 C 1.12783 1.12279 0.74865
 C2600 C 1.11946 1.11427 0.76837
 C2601 C 1.12369 1.12460 0.70647
 C2602 C 1.13141 1.13241 0.68928
 C2603 C 1.08972 1.09004 0.78645
 C2604 C 1.08258 1.08282 0.80414
 H2605 H 1.12056 1.07866 0.71489
 H2606 H 1.10500 1.06282 0.75153
 H2607 H 1.06450 1.11710 0.75782
 H2608 H 1.08005 1.13294 0.72118
 H2609 H 1.14252 1.13381 0.74811
 H2610 H 1.12698 1.11798 0.78472
 C2611 C 1.11579 0.61644 0.22795
 C2612 C 1.11398 0.63377 0.24720
 C2613 C 1.10553 0.62501 0.26678
 C2614 C 1.09971 0.59976 0.26522
 C2615 C 1.12161 0.58829 0.25727
 C2616 C 1.13006 0.59705 0.23768
 C2617 C 1.09188 0.60661 0.22547
 C2618 C 1.08342 0.59784 0.24508
 C2619 C 1.12499 0.62595 0.20693
 C2620 C 1.13278 0.63391 0.18983
 C2621 C 1.09070 0.59042 0.28639
 C2622 C 1.08346 0.58299 0.30396
 H2623 H 1.11889 0.65139 0.24558
 H2624 H 1.10321 0.63512 0.28194
 H2625 H 1.12976 0.57448 0.26624
 H2626 H 1.14545 0.59076 0.22987
 H2627 H 1.08243 0.60655 0.20972
 H2628 H 1.06673 0.59026 0.24612
 C2629 C 0.61538 1.11617 0.22760
 C2630 C 0.62295 1.09180 0.23240
 C2631 C 0.61446 1.08320 0.25206
 C2632 C 0.59925 1.09982 0.26498
 C2633 C 0.58095 1.10684 0.24794
 C2634 C 0.58943 1.11544 0.22828
 C2635 C 0.62229 1.12964 0.24870
 C2636 C 0.61381 1.12104 0.26834
 C2637 C 0.62461 1.12551 0.20652
 C2638 C 0.63241 1.13336 0.18938
 C2639 C 0.59022 1.09067 0.28622
 C2640 C 0.58299 1.08337 0.30384
 H2641 H 0.63398 1.08214 0.22133
 H2642 H 0.61823 1.06618 0.25783
 H2643 H 0.56292 1.10519 0.25105
 H2644 H 0.57867 1.12115 0.21454
 H2645 H 0.63290 1.14461 0.24825
 H2646 H 0.61717 1.12866 0.28472
 C2647 C 0.61487 0.61492 0.72784
 C2648 C 0.62904 0.59556 0.73775
 C2649 C 0.62056 0.58704 0.75744
 C2650 C 0.59873 0.59871 0.76528
 C2651 C 0.58241 0.59668 0.74518
 C2652 C 0.59090 0.60520 0.72548
 C2653 C 0.61317 0.63246 0.74691
 C2654 C 0.60469 0.62394 0.76659
 C2655 C 0.62409 0.62419 0.70674
 C2656 C 0.63189 0.63200 0.68958
 C2657 C 0.58971 0.58964 0.78655
 C2658 C 0.58249 0.58240 0.80421
 H2659 H 0.64439 0.58909 0.72999
 H2660 H 0.62864 0.57327 0.76653
 H2661 H 0.56568 0.58920 0.74631
 H2662 H 0.58143 0.60503 0.70974
 H2663 H 0.61817 0.65003 0.74512
 H2664 H 0.60244 0.63422 0.78165
 C2665 C 0.88527 0.88531 0.72775
 C2666 C 0.86717 0.89581 0.74313
 C2667 C 0.87558 0.90431 0.76283
 C2668 C 0.90128 0.90149 0.76522
 C2669 C 0.91130 0.91259 0.74397
 C2670 C 0.90288 0.90407 0.72425
 C2671 C 0.89717 0.86756 0.74251
 C2672 C 0.90558 0.87607 0.76221
 C2673 C 0.87611 0.87605 0.70663
 C2674 C 0.86836 0.86825 0.68945
 C2675 C 0.91024 0.91055 0.78651
 C2676 C 0.91740 0.91777 0.80419
 H2677 H 0.84931 0.89651 0.73892
 H2678 H 0.86493 0.91231 0.77549
 H2679 H 0.92389 0.92595 0.74437
 H2680 H 0.90826 0.91014 0.70776
 H2681 H 0.89885 0.84987 0.73789
 H2682 H 0.91447 0.86567 0.77447
 C2683 C 0.88495 0.38484 0.22742
 C2684 C 0.87024 0.40341 0.23805
 C2685 C 0.87879 0.41184 0.25774
 C2686 C 0.90122 0.40086 0.26486
 C2687 C 0.91702 0.40397 0.24447
 C2688 C 0.90847 0.39554 0.22478
 C2689 C 0.88773 0.36698 0.24607
 C2690 C 0.89627 0.37540 0.26574
 C2691 C 0.87565 0.37568 0.20632
 C2692 C 0.86783 0.36791 0.18916
 C2693 C 0.91031 0.40983 0.28613
 C2694 C 0.91757 0.41701 0.30379
 H2695 H 0.85450 0.40943 0.23075
 H2696 H 0.87038 0.42507 0.26730
 H2697 H 0.93347 0.41208 0.24542
 H2698 H 0.91759 0.39643 0.20885
 H2699 H 0.88337 0.34926 0.24399
 H2700 H 0.89924 0.36489 0.28052
 C2701 C 0.38510 0.88440 0.22788
 C2702 C 0.36922 0.90143 0.23937
 C2703 C 0.37762 0.91012 0.25900
 C2704 C 0.40109 0.90093 0.26522
 C2705 C 0.41596 0.90580 0.24447
 C2706 C 0.40755 0.89711 0.22482
 C2707 C 0.38993 0.86644 0.24600
 C2708 C 0.39833 0.87512 0.26562
 C2709 C 0.37595 0.87497 0.20683
 C2710 C 0.36819 0.86706 0.18971
 C2711 C 0.41005 0.91018 0.28643
 C2712 C 0.41724 0.91753 0.30404
 H2713 H 0.35282 0.90626 0.23267
 H2714 H 0.36843 0.92239 0.26911
 H2715 H 0.43170 0.91524 0.24514
 H2716 H 0.41608 0.89910 0.20867
 H2717 H 0.38701 0.84847 0.24362
 H2718 H 0.40262 0.86459 0.28005
 C2719 C 0.38439 0.38361 0.72807
 C2720 C 0.36734 0.38366 0.74767
 C2721 C 0.37583 0.39227 0.76729
 C2722 C 0.40055 0.39999 0.76541
 C2723 C 0.40087 0.41685 0.74565
 C2724 C 0.39237 0.40824 0.72601
 C2725 C 0.40496 0.37059 0.73709
 C2726 C 0.41346 0.37920 0.75672
 C2727 C 0.37515 0.37426 0.70701
 C2728 C 0.36736 0.36641 0.68988
 C2729 C 0.40960 0.40915 0.78662
 C2730 C 0.41686 0.41647 0.80422
 H2731 H 0.35010 0.37749 0.74626
 H2732 H 0.36587 0.39346 0.78269
 H2733 H 0.40721 0.43403 0.74697
 H2734 H 0.39143 0.41804 0.71050
 H2735 H 0.41223 0.35592 0.72878
 H2736 H 0.42800 0.37190 0.76522
 C2737 C 1.11546 0.88474 1.27245
 C2738 C 1.12279 0.87153 1.25132
 C2739 C 1.11429 0.88007 1.23167
 C2740 C 1.09929 0.90098 1.23505
 C2741 C 1.11406 0.91782 1.24817
 C2742 C 1.12257 0.90928 1.26783
 C2743 C 1.08950 0.88495 1.27159
 C2744 C 1.08100 0.89350 1.25193
 C2745 C 1.12471 0.87545 1.29353
 C2746 C 1.13252 0.86764 1.31067
 C2747 C 1.09023 0.91007 1.21381
 C2748 C 1.08299 0.91734 1.19618
 H2749 H 1.13370 0.85677 1.25175
 H2750 H 1.11792 0.87261 1.21527
 H2751 H 1.11753 0.93495 1.24252
 H2752 H 1.13332 0.91909 1.27903
 H2753 H 1.07876 0.87894 1.28523
 H2754 H 1.06297 0.89480 1.24872
 C2755 C 1.11466 0.38446 0.77227
 C2756 C 1.13017 0.40204 0.76110
 C2757 C 1.12178 0.41057 0.74138
 C2758 C 1.09871 0.40068 0.73477
 C2759 C 1.08339 0.40496 0.75532
 C2760 C 1.09178 0.39642 0.77505
 C2761 C 1.11068 0.36645 0.75399
 C2762 C 1.10229 0.37497 0.73429
 C2763 C 1.12379 0.37518 0.79340
 C2764 C 1.13152 0.36738 0.81058
 C2765 C 1.08978 0.40975 0.71347
 C2766 C 1.08264 0.41698 0.69579
 H2767 H 1.14631 0.40735 0.76806
 H2768 H 1.13073 0.42318 0.73147
 H2769 H 1.06737 0.41390 0.75446
 H2770 H 1.08296 0.39806 0.79108
 H2771 H 1.11413 0.34856 0.75633
 H2772 H 1.09856 0.36439 0.71975
 C2773 C 0.61474 0.88538 0.77236
 C2774 C 0.59782 0.86958 0.76061
 C2775 C 0.58939 0.87809 0.74091
 C2776 C 0.59870 0.90156 0.73489
 C2777 C 0.62451 0.89876 0.73478
 C2778 C 0.63294 0.89025 0.75447
 C2779 C 0.60203 0.90783 0.77535
 C2780 C 0.59359 0.91634 0.75564
 C2781 C 0.62391 0.87612 0.79348
 C2782 C 0.63167 0.86831 0.81065
 C2783 C 0.58972 0.91062 0.71360
 C2784 C 0.58254 0.91784 0.69593
 H2785 H 0.59289 0.85316 0.76719
 H2786 H 0.57723 0.86896 0.73061
 H2787 H 0.63522 0.90309 0.72049
 H2788 H 0.65088 0.88730 0.75706
 H2789 H 0.59986 0.91628 0.79151
 H2790 H 0.58419 0.93210 0.75491
 C2791 C 0.61561 0.38369 1.27207
 C2792 C 0.63354 0.38764 1.25369
 C2793 C 0.62497 0.39623 1.23409
 C2794 C 0.59930 0.40003 1.23477
 C2795 C 0.59527 0.41524 1.25544
 C2796 C 0.60385 0.40665 1.27506
 C2797 C 0.59782 0.36841 1.26092
 C2798 C 0.58924 0.37700 1.24132
 C2799 C 0.62493 0.37435 1.29309
 C2800 C 0.63279 0.36650 1.31021
 C2801 C 0.59016 0.40918 1.21358
 C2802 C 0.58285 0.41649 1.19600
 H2803 H 0.65141 0.38402 1.25588
 H2804 H 0.63550 0.39996 1.21950
 H2805 H 0.58646 0.43134 1.25473
 H2806 H 0.60239 0.41538 1.29115
 H2807 H 0.59242 0.35228 1.26783
 H2808 H 0.57650 0.36822 1.23144
 C2809 C 0.88483 1.11612 1.27240
 C2810 C 0.88397 1.09019 1.27121
 C2811 C 0.89247 1.08158 1.25156
 C2812 C 0.90098 1.09973 1.23505
 C2813 C 0.91822 1.11362 1.24861
 C2814 C 0.90972 1.12224 1.26825
 C2815 C 0.87228 1.12425 1.25116
 C2816 C 0.88077 1.11564 1.23154
 C2817 C 0.87559 1.12548 1.29345
 C2818 C 0.86779 1.13334 1.31059
 C2819 C 0.91002 1.09056 1.21383
 C2820 C 0.91727 1.08324 1.19622
 H2821 H 0.87730 1.07955 1.28461
 H2822 H 0.89307 1.06355 1.24814
 H2823 H 0.93556 1.11644 1.24327
 H2824 H 0.91979 1.13243 1.27974
 H2825 H 0.85798 1.13577 1.25151
 H2826 H 0.87373 1.11978 1.21508
 C2827 C 0.88505 0.61496 0.77203
 C2828 C 0.89748 0.59236 0.77502
 C2829 C 0.90595 0.58382 0.75533
 C2830 C 0.90116 0.59872 0.73460
 C2831 C 0.91069 0.62208 0.74075
 C2832 C 0.90222 0.63061 0.76043
 C2833 C 0.86692 0.61035 0.75402
 C2834 C 0.87539 0.60182 0.73435
 C2835 C 0.87583 0.62424 0.79313
 C2836 C 0.86804 0.63205 0.81029
 C2837 C 0.91018 0.58964 0.71334
 C2838 C 0.91740 0.58240 0.69569
 H2839 H 0.89945 0.58382 0.79117
 H2840 H 0.91519 0.56796 0.75461
 H2841 H 0.92302 0.63110 0.73055
 H2842 H 0.90730 0.64695 0.76709
 H2843 H 0.84900 0.61350 0.75651
 H2844 H 0.86472 0.59766 0.71999
 C2845 C 0.38454 1.11629 0.77208
 C2846 C 0.37765 1.12976 0.75097
 C2847 C 0.38614 1.12117 0.73134
 C2848 C 0.40070 1.09995 0.73472
 C2849 C 0.38549 1.08333 0.74764
 C2850 C 0.37699 1.09192 0.76728
 C2851 C 0.41049 1.11557 0.77142
 C2852 C 0.41899 1.10697 0.75176
 C2853 C 0.37529 1.12563 0.79315
 C2854 C 0.36749 1.13346 0.81030
 C2855 C 0.40976 1.09079 0.71349
 C2856 C 0.41701 1.08348 0.69588
 H2857 H 0.36703 1.14473 0.75140
 H2858 H 0.38279 1.12879 0.71495
 H2859 H 0.38173 1.06630 0.74187
 H2860 H 0.36595 1.08226 0.77835
 H2861 H 0.42124 1.12129 0.78517
 H2862 H 0.43702 1.10533 0.74868
 C2863 C 0.38475 0.61539 1.27238
 C2864 C 0.40456 0.62905 1.26261
 C2865 C 0.41295 0.62040 1.24295
 C2866 C 0.40071 0.59894 1.23498
 C2867 C 0.37566 0.60561 1.23356
 C2868 C 0.36727 0.61425 1.25321
 C2869 C 0.39378 0.59116 1.27472
 C2870 C 0.40217 0.58250 1.25505
 C2871 C 0.37561 0.62479 1.29347
 C2872 C 0.36787 0.63267 1.31062
 C2873 C 0.40965 0.58974 1.21373
 C2874 C 0.41684 0.58242 1.19610
 H2875 H 0.41141 0.64417 1.27046
 H2876 H 0.42699 0.62812 1.23395
 H2877 H 0.36541 0.60369 1.21844
 H2878 H 0.34983 0.61975 1.25493
 H2879 H 0.39360 0.58164 1.29044
 H2880 H 0.40918 0.56557 1.25390
 C2881 C 1.11503 1.27235 0.88495
 C2882 C 1.12069 1.25152 0.87053
 C2883 C 1.11224 1.23184 0.87902
 C2884 C 1.09894 1.23490 0.90113
 C2885 C 1.08068 1.25253 0.89561
 C2886 C 1.08915 1.27222 0.88711
 C2887 C 1.12379 1.26666 0.90874
 C2888 C 1.11532 1.24697 0.91725
 C2889 C 1.12423 1.29345 0.87571
 C2890 C 1.13201 1.31061 0.86791
 C2891 C 1.08993 1.21364 0.91018
 C2892 C 1.08273 1.19598 0.91740
 H2893 H 1.13049 1.25217 0.85499
 H2894 H 1.11479 1.21564 0.87076
 H2895 H 1.06270 1.24979 0.89817
 H2896 H 1.07842 1.28636 0.88238
 H2897 H 1.13558 1.27718 0.91809
 H2898 H 1.11987 1.24063 0.93388
 C2899 C 1.11524 0.77198 0.38449
 C2900 C 1.10640 0.77412 0.40884
 C2901 C 1.09798 0.75441 0.41737
 C2902 C 1.09923 0.73453 0.40072
 C2903 C 1.12422 0.73305 0.39384
 C2904 C 1.13264 0.75273 0.38531
 C2905 C 1.09528 0.76246 0.37088
 C2906 C 1.08687 0.74277 0.37941
 C2907 C 1.12439 0.79310 0.37522
 C2908 C 1.13213 0.81028 0.36742
 C2909 C 1.09026 0.71325 0.40980
 C2910 C 1.08308 0.69559 0.41704
 H2911 H 1.10672 0.78972 0.41852
 H2912 H 1.09108 0.75313 0.43436
 H2913 H 1.13443 0.71787 0.39552
 H2914 H 1.15004 0.75442 0.37969
 H2915 H 1.08836 0.77049 0.35588
 H2916 H 1.07274 0.73392 0.37171
 C2917 C 0.61578 1.27212 0.38375
 C2918 C 0.62434 1.26668 0.40767
 C2919 C 0.61582 1.24707 0.41630
 C2920 C 0.59957 1.23483 0.40017
 C2921 C 0.61306 1.23156 0.37821
 C2922 C 0.62158 1.25115 0.36958
 C2923 C 0.58989 1.27201 0.38569
 C2924 C 0.58136 1.25239 0.39432
 C2925 C 0.62505 1.29315 0.37437
 C2926 C 0.63287 1.31026 0.36649
 C2927 C 0.59049 1.21365 0.40936
 C2928 C 0.58321 1.19607 0.41669
 H2929 H 0.63605 1.27730 0.41701
 H2930 H 0.62022 1.24089 0.43303
 H2931 H 0.61569 1.21528 0.37013
 H2932 H 0.63151 1.25165 0.35412
 H2933 H 0.57919 1.28608 0.38072
 H2934 H 0.56336 1.24967 0.39675
 C2935 C 0.61462 0.77207 0.88528
 C2936 C 0.59888 0.77539 0.90570
 C2937 C 0.59039 0.75567 0.91412
 C2938 C 0.59848 0.73458 0.90130
 C2939 C 0.62440 0.73584 0.90190
 C2940 C 0.63289 0.75555 0.89349
 C2941 C 0.60060 0.75861 0.86807
 C2942 C 0.59211 0.73891 0.87648
 C2943 C 0.62385 0.79320 0.87613
 C2944 C 0.63164 0.81039 0.86839
 C2945 C 0.58945 0.71329 0.91026
 C2946 C 0.58224 0.69561 0.91743
 H2947 H 0.59477 0.79177 0.91290
 H2948 H 0.57901 0.75515 0.92854
 H2949 H 0.63515 0.72244 0.90839
 H2950 H 0.65091 0.75902 0.89277
 H2951 H 0.59758 0.76409 0.85079
 H2952 H 0.58183 0.72750 0.86642
 C2953 C 0.88534 1.27239 1.11534
 C2954 C 0.88635 1.25315 1.13276
 C2955 C 0.89480 1.23347 1.12427
 C2956 C 0.90141 1.23495 1.09918
 C2957 C 0.91803 1.25485 1.09774
 C2958 C 0.90957 1.27455 1.10624
 C2959 C 0.87153 1.26284 1.09553
 C2960 C 0.87998 1.24315 1.08703
 C2961 C 0.87614 1.29349 1.12458
 C2962 C 0.86837 1.31065 1.13238
 C2963 C 0.91040 1.21367 1.09014
 C2964 C 0.91758 1.19601 1.08292
 H2965 H 0.88092 1.25484 1.15024
 H2966 H 0.89661 1.21831 1.13447
 H2967 H 0.93493 1.25358 1.09066
 H2968 H 0.91923 1.29016 1.10644
 H2969 H 0.85646 1.27085 1.08876
 H2970 H 0.87215 1.23429 1.07298
 C2971 C 0.88529 0.77209 0.61471
 C2972 C 0.86933 0.75182 0.61765
 C2973 C 0.87779 0.73213 0.60921
 C2974 C 0.90138 0.73461 0.59864
 C2975 C 0.91606 0.74505 0.61735
 C2976 C 0.90760 0.76476 0.62580
 C2977 C 0.89039 0.77303 0.58925
 C2978 C 0.89886 0.75332 0.58079
 C2979 C 0.87608 0.79321 0.62391
 C2980 C 0.86832 0.81040 0.63167
 C2981 C 0.91039 0.71333 0.58965
 C2982 C 0.91759 0.69566 0.58246
 H2983 H 0.85283 0.75285 0.62566
 H2984 H 0.86853 0.71629 0.60998
 H2985 H 0.93172 0.73763 0.62341
 H2986 H 0.91601 0.77422 0.63910
 H2987 H 0.88761 0.78787 0.57878
 H2988 H 0.90333 0.75126 0.56309
 C2989 C 0.38452 1.27212 0.61622
 C2990 C 0.38048 1.25143 0.63139
 C2991 C 0.38897 1.23185 0.62272
 C2992 C 0.40069 1.23485 0.59972
 C2993 C 0.41870 1.25313 0.60367
 C2994 C 0.41019 1.27274 0.61235
 C2995 C 0.37439 1.26568 0.59318
 C2996 C 0.38290 1.24609 0.58451
 C2997 C 0.37527 1.29313 0.62564
 C2998 C 0.36745 1.31023 0.63354
 C2999 C 0.40975 1.21368 0.59049
 C3000 C 0.41701 1.19611 0.58312
 H3001 H 0.37172 1.25210 0.64753
 H3002 H 0.38749 1.21575 0.63144
 H3003 H 0.43655 1.25089 0.59997
 H3004 H 0.42075 1.28728 0.61608
 H3005 H 0.36168 1.27564 0.58444
 H3006 H 0.37747 1.23926 0.56834
 C3007 C 0.38446 0.77182 1.11553
 C3008 C 0.36615 0.75483 1.10847
 C3009 C 0.37461 0.73516 1.09996
 C3010 C 0.40055 0.73439 1.09934
 C3011 C 0.40800 0.73922 1.12375
 C3012 C 0.39954 0.75890 1.13226
 C3013 C 0.39914 0.77511 1.09434
 C3014 C 0.40761 0.75542 1.08582
 C3015 C 0.37526 0.79292 1.12479
 C3016 C 0.36750 0.81010 1.13258
 C3017 C 0.40957 0.71313 1.09028
 C3018 C 0.41679 0.69549 1.08303
 H3019 H 0.34812 0.75797 1.11000
 H3020 H 0.36383 0.72146 1.09420
 H3021 H 0.41898 0.72817 1.13349
 H3022 H 0.40327 0.76470 1.14929
 H3023 H 0.40258 0.79145 1.08671
 H3024 H 0.41830 0.75490 1.07089
 C3025 C 0.88488 0.72821 0.88508
 C3026 C 0.90755 0.73520 0.87449
 C3027 C 0.91600 0.75489 0.88298
 C3028 C 0.90096 0.76565 0.90122
 C3029 C 0.89777 0.74714 0.91916
 C3030 C 0.88931 0.72744 0.91067
 C3031 C 0.86923 0.74862 0.88156
 C3032 C 0.87768 0.76829 0.89005
 C3033 C 0.87568 0.70710 0.87585
 C3034 C 0.86793 0.68993 0.86807
 C3035 C 0.90997 0.78692 0.91026
 C3036 C 0.91718 0.80457 0.91747
 H3037 H 0.91620 0.72553 0.86149
 H3038 H 0.93190 0.76208 0.87725
 H3039 H 0.90181 0.74930 0.93696
 H3040 H 0.88610 0.71273 0.92119
 H3041 H 0.85293 0.74770 0.87316
 H3042 H 0.86862 0.78423 0.88890
 C3043 C 0.88488 0.22776 0.38399
 C3044 C 0.86663 0.24489 0.39089
 C3045 C 0.87514 0.26450 0.39946
 C3046 C 0.90108 0.26508 0.40030
 C3047 C 0.90874 0.26018 0.37596
 C3048 C 0.90022 0.24056 0.36739
 C3049 C 0.89933 0.22438 0.40531
 C3050 C 0.90786 0.24401 0.41389
 C3051 C 0.87562 0.20672 0.37467
 C3052 C 0.86780 0.18960 0.36683
 C3053 C 0.91015 0.28629 0.40944
 C3054 C 0.91741 0.30389 0.41673
 H3055 H 0.84859 0.24187 0.38920
 H3056 H 0.86440 0.27828 0.40512
 H3057 H 0.91988 0.27115 0.36631
 H3058 H 0.90407 0.23472 0.35039
 H3059 H 0.90259 0.20801 0.41298
 H3060 H 0.91841 0.24447 0.42892
 C3061 C 0.38521 0.72834 0.38445
 C3062 C 0.36684 0.74537 0.39130
 C3063 C 0.37523 0.76504 0.39987
 C3064 C 0.40116 0.76578 0.40075
 C3065 C 0.40888 0.76090 0.37642
 C3066 C 0.40050 0.74122 0.36786
 C3067 C 0.39965 0.72506 0.40579
 C3068 C 0.40804 0.74476 0.41437
 C3069 C 0.37608 0.70724 0.37514
 C3070 C 0.36835 0.69007 0.36732
 C3071 C 0.41010 0.78704 0.40987
 C3072 C 0.41726 0.80468 0.41714
 H3073 H 0.34883 0.74224 0.38959
 H3074 H 0.36440 0.77876 0.40550
 H3075 H 0.41998 0.77192 0.36678
 H3076 H 0.40441 0.73538 0.35088
 H3077 H 0.40299 0.70873 0.41349
 H3078 H 0.41857 0.74529 0.42941
 C3079 C 0.38450 0.22773 0.88398
 C3080 C 0.36744 0.24730 0.88406
 C3081 C 0.37592 0.26689 0.89272
 C3082 C 0.40063 0.26501 0.90046
 C3083 C 0.41356 0.25638 0.87965
 C3084 C 0.40508 0.23678 0.87098
 C3085 C 0.39244 0.22562 0.90863
 C3086 C 0.40093 0.24523 0.91730
 C3087 C 0.37527 0.20670 0.87457
 C3088 C 0.36748 0.18960 0.86667
 C3089 C 0.40966 0.28619 0.90968
 C3090 C 0.41691 0.30377 0.91703
 H3091 H 0.35021 0.24589 0.87787
 H3092 H 0.36595 0.28226 0.89394
 H3093 H 0.42812 0.26490 0.87236
 H3094 H 0.41237 0.22851 0.85628
 H3095 H 0.39150 0.21010 0.91841
 H3096 H 0.40725 0.24652 0.93450
 C3097 C 1.11578 0.72844 1.11643
 C3098 C 1.13197 0.74055 1.10012
 C3099 C 1.12344 0.76016 1.09150
 C3100 C 1.09956 0.76573 1.10003
 C3101 C 1.10146 0.76570 1.12594
 C3102 C 1.10999 0.74611 1.13456
 C3103 C 1.09383 0.72519 1.10293
 C3104 C 1.08530 0.74480 1.09431
 C3105 C 1.12505 0.70740 1.12579
 C3106 C 1.13286 0.69028 1.13364
 C3107 C 1.09047 0.78692 1.09084
 C3108 C 1.08319 0.80450 1.08350
 H3109 H 1.14866 0.73428 1.09571
 H3110 H 1.13283 0.77067 1.07971
 H3111 H 1.09654 0.77983 1.13659
 H3112 H 1.11236 0.74345 1.15258
 H3113 H 1.08571 0.70892 1.10037
 H3114 H 1.06987 0.74534 1.08436
 C3115 C 1.11497 0.22744 0.61491
 C3116 C 1.09136 0.22494 0.60437
 C3117 C 1.08292 0.24464 0.59586
 C3118 C 1.09891 0.26490 0.59875
 C3119 C 1.12121 0.25752 0.58766
 C3120 C 1.12965 0.23783 0.59616
 C3121 C 1.11245 0.24619 0.63269
 C3122 C 1.10401 0.26588 0.62420
 C3123 C 1.12415 0.20633 0.62415
 C3124 C 1.13192 0.18917 0.63194
 C3125 C 1.08993 0.28617 0.58970
 C3126 C 1.08275 0.30384 0.58249
 H3127 H 1.08211 0.20910 0.60364
 H3128 H 1.06643 0.24569 0.58785
 H3129 H 1.12962 0.26693 0.57430
 H3130 H 1.14529 0.23036 0.59008
 H3131 H 1.11689 0.24418 0.65040
 H3132 H 1.10123 0.28073 0.63464
 C3133 C 0.61501 0.72823 0.61490
 C3134 C 0.62286 0.74931 0.62786
 C3135 C 0.61439 0.76901 0.61942
 C3136 C 0.59889 0.76571 0.59885
 C3137 C 0.58059 0.74909 0.60682
 C3138 C 0.58907 0.72938 0.61526
 C3139 C 0.62163 0.73266 0.59016
 C3140 C 0.61315 0.75237 0.58172
 C3141 C 0.62423 0.70711 0.62408
 C3142 C 0.63200 0.68992 0.63183
 C3143 C 0.58986 0.78699 0.58987
 C3144 C 0.58266 0.80466 0.58268
 H3145 H 0.63409 0.74882 0.64238
 H3146 H 0.61836 0.78538 0.62673
 H3147 H 0.56257 0.75250 0.60591
 H3148 H 0.57831 0.71590 0.62158
 H3149 H 0.63204 0.72131 0.58015
 H3150 H 0.61630 0.75790 0.56449
 C3151 C 0.61534 0.22772 1.11586
 C3152 C 0.60077 0.24099 1.13277
 C3153 C 0.59226 0.26061 1.12419
 C3154 C 0.59914 0.26504 1.09953
 C3155 C 0.59160 0.24388 1.08651
 C3156 C 0.60012 0.22424 1.09510
 C3157 C 0.63360 0.24446 1.10808
 C3158 C 0.62509 0.26407 1.09949
 C3159 C 0.62461 0.20668 1.12520
 C3160 C 0.63242 0.18956 1.13306
 C3161 C 0.59007 0.28624 1.09038
 C3162 C 0.58282 0.30384 1.08309
 H3163 H 0.59742 0.23546 1.14998
 H3164 H 0.58161 0.27189 1.13404
 H3165 H 0.58055 0.24428 1.07185
 H3166 H 0.59637 0.20782 1.08780
 H3167 H 0.65164 0.24119 1.10920
 H3168 H 0.63583 0.27760 1.09326
 C3169 C 1.27205 1.11570 0.88430
 C3170 C 1.26530 1.09284 0.87400
 C3171 C 1.24567 1.08430 0.88258
 C3172 C 1.23472 1.09945 0.90061
 C3173 C 1.23187 1.12256 0.88912
 C3174 C 1.25148 1.13110 0.88056
 C3175 C 1.27280 1.11159 0.90995
 C3176 C 1.25317 1.10304 0.91853
 C3177 C 1.29309 1.12499 0.87498
 C3178 C 1.31021 1.13283 0.86714
 C3179 C 1.21352 1.09035 0.90974
 C3180 C 1.19592 1.08307 0.91704
 H3181 H 1.27509 1.08413 0.86113
 H3182 H 1.23865 1.06826 0.87705
 H3183 H 1.21585 1.13145 0.88784
 H3184 H 1.25226 1.14730 0.87194
 H3185 H 1.28746 1.11508 0.92045
 H3186 H 1.25101 1.09921 0.93637
 C3187 C 1.27242 0.61507 0.38452
 C3188 C 1.25113 0.62601 0.37447
 C3189 C 1.23148 0.61748 0.38297
 C3190 C 1.23503 0.59883 0.40068
 C3191 C 1.25036 0.60948 0.41873
 C3192 C 1.27003 0.61803 0.41023
 C3193 C 1.26950 0.58961 0.38037
 C3194 C 1.24984 0.58106 0.38887
 C3195 C 1.29349 0.62435 0.37528
 C3196 C 1.31063 0.63217 0.36747
 C3197 C 1.21379 0.58974 0.40973
 C3198 C 1.19616 0.58248 0.41697
 H3199 H 1.25146 0.63930 0.36180
 H3200 H 1.21498 0.62346 0.37756
 H3201 H 1.24615 0.61024 0.43660
 H3202 H 1.28267 0.62610 0.42082
 H3203 H 1.28180 0.57920 0.37155
 H3204 H 1.24529 0.56334 0.38733
 C3205 C 0.77223 1.11581 0.38443
 C3206 C 0.75666 1.13384 0.39476
 C3207 C 0.73701 1.12531 0.40327
 C3208 C 0.73484 1.09958 0.40061
 C3209 C 0.75612 1.08982 0.41186
 C3210 C 0.77579 1.09836 0.40334
 C3211 C 0.75765 1.10368 0.36670
 C3212 C 0.73799 1.09515 0.37521
 C3213 C 0.79331 1.12509 0.37517
 C3214 C 0.81046 1.13290 0.36737
 C3215 C 0.71360 1.09050 0.40967
 C3216 C 0.69597 1.08324 0.41692
 H3217 H 0.76072 1.15174 0.39536
 H3218 H 0.72424 1.13590 0.41115
 H3219 H 0.75577 1.07732 0.42531
 H3220 H 0.79229 1.09317 0.40950
 H3221 H 0.76235 1.10192 0.34902
 H3222 H 0.72586 1.08608 0.36482
 C3223 C 0.77191 0.61498 0.88509
 C3224 C 0.75131 0.63019 0.88081
 C3225 C 0.73164 0.62167 0.88927
 C3226 C 0.73448 0.59877 0.90118
 C3227 C 0.75267 0.60279 0.91928
 C3228 C 0.77236 0.61132 0.91081
 C3229 C 0.76544 0.59191 0.87509
 C3230 C 0.74576 0.58339 0.88356
 C3231 C 0.79301 0.62425 0.87588
 C3232 C 0.81017 0.63206 0.86810
 C3233 C 0.71322 0.58970 0.91019
 C3234 C 0.69557 0.58246 0.91739
 H3235 H 0.75210 0.64624 0.87193
 H3236 H 0.71558 0.63043 0.88763
 H3237 H 0.75030 0.59924 0.93715
 H3238 H 0.78686 0.61507 0.92143
 H3239 H 0.77545 0.58304 0.86249
 H3240 H 0.73890 0.56722 0.87821
 C3241 C 1.27216 0.88427 1.11503
 C3242 C 1.27533 0.89790 1.09313
 C3243 C 1.25568 0.90655 1.08472
 C3244 C 1.23480 0.90071 1.09904
 C3245 C 1.24045 0.90909 1.12297
 C3246 C 1.26009 0.90045 1.13137
 C3247 C 1.25449 0.86617 1.10920
 C3248 C 1.23486 0.87481 1.10080
 C3249 C 1.29322 0.87489 1.12419
 C3250 C 1.31035 0.86701 1.13194
 C3251 C 1.21357 0.90990 1.09009
 C3252 C 1.19595 0.91723 1.08291
 H3253 H 1.29158 0.90053 1.08496
 H3254 H 1.25508 0.91658 1.06934
 H3255 H 1.22995 0.92080 1.13246
 H3256 H 1.26642 0.90476 1.14807
 H3257 H 1.25718 0.84815 1.11146
 H3258 H 1.22072 0.86419 1.09586
 C3259 C 1.27204 0.38408 0.61576
 C3260 C 1.25913 0.36732 0.60070
 C3261 C 1.23953 0.37585 0.59209
 C3262 C 1.23475 0.40030 0.59937
 C3263 C 1.25587 0.41368 0.59233
 C3264 C 1.27549 0.40514 0.60095
 C3265 C 1.25497 0.39132 0.63395
 C3266 C 1.23537 0.39985 0.62534
 C3267 C 1.29306 0.37480 0.62512
 C3268 C 1.31017 0.36698 0.63299
 C3269 C 1.21356 0.40939 0.59020
 C3270 C 1.19598 0.41666 0.58287
 H3271 H 1.26489 0.35026 0.59711
 H3272 H 1.22850 0.36609 0.58112
 H3273 H 1.25546 0.42853 0.58154
 H3274 H 1.29188 0.41268 0.59754
 H3275 H 1.25802 0.38990 0.65202
 H3276 H 1.22163 0.40573 0.63603
 C3277 C 0.77229 0.88534 0.61473
 C3278 C 0.76652 0.87664 0.59094
 C3279 C 0.74682 0.88517 0.58253
 C3280 C 0.73484 0.90156 0.59873
 C3281 C 0.75253 0.91975 0.60421
 C3282 C 0.77223 0.91122 0.61263
 C3283 C 0.75149 0.87971 0.62922
 C3284 C 0.73181 0.88823 0.62082
 C3285 C 0.79340 0.87607 0.62389
 C3286 C 0.81056 0.86826 0.63164
 C3287 C 0.71357 0.91063 0.58977
 C3288 C 0.69591 0.91787 0.58260
 H3289 H 0.77698 0.86484 0.58154
 H3290 H 0.74041 0.88067 0.56591
 H3291 H 0.74983 0.93774 0.60170
 H3292 H 0.78641 0.92190 0.61733
 H3293 H 0.75215 0.86989 0.64474
 H3294 H 0.71562 0.88571 0.62913
 C3295 C 0.77217 0.38517 1.11535
 C3296 C 0.77450 0.39480 1.09132
 C3297 C 0.75478 0.40316 1.08278
 C3298 C 0.73468 0.40106 1.09910
 C3299 C 0.74240 0.41288 1.12090
 C3300 C 0.76211 0.40453 1.12944
 C3301 C 0.75322 0.36750 1.11371
 C3302 C 0.73352 0.37585 1.10518
 C3303 C 0.79330 0.37607 1.12463
 C3304 C 0.81048 0.36837 1.13243
 C3305 C 0.71338 0.40996 1.09002
 C3306 C 0.69571 0.41709 1.08278
 H3307 H 0.79025 0.39504 1.08186
 H3308 H 0.75363 0.41056 1.06600
 H3309 H 0.73321 0.42661 1.12892
 H3310 H 0.76981 0.41110 1.14477
 H3311 H 0.75512 0.34996 1.11880
 H3312 H 0.71854 0.36546 1.10295
 C3313 C 0.72799 1.11574 1.11561
 C3314 C 0.73220 1.12200 1.09074
 C3315 C 0.75187 1.11345 1.08226
 C3316 C 0.76539 1.09948 1.09949
 C3317 C 0.74888 1.08126 1.10786
 C3318 C 0.72921 1.08981 1.11634
 C3319 C 0.74916 1.12383 1.12827
 C3320 C 0.76881 1.11529 1.11980
 C3321 C 0.70690 1.12503 1.12484
 C3322 C 0.68975 1.13285 1.13262
 C3323 C 0.78663 1.09038 1.09045
 C3324 C 0.80426 1.08312 1.08322
 H3325 H 0.72074 1.13223 1.08068
 H3326 H 0.75725 1.11636 1.06494
 H3327 H 0.75233 1.06324 1.10717
 H3328 H 0.71581 1.07911 1.12292
 H3329 H 0.74875 1.13527 1.14264
 H3330 H 0.78523 1.11941 1.12691
 C3331 C 0.72802 0.61497 0.61480
 C3332 C 0.73165 0.58985 0.62026
 C3333 C 0.75134 0.58132 0.61181
 C3334 C 0.76546 0.59876 0.59873
 C3335 C 0.76891 0.61842 0.61532
 C3336 C 0.74923 0.62694 0.62377
 C3337 C 0.72981 0.61659 0.58892
 C3338 C 0.74950 0.60806 0.58047
 C3339 C 0.70692 0.62424 0.62399
 C3340 C 0.68975 0.63205 0.63176
 C3341 C 0.78673 0.58969 0.58973
 C3342 C 0.80438 0.58244 0.58254
 H3343 H 0.71979 0.57966 0.62991
 H3344 H 0.75635 0.56382 0.61422
 H3345 H 0.78536 0.62508 0.62003
 H3346 H 0.74884 0.64090 0.63571
 H3347 H 0.71676 0.62378 0.57818
 H3348 H 0.75332 0.60794 0.56249
 C3349 C 0.22754 1.11544 0.61454
 C3350 C 0.23605 1.12786 0.59336
 C3351 C 0.25577 1.11937 0.58496
 C3352 C 0.26505 1.09930 0.59857
 C3353 C 0.24570 1.08199 0.59912
 C3354 C 0.22597 1.09048 0.60752
 C3355 C 0.24730 1.11647 0.63135
 C3356 C 0.26701 1.10799 0.62296
 C3357 C 0.20641 1.12466 0.62368
 C3358 C 0.18922 1.13244 0.63142
 C3359 C 0.28636 1.09027 0.58963
 C3360 C 0.30405 1.08307 0.58248
 H3361 H 0.22734 1.14206 0.58563
 H3362 H 0.26396 1.12630 0.57004
 H3363 H 0.24734 1.06462 0.59342
 H3364 H 0.21070 1.08038 0.60902
 H3365 H 0.24592 1.12326 0.64837
 H3366 H 0.28252 1.10751 0.63279
 C3367 C 0.22810 0.61596 1.11590
 C3368 C 0.23547 0.59386 1.12737
 C3369 C 0.25504 0.58513 1.11886
 C3370 C 0.26533 0.59937 1.09971
 C3371 C 0.26803 0.62316 1.10974
 C3372 C 0.24847 0.63188 1.11824
 C3373 C 0.22684 0.61033 1.09056
 C3374 C 0.24642 0.60161 1.08205
 C3375 C 0.20711 0.62543 1.12516
 C3376 C 0.19002 0.63336 1.13298
 C3377 C 0.28648 0.59008 1.09064
 C3378 C 0.30404 0.58268 1.08336
 H3379 H 0.22613 0.58576 1.14096
 H3380 H 0.26247 0.56957 1.12516
 H3381 H 0.28392 0.63236 1.11012
 H3382 H 0.24761 0.64854 1.12590
 H3383 H 0.21189 0.61296 1.08022
 H3384 H 0.24825 0.59676 1.06442
 C3385 C 0.72771 0.88524 0.88545
 C3386 C 0.74894 0.87368 0.87598
 C3387 C 0.76862 0.88218 0.88441
 C3388 C 0.76516 0.90142 0.90150
 C3389 C 0.74946 0.89155 0.91970
 C3390 C 0.72976 0.88304 0.91126
 C3391 C 0.73106 0.91052 0.88054
 C3392 C 0.75075 0.91903 0.88898
 C3393 C 0.70660 0.87600 0.87627
 C3394 C 0.68944 0.86821 0.86850
 C3395 C 0.78643 0.91047 0.91048
 C3396 C 0.80408 0.91770 0.91765
 H3397 H 0.74855 0.86001 0.86372
 H3398 H 0.78508 0.87579 0.87937
 H3399 H 0.75345 0.89128 0.93764
 H3400 H 0.71688 0.87548 0.92197
 H3401 H 0.71902 0.92083 0.87126
 H3402 H 0.75558 0.93662 0.88693
 C3403 C 0.72834 0.38411 0.38403
 C3404 C 0.72498 0.39844 0.40544
 C3405 C 0.74462 0.40697 0.41400
 C3406 C 0.76567 0.40034 0.40030
 C3407 C 0.76067 0.40810 0.37602
 C3408 C 0.74104 0.39957 0.36747
 C3409 C 0.74554 0.36588 0.39077
 C3410 C 0.76516 0.37440 0.39932
 C3411 C 0.70729 0.37483 0.37473
 C3412 C 0.69016 0.36701 0.36691
 C3413 C 0.78688 0.40942 0.40942
 C3414 C 0.80448 0.41669 0.41671
 H3415 H 0.70863 0.40160 0.41319
 H3416 H 0.74509 0.41745 0.42908
 H3417 H 0.77157 0.41933 0.36640
 H3418 H 0.73514 0.40349 0.35052
 H3419 H 0.74257 0.34784 0.38899
 H3420 H 0.77900 0.36368 0.40487
 C3421 C 0.22797 0.88531 0.38456
 C3422 C 0.24723 0.88644 0.36717
 C3423 C 0.26687 0.89495 0.37570
 C3424 C 0.26534 0.90149 0.40079
 C3425 C 0.25719 0.88001 0.41290
 C3426 C 0.23755 0.87150 0.40437
 C3427 C 0.22570 0.90951 0.39370
 C3428 C 0.24536 0.91802 0.40224
 C3429 C 0.20691 0.87605 0.37528
 C3430 C 0.18978 0.86824 0.36747
 C3431 C 0.28657 0.91055 0.40988
 C3432 C 0.30419 0.91778 0.41713
 H3433 H 0.24559 0.88105 0.34969
 H3434 H 0.28205 0.89683 0.36552
 H3435 H 0.26607 0.87218 0.42695
 H3436 H 0.22959 0.85639 0.41111
 H3437 H 0.21005 0.91911 0.39349
 H3438 H 0.24655 0.93491 0.40934
 C3439 C 0.22757 0.38439 0.88535
 C3440 C 0.24852 0.37779 0.87148
 C3441 C 0.26821 0.38629 0.87990
 C3442 C 0.26504 0.40055 0.90137
 C3443 C 0.25246 0.38505 0.91800
 C3444 C 0.23276 0.37655 0.90957
 C3445 C 0.22809 0.41033 0.88640
 C3446 C 0.24779 0.41883 0.89482
 C3447 C 0.20646 0.37515 0.87618
 C3448 C 0.18929 0.36736 0.86843
 C3449 C 0.28632 0.40960 0.91034
 C3450 C 0.30398 0.41681 0.91750
 H3451 H 0.24794 0.36737 0.85637
 H3452 H 0.28449 0.38314 0.87200
 H3453 H 0.25849 0.38111 0.93490
 H3454 H 0.22191 0.36533 0.91926
 H3455 H 0.21420 0.42106 0.88101
 H3456 H 0.25079 0.43685 0.89665
   
