data_POSCAR
  _audit_creation_date              2014-09-24
  _audit_creation_method            'ToBaCCo'
  _symmetry_space_group_name_H-M    'P1'
  _symmetry_Int_Tables_number       1
  _symmetry_cell_setting            triclinic
  loop_
  _symmetry_equiv_pos_as_xyz
 x,y,z
_cell_length_a 80.7997
_cell_length_b 80.6422
_cell_length_c 80.7492
_cell_angle_alpha 90.083700
_cell_angle_beta 89.905300
_cell_angle_gamma 90.114700
loop_
  _atom_site_label
  _atom_site_type_symbol
  _atom_site_fract_x
  _atom_site_fract_y
  _atom_site_fract_z
C1 C 0.20609 0.19857 0.22181
 C2 C 0.19261 0.20125 0.23244
 C3 C 0.18179 0.21464 0.22985
 C4 C 0.18460 0.22539 0.21643
 C5 C 0.19800 0.22283 0.20567
 C6 C 0.20880 0.20939 0.20836
 C7 C 0.21689 0.18524 0.22442
 C8 C 0.23036 0.18250 0.21372
 C9 C 0.23297 0.19332 0.20032
 C10 C 0.22231 0.20675 0.19759
 C11 C 0.22493 0.21756 0.18424
 C12 C 0.21420 0.23097 0.18146
 C13 C 0.20075 0.23351 0.19224
 H14 H 0.19065 0.19304 0.24288
 H15 H 0.17620 0.23561 0.21423
 H16 H 0.21467 0.17683 0.23465
 H17 H 0.24345 0.19142 0.19213
 H18 H 0.23520 0.21539 0.17586
 H19 H 0.19254 0.24394 0.19030
 C20 C 0.70667 0.69925 0.72352
 C21 C 0.69325 0.70202 0.73420
 C22 C 0.68240 0.71537 0.73156
 C23 C 0.68514 0.72602 0.71805
 C24 C 0.69849 0.72340 0.70724
 C25 C 0.70932 0.70998 0.70998
 C26 C 0.71750 0.68595 0.72617
 C27 C 0.73094 0.68314 0.71544
 C28 C 0.73347 0.69389 0.70195
 C29 C 0.72278 0.70728 0.69918
 C30 C 0.72531 0.71796 0.68571
 C31 C 0.71455 0.73134 0.68287
 C32 C 0.70117 0.73397 0.69371
 H33 H 0.69135 0.69387 0.74471
 H34 H 0.67671 0.73621 0.71580
 H35 H 0.71557 0.67788 0.73672
 H36 H 0.74365 0.69169 0.69347
 H37 H 0.73553 0.71572 0.67729
 H38 H 0.69294 0.74438 0.69173
 C39 C 0.29362 0.80157 0.72202
 C40 C 0.30688 0.79872 0.73285
 C41 C 0.31763 0.78525 0.73036
 C42 C 0.31492 0.77452 0.71689
 C43 C 0.30176 0.77724 0.70593
 C44 C 0.29113 0.79088 0.70844
 C45 C 0.28291 0.81500 0.72456
 C46 C 0.26963 0.81818 0.71362
 C47 C 0.26745 0.80738 0.69996
 C48 C 0.27802 0.79384 0.69736
 C49 C 0.27556 0.78309 0.68389
 C50 C 0.28604 0.76942 0.68136
 C51 C 0.29913 0.76659 0.69244
 H52 H 0.30873 0.80690 0.74336
 H53 H 0.32324 0.76420 0.71478
 H54 H 0.28550 0.82333 0.73475
 H55 H 0.25710 0.80895 0.69162
 H56 H 0.26534 0.78523 0.67548
 H57 H 0.30739 0.75620 0.69044
 C58 C 0.79469 0.30184 0.22170
 C59 C 0.80840 0.29933 0.23202
 C60 C 0.81949 0.28604 0.22927
 C61 C 0.81647 0.27545 0.21561
 C62 C 0.80282 0.27787 0.20518
 C63 C 0.79183 0.29104 0.20829
 C64 C 0.78370 0.31497 0.22470
 C65 C 0.76990 0.31750 0.21442
 C66 C 0.76711 0.30660 0.20110
 C67 C 0.77797 0.29341 0.19796
 C68 C 0.77521 0.28259 0.18463
 C69 C 0.78625 0.26953 0.18125
 C70 C 0.80007 0.26733 0.19161
 H71 H 0.80987 0.30740 0.24264
 H72 H 0.82502 0.26558 0.21259
 H73 H 0.78580 0.32314 0.23516
 H74 H 0.75664 0.30856 0.19296
 H75 H 0.76433 0.28428 0.17699
 H76 H 0.80885 0.25752 0.18902
 C77 C 0.79249 0.69978 0.27719
 C78 C 0.80591 0.70255 0.26650
 C79 C 0.81673 0.71618 0.26880
 C80 C 0.81358 0.72702 0.28222
 C81 C 0.80022 0.72436 0.29302
 C82 C 0.78962 0.71071 0.29050
 C83 C 0.78181 0.68626 0.27468
 C84 C 0.76836 0.68343 0.28539
 C85 C 0.76564 0.69435 0.29870
 C86 C 0.77615 0.70797 0.30131
 C87 C 0.77346 0.71884 0.31462
 C88 C 0.78402 0.73246 0.31727
 C89 C 0.79737 0.73512 0.30639
 H90 H 0.80740 0.69431 0.25601
 H91 H 0.82188 0.73723 0.28488
 H92 H 0.78387 0.67804 0.26425
 H93 H 0.75546 0.69214 0.30717
 H94 H 0.76326 0.71657 0.32305
 H95 H 0.80544 0.74572 0.30821
 C96 C 0.29378 0.19843 -0.22216
 C97 C 0.30726 0.20119 -0.23278
 C98 C 0.31836 0.21454 -0.23014
 C99 C 0.31542 0.22510 -0.21643
 C100 C 0.30194 0.22250 -0.20578
 C101 C 0.29108 0.20912 -0.20862
 C102 C 0.28297 0.18506 -0.22487
 C103 C 0.26945 0.18223 -0.21423
 C104 C 0.26682 0.19302 -0.20078
 C105 C 0.27752 0.20642 -0.19792
 C106 C 0.27488 0.21718 -0.18451
 C107 C 0.28561 0.23063 -0.18162
 C108 C 0.29912 0.23317 -0.19232
 H109 H 0.30937 0.19239 -0.24268
 H110 H 0.32314 0.23587 -0.21430
 H111 H 0.28495 0.17696 -0.23541
 H112 H 0.25657 0.19083 -0.19239
 H113 H 0.26431 0.21522 -0.17645
 H114 H 0.30760 0.24335 -0.19005
 C115 C 0.70826 0.30115 -0.22287
 C116 C 0.69481 0.29834 -0.23347
 C117 C 0.68421 0.28453 -0.23131
 C118 C 0.68764 0.27348 -0.21816
 C119 C 0.70100 0.27622 -0.20740
 C120 C 0.71132 0.29012 -0.20972
 C121 C 0.71873 0.31485 -0.22525
 C122 C 0.73216 0.31776 -0.21458
 C123 C 0.73501 0.30680 -0.20137
 C124 C 0.72469 0.29302 -0.19887
 C125 C 0.72756 0.28208 -0.18571
 C126 C 0.71727 0.26822 -0.18326
 C127 C 0.70406 0.26534 -0.19420
 H128 H 0.69312 0.30671 -0.24379
 H129 H 0.67953 0.26308 -0.21565
 H130 H 0.71630 0.32339 -0.23531
 H131 H 0.74543 0.30886 -0.19317
 H132 H 0.73790 0.28426 -0.17744
 H133 H 0.69599 0.25476 -0.19226
 C134 C 0.20544 0.80207 0.27906
 C135 C 0.19202 0.79930 0.26839
 C136 C 0.18194 0.78521 0.27027
 C137 C 0.18530 0.77387 0.28300
 C138 C 0.19850 0.77661 0.29393
 C139 C 0.20865 0.79074 0.29191
 C140 C 0.21575 0.81593 0.27695
 C141 C 0.22944 0.81879 0.28749
 C142 C 0.23224 0.80740 0.30050
 C143 C 0.22199 0.79353 0.30276
 C144 C 0.22487 0.78242 0.31580
 C145 C 0.21470 0.76844 0.31803
 C146 C 0.20162 0.76554 0.30693
 H147 H 0.18950 0.80797 0.25847
 H148 H 0.17744 0.76306 0.28454
 H149 H 0.21340 0.82397 0.26650
 H150 H 0.24203 0.80951 0.30939
 H151 H 0.23516 0.78457 0.32415
 H152 H 0.19365 0.75485 0.30864
 C153 C 0.44894 0.45548 0.47240
 C154 C 0.45174 0.44209 0.48309
 C155 C 0.46523 0.43137 0.48056
 C156 C 0.47592 0.43417 0.46708
 C157 C 0.47327 0.44749 0.45626
 C158 C 0.45973 0.45820 0.45892
 C159 C 0.43550 0.46616 0.47495
 C160 C 0.43269 0.47960 0.46423
 C161 C 0.44352 0.48223 0.45083
 C162 C 0.45699 0.47162 0.44809
 C163 C 0.46778 0.47427 0.43473
 C164 C 0.48129 0.46363 0.43196
 C165 C 0.48393 0.45026 0.44282
 H166 H 0.44329 0.43990 0.49330
 H167 H 0.48647 0.42611 0.46515
 H168 H 0.42709 0.46390 0.48517
 H169 H 0.44159 0.49269 0.44264
 H170 H 0.46578 0.48474 0.42658
 H171 H 0.49418 0.44187 0.44066
 C172 C -0.05257 -0.04543 0.97173
 C173 C -0.04975 -0.05891 0.98232
 C174 C -0.03643 -0.06977 0.97953
 C175 C -0.02589 -0.06699 0.96593
 C176 C -0.02857 -0.05357 0.95524
 C177 C -0.04198 -0.04276 0.95813
 C178 C -0.06590 -0.03465 0.97454
 C179 C -0.06899 -0.02107 0.96391
 C180 C -0.05817 -0.01862 0.95033
 C181 C -0.04477 -0.02928 0.94743
 C182 C -0.03407 -0.02662 0.93398
 C183 C -0.02067 -0.03732 0.93101
 C184 C -0.01803 -0.05080 0.94170
 H185 H -0.05780 -0.06083 0.99290
 H186 H -0.01571 -0.07540 0.96354
 H187 H -0.07420 -0.03743 0.98469
 H188 H -0.05960 -0.00802 0.94227
 H189 H -0.03631 -0.01632 0.92566
 H190 H -0.00762 -0.05900 0.93962
 C191 C 1.05056 0.54302 0.97416
 C192 C 1.04771 0.55627 0.98509
 C193 C 1.03481 0.56776 0.98229
 C194 C 1.02469 0.56543 0.96820
 C195 C 1.02731 0.55214 0.95730
 C196 C 1.04035 0.54096 0.96021
 C197 C 1.06367 0.53197 0.97689
 C198 C 1.06690 0.51874 0.96583
 C199 C 1.05636 0.51680 0.95199
 C200 C 1.04319 0.52773 0.94917
 C201 C 1.03273 0.52554 0.93548
 C202 C 1.01953 0.53650 0.93258
 C203 C 1.01698 0.54983 0.94353
 H204 H 1.05614 0.55794 0.99537
 H205 H 1.01424 0.57350 0.96596
 H206 H 1.07175 0.53429 0.98732
 H207 H 1.05788 0.50642 0.94362
 H208 H 1.03471 0.51514 0.92720
 H209 H 1.00703 0.55852 0.94124
 C210 C 0.54990 0.04361 0.47336
 C211 C 0.54734 0.05712 0.48403
 C212 C 0.53402 0.06802 0.48154
 C213 C 0.52320 0.06526 0.46820
 C214 C 0.52560 0.05181 0.45744
 C215 C 0.53897 0.04090 0.46007
 C216 C 0.56319 0.03274 0.47590
 C217 C 0.56591 0.01901 0.46530
 C218 C 0.55474 0.01651 0.45204
 C219 C 0.54141 0.02730 0.44939
 C220 C 0.53055 0.02476 0.43607
 C221 C 0.51725 0.03562 0.43330
 C222 C 0.51485 0.04911 0.44408
 H223 H 0.55563 0.05906 0.49440
 H224 H 0.51303 0.07374 0.46606
 H225 H 0.57095 0.03477 0.48662
 H226 H 0.55669 0.00660 0.44321
 H227 H 0.53258 0.01444 0.42769
 H228 H 0.50450 0.05742 0.44217
 C229 C -0.04930 0.04125 0.52582
 C230 C -0.04638 0.05456 0.51504
 C231 C -0.03309 0.06552 0.51776
 C232 C -0.02261 0.06293 0.53141
 C233 C -0.02537 0.04966 0.54229
 C234 C -0.03879 0.03880 0.53953
 C235 C -0.06261 0.03039 0.52315
 C236 C -0.06571 0.01715 0.53407
 C237 C -0.05517 0.01483 0.54773
 C238 C -0.04173 0.02551 0.55049
 C239 C -0.03119 0.02313 0.56407
 C240 C -0.01773 0.03386 0.56687
 C241 C -0.01494 0.04712 0.55591
 H242 H -0.05466 0.05658 0.50469
 H243 H -0.01219 0.07116 0.53347
 H244 H -0.07047 0.03216 0.51243
 H245 H -0.05757 0.00485 0.55639
 H246 H -0.03333 0.01276 0.57233
 H247 H -0.00476 0.05561 0.55811
 C248 C 0.44829 0.54505 0.02809
 C249 C 0.45097 0.55862 0.01757
 C250 C 0.46454 0.56948 0.01992
 C251 C 0.47541 0.56626 0.03325
 C252 C 0.47282 0.55276 0.04391
 C253 C 0.45923 0.54211 0.04132
 C254 C 0.43487 0.53430 0.02548
 C255 C 0.43214 0.52067 0.03600
 C256 C 0.44306 0.51790 0.04925
 C257 C 0.45657 0.52851 0.05197
 C258 C 0.46744 0.52573 0.06519
 C259 C 0.48097 0.53637 0.06796
 C260 C 0.48357 0.54985 0.05722
 H261 H 0.44273 0.56018 0.00713
 H262 H 0.48558 0.57459 0.03593
 H263 H 0.42664 0.53642 0.01511
 H264 H 0.44093 0.50759 0.05759
 H265 H 0.46548 0.51515 0.07323
 H266 H 0.49384 0.55824 0.05938
 C267 C 0.54964 -0.04109 0.02628
 C268 C 0.54642 -0.05427 0.01539
 C269 C 0.53323 -0.06529 0.01838
 C270 C 0.52312 -0.06285 0.03237
 C271 C 0.52621 -0.04974 0.04338
 C272 C 0.53956 -0.03885 0.04037
 C273 C 0.56284 -0.03015 0.02333
 C274 C 0.56634 -0.01711 0.03442
 C275 C 0.55625 -0.01508 0.04851
 C276 C 0.54283 -0.02574 0.05147
 C277 C 0.53265 -0.02350 0.06538
 C278 C 0.51921 -0.03420 0.06837
 C279 C 0.51612 -0.04734 0.05732
 H280 H 0.55440 -0.05615 0.00475
 H281 H 0.51276 -0.07110 0.03463
 H282 H 0.57028 -0.03172 0.01227
 H283 H 0.55893 -0.00531 0.05734
 H284 H 0.53526 -0.01349 0.07398
 H285 H 0.50569 -0.05554 0.05945
 C286 C 1.05221 0.45488 0.52796
 C287 C 1.04951 0.44131 0.51741
 C288 C 1.03583 0.43056 0.51969
 C289 C 1.02494 0.43385 0.53303
 C290 C 1.02758 0.44730 0.54374
 C291 C 1.04123 0.45789 0.54118
 C292 C 1.06572 0.46554 0.52541
 C293 C 1.06845 0.47917 0.53595
 C294 C 1.05747 0.48203 0.54918
 C295 C 1.04390 0.47150 0.55186
 C296 C 1.03297 0.47436 0.56506
 C297 C 1.01941 0.46376 0.56780
 C298 C 1.01680 0.45027 0.55705
 H299 H 1.05779 0.43968 0.50699
 H300 H 1.01470 0.42558 0.53567
 H301 H 1.07426 0.46310 0.51533
 H302 H 1.05936 0.49262 0.55725
 H303 H 1.03518 0.48468 0.57339
 H304 H 1.00623 0.44218 0.55895
 C305 C 0.39987 0.00793 0.22857
 H306 H 0.40063 0.01902 0.23610
 C307 C 0.41086 0.00567 0.21541
 H308 H 0.42014 0.01505 0.21296
 C309 C 0.38717 -0.01800 0.22309
 H310 H 0.37806 -0.02730 0.22623
 C311 C 0.39790 -0.02077 0.20980
 H312 H 0.39668 -0.03207 0.20264
 N313 N 0.38821 -0.00374 0.23204
 C314 C 0.34853 0.02237 0.25775
 H315 H 0.34752 0.01490 0.26882
 C316 C 0.33779 0.03569 0.25534
 H317 H 0.32845 0.03832 0.26459
 C318 C 0.36163 0.02759 0.23199
 H319 H 0.37079 0.02429 0.22283
 C320 C 0.35115 0.04102 0.22908
 H321 H 0.35262 0.04812 0.21781
 Zn322 Zn 0.37408 0.00024 0.25035
 N323 N 0.36027 0.01870 0.24623
 C324 C 0.38651 0.01855 0.27783
 N325 N 0.38776 0.00426 0.26894
 C326 C 0.39929 -0.00738 0.27271
 C327 C 0.40993 -0.00506 0.28612
 C328 C 0.39690 0.02137 0.29135
 C329 C 0.34876 -0.02218 0.24249
 C330 C 0.33790 -0.03545 0.24487
 C331 C 0.35038 -0.04020 0.27161
 C332 C 0.36100 -0.02684 0.26871
 N333 N 0.36014 -0.01825 0.25426
 H334 H 0.37751 0.02782 0.27445
 H335 H 0.40022 -0.01849 0.26525
 H336 H 0.41912 -0.01443 0.28883
 H337 H 0.39552 0.03269 0.29844
 H338 H 0.34817 -0.01498 0.23121
 H339 H 0.32913 -0.03856 0.23522
 H340 H 0.35115 -0.04677 0.28326
 H341 H 0.36979 -0.02326 0.27812
 C342 C 0.33905 0.04525 0.24086
 C343 C 0.40993 -0.00882 0.20578
 C344 C 0.33865 -0.04469 0.25958
 C345 C 0.40879 0.00946 0.29568
 C346 C 0.09947 -0.00815 0.72813
 H347 H 0.09845 -0.01914 0.73575
 C348 C 0.08872 -0.00591 0.71481
 H349 H 0.07956 -0.01535 0.71211
 C350 C 0.11276 0.01743 0.72242
 H351 H 0.12195 0.02664 0.72558
 C352 C 0.10230 0.02015 0.70895
 H353 H 0.10357 0.03148 0.70187
 N354 N 0.11131 0.00335 0.73157
 C355 C 0.15097 -0.02235 0.75747
 H356 H 0.15209 -0.01463 0.76838
 C357 C 0.16182 -0.03560 0.75509
 H358 H 0.17135 -0.03790 0.76420
 C359 C 0.13754 -0.02824 0.73207
 H360 H 0.12820 -0.02523 0.72303
 C361 C 0.14807 -0.04165 0.72923
 H362 H 0.14644 -0.04902 0.71813
 Zn363 Zn 0.12519 -0.00050 0.75003
 N364 N 0.13905 -0.01901 0.74610
 C365 C 0.11263 -0.01857 0.77757
 N366 N 0.11130 -0.00441 0.76853
 C367 C 0.09952 0.00709 0.77205
 C368 C 0.08865 0.00472 0.78529
 C369 C 0.10201 -0.02144 0.79093
 C370 C 0.15087 0.02152 0.74238
 C371 C 0.16166 0.03488 0.74464
 C372 C 0.14818 0.04069 0.77074
 C373 C 0.13768 0.02719 0.76800
 N374 N 0.13907 0.01804 0.75390
 H375 H 0.12186 -0.02771 0.77441
 H376 H 0.09855 0.01810 0.76447
 H377 H 0.07924 0.01395 0.78776
 H378 H 0.10343 -0.03266 0.79811
 H379 H 0.15184 0.01391 0.73138
 H380 H 0.17079 0.03760 0.73520
 H381 H 0.14698 0.04776 0.78209
 H382 H 0.12852 0.02400 0.77721
 C383 C 0.16043 -0.04550 0.74082
 C384 C 0.09011 0.00837 0.70497
 C385 C 0.16035 0.04470 0.75896
 C386 C 0.08981 -0.00970 0.79495
 C387 C 0.59990 0.49189 0.22739
 H388 H 0.59894 0.48086 0.23494
 C389 C 0.58914 0.49415 0.21407
 H390 H 0.58005 0.48466 0.21130
 C391 C 0.61299 0.51762 0.22187
 H392 H 0.62208 0.52689 0.22512
 C393 C 0.60252 0.52035 0.20841
 H394 H 0.60370 0.53175 0.20143
 N395 N 0.61162 0.50348 0.23094
 C396 C 0.65109 0.47784 0.25725
 H397 H 0.65200 0.48551 0.26821
 C398 C 0.66189 0.46452 0.25508
 H399 H 0.67097 0.46187 0.26455
 C400 C 0.63805 0.47199 0.23163
 H401 H 0.62893 0.47509 0.22239
 C402 C 0.64855 0.45851 0.22899
 H403 H 0.64740 0.45137 0.21768
 Zn404 Zn 0.62542 0.49968 0.24948
 N405 N 0.63936 0.48121 0.24569
 C406 C 0.61285 0.48166 0.27705
 N407 N 0.61147 0.49577 0.26794
 C408 C 0.59965 0.50725 0.27142
 C409 C 0.58885 0.50495 0.28474
 C410 C 0.60234 0.47888 0.29051
 C411 C 0.65103 0.52184 0.24193
 C412 C 0.66175 0.53525 0.24425
 C413 C 0.64817 0.54094 0.27032
 C414 C 0.63775 0.52739 0.26752
 N415 N 0.63922 0.51828 0.25341
 H416 H 0.62202 0.47247 0.27386
 H417 H 0.59868 0.51826 0.26383
 H418 H 0.57971 0.51436 0.28747
 H419 H 0.60356 0.46753 0.29754
 H420 H 0.65207 0.51425 0.23092
 H421 H 0.67089 0.53805 0.23484
 H422 H 0.64689 0.54797 0.28168
 H423 H 0.62859 0.52413 0.27671
 C424 C 0.66066 0.45461 0.24082
 C425 C 0.59041 0.50852 0.20435
 C426 C 0.66035 0.54504 0.25858
 C427 C 0.59017 0.49063 0.29453
 C428 C 0.90104 0.50884 0.72793
 H429 H 0.90203 0.51993 0.73542
 C430 C 0.91178 0.50644 0.71458
 H431 H 0.92110 0.51573 0.71193
 C432 C 0.88801 0.48300 0.72273
 H433 H 0.87888 0.47379 0.72606
 C434 C 0.89849 0.48010 0.70927
 H435 H 0.89704 0.46879 0.70218
 N436 N 0.88935 0.49727 0.73164
 C437 C 0.85003 0.52326 0.75802
 H438 H 0.84917 0.51571 0.76906
 C439 C 0.83922 0.53655 0.75582
 H440 H 0.83019 0.53931 0.76534
 C441 C 0.86296 0.52880 0.73225
 H442 H 0.87202 0.52558 0.72295
 C443 C 0.85243 0.54225 0.72957
 H444 H 0.85353 0.54924 0.71818
 Zn445 Zn 0.87557 0.50125 0.75021
 N446 N 0.86170 0.51974 0.74639
 C447 C 0.88829 0.51940 0.77762
 N448 N 0.88953 0.50519 0.76861
 C449 C 0.90124 0.49363 0.77211
 C450 C 0.91208 0.49597 0.78537
 C451 C 0.89884 0.52222 0.79101
 C452 C 0.84990 0.47920 0.74271
 C453 C 0.83909 0.46587 0.74503
 C454 C 0.85242 0.46029 0.77118
 C455 C 0.86297 0.47373 0.76836
 N456 N 0.86165 0.48276 0.75421
 H457 H 0.87921 0.52865 0.77440
 H458 H 0.90210 0.48255 0.76460
 H459 H 0.92113 0.48649 0.78813
 H460 H 0.89774 0.53365 0.79797
 H461 H 0.84892 0.48678 0.73170
 H462 H 0.82974 0.46334 0.73578
 H463 H 0.85387 0.45308 0.78239
 H464 H 0.87216 0.47694 0.77752
 C465 C 0.84038 0.54628 0.74145
 C466 C 0.91057 0.49192 0.70502
 C467 C 0.84030 0.45617 0.75941
 C468 C 0.91091 0.51040 0.79506
 C469 C 0.22794 0.40195 0.00758
 H470 H 0.23572 0.40314 0.01841
 C471 C 0.21456 0.41266 0.00540
 H472 H 0.21223 0.42218 0.01456
 C473 C 0.22197 0.38840 -0.01778
 H474 H 0.22499 0.37905 -0.02687
 C475 C 0.20844 0.39880 -0.02043
 H476 H 0.20100 0.39707 -0.03143
 N477 N 0.23129 0.39002 -0.00385
 C478 C 0.25752 0.35056 0.02188
 H479 H 0.26848 0.34958 0.01423
 C480 C 0.25523 0.33972 0.03516
 H481 H 0.26448 0.33034 0.03759
 C482 C 0.23190 0.36365 0.02756
 H483 H 0.22274 0.37286 0.02446
 C484 C 0.22911 0.35307 0.04096
 H485 H 0.21794 0.35451 0.04823
 Zn486 Zn 0.24981 0.37620 -0.00007
 N487 N 0.24600 0.36232 0.01844
 C488 C 0.27741 0.38880 0.01781
 N489 N 0.26831 0.39015 0.00372
 C490 C 0.27180 0.40193 -0.00780
 C491 C 0.28512 0.41275 -0.00555
 C492 C 0.29088 0.39933 0.02053
 C493 C 0.24217 0.35034 -0.02189
 C494 C 0.24442 0.33945 -0.03516
 C495 C 0.27041 0.35304 -0.04118
 C496 C 0.26768 0.36365 -0.02777
 N497 N 0.25364 0.36224 -0.01855
 H498 H 0.27421 0.37966 0.02703
 H499 H 0.26421 0.40288 -0.01879
 H500 H 0.28786 0.42188 -0.01499
 H501 H 0.29791 0.39815 0.03187
 H502 H 0.23122 0.34935 -0.01422
 H503 H 0.23502 0.33023 -0.03777
 H504 H 0.28172 0.35426 -0.04829
 H505 H 0.27686 0.37289 -0.02468
 C506 C 0.24088 0.34091 0.04493
 C507 C 0.20456 0.41113 -0.00874
 C508 C 0.25869 0.34076 -0.04503
 C509 C 0.29490 0.41148 0.00875
 C510 C 0.71937 0.11095 -0.00923
 H511 H 0.72056 0.11829 -0.02035
 C512 C 0.70554 0.10074 -0.00713
 H513 H 0.69601 0.10048 -0.01655
 C514 C 0.73047 0.10188 0.01636
 H515 H 0.74041 0.10223 0.02531
 C516 C 0.71671 0.09175 0.01910
 H517 H 0.71608 0.08427 0.03021
 N518 N 0.73142 0.11142 0.00251
 C519 C 0.75873 0.13699 -0.03264
 H520 H 0.76875 0.12815 -0.03256
 C521 C 0.75669 0.14739 -0.04630
 H522 H 0.76516 0.14641 -0.05666
 C523 C 0.73595 0.14955 -0.01905
 H524 H 0.72794 0.15029 -0.00832
 C525 C 0.73354 0.16026 -0.03238
 H526 H 0.72351 0.16913 -0.03191
 Zn527 Zn 0.75062 0.12455 -0.00050
 N528 N 0.74829 0.13812 -0.01945
 C529 C 0.76799 0.09886 -0.01585
 N530 N 0.76867 0.10976 -0.00300
 C531 C 0.78153 0.10962 0.00786
 C532 C 0.79468 0.09863 0.00561
 C533 C 0.78089 0.08770 -0.01859
 C534 C 0.74202 0.14042 0.02978
 C535 C 0.74434 0.15134 0.04302
 C536 C 0.77077 0.15917 0.03133
 C537 C 0.76781 0.14833 0.01816
 N538 N 0.75381 0.13893 0.01781
 H539 H 0.75742 0.09895 -0.02406
 H540 H 0.78163 0.11795 0.01833
 H541 H 0.80498 0.09895 0.01417
 H542 H 0.78012 0.07915 -0.02891
 H543 H 0.73071 0.13333 0.02900
 H544 H 0.73492 0.15231 0.05253
 H545 H 0.78205 0.16644 0.03154
 H546 H 0.77675 0.14728 0.00823
 C547 C 0.74396 0.15923 -0.04627
 C548 C 0.70407 0.09108 0.00723
 C549 C 0.75894 0.16073 0.04397
 C550 C 0.79454 0.08757 -0.00785
 C551 C 0.21834 0.61120 0.49354
 H552 H 0.21781 0.62035 0.48381
 C553 C 0.20489 0.60059 0.49605
 H554 H 0.19400 0.60194 0.48838
 C555 C 0.23313 0.59828 0.51529
 H556 H 0.24429 0.59738 0.52261
 C557 C 0.21997 0.58743 0.51822
 H558 H 0.22115 0.57811 0.52778
 N559 N 0.23204 0.60998 0.50323
 C560 C 0.25664 0.63618 0.46726
 H561 H 0.26630 0.62697 0.46669
 C562 C 0.25407 0.64662 0.45373
 H563 H 0.26181 0.64531 0.44285
 C564 C 0.23526 0.64956 0.48229
 H565 H 0.22803 0.65063 0.49353
 C566 C 0.23233 0.66032 0.46908
 H567 H 0.22267 0.66953 0.47017
 Zn568 Zn 0.25059 0.62393 0.49976
 N569 N 0.24715 0.63770 0.48111
 C570 C 0.26810 0.59822 0.48447
 N571 N 0.26918 0.61008 0.49640
 C572 C 0.28289 0.61153 0.50605
 C573 C 0.29638 0.60100 0.50361
 C574 C 0.28129 0.58743 0.48161
 C575 C 0.24448 0.63653 0.53214
 C576 C 0.24701 0.64714 0.54559
 C577 C 0.26869 0.66083 0.53012
 C578 C 0.26581 0.64991 0.51701
 N579 N 0.25397 0.63796 0.51828
 H580 H 0.25692 0.59714 0.47718
 H581 H 0.28342 0.62081 0.51568
 H582 H 0.30729 0.60253 0.51124
 H583 H 0.28012 0.57798 0.47214
 H584 H 0.23486 0.62725 0.53279
 H585 H 0.23928 0.64588 0.55648
 H586 H 0.27833 0.67011 0.52897
 H587 H 0.27304 0.65090 0.50576
 C588 C 0.24177 0.65888 0.45454
 C589 C 0.20558 0.58852 0.50855
 C590 C 0.25927 0.65947 0.54468
 C591 C 0.29570 0.58876 0.49123
 C592 C 0.72488 0.90044 0.50901
 H593 H 0.73185 0.90104 0.52043
 C594 C 0.71131 0.91086 0.50672
 H595 H 0.70776 0.91925 0.51658
 C596 C 0.72112 0.88873 0.48235
 H597 H 0.72510 0.88026 0.47278
 C598 C 0.70745 0.89893 0.47955
 H599 H 0.70110 0.89822 0.46777
 N600 N 0.72953 0.88963 0.49691
 C601 C 0.75633 0.84967 0.52173
 H602 H 0.76677 0.84813 0.51352
 C603 C 0.75424 0.83873 0.53497
 H604 H 0.76326 0.82902 0.53691
 C605 C 0.73127 0.86327 0.52842
 H606 H 0.72209 0.87255 0.52571
 C607 C 0.72869 0.85261 0.54178
 H608 H 0.71776 0.85419 0.54940
 Zn609 Zn 0.74848 0.87609 0.50032
 N610 N 0.74507 0.86184 0.51883
 C611 C 0.76591 0.90662 0.50260
 N612 N 0.76743 0.88986 0.50375
 C613 C 0.78240 0.88278 0.50680
 C614 C 0.79646 0.89263 0.50909
 C615 C 0.77961 0.91692 0.50496
 C616 C 0.74143 0.84965 0.47893
 C617 C 0.74367 0.83911 0.46539
 C618 C 0.76748 0.85541 0.45732
 C619 C 0.76478 0.86565 0.47102
 N620 N 0.75195 0.86257 0.48151
 H621 H 0.75412 0.91213 0.49970
 H622 H 0.78357 0.86948 0.50715
 H623 H 0.80827 0.88668 0.51120
 H624 H 0.77795 0.93022 0.50431
 H625 H 0.73136 0.84748 0.48751
 H626 H 0.73533 0.82872 0.46370
 H627 H 0.77765 0.85814 0.44902
 H628 H 0.77288 0.87610 0.47320
 C629 C 0.74029 0.84016 0.54525
 C630 C 0.70243 0.91023 0.49181
 C631 C 0.75688 0.84189 0.45439
 C632 C 0.79518 0.90997 0.50824
 C633 C 0.00744 0.22731 0.40007
 H634 H 0.01829 0.23513 0.40113
 C635 C 0.00536 0.21388 0.41076
 H636 H 0.01479 0.21129 0.41990
 C637 C -0.01797 0.22120 0.38675
 H638 H -0.02715 0.22424 0.37755
 C639 C -0.02052 0.20760 0.39715
 H640 H -0.03171 0.20031 0.39584
 N641 N -0.00407 0.23062 0.38827
 C642 C 0.02139 0.25720 0.34874
 H643 H 0.01372 0.26814 0.34782
 C644 C 0.03464 0.25501 0.33784
 H645 H 0.03703 0.26430 0.32846
 C646 C 0.02716 0.23155 0.36175
 H647 H 0.02411 0.22233 0.37095
 C648 C 0.04052 0.22885 0.35111
 H649 H 0.04782 0.21769 0.35250
 Zn650 Zn -0.00042 0.24929 0.37455
 N651 N 0.01801 0.24563 0.36051
 C652 C 0.01733 0.27714 0.38698
 N653 N 0.00343 0.26773 0.38858
 C654 C -0.00784 0.27085 0.40070
 C655 C -0.00550 0.28405 0.41167
 C656 C 0.02014 0.29050 0.39764
 C657 C -0.02218 0.24188 0.34868
 C658 C -0.03538 0.24428 0.33781
 C659 C -0.04174 0.26985 0.35206
 C660 C -0.02837 0.26700 0.36261
 N661 N -0.01899 0.25312 0.36083
 H662 H 0.02631 0.27431 0.37749
 H663 H -0.01864 0.26299 0.40188
 H664 H -0.01454 0.28617 0.42135
 H665 H 0.03113 0.29801 0.39594
 H666 H -0.01434 0.23109 0.34736
 H667 H -0.03752 0.23530 0.32806
 H668 H -0.04921 0.28083 0.35387
 H669 H -0.02549 0.27593 0.37215
 C670 C 0.04444 0.24068 0.33896
 C671 C -0.00875 0.20378 0.40934
 C672 C -0.04539 0.25842 0.33942
 C673 C 0.00863 0.29412 0.41020
 C674 C -0.00658 0.71733 0.11406
 H675 H -0.01646 0.71702 0.12307
 C676 C -0.00406 0.70365 0.10372
 H677 H -0.01202 0.69290 0.10492
 C678 C 0.01541 0.73184 0.10105
 H679 H 0.02290 0.74293 0.10010
 C680 C 0.01824 0.71853 0.09036
 H681 H 0.02808 0.71937 0.08127
 N682 N 0.00322 0.73100 0.11265
 C683 C -0.03193 0.75745 0.13899
 H684 H -0.03208 0.76737 0.13003
 C685 C -0.04549 0.75527 0.14953
 H686 H -0.05609 0.76336 0.14830
 C687 C -0.01797 0.73497 0.15160
 H688 H -0.00708 0.72723 0.15242
 C689 C -0.03127 0.73231 0.16234
 H690 H -0.03049 0.72253 0.17147
 Zn691 Zn 0.00002 0.74998 0.12608
 N692 N -0.01862 0.74721 0.14006
 C693 C -0.01562 0.76714 0.10048
 N694 N -0.00306 0.76820 0.11162
 C695 C 0.00726 0.78155 0.11188
 C696 C 0.00482 0.79474 0.10098
 C697 C -0.01851 0.78004 0.08934
 C698 C 0.03123 0.74224 0.14010
 C699 C 0.04466 0.74451 0.15073
 C700 C 0.03189 0.76964 0.16082
 C701 C 0.01858 0.76673 0.15019
 N702 N 0.01861 0.75337 0.13991
 H703 H -0.02342 0.75622 0.10028
 H704 H 0.01747 0.78200 0.12047
 H705 H 0.01297 0.80538 0.10162
 H706 H -0.02853 0.77889 0.08052
 H707 H 0.03079 0.73142 0.13221
 H708 H 0.05435 0.73528 0.15090
 H709 H 0.03178 0.78065 0.16848
 H710 H 0.00824 0.77522 0.15001
 C711 C -0.04530 0.74250 0.16133
 C712 C 0.00846 0.70419 0.09166
 C713 C 0.04520 0.75843 0.16124
 C714 C -0.00826 0.79412 0.08955
 C715 C 0.49294 0.22850 0.60102
 H716 H 0.48200 0.23616 0.60011
 C717 C 0.49508 0.21515 0.59021
 H718 H 0.48576 0.21268 0.58091
 C719 C 0.51862 0.22285 0.61394
 H720 H 0.52786 0.22598 0.62307
 C721 C 0.52126 0.20937 0.60338
 H722 H 0.53241 0.20208 0.60475
 N723 N 0.50455 0.23199 0.61269
 C724 C 0.47857 0.25850 0.65197
 H725 H 0.48599 0.26966 0.65275
 C726 C 0.46518 0.25626 0.66270
 H727 H 0.46223 0.26589 0.67157
 C728 C 0.47344 0.23246 0.63934
 H729 H 0.47685 0.22307 0.63043
 C730 C 0.45996 0.22970 0.64983
 H731 H 0.45315 0.21817 0.64885
 Zn732 Zn 0.50083 0.25055 0.62655
 N733 N 0.48231 0.24677 0.64045
 C734 C 0.48302 0.27816 0.61384
 N735 N 0.49711 0.26903 0.61260
 C736 C 0.50869 0.27241 0.60084
 C737 C 0.50651 0.28565 0.58994
 C738 C 0.48036 0.29155 0.60323
 C739 C 0.52264 0.24284 0.65225
 C740 C 0.53599 0.24500 0.66300
 C741 C 0.54221 0.27092 0.64936
 C742 C 0.52870 0.26829 0.63891
 N743 N 0.51935 0.25433 0.64040
 H744 H 0.47374 0.27503 0.62295
 H745 H 0.51967 0.26480 0.59996
 H746 H 0.51599 0.28830 0.58082
 H747 H 0.46901 0.29859 0.60431
 H748 H 0.51483 0.23198 0.65334
 H749 H 0.53827 0.23578 0.67245
 H750 H 0.54969 0.28195 0.64773
 H751 H 0.52573 0.27743 0.62963
 C752 C 0.45564 0.24172 0.66168
 C753 C 0.50939 0.20535 0.59133
 C754 C 0.54603 0.25918 0.66161
 C755 C 0.49220 0.29545 0.59108
 C756 C 0.50693 0.72944 0.90111
 H757 H 0.51771 0.73733 0.90221
 C758 C 0.50469 0.71624 0.91207
 H759 H 0.51378 0.71416 0.92167
 C760 C 0.48171 0.72305 0.88758
 H761 H 0.47268 0.72584 0.87816
 C762 C 0.47900 0.70968 0.89823
 H763 H 0.46803 0.70213 0.89661
 N764 N 0.49558 0.73250 0.88908
 C765 C 0.52151 0.75853 0.84946
 H766 H 0.51382 0.76943 0.84830
 C767 C 0.53491 0.75624 0.83876
 H768 H 0.53738 0.76541 0.82930
 C769 C 0.52718 0.73306 0.86288
 H770 H 0.52404 0.72396 0.87217
 C771 C 0.54069 0.73027 0.85245
 H772 H 0.54800 0.71916 0.85407
 Zn773 Zn 0.49938 0.75092 0.87505
 N774 N 0.51801 0.74709 0.86132
 C775 C 0.51692 0.77898 0.88736
 N776 N 0.50297 0.76962 0.88880
 C777 C 0.49137 0.77303 0.90053
 C778 C 0.49339 0.78651 0.91120
 C779 C 0.51942 0.79262 0.89775
 C780 C 0.47758 0.74284 0.84933
 C781 C 0.46434 0.74497 0.83845
 C782 C 0.45849 0.77123 0.85162
 C783 C 0.47184 0.76860 0.86224
 N784 N 0.48097 0.75449 0.86103
 H785 H 0.52621 0.77586 0.87825
 H786 H 0.48048 0.76525 0.90153
 H787 H 0.48389 0.78917 0.92029
 H788 H 0.53065 0.79986 0.89650
 H789 H 0.48524 0.73188 0.84843
 H790 H 0.46194 0.73561 0.82912
 H791 H 0.45121 0.78241 0.85298
 H792 H 0.47490 0.77788 0.87138
 C793 C 0.54473 0.74196 0.84019
 C794 C 0.49058 0.70611 0.91069
 C795 C 0.45456 0.75932 0.83953
 C796 C 0.50755 0.79655 0.90985
 C797 C 0.14034 0.22259 0.26259
 C798 C 0.15006 0.23601 0.25717
 C799 C 0.16349 0.23343 0.24655
 C800 C 0.16754 0.21738 0.24114
 C801 C 0.15785 0.20395 0.24656
 C802 C 0.14439 0.20652 0.25715
 C803 C 0.12606 0.22531 0.27384
 N804 N 0.11632 0.21244 0.27865
 N805 N 0.10351 0.21487 0.28876
 C806 C 0.09989 0.23029 0.29451
 N807 N 0.10963 0.24316 0.28970
 N808 N 0.12244 0.24073 0.27958
 C809 C 0.08565 0.23298 0.30581
 C810 C 0.08232 0.24883 0.31228
 C811 C 0.06895 0.25133 0.32299
 C812 C 0.05859 0.23805 0.32750
 C813 C 0.06189 0.22222 0.32100
 C814 C 0.07526 0.21971 0.31029
 H815 H 0.14732 0.24854 0.26113
 H816 H 0.17085 0.24400 0.24273
 H817 H 0.16054 0.19146 0.24244
 H818 H 0.13717 0.19590 0.26104
 H819 H 0.09008 0.25932 0.30914
 H820 H 0.06686 0.26363 0.32796
 H821 H 0.05400 0.21178 0.32402
 H822 H 0.07741 0.20735 0.30550
 C823 C 0.64100 0.72343 0.76437
 C824 C 0.65067 0.73685 0.75881
 C825 C 0.66408 0.73423 0.74818
 C826 C 0.66817 0.71815 0.74288
 C827 C 0.65854 0.70473 0.74844
 C828 C 0.64511 0.70734 0.75904
 C829 C 0.62674 0.72620 0.77562
 N830 N 0.61705 0.71333 0.78055
 N831 N 0.60423 0.71580 0.79064
 C832 C 0.60054 0.73126 0.79624
 N833 N 0.61023 0.74412 0.79131
 N834 N 0.62305 0.74165 0.78121
 C835 C 0.58626 0.73400 0.80748
 C836 C 0.58282 0.74991 0.81374
 C837 C 0.56937 0.75248 0.82434
 C838 C 0.55903 0.73922 0.82892
 C839 C 0.56245 0.72333 0.82265
 C840 C 0.57590 0.72074 0.81206
 H841 H 0.64790 0.74940 0.76268
 H842 H 0.67139 0.74479 0.74425
 H843 H 0.66127 0.69222 0.74440
 H844 H 0.63793 0.69672 0.76303
 H845 H 0.59056 0.76040 0.81052
 H846 H 0.56720 0.76484 0.82913
 H847 H 0.55458 0.71289 0.82575
 H848 H 0.57813 0.70834 0.80743
 C849 C 0.35882 0.77725 0.76327
 C850 C 0.34908 0.76384 0.75782
 C851 C 0.33572 0.76643 0.74716
 C852 C 0.33176 0.78248 0.74174
 C853 C 0.34146 0.79589 0.74720
 C854 C 0.35484 0.79331 0.75783
 C855 C 0.37305 0.77453 0.77452
 N856 N 0.38281 0.78739 0.77931
 N857 N 0.39560 0.78497 0.78941
 C858 C 0.39917 0.76957 0.79517
 N859 N 0.38941 0.75670 0.79039
 N860 N 0.37663 0.75912 0.78028
 C861 C 0.41339 0.76691 0.80645
 C862 C 0.41669 0.75109 0.81295
 C863 C 0.43005 0.74862 0.82364
 C864 C 0.44043 0.76190 0.82808
 C865 C 0.43716 0.77770 0.82154
 C866 C 0.42381 0.78018 0.81086
 H867 H 0.35177 0.75131 0.76179
 H868 H 0.32836 0.75588 0.74331
 H869 H 0.33883 0.80838 0.74307
 H870 H 0.36207 0.80393 0.76173
 H871 H 0.40891 0.74059 0.80986
 H872 H 0.43210 0.73634 0.82863
 H873 H 0.44507 0.78814 0.82452
 H874 H 0.42170 0.79251 0.80604
 C875 C -0.13967 0.27788 0.26170
 C876 C -0.14684 0.26465 0.25295
 C877 C -0.16011 0.26733 0.24222
 C878 C -0.16680 0.28335 0.23997
 C879 C -0.15945 0.29658 0.24884
 C880 C -0.14609 0.29387 0.25946
 C881 C -0.12564 0.27500 0.27316
 N882 N -0.11744 0.28794 0.28017
 N883 N -0.10488 0.28534 0.29051
 C884 C -0.10000 0.26970 0.29431
 N885 N -0.10821 0.25675 0.28731
 N886 N -0.12074 0.25935 0.27694
 C887 C -0.08605 0.26681 0.30586
 C888 C -0.08238 0.25073 0.31144
 C889 C -0.06926 0.24802 0.32235
 C890 C -0.05943 0.26131 0.32789
 C891 C -0.06308 0.27739 0.32228
 C892 C -0.07626 0.28011 0.31144
 H893 H -0.14225 0.25214 0.25444
 H894 H -0.16550 0.25656 0.23632
 H895 H -0.16350 0.30924 0.24721
 H896 H -0.14079 0.30439 0.26592
 H897 H -0.08973 0.24020 0.30747
 H898 H -0.06695 0.23551 0.32662
 H899 H -0.05560 0.28787 0.32608
 H900 H -0.07867 0.29265 0.30732
 C901 C -0.14214 0.72417 0.23647
 C902 C -0.14951 0.73749 0.24488
 C903 C -0.16297 0.73490 0.25547
 C904 C -0.16959 0.71886 0.25797
 C905 C -0.16209 0.70555 0.24937
 C906 C -0.14860 0.70818 0.23885
 C907 C -0.12779 0.72692 0.22532
 N908 N -0.12017 0.71394 0.21777
 N909 N -0.10726 0.71639 0.20778
 C910 C -0.10142 0.73193 0.20490
 N911 N -0.10905 0.74491 0.21243
 N912 N -0.12195 0.74246 0.22244
 C913 C -0.08704 0.73465 0.19377
 C914 C -0.08150 0.75080 0.19017
 C915 C -0.06798 0.75335 0.17965
 C916 C -0.05965 0.73982 0.17253
 C917 C -0.06515 0.72368 0.17615
 C918 C -0.07870 0.72113 0.18662
 H919 H -0.14495 0.75002 0.24323
 H920 H -0.16849 0.74574 0.26110
 H921 H -0.16606 0.69287 0.25119
 H922 H -0.14315 0.69759 0.23267
 H923 H -0.08761 0.76151 0.19547
 H924 H -0.06391 0.76592 0.17725
 H925 H -0.05910 0.71301 0.17069
 H926 H -0.08262 0.70852 0.18909
 C927 C 0.35940 0.22278 0.73749
 C928 C 0.35994 0.22812 0.75402
 C929 C 0.34651 0.22545 0.76463
 C930 C 0.33205 0.21727 0.75907
 C931 C 0.33169 0.21191 0.74239
 C932 C 0.34512 0.21465 0.73181
 C933 C 0.37365 0.22566 0.72624
 N934 N 0.37304 0.22080 0.71013
 N935 N 0.38583 0.22338 0.70003
 C936 C 0.39981 0.23092 0.70560
 N937 N 0.40043 0.23578 0.72170
 N938 N 0.38763 0.23321 0.73180
 C939 C 0.41407 0.23376 0.69435
 C940 C 0.42870 0.24114 0.70026
 C941 C 0.44216 0.24375 0.68967
 C942 C 0.44131 0.23904 0.67292
 C943 C 0.42668 0.23169 0.66701
 C944 C 0.41322 0.22908 0.67759
 H945 H 0.37081 0.23430 0.75888
 H946 H 0.34794 0.22927 0.77738
 H947 H 0.32081 0.20618 0.73710
 H948 H 0.34421 0.21048 0.71909
 H949 H 0.42982 0.24486 0.71310
 H950 H 0.45334 0.24923 0.69466
 H951 H 0.42554 0.22813 0.65413
 H952 H 0.40214 0.22342 0.67260
 C953 C 0.64287 0.27672 0.73674
 C954 C 0.65057 0.26329 0.74460
 C955 C 0.66408 0.26581 0.75511
 C956 C 0.67045 0.28189 0.75801
 C957 C 0.66262 0.29530 0.74995
 C958 C 0.64905 0.29274 0.73956
 C959 C 0.62847 0.27406 0.72567
 N960 N 0.61992 0.28714 0.71949
 N961 N 0.60699 0.28478 0.70955
 C962 C 0.60206 0.26923 0.70532
 N963 N 0.61061 0.25614 0.71149
 N964 N 0.62353 0.25850 0.72146
 C965 C 0.58769 0.26663 0.69421
 C966 C 0.58377 0.25070 0.68828
 C967 C 0.57028 0.24829 0.67771
 C968 C 0.56035 0.26173 0.67288
 C969 C 0.56423 0.27764 0.67887
 C970 C 0.57776 0.28007 0.68938
 H971 H 0.64619 0.25074 0.74263
 H972 H 0.66984 0.25493 0.76036
 H973 H 0.66641 0.30799 0.75212
 H974 H 0.64335 0.30341 0.73379
 H975 H 0.59119 0.24008 0.69168
 H976 H 0.56779 0.23591 0.67313
 H977 H 0.55669 0.28823 0.67562
 H978 H 0.58035 0.29249 0.69378
 C979 C 0.14087 0.77706 0.23745
 C980 C 0.15259 0.76449 0.24012
 C981 C 0.16587 0.76709 0.25091
 C982 C 0.16783 0.78240 0.25897
 C983 C 0.15623 0.79502 0.25619
 C984 C 0.14278 0.79232 0.24565
 C985 C 0.12672 0.77426 0.22618
 N986 N 0.11275 0.78352 0.22755
 N987 N 0.09998 0.78097 0.21745
 C988 C 0.10070 0.76916 0.20546
 N989 N 0.11469 0.75994 0.20405
 N990 N 0.12741 0.76240 0.21424
 C991 C 0.08655 0.76639 0.19419
 C992 C 0.08891 0.75879 0.17872
 C993 C 0.07556 0.75634 0.16799
 C994 C 0.05946 0.76117 0.17261
 C995 C 0.05714 0.76864 0.18821
 C996 C 0.07054 0.77135 0.19880
 H997 H 0.15141 0.75258 0.23402
 H998 H 0.17473 0.75722 0.25282
 H999 H 0.15746 0.80689 0.26236
 H1000 H 0.13399 0.80226 0.24379
 H1001 H 0.10114 0.75498 0.17476
 H1002 H 0.07793 0.75087 0.15598
 H1003 H 0.04492 0.77221 0.19239
 H1004 H 0.06831 0.77710 0.21073
 C1005 C 0.26321 0.14124 0.22187
 C1006 C 0.25770 0.15100 0.23523
 C1007 C 0.24705 0.16437 0.23258
 C1008 C 0.24169 0.16832 0.21652
 C1009 C 0.24721 0.15860 0.20316
 C1010 C 0.25782 0.14520 0.20581
 C1011 C 0.27446 0.12702 0.22469
 N1012 N 0.27929 0.11716 0.21191
 N1013 N 0.28938 0.10438 0.21444
 C1014 C 0.29510 0.10089 0.22985
 N1015 N 0.29028 0.11075 0.24263
 N1016 N 0.28018 0.12353 0.24010
 C1017 C 0.30633 0.08665 0.23267
 C1018 C 0.31279 0.08350 0.24851
 C1019 C 0.32338 0.07009 0.25116
 C1020 C 0.32777 0.05950 0.23804
 C1021 C 0.32132 0.06264 0.22220
 C1022 C 0.31073 0.07606 0.21954
 H1023 H 0.26161 0.14834 0.24776
 H1024 H 0.24316 0.17176 0.24309
 H1025 H 0.24313 0.16122 0.19067
 H1026 H 0.26178 0.13794 0.19523
 H1027 H 0.30972 0.09143 0.25890
 H1028 H 0.32833 0.06815 0.26346
 H1029 H 0.32427 0.05458 0.21188
 H1030 H 0.30595 0.07807 0.20719
 C1031 C 0.76395 0.64197 0.72356
 C1032 C 0.74679 0.64011 0.72581
 C1033 C 0.73610 0.65345 0.72318
 C1034 C 0.74231 0.66898 0.71828
 C1035 C 0.75947 0.67086 0.71607
 C1036 C 0.77016 0.65752 0.71866
 C1037 C 0.77529 0.62780 0.72627
 N1038 N 0.79176 0.62928 0.72320
 N1039 N 0.80195 0.61654 0.72559
 C1040 C 0.79610 0.60176 0.73118
 N1041 N 0.77963 0.60028 0.73426
 N1042 N 0.76945 0.61302 0.73185
 C1043 C 0.80744 0.58757 0.73383
 C1044 C 0.80150 0.57257 0.74045
 C1045 C 0.81219 0.55921 0.74295
 C1046 C 0.82904 0.56050 0.73884
 C1047 C 0.83498 0.57546 0.73219
 C1048 C 0.82432 0.58886 0.72974
 H1049 H 0.74156 0.62831 0.72951
 H1050 H 0.72292 0.65154 0.72477
 H1051 H 0.76466 0.68272 0.71252
 H1052 H 0.78331 0.65943 0.71688
 H1053 H 0.78858 0.57113 0.74371
 H1054 H 0.80720 0.54776 0.74790
 H1055 H 0.84795 0.57689 0.72908
 H1056 H 0.82933 0.60022 0.72464
 C1057 C 0.76446 0.35967 0.77761
 C1058 C 0.75914 0.35545 0.79365
 C1059 C 0.74867 0.34186 0.79618
 C1060 C 0.74324 0.33222 0.78274
 C1061 C 0.74850 0.33646 0.76670
 C1062 C 0.75901 0.35001 0.76416
 C1063 C 0.77564 0.37403 0.77491
 N1064 N 0.78133 0.37774 0.75951
 N1065 N 0.79141 0.39060 0.75709
 C1066 C 0.79622 0.40033 0.76996
 N1067 N 0.79052 0.39664 0.78536
 N1068 N 0.78045 0.38377 0.78778
 C1069 C 0.80747 0.41464 0.76726
 C1070 C 0.81189 0.42511 0.78049
 C1071 C 0.82251 0.43857 0.77794
 C1072 C 0.82898 0.44189 0.76212
 C1073 C 0.82456 0.43143 0.74889
 C1074 C 0.81393 0.41798 0.75143
 H1075 H 0.76306 0.36262 0.80429
 H1076 H 0.74466 0.33901 0.80866
 H1077 H 0.74468 0.32914 0.75612
 H1078 H 0.76287 0.35288 0.75164
 H1079 H 0.80711 0.42295 0.79283
 H1080 H 0.82549 0.44652 0.78834
 H1081 H 0.82951 0.43351 0.73660
 H1082 H 0.81085 0.41016 0.74097
 C1083 C 0.26178 -0.14000 0.27963
 C1084 C 0.24521 -0.13935 0.27450
 C1085 C 0.23458 -0.15279 0.27711
 C1086 C 0.24016 -0.16739 0.28501
 C1087 C 0.25686 -0.16783 0.29021
 C1088 C 0.26745 -0.15438 0.28754
 C1089 C 0.27313 -0.12581 0.27668
 N1090 N 0.28922 -0.12654 0.28146
 N1091 N 0.29944 -0.11386 0.27874
 C1092 C 0.29403 -0.09988 0.27113
 N1093 N 0.27793 -0.09914 0.26635
 N1094 N 0.26770 -0.11183 0.26906
 C1095 C 0.30544 -0.08577 0.26810
 C1096 C 0.29977 -0.07121 0.26043
 C1097 C 0.31054 -0.05791 0.25763
 C1098 C 0.32722 -0.05886 0.26244
 C1099 C 0.33289 -0.07342 0.27007
 C1100 C 0.32214 -0.08672 0.27287
 H1101 H 0.24037 -0.12839 0.26850
 H1102 H 0.22181 -0.15130 0.27342
 H1103 H 0.26217 -0.17880 0.29571
 H1104 H 0.28019 -0.15538 0.29155
 H1105 H 0.28698 -0.07003 0.25664
 H1106 H 0.30573 -0.04678 0.25192
 H1107 H 0.34573 -0.07462 0.27371
 H1108 H 0.32696 -0.09775 0.27875
 C1109 C 0.23703 -0.14099 0.72172
 C1110 C 0.24523 -0.14852 0.73503
 C1111 C 0.25596 -0.16184 0.73239
 C1112 C 0.25877 -0.16820 0.71631
 C1113 C 0.25039 -0.16055 0.70301
 C1114 C 0.23977 -0.14715 0.70568
 C1115 C 0.22570 -0.12682 0.72455
 N1116 N 0.21920 -0.11832 0.71160
 N1117 N 0.20903 -0.10558 0.71415
 C1118 C 0.20488 -0.10083 0.72976
 N1119 N 0.21137 -0.10935 0.74271
 N1120 N 0.22157 -0.12205 0.74016
 C1121 C 0.19354 -0.08667 0.73259
 C1122 C 0.18768 -0.08302 0.74859
 C1123 C 0.17694 -0.06972 0.75125
 C1124 C 0.17185 -0.05967 0.73799
 C1125 C 0.17776 -0.06328 0.72200
 C1126 C 0.18844 -0.07664 0.71933
 H1127 H 0.24334 -0.14417 0.74758
 H1128 H 0.26144 -0.16749 0.74320
 H1129 H 0.25244 -0.16435 0.69032
 H1130 H 0.23373 -0.14158 0.69511
 H1131 H 0.19128 -0.09054 0.75908
 H1132 H 0.17243 -0.06744 0.76368
 H1133 H 0.17431 -0.05564 0.71155
 H1134 H 0.19278 -0.07902 0.70686
 C1135 C 0.73685 0.35860 0.22303
 C1136 C 0.73061 0.34295 0.21849
 C1137 C 0.74130 0.32962 0.21578
 C1138 C 0.75850 0.33162 0.21749
 C1139 C 0.76474 0.34724 0.22206
 C1140 C 0.75405 0.36057 0.22481
 C1141 C 0.72552 0.37279 0.22580
 N1142 N 0.73143 0.38766 0.23110
 N1143 N 0.72127 0.40043 0.23352
 C1144 C 0.70477 0.39889 0.23073
 N1145 N 0.69886 0.38402 0.22543
 N1146 N 0.70901 0.37125 0.22303
 C1147 C 0.69347 0.41314 0.23335
 C1148 C 0.67656 0.41183 0.22944
 C1149 C 0.66594 0.42528 0.23184
 C1150 C 0.67195 0.44033 0.23826
 C1151 C 0.68883 0.44164 0.24221
 C1152 C 0.69948 0.42822 0.23976
 H1153 H 0.71743 0.34096 0.21708
 H1154 H 0.73609 0.31768 0.21250
 H1155 H 0.77794 0.34925 0.22325
 H1156 H 0.75931 0.37245 0.22822
 H1157 H 0.67150 0.40041 0.22451
 H1158 H 0.65295 0.42384 0.22886
 H1159 H 0.69387 0.45314 0.24699
 H1160 H 0.71242 0.42968 0.24288
 C1161 C 0.73581 0.64170 0.27737
 C1162 C 0.72941 0.65720 0.28213
 C1163 C 0.73996 0.67071 0.28472
 C1164 C 0.75715 0.66905 0.28266
 C1165 C 0.76355 0.65355 0.27794
 C1166 C 0.75301 0.64004 0.27531
 C1167 C 0.72462 0.62736 0.27457
 N1168 N 0.73065 0.61263 0.26908
 N1169 N 0.72060 0.59977 0.26654
 C1170 C 0.70408 0.60107 0.26941
 N1171 N 0.69805 0.61579 0.27491
 N1172 N 0.70810 0.62867 0.27742
 C1173 C 0.69289 0.58673 0.26660
 C1174 C 0.67595 0.58784 0.27045
 C1175 C 0.66541 0.57432 0.26787
 C1176 C 0.67155 0.55939 0.26131
 C1177 C 0.68847 0.55828 0.25742
 C1178 C 0.69902 0.57178 0.26006
 H1179 H 0.71623 0.65895 0.28377
 H1180 H 0.73462 0.68254 0.28813
 H1181 H 0.77676 0.65181 0.27647
 H1182 H 0.75838 0.62828 0.27172
 H1183 H 0.67078 0.59916 0.27548
 H1184 H 0.65240 0.57562 0.27080
 H1185 H 0.69360 0.54688 0.25254
 H1186 H 0.71200 0.57047 0.25698
 C1187 C 0.23653 0.14086 0.77741
 C1188 C 0.23027 0.15639 0.78226
 C1189 C 0.24093 0.16980 0.78493
 C1190 C 0.25811 0.16800 0.78285
 C1191 C 0.26437 0.15248 0.77800
 C1192 C 0.25372 0.13908 0.77529
 C1193 C 0.22523 0.12662 0.77460
 N1194 N 0.23113 0.11185 0.76908
 N1195 N 0.22098 0.09906 0.76659
 C1196 C 0.20449 0.10047 0.76952
 N1197 N 0.19858 0.11524 0.77504
 N1198 N 0.20873 0.12804 0.77752
 C1199 C 0.19319 0.08620 0.76679
 C1200 C 0.17627 0.08743 0.77070
 C1201 C 0.16564 0.07397 0.76818
 C1202 C 0.17166 0.05899 0.76163
 C1203 C 0.18855 0.05776 0.75768
 C1204 C 0.19920 0.07120 0.76025
 H1205 H 0.21711 0.15824 0.78394
 H1206 H 0.23570 0.18165 0.78844
 H1207 H 0.27756 0.15063 0.77652
 H1208 H 0.25898 0.12730 0.77163
 H1209 H 0.17119 0.09879 0.77572
 H1210 H 0.15264 0.07535 0.77116
 H1211 H 0.19360 0.04632 0.75281
 H1212 H 0.21216 0.06980 0.75712
 C1213 C 0.22232 0.26398 0.14026
 C1214 C 0.23567 0.25853 0.14998
 C1215 C 0.23304 0.24781 0.16331
 C1216 C 0.21700 0.24232 0.16726
 C1217 C 0.20366 0.24775 0.15757
 C1218 C 0.20628 0.25844 0.14421
 C1219 C 0.22510 0.27536 0.12611
 N1220 N 0.21230 0.28022 0.11638
 N1221 N 0.21478 0.29045 0.10368
 C1222 C 0.23017 0.29628 0.10016
 N1223 N 0.24297 0.29143 0.10989
 N1224 N 0.24049 0.28119 0.12258
 C1225 C 0.23292 0.30769 0.08603
 C1226 C 0.24876 0.31420 0.08277
 C1227 C 0.25133 0.32496 0.06946
 C1228 C 0.23814 0.32948 0.05908
 C1229 C 0.22232 0.32296 0.06232
 C1230 C 0.21974 0.31221 0.07563
 H1231 H 0.24819 0.26256 0.14732
 H1232 H 0.24354 0.24398 0.17068
 H1233 H 0.19118 0.24357 0.16019
 H1234 H 0.19571 0.26235 0.13698
 H1235 H 0.25919 0.31104 0.09054
 H1236 H 0.26362 0.32994 0.06743
 H1237 H 0.21195 0.32600 0.05441
 H1238 H 0.20739 0.30739 0.07772
 C1239 C 0.72247 0.76387 0.64124
 C1240 C 0.73587 0.75849 0.65091
 C1241 C 0.73331 0.74794 0.66440
 C1242 C 0.71728 0.74256 0.66855
 C1243 C 0.70387 0.74794 0.65891
 C1244 C 0.70643 0.75846 0.64540
 C1245 C 0.72517 0.77506 0.62692
 N1246 N 0.71228 0.78002 0.61737
 N1247 N 0.71469 0.79009 0.60453
 C1248 C 0.73010 0.79564 0.60067
 N1249 N 0.74300 0.79067 0.61021
 N1250 N 0.74059 0.78060 0.62305
 C1251 C 0.73276 0.80692 0.58640
 C1252 C 0.74865 0.81301 0.58268
 C1253 C 0.75110 0.82374 0.56931
 C1254 C 0.73772 0.82863 0.55936
 C1255 C 0.72185 0.82248 0.56303
 C1256 C 0.71940 0.81176 0.57639
 H1257 H 0.74838 0.76243 0.64810
 H1258 H 0.74386 0.74416 0.67173
 H1259 H 0.69141 0.74384 0.66168
 H1260 H 0.69582 0.76232 0.63821
 H1261 H 0.75922 0.80958 0.59014
 H1262 H 0.76345 0.82842 0.56692
 H1263 H 0.71133 0.82580 0.55545
 H1264 H 0.70700 0.80726 0.57884
 C1265 C 0.77574 0.76562 0.35841
 C1266 C 0.79185 0.76052 0.35422
 C1267 C 0.79452 0.74978 0.34089
 C1268 C 0.78116 0.74388 0.33144
 C1269 C 0.76506 0.74896 0.33562
 C1270 C 0.76238 0.75971 0.34895
 C1271 C 0.77292 0.77702 0.37258
 N1272 N 0.75737 0.78183 0.37680
 N1273 N 0.75484 0.79204 0.38954
 C1274 C 0.76776 0.79789 0.39860
 N1275 N 0.78330 0.79308 0.39437
 N1276 N 0.78583 0.78287 0.38163
 C1277 C 0.76496 0.80922 0.41282
 C1278 C 0.77838 0.81530 0.42210
 C1279 C 0.77576 0.82592 0.43553
 C1280 C 0.75965 0.83070 0.44003
 C1281 C 0.74622 0.82465 0.43075
 C1282 C 0.74885 0.81405 0.41730
 H1283 H 0.80243 0.76478 0.36126
 H1284 H 0.80705 0.74592 0.33811
 H1285 H 0.75453 0.74479 0.32844
 H1286 H 0.74981 0.76341 0.35178
 H1287 H 0.79096 0.81182 0.41904
 H1288 H 0.78634 0.83019 0.44257
 H1289 H 0.73368 0.82828 0.43378
 H1290 H 0.73822 0.80965 0.41041
 C1291 C 0.27722 0.26379 -0.14049
 C1292 C 0.28219 0.26997 -0.15599
 C1293 C 0.28488 0.25923 -0.16932
 C1294 C 0.28269 0.24204 -0.16746
 C1295 C 0.27771 0.23584 -0.15197
 C1296 C 0.27500 0.24659 -0.13864
 C1297 C 0.27440 0.27520 -0.12634
 N1298 N 0.26886 0.26937 -0.11156
 N1299 N 0.26635 0.27963 -0.09885
 C1300 C 0.26930 0.29614 -0.10037
 N1301 N 0.27484 0.30197 -0.11515
 N1302 N 0.27734 0.29172 -0.12786
 C1303 C 0.26654 0.30756 -0.08622
 C1304 C 0.27038 0.32452 -0.08759
 C1305 C 0.26785 0.33527 -0.07424
 C1306 C 0.26137 0.32933 -0.05921
 C1307 C 0.25749 0.31239 -0.05783
 C1308 C 0.26007 0.30163 -0.07117
 H1309 H 0.28395 0.28315 -0.15789
 H1310 H 0.28847 0.26441 -0.18115
 H1311 H 0.27613 0.22264 -0.15008
 H1312 H 0.27124 0.24138 -0.12687
 H1313 H 0.27535 0.32954 -0.09900
 H1314 H 0.27076 0.34829 -0.07574
 H1315 H 0.25267 0.30741 -0.04635
 H1316 H 0.25700 0.28864 -0.06965
 C1317 C 0.72591 0.23524 -0.14222
 C1318 C 0.72242 0.22889 -0.15807
 C1319 C 0.71957 0.23958 -0.17138
 C1320 C 0.72026 0.25685 -0.16916
 C1321 C 0.72381 0.26321 -0.15335
 C1322 C 0.72655 0.25254 -0.14003
 C1323 C 0.72881 0.22394 -0.12806
 N1324 N 0.73013 0.23000 -0.11241
 N1325 N 0.73265 0.21987 -0.09965
 C1326 C 0.73402 0.20324 -0.10199
 N1327 N 0.73274 0.19718 -0.11765
 N1328 N 0.73017 0.20731 -0.13040
 C1329 C 0.73673 0.19198 -0.08776
 C1330 C 0.74016 0.17507 -0.09031
 C1331 C 0.74264 0.16447 -0.07686
 C1332 C 0.74161 0.17051 -0.06056
 C1333 C 0.73821 0.18739 -0.05800
 C1334 C 0.73585 0.19802 -0.07144
 H1335 H 0.72182 0.21564 -0.16021
 H1336 H 0.71701 0.23434 -0.18347
 H1337 H 0.72425 0.27647 -0.15125
 H1338 H 0.72920 0.25786 -0.12800
 H1339 H 0.74095 0.17001 -0.10271
 H1340 H 0.74509 0.15148 -0.07920
 H1341 H 0.73754 0.19243 -0.04557
 H1342 H 0.73325 0.21096 -0.06900
 C1343 C 0.22299 0.73525 0.35898
 C1344 C 0.21963 0.72897 0.34307
 C1345 C 0.21693 0.73973 0.32978
 C1346 C 0.21763 0.75698 0.33208
 C1347 C 0.22105 0.76327 0.34795
 C1348 C 0.22366 0.75253 0.36125
 C1349 C 0.22575 0.72388 0.37312
 N1350 N 0.22739 0.72990 0.38876
 N1351 N 0.22984 0.71971 0.40148
 C1352 C 0.23080 0.70306 0.39912
 N1353 N 0.22919 0.69704 0.38348
 N1354 N 0.22670 0.70723 0.37076
 C1355 C 0.23356 0.69173 0.41330
 C1356 C 0.23623 0.67470 0.41067
 C1357 C 0.23893 0.66406 0.42404
 C1358 C 0.23891 0.67018 0.44034
 C1359 C 0.23618 0.68718 0.44299
 C1360 C 0.23359 0.69784 0.42962
 H1361 H 0.21903 0.71574 0.34087
 H1362 H 0.21447 0.73454 0.31765
 H1363 H 0.22147 0.77652 0.35012
 H1364 H 0.22621 0.75781 0.37332
 H1365 H 0.23629 0.66957 0.39828
 H1366 H 0.24082 0.65098 0.42164
 H1367 H 0.23629 0.69228 0.45540
 H1368 H 0.23158 0.71088 0.43211
 C1369 C 0.27807 0.73636 0.64012
 C1370 C 0.28161 0.73007 0.65595
 C1371 C 0.28424 0.74079 0.66930
 C1372 C 0.28329 0.75805 0.66716
 C1373 C 0.27970 0.76436 0.65136
 C1374 C 0.27717 0.75364 0.63798
 C1375 C 0.27532 0.72497 0.62594
 N1376 N 0.27356 0.73095 0.61032
 N1377 N 0.27111 0.72071 0.59760
 C1378 C 0.27027 0.70405 0.59994
 N1379 N 0.27202 0.69808 0.61556
 N1380 N 0.27451 0.70831 0.62828
 C1381 C 0.26750 0.69265 0.58579
 C1382 C 0.26488 0.67561 0.58847
 C1383 C 0.26218 0.66487 0.57514
 C1384 C 0.26214 0.67089 0.55882
 C1385 C 0.26481 0.68789 0.55612
 C1386 C 0.26742 0.69866 0.56945
 H1387 H 0.28239 0.71684 0.65806
 H1388 H 0.28681 0.73558 0.68138
 H1389 H 0.27906 0.77761 0.64932
 H1390 H 0.27447 0.75892 0.62596
 H1391 H 0.26487 0.67055 0.60087
 H1392 H 0.26034 0.65180 0.57758
 H1393 H 0.26466 0.69292 0.54369
 H1394 H 0.26938 0.71170 0.56692
 C1395 C 0.77795 0.23675 0.13970
 C1396 C 0.78486 0.23071 0.15445
 C1397 C 0.78740 0.24128 0.16795
 C1398 C 0.78336 0.25821 0.16693
 C1399 C 0.77656 0.26424 0.15208
 C1400 C 0.77376 0.25361 0.13868
 C1401 C 0.77515 0.22554 0.12546
 N1402 N 0.76390 0.22938 0.11360
 N1403 N 0.76133 0.21925 0.10081
 C1404 C 0.77002 0.20492 0.09929
 N1405 N 0.78133 0.20111 0.11111
 N1406 N 0.78379 0.21118 0.12397
 C1407 C 0.76721 0.19368 0.08507
 C1408 C 0.77943 0.18225 0.08026
 C1409 C 0.77680 0.17169 0.06678
 C1410 C 0.76180 0.17213 0.05805
 C1411 C 0.74953 0.18344 0.06291
 C1412 C 0.75227 0.19423 0.07619
 H1413 H 0.78807 0.21774 0.15566
 H1414 H 0.79233 0.23609 0.17926
 H1415 H 0.77360 0.27725 0.15068
 H1416 H 0.76855 0.25866 0.12742
 H1417 H 0.79109 0.18159 0.08682
 H1418 H 0.78640 0.16299 0.06330
 H1419 H 0.73790 0.18406 0.05629
 H1420 H 0.74261 0.20287 0.07965
 C1421 C 0.47368 0.39046 0.51386
 C1422 C 0.46872 0.40601 0.51997
 C1423 C 0.46601 0.41926 0.50919
 C1424 C 0.46815 0.41728 0.49202
 C1425 C 0.47311 0.40174 0.48590
 C1426 C 0.47585 0.38849 0.49668
 C1427 C 0.47652 0.37639 0.52531
 N1428 N 0.48213 0.36159 0.51956
 N1429 N 0.48466 0.34895 0.52985
 C1430 C 0.48168 0.35056 0.54634
 N1431 N 0.47607 0.36536 0.55209
 N1432 N 0.47356 0.37800 0.54180
 C1433 C 0.48444 0.33647 0.55780
 C1434 C 0.48048 0.33790 0.57470
 C1435 C 0.48299 0.32460 0.58548
 C1436 C 0.48958 0.30958 0.57963
 C1437 C 0.49360 0.30816 0.56275
 C1438 C 0.49104 0.32143 0.55195
 H1439 H 0.46699 0.40801 0.53312
 H1440 H 0.46243 0.43114 0.51431
 H1441 H 0.47466 0.39975 0.47272
 H1442 H 0.47960 0.37667 0.49153
 H1443 H 0.47540 0.34930 0.57965
 H1444 H 0.47996 0.32615 0.59846
 H1445 H 0.49851 0.29667 0.55784
 H1446 H 0.49421 0.31987 0.53901
 C1447 C -0.02794 0.88895 0.01235
 C1448 C -0.01460 0.89841 0.00630
 C1449 C -0.01736 0.91178 -0.00433
 C1450 C -0.03350 0.91601 -0.00918
 C1451 C -0.04683 0.90654 -0.00316
 C1452 C -0.04409 0.89318 0.00749
 C1453 C -0.02502 0.87479 0.02368
 N1454 N -0.03791 0.86612 0.03018
 N1455 N -0.03529 0.85344 0.04039
 C1456 C -0.01967 0.84887 0.04453
 N1457 N -0.00678 0.85753 0.03802
 N1458 N -0.00940 0.87022 0.02782
 C1459 C -0.01675 0.83479 0.05596
 C1460 C -0.00056 0.82963 0.05965
 C1461 C 0.00219 0.81642 0.07049
 C1462 C -0.01118 0.80807 0.07791
 C1463 C -0.02736 0.81321 0.07420
 C1464 C -0.03012 0.82640 0.06334
 H1465 H -0.00201 0.89556 0.00983
 H1466 H -0.00685 0.91897 -0.00857
 H1467 H -0.05940 0.90934 -0.00685
 H1468 H -0.05465 0.88614 0.01185
 H1469 H 0.01003 0.83575 0.05414
 H1470 H 0.01480 0.81262 0.07290
 H1471 H -0.03792 0.80718 0.07989
 H1472 H -0.04275 0.83007 0.06084
 C1473 C 0.02681 0.60842 0.01519
 C1474 C 0.02252 0.60961 -0.00160
 C1475 C 0.02503 0.59627 -0.01236
 C1476 C 0.03213 0.58130 -0.00672
 C1477 C 0.03648 0.58028 0.01019
 C1478 C 0.03376 0.59359 0.02097
 C1479 C 0.02407 0.62258 0.02658
 N1480 N 0.02509 0.62057 0.04324
 N1481 N 0.02260 0.63332 0.05346
 C1482 C 0.01907 0.64863 0.04744
 N1483 N 0.01808 0.65064 0.03077
 N1484 N 0.02050 0.63788 0.02056
 C1485 C 0.01636 0.66283 0.05878
 C1486 C 0.01608 0.67913 0.05265
 C1487 C 0.01361 0.69255 0.06334
 C1488 C 0.01118 0.68995 0.08036
 C1489 C 0.01135 0.67366 0.08651
 C1490 C 0.01401 0.66025 0.07585
 H1491 H 0.01720 0.62090 -0.00648
 H1492 H 0.02200 0.59812 -0.02526
 H1493 H 0.04139 0.56899 0.01545
 H1494 H 0.03714 0.59222 0.03386
 H1495 H 0.01787 0.68157 0.03958
 H1496 H 0.01337 0.70497 0.05825
 H1497 H 0.00965 0.67133 0.09960
 H1498 H 0.01412 0.64785 0.08097
 C1499 C 0.52655 0.10946 0.51451
 C1500 C 0.51306 0.09982 0.50914
 C1501 C 0.51548 0.08641 0.49842
 C1502 C 0.53144 0.08231 0.49287
 C1503 C 0.54493 0.09193 0.49822
 C1504 C 0.54252 0.10536 0.50890
 C1505 C 0.52400 0.12368 0.52589
 N1506 N 0.53693 0.13336 0.53066
 N1507 N 0.53464 0.14612 0.54089
 C1508 C 0.51933 0.14976 0.54681
 N1509 N 0.50640 0.14009 0.54205
 N1510 N 0.50868 0.12733 0.53181
 C1511 C 0.51679 0.16398 0.55821
 C1512 C 0.50103 0.16733 0.56483
 C1513 C 0.49865 0.18072 0.57557
 C1514 C 0.51194 0.19109 0.57994
 C1515 C 0.52769 0.18775 0.57333
 C1516 C 0.53009 0.17435 0.56261
 H1517 H 0.50060 0.10259 0.51323
 H1518 H 0.50487 0.07910 0.49466
 H1519 H 0.55735 0.08919 0.49398
 H1520 H 0.55319 0.11252 0.51274
 H1521 H 0.49052 0.15957 0.56177
 H1522 H 0.48641 0.18283 0.58062
 H1523 H 0.53814 0.19564 0.57627
 H1524 H 0.54238 0.17218 0.55770
 C1525 C -0.02523 0.10700 0.48496
 C1526 C -0.02970 0.09137 0.47862
 C1527 C -0.03217 0.07791 0.48924
 C1528 C -0.03026 0.07977 0.50644
 C1529 C -0.02576 0.09538 0.51278
 C1530 C -0.02325 0.10883 0.50216
 C1531 C -0.02271 0.12132 0.47372
 N1532 N -0.01758 0.13621 0.47971
 N1533 N -0.01538 0.14909 0.46963
 C1534 C -0.01823 0.14765 0.45312
 N1535 N -0.02336 0.13276 0.44712
 N1536 N -0.02555 0.11987 0.45720
 C1537 C -0.01582 0.16202 0.44191
 C1538 C -0.01964 0.16076 0.42497
 C1539 C -0.01739 0.17431 0.41442
 C1540 C -0.01121 0.18941 0.42055
 C1541 C -0.00737 0.19068 0.43747
 C1542 C -0.00967 0.17715 0.44803
 H1543 H -0.03125 0.08949 0.46544
 H1544 H -0.03541 0.06600 0.48396
 H1545 H -0.02442 0.09727 0.52598
 H1546 H -0.01988 0.12069 0.50749
 H1547 H -0.02438 0.14930 0.41981
 H1548 H -0.02028 0.17290 0.40141
 H1549 H -0.00278 0.20222 0.44260
 H1550 H -0.00663 0.17859 0.46101
 C1551 C 0.47244 0.61061 0.98761
 C1552 C 0.45646 0.60431 0.99026
 C1553 C 0.45386 0.59082 1.00080
 C1554 C 0.46718 0.58322 1.00918
 C1555 C 0.48321 0.58975 1.00649
 C1556 C 0.48578 0.60317 0.99584
 C1557 C 0.47516 0.62484 0.97631
 N1558 N 0.49072 0.62980 0.97223
 N1559 N 0.49316 0.64253 0.96202
 C1560 C 0.48014 0.65089 0.95547
 N1561 N 0.46458 0.64595 0.95958
 N1562 N 0.46215 0.63319 0.96976
 C1563 C 0.48283 0.66505 0.94407
 C1564 C 0.46945 0.67485 0.93885
 C1565 C 0.47197 0.68817 0.92809
 C1566 C 0.48792 0.69199 0.92222
 C1567 C 0.50130 0.68218 0.92743
 C1568 C 0.49879 0.66890 0.93826
 H1569 H 0.44586 0.60981 0.98421
 H1570 H 0.44120 0.58691 1.00279
 H1571 H 0.49404 0.58417 1.01200
 H1572 H 0.49829 0.60765 0.99401
 H1573 H 0.45701 0.67231 0.94316
 H1574 H 0.46144 0.69563 0.92454
 H1575 H 0.51370 0.68462 0.92295
 H1576 H 0.50937 0.66156 0.94195
 C1577 C 0.52467 0.89338 0.98547
 C1578 C 0.52896 0.90904 0.97913
 C1579 C 0.53164 0.92246 0.98978
 C1580 C 0.53015 0.92053 1.00701
 C1581 C 0.52583 0.90488 1.01335
 C1582 C 0.52310 0.89147 1.00271
 C1583 C 0.52195 0.87909 0.97421
 N1584 N 0.51684 0.86421 0.98022
 N1585 N 0.51449 0.85134 0.97013
 C1586 C 0.51717 0.85278 0.95359
 N1587 N 0.52228 0.86766 0.94756
 N1588 N 0.52461 0.88054 0.95765
 C1589 C 0.51464 0.83841 0.94237
 C1590 C 0.51851 0.83960 0.92543
 C1591 C 0.51623 0.82602 0.91489
 C1592 C 0.50996 0.81097 0.92104
 C1593 C 0.50604 0.80979 0.93795
 C1594 C 0.50838 0.82334 0.94851
 H1595 H 0.53020 0.91098 0.96592
 H1596 H 0.53473 0.93441 0.98450
 H1597 H 0.52482 0.90291 1.02657
 H1598 H 0.51989 0.87958 1.00803
 H1599 H 0.52334 0.85101 0.92027
 H1600 H 0.51918 0.82736 0.90188
 H1601 H 0.50138 0.79829 0.94309
 H1602 H 0.50529 0.82197 0.96148
 C1603 C 0.02763 0.38956 0.48720
 C1604 C 0.01435 0.39713 0.49546
 C1605 C 0.01701 0.41050 0.50616
 C1606 C 0.03310 0.41687 0.50888
 C1607 C 0.04637 0.40916 0.50045
 C1608 C 0.04367 0.39571 0.48986
 C1609 C 0.02479 0.37535 0.47586
 N1610 N 0.03773 0.36689 0.46923
 N1611 N 0.03518 0.35415 0.45904
 C1612 C 0.01959 0.34932 0.45500
 N1613 N 0.00664 0.35778 0.46162
 N1614 N 0.00919 0.37051 0.47185
 C1615 C 0.01676 0.33517 0.44360
 C1616 C 0.00075 0.33140 0.43791
 C1617 C -0.00188 0.31812 0.42708
 C1618 C 0.01142 0.30823 0.42174
 C1619 C 0.02742 0.31196 0.42750
 C1620 C 0.03006 0.32529 0.43826
 H1621 H 0.00180 0.39277 0.49363
 H1622 H 0.00623 0.41619 0.51169
 H1623 H 0.05905 0.41296 0.50244
 H1624 H 0.05423 0.39011 0.48377
 H1625 H -0.00976 0.33880 0.44170
 H1626 H -0.01432 0.31574 0.42269
 H1627 H 0.03790 0.30444 0.42385
 H1628 H 0.04254 0.32776 0.44247
 C1629 C 0.39135 0.51240 0.47237
 C1630 C 0.39555 0.50721 0.45627
 C1631 C 0.40894 0.49657 0.45364
 C1632 C 0.41844 0.49088 0.46703
 C1633 C 0.41425 0.49607 0.48312
 C1634 C 0.40086 0.50670 0.48576
 C1635 C 0.37715 0.52371 0.47516
 N1636 N 0.37280 0.52843 0.49072
 N1637 N 0.36006 0.53858 0.49324
 C1638 C 0.35111 0.54446 0.48029
 N1639 N 0.35545 0.53974 0.46473
 N1640 N 0.36819 0.52958 0.46222
 C1641 C 0.33692 0.55579 0.48309
 C1642 C 0.32795 0.56220 0.46964
 C1643 C 0.31460 0.57288 0.47228
 C1644 C 0.30989 0.57740 0.48843
 C1645 C 0.31884 0.57099 0.50188
 C1646 C 0.33220 0.56031 0.49924
 H1647 H 0.38848 0.51130 0.44567
 H1648 H 0.41173 0.49262 0.44112
 H1649 H 0.42147 0.49208 0.49367
 H1650 H 0.39802 0.51048 0.49831
 H1651 H 0.33127 0.55903 0.45703
 H1652 H 0.30810 0.57778 0.46165
 H1653 H 0.31538 0.57404 0.51447
 H1654 H 0.33878 0.55557 0.50990
 C1655 C 0.89010 0.01132 -0.02756
 C1656 C 0.89739 0.00265 -0.01441
 C1657 C 0.91077 -0.00796 -0.01717
 C1658 C 0.91739 -0.01024 -0.03323
 C1659 C 0.90996 -0.00139 -0.04637
 C1660 C 0.89655 0.00916 -0.04356
 C1661 C 0.87585 0.02254 -0.02461
 N1662 N 0.86856 0.03065 -0.03738
 N1663 N 0.85578 0.04072 -0.03475
 C1664 C 0.84973 0.04313 -0.01922
 N1665 N 0.85703 0.03502 -0.00644
 N1666 N 0.86981 0.02493 -0.00908
 C1667 C 0.83553 0.05440 -0.01630
 C1668 C 0.82958 0.05725 -0.00016
 C1669 C 0.81627 0.06797 0.00258
 C1670 C 0.80858 0.07606 -0.01074
 C1671 C 0.81448 0.07317 -0.02687
 C1672 C 0.82780 0.06249 -0.02961
 H1673 H 0.89283 0.00412 -0.00187
 H1674 H 0.91624 -0.01377 -0.00645
 H1675 H 0.91393 -0.00303 -0.05906
 H1676 H 0.89116 0.01554 -0.05403
 H1677 H 0.83520 0.05121 0.01038
 H1678 H 0.81188 0.06978 0.01513
 H1679 H 0.80896 0.07939 -0.03736
 H1680 H 0.83207 0.06063 -0.04220
 C1681 C 0.60749 0.01601 0.02556
 C1682 C 0.60853 -0.00081 0.02114
 C1683 C 0.59526 -0.01155 0.02412
 C1684 C 0.58051 -0.00567 0.03131
 C1685 C 0.57946 0.01123 0.03554
 C1686 C 0.59284 0.02190 0.03283
 C1687 C 0.62164 0.02731 0.02266
 N1688 N 0.62324 0.04156 0.03152
 N1689 N 0.63607 0.05165 0.02904
 C1690 C 0.64775 0.04799 0.01749
 N1691 N 0.64611 0.03379 0.00857
 N1692 N 0.63334 0.02363 0.01115
 C1693 C 0.66204 0.05916 0.01478
 C1694 C 0.67085 0.05876 -0.00024
 C1695 C 0.68437 0.06930 -0.00278
 C1696 C 0.68953 0.08021 0.00977
 C1697 C 0.68080 0.08057 0.02481
 C1698 C 0.66709 0.07025 0.02724
 H1699 H 0.61972 -0.00574 0.01566
 H1700 H 0.59669 -0.02453 0.02100
 H1701 H 0.56821 0.01630 0.04077
 H1702 H 0.59162 0.03484 0.03622
 H1703 H 0.66722 0.05038 -0.01008
 H1704 H 0.69099 0.06875 -0.01444
 H1705 H 0.68451 0.08895 0.03462
 H1706 H 0.66058 0.07080 0.03896
 C1707 C 0.10993 0.51192 0.52774
 C1708 C 0.10055 0.50595 0.51434
 C1709 C 0.08712 0.49533 0.51701
 C1710 C 0.08275 0.49042 0.53313
 C1711 C 0.09213 0.49637 0.54653
 C1712 C 0.10557 0.50700 0.54387
 C1713 C 0.12417 0.52322 0.52491
 N1714 N 0.13303 0.52933 0.53784
 N1715 N 0.14579 0.53951 0.53529
 C1716 C 0.15024 0.54401 0.51970
 N1717 N 0.14138 0.53789 0.50677
 N1718 N 0.12862 0.52772 0.50932
 C1719 C 0.16443 0.55536 0.51685
 C1720 C 0.16921 0.55970 0.50068
 C1721 C 0.18255 0.57043 0.49799
 C1722 C 0.19143 0.57708 0.51141
 C1723 C 0.18667 0.57273 0.52758
 C1724 C 0.17333 0.56200 0.53027
 H1725 H 0.10351 0.50951 0.50176
 H1726 H 0.08000 0.49113 0.50645
 H1727 H 0.08921 0.49265 0.55908
 H1728 H 0.11254 0.51130 0.55448
 H1729 H 0.16269 0.55478 0.49004
 H1730 H 0.18606 0.57335 0.48538
 H1731 H 0.19312 0.57782 0.53818
 H1732 H 0.16996 0.55898 0.54290
 C1733 C 0.10774 0.48617 -0.02636
 C1734 C 0.10166 0.48904 -0.04237
 C1735 C 0.08822 0.49959 -0.04493
 C1736 C 0.08044 0.50778 -0.03154
 C1737 C 0.08666 0.50478 -0.01547
 C1738 C 0.10003 0.49411 -0.01294
 C1739 C 0.12206 0.47502 -0.02371
 N1740 N 0.12694 0.47086 -0.00817
 N1741 N 0.13983 0.46087 -0.00581
 C1742 C 0.14843 0.45465 -0.01888
 N1743 N 0.14356 0.45882 -0.03441
 N1744 N 0.13065 0.46877 -0.03677
 C1745 C 0.16281 0.44356 -0.01626
 C1746 C 0.17280 0.43868 -0.02968
 C1747 C 0.18635 0.42823 -0.02723
 C1748 C 0.19021 0.42234 -0.01132
 C1749 C 0.18022 0.42723 0.00209
 C1750 C 0.16671 0.43774 -0.00034
 H1751 H 0.10735 0.48319 -0.05303
 H1752 H 0.08453 0.50180 -0.05760
 H1753 H 0.08090 0.51010 -0.00460
 H1754 H 0.10432 0.49210 -0.00041
 H1755 H 0.17023 0.44301 -0.04209
 H1756 H 0.19394 0.42494 -0.03779
 H1757 H 0.18269 0.42272 0.01447
 H1758 H 0.15924 0.44118 0.01026
 C1759 C 0.60665 0.98629 0.47308
 C1760 C 0.59230 0.98073 0.46503
 C1761 C 0.57896 0.99142 0.46245
 C1762 C 0.57949 1.00809 0.46789
 C1763 C 0.59403 1.01353 0.47598
 C1764 C 0.60735 1.00282 0.47851
 C1765 C 0.62082 0.97496 0.47581
 N1766 N 0.63470 0.98036 0.48362
 N1767 N 0.64744 0.97021 0.48609
 C1768 C 0.64685 0.95420 0.48086
 N1769 N 0.63297 0.94878 0.47305
 N1770 N 0.62023 0.95894 0.47058
 C1771 C 0.66105 0.94291 0.48364
 C1772 C 0.66043 0.92631 0.47831
 C1773 C 0.67384 0.91571 0.48095
 C1774 C 0.68816 0.92145 0.48899
 C1775 C 0.68878 0.93804 0.49430
 C1776 C 0.67540 0.94864 0.49166
 H1777 H 0.59127 0.96802 0.46079
 H1778 H 0.56800 0.98622 0.45676
 H1779 H 0.59561 1.02627 0.47985
 H1780 H 0.61828 1.00759 0.48463
 H1781 H 0.64957 0.92146 0.47213
 H1782 H 0.67290 0.90294 0.47688
 H1783 H 0.69974 0.94291 0.50031
 H1784 H 0.67635 0.96136 0.49588
 C1785 C 0.89277 0.98436 0.52594
 C1786 C 0.90788 0.97815 0.53187
 C1787 C 0.92135 0.98874 0.53443
 C1788 C 0.91999 1.00583 0.53127
 C1789 C 0.90484 1.01204 0.52542
 C1790 C 0.89143 1.00143 0.52271
 C1791 C 0.87849 0.97315 0.52314
 N1792 N 0.86512 0.97837 0.51444
 N1793 N 0.85225 0.96834 0.51193
 C1794 C 0.85218 0.95267 0.51808
 N1795 N 0.86555 0.94745 0.52681
 N1796 N 0.87845 0.95746 0.52925
 C1797 C 0.83777 0.94159 0.51540
 C1798 C 0.83601 0.92685 0.52452
 C1799 C 0.82223 0.91660 0.52219
 C1800 C 0.80996 0.92076 0.51060
 C1801 C 0.81186 0.93540 0.50134
 C1802 C 0.82555 0.94572 0.50377
 H1803 H 0.90937 0.96505 0.53437
 H1804 H 0.93291 0.98350 0.53868
 H1805 H 0.90326 1.02517 0.52315
 H1806 H 0.87993 1.00665 0.51826
 H1807 H 0.84516 0.92335 0.53365
 H1808 H 0.82106 0.90555 0.52971
 H1809 H 0.80285 0.93883 0.49206
 H1810 H 0.82660 0.95690 0.49643
 C1811 C 0.39080 0.48777 0.02765
 C1812 C 0.40632 0.48146 0.03228
 C1813 C 0.41971 0.49212 0.03498
 C1814 C 0.41789 0.50935 0.03315
 C1815 C 0.40237 0.51567 0.02854
 C1816 C 0.38899 0.50501 0.02581
 C1817 C 0.37659 0.47646 0.02477
 N1818 N 0.36185 0.48241 0.01934
 N1819 N 0.34909 0.47224 0.01676
 C1820 C 0.35052 0.45569 0.01950
 N1821 N 0.36526 0.44975 0.02493
 N1822 N 0.37802 0.45991 0.02750
 C1823 C 0.33630 0.44437 0.01668
 C1824 C 0.33752 0.42741 0.02050
 C1825 C 0.32410 0.41676 0.01793
 C1826 C 0.30917 0.42280 0.01142
 C1827 C 0.30795 0.43973 0.00754
 C1828 C 0.32135 0.45040 0.01016
 H1829 H 0.40819 0.46825 0.03375
 H1830 H 0.43156 0.48684 0.03829
 H1831 H 0.40051 0.52890 0.02725
 H1832 H 0.37720 0.51032 0.02233
 H1833 H 0.34884 0.42232 0.02551
 H1834 H 0.32547 0.40374 0.02085
 H1835 H 0.29654 0.44479 0.00269
 H1836 H 0.31996 0.46339 0.00709
 C1837 C 0.51413 0.47187 0.39058
 C1838 C 0.52042 0.46713 0.40609
 C1839 C 0.50978 0.46448 0.41950
 C1840 C 0.49260 0.46646 0.41772
 C1841 C 0.48631 0.47118 0.40221
 C1842 C 0.49694 0.47387 0.38881
 C1843 C 0.52541 0.47471 0.37635
 N1844 N 0.51948 0.48016 0.36161
 N1845 N 0.52960 0.48270 0.34882
 C1846 C 0.54611 0.47988 0.35022
 N1847 N 0.55205 0.47442 0.36497
 N1848 N 0.54192 0.47190 0.37775
 C1849 C 0.55739 0.48268 0.33598
 C1850 C 0.57432 0.47886 0.33718
 C1851 C 0.58493 0.48143 0.32374
 C1852 C 0.57888 0.48792 0.30880
 C1853 C 0.56198 0.49179 0.30759
 C1854 C 0.55135 0.48917 0.32101
 H1855 H 0.53359 0.46554 0.40793
 H1856 H 0.51504 0.46107 0.43134
 H1857 H 0.47311 0.47258 0.40037
 H1858 H 0.49165 0.47744 0.37704
 H1859 H 0.57941 0.47387 0.34852
 H1860 H 0.59793 0.47852 0.32511
 H1861 H 0.55692 0.49662 0.29617
 H1862 H 0.53838 0.49223 0.31962
 C1863 C 0.01229 -0.02889 0.88978
 C1864 C 0.00680 -0.04500 0.89362
 C1865 C -0.00389 -0.04772 0.90697
 C1866 C -0.00939 -0.03441 0.91676
 C1867 C -0.00397 -0.01830 0.91291
 C1868 C 0.00677 -0.01557 0.89959
 C1869 C 0.02374 -0.02602 0.87569
 N1870 N 0.02954 -0.01057 0.87230
 N1871 N 0.03986 -0.00801 0.85967
 C1872 C 0.04483 -0.02078 0.84989
 N1873 N 0.03902 -0.03623 0.85327
 N1874 N 0.02871 -0.03880 0.86590
 C1875 C 0.05634 -0.01794 0.83584
 C1876 C 0.06099 -0.03110 0.82538
 C1877 C 0.07183 -0.02843 0.81214
 C1878 C 0.07831 -0.01254 0.80904
 C1879 C 0.07367 0.00062 0.81949
 C1880 C 0.06282 -0.00205 0.83272
 H1881 H 0.01077 -0.05555 0.88633
 H1882 H -0.00802 -0.06024 0.90951
 H1883 H -0.00783 -0.00782 0.92035
 H1884 H 0.01075 -0.00301 0.89702
 H1885 H 0.05620 -0.04349 0.82736
 H1886 H 0.07497 -0.03877 0.80419
 H1887 H 0.07861 0.01296 0.81757
 H1888 H 0.05956 0.00837 0.84055
 C1889 C 0.01470 0.02615 0.60854
 C1890 C -0.00250 0.02409 0.61023
 C1891 C -0.01301 0.02660 0.59674
 C1892 C -0.00657 0.03121 0.58123
 C1893 C 0.01063 0.03325 0.57953
 C1894 C 0.02114 0.03077 0.59302
 C1895 C 0.02587 0.02350 0.62286
 N1896 N 0.04239 0.02637 0.62150
 N1897 N 0.05242 0.02401 0.63435
 C1898 C 0.04637 0.01865 0.64911
 N1899 N 0.02985 0.01577 0.65047
 N1900 N 0.01982 0.01815 0.63762
 C1901 C 0.05755 0.01601 0.66342
 C1902 C 0.05142 0.00961 0.67841
 C1903 C 0.06198 0.00710 0.69187
 C1904 C 0.07889 0.01100 0.69067
 C1905 C 0.08503 0.01743 0.67571
 C1906 C 0.07449 0.01988 0.66223
 H1907 H -0.00790 0.02060 0.62201
 H1908 H -0.02622 0.02515 0.59850
 H1909 H 0.01600 0.03656 0.56769
 H1910 H 0.03432 0.03240 0.59125
 H1911 H 0.03845 0.00651 0.67979
 H1912 H 0.05685 0.00231 0.70331
 H1913 H 0.09804 0.02036 0.67434
 H1914 H 0.07966 0.02481 0.65087
 C1915 C 0.51404 0.52776 0.10896
 C1916 C 0.49685 0.52568 0.11085
 C1917 C 0.48615 0.52849 0.09757
 C1918 C 0.49237 0.53340 0.08207
 C1919 C 0.50954 0.53547 0.08016
 C1920 C 0.52025 0.53269 0.09345
 C1921 C 0.52539 0.52481 0.12307
 N1922 N 0.54189 0.52770 0.12157
 N1923 N 0.55207 0.52509 0.13426
 C1924 C 0.54620 0.51944 0.14898
 N1925 N 0.52970 0.51653 0.15047
 N1926 N 0.51951 0.51916 0.13779
 C1927 C 0.55753 0.51657 0.16312
 C1928 C 0.55154 0.50989 0.17807
 C1929 C 0.56221 0.50723 0.19140
 C1930 C 0.57910 0.51123 0.19014
 C1931 C 0.58510 0.51789 0.17522
 C1932 C 0.57445 0.52050 0.16185
 H1933 H 0.49162 0.52196 0.12263
 H1934 H 0.47297 0.52702 0.09951
 H1935 H 0.51474 0.53903 0.06831
 H1936 H 0.53341 0.53435 0.09151
 H1937 H 0.53859 0.50674 0.17950
 H1938 H 0.55718 0.50227 0.20281
 H1939 H 0.59809 0.52090 0.17380
 H1940 H 0.57950 0.52563 0.15054
 C1941 C 0.48707 -0.02653 0.11036
 C1942 C 0.49236 -0.04257 0.10606
 C1943 C 0.50283 -0.04505 0.09249
 C1944 C 0.50829 -0.03155 0.08293
 C1945 C 0.50310 -0.01551 0.08728
 C1946 C 0.49259 -0.01302 0.10082
 C1947 C 0.47578 -0.02390 0.12463
 N1948 N 0.46998 -0.00852 0.12829
 N1949 N 0.45974 -0.00617 0.14102
 C1950 C 0.45487 -0.01909 0.15065
 N1951 N 0.46068 -0.03446 0.14701
 N1952 N 0.47091 -0.03682 0.13427
 C1953 C 0.44341 -0.01647 0.16478
 C1954 C 0.43898 -0.02971 0.17521
 C1955 C 0.42814 -0.02724 0.18849
 C1956 C 0.42147 -0.01146 0.19167
 C1957 C 0.42589 0.00178 0.18125
 C1958 C 0.43674 -0.00069 0.16798
 H1959 H 0.48839 -0.05325 0.11314
 H1960 H 0.50678 -0.05754 0.08954
 H1961 H 0.50694 -0.00489 0.08003
 H1962 H 0.48876 -0.00050 0.10376
 H1963 H 0.44392 -0.04201 0.17316
 H1964 H 0.42517 -0.03764 0.19642
 H1965 H 0.42078 0.01403 0.18322
 H1966 H 0.43981 0.00979 0.16018
 C1967 C 0.98647 0.47234 0.60899
 C1968 C 0.99177 0.45620 0.60507
 C1969 C 1.00240 0.45342 0.59168
 C1970 C 1.00802 0.46672 0.58194
 C1971 C 1.00274 0.48285 0.58584
 C1972 C 0.99206 0.48563 0.59920
 C1973 C 0.97521 0.47527 0.62322
 N1974 N 0.96955 0.49075 0.62669
 N1975 N 0.95946 0.49337 0.63948
 C1976 C 0.95460 0.48064 0.64938
 N1977 N 0.96027 0.46517 0.64591
 N1978 N 0.97035 0.46254 0.63311
 C1979 C 0.94336 0.48355 0.66363
 C1980 C 0.93895 0.47046 0.67425
 C1981 C 0.92835 0.47318 0.68767
 C1982 C 0.92188 0.48905 0.69079
 C1983 C 0.92630 0.50215 0.68019
 C1984 C 0.93692 0.49944 0.66677
 H1985 H 0.98774 0.44567 0.61235
 H1986 H 1.00643 0.44088 0.58910
 H1987 H 1.00671 0.49331 0.57843
 H1988 H 0.98822 0.49821 0.60183
 H1989 H 0.94373 0.45808 0.67226
 H1990 H 0.92539 0.46288 0.69574
 H1991 H 0.92136 0.51447 0.68212
 H1992 H 0.94000 0.50980 0.65882
 C1993 C 0.98696 0.52891 0.89095
 C1994 C 1.00413 0.52661 0.88926
 C1995 C 1.01469 0.52912 0.90273
 C1996 C 1.00834 0.53395 0.91821
 C1997 C 0.99118 0.53627 0.91990
 C1998 C 0.98062 0.53379 0.90644
 C1999 C 0.97572 0.52620 0.87669
 N2000 N 0.95925 0.52925 0.87807
 N2001 N 0.94913 0.52679 0.86529
 C2002 C 0.95505 0.52116 0.85057
 N2003 N 0.97152 0.51810 0.84919
 N2004 N 0.98164 0.52058 0.86197
 C2005 C 0.94377 0.51840 0.83635
 C2006 C 0.94975 0.51172 0.82141
 C2007 C 0.93909 0.50909 0.80803
 C2008 C 0.92223 0.51313 0.80927
 C2009 C 0.91625 0.51983 0.82419
 C2010 C 0.92688 0.52241 0.83758
 H2011 H 1.00945 0.52292 0.87751
 H2012 H 1.02787 0.52745 0.90098
 H2013 H 0.98588 0.53976 0.93172
 H2014 H 0.96747 0.53562 0.90822
 H2015 H 0.96268 0.50850 0.82000
 H2016 H 0.94411 0.50409 0.79663
 H2017 H 0.90327 0.52288 0.82558
 H2018 H 0.92183 0.52755 0.84890
 C2019 C 0.48436 0.02775 0.39202
 C2020 C 0.49000 0.04378 0.39599
 C2021 C 0.50063 0.04632 0.40939
 C2022 C 0.50589 0.03291 0.41912
 C2023 C 0.50027 0.01689 0.41517
 C2024 C 0.48961 0.01434 0.40179
 C2025 C 0.47311 0.02504 0.37777
 N2026 N 0.46716 0.00967 0.37425
 N2027 N 0.45707 0.00724 0.36144
 C2028 C 0.45251 0.02008 0.35158
 N2029 N 0.45846 0.03544 0.35510
 N2030 N 0.46854 0.03788 0.36792
 C2031 C 0.44130 0.01737 0.33729
 C2032 C 0.43718 0.03054 0.32670
 C2033 C 0.42665 0.02798 0.31322
 C2034 C 0.41998 0.01219 0.31002
 C2035 C 0.42409 -0.00098 0.32061
 C2036 C 0.43463 0.00157 0.33408
 H2037 H 0.48624 0.05439 0.38872
 H2038 H 0.50491 0.05879 0.41202
 H2039 H 0.50397 0.00634 0.42256
 H2040 H 0.48550 0.00183 0.39912
 H2041 H 0.44213 0.04286 0.32875
 H2042 H 0.42391 0.03833 0.30516
 H2043 H 0.41897 -0.01324 0.31862
 H2044 H 0.43748 -0.00885 0.34201
   
