data_POSCAR
  _audit_creation_date              2014-09-24
  _audit_creation_method            'ToBaCCo'
  _symmetry_space_group_name_H-M    'P1'
  _symmetry_Int_Tables_number       1
  _symmetry_cell_setting            triclinic
  loop_
  _symmetry_equiv_pos_as_xyz
 x,y,z
_cell_length_a 54.2736
_cell_length_b 54.2776
_cell_length_c 54.2948
_cell_angle_alpha 90.004700
_cell_angle_beta 89.979900
_cell_angle_gamma 90.001500
loop_
  _atom_site_label
  _atom_site_type_symbol
  _atom_site_fract_x
  _atom_site_fract_y
  _atom_site_fract_z
C1 C 0.12528 -0.00026 0.24980
 C2 C 0.37470 -0.00012 0.75028
 C3 C 0.87467 0.49950 0.24857
 C4 C 0.62546 0.50092 0.74942
 C5 C 0.24892 0.12580 0.99999
 C6 C 0.75184 0.37450 1.00043
 C7 C 0.25039 0.87444 0.50023
 C8 C 0.74868 0.62566 0.50141
 C9 C -0.00059 0.25078 0.12526
 C10 C 0.00009 0.74985 0.37429
 C11 C 0.49960 0.24978 0.87436
 C12 C 0.50090 0.74960 0.62530
 C13 C 0.87553 1.00097 0.74979
 C14 C 0.37565 0.49974 0.24950
 C15 C 0.62445 0.99959 0.25019
 C16 C 0.12466 0.49972 0.74843
 C17 C 0.74886 0.87547 0.00152
 C18 C 0.24870 0.37541 0.49988
 C19 C 0.25186 0.62462 0.00021
 C20 C 0.75027 0.12463 0.50031
 C21 C 1.00076 0.75070 0.87534
 C22 C 0.49937 0.24969 0.37533
 C23 C 0.99955 0.24984 0.62426
 C24 C 0.50008 0.74977 0.12444
 O25 O -0.07085 0.98822 0.98526
 O26 O -0.07095 1.02983 0.99805
 O27 O -0.01296 0.98637 0.93077
 O28 O 0.02725 0.99392 0.92882
 O29 O -0.01596 0.93067 0.98863
 O30 O -0.00505 0.93073 1.03077
 O31 O 0.05323 1.04861 0.99646
 O32 O 0.03572 1.05140 0.95804
 O33 O -0.00464 1.05515 1.04796
 O34 O -0.04295 1.03750 1.05272
 O35 O 0.04622 0.99716 1.05516
 O36 O 0.05282 0.95811 1.03496
 O37 O 0.06800 1.01451 1.01602
 O38 O 0.06834 0.96990 1.00391
 O39 O 0.01201 1.01631 1.07004
 O40 O -0.03246 1.00349 1.06943
 O41 O 0.01541 1.06976 1.01414
 O42 O -0.00200 1.06950 0.97226
 O43 O -0.05632 0.95436 1.00540
 O44 O -0.03563 0.94930 1.04443
 O45 O 0.00349 0.94516 0.95443
 O46 O 0.04373 0.96645 0.95098
 O47 O -0.04792 1.00441 0.94547
 O48 O -0.04745 1.04575 0.96522
 Zr49 Zr -0.03992 1.01152 0.98274
 O50 O -0.01871 1.03468 1.00548
 Zr51 Zr 0.00995 0.98269 0.96184
 O52 O 0.03314 1.00550 0.98294
 Zr53 Zr -0.01872 0.96176 1.01163
 O54 O 0.00382 0.98299 1.03497
 Zr55 Zr 0.01624 1.03963 0.98973
 O56 O -0.00562 1.01801 0.96568
 Zr57 Zr -0.01191 1.01803 1.03960
 O58 O -0.03583 0.99594 1.01812
 Zr59 Zr 0.03795 0.98991 1.01800
 O60 O 0.01659 0.96567 0.99603
 O61 O -0.02464 0.97679 0.97696
 O62 O 0.02280 1.02458 1.02449
 C63 C -0.07359 0.96698 0.99528
 C64 C -0.03471 0.99529 0.92809
 C65 C -0.00628 0.92788 0.96726
 C66 C 0.07049 1.03616 1.00676
 C67 C 0.00601 1.07231 1.03567
 C68 C 0.03370 1.00725 1.07248
 H69 H -0.02744 1.05056 1.00758
 H70 H 0.00576 0.97421 1.05079
 H71 H -0.03512 0.96620 0.96644
 H72 H 0.04893 1.00769 0.97412
 H73 H 0.02508 1.04769 0.94370
 H74 H 0.03647 1.00914 0.93265
 H75 H -0.02361 0.98889 1.07578
 H76 H -0.04750 0.96221 1.04945
 H77 H 0.00906 1.08405 0.97280
 H78 H -0.06222 1.04407 0.95462
 H79 H 0.04052 0.95201 1.04694
 H80 H 0.01210 0.92828 1.02506
 H81 H -0.08475 1.02930 0.98607
 H82 H -0.05678 1.03301 1.04175
 H83 H 0.04743 0.95331 0.96307
 H84 H 0.07428 0.97851 0.98899
 O85 O 0.48702 0.48404 0.43044
 O86 O 0.52867 0.49666 0.43041
 O87 O 0.48474 0.42982 0.48854
 O88 O 0.49213 0.42804 0.52878
 O89 O 0.42926 0.48788 0.48507
 O90 O 0.42940 0.53007 0.49581
 O91 O 0.54700 0.49568 0.55457
 O92 O 0.54972 0.45713 0.53728
 O93 O 0.55387 0.54687 0.49655
 O94 O 0.53639 0.55146 0.45814
 O95 O 0.49579 0.55450 0.54716
 O96 O 0.45662 0.53448 0.55373
 O97 O 0.51292 0.51543 0.56916
 O98 O 0.46826 0.50344 0.56942
 O99 O 0.51510 0.56914 0.51295
 O100 O 0.50240 0.56837 0.46847
 O101 O 0.56832 0.51309 0.51678
 O102 O 0.56800 0.47109 0.49956
 O103 O 0.45317 0.50438 0.44475
 O104 O 0.44814 0.54354 0.46526
 O105 O 0.44355 0.45372 0.50474
 O106 O 0.46470 0.45041 0.54506
 O107 O 0.50295 0.44430 0.45359
 O108 O 0.54437 0.46389 0.45412
 Zr109 Zr 0.51018 0.48158 0.46145
 O110 O 0.53335 0.50436 0.48260
 Zr111 Zr 0.48108 0.46103 0.51129
 O112 O 0.50391 0.48217 0.53444
 Zr113 Zr 0.46043 0.51076 0.48234
 O114 O 0.48166 0.53415 0.50483
 Zr115 Zr 0.53811 0.48876 0.51762
 O116 O 0.51648 0.46467 0.49583
 Zr117 Zr 0.51677 0.53857 0.48918
 O118 O 0.49469 0.51704 0.46530
 Zr119 Zr 0.48841 0.51732 0.53905
 O120 O 0.46417 0.49532 0.51772
 O121 O 0.47537 0.47601 0.47662
 O122 O 0.52314 0.52361 0.52397
 C123 C 0.46583 0.49414 0.42757
 C124 C 0.49373 0.42702 0.46684
 C125 C 0.42635 0.46656 0.49483
 C126 C 0.53454 0.50613 0.57173
 C127 C 0.57096 0.53459 0.50732
 C128 C 0.50601 0.57171 0.53460
 H129 H 0.54926 0.50637 0.47391
 H130 H 0.47294 0.55002 0.50667
 H131 H 0.46478 0.46547 0.46616
 H132 H 0.50602 0.47343 0.55028
 H133 H 0.54599 0.44274 0.52670
 H134 H 0.50736 0.43186 0.53798
 H135 H 0.48780 0.57483 0.47726
 H136 H 0.46111 0.54846 0.45341
 H137 H 0.58251 0.47166 0.51065
 H138 H 0.54271 0.45320 0.43940
 H139 H 0.45061 0.54642 0.54136
 H140 H 0.42689 0.52447 0.51298
 H141 H 0.52815 0.48461 0.41668
 H142 H 0.53186 0.54046 0.44434
 H143 H 0.45158 0.46256 0.54866
 H144 H 0.47682 0.48853 0.57547
 O145 O 0.44541 -0.04735 0.49612
 O146 O 0.46466 -0.05129 0.45725
 O147 O 0.50601 -0.05526 0.54683
 O148 O 0.54142 -0.03635 0.55520
 O149 O 0.45348 0.00483 0.55550
 O150 O 0.44798 0.04299 0.53517
 O151 O 0.56996 0.01182 0.48379
 O152 O 0.57075 -0.02807 0.49773
 O153 O 0.51279 0.01593 0.43104
 O154 O 0.47230 0.00355 0.42950
 O155 O 0.51634 0.06912 0.48744
 O156 O 0.50599 0.07024 0.53049
 O157 O 0.55544 0.04606 0.50329
 O158 O 0.53439 0.05154 0.54423
 O159 O 0.49644 0.05466 0.45351
 O160 O 0.45560 0.03312 0.44929
 O161 O 0.54730 -0.00295 0.44560
 O162 O 0.54772 -0.04453 0.46387
 O163 O 0.43066 -0.01291 0.51511
 O164 O 0.43079 0.02999 0.50354
 O165 O 0.48754 -0.01473 0.57018
 O166 O 0.53114 -0.00133 0.56884
 O167 O 0.48486 -0.06987 0.51364
 O168 O 0.50217 -0.06799 0.47130
 Zr169 Zr 0.48284 -0.03935 0.48979
 O170 O 0.50457 -0.01760 0.46615
 Zr171 Zr 0.51117 -0.01752 0.53952
 O172 O 0.53473 0.00423 0.51771
 Zr173 Zr 0.46136 0.01068 0.51803
 O174 O 0.48280 0.03427 0.49595
 Zr175 Zr 0.53898 -0.01128 0.48254
 O176 O 0.51807 -0.03489 0.50554
 Zr177 Zr 0.48916 0.01749 0.46168
 O178 O 0.46557 -0.00520 0.48292
 Zr179 Zr 0.51812 0.03857 0.51125
 O180 O 0.49543 0.01765 0.53522
 O181 O 0.47668 -0.02380 0.52432
 O182 O 0.52410 0.02364 0.47640
 C183 C 0.42803 -0.03446 0.50569
 C184 C 0.49542 -0.07255 0.53461
 C185 C 0.46618 -0.00497 0.57286
 C186 C 0.57261 0.03346 0.49294
 C187 C 0.53459 0.00714 0.42843
 C188 C 0.50692 0.07180 0.46594
 H189 H 0.50622 -0.02610 0.45011
 H190 H 0.47415 0.05020 0.49428
 H191 H 0.46619 -0.03429 0.53494
 H192 H 0.55082 0.00581 0.52611
 H193 H 0.56526 -0.04375 0.50527
 H194 H 0.55574 -0.03313 0.54443
 H195 H 0.45208 0.04778 0.45954
 H196 H 0.42747 0.02293 0.48706
 H197 H 0.56409 -0.04251 0.45599
 H198 H 0.49345 -0.08385 0.47376
 H199 H 0.48917 0.07411 0.52463
 H200 H 0.46143 0.04912 0.54585
 H201 H 0.45775 -0.06798 0.46003
 H202 H 0.46291 -0.01119 0.43465
 H203 H 0.52259 0.01419 0.57316
 H204 H 0.54876 0.04095 0.54792
 O205 O 0.07130 0.51237 0.98396
 O206 O 0.07125 0.47073 0.99665
 O207 O 0.01333 0.51462 0.92965
 O208 O -0.02693 0.50726 0.92779
 O209 O 0.01669 0.57015 0.98767
 O210 O 0.00586 0.57005 1.02982
 O211 O -0.05299 0.45250 0.99538
 O212 O -0.03560 0.44974 0.95689
 O213 O 0.00491 0.44560 1.04669
 O214 O 0.04333 0.46305 1.05139
 O215 O -0.04566 0.50377 1.05418
 O216 O -0.05211 0.54294 1.03408
 O217 O -0.06759 0.48661 1.01507
 O218 O -0.06778 0.53124 1.00307
 O219 O -0.01151 0.48444 1.06892
 O220 O 0.03303 0.49708 1.06821
 O221 O -0.01526 0.43116 1.01288
 O222 O 0.00208 0.43144 0.97095
 O223 O 0.05696 0.54624 1.00424
 O224 O 0.03638 0.55129 1.04336
 O225 O -0.00289 0.55585 0.95347
 O226 O -0.04324 0.53475 0.95007
 O227 O 0.04823 0.49638 0.94420
 O228 O 0.04761 0.45500 0.96385
 Zr229 Zr 0.04026 0.48921 0.98148
 O230 O 0.01900 0.46609 1.00422
 Zr231 Zr -0.00951 0.51833 0.96079
 O232 O -0.03276 0.49556 0.98189
 Zr233 Zr 0.01935 0.53900 1.01056
 O234 O -0.00324 0.51782 1.03391
 Zr235 Zr -0.01599 0.46135 0.98855
 O236 O 0.00591 0.48293 0.96450
 Zr237 Zr 0.01235 0.48270 1.03840
 O238 O 0.03633 0.50473 1.01691
 Zr239 Zr -0.03744 0.51109 1.01701
 O240 O -0.01601 0.53528 0.99504
 O241 O 0.02514 0.52403 0.97584
 O242 O -0.02242 0.47635 1.02336
 C243 C 0.07416 0.53358 0.99403
 C244 C 0.03503 0.50560 0.92689
 C245 C 0.00699 0.57305 0.96633
 C246 C -0.07017 0.46499 1.00578
 C247 C -0.00585 0.42852 1.03439
 C248 C -0.03316 0.49356 1.07144
 H249 H 0.02767 0.45017 1.00626
 H250 H -0.00511 0.52656 1.04977
 H251 H 0.03564 0.53460 0.96532
 H252 H -0.04858 0.49346 0.97312
 H253 H -0.02497 0.45344 0.94252
 H254 H -0.03620 0.49207 0.93161
 H255 H 0.02424 0.51169 1.07464
 H256 H 0.04821 0.53832 1.04830
 H257 H -0.00904 0.41694 0.97148
 H258 H 0.06236 0.45663 0.95321
 H259 H -0.03978 0.54891 1.04609
 H260 H -0.01130 0.57257 1.02418
 H261 H 0.08503 0.47123 0.98464
 H262 H 0.05716 0.46751 1.04040
 H263 H -0.04686 0.54786 0.96222
 H264 H -0.07378 0.52270 0.98814
 O265 O 0.01372 0.43009 0.51144
 O266 O 0.00085 0.43001 0.46987
 O267 O 0.06814 0.48795 0.51334
 O268 O 0.07008 0.52817 0.50581
 O269 O 0.01030 0.48487 0.56904
 O270 O -0.03187 0.49578 0.56904
 O271 O 0.00237 0.55418 0.45123
 O272 O 0.04079 0.53671 0.44837
 O273 O -0.04911 0.49628 0.44465
 O274 O -0.05391 0.45801 0.46229
 O275 O -0.05634 0.54711 0.50275
 O276 O -0.03613 0.55372 0.54171
 O277 O -0.01717 0.56893 0.48535
 O278 O -0.00504 0.56920 0.52996
 O279 O -0.07122 0.51293 0.48358
 O280 O -0.07056 0.46844 0.49631
 O281 O -0.01529 0.51634 0.43004
 O282 O 0.02663 0.49899 0.43027
 O283 O -0.00644 0.44456 0.54533
 O284 O -0.04553 0.46521 0.55044
 O285 O 0.04450 0.50434 0.55456
 O286 O 0.04790 0.54462 0.53331
 O287 O 0.05345 0.45302 0.49525
 O288 O 0.03368 0.45353 0.45394
 Zr289 Zr 0.01616 0.46103 0.48818
 O290 O -0.00662 0.48225 0.46508
 Zr291 Zr 0.03706 0.51086 0.51705
 O292 O 0.01593 0.53406 0.49428
 Zr293 Zr -0.01272 0.48216 0.53798
 O294 O -0.03609 0.50471 0.51681
 Zr295 Zr 0.00912 0.51719 0.46016
 O296 O 0.03321 0.49533 0.48173
 Zr297 Zr -0.04074 0.48903 0.48176
 O298 O -0.01922 0.46508 0.50380
 Zr299 Zr -0.01914 0.53886 0.50991
 O300 O 0.00286 0.51748 0.53410
 O301 O 0.02195 0.47626 0.52291
 O302 O -0.02565 0.52375 0.47524
 C303 C 0.00372 0.42731 0.53270
 C304 C 0.07083 0.46621 0.50439
 C305 C 0.03168 0.49453 0.57183
 C306 C -0.00791 0.57143 0.46371
 C307 C -0.03681 0.50691 0.42749
 C308 C -0.07367 0.53460 0.49268
 H309 H -0.00872 0.47352 0.44920
 H310 H -0.05192 0.50664 0.52560
 H311 H 0.03248 0.46578 0.53348
 H312 H 0.02474 0.54985 0.49211
 H313 H 0.05515 0.52609 0.45208
 H314 H 0.06622 0.53742 0.49062
 H315 H -0.07690 0.47727 0.51094
 H316 H -0.05052 0.45334 0.53753
 H317 H 0.02607 0.51005 0.41574
 H318 H 0.04428 0.43876 0.45559
 H319 H -0.04801 0.54136 0.54788
 H320 H -0.02614 0.51292 0.57153
 H321 H 0.01284 0.41621 0.47037
 H322 H -0.04287 0.44419 0.46668
 H323 H 0.03583 0.54830 0.54648
 H324 H 0.00986 0.57517 0.52133
 O325 O 0.56856 0.98829 0.01630
 O326 O 0.56861 1.02993 0.00359
 O327 O 0.51044 0.98609 0.07045
 O328 O 0.47019 0.99363 0.07223
 O329 O 0.51388 0.93059 0.01250
 O330 O 0.50317 0.93067 -0.02967
 O331 O 0.44441 1.04836 0.00450
 O332 O 0.46168 1.05115 0.04302
 O333 O 0.50254 1.05510 -0.04666
 O334 O 0.54091 1.03756 -0.05125
 O335 O 0.45185 0.99702 -0.05422
 O336 O 0.44524 0.95791 -0.03412
 O337 O 0.42982 1.01425 -0.01517
 O338 O 0.42952 0.96963 -0.00313
 O339 O 0.48609 1.01627 -0.06888
 O340 O 0.53060 1.00354 -0.06805
 O341 O 0.48229 1.06964 -0.01293
 O342 O 0.49944 1.06935 0.02907
 O343 O 0.55424 0.95442 -0.00398
 O344 O 0.53376 0.94937 -0.04316
 O345 O 0.49418 0.94493 0.04663
 O346 O 0.45387 0.96614 0.04992
 O347 O 0.54540 1.00429 0.05596
 O348 O 0.54488 1.04569 0.03634
 Zr349 Zr 0.53755 1.01149 0.01869
 O350 O 0.51642 1.03463 -0.00413
 Zr351 Zr 0.48766 0.98247 0.03927
 O352 O 0.46453 1.00528 0.01809
 Zr353 Zr 0.51665 0.96172 -0.01041
 O354 O 0.49417 0.98292 -0.03383
 Zr355 Zr 0.48138 1.03946 0.01144
 O356 O 0.50315 1.01785 0.03557
 Zr357 Zr 0.50985 1.01800 -0.03831
 O358 O 0.53371 0.99594 -0.01674
 Zr359 Zr 0.45994 0.98973 -0.01703
 O360 O 0.48124 0.96551 0.00501
 O361 O 0.52234 0.97670 0.02430
 O362 O 0.47504 1.02444 -0.02338
 C363 C 0.57142 0.96706 0.00626
 C364 C 0.53216 0.99505 0.07325
 C365 C 0.50410 0.92771 0.03382
 C366 C 0.42724 1.03589 -0.00591
 C367 C 0.49180 1.07223 -0.03441
 C368 C 0.46444 1.00718 -0.07145
 H369 H 0.52512 1.05053 -0.00616
 H370 H 0.49234 0.97416 -0.04968
 H371 H 0.53280 0.96611 0.03485
 H372 H 0.44869 1.00741 0.02682
 H373 H 0.47224 1.04742 0.05742
 H374 H 0.46093 1.00882 0.06836
 H375 H 0.52180 0.98895 -0.07449
 H376 H 0.54565 0.96230 -0.04806
 H377 H 0.48837 1.08387 0.02847
 H378 H 0.55960 1.04403 0.04702
 H379 H 0.45762 0.95187 -0.04604
 H380 H 0.48599 0.92818 -0.02407
 H381 H 0.58235 1.02941 0.01564
 H382 H 0.55470 1.03310 -0.04020
 H383 H 0.45026 0.95301 0.03779
 H384 H 0.42348 0.97820 0.01177
 O385 O 0.43193 0.51156 0.01555
 O386 O 0.43186 0.46995 0.00276
 O387 O 0.48990 0.51356 0.06985
 O388 O 0.53014 0.50602 0.07169
 O389 O 0.48667 0.56920 0.01200
 O390 O 0.49754 0.56918 -0.03015
 O391 O 0.55604 0.45137 0.00395
 O392 O 0.53866 0.44854 0.04240
 O393 O 0.49800 0.44476 -0.04735
 O394 O 0.45971 0.46238 -0.05203
 O395 O 0.54880 0.50284 -0.05475
 O396 O 0.55544 0.54187 -0.03454
 O397 O 0.57074 0.48549 -0.01563
 O398 O 0.57105 0.53009 -0.00355
 O399 O 0.51458 0.48364 -0.06950
 O400 O 0.47010 0.49640 -0.06873
 O401 O 0.51814 0.43015 -0.01360
 O402 O 0.50091 0.43042 0.02836
 O403 O 0.44636 0.54545 -0.00464
 O404 O 0.46696 0.55056 -0.04375
 O405 O 0.50624 0.55477 0.04615
 O406 O 0.54654 0.53354 0.04947
 O407 O 0.45495 0.49545 0.05524
 O408 O 0.45547 0.45409 0.03553
 Zr409 Zr 0.46290 0.48832 0.01797
 O410 O 0.48407 0.46520 -0.00484
 Zr411 Zr 0.51276 0.51724 0.03872
 O412 O 0.53592 0.49445 0.01754
 Zr413 Zr 0.48396 0.53812 -0.01099
 O414 O 0.50646 0.51693 -0.03440
 Zr415 Zr 0.51906 0.46030 0.01080
 O416 O 0.49724 0.48189 0.03492
 Zr417 Zr 0.49076 0.48187 -0.03898
 O418 O 0.46686 0.50392 -0.01742
 Zr419 Zr 0.54065 0.51005 -0.01754
 O420 O 0.51931 0.53425 0.00451
 O421 O 0.47813 0.52308 0.02369
 O422 O 0.52552 0.47536 -0.02399
 C423 C 0.42913 0.53280 0.00554
 C424 C 0.46815 0.50462 0.07258
 C425 C 0.49637 0.57203 0.03335
 C426 C 0.57327 0.46384 -0.00638
 C427 C 0.50866 0.42759 -0.03510
 C428 C 0.53624 0.49275 -0.07203
 H429 H 0.47535 0.44932 -0.00691
 H430 H 0.50835 0.52571 -0.05022
 H431 H 0.46766 0.53366 0.03424
 H432 H 0.55174 0.49229 0.02630
 H433 H 0.52808 0.45227 0.05679
 H434 H 0.53941 0.49083 0.06781
 H435 H 0.47892 0.51101 -0.07511
 H436 H 0.45507 0.53765 -0.04871
 H437 H 0.51197 0.41588 0.02777
 H438 H 0.44072 0.45575 0.04618
 H439 H 0.54308 0.54799 -0.04644
 H440 H 0.51469 0.57167 -0.02447
 H441 H 0.41809 0.47047 0.01478
 H442 H 0.44591 0.46681 -0.04099
 H443 H 0.55019 0.54668 0.03737
 H444 H 0.57701 0.52151 0.01137
 O445 O -0.06945 0.01184 0.51535
 O446 O -0.06954 -0.02983 0.50273
 O447 O -0.01137 0.01406 0.56954
 O448 O 0.02887 0.00659 0.57136
 O449 O -0.01472 0.06945 0.51144
 O450 O -0.00391 0.06924 0.46928
 O451 O 0.05464 -0.04843 0.50390
 O452 O 0.03727 -0.05107 0.54239
 O453 O -0.00337 -0.05525 0.45264
 O454 O -0.04173 -0.03770 0.44797
 O455 O 0.04738 0.00273 0.44497
 O456 O 0.05407 0.04182 0.46488
 O457 O 0.06933 -0.01442 0.48413
 O458 O 0.06959 0.03032 0.49604
 O459 O 0.01313 -0.01651 0.43032
 O460 O -0.03135 -0.00375 0.43106
 O461 O 0.01681 -0.06970 0.48645
 O462 O -0.00047 -0.06927 0.52841
 O463 O -0.05506 0.04562 0.49496
 O464 O -0.03449 0.05052 0.45579
 O465 O 0.00489 0.05517 0.54563
 O466 O 0.04522 0.03396 0.54897
 O467 O -0.04635 -0.00411 0.55508
 O468 O -0.04590 -0.04555 0.53554
 Zr469 Zr -0.03848 -0.01140 0.51782
 O470 O -0.01733 -0.03464 0.49509
 Zr471 Zr 0.01142 0.01762 0.53836
 O472 O 0.03456 -0.00528 0.51728
 Zr473 Zr -0.01746 0.03826 0.48860
 O474 O 0.00504 0.01695 0.46527
 Zr475 Zr 0.01767 -0.03946 0.51072
 O476 O -0.00411 -0.01775 0.53476
 Zr477 Zr -0.01067 -0.01812 0.46087
 O478 O -0.03455 0.00403 0.48235
 Zr479 Zr 0.03924 0.01015 0.48213
 O480 O 0.01792 0.03447 0.50406
 O481 O -0.02323 0.02338 0.52335
 O482 O 0.02410 -0.02456 0.47586
 C483 C -0.07227 0.03303 0.50524
 C484 C -0.03310 0.00512 0.57235
 C485 C -0.00500 0.07236 0.53278
 C486 C 0.07186 -0.03602 0.49348
 C487 C 0.00734 -0.07235 0.46496
 C488 C 0.03481 -0.00745 0.42774
 H489 H -0.02605 -0.05053 0.49309
 H490 H 0.00692 0.02566 0.44940
 H491 H -0.03369 0.03400 0.53387
 H492 H 0.05038 -0.00741 0.52604
 H493 H 0.02667 -0.04729 0.55675
 H494 H 0.03805 -0.00867 0.56757
 H495 H -0.02253 0.01084 0.42461
 H496 H -0.04639 0.03759 0.45091
 H497 H 0.01059 -0.08381 0.52787
 H498 H -0.06064 -0.04384 0.54619
 H499 H 0.04163 0.04797 0.45308
 H500 H 0.01325 0.07174 0.47492
 H501 H -0.08330 -0.02926 0.51476
 H502 H -0.05553 -0.03317 0.45897
 H503 H 0.04882 0.04709 0.53684
 H504 H 0.07566 0.02173 0.51092
 O505 O 0.67962 0.23394 0.26254
 O506 O 0.67962 0.24656 0.22091
 O507 O 0.73771 0.17971 0.26484
 O508 O 0.77797 0.17791 0.25748
 O509 O 0.73424 0.23784 0.32028
 O510 O 0.74498 0.28002 0.32009
 O511 O 0.80384 0.24547 0.20259
 O512 O 0.78652 0.20693 0.19990
 O513 O 0.74584 0.29669 0.19565
 O514 O 0.70741 0.30133 0.21312
 O515 O 0.79643 0.30435 0.25372
 O516 O 0.80294 0.28436 0.29290
 O517 O 0.81842 0.26524 0.23664
 O518 O 0.81865 0.25332 0.28129
 O519 O 0.76224 0.31900 0.23440
 O520 O 0.71772 0.31827 0.24709
 O521 O 0.76608 0.26289 0.18126
 O522 O 0.74882 0.22091 0.18161
 O523 O 0.69392 0.25431 0.29636
 O524 O 0.71443 0.29348 0.30135
 O525 O 0.75389 0.20364 0.30602
 O526 O 0.79424 0.20029 0.28488
 O527 O 0.70277 0.19419 0.24662
 O528 O 0.70333 0.21377 0.20522
 Zr529 Zr 0.71065 0.23147 0.23939
 O530 O 0.73184 0.25422 0.21621
 Zr531 Zr 0.76048 0.21091 0.26849
 O532 O 0.78367 0.23202 0.24567
 Zr533 Zr 0.73152 0.26068 0.28909
 O534 O 0.75405 0.28404 0.26785
 Zr535 Zr 0.76687 0.23859 0.21147
 O536 O 0.74504 0.21453 0.23311
 Zr537 Zr 0.73844 0.28844 0.23275
 O538 O 0.71452 0.26694 0.25484
 Zr539 Zr 0.78828 0.26719 0.26113
 O540 O 0.76691 0.24522 0.28537
 O541 O 0.72580 0.22592 0.27419
 O542 O 0.77323 0.27345 0.22640
 C543 C 0.67674 0.24405 0.28373
 C544 C 0.71601 0.17691 0.25585
 C545 C 0.74399 0.21651 0.32320
 C546 C 0.82101 0.25592 0.21504
 C547 C 0.75663 0.28438 0.17859
 C548 C 0.78389 0.32157 0.24348
 H549 H 0.72317 0.25622 0.20030
 H550 H 0.75590 0.29992 0.27656
 H551 H 0.71532 0.21539 0.28478
 H552 H 0.79950 0.22327 0.24357
 H553 H 0.77592 0.19255 0.20363
 H554 H 0.78719 0.18171 0.24225
 H555 H 0.72651 0.32473 0.26168
 H556 H 0.70260 0.29839 0.28837
 H557 H 0.75993 0.22145 0.16711
 H558 H 0.68859 0.20310 0.20688
 H559 H 0.79058 0.29635 0.29888
 H560 H 0.76216 0.27443 0.32260
 H561 H 0.66587 0.23452 0.22143
 H562 H 0.69359 0.29035 0.21766
 H563 H 0.79784 0.21245 0.29799
 H564 H 0.82469 0.23839 0.27276
 O565 O 0.76244 0.82092 0.76673
 O566 O 0.72080 0.82090 0.75404
 O567 O 0.76464 0.76292 0.82104
 O568 O 0.75724 0.72267 0.82290
 O569 O 0.82020 0.76629 0.76304
 O570 O 0.82011 0.75546 0.72089
 O571 O 0.70250 0.69668 0.75527
 O572 O 0.69973 0.71405 0.79377
 O573 O 0.69567 0.75461 0.70398
 O574 O 0.71315 0.79301 0.69930
 O575 O 0.75382 0.70401 0.69649
 O576 O 0.79297 0.69752 0.71662
 O577 O 0.73660 0.68207 0.73558
 O578 O 0.78123 0.68183 0.74760
 O579 O 0.73451 0.73818 0.68177
 O580 O 0.74717 0.78270 0.68248
 O581 O 0.68119 0.73444 0.73778
 O582 O 0.68146 0.75174 0.77972
 O583 O 0.79632 0.80657 0.74646
 O584 O 0.80139 0.78599 0.70735
 O585 O 0.80587 0.74669 0.79723
 O586 O 0.78473 0.70636 0.80061
 O587 O 0.74643 0.79784 0.80648
 O588 O 0.70505 0.79725 0.78683
 Zr589 Zr 0.73927 0.78989 0.76921
 O590 O 0.71614 0.76866 0.74646
 Zr591 Zr 0.76834 0.74009 0.78990
 O592 O 0.74557 0.71687 0.76878
 Zr593 Zr 0.78906 0.76896 0.74014
 O594 O 0.76787 0.74640 0.71678
 Zr595 Zr 0.71137 0.73366 0.76212
 O596 O 0.73295 0.75553 0.78618
 Zr597 Zr 0.73277 0.76201 0.71229
 O598 O 0.75481 0.78596 0.73378
 Zr599 Zr 0.76111 0.71220 0.73366
 O600 O 0.78531 0.73360 0.75565
 O601 O 0.77407 0.77474 0.77485
 O602 O 0.72638 0.72725 0.72731
 C603 C 0.78366 0.82376 0.75666
 C604 C 0.75564 0.78463 0.82380
 C605 C 0.82308 0.75658 0.78439
 C606 C 0.71497 0.67950 0.74486
 C607 C 0.67857 0.74386 0.71628
 C608 C 0.74362 0.71653 0.67924
 H609 H 0.70023 0.77733 0.74442
 H610 H 0.77662 0.74453 0.70093
 H611 H 0.78465 0.78524 0.78538
 H612 H 0.74345 0.70105 0.77755
 H613 H 0.70343 0.72466 0.80814
 H614 H 0.74205 0.71339 0.81906
 H615 H 0.76179 0.77390 0.67606
 H616 H 0.78843 0.79783 0.70240
 H617 H 0.66695 0.74063 0.77918
 H618 H 0.70669 0.81199 0.79748
 H619 H 0.79896 0.70985 0.70461
 H620 H 0.82263 0.73830 0.72654
 H621 H 0.72131 0.83466 0.76606
 H622 H 0.71762 0.80684 0.71029
 H623 H 0.79785 0.70272 0.78847
 H624 H 0.77267 0.67584 0.76254
 O625 O 0.29639 0.19474 0.74513
 O626 O 0.30035 0.21386 0.70620
 O627 O 0.30455 0.25542 0.79569
 O628 O 0.28579 0.29092 0.80400
 O629 O 0.24426 0.20314 0.80453
 O630 O 0.20607 0.19771 0.78423
 O631 O 0.23764 0.31944 0.73256
 O632 O 0.27756 0.32013 0.74648
 O633 O 0.23322 0.26221 0.67996
 O634 O 0.24553 0.22167 0.67847
 O635 O 0.18015 0.26607 0.73642
 O636 O 0.17906 0.25579 0.77950
 O637 O 0.20335 0.30508 0.75211
 O638 O 0.19785 0.28421 0.79313
 O639 O 0.19450 0.24602 0.70251
 O640 O 0.21590 0.20510 0.69834
 O641 O 0.25226 0.29667 0.69444
 O642 O 0.29390 0.29696 0.71262
 O643 O 0.26192 0.18015 0.76418
 O644 O 0.21901 0.18040 0.75262
 O645 O 0.26396 0.23717 0.81911
 O646 O 0.25073 0.28082 0.81769
 O647 O 0.31906 0.23416 0.76252
 O648 O 0.31720 0.25135 0.72013
 Zr649 Zr 0.28851 0.23218 0.73870
 O650 O 0.26681 0.25392 0.71504
 Zr651 Zr 0.26683 0.26070 0.78840
 O652 O 0.24514 0.28429 0.76657
 Zr653 Zr 0.23842 0.21094 0.76704
 O654 O 0.21489 0.23241 0.74494
 Zr655 Zr 0.26064 0.28839 0.73137
 O656 O 0.28419 0.26745 0.75438
 Zr657 Zr 0.23166 0.23862 0.71064
 O658 O 0.25429 0.21501 0.73190
 Zr659 Zr 0.21074 0.26778 0.76018
 O660 O 0.23159 0.24507 0.78417
 O661 O 0.27297 0.22616 0.77326
 O662 O 0.22566 0.27361 0.72531
 C663 C 0.28345 0.17743 0.75475
 C664 C 0.32179 0.24475 0.78348
 C665 C 0.25412 0.21585 0.82184
 C666 C 0.21600 0.32217 0.74169
 C667 C 0.24206 0.28398 0.67731
 C668 C 0.17742 0.25661 0.71494
 H669 H 0.27530 0.25551 0.69898
 H670 H 0.19892 0.22381 0.74331
 H671 H 0.28343 0.21566 0.78390
 H672 H 0.24362 0.30040 0.77493
 H673 H 0.29324 0.31460 0.75400
 H674 H 0.28262 0.30523 0.79320
 H675 H 0.20124 0.20165 0.70860
 H676 H 0.22606 0.17702 0.73614
 H677 H 0.29193 0.31332 0.70472
 H678 H 0.33304 0.24259 0.72259
 H679 H 0.17508 0.23901 0.77364
 H680 H 0.19999 0.21121 0.79488
 H681 H 0.31703 0.20690 0.70897
 H682 H 0.26023 0.21223 0.68363
 H683 H 0.23517 0.27234 0.82204
 H684 H 0.20848 0.29856 0.79676
 O685 O 0.19551 0.74513 0.29695
 O686 O 0.21476 0.70625 0.30084
 O687 O 0.25599 0.79590 0.30527
 O688 O 0.29149 0.80437 0.28657
 O689 O 0.20376 0.80468 0.24497
 O690 O 0.19844 0.78441 0.20676
 O691 O 0.32031 0.73303 0.23827
 O692 O 0.32093 0.74692 0.27820
 O693 O 0.26322 0.68026 0.23376
 O694 O 0.22267 0.67865 0.24598
 O695 O 0.26700 0.73686 0.18081
 O696 O 0.25656 0.77995 0.17981
 O697 O 0.30592 0.75263 0.20405
 O698 O 0.28494 0.79361 0.19863
 O699 O 0.24707 0.70284 0.19507
 O700 O 0.20610 0.69852 0.21638
 O701 O 0.29762 0.69481 0.25285
 O702 O 0.29784 0.71298 0.29448
 O703 O 0.18089 0.76421 0.26252
 O704 O 0.18122 0.75272 0.21961
 O705 O 0.23772 0.81936 0.26471
 O706 O 0.28140 0.81808 0.25154
 O707 O 0.23483 0.76262 0.31968
 O708 O 0.25218 0.72029 0.31775
 Zr709 Zr 0.23297 0.73885 0.28909
 O710 O 0.25481 0.71529 0.26737
 Zr711 Zr 0.26135 0.78870 0.26755
 O712 O 0.28504 0.76696 0.24584
 Zr713 Zr 0.21170 0.76721 0.23907
 O714 O 0.23326 0.74521 0.21551
 Zr715 Zr 0.28924 0.73173 0.26126
 O716 O 0.26820 0.75465 0.28483
 Zr717 Zr 0.23957 0.71090 0.23221
 O718 O 0.21586 0.73205 0.25486
 Zr719 Zr 0.26859 0.76058 0.21143
 O720 O 0.24578 0.78448 0.23231
 O721 O 0.22685 0.77343 0.27362
 O722 O 0.27452 0.72569 0.22627
 C723 C 0.17818 0.75472 0.28403
 C724 C 0.24534 0.78362 0.32247
 C725 C 0.21640 0.82203 0.25485
 C726 C 0.32303 0.74222 0.21667
 C727 C 0.28498 0.67765 0.24263
 C728 C 0.25764 0.71534 0.17803
 H729 H 0.25644 0.69921 0.27583
 H730 H 0.22469 0.74358 0.19954
 H731 H 0.21631 0.78402 0.28409
 H732 H 0.30113 0.77537 0.24436
 H733 H 0.31538 0.75441 0.29388
 H734 H 0.30583 0.79361 0.28340
 H735 H 0.20266 0.70879 0.20173
 H736 H 0.17789 0.73622 0.22661
 H737 H 0.31422 0.70512 0.29251
 H738 H 0.24338 0.72269 0.33357
 H739 H 0.23982 0.77399 0.17577
 H740 H 0.21192 0.79511 0.20069
 H741 H 0.20777 0.70896 0.31751
 H742 H 0.21319 0.68376 0.26067
 H743 H 0.27293 0.82243 0.23599
 H744 H 0.29926 0.79727 0.20928
 O745 O 0.23828 0.67945 0.76544
 O746 O 0.27990 0.67931 0.75267
 O747 O 0.23646 0.73735 0.81992
 O748 O 0.24404 0.77755 0.82185
 O749 O 0.18078 0.73438 0.76205
 O750 O 0.18086 0.74530 0.71991
 O751 O 0.29878 0.80347 0.75421
 O752 O 0.30155 0.78596 0.79263
 O753 O 0.30529 0.74558 0.70273
 O754 O 0.28761 0.70729 0.69799
 O755 O 0.24735 0.79648 0.69549
 O756 O 0.20829 0.80313 0.71568
 O757 O 0.26471 0.81827 0.73464
 O758 O 0.22009 0.81865 0.74672
 O759 O 0.26647 0.76226 0.68063
 O760 O 0.25362 0.71780 0.68127
 O761 O 0.31991 0.76563 0.73654
 O762 O 0.31962 0.74823 0.77843
 O763 O 0.20444 0.69401 0.74529
 O764 O 0.19940 0.71470 0.70626
 O765 O 0.19527 0.75382 0.79625
 O766 O 0.21659 0.79405 0.79967
 O767 O 0.25447 0.70237 0.80523
 O768 O 0.29582 0.70281 0.78549
 Zr769 Zr 0.26161 0.71037 0.76796
 O770 O 0.28480 0.73155 0.74521
 Zr771 Zr 0.23281 0.76026 0.78884
 O772 O 0.25565 0.78342 0.76773
 Zr773 Zr 0.21187 0.73160 0.73906
 O774 O 0.23313 0.75411 0.71571
 Zr775 Zr 0.28977 0.76649 0.76095
 O776 O 0.26812 0.74466 0.78500
 Zr777 Zr 0.26816 0.73835 0.71109
 O778 O 0.24604 0.71446 0.73258
 Zr779 Zr 0.24008 0.78824 0.73266
 O780 O 0.21581 0.76691 0.75464
 O781 O 0.22688 0.72567 0.77372
 O782 O 0.27474 0.77306 0.72618
 C783 C 0.21704 0.67673 0.75541
 C784 C 0.24537 0.71559 0.82260
 C785 C 0.17798 0.74405 0.78343
 C786 C 0.28635 0.82074 0.74390
 C787 C 0.32246 0.75622 0.71501
 C788 C 0.25743 0.78395 0.67818
 H789 H 0.30067 0.72280 0.74312
 H790 H 0.22436 0.75606 0.69988
 H791 H 0.21628 0.71520 0.78425
 H792 H 0.25785 0.79921 0.77653
 H793 H 0.29782 0.77533 0.80697
 H794 H 0.25927 0.78676 0.81801
 H795 H 0.23902 0.72667 0.67491
 H796 H 0.21230 0.70283 0.70124
 H797 H 0.33418 0.75928 0.77788
 H798 H 0.29413 0.68804 0.79610
 H799 H 0.20218 0.79083 0.70372
 H800 H 0.17842 0.76245 0.72562
 H801 H 0.27935 0.66552 0.76466
 H802 H 0.28310 0.69346 0.70896
 H803 H 0.20346 0.79776 0.78758
 H804 H 0.22869 0.82458 0.76165
 O805 O 0.25392 0.20333 0.19529
 O806 O 0.29280 0.19935 0.21452
 O807 O 0.20311 0.19528 0.25577
 O808 O 0.19473 0.21408 0.29124
 O809 O 0.19455 0.25554 0.20345
 O810 O 0.21495 0.29370 0.19805
 O811 O 0.26614 0.26218 0.31994
 O812 O 0.25215 0.22230 0.32061
 O813 O 0.31900 0.26642 0.26287
 O814 O 0.32059 0.25414 0.22235
 O815 O 0.26258 0.31964 0.26647
 O816 O 0.21950 0.32075 0.25608
 O817 O 0.24669 0.29647 0.30549
 O818 O 0.20577 0.30204 0.28448
 O819 O 0.29655 0.30521 0.24657
 O820 O 0.30084 0.28376 0.20571
 O821 O 0.30436 0.24744 0.29729
 O822 O 0.28606 0.20587 0.29757
 O823 O 0.23496 0.23781 0.18061
 O824 O 0.24659 0.28069 0.18084
 O825 O 0.17980 0.23589 0.23743
 O826 O 0.18109 0.24915 0.28105
 O827 O 0.23636 0.18072 0.23464
 O828 O 0.27870 0.18254 0.25197
 Zr829 Zr 0.26023 0.21124 0.23272
 O830 O 0.28386 0.23293 0.25451
 Zr831 Zr 0.21045 0.23300 0.26106
 O832 O 0.23224 0.25470 0.28468
 Zr833 Zr 0.23204 0.26134 0.21136
 O834 O 0.25412 0.28486 0.23286
 Zr835 Zr 0.26741 0.23916 0.28891
 O836 O 0.24443 0.21561 0.26793
 Zr837 Zr 0.28837 0.26805 0.23920
 O838 O 0.26715 0.24543 0.21555
 Zr839 Zr 0.23876 0.28907 0.26817
 O840 O 0.21479 0.26822 0.24542
 O841 O 0.22570 0.22682 0.22658
 O842 O 0.27360 0.27412 0.27413
 C843 C 0.24437 0.21626 0.17795
 C844 C 0.21535 0.17802 0.24515
 C845 C 0.17716 0.24572 0.21611
 C846 C 0.25701 0.28382 0.32262
 C847 C 0.32157 0.25756 0.28463
 C848 C 0.28410 0.32233 0.25707
 H849 H 0.29990 0.22441 0.25615
 H850 H 0.25580 0.30081 0.22426
 H851 H 0.21508 0.21636 0.21606
 H852 H 0.22383 0.25624 0.30075
 H853 H 0.24461 0.20663 0.31508
 H854 H 0.20546 0.21731 0.30558
 H855 H 0.29058 0.29841 0.20220
 H856 H 0.26307 0.27362 0.17753
 H857 H 0.29390 0.20784 0.31395
 H858 H 0.27624 0.16671 0.24320
 H859 H 0.22544 0.32471 0.23932
 H860 H 0.20424 0.29980 0.21150
 H861 H 0.29003 0.18267 0.20757
 H862 H 0.31545 0.23942 0.21293
 H863 H 0.17682 0.26471 0.27256
 H864 H 0.20203 0.29139 0.29879
 O865 O 0.74483 0.70224 0.30557
 O866 O 0.70599 0.69829 0.28630
 O867 O 0.79564 0.69435 0.24497
 O868 O 0.80408 0.71328 0.20963
 O869 O 0.80426 0.75445 0.29753
 O870 O 0.78389 0.79258 0.30307
 O871 O 0.73265 0.76147 0.18109
 O872 O 0.74662 0.72156 0.18029
 O873 O 0.67982 0.76559 0.23816
 O874 O 0.67822 0.75313 0.27864
 O875 O 0.73624 0.81872 0.23468
 O876 O 0.77932 0.81981 0.24513
 O877 O 0.75212 0.79571 0.19565
 O878 O 0.79306 0.80117 0.21666
 O879 O 0.70227 0.80427 0.25455
 O880 O 0.69799 0.78272 0.29538
 O881 O 0.69445 0.74673 0.20368
 O882 O 0.71268 0.70511 0.20327
 O883 O 0.76380 0.73667 0.32034
 O884 O 0.75224 0.77956 0.32022
 O885 O 0.81898 0.73490 0.26348
 O886 O 0.81768 0.74829 0.21991
 O887 O 0.76241 0.67972 0.26608
 O888 O 0.72006 0.68163 0.24880
 Zr889 Zr 0.73855 0.71024 0.26815
 O890 O 0.71493 0.73201 0.24642
 Zr891 Zr 0.78833 0.73209 0.23986
 O892 O 0.76655 0.75385 0.21631
 Zr893 Zr 0.76677 0.76027 0.28966
 O894 O 0.74470 0.78387 0.26823
 Zr895 Zr 0.73137 0.73834 0.21203
 O896 O 0.75435 0.71472 0.23294
 Zr897 Zr 0.71044 0.76710 0.26184
 O898 O 0.73165 0.74439 0.28541
 Zr899 Zr 0.76007 0.78818 0.23293
 O900 O 0.78401 0.76725 0.25562
 O901 O 0.77309 0.72579 0.27433
 O902 O 0.72522 0.77326 0.22693
 C903 C 0.75435 0.71514 0.32296
 C904 C 0.78340 0.67704 0.25551
 C905 C 0.82164 0.74468 0.28483
 C906 C 0.74177 0.78312 0.17848
 C907 C 0.67726 0.75684 0.21636
 C908 C 0.71471 0.82140 0.24406
 H909 H 0.69888 0.72352 0.24475
 H910 H 0.74302 0.79980 0.27688
 H911 H 0.78371 0.71530 0.28482
 H912 H 0.77497 0.75544 0.20023
 H913 H 0.75413 0.70586 0.18577
 H914 H 0.79330 0.71646 0.19531
 H915 H 0.70822 0.79739 0.29890
 H916 H 0.73574 0.77252 0.32350
 H917 H 0.70484 0.70714 0.18689
 H918 H 0.72252 0.66576 0.25749
 H919 H 0.77334 0.82376 0.26188
 H920 H 0.79455 0.79875 0.28962
 H921 H 0.70875 0.68159 0.29319
 H922 H 0.68337 0.73840 0.28805
 H923 H 0.82198 0.76382 0.22845
 H924 H 0.79677 0.79059 0.20230
 O925 O 0.69511 0.24609 0.79701
 O926 O 0.71436 0.20724 0.80091
 O927 O 0.75573 0.29684 0.80499
 O928 O 0.79112 0.30527 0.78606
 O929 O 0.70320 0.30559 0.74489
 O930 O 0.69768 0.28527 0.70675
 O931 O 0.81965 0.23385 0.73783
 O932 O 0.82044 0.24780 0.77772
 O933 O 0.76250 0.18110 0.73366
 O934 O 0.72200 0.17954 0.74609
 O935 O 0.76608 0.23754 0.68057
 O936 O 0.75567 0.28064 0.67952
 O937 O 0.80514 0.25336 0.70361
 O938 O 0.78414 0.29433 0.69817
 O939 O 0.74617 0.20358 0.69500
 O940 O 0.70531 0.19935 0.71650
 O941 O 0.79700 0.19567 0.75254
 O942 O 0.79741 0.21389 0.79415
 O943 O 0.68035 0.26510 0.76260
 O944 O 0.68049 0.25362 0.71970
 O945 O 0.73726 0.32026 0.76446
 O946 O 0.78085 0.31893 0.75108
 O947 O 0.73457 0.26362 0.81954
 O948 O 0.75187 0.22128 0.81760
 Zr949 Zr 0.73254 0.23980 0.78900
 O950 O 0.75426 0.21618 0.76723
 Zr951 Zr 0.76087 0.28958 0.76724
 O952 O 0.78443 0.26779 0.74546
 Zr953 Zr 0.71106 0.26809 0.73902
 O954 O 0.73250 0.24602 0.71541
 Zr955 Zr 0.78867 0.23260 0.76093
 O956 O 0.76776 0.25557 0.78456
 Zr957 Zr 0.73885 0.21174 0.73216
 O958 O 0.71527 0.23296 0.75486
 Zr959 Zr 0.76783 0.26135 0.71113
 O960 O 0.74513 0.28530 0.73207
 O961 O 0.72637 0.27437 0.77351
 O962 O 0.77379 0.22648 0.72602
 C963 C 0.67772 0.25563 0.78412
 C964 C 0.74516 0.28459 0.82226
 C965 C 0.71590 0.32294 0.75469
 C966 C 0.82229 0.24298 0.71619
 C967 C 0.78430 0.17850 0.74242
 C968 C 0.75668 0.21602 0.67788
 H969 H 0.75592 0.20013 0.77572
 H970 H 0.72386 0.24437 0.69948
 H971 H 0.71588 0.28497 0.78400
 H972 H 0.80052 0.27619 0.74388
 H973 H 0.81495 0.25531 0.79342
 H974 H 0.80543 0.29449 0.78286
 H975 H 0.70181 0.20959 0.70185
 H976 H 0.67720 0.23711 0.72671
 H977 H 0.81378 0.20602 0.79211
 H978 H 0.74315 0.22372 0.83347
 H979 H 0.73890 0.27469 0.67557
 H980 H 0.71115 0.29592 0.70060
 H981 H 0.70746 0.20999 0.81762
 H982 H 0.71255 0.18471 0.76079
 H983 H 0.77233 0.32324 0.73555
 H984 H 0.79849 0.29802 0.70877
 C985 C 0.06115 0.98459 1.15939
 C986 C 0.08930 0.98394 1.16400
 C987 C 0.08596 1.00286 1.18479
 C988 C 0.05799 1.00351 1.18056
 C989 C 0.06498 1.00600 1.14124
 C990 C 0.06162 1.02493 1.16200
 C991 C 0.09294 1.00535 1.14552
 C992 C 0.08979 1.02425 1.16664
 C993 C 0.09852 1.00122 1.20860
 C994 C 0.10994 1.00023 1.22761
 C995 C 0.05366 1.00731 1.11678
 C996 C 0.04454 1.00773 1.09655
 H997 H 0.04924 0.96829 1.15611
 H998 H 0.10077 0.96705 1.16510
 H999 H 0.04378 1.00270 1.19524
 H1000 H 0.05015 1.04183 1.16089
 H1001 H 0.10719 1.00615 1.13088
 H1002 H 0.10170 1.04055 1.16991
 C1003 C 0.59342 0.50495 0.64511
 C1004 C 0.59022 0.52423 0.66588
 C1005 C 0.58619 0.50316 0.68437
 C1006 C 0.58958 0.48388 0.66393
 C1007 C 0.56549 0.50564 0.64065
 C1008 C 0.56146 0.48457 0.65913
 C1009 C 0.56209 0.52494 0.66106
 C1010 C 0.55825 0.50385 0.67996
 C1011 C 0.59864 0.50188 0.70825
 C1012 C 0.61005 0.50115 0.72729
 C1013 C 0.55434 0.50661 0.61610
 C1014 C 0.54532 0.50681 0.59583
 H1015 H 0.60777 0.50545 0.63054
 H1016 H 0.60218 0.54053 0.66895
 H1017 H 0.60098 0.46696 0.66539
 H1018 H 0.54951 0.46826 0.65605
 H1019 H 0.55069 0.54186 0.65959
 H1020 H 0.54394 0.50335 0.69456
 C1021 C 0.40750 -0.00309 0.64618
 C1022 C 0.41070 -0.02243 0.66687
 C1023 C 0.41445 -0.00142 0.68548
 C1024 C 0.41107 0.01793 0.66512
 C1025 C 0.43546 -0.00356 0.64188
 C1026 C 0.43923 0.01746 0.66047
 C1027 C 0.43886 -0.02293 0.66223
 C1028 C 0.44243 -0.00189 0.68124
 C1029 C 0.40181 -0.00043 0.70928
 C1030 C 0.39025 0.00001 0.72823
 C1031 C 0.44669 -0.00454 0.61737
 C1032 C 0.45564 -0.00500 0.59707
 H1033 H 0.39325 -0.00361 0.63153
 H1034 H 0.39883 -0.03883 0.66979
 H1035 H 0.39954 0.03476 0.66658
 H1036 H 0.45109 0.03386 0.65754
 H1037 H 0.45039 -0.03976 0.66074
 H1038 H 0.45663 -0.00137 0.69593
 C1039 C -0.05909 0.51452 1.15943
 C1040 C -0.08714 0.51722 1.16394
 C1041 C -0.08555 0.49711 1.18378
 C1042 C -0.05768 0.49440 1.17967
 C1043 C -0.06445 0.49440 1.14023
 C1044 C -0.06284 0.47427 1.16006
 C1045 C -0.09231 0.49711 1.14440
 C1046 C -0.09090 0.47700 1.16457
 C1047 C -0.09821 0.49850 1.20756
 C1048 C -0.10977 0.49927 1.22652
 C1049 C -0.05311 0.49329 1.11576
 C1050 C -0.04399 0.49299 1.09553
 H1051 H -0.04587 0.52994 1.15702
 H1052 H -0.09723 0.53491 1.16580
 H1053 H -0.04359 0.49334 1.19444
 H1054 H -0.05276 0.45658 1.15817
 H1055 H -0.10645 0.49817 1.12967
 H1056 H -0.10412 0.46158 1.16697
 C1057 C -0.09521 0.50460 0.35350
 C1058 C -0.09200 0.52375 0.33261
 C1059 C -0.08733 0.50260 0.31437
 C1060 C -0.09072 0.48344 0.33492
 C1061 C -0.06736 0.50580 0.35839
 C1062 C -0.06269 0.48464 0.34015
 C1063 C -0.06396 0.52498 0.33786
 C1064 C -0.05948 0.50380 0.31921
 C1065 C -0.09934 0.50093 0.29027
 C1066 C -0.11036 0.49994 0.27102
 C1067 C -0.05651 0.50712 0.38306
 C1068 C -0.04761 0.50751 0.40339
 H1069 H -0.10979 0.50499 0.36784
 H1070 H -0.10418 0.53983 0.32921
 H1071 H -0.10181 0.46632 0.33343
 H1072 H -0.05052 0.46856 0.34354
 H1073 H -0.05287 0.54210 0.33936
 H1074 H -0.04493 0.50341 0.30484
 C1075 C 0.40581 1.00457 -0.14498
 C1076 C 0.40854 1.02393 -0.16574
 C1077 C 0.41319 1.00298 -0.18422
 C1078 C 0.41028 0.98362 -0.16379
 C1079 C 0.43370 1.00603 -0.14044
 C1080 C 0.43836 0.98508 -0.15892
 C1081 C 0.43663 1.02542 -0.16085
 C1082 C 0.44109 1.00444 -0.17973
 C1083 C 0.40091 1.00138 -0.20817
 C1084 C 0.38973 1.00040 -0.22733
 C1085 C 0.44478 1.00729 -0.11588
 C1086 C 0.45374 1.00768 -0.09558
 H1087 H 0.39142 1.00467 -0.13045
 H1088 H 0.39614 1.03990 -0.16884
 H1089 H 0.39935 0.96639 -0.16528
 H1090 H 0.45075 0.96910 -0.15582
 H1091 H 0.44755 1.04264 -0.15934
 H1092 H 0.45545 1.00434 -0.19430
 C1093 C 0.59463 0.49560 -0.14588
 C1094 C 0.59163 0.47645 -0.16679
 C1095 C 0.58701 0.49760 -0.18505
 C1096 C 0.59018 0.51675 -0.16447
 C1097 C 0.56676 0.49429 -0.14115
 C1098 C 0.56213 0.51544 -0.15939
 C1099 C 0.56357 0.47511 -0.16171
 C1100 C 0.55913 0.49628 -0.18037
 C1101 C 0.59918 0.49932 -0.20906
 C1102 C 0.61034 0.50037 -0.22823
 C1103 C 0.55582 0.49288 -0.11651
 C1104 C 0.54693 0.49237 -0.09618
 H1105 H 0.60912 0.49527 -0.13145
 H1106 H 0.60390 0.46043 -0.17013
 H1107 H 0.60121 0.53392 -0.16588
 H1108 H 0.54987 0.53147 -0.15606
 H1109 H 0.55254 0.45794 -0.16027
 H1110 H 0.54467 0.49662 -0.19482
 C1111 C 0.09360 -0.00532 0.35430
 C1112 C 0.09069 -0.02456 0.33345
 C1113 C 0.08634 -0.00347 0.31506
 C1114 C 0.08942 0.01577 0.33558
 C1115 C 0.06568 -0.00647 0.35878
 C1116 C 0.06132 0.01462 0.34040
 C1117 C 0.06258 -0.02573 0.33828
 C1118 C 0.05841 -0.00462 0.31949
 C1119 C 0.09873 -0.00187 0.29115
 C1120 C 0.11004 -0.00086 0.27207
 C1121 C 0.05454 -0.00769 0.38333
 C1122 C 0.04554 -0.00803 0.40362
 H1123 H 0.10795 -0.00566 0.36886
 H1124 H 0.10291 -0.04066 0.33030
 H1125 H 0.10056 0.03287 0.33419
 H1126 H 0.04911 0.03072 0.34355
 H1127 H 0.05144 -0.04283 0.33969
 H1128 H 0.04410 -0.00428 0.30490
 C1129 C 0.15730 1.06371 0.98390
 C1130 C 0.16246 1.09177 0.98450
 C1131 C 0.18347 1.08716 1.00289
 C1132 C 0.17870 1.05927 1.00228
 C1133 C 0.13955 1.06686 1.00574
 C1134 C 0.16054 1.06223 1.02415
 C1135 C 0.14437 1.09474 1.00634
 C1136 C 0.16572 1.09030 1.02472
 C1137 C 0.20748 1.09937 1.00138
 C1138 C 0.22664 1.11058 1.00047
 C1139 C 0.11492 1.05588 1.00692
 C1140 C 0.09460 1.04694 1.00727
 H1141 H 0.15355 1.05266 0.96711
 H1142 H 0.16353 1.10401 0.96816
 H1143 H 0.19309 1.04484 1.00057
 H1144 H 0.15945 1.04999 1.04049
 H1145 H 0.13002 1.10921 1.00806
 H1146 H 0.16947 1.10136 1.04151
 C1147 C 0.64423 0.59370 0.50629
 C1148 C 0.66516 0.59045 0.52538
 C1149 C 0.68350 0.58654 0.50415
 C1150 C 0.66290 0.58997 0.48506
 C1151 C 0.63980 0.56576 0.50690
 C1152 C 0.65813 0.56184 0.48567
 C1153 C 0.66037 0.56231 0.52602
 C1154 C 0.67912 0.55859 0.50477
 C1155 C 0.70739 0.59899 0.50269
 C1156 C 0.72645 0.61035 0.50181
 C1157 C 0.61528 0.55454 0.50796
 C1158 C 0.59502 0.54546 0.50813
 H1159 H 0.62965 0.60803 0.50696
 H1160 H 0.66834 0.60236 0.54170
 H1161 H 0.66422 0.60144 0.46818
 H1162 H 0.65495 0.54995 0.46934
 H1163 H 0.65904 0.55085 0.54290
 H1164 H 0.69374 0.54431 0.50409
 C1165 C 0.66285 0.43654 -0.02454
 C1166 C 0.68162 0.44087 -0.00344
 C1167 C 0.68630 0.41299 -0.00230
 C1168 C 0.66793 0.40847 -0.02337
 C1169 C 0.64237 0.43324 -0.00527
 C1170 C 0.64710 0.40537 -0.00413
 C1171 C 0.66073 0.43777 0.01580
 C1172 C 0.66580 0.40971 0.01694
 C1173 C 0.71033 0.40081 -0.00077
 C1174 C 0.72950 0.38964 0.00010
 C1175 C 0.61773 0.44419 -0.00651
 C1176 C 0.59740 0.45311 -0.00689
 H1177 H 0.66133 0.44766 -0.04163
 H1178 H 0.69609 0.45533 -0.00310
 H1179 H 0.67119 0.39629 -0.03947
 H1180 H 0.63267 0.39088 -0.00446
 H1181 H 0.65747 0.44994 0.03191
 H1182 H 0.66730 0.39859 0.03404
 C1183 C 0.16140 -0.06349 0.47538
 C1184 C 0.18014 -0.05933 0.49654
 C1185 C 0.18473 -0.08724 0.49754
 C1186 C 0.16640 -0.09158 0.47641
 C1187 C 0.14087 -0.06683 0.49458
 C1188 C 0.14552 -0.09472 0.49558
 C1189 C 0.15920 -0.06247 0.51572
 C1190 C 0.16418 -0.09055 0.51672
 C1191 C 0.20874 -0.09945 0.49905
 C1192 C 0.22795 -0.11057 0.49991
 C1193 C 0.11628 -0.05578 0.49335
 C1194 C 0.09597 -0.04680 0.49297
 H1195 H 0.15996 -0.05228 0.45834
 H1196 H 0.19465 -0.04493 0.49698
 H1197 H 0.16965 -0.10369 0.46025
 H1198 H 0.13104 -0.10916 0.49514
 H1199 H 0.15595 -0.05038 0.53188
 H1200 H 0.16560 -0.10177 0.53375
 C1201 C 0.33863 -0.06190 0.52376
 C1202 C 0.31954 -0.05792 0.50288
 C1203 C 0.31524 -0.08587 0.50193
 C1204 C 0.33392 -0.09003 0.52279
 C1205 C 0.35891 -0.06501 0.50425
 C1206 C 0.35454 -0.09295 0.50331
 C1207 C 0.34024 -0.06083 0.48339
 C1208 C 0.33553 -0.08896 0.48245
 C1209 C 0.29140 -0.09846 0.50081
 C1210 C 0.27243 -0.10999 0.50026
 C1211 C 0.38346 -0.05386 0.50530
 C1212 C 0.40379 -0.04495 0.50577
 H1213 H 0.34020 -0.05067 0.54077
 H1214 H 0.30487 -0.04368 0.50266
 H1215 H 0.33103 -0.10218 0.53899
 H1216 H 0.36917 -0.10724 0.50353
 H1217 H 0.34314 -0.04869 0.46719
 H1218 H 0.33398 -0.10020 0.46543
 C1219 C -0.15790 0.43883 0.98442
 C1220 C -0.16278 0.41075 0.98302
 C1221 C -0.18299 0.41363 1.00262
 C1222 C -0.17851 0.44153 1.00403
 C1223 C -0.13918 0.43419 1.00515
 C1224 C -0.15938 0.43709 1.02477
 C1225 C -0.14372 0.40630 1.00374
 C1226 C -0.16426 0.40900 1.02334
 C1227 C -0.20692 0.40124 1.00133
 C1228 C -0.22599 0.38988 1.00062
 C1229 C -0.11460 0.44527 1.00616
 C1230 C -0.09429 0.45425 1.00640
 H1231 H -0.15500 0.45122 0.96842
 H1232 H -0.16445 0.39982 0.96582
 H1233 H -0.19310 0.45587 1.00410
 H1234 H -0.15768 0.44802 1.04197
 H1235 H -0.12916 0.39192 1.00367
 H1236 H -0.16716 0.39660 1.03934
 C1237 C -0.16070 0.56142 0.51578
 C1238 C -0.16538 0.58954 0.51700
 C1239 C -0.18615 0.58655 0.49802
 C1240 C -0.18186 0.55861 0.49681
 C1241 C -0.14254 0.56570 0.49448
 C1242 C -0.16329 0.56269 0.47547
 C1243 C -0.14689 0.59364 0.49569
 C1244 C -0.16799 0.59082 0.47672
 C1245 C -0.21001 0.59903 0.49984
 C1246 C -0.22907 0.61039 0.50091
 C1247 C -0.11804 0.55446 0.49294
 C1248 C -0.09778 0.54539 0.49235
 H1249 H -0.15741 0.54919 0.53184
 H1250 H -0.16652 0.60068 0.53411
 H1251 H -0.19652 0.54435 0.49733
 H1252 H -0.16214 0.55156 0.45836
 H1253 H -0.13227 0.60793 0.49517
 H1254 H -0.17127 0.60306 0.46067
 C1255 C 0.33775 1.06314 -0.02456
 C1256 C 0.31889 1.05907 -0.00348
 C1257 C 0.31427 1.08697 -0.00264
 C1258 C 0.33273 1.09123 -0.02369
 C1259 C 0.35816 1.06658 -0.00527
 C1260 C 0.35349 1.09448 -0.00442
 C1261 C 0.33971 1.06231 0.01579
 C1262 C 0.33470 1.09039 0.01664
 C1263 C 0.29028 1.09924 -0.00125
 C1264 C 0.27116 1.11051 -0.00041
 C1265 C 0.38279 1.05558 -0.00631
 C1266 C 0.40311 1.04664 -0.00654
 H1267 H 0.33931 1.05185 -0.04154
 H1268 H 0.30438 1.04465 -0.00305
 H1269 H 0.32957 1.10326 -0.03992
 H1270 H 0.36796 1.10893 -0.00485
 H1271 H 0.34287 1.05029 0.03203
 H1272 H 0.33317 1.10168 0.03361
 C1273 C 0.00420 1.14599 1.09440
 C1274 C 0.02346 1.16681 1.09130
 C1275 C 0.00239 1.18520 1.08684
 C1276 C -0.01687 1.16472 1.09011
 C1277 C 0.00530 1.14130 1.06653
 C1278 C -0.01577 1.15968 1.06206
 C1279 C 0.02459 1.16175 1.06323
 C1280 C 0.00349 1.18055 1.05896
 C1281 C 0.00084 1.20922 1.09902
 C1282 C -0.00010 1.22841 1.11017
 C1283 C 0.00646 1.11668 1.05552
 C1284 C 0.00672 1.09638 1.04653
 H1285 H 0.00454 1.13154 1.10887
 H1286 H 0.03958 1.17003 1.10345
 H1287 H -0.03396 1.16622 1.10126
 H1288 H -0.03190 1.15646 1.04991
 H1289 H 0.04167 1.16023 1.05208
 H1290 H 0.00315 1.19503 1.04453
 C1291 C 0.50433 0.64507 0.59346
 C1292 C 0.52378 0.66573 0.59057
 C1293 C 0.50289 0.68436 0.58629
 C1294 C 0.48344 0.66403 0.58936
 C1295 C 0.50540 0.64064 0.56555
 C1296 C 0.48450 0.65926 0.56126
 C1297 C 0.52487 0.66095 0.56245
 C1298 C 0.50395 0.67998 0.55837
 C1299 C 0.50163 0.70825 0.59872
 C1300 C 0.50098 0.72734 0.61006
 C1301 C 0.50641 0.61611 0.55437
 C1302 C 0.50664 0.59583 0.54535
 H1303 H 0.50453 0.63047 0.60778
 H1304 H 0.53993 0.66868 0.60276
 H1305 H 0.46636 0.66558 0.60053
 H1306 H 0.46834 0.65631 0.54907
 H1307 H 0.54194 0.65938 0.55130
 H1308 H 0.50375 0.69462 0.54409
 C1309 C -0.02516 0.66139 0.43708
 C1310 C -0.00351 0.67969 0.44073
 C1311 C -0.00319 0.68440 0.41285
 C1312 C -0.02480 0.66650 0.40901
 C1313 C -0.00646 0.64051 0.43312
 C1314 C -0.00614 0.64527 0.40524
 C1315 C 0.01516 0.65839 0.43696
 C1316 C 0.01548 0.66349 0.40890
 C1317 C -0.00148 0.70839 0.40065
 C1318 C -0.00044 0.72754 0.38946
 C1319 C -0.00785 0.61589 0.44407
 C1320 C -0.00833 0.59556 0.45298
 H1321 H -0.04191 0.66022 0.44876
 H1322 H -0.00238 0.69411 0.45518
 H1323 H -0.04123 0.67014 0.39738
 H1324 H -0.00727 0.63088 0.39075
 H1325 H 0.03159 0.65476 0.44858
 H1326 H 0.03224 0.66464 0.39722
 C1327 C 0.51415 1.15920 -0.06157
 C1328 C 0.51511 1.16389 -0.08969
 C1329 C 0.49612 1.18464 -0.08651
 C1330 C 0.49518 1.18035 -0.05857
 C1331 C 0.49283 1.14103 -0.06566
 C1332 C 0.47382 1.16175 -0.06246
 C1333 C 0.49377 1.14538 -0.09360
 C1334 C 0.47480 1.16646 -0.09060
 C1335 C 0.49788 1.20850 -0.09899
 C1336 C 0.49898 1.22755 -0.11036
 C1337 C 0.49149 1.11653 -0.05440
 C1338 C 0.49113 1.09629 -0.04529
 H1339 H 0.53034 1.15593 -0.04951
 H1340 H 0.53212 1.16505 -0.10098
 H1341 H 0.49581 1.19499 -0.04432
 H1342 H 0.45680 1.16058 -0.05117
 H1343 H 0.49315 1.13076 -0.10788
 H1344 H 0.45862 1.16974 -0.10267
 C1345 C 0.52605 0.33789 -0.06297
 C1346 C 0.50462 0.31944 -0.05881
 C1347 C 0.50343 0.31500 -0.08672
 C1348 C 0.52483 0.33304 -0.09107
 C1349 C 0.50714 0.35871 -0.06612
 C1350 C 0.50595 0.35422 -0.09402
 C1351 C 0.48574 0.34067 -0.06176
 C1352 C 0.48455 0.33585 -0.08985
 C1353 C 0.50148 0.29111 -0.09908
 C1354 C 0.50028 0.27203 -0.11038
 C1355 C 0.50869 0.38324 -0.05498
 C1356 C 0.50920 0.40351 -0.04594
 H1357 H 0.54316 0.33902 -0.05183
 H1358 H 0.50401 0.30487 -0.04448
 H1359 H 0.54090 0.32961 -0.10326
 H1360 H 0.50656 0.36876 -0.10839
 H1361 H 0.46967 0.34410 -0.04958
 H1362 H 0.46744 0.33473 -0.10099
 C1363 C 0.00608 -0.14581 0.40610
 C1364 C 0.02491 -0.16695 0.40956
 C1365 C 0.00343 -0.18501 0.41338
 C1366 C -0.01540 -0.16420 0.40974
 C1367 C 0.00653 -0.14128 0.43401
 C1368 C -0.01495 -0.15934 0.43784
 C1369 C 0.02539 -0.16207 0.43768
 C1370 C 0.00388 -0.18054 0.44131
 C1371 C 0.00176 -0.20891 0.40099
 C1372 C 0.00071 -0.22797 0.38963
 C1373 C 0.00776 -0.11673 0.44514
 C1374 C 0.00806 -0.09644 0.45416
 H1375 H 0.00704 -0.13129 0.39173
 H1376 H 0.04129 -0.17038 0.39780
 H1377 H -0.03221 -0.16536 0.39816
 H1378 H -0.03133 -0.15592 0.44959
 H1379 H 0.04220 -0.16089 0.44926
 H1380 H 0.00293 -0.19510 0.45564
 C1381 C 0.47812 -0.16213 0.56155
 C1382 C 0.49942 -0.18088 0.55816
 C1383 C 0.49956 -0.18527 0.58610
 C1384 C 0.47828 -0.16693 0.58967
 C1385 C 0.49721 -0.14157 0.56532
 C1386 C 0.49734 -0.14602 0.59326
 C1387 C 0.51849 -0.15991 0.56174
 C1388 C 0.51862 -0.16470 0.58987
 C1389 C 0.50063 -0.20915 0.59859
 C1390 C 0.50108 -0.22821 0.60998
 C1391 C 0.49609 -0.11703 0.55417
 C1392 C 0.49553 -0.09673 0.54522
 H1393 H 0.46144 -0.16078 0.54981
 H1394 H 0.50032 -0.19550 0.54389
 H1395 H 0.46175 -0.17010 0.60130
 H1396 H 0.49645 -0.13144 0.60757
 H1397 H 0.53503 -0.15672 0.55012
 H1398 H 0.53531 -0.16604 0.60161
 C1399 C -0.02481 0.33914 1.06194
 C1400 C -0.00365 0.32031 1.05810
 C1401 C -0.00298 0.31586 1.08602
 C1402 C -0.02411 0.33428 1.09005
 C1403 C -0.00558 0.35962 1.06539
 C1404 C -0.00491 0.35511 1.09331
 C1405 C 0.01556 0.34121 1.06135
 C1406 C 0.01623 0.33636 1.08945
 C1407 C -0.00162 0.29195 1.09844
 C1408 C -0.00085 0.27291 1.10983
 C1409 C -0.00656 0.38418 1.05426
 C1410 C -0.00669 0.40445 1.04523
 H1411 H -0.04172 0.34059 1.05053
 H1412 H -0.00309 0.30573 1.04377
 H1413 H -0.04043 0.33113 1.10199
 H1414 H -0.00547 0.36966 1.10767
 H1415 H 0.03188 0.34435 1.04943
 H1416 H 0.03314 0.33493 1.10086
 C1417 C 0.73422 0.31324 0.09223
 C1418 C 0.73611 0.34124 0.08710
 C1419 C 0.75397 0.33577 0.06583
 C1420 C 0.75207 0.30795 0.07057
 C1421 C 0.75644 0.31529 0.10966
 C1422 C 0.77431 0.30980 0.08841
 C1423 C 0.75833 0.34311 0.10487
 C1424 C 0.77619 0.33782 0.08326
 C1425 C 0.75269 0.34807 0.04186
 C1426 C 0.75200 0.35931 0.02273
 C1427 C 0.75737 0.30421 0.13424
 C1428 C 0.75748 0.29520 0.15452
 H1429 H 0.71696 0.30301 0.09621
 H1430 H 0.72036 0.35426 0.08628
 H1431 H 0.74946 0.29364 0.05619
 H1432 H 0.79006 0.29677 0.08925
 H1433 H 0.76094 0.35745 0.11921
 H1434 H 0.79344 0.34806 0.07927
 C1435 C 0.27552 0.81192 0.58879
 C1436 C 0.25441 0.80775 0.56999
 C1437 C 0.25323 0.83568 0.56560
 C1438 C 0.27431 0.84004 0.58399
 C1439 C 0.25626 0.81499 0.60930
 C1440 C 0.25508 0.84291 0.60485
 C1441 C 0.23517 0.81062 0.59092
 C1442 C 0.23399 0.83873 0.58613
 C1443 C 0.25167 0.84805 0.54169
 C1444 C 0.25077 0.85931 0.52257
 C1445 C 0.25752 0.80381 0.63382
 C1446 C 0.25792 0.79476 0.65409
 H1447 H 0.29263 0.80081 0.59017
 H1448 H 0.25408 0.79345 0.55539
 H1449 H 0.29040 0.85227 0.58085
 H1450 H 0.25540 0.85725 0.61942
 H1451 H 0.21907 0.79839 0.59406
 H1452 H 0.21687 0.84984 0.58476
 C1453 C 0.72495 0.68861 0.59001
 C1454 C 0.74592 0.69265 0.57101
 C1455 C 0.74691 0.66471 0.56664
 C1456 C 0.72597 0.66049 0.58524
 C1457 C 0.74438 0.68548 0.61034
 C1458 C 0.74538 0.65755 0.60592
 C1459 C 0.76533 0.68971 0.59176
 C1460 C 0.76632 0.66159 0.58699
 C1461 C 0.74815 0.65226 0.54274
 C1462 C 0.74874 0.64092 0.52366
 C1463 C 0.74334 0.69668 0.63487
 C1464 C 0.74306 0.70573 0.65514
 H1465 H 0.70791 0.69981 0.59155
 H1466 H 0.74619 0.70693 0.55638
 H1467 H 0.70979 0.64833 0.58227
 H1468 H 0.74511 0.64323 0.62052
 H1469 H 0.78151 0.70186 0.59473
 H1470 H 0.78336 0.65039 0.58548
 C1471 C 0.22582 0.18869 0.08879
 C1472 C 0.24643 0.19297 0.06946
 C1473 C 0.24769 0.16504 0.06510
 C1474 C 0.22711 0.16058 0.08402
 C1475 C 0.24560 0.18581 0.10881
 C1476 C 0.24687 0.15789 0.10439
 C1477 C 0.26620 0.19030 0.08990
 C1478 C 0.26746 0.16218 0.08513
 C1479 C 0.24866 0.15255 0.04122
 C1480 C 0.24908 0.14115 0.02218
 C1481 C 0.24465 0.19692 0.13337
 C1482 C 0.24425 0.20580 0.15370
 H1483 H 0.20866 0.19968 0.09058
 H1484 H 0.24628 0.20724 0.05481
 H1485 H 0.21103 0.14822 0.08132
 H1486 H 0.24701 0.14358 0.11899
 H1487 H 0.28228 0.20265 0.09261
 H1488 H 0.28461 0.15118 0.08335
 C1489 C 0.25164 0.15756 0.89550
 C1490 C 0.27116 0.16059 0.91605
 C1491 C 0.25032 0.16481 0.93476
 C1492 C 0.23080 0.16160 0.91453
 C1493 C 0.25255 0.18548 0.89101
 C1494 C 0.23170 0.18972 0.90969
 C1495 C 0.27209 0.18870 0.91122
 C1496 C 0.25122 0.19274 0.93032
 C1497 C 0.24928 0.15239 0.95866
 C1498 C 0.24882 0.14105 0.97774
 C1499 C 0.25359 0.19654 0.86643
 C1500 C 0.25409 0.20540 0.84609
 H1501 H 0.25185 0.14320 0.88093
 H1502 H 0.28738 0.14847 0.91896
 H1503 H 0.21379 0.15036 0.91617
 H1504 H 0.21547 0.20183 0.90678
 H1505 H 0.28910 0.19994 0.90956
 H1506 H 0.25101 0.20706 0.94492
 C1507 C 0.73176 0.68940 0.41084
 C1508 C 0.73071 0.66132 0.41583
 C1509 C 0.75019 0.66456 0.43610
 C1510 C 0.75124 0.69245 0.43150
 C1511 C 0.75263 0.68496 0.39222
 C1512 C 0.77214 0.68821 0.41247
 C1513 C 0.75159 0.65707 0.39688
 C1514 C 0.77106 0.66013 0.41747
 C1515 C 0.74905 0.65225 0.46007
 C1516 C 0.74855 0.64095 0.47918
 C1517 C 0.75378 0.69590 0.36759
 C1518 C 0.75433 0.70469 0.34721
 H1519 H 0.71560 0.70157 0.40781
 H1520 H 0.71364 0.65017 0.41750
 H1521 H 0.75106 0.70686 0.44602
 H1522 H 0.78920 0.69935 0.41079
 H1523 H 0.75177 0.64263 0.38240
 H1524 H 0.78722 0.64796 0.42048
 C1525 C 0.26760 0.80999 0.41026
 C1526 C 0.26855 0.83812 0.41502
 C1527 C 0.24899 0.83502 0.43524
 C1528 C 0.24803 0.80708 0.43088
 C1529 C 0.24679 0.81423 0.39154
 C1530 C 0.22721 0.81111 0.41174
 C1531 C 0.24775 0.84216 0.39595
 C1532 C 0.22819 0.83923 0.41650
 C1533 C 0.25002 0.84754 0.45909
 C1534 C 0.25049 0.85899 0.47811
 C1535 C 0.24577 0.80309 0.36699
 C1536 C 0.24531 0.79417 0.34667
 H1537 H 0.28380 0.79784 0.40740
 H1538 H 0.28558 0.84933 0.41665
 H1539 H 0.24818 0.79281 0.44552
 H1540 H 0.21018 0.79991 0.41010
 H1541 H 0.24760 0.85647 0.38135
 H1542 H 0.21199 0.85139 0.41935
 C1543 C 0.72805 0.31155 0.91188
 C1544 C 0.74917 0.30752 0.93069
 C1545 C 0.75001 0.33543 0.93524
 C1546 C 0.72892 0.33964 0.91683
 C1547 C 0.74732 0.31495 0.89142
 C1548 C 0.74816 0.34285 0.89603
 C1549 C 0.76842 0.31072 0.90982
 C1550 C 0.76926 0.33882 0.91477
 C1551 C 0.75127 0.34779 0.95918
 C1552 C 0.75186 0.35914 0.97825
 C1553 C 0.74603 0.30396 0.86682
 C1554 C 0.74535 0.29511 0.84647
 H1555 H 0.71107 0.30025 0.91039
 H1556 H 0.74962 0.29314 0.94522
 H1557 H 0.71268 0.35167 0.92000
 H1558 H 0.74771 0.35727 0.88154
 H1559 H 0.78466 0.29870 0.90664
 H1560 H 0.78624 0.35013 0.91624
 C1561 C 0.84290 0.39490 0.24448
 C1562 C 0.83961 0.41572 0.22529
 C1563 C 0.83576 0.43417 0.24642
 C1564 C 0.83922 0.41367 0.26562
 C1565 C 0.81496 0.39047 0.24397
 C1566 C 0.81109 0.40891 0.26511
 C1567 C 0.81147 0.41095 0.22475
 C1568 C 0.80780 0.42980 0.24591
 C1569 C 0.84819 0.45808 0.24769
 C1570 C 0.85950 0.47718 0.24838
 C1571 C 0.80374 0.36594 0.24300
 C1572 C 0.79468 0.34567 0.24281
 H1573 H 0.85722 0.38030 0.24385
 H1574 H 0.85148 0.41882 0.20892
 H1575 H 0.85074 0.41507 0.28246
 H1576 H 0.79924 0.40581 0.28148
 H1577 H 0.79996 0.40953 0.20791
 H1578 H 0.79352 0.44442 0.24654
 C1579 C 0.31352 0.91023 0.72556
 C1580 C 0.30905 0.92908 0.74657
 C1581 C 0.33690 0.93392 0.74772
 C1582 C 0.34156 0.91548 0.72674
 C1583 C 0.31690 0.88987 0.74492
 C1584 C 0.34475 0.89476 0.74607
 C1585 C 0.31224 0.90830 0.76591
 C1586 C 0.34027 0.91354 0.76705
 C1587 C 0.34889 0.95805 0.74915
 C1588 C 0.35986 0.97734 0.74997
 C1589 C 0.30603 0.86519 0.74376
 C1590 C 0.29713 0.84485 0.74341
 H1591 H 0.30243 0.90857 0.70846
 H1592 H 0.29451 0.94346 0.74682
 H1593 H 0.35374 0.91872 0.71063
 H1594 H 0.35931 0.88040 0.74582
 H1595 H 0.30006 0.90506 0.78201
 H1596 H 0.35136 0.91518 0.78415
 C1597 C 0.18956 0.90966 0.23224
 C1598 C 0.16141 0.91432 0.23164
 C1599 C 0.16471 0.93471 0.25098
 C1600 C 0.19268 0.93045 0.25159
 C1601 C 0.18568 0.89108 0.25325
 C1602 C 0.18900 0.91146 0.27261
 C1603 C 0.15772 0.89540 0.25265
 C1604 C 0.16085 0.91612 0.27198
 C1605 C 0.15213 0.95855 0.24996
 C1606 C 0.14067 0.97757 0.24956
 C1607 C 0.19690 0.86656 0.25432
 C1608 C 0.20586 0.84625 0.25483
 H1609 H 0.20150 0.90671 0.21590
 H1610 H 0.14996 0.91578 0.21476
 H1611 H 0.20691 0.94514 0.25111
 H1612 H 0.20044 0.90999 0.28949
 H1613 H 0.14346 0.88075 0.25312
 H1614 H 0.14890 0.91906 0.28832
 C1615 C 0.65760 0.39664 0.75227
 C1616 C 0.66075 0.41729 0.77167
 C1617 C 0.66487 0.43591 0.75073
 C1618 C 0.66154 0.41558 0.73133
 C1619 C 0.68553 0.39214 0.75303
 C1620 C 0.68966 0.41073 0.73208
 C1621 C 0.68887 0.41245 0.77246
 C1622 C 0.69280 0.43147 0.75150
 C1623 C 0.65239 0.45980 0.74968
 C1624 C 0.64094 0.47882 0.74924
 C1625 C 0.69658 0.36754 0.75412
 C1626 C 0.70543 0.34719 0.75464
 H1627 H 0.64324 0.38208 0.75263
 H1628 H 0.64873 0.42028 0.78794
 H1629 H 0.65021 0.41715 0.71438
 H1630 H 0.70168 0.40774 0.71581
 H1631 H 0.70020 0.41087 0.78940
 H1632 H 0.70712 0.44606 0.75114
 C1633 C 0.68853 0.59187 0.76624
 C1634 C 0.66045 0.58683 0.76703
 C1635 C 0.66390 0.56653 0.74762
 C1636 C 0.69181 0.57117 0.74682
 C1637 C 0.68426 0.61044 0.74530
 C1638 C 0.68773 0.59016 0.72587
 C1639 C 0.65637 0.60575 0.74610
 C1640 C 0.65964 0.58511 0.72669
 C1641 C 0.65169 0.54250 0.74879
 C1642 C 0.64053 0.52331 0.74938
 C1643 C 0.69527 0.63507 0.74438
 C1644 C 0.70422 0.65538 0.74420
 H1645 H 0.70053 0.59494 0.78250
 H1646 H 0.64914 0.58518 0.78399
 H1647 H 0.70623 0.55668 0.74716
 H1648 H 0.69904 0.59183 0.70891
 H1649 H 0.64191 0.62021 0.74576
 H1650 H 0.64763 0.58204 0.71043
 C1651 C 0.18899 0.09018 0.26737
 C1652 C 0.16088 0.08529 0.26825
 C1653 C 0.16413 0.06511 0.24867
 C1654 C 0.19206 0.06960 0.24779
 C1655 C 0.18473 0.10892 0.24659
 C1656 C 0.18800 0.08876 0.22700
 C1657 C 0.15681 0.10438 0.24747
 C1658 C 0.15989 0.08387 0.22790
 C1659 C 0.15177 0.04116 0.24962
 C1660 C 0.14048 0.02203 0.25001
 C1661 C 0.19581 0.13351 0.24562
 C1662 C 0.20473 0.15383 0.24516
 H1663 H 0.20108 0.09307 0.28361
 H1664 H 0.14963 0.08358 0.28524
 H1665 H 0.20640 0.05502 0.24796
 H1666 H 0.19924 0.09049 0.21000
 H1667 H 0.14243 0.11892 0.24730
 H1668 H 0.14779 0.08099 0.21167
 C1669 C 0.31051 0.08798 0.77310
 C1670 C 0.30683 0.06890 0.75215
 C1671 C 0.33479 0.06459 0.75159
 C1672 C 0.33866 0.08327 0.77251
 C1673 C 0.31390 0.10826 0.75364
 C1674 C 0.34185 0.10389 0.75309
 C1675 C 0.31001 0.08959 0.73271
 C1676 C 0.33816 0.08488 0.73217
 C1677 C 0.34742 0.04077 0.75063
 C1678 C 0.35902 0.02184 0.75019
 C1679 C 0.30276 0.13283 0.75456
 C1680 C 0.29389 0.15317 0.75492
 H1681 H 0.29904 0.08956 0.78995
 H1682 H 0.29258 0.05423 0.75173
 H1683 H 0.35057 0.08038 0.78888
 H1684 H 0.35614 0.11852 0.75351
 H1685 H 0.29811 0.09249 0.71635
 H1686 H 0.34963 0.08333 0.71531
 C1687 C 0.81041 0.58980 0.23185
 C1688 C 0.83856 0.58514 0.23127
 C1689 C 0.83518 0.56447 0.25029
 C1690 C 0.80721 0.56872 0.25087
 C1691 C 0.81421 0.60806 0.25315
 C1692 C 0.81081 0.58740 0.27219
 C1693 C 0.84218 0.60374 0.25257
 C1694 C 0.83897 0.58274 0.27158
 C1695 C 0.84777 0.54065 0.24898
 C1696 C 0.85925 0.52164 0.24841
 C1697 C 0.80298 0.63256 0.25454
 C1698 C 0.79400 0.65285 0.25528
 H1699 H 0.79853 0.59300 0.21552
 H1700 H 0.85008 0.58394 0.21441
 H1701 H 0.79298 0.55405 0.25013
 H1702 H 0.79931 0.58862 0.28905
 H1703 H 0.85644 0.61838 0.25332
 H1704 H 0.85085 0.57955 0.28791
 C1705 C 0.89467 0.25434 0.15639
 C1706 C 0.91535 0.27373 0.15951
 C1707 C 0.93390 0.25279 0.16384
 C1708 C 0.91356 0.23339 0.16055
 C1709 C 0.89004 0.25530 0.18428
 C1710 C 0.90859 0.23435 0.18863
 C1711 C 0.91036 0.27472 0.18759
 C1712 C 0.92933 0.25375 0.19174
 C1713 C 0.95790 0.25152 0.15158
 C1714 C 0.97706 0.25087 0.14038
 C1715 C 0.86544 0.25631 0.19533
 C1716 C 0.84513 0.25654 0.20429
 H1717 H 0.88018 0.25462 0.14197
 H1718 H 0.91842 0.28992 0.14740
 H1719 H 0.91516 0.21636 0.14934
 H1720 H 0.90551 0.21815 0.20073
 H1721 H 0.90874 0.29175 0.19880
 H1722 H 0.94385 0.25346 0.20613
 C1723 C 0.40981 0.73434 0.68857
 C1724 C 0.41483 0.73325 0.66051
 C1725 C 0.43533 0.75248 0.66378
 C1726 C 0.43071 0.75357 0.69166
 C1727 C 0.39144 0.75543 0.68412
 C1728 C 0.41193 0.77469 0.68741
 C1729 C 0.39612 0.75434 0.65625
 C1730 C 0.41696 0.77357 0.65934
 C1731 C 0.45935 0.75093 0.65157
 C1732 C 0.47853 0.75001 0.64041
 C1733 C 0.36683 0.75661 0.69515
 C1734 C 0.34654 0.75690 0.70415
 H1735 H 0.40658 0.71821 0.70071
 H1736 H 0.41630 0.71617 0.64935
 H1737 H 0.44520 0.75321 0.70608
 H1738 H 0.41043 0.79177 0.69856
 H1739 H 0.38166 0.75471 0.64179
 H1740 H 0.42020 0.78970 0.64718
 C1741 C 0.41109 0.22693 0.81109
 C1742 C 0.43016 0.24785 0.80722
 C1743 C 0.43445 0.24868 0.83517
 C1744 C 0.41577 0.22778 0.83922
 C1745 C 0.39079 0.24640 0.81427
 C1746 C 0.39514 0.24723 0.84221
 C1747 C 0.40945 0.26731 0.81020
 C1748 C 0.41414 0.26813 0.83834
 C1749 C 0.45831 0.24969 0.84769
 C1750 C 0.47737 0.25007 0.85908
 C1751 C 0.36627 0.24532 0.80307
 C1752 C 0.34598 0.24480 0.79409
 H1753 H 0.40954 0.20995 0.79979
 H1754 H 0.44484 0.24815 0.79298
 H1755 H 0.41866 0.21152 0.85129
 H1756 H 0.38049 0.24693 0.85649
 H1757 H 0.40656 0.28357 0.79814
 H1758 H 0.41567 0.28511 0.84964
 C1759 C 0.91068 0.76552 0.30839
 C1760 C 0.91562 0.76959 0.33621
 C1761 C 0.93472 0.74873 0.33551
 C1762 C 0.93020 0.74465 0.30789
 C1763 C 0.89087 0.74642 0.31506
 C1764 C 0.90996 0.72554 0.31436
 C1765 C 0.89545 0.75049 0.34268
 C1766 C 0.91489 0.72964 0.34215
 C1767 C 0.95869 0.74976 0.34782
 C1768 C 0.97781 0.75014 0.35909
 C1769 C 0.86624 0.74532 0.30410
 C1770 C 0.84588 0.74476 0.29529
 H1771 H 0.90865 0.78027 0.29438
 H1772 H 0.91823 0.78773 0.34529
 H1773 H 0.94477 0.74229 0.29373
 H1774 H 0.90734 0.70740 0.30528
 H1775 H 0.88091 0.75285 0.35687
 H1776 H 0.91690 0.71489 0.35617
 C1777 C 0.10452 0.75116 0.34219
 C1778 C 0.08441 0.77126 0.34019
 C1779 C 0.06521 0.75109 0.33505
 C1780 C 0.08500 0.73097 0.33723
 C1781 C 0.10896 0.75330 0.31434
 C1782 C 0.08978 0.73311 0.30918
 C1783 C 0.08919 0.77343 0.31214
 C1784 C 0.06959 0.75324 0.30718
 C1785 C 0.04132 0.75007 0.34752
 C1786 C 0.02227 0.74965 0.35893
 C1787 C 0.13355 0.75432 0.30327
 C1788 C 0.15391 0.75478 0.29443
 H1789 H 0.11913 0.75034 0.35647
 H1790 H 0.08191 0.78694 0.35308
 H1791 H 0.08299 0.71349 0.34765
 H1792 H 0.09230 0.71743 0.29629
 H1793 H 0.09121 0.79092 0.30173
 H1794 H 0.05494 0.75405 0.29294
 C1795 C 0.58817 0.27314 0.81138
 C1796 C 0.56921 0.25215 0.80730
 C1797 C 0.56480 0.25114 0.83522
 C1798 C 0.58336 0.27210 0.83948
 C1799 C 0.60854 0.25374 0.81452
 C1800 C 0.60407 0.25273 0.84244
 C1801 C 0.59000 0.23277 0.81025
 C1802 C 0.58518 0.23176 0.83836
 C1803 C 0.54090 0.24996 0.84767
 C1804 C 0.52183 0.24950 0.85905
 C1805 C 0.63312 0.25498 0.80344
 C1806 C 0.65346 0.25558 0.79458
 H1807 H 0.58969 0.29019 0.80019
 H1808 H 0.55460 0.25187 0.79300
 H1809 H 0.58034 0.28827 0.85164
 H1810 H 0.61864 0.25301 0.85678
 H1811 H 0.59303 0.21660 0.79810
 H1812 H 0.58367 0.21471 0.84955
 C1813 C 0.59122 0.76530 0.68946
 C1814 C 0.58642 0.76627 0.66136
 C1815 C 0.56596 0.74697 0.66455
 C1816 C 0.57037 0.74600 0.69247
 C1817 C 0.60970 0.74426 0.68522
 C1818 C 0.58926 0.72493 0.68843
 C1819 C 0.60523 0.74523 0.65731
 C1820 C 0.58445 0.72594 0.66031
 C1821 C 0.54207 0.74841 0.65212
 C1822 C 0.52304 0.74925 0.64072
 C1823 C 0.63424 0.74321 0.69638
 C1824 C 0.65451 0.74304 0.70543
 H1825 H 0.59430 0.78148 0.70158
 H1826 H 0.58497 0.78331 0.65014
 H1827 H 0.55576 0.74636 0.70678
 H1828 H 0.59073 0.70790 0.69965
 H1829 H 0.61981 0.74487 0.64296
 H1830 H 0.58137 0.70976 0.64819
 C1831 C 0.08941 0.26823 0.18959
 C1832 C 0.08469 0.26900 0.16146
 C1833 C 0.06439 0.24954 0.16469
 C1834 C 0.06871 0.24876 0.19263
 C1835 C 0.10807 0.24733 0.18552
 C1836 C 0.08780 0.22784 0.18877
 C1837 C 0.10369 0.24810 0.15759
 C1838 C 0.08307 0.22864 0.16064
 C1839 C 0.04054 0.25055 0.15215
 C1840 C 0.02153 0.25096 0.14069
 C1841 C 0.13262 0.24628 0.19667
 C1842 C 0.15294 0.24577 0.20559
 H1843 H 0.09232 0.28451 0.20162
 H1844 H 0.08313 0.28595 0.15013
 H1845 H 0.05405 0.24908 0.20689
 H1846 H 0.08937 0.21089 0.20009
 H1847 H 0.11832 0.24778 0.14329
 H1848 H 0.08018 0.21236 0.14860
 C1849 C -0.09292 0.99746 0.85443
 C1850 C -0.08912 1.01855 0.83562
 C1851 C -0.08571 0.99928 0.81518
 C1852 C -0.08968 0.97820 0.83366
 C1853 C -0.06498 0.99683 0.85889
 C1854 C -0.06155 0.97754 0.83846
 C1855 C -0.06100 1.01792 0.84042
 C1856 C -0.05777 0.99865 0.81958
 C1857 C -0.09813 1.00044 0.79128
 C1858 C -0.10939 1.00100 0.77216
 C1859 C -0.05389 0.99572 0.88345
 C1860 C -0.04506 0.99522 0.90380
 H1861 H -0.10726 0.99694 0.86901
 H1862 H -0.10056 1.03544 0.83417
 H1863 H -0.10161 0.96187 0.83060
 H1864 H -0.05012 0.96065 0.83993
 H1865 H -0.04907 1.03425 0.84349
 H1866 H -0.04346 0.99917 0.80497
 C1867 C 0.43944 0.51676 0.33993
 C1868 C 0.44254 0.49744 0.31911
 C1869 C 0.41459 0.49818 0.31478
 C1870 C 0.41130 0.51749 0.33520
 C1871 C 0.43541 0.49571 0.35844
 C1872 C 0.40747 0.49645 0.35405
 C1873 C 0.43871 0.47638 0.33803
 C1874 C 0.41058 0.47715 0.33330
 C1875 C 0.40212 0.49934 0.29091
 C1876 C 0.39079 0.49986 0.27182
 C1877 C 0.44655 0.49457 0.38298
 C1878 C 0.45542 0.49407 0.40331
 H1879 H 0.45144 0.53304 0.34296
 H1880 H 0.45681 0.49789 0.30447
 H1881 H 0.39993 0.53443 0.33376
 H1882 H 0.39316 0.49600 0.36866
 H1883 H 0.45008 0.45944 0.33949
 H1884 H 0.39857 0.46086 0.33028
 C1885 C 0.59331 0.00505 0.35494
 C1886 C 0.58915 -0.01620 0.33639
 C1887 C 0.58599 0.00286 0.31572
 C1888 C 0.59033 0.02411 0.33394
 C1889 C 0.56540 0.00618 0.35946
 C1890 C 0.56222 0.02527 0.33882
 C1891 C 0.56105 -0.01507 0.34125
 C1892 C 0.55807 0.00400 0.32019
 C1893 C 0.59829 0.00113 0.29178
 C1894 C 0.60946 0.00009 0.27262
 C1895 C 0.55428 0.00751 0.38401
 C1896 C 0.54529 0.00786 0.40429
 H1897 H 0.60769 0.00553 0.36946
 H1898 H 0.60031 -0.03329 0.33511
 H1899 H 0.60252 0.04020 0.33064
 H1900 H 0.55106 0.04236 0.34011
 H1901 H 0.54888 -0.03117 0.34454
 H1902 H 0.54373 0.00351 0.30563
 C1903 C 0.06286 0.52394 0.83765
 C1904 C 0.09093 0.52198 0.83287
 C1905 C 0.08598 0.50155 0.81391
 C1906 C 0.05808 0.50349 0.81828
 C1907 C 0.06525 0.50405 0.85763
 C1908 C 0.06027 0.48361 0.83868
 C1909 C 0.09313 0.50211 0.85320
 C1910 C 0.08835 0.48167 0.83390
 C1911 C 0.09838 0.50035 0.78999
 C1912 C 0.10963 0.49976 0.77084
 C1913 C 0.05416 0.50518 0.88221
 C1914 C 0.04534 0.50568 0.90257
 H1915 H 0.05228 0.54135 0.83948
 H1916 H 0.10368 0.53775 0.83020
 H1917 H 0.04382 0.50401 0.80364
 H1918 H 0.04753 0.46783 0.84136
 H1919 H 0.10743 0.50159 0.86780
 H1920 H 0.09894 0.46427 0.83209
 C1921 C 0.04904 0.49881 0.66529
 C1922 C 0.06561 0.47841 0.67650
 C1923 C 0.08437 0.49825 0.68396
 C1924 C 0.06803 0.51866 0.67316
 C1925 C 0.06274 0.49591 0.64068
 C1926 C 0.08151 0.51574 0.64818
 C1927 C 0.07910 0.47552 0.65150
 C1928 C 0.09802 0.49536 0.65932
 C1929 C 0.09733 0.49934 0.70758
 C1930 C 0.10905 0.49983 0.72643
 C1931 C 0.05123 0.49486 0.61631
 C1932 C 0.04217 0.49440 0.59606
 H1933 H 0.02875 0.50019 0.66745
 H1934 H 0.05921 0.46309 0.68844
 H1935 H 0.06362 0.53639 0.68234
 H1936 H 0.08795 0.53106 0.63626
 H1937 H 0.08353 0.45778 0.64234
 H1938 H 0.11831 0.49397 0.65712
 C1939 C 0.55213 1.00953 0.16479
 C1940 C 0.55872 0.98693 0.18099
 C1941 C 0.58426 0.99820 0.18566
 C1942 C 0.57789 1.02079 0.16987
 C1943 C 0.56282 0.99609 0.14228
 C1944 C 0.58836 1.00733 0.14701
 C1945 C 0.56920 0.97349 0.15807
 C1946 C 0.59491 0.98476 0.16313
 C1947 C 0.59714 0.99920 0.20933
 C1948 C 0.60883 0.99967 0.22819
 C1949 C 0.55145 0.99516 0.11784
 C1950 C 0.54250 0.99482 0.09754
 H1951 H 0.53439 1.01970 0.16518
 H1952 H 0.54667 0.97859 0.19526
 H1953 H 0.58158 1.04024 0.17499
 H1954 H 0.60045 1.01568 0.13277
 H1955 H 0.56553 0.95404 0.15294
 H1956 H 0.61265 0.97459 0.16271
 C1957 C 0.44034 0.52263 0.16196
 C1958 C 0.41213 0.52202 0.16625
 C1959 C 0.41571 0.50099 0.18486
 C1960 C 0.44374 0.50157 0.18097
 C1961 C 0.43727 0.50328 0.14153
 C1962 C 0.44087 0.48224 0.16012
 C1963 C 0.40925 0.50270 0.14548
 C1964 C 0.41266 0.48166 0.16442
 C1965 C 0.40281 0.49993 0.20852
 C1966 C 0.39115 0.49951 0.22742
 C1967 C 0.44873 0.50433 0.11713
 C1968 C 0.45775 0.50477 0.09685
 H1969 H 0.45183 0.53950 0.16066
 H1970 H 0.40016 0.53837 0.16905
 H1971 H 0.45776 0.50106 0.19584
 H1972 H 0.45283 0.46589 0.15731
 H1973 H 0.39519 0.50321 0.13065
 H1974 H 0.40116 0.46479 0.16570
 C1975 C -0.06275 0.02495 0.66063
 C1976 C -0.09069 0.02127 0.66516
 C1977 C -0.08464 0.00205 0.68504
 C1978 C -0.05688 0.00570 0.68092
 C1979 C -0.06350 0.00411 0.64150
 C1980 C -0.05743 -0.01513 0.66136
 C1981 C -0.09125 0.00046 0.64569
 C1982 C -0.08538 -0.01877 0.66590
 C1983 C -0.09735 0.00110 0.70880
 C1984 C -0.10894 0.00073 0.72773
 C1985 C -0.05228 0.00502 0.61699
 C1986 C -0.04341 0.00536 0.59665
 H1987 H -0.05335 0.04294 0.65818
 H1988 H -0.10451 0.03624 0.66701
 H1989 H -0.04290 0.00781 0.69568
 H1990 H -0.04361 -0.03009 0.65950
 H1991 H -0.10528 -0.00165 0.63096
 H1992 H -0.09479 -0.03677 0.66834
 C1993 C -0.16316 0.93937 0.97795
 C1994 C -0.16765 0.91119 0.97847
 C1995 C -0.18604 0.91482 0.99970
 C1996 C -0.18194 0.94281 0.99921
 C1997 C -0.14256 0.93606 0.99706
 C1998 C -0.16093 0.93970 1.01830
 C1999 C -0.14671 0.90807 0.99755
 C2000 C -0.16542 0.91152 1.01879
 C2001 C -0.20983 0.90214 1.00095
 C2002 C -0.22885 0.89070 1.00154
 C2003 C -0.11810 0.94742 0.99585
 C2004 C -0.09782 0.95644 0.99528
 H2005 H -0.16193 0.95092 0.96112
 H2006 H -0.17070 0.89932 0.96210
 H2007 H -0.19671 0.95695 0.99993
 H2008 H -0.15788 0.95156 1.03468
 H2009 H -0.13198 0.89389 0.99683
 H2010 H -0.16663 0.89996 1.03562
 C2011 C 0.35298 0.40812 0.49719
 C2012 C 0.33395 0.41199 0.51806
 C2013 C 0.31365 0.41497 0.49859
 C2014 C 0.33236 0.41093 0.47772
 C2015 C 0.35720 0.43608 0.49626
 C2016 C 0.33692 0.43909 0.47676
 C2017 C 0.33851 0.44015 0.51714
 C2018 C 0.31780 0.44295 0.49766
 C2019 C 0.28986 0.40231 0.49965
 C2020 C 0.27087 0.39080 0.50009
 C2021 C 0.38171 0.44732 0.49520
 C2022 C 0.40205 0.45622 0.49473
 H2023 H 0.36770 0.39391 0.49696
 H2024 H 0.33245 0.40073 0.53507
 H2025 H 0.32955 0.39877 0.46152
 H2026 H 0.33843 0.45033 0.45976
 H2027 H 0.34133 0.45229 0.53334
 H2028 H 0.30305 0.45712 0.49789
 C2029 C 0.34161 0.55990 -0.01687
 C2030 C 0.32076 0.55694 0.00245
 C2031 C 0.31671 0.58494 0.00182
 C2032 C 0.33716 0.58809 -0.01750
 C2033 C 0.36017 0.56366 0.00417
 C2034 C 0.35606 0.59165 0.00354
 C2035 C 0.33975 0.56050 0.02350
 C2036 C 0.33529 0.58868 0.02284
 C2037 C 0.29297 0.59767 0.00070
 C2038 C 0.27401 0.60922 0.00017
 C2039 C 0.38463 0.55231 0.00522
 C2040 C 0.40491 0.54330 0.00567
 H2041 H 0.34451 0.54793 -0.03320
 H2042 H 0.30597 0.54283 0.00196
 H2043 H 0.33581 0.59954 -0.03438
 H2044 H 0.37082 0.60580 0.00402
 H2045 H 0.34111 0.54905 0.04039
 H2046 H 0.33240 0.60066 0.03917
 C2047 C -0.16124 0.06150 0.52391
 C2048 C -0.16574 0.08963 0.52215
 C2049 C -0.18483 0.08499 0.50177
 C2050 C -0.18073 0.05705 0.50351
 C2051 C -0.14129 0.06382 0.50397
 C2052 C -0.16036 0.05916 0.48357
 C2053 C -0.14545 0.09176 0.50223
 C2054 C -0.16486 0.08730 0.48184
 C2055 C -0.20861 0.09768 0.50072
 C2056 C -0.22759 0.10921 0.50024
 C2057 C -0.11680 0.05252 0.50496
 C2058 C -0.09651 0.04353 0.50537
 H2059 H -0.15946 0.05080 0.54124
 H2060 H -0.16823 0.10230 0.53801
 H2061 H -0.19552 0.04292 0.50399
 H2062 H -0.15786 0.04650 0.46771
 H2063 H -0.13070 0.10592 0.50175
 H2064 H -0.16663 0.09801 0.46451
 C2065 C 0.65984 0.06027 0.51521
 C2066 C 0.68086 0.05760 0.49604
 C2067 C 0.68505 0.08555 0.49730
 C2068 C 0.66442 0.08841 0.51647
 C2069 C 0.64149 0.06455 0.49407
 C2070 C 0.64574 0.09250 0.49533
 C2071 C 0.66210 0.06168 0.47488
 C2072 C 0.66670 0.08982 0.47617
 C2073 C 0.70888 0.09809 0.49897
 C2074 C 0.72795 0.10945 0.49993
 C2075 C 0.61701 0.05324 0.49273
 C2076 C 0.59675 0.04417 0.49234
 H2077 H 0.65673 0.04798 0.53125
 H2078 H 0.69557 0.04340 0.49639
 H2079 H 0.66565 0.09949 0.53361
 H2080 H 0.63106 0.10674 0.49498
 H2081 H 0.66085 0.05059 0.45774
 H2082 H 0.66981 0.10212 0.46013
 C2083 C 0.16173 0.56027 1.01668
 C2084 C 0.18260 0.55735 0.99739
 C2085 C 0.18676 0.58533 0.99820
 C2086 C 0.16629 0.58843 1.01750
 C2087 C 0.14322 0.56422 0.99564
 C2088 C 0.14744 0.59219 0.99645
 C2089 C 0.16367 0.56111 0.97632
 C2090 C 0.16823 0.58927 0.97716
 C2091 C 0.21056 0.59795 0.99945
 C2092 C 0.22959 0.60938 1.00010
 C2093 C 0.11873 0.55295 0.99447
 C2094 C 0.09842 0.54401 0.99396
 H2095 H 0.15876 0.54821 1.03293
 H2096 H 0.19734 0.54318 0.99781
 H2097 H 0.16764 0.59977 1.03446
 H2098 H 0.13273 0.60640 0.99603
 H2099 H 0.16230 0.54977 0.95936
 H2100 H 0.17119 0.60134 0.96092
 C2101 C 0.16031 0.43904 0.52246
 C2102 C 0.16493 0.41088 0.52192
 C2103 C 0.18356 0.41465 0.50093
 C2104 C 0.17933 0.44263 0.50145
 C2105 C 0.13996 0.43569 0.50309
 C2106 C 0.15857 0.43947 0.48209
 C2107 C 0.14424 0.40772 0.50258
 C2108 C 0.16319 0.41131 0.48157
 C2109 C 0.20739 0.40206 0.49995
 C2110 C 0.22644 0.39065 0.49959
 C2111 C 0.11544 0.44691 0.50408
 C2112 C 0.09511 0.45582 0.50451
 H2113 H 0.15882 0.45055 0.53931
 H2114 H 0.16783 0.39899 0.53830
 H2115 H 0.19404 0.45683 0.50094
 H2116 H 0.15565 0.45136 0.46571
 H2117 H 0.12956 0.39348 0.50308
 H2118 H 0.16466 0.39980 0.46474
 C2119 C 0.65899 0.93988 -0.01598
 C2120 C 0.67984 0.94310 0.00329
 C2121 C 0.68396 0.91510 0.00295
 C2122 C 0.66352 0.91171 -0.01632
 C2123 C 0.64044 0.93630 0.00511
 C2124 C 0.64462 0.90832 0.00477
 C2125 C 0.66086 0.93972 0.02440
 C2126 C 0.66539 0.91154 0.02403
 C2127 C 0.70773 0.90240 0.00192
 C2128 C 0.72671 0.89088 0.00145
 C2129 C 0.61596 0.94761 0.00607
 C2130 C 0.59566 0.95659 0.00645
 H2131 H 0.65607 0.95167 -0.03242
 H2132 H 0.69459 0.95724 0.00265
 H2133 H 0.66489 0.90008 -0.03308
 H2134 H 0.62990 0.89413 0.00541
 H2135 H 0.65947 0.95134 0.04117
 H2136 H 0.66831 0.89974 0.04047
 C2137 C -0.02396 0.83861 0.93881
 C2138 C -0.02233 0.83427 0.91065
 C2139 C -0.00155 0.81554 0.91503
 C2140 C -0.00315 0.81947 0.94300
 C2141 C -0.00439 0.85892 0.93643
 C2142 C 0.01640 0.84020 0.94082
 C2143 C -0.00279 0.85493 0.90846
 C2144 C 0.01799 0.83587 0.91266
 C2145 C -0.00016 0.79184 0.90224
 C2146 C 0.00057 0.77289 0.89070
 C2147 C -0.00569 0.88334 0.94783
 C2148 C -0.00629 0.90362 0.95683
 H2149 H -0.04124 0.84002 0.94966
 H2150 H -0.03824 0.83155 0.89810
 H2151 H -0.00326 0.80461 0.95704
 H2152 H 0.03231 0.84293 0.95337
 H2153 H -0.00269 0.86975 0.89438
 H2154 H 0.03527 0.83447 0.90180
 C2155 C 0.51578 0.33895 0.44103
 C2156 C 0.49602 0.31842 0.44323
 C2157 C 0.49768 0.31434 0.41529
 C2158 C 0.51744 0.33447 0.41290
 C2159 C 0.49520 0.35785 0.43646
 C2160 C 0.49686 0.35371 0.40853
 C2161 C 0.47542 0.33775 0.43887
 C2162 C 0.47711 0.33326 0.41074
 C2163 C 0.49886 0.29061 0.40254
 C2164 C 0.49942 0.27171 0.39092
 C2165 C 0.49408 0.38235 0.44770
 C2166 C 0.49360 0.40269 0.45656
 H2167 H 0.53167 0.34158 0.45362
 H2168 H 0.49571 0.30363 0.45734
 H2169 H 0.53474 0.33284 0.40211
 H2170 H 0.49716 0.36846 0.39437
 H2171 H 0.45811 0.33939 0.44965
 H2172 H 0.46122 0.33064 0.39814
 C2173 C -0.01731 0.33889 0.55839
 C2174 C 0.00306 0.31891 0.55695
 C2175 C 0.00054 0.31486 0.58483
 C2176 C -0.01983 0.33444 0.58647
 C2177 C 0.00258 0.35836 0.56360
 C2178 C 0.00006 0.35426 0.59148
 C2179 C 0.02296 0.33880 0.56196
 C2180 C 0.02042 0.33435 0.59002
 C2181 C -0.00038 0.29108 0.59752
 C2182 C -0.00073 0.27207 0.60899
 C2183 C 0.00350 0.38282 0.55225
 C2184 C 0.00388 0.40310 0.54323
 H2185 H -0.03282 0.34106 0.54525
 H2186 H 0.00426 0.30409 0.54291
 H2187 H -0.03744 0.33237 0.59666
 H2188 H -0.00114 0.36904 0.60556
 H2189 H 0.04058 0.34088 0.55177
 H2190 H 0.03593 0.33220 0.60317
 C2191 C 0.48304 0.83909 0.05890
 C2192 C 0.50343 0.81913 0.05732
 C2193 C 0.50091 0.81489 0.08518
 C2194 C 0.48053 0.83445 0.08695
 C2195 C 0.50292 0.85854 0.06424
 C2196 C 0.50041 0.85424 0.09209
 C2197 C 0.52332 0.83900 0.06246
 C2198 C 0.52078 0.83436 0.09050
 C2199 C 0.50003 0.79104 0.09774
 C2200 C 0.49973 0.77200 0.10916
 C2201 C 0.50384 0.88308 0.05306
 C2202 C 0.50423 0.90342 0.04419
 H2203 H 0.46753 0.84133 0.04577
 H2204 H 0.50464 0.80441 0.04318
 H2205 H 0.46292 0.83230 0.09712
 H2206 H 0.49920 0.86893 0.10627
 H2207 H 0.54094 0.84116 0.05230
 H2208 H 0.53629 0.83213 0.10363
 C2209 C 0.49803 0.64538 0.09193
 C2210 C 0.51884 0.66453 0.08822
 C2211 C 0.49927 0.68472 0.08504
 C2212 C 0.47847 0.66590 0.08892
 C2213 C 0.49738 0.64112 0.06397
 C2214 C 0.47779 0.66130 0.06077
 C2215 C 0.51819 0.65992 0.06007
 C2216 C 0.49861 0.68052 0.05707
 C2217 C 0.50011 0.70854 0.09766
 C2218 C 0.50040 0.72756 0.10912
 C2219 C 0.49653 0.61661 0.05273
 C2220 C 0.49619 0.59629 0.04379
 H2221 H 0.49776 0.63069 0.10615
 H2222 H 0.53575 0.66613 0.09961
 H2223 H 0.46213 0.66864 0.10093
 H2224 H 0.46088 0.65968 0.04939
 H2225 H 0.53453 0.65717 0.04807
 H2226 H 0.49889 0.69525 0.04289
 C2227 C -0.00299 0.14557 0.59137
 C2228 C 0.01784 0.16468 0.58762
 C2229 C -0.00171 0.18493 0.58465
 C2230 C -0.02253 0.16615 0.58858
 C2231 C -0.00383 0.14144 0.56339
 C2232 C -0.02339 0.16168 0.56041
 C2233 C 0.01701 0.16021 0.55945
 C2234 C -0.00254 0.18087 0.55667
 C2235 C -0.00072 0.20869 0.59738
 C2236 C -0.00029 0.22766 0.60890
 C2237 C -0.00478 0.11697 0.55208
 C2238 C -0.00516 0.09665 0.54314
 H2239 H -0.00321 0.13081 0.60552
 H2240 H 0.03481 0.16619 0.59892
 H2241 H -0.03878 0.16887 0.60070
 H2242 H -0.04037 0.16015 0.54912
 H2243 H 0.03326 0.15748 0.54734
 H2244 H -0.00232 0.19566 0.54256
 C2245 C 0.48435 0.15896 0.43919
 C2246 C 0.50346 0.18002 0.44198
 C2247 C 0.50229 0.18428 0.41404
 C2248 C 0.48318 0.16362 0.41107
 C2249 C 0.50556 0.14068 0.43493
 C2250 C 0.50440 0.14500 0.40700
 C2251 C 0.52469 0.16133 0.43793
 C2252 C 0.52350 0.16599 0.40980
 C2253 C 0.50063 0.20815 0.40160
 C2254 C 0.49970 0.22727 0.39035
 C2255 C 0.50694 0.11620 0.44619
 C2256 C 0.50740 0.09593 0.45524
 H2257 H 0.46826 0.15578 0.45141
 H2258 H 0.50301 0.19469 0.45622
 H2259 H 0.46608 0.16484 0.39993
 H2260 H 0.50484 0.13036 0.39273
 H2261 H 0.54179 0.16009 0.44907
 H2262 H 0.53959 0.16917 0.39757
 C2263 C -0.01548 0.66074 0.93990
 C2264 C 0.00390 0.68155 0.94268
 C2265 C 0.00292 0.68568 0.91471
 C2266 C -0.01646 0.66528 0.91175
 C2267 C 0.00549 0.64216 0.93582
 C2268 C 0.00452 0.64636 0.90786
 C2269 C 0.02490 0.66255 0.93880
 C2270 C 0.02389 0.66709 0.91065
 C2271 C 0.00165 0.70947 0.90207
 C2272 C 0.00096 0.72847 0.89062
 C2273 C 0.00664 0.61766 0.94707
 C2274 C 0.00712 0.59734 0.95598
 H2275 H -0.03167 0.65783 0.95206
 H2276 H 0.00360 0.69630 0.95683
 H2277 H -0.03349 0.66667 0.90052
 H2278 H 0.00481 0.63164 0.89367
 H2279 H 0.04193 0.66113 0.95002
 H2280 H 0.04008 0.66999 0.89847
 C2281 C 0.22751 0.68798 0.91206
 C2282 C 0.22879 0.65984 0.91665
 C2283 C 0.24965 0.66414 0.93529
 C2284 C 0.24841 0.69209 0.93111
 C2285 C 0.24701 0.68516 0.89173
 C2286 C 0.26789 0.68947 0.91036
 C2287 C 0.24825 0.65721 0.89598
 C2288 C 0.26913 0.66133 0.91495
 C2289 C 0.25096 0.65151 0.95908
 C2290 C 0.25166 0.64002 0.97806
 C2291 C 0.24582 0.69636 0.86722
 C2292 C 0.24529 0.70524 0.84689
 H2293 H 0.21037 0.69904 0.91057
 H2294 H 0.21271 0.64751 0.91952
 H2295 H 0.24851 0.70628 0.94583
 H2296 H 0.28396 0.70179 0.90748
 H2297 H 0.24815 0.64298 0.88129
 H2298 H 0.28626 0.65027 0.91642
 C2299 C 0.74644 0.15796 0.39636
 C2300 C 0.76753 0.16163 0.41518
 C2301 C 0.74827 0.16465 0.43570
 C2302 C 0.72719 0.16080 0.41720
 C2303 C 0.74563 0.18595 0.39227
 C2304 C 0.72635 0.18899 0.41277
 C2305 C 0.76673 0.18981 0.41076
 C2306 C 0.74746 0.19264 0.43167
 C2307 C 0.74955 0.15185 0.45939
 C2308 C 0.75019 0.14021 0.47829
 C2309 C 0.74444 0.19726 0.36782
 C2310 C 0.74391 0.20618 0.34750
 H2311 H 0.74598 0.14381 0.38161
 H2312 H 0.78449 0.15027 0.41645
 H2313 H 0.71093 0.14873 0.42013
 H2314 H 0.70939 0.20034 0.41148
 H2315 H 0.78298 0.20187 0.40781
 H2316 H 0.74793 0.20675 0.44647
 C2317 C 0.25422 0.34281 0.39565
 C2318 C 0.23312 0.33856 0.41435
 C2319 C 0.25233 0.33597 0.43496
 C2320 C 0.27342 0.34039 0.41658
 C2321 C 0.25576 0.31487 0.39148
 C2322 C 0.27499 0.31225 0.41207
 C2323 C 0.23466 0.31043 0.40985
 C2324 C 0.25387 0.30801 0.43085
 C2325 C 0.25051 0.34859 0.45872
 C2326 C 0.24937 0.36006 0.47770
 C2327 C 0.25717 0.30354 0.36703
 C2328 C 0.25759 0.29448 0.34677
 H2329 H 0.25442 0.35701 0.38093
 H2330 H 0.21587 0.34948 0.41556
 H2331 H 0.28934 0.35286 0.41964
 H2332 H 0.29224 0.30133 0.41083
 H2333 H 0.21873 0.29797 0.40679
 H2334 H 0.25366 0.29385 0.44560
 C2335 C 0.75304 0.84300 0.89721
 C2336 C 0.73197 0.83913 0.91604
 C2337 C 0.75126 0.83608 0.93651
 C2338 C 0.77232 0.84012 0.91801
 C2339 C 0.75396 0.81504 0.89295
 C2340 C 0.77327 0.81197 0.91340
 C2341 C 0.73290 0.81098 0.91144
 C2342 C 0.75219 0.80811 0.93231
 C2343 C 0.74991 0.84869 0.96031
 C2344 C 0.74915 0.86015 0.97931
 C2345 C 0.75518 0.80383 0.86844
 C2346 C 0.75571 0.79495 0.84810
 H2347 H 0.75343 0.85723 0.88253
 H2348 H 0.71496 0.85041 0.91739
 H2349 H 0.78852 0.85225 0.92099
 H2350 H 0.79029 0.80070 0.91203
 H2351 H 0.71670 0.79886 0.90845
 H2352 H 0.75180 0.79392 0.94703
 C2353 C 0.72155 0.81575 0.09103
 C2354 C 0.72745 0.84334 0.08670
 C2355 C 0.74579 0.83594 0.06643
 C2356 C 0.73991 0.80854 0.07035
 C2357 C 0.74269 0.81457 0.10979
 C2358 C 0.76103 0.80715 0.08953
 C2359 C 0.74856 0.84196 0.10581
 C2360 C 0.76691 0.83474 0.08521
 C2361 C 0.74741 0.84867 0.04271
 C2362 C 0.74839 0.86017 0.02374
 C2363 C 0.74144 0.80308 0.13418
 C2364 C 0.74111 0.79390 0.15438
 H2365 H 0.70287 0.80785 0.09371
 H2366 H 0.71366 0.85838 0.08526
 H2367 H 0.73641 0.79494 0.05549
 H2368 H 0.77482 0.79211 0.09098
 H2369 H 0.75206 0.85560 0.12064
 H2370 H 0.78558 0.84265 0.08255
 C2371 C 0.26375 0.31107 0.59012
 C2372 C 0.24458 0.30823 0.56915
 C2373 C 0.24558 0.33619 0.56497
 C2374 C 0.26474 0.33922 0.58556
 C2375 C 0.24259 0.31514 0.60850
 C2376 C 0.24358 0.34310 0.60427
 C2377 C 0.22339 0.31210 0.58794
 C2378 C 0.22442 0.34026 0.58335
 C2379 C 0.24718 0.34877 0.54116
 C2380 C 0.24817 0.36016 0.52213
 C2381 C 0.24144 0.30381 0.63296
 C2382 C 0.24123 0.29472 0.65320
 H2383 H 0.27992 0.29893 0.59319
 H2384 H 0.24505 0.29404 0.55443
 H2385 H 0.28178 0.35047 0.58431
 H2386 H 0.24312 0.35733 0.61895
 H2387 H 0.20636 0.30085 0.58921
 H2388 H 0.20825 0.35241 0.58028
 C2389 C 0.75498 0.15676 0.60491
 C2390 C 0.73375 0.16046 0.58624
 C2391 C 0.75287 0.16359 0.56561
 C2392 C 0.77409 0.15971 0.58395
 C2393 C 0.75577 0.18474 0.60910
 C2394 C 0.77491 0.18789 0.58849
 C2395 C 0.73455 0.18862 0.59077
 C2396 C 0.75366 0.19157 0.56974
 C2397 C 0.75138 0.15102 0.54179
 C2398 C 0.75054 0.13969 0.52270
 C2399 C 0.75696 0.19613 0.63354
 C2400 C 0.75728 0.20526 0.65377
 H2401 H 0.75557 0.14256 0.61962
 H2402 H 0.71680 0.14908 0.58505
 H2403 H 0.79034 0.14768 0.58085
 H2404 H 0.79186 0.19926 0.58970
 H2405 H 0.71829 0.20065 0.59386
 H2406 H 0.75307 0.20574 0.55501
 C2407 C 0.23601 0.68854 0.09064
 C2408 C 0.25528 0.69156 0.06976
 C2409 C 0.25442 0.66361 0.06545
 C2410 C 0.23516 0.66041 0.08593
 C2411 C 0.25710 0.68446 0.10909
 C2412 C 0.25625 0.65652 0.10472
 C2413 C 0.27639 0.68768 0.08863
 C2414 C 0.27550 0.65954 0.08390
 C2415 C 0.25302 0.65114 0.04158
 C2416 C 0.25220 0.63981 0.02250
 C2417 C 0.25815 0.69567 0.13360
 C2418 C 0.25836 0.70468 0.15388
 H2419 H 0.21978 0.70060 0.09371
 H2420 H 0.25483 0.70582 0.05512
 H2421 H 0.21818 0.64910 0.08455
 H2422 H 0.25669 0.64222 0.11933
 H2423 H 0.29337 0.69899 0.09003
 H2424 H 0.29173 0.64747 0.08083
 C2425 C 0.18203 0.59344 0.72946
 C2426 C 0.19109 0.56971 0.74253
 C2427 C 0.16450 0.56449 0.75069
 C2428 C 0.15527 0.58783 0.73761
 C2429 C 0.18595 0.60786 0.75350
 C2430 C 0.15937 0.60259 0.76165
 C2431 C 0.19522 0.58454 0.76660
 C2432 C 0.16842 0.57891 0.77473
 C2433 C 0.15168 0.54080 0.74931
 C2434 C 0.14009 0.52186 0.74859
 C2435 C 0.19741 0.63226 0.75480
 C2436 C 0.20648 0.65251 0.75541
 H2437 H 0.18774 0.59970 0.71085
 H2438 H 0.20397 0.55593 0.73464
 H2439 H 0.13872 0.58892 0.72564
 H2440 H 0.14645 0.61634 0.76954
 H2441 H 0.21176 0.58348 0.77857
 H2442 H 0.16269 0.57265 0.79334
 C2443 C 0.68891 0.08722 0.27355
 C2444 C 0.66074 0.08268 0.27293
 C2445 C 0.66449 0.06421 0.25181
 C2446 C 0.69248 0.06834 0.25240
 C2447 C 0.68565 0.10773 0.25432
 C2448 C 0.68942 0.08927 0.23319
 C2449 C 0.65767 0.10353 0.25374
 C2450 C 0.66124 0.08473 0.23260
 C2451 C 0.65173 0.04048 0.25062
 C2452 C 0.64009 0.02158 0.25009
 C2453 C 0.69688 0.13223 0.25547
 C2454 C 0.70573 0.15258 0.25596
 H2455 H 0.70039 0.08854 0.29042
 H2456 H 0.64880 0.07969 0.28927
 H2457 H 0.70663 0.05359 0.25180
 H2458 H 0.70135 0.09227 0.21685
 H2459 H 0.64347 0.11824 0.25433
 H2460 H 0.64976 0.08344 0.21574
 C2461 C 0.82407 0.09442 0.72092
 C2462 C 0.84850 0.08895 0.73461
 C2463 C 0.83648 0.06615 0.74635
 C2464 C 0.81223 0.07122 0.73268
 C2465 C 0.81547 0.10969 0.74314
 C2466 C 0.80343 0.08691 0.75488
 C2467 C 0.83973 0.10456 0.75678
 C2468 C 0.82789 0.08143 0.76854
 C2469 C 0.84902 0.04233 0.74807
 C2470 C 0.86036 0.02328 0.74916
 C2471 C 0.80416 0.13415 0.74188
 C2472 C 0.79506 0.15440 0.74161
 H2473 H 0.82240 0.10003 0.70134
 H2474 H 0.86718 0.08951 0.72630
 H2475 H 0.80105 0.05722 0.72283
 H2476 H 0.78474 0.08636 0.76318
 H2477 H 0.85094 0.11854 0.76664
 H2478 H 0.82957 0.07582 0.78813
 C2479 C 0.31295 0.58822 0.22393
 C2480 C 0.34108 0.58345 0.22515
 C2481 C 0.33673 0.56503 0.24622
 C2482 C 0.30880 0.56939 0.24503
 C2483 C 0.31597 0.60872 0.24320
 C2484 C 0.31162 0.59031 0.26427
 C2485 C 0.34390 0.60431 0.24439
 C2486 C 0.33973 0.58556 0.26546
 C2487 C 0.34915 0.54114 0.24785
 C2488 C 0.36045 0.52205 0.24889
 C2489 C 0.30478 0.63326 0.24203
 C2490 C 0.29574 0.65353 0.24181
 H2491 H 0.30185 0.58960 0.20682
 H2492 H 0.35334 0.58034 0.20907
 H2493 H 0.29451 0.55476 0.24534
 H2494 H 0.29937 0.59342 0.28035
 H2495 H 0.35823 0.61891 0.24408
 H2496 H 0.35083 0.58420 0.28257
 C2497 C 0.31113 0.40945 0.23453
 C2498 C 0.30824 0.43057 0.25355
 C2499 C 0.33621 0.43476 0.25257
 C2500 C 0.33928 0.41403 0.23355
 C2501 C 0.31517 0.39122 0.25581
 C2502 C 0.34314 0.39547 0.25483
 C2503 C 0.31208 0.41193 0.27486
 C2504 C 0.34025 0.41652 0.27385
 C2505 C 0.34881 0.45856 0.25089
 C2506 C 0.36027 0.47757 0.24992
 C2507 C 0.30387 0.36674 0.25717
 C2508 C 0.29481 0.34648 0.25760
 H2509 H 0.29902 0.40625 0.21837
 H2510 H 0.29404 0.44528 0.25297
 H2511 H 0.35055 0.41517 0.21653
 H2512 H 0.35737 0.38079 0.25541
 H2513 H 0.30081 0.41077 0.29188
 H2514 H 0.35236 0.41972 0.29000
 C2515 C 0.81089 0.91104 0.73360
 C2516 C 0.80773 0.93214 0.75261
 C2517 C 0.83574 0.93619 0.75219
 C2518 C 0.83907 0.91549 0.73319
 C2519 C 0.81444 0.89276 0.75493
 C2520 C 0.84243 0.89687 0.75451
 C2521 C 0.81108 0.91344 0.77395
 C2522 C 0.83927 0.91790 0.77350
 C2523 C 0.84850 0.95991 0.75082
 C2524 C 0.86007 0.97885 0.75006
 C2525 C 0.80309 0.86831 0.75616
 C2526 C 0.79410 0.84802 0.75672
 H2527 H 0.79908 0.90793 0.71721
 H2528 H 0.79362 0.94692 0.75179
 H2529 H 0.85070 0.91661 0.71639
 H2530 H 0.85658 0.88213 0.75533
 H2531 H 0.79946 0.91230 0.79075
 H2532 H 0.85109 0.92101 0.78990
 C2533 C 0.68685 0.91076 0.22550
 C2534 C 0.65872 0.91553 0.22659
 C2535 C 0.66298 0.93404 0.24759
 C2536 C 0.69092 0.92967 0.24653
 C2537 C 0.68374 0.89034 0.24485
 C2538 C 0.68800 0.90884 0.26585
 C2539 C 0.65581 0.89476 0.24590
 C2540 C 0.65989 0.91360 0.26691
 C2541 C 0.65060 0.95797 0.24902
 C2542 C 0.63941 0.97713 0.24985
 C2543 C 0.69494 0.86581 0.24374
 C2544 C 0.70398 0.84553 0.24345
 H2545 H 0.69803 0.90929 0.20844
 H2546 H 0.64654 0.91857 0.21045
 H2547 H 0.70520 0.94430 0.24683
 H2548 H 0.70017 0.90579 0.28200
 H2549 H 0.64148 0.88016 0.24560
 H2550 H 0.64870 0.91504 0.28397
 C2551 C 0.18778 0.41153 0.72303
 C2552 C 0.15962 0.41609 0.72427
 C2553 C 0.16383 0.43458 0.74529
 C2554 C 0.19180 0.43043 0.74409
 C2555 C 0.18492 0.39105 0.74235
 C2556 C 0.18914 0.40953 0.76338
 C2557 C 0.15696 0.39525 0.74355
 C2558 C 0.16100 0.41407 0.76458
 C2559 C 0.15125 0.45838 0.74687
 C2560 C 0.13986 0.47743 0.74786
 C2561 C 0.19625 0.36658 0.74119
 C2562 C 0.20533 0.34632 0.74094
 H2563 H 0.19889 0.41019 0.70592
 H2564 H 0.14733 0.41907 0.70820
 H2565 H 0.20597 0.44517 0.74435
 H2566 H 0.20142 0.40655 0.77945
 H2567 H 0.14275 0.38054 0.74329
 H2568 H 0.14988 0.41539 0.78170
 C2569 C 0.10498 0.74691 0.84224
 C2570 C 0.08609 0.76792 0.83845
 C2571 C 0.06561 0.74859 0.83565
 C2572 C 0.08418 0.72758 0.83963
 C2573 C 0.10901 0.74586 0.81426
 C2574 C 0.08855 0.72651 0.81145
 C2575 C 0.09046 0.76688 0.81027
 C2576 C 0.06958 0.74755 0.80766
 C2577 C 0.04190 0.74991 0.84843
 C2578 C 0.02294 0.75059 0.85998
 C2579 C 0.13344 0.74461 0.80286
 C2580 C 0.15372 0.74403 0.79386
 H2581 H 0.11978 0.74660 0.85635
 H2582 H 0.08480 0.78498 0.84966
 H2583 H 0.08131 0.71143 0.85184
 H2584 H 0.08985 0.70945 0.80024
 H2585 H 0.09333 0.78303 0.79806
 H2586 H 0.05474 0.74785 0.79360
 C2587 C 0.58915 0.26663 0.31054
 C2588 C 0.56827 0.24735 0.30753
 C2589 C 0.56414 0.24800 0.33551
 C2590 C 0.58460 0.26728 0.33871
 C2591 C 0.60767 0.24555 0.31436
 C2592 C 0.60346 0.24620 0.34232
 C2593 C 0.58721 0.22625 0.31114
 C2594 C 0.58267 0.22693 0.33930
 C2595 C 0.54038 0.24916 0.34822
 C2596 C 0.52144 0.24972 0.35980
 C2597 C 0.63216 0.24444 0.30309
 C2598 C 0.65248 0.24396 0.29415
 H2599 H 0.59211 0.28296 0.29858
 H2600 H 0.55353 0.24786 0.29338
 H2601 H 0.58325 0.28418 0.35015
 H2602 H 0.61817 0.24569 0.35652
 H2603 H 0.58858 0.20935 0.29971
 H2604 H 0.57972 0.21061 0.35127
 C2605 C 0.60445 0.75013 0.15767
 C2606 C 0.58378 0.73197 0.16514
 C2607 C 0.56508 0.75317 0.16378
 C2608 C 0.58543 0.77132 0.15613
 C2609 C 0.60854 0.75626 0.18498
 C2610 C 0.58987 0.77749 0.18364
 C2611 C 0.58820 0.73811 0.19265
 C2612 C 0.56911 0.75931 0.19110
 C2613 C 0.54132 0.75149 0.15114
 C2614 C 0.52232 0.75042 0.13970
 C2615 C 0.63296 0.75746 0.19639
 C2616 C 0.65318 0.75769 0.20555
 H2617 H 0.61924 0.74641 0.14403
 H2618 H 0.58100 0.71323 0.15743
 H2619 H 0.58401 0.78497 0.14096
 H2620 H 0.59266 0.79622 0.19134
 H2621 H 0.58962 0.72446 0.20781
 H2622 H 0.55430 0.76302 0.20470
 C2623 C 0.08776 0.27473 0.68757
 C2624 C 0.08301 0.27420 0.65943
 C2625 C 0.06481 0.25284 0.66322
 C2626 C 0.06915 0.25334 0.69117
 C2627 C 0.10846 0.25575 0.68404
 C2628 C 0.09027 0.23438 0.68784
 C2629 C 0.10406 0.25525 0.65610
 C2630 C 0.08553 0.23388 0.65972
 C2631 C 0.04093 0.25129 0.65077
 C2632 C 0.02185 0.25034 0.63945
 C2633 C 0.13299 0.25693 0.69524
 C2634 C 0.15327 0.25723 0.70426
 H2635 H 0.08898 0.29157 0.69912
 H2636 H 0.07974 0.29056 0.64761
 H2637 H 0.05453 0.25251 0.70544
 H2638 H 0.09354 0.21802 0.69965
 H2639 H 0.11866 0.25607 0.64179
 H2640 H 0.08433 0.21704 0.64816
 C2641 C 0.89531 0.24438 0.65699
 C2642 C 0.91390 0.26570 0.66056
 C2643 C 0.93462 0.24670 0.66380
 C2644 C 0.91636 0.22538 0.66005
 C2645 C 0.89112 0.24374 0.68496
 C2646 C 0.91182 0.22471 0.68822
 C2647 C 0.90937 0.26507 0.68872
 C2648 C 0.93049 0.24607 0.69178
 C2649 C 0.95840 0.24829 0.65114
 C2650 C 0.97738 0.24928 0.63965
 C2651 C 0.86666 0.24257 0.69633
 C2652 C 0.84642 0.24229 0.70545
 H2653 H 0.88061 0.24364 0.64280
 H2654 H 0.91502 0.28259 0.64909
 H2655 H 0.91952 0.20907 0.64812
 H2656 H 0.91067 0.20783 0.69970
 H2657 H 0.90621 0.28138 0.70064
 H2658 H 0.94522 0.24681 0.70593
 C2659 C 0.41256 0.72412 0.18844
 C2660 C 0.41697 0.72498 0.16025
 C2661 C 0.43521 0.74631 0.16405
 C2662 C 0.43121 0.74548 0.19204
 C2663 C 0.39182 0.74314 0.18540
 C2664 C 0.41006 0.76447 0.18920
 C2665 C 0.39588 0.74397 0.15741
 C2666 C 0.41445 0.76530 0.16103
 C2667 C 0.45893 0.74801 0.15131
 C2668 C 0.47789 0.74910 0.13979
 C2669 C 0.36741 0.74188 0.19684
 C2670 C 0.34717 0.74155 0.20597
 H2671 H 0.41149 0.70716 0.19981
 H2672 H 0.42010 0.70876 0.14819
 H2673 H 0.44602 0.74615 0.20612
 H2674 H 0.40693 0.78070 0.20125
 H2675 H 0.38111 0.74330 0.14329
 H2676 H 0.41550 0.78226 0.14966
 C2677 C 0.41220 0.27364 0.31018
 C2678 C 0.41717 0.27569 0.33822
 C2679 C 0.43402 0.25298 0.33656
 C2680 C 0.42945 0.25090 0.30873
 C2681 C 0.39042 0.25642 0.31570
 C2682 C 0.40726 0.23371 0.31404
 C2683 C 0.39504 0.25849 0.34353
 C2684 C 0.41222 0.23578 0.34205
 C2685 C 0.45788 0.25119 0.34900
 C2686 C 0.47699 0.25014 0.36027
 C2687 C 0.36594 0.25783 0.30444
 C2688 C 0.34568 0.25823 0.29538
 H2689 H 0.41189 0.28926 0.29699
 H2690 H 0.42155 0.29294 0.34830
 H2691 H 0.44386 0.24773 0.29457
 H2692 H 0.40290 0.21645 0.30397
 H2693 H 0.38066 0.26166 0.35772
 H2694 H 0.41250 0.22016 0.35525
 C2695 C 0.91395 0.77213 0.80869
 C2696 C 0.91886 0.77542 0.83661
 C2697 C 0.93572 0.75268 0.83600
 C2698 C 0.93122 0.74936 0.80827
 C2699 C 0.89218 0.75514 0.81490
 C2700 C 0.90903 0.73240 0.81428
 C2701 C 0.89674 0.75846 0.84262
 C2702 C 0.91393 0.73572 0.84219
 C2703 C 0.95951 0.75147 0.84863
 C2704 C 0.97852 0.75083 0.86007
 C2705 C 0.86769 0.75624 0.80366
 C2706 C 0.84736 0.75671 0.79475
 H2707 H 0.91367 0.78714 0.79480
 H2708 H 0.92319 0.79311 0.84593
 H2709 H 0.94568 0.74559 0.79431
 H2710 H 0.90470 0.71471 0.80498
 H2711 H 0.88231 0.76223 0.85663
 H2712 H 0.91419 0.72071 0.85607
   
