data_POSCAR
  _audit_creation_date              2014-09-24
  _audit_creation_method            'ToBaCCo'
  _symmetry_space_group_name_H-M    'P1'
  _symmetry_Int_Tables_number       1
  _symmetry_cell_setting            triclinic
  loop_
  _symmetry_equiv_pos_as_xyz
 x,y,z
_cell_length_a 109.3079
_cell_length_b 109.1696
_cell_length_c 110.7424
_cell_angle_alpha 89.954900
_cell_angle_beta 89.940400
_cell_angle_gamma 89.935900
loop_
  _atom_site_label
  _atom_site_type_symbol
  _atom_site_fract_x
  _atom_site_fract_y
  _atom_site_fract_z
N1 N 0.35974 0.32601 0.33581
 N2 N 0.35937 0.33435 0.32723
 C3 C 0.36868 0.33238 0.31948
 C4 C 0.37514 0.32232 0.32348
 C5 C 0.36929 0.31847 0.33382
 H6 H 0.37059 0.33777 0.31150
 H7 H 0.37175 0.31073 0.33943
 Cu8 Cu 0.34667 0.34685 0.32699
 Cu9 Cu 0.34777 0.32546 0.34883
 Cu10 Cu 0.32530 0.34791 0.34883
 N11 N 0.33416 0.35953 0.32724
 N12 N 0.32583 0.35990 0.33582
 C13 C 0.31828 0.36943 0.33383
 C14 C 0.32212 0.37530 0.32348
 C15 C 0.33218 0.36885 0.31949
 H16 H 0.31054 0.37187 0.33942
 H17 H 0.33756 0.37077 0.31151
 N18 N 0.32630 0.33498 0.36123
 N19 N 0.33487 0.32643 0.36122
 C20 C 0.33306 0.31893 0.37073
 C21 C 0.32292 0.32300 0.37693
 C22 C 0.31882 0.33315 0.37074
 H23 H 0.33863 0.31106 0.37295
 H24 H 0.31094 0.33870 0.37298
 H25 H 0.33368 0.33383 0.33948
 H26 H 0.34381 0.34398 0.34863
 N27 N 0.35980 0.82596 -0.16501
 N28 N 0.35943 0.83434 -0.17356
 C29 C 0.36877 0.83242 -0.18129
 C30 C 0.37523 0.82236 -0.17731
 C31 C 0.36936 0.81843 -0.16700
 H32 H 0.37070 0.83787 -0.18923
 H33 H 0.37180 0.81067 -0.16141
 Cu34 Cu 0.34673 0.84684 -0.17377
 Cu35 Cu 0.34780 0.82535 -0.15202
 Cu36 Cu 0.32534 0.84779 -0.15193
 N37 N 0.33424 0.85955 -0.17344
 N38 N 0.32589 0.85986 -0.16487
 C39 C 0.31839 0.86947 -0.16676
 C40 C 0.32230 0.87541 -0.17704
 C41 C 0.33233 0.86896 -0.18110
 H42 H 0.31068 0.87191 -0.16112
 H43 H 0.33777 0.87097 -0.18902
 N44 N 0.32630 0.83479 -0.13961
 N45 N 0.33487 0.82624 -0.13964
 C46 C 0.33305 0.81870 -0.13017
 C47 C 0.32290 0.82275 -0.12396
 C48 C 0.31881 0.83291 -0.13012
 H49 H 0.33863 0.81083 -0.12796
 H50 H 0.31094 0.83847 -0.12786
 H51 H 0.33373 0.83376 -0.16134
 H52 H 0.34384 0.84387 -0.15214
 N53 N 0.85974 0.32640 -0.16458
 N54 N 0.85942 0.33477 -0.17313
 C55 C 0.86878 0.33284 -0.18083
 C56 C 0.87522 0.32276 -0.17683
 C57 C 0.86929 0.31886 -0.16654
 H58 H 0.87075 0.33827 -0.18877
 H59 H 0.87171 0.31109 -0.16096
 Cu60 Cu 0.84672 0.34727 -0.17340
 Cu61 Cu 0.84769 0.32581 -0.15164
 Cu62 Cu 0.82520 0.34823 -0.15168
 N63 N 0.83419 0.35994 -0.17319
 N64 N 0.82580 0.36026 -0.16467
 C65 C 0.81823 0.36979 -0.16668
 C66 C 0.82216 0.37570 -0.17697
 C67 C 0.83227 0.36929 -0.18093
 H68 H 0.81044 0.37219 -0.16113
 H69 H 0.83772 0.37125 -0.18885
 N70 N 0.82615 0.33527 -0.13932
 N71 N 0.83473 0.32673 -0.13930
 C72 C 0.83288 0.31921 -0.12982
 C73 C 0.82270 0.32324 -0.12366
 C74 C 0.81862 0.33339 -0.12985
 H75 H 0.83845 0.31134 -0.12758
 H76 H 0.81071 0.33893 -0.12765
 H77 H 0.83363 0.33422 -0.16103
 H78 H 0.84368 0.34434 -0.15178
 N79 N 0.86003 0.82663 0.33598
 N80 N 0.86006 0.83529 0.32771
 C81 C 0.86943 0.83333 0.32004
 C82 C 0.87553 0.82294 0.32377
 C83 C 0.86939 0.81888 0.33387
 H84 H 0.87163 0.83895 0.31229
 H85 H 0.87151 0.81087 0.33922
 Cu86 Cu 0.84775 0.84817 0.32768
 Cu87 Cu 0.84780 0.82595 0.34875
 Cu88 Cu 0.82543 0.84847 0.34863
 N89 N 0.83495 0.86057 0.32757
 N90 N 0.82625 0.86064 0.33580
 C91 C 0.81859 0.87006 0.33361
 C92 C 0.82276 0.87612 0.32351
 C93 C 0.83311 0.86994 0.31985
 H94 H 0.81057 0.87226 0.33891
 H95 H 0.83880 0.87207 0.31213
 N96 N 0.82613 0.83538 0.36087
 N97 N 0.83467 0.82680 0.36092
 C98 C 0.83267 0.81920 0.37031
 C99 C 0.82243 0.82324 0.37639
 C100 C 0.81848 0.83346 0.37023
 H101 H 0.83819 0.81130 0.37257
 H102 H 0.81060 0.83904 0.37241
 H103 H 0.83418 0.83475 0.33909
 H104 H 0.84390 0.84449 0.34908
 N105 N 0.64049 0.67419 0.33543
 N106 N 0.64071 0.66566 0.32704
 C107 C 0.63137 0.66756 0.31933
 C108 C 0.62504 0.67777 0.32315
 C109 C 0.63101 0.68179 0.33335
 H110 H 0.62932 0.66200 0.31152
 H111 H 0.62866 0.68966 0.33881
 Cu112 Cu 0.65324 0.65298 0.32701
 Cu113 Cu 0.65257 0.67488 0.34833
 Cu114 Cu 0.67499 0.65237 0.34845
 N115 N 0.66586 0.64039 0.32719
 N116 N 0.67433 0.64020 0.33562
 C117 C 0.68192 0.63069 0.33363
 C118 C 0.67795 0.62466 0.32343
 C119 C 0.66778 0.63099 0.31953
 H120 H 0.68976 0.62837 0.33912
 H121 H 0.66228 0.62893 0.31168
 N122 N 0.67411 0.66546 0.36066
 N123 N 0.66557 0.67403 0.36063
 C124 C 0.66743 0.68159 0.37006
 C125 C 0.67757 0.67754 0.37624
 C126 C 0.68163 0.66735 0.37012
 H127 H 0.66186 0.68947 0.37228
 H128 H 0.68948 0.66177 0.37238
 H129 H 0.66647 0.66625 0.33892
 H130 H 0.65649 0.65636 0.34852
 N131 N 0.64056 0.17399 -0.16489
 N132 N 0.64092 0.16560 -0.17341
 C133 C 0.63149 0.16742 -0.18104
 C134 C 0.62498 0.17745 -0.17704
 C135 C 0.63092 0.18143 -0.16681
 H136 H 0.62950 0.16192 -0.18892
 H137 H 0.62844 0.18916 -0.16122
 Cu138 Cu 0.65366 0.15314 -0.17370
 Cu139 Cu 0.65264 0.17469 -0.15201
 Cu140 Cu 0.67512 0.15228 -0.15196
 N141 N 0.66618 0.14045 -0.17337
 N142 N 0.67453 0.14016 -0.16482
 C143 C 0.68204 0.13055 -0.16671
 C144 C 0.67812 0.12458 -0.17695
 C145 C 0.66808 0.13102 -0.18100
 H146 H 0.68977 0.12813 -0.16109
 H147 H 0.66264 0.12901 -0.18891
 N148 N 0.67420 0.16532 -0.13970
 N149 N 0.66564 0.17386 -0.13973
 C150 C 0.66750 0.18144 -0.13030
 C151 C 0.67767 0.17742 -0.12414
 C152 C 0.68173 0.16723 -0.13026
 H153 H 0.66192 0.18931 -0.12809
 H154 H 0.68961 0.16168 -0.12802
 H155 H 0.66668 0.16628 -0.16139
 H156 H 0.65661 0.15617 -0.15210
 N157 N 0.14083 0.67491 -0.16499
 N158 N 0.14112 0.66656 -0.17355
 C159 C 0.13172 0.66851 -0.18119
 C160 C 0.12530 0.67858 -0.17714
 C161 C 0.13127 0.68245 -0.16688
 H162 H 0.12970 0.66308 -0.18909
 H163 H 0.12885 0.69017 -0.16125
 Cu164 Cu 0.15375 0.65399 -0.17386
 Cu165 Cu 0.15290 0.67542 -0.15208
 Cu166 Cu 0.17527 0.65288 -0.15220
 N167 N 0.16620 0.64125 -0.17367
 N168 N 0.17459 0.64086 -0.16516
 C169 C 0.18205 0.63124 -0.16716
 C170 C 0.17807 0.62535 -0.17743
 C171 C 0.16804 0.63187 -0.18137
 H172 H 0.18979 0.62874 -0.16161
 H173 H 0.16255 0.62993 -0.18926
 N174 N 0.17442 0.66583 -0.13984
 N175 N 0.16589 0.67442 -0.13979
 C176 C 0.16780 0.68192 -0.13032
 C177 C 0.17797 0.67782 -0.12420
 C178 C 0.18198 0.66765 -0.13041
 H179 H 0.16227 0.68981 -0.12806
 H180 H 0.18985 0.66206 -0.12822
 H181 H 0.16688 0.66699 -0.16152
 H182 H 0.15678 0.65689 -0.15225
 N183 N 0.14028 0.17420 0.33537
 N184 N 0.14062 0.16577 0.32690
 C185 C 0.13126 0.16764 0.31919
 C186 C 0.12481 0.17774 0.32311
 C187 C 0.13072 0.18172 0.33336
 H188 H 0.12929 0.16213 0.31132
 H189 H 0.12828 0.18951 0.33888
 Cu190 Cu 0.15330 0.15323 0.32676
 Cu191 Cu 0.15232 0.17491 0.34829
 Cu192 Cu 0.17475 0.15242 0.34848
 N193 N 0.16580 0.14053 0.32710
 N194 N 0.17415 0.14025 0.33565
 C195 C 0.18165 0.13065 0.33378
 C196 C 0.17776 0.12464 0.32355
 C197 C 0.16772 0.13109 0.31949
 H198 H 0.18938 0.12824 0.33940
 H199 H 0.16229 0.12905 0.31159
 N200 N 0.17384 0.16552 0.36069
 N201 N 0.16529 0.17409 0.36062
 C202 C 0.16721 0.18176 0.36995
 C203 C 0.17741 0.17778 0.37611
 C204 C 0.18142 0.16751 0.37007
 H205 H 0.16169 0.18969 0.37208
 H206 H 0.18932 0.16200 0.37230
 H207 H 0.16634 0.16639 0.33901
 H208 H 0.15624 0.15638 0.34836
 N209 N 0.64035 0.32571 0.66476
 N210 N 0.64064 0.33411 0.67327
 C211 C 0.63130 0.33218 0.68099
 C212 C 0.62491 0.32207 0.67705
 C213 C 0.63084 0.31815 0.66677
 H214 H 0.62930 0.33764 0.68890
 H215 H 0.62845 0.31037 0.66123
 Cu216 Cu 0.65325 0.34668 0.67347
 Cu217 Cu 0.65237 0.32512 0.65179
 Cu218 Cu 0.67464 0.34771 0.65165
 N219 N 0.66566 0.35944 0.67313
 N220 N 0.67399 0.35979 0.66455
 C221 C 0.68145 0.36941 0.66645
 C222 C 0.67754 0.37534 0.67673
 C223 C 0.66754 0.36884 0.68079
 H224 H 0.68916 0.37187 0.66083
 H225 H 0.66212 0.37080 0.68873
 N226 N 0.67380 0.33469 0.63937
 N227 N 0.66532 0.32608 0.63943
 C228 C 0.66725 0.31850 0.63002
 C229 C 0.67738 0.32259 0.62382
 C230 C 0.68134 0.33282 0.62992
 H231 H 0.66178 0.31055 0.62786
 H232 H 0.68919 0.33841 0.62767
 H233 H 0.66635 0.33361 0.66111
 H234 H 0.65616 0.34364 0.65186
 N235 N 0.64002 0.82576 1.16458
 N236 N 0.64028 0.83413 1.17312
 C237 C 0.63090 0.83219 1.18078
 C238 C 0.62451 0.82211 1.17678
 C239 C 0.63048 0.81821 1.16652
 H240 H 0.62887 0.83763 1.18869
 H241 H 0.62810 0.81045 1.16093
 Cu242 Cu 0.65292 0.84666 1.17341
 Cu243 Cu 0.65210 0.82521 1.15165
 Cu244 Cu 0.67446 0.84772 1.15175
 N245 N 0.66540 0.85936 1.17325
 N246 N 0.67379 0.85972 1.16473
 C247 C 0.68130 0.86927 1.16675
 C248 C 0.67735 0.87514 1.17705
 C249 C 0.66729 0.86868 1.18099
 H250 H 0.68907 0.87172 1.16121
 H251 H 0.66183 0.87060 1.18892
 N252 N 0.67361 0.83479 1.13938
 N253 N 0.66510 0.82620 1.13935
 C254 C 0.66704 0.81868 1.12989
 C255 C 0.67721 0.82277 1.12375
 C256 C 0.68118 0.83295 1.12994
 H257 H 0.66155 0.81077 1.12766
 H258 H 0.68905 0.83853 1.12775
 H259 H 0.66607 0.83362 1.16108
 H260 H 0.65598 0.84373 1.15180
 N261 N 0.14016 0.32588 1.16467
 N262 N 0.14014 0.33459 1.17287
 C263 C 0.13078 0.33269 1.18058
 C264 C 0.12469 0.32229 1.17694
 C265 C 0.13082 0.31815 1.16686
 H266 H 0.12857 0.33839 1.18827
 H267 H 0.12867 0.31013 1.16155
 Cu268 Cu 0.15238 0.34752 1.17274
 Cu269 Cu 0.15230 0.32515 1.15183
 Cu270 Cu 0.17459 0.34769 1.15166
 N271 N 0.16516 0.35991 1.17268
 N272 N 0.17381 0.35993 1.16441
 C273 C 0.18146 0.36936 1.16647
 C274 C 0.17734 0.37553 1.17654
 C275 C 0.16702 0.36935 1.18030
 H276 H 0.18942 0.37156 1.16109
 H277 H 0.16136 0.37156 1.18801
 N278 N 0.17385 0.33454 1.13952
 N279 N 0.16535 0.32595 1.13957
 C280 C 0.16731 0.31832 1.13020
 C281 C 0.17749 0.32235 1.12404
 C282 C 0.18145 0.33260 1.13012
 H283 H 0.16180 0.31040 1.12803
 H284 H 0.18929 0.33818 1.12786
 H285 H 0.16592 0.33402 1.16137
 H286 H 0.15611 0.34369 1.15134
 N287 N 0.13956 0.82618 0.66421
 N288 N 0.13956 0.83477 0.67254
 C289 C 0.13017 0.83281 0.68019
 C290 C 0.12404 0.82248 0.67639
 C291 C 0.13018 0.81847 0.66627
 H292 H 0.12798 0.83838 0.68796
 H293 H 0.12803 0.81051 0.66087
 Cu294 Cu 0.15192 0.84759 0.67265
 Cu295 Cu 0.15178 0.82554 0.65144
 Cu296 Cu 0.17423 0.84794 0.65169
 N297 N 0.16478 0.85990 0.67284
 N298 N 0.17347 0.85999 0.66461
 C299 C 0.18117 0.86934 0.66687
 C300 C 0.17704 0.87535 0.67701
 C301 C 0.16667 0.86919 0.68062
 H302 H 0.18919 0.87155 0.66157
 H303 H 0.16099 0.87130 0.68835
 N304 N 0.17346 0.83496 0.63936
 N305 N 0.16490 0.82642 0.63926
 C306 C 0.16688 0.81888 0.62982
 C307 C 0.17713 0.82292 0.62378
 C308 C 0.18111 0.83308 0.62999
 H309 H 0.16135 0.81101 0.62754
 H310 H 0.18901 0.83862 0.62786
 H311 H 0.16544 0.83419 0.66115
 H312 H 0.15575 0.84406 0.65123
 N313 N 0.36032 0.67359 0.66438
 N314 N 0.36022 0.66486 0.67258
 C315 C 0.36953 0.66669 0.68034
 C316 C 0.37571 0.67707 0.67675
 C317 C 0.36969 0.68126 0.66663
 H318 H 0.37162 0.66099 0.68805
 H319 H 0.37191 0.68930 0.66136
 Cu320 Cu 0.34786 0.65204 0.67238
 Cu321 Cu 0.34824 0.67446 0.65151
 Cu322 Cu 0.32576 0.65210 0.65124
 N323 N 0.33499 0.63974 0.67226
 N324 N 0.32638 0.63982 0.66397
 C325 C 0.31865 0.63044 0.66601
 C326 C 0.32268 0.62422 0.67608
 C327 C 0.33303 0.63030 0.67987
 H328 H 0.31068 0.62833 0.66062
 H329 H 0.33862 0.62803 0.68760
 N330 N 0.32667 0.66528 0.63912
 N331 N 0.33525 0.67379 0.63921
 C332 C 0.33340 0.68147 0.62986
 C333 C 0.32322 0.67756 0.62366
 C334 C 0.31914 0.66732 0.62970
 H335 H 0.33899 0.68935 0.62772
 H336 H 0.31125 0.66183 0.62742
 H337 H 0.33449 0.66568 0.66098
 H338 H 0.34426 0.65597 0.65098
 N339 N 0.36026 0.17368 1.16437
 N340 N 0.35985 0.16529 1.17289
 C341 C 0.36915 0.16717 1.18065
 C342 C 0.37564 0.17723 1.17671
 C343 C 0.36981 0.18118 1.16640
 H344 H 0.37104 0.16172 1.18860
 H345 H 0.37227 0.18896 1.16086
 Cu346 Cu 0.34712 0.15285 1.17307
 Cu347 Cu 0.34829 0.17438 1.15138
 Cu348 Cu 0.32574 0.15207 1.15127
 N349 N 0.33457 0.14023 1.17275
 N350 N 0.32623 0.13998 1.16419
 C351 C 0.31864 0.13048 1.16613
 C352 C 0.32247 0.12450 1.17641
 C353 C 0.33256 0.13086 1.18043
 H354 H 0.31088 0.12814 1.16055
 H355 H 0.33795 0.12884 1.18837
 N356 N 0.32678 0.16508 1.13897
 N357 N 0.33539 0.17357 1.13900
 C358 C 0.33357 0.18118 1.12958
 C359 C 0.32339 0.17723 1.12340
 C360 C 0.31927 0.16706 1.12952
 H361 H 0.33915 0.18905 1.12741
 H362 H 0.31135 0.16160 1.12729
 H363 H 0.33415 0.16603 1.16070
 H364 H 0.34424 0.15588 1.15146
 N365 N 0.86008 0.67377 1.16464
 N366 N 0.85969 0.66529 1.17309
 C367 C 0.86900 0.66709 1.18086
 C368 C 0.87548 0.67719 1.17702
 C369 C 0.86964 0.68124 1.16674
 H370 H 0.87091 0.66154 1.18873
 H371 H 0.87212 0.68906 1.16126
 Cu372 Cu 0.84698 0.65282 1.17313
 Cu373 Cu 0.84813 0.67457 1.15165
 Cu374 Cu 0.82562 0.65221 1.15132
 N375 N 0.83445 0.64019 1.17270
 N376 N 0.82612 0.64000 1.16414
 C377 C 0.81853 0.63047 1.16600
 C378 C 0.82236 0.62442 1.17624
 C379 C 0.83244 0.63076 1.18031
 H380 H 0.81077 0.62817 1.16039
 H381 H 0.83782 0.62868 1.18825
 N382 N 0.82665 0.66533 1.13913
 N383 N 0.83523 0.67384 1.13925
 C384 C 0.83342 0.68152 1.12988
 C385 C 0.82326 0.67760 1.12365
 C386 C 0.81915 0.66737 1.12968
 H387 H 0.83899 0.68942 1.12778
 H388 H 0.81126 0.66189 1.12738
 H389 H 0.83402 0.66611 1.16087
 H390 H 0.84412 0.65607 1.15154
 N391 N 0.86017 0.17388 0.66455
 N392 N 0.85981 0.16543 0.67303
 C393 C 0.86911 0.16729 0.68079
 C394 C 0.87555 0.17741 0.67691
 C395 C 0.86969 0.18140 0.66663
 H396 H 0.87103 0.16179 0.68868
 H397 H 0.87212 0.18922 0.66114
 Cu398 Cu 0.84713 0.15293 0.67311
 Cu399 Cu 0.84821 0.17459 0.65155
 Cu400 Cu 0.82574 0.15219 0.65133
 N401 N 0.83460 0.14029 0.67278
 N402 N 0.82626 0.14006 0.66422
 C403 C 0.81868 0.13053 0.66614
 C404 C 0.82253 0.12453 0.67640
 C405 C 0.83261 0.13089 0.68043
 H406 H 0.81093 0.12819 0.66054
 H407 H 0.83800 0.12885 0.68836
 N408 N 0.82677 0.16524 0.63906
 N409 N 0.83533 0.17378 0.63915
 C410 C 0.83350 0.18141 0.62975
 C411 C 0.82336 0.17744 0.62353
 C412 C 0.81928 0.16722 0.62960
 H413 H 0.83905 0.18932 0.62763
 H414 H 0.81139 0.16172 0.62732
 H415 H 0.83413 0.16614 0.66081
 H416 H 0.84424 0.15608 0.65151
 N417 N 0.32652 0.36006 0.66402
 N418 N 0.33524 0.36013 0.67221
 C419 C 0.33331 0.36954 0.67986
 C420 C 0.32289 0.37561 0.67619
 C421 C 0.31878 0.36942 0.66616
 H422 H 0.33897 0.37177 0.68755
 H423 H 0.31072 0.37150 0.66088
 Cu424 Cu 0.34813 0.34783 0.67221
 Cu425 Cu 0.32577 0.34778 0.65132
 Cu426 Cu 0.34827 0.32538 0.65139
 N427 N 0.36050 0.33500 0.67228
 N428 N 0.36049 0.32624 0.66413
 C429 C 0.36987 0.31854 0.66632
 C430 C 0.37601 0.32274 0.67635
 C431 C 0.36988 0.33315 0.67996
 H432 H 0.37201 0.31046 0.66108
 H433 H 0.37205 0.33886 0.68764
 N434 N 0.33513 0.32605 0.63924
 N435 N 0.32656 0.33459 0.63921
 C436 C 0.31891 0.33255 0.62989
 C437 C 0.32291 0.32228 0.62385
 C438 C 0.33316 0.31835 0.62994
 H439 H 0.31100 0.33807 0.62767
 H440 H 0.33871 0.31045 0.62778
 H441 H 0.33463 0.33420 0.66100
 H442 H 0.34427 0.34388 0.65086
 N443 N 0.32661 0.86030 0.16377
 N444 N 0.33527 0.86030 0.17202
 C445 C 0.33333 0.86968 0.17970
 C446 C 0.32296 0.87581 0.17600
 C447 C 0.31889 0.86968 0.16591
 H448 H 0.33895 0.87185 0.18744
 H449 H 0.31087 0.87182 0.16059
 Cu450 Cu 0.34811 0.84793 0.17205
 Cu451 Cu 0.32589 0.84807 0.15102
 Cu452 Cu 0.34827 0.82556 0.15115
 N453 N 0.36040 0.83502 0.17216
 N454 N 0.36041 0.82630 0.16397
 C455 C 0.36973 0.81855 0.16618
 C456 C 0.37583 0.82266 0.17626
 C457 C 0.36973 0.83309 0.17989
 H458 H 0.37186 0.81048 0.16091
 H459 H 0.37190 0.83875 0.18760
 N460 N 0.33522 0.82634 0.13891
 N461 N 0.32669 0.83492 0.13886
 C462 C 0.31909 0.83293 0.12949
 C463 C 0.32307 0.82265 0.12345
 C464 C 0.33327 0.81867 0.12959
 H465 H 0.31120 0.83847 0.12725
 H466 H 0.33879 0.81073 0.12745
 H467 H 0.33461 0.83442 0.16071
 H468 H 0.34438 0.84408 0.15067
 N469 N 0.82607 0.35971 0.16376
 N470 N 0.83474 0.35979 0.17199
 C471 C 0.83275 0.36918 0.17964
 C472 C 0.82234 0.37523 0.17593
 C473 C 0.81829 0.36904 0.16587
 H474 H 0.83837 0.37142 0.18736
 H475 H 0.81027 0.37113 0.16053
 Cu476 Cu 0.84769 0.34754 0.17204
 Cu477 Cu 0.82548 0.34748 0.15099
 Cu478 Cu 0.84804 0.32516 0.15114
 N479 N 0.86006 0.33471 0.17217
 N480 N 0.86015 0.32598 0.16399
 C481 C 0.86953 0.31831 0.16623
 C482 C 0.87557 0.32248 0.17633
 C483 C 0.86939 0.33287 0.17992
 H484 H 0.87175 0.31026 0.16096
 H485 H 0.87149 0.33857 0.18762
 N486 N 0.83502 0.32585 0.13888
 N487 N 0.82641 0.33436 0.13883
 C488 C 0.81886 0.33234 0.12942
 C489 C 0.82297 0.32214 0.12334
 C490 C 0.83318 0.31821 0.12951
 H491 H 0.81095 0.33783 0.12717
 H492 H 0.83879 0.31035 0.12733
 H493 H 0.83432 0.33390 0.16069
 H494 H 0.84402 0.34365 0.15064
 N495 N 0.82621 0.86027 0.66407
 N496 N 0.83486 0.86017 0.67233
 C497 C 0.83299 0.86954 0.68003
 C498 C 0.82268 0.87576 0.67634
 C499 C 0.81857 0.86970 0.66623
 H500 H 0.83863 0.87165 0.68777
 H501 H 0.81059 0.87195 0.66089
 Cu502 Cu 0.84763 0.84774 0.67230
 Cu503 Cu 0.82545 0.84812 0.65124
 Cu504 Cu 0.84774 0.82551 0.65126
 N505 N 0.85988 0.83480 0.67234
 N506 N 0.85988 0.82613 0.66409
 C507 C 0.86920 0.81836 0.66626
 C508 C 0.87530 0.82242 0.67636
 C509 C 0.86922 0.83283 0.68004
 H510 H 0.87133 0.81033 0.66093
 H511 H 0.87140 0.83845 0.68778
 N512 N 0.83471 0.82642 0.63902
 N513 N 0.82622 0.83505 0.63901
 C514 C 0.81864 0.83318 0.62960
 C515 C 0.82259 0.82294 0.62348
 C516 C 0.83275 0.81884 0.62962
 H517 H 0.81080 0.83879 0.62737
 H518 H 0.83825 0.81091 0.62741
 H519 H 0.83409 0.83435 0.66085
 H520 H 0.84392 0.84404 0.65089
 N521 N 0.67447 0.64098 0.66526
 N522 N 0.66612 0.64131 0.67382
 C523 C 0.66801 0.63190 0.68148
 C524 C 0.67804 0.62542 0.67745
 C525 C 0.68195 0.63137 0.66717
 H526 H 0.66255 0.62989 0.68938
 H527 H 0.68965 0.62889 0.66154
 Cu528 Cu 0.65359 0.65398 0.67410
 Cu529 Cu 0.67503 0.65302 0.65229
 Cu530 Cu 0.65255 0.67543 0.65229
 N531 N 0.64085 0.66644 0.67379
 N532 N 0.64050 0.67480 0.66523
 C533 C 0.63085 0.68224 0.66711
 C534 C 0.62490 0.67829 0.67737
 C535 C 0.63141 0.66829 0.68142
 H536 H 0.62836 0.68994 0.66147
 H537 H 0.62940 0.66280 0.68931
 N538 N 0.66552 0.67454 0.63995
 N539 N 0.67408 0.66599 0.63994
 C540 C 0.68160 0.66787 0.63046
 C541 C 0.67752 0.67804 0.62429
 C542 C 0.66736 0.68208 0.63048
 H543 H 0.68947 0.66231 0.62822
 H544 H 0.66178 0.68995 0.62825
 H545 H 0.66661 0.66705 0.66167
 H546 H 0.65653 0.65691 0.65247
 N547 N 0.67397 0.14005 0.16438
 N548 N 0.66530 0.14008 0.17263
 C549 C 0.66721 0.13071 0.18034
 C550 C 0.67757 0.12456 0.17665
 C551 C 0.68167 0.13067 0.16654
 H552 H 0.66156 0.12854 0.18807
 H553 H 0.68967 0.12849 0.16120
 Cu554 Cu 0.65244 0.15243 0.17256
 Cu555 Cu 0.67468 0.15220 0.15153
 Cu556 Cu 0.65222 0.17463 0.15146
 N557 N 0.64008 0.16528 0.17256
 N558 N 0.64005 0.17393 0.16428
 C559 C 0.63063 0.18161 0.16637
 C560 C 0.62450 0.17752 0.17647
 C561 C 0.63067 0.16718 0.18022
 H562 H 0.62843 0.18958 0.16098
 H563 H 0.62847 0.16153 0.18794
 N564 N 0.66531 0.17381 0.13924
 N565 N 0.67387 0.16527 0.13927
 C566 C 0.68147 0.16719 0.12987
 C567 C 0.67745 0.17739 0.12371
 C568 C 0.66723 0.18140 0.12982
 H569 H 0.68936 0.16163 0.12766
 H570 H 0.66167 0.18927 0.12758
 H571 H 0.66590 0.16591 0.16109
 H572 H 0.65619 0.15612 0.15114
 N573 N 0.17454 0.64104 0.16479
 N574 N 0.16620 0.64134 0.17336
 C575 C 0.16814 0.63195 0.18102
 C576 C 0.17819 0.62551 0.17699
 C577 C 0.18207 0.63146 0.16670
 H578 H 0.16270 0.62992 0.18894
 H579 H 0.18978 0.62902 0.16107
 Cu580 Cu 0.15364 0.65399 0.17364
 Cu581 Cu 0.17505 0.65307 0.15181
 Cu582 Cu 0.15250 0.67542 0.15182
 N583 N 0.14088 0.66643 0.17337
 N584 N 0.14049 0.67479 0.16481
 C585 C 0.13085 0.68223 0.16674
 C586 C 0.12494 0.67827 0.17702
 C587 C 0.13148 0.66827 0.18104
 H588 H 0.12832 0.68992 0.16111
 H589 H 0.12952 0.66278 0.18894
 N590 N 0.16544 0.67454 0.13945
 N591 N 0.17403 0.66602 0.13945
 C592 C 0.18152 0.66789 0.12995
 C593 C 0.17739 0.67802 0.12376
 C594 C 0.16723 0.68205 0.12996
 H595 H 0.18940 0.66235 0.12771
 H596 H 0.16163 0.68990 0.12772
 H597 H 0.16660 0.66709 0.16119
 H598 H 0.15654 0.65691 0.15200
 N599 N 0.17400 0.13996 0.66472
 N600 N 0.16535 0.14002 0.67299
 C601 C 0.16725 0.13065 0.68070
 C602 C 0.17760 0.12447 0.67699
 C603 C 0.18169 0.13056 0.66687
 H604 H 0.16160 0.12848 0.68843
 H605 H 0.18966 0.12834 0.66150
 Cu606 Cu 0.15249 0.15237 0.67290
 Cu607 Cu 0.17469 0.15207 0.65183
 Cu608 Cu 0.15220 0.17448 0.65172
 N609 N 0.14011 0.16519 0.67288
 N610 N 0.14005 0.17380 0.66456
 C611 C 0.13062 0.18147 0.66662
 C612 C 0.12451 0.17741 0.67674
 C613 C 0.13070 0.16710 0.68053
 H614 H 0.12839 0.18941 0.66121
 H615 H 0.12853 0.16148 0.68828
 N616 N 0.16527 0.17364 0.63949
 N617 N 0.17384 0.16509 0.63953
 C618 C 0.18142 0.16698 0.63010
 C619 C 0.17737 0.17715 0.62391
 C620 C 0.16717 0.18118 0.63003
 H621 H 0.18930 0.16142 0.62789
 H622 H 0.16159 0.18904 0.62777
 H623 H 0.16592 0.16581 0.66135
 H624 H 0.15619 0.15597 0.65147
 N625 N 0.32574 0.63993 0.33578
 N626 N 0.33407 0.64016 0.32720
 C627 C 0.33208 0.63076 0.31957
 C628 C 0.32200 0.62439 0.32364
 C629 C 0.31817 0.63040 0.33391
 H630 H 0.33747 0.62871 0.31163
 H631 H 0.31042 0.62805 0.33954
 Cu632 Cu 0.34662 0.65279 0.32679
 Cu633 Cu 0.32525 0.65205 0.34866
 Cu634 Cu 0.34780 0.67436 0.34843
 N635 N 0.35936 0.66523 0.32692
 N636 N 0.35977 0.67364 0.33541
 C637 C 0.36936 0.68109 0.33336
 C638 C 0.37521 0.67710 0.32307
 C639 C 0.36869 0.66706 0.31916
 H640 H 0.37186 0.68885 0.33890
 H641 H 0.37060 0.66156 0.31126
 N642 N 0.33489 0.67357 0.36083
 N643 N 0.32629 0.66508 0.36092
 C644 C 0.31879 0.66706 0.37039
 C645 C 0.32292 0.67723 0.37648
 C646 C 0.33309 0.68118 0.37025
 H647 H 0.31088 0.66158 0.37266
 H648 H 0.33868 0.68905 0.37239
 H649 H 0.33369 0.66600 0.33917
 H650 H 0.34378 0.65586 0.34841
 N651 N 0.32620 0.13956 0.83596
 N652 N 0.33487 0.13950 0.82771
 C653 C 0.33290 0.13011 0.82005
 C654 C 0.32250 0.12406 0.82377
 C655 C 0.31844 0.13023 0.83385
 H656 H 0.33853 0.12788 0.81232
 H657 H 0.31042 0.12814 0.83919
 Cu658 Cu 0.34777 0.15176 0.82769
 Cu659 Cu 0.32554 0.15178 0.84873
 Cu660 Cu 0.34808 0.17408 0.84863
 N661 N 0.36018 0.16453 0.82759
 N662 N 0.36025 0.17323 0.83580
 C663 C 0.36965 0.18088 0.83361
 C664 C 0.37573 0.17672 0.82351
 C665 C 0.36955 0.16637 0.81987
 H666 H 0.37185 0.18891 0.83889
 H667 H 0.37167 0.16069 0.81215
 N668 N 0.33500 0.17340 0.86086
 N669 N 0.32641 0.16490 0.86090
 C670 C 0.31879 0.16695 0.87027
 C671 C 0.32284 0.17717 0.87633
 C672 C 0.33308 0.18107 0.87020
 H673 H 0.31086 0.16147 0.87249
 H674 H 0.33865 0.18895 0.87237
 H675 H 0.33436 0.16537 0.83908
 H676 H 0.34405 0.15558 0.84908
 N677 N 0.82534 0.64041 0.83528
 N678 N 0.83370 0.64065 0.82673
 C679 C 0.83173 0.63127 0.81908
 C680 C 0.82163 0.62491 0.82310
 C681 C 0.81777 0.63089 0.83336
 H682 H 0.83718 0.62921 0.81117
 H683 H 0.81001 0.62853 0.83897
 Cu684 Cu 0.84628 0.65324 0.82642
 Cu685 Cu 0.82483 0.65247 0.84820
 Cu686 Cu 0.84743 0.67473 0.84815
 N687 N 0.85906 0.66563 0.82666
 N688 N 0.85945 0.67401 0.83519
 C689 C 0.86909 0.68143 0.83321
 C690 C 0.87498 0.67744 0.82294
 C691 C 0.86845 0.66744 0.81897
 H692 H 0.87160 0.68915 0.83879
 H693 H 0.87040 0.66195 0.81107
 N694 N 0.83447 0.67392 0.86050
 N695 N 0.82585 0.66544 0.86052
 C696 C 0.81832 0.66740 0.86997
 C697 C 0.82244 0.67755 0.87611
 C698 C 0.83264 0.68149 0.86994
 H699 H 0.81039 0.66193 0.87220
 H700 H 0.83824 0.68934 0.87213
 H701 H 0.83336 0.66643 0.83882
 H702 H 0.84339 0.65623 0.84805
 N703 N 0.82612 0.13962 0.33594
 N704 N 0.83444 0.13989 0.32735
 C705 C 0.83246 0.13051 0.31970
 C706 C 0.82240 0.12411 0.32376
 C707 C 0.81856 0.13008 0.33404
 H708 H 0.83784 0.12850 0.31174
 H709 H 0.81081 0.12771 0.33967
 Cu710 Cu 0.84695 0.15256 0.32696
 Cu711 Cu 0.82557 0.15173 0.34881
 Cu712 Cu 0.84805 0.17412 0.34861
 N713 N 0.85967 0.16502 0.32712
 N714 N 0.86005 0.17342 0.33563
 C715 C 0.86961 0.18091 0.33358
 C716 C 0.87548 0.17695 0.32328
 C717 C 0.86900 0.16689 0.31936
 H718 H 0.87207 0.18868 0.33912
 H719 H 0.87091 0.16142 0.31144
 N720 N 0.83511 0.17330 0.36098
 N721 N 0.82654 0.16477 0.36106
 C722 C 0.81898 0.16676 0.37048
 C723 C 0.82303 0.17698 0.37654
 C724 C 0.83322 0.18094 0.37036
 H725 H 0.81106 0.16129 0.37271
 H726 H 0.83875 0.18886 0.37248
 H727 H 0.83396 0.16572 0.33932
 H728 H 0.84408 0.15561 0.34857
 N729 N 0.67351 0.35986 0.33524
 N730 N 0.66507 0.35944 0.32680
 C731 C 0.66684 0.36879 0.31903
 C732 C 0.67690 0.37532 0.32288
 C733 C 0.68094 0.36946 0.33315
 H734 H 0.66131 0.37071 0.31117
 H735 H 0.68873 0.37196 0.33864
 Cu736 Cu 0.65263 0.34670 0.32677
 Cu737 Cu 0.67431 0.34789 0.34826
 Cu738 Cu 0.65202 0.32531 0.34864
 N739 N 0.64003 0.33413 0.32724
 N740 N 0.63985 0.32579 0.33582
 C741 C 0.63031 0.31822 0.33401
 C742 C 0.62425 0.32206 0.32379
 C743 C 0.63059 0.33214 0.31967
 H744 H 0.62798 0.31048 0.33967
 H745 H 0.62848 0.33755 0.31175
 N746 N 0.66510 0.32637 0.36082
 N747 N 0.67359 0.33498 0.36068
 C748 C 0.68125 0.33317 0.37004
 C749 C 0.67736 0.32298 0.37629
 C750 C 0.66715 0.31886 0.37027
 H751 H 0.68914 0.33875 0.37212
 H752 H 0.66170 0.31092 0.37257
 H753 H 0.66590 0.33375 0.33906
 H754 H 0.65584 0.34385 0.34837
 N755 N 0.67309 0.86037 0.83580
 N756 N 0.66436 0.86032 0.82763
 C757 C 0.66620 0.86967 0.81988
 C758 C 0.67658 0.87582 0.82345
 C759 C 0.68077 0.86974 0.83354
 H760 H 0.66050 0.87181 0.81219
 H761 H 0.68882 0.87192 0.83878
 Cu762 Cu 0.65154 0.84796 0.82781
 Cu763 Cu 0.67396 0.84821 0.84863
 Cu764 Cu 0.65163 0.82571 0.84887
 N765 N 0.63927 0.83506 0.82791
 N766 N 0.63936 0.82638 0.83617
 C767 C 0.63000 0.81864 0.83411
 C768 C 0.62380 0.82272 0.82406
 C769 C 0.62986 0.83311 0.82030
 H770 H 0.62791 0.81063 0.83948
 H771 H 0.62760 0.83875 0.81259
 N772 N 0.66479 0.82655 0.86097
 N773 N 0.67331 0.83513 0.86088
 C774 C 0.68100 0.83321 0.87019
 C775 C 0.67709 0.82298 0.87637
 C776 C 0.66684 0.81895 0.87035
 H777 H 0.68889 0.83877 0.87231
 H778 H 0.66136 0.81104 0.87262
 H779 H 0.66519 0.83451 0.83911
 H780 H 0.65551 0.84424 0.84919
 N781 N 0.17344 0.36009 0.83546
 N782 N 0.16501 0.35965 0.82699
 C783 C 0.16679 0.36899 0.81922
 C784 C 0.17683 0.37554 0.82308
 C785 C 0.18086 0.36970 0.83337
 H786 H 0.16128 0.37088 0.81133
 H787 H 0.18863 0.37222 0.83886
 Cu788 Cu 0.15262 0.34687 0.82692
 Cu789 Cu 0.17425 0.34811 0.84847
 Cu790 Cu 0.15200 0.32550 0.84881
 N791 N 0.14004 0.33428 0.82738
 N792 N 0.13985 0.32595 0.83598
 C793 C 0.13034 0.31835 0.83414
 C794 C 0.12431 0.32216 0.82388
 C795 C 0.13064 0.33225 0.81978
 H796 H 0.12802 0.31060 0.83978
 H797 H 0.12857 0.33763 0.81183
 N798 N 0.16506 0.32657 0.86102
 N799 N 0.17354 0.33519 0.86089
 C800 C 0.18118 0.33340 0.87027
 C801 C 0.17728 0.32321 0.87652
 C802 C 0.16709 0.31907 0.87048
 H803 H 0.18905 0.33900 0.87237
 H804 H 0.16164 0.31115 0.87279
 H805 H 0.16589 0.33395 0.83925
 H806 H 0.15578 0.34405 0.84853
 N807 N 0.17318 0.86025 0.33591
 N808 N 0.16449 0.86023 0.32770
 C809 C 0.16639 0.86956 0.31995
 C810 C 0.17678 0.87569 0.32357
 C811 C 0.18090 0.86960 0.33368
 H812 H 0.16073 0.87171 0.31223
 H813 H 0.18893 0.87176 0.33896
 Cu814 Cu 0.15164 0.84790 0.32785
 Cu815 Cu 0.17395 0.84810 0.34876
 Cu816 Cu 0.15154 0.82567 0.34893
 N817 N 0.13930 0.83506 0.32791
 N818 N 0.13932 0.82639 0.33617
 C819 C 0.12996 0.81867 0.33407
 C820 C 0.12382 0.82276 0.32399
 C821 C 0.12992 0.83313 0.32026
 H822 H 0.12784 0.81065 0.33941
 H823 H 0.12773 0.83875 0.31251
 N824 N 0.16465 0.82649 0.36108
 N825 N 0.17319 0.83504 0.36103
 C826 C 0.18084 0.83310 0.37038
 C827 C 0.17687 0.82288 0.37653
 C828 C 0.16664 0.81888 0.37047
 H829 H 0.18874 0.83863 0.37253
 H830 H 0.16113 0.81098 0.37271
 H831 H 0.16516 0.83440 0.33924
 H832 H 0.15546 0.84417 0.34924
 O833 O 0.26561 0.98795 0.24838
 O834 O 0.24921 1.01170 0.26561
 O835 O 0.24920 0.98779 0.26536
 O836 O 0.26561 1.01187 0.24861
 O837 O 0.25097 1.01204 0.23484
 O838 O 0.23455 0.98796 0.25160
 O839 O 0.23457 1.01187 0.25185
 O840 O 0.25097 0.98811 0.23462
 Cu841 Cu 0.25889 0.99981 0.25838
 Cu842 Cu 0.24129 1.00002 0.24183
 C843 C 0.26102 0.98396 0.23864
 C844 C 0.23916 1.01585 0.26160
 C845 C 0.23914 0.98377 0.26127
 C846 C 0.26102 1.01607 0.23894
 O847 O 0.23376 0.48802 0.75059
 O848 O 0.25049 0.51189 0.73386
 O849 O 0.25047 0.48798 0.73391
 O850 O 0.23377 0.51194 0.75058
 O851 O 0.24817 0.51192 0.76460
 O852 O 0.26487 0.48796 0.74793
 O853 O 0.26488 0.51189 0.74788
 O854 O 0.24815 0.48800 0.76462
 Cu855 Cu 0.24067 0.49997 0.74082
 Cu856 Cu 0.25797 0.49995 0.75767
 C857 C 0.23818 0.48392 0.76039
 C858 C 0.26047 0.51596 0.73808
 C859 C 0.26044 0.48386 0.73815
 C860 C 0.23819 0.51602 0.76037
 O861 O 0.75116 -0.01218 0.26530
 O862 O 0.73457 0.01169 0.24839
 O863 O 0.73464 -0.01223 0.24846
 O864 O 0.75108 0.01174 0.26526
 O865 O 0.76563 0.01177 0.25137
 O866 O 0.74919 -0.01222 0.23457
 O867 O 0.74912 0.01170 0.23450
 O868 O 0.76571 -0.01215 0.25140
 Cu869 Cu 0.74140 -0.00024 0.25825
 Cu870 Cu 0.75888 -0.00022 0.24156
 C871 C 0.76120 -0.01626 0.26115
 C872 C 0.73908 0.01578 0.23863
 C873 C 0.73919 -0.01633 0.23872
 C874 C 0.76109 0.01586 0.26111
 O875 O 0.73429 0.51178 0.74863
 O876 O 0.75101 0.48779 0.76524
 O877 O 0.75085 0.51170 0.76547
 O878 O 0.73447 0.48787 0.74842
 O879 O 0.74901 0.48810 0.73451
 O880 O 0.76538 0.51194 0.75157
 O881 O 0.76554 0.48803 0.75133
 O882 O 0.74882 0.51201 0.73472
 Cu883 Cu 0.74119 0.49977 0.75834
 Cu884 Cu 0.75865 0.50005 0.74163
 C885 C 0.73876 0.51599 0.73890
 C886 C 0.76105 0.48380 0.76104
 C887 C 0.76085 0.51588 0.76137
 C888 C 0.73902 0.48390 0.73862
 O889 O 0.24911 0.48815 0.23418
 O890 O 0.26548 0.51199 0.25126
 O891 O 0.26555 0.48806 0.25114
 O892 O 0.24904 0.51205 0.23432
 O893 O 0.23442 0.51194 0.24814
 O894 O 0.25092 0.48795 0.26495
 O895 O 0.25085 0.51187 0.26507
 O896 O 0.23449 0.48804 0.24800
 Cu897 Cu 0.25878 0.50007 0.24134
 Cu898 Cu 0.24120 0.49993 0.25794
 C899 C 0.23906 0.48404 0.23824
 C900 C 0.26088 0.51602 0.26100
 C901 C 0.26098 0.48390 0.26084
 C902 C 0.23897 0.51608 0.23842
 O903 O 0.74888 1.01206 0.76553
 O904 O 0.76550 0.98815 0.74875
 O905 O 0.76546 1.01207 0.74872
 O906 O 0.74887 0.98814 0.76552
 O907 O 0.73440 0.98816 0.75158
 O908 O 0.75098 1.01207 0.73478
 O909 O 0.75103 0.98814 0.73481
 O910 O 0.73440 1.01208 0.75159
 Cu911 Cu 0.75864 1.00010 0.75853
 Cu912 Cu 0.74124 1.00011 0.74179
 C913 C 0.73888 1.01617 0.76135
 C914 C 0.76103 0.98405 0.73899
 C915 C 0.76097 1.01617 0.73895
 C916 C 0.73888 0.98405 0.76134
 O917 O 0.76502 0.48768 0.24779
 O918 O 0.74875 0.51160 0.26489
 O919 O 0.74849 0.48769 0.26467
 O920 O 0.76527 0.51159 0.24801
 O921 O 0.75072 0.51190 0.23415
 O922 O 0.73395 0.48801 0.25080
 O923 O 0.73421 0.51192 0.25103
 O924 O 0.75048 0.48799 0.23393
 Cu925 Cu 0.75835 0.49961 0.25774
 Cu926 Cu 0.74087 0.49998 0.24107
 C927 C 0.76045 0.48373 0.23802
 C928 C 0.73878 0.51586 0.26080
 C929 C 0.73843 0.48376 0.26050
 C930 C 0.76078 0.51584 0.23832
 O931 O 0.24860 -0.01241 0.73533
 O932 O 0.26519 0.01161 0.75194
 O933 O 0.26519 -0.01230 0.75213
 O934 O 0.24862 0.01150 0.73513
 O935 O 0.23411 0.01162 0.74907
 O936 O 0.25069 -0.01218 0.76607
 O937 O 0.25069 0.01172 0.76588
 O938 O 0.23410 -0.01228 0.74928
 Cu939 Cu 0.25837 -0.00042 0.74223
 Cu940 Cu 0.24094 -0.00027 0.75898
 C941 C 0.23858 -0.01644 0.73953
 C942 C 0.26070 0.01576 0.76168
 C943 C 0.26071 -0.01630 0.76194
 C944 C 0.23860 0.01563 0.73927
 O945 O 0.24917 0.26589 0.98819
 O946 O 0.26592 0.24913 1.01184
 O947 O 0.26603 0.24913 0.98827
 O948 O 0.24909 0.26594 1.01176
 O949 O 0.23483 0.25160 1.01176
 O950 O 0.25177 0.23477 0.98825
 O951 O 0.25166 0.23478 1.01184
 O952 O 0.23490 0.25155 0.98817
 Cu953 Cu 0.25899 0.25897 1.00002
 Cu954 Cu 0.24185 0.24172 1.00000
 C955 C 0.23925 0.26151 0.98412
 C956 C 0.26158 0.23917 1.01589
 C957 C 0.26172 0.23916 0.98423
 C958 C 0.23915 0.26157 1.01578
 O959 O 0.26565 0.74912 0.51181
 O960 O 0.24858 0.76566 0.48820
 O961 O 0.24866 0.76577 0.51179
 O962 O 0.26555 0.74899 0.48822
 O963 O 0.25140 0.73453 0.48837
 O964 O 0.23451 0.75131 0.51195
 O965 O 0.23443 0.75120 0.48835
 O966 O 0.25150 0.73465 0.51196
 Cu967 Cu 0.25854 0.75884 0.49999
 Cu968 Cu 0.24153 0.74147 0.50017
 C969 C 0.26141 0.73915 0.51593
 C970 C 0.23867 0.76117 0.48422
 C971 C 0.23879 0.76133 0.51592
 C972 C 0.26128 0.73898 0.48425
 O973 O 0.23490 0.74888 -0.01197
 O974 O 0.25185 0.76531 0.01174
 O975 O 0.25188 0.76553 -0.01184
 O976 O 0.23490 0.74865 0.01159
 O977 O 0.24908 0.73418 0.01147
 O978 O 0.26605 0.75106 -0.01197
 O979 O 0.26603 0.75084 0.01161
 O980 O 0.24908 0.73440 -0.01209
 Cu981 Cu 0.24196 0.75856 -0.00011
 Cu982 Cu 0.25899 0.74117 -0.00026
 C983 C 0.23916 0.73889 -0.01607
 C984 C 0.26175 0.76080 0.01574
 C985 C 0.26180 0.76111 -0.01591
 C986 C 0.23916 0.73860 0.01553
 O987 O 0.23495 0.24843 0.48828
 O988 O 0.25166 0.26483 0.51219
 O989 O 0.25183 0.26515 0.48862
 O990 O 0.23474 0.24810 0.51186
 O991 O 0.24898 0.23369 0.51178
 O992 O 0.26606 0.25073 0.48854
 O993 O 0.26589 0.25041 0.51210
 O994 O 0.24919 0.23402 0.48820
 Cu995 Cu 0.24186 0.25808 0.50025
 Cu996 Cu 0.25896 0.24076 0.50015
 C997 C 0.23930 0.23851 0.48413
 C998 C 0.26156 0.26036 0.51622
 C999 C 0.26179 0.26078 0.48460
 C1000 C 0.23902 0.23806 0.51579
 O1001 O 0.75169 0.73484 0.98837
 O1002 O 0.73470 0.75178 1.01177
 O1003 O 0.73483 0.75162 0.98818
 O1004 O 0.75160 0.73501 1.01196
 O1005 O 0.76584 0.74938 1.01189
 O1006 O 0.74908 0.76599 0.98812
 O1007 O 0.74895 0.76614 1.01169
 O1008 O 0.76593 0.74922 0.98831
 Cu1009 Cu 0.74177 0.74186 1.00008
 Cu1010 Cu 0.75889 0.75913 1.00000
 C1011 C 0.76163 0.73922 0.98432
 C1012 C 0.73900 0.76178 1.01573
 C1013 C 0.73917 0.76156 0.98407
 C1014 C 0.76151 0.73944 1.01600
 O1015 O 0.76596 0.24928 0.51182
 O1016 O 0.74915 0.26589 0.48809
 O1017 O 0.74909 0.26605 0.51166
 O1018 O 0.76603 0.24914 0.48824
 O1019 O 0.75179 0.23476 0.48830
 O1020 O 0.73484 0.25169 0.51175
 O1021 O 0.73490 0.25152 0.48816
 O1022 O 0.75172 0.23490 0.51190
 Cu1023 Cu 0.75899 0.25904 0.49995
 Cu1024 Cu 0.74188 0.24176 0.50004
 C1025 C 0.76163 0.23933 0.51592
 C1026 C 0.73924 0.26146 0.48405
 C1027 C 0.73915 0.26169 0.51572
 C1028 C 0.76173 0.23915 0.48425
 O1029 O 0.76565 0.25090 -0.01214
 O1030 O 0.74884 0.23408 0.01145
 O1031 O 0.74875 0.23417 -0.01211
 O1032 O 0.76577 0.25077 0.01144
 O1033 O 0.75155 0.26520 0.01156
 O1034 O 0.73453 0.24860 -0.01199
 O1035 O 0.73462 0.24850 0.01158
 O1036 O 0.75143 0.26533 -0.01202
 Cu1037 Cu 0.75869 0.24103 -0.00035
 Cu1038 Cu 0.74160 0.25836 -0.00021
 C1039 C 0.76134 0.26091 -0.01611
 C1040 C 0.73892 0.23849 0.01554
 C1041 C 0.73880 0.23861 -0.01607
 C1042 C 0.76149 0.26075 0.01553
 O1043 O 0.73419 0.74903 0.48826
 O1044 O 0.75094 0.76586 0.51183
 O1045 O 0.75095 0.76590 0.48827
 O1046 O 0.73418 0.74899 0.51183
 O1047 O 0.74853 0.73469 0.51180
 O1048 O 0.76529 0.75159 0.48824
 O1049 O 0.76529 0.75156 0.51180
 O1050 O 0.74853 0.73473 0.48823
 Cu1051 Cu 0.74111 0.75889 0.50005
 Cu1052 Cu 0.75836 0.74170 0.50001
 C1053 C 0.73856 0.73908 0.48422
 C1054 C 0.76091 0.76151 0.51584
 C1055 C 0.76091 0.76156 0.48423
 C1056 C 0.73857 0.73902 0.51584
 O1057 O 1.01181 0.23446 0.25160
 O1058 O 0.98803 0.25126 0.23482
 O1059 O 1.01190 0.25116 0.23486
 O1060 O 0.98793 0.23454 0.25151
 O1061 O 0.98790 0.24897 0.26553
 O1062 O 1.01190 0.26559 0.24887
 O1063 O 0.98802 0.26568 0.24883
 O1064 O 1.01179 0.24889 0.26560
 Cu1065 Cu 0.99992 0.24140 0.24179
 Cu1066 Cu 0.99991 0.25874 0.25862
 C1067 C 1.01586 0.23887 0.26140
 C1068 C 0.98395 0.26127 0.23903
 C1069 C 1.01599 0.26115 0.23908
 C1070 C 0.98381 0.23899 0.26128
 O1071 O 0.51211 0.26518 0.74875
 O1072 O 0.48812 0.24863 0.76549
 O1073 O 0.51201 0.24842 0.76543
 O1074 O 0.48823 0.26537 0.74881
 O1075 O 0.48811 0.25097 0.73477
 O1076 O 0.51189 0.23402 0.75140
 O1077 O 0.48801 0.23424 0.75145
 O1078 O 0.51199 0.25079 0.73472
 Cu1079 Cu 0.50014 0.25835 0.75854
 Cu1080 Cu 0.49999 0.24105 0.74166
 C1081 C 0.51614 0.26074 0.73894
 C1082 C 0.48396 0.23869 0.76125
 C1083 C 0.51601 0.23840 0.76119
 C1084 C 0.48409 0.26098 0.73902
 O1085 O 0.01184 0.24906 0.73478
 O1086 O -0.01197 0.26551 0.75188
 O1087 O 0.01193 0.26543 0.75181
 O1088 O -0.01204 0.24914 0.73488
 O1089 O -0.01203 0.23443 0.74863
 O1090 O 0.01193 0.25073 0.76555
 O1091 O -0.01197 0.25081 0.76563
 O1092 O 0.01185 0.23435 0.74853
 Cu1093 Cu -0.00006 0.25877 0.74196
 Cu1094 Cu -0.00005 0.24110 0.75848
 C1095 C 0.01591 0.23897 0.73880
 C1096 C -0.01605 0.26089 0.76160
 C1097 C 0.01604 0.26079 0.76149
 C1098 C -0.01613 0.23907 0.73894
 O1099 O 0.51182 0.25056 0.26562
 O1100 O 0.48799 0.23424 0.24855
 O1101 O 0.51188 0.23426 0.24852
 O1102 O 0.48794 0.25057 0.26560
 O1103 O 0.48793 0.26532 0.25191
 O1104 O 0.51186 0.24902 0.23483
 O1105 O 0.48797 0.24900 0.23486
 O1106 O 0.51182 0.26532 0.25193
 Cu1107 Cu 0.49991 0.24092 0.25845
 Cu1108 Cu 0.49990 0.25865 0.24200
 C1109 C 0.51590 0.26066 0.26162
 C1110 C 0.48389 0.23891 0.23887
 C1111 C 0.51596 0.23893 0.23883
 C1112 C 0.48384 0.26065 0.26159
 O1113 O 1.01156 0.76557 0.74848
 O1114 O 0.98791 0.74886 0.76556
 O1115 O 1.01178 0.74904 0.76539
 O1116 O 0.98767 0.76544 0.74870
 O1117 O 0.98768 0.75088 0.73483
 O1118 O 1.01180 0.73448 0.75152
 O1119 O 0.98794 0.73430 0.75168
 O1120 O 1.01156 0.75100 0.73462
 Cu1121 Cu 0.99973 0.75870 0.75843
 Cu1122 Cu 0.99974 0.74120 0.74176
 C1123 C 1.01561 0.76106 0.73871
 C1124 C 0.98390 0.73878 0.76147
 C1125 C 1.01591 0.73903 0.76124
 C1126 C 0.98355 0.76089 0.73899
 O1127 O 0.48796 0.75070 0.23473
 O1128 O 0.51198 0.73416 0.25143
 O1129 O 0.48811 0.73397 0.25143
 O1130 O 0.51184 0.75083 0.23468
 O1131 O 0.51175 0.76528 0.24867
 O1132 O 0.48799 0.74840 0.26543
 O1133 O 0.51187 0.74860 0.26542
 O1134 O 0.48786 0.76513 0.24873
 Cu1135 Cu 0.49999 0.74096 0.24165
 Cu1136 Cu 0.49986 0.75831 0.25848
 C1137 C 0.48381 0.76067 0.23895
 C1138 C 0.51602 0.73863 0.26121
 C1139 C 0.48399 0.73838 0.26122
 C1140 C 0.51585 0.76086 0.23887
 O1141 O -0.01213 0.73428 0.24906
 O1142 O 0.01192 0.75087 0.26558
 O1143 O -0.01197 0.75090 0.26583
 O1144 O 0.01174 0.73427 0.24876
 O1145 O 0.01159 0.74878 0.23482
 O1146 O -0.01212 0.76541 0.25188
 O1147 O 0.01177 0.76539 0.25164
 O1148 O -0.01229 0.74879 0.23512
 Cu1149 Cu -0.00009 0.74112 0.25872
 Cu1150 Cu -0.00027 0.75856 0.24196
 C1151 C -0.01632 0.73877 0.23934
 C1152 C 0.01596 0.76089 0.26136
 C1153 C -0.01612 0.76091 0.26169
 C1154 C 0.01571 0.73875 0.23894
 O1155 O 0.48776 0.76560 0.75194
 O1156 O 0.51157 0.74911 0.73491
 O1157 O 0.48769 0.74911 0.73507
 O1158 O 0.51165 0.76559 0.75185
 O1159 O 0.51171 0.75097 0.76569
 O1160 O 0.48777 0.73450 0.74892
 O1161 O 0.51165 0.73449 0.74876
 O1162 O 0.48782 0.75099 0.76579
 Cu1163 Cu 0.49967 0.75883 0.74205
 Cu1164 Cu 0.49975 0.74127 0.75869
 C1165 C 0.48370 0.76103 0.76169
 C1166 C 0.51567 0.73905 0.73899
 C1167 C 0.48363 0.73906 0.73920
 C1168 C 0.51577 0.76102 0.76157
 C1169 C 0.38563 0.31680 0.31786
 C1170 C 0.39438 0.31211 0.31311
 C1171 C 0.40477 0.30643 0.30741
 C1172 C 0.40313 0.29912 0.29716
 C1173 C 0.41318 0.29349 0.29166
 C1174 C 0.42504 0.29510 0.29634
 C1175 C 0.42660 0.30251 0.30662
 C1176 C 0.41653 0.30812 0.31211
 C1177 C 0.43569 0.28903 0.29054
 C1178 C 0.44687 0.29528 0.28916
 C1179 C 0.45683 0.28959 0.28354
 C1180 C 0.45576 0.27758 0.27925
 C1181 C 0.44472 0.27126 0.28066
 C1182 C 0.43475 0.27694 0.28626
 C1183 C 0.46588 0.27177 0.27320
 C1184 C 0.47418 0.26677 0.26799
 H1185 H 0.39407 0.29777 0.29342
 H1186 H 0.41169 0.28798 0.28367
 H1187 H 0.43559 0.30380 0.31052
 H1188 H 0.41790 0.31374 0.32006
 H1189 H 0.44783 0.30464 0.29224
 H1190 H 0.46532 0.29457 0.28246
 H1191 H 0.44379 0.26196 0.27739
 H1192 H 0.42634 0.27182 0.28734
 C1193 C 0.38518 0.81717 0.81739
 C1194 C 0.39397 0.81250 0.81268
 C1195 C 0.40440 0.80684 0.80703
 C1196 C 0.41614 0.80866 0.81172
 C1197 C 0.42625 0.80305 0.80628
 C1198 C 0.42473 0.79553 0.79607
 C1199 C 0.41288 0.79379 0.79142
 C1200 C 0.40280 0.79941 0.79686
 C1201 C 0.43543 0.78948 0.79033
 C1202 C 0.43455 0.77733 0.78616
 C1203 C 0.44455 0.77166 0.78062
 C1204 C 0.45556 0.77803 0.77916
 C1205 C 0.45656 0.79009 0.78333
 C1206 C 0.44656 0.79578 0.78889
 C1207 C 0.46572 0.77221 0.77319
 C1208 C 0.47404 0.76719 0.76803
 H1209 H 0.41748 0.81435 0.81961
 H1210 H 0.43523 0.80444 0.81016
 H1211 H 0.41143 0.78819 0.78348
 H1212 H 0.39375 0.79796 0.79314
 H1213 H 0.42617 0.77218 0.78729
 H1214 H 0.44369 0.76232 0.77745
 H1215 H 0.46502 0.79511 0.78220
 H1216 H 0.44747 0.80518 0.79187
 C1217 C -0.11427 0.31725 0.81759
 C1218 C -0.10550 0.31256 0.81287
 C1219 C -0.09511 0.30686 0.80720
 C1220 C -0.09674 0.29954 0.79697
 C1221 C -0.08669 0.29389 0.79150
 C1222 C -0.07484 0.29550 0.79620
 C1223 C -0.07328 0.30292 0.80647
 C1224 C -0.08336 0.30856 0.81193
 C1225 C -0.06418 0.28941 0.79042
 C1226 C -0.05300 0.29565 0.78904
 C1227 C -0.04304 0.28993 0.78345
 C1228 C -0.04411 0.27791 0.77919
 C1229 C -0.05516 0.27161 0.78060
 C1230 C -0.06513 0.27731 0.78617
 C1231 C -0.03399 0.27207 0.77317
 C1232 C -0.02569 0.26705 0.76798
 H1233 H -0.10579 0.29819 0.79322
 H1234 H -0.08817 0.28836 0.78352
 H1235 H -0.06430 0.30421 0.81038
 H1236 H -0.08200 0.31418 0.81988
 H1237 H -0.05203 0.30502 0.79209
 H1238 H -0.03454 0.29491 0.78236
 H1239 H -0.05609 0.26230 0.77735
 H1240 H -0.07355 0.27221 0.78725
 C1241 C -0.11404 0.81735 0.31813
 C1242 C -0.10532 0.81260 0.31337
 C1243 C -0.09496 0.80688 0.30765
 C1244 C -0.09667 0.79946 0.29750
 C1245 C -0.08665 0.79381 0.29197
 C1246 C -0.07476 0.79551 0.29653
 C1247 C -0.07313 0.80301 0.30673
 C1248 C -0.08318 0.80865 0.31225
 C1249 C -0.06413 0.78945 0.29068
 C1250 C -0.05299 0.79573 0.28918
 C1251 C -0.04305 0.79004 0.28352
 C1252 C -0.04411 0.77800 0.27932
 C1253 C -0.05512 0.77165 0.28083
 C1254 C -0.06506 0.77733 0.28647
 C1255 C -0.03400 0.77217 0.27327
 C1256 C -0.02572 0.76712 0.26806
 H1257 H -0.10576 0.79805 0.29384
 H1258 H -0.08819 0.78823 0.28404
 H1259 H -0.06412 0.80436 0.31055
 H1260 H -0.08176 0.81434 0.32013
 H1261 H -0.05203 0.80511 0.29219
 H1262 H -0.03458 0.79505 0.28236
 H1263 H -0.05603 0.76233 0.27763
 H1264 H -0.07345 0.77219 0.28764
 C1265 C 0.61450 0.68322 0.31755
 C1266 C 0.60568 0.68784 0.31286
 C1267 C 0.59518 0.69343 0.30726
 C1268 C 0.58493 0.68634 0.30438
 C1269 C 0.57476 0.69177 0.29889
 C1270 C 0.57471 0.70438 0.29623
 C1271 C 0.58506 0.71142 0.29919
 C1272 C 0.59522 0.70597 0.30466
 C1273 C 0.56396 0.71017 0.29034
 C1274 C 0.55988 0.72182 0.29401
 C1275 C 0.54991 0.72737 0.28831
 C1276 C 0.54387 0.72138 0.27888
 C1277 C 0.54778 0.70974 0.27524
 C1278 C 0.55775 0.70416 0.28093
 C1279 C 0.53388 0.72731 0.27275
 C1280 C 0.52564 0.73240 0.26753
 H1281 H 0.58478 0.67663 0.30640
 H1282 H 0.56686 0.68615 0.29688
 H1283 H 0.58536 0.72112 0.29713
 H1284 H 0.60311 0.71154 0.30685
 H1285 H 0.56435 0.72660 0.30134
 H1286 H 0.54694 0.73637 0.29122
 H1287 H 0.54319 0.70504 0.26792
 H1288 H 0.56074 0.69525 0.27780
 C1289 C 0.61432 0.18277 0.81749
 C1290 C 0.60540 0.18729 0.81288
 C1291 C 0.59481 0.19275 0.80735
 C1292 C 0.58695 0.18562 0.80028
 C1293 C 0.57674 0.19097 0.79479
 C1294 C 0.57425 0.20353 0.79631
 C1295 C 0.58218 0.21059 0.80349
 C1296 C 0.59239 0.20523 0.80896
 C1297 C 0.56354 0.20929 0.79032
 C1298 C 0.55645 0.21811 0.79640
 C1299 C 0.54655 0.22375 0.79064
 C1300 C 0.54361 0.22064 0.77874
 C1301 C 0.55054 0.21180 0.77264
 C1302 C 0.56043 0.20615 0.77839
 C1303 C 0.53370 0.22676 0.77266
 C1304 C 0.52554 0.23200 0.76748
 H1305 H 0.58872 0.17594 0.79900
 H1306 H 0.57072 0.18527 0.78945
 H1307 H 0.58061 0.22031 0.80470
 H1308 H 0.59843 0.21083 0.81439
 H1309 H 0.55851 0.22060 0.80564
 H1310 H 0.54125 0.23057 0.79545
 H1311 H 0.54837 0.20938 0.76340
 H1312 H 0.56580 0.19952 0.77341
 C1313 C 1.11467 0.68401 0.81742
 C1314 C 1.10578 0.68860 0.81284
 C1315 C 1.09520 0.69414 0.80734
 C1316 C 1.08515 0.68692 0.80410
 C1317 C 1.07494 0.69230 0.79864
 C1318 C 1.07464 0.70498 0.79637
 C1319 C 1.08478 0.71215 0.79971
 C1320 C 1.09498 0.70676 0.80515
 C1321 C 1.06386 0.71071 0.79046
 C1322 C 1.05948 0.72217 0.79437
 C1323 C 1.04951 0.72769 0.78863
 C1324 C 1.04379 0.72185 0.77893
 C1325 C 1.04800 0.71041 0.77503
 C1326 C 1.05797 0.70486 0.78076
 C1327 C 1.03379 0.72776 0.77278
 C1328 C 1.02554 0.73283 0.76756
 H1329 H 1.08522 0.67714 0.80579
 H1330 H 1.06721 0.68656 0.79633
 H1331 H 1.08490 0.72191 0.79794
 H1332 H 1.10273 0.71243 0.80760
 H1333 H 1.06372 0.72682 0.80191
 H1334 H 1.04632 0.73655 0.79173
 H1335 H 1.04367 0.70584 0.76749
 H1336 H 1.06122 0.69611 0.77745
 C1337 C 1.11423 0.18314 0.31755
 C1338 C 1.10539 0.18775 0.31289
 C1339 C 1.09488 0.19334 0.30732
 C1340 C 1.09512 0.20577 0.30426
 C1341 C 1.08494 0.21123 0.29883
 C1342 C 1.07437 0.20432 0.29638
 C1343 C 1.07422 0.19182 0.29951
 C1344 C 1.08441 0.18638 0.30495
 C1345 C 1.06360 0.21013 0.29055
 C1346 C 1.05703 0.20393 0.28151
 C1347 C 1.04707 0.20955 0.27582
 C1348 C 1.04354 0.22142 0.27912
 C1349 C 1.04994 0.22760 0.28818
 C1350 C 1.05990 0.22201 0.29387
 C1351 C 1.03359 0.22739 0.27298
 C1352 C 1.02540 0.23255 0.26774
 H1353 H 1.10319 0.21124 0.30603
 H1354 H 1.08541 0.22083 0.29640
 H1355 H 1.06616 0.18630 0.29789
 H1356 H 1.08411 0.17675 0.30733
 H1357 H 1.05974 0.19484 0.27865
 H1358 H 1.04221 0.20470 0.26878
 H1359 H 1.04728 0.23678 0.29082
 H1360 H 1.06466 0.22695 0.30090
 C1361 C 0.61440 0.31658 0.68265
 C1362 C 0.60561 0.31191 0.68737
 C1363 C 0.59518 0.30626 0.69301
 C1364 C 0.59644 0.29489 0.69871
 C1365 C 0.58633 0.28934 0.70418
 C1366 C 0.57481 0.29512 0.70403
 C1367 C 0.57365 0.30656 0.69828
 C1368 C 0.58377 0.31209 0.69281
 C1369 C 0.56408 0.28922 0.70986
 C1370 C 0.55568 0.29620 0.71661
 C1371 C 0.54573 0.29058 0.72229
 C1372 C 0.54403 0.27791 0.72128
 C1373 C 0.55228 0.27090 0.71452
 C1374 C 0.56223 0.27651 0.70884
 C1375 C 0.53401 0.27204 0.72741
 C1376 C 0.52576 0.26696 0.73262
 H1377 H 0.60523 0.29031 0.69895
 H1378 H 0.58756 0.28061 0.70867
 H1379 H 0.56487 0.31116 0.69788
 H1380 H 0.58269 0.32088 0.68839
 H1381 H 0.55693 0.30598 0.71769
 H1382 H 0.53942 0.29608 0.72755
 H1383 H 0.55104 0.26110 0.71367
 H1384 H 0.56844 0.27090 0.70358
 C1385 C 0.61395 0.81663 0.18230
 C1386 C 0.60513 0.81199 0.18696
 C1387 C 0.59465 0.80637 0.19255
 C1388 C 0.58394 0.81315 0.19445
 C1389 C 0.57379 0.80767 0.19992
 C1390 C 0.57421 0.79533 0.20356
 C1391 C 0.58501 0.78859 0.20159
 C1392 C 0.59515 0.79408 0.19613
 C1393 C 0.56348 0.78951 0.20947
 C1394 C 0.56018 0.77739 0.20663
 C1395 C 0.55025 0.77181 0.21239
 C1396 C 0.54349 0.77826 0.22104
 C1397 C 0.54662 0.79035 0.22385
 C1398 C 0.55655 0.79595 0.21810
 C1399 C 0.53355 0.77233 0.22725
 C1400 C 0.52538 0.76719 0.23252
 H1401 H 0.58344 0.82265 0.19168
 H1402 H 0.56555 0.81305 0.20116
 H1403 H 0.58569 0.77912 0.20443
 H1404 H 0.60340 0.78876 0.19473
 H1405 H 0.56523 0.77225 0.19991
 H1406 H 0.54789 0.76245 0.21013
 H1407 H 0.54148 0.79540 0.23058
 H1408 H 0.55895 0.80524 0.22058
 C1409 C 1.11420 0.31681 0.18256
 C1410 C 1.10541 0.31218 0.18728
 C1411 C 1.09495 0.30657 0.19292
 C1412 C 1.08433 0.31343 0.19504
 C1413 C 1.07418 0.30796 0.20053
 C1414 C 1.07453 0.29555 0.20397
 C1415 C 1.08525 0.28875 0.20179
 C1416 C 1.09538 0.29423 0.19631
 C1417 C 1.06380 0.28973 0.20987
 C1418 C 1.06038 0.27768 0.20687
 C1419 C 1.05044 0.27210 0.21259
 C1420 C 1.04377 0.27846 0.22138
 C1421 C 1.04703 0.29048 0.22435
 C1422 C 1.05697 0.29609 0.21864
 C1423 C 1.03380 0.27253 0.22753
 C1424 C 1.02559 0.26742 0.23276
 H1425 H 1.08389 0.32298 0.19242
 H1426 H 1.06602 0.31339 0.20194
 H1427 H 1.08587 0.27924 0.20448
 H1428 H 1.10357 0.28885 0.19474
 H1429 H 1.06534 0.27261 0.20004
 H1430 H 1.04799 0.26280 0.21021
 H1431 H 1.04196 0.29547 0.23118
 H1432 H 1.05946 0.30531 0.22125
 C1433 C 1.11356 0.81692 0.68196
 C1434 C 1.10480 0.81221 0.68665
 C1435 C 1.09437 0.80653 0.69228
 C1436 C 1.08319 0.81277 0.69289
 C1437 C 1.07307 0.80726 0.69838
 C1438 C 1.07400 0.79542 0.70333
 C1439 C 1.08528 0.78923 0.70265
 C1440 C 1.09539 0.79476 0.69717
 C1441 C 1.06328 0.78955 0.70922
 C1442 C 1.06088 0.77702 0.70749
 C1443 C 1.05095 0.77143 0.71322
 C1444 C 1.04328 0.77829 0.72076
 C1445 C 1.04552 0.79079 0.72246
 C1446 C 1.05545 0.79640 0.71672
 C1447 C 1.03332 0.77240 0.72697
 C1448 C 1.02513 0.76732 0.73228
 H1449 H 1.08229 0.82188 0.68910
 H1450 H 1.06447 0.81220 0.69862
 H1451 H 1.08634 0.78018 0.70652
 H1452 H 1.10401 0.78986 0.69677
 H1453 H 1.06664 0.77154 0.70163
 H1454 H 1.04929 0.76176 0.71183
 H1455 H 1.03966 0.79617 0.72831
 H1456 H 1.05714 0.80603 0.71835
 C1457 C 0.38613 0.68254 0.68250
 C1458 C 0.39484 0.68718 0.68734
 C1459 C 0.40518 0.69279 0.69316
 C1460 C 0.40505 0.69474 0.70565
 C1461 C 0.41501 0.70034 0.71130
 C1462 C 0.42525 0.70408 0.70452
 C1463 C 0.42532 0.70202 0.69198
 C1464 C 0.41534 0.69642 0.68634
 C1465 C 0.43575 0.71020 0.71051
 C1466 C 0.44786 0.70739 0.70715
 C1467 C 0.45771 0.71317 0.71283
 C1468 C 0.45559 0.72183 0.72191
 C1469 C 0.44359 0.72470 0.72529
 C1470 C 0.43373 0.71893 0.71964
 C1471 C 0.46569 0.72778 0.72782
 C1472 C 0.47398 0.73287 0.73293
 H1473 H 0.39725 0.69194 0.71102
 H1474 H 0.41475 0.70165 0.72098
 H1475 H 0.43299 0.70493 0.68650
 H1476 H 0.41552 0.69499 0.67667
 H1477 H 0.44971 0.70061 0.70026
 H1478 H 0.46697 0.71086 0.71017
 H1479 H 0.44184 0.73141 0.73228
 H1480 H 0.42453 0.72142 0.72230
 C1481 C 0.38611 0.18269 0.18238
 C1482 C 0.39484 0.18736 0.18717
 C1483 C 0.40518 0.19302 0.19291
 C1484 C 0.41684 0.19206 0.18777
 C1485 C 0.42686 0.19770 0.19329
 C1486 C 0.42533 0.20439 0.20405
 C1487 C 0.41357 0.20527 0.20916
 C1488 C 0.40358 0.19963 0.20362
 C1489 C 0.43593 0.21048 0.20989
 C1490 C 0.43466 0.22223 0.21496
 C1491 C 0.44457 0.22792 0.22059
 C1492 C 0.45589 0.22197 0.22123
 C1493 C 0.45729 0.21031 0.21617
 C1494 C 0.44738 0.20459 0.21052
 C1495 C 0.46598 0.22779 0.22727
 C1496 C 0.47426 0.23279 0.23248
 H1497 H 0.41818 0.18701 0.17945
 H1498 H 0.43576 0.19699 0.18905
 H1499 H 0.41212 0.21023 0.21750
 H1500 H 0.39459 0.20042 0.20769
 H1501 H 0.42602 0.22707 0.21447
 H1502 H 0.44339 0.23696 0.22446
 H1503 H 0.46600 0.20560 0.21666
 H1504 H 0.44861 0.19549 0.20684
 C1505 C -0.11401 0.68255 0.18270
 C1506 C -0.10523 0.68709 0.18751
 C1507 C -0.09481 0.69258 0.19330
 C1508 C -0.09369 0.69216 0.20588
 C1509 C -0.08370 0.69768 0.21155
 C1510 C -0.07467 0.70370 0.20470
 C1511 C -0.07583 0.70400 0.19205
 C1512 C -0.08584 0.69848 0.18640
 C1513 C -0.06418 0.70976 0.21075
 C1514 C -0.05232 0.70899 0.20584
 C1515 C -0.04247 0.71476 0.21155
 C1516 C -0.04436 0.72137 0.22221
 C1517 C -0.05611 0.72219 0.22715
 C1518 C -0.06596 0.71644 0.22148
 C1519 C -0.03428 0.72738 0.22808
 C1520 C -0.02598 0.73252 0.23314
 H1521 H -0.10056 0.68759 0.21131
 H1522 H -0.08298 0.69715 0.22129
 H1523 H -0.06912 0.70870 0.18654
 H1524 H -0.08663 0.69889 0.17666
 H1525 H -0.05063 0.70381 0.19767
 H1526 H -0.03340 0.71404 0.20765
 H1527 H -0.05768 0.72733 0.23538
 H1528 H -0.07500 0.71735 0.22538
 C1529 C -0.11399 0.18286 0.68260
 C1530 C -0.10526 0.18751 0.68739
 C1531 C -0.09490 0.19316 0.69314
 C1532 C -0.09639 0.19922 0.70418
 C1533 C -0.08640 0.20487 0.70971
 C1534 C -0.07476 0.20453 0.70428
 C1535 C -0.07335 0.19838 0.69321
 C1536 C -0.08336 0.19274 0.68768
 C1537 C -0.06417 0.21063 0.71013
 C1538 C -0.05257 0.20501 0.71021
 C1539 C -0.04265 0.21073 0.71584
 C1540 C -0.04419 0.22212 0.72142
 C1541 C -0.05567 0.22780 0.72132
 C1542 C -0.06559 0.22211 0.71572
 C1543 C -0.03408 0.22795 0.72742
 C1544 C -0.02578 0.23295 0.73260
 H1545 H -0.10528 0.19958 0.70850
 H1546 H -0.08776 0.20940 0.71831
 H1547 H -0.06454 0.19810 0.68872
 H1548 H -0.08211 0.18811 0.67911
 H1549 H -0.05122 0.19611 0.70611
 H1550 H -0.03381 0.20623 0.71590
 H1551 H -0.05695 0.23664 0.72560
 H1552 H -0.07435 0.22675 0.71566
 C1553 C 0.31658 0.38577 0.31785
 C1554 C 0.31188 0.39451 0.31307
 C1555 C 0.30620 0.40488 0.30732
 C1556 C 0.31232 0.41612 0.30673
 C1557 C 0.30682 0.42616 0.30106
 C1558 C 0.29512 0.42507 0.29589
 C1559 C 0.28903 0.41373 0.29656
 C1560 C 0.29454 0.40372 0.30224
 C1561 C 0.28929 0.43568 0.28976
 C1562 C 0.28274 0.43402 0.27895
 C1563 C 0.27718 0.44397 0.27321
 C1564 C 0.27808 0.45572 0.27818
 C1565 C 0.28460 0.45749 0.28891
 C1566 C 0.29018 0.44753 0.29466
 C1567 C 0.27221 0.46589 0.27226
 C1568 C 0.26716 0.47422 0.26714
 H1569 H 0.32136 0.41710 0.31061
 H1570 H 0.31179 0.43471 0.30057
 H1571 H 0.27995 0.41265 0.29282
 H1572 H 0.28971 0.39507 0.30268
 H1573 H 0.28204 0.42504 0.27486
 H1574 H 0.27218 0.44251 0.26490
 H1575 H 0.28532 0.46653 0.29285
 H1576 H 0.29503 0.44908 0.30304
 C1577 C 0.31720 -0.11451 0.81781
 C1578 C 0.31262 -0.10559 0.81323
 C1579 C 0.30707 -0.09499 0.80778
 C1580 C 0.29832 -0.08821 0.81415
 C1581 C 0.29276 -0.07804 0.80879
 C1582 C 0.29589 -0.07450 0.79697
 C1583 C 0.30476 -0.08133 0.79066
 C1584 C 0.31030 -0.09151 0.79603
 C1585 C 0.28982 -0.06383 0.79117
 C1586 C 0.29655 -0.05566 0.78392
 C1587 C 0.29076 -0.04578 0.77826
 C1588 C 0.27818 -0.04394 0.77976
 C1589 C 0.27142 -0.05197 0.78701
 C1590 C 0.27719 -0.06184 0.79269
 C1591 C 0.27213 -0.03401 0.77362
 C1592 C 0.26697 -0.02584 0.76836
 H1593 H 0.29578 -0.09082 0.82326
 H1594 H 0.28609 -0.07288 0.81393
 H1595 H 0.30724 -0.07894 0.78149
 H1596 H 0.31704 -0.09671 0.79100
 H1597 H 0.30631 -0.05685 0.78270
 H1598 H 0.29608 -0.03962 0.77267
 H1599 H 0.26166 -0.05067 0.78818
 H1600 H 0.27172 -0.06807 0.79806
 C1601 C 0.81694 0.38562 0.81769
 C1602 C 0.81224 0.39437 0.81293
 C1603 C 0.80655 0.40475 0.80719
 C1604 C 0.81258 0.41604 0.80677
 C1605 C 0.80705 0.42609 0.80113
 C1606 C 0.79542 0.42495 0.79581
 C1607 C 0.78943 0.41356 0.79632
 C1608 C 0.79497 0.40353 0.80197
 C1609 C 0.78958 0.43556 0.78971
 C1610 C 0.78316 0.43395 0.77882
 C1611 C 0.77758 0.44391 0.77311
 C1612 C 0.77833 0.45562 0.77818
 C1613 C 0.78473 0.45734 0.78898
 C1614 C 0.79033 0.44739 0.79471
 C1615 C 0.77241 0.46578 0.77231
 C1616 C 0.76731 0.47412 0.76725
 H1617 H 0.82156 0.41708 0.81076
 H1618 H 0.81196 0.43469 0.80076
 H1619 H 0.78040 0.41243 0.79246
 H1620 H 0.79020 0.39484 0.80227
 H1621 H 0.78256 0.42500 0.77465
 H1622 H 0.77267 0.44247 0.76473
 H1623 H 0.78534 0.46637 0.79301
 H1624 H 0.79508 0.44890 0.80316
 C1625 C 0.81759 -0.11397 0.31810
 C1626 C 0.81297 -0.10521 0.31327
 C1627 C 0.80742 -0.09482 0.30745
 C1628 C 0.80176 -0.08569 0.31435
 C1629 C 0.79621 -0.07568 0.30868
 C1630 C 0.79624 -0.07467 0.29601
 C1631 C 0.80201 -0.08387 0.28916
 C1632 C 0.80755 -0.09387 0.29485
 C1633 C 0.79017 -0.06416 0.28996
 C1634 C 0.78326 -0.06598 0.27940
 C1635 C 0.77750 -0.05611 0.27371
 C1636 C 0.77854 -0.04429 0.27848
 C1637 C 0.78540 -0.04237 0.28898
 C1638 C 0.79117 -0.05224 0.29469
 C1639 C 0.77255 -0.03419 0.27257
 C1640 C 0.76742 -0.02590 0.26746
 H1641 H 0.80157 -0.08635 0.32411
 H1642 H 0.79171 -0.06883 0.31420
 H1643 H 0.80232 -0.08329 0.27940
 H1644 H 0.81193 -0.10087 0.28942
 H1645 H 0.78217 -0.07506 0.27563
 H1646 H 0.77218 -0.05771 0.26561
 H1647 H 0.78629 -0.03326 0.29273
 H1648 H 0.79654 -0.05053 0.30272
 C1649 C 0.31712 0.61370 0.68159
 C1650 C 0.31242 0.60489 0.68623
 C1651 C 0.30676 0.59441 0.69179
 C1652 C 0.29628 0.58923 0.68666
 C1653 C 0.29067 0.57914 0.69212
 C1654 C 0.29548 0.57410 0.70282
 C1655 C 0.30606 0.57934 0.70787
 C1656 C 0.31165 0.58943 0.70239
 C1657 C 0.28940 0.56353 0.70876
 C1658 C 0.29637 0.55401 0.71390
 C1659 C 0.29062 0.54417 0.71966
 C1660 C 0.27784 0.54371 0.72035
 C1661 C 0.27084 0.55309 0.71522
 C1662 C 0.27656 0.56294 0.70946
 C1663 C 0.27189 0.53374 0.72651
 C1664 C 0.26677 0.52554 0.73174
 H1665 H 0.29244 0.59300 0.67844
 H1666 H 0.28264 0.57522 0.68793
 H1667 H 0.30989 0.57578 0.71618
 H1668 H 0.31974 0.59340 0.70646
 H1669 H 0.30626 0.55413 0.71338
 H1670 H 0.29613 0.53695 0.72359
 H1671 H 0.26094 0.55286 0.71576
 H1672 H 0.27095 0.57019 0.70575
 C1673 C 0.31691 1.11400 0.18198
 C1674 C 0.31218 1.10524 0.18668
 C1675 C 0.30645 1.09486 0.19234
 C1676 C 0.31344 1.08466 0.19569
 C1677 C 0.30787 1.07464 0.20132
 C1678 C 0.29522 1.07471 0.20369
 C1679 C 0.28826 1.08497 0.20022
 C1680 C 0.29385 1.09497 0.19459
 C1681 C 0.28930 1.06417 0.20984
 C1682 C 0.28026 1.06614 0.21869
 C1683 C 0.27467 1.05624 0.22449
 C1684 C 0.27802 1.04424 0.22153
 C1685 C 0.28701 1.04216 0.21275
 C1686 C 0.29262 1.05206 0.20695
 C1687 C 0.27219 1.03410 0.22751
 C1688 C 0.26717 1.02577 0.23265
 H1689 H 0.32321 1.08448 0.19402
 H1690 H 0.31349 1.06693 0.20401
 H1691 H 0.27848 1.08523 0.20175
 H1692 H 0.28834 1.10280 0.19199
 H1693 H 0.27763 1.07534 0.22125
 H1694 H 0.26775 1.05795 0.23130
 H1695 H 0.28965 1.03291 0.21037
 H1696 H 0.29944 1.05024 0.20008
 C1697 C 0.81678 0.61390 0.18173
 C1698 C 0.81205 0.60511 0.18638
 C1699 C 0.80633 0.59468 0.19198
 C1700 C 0.81348 0.58505 0.19643
 C1701 C 0.80792 0.57499 0.20201
 C1702 C 0.79511 0.57447 0.20322
 C1703 C 0.78801 0.58417 0.19865
 C1704 C 0.79359 0.59420 0.19307
 C1705 C 0.78919 0.56391 0.20934
 C1706 C 0.77929 0.56580 0.21725
 C1707 C 0.77371 0.55589 0.22304
 C1708 C 0.77793 0.54397 0.22100
 C1709 C 0.78779 0.54198 0.21317
 C1710 C 0.79339 0.55189 0.20737
 C1711 C 0.77210 0.53382 0.22697
 C1712 C 0.76703 0.52550 0.23209
 H1713 H 0.82336 0.58534 0.19566
 H1714 H 0.81365 0.56774 0.20557
 H1715 H 0.77812 0.58395 0.19929
 H1716 H 0.78796 0.60160 0.18963
 H1717 H 0.77595 0.57495 0.21910
 H1718 H 0.76611 0.55754 0.22912
 H1719 H 0.79111 0.53278 0.21151
 H1720 H 0.80090 0.55013 0.20122
 C1721 C 0.81698 1.11400 0.68192
 C1722 C 0.81227 1.10520 0.68658
 C1723 C 0.80656 1.09477 0.69218
 C1724 C 0.81365 1.08612 0.69836
 C1725 C 0.80807 1.07609 0.70395
 C1726 C 0.79529 1.07459 0.70346
 C1727 C 0.78825 1.08330 0.69717
 C1728 C 0.79386 1.09332 0.69157
 C1729 C 0.78932 1.06408 0.70961
 C1730 C 0.77827 1.06574 0.71594
 C1731 C 0.77266 1.05588 0.72178
 C1732 C 0.77800 1.04423 0.72138
 C1733 C 0.78898 1.04247 0.71511
 C1734 C 0.79462 1.05233 0.70926
 C1735 C 0.77219 1.03413 0.72746
 C1736 C 0.76716 1.02583 0.73265
 H1737 H 0.82349 1.08718 0.69891
 H1738 H 0.81372 1.06963 0.70885
 H1739 H 0.77842 1.08232 0.69648
 H1740 H 0.78828 1.09994 0.68679
 H1741 H 0.77406 1.07470 0.71653
 H1742 H 0.76419 1.05735 0.72665
 H1743 H 0.79318 1.03349 0.71472
 H1744 H 0.80304 1.05074 0.70435
 C1745 C 0.68344 0.61410 0.31788
 C1746 C 0.68811 0.60528 0.31321
 C1747 C 0.69379 0.59481 0.30762
 C1748 C 0.70650 0.59341 0.30803
 C1749 C 0.71206 0.58334 0.30247
 C1750 C 0.70496 0.57453 0.29642
 C1751 C 0.69217 0.57598 0.29614
 C1752 C 0.68663 0.58606 0.30170
 C1753 C 0.71088 0.56396 0.29032
 C1754 C 0.70566 0.55220 0.29093
 C1755 C 0.71122 0.54228 0.28511
 C1756 C 0.72206 0.54399 0.27859
 C1757 C 0.72733 0.55564 0.27793
 C1758 C 0.72179 0.56556 0.28375
 C1759 C 0.72777 0.53384 0.27247
 C1760 C 0.73270 0.52552 0.26722
 H1761 H 0.71213 0.60010 0.31263
 H1762 H 0.72191 0.58239 0.30300
 H1763 H 0.68647 0.56942 0.29145
 H1764 H 0.67677 0.58707 0.30132
 H1765 H 0.69734 0.55064 0.29602
 H1766 H 0.70707 0.53329 0.28569
 H1767 H 0.73569 0.55707 0.27286
 H1768 H 0.72595 0.57453 0.28295
 C1769 C 0.68326 1.11453 0.81787
 C1770 C 0.68788 1.10566 0.81327
 C1771 C 0.69350 1.09513 0.80774
 C1772 C 0.68665 1.08746 0.80022
 C1773 C 0.69218 1.07735 0.79469
 C1774 C 0.70466 1.07480 0.79661
 C1775 C 0.71143 1.08253 0.80425
 C1776 C 0.70589 1.09262 0.80977
 C1777 C 0.71061 1.06422 0.79055
 C1778 C 0.72247 1.06535 0.78573
 C1779 C 0.72806 1.05544 0.77995
 C1780 C 0.72189 1.04426 0.77891
 C1781 C 0.71010 1.04303 0.78369
 C1782 C 0.70449 1.05294 0.78948
 C1783 C 0.72767 1.03414 0.77284
 C1784 C 0.73269 1.02583 0.76765
 H1785 H 0.67707 1.08934 0.79856
 H1786 H 0.68676 1.07167 0.78875
 H1787 H 0.72100 1.08071 0.80604
 H1788 H 0.71126 1.09848 0.81560
 H1789 H 0.72736 1.07396 0.78625
 H1790 H 0.73717 1.05651 0.77623
 H1791 H 0.70525 1.03441 0.78295
 H1792 H 0.69541 1.05175 0.79322
 C1793 C 0.18339 0.61474 0.81700
 C1794 C 0.18786 0.60586 0.81226
 C1795 C 0.19322 0.59533 0.80651
 C1796 C 0.19739 0.59614 0.79459
 C1797 C 0.20265 0.58595 0.78898
 C1798 C 0.20381 0.57478 0.79524
 C1799 C 0.19959 0.57405 0.80723
 C1800 C 0.19432 0.58426 0.81282
 C1801 C 0.20949 0.56399 0.78929
 C1802 C 0.21763 0.55638 0.79567
 C1803 C 0.22320 0.54640 0.78996
 C1804 C 0.22069 0.54388 0.77782
 C1805 C 0.21252 0.55133 0.77144
 C1806 C 0.20695 0.56132 0.77712
 C1807 C 0.22672 0.53387 0.77182
 C1808 C 0.23189 0.52563 0.76666
 H1809 H 0.19662 0.60467 0.78964
 H1810 H 0.20598 0.58686 0.77981
 H1811 H 0.20023 0.56555 0.81224
 H1812 H 0.19109 0.58353 0.82204
 H1813 H 0.21989 0.55829 0.80500
 H1814 H 0.22956 0.54073 0.79497
 H1815 H 0.21051 0.54947 0.76204
 H1816 H 0.20060 0.56691 0.77202
 C1817 C 0.18318 1.11399 0.31813
 C1818 C 0.18780 1.10507 0.31359
 C1819 C 0.19340 1.09449 0.30814
 C1820 C 0.20469 1.09023 0.31237
 C1821 C 0.21027 1.08010 0.30695
 C1822 C 0.20462 1.07409 0.29720
 C1823 C 0.19322 1.07839 0.29308
 C1824 C 0.18766 1.08853 0.29851
 C1825 C 0.21067 1.06349 0.29126
 C1826 C 0.20380 1.05327 0.28754
 C1827 C 0.20949 1.04339 0.28177
 C1828 C 0.22211 1.04360 0.27964
 C1829 C 0.22903 1.05369 0.28336
 C1830 C 0.22336 1.06357 0.28913
 C1831 C 0.22796 1.03361 0.27342
 C1832 C 0.23300 1.02540 0.26809
 H1833 H 0.20919 1.09475 0.31985
 H1834 H 0.21896 1.07691 0.31044
 H1835 H 0.18871 1.07405 0.28550
 H1836 H 0.17893 1.09176 0.29514
 H1837 H 0.19404 1.05287 0.28918
 H1838 H 0.20405 1.03562 0.27894
 H1839 H 0.23880 1.05398 0.28170
 H1840 H 0.22887 1.07137 0.29172
 C1841 C 0.68296 0.38593 0.68222
 C1842 C 0.68760 0.39479 0.68681
 C1843 C 0.69326 0.40529 0.69229
 C1844 C 0.68682 0.41234 0.70072
 C1845 C 0.69241 0.42244 0.70617
 C1846 C 0.70454 0.42560 0.70326
 C1847 C 0.71091 0.41849 0.69472
 C1848 C 0.70530 0.40841 0.68928
 C1849 C 0.71059 0.43615 0.70923
 C1850 C 0.72287 0.43531 0.71295
 C1851 C 0.72854 0.44517 0.71871
 C1852 C 0.72204 0.45601 0.72082
 C1853 C 0.70984 0.45697 0.71712
 C1854 C 0.70414 0.44711 0.71136
 C1855 C 0.72787 0.46604 0.72696
 C1856 C 0.73289 0.47430 0.73221
 H1857 H 0.67750 0.40999 0.70314
 H1858 H 0.68732 0.42764 0.71282
 H1859 H 0.72019 0.42078 0.69217
 H1860 H 0.71036 0.40302 0.68275
 H1861 H 0.72803 0.42695 0.71160
 H1862 H 0.73797 0.44431 0.72158
 H1863 H 0.70472 0.46532 0.71870
 H1864 H 0.69473 0.44809 0.70848
 C1865 C 0.68280 -0.11435 0.18268
 C1866 C 0.68742 -0.10558 0.18743
 C1867 C 0.69303 -0.09517 0.19315
 C1868 C 0.69542 -0.08453 0.18650
 C1869 C 0.70104 -0.07450 0.19203
 C1870 C 0.70436 -0.07499 0.20429
 C1871 C 0.70185 -0.08571 0.21091
 C1872 C 0.69622 -0.09572 0.20537
 C1873 C 0.71050 -0.06443 0.21015
 C1874 C 0.72018 -0.06636 0.21830
 C1875 C 0.72593 -0.05645 0.22389
 C1876 C 0.72210 -0.04447 0.22142
 C1877 C 0.71253 -0.04243 0.21328
 C1878 C 0.70676 -0.05234 0.20767
 C1879 C 0.72799 -0.03433 0.22733
 C1880 C 0.73303 -0.02601 0.23244
 H1881 H 0.69302 -0.08403 0.17702
 H1882 H 0.70299 -0.06644 0.18665
 H1883 H 0.70414 -0.08631 0.22040
 H1884 H 0.69439 -0.10390 0.21061
 H1885 H 0.72340 -0.07553 0.22026
 H1886 H 0.73336 -0.05813 0.23014
 H1887 H 0.70948 -0.03320 0.21132
 H1888 H 0.69926 -0.05056 0.20153
 C1889 C 0.18277 0.38610 0.18204
 C1890 C 0.18739 0.39496 0.18665
 C1891 C 0.19300 0.40550 0.19213
 C1892 C 0.18866 0.40994 0.20319
 C1893 C 0.19422 0.42008 0.20858
 C1894 C 0.20420 0.42592 0.20297
 C1895 C 0.20846 0.42141 0.19183
 C1896 C 0.20288 0.41127 0.18645
 C1897 C 0.21026 0.43655 0.20881
 C1898 C 0.22308 0.43764 0.20868
 C1899 C 0.22880 0.44751 0.21438
 C1900 C 0.22180 0.45642 0.22028
 C1901 C 0.20903 0.45547 0.22040
 C1902 C 0.20329 0.44560 0.21470
 C1903 C 0.22776 0.46635 0.22647
 C1904 C 0.23286 0.47452 0.23177
 H1905 H 0.18104 0.40552 0.20768
 H1906 H 0.19085 0.42323 0.21724
 H1907 H 0.21602 0.42579 0.18722
 H1908 H 0.20629 0.40792 0.17788
 H1909 H 0.22871 0.43074 0.20438
 H1910 H 0.23870 0.44812 0.21430
 H1911 H 0.20352 0.46232 0.22494
 H1912 H 0.19340 0.44510 0.21484
 C1913 C 0.18252 -0.11422 0.68276
 C1914 C 0.18715 -0.10549 0.68761
 C1915 C 0.19270 -0.09511 0.69343
 C1916 C 0.19257 -0.08362 0.68782
 C1917 C 0.19803 -0.07356 0.69345
 C1918 C 0.20368 -0.07486 0.70479
 C1919 C 0.20375 -0.08645 0.71036
 C1920 C 0.19829 -0.09650 0.70471
 C1921 C 0.20953 -0.06420 0.71079
 C1922 C 0.20832 -0.06245 0.72332
 C1923 C 0.21400 -0.05254 0.72899
 C1924 C 0.22096 -0.04426 0.72223
 C1925 C 0.22217 -0.04587 0.70975
 C1926 C 0.21648 -0.05577 0.70405
 C1927 C 0.22708 -0.03427 0.72817
 C1928 C 0.23229 -0.02605 0.73328
 H1929 H 0.18825 -0.08244 0.67910
 H1930 H 0.19771 -0.06473 0.68900
 H1931 H 0.20818 -0.08780 0.71900
 H1932 H 0.19848 -0.10536 0.70911
 H1933 H 0.20290 -0.06869 0.72872
 H1934 H 0.21300 -0.05138 0.73866
 H1935 H 0.22759 -0.03954 0.70445
 H1936 H 0.21772 -0.05695 0.69442
 C1937 C 0.31757 0.31760 0.38752
 C1938 C 0.31307 0.31301 0.39637
 C1939 C 0.30766 0.30745 0.40688
 C1940 C 0.29584 0.31077 0.41049
 C1941 C 0.29049 0.30523 0.42059
 C1942 C 0.29690 0.29628 0.42720
 C1943 C 0.30881 0.29306 0.42353
 C1944 C 0.31414 0.29861 0.41343
 C1945 C 0.29111 0.29019 0.43775
 C1946 C 0.29254 0.27751 0.43959
 C1947 C 0.28684 0.27171 0.44934
 C1948 C 0.27966 0.27849 0.45739
 C1949 C 0.27825 0.29112 0.45570
 C1950 C 0.28394 0.29694 0.44595
 C1951 C 0.27349 0.27241 0.46718
 C1952 C 0.26821 0.26718 0.47523
 H1953 H 0.29072 0.31757 0.40546
 H1954 H 0.28126 0.30779 0.42308
 H1955 H 0.31403 0.28631 0.42851
 H1956 H 0.32330 0.29599 0.41072
 H1957 H 0.29786 0.27203 0.43334
 H1958 H 0.28793 0.26192 0.45052
 H1959 H 0.27271 0.29646 0.46189
 H1960 H 0.28280 0.30673 0.44486
 C1961 C 0.31756 0.81735 -0.11336
 C1962 C 0.31304 0.81279 -0.10450
 C1963 C 0.30758 0.80732 -0.09398
 C1964 C 0.29524 0.80945 -0.09132
 C1965 C 0.28986 0.80399 -0.08120
 C1966 C 0.29677 0.79631 -0.07360
 C1967 C 0.30918 0.79427 -0.07632
 C1968 C 0.31454 0.79974 -0.08644
 C1969 C 0.29098 0.79031 -0.06299
 C1970 C 0.29369 0.77804 -0.06013
 C1971 C 0.28802 0.77230 -0.05033
 C1972 C 0.27958 0.77874 -0.04324
 C1973 C 0.27690 0.79097 -0.04594
 C1974 C 0.28256 0.79673 -0.05574
 C1975 C 0.27345 0.77267 -0.03341
 C1976 C 0.26819 0.76747 -0.02533
 H1977 H 0.28975 0.81526 -0.09711
 H1978 H 0.28025 0.80561 -0.07945
 H1979 H 0.31477 0.78852 -0.07056
 H1980 H 0.32411 0.79805 -0.08840
 H1981 H 0.30000 0.77280 -0.06563
 H1982 H 0.29011 0.76280 -0.04836
 H1983 H 0.27038 0.79604 -0.04051
 H1984 H 0.28040 0.80623 -0.05762
 C1985 C 0.81728 0.31779 -0.11313
 C1986 C 0.81272 0.31315 -0.10433
 C1987 C 0.80725 0.30753 -0.09388
 C1988 C 0.79568 0.31128 -0.08993
 C1989 C 0.79028 0.30570 -0.07988
 C1990 C 0.79640 0.29627 -0.07366
 C1991 C 0.80806 0.29260 -0.07768
 C1992 C 0.81344 0.29820 -0.08772
 C1993 C 0.79056 0.29016 -0.06314
 C1994 C 0.79145 0.27739 -0.06165
 C1995 C 0.78573 0.27160 -0.05190
 C1996 C 0.77907 0.27848 -0.04351
 C1997 C 0.77820 0.29120 -0.04485
 C1998 C 0.78390 0.29701 -0.05460
 C1999 C 0.77293 0.27244 -0.03367
 C2000 C 0.76769 0.26725 -0.02557
 H2001 H 0.79079 0.31846 -0.09466
 H2002 H 0.78123 0.30861 -0.07712
 H2003 H 0.81306 0.28548 -0.07299
 H2004 H 0.82241 0.29524 -0.09069
 H2005 H 0.79636 0.27184 -0.06815
 H2006 H 0.78642 0.26174 -0.05097
 H2007 H 0.77307 0.29662 -0.03840
 H2008 H 0.78318 0.30687 -0.05542
 C2009 C 0.81694 0.81782 0.38690
 C2010 C 0.81231 0.81325 0.39571
 C2011 C 0.80676 0.80775 0.40618
 C2012 C 0.79427 0.80944 0.40845
 C2013 C 0.78882 0.80398 0.41853
 C2014 C 0.79580 0.79674 0.42648
 C2015 C 0.80836 0.79515 0.42415
 C2016 C 0.81379 0.80062 0.41406
 C2017 C 0.78996 0.79075 0.43707
 C2018 C 0.79310 0.77868 0.44029
 C2019 C 0.78742 0.77295 0.45009
 C2020 C 0.77855 0.77920 0.45682
 C2021 C 0.77542 0.79123 0.45375
 C2022 C 0.78108 0.79698 0.44394
 C2023 C 0.77245 0.77313 0.46667
 C2024 C 0.76724 0.76793 0.47478
 H2025 H 0.78873 0.81491 0.40238
 H2026 H 0.77910 0.80524 0.41998
 H2027 H 0.81400 0.78976 0.43018
 H2028 H 0.82347 0.79928 0.41241
 H2029 H 0.79976 0.77358 0.43508
 H2030 H 0.78986 0.76360 0.45235
 H2031 H 0.76856 0.79615 0.45889
 H2032 H 0.77857 0.80633 0.44178
 C2033 C 0.68289 0.31712 0.61335
 C2034 C 0.68757 0.31252 0.60460
 C2035 C 0.69326 0.30702 0.59421
 C2036 C 0.68741 0.30734 0.58298
 C2037 C 0.69297 0.30202 0.57288
 C2038 C 0.70448 0.29632 0.57390
 C2039 C 0.71027 0.29603 0.58524
 C2040 C 0.70469 0.30135 0.59532
 C2041 C 0.71041 0.29063 0.56320
 C2042 C 0.72308 0.29185 0.56132
 C2043 C 0.72871 0.28627 0.55141
 C2044 C 0.72177 0.27940 0.54325
 C2045 C 0.70914 0.27822 0.54498
 C2046 C 0.70348 0.28381 0.55488
 C2047 C 0.72769 0.27329 0.53332
 C2048 C 0.73282 0.26805 0.52518
 H2049 H 0.67857 0.31173 0.58202
 H2050 H 0.68834 0.30250 0.56426
 H2051 H 0.71904 0.29155 0.58635
 H2052 H 0.70928 0.30101 0.60398
 H2053 H 0.72863 0.29718 0.56746
 H2054 H 0.73849 0.28725 0.55015
 H2055 H 0.70369 0.27288 0.53875
 H2056 H 0.69374 0.28258 0.55617
 C2057 C 0.68272 0.81736 1.11326
 C2058 C 0.68741 0.81279 1.10449
 C2059 C 0.69311 0.80731 1.09410
 C2060 C 0.70455 0.80167 1.09520
 C2061 C 0.71013 0.79634 1.08513
 C2062 C 0.70432 0.79657 1.07379
 C2063 C 0.69280 0.80225 1.07278
 C2064 C 0.68725 0.80759 1.08287
 C2065 C 0.71024 0.79086 1.06311
 C2066 C 0.70331 0.78397 1.05484
 C2067 C 0.70897 0.77834 1.04496
 C2068 C 0.72159 0.77955 1.04319
 C2069 C 0.72853 0.78648 1.05130
 C2070 C 0.72290 0.79210 1.06119
 C2071 C 0.72751 0.77341 1.03329
 C2072 C 0.73265 0.76816 1.02516
 H2073 H 0.70915 0.80135 1.10386
 H2074 H 0.71891 0.79188 1.08624
 H2075 H 0.68817 0.80271 1.06415
 H2076 H 0.67839 0.81196 1.08191
 H2077 H 0.69358 0.78272 1.05616
 H2078 H 0.70352 0.77295 1.03877
 H2079 H 0.73830 0.78749 1.05001
 H2080 H 0.72845 0.79748 1.06730
 C2081 C 0.18299 0.31688 1.11357
 C2082 C 0.18768 0.31229 1.10481
 C2083 C 0.19336 0.30681 1.09439
 C2084 C 0.18750 0.30714 1.08317
 C2085 C 0.19304 0.30182 1.07306
 C2086 C 0.20455 0.29612 1.07406
 C2087 C 0.21036 0.29584 1.08539
 C2088 C 0.20480 0.30115 1.09548
 C2089 C 0.21046 0.29042 1.06335
 C2090 C 0.22313 0.29160 1.06146
 C2091 C 0.22874 0.28599 1.05155
 C2092 C 0.22178 0.27916 1.04339
 C2093 C 0.20915 0.27802 1.04512
 C2094 C 0.20351 0.28362 1.05503
 C2095 C 0.22768 0.27308 1.03344
 C2096 C 0.23281 0.26788 1.02527
 H2097 H 0.17865 0.31152 1.08223
 H2098 H 0.18840 0.30231 1.06444
 H2099 H 0.21913 0.29135 1.08649
 H2100 H 0.20940 0.30080 1.10413
 H2101 H 0.22870 0.29691 1.06761
 H2102 H 0.23853 0.28694 1.05029
 H2103 H 0.20367 0.27269 1.03889
 H2104 H 0.19376 0.28243 1.05632
 C2105 C 0.18269 0.81750 0.61330
 C2106 C 0.18741 0.81293 0.60455
 C2107 C 0.19312 0.80744 0.59416
 C2108 C 0.18603 0.80115 0.58567
 C2109 C 0.19161 0.79565 0.57567
 C2110 C 0.20436 0.79636 0.57405
 C2111 C 0.21139 0.80277 0.58261
 C2112 C 0.20579 0.80827 0.59259
 C2113 C 0.21033 0.79032 0.56357
 C2114 C 0.22149 0.78405 0.56503
 C2115 C 0.22708 0.77830 0.55520
 C2116 C 0.22163 0.77872 0.54378
 C2117 C 0.21053 0.78494 0.54222
 C2118 C 0.20491 0.79070 0.55205
 C2119 C 0.22745 0.77273 0.53372
 C2120 C 0.23251 0.76759 0.52548
 H2121 H 0.17622 0.80042 0.58682
 H2122 H 0.18597 0.79065 0.56933
 H2123 H 0.22120 0.80362 0.58154
 H2124 H 0.21136 0.81315 0.59909
 H2125 H 0.22580 0.78344 0.57380
 H2126 H 0.23564 0.77347 0.55651
 H2127 H 0.20624 0.78534 0.53342
 H2128 H 0.19640 0.79557 0.55062
 C2129 C 0.31784 0.68315 0.61319
 C2130 C 0.31329 0.68788 0.60444
 C2131 C 0.30782 0.69361 0.59406
 C2132 C 0.30877 0.70629 0.59244
 C2133 C 0.30330 0.71191 0.58247
 C2134 C 0.29679 0.70491 0.57396
 C2135 C 0.29596 0.69216 0.57563
 C2136 C 0.30143 0.68655 0.58562
 C2137 C 0.29077 0.71091 0.56349
 C2138 C 0.29100 0.70542 0.55199
 C2139 C 0.28521 0.71105 0.54218
 C2140 C 0.27912 0.72222 0.54373
 C2141 C 0.27887 0.72776 0.55512
 C2142 C 0.28465 0.72216 0.56493
 C2143 C 0.27303 0.72799 0.53371
 C2144 C 0.26780 0.73299 0.52549
 H2145 H 0.31371 0.71183 0.59891
 H2146 H 0.30425 0.72172 0.58136
 H2147 H 0.29088 0.68654 0.56933
 H2148 H 0.30061 0.67674 0.58680
 H2149 H 0.29576 0.69684 0.55056
 H2150 H 0.28548 0.70668 0.53340
 H2151 H 0.27414 0.73639 0.55643
 H2152 H 0.28415 0.72653 0.57369
 C2153 C 0.31797 0.18281 1.11295
 C2154 C 0.31338 0.18756 1.10422
 C2155 C 0.30787 0.19330 1.09388
 C2156 C 0.30153 0.18625 1.08540
 C2157 C 0.29602 0.19186 1.07544
 C2158 C 0.29676 0.20463 1.07384
 C2159 C 0.30322 0.21163 1.08239
 C2160 C 0.30872 0.20599 1.09233
 C2161 C 0.29072 0.21065 1.06340
 C2162 C 0.28449 0.22183 1.06490
 C2163 C 0.27870 0.22746 1.05511
 C2164 C 0.27907 0.22202 1.04368
 C2165 C 0.28527 0.21091 1.04207
 C2166 C 0.29106 0.20525 1.05186
 C2167 C 0.27303 0.22785 1.03367
 C2168 C 0.26786 0.23291 1.02545
 H2169 H 0.30077 0.17642 1.08653
 H2170 H 0.29099 0.18625 1.06910
 H2171 H 0.30410 0.22145 1.08133
 H2172 H 0.31364 0.21154 1.09883
 H2173 H 0.28392 0.22613 1.07369
 H2174 H 0.27390 0.23604 1.05647
 H2175 H 0.28564 0.20663 1.03325
 H2176 H 0.29591 0.19673 1.05039
 C2177 C 0.81787 0.68322 1.11320
 C2178 C 0.81330 0.68798 1.10447
 C2179 C 0.80780 0.69372 1.09411
 C2180 C 0.80150 0.68666 1.08561
 C2181 C 0.79600 0.69227 1.07563
 C2182 C 0.79672 0.70504 1.07404
 C2183 C 0.80313 0.71205 1.08261
 C2184 C 0.80863 0.70642 1.09257
 C2185 C 0.79068 0.71106 1.06358
 C2186 C 0.78447 0.72225 1.06506
 C2187 C 0.77870 0.72787 1.05526
 C2188 C 0.77905 0.72240 1.04384
 C2189 C 0.78523 0.71128 1.04225
 C2190 C 0.79101 0.70564 1.05206
 C2191 C 0.77299 0.72821 1.03382
 C2192 C 0.76781 0.73324 1.02558
 H2193 H 0.80076 0.67683 1.08673
 H2194 H 0.79100 0.68665 1.06928
 H2195 H 0.80399 0.72187 1.08156
 H2196 H 0.81350 0.71197 1.09909
 H2197 H 0.78390 0.72657 1.07385
 H2198 H 0.77391 0.73646 1.05660
 H2199 H 0.78558 0.70698 1.03345
 H2200 H 0.79585 0.69710 1.05059
 C2201 C 0.81795 0.18303 0.61308
 C2202 C 0.81338 0.18779 0.60435
 C2203 C 0.80788 0.19354 0.59399
 C2204 C 0.80875 0.20623 0.59244
 C2205 C 0.80325 0.21186 0.58249
 C2206 C 0.79680 0.20487 0.57394
 C2207 C 0.79603 0.19210 0.57555
 C2208 C 0.80153 0.18648 0.58551
 C2209 C 0.79076 0.21089 0.56349
 C2210 C 0.79109 0.20547 0.55196
 C2211 C 0.78532 0.21113 0.54216
 C2212 C 0.77916 0.22226 0.54375
 C2213 C 0.77880 0.22772 0.55517
 C2214 C 0.78456 0.22208 0.56498
 C2215 C 0.77312 0.22808 0.53373
 C2216 C 0.76794 0.23312 0.52549
 H2217 H 0.81366 0.21177 0.59894
 H2218 H 0.80414 0.22168 0.58143
 H2219 H 0.79100 0.18649 0.56921
 H2220 H 0.80077 0.17665 0.58665
 H2221 H 0.79591 0.19693 0.55050
 H2222 H 0.78568 0.20684 0.53335
 H2223 H 0.77401 0.23631 0.55652
 H2224 H 0.78399 0.22639 0.57376
 C2225 C 0.68294 0.68295 0.38681
 C2226 C 0.68747 0.68751 0.39564
 C2227 C 0.69293 0.69301 0.40614
 C2228 C 0.70525 0.69085 0.40881
 C2229 C 0.71062 0.69630 0.41891
 C2230 C 0.70372 0.70402 0.42649
 C2231 C 0.69132 0.70610 0.42375
 C2232 C 0.68597 0.70062 0.41364
 C2233 C 0.70949 0.71000 0.43709
 C2234 C 0.70681 0.72228 0.43992
 C2235 C 0.71248 0.72800 0.44971
 C2236 C 0.72088 0.72154 0.45682
 C2237 C 0.72353 0.70930 0.45415
 C2238 C 0.71788 0.70355 0.44435
 C2239 C 0.72700 0.72758 0.46666
 C2240 C 0.73222 0.73275 0.47476
 H2241 H 0.71074 0.68501 0.40303
 H2242 H 0.72023 0.69467 0.42067
 H2243 H 0.68573 0.71188 0.42948
 H2244 H 0.67642 0.70235 0.41167
 H2245 H 0.70054 0.72753 0.43440
 H2246 H 0.71041 0.73751 0.45166
 H2247 H 0.73001 0.70421 0.45959
 H2248 H 0.72002 0.69405 0.44250
 C2249 C 0.68304 0.18283 -0.11358
 C2250 C 0.68757 0.18739 -0.10475
 C2251 C 0.69302 0.19285 -0.09423
 C2252 C 0.70529 0.19052 -0.09145
 C2253 C 0.71065 0.19592 -0.08130
 C2254 C 0.70378 0.20375 -0.07380
 C2255 C 0.69144 0.20599 -0.07665
 C2256 C 0.68610 0.20057 -0.08680
 C2257 C 0.70954 0.20969 -0.06317
 C2258 C 0.70702 0.22202 -0.06042
 C2259 C 0.71269 0.22771 -0.05060
 C2260 C 0.72094 0.22116 -0.04341
 C2261 C 0.72343 0.20887 -0.04600
 C2262 C 0.71777 0.20316 -0.05581
 C2263 C 0.72710 0.22718 -0.03358
 C2264 C 0.73237 0.23233 -0.02550
 H2265 H 0.71075 0.18459 -0.09716
 H2266 H 0.72021 0.19415 -0.07945
 H2267 H 0.68588 0.21185 -0.07098
 H2268 H 0.67659 0.20242 -0.08886
 H2269 H 0.70086 0.22734 -0.06600
 H2270 H 0.71074 0.23725 -0.04872
 H2271 H 0.72980 0.20371 -0.04048
 H2272 H 0.71979 0.19361 -0.05761
 C2273 C 0.18339 0.68318 -0.11365
 C2274 C 0.18795 0.68772 -0.10481
 C2275 C 0.19342 0.69320 -0.09431
 C2276 C 0.18654 0.70104 -0.08695
 C2277 C 0.19189 0.70650 -0.07684
 C2278 C 0.20421 0.70418 -0.07394
 C2279 C 0.21103 0.69624 -0.08137
 C2280 C 0.20566 0.69080 -0.09148
 C2281 C 0.20998 0.71013 -0.06332
 C2282 C 0.21814 0.70356 -0.05590
 C2283 C 0.22378 0.70926 -0.04607
 C2284 C 0.22135 0.72158 -0.04352
 C2285 C 0.21318 0.72816 -0.05077
 C2286 C 0.20752 0.72248 -0.06060
 C2287 C 0.22748 0.72756 -0.03366
 C2288 C 0.23274 0.73268 -0.02555
 H2289 H 0.17704 0.70294 -0.08905
 H2290 H 0.18636 0.71244 -0.07122
 H2291 H 0.22058 0.69441 -0.07948
 H2292 H 0.21108 0.68478 -0.09713
 H2293 H 0.22010 0.69401 -0.05766
 H2294 H 0.23009 0.70408 -0.04051
 H2295 H 0.21128 0.73772 -0.04891
 H2296 H 0.20142 0.72782 -0.06622
 C2297 C 0.18293 0.18338 0.38649
 C2298 C 0.18763 0.18810 0.39516
 C2299 C 0.19329 0.19375 0.40547
 C2300 C 0.19968 0.20477 0.40412
 C2301 C 0.20528 0.21022 0.41410
 C2302 C 0.20457 0.20472 0.42558
 C2303 C 0.19809 0.19367 0.42685
 C2304 C 0.19250 0.18822 0.41685
 C2305 C 0.21065 0.21047 0.43614
 C2306 C 0.20485 0.21073 0.44749
 C2307 C 0.21056 0.21625 0.45739
 C2308 C 0.22214 0.22155 0.45607
 C2309 C 0.22800 0.22129 0.44483
 C2310 C 0.22230 0.21579 0.43493
 C2311 C 0.22801 0.22738 0.46617
 C2312 C 0.23308 0.23239 0.47448
 H2313 H 0.20033 0.20914 0.39536
 H2314 H 0.21005 0.21882 0.41286
 H2315 H 0.19750 0.18913 0.43553
 H2316 H 0.18761 0.17966 0.41798
 H2317 H 0.19582 0.20684 0.44867
 H2318 H 0.20593 0.21645 0.46603
 H2319 H 0.23697 0.22534 0.44371
 H2320 H 0.22708 0.21558 0.42637
 C2321 C 0.31730 0.38603 0.68186
 C2322 C 0.31256 0.39474 0.68666
 C2323 C 0.30684 0.40507 0.69243
 C2324 C 0.30831 0.41686 0.68767
 C2325 C 0.30265 0.42688 0.69324
 C2326 C 0.29544 0.42522 0.70364
 C2327 C 0.29406 0.41333 0.70837
 C2328 C 0.29973 0.40333 0.70280
 C2329 C 0.28931 0.43581 0.70951
 C2330 C 0.27730 0.43470 0.71396
 C2331 C 0.27155 0.44462 0.71957
 C2332 C 0.27770 0.45578 0.72081
 C2333 C 0.28963 0.45700 0.71637
 C2334 C 0.29541 0.44709 0.71074
 C2335 C 0.27179 0.46589 0.72678
 C2336 C 0.26669 0.47420 0.73190
 H2337 H 0.31377 0.41830 0.67962
 H2338 H 0.30376 0.43589 0.68929
 H2339 H 0.28870 0.41177 0.71646
 H2340 H 0.29856 0.39425 0.70658
 H2341 H 0.27230 0.42620 0.71298
 H2342 H 0.26230 0.44358 0.72294
 H2343 H 0.29450 0.46559 0.71733
 H2344 H 0.30470 0.44818 0.70754
 C2345 C 0.31737 0.88623 0.18169
 C2346 C 0.31263 0.89493 0.18649
 C2347 C 0.30691 0.90526 0.19227
 C2348 C 0.30850 0.91707 0.18761
 C2349 C 0.30285 0.92709 0.19318
 C2350 C 0.29552 0.92541 0.20351
 C2351 C 0.29401 0.91350 0.20814
 C2352 C 0.29967 0.90350 0.20256
 C2353 C 0.28946 0.93602 0.20941
 C2354 C 0.27741 0.93499 0.21379
 C2355 C 0.27174 0.94492 0.21947
 C2356 C 0.27799 0.95600 0.22084
 C2357 C 0.28995 0.95715 0.21646
 C2358 C 0.29565 0.94723 0.21077
 C2359 C 0.27217 0.96609 0.22694
 C2360 C 0.26716 0.97436 0.23219
 H2361 H 0.31406 0.91853 0.17963
 H2362 H 0.30407 0.93612 0.18931
 H2363 H 0.28855 0.91192 0.21616
 H2364 H 0.29840 0.89440 0.20626
 H2365 H 0.27234 0.92655 0.21274
 H2366 H 0.26247 0.94394 0.22281
 H2367 H 0.29490 0.96568 0.21752
 H2368 H 0.30498 0.94826 0.20762
 C2369 C 0.81672 0.38568 0.18155
 C2370 C 0.81197 0.39441 0.18629
 C2371 C 0.80624 0.40478 0.19199
 C2372 C 0.79894 0.40307 0.20225
 C2373 C 0.79328 0.41310 0.20776
 C2374 C 0.79485 0.42499 0.20309
 C2375 C 0.80222 0.42661 0.19279
 C2376 C 0.80787 0.41656 0.18728
 C2377 C 0.78879 0.43564 0.20894
 C2378 C 0.79502 0.44683 0.21029
 C2379 C 0.78933 0.45678 0.21595
 C2380 C 0.77736 0.45567 0.22031
 C2381 C 0.77107 0.44460 0.21893
 C2382 C 0.77674 0.43465 0.21329
 C2383 C 0.77155 0.46579 0.22637
 C2384 C 0.76655 0.47409 0.23160
 H2385 H 0.79763 0.39399 0.20598
 H2386 H 0.78779 0.41157 0.21576
 H2387 H 0.80346 0.43562 0.18888
 H2388 H 0.81346 0.41798 0.17932
 H2389 H 0.80435 0.44784 0.20717
 H2390 H 0.79429 0.46529 0.21700
 H2391 H 0.76179 0.44366 0.22225
 H2392 H 0.77164 0.42622 0.21224
 C2393 C 0.81724 0.88628 0.68200
 C2394 C 0.81267 0.89507 0.68680
 C2395 C 0.80718 0.90552 0.69259
 C2396 C 0.79974 0.91352 0.68599
 C2397 C 0.79426 0.92357 0.69167
 C2398 C 0.79615 0.92573 0.70405
 C2399 C 0.80371 0.91767 0.71059
 C2400 C 0.80919 0.90764 0.70489
 C2401 C 0.79013 0.93625 0.71016
 C2402 C 0.78510 0.93486 0.72178
 C2403 C 0.77933 0.94471 0.72750
 C2404 C 0.77850 0.95607 0.72170
 C2405 C 0.78349 0.95756 0.71014
 C2406 C 0.78926 0.94771 0.70440
 C2407 C 0.77245 0.96614 0.72760
 C2408 C 0.76729 0.97441 0.73271
 H2409 H 0.79810 0.91195 0.67646
 H2410 H 0.78837 0.92951 0.68642
 H2411 H 0.80548 0.91919 0.72009
 H2412 H 0.81497 0.90153 0.71008
 H2413 H 0.78545 0.92611 0.72638
 H2414 H 0.77546 0.94344 0.73642
 H2415 H 0.78291 0.96632 0.70558
 H2416 H 0.79316 0.94910 0.69551
 C2417 C 0.68337 0.61473 0.68288
 C2418 C 0.68787 0.60578 0.68745
 C2419 C 0.69331 0.59513 0.69293
 C2420 C 0.68612 0.58704 0.69970
 C2421 C 0.69145 0.57677 0.70513
 C2422 C 0.70406 0.57447 0.70386
 C2423 C 0.71119 0.58263 0.69698
 C2424 C 0.70584 0.59288 0.69156
 C2425 C 0.70979 0.56370 0.70982
 C2426 C 0.71889 0.55687 0.70386
 C2427 C 0.72452 0.54694 0.70960
 C2428 C 0.72113 0.54371 0.72136
 C2429 C 0.71201 0.55037 0.72733
 C2430 C 0.70636 0.56030 0.72161
 C2431 C 0.72722 0.53377 0.72743
 C2432 C 0.73243 0.52557 0.73261
 H2433 H 0.67641 0.58867 0.70078
 H2434 H 0.68569 0.57058 0.71023
 H2435 H 0.72094 0.58120 0.69597
 H2436 H 0.71150 0.59910 0.68637
 H2437 H 0.72161 0.55915 0.69472
 H2438 H 0.73156 0.54184 0.70489
 H2439 H 0.70935 0.54798 0.73646
 H2440 H 0.69950 0.56546 0.72650
 C2441 C 0.68309 0.11406 0.18227
 C2442 C 0.68779 0.10528 0.18699
 C2443 C 0.69347 0.09485 0.19263
 C2444 C 0.70440 0.09629 0.19903
 C2445 C 0.70998 0.08618 0.20450
 C2446 C 0.70468 0.07447 0.20363
 C2447 C 0.69367 0.07311 0.19718
 C2448 C 0.68812 0.08324 0.19171
 C2449 C 0.71060 0.06374 0.20946
 C2450 C 0.70355 0.05488 0.21553
 C2451 C 0.70918 0.04492 0.22123
 C2452 C 0.72192 0.04368 0.22090
 C2453 C 0.72901 0.05238 0.21481
 C2454 C 0.72340 0.06234 0.20912
 C2455 C 0.72779 0.03364 0.22704
 C2456 C 0.73285 0.02538 0.23227
 H2457 H 0.70861 0.10524 0.19983
 H2458 H 0.71835 0.08755 0.20953
 H2459 H 0.68945 0.06420 0.19623
 H2460 H 0.67968 0.08202 0.18674
 H2461 H 0.69370 0.05578 0.21608
 H2462 H 0.70362 0.03827 0.22597
 H2463 H 0.73888 0.05149 0.21449
 H2464 H 0.72906 0.06891 0.20438
 C2465 C 0.18361 0.61487 0.18243
 C2466 C 0.18821 0.60596 0.18700
 C2467 C 0.19378 0.59538 0.19247
 C2468 C 0.18665 0.58518 0.19547
 C2469 C 0.19206 0.57493 0.20088
 C2470 C 0.20469 0.57477 0.20333
 C2471 C 0.21178 0.58506 0.20023
 C2472 C 0.20635 0.59529 0.19484
 C2473 C 0.21046 0.56397 0.20919
 C2474 C 0.22204 0.55981 0.20542
 C2475 C 0.22760 0.54983 0.21113
 C2476 C 0.22168 0.54388 0.22067
 C2477 C 0.21011 0.54786 0.22442
 C2478 C 0.20452 0.55784 0.21872
 C2479 C 0.22762 0.53390 0.22682
 C2480 C 0.23274 0.52568 0.23206
 H2481 H 0.17692 0.58513 0.19363
 H2482 H 0.18640 0.56709 0.20301
 H2483 H 0.22149 0.58528 0.20214
 H2484 H 0.21195 0.60314 0.19257
 H2485 H 0.22676 0.56423 0.19801
 H2486 H 0.23655 0.54681 0.20814
 H2487 H 0.20547 0.54335 0.23184
 H2488 H 0.19568 0.56091 0.22193
 C2489 C 0.18306 0.11392 0.68257
 C2490 C 0.18769 0.10509 0.68725
 C2491 C 0.19328 0.09457 0.69282
 C2492 C 0.18615 0.08445 0.69608
 C2493 C 0.19158 0.07426 0.70155
 C2494 C 0.20425 0.07407 0.70383
 C2495 C 0.21133 0.08428 0.70049
 C2496 C 0.20588 0.09445 0.69503
 C2497 C 0.21004 0.06332 0.70977
 C2498 C 0.22155 0.05904 0.70591
 C2499 C 0.22712 0.04911 0.71168
 C2500 C 0.22128 0.04330 0.72136
 C2501 C 0.20978 0.04740 0.72520
 C2502 C 0.20418 0.05734 0.71944
 C2503 C 0.22723 0.03336 0.72756
 C2504 C 0.23235 0.02517 0.73285
 H2505 H 0.17639 0.08443 0.69437
 H2506 H 0.18591 0.06648 0.70386
 H2507 H 0.22107 0.08448 0.70227
 H2508 H 0.21148 0.10225 0.69257
 H2509 H 0.22621 0.06334 0.69839
 H2510 H 0.23602 0.04600 0.70863
 H2511 H 0.20520 0.04301 0.73272
 H2512 H 0.19540 0.06051 0.72272
 C2513 C 0.31646 0.61386 0.31815
 C2514 C 0.31176 0.60506 0.31351
 C2515 C 0.30608 0.59461 0.30793
 C2516 C 0.31317 0.58614 0.30152
 C2517 C 0.30762 0.57609 0.29595
 C2518 C 0.29488 0.57440 0.29670
 C2519 C 0.28784 0.58294 0.30323
 C2520 C 0.29341 0.59297 0.30880
 C2521 C 0.28893 0.56387 0.29059
 C2522 C 0.27773 0.56544 0.28452
 C2523 C 0.27217 0.55557 0.27868
 C2524 C 0.27769 0.54400 0.27882
 C2525 C 0.28882 0.54233 0.28485
 C2526 C 0.29441 0.55220 0.29070
 C2527 C 0.27195 0.53392 0.27267
 C2528 C 0.26699 0.52564 0.26741
 H2529 H 0.32298 0.58735 0.30076
 H2530 H 0.31326 0.56977 0.29087
 H2531 H 0.27804 0.58180 0.30412
 H2532 H 0.28784 0.59946 0.31376
 H2533 H 0.27337 0.57434 0.28413
 H2534 H 0.26358 0.55697 0.27400
 H2535 H 0.29316 0.53341 0.28503
 H2536 H 0.30295 0.55067 0.29541
 C2537 C 0.31691 0.11363 0.81815
 C2538 C 0.31216 0.10491 0.81341
 C2539 C 0.30644 0.09454 0.80774
 C2540 C 0.31217 0.08307 0.80791
 C2541 C 0.30659 0.07300 0.80239
 C2542 C 0.29519 0.07429 0.79662
 C2543 C 0.28952 0.08587 0.79650
 C2544 C 0.29511 0.09592 0.80202
 C2545 C 0.28925 0.06363 0.79073
 C2546 C 0.27654 0.06184 0.79173
 C2547 C 0.27092 0.05191 0.78605
 C2548 C 0.27790 0.04364 0.77929
 C2549 C 0.29056 0.04528 0.77829
 C2550 C 0.29621 0.05521 0.78398
 C2551 C 0.27202 0.03363 0.77317
 C2552 C 0.26694 0.02538 0.76796
 H2553 H 0.32092 0.08189 0.81235
 H2554 H 0.31111 0.06418 0.80278
 H2555 H 0.28082 0.08720 0.79201
 H2556 H 0.29062 0.10476 0.80180
 H2557 H 0.27096 0.06807 0.79699
 H2558 H 0.26112 0.05071 0.78689
 H2559 H 0.29604 0.03896 0.77303
 H2560 H 0.30598 0.05642 0.78291
 C2561 C 0.81615 0.61433 0.81764
 C2562 C 0.81150 0.60548 0.81305
 C2563 C 0.80588 0.59495 0.80757
 C2564 C 0.81266 0.58422 0.80576
 C2565 C 0.80722 0.57402 0.80037
 C2566 C 0.79490 0.57441 0.79672
 C2567 C 0.78815 0.58522 0.79862
 C2568 C 0.79361 0.59542 0.80401
 C2569 C 0.78912 0.56364 0.79086
 C2570 C 0.77702 0.56030 0.79370
 C2571 C 0.77150 0.55033 0.78798
 C2572 C 0.77798 0.54356 0.77936
 C2573 C 0.79005 0.54672 0.77656
 C2574 C 0.79560 0.55669 0.78227
 C2575 C 0.77209 0.53360 0.77315
 C2576 C 0.76703 0.52542 0.76783
 H2577 H 0.82215 0.58375 0.80853
 H2578 H 0.81260 0.56578 0.79918
 H2579 H 0.77869 0.58587 0.79578
 H2580 H 0.78829 0.60368 0.80534
 H2581 H 0.77185 0.56537 0.80038
 H2582 H 0.76215 0.54795 0.79023
 H2583 H 0.79513 0.54157 0.76986
 H2584 H 0.80487 0.55911 0.77978
 C2585 C 0.81686 0.11359 0.31825
 C2586 C 0.81217 0.10480 0.31359
 C2587 C 0.80649 0.09437 0.30799
 C2588 C 0.79392 0.09237 0.30938
 C2589 C 0.78834 0.08236 0.30378
 C2590 C 0.79528 0.07421 0.29669
 C2591 C 0.80792 0.07625 0.29542
 C2592 C 0.81348 0.08627 0.30102
 C2593 C 0.78931 0.06370 0.29056
 C2594 C 0.79509 0.05218 0.29007
 C2595 C 0.78948 0.04233 0.28421
 C2596 C 0.77804 0.04386 0.27876
 C2597 C 0.77222 0.05528 0.27920
 C2598 C 0.77780 0.06513 0.28505
 C2599 C 0.77225 0.03379 0.27265
 C2600 C 0.76725 0.02550 0.26744
 H2601 H 0.78843 0.09856 0.31478
 H2602 H 0.77863 0.08094 0.30507
 H2603 H 0.81348 0.07022 0.28991
 H2604 H 0.82321 0.08775 0.29986
 H2605 H 0.80389 0.05076 0.29434
 H2606 H 0.79406 0.03353 0.28395
 H2607 H 0.76338 0.05658 0.27496
 H2608 H 0.77319 0.07392 0.28511
 C2609 C 0.68220 0.38590 0.31722
 C2610 C 0.68669 0.39474 0.31243
 C2611 C 0.69212 0.40523 0.30666
 C2612 C 0.69890 0.41363 0.31343
 C2613 C 0.70438 0.42369 0.30777
 C2614 C 0.70314 0.42546 0.29524
 C2615 C 0.69623 0.41699 0.28853
 C2616 C 0.69076 0.40695 0.29421
 C2617 C 0.70918 0.43597 0.28916
 C2618 C 0.71491 0.43441 0.27788
 C2619 C 0.72070 0.44426 0.27219
 C2620 C 0.72085 0.45580 0.27768
 C2621 C 0.71515 0.45747 0.28888
 C2622 C 0.70936 0.44762 0.29460
 C2623 C 0.72692 0.46586 0.27180
 C2624 C 0.73212 0.47413 0.26673
 H2625 H 0.70004 0.41236 0.32307
 H2626 H 0.70977 0.42995 0.31316
 H2627 H 0.69499 0.41818 0.27890
 H2628 H 0.68550 0.40052 0.28889
 H2629 H 0.71508 0.42553 0.27354
 H2630 H 0.72512 0.44285 0.26354
 H2631 H 0.71519 0.46637 0.29320
 H2632 H 0.70491 0.44915 0.30321
 C2633 C 0.68208 0.88626 0.81770
 C2634 C 0.68675 0.89497 0.81286
 C2635 C 0.69241 0.90533 0.80707
 C2636 C 0.69640 0.90443 0.79509
 C2637 C 0.70206 0.91441 0.78949
 C2638 C 0.70380 0.92545 0.79581
 C2639 C 0.69971 0.92628 0.80783
 C2640 C 0.69406 0.91628 0.81342
 C2641 C 0.70996 0.93600 0.78991
 C2642 C 0.70567 0.94803 0.79169
 C2643 C 0.71146 0.95793 0.78607
 C2644 C 0.72162 0.95594 0.77862
 C2645 C 0.72598 0.94403 0.77683
 C2646 C 0.72020 0.93412 0.78242
 C2647 C 0.72756 0.96608 0.77272
 C2648 C 0.73266 0.97439 0.76762
 H2649 H 0.69515 0.89600 0.79008
 H2650 H 0.70496 0.91353 0.78018
 H2651 H 0.70107 0.93460 0.81298
 H2652 H 0.69105 0.91707 0.82271
 H2653 H 0.69772 0.94976 0.79729
 H2654 H 0.70799 0.96712 0.78749
 H2655 H 0.73386 0.94239 0.77110
 H2656 H 0.72383 0.92500 0.78101
 C2657 C 0.18216 0.38609 0.81739
 C2658 C 0.18668 0.39490 0.81257
 C2659 C 0.19213 0.40535 0.80676
 C2660 C 0.19882 0.41384 0.81354
 C2661 C 0.20429 0.42388 0.80786
 C2662 C 0.20316 0.42556 0.79531
 C2663 C 0.19636 0.41701 0.78859
 C2664 C 0.19089 0.40698 0.79429
 C2665 C 0.20918 0.43608 0.78921
 C2666 C 0.21501 0.43448 0.77799
 C2667 C 0.22075 0.44434 0.77227
 C2668 C 0.22074 0.45593 0.77766
 C2669 C 0.21496 0.45763 0.78882
 C2670 C 0.20922 0.44777 0.79457
 C2671 C 0.22676 0.46601 0.77175
 C2672 C 0.23190 0.47429 0.76665
 H2673 H 0.19987 0.41265 0.82319
 H2674 H 0.20960 0.43021 0.81325
 H2675 H 0.19519 0.41813 0.77895
 H2676 H 0.18571 0.40048 0.78896
 H2677 H 0.21530 0.42557 0.77371
 H2678 H 0.22524 0.44292 0.76365
 H2679 H 0.21488 0.46656 0.79307
 H2680 H 0.20468 0.44931 0.80313
 C2681 C 0.18234 0.88609 0.31783
 C2682 C 0.18707 0.89478 0.31300
 C2683 C 0.19282 0.90510 0.30722
 C2684 C 0.19134 0.91689 0.31195
 C2685 C 0.19704 0.92689 0.30640
 C2686 C 0.20430 0.92521 0.29603
 C2687 C 0.20570 0.91331 0.29133
 C2688 C 0.19999 0.90334 0.29689
 C2689 C 0.21043 0.93579 0.29016
 C2690 C 0.22246 0.93467 0.28574
 C2691 C 0.22819 0.94458 0.28009
 C2692 C 0.22201 0.95573 0.27878
 C2693 C 0.21007 0.95696 0.28319
 C2694 C 0.20431 0.94706 0.28886
 C2695 C 0.22790 0.96581 0.27275
 C2696 C 0.23296 0.97410 0.26758
 H2697 H 0.18584 0.91836 0.31997
 H2698 H 0.19592 0.93591 0.31032
 H2699 H 0.21110 0.91174 0.28328
 H2700 H 0.20117 0.89425 0.29314
 H2701 H 0.22747 0.92617 0.28675
 H2702 H 0.23745 0.94353 0.27673
 H2703 H 0.20519 0.96554 0.28219
 H2704 H 0.19501 0.94816 0.29204
 C2705 C 0.38643 0.31721 0.68207
 C2706 C 0.39513 0.31252 0.68691
 C2707 C 0.40544 0.30684 0.69273
 C2708 C 0.40415 0.29533 0.69816
 C2709 C 0.41412 0.28981 0.70389
 C2710 C 0.42554 0.29573 0.70426
 C2711 C 0.42676 0.30729 0.69875
 C2712 C 0.41677 0.31280 0.69303
 C2713 C 0.43612 0.28987 0.71039
 C2714 C 0.44790 0.29041 0.70527
 C2715 C 0.45781 0.28475 0.71099
 C2716 C 0.45608 0.27851 0.72190
 C2717 C 0.44441 0.27798 0.72709
 C2718 C 0.43450 0.28362 0.72139
 C2719 C 0.46619 0.27250 0.72776
 C2720 C 0.47448 0.26733 0.73281
 H2721 H 0.39543 0.29062 0.69795
 H2722 H 0.41293 0.28084 0.70790
 H2723 H 0.43539 0.31213 0.69901
 H2724 H 0.41786 0.32173 0.68889
 H2725 H 0.44941 0.29502 0.69674
 H2726 H 0.46680 0.28518 0.70688
 H2727 H 0.44298 0.27320 0.73556
 H2728 H 0.42559 0.28319 0.72564
 C2729 C 0.38621 0.81705 0.18199
 C2730 C 0.39488 0.81229 0.18681
 C2731 C 0.40517 0.80652 0.19260
 C2732 C 0.41649 0.81247 0.19304
 C2733 C 0.42646 0.80687 0.19872
 C2734 C 0.42522 0.79523 0.20404
 C2735 C 0.41380 0.78931 0.20352
 C2736 C 0.40385 0.79492 0.19783
 C2737 C 0.43576 0.78929 0.21015
 C2738 C 0.43408 0.78289 0.22106
 C2739 C 0.44399 0.77724 0.22678
 C2740 C 0.45569 0.77791 0.22170
 C2741 C 0.45747 0.78427 0.21087
 C2742 C 0.44758 0.78994 0.20513
 C2743 C 0.46582 0.77197 0.22760
 C2744 C 0.47413 0.76688 0.23270
 H2745 H 0.41760 0.82147 0.18904
 H2746 H 0.43509 0.81172 0.19910
 H2747 H 0.41260 0.78027 0.20738
 H2748 H 0.39514 0.79021 0.19749
 H2749 H 0.42514 0.78236 0.22524
 H2750 H 0.44252 0.77236 0.23518
 H2751 H 0.46649 0.78480 0.20683
 H2752 H 0.44913 0.79467 0.19667
 C2753 C 0.88601 0.31701 0.18208
 C2754 C 0.89475 0.31241 0.18694
 C2755 C 0.90514 0.30688 0.19278
 C2756 C 0.91697 0.30903 0.18842
 C2757 C 0.92705 0.30363 0.19409
 C2758 C 0.92542 0.29600 0.20422
 C2759 C 0.91349 0.29390 0.20852
 C2760 C 0.90343 0.29930 0.20283
 C2761 C 0.93610 0.29022 0.21026
 C2762 C 0.93662 0.28943 0.22293
 C2763 C 0.94654 0.28377 0.22861
 C2764 C 0.95609 0.27885 0.22172
 C2765 C 0.95571 0.27966 0.20912
 C2766 C 0.94580 0.28532 0.20341
 C2767 C 0.96612 0.27277 0.22763
 C2768 C 0.97437 0.26758 0.23274
 H2769 H 0.91840 0.31491 0.18066
 H2770 H 0.93613 0.30554 0.19065
 H2771 H 0.91192 0.28793 0.21618
 H2772 H 0.89431 0.29753 0.20626
 H2773 H 0.92939 0.29326 0.22845
 H2774 H 0.94674 0.28320 0.23838
 H2775 H 0.96303 0.27582 0.20370
 H2776 H 0.94560 0.28566 0.19364
 C2777 C 0.88570 0.81681 0.68204
 C2778 C 0.89439 0.81207 0.68684
 C2779 C 0.90471 0.80634 0.69260
 C2780 C 0.90344 0.79477 0.69789
 C2781 C 0.91342 0.78920 0.70356
 C2782 C 0.92483 0.79516 0.70403
 C2783 C 0.92602 0.80678 0.69864
 C2784 C 0.91602 0.81233 0.69298
 C2785 C 0.93540 0.78928 0.71015
 C2786 C 0.94720 0.78994 0.70510
 C2787 C 0.95712 0.78432 0.71085
 C2788 C 0.95537 0.77799 0.72171
 C2789 C 0.94368 0.77732 0.72681
 C2790 C 0.93375 0.78293 0.72108
 C2791 C 0.96552 0.77211 0.72762
 C2792 C 0.97385 0.76706 0.73272
 H2793 H 0.89474 0.79003 0.69761
 H2794 H 0.91226 0.78018 0.70746
 H2795 H 0.93464 0.81165 0.69897
 H2796 H 0.91709 0.82131 0.68893
 H2797 H 0.94873 0.79464 0.69662
 H2798 H 0.96613 0.78486 0.70679
 H2799 H 0.94223 0.77247 0.73523
 H2800 H 0.92482 0.78240 0.72528
 C2801 C 0.61365 0.31655 0.31840
 C2802 C 0.60480 0.31190 0.31384
 C2803 C 0.59428 0.30629 0.30834
 C2804 C 0.59003 0.29497 0.31255
 C2805 C 0.57995 0.28940 0.30707
 C2806 C 0.57398 0.29509 0.29730
 C2807 C 0.57828 0.30650 0.29320
 C2808 C 0.58837 0.31205 0.29868
 C2809 C 0.56343 0.28906 0.29131
 C2810 C 0.55324 0.29596 0.28754
 C2811 C 0.54342 0.29028 0.28172
 C2812 C 0.54364 0.27765 0.27960
 C2813 C 0.55371 0.27070 0.28337
 C2814 C 0.56353 0.27635 0.28918
 C2815 C 0.53367 0.27182 0.27338
 C2816 C 0.52547 0.26680 0.26807
 H2817 H 0.59452 0.29044 0.32004
 H2818 H 0.57676 0.28070 0.31055
 H2819 H 0.57399 0.31104 0.28560
 H2820 H 0.59160 0.32080 0.29533
 H2821 H 0.55283 0.30573 0.28917
 H2822 H 0.53567 0.29575 0.27886
 H2823 H 0.55400 0.26092 0.28172
 H2824 H 0.57131 0.27081 0.29182
 C2825 C 0.61330 0.81717 0.81853
 C2826 C 0.60453 0.81247 0.81386
 C2827 C 0.59409 0.80681 0.80826
 C2828 C 0.59039 0.79509 0.81185
 C2829 C 0.58037 0.78950 0.80631
 C2830 C 0.57390 0.79556 0.79708
 C2831 C 0.57766 0.80738 0.79359
 C2832 C 0.58769 0.81295 0.79914
 C2833 C 0.56339 0.78953 0.79103
 C2834 C 0.55283 0.79626 0.78803
 C2835 C 0.54300 0.79057 0.78222
 C2836 C 0.54361 0.77811 0.77932
 C2837 C 0.55406 0.77134 0.78229
 C2838 C 0.56389 0.77700 0.78811
 C2839 C 0.53361 0.77226 0.77316
 C2840 C 0.52538 0.76722 0.76792
 H2841 H 0.59526 0.79027 0.81893
 H2842 H 0.57760 0.78047 0.80931
 H2843 H 0.57297 0.81222 0.78641
 H2844 H 0.59050 0.82201 0.79627
 H2845 H 0.55211 0.80588 0.79029
 H2846 H 0.53495 0.79589 0.77997
 H2847 H 0.55465 0.76170 0.78004
 H2848 H 0.57195 0.77162 0.79013
 C2849 C 0.11379 0.31659 0.81842
 C2850 C 0.10501 0.31186 0.81379
 C2851 C 0.09458 0.30615 0.80822
 C2852 C 0.09304 0.29346 0.80898
 C2853 C 0.08303 0.28786 0.80342
 C2854 C 0.07441 0.29490 0.79701
 C2855 C 0.07600 0.30768 0.79638
 C2856 C 0.08603 0.31326 0.80194
 C2857 C 0.06390 0.28893 0.79091
 C2858 C 0.05220 0.29432 0.79114
 C2859 C 0.04235 0.28871 0.78531
 C2860 C 0.04406 0.27764 0.77917
 C2861 C 0.05566 0.27219 0.77889
 C2862 C 0.06551 0.27779 0.78472
 C2863 C 0.03399 0.27186 0.77307
 C2864 C 0.02569 0.26689 0.76785
 H2865 H 0.09959 0.28788 0.81384
 H2866 H 0.08197 0.27803 0.80422
 H2867 H 0.06961 0.31333 0.79139
 H2868 H 0.08715 0.32309 0.80127
 H2869 H 0.05064 0.30282 0.79595
 H2870 H 0.03341 0.29299 0.78559
 H2871 H 0.05709 0.26365 0.77412
 H2872 H 0.07443 0.27349 0.78422
 C2873 C 0.11341 0.81716 0.31834
 C2874 C 0.10472 0.81241 0.31357
 C2875 C 0.09441 0.80667 0.30784
 C2876 C 0.08536 0.81382 0.30233
 C2877 C 0.07540 0.80821 0.29668
 C2878 C 0.07437 0.79537 0.29645
 C2879 C 0.08351 0.78827 0.30205
 C2880 C 0.09345 0.79389 0.30770
 C2881 C 0.06388 0.78938 0.29033
 C2882 C 0.06568 0.77878 0.28334
 C2883 C 0.05583 0.77314 0.27756
 C2884 C 0.04403 0.77801 0.27868
 C2885 C 0.04213 0.78856 0.28561
 C2886 C 0.05199 0.79422 0.29139
 C2887 C 0.03394 0.77216 0.27269
 C2888 C 0.02563 0.76711 0.26757
 H2889 H 0.08603 0.82372 0.30235
 H2890 H 0.06860 0.81392 0.29232
 H2891 H 0.08289 0.77837 0.30217
 H2892 H 0.10039 0.78827 0.31196
 H2893 H 0.07474 0.77493 0.28220
 H2894 H 0.05741 0.76500 0.27218
 H2895 H 0.03304 0.79240 0.28655
 H2896 H 0.05028 0.80229 0.29682
 C2897 C 0.61417 0.68358 0.68277
 C2898 C 0.60520 0.68807 0.68731
 C2899 C 0.59454 0.69348 0.69277
 C2900 C 0.58789 0.70246 0.68657
 C2901 C 0.57765 0.70788 0.69196
 C2902 C 0.57394 0.70438 0.70363
 C2903 C 0.58065 0.69529 0.70976
 C2904 C 0.59088 0.68989 0.70436
 C2905 C 0.56325 0.71034 0.70949
 C2906 C 0.55496 0.70344 0.71645
 C2907 C 0.54507 0.70913 0.72218
 C2908 C 0.54333 0.72178 0.72104
 C2909 C 0.55147 0.72871 0.71407
 C2910 C 0.56135 0.72304 0.70833
 C2911 C 0.53339 0.72771 0.72724
 C2912 C 0.52521 0.73282 0.73255
 H2913 H 0.59063 0.70529 0.67759
 H2914 H 0.57259 0.71474 0.68695
 H2915 H 0.57812 0.69252 0.71881
 H2916 H 0.59599 0.68298 0.70925
 H2917 H 0.55609 0.69363 0.71740
 H2918 H 0.53883 0.70367 0.72755
 H2919 H 0.55024 0.73852 0.71319
 H2920 H 0.56766 0.72863 0.70319
 C2921 C 0.61393 0.18298 0.18199
 C2922 C 0.60508 0.18762 0.18662
 C2923 C 0.59456 0.19323 0.19216
 C2924 C 0.59028 0.20454 0.18795
 C2925 C 0.58019 0.21012 0.19344
 C2926 C 0.57423 0.20444 0.20323
 C2927 C 0.57855 0.19302 0.20733
 C2928 C 0.58865 0.18747 0.20183
 C2929 C 0.56367 0.21048 0.20923
 C2930 C 0.55347 0.20359 0.21300
 C2931 C 0.54362 0.20929 0.21880
 C2932 C 0.54382 0.22193 0.22091
 C2933 C 0.55390 0.22886 0.21715
 C2934 C 0.56375 0.22319 0.21135
 C2935 C 0.53382 0.22778 0.22710
 C2936 C 0.52558 0.23280 0.23239
 H2937 H 0.59476 0.20906 0.18044
 H2938 H 0.57698 0.21882 0.18997
 H2939 H 0.57426 0.18849 0.21494
 H2940 H 0.59191 0.17872 0.20518
 H2941 H 0.55307 0.19383 0.21137
 H2942 H 0.53587 0.20384 0.22167
 H2943 H 0.55418 0.23864 0.21879
 H2944 H 0.57153 0.22871 0.20871
 C2945 C 0.11424 0.68353 0.18248
 C2946 C 0.10528 0.68797 0.18711
 C2947 C 0.09463 0.69329 0.19268
 C2948 C 0.09319 0.69278 0.20523
 C2949 C 0.08295 0.69809 0.21069
 C2950 C 0.07398 0.70400 0.20366
 C2951 C 0.07549 0.70442 0.19104
 C2952 C 0.08575 0.69909 0.18560
 C2953 C 0.06322 0.70984 0.20950
 C2954 C 0.05891 0.72129 0.20547
 C2955 C 0.04900 0.72695 0.21120
 C2956 C 0.04324 0.72124 0.22099
 C2957 C 0.04738 0.70980 0.22499
 C2958 C 0.05729 0.70413 0.21928
 C2959 C 0.03334 0.72729 0.22717
 C2960 C 0.02520 0.73246 0.23247
 H2961 H 0.10004 0.68835 0.21080
 H2962 H 0.08215 0.69777 0.22043
 H2963 H 0.06868 0.70877 0.18537
 H2964 H 0.08676 0.69951 0.17587
 H2965 H 0.06337 0.72600 0.19808
 H2966 H 0.04592 0.73584 0.20808
 H2967 H 0.04299 0.70531 0.23256
 H2968 H 0.06029 0.69525 0.22250
 C2969 C 0.11392 0.18286 0.68225
 C2970 C 0.10505 0.18749 0.68685
 C2971 C 0.09451 0.19309 0.69235
 C2972 C 0.08954 0.20380 0.68742
 C2973 C 0.07942 0.20937 0.69286
 C2974 C 0.07412 0.20429 0.70331
 C2975 C 0.07914 0.19348 0.70815
 C2976 C 0.08927 0.18792 0.70270
 C2977 C 0.06352 0.21034 0.70924
 C2978 C 0.05382 0.20334 0.71397
 C2979 C 0.04395 0.20905 0.71972
 C2980 C 0.04365 0.22182 0.72083
 C2981 C 0.05321 0.22886 0.71610
 C2982 C 0.06307 0.22317 0.71033
 C2983 C 0.03368 0.22771 0.72704
 C2984 C 0.02547 0.23277 0.73235
 H2985 H 0.09350 0.20786 0.67939
 H2986 H 0.07567 0.21760 0.68883
 H2987 H 0.07538 0.18943 0.71628
 H2988 H 0.09307 0.17965 0.70661
 H2989 H 0.05382 0.19346 0.71313
 H2990 H 0.03660 0.20351 0.72335
 H2991 H 0.05310 0.23875 0.71696
 H2992 H 0.07047 0.22880 0.70694
 C2993 C 0.38578 0.68244 0.31744
 C2994 C 0.39462 0.68695 0.31268
 C2995 C 0.40512 0.69239 0.30695
 C2996 C 0.40419 0.69697 0.29518
 C2997 C 0.41434 0.70234 0.28961
 C2998 C 0.42557 0.70321 0.29576
 C2999 C 0.42641 0.69857 0.30759
 C3000 C 0.41625 0.69319 0.31313
 C3001 C 0.43631 0.70904 0.28987
 C3002 C 0.44404 0.71688 0.29645
 C3003 C 0.45396 0.72261 0.29081
 C3004 C 0.45630 0.72055 0.27855
 C3005 C 0.44874 0.71267 0.27197
 C3006 C 0.43881 0.70695 0.27758
 C3007 C 0.46626 0.72674 0.27263
 C3008 C 0.47445 0.73200 0.26751
 H3009 H 0.39561 0.69644 0.29032
 H3010 H 0.41334 0.70599 0.28057
 H3011 H 0.43496 0.69897 0.31250
 H3012 H 0.41707 0.68965 0.32224
 H3013 H 0.44227 0.71879 0.30588
 H3014 H 0.45973 0.72873 0.29598
 H3015 H 0.45048 0.71100 0.26247
 H3016 H 0.43314 0.70083 0.27232
 C3017 C 0.38618 0.18219 0.81779
 C3018 C 0.39492 0.18683 0.81295
 C3019 C 0.40529 0.19243 0.80715
 C3020 C 0.41547 0.19595 0.81396
 C3021 C 0.42547 0.20156 0.80834
 C3022 C 0.42540 0.20373 0.79581
 C3023 C 0.41513 0.20010 0.78904
 C3024 C 0.40516 0.19449 0.79467
 C3025 C 0.43593 0.20984 0.78984
 C3026 C 0.43396 0.21866 0.78077
 C3027 C 0.44385 0.22443 0.77515
 C3028 C 0.45584 0.22147 0.77849
 C3029 C 0.45790 0.21272 0.78750
 C3030 C 0.44802 0.20694 0.79315
 C3031 C 0.46596 0.22740 0.77260
 C3032 C 0.47428 0.23249 0.76751
 H3033 H 0.41565 0.19444 0.82363
 H3034 H 0.43316 0.20439 0.81382
 H3035 H 0.41487 0.20150 0.77936
 H3036 H 0.39734 0.19177 0.78931
 H3037 H 0.42477 0.22122 0.77814
 H3038 H 0.44215 0.23121 0.76820
 H3039 H 0.46715 0.21033 0.79013
 H3040 H 0.44983 0.20009 0.79999
 C3041 C 0.88565 0.68271 0.81743
 C3042 C 0.89458 0.68717 0.81279
 C3043 C 0.90520 0.69257 0.80725
 C3044 C 0.90677 0.69198 0.79472
 C3045 C 0.91699 0.69739 0.78931
 C3046 C 0.92579 0.70347 0.79638
 C3047 C 0.92415 0.70396 0.80898
 C3048 C 0.91392 0.69853 0.81437
 C3049 C 0.93652 0.70943 0.79061
 C3050 C 0.94060 0.72095 0.79461
 C3051 C 0.95050 0.72671 0.78897
 C3052 C 0.95646 0.72103 0.77928
 C3053 C 0.95254 0.70952 0.77531
 C3054 C 0.94264 0.70374 0.78093
 C3055 C 0.96632 0.72719 0.77318
 C3056 C 0.97444 0.73244 0.76792
 H3057 H 0.90005 0.68742 0.78913
 H3058 H 0.91789 0.69701 0.77958
 H3059 H 0.93082 0.70844 0.81468
 H3060 H 0.91281 0.69902 0.82408
 H3061 H 0.93598 0.72564 0.80192
 H3062 H 0.95340 0.73565 0.79207
 H3063 H 0.95709 0.70504 0.76782
 H3064 H 0.93982 0.69481 0.77775
 C3065 C 0.88599 0.18237 0.31762
 C3066 C 0.89476 0.18698 0.31283
 C3067 C 0.90516 0.19255 0.30706
 C3068 C 0.91508 0.19659 0.31396
 C3069 C 0.92509 0.20219 0.30836
 C3070 C 0.92529 0.20384 0.29575
 C3071 C 0.91530 0.19968 0.28889
 C3072 C 0.90531 0.19408 0.29451
 C3073 C 0.93581 0.20997 0.28979
 C3074 C 0.93385 0.21837 0.28034
 C3075 C 0.94373 0.22416 0.27472
 C3076 C 0.95570 0.22164 0.27844
 C3077 C 0.95776 0.21331 0.28784
 C3078 C 0.94789 0.20751 0.29349
 C3079 C 0.96582 0.22763 0.27258
 C3080 C 0.97413 0.23275 0.26751
 H3081 H 0.91504 0.19549 0.32369
 H3082 H 0.93257 0.20543 0.31390
 H3083 H 0.91525 0.20067 0.27916
 H3084 H 0.89769 0.19096 0.28907
 H3085 H 0.92467 0.22059 0.27740
 H3086 H 0.94203 0.23062 0.26748
 H3087 H 0.96700 0.21127 0.29077
 H3088 H 0.94970 0.20099 0.30063
 C3089 C 0.31741 0.31668 0.61346
 C3090 C 0.31277 0.31193 0.60477
 C3091 C 0.30722 0.30618 0.59445
 C3092 C 0.30170 0.29469 0.59564
 C3093 C 0.29629 0.28908 0.58565
 C3094 C 0.29633 0.29490 0.57431
 C3095 C 0.30190 0.30646 0.57320
 C3096 C 0.30732 0.31206 0.58322
 C3097 C 0.29053 0.28895 0.56371
 C3098 C 0.28352 0.29585 0.55549
 C3099 C 0.27787 0.29018 0.54565
 C3100 C 0.27917 0.27755 0.54387
 C3101 C 0.28620 0.27062 0.55194
 C3102 C 0.29184 0.27627 0.56178
 C3103 C 0.27308 0.27163 0.53395
 C3104 C 0.26788 0.26655 0.52577
 H3105 H 0.30154 0.29008 0.60431
 H3106 H 0.29192 0.28026 0.58683
 H3107 H 0.30221 0.31111 0.56457
 H3108 H 0.31160 0.32095 0.58219
 H3109 H 0.28221 0.30559 0.55681
 H3110 H 0.27240 0.29562 0.53950
 H3111 H 0.28727 0.26085 0.55064
 H3112 H 0.29731 0.27074 0.56785
 C3113 C 0.31757 0.81706 0.11305
 C3114 C 0.31294 0.81230 0.10436
 C3115 C 0.30738 0.80654 0.09405
 C3116 C 0.29929 0.79676 0.09569
 C3117 C 0.29388 0.79112 0.08571
 C3118 C 0.29649 0.79521 0.07393
 C3119 C 0.30463 0.80507 0.07237
 C3120 C 0.31004 0.81069 0.08237
 C3121 C 0.29072 0.78921 0.06333
 C3122 C 0.28642 0.79623 0.05355
 C3123 C 0.28077 0.79056 0.04370
 C3124 C 0.27938 0.77782 0.04348
 C3125 C 0.28371 0.77076 0.05312
 C3126 C 0.28935 0.77640 0.06298
 C3127 C 0.27331 0.77199 0.03350
 C3128 C 0.26811 0.76696 0.02530
 H3129 H 0.29714 0.79350 0.10469
 H3130 H 0.28753 0.78367 0.08721
 H3131 H 0.30693 0.80833 0.06342
 H3132 H 0.31632 0.81824 0.08100
 H3133 H 0.28721 0.80611 0.05363
 H3134 H 0.27740 0.79613 0.03631
 H3135 H 0.28269 0.76089 0.05304
 H3136 H 0.29271 0.77073 0.07028
 C3137 C 0.81760 0.31661 0.11285
 C3138 C 0.81307 0.31193 0.10407
 C3139 C 0.80761 0.30630 0.09364
 C3140 C 0.80571 0.29363 0.09341
 C3141 C 0.80030 0.28814 0.08335
 C3142 C 0.79672 0.29527 0.07336
 C3143 C 0.79868 0.30801 0.07368
 C3144 C 0.80411 0.31347 0.08375
 C3145 C 0.79083 0.28945 0.06273
 C3146 C 0.78084 0.29511 0.05697
 C3147 C 0.77512 0.28948 0.04715
 C3148 C 0.77931 0.27814 0.04294
 C3149 C 0.78931 0.27249 0.04854
 C3150 C 0.79504 0.27810 0.05836
 C3151 C 0.77316 0.27214 0.03310
 C3152 C 0.76790 0.26701 0.02499
 H3153 H 0.80835 0.28800 0.10104
 H3154 H 0.79874 0.27835 0.08346
 H3155 H 0.79614 0.31372 0.06608
 H3156 H 0.80555 0.32329 0.08383
 H3157 H 0.77730 0.30377 0.06021
 H3158 H 0.76735 0.29391 0.04292
 H3159 H 0.79263 0.26371 0.04535
 H3160 H 0.80281 0.27359 0.06250
 C3161 C 0.81714 0.81752 0.61297
 C3162 C 0.81254 0.81294 0.60418
 C3163 C 0.80702 0.80741 0.59373
 C3164 C 0.80909 0.79503 0.59119
 C3165 C 0.80363 0.78960 0.58112
 C3166 C 0.79600 0.79649 0.57346
 C3167 C 0.79401 0.80895 0.57607
 C3168 C 0.79950 0.81437 0.58614
 C3169 C 0.79002 0.79067 0.56289
 C3170 C 0.77779 0.79343 0.56000
 C3171 C 0.77206 0.78774 0.55022
 C3172 C 0.77847 0.77924 0.54318
 C3173 C 0.79067 0.77650 0.54592
 C3174 C 0.79641 0.78217 0.55570
 C3175 C 0.77242 0.77310 0.53337
 C3176 C 0.76724 0.76787 0.52528
 H3177 H 0.81486 0.78955 0.59703
 H3178 H 0.80519 0.77995 0.57945
 H3179 H 0.78831 0.81454 0.57028
 H3180 H 0.79785 0.82397 0.58802
 H3181 H 0.77257 0.79980 0.56545
 H3182 H 0.76260 0.78988 0.54822
 H3183 H 0.79572 0.76993 0.54053
 H3184 H 0.80588 0.77997 0.55760
 C3185 C 0.31754 0.68279 0.38697
 C3186 C 0.31299 0.68752 0.39573
 C3187 C 0.30751 0.69324 0.40612
 C3188 C 0.30829 0.70594 0.40761
 C3189 C 0.30279 0.71155 0.41758
 C3190 C 0.29644 0.70452 0.42620
 C3191 C 0.29579 0.69175 0.42466
 C3192 C 0.30129 0.68615 0.41467
 C3193 C 0.29039 0.71052 0.43666
 C3194 C 0.29080 0.70514 0.44821
 C3195 C 0.28503 0.71078 0.45803
 C3196 C 0.27878 0.72186 0.45642
 C3197 C 0.27832 0.72728 0.44498
 C3198 C 0.28409 0.72166 0.43516
 C3199 C 0.27275 0.72768 0.46646
 C3200 C 0.26758 0.73273 0.47469
 H3201 H 0.31312 0.71151 0.40106
 H3202 H 0.30360 0.72138 0.41860
 H3203 H 0.29084 0.68611 0.43105
 H3204 H 0.30061 0.67631 0.41358
 H3205 H 0.29570 0.69664 0.44968
 H3206 H 0.28545 0.70652 0.46685
 H3207 H 0.27347 0.73583 0.44362
 H3208 H 0.28345 0.72594 0.42636
 C3209 C 0.31736 0.18277 0.88675
 C3210 C 0.31274 0.18753 0.89546
 C3211 C 0.30720 0.19328 0.90580
 C3212 C 0.29941 0.20334 0.90424
 C3213 C 0.29403 0.20896 0.91426
 C3214 C 0.29635 0.20459 0.92600
 C3215 C 0.30418 0.19445 0.92747
 C3216 C 0.30957 0.18884 0.91743
 C3217 C 0.29061 0.21057 0.93662
 C3218 C 0.28595 0.20352 0.94622
 C3219 C 0.28033 0.20918 0.95611
 C3220 C 0.27932 0.22195 0.95654
 C3221 C 0.28400 0.22905 0.94708
 C3222 C 0.28961 0.22341 0.93719
 C3223 C 0.27325 0.22781 0.96652
 C3224 C 0.26806 0.23289 0.97472
 H3225 H 0.29749 0.20682 0.89528
 H3226 H 0.28791 0.21663 0.91282
 H3227 H 0.30625 0.19096 0.93639
 H3228 H 0.31560 0.18108 0.91874
 H3229 H 0.28644 0.19362 0.94598
 H3230 H 0.27668 0.20360 0.96335
 H3231 H 0.28327 0.23895 0.94732
 H3232 H 0.29325 0.22910 0.93003
 C3233 C 0.81705 0.68308 0.88661
 C3234 C 0.81251 0.68779 0.89539
 C3235 C 0.80707 0.69350 0.90580
 C3236 C 0.80730 0.68758 0.91702
 C3237 C 0.80197 0.69313 0.92712
 C3238 C 0.79637 0.70470 0.92613
 C3239 C 0.79620 0.71057 0.91481
 C3240 C 0.80152 0.70500 0.90473
 C3241 C 0.79063 0.71060 0.93681
 C3242 C 0.79191 0.72327 0.93877
 C3243 C 0.78628 0.72887 0.94866
 C3244 C 0.77931 0.72191 0.95675
 C3245 C 0.77806 0.70929 0.95494
 C3246 C 0.78370 0.70365 0.94505
 C3247 C 0.77321 0.72780 0.96669
 C3248 C 0.76798 0.73291 0.97485
 H3249 H 0.81160 0.67869 0.91796
 H3250 H 0.80237 0.68845 0.93573
 H3251 H 0.79180 0.71939 0.91372
 H3252 H 0.80127 0.70965 0.89608
 H3253 H 0.79733 0.72883 0.93268
 H3254 H 0.78731 0.73865 0.94998
 H3255 H 0.77263 0.70382 0.96111
 H3256 H 0.78242 0.69391 0.94371
 C3257 C 0.81754 0.18259 0.38695
 C3258 C 0.81289 0.18735 0.39563
 C3259 C 0.80730 0.19311 0.40594
 C3260 C 0.81071 0.18964 0.41764
 C3261 C 0.80529 0.19528 0.42765
 C3262 C 0.79640 0.20447 0.42607
 C3263 C 0.79303 0.20787 0.41427
 C3264 C 0.79845 0.20222 0.40428
 C3265 C 0.79064 0.21050 0.43667
 C3266 C 0.78839 0.22320 0.43661
 C3267 C 0.78278 0.22885 0.44648
 C3268 C 0.77934 0.22192 0.45656
 C3269 C 0.78162 0.20930 0.45676
 C3270 C 0.78724 0.20362 0.44689
 C3271 C 0.77327 0.22777 0.46656
 C3272 C 0.76807 0.23285 0.47475
 H3273 H 0.81757 0.18262 0.41902
 H3274 H 0.80818 0.19257 0.43661
 H3275 H 0.78609 0.21479 0.41276
 H3276 H 0.79571 0.20494 0.39527
 H3277 H 0.79105 0.22877 0.42895
 H3278 H 0.78108 0.23863 0.44624
 H3279 H 0.77895 0.20384 0.46450
 H3280 H 0.78872 0.19382 0.44715
 C3281 C 0.68300 0.31755 0.38671
 C3282 C 0.68778 0.31296 0.39541
 C3283 C 0.69354 0.30741 0.40574
 C3284 C 0.68645 0.30334 0.41547
 C3285 C 0.69205 0.29782 0.42544
 C3286 C 0.70483 0.29628 0.42579
 C3287 C 0.71188 0.30046 0.41597
 C3288 C 0.70626 0.30598 0.40602
 C3289 C 0.71079 0.29024 0.43628
 C3290 C 0.72046 0.28192 0.43450
 C3291 C 0.72605 0.27619 0.44434
 C3292 C 0.72208 0.27870 0.45610
 C3293 C 0.71246 0.28696 0.45798
 C3294 C 0.70684 0.29269 0.44814
 C3295 C 0.72791 0.27277 0.46618
 C3296 C 0.73298 0.26768 0.47445
 H3297 H 0.67660 0.30437 0.41533
 H3298 H 0.68637 0.29457 0.43279
 H3299 H 0.72175 0.29956 0.41604
 H3300 H 0.71184 0.30913 0.39855
 H3301 H 0.72359 0.27970 0.42548
 H3302 H 0.73346 0.26978 0.44278
 H3303 H 0.70933 0.28899 0.46705
 H3304 H 0.69952 0.29916 0.44981
 C3305 C 0.68271 0.81749 0.88677
 C3306 C 0.68748 0.81286 0.89546
 C3307 C 0.69324 0.80730 0.90578
 C3308 C 0.68612 0.80203 0.91491
 C3309 C 0.69173 0.79650 0.92487
 C3310 C 0.70457 0.79616 0.92580
 C3311 C 0.71164 0.80153 0.91659
 C3312 C 0.70601 0.80706 0.90665
 C3313 C 0.71057 0.79015 0.93628
 C3314 C 0.72110 0.78292 0.93462
 C3315 C 0.72676 0.77725 0.94447
 C3316 C 0.72198 0.77872 0.95610
 C3317 C 0.71150 0.78588 0.95787
 C3318 C 0.70582 0.79156 0.94802
 C3319 C 0.72785 0.77282 0.96618
 C3320 C 0.73292 0.76775 0.97446
 H3321 H 0.67623 0.80213 0.91431
 H3322 H 0.68604 0.79231 0.93173
 H3323 H 0.72153 0.80157 0.91712
 H3324 H 0.71161 0.81114 0.89965
 H3325 H 0.72488 0.78150 0.92569
 H3326 H 0.73484 0.77169 0.94300
 H3327 H 0.70774 0.78710 0.96684
 H3328 H 0.69781 0.79718 0.94961
 C3329 C 0.18289 0.31782 0.88699
 C3330 C 0.18764 0.31325 0.89572
 C3331 C 0.19338 0.30775 0.90608
 C3332 C 0.20609 0.30836 0.90745
 C3333 C 0.21172 0.30286 0.91740
 C3334 C 0.20471 0.29666 0.92614
 C3335 C 0.19192 0.29617 0.92473
 C3336 C 0.18631 0.30167 0.91475
 C3337 C 0.21072 0.29060 0.93659
 C3338 C 0.20548 0.29120 0.94819
 C3339 C 0.21114 0.28542 0.95799
 C3340 C 0.22209 0.27897 0.95631
 C3341 C 0.22736 0.27833 0.94481
 C3342 C 0.22173 0.28411 0.93502
 C3343 C 0.22793 0.27294 0.96634
 C3344 C 0.23300 0.26779 0.97456
 H3345 H 0.21165 0.31307 0.90081
 H3346 H 0.22156 0.30354 0.91832
 H3347 H 0.18629 0.29134 0.93121
 H3348 H 0.17646 0.30111 0.91377
 H3349 H 0.19709 0.29625 0.94972
 H3350 H 0.20699 0.28599 0.96686
 H3351 H 0.23581 0.27333 0.94341
 H3352 H 0.22590 0.28333 0.92618
 C3353 C 0.18244 0.81735 0.38694
 C3354 C 0.18716 0.81266 0.39562
 C3355 C 0.19288 0.80699 0.40591
 C3356 C 0.20476 0.80232 0.40494
 C3357 C 0.21032 0.79671 0.41488
 C3358 C 0.20404 0.79570 0.42594
 C3359 C 0.19211 0.80047 0.42684
 C3360 C 0.18657 0.80607 0.41688
 C3361 C 0.20991 0.78963 0.43645
 C3362 C 0.20858 0.79446 0.44817
 C3363 C 0.21420 0.78876 0.45803
 C3364 C 0.22121 0.77816 0.45632
 C3365 C 0.22254 0.77326 0.44472
 C3366 C 0.21694 0.77894 0.43485
 C3367 C 0.22716 0.77234 0.46639
 C3368 C 0.23232 0.76733 0.47465
 H3369 H 0.20974 0.80301 0.39650
 H3370 H 0.21957 0.79329 0.41395
 H3371 H 0.18699 0.79970 0.43518
 H3372 H 0.17735 0.80962 0.41772
 H3373 H 0.20335 0.80275 0.44967
 H3374 H 0.21314 0.79265 0.46696
 H3375 H 0.22792 0.76505 0.44329
 H3376 H 0.21800 0.77490 0.42599
 C3377 C 0.68288 0.68343 0.61370
 C3378 C 0.68739 0.68798 0.60483
 C3379 C 0.69282 0.69344 0.59427
 C3380 C 0.70027 0.68642 0.58666
 C3381 C 0.70567 0.69176 0.57649
 C3382 C 0.70369 0.70420 0.57379
 C3383 C 0.69614 0.71116 0.58148
 C3384 C 0.69075 0.70581 0.59165
 C3385 C 0.70962 0.70996 0.56313
 C3386 C 0.70321 0.71846 0.55596
 C3387 C 0.70891 0.72409 0.54611
 C3388 C 0.72107 0.72129 0.54328
 C3389 C 0.72749 0.71277 0.55028
 C3390 C 0.72181 0.70713 0.56014
 C3391 C 0.72709 0.72741 0.53342
 C3392 C 0.73226 0.73265 0.52530
 H3393 H 0.70191 0.67683 0.58859
 H3394 H 0.71131 0.68612 0.57067
 H3395 H 0.69458 0.72080 0.57975
 H3396 H 0.68504 0.71134 0.59751
 H3397 H 0.69377 0.72071 0.55794
 H3398 H 0.70386 0.73068 0.54075
 H3399 H 0.73694 0.71059 0.54821
 H3400 H 0.72705 0.70075 0.56556
 C3401 C 0.68287 0.18281 0.11317
 C3402 C 0.68744 0.18738 0.10434
 C3403 C 0.69292 0.19288 0.09383
 C3404 C 0.70038 0.18588 0.08621
 C3405 C 0.70584 0.19125 0.07609
 C3406 C 0.70390 0.20372 0.07344
 C3407 C 0.69633 0.21066 0.08113
 C3408 C 0.69089 0.20527 0.09125
 C3409 C 0.70986 0.20950 0.06282
 C3410 C 0.70348 0.21802 0.05565
 C3411 C 0.70920 0.22365 0.04581
 C3412 C 0.72136 0.22083 0.04299
 C3413 C 0.72776 0.21229 0.05000
 C3414 C 0.72206 0.20666 0.05984
 C3415 C 0.72740 0.22692 0.03312
 C3416 C 0.73259 0.23214 0.02500
 H3417 H 0.70199 0.17627 0.08810
 H3418 H 0.71148 0.18563 0.07026
 H3419 H 0.69480 0.22031 0.07944
 H3420 H 0.68516 0.21078 0.09711
 H3421 H 0.69404 0.22028 0.05762
 H3422 H 0.70416 0.23024 0.04044
 H3423 H 0.73720 0.21009 0.04793
 H3424 H 0.72727 0.20026 0.06527
 C3425 C 0.18272 0.68340 0.11316
 C3426 C 0.18725 0.68793 0.10428
 C3427 C 0.19272 0.69334 0.09373
 C3428 C 0.19076 0.70572 0.09110
 C3429 C 0.19623 0.71103 0.08095
 C3430 C 0.20375 0.70400 0.07329
 C3431 C 0.20561 0.69154 0.07598
 C3432 C 0.20012 0.68625 0.08614
 C3433 C 0.20977 0.70970 0.06265
 C3434 C 0.22195 0.70678 0.05971
 C3435 C 0.22772 0.71237 0.04988
 C3436 C 0.22140 0.72094 0.04285
 C3437 C 0.20924 0.72382 0.04562
 C3438 C 0.20345 0.71824 0.05545
 C3439 C 0.22752 0.72702 0.03302
 C3440 C 0.23276 0.73224 0.02494
 H3441 H 0.18508 0.71130 0.09694
 H3442 H 0.19476 0.72068 0.07921
 H3443 H 0.21122 0.68586 0.07018
 H3444 H 0.20168 0.67665 0.08808
 H3445 H 0.22711 0.70036 0.06517
 H3446 H 0.23716 0.71012 0.04786
 H3447 H 0.20426 0.73044 0.04022
 H3448 H 0.19402 0.72056 0.05738
 C3449 C 0.18275 0.18252 0.61332
 C3450 C 0.18729 0.18704 0.60445
 C3451 C 0.19275 0.19247 0.59390
 C3452 C 0.20012 0.18539 0.58626
 C3453 C 0.20558 0.19071 0.57611
 C3454 C 0.20373 0.20319 0.57347
 C3455 C 0.19626 0.21020 0.58118
 C3456 C 0.19081 0.20487 0.59132
 C3457 C 0.20971 0.20892 0.56282
 C3458 C 0.20338 0.21752 0.55569
 C3459 C 0.20914 0.22314 0.54587
 C3460 C 0.22128 0.22025 0.54303
 C3461 C 0.22762 0.21163 0.54999
 C3462 C 0.22188 0.20599 0.55981
 C3463 C 0.22736 0.22638 0.53322
 C3464 C 0.23260 0.23164 0.52516
 H3465 H 0.20165 0.17578 0.58816
 H3466 H 0.21116 0.18504 0.57028
 H3467 H 0.19480 0.21986 0.57949
 H3468 H 0.18515 0.21044 0.59720
 H3469 H 0.19396 0.21984 0.55768
 H3470 H 0.20415 0.22981 0.54054
 H3471 H 0.23704 0.20937 0.54791
 H3472 H 0.22705 0.19954 0.56521
   
