data_POSCAR
  _audit_creation_date              2014-09-24
  _audit_creation_method            'ToBaCCo'
  _symmetry_space_group_name_H-M    'P1'
  _symmetry_Int_Tables_number       1
  _symmetry_cell_setting            triclinic
  loop_
  _symmetry_equiv_pos_as_xyz
 x,y,z
_cell_length_a 53.3182
_cell_length_b 53.3096
_cell_length_c 53.3786
_cell_angle_alpha 89.981400
_cell_angle_beta 89.976300
_cell_angle_gamma 89.959500
loop_
  _atom_site_label
  _atom_site_type_symbol
  _atom_site_fract_x
  _atom_site_fract_y
  _atom_site_fract_z
C1 C 0.35479 0.35457 0.32268
 C2 C 0.37605 0.34349 0.31182
 C3 C 0.38671 0.32167 0.32218
 C4 C 0.37601 0.31125 0.34393
 C5 C 0.35475 0.32213 0.35499
 C6 C 0.34406 0.34385 0.34432
 C7 C 0.34379 0.37590 0.31189
 C8 C 0.32205 0.38665 0.32232
 C9 C 0.31162 0.37595 0.34407
 C10 C 0.32242 0.35462 0.35506
 C11 C 0.31158 0.34358 0.37633
 C12 C 0.32196 0.32176 0.38698
 C13 C 0.34370 0.31130 0.37626
 H14 H 0.38404 0.35172 0.29505
 H15 H 0.38397 0.29442 0.35209
 H16 H 0.35201 0.38389 0.29512
 H17 H 0.29485 0.38397 0.35229
 H18 H 0.29482 0.35183 0.38433
 H19 H 0.35188 0.29447 0.38421
 C20 C 0.35466 0.85468 -0.17836
 C21 C 0.37593 0.84361 -0.18924
 C22 C 0.38676 0.82180 -0.17886
 C23 C 0.37607 0.81153 -0.15695
 C24 C 0.35482 0.82242 -0.14590
 C25 C 0.34404 0.84404 -0.15665
 C26 C 0.34357 0.87595 -0.18922
 C27 C 0.32175 0.88677 -0.17882
 C28 C 0.31152 0.87606 -0.15691
 C29 C 0.32242 0.85481 -0.14588
 C30 C 0.31169 0.84386 -0.12451
 C31 C 0.32216 0.82213 -0.11378
 C32 C 0.34388 0.81167 -0.12453
 H33 H 0.38375 0.85190 -0.20606
 H34 H 0.38400 0.79479 -0.14856
 H35 H 0.35184 0.88379 -0.20604
 H36 H 0.29478 0.88398 -0.14850
 H37 H 0.29494 0.85211 -0.11647
 H38 H 0.35214 0.79491 -0.11651
 C39 C 0.85474 0.35477 -0.17822
 C40 C 0.87604 0.34373 -0.18906
 C41 C 0.88687 0.32192 -0.17867
 C42 C 0.87616 0.31164 -0.15679
 C43 C 0.85487 0.32250 -0.14578
 C44 C 0.84408 0.34410 -0.15654
 C45 C 0.84365 0.37603 -0.18909
 C46 C 0.82180 0.38682 -0.17873
 C47 C 0.81152 0.37609 -0.15685
 C48 C 0.82243 0.35484 -0.14581
 C49 C 0.81167 0.34385 -0.12446
 C50 C 0.82215 0.32213 -0.11372
 C51 C 0.84391 0.31172 -0.12443
 H52 H 0.88389 0.35204 -0.20586
 H53 H 0.88409 0.29490 -0.14839
 H54 H 0.85196 0.38389 -0.20588
 H55 H 0.79475 0.38398 -0.14848
 H56 H 0.79488 0.35207 -0.11645
 H57 H 0.85219 0.29497 -0.11641
 C58 C 0.85435 0.85503 0.32241
 C59 C 0.87568 0.84401 0.31162
 C60 C 0.88642 0.82227 0.32206
 C61 C 0.87574 0.81187 0.34382
 C62 C 0.85442 0.82270 0.35482
 C63 C 0.84364 0.84433 0.34406
 C64 C 0.84329 0.87628 0.31152
 C65 C 0.82140 0.88704 0.32181
 C66 C 0.81106 0.87629 0.34366
 C67 C 0.82195 0.85504 0.35473
 C68 C 0.81114 0.84401 0.37603
 C69 C 0.82161 0.82228 0.38677
 C70 C 0.84340 0.81189 0.37611
 H71 H 0.88366 0.85221 0.29484
 H72 H 0.88376 0.79511 0.35206
 H73 H 0.85165 0.88415 0.29476
 H74 H 0.79426 0.88417 0.35198
 H75 H 0.79433 0.85221 0.38400
 H76 H 0.85166 0.79513 0.38412
 C77 C 0.64521 0.64523 0.32241
 C78 C 0.62394 0.65630 0.31157
 C79 C 0.61322 0.67806 0.32199
 C80 C 0.62386 0.68842 0.34378
 C81 C 0.64512 0.67755 0.35482
 C82 C 0.65588 0.65590 0.34409
 C83 C 0.65627 0.62396 0.31157
 C84 C 0.67803 0.61323 0.32198
 C85 C 0.68840 0.62387 0.34377
 C86 C 0.67753 0.64514 0.35482
 C87 C 0.68831 0.65614 0.37613
 C88 C 0.67785 0.67789 0.38684
 C89 C 0.65610 0.68833 0.37613
 H90 H 0.61600 0.64812 0.29476
 H91 H 0.61584 0.70520 0.35200
 H92 H 0.64810 0.61601 0.29476
 H93 H 0.70517 0.61586 0.35198
 H94 H 0.70508 0.64790 0.38412
 H95 H 0.64786 0.70511 0.38413
 C96 C 0.64563 0.14509 -0.17777
 C97 C 0.62432 0.15612 -0.18856
 C98 C 0.61359 0.17788 -0.17815
 C99 C 0.62429 0.18829 -0.15641
 C100 C 0.64560 0.17746 -0.14542
 C101 C 0.65635 0.15580 -0.15615
 C102 C 0.65667 0.12381 -0.18863
 C103 C 0.67854 0.11303 -0.17832
 C104 C 0.68889 0.12380 -0.15650
 C105 C 0.67802 0.14508 -0.14547
 C106 C 0.68884 0.15610 -0.12419
 C107 C 0.67840 0.17786 -0.11347
 C108 C 0.65662 0.18827 -0.12415
 H109 H 0.61632 0.14791 -0.20533
 H110 H 0.61628 0.20507 -0.14819
 H111 H 0.64831 0.11593 -0.20538
 H112 H 0.70567 0.11591 -0.14817
 H113 H 0.70563 0.14789 -0.11621
 H114 H 0.64838 0.20505 -0.11615
 C115 C 0.14576 0.64515 -0.17784
 C116 C 0.12444 0.65618 -0.18864
 C117 C 0.11371 0.67793 -0.17822
 C118 C 0.12439 0.68834 -0.15648
 C119 C 0.14570 0.67751 -0.14548
 C120 C 0.15647 0.65586 -0.15621
 C121 C 0.15681 0.62387 -0.18869
 C122 C 0.17868 0.61310 -0.17838
 C123 C 0.18902 0.62387 -0.15656
 C124 C 0.17814 0.64515 -0.14553
 C125 C 0.18895 0.65618 -0.12424
 C126 C 0.17849 0.67793 -0.11353
 C127 C 0.15671 0.68833 -0.12421
 H128 H 0.11645 0.64797 -0.20540
 H129 H 0.11638 0.70511 -0.14826
 H130 H 0.14844 0.61599 -0.20544
 H131 H 0.20581 0.61599 -0.14823
 H132 H 0.20575 0.64798 -0.11626
 H133 H 0.14845 0.70510 -0.11621
 C134 C 0.14546 0.14542 0.32183
 C135 C 0.12420 0.15649 0.31096
 C136 C 0.11335 0.17829 0.32133
 C137 C 0.12402 0.18855 0.34324
 C138 C 0.14526 0.17764 0.35430
 C139 C 0.15606 0.15604 0.34354
 C140 C 0.15656 0.12416 0.31096
 C141 C 0.17837 0.11335 0.32134
 C142 C 0.18860 0.12402 0.34325
 C143 C 0.17767 0.14526 0.35430
 C144 C 0.18838 0.15619 0.37568
 C145 C 0.17790 0.17790 0.38643
 C146 C 0.15618 0.18837 0.37568
 H147 H 0.11639 0.14820 0.29414
 H148 H 0.11608 0.20528 0.35163
 H149 H 0.14828 0.11634 0.29414
 H150 H 0.20534 0.11610 0.35164
 H151 H 0.20513 0.14794 0.38371
 H152 H 0.14791 0.20512 0.38371
 C153 C 0.64515 0.35488 0.67723
 C154 C 0.62386 0.34386 0.68805
 C155 C 0.61313 0.32213 0.67761
 C156 C 0.62379 0.31176 0.65582
 C157 C 0.64508 0.32259 0.64479
 C158 C 0.65584 0.34420 0.65555
 C159 C 0.65623 0.37611 0.68811
 C160 C 0.67802 0.38679 0.67772
 C161 C 0.68840 0.37614 0.65593
 C162 C 0.67752 0.35491 0.64485
 C163 C 0.68832 0.34392 0.62354
 C164 C 0.67787 0.32220 0.61280
 C165 C 0.65609 0.31180 0.62348
 H166 H 0.61590 0.35203 0.70486
 H167 H 0.61577 0.29501 0.64758
 H168 H 0.64804 0.38406 0.70491
 H169 H 0.70520 0.38412 0.64773
 H170 H 0.70512 0.35212 0.61556
 H171 H 0.64784 0.29505 0.61547
 C172 C 0.64498 0.85438 1.17786
 C173 C 0.62370 0.84338 1.18873
 C174 C 0.61290 0.82155 1.17840
 C175 C 0.62364 0.81120 1.15655
 C176 C 0.64492 0.82203 1.14551
 C177 C 0.65567 0.84366 1.15621
 C178 C 0.65605 0.87566 1.18867
 C179 C 0.67782 0.88634 1.17824
 C180 C 0.68819 0.87564 1.15648
 C181 C 0.67733 0.85437 1.14547
 C182 C 0.68813 0.84335 1.12417
 C183 C 0.67769 0.82161 1.11349
 C184 C 0.65593 0.81121 1.12421
 H185 H 0.61584 0.85174 1.20550
 H186 H 0.61573 0.79445 1.14820
 H187 H 0.64787 0.88366 1.20546
 H188 H 0.70498 0.88361 1.14824
 H189 H 0.70491 0.85156 1.11617
 H190 H 0.64770 0.79444 1.11622
 C191 C 0.14514 0.35436 1.17805
 C192 C 0.12392 0.34326 1.18895
 C193 C 0.11319 0.32139 1.17863
 C194 C 0.12394 0.31110 1.15676
 C195 C 0.14516 0.32202 1.14569
 C196 C 0.15583 0.34369 1.15638
 C197 C 0.15614 0.37569 1.18884
 C198 C 0.17784 0.38646 1.17837
 C199 C 0.18822 0.37580 1.15659
 C200 C 0.17743 0.35449 1.14560
 C201 C 0.18824 0.34351 1.12429
 C202 C 0.17788 0.32172 1.11362
 C203 C 0.15617 0.31124 1.12437
 H204 H 0.11605 0.35158 1.20574
 H205 H 0.11609 0.29431 1.14842
 H206 H 0.14795 0.38365 1.20564
 H207 H 0.20496 0.38384 1.14832
 H208 H 0.20498 0.35178 1.11626
 H209 H 0.14800 0.29443 1.11640
 C210 C 0.14476 0.85449 0.67785
 C211 C 0.12353 0.84341 0.68873
 C212 C 0.11275 0.82158 0.67837
 C213 C 0.12346 0.81131 0.65647
 C214 C 0.14470 0.82222 0.64541
 C215 C 0.15542 0.84385 0.65614
 C216 C 0.15582 0.87576 0.68869
 C217 C 0.17754 0.88651 0.67824
 C218 C 0.18788 0.87589 0.65642
 C219 C 0.17703 0.85463 0.64537
 C220 C 0.18781 0.84369 0.62403
 C221 C 0.17740 0.82195 0.61331
 C222 C 0.15568 0.81147 0.62405
 H223 H 0.11569 0.85171 0.70554
 H224 H 0.11557 0.79456 0.64810
 H225 H 0.14766 0.88369 0.70552
 H226 H 0.20463 0.88392 0.64816
 H227 H 0.20455 0.85196 0.61602
 H228 H 0.14748 0.79470 0.61604
 C229 C 0.35466 0.64528 0.67733
 C230 C 0.37592 0.65632 0.68815
 C231 C 0.38661 0.67810 0.67775
 C232 C 0.37592 0.68852 0.65600
 C233 C 0.35465 0.67767 0.64496
 C234 C 0.34394 0.65600 0.65568
 C235 C 0.34363 0.62400 0.68816
 C236 C 0.32186 0.61330 0.67778
 C237 C 0.31145 0.62399 0.65602
 C238 C 0.32228 0.64528 0.64498
 C239 C 0.31145 0.65631 0.62370
 C240 C 0.32186 0.67808 0.61300
 C241 C 0.34362 0.68850 0.62369
 H242 H 0.38390 0.64811 0.70493
 H243 H 0.38390 0.70531 0.64779
 H244 H 0.35184 0.61602 0.70494
 H245 H 0.29467 0.61600 0.64783
 H246 H 0.29467 0.64810 0.61573
 H247 H 0.35182 0.70530 0.61571
 C248 C 0.35476 0.14532 1.17835
 C249 C 0.37605 0.15634 1.18918
 C250 C 0.38690 0.17813 1.17877
 C251 C 0.37619 0.18841 1.15689
 C252 C 0.35491 0.17757 1.14588
 C253 C 0.34412 0.15598 1.15666
 C254 C 0.34366 0.12408 1.18925
 C255 C 0.32182 0.11332 1.17890
 C256 C 0.31158 0.12403 1.15700
 C257 C 0.32249 0.14525 1.14594
 C258 C 0.31175 0.15622 1.12458
 C259 C 0.32221 0.17792 1.11382
 C260 C 0.34396 0.18834 1.12452
 H261 H 0.38389 0.14803 1.20599
 H262 H 0.38413 0.20513 1.14847
 H263 H 0.35194 0.11623 1.20606
 H264 H 0.29482 0.11615 1.14862
 H265 H 0.29498 0.14800 1.11659
 H266 H 0.35221 0.20508 1.11648
 C267 C 0.85452 0.64482 1.17791
 C268 C 0.87580 0.65589 1.18871
 C269 C 0.88651 0.67762 1.17824
 C270 C 0.87584 0.68796 1.15644
 C271 C 0.85458 0.67710 1.14544
 C272 C 0.84384 0.65547 1.15622
 C273 C 0.84348 0.62356 1.18880
 C274 C 0.82166 0.61276 1.17847
 C275 C 0.81135 0.62347 1.15659
 C276 C 0.82221 0.64473 1.14552
 C277 C 0.81142 0.65570 1.12419
 C278 C 0.82185 0.67744 1.11344
 C279 C 0.84359 0.68787 1.12412
 H280 H 0.88377 0.64774 1.20552
 H281 H 0.88384 0.70472 1.14818
 H282 H 0.85181 0.61572 1.20560
 H283 H 0.79460 0.61556 1.14823
 H284 H 0.79465 0.64748 1.11620
 H285 H 0.85182 0.70463 1.11610
 C286 C 0.85472 0.14540 0.67753
 C287 C 0.87596 0.15646 0.68838
 C288 C 0.88667 0.17822 0.67797
 C289 C 0.87603 0.18860 0.65618
 C290 C 0.85478 0.17774 0.64512
 C291 C 0.84405 0.15609 0.65585
 C292 C 0.84367 0.12413 0.68837
 C293 C 0.82193 0.11341 0.67795
 C294 C 0.81157 0.12407 0.65616
 C295 C 0.82242 0.14534 0.64511
 C296 C 0.81163 0.15634 0.62380
 C297 C 0.82206 0.17810 0.61309
 C298 C 0.84379 0.18854 0.62380
 H299 H 0.88391 0.14827 0.70519
 H300 H 0.88403 0.20538 0.64796
 H301 H 0.85185 0.11617 0.70518
 H302 H 0.79480 0.11606 0.64794
 H303 H 0.79487 0.14811 0.61580
 H304 H 0.85201 0.20532 0.61581
 C305 C 0.35429 0.35461 0.67773
 C306 C 0.34325 0.37590 0.68856
 C307 C 0.32145 0.38659 0.67820
 C308 C 0.31100 0.37588 0.65648
 C309 C 0.32185 0.35459 0.64544
 C310 C 0.34355 0.34388 0.65611
 C311 C 0.37562 0.34359 0.68851
 C312 C 0.38634 0.32183 0.67809
 C313 C 0.37562 0.31141 0.65637
 C314 C 0.35429 0.32222 0.64539
 C315 C 0.34325 0.31139 0.62414
 C316 C 0.32146 0.32179 0.61348
 C317 C 0.31101 0.34354 0.62419
 H318 H 0.35149 0.38390 0.70531
 H319 H 0.29419 0.38386 0.64831
 H320 H 0.38362 0.35182 0.70526
 H321 H 0.38363 0.29463 0.64815
 H322 H 0.35149 0.29461 0.61614
 H323 H 0.29420 0.35174 0.61623
 C324 C 0.35485 0.85556 0.17722
 C325 C 0.34379 0.87683 0.18806
 C326 C 0.32199 0.88752 0.17770
 C327 C 0.31155 0.87681 0.15597
 C328 C 0.32241 0.85552 0.14493
 C329 C 0.34411 0.84482 0.15560
 C330 C 0.37617 0.84454 0.18801
 C331 C 0.38689 0.82278 0.17759
 C332 C 0.37619 0.81236 0.15586
 C333 C 0.35487 0.82317 0.14487
 C334 C 0.34383 0.81233 0.12363
 C335 C 0.32203 0.82271 0.11297
 C336 C 0.31157 0.84447 0.12368
 H337 H 0.35203 0.88483 0.20481
 H338 H 0.29474 0.88479 0.14780
 H339 H 0.38417 0.85276 0.20476
 H340 H 0.38420 0.79558 0.14764
 H341 H 0.35208 0.79556 0.11564
 H342 H 0.29475 0.85266 0.11572
 C343 C 0.85546 0.35468 0.17732
 C344 C 0.84443 0.37601 0.18810
 C345 C 0.82268 0.38674 0.17766
 C346 C 0.81229 0.37604 0.15592
 C347 C 0.82311 0.35472 0.14493
 C348 C 0.84475 0.34396 0.15568
 C349 C 0.87673 0.34362 0.18816
 C350 C 0.88742 0.32182 0.17779
 C351 C 0.87673 0.31140 0.15605
 C352 C 0.85546 0.32226 0.14500
 C353 C 0.84444 0.31143 0.12373
 C354 C 0.82269 0.32188 0.11301
 C355 C 0.81229 0.34368 0.12367
 H356 H 0.85263 0.38400 0.20487
 H357 H 0.79552 0.38405 0.14769
 H358 H 0.88471 0.35184 0.20493
 H359 H 0.88472 0.29459 0.14787
 H360 H 0.85264 0.29461 0.11577
 H361 H 0.79553 0.35193 0.11567
 C362 C 0.85466 0.85498 0.67762
 C363 C 0.84358 0.87623 0.68849
 C364 C 0.82176 0.88691 0.67815
 C365 C 0.81133 0.87621 0.65641
 C366 C 0.82220 0.85496 0.64534
 C367 C 0.84392 0.84426 0.65599
 C368 C 0.87600 0.84397 0.68837
 C369 C 0.88674 0.82224 0.67792
 C370 C 0.87603 0.81183 0.65619
 C371 C 0.85469 0.82264 0.64522
 C372 C 0.84365 0.81181 0.62397
 C373 C 0.82183 0.82220 0.61334
 C374 C 0.81137 0.84393 0.62408
 H375 H 0.85181 0.88422 0.70524
 H376 H 0.79451 0.88418 0.64826
 H377 H 0.88400 0.85218 0.70513
 H378 H 0.88406 0.79507 0.64794
 H379 H 0.85190 0.79506 0.61594
 H380 H 0.79454 0.85213 0.61614
 C381 C 0.64535 0.64533 0.67821
 C382 C 0.65644 0.62406 0.68905
 C383 C 0.67819 0.61333 0.67860
 C384 C 0.68854 0.62400 0.65680
 C385 C 0.67767 0.64527 0.64576
 C386 C 0.65602 0.65601 0.65651
 C387 C 0.62406 0.65639 0.68905
 C388 C 0.61330 0.67812 0.67860
 C389 C 0.62396 0.68849 0.65680
 C390 C 0.64524 0.67764 0.64576
 C391 C 0.65621 0.68843 0.62443
 C392 C 0.67796 0.67800 0.61371
 C393 C 0.68843 0.65626 0.62443
 H394 H 0.64827 0.61609 0.70586
 H395 H 0.70531 0.61599 0.64856
 H396 H 0.61611 0.64821 0.70586
 H397 H 0.61593 0.70525 0.64855
 H398 H 0.64795 0.70519 0.61642
 H399 H 0.70521 0.64803 0.61642
 C400 C 0.64531 0.14473 0.17715
 C401 C 0.65638 0.12348 0.18802
 C402 C 0.67824 0.11284 0.17771
 C403 C 0.68871 0.12357 0.15600
 C404 C 0.67785 0.14484 0.14493
 C405 C 0.65609 0.15549 0.15555
 C406 C 0.62394 0.15570 0.18788
 C407 C 0.61320 0.17744 0.17744
 C408 C 0.62395 0.18790 0.15573
 C409 C 0.64533 0.17713 0.14479
 C410 C 0.65642 0.18800 0.12357
 C411 C 0.67827 0.17765 0.11296
 C412 C 0.68873 0.15591 0.12370
 H413 H 0.64812 0.11546 0.20475
 H414 H 0.70557 0.11563 0.14787
 H415 H 0.61591 0.14745 0.20462
 H416 H 0.61593 0.20467 0.14750
 H417 H 0.64817 0.20477 0.11555
 H418 H 0.70558 0.14775 0.11578
 C419 C 0.14511 0.64525 0.17723
 C420 C 0.15614 0.62395 0.18806
 C421 C 0.17793 0.61324 0.17768
 C422 C 0.18837 0.62395 0.15595
 C423 C 0.17755 0.64525 0.14492
 C424 C 0.15586 0.65598 0.15561
 C425 C 0.12381 0.65628 0.18804
 C426 C 0.11312 0.67808 0.17765
 C427 C 0.12384 0.68851 0.15591
 C428 C 0.14515 0.67767 0.14490
 C429 C 0.15621 0.68851 0.12365
 C430 C 0.17800 0.67809 0.11297
 C431 C 0.18841 0.65630 0.12367
 H432 H 0.14789 0.61595 0.20482
 H433 H 0.20518 0.61596 0.14777
 H434 H 0.11581 0.64806 0.20480
 H435 H 0.11586 0.70531 0.14772
 H436 H 0.14801 0.70531 0.11567
 H437 H 0.20521 0.64809 0.11570
 C438 C 0.14506 0.14515 0.67819
 C439 C 0.15613 0.12387 0.68904
 C440 C 0.17785 0.11310 0.67857
 C441 C 0.18818 0.12372 0.65674
 C442 C 0.17733 0.14499 0.64569
 C443 C 0.15571 0.15578 0.65645
 C444 C 0.12382 0.15625 0.68905
 C445 C 0.11309 0.17800 0.67860
 C446 C 0.12371 0.18832 0.65677
 C447 C 0.14496 0.17742 0.64570
 C448 C 0.15591 0.18816 0.62434
 C449 C 0.17763 0.17768 0.61360
 C450 C 0.18808 0.15593 0.62433
 H451 H 0.14798 0.11594 0.70587
 H452 H 0.20493 0.11567 0.64848
 H453 H 0.11588 0.14811 0.70588
 H454 H 0.11570 0.20508 0.64852
 H455 H 0.14767 0.20493 0.61633
 H456 H 0.20483 0.14767 0.61630
 C457 C 0.35476 0.64557 0.32217
 C458 C 0.34376 0.62426 0.31138
 C459 C 0.32202 0.61353 0.32182
 C460 C 0.31161 0.62423 0.34357
 C461 C 0.32240 0.64554 0.35456
 C462 C 0.34404 0.65629 0.34382
 C463 C 0.37602 0.65663 0.31132
 C464 C 0.38669 0.67842 0.32170
 C465 C 0.37599 0.68884 0.34345
 C466 C 0.35473 0.67798 0.35450
 C467 C 0.34369 0.68880 0.37578
 C468 C 0.32195 0.67836 0.38650
 C469 C 0.31157 0.65657 0.37584
 H470 H 0.35197 0.61627 0.29460
 H471 H 0.29485 0.61622 0.35181
 H472 H 0.38402 0.64842 0.29454
 H473 H 0.38395 0.70564 0.35164
 H474 H 0.35187 0.70561 0.38374
 H475 H 0.29481 0.64833 0.38385
 C476 C 0.35509 0.14468 0.82281
 C477 C 0.34408 0.12338 0.81202
 C478 C 0.32233 0.11267 0.82246
 C479 C 0.31193 0.12336 0.84422
 C480 C 0.32274 0.14467 0.85522
 C481 C 0.34438 0.15540 0.84446
 C482 C 0.37635 0.15574 0.81195
 C483 C 0.38702 0.17753 0.82231
 C484 C 0.37633 0.18794 0.84407
 C485 C 0.35508 0.17709 0.85514
 C486 C 0.34405 0.18792 0.87641
 C487 C 0.32231 0.17750 0.88714
 C488 C 0.31192 0.15571 0.87649
 H489 H 0.35228 0.11540 0.79524
 H490 H 0.29516 0.11536 0.85245
 H491 H 0.38433 0.14753 0.79517
 H492 H 0.38430 0.20475 0.85225
 H493 H 0.35225 0.20473 0.88437
 H494 H 0.29515 0.14748 0.88450
 C495 C 0.85525 0.64500 0.82257
 C496 C 0.84429 0.62365 0.81180
 C497 C 0.82257 0.61289 0.82225
 C498 C 0.81214 0.62359 0.84399
 C499 C 0.82289 0.64493 0.85497
 C500 C 0.84449 0.65572 0.84421
 C501 C 0.87648 0.65610 0.81171
 C502 C 0.88710 0.67793 0.82206
 C503 C 0.87637 0.68835 0.84379
 C504 C 0.85513 0.67745 0.85487
 C505 C 0.84406 0.68828 0.87613
 C506 C 0.82234 0.67779 0.88686
 C507 C 0.81202 0.65596 0.87622
 H508 H 0.85252 0.61567 0.79503
 H509 H 0.79539 0.61555 0.85224
 H510 H 0.88449 0.64788 0.79495
 H511 H 0.88429 0.70518 0.85196
 H512 H 0.85220 0.70511 0.88407
 H513 H 0.79528 0.64768 0.88423
 C514 C 0.85539 0.14483 0.32236
 C515 C 0.84435 0.12354 0.31156
 C516 C 0.82257 0.11287 0.32196
 C517 C 0.81214 0.12360 0.34369
 C518 C 0.82296 0.14489 0.35469
 C519 C 0.84464 0.15559 0.34398
 C520 C 0.87670 0.15584 0.31154
 C521 C 0.88740 0.17761 0.32193
 C522 C 0.87667 0.18806 0.34366
 C523 C 0.85536 0.17726 0.35468
 C524 C 0.84429 0.18812 0.37592
 C525 C 0.82251 0.17774 0.38660
 C526 C 0.81211 0.15596 0.37593
 H527 H 0.85258 0.11552 0.29480
 H528 H 0.79534 0.11564 0.35190
 H529 H 0.88471 0.14760 0.29479
 H530 H 0.88465 0.20484 0.35185
 H531 H 0.85250 0.20492 0.38388
 H532 H 0.79531 0.14777 0.38391
 C533 C 0.64528 0.35444 0.32161
 C534 C 0.65631 0.37574 0.31078
 C535 C 0.67803 0.38648 0.32123
 C536 C 0.68839 0.37582 0.34302
 C537 C 0.67757 0.35453 0.35405
 C538 C 0.65596 0.34376 0.34330
 C539 C 0.62402 0.34337 0.31077
 C540 C 0.61332 0.32161 0.32121
 C541 C 0.62399 0.31124 0.34300
 C542 C 0.64524 0.32210 0.35404
 C543 C 0.65624 0.31132 0.37535
 C544 C 0.67796 0.32178 0.38607
 C545 C 0.68836 0.34355 0.37536
 H546 H 0.64814 0.38370 0.29397
 H547 H 0.70514 0.38384 0.35127
 H548 H 0.61605 0.35155 0.29397
 H549 H 0.61600 0.29447 0.35123
 H550 H 0.64803 0.29454 0.38336
 H551 H 0.70511 0.35180 0.38337
 C552 C 0.64469 0.85516 0.82300
 C553 C 0.65572 0.87646 0.81220
 C554 C 0.67752 0.88711 0.82258
 C555 C 0.68797 0.87633 0.84428
 C556 C 0.67714 0.85503 0.85528
 C557 C 0.65545 0.84436 0.84459
 C558 C 0.62338 0.84418 0.81219
 C559 C 0.61269 0.82238 0.82255
 C560 C 0.62342 0.81189 0.84426
 C561 C 0.64473 0.82267 0.85527
 C562 C 0.65580 0.81176 0.87648
 C563 C 0.67760 0.82212 0.88714
 C564 C 0.68800 0.84391 0.87649
 H565 H 0.64748 0.88451 0.79547
 H566 H 0.70478 0.88428 0.85246
 H567 H 0.61537 0.85245 0.79545
 H568 H 0.61544 0.79508 0.85243
 H569 H 0.64759 0.79496 0.88443
 H570 H 0.70481 0.85209 0.88445
 C571 C 0.14483 0.35515 0.82319
 C572 C 0.15583 0.37646 0.81239
 C573 C 0.17764 0.38711 0.82275
 C574 C 0.18811 0.37633 0.84443
 C575 C 0.17731 0.35502 0.85543
 C576 C 0.15561 0.34434 0.84476
 C577 C 0.12351 0.34417 0.81240
 C578 C 0.11284 0.32236 0.82275
 C579 C 0.12359 0.31186 0.84444
 C580 C 0.14491 0.32264 0.85544
 C581 C 0.15601 0.31173 0.87664
 C582 C 0.17780 0.32210 0.88729
 C583 C 0.18819 0.34390 0.87663
 H584 H 0.14757 0.38451 0.79567
 H585 H 0.20493 0.38428 0.85260
 H586 H 0.11549 0.35245 0.79567
 H587 H 0.11563 0.29504 0.85261
 H588 H 0.14781 0.29492 0.88459
 H589 H 0.20500 0.35208 0.88459
 C590 C 0.14499 0.85541 0.32217
 C591 C 0.15602 0.87671 0.31136
 C592 C 0.17775 0.88743 0.32181
 C593 C 0.18813 0.87674 0.34358
 C594 C 0.17731 0.85544 0.35459
 C595 C 0.15568 0.84470 0.34385
 C596 C 0.12373 0.84435 0.31132
 C597 C 0.11304 0.82257 0.32173
 C598 C 0.12371 0.81218 0.34351
 C599 C 0.14496 0.82303 0.35455
 C600 C 0.15596 0.81220 0.37584
 C601 C 0.17769 0.82263 0.38657
 C602 C 0.18811 0.84441 0.37588
 H603 H 0.14783 0.88469 0.29458
 H604 H 0.20489 0.88474 0.35181
 H605 H 0.11576 0.85255 0.29453
 H606 H 0.11572 0.79539 0.35172
 H607 H 0.14774 0.79541 0.38382
 H608 H 0.20487 0.85263 0.38389
 O609 O 0.24733 1.02533 0.28183
 O610 O 0.28179 0.97637 0.24734
 O611 O 0.28195 1.02533 0.24754
 O612 O 0.24733 0.97637 0.28179
 O613 O 0.21808 0.97649 0.25249
 O614 O 0.25271 1.02546 0.21822
 O615 O 0.25253 0.97651 0.21804
 O616 O 0.21809 1.02544 0.25251
 Cu617 Cu 0.26753 1.00083 0.26757
 Cu618 Cu 0.23242 1.00099 0.23237
 C619 C 0.22692 1.03383 0.27295
 C620 C 0.27294 0.96800 0.22690
 C621 C 0.27313 1.03383 0.22714
 C622 C 0.22691 0.96799 0.27289
 O623 O 0.25224 0.52465 0.71838
 O624 O 0.21778 0.47591 0.75309
 O625 O 0.21790 0.52486 0.75295
 O626 O 0.25210 0.47570 0.71851
 O627 O 0.28151 0.47568 0.74766
 O628 O 0.24730 0.52483 0.78211
 O629 O 0.24718 0.47587 0.78224
 O630 O 0.28164 0.52462 0.74754
 Cu631 Cu 0.23205 0.50028 0.73281
 Cu632 Cu 0.26736 0.50025 0.76782
 C633 C 0.27272 0.53304 0.72714
 C634 C 0.22670 0.46749 0.77348
 C635 C 0.22687 0.53332 0.77330
 C636 C 0.27255 0.46723 0.72730
 O637 O 0.75269 -0.02487 0.28208
 O638 O 0.71841 0.02412 0.24749
 O639 O 0.71828 -0.02482 0.24762
 O640 O 0.75287 0.02408 0.28193
 O641 O 0.78219 0.02392 0.25267
 O642 O 0.74760 -0.02498 0.21836
 O643 O 0.74774 0.02396 0.21824
 O644 O 0.78202 -0.02503 0.25283
 Cu645 Cu 0.73262 -0.00035 0.26772
 Cu646 Cu 0.76784 -0.00055 0.23259
 C647 C 0.77311 -0.03340 0.27325
 C648 C 0.72732 0.03247 0.22706
 C649 C 0.72714 -0.03332 0.22723
 C650 C 0.77333 0.03243 0.27305
 O651 O 0.75298 0.47501 0.78199
 O652 O 0.71853 0.52418 0.74781
 O653 O 0.71852 0.47524 0.74756
 O654 O 0.75309 0.52397 0.78212
 O655 O 0.78236 0.52402 0.75280
 O656 O 0.74779 0.47530 0.71825
 O657 O 0.74780 0.52424 0.71849
 O658 O 0.78225 0.47506 0.75267
 Cu659 Cu 0.73285 0.49959 0.76782
 Cu660 Cu 0.76799 0.49966 0.73261
 C661 C 0.77339 0.46656 0.77307
 C662 C 0.72738 0.53268 0.72741
 C663 C 0.72735 0.46688 0.72710
 C664 C 0.77352 0.53241 0.77325
 O665 O 0.24737 0.47542 0.21833
 O666 O 0.28185 0.52444 0.25258
 O667 O 0.28185 0.47549 0.25272
 O668 O 0.24743 0.52436 0.21813
 O669 O 0.21811 0.52447 0.24739
 O670 O 0.25254 0.47560 0.28200
 O671 O 0.25254 0.52455 0.28185
 O672 O 0.21806 0.47553 0.24760
 Cu673 Cu 0.26757 0.49991 0.23250
 Cu674 Cu 0.23237 0.50005 0.26765
 C675 C 0.22693 0.46703 0.22722
 C676 C 0.27297 0.53294 0.27296
 C677 C 0.27298 0.46712 0.27316
 C678 C 0.22699 0.53284 0.22696
 O679 O 0.74723 1.02484 0.78217
 O680 O 0.78155 0.97577 0.74773
 O681 O 0.78162 1.02471 0.74765
 O682 O 0.74714 0.97589 0.78223
 O683 O 0.71778 0.97593 0.75302
 O684 O 0.75227 1.02474 0.71844
 O685 O 0.75220 0.97580 0.71853
 O686 O 0.71789 1.02488 0.75296
 Cu687 Cu 0.76733 1.00030 0.76788
 Cu688 Cu 0.73208 1.00034 0.73280
 C689 C 0.72681 1.03332 0.77333
 C690 C 0.77264 0.96734 0.72735
 C691 C 0.77273 1.03313 0.72724
 C692 C 0.72667 0.96749 0.77342
 O693 O 0.74769 0.52444 0.28159
 O694 O 0.78227 0.47563 0.24708
 O695 O 0.78215 0.52459 0.24714
 O696 O 0.74763 0.47550 0.28136
 O697 O 0.71840 0.47559 0.25203
 O698 O 0.75291 0.52465 0.21783
 O699 O 0.75303 0.47569 0.21776
 O700 O 0.71844 0.52454 0.25227
 Cu701 Cu 0.76787 0.50003 0.26723
 Cu702 Cu 0.73276 0.50013 0.23202
 C703 C 0.72727 0.53290 0.27272
 C704 C 0.77345 0.46724 0.22664
 C705 C 0.77331 0.53308 0.22674
 C706 C 0.72723 0.46709 0.27243
 O707 O 0.25278 -0.02509 0.78207
 O708 O 0.21823 0.02405 0.74792
 O709 O 0.21812 -0.02490 0.74784
 O710 O 0.25275 0.02386 0.78228
 O711 O 0.28196 0.02392 0.75292
 O712 O 0.24733 -0.02486 0.71846
 O713 O 0.24744 0.02408 0.71855
 O714 O 0.28198 -0.02504 0.75269
 Cu715 Cu 0.23254 -0.00052 0.76798
 Cu716 Cu 0.26762 -0.00047 0.73271
 C717 C 0.27317 -0.03353 0.77310
 C718 C 0.22704 0.03253 0.72750
 C719 C 0.22691 -0.03328 0.72737
 C720 C 0.27316 0.03230 0.77338
 O721 O 0.24752 0.28165 0.97587
 O722 O 0.28204 0.24723 1.02476
 O723 O 0.28200 0.24715 0.97587
 O724 O 0.24747 0.28162 1.02475
 O725 O 0.21822 0.25229 1.02477
 O726 O 0.25273 0.21782 0.97591
 O727 O 0.25278 0.21790 1.02480
 O728 O 0.21826 0.25232 0.97589
 Cu729 Cu 0.26770 0.26736 1.00030
 Cu730 Cu 0.23256 0.23214 1.00034
 C731 C 0.22710 0.27277 0.96746
 C732 C 0.27320 0.22680 1.03321
 C733 C 0.27316 0.22670 0.96747
 C734 C 0.22705 0.27273 1.03318
 O735 O 0.28155 0.74772 0.52427
 O736 O 0.24710 0.78227 0.47544
 O737 O 0.24697 0.78210 0.52433
 O738 O 0.28157 0.74779 0.47539
 O739 O 0.25232 0.71846 0.47532
 O740 O 0.21772 0.75276 0.52424
 O741 O 0.21784 0.75294 0.47535
 O742 O 0.25230 0.71838 0.52420
 Cu743 Cu 0.26724 0.76792 0.49987
 Cu744 Cu 0.23211 0.73269 0.49977
 C745 C 0.27271 0.72725 0.53265
 C746 C 0.22669 0.77341 0.46698
 C747 C 0.22655 0.77318 0.53272
 C748 C 0.27274 0.72736 0.46692
 O749 O 0.28216 0.75284 -0.02463
 O750 O 0.24768 0.71840 0.02428
 O751 O 0.24778 0.71831 -0.02461
 O752 O 0.28204 0.75297 0.02426
 O753 O 0.25266 0.78221 0.02416
 O754 O 0.21841 0.74756 -0.02471
 O755 O 0.21830 0.74765 0.02417
 O756 O 0.25278 0.78209 -0.02473
 Cu757 Cu 0.26787 0.73269 -0.00016
 Cu758 Cu 0.23259 0.76782 -0.00029
 C759 C 0.27325 0.77324 -0.03312
 C760 C 0.22721 0.72724 0.03265
 C761 C 0.22735 0.72713 -0.03309
 C762 C 0.27310 0.77340 0.03263
 O763 O 0.25208 0.28155 0.52458
 O764 O 0.21774 0.24712 0.47562
 O765 O 0.21769 0.24704 0.52452
 O766 O 0.25224 0.28153 0.47569
 O767 O 0.28155 0.25221 0.47574
 O768 O 0.24701 0.21773 0.52456
 O769 O 0.24705 0.21780 0.47565
 O770 O 0.28140 0.25224 0.52462
 Cu771 Cu 0.23199 0.26725 0.50010
 Cu772 Cu 0.26719 0.23205 0.50015
 C773 C 0.27250 0.27268 0.53303
 C774 C 0.22664 0.22669 0.46719
 C775 C 0.22656 0.22660 0.53297
 C776 C 0.27270 0.27265 0.46730
 O777 O 0.74726 0.78158 0.97574
 O778 O 0.78171 0.74700 1.02458
 O779 O 0.78181 0.74717 0.97570
 O780 O 0.74723 0.78148 1.02462
 O781 O 0.71797 0.75216 1.02455
 O782 O 0.75256 0.71784 0.97561
 O783 O 0.75244 0.71768 1.02450
 O784 O 0.71799 0.75226 0.97567
 Cu785 Cu 0.76744 0.76725 1.00017
 Cu786 Cu 0.73230 0.73204 1.00007
 C787 C 0.72684 0.77272 0.96730
 C788 C 0.77285 0.72655 1.03296
 C789 C 0.77299 0.72675 0.96723
 C790 C 0.72680 0.77259 1.03302
 O791 O 0.74743 0.28183 0.47508
 O792 O 0.78190 0.24749 0.52407
 O793 O 0.78200 0.24744 0.47519
 O794 O 0.74741 0.28196 0.52397
 O795 O 0.71816 0.25262 0.52401
 O796 O 0.75275 0.21810 0.47523
 O797 O 0.75265 0.21816 0.52410
 O798 O 0.71818 0.25249 0.47512
 Cu799 Cu 0.76762 0.26763 0.49957
 Cu800 Cu 0.73250 0.23240 0.49962
 C801 C 0.72702 0.27292 0.46666
 C802 C 0.77306 0.22706 0.53253
 C803 C 0.77318 0.22698 0.46680
 C804 C 0.72699 0.27308 0.53240
 O805 O 0.78226 0.25259 -0.02471
 O806 O 0.74789 0.21803 0.02421
 O807 O 0.74790 0.21804 -0.02468
 O808 O 0.78240 0.25245 0.02418
 O809 O 0.75307 0.28176 0.02426
 O810 O 0.71857 0.24734 -0.02462
 O811 O 0.71857 0.24733 0.02427
 O812 O 0.75293 0.28189 -0.02463
 Cu813 Cu 0.76806 0.23234 -0.00026
 Cu814 Cu 0.73284 0.26752 -0.00017
 C815 C 0.77335 0.27303 -0.03311
 C816 C 0.72746 0.22689 0.03266
 C817 C 0.72745 0.22692 -0.03307
 C818 C 0.77352 0.27287 0.03264
 O819 O 0.71786 0.74738 0.47574
 O820 O 0.75228 0.78192 0.52459
 O821 O 0.75221 0.78195 0.47570
 O822 O 0.71788 0.74742 0.52464
 O823 O 0.74725 0.71816 0.52462
 O824 O 0.78158 0.75270 0.47567
 O825 O 0.78165 0.75266 0.52455
 O826 O 0.74724 0.71813 0.47572
 Cu827 Cu 0.73210 0.76761 0.50017
 Cu828 Cu 0.76738 0.73247 0.50014
 C829 C 0.72678 0.72697 0.46731
 C830 C 0.77274 0.77308 0.53299
 C831 C 0.77265 0.77312 0.46725
 C832 C 0.72680 0.72700 0.53307
 O833 O 1.02526 0.28166 0.24741
 O834 O 0.97633 0.24712 0.28179
 O835 O 1.02528 0.24715 0.28181
 O836 O 0.97631 0.28159 0.24735
 O837 O 0.97638 0.25230 0.21808
 O838 O 1.02536 0.21786 0.25253
 O839 O 0.97641 0.21782 0.25253
 O840 O 1.02533 0.25237 0.21813
 Cu841 Cu 1.00079 0.26732 0.26753
 Cu842 Cu 1.00088 0.23215 0.23238
 C843 C 1.03373 0.27281 0.22701
 C844 C 0.96794 0.22668 0.27293
 C845 C 1.03377 0.22673 0.27295
 C846 C 0.96791 0.27272 0.22693
 O847 O 0.47562 0.24727 0.78182
 O848 O 0.52440 0.28180 0.74724
 O849 O 0.47546 0.28173 0.74737
 O850 O 0.52455 0.24736 0.78171
 O851 O 0.52457 0.21804 0.75247
 O852 O 0.47547 0.25241 0.71813
 O853 O 0.52441 0.25248 0.71800
 O854 O 0.47564 0.21794 0.75257
 Cu855 Cu 0.50001 0.26749 0.76747
 Cu856 Cu 0.50002 0.23227 0.73235
 C857 C 0.46722 0.22681 0.77300
 C858 C 0.53281 0.27294 0.72682
 C859 C 0.46701 0.27283 0.72699
 C860 C 0.53301 0.22694 0.77286
 O861 O 0.02398 0.25296 0.78237
 O862 O -0.02480 0.21854 0.74775
 O863 O 0.02413 0.21850 0.74795
 O864 O -0.02497 0.25304 0.78214
 O865 O -0.02484 0.28234 0.75285
 O866 O 0.02426 0.24779 0.71867
 O867 O -0.02467 0.24784 0.71846
 O868 O 0.02411 0.28227 0.75309
 Cu869 Cu -0.00043 0.23282 0.76800
 Cu870 Cu -0.00027 0.26801 0.73283
 C871 C 0.03245 0.27339 0.77354
 C872 C -0.03314 0.22741 0.72730
 C873 C 0.03264 0.22735 0.72757
 C874 C -0.03337 0.27348 0.77322
 O875 O 0.47529 0.28130 0.25232
 O876 O 0.52408 0.24682 0.21765
 O877 O 0.47512 0.24684 0.21788
 O878 O 0.52422 0.28131 0.25204
 O879 O 0.52436 0.25201 0.28132
 O880 O 0.47524 0.21754 0.24717
 O881 O 0.52420 0.21751 0.24692
 O882 O 0.47542 0.25200 0.28160
 Cu883 Cu 0.49966 0.26701 0.23203
 Cu884 Cu 0.49982 0.23182 0.26719
 C885 C 0.46695 0.27244 0.27277
 C886 C 0.53256 0.22639 0.22648
 C887 C 0.46671 0.22642 0.22680
 C888 C 0.53275 0.27244 0.27241
 O889 O 0.97582 0.75274 0.71795
 O890 O 1.02478 0.71824 0.75235
 O891 O 0.97584 0.71828 0.75241
 O892 O 1.02477 0.75272 0.71792
 O893 O 1.02478 0.78202 0.74719
 O894 O 0.97584 0.74758 0.78167
 O895 O 1.02478 0.74754 0.78161
 O896 O 0.97582 0.78204 0.74721
 Cu897 Cu 1.00030 0.73255 0.73222
 Cu898 Cu 1.00031 0.76774 0.76736
 C899 C 0.96738 0.77317 0.72682
 C900 C 1.03321 0.72710 0.77275
 C901 C 0.96742 0.72715 0.77282
 C902 C 1.03321 0.77315 0.72678
 O903 O 0.52470 0.78227 0.24711
 O904 O 0.47562 0.74794 0.28148
 O905 O 0.52455 0.74784 0.28158
 O906 O 0.47575 0.78243 0.24706
 O907 O 0.47575 0.75312 0.21781
 O908 O 0.52456 0.71853 0.25232
 O909 O 0.47563 0.71863 0.25223
 O910 O 0.52469 0.75296 0.21785
 Cu911 Cu 0.50015 0.76807 0.26724
 Cu912 Cu 0.50016 0.73287 0.23211
 C913 C 0.53316 0.77337 0.22672
 C914 C 0.46717 0.72752 0.27262
 C915 C 0.53296 0.72738 0.27275
 C916 C 0.46734 0.77357 0.22664
 O917 O -0.02460 0.71819 0.24748
 O918 O 0.02432 0.75283 0.28168
 O919 O -0.02461 0.75275 0.28181
 O920 O 0.02433 0.71833 0.24729
 O921 O 0.02419 0.74759 0.21797
 O922 O -0.02474 0.78201 0.25249
 O923 O 0.02419 0.78209 0.25236
 O924 O -0.02475 0.74745 0.21815
 Cu925 Cu -0.00012 0.73258 0.26751
 Cu926 Cu -0.00030 0.76772 0.23230
 C927 C -0.03310 0.72701 0.22708
 C928 C 0.03269 0.77327 0.27277
 C929 C -0.03311 0.77316 0.27294
 C930 C 0.03269 0.72718 0.22684
 O931 O 0.47516 0.71843 0.74752
 O932 O 0.52388 0.75292 0.78216
 O933 O 0.47493 0.75293 0.78192
 O934 O 0.52410 0.71842 0.74778
 O935 O 0.52422 0.74771 0.71849
 O936 O 0.47504 0.78221 0.75262
 O937 O 0.52399 0.78222 0.75287
 O938 O 0.47528 0.74772 0.71822
 Cu939 Cu 0.49950 0.73274 0.76779
 Cu940 Cu 0.49965 0.76791 0.73261
 C941 C 0.46682 0.72729 0.72706
 C942 C 0.53234 0.77336 0.77333
 C943 C 0.46651 0.77335 0.77300
 C944 C 0.53263 0.72728 0.72740
 N945 N 0.41835 0.28784 0.31927
 C946 C 0.40841 0.30934 0.30982
 N947 N 0.41829 0.31886 0.28836
 N948 N 0.43716 0.30730 0.27674
 C949 C 0.44691 0.28575 0.28615
 N950 N 0.43722 0.27627 0.30767
 N951 N 0.41753 0.78871 0.81909
 C952 C 0.40745 0.81011 0.80951
 N953 N 0.41747 0.81957 0.78805
 N954 N 0.43648 0.80807 0.77661
 C955 C 0.44630 0.78663 0.78617
 N956 N 0.43654 0.77720 0.80767
 N957 N -0.08235 0.28885 0.81930
 C958 C -0.09242 0.31025 0.80972
 N959 N -0.08238 0.31972 0.78827
 N960 N -0.06337 0.30822 0.77684
 C961 C -0.05356 0.28677 0.78640
 N962 N -0.06334 0.27733 0.80789
 N963 N -0.08192 0.81948 0.28831
 C964 C -0.09182 0.80998 0.30978
 N965 N -0.08183 0.78853 0.31930
 N966 N -0.06291 0.77699 0.30776
 C967 C -0.05321 0.78645 0.28624
 N968 N -0.06300 0.80794 0.27676
 N969 N 0.58162 0.68092 0.28821
 C970 C 0.59151 0.69040 0.30967
 N971 N 0.58158 0.71188 0.31915
 N972 N 0.56271 0.72348 0.30758
 C973 C 0.55301 0.71403 0.28607
 N974 N 0.56275 0.69250 0.27663
 N975 N 0.58186 0.21163 0.81909
 C976 C 0.59182 0.19016 0.80959
 N977 N 0.58187 0.18064 0.78817
 N978 N 0.56293 0.19216 0.77665
 C979 C 0.55316 0.21367 0.78611
 N980 N 0.56292 0.22316 0.80758
 N981 N 1.08201 0.68073 0.78808
 C982 C 1.09194 0.69023 0.80951
 N983 N 1.08199 0.71169 0.81902
 N984 N 1.06307 0.72325 0.80751
 C985 C 1.05332 0.71379 0.78602
 N986 N 1.06309 0.69228 0.77655
 N987 N 1.08273 0.18051 0.28819
 C988 C 1.09269 0.18998 0.30966
 N989 N 1.08259 0.21138 0.31920
 N990 N 1.06362 0.22290 0.30772
 C991 C 1.05392 0.21346 0.28621
 N992 N 1.06376 0.19201 0.27670
 N993 N 0.58148 0.31933 0.71136
 C994 C 0.59140 0.30983 0.68991
 N995 N 0.58148 0.28836 0.68043
 N996 N 0.56259 0.27680 0.69198
 C997 C 0.55286 0.28626 0.71349
 N998 N 0.56259 0.30778 0.72293
 N999 N 0.58217 0.81948 0.21147
 C1000 C 0.59220 0.80994 0.19005
 N1001 N 0.58212 0.78852 0.18054
 N1002 N 0.56311 0.77707 0.19201
 C1003 C 0.55335 0.78658 0.21348
 N1004 N 0.56316 0.80804 0.22296
 N1005 N 1.08252 0.31915 0.21175
 C1006 C 1.09256 0.30967 0.19031
 N1007 N 1.08256 0.28822 0.18079
 N1008 N 1.06362 0.27667 0.19227
 C1009 C 1.05384 0.28612 0.21376
 N1010 N 1.06358 0.30761 0.22325
 N1011 N 1.08209 0.81938 0.71150
 C1012 C 1.09210 0.80990 0.69005
 N1013 N 1.08205 0.78848 0.68052
 N1014 N 1.06309 0.77696 0.69201
 C1015 C 1.05334 0.78642 0.71351
 N1016 N 1.06313 0.80788 0.72300
 N1017 N 0.41825 0.71189 0.68060
 C1018 C 0.40831 0.69041 0.69007
 N1019 N 0.41819 0.68090 0.71154
 N1020 N 0.43705 0.69245 0.72313
 C1021 C 0.44680 0.71398 0.71370
 N1022 N 0.43711 0.72345 0.69218
 N1023 N 0.41765 0.18028 0.21181
 C1024 C 0.40761 0.18977 0.19037
 N1025 N 0.41770 0.21114 0.18077
 N1026 N 0.43672 0.22262 0.19216
 C1027 C 0.44650 0.21317 0.21365
 N1028 N 0.43667 0.19174 0.22322
 N1029 N -0.08187 0.71142 0.18089
 C1030 C -0.09176 0.68997 0.19048
 N1031 N -0.08180 0.68054 0.21194
 N1032 N -0.06290 0.69214 0.22342
 C1033 C -0.05320 0.71364 0.21388
 N1034 N -0.06297 0.72303 0.19236
 N1035 N -0.08170 0.21201 0.68083
 C1036 C -0.09164 0.19054 0.69031
 N1037 N -0.08178 0.18104 0.71178
 N1038 N -0.06293 0.19259 0.72338
 C1039 C -0.05317 0.21411 0.71395
 N1040 N -0.06285 0.22358 0.69242
 N1041 N 0.31930 0.41833 0.28859
 C1042 C 0.30978 0.40842 0.31004
 N1043 N 0.28831 0.41839 0.31953
 N1044 N 0.27678 0.43731 0.30798
 C1045 C 0.28626 0.44703 0.28648
 N1046 N 0.30778 0.43725 0.27704
 N1047 N 0.31945 -0.08253 0.78809
 C1048 C 0.31004 -0.09255 0.80957
 N1049 N 0.28865 -0.08248 0.81919
 N1050 N 0.27710 -0.06349 0.80778
 C1051 C 0.28649 -0.05372 0.78626
 N1052 N 0.30792 -0.06353 0.77667
 N1053 N 0.78870 0.41757 0.81918
 C1054 C 0.81012 0.40751 0.80962
 N1055 N 0.81961 0.41754 0.78818
 N1056 N 0.80811 0.43655 0.77673
 C1057 C 0.78665 0.44635 0.78626
 N1058 N 0.77720 0.43658 0.80774
 N1059 N 0.78827 -0.08224 0.31957
 C1060 C 0.80974 -0.09230 0.31011
 N1061 N 0.81930 -0.08230 0.28869
 N1062 N 0.80783 -0.06334 0.27715
 C1063 C 0.78633 -0.05354 0.28657
 N1064 N 0.77680 -0.06327 0.30804
 N1065 N 0.31912 0.58165 0.71153
 C1066 C 0.30957 0.59158 0.69011
 N1067 N 0.28806 0.58169 0.68069
 N1068 N 0.27651 0.56282 0.69229
 C1069 C 0.28602 0.55307 0.71376
 N1070 N 0.30758 0.56277 0.72313
 N1071 N 0.31950 1.08265 0.21202
 C1072 C 0.31009 1.09268 0.19055
 N1073 N 0.28867 1.08267 0.18098
 N1074 N 0.27710 1.06373 0.19243
 C1075 C 0.28648 1.05396 0.21394
 N1076 N 0.30794 1.06370 0.22348
 N1077 N 0.81949 0.58206 0.21158
 C1078 C 0.81000 0.59208 0.19013
 N1079 N 0.78860 0.58201 0.18058
 N1080 N 0.77712 0.56302 0.19204
 C1081 C 0.78657 0.55326 0.21353
 N1082 N 0.80801 0.56307 0.22305
 N1083 N 0.81913 1.08178 0.71173
 C1084 C 0.80962 1.09170 0.69028
 N1085 N 0.78813 1.08180 0.68083
 N1086 N 0.77657 1.06292 0.69240
 C1087 C 0.78604 1.05319 0.71390
 N1088 N 0.80758 1.06290 0.72331
 N1089 N 0.68088 0.58164 0.28818
 C1090 C 0.69035 0.59151 0.30966
 N1091 N 0.71180 0.58153 0.31915
 N1092 N 0.72338 0.56265 0.30758
 C1093 C 0.71394 0.55297 0.28605
 N1094 N 0.69243 0.56276 0.27660
 N1095 N 0.68064 1.08230 0.78863
 C1096 C 0.69019 1.09234 0.81002
 N1097 N 0.71164 1.08228 0.81950
 N1098 N 0.72311 1.06328 0.80803
 C1099 C 0.71358 1.05350 0.78659
 N1100 N 0.69209 1.06330 0.77714
 N1101 N 0.21177 0.58234 0.81944
 C1102 C 0.19032 0.59240 0.80997
 N1103 N 0.18074 0.58235 0.78859
 N1104 N 0.19218 0.56333 0.77711
 C1105 C 0.21368 0.55353 0.78655
 N1106 N 0.22322 0.56332 0.80797
 N1107 N 0.21149 1.08261 0.31922
 C1108 C 0.19008 1.09270 0.30967
 N1109 N 0.18065 1.08273 0.28819
 N1110 N 0.19217 1.06378 0.27669
 C1111 C 0.21363 1.05395 0.28621
 N1112 N 0.22304 1.06366 0.30774
 N1113 N 0.71185 0.41837 0.68061
 C1114 C 0.69037 0.40845 0.69008
 N1115 N 0.68089 0.41831 0.71158
 N1116 N 0.69248 0.43714 0.72319
 C1117 C 0.71401 0.44687 0.71375
 N1118 N 0.72344 0.43720 0.69220
 N1119 N 0.68068 -0.08197 0.21195
 C1120 C 0.69016 -0.09194 0.19051
 N1121 N 0.71165 -0.08207 0.18099
 N1122 N 0.72324 -0.06319 0.19250
 C1123 C 0.71380 -0.05340 0.21399
 N1124 N 0.69226 -0.06309 0.22347
 N1125 N 0.18062 0.41820 0.21204
 C1126 C 0.19011 0.40824 0.19060
 N1127 N 0.21155 0.41818 0.18105
 N1128 N 0.22309 0.43712 0.19251
 C1129 C 0.21364 0.44689 0.21401
 N1130 N 0.19215 0.43714 0.22353
 N1131 N 0.21131 -0.08185 0.68098
 C1132 C 0.18988 -0.09180 0.69054
 N1133 N 0.18046 -0.08193 0.71205
 N1134 N 0.19206 -0.06307 0.72360
 C1135 C 0.21355 -0.05331 0.71408
 N1136 N 0.22292 -0.06299 0.69252
 N1137 N 0.28817 0.31901 0.41861
 C1138 C 0.30964 0.30947 0.40870
 N1139 N 0.31912 0.28799 0.41863
 N1140 N 0.30755 0.27645 0.43751
 C1141 C 0.28603 0.28595 0.44724
 N1142 N 0.27659 0.30748 0.43750
 N1143 N 0.28849 0.81945 -0.08201
 C1144 C 0.30995 0.80992 -0.09195
 N1145 N 0.31951 0.78850 -0.08196
 N1146 N 0.30803 0.77701 -0.06299
 C1147 C 0.28651 0.78650 -0.05324
 N1148 N 0.27699 0.80797 -0.06305
 N1149 N 0.78849 0.31936 -0.08194
 C1150 C 0.80995 0.30987 -0.09192
 N1151 N 0.81954 0.28843 -0.08198
 N1152 N 0.80808 0.27689 -0.06303
 C1153 C 0.78658 0.28634 -0.05323
 N1154 N 0.77703 0.30783 -0.06298
 N1155 N 0.78786 0.81946 0.41846
 C1156 C 0.80935 0.80999 0.40853
 N1157 N 0.81893 0.78856 0.41848
 N1158 N 0.80744 0.77700 0.43740
 C1159 C 0.78590 0.78643 0.44714
 N1160 N 0.77636 0.80792 0.43738
 N1161 N 0.71159 0.31944 0.58110
 C1162 C 0.69014 0.30992 0.59105
 N1163 N 0.68064 0.28846 0.58113
 N1164 N 0.69217 0.27691 0.56222
 C1165 C 0.71368 0.28639 0.55247
 N1166 N 0.72314 0.30790 0.56220
 N1167 N 0.68047 0.78787 1.08180
 C1168 C 0.68996 0.80933 1.09173
 N1169 N 0.71140 0.81886 1.08178
 N1170 N 0.72295 0.80735 1.06286
 C1171 C 0.71349 0.78584 1.05312
 N1172 N 0.69200 0.77634 1.06288
 N1173 N 0.21160 0.31903 1.08192
 C1174 C 0.19017 0.30947 1.09187
 N1175 N 0.18070 0.28800 1.08194
 N1176 N 0.19225 0.27649 1.06303
 C1177 C 0.21373 0.28600 1.05327
 N1178 N 0.22316 0.30753 1.06300
 N1179 N 0.21109 0.81934 0.58158
 C1180 C 0.18967 0.80976 0.59151
 N1181 N 0.18020 0.78830 0.58154
 N1182 N 0.19175 0.77684 0.56259
 C1183 C 0.21322 0.78639 0.55284
 N1184 N 0.22265 0.80790 0.56263
 N1185 N 0.28812 0.68086 0.58134
 C1186 C 0.30956 0.69038 0.59128
 N1187 N 0.31905 0.71186 0.58136
 N1188 N 0.30751 0.72342 0.56247
 C1189 C 0.28601 0.71394 0.55273
 N1190 N 0.27657 0.69241 0.56245
 N1191 N 0.28855 0.18058 1.08207
 C1192 C 0.30998 0.19014 1.09202
 N1193 N 0.31948 0.21158 1.08204
 N1194 N 0.30797 0.22307 1.06309
 C1195 C 0.28649 0.21355 1.05334
 N1196 N 0.27703 0.19206 1.06312
 N1197 N 0.81912 0.71116 1.08173
 C1198 C 0.80960 0.68970 1.09167
 N1199 N 0.78815 0.68019 1.08172
 N1200 N 0.77664 0.69172 1.06280
 C1201 C 0.78612 0.71323 1.05305
 N1202 N 0.80762 0.72270 1.06281
 N1203 N 0.78839 0.18080 0.58136
 C1204 C 0.80981 0.19035 0.59131
 N1205 N 0.81931 0.21181 0.58136
 N1206 N 0.80781 0.22332 0.56242
 C1207 C 0.78633 0.21381 0.55266
 N1208 N 0.77687 0.19230 0.56242
 N1209 N 0.71156 0.68065 0.41854
 C1210 C 0.69009 0.69015 0.40861
 N1211 N 0.68052 0.71158 0.41856
 N1212 N 0.69200 0.72312 0.43748
 C1213 C 0.71353 0.71366 0.44722
 N1214 N 0.72306 0.69218 0.43746
 N1215 N 0.68113 0.21158 -0.08179
 C1216 C 0.69067 0.19013 -0.09174
 N1217 N 0.71214 0.18062 -0.08182
 N1218 N 0.72367 0.19214 -0.06292
 C1219 C 0.71417 0.21364 -0.05316
 N1220 N 0.69265 0.22311 -0.06288
 N1221 N 0.18113 0.71166 -0.08185
 C1222 C 0.19073 0.69022 -0.09178
 N1223 N 0.21221 0.68076 -0.08184
 N1224 N 0.22369 0.69231 -0.06293
 C1225 C 0.21413 0.71380 -0.05318
 N1226 N 0.19260 0.72322 -0.06294
 N1227 N 0.18050 0.21151 0.41825
 C1228 C 0.19007 0.19009 0.40827
 N1229 N 0.21149 0.18052 0.41826
 N1230 N 0.22294 0.19198 0.43725
 C1231 C 0.21342 0.21346 0.44703
 N1232 N 0.19195 0.22298 0.43724
 N1233 N 0.28769 0.41831 0.68106
 C1234 C 0.30919 0.40837 0.69049
 N1235 N 0.31878 0.41833 0.71187
 N1236 N 0.30730 0.43729 0.72341
 C1237 C 0.28576 0.44705 0.71402
 N1238 N 0.27620 0.43727 0.69259
 N1239 N 0.28825 0.91926 0.18053
 C1240 C 0.30971 0.90927 0.19001
 N1241 N 0.31923 0.91916 0.21145
 N1242 N 0.30772 0.93809 0.22302
 C1243 C 0.28621 0.94789 0.21358
 N1244 N 0.27672 0.93818 0.19209
 N1245 N 0.78894 0.41848 0.18036
 C1246 C 0.81038 0.40852 0.18991
 N1247 N 0.81984 0.41844 0.21136
 N1248 N 0.80828 0.43737 0.22287
 C1249 C 0.78679 0.44715 0.21337
 N1250 N 0.77737 0.43741 0.19186
 N1251 N 0.81899 0.91856 0.71189
 C1252 C 0.80945 0.90863 0.69047
 N1253 N 0.78795 0.91856 0.68103
 N1254 N 0.77640 0.93747 0.69258
 C1255 C 0.78591 0.94722 0.71405
 N1256 N 0.80745 0.93747 0.72346
 N1257 N 0.68105 0.58159 0.71230
 C1258 C 0.69051 0.59156 0.69084
 N1259 N 0.71195 0.58161 0.68127
 N1260 N 0.72351 0.56265 0.69273
 C1261 C 0.71409 0.55286 0.71423
 N1262 N 0.69260 0.56263 0.72377
 N1263 N 0.68099 0.08122 0.21150
 C1264 C 0.69054 0.09113 0.19006
 N1265 N 0.71205 0.08118 0.18063
 N1266 N 0.72358 0.06229 0.19223
 C1267 C 0.71406 0.05257 0.21372
 N1268 N 0.69251 0.06233 0.22311
 N1269 N 0.18066 0.58159 0.21145
 C1270 C 0.19020 0.59150 0.19000
 N1271 N 0.21168 0.58153 0.18054
 N1272 N 0.22322 0.56263 0.19211
 C1273 C 0.21371 0.55291 0.21361
 N1274 N 0.19218 0.56269 0.22303
 N1275 N 0.21158 0.08135 0.68127
 C1276 C 0.19016 0.09134 0.69085
 N1277 N 0.18072 0.08143 0.71233
 N1278 N 0.19227 0.06249 0.72384
 C1279 C 0.21374 0.05268 0.71429
 N1280 N 0.22314 0.06241 0.69276
 N1281 N 0.31927 0.58178 0.28816
 C1282 C 0.30976 0.59175 0.30959
 N1283 N 0.28831 0.58181 0.31913
 N1284 N 0.27678 0.56287 0.30765
 C1285 C 0.28626 0.55308 0.28618
 N1286 N 0.30775 0.56283 0.27668
 N1287 N 0.31952 0.08103 0.78871
 C1288 C 0.31005 0.09092 0.81019
 N1289 N 0.28861 0.08096 0.81973
 N1290 N 0.27706 0.06206 0.80820
 C1291 C 0.28649 0.05236 0.78667
 N1292 N 0.30797 0.06213 0.77717
 N1293 N 0.81983 0.58119 0.78856
 C1294 C 0.81033 0.59110 0.81001
 N1295 N 0.78890 0.58113 0.81955
 N1296 N 0.77737 0.56220 0.80805
 C1297 C 0.78683 0.55248 0.78654
 N1298 N 0.80831 0.56226 0.77704
 N1299 N 0.78878 0.08124 0.31924
 C1300 C 0.81026 0.09112 0.30972
 N1301 N 0.81976 0.08113 0.28830
 N1302 N 0.80819 0.06222 0.27680
 C1303 C 0.78666 0.05252 0.28629
 N1304 N 0.77720 0.06233 0.30776
 N1305 N 0.68090 0.41822 0.28754
 C1306 C 0.69034 0.40826 0.30900
 N1307 N 0.71175 0.41820 0.31858
 N1308 N 0.72331 0.43715 0.30713
 C1309 C 0.71391 0.44693 0.28562
 N1310 N 0.69245 0.43717 0.27607
 N1311 N 0.68028 0.91883 0.78888
 C1312 C 0.68982 0.90885 0.81030
 N1313 N 0.71131 0.91873 0.81975
 N1314 N 0.72287 0.93764 0.80820
 C1315 C 0.71337 0.94742 0.78674
 N1316 N 0.69182 0.93773 0.77733
 N1317 N 0.18033 0.41884 0.78906
 C1318 C 0.18991 0.40886 0.81045
 N1319 N 0.21143 0.41874 0.81986
 N1320 N 0.22296 0.43765 0.80829
 C1321 C 0.21341 0.44743 0.78684
 N1322 N 0.19185 0.43774 0.77748
 N1323 N 0.18057 0.91917 0.28811
 C1324 C 0.19004 0.90920 0.30956
 N1325 N 0.21147 0.91914 0.31910
 N1326 N 0.22302 0.93808 0.30762
 C1327 C 0.21359 0.94786 0.28612
 N1328 N 0.19211 0.93811 0.27661
 N1329 N 0.41810 0.28811 0.68081
 C1330 C 0.40814 0.30957 0.69032
 N1331 N 0.41810 0.31910 0.71173
 N1332 N 0.43707 0.30760 0.72322
 C1333 C 0.44684 0.28609 0.71375
 N1334 N 0.43707 0.27659 0.69230
 N1335 N 0.41860 0.81998 0.21128
 C1336 C 0.40866 0.81048 0.18985
 N1337 N 0.41860 0.78901 0.18035
 N1338 N 0.43751 0.77744 0.19187
 C1339 C 0.44726 0.78690 0.21335
 N1340 N 0.43751 0.80843 0.22281
 N1341 N 0.91914 0.28805 0.18062
 C1342 C 0.90917 0.30952 0.19010
 N1343 N 0.91908 0.31904 0.21154
 N1344 N 0.93800 0.30752 0.22308
 C1345 C 0.94779 0.28600 0.21364
 N1346 N 0.93806 0.27652 0.19215
 N1347 N 0.91851 0.81949 0.71156
 C1348 C 0.90855 0.80997 0.69014
 N1349 N 0.91851 0.78852 0.68062
 N1350 N 0.93747 0.77699 0.69210
 C1351 C 0.94724 0.78647 0.71357
 N1352 N 0.93747 0.80797 0.72305
 N1353 N 0.58165 0.28784 0.31853
 C1354 C 0.59157 0.30929 0.30897
 N1355 N 0.58159 0.31878 0.28754
 N1356 N 0.56264 0.30723 0.27607
 C1357 C 0.55291 0.28574 0.28559
 N1358 N 0.56271 0.27629 0.30707
 N1359 N 0.58105 0.81967 0.78881
 C1360 C 0.59094 0.81013 0.81026
 N1361 N 0.58098 0.78867 0.81973
 N1362 N 0.56209 0.77714 0.80817
 C1363 C 0.55238 0.78664 0.78667
 N1364 N 0.56215 0.80816 0.77724
 N1365 N 0.08113 0.28864 0.81992
 C1366 C 0.09109 0.31012 0.81046
 N1367 N 0.08118 0.31968 0.78903
 N1368 N 0.06228 0.30818 0.77746
 C1369 C 0.05252 0.28665 0.78688
 N1370 N 0.06223 0.27713 0.80837
 N1371 N 0.08139 0.81970 0.28799
 C1372 C 0.09133 0.81024 0.30946
 N1373 N 0.08141 0.78879 0.31900
 N1374 N 0.06252 0.77720 0.30751
 C1375 C 0.05277 0.78661 0.28599
 N1376 N 0.06250 0.80812 0.27648
 N1377 N 0.58157 0.71187 0.68127
 C1378 C 0.59152 0.69043 0.69084
 N1379 N 0.58155 0.68096 0.71229
 N1380 N 0.56259 0.69250 0.72376
 C1381 C 0.55281 0.71398 0.71422
 N1382 N 0.56260 0.72342 0.69273
 N1383 N 0.58143 0.18012 0.21109
 C1384 C 0.59137 0.18967 0.18967
 N1385 N 0.58138 0.21112 0.18017
 N1386 N 0.56242 0.22262 0.19168
 C1387 C 0.55267 0.21311 0.21316
 N1388 N 0.56246 0.19160 0.22262
 N1389 N 0.08141 0.71183 0.18046
 C1390 C 0.09138 0.69037 0.18995
 N1391 N 0.08148 0.68085 0.21141
 N1392 N 0.06257 0.69238 0.22298
 C1393 C 0.05279 0.71390 0.21353
 N1394 N 0.06249 0.72338 0.19201
 N1395 N 0.08142 0.18091 0.71235
 C1396 C 0.09137 0.19036 0.69088
 N1397 N 0.08145 0.21183 0.68134
 N1398 N 0.06254 0.22343 0.69284
 C1399 C 0.05277 0.21401 0.71435
 N1400 N 0.06251 0.19250 0.72386
 N1401 N 0.41838 0.68121 0.28797
 C1402 C 0.40843 0.69072 0.30940
 N1403 N 0.41835 0.71219 0.31889
 N1404 N 0.43727 0.72373 0.30737
 C1405 C 0.44704 0.71425 0.28589
 N1406 N 0.43730 0.69274 0.27643
 N1407 N 0.41863 0.18036 0.78852
 C1408 C 0.40871 0.18986 0.80997
 N1409 N 0.41861 0.21135 0.81943
 N1410 N 0.43747 0.22294 0.80785
 C1411 C 0.44719 0.21348 0.78634
 N1412 N 0.43748 0.19193 0.77692
 N1413 N 0.91874 0.68075 0.78828
 C1414 C 0.90880 0.69026 0.80973
 N1415 N 0.91869 0.71176 0.81919
 N1416 N 0.93758 0.72333 0.80763
 C1417 C 0.94733 0.71385 0.78614
 N1418 N 0.93762 0.69231 0.77671
 N1419 N 0.91913 0.18036 0.28824
 C1420 C 0.90917 0.18988 0.30967
 N1421 N 0.91911 0.21133 0.31918
 N1422 N 0.93804 0.22286 0.30767
 C1423 C 0.94782 0.21339 0.28619
 N1424 N 0.93807 0.19188 0.27672
 N1425 N 0.28773 0.31900 0.58181
 C1426 C 0.30919 0.30949 0.59175
 N1427 N 0.31875 0.28804 0.58182
 N1428 N 0.30725 0.27650 0.56290
 C1429 C 0.28574 0.28597 0.55314
 N1430 N 0.27622 0.30747 0.56289
 N1431 N 0.28826 0.81983 0.08133
 C1432 C 0.30976 0.81038 0.09126
 N1433 N 0.31935 0.78894 0.08134
 N1434 N 0.30787 0.77735 0.06246
 C1435 C 0.28632 0.78675 0.05271
 N1436 N 0.27677 0.80825 0.06244
 N1437 N 0.78893 0.31916 0.08138
 C1438 C 0.81039 0.30961 0.09129
 N1439 N 0.81989 0.28814 0.08135
 N1440 N 0.80834 0.27663 0.06245
 C1441 C 0.78683 0.28614 0.05272
 N1442 N 0.77737 0.30766 0.06248
 N1443 N 0.78804 0.81940 0.58173
 C1444 C 0.80954 0.80992 0.59161
 N1445 N 0.81910 0.78848 0.58165
 N1446 N 0.80757 0.77694 0.56276
 C1447 C 0.78602 0.78639 0.55306
 N1448 N 0.77650 0.80787 0.56284
 N1449 N 0.31911 0.71210 0.41816
 C1450 C 0.30964 0.69063 0.40824
 N1451 N 0.28820 0.68108 0.41818
 N1452 N 0.27664 0.69259 0.43709
 C1453 C 0.28607 0.71411 0.44683
 N1454 N 0.30756 0.72362 0.43708
 N1455 N 0.31950 0.21129 0.91875
 C1456 C 0.31001 0.18981 0.90886
 N1457 N 0.28856 0.18030 0.91882
 N1458 N 0.27701 0.19185 0.93771
 C1459 C 0.28646 0.21339 0.94740
 N1460 N 0.30796 0.22286 0.93763
 N1461 N 0.81942 0.71153 0.91852
 C1462 C 0.80999 0.69005 0.90858
 N1463 N 0.78855 0.68048 0.91849
 N1464 N 0.77694 0.69197 0.93738
 C1465 C 0.78634 0.71351 0.94714
 N1466 N 0.80783 0.72304 0.93741
 N1467 N 0.81963 0.21156 0.41817
 C1468 C 0.81017 0.19006 0.40828
 N1469 N 0.78870 0.18055 0.41821
 N1470 N 0.77711 0.19211 0.43707
 C1471 C 0.78653 0.21366 0.44677
 N1472 N 0.80804 0.22313 0.43703
 N1473 N 0.68074 0.28810 0.41782
 C1474 C 0.69022 0.30956 0.40786
 N1475 N 0.71164 0.31913 0.41780
 N1476 N 0.72317 0.30766 0.43675
 C1477 C 0.71373 0.28615 0.44652
 N1478 N 0.69226 0.27661 0.43677
 N1479 N 0.68045 0.78824 0.91868
 C1480 C 0.68993 0.80975 0.90881
 N1481 N 0.71140 0.81923 0.91873
 N1482 N 0.72297 0.80762 0.93757
 C1483 C 0.71353 0.78607 0.94726
 N1484 N 0.69201 0.77663 0.93752
 N1485 N 0.21162 0.31922 0.91885
 C1486 C 0.19015 0.30973 0.90895
 N1487 N 0.18068 0.28823 0.91884
 N1488 N 0.19226 0.27663 0.93769
 C1489 C 0.21377 0.28609 0.94741
 N1490 N 0.22321 0.30764 0.93770
 N1491 N 0.21138 0.81983 0.41828
 C1492 C 0.18995 0.81032 0.40831
 N1493 N 0.18043 0.78884 0.41820
 N1494 N 0.19194 0.77727 0.43711
 C1495 C 0.21342 0.78674 0.44689
 N1496 N 0.22290 0.80827 0.43719
 N1497 N 0.71164 0.68074 0.58195
 C1498 C 0.69018 0.69024 0.59191
 N1499 N 0.68060 0.71167 0.58194
 N1500 N 0.69206 0.72318 0.56298
 C1501 C 0.71358 0.71372 0.55321
 N1502 N 0.72312 0.69224 0.56298
 N1503 N 0.68107 0.21144 0.08133
 C1504 C 0.69060 0.18998 0.09127
 N1505 N 0.71210 0.18050 0.08137
 N1506 N 0.72366 0.19206 0.06249
 C1507 C 0.71417 0.21357 0.05274
 N1508 N 0.69262 0.22301 0.06246
 N1509 N 0.21183 0.68090 0.08138
 C1510 C 0.19032 0.69039 0.09127
 N1511 N 0.18079 0.71185 0.08131
 N1512 N 0.19235 0.72340 0.06242
 C1513 C 0.21390 0.71394 0.05273
 N1514 N 0.22339 0.69244 0.06250
 N1515 N 0.21129 0.18035 0.58182
 C1516 C 0.18985 0.18990 0.59178
 N1517 N 0.18030 0.21134 0.58181
 N1518 N 0.19179 0.22284 0.56285
 C1519 C 0.21328 0.21333 0.55308
 N1520 N 0.22279 0.19184 0.56286
   
