data_POSCAR
  _audit_creation_date              2014-09-24
  _audit_creation_method            'ToBaCCo'
  _symmetry_space_group_name_H-M    'P1'
  _symmetry_Int_Tables_number       1
  _symmetry_cell_setting            triclinic
  loop_
  _symmetry_equiv_pos_as_xyz
 x,y,z
_cell_length_a 55.4003
_cell_length_b 55.4001
_cell_length_c 55.3958
_cell_angle_alpha 89.998800
_cell_angle_beta 90.002800
_cell_angle_gamma 90.115900
loop_
  _atom_site_label
  _atom_site_type_symbol
  _atom_site_fract_x
  _atom_site_fract_y
  _atom_site_fract_z
N1 N 0.31880 1.31882 0.31873
 N2 N 0.31800 0.81778 0.81750
 N3 N 0.81774 1.31804 0.81752
 N4 N 0.81949 0.81950 0.31835
 N5 N 0.68042 0.68040 0.31846
 N6 N 0.68226 0.18202 0.81749
 N7 N 1.18197 0.68228 0.81754
 N8 N 1.18122 0.18125 0.31869
 N9 N 0.68176 1.31811 0.68135
 N10 N 0.68047 0.81957 1.17929
 N11 N 1.18253 1.31753 1.18256
 N12 N 1.18186 0.81833 0.68132
 N13 N 0.31836 0.68153 0.68109
 N14 N 0.31745 0.18258 1.18259
 N15 N 0.81959 0.68044 1.17926
 N16 N 0.81840 0.18177 0.68118
 N17 N 1.31765 0.31759 0.68034
 N18 N 1.31908 0.81887 1.17983
 N19 N 0.81885 0.31902 1.17990
 N20 N 0.81914 0.81911 0.68038
 N21 N 0.68084 0.68082 0.68031
 N22 N 0.68102 1.18081 1.17968
 N23 N 0.18063 0.68080 1.17953
 N24 N 0.18242 1.18235 0.68031
 N25 N 1.31900 0.68102 0.31771
 N26 N 1.36767 1.13235 0.86610
 N27 N 0.81872 0.68130 0.81840
 N28 N 0.81909 1.18091 0.31782
 N29 N 0.68104 0.31900 0.31771
 N30 N 0.68106 0.81898 0.81870
 N31 N 0.13227 0.36775 0.86624
 N32 N 0.18093 0.81908 0.31783
 O33 O 0.97714 0.91362 0.87853
 O34 O 0.97715 0.88555 0.85031
 C35 C 0.96882 0.90508 0.85892
 C36 C 0.94862 0.91746 0.84656
 C37 C 0.93831 0.90746 0.82564
 H38 H 0.94571 0.89114 0.81782
 O39 O 1.02471 1.08837 0.87899
 O40 O 1.02485 1.11659 0.85092
 C41 C 1.03316 1.09702 0.85950
 C42 C 1.05343 1.08469 0.84721
 C43 C 1.06372 1.09466 0.82626
 H44 H 1.05629 1.11096 0.81841
 O45 O 0.88053 0.97709 0.91163
 O46 O 0.85243 0.97709 0.88343
 C47 C 0.86098 0.96873 0.90300
 C48 C 0.84857 0.94848 0.91536
 C49 C 0.82760 0.93822 0.90538
 H50 H 0.81978 0.94567 0.88907
 O51 O 1.12163 1.02447 0.91182
 O52 O 1.14995 1.02435 0.88385
 C53 C 1.14139 1.03260 0.90345
 C54 C 1.15415 1.05225 0.91638
 C55 C 1.17721 1.05990 0.90900
 H56 H 1.18624 1.05095 0.89414
 O57 O 0.91334 0.88032 0.97521
 O58 O 0.88517 0.85215 0.97509
 C59 C 0.90475 0.86078 0.96680
 C60 C 0.91713 0.84849 0.94653
 C61 C 0.90714 0.82757 0.93620
 H62 H 0.89083 0.81969 0.94363
 O63 O 1.08838 1.12149 0.97497
 O64 O 1.11645 1.14977 0.97509
 C65 C 1.09680 1.14124 0.96687
 C66 C 1.08375 1.15406 0.94737
 C67 C 1.09113 1.17712 0.93973
 H68 H 1.10618 1.18608 0.94849
 O69 O 0.91377 1.02438 0.87875
 O70 O 0.88568 1.02440 0.85054
 C71 C 0.90525 1.03274 0.85918
 C72 C 0.91768 1.05299 0.84685
 C73 C 0.90768 1.06330 0.82595
 H74 H 0.89132 1.05588 0.81815
 O75 O 1.08817 0.97754 0.87874
 O76 O 1.11624 0.97760 0.85052
 C77 C 1.09668 0.96923 0.85914
 C78 C 1.08423 0.94900 0.84679
 C79 C 1.09424 0.93865 0.82591
 H80 H 1.11059 0.94607 0.81810
 O81 O 1.02421 0.88050 0.91160
 O82 O 1.02422 0.85241 0.88339
 C83 C 1.03254 0.86095 0.90299
 C84 C 1.05271 0.84856 0.91539
 C85 C 1.06300 0.82767 0.90537
 H86 H 1.05560 0.81989 0.88899
 O87 O 0.97729 1.12119 0.91184
 O88 O 0.97718 1.14929 0.88364
 C89 C 0.96883 1.14066 0.90320
 C90 C 0.94848 1.15287 0.91550
 C91 C 0.93804 1.17365 0.90540
 H92 H 0.94542 1.18147 0.88905
 O93 O 0.88035 1.08776 0.97536
 O94 O 0.85221 1.11585 0.97536
 C95 C 0.86080 1.09631 0.96701
 C96 C 0.84848 1.08395 0.94674
 C97 C 0.82760 1.09394 0.93639
 H98 H 0.81977 1.11024 0.94384
 O99 O 1.12079 0.91344 0.97531
 O100 O 1.14890 0.88530 0.97531
 C101 C 1.14033 0.90486 0.96696
 C102 C 1.15269 0.91721 0.94670
 C103 C 1.17349 0.90711 0.93630
 H104 H 1.18121 0.89073 0.94368
 O105 O 0.97752 1.08821 0.87876
 O106 O 0.97758 1.11629 0.85054
 C107 C 0.96922 1.09672 0.85915
 C108 C 0.94899 1.08426 0.84680
 C109 C 0.93865 1.09426 0.82590
 H110 H 0.94607 1.11061 0.81809
 O111 O 1.02434 0.91377 0.87873
 O112 O 1.02436 0.88570 0.85051
 C113 C 1.03270 0.90525 0.85916
 C114 C 1.05296 0.91769 0.84683
 C115 C 1.06329 0.90768 0.82595
 H116 H 1.05587 0.89131 0.81816
 O117 O 1.12116 0.97731 0.91182
 O118 O 1.14925 0.97720 0.88362
 C119 C 1.14063 0.96885 0.90318
 C120 C 1.15283 0.94850 0.91548
 C121 C 1.17363 0.93807 0.90539
 H122 H 1.18145 0.94546 0.88904
 O123 O 0.88048 1.02428 0.91161
 O124 O 0.85239 1.02429 0.88341
 C125 C 0.86094 1.03261 0.90301
 C126 C 0.84856 1.05279 0.91540
 C127 C 0.82768 1.06310 0.90537
 H128 H 0.81991 1.05571 0.88899
 O129 O 0.91344 1.12083 0.97535
 O130 O 0.88531 1.14894 0.97535
 C131 C 0.90486 1.14037 0.96699
 C132 C 0.91721 1.15273 0.94673
 C133 C 0.90709 1.17352 0.93632
 H134 H 0.89071 1.18124 0.94370
 O135 O 1.08771 0.88035 0.97533
 O136 O 1.11580 0.85220 0.97532
 C137 C 1.09626 0.86080 0.96698
 C138 C 1.08388 0.84847 0.94672
 C139 C 1.09385 0.82758 0.93638
 H140 H 1.11015 0.81975 0.94383
 O141 O 1.08833 1.02473 0.87898
 O142 O 1.11654 1.02487 0.85091
 C143 C 1.09698 1.03318 0.85949
 C144 C 1.08465 1.05346 0.84720
 C145 C 1.09461 1.06375 0.82625
 H146 H 1.11091 1.05631 0.81840
 O147 O 0.91358 0.97718 0.87854
 O148 O 0.88549 0.97720 0.85033
 C149 C 0.90503 0.96886 0.85895
 C150 C 0.91740 0.94867 0.84657
 C151 C 0.90740 0.93835 0.82565
 H152 H 0.89107 0.94576 0.81784
 O153 O 1.02445 1.12166 0.91184
 O154 O 1.02433 1.14999 0.88387
 C155 C 1.03258 1.14143 0.90347
 C156 C 1.05223 1.15419 0.91640
 C157 C 1.05988 1.17724 0.90903
 H158 H 1.05093 1.18628 0.89417
 O159 O 0.97702 0.88055 0.91158
 O160 O 0.97702 0.85246 0.88337
 C161 C 0.96865 0.86100 0.90294
 C162 C 0.94838 0.84860 0.91528
 C163 C 0.93807 0.82768 0.90525
 H164 H 0.94550 0.81989 0.88891
 O165 O 1.12148 1.08839 0.97496
 O166 O 1.14976 1.11646 0.97508
 C167 C 1.14123 1.09681 0.96685
 C168 C 1.15404 1.08376 0.94735
 C169 C 1.17710 1.09115 0.93970
 H170 H 1.18606 1.10619 0.94846
 O171 O 0.88034 0.91337 0.97524
 O172 O 0.85214 0.88521 0.97513
 C173 C 0.86077 0.90480 0.96684
 C174 C 0.84847 0.91722 0.94661
 C175 C 0.82749 0.90728 0.93633
 H176 H 0.81960 0.89098 0.94377
 Cu177 Cu 1.00068 0.89992 0.89794
 Cu178 Cu 1.00069 0.86622 0.86407
 Cu179 Cu 1.00102 1.10204 0.89817
 Cu180 Cu 1.00101 1.13584 0.86439
 Cu181 Cu 0.89990 1.00073 0.89796
 Cu182 Cu 0.86619 1.00075 0.86410
 Cu183 Cu 1.10200 1.00104 0.89815
 Cu184 Cu 1.13579 1.00103 0.86437
 C185 C 0.93819 0.93824 0.85674
 H186 H 0.94574 0.94578 0.87313
 C187 C 0.91774 0.91780 0.81531
 C188 C 1.06388 1.06392 0.85740
 H189 H 1.05635 1.05639 0.87380
 C190 C 1.08425 1.08429 0.81591
 C191 C 0.85872 0.93799 0.93615
 H192 H 0.87515 0.94549 0.94368
 C193 C 0.81718 0.91767 0.91577
 C194 C 1.14284 1.06417 0.93570
 H195 H 1.12495 1.05856 0.94130
 C196 C 1.18867 1.07920 0.92067
 C197 C 0.93793 0.85872 0.93609
 H198 H 0.94546 0.87512 0.94365
 C199 C 0.91750 0.81728 0.91561
 C200 C 1.06415 1.14287 0.93572
 H201 H 1.05854 1.12498 0.94131
 C202 C 1.07918 1.18870 0.92070
 C203 C 0.93851 1.06345 0.85699
 H204 H 0.94605 1.05592 0.87338
 C205 C 0.91805 1.08388 0.81561
 C206 C 1.06342 0.93852 0.85698
 H207 H 1.05588 0.94607 0.87335
 C208 C 1.08388 0.91804 0.81562
 C209 C 1.06313 0.85867 0.93625
 H210 H 1.05560 0.87504 0.94381
 C211 C 1.08352 0.81730 0.91576
 C212 C 0.93807 1.14269 0.93633
 H213 H 0.94571 1.12640 0.94394
 C214 C 0.91739 1.18385 0.91571
 C215 C 0.85866 1.06319 0.93626
 H216 H 0.87503 1.05566 0.94383
 C217 C 0.81733 1.08363 0.91576
 C218 C 1.14265 0.93808 0.93630
 H219 H 1.12635 0.94571 0.94391
 C220 C 1.18383 0.91742 0.91570
 O221 O 1.02402 0.91335 1.11906
 O222 O 1.02403 0.88522 1.14723
 C223 C 1.03238 0.90479 1.13861
 C224 C 1.05265 0.91721 1.15093
 C225 C 1.06294 0.90725 1.17187
 H226 H 1.05548 0.89094 1.17972
 O227 O 0.97707 1.08777 1.11894
 O228 O 0.97713 1.11590 1.14711
 C229 C 0.96874 1.09634 1.13851
 C230 C 0.94849 1.08395 1.15088
 C231 C 0.93821 1.09394 1.17180
 H232 H 0.94565 1.11028 1.17961
 O233 O 0.88024 1.02398 1.08609
 O234 O 0.85209 1.02396 1.11424
 C235 C 0.86068 1.03231 1.09467
 C236 C 0.84835 1.05253 1.08229
 C237 C 0.82738 1.06275 1.09223
 H238 H 0.81951 1.05526 1.10852
 O239 O 1.12095 0.97712 1.08598
 O240 O 1.14910 0.97718 1.11413
 C241 C 1.14051 0.96881 1.09458
 C242 C 1.15285 0.94857 1.08224
 C243 C 1.17373 0.93826 1.09227
 H244 H 1.18156 0.94571 1.10859
 O245 O 1.08771 0.88035 1.02252
 O246 O 1.11580 0.85220 1.02252
 C247 C 1.09624 0.86078 1.03086
 C248 C 1.08381 0.84839 1.05106
 C249 C 1.09371 0.82741 1.06129
 H250 H 1.11001 0.81958 1.05384
 O251 O 0.91343 1.12087 1.02253
 O252 O 0.88530 1.14898 1.02256
 C253 C 0.90487 1.14043 1.03088
 C254 C 0.91729 1.15281 1.05109
 C255 C 0.90731 1.17370 1.06142
 H256 H 0.89096 1.18147 1.05404
 O257 O 0.91326 0.97682 1.11915
 O258 O 0.88515 0.97681 1.14733
 C259 C 0.90469 0.96848 1.13872
 C260 C 0.91707 0.94827 1.15109
 C261 C 0.90711 0.93800 1.17205
 H262 H 0.89081 0.94543 1.17990
 O263 O 1.08785 1.02424 1.11901
 O264 O 1.11597 1.02429 1.14718
 C265 C 1.09641 1.03259 1.13859
 C266 C 1.08402 1.05278 1.15096
 C267 C 1.09395 1.06302 1.17196
 H268 H 1.11024 1.05557 1.17981
 O269 O 0.97680 0.88019 1.08606
 O270 O 0.97676 0.85204 1.11421
 C271 C 0.96843 0.86062 1.09464
 C272 C 0.94821 0.84823 1.08222
 C273 C 0.93792 0.82724 1.09214
 H274 H 0.94536 0.81939 1.10844
 O275 O 1.02436 1.12078 1.08582
 O276 O 1.02444 1.14890 1.11399
 C277 C 1.03277 1.14032 1.09442
 C278 C 1.05307 1.15268 1.08210
 C279 C 1.06347 1.17347 1.09228
 H280 H 1.05608 1.18118 1.10867
 O281 O 0.88022 0.91322 1.02243
 O282 O 0.85203 0.88506 1.02234
 C283 C 0.86064 0.90462 1.03074
 C284 C 0.84827 0.91696 1.05097
 C285 C 0.82729 0.90698 1.06121
 H286 H 0.81943 0.89068 1.05373
 O287 O 1.12114 1.08818 1.02209
 O288 O 1.14934 1.11634 1.02228
 C289 C 1.14066 1.09676 1.03056
 C290 C 1.15286 1.08436 1.05088
 C291 C 1.17365 1.09444 1.06139
 H292 H 1.18148 1.11083 1.05408
 O293 O 1.02426 1.08784 1.11902
 O294 O 1.02433 1.11595 1.14720
 C295 C 1.03262 1.09640 1.13860
 C296 C 1.05281 1.08399 1.15097
 C297 C 1.06305 1.09392 1.17196
 H298 H 1.05561 1.11021 1.17982
 O299 O 0.97683 0.91324 1.11914
 O300 O 0.97681 0.88512 1.14731
 C301 C 0.96849 0.90466 1.13872
 C302 C 0.94828 0.91704 1.15108
 C303 C 0.93801 0.90708 1.17205
 H304 H 0.94544 0.89078 1.17989
 O305 O 1.12078 1.02434 1.08581
 O306 O 1.14891 1.02440 1.11397
 C307 C 1.14033 1.03274 1.09441
 C308 C 1.15269 1.05304 1.08208
 C309 C 1.17348 1.06344 1.09226
 H310 H 1.18119 1.05605 1.10865
 O311 O 0.88021 0.97679 1.08607
 O312 O 0.85208 0.97675 1.11422
 C313 C 0.86065 0.96842 1.09465
 C314 C 0.84827 0.94819 1.08225
 C315 C 0.82729 0.93789 1.09217
 H316 H 0.81944 0.94533 1.10848
 O317 O 1.08820 1.12114 1.02210
 O318 O 1.11635 1.14934 1.02229
 C319 C 1.09678 1.14066 1.03057
 C320 C 1.08438 1.15286 1.05089
 C321 C 1.09446 1.17365 1.06140
 H322 H 1.11086 1.18147 1.05409
 O323 O 0.91325 0.88019 1.02241
 O324 O 0.88508 0.85201 1.02232
 C325 C 0.90464 0.86060 1.03070
 C326 C 0.91700 0.84822 1.05093
 C327 C 0.90702 0.82723 1.06116
 H328 H 0.89072 0.81937 1.05367
 O329 O 1.08777 0.97705 1.11893
 O330 O 1.11591 0.97710 1.14709
 C331 C 1.09634 0.96872 1.13850
 C332 C 1.08395 0.94847 1.15087
 C333 C 1.09394 0.93819 1.17180
 H334 H 1.11028 0.94564 1.17961
 O335 O 0.91337 1.02402 1.11906
 O336 O 0.88525 1.02402 1.14724
 C337 C 0.90482 1.03238 1.13862
 C338 C 0.91723 1.05264 1.15094
 C339 C 0.90727 1.06294 1.17186
 H340 H 0.89096 1.05549 1.17971
 O341 O 0.97715 1.12096 1.08600
 O342 O 0.97722 1.14910 1.11416
 C343 C 0.96884 1.14052 1.09460
 C344 C 0.94860 1.15287 1.08226
 C345 C 0.93831 1.17375 1.09230
 H346 H 0.94576 1.18157 1.10862
 O347 O 1.02398 0.88022 1.08608
 O348 O 1.02397 0.85207 1.11422
 C349 C 1.03231 0.86066 1.09466
 C350 C 1.05253 0.84833 1.08227
 C351 C 1.06274 0.82735 1.09219
 H352 H 1.05525 0.81947 1.10847
 O353 O 1.12084 0.91342 1.02250
 O354 O 1.14895 0.88529 1.02252
 C355 C 1.14040 0.90485 1.03084
 C356 C 1.15278 0.91726 1.05105
 C357 C 1.17367 0.90727 1.06138
 H358 H 1.18144 0.89093 1.05399
 O359 O 0.88036 1.08774 1.02255
 O360 O 0.85221 1.11583 1.02257
 C361 C 0.86079 1.09627 1.03089
 C362 C 0.84841 1.08384 1.05110
 C363 C 0.82744 1.09374 1.06135
 H364 H 0.81961 1.11005 1.05391
 Cu365 Cu 1.00040 0.89956 1.09976
 Cu366 Cu 1.00039 0.86580 1.13357
 Cu367 Cu 1.00070 1.10152 1.09962
 Cu368 Cu 1.00079 1.13529 1.13343
 Cu369 Cu 0.89961 0.89960 0.99884
 Cu370 Cu 0.86578 0.86579 0.99871
 Cu371 Cu 1.10145 0.89971 0.99893
 Cu372 Cu 1.13518 0.86593 0.99892
 Cu373 Cu 0.89971 1.10149 0.99896
 Cu374 Cu 0.86594 1.13522 0.99897
 Cu375 Cu 1.10199 1.10199 0.99843
 Cu376 Cu 1.13581 1.13581 0.99863
 Cu377 Cu 0.89959 1.00040 1.09977
 Cu378 Cu 0.86583 1.00038 1.13358
 Cu379 Cu 1.10152 1.00067 1.09961
 Cu380 Cu 1.13530 1.00076 1.13341
 C381 C 1.06313 0.93799 1.14072
 H382 H 1.05560 0.94550 1.12432
 C383 C 1.08353 0.91764 1.18218
 C384 C 0.93802 1.06313 1.14073
 H385 H 0.94553 1.05559 1.12433
 C386 C 0.91765 1.08354 1.18218
 C387 C 0.85857 1.06306 1.06155
 H388 H 0.87500 1.05559 1.05405
 C389 C 0.81704 1.08330 1.08186
 C390 C 1.14267 0.93809 1.06145
 H391 H 1.12630 0.94562 1.05389
 C392 C 1.18402 0.91767 1.08194
 C393 C 1.06305 0.85856 1.06152
 H394 H 1.05558 0.87499 1.05404
 C395 C 1.08327 0.81701 1.08181
 C396 C 0.93811 1.14269 1.06148
 H397 H 0.94564 1.12632 1.05392
 C398 C 0.91771 1.18405 1.08198
 C399 C 0.93783 0.93781 1.14089
 H400 H 0.94534 0.94532 1.12447
 C401 C 0.91748 0.91746 1.18241
 C402 C 1.06327 1.06325 1.14076
 H403 H 1.05578 1.05576 1.12431
 C404 C 1.08357 1.08354 1.18234
 C405 C 0.93776 0.85843 1.06144
 H406 H 0.94529 0.87486 1.05396
 C407 C 0.91739 0.81686 1.08171
 C408 C 1.06351 1.14264 1.06123
 H409 H 1.05591 1.12633 1.05356
 C410 C 1.08412 1.18382 1.08205
 C411 C 0.85846 0.93774 1.06147
 H412 H 0.87490 0.94527 1.05398
 C413 C 0.81691 0.91735 1.08175
 C414 C 1.14265 1.06349 1.06122
 H415 H 1.12634 1.05588 1.05354
 C416 C 1.18382 1.08409 1.08204
 O417 O 1.08697 0.52376 0.62000
 O418 O 1.11518 0.52396 0.64809
 C419 C 1.09562 0.53226 0.63948
 C420 C 1.08332 0.55259 0.65171
 C421 C 1.09339 0.56304 0.67252
 H422 H 1.10974 0.55568 0.68033
 O423 O 0.91259 0.47656 0.61975
 O424 O 0.88439 0.47654 0.64785
 C425 C 0.90395 0.46820 0.63930
 C426 C 0.91625 0.44795 0.65166
 C427 C 0.90612 0.43756 0.67248
 H428 H 0.88976 0.44495 0.68023
 O429 O 1.02350 0.62042 0.58661
 O430 O 1.02353 0.64864 0.61470
 C431 C 1.03188 0.64000 0.59516
 C432 C 1.05217 0.65231 0.58280
 C433 C 1.06256 0.67319 0.59283
 H434 H 1.05514 0.68102 0.60914
 O435 O 0.97651 0.38000 0.58704
 O436 O 0.97649 0.35176 0.61510
 C437 C 0.96818 0.36038 0.59553
 C438 C 0.94799 0.34800 0.58305
 C439 C 0.93766 0.32706 0.59301
 H440 H 0.94505 0.31924 0.60935
 O441 O 1.12014 0.58707 0.52311
 O442 O 1.14835 0.61520 0.52315
 C443 C 1.13971 0.59563 0.53148
 C444 C 1.15204 0.58324 0.55172
 C445 C 1.17299 0.59324 0.56199
 H446 H 1.18083 0.60957 0.55455
 O447 O 0.87974 0.41276 0.52309
 O448 O 0.85159 0.38456 0.52313
 C449 C 0.86017 0.40415 0.53144
 C450 C 0.84780 0.41653 0.55165
 C451 C 0.82692 0.40646 0.56199
 H452 H 0.81914 0.39007 0.55462
 O453 O 0.97626 0.58742 0.61974
 O454 O 0.97628 0.61561 0.64784
 C455 C 0.96792 0.59602 0.63928
 C456 C 0.94767 0.58364 0.65165
 C457 C 0.93737 0.59364 0.67255
 H458 H 0.94480 0.60998 0.68036
 O459 O 1.02340 0.41307 0.62054
 O460 O 1.02320 0.38509 0.64885
 C461 C 1.03146 0.40473 0.64032
 C462 C 1.05101 0.41776 0.65313
 C463 C 1.05868 0.41035 0.67616
 H464 H 1.04984 0.39535 0.68512
 O465 O 1.11978 0.47634 0.58717
 O466 O 1.14787 0.47627 0.61537
 C467 C 1.13928 0.46796 0.59578
 C468 C 1.15162 0.44778 0.58334
 C469 C 1.17252 0.43745 0.59332
 H470 H 1.18028 0.44475 0.60974
 O471 O 0.87964 0.52371 0.58660
 O472 O 0.85143 0.52369 0.61469
 C473 C 0.86006 0.53203 0.59513
 C474 C 0.84772 0.55222 0.58270
 C475 C 0.82678 0.56248 0.59265
 H476 H 0.81894 0.55505 0.60897
 O477 O 0.91275 0.62037 0.52283
 O478 O 0.88464 0.64849 0.52282
 C479 C 0.90419 0.63993 0.53117
 C480 C 0.91658 0.65230 0.55141
 C481 C 0.90663 0.67323 0.56167
 H482 H 0.89033 0.68105 0.55421
 O483 O 1.08691 0.38003 0.52306
 O484 O 1.11503 0.35191 0.52311
 C485 C 1.09549 0.36051 0.53146
 C486 C 1.08319 0.34824 0.55181
 C487 C 1.09319 0.32733 0.56209
 H488 H 1.10942 0.31946 0.55454
 O489 O 0.91262 0.52376 0.61975
 O490 O 0.88443 0.52375 0.64785
 C491 C 0.90402 0.53210 0.63929
 C492 C 0.91640 0.55236 0.65165
 C493 C 0.90640 0.56266 0.67256
 H494 H 0.89006 0.55522 0.68037
 O495 O 1.08695 0.47663 0.62053
 O496 O 1.11494 0.47683 0.64884
 C497 C 1.09530 0.46857 0.64031
 C498 C 1.08227 0.44902 0.65313
 C499 C 1.08969 0.44135 0.67615
 H500 H 1.10468 0.45019 0.68512
 O501 O 1.02367 0.38024 0.58718
 O502 O 1.02375 0.35216 0.61538
 C503 C 1.03206 0.36074 0.59579
 C504 C 1.05224 0.34839 0.58335
 C505 C 1.06256 0.32750 0.59332
 H506 H 1.05525 0.31974 0.60974
 O507 O 0.97631 0.62041 0.58659
 O508 O 0.97633 0.64862 0.61468
 C509 C 0.96799 0.63999 0.59512
 C510 C 0.94779 0.65232 0.58269
 C511 C 0.93753 0.67326 0.59265
 H512 H 0.94496 0.68110 0.60897
 O513 O 0.87967 0.58727 0.52284
 O514 O 0.85154 0.61537 0.52283
 C515 C 0.86011 0.59583 0.53118
 C516 C 0.84775 0.58343 0.55142
 C517 C 0.82681 0.59338 0.56168
 H518 H 0.81898 0.60968 0.55422
 O519 O 1.11998 0.41310 0.52306
 O520 O 1.14810 0.38498 0.52310
 C521 C 1.13950 0.40452 0.53146
 C522 C 1.15178 0.41682 0.55180
 C523 C 1.17268 0.40681 0.56208
 H524 H 1.18055 0.39058 0.55454
 O525 O 0.97627 0.41306 0.62003
 O526 O 0.97607 0.38485 0.64812
 C527 C 0.96778 0.40441 0.63950
 C528 C 0.94745 0.41672 0.65174
 C529 C 0.93701 0.40665 0.67256
 H530 H 0.94437 0.39030 0.68037
 O531 O 1.02346 0.58745 0.61973
 O532 O 1.02349 0.61565 0.64783
 C533 C 1.03182 0.59609 0.63927
 C534 C 1.05208 0.58379 0.65163
 C535 C 1.06248 0.59392 0.67244
 H536 H 1.05509 0.61029 0.68019
 O537 O 0.87961 0.47652 0.58663
 O538 O 0.85140 0.47649 0.61472
 C539 C 0.86003 0.46814 0.59518
 C540 C 0.84772 0.44785 0.58282
 C541 C 0.82684 0.43747 0.59285
 H542 H 0.81901 0.44489 0.60917
 O543 O 1.12002 0.52350 0.58701
 O544 O 1.14827 0.52353 0.61507
 C545 C 1.13965 0.53183 0.59550
 C546 C 1.15203 0.55202 0.58301
 C547 C 1.17298 0.56234 0.59296
 H548 H 1.18080 0.55495 0.60930
 O549 O 0.91293 0.37988 0.52314
 O550 O 0.88480 0.35167 0.52319
 C551 C 0.90437 0.36031 0.53152
 C552 C 0.91676 0.34798 0.55176
 C553 C 0.90675 0.32704 0.56204
 H554 H 0.89042 0.31921 0.55461
 O555 O 1.08726 0.62027 0.52307
 O556 O 1.11546 0.64842 0.52311
 C557 C 1.09587 0.63984 0.53143
 C558 C 1.08350 0.65222 0.55163
 C559 C 1.09358 0.67310 0.56197
 H560 H 1.10997 0.68087 0.55460
 Cu561 Cu 1.10062 0.50001 0.60086
 Cu562 Cu 1.13442 0.50013 0.63464
 Cu563 Cu 0.89894 0.50014 0.60037
 Cu564 Cu 0.86509 0.50012 0.63409
 Cu565 Cu 0.99987 0.60110 0.60035
 Cu566 Cu 0.99990 0.63495 0.63408
 Cu567 Cu 1.00001 0.39941 0.60088
 Cu568 Cu 0.99990 0.36561 0.63466
 C569 C 1.06249 0.56295 0.64154
 H570 H 1.05489 0.55530 0.62523
 C571 C 1.08308 0.58366 0.68276
 C572 C 0.93709 0.43754 0.64157
 H573 H 0.94474 0.44514 0.62525
 C574 C 0.91639 0.41696 0.68280
 C575 C 1.06262 0.64211 0.56203
 H576 H 1.05503 0.62574 0.55447
 C577 C 1.08321 0.68346 0.58252
 C578 C 0.93756 0.35818 0.56225
 H579 H 0.94510 0.37460 0.55474
 C580 C 0.91709 0.31671 0.58262
 C581 C 1.14184 0.56245 0.56221
 H582 H 1.12542 0.55491 0.55471
 C583 C 1.18333 0.58291 0.58256
 C584 C 0.85791 0.43740 0.56204
 H585 H 0.87428 0.44500 0.55448
 C586 C 0.81657 0.41682 0.58255
 C587 C 0.93721 0.56282 0.64149
 H588 H 0.94475 0.55528 0.62511
 C589 C 0.91678 0.58325 0.68289
 C590 C 1.06278 0.43725 0.64190
 H591 H 1.05717 0.44286 0.62403
 C592 C 1.07788 0.42215 0.68766
 C593 C 1.14154 0.43748 0.56241
 H594 H 1.12516 0.44502 0.55488
 C595 C 1.18292 0.41702 0.58279
 C596 C 0.85792 0.56268 0.56191
 H597 H 0.87433 0.55518 0.55441
 C598 C 0.81645 0.58301 0.58225
 C599 C 0.93734 0.64213 0.56190
 H600 H 0.94485 0.62572 0.55439
 C601 C 0.91700 0.68359 0.58224
 C602 C 1.06254 0.35848 0.56242
 H603 H 1.05499 0.37486 0.55489
 C604 C 1.08299 0.31709 0.58279
 O605 O 1.08713 0.47653 0.37905
 O606 O 1.11529 0.47655 0.35091
 C607 C 1.09571 0.46818 0.35950
 C608 C 1.08335 0.44791 0.34716
 C609 C 1.09345 0.43749 0.32637
 H610 H 1.10985 0.44487 0.31862
 O611 O 0.91273 0.52362 0.37898
 O612 O 0.88456 0.52355 0.35085
 C613 C 0.90413 0.53193 0.35942
 C614 C 0.91653 0.55217 0.34704
 C615 C 0.90659 0.56242 0.32607
 H616 H 0.89028 0.55494 0.31823
 O617 O 0.97639 0.62035 0.41203
 O618 O 0.97649 0.64853 0.38391
 C619 C 0.96811 0.63993 0.40346
 C620 C 0.94789 0.65228 0.41583
 C621 C 0.93766 0.67323 0.40586
 H622 H 0.94513 0.68107 0.38955
 O623 O 1.02344 0.37982 0.41211
 O624 O 1.02342 0.35163 0.38400
 C625 C 1.03177 0.36025 0.40356
 C626 C 1.05198 0.34793 0.41597
 C627 C 1.06228 0.32701 0.40601
 H628 H 1.05487 0.31917 0.38967
 O629 O 1.12007 0.41304 0.47584
 O630 O 1.14819 0.38493 0.47589
 C631 C 1.13963 0.40447 0.46752
 C632 C 1.15201 0.41684 0.44728
 C633 C 1.17293 0.40685 0.43700
 H634 H 1.18074 0.39055 0.44447
 O635 O 0.87967 0.58725 0.47565
 O636 O 0.85154 0.61535 0.47561
 C637 C 0.86011 0.59579 0.46729
 C638 C 0.84775 0.58336 0.44708
 C639 C 0.82678 0.59326 0.43682
 H640 H 0.81894 0.60956 0.44425
 O641 O 1.02354 0.58727 0.37901
 O642 O 1.02363 0.61542 0.35087
 C643 C 1.03192 0.59585 0.35945
 C644 C 1.05212 0.58346 0.34710
 C645 C 1.06237 0.59340 0.32611
 H646 H 1.05492 0.60968 0.31825
 O647 O 0.97627 0.41281 0.37906
 O648 O 0.97622 0.38465 0.35092
 C649 C 0.96790 0.40421 0.35950
 C650 C 0.94769 0.41658 0.34714
 C651 C 0.93740 0.40660 0.32619
 H652 H 0.94481 0.39029 0.31836
 O653 O 1.12021 0.52373 0.41214
 O654 O 1.14838 0.52379 0.38401
 C655 C 1.13979 0.53210 0.40358
 C656 C 1.15217 0.55231 0.41600
 C657 C 1.17310 0.56264 0.40602
 H658 H 1.18090 0.55525 0.38967
 O659 O 0.87975 0.47639 0.41216
 O660 O 0.85157 0.47628 0.38405
 C661 C 0.86019 0.46798 0.40361
 C662 C 0.84787 0.44772 0.41603
 C663 C 0.82695 0.43736 0.40605
 H664 H 0.81911 0.44477 0.38973
 O665 O 1.08722 0.62019 0.47587
 O666 O 1.11542 0.64834 0.47590
 C667 C 1.09585 0.63975 0.46753
 C668 C 1.08351 0.65211 0.44728
 C669 C 1.09354 0.67304 0.43699
 H670 H 1.10988 0.68086 0.44443
 O671 O 0.91279 0.37969 0.47594
 O672 O 0.88465 0.35148 0.47598
 C673 C 0.90420 0.36010 0.46762
 C674 C 0.91655 0.34775 0.44738
 C675 C 0.90654 0.32680 0.43710
 H676 H 0.89023 0.31894 0.44457
 O677 O 0.91272 0.47643 0.37901
 O678 O 0.88456 0.47633 0.35087
 C679 C 0.90412 0.46804 0.35946
 C680 C 0.91649 0.44782 0.34711
 C681 C 0.90651 0.43753 0.32617
 H682 H 0.89021 0.44496 0.31833
 O683 O 1.08716 0.52371 0.37905
 O684 O 1.11531 0.52376 0.35090
 C685 C 1.09575 0.53207 0.35949
 C686 C 1.08335 0.55226 0.34711
 C687 C 1.09329 0.56251 0.32613
 H688 H 1.10958 0.55507 0.31828
 O689 O 0.97628 0.37979 0.41217
 O690 O 0.97622 0.35161 0.38405
 C691 C 0.96792 0.36020 0.40362
 C692 C 0.94772 0.34781 0.41606
 C693 C 0.93741 0.32686 0.40610
 H694 H 0.94480 0.31905 0.38976
 O695 O 1.02359 0.62025 0.41215
 O696 O 1.02371 0.64842 0.38403
 C697 C 1.03200 0.63981 0.40360
 C698 C 1.05226 0.65214 0.41602
 C699 C 1.06261 0.67307 0.40605
 H700 H 1.05519 0.68091 0.38973
 O701 O 0.87982 0.41277 0.47589
 O702 O 0.85167 0.38457 0.47592
 C703 C 0.86026 0.40414 0.46755
 C704 C 0.84790 0.41648 0.44729
 C705 C 0.82698 0.40642 0.43699
 H706 H 0.81917 0.39008 0.44443
 O707 O 1.12031 0.58723 0.47590
 O708 O 1.14852 0.61537 0.47594
 C709 C 1.13990 0.59582 0.46757
 C710 C 1.15224 0.58348 0.44732
 C711 C 1.17317 0.59351 0.43702
 H712 H 1.18102 0.60982 0.44448
 O713 O 1.02345 0.41287 0.37905
 O714 O 1.02343 0.38470 0.35092
 C715 C 1.03180 0.40427 0.35950
 C716 C 1.05207 0.41664 0.34716
 C717 C 1.06248 0.40653 0.32636
 H718 H 1.05510 0.39013 0.31861
 O719 O 0.97636 0.58727 0.37899
 O720 O 0.97643 0.61543 0.35084
 C721 C 0.96804 0.59586 0.35942
 C722 C 0.94780 0.58346 0.34704
 C723 C 0.93755 0.59340 0.32608
 H724 H 0.94503 0.60971 0.31823
 O725 O 0.87967 0.52358 0.41205
 O726 O 0.85148 0.52349 0.38394
 C727 C 0.86009 0.53187 0.40348
 C728 C 0.84773 0.55208 0.41586
 C729 C 0.82677 0.56229 0.40591
 H730 H 0.81892 0.55481 0.38961
 O731 O 1.12017 0.47656 0.41212
 O732 O 1.14835 0.47659 0.38400
 C733 C 1.13974 0.46824 0.40356
 C734 C 1.15206 0.44803 0.41597
 C735 C 1.17298 0.43773 0.40601
 H736 H 1.18082 0.44514 0.38967
 O737 O 1.08696 0.37994 0.47584
 O738 O 1.11508 0.35181 0.47589
 C739 C 1.09553 0.36037 0.46752
 C740 C 1.08317 0.34799 0.44728
 C741 C 1.09316 0.32707 0.43701
 H742 H 1.10946 0.31927 0.44448
 O743 O 0.91275 0.62036 0.47564
 O744 O 0.88464 0.64849 0.47560
 C745 C 0.90420 0.63991 0.46728
 C746 C 0.91662 0.65228 0.44706
 C747 C 0.90670 0.67322 0.43677
 H748 H 0.89040 0.68106 0.44420
 Cu749 Cu 1.10085 0.50013 0.39841
 Cu750 Cu 1.13465 0.50018 0.36463
 Cu751 Cu 0.89904 0.50002 0.39836
 Cu752 Cu 0.86522 0.49990 0.36461
 Cu753 Cu 1.10091 0.60087 0.49949
 Cu754 Cu 1.13477 0.63465 0.49954
 Cu755 Cu 1.10066 0.39935 0.49943
 Cu756 Cu 1.13442 0.36559 0.49949
 Cu757 Cu 0.89903 0.60100 0.49924
 Cu758 Cu 0.86527 0.63474 0.49921
 Cu759 Cu 0.89914 0.39910 0.49951
 Cu760 Cu 0.86536 0.36524 0.49957
 Cu761 Cu 0.99996 0.60097 0.39836
 Cu762 Cu 1.00008 0.63478 0.36460
 Cu763 Cu 0.99986 0.39914 0.39841
 Cu764 Cu 0.99981 0.36532 0.36465
 C765 C 1.06248 0.43751 0.35727
 H766 H 1.05486 0.44513 0.37358
 C767 C 1.08313 0.41685 0.31610
 C768 C 0.93731 0.56267 0.35723
 H769 H 0.94481 0.55518 0.37365
 C770 C 0.91700 0.58298 0.31571
 C771 C 0.93739 0.64210 0.43660
 H772 H 0.94487 0.62569 0.44413
 C773 C 0.91712 0.68358 0.41622
 C774 C 1.06240 0.35813 0.43678
 H775 H 1.05487 0.37452 0.44429
 C776 C 1.08282 0.31670 0.41643
 C777 C 1.14187 0.43760 0.43678
 H778 H 1.12548 0.44513 0.44429
 C779 C 1.18330 0.41719 0.41642
 C780 C 0.85793 0.56260 0.43662
 H781 H 0.87435 0.55513 0.44413
 C782 C 0.81641 0.58283 0.41628
 C783 C 1.06260 0.56272 0.35731
 H784 H 1.05510 0.55523 0.37375
 C785 C 1.08290 0.58302 0.31574
 C786 C 0.93725 0.43736 0.35731
 H787 H 0.94478 0.44489 0.37372
 C788 C 0.91686 0.41697 0.31583
 C789 C 1.14203 0.56270 0.43683
 H790 H 1.12563 0.55515 0.44435
 C791 C 1.18348 0.58319 0.41643
 C792 C 0.85806 0.43729 0.43682
 H793 H 0.87445 0.44487 0.44435
 C794 C 0.81663 0.41677 0.41642
 C795 C 1.06269 0.64194 0.43680
 H796 H 1.05512 0.62554 0.44432
 C797 C 1.08319 0.68340 0.41643
 C798 C 0.93731 0.35797 0.43687
 H799 H 0.94486 0.37438 0.44438
 C800 C 0.91687 0.31648 0.41652
 O801 O 0.47643 0.91273 0.37897
 O802 O 0.47634 0.88458 0.35083
 C803 C 0.46804 0.90414 0.35942
 C804 C 0.44782 0.91651 0.34708
 C805 C 0.43752 0.90653 0.32614
 H806 H 0.44495 0.89024 0.31829
 O807 O 0.52373 1.08721 0.37902
 O808 O 0.52378 1.11536 0.35088
 C809 C 0.53209 1.09580 0.35946
 C810 C 0.55230 1.08342 0.34709
 C811 C 0.56257 1.09339 0.32613
 H812 H 0.55515 1.10969 0.31830
 O813 O 0.37980 0.97631 0.41214
 O814 O 0.35161 0.97626 0.38402
 C815 C 0.36021 0.96795 0.40359
 C816 C 0.34781 0.94776 0.41603
 C817 C 0.32686 0.93746 0.40608
 H818 H 0.31904 0.94486 0.38974
 O819 O 0.62024 1.02359 0.41212
 O820 O 0.64842 1.02371 0.38400
 C821 C 0.63981 1.03201 0.40357
 C822 C 0.65213 1.05226 0.41599
 C823 C 0.67307 1.06259 0.40603
 H824 H 0.68092 1.05517 0.38972
 O825 O 0.41277 0.87983 0.47582
 O826 O 0.38457 0.85167 0.47585
 C827 C 0.40414 0.86027 0.46748
 C828 C 0.41648 0.84791 0.44722
 C829 C 0.40644 0.82699 0.43693
 H830 H 0.39009 0.81917 0.44436
 O831 O 0.58723 1.12033 0.47588
 O832 O 0.61538 1.14853 0.47592
 C833 C 0.59582 1.13992 0.46756
 C834 C 0.58348 1.15226 0.44731
 C835 C 0.59350 1.17320 0.43703
 H836 H 0.60981 1.18105 0.44448
 O837 O 0.41289 1.02348 0.37901
 O838 O 0.38472 1.02346 0.35088
 C839 C 0.40429 1.03182 0.35946
 C840 C 0.41666 1.05209 0.34712
 C841 C 0.40654 1.06252 0.32633
 H842 H 0.39014 1.05514 0.31859
 O843 O 0.58726 0.97638 0.37893
 O844 O 0.61541 0.97646 0.35079
 C845 C 0.59584 0.96807 0.35936
 C846 C 0.58344 0.94784 0.34698
 C847 C 0.59337 0.93761 0.32601
 H848 H 0.60968 0.94508 0.31816
 O849 O 0.52360 0.87968 0.41199
 O850 O 0.52350 0.85150 0.38388
 C851 C 0.53189 0.86010 0.40342
 C852 C 0.55210 0.84774 0.41580
 C853 C 0.56232 0.82678 0.40584
 H854 H 0.55484 0.81894 0.38954
 O855 O 0.47657 1.12020 0.41208
 O856 O 0.47659 1.14838 0.38397
 C857 C 0.46825 1.13976 0.40353
 C858 C 0.44804 1.15209 0.41594
 C859 C 0.43774 1.17301 0.40599
 H860 H 0.44514 1.18085 0.38965
 O861 O 0.37997 1.08698 0.47581
 O862 O 0.35185 1.11510 0.47586
 C863 C 0.36041 1.09556 0.46749
 C864 C 0.34802 1.08321 0.44724
 C865 C 0.32711 1.09321 0.43696
 H866 H 0.31932 1.10951 0.44442
 O867 O 0.62035 0.91276 0.47561
 O868 O 0.64848 0.88465 0.47557
 C869 C 0.63990 0.90421 0.46725
 C870 C 0.65226 0.91663 0.44702
 C871 C 0.67320 0.90671 0.43674
 H872 H 0.68104 0.89041 0.44418
 O873 O 0.47655 1.08715 0.37901
 O874 O 0.47656 1.11532 0.35088
 C875 C 0.46820 1.09574 0.35946
 C876 C 0.44793 1.08337 0.34713
 C877 C 0.43750 1.09349 0.32634
 H878 H 0.44488 1.10989 0.31859
 O879 O 0.52362 0.91274 0.37893
 O880 O 0.52355 0.88458 0.35079
 C881 C 0.53193 0.90416 0.35936
 C882 C 0.55216 0.91656 0.34698
 C883 C 0.56240 0.90663 0.32600
 H884 H 0.55493 0.89032 0.31816
 O885 O 0.62033 0.97640 0.41199
 O886 O 0.64851 0.97650 0.38387
 C887 C 0.63990 0.96811 0.40342
 C888 C 0.65226 0.94790 0.41579
 C889 C 0.67321 0.93767 0.40582
 H890 H 0.68104 0.94513 0.38951
 O891 O 0.37985 1.02347 0.41208
 O892 O 0.35166 1.02345 0.38397
 C893 C 0.36028 1.03180 0.40352
 C894 C 0.34797 1.05202 0.41593
 C895 C 0.32706 1.06234 0.40595
 H896 H 0.31922 1.05493 0.38961
 O897 O 0.41307 1.12009 0.47582
 O898 O 0.38496 1.14821 0.47587
 C899 C 0.40450 1.13965 0.46750
 C900 C 0.41686 1.15204 0.44726
 C901 C 0.40688 1.17296 0.43700
 H902 H 0.39058 1.18076 0.44447
 O903 O 0.58725 0.87966 0.47561
 O904 O 0.61536 0.85153 0.47557
 C905 C 0.59580 0.86011 0.46725
 C906 C 0.58337 0.84775 0.44703
 C907 C 0.59328 0.82679 0.43676
 H908 H 0.60957 0.81895 0.44420
 O909 O 0.58728 1.02357 0.37897
 O910 O 0.61543 1.02367 0.35083
 C911 C 0.59586 1.03196 0.35942
 C912 C 0.58349 1.05218 0.34707
 C913 C 0.59345 1.06246 0.32611
 H914 H 0.60974 1.05502 0.31826
 O915 O 0.41282 0.97629 0.37902
 O916 O 0.38466 0.97624 0.35089
 C917 C 0.40422 0.96793 0.35947
 C918 C 0.41658 0.94771 0.34711
 C919 C 0.40660 0.93742 0.32616
 H920 H 0.39028 0.94484 0.31834
 O921 O 0.52374 1.12023 0.41212
 O922 O 0.52379 1.14841 0.38400
 C923 C 0.53210 1.13982 0.40357
 C924 C 0.55230 1.15220 0.41600
 C925 C 0.56263 1.17314 0.40602
 H926 H 0.55524 1.18094 0.38968
 O927 O 0.47641 0.87976 0.41211
 O928 O 0.47629 0.85158 0.38399
 C929 C 0.46799 0.86020 0.40356
 C930 C 0.44773 0.84787 0.41597
 C931 C 0.43738 0.82695 0.40600
 H932 H 0.44480 0.81911 0.38969
 O933 O 0.62019 1.08724 0.47584
 O934 O 0.64835 1.11543 0.47586
 C935 C 0.63975 1.09586 0.46749
 C936 C 0.65211 1.08351 0.44725
 C937 C 0.67305 1.09354 0.43697
 H938 H 0.68087 1.10987 0.44441
 O939 O 0.37969 0.91281 0.47590
 O940 O 0.35149 0.88467 0.47594
 C941 C 0.36010 0.90423 0.46758
 C942 C 0.34775 0.91659 0.44735
 C943 C 0.32679 0.90659 0.43708
 H944 H 0.31893 0.89028 0.44454
 Cu945 Cu 0.50003 0.89905 0.39832
 Cu946 Cu 0.49991 0.86523 0.36456
 Cu947 Cu 0.50015 1.10087 0.39837
 Cu948 Cu 0.50019 1.13469 0.36461
 Cu949 Cu 0.39916 0.99989 0.39838
 Cu950 Cu 0.36534 0.99985 0.36462
 Cu951 Cu 0.60096 0.99997 0.39832
 Cu952 Cu 0.63477 1.00010 0.36456
 C953 C 0.43737 0.93727 0.35728
 H954 H 0.44490 0.94480 0.37368
 C955 C 0.41696 0.91688 0.31580
 C956 C 0.56274 1.06264 0.35727
 H957 H 0.55523 1.05513 0.37369
 C958 C 0.58310 1.08301 0.31576
 C959 C 0.35797 0.93735 0.43684
 H960 H 0.37439 0.94489 0.44435
 C961 C 0.31647 0.91692 0.41649
 C962 C 0.64193 1.06270 0.43677
 H963 H 0.62553 1.05514 0.44428
 C964 C 0.68341 1.08318 0.41641
 C965 C 0.43730 0.85807 0.43676
 H966 H 0.44487 0.87447 0.44428
 C967 C 0.41679 0.81663 0.41637
 C968 C 0.56270 1.14206 0.43682
 H969 H 0.55515 1.12565 0.44434
 C970 C 0.58318 1.18352 0.41643
 C971 C 0.43753 1.06250 0.35723
 H972 H 0.44516 1.05488 0.37353
 C973 C 0.41685 1.08317 0.31607
 C974 C 0.56266 0.93734 0.35717
 H975 H 0.55517 0.94483 0.37360
 C976 C 0.58295 0.91705 0.31563
 C977 C 0.56261 0.85793 0.43657
 H978 H 0.55514 0.87435 0.44408
 C979 C 0.58285 0.81642 0.41622
 C980 C 0.43762 1.14190 0.43675
 H981 H 0.44515 1.12550 0.44426
 C982 C 0.41721 1.18333 0.41641
 C983 C 0.35816 1.06244 0.43674
 H984 H 0.37454 1.05489 0.44426
 C985 C 0.31675 1.08288 0.41636
 C986 C 0.64208 0.93740 0.43657
 H987 H 0.62567 0.94488 0.44409
 C988 C 0.68356 0.91712 0.41619
 O989 O 0.52376 0.91261 0.61971
 O990 O 0.52375 0.88442 0.64782
 C991 C 0.53210 0.90401 0.63926
 C992 C 0.55234 0.91640 0.65163
 C993 C 0.56262 0.90643 0.67257
 H994 H 0.55516 0.89011 0.68039
 O995 O 0.47667 1.08694 0.62048
 O996 O 0.47685 1.11492 0.64880
 C997 C 0.46860 1.09529 0.64026
 C998 C 0.44904 1.08226 0.65307
 C999 C 0.44136 1.08968 0.67608
 H1000 H 0.45020 1.10468 0.68505
 O1001 O 0.38025 1.02364 0.58712
 O1002 O 0.35217 1.02371 0.61532
 C1003 C 0.36075 1.03202 0.59573
 C1004 C 0.34840 1.05219 0.58328
 C1005 C 0.32749 1.06250 0.59324
 H1006 H 0.31972 1.05518 0.60965
 O1007 O 0.62041 0.97628 0.58657
 O1008 O 0.64862 0.97629 0.61466
 C1009 C 0.63998 0.96796 0.59511
 C1010 C 0.65231 0.94775 0.58269
 C1011 C 0.67324 0.93747 0.59265
 H1012 H 0.68107 0.94489 0.60898
 O1013 O 0.58727 0.87965 0.52280
 O1014 O 0.61538 0.85152 0.52279
 C1015 C 0.59583 0.86009 0.53114
 C1016 C 0.58345 0.84772 0.55138
 C1017 C 0.59340 0.82678 0.56164
 H1018 H 0.60969 0.81896 0.55418
 O1019 O 0.41313 1.11998 0.52304
 O1020 O 0.38502 1.14810 0.52309
 C1021 C 0.40455 1.13950 0.53144
 C1022 C 0.41686 1.15178 0.55177
 C1023 C 0.40687 1.17269 0.56205
 H1024 H 0.39064 1.18057 0.55450
 O1025 O 0.41308 0.97624 0.61998
 O1026 O 0.38488 0.97605 0.64808
 C1027 C 0.40443 0.96775 0.63946
 C1028 C 0.41673 0.94743 0.65169
 C1029 C 0.40666 0.93698 0.67251
 H1030 H 0.39031 0.94434 0.68032
 O1031 O 0.58747 1.02344 0.61971
 O1032 O 0.61567 1.02347 0.64781
 C1033 C 0.59611 1.03180 0.63925
 C1034 C 0.58381 1.05206 0.65162
 C1035 C 0.59394 1.06243 0.67245
 H1036 H 0.61030 1.05505 0.68020
 O1037 O 0.47655 0.87959 0.58657
 O1038 O 0.47652 0.85138 0.61465
 C1039 C 0.46818 0.86001 0.59511
 C1040 C 0.44791 0.84769 0.58272
 C1041 C 0.43757 0.82676 0.59270
 H1042 H 0.44500 0.81892 0.60901
 O1043 O 0.52356 1.12002 0.58701
 O1044 O 0.52359 1.14825 0.61507
 C1045 C 0.53190 1.13964 0.59551
 C1046 C 0.55210 1.15201 0.58304
 C1047 C 0.56247 1.17292 0.59303
 H1048 H 0.55510 1.18072 0.60938
 O1049 O 0.37989 0.91291 0.52311
 O1050 O 0.35168 0.88477 0.52315
 C1051 C 0.36032 0.90433 0.53149
 C1052 C 0.34801 0.91670 0.55175
 C1053 C 0.32710 0.90666 0.56206
 H1054 H 0.31927 0.89032 0.55464
 O1055 O 0.62027 1.08724 0.52303
 O1056 O 0.64843 1.11543 0.52307
 C1057 C 0.63985 1.09584 0.53137
 C1058 C 0.65223 1.08345 0.55157
 C1059 C 0.67313 1.09351 0.56189
 H1060 H 0.68091 1.10989 0.55451
 O1061 O 0.52379 1.08695 0.61999
 O1062 O 0.52399 1.11515 0.64809
 C1063 C 0.53228 1.09560 0.63947
 C1064 C 0.55260 1.08328 0.65171
 C1065 C 0.56304 1.09335 0.67253
 H1066 H 0.55568 1.10969 0.68035
 O1067 O 0.47657 0.91255 0.61971
 O1068 O 0.47654 0.88435 0.64780
 C1069 C 0.46821 0.90391 0.63925
 C1070 C 0.44795 0.91621 0.65161
 C1071 C 0.43756 0.90608 0.67243
 H1072 H 0.44494 0.88971 0.68017
 O1073 O 0.62043 1.02347 0.58657
 O1074 O 0.64864 1.02350 0.61465
 C1075 C 0.64001 1.03184 0.59511
 C1076 C 0.65232 1.05212 0.58274
 C1077 C 0.67322 1.06249 0.59275
 H1078 H 0.68106 1.05507 0.60906
 O1079 O 0.38001 0.97647 0.58700
 O1080 O 0.35178 0.97645 0.61506
 C1081 C 0.36040 0.96814 0.59550
 C1082 C 0.34803 0.94793 0.58304
 C1083 C 0.32712 0.93757 0.59303
 H1084 H 0.31931 0.94495 0.60938
 O1085 O 0.58710 1.12015 0.52310
 O1086 O 0.61525 1.14835 0.52314
 C1087 C 0.59568 1.13971 0.53148
 C1088 C 0.58332 1.15202 0.55174
 C1089 C 0.59336 1.17293 0.56205
 H1090 H 0.60970 1.18076 0.55462
 O1091 O 0.41279 0.87974 0.52302
 O1092 O 0.38460 0.85159 0.52305
 C1093 C 0.40420 0.86016 0.53136
 C1094 C 0.41659 0.84777 0.55154
 C1095 C 0.40656 0.82685 0.56184
 H1096 H 0.39019 0.81906 0.55445
 O1097 O 0.58741 0.97625 0.61971
 O1098 O 0.61561 0.97626 0.64781
 C1099 C 0.59601 0.96791 0.63926
 C1100 C 0.58362 0.94768 0.65163
 C1101 C 0.59359 0.93740 0.67257
 H1102 H 0.60992 0.94485 0.68039
 O1103 O 0.41309 1.02337 0.62047
 O1104 O 0.38511 1.02319 0.64879
 C1105 C 0.40474 1.03144 0.64025
 C1106 C 0.41777 1.05100 0.65306
 C1107 C 0.41035 1.05868 0.67608
 H1108 H 0.39535 1.04984 0.68504
 O1109 O 0.47640 1.11978 0.58713
 O1110 O 0.47633 1.14786 0.61534
 C1111 C 0.46801 1.13929 0.59575
 C1112 C 0.44784 1.15163 0.58331
 C1113 C 0.43752 1.17253 0.59327
 H1114 H 0.44484 1.18030 0.60968
 O1115 O 0.52373 0.87961 0.58657
 O1116 O 0.52372 0.85140 0.61466
 C1117 C 0.53206 0.86003 0.59511
 C1118 C 0.55225 0.84770 0.58268
 C1119 C 0.56251 0.82676 0.59262
 H1120 H 0.55509 0.81892 0.60895
 O1121 O 0.62036 0.91273 0.52281
 O1122 O 0.64849 0.88462 0.52279
 C1123 C 0.63992 0.90417 0.53115
 C1124 C 0.65229 0.91655 0.55139
 C1125 C 0.67321 0.90658 0.56167
 H1126 H 0.68102 0.89028 0.55422
 O1127 O 0.38006 1.08691 0.52302
 O1128 O 0.35194 1.11502 0.52308
 C1129 C 0.36054 1.09548 0.53142
 C1130 C 0.34825 1.08316 0.55175
 C1131 C 0.32734 1.09315 0.56202
 H1132 H 0.31946 1.10938 0.55447
 Cu1133 Cu 0.50016 0.89892 0.60033
 Cu1134 Cu 0.50014 0.86506 0.63405
 Cu1135 Cu 0.50005 1.10061 0.60084
 Cu1136 Cu 0.50016 1.13440 0.63462
 Cu1137 Cu 0.39911 0.89914 0.49946
 Cu1138 Cu 0.36526 0.86536 0.49951
 Cu1139 Cu 0.60100 0.89902 0.49921
 Cu1140 Cu 0.63475 0.86526 0.49918
 Cu1141 Cu 0.39937 1.10067 0.49940
 Cu1142 Cu 0.36562 1.13443 0.49948
 Cu1143 Cu 0.60088 1.10092 0.49946
 Cu1144 Cu 0.63467 1.13476 0.49951
 Cu1145 Cu 0.39942 0.99998 0.60083
 Cu1146 Cu 0.36563 0.99988 0.63461
 Cu1147 Cu 0.60110 0.99985 0.60033
 Cu1148 Cu 0.63496 0.99988 0.63405
 C1149 C 0.56282 0.93720 0.64146
 H1150 H 0.55530 0.94472 0.62506
 C1151 C 0.58319 0.91683 0.68291
 C1152 C 0.43727 1.06277 0.64184
 H1153 H 0.44289 1.05715 0.62398
 C1154 C 0.42215 1.07788 0.68758
 C1155 C 0.35850 1.06251 0.56236
 H1156 H 0.37489 1.05498 0.55484
 C1157 C 0.31708 1.08293 0.58271
 C1158 C 0.64212 0.93731 0.56188
 H1159 H 0.62573 0.94483 0.55437
 C1160 C 0.68356 0.91694 0.58225
 C1161 C 0.56270 0.85789 0.56188
 H1162 H 0.55519 0.87430 0.55438
 C1163 C 0.58304 0.81642 0.58221
 C1164 C 0.43752 1.14153 0.56239
 H1165 H 0.44506 1.12515 0.55486
 C1166 C 0.41709 1.18294 0.58274
 C1167 C 0.43755 0.93706 0.64153
 H1168 H 0.44515 0.94471 0.62521
 C1169 C 0.41696 0.91636 0.68275
 C1170 C 0.56297 1.06247 0.64153
 H1171 H 0.55533 1.05488 0.62521
 C1172 C 0.58366 1.08303 0.68278
 C1173 C 0.43744 0.85790 0.56196
 H1174 H 0.44501 0.87430 0.55444
 C1175 C 0.41694 0.81647 0.58237
 C1176 C 0.56251 1.14184 0.56222
 H1177 H 0.55494 1.12545 0.55469
 C1178 C 0.58305 1.18325 0.58264
 C1179 C 0.35819 0.93751 0.56222
 H1180 H 0.37459 0.94508 0.55469
 C1181 C 0.31678 0.91698 0.58265
 C1182 C 0.64212 1.06258 0.56197
 H1183 H 0.62573 1.05500 0.55443
 C1184 C 0.68350 1.08313 0.58243
 O1185 O 0.47532 0.41169 0.87898
 O1186 O 0.47518 0.38347 0.85090
 C1187 C 0.46687 0.40304 0.85949
 C1188 C 0.44659 0.41537 0.84719
 C1189 C 0.43631 0.40540 0.82624
 H1190 H 0.44374 0.38910 0.81839
 O1191 O 0.52287 0.58643 0.87855
 O1192 O 0.52286 0.61451 0.85034
 C1193 C 0.53119 0.59498 0.85895
 C1194 C 0.55139 0.58260 0.84659
 C1195 C 0.56170 0.59259 0.82566
 H1196 H 0.55430 0.60892 0.81784
 O1197 O 0.37838 0.47556 0.91182
 O1198 O 0.35006 0.47569 0.88385
 C1199 C 0.35862 0.46744 0.90345
 C1200 C 0.34586 0.44778 0.91638
 C1201 C 0.32280 0.44015 0.90901
 H1202 H 0.31376 0.44911 0.89416
 O1203 O 0.61950 0.52299 0.91161
 O1204 O 0.64759 0.52300 0.88340
 C1205 C 0.63904 0.53136 0.90297
 C1206 C 0.65143 0.55164 0.91530
 C1207 C 0.67236 0.56196 0.90527
 H1208 H 0.68015 0.55452 0.88894
 O1209 O 0.41164 0.37854 0.97496
 O1210 O 0.38357 0.35026 0.97506
 C1211 C 0.40323 0.35879 0.96684
 C1212 C 0.41628 0.34597 0.94734
 C1213 C 0.40889 0.32292 0.93969
 H1214 H 0.39385 0.31396 0.94845
 O1215 O 0.58666 0.61971 0.97525
 O1216 O 0.61482 0.64790 0.97514
 C1217 C 0.59524 0.63927 0.96685
 C1218 C 0.58282 0.65157 0.94661
 C1219 C 0.59276 0.67254 0.93633
 H1220 H 0.60906 0.68043 0.94378
 O1221 O 0.41185 0.52249 0.87875
 O1222 O 0.38378 0.52244 0.85052
 C1223 C 0.40334 0.53079 0.85914
 C1224 C 0.41580 0.55102 0.84679
 C1225 C 0.40582 0.56134 0.82588
 H1226 H 0.38948 0.55392 0.81805
 O1227 O 0.58629 0.47566 0.87875
 O1228 O 0.61437 0.47564 0.85054
 C1229 C 0.59481 0.46729 0.85919
 C1230 C 0.58239 0.44703 0.84686
 C1231 C 0.59241 0.43669 0.82599
 H1232 H 0.60878 0.44410 0.81821
 O1233 O 0.52274 0.37886 0.91183
 O1234 O 0.52285 0.35076 0.88363
 C1235 C 0.53119 0.35939 0.90318
 C1236 C 0.55155 0.34718 0.91548
 C1237 C 0.56198 0.32640 0.90539
 H1238 H 0.55458 0.31858 0.88903
 O1239 O 0.47577 0.61955 0.91160
 O1240 O 0.47576 0.64763 0.88339
 C1241 C 0.46745 0.63909 0.90299
 C1242 C 0.44727 0.65148 0.91538
 C1243 C 0.43696 0.67235 0.90534
 H1244 H 0.44434 0.68012 0.88895
 O1245 O 0.37923 0.58660 0.97530
 O1246 O 0.35111 0.61473 0.97530
 C1247 C 0.35968 0.59518 0.96695
 C1248 C 0.34732 0.58283 0.94668
 C1249 C 0.32653 0.59294 0.93628
 H1250 H 0.31882 0.60932 0.94366
 O1251 O 0.61970 0.41230 0.97536
 O1252 O 0.64785 0.38421 0.97535
 C1253 C 0.63926 0.40376 0.96701
 C1254 C 0.65159 0.41614 0.94676
 C1255 C 0.67248 0.40616 0.93642
 H1256 H 0.68031 0.38986 0.94387
 O1257 O 0.47568 0.58626 0.87875
 O1258 O 0.47566 0.61433 0.85053
 C1259 C 0.46732 0.59477 0.85917
 C1260 C 0.44708 0.58233 0.84684
 C1261 C 0.43678 0.59231 0.82592
 H1262 H 0.44420 0.60867 0.81812
 O1263 O 0.52251 0.41184 0.87875
 O1264 O 0.52246 0.38377 0.85053
 C1265 C 0.53082 0.40333 0.85915
 C1266 C 0.55107 0.41577 0.84681
 C1267 C 0.56143 0.40575 0.82594
 H1268 H 0.55402 0.38939 0.81813
 O1269 O 0.61956 0.47580 0.91163
 O1270 O 0.64765 0.47579 0.88343
 C1271 C 0.63911 0.46748 0.90303
 C1272 C 0.65151 0.44731 0.91543
 C1273 C 0.67240 0.43702 0.90541
 H1274 H 0.68017 0.44442 0.88904
 O1275 O 0.37885 0.52273 0.91182
 O1276 O 0.35076 0.52284 0.88361
 C1277 C 0.35938 0.53119 0.90317
 C1278 C 0.34718 0.55154 0.91547
 C1279 C 0.32639 0.56198 0.90537
 H1280 H 0.31857 0.55459 0.88902
 O1281 O 0.41230 0.61969 0.97534
 O1282 O 0.38420 0.64783 0.97533
 C1283 C 0.40374 0.63924 0.96698
 C1284 C 0.41611 0.65157 0.94671
 C1285 C 0.40611 0.67244 0.93636
 H1286 H 0.38981 0.68026 0.94380
 O1287 O 0.58662 0.37922 0.97531
 O1288 O 0.61475 0.35111 0.97531
 C1289 C 0.59519 0.35968 0.96695
 C1290 C 0.58284 0.34732 0.94669
 C1291 C 0.59295 0.32653 0.93629
 H1292 H 0.60934 0.31882 0.94366
 O1293 O 0.58643 0.52286 0.87855
 O1294 O 0.61451 0.52285 0.85033
 C1295 C 0.59497 0.53118 0.85895
 C1296 C 0.58259 0.55138 0.84658
 C1297 C 0.59259 0.56168 0.82566
 H1298 H 0.60891 0.55427 0.81784
 O1299 O 0.41168 0.47530 0.87898
 O1300 O 0.38346 0.47517 0.85090
 C1301 C 0.40303 0.46686 0.85949
 C1302 C 0.41537 0.44658 0.84719
 C1303 C 0.40540 0.43630 0.82625
 H1304 H 0.38910 0.44373 0.81840
 O1305 O 0.52296 0.61950 0.91162
 O1306 O 0.52297 0.64759 0.88342
 C1307 C 0.53132 0.63905 0.90300
 C1308 C 0.55157 0.65146 0.91536
 C1309 C 0.56183 0.67243 0.90538
 H1310 H 0.55439 0.68024 0.88906
 O1311 O 0.47557 0.37839 0.91182
 O1312 O 0.47570 0.35007 0.88384
 C1313 C 0.46744 0.35862 0.90345
 C1314 C 0.44779 0.34586 0.91637
 C1315 C 0.44014 0.32281 0.90899
 H1316 H 0.44910 0.31378 0.89413
 O1317 O 0.61970 0.58670 0.97522
 O1318 O 0.64788 0.61486 0.97511
 C1319 C 0.63925 0.59528 0.96681
 C1320 C 0.65153 0.58290 0.94655
 C1321 C 0.67246 0.59289 0.93622
 H1322 H 0.68033 0.60921 0.94365
 O1323 O 0.37854 0.41163 0.97496
 O1324 O 0.35026 0.38356 0.97507
 C1325 C 0.35880 0.40322 0.96684
 C1326 C 0.34597 0.41627 0.94735
 C1327 C 0.32291 0.40889 0.93971
 H1328 H 0.31395 0.39385 0.94847
 Cu1329 Cu 0.49900 0.39801 0.89816
 Cu1330 Cu 0.49902 0.36422 0.86437
 Cu1331 Cu 0.49932 0.60012 0.89796
 Cu1332 Cu 0.49931 0.63383 0.86409
 Cu1333 Cu 0.39800 0.49899 0.89816
 Cu1334 Cu 0.36422 0.49901 0.86437
 Cu1335 Cu 0.60013 0.49933 0.89796
 Cu1336 Cu 0.63384 0.49931 0.86410
 C1337 C 0.43614 0.43613 0.85738
 H1338 H 0.44367 0.44367 0.87379
 C1339 C 0.41577 0.41576 0.81590
 C1340 C 0.56181 0.56181 0.85676
 H1341 H 0.55428 0.55428 0.87316
 C1342 C 0.58225 0.58224 0.81532
 C1343 C 0.35718 0.43586 0.93570
 H1344 H 0.37507 0.44146 0.94128
 C1345 C 0.31133 0.42085 0.92068
 C1346 C 0.64131 0.56210 0.93611
 H1347 H 0.62492 0.55456 0.94368
 C1348 C 0.68275 0.58253 0.91563
 C1349 C 0.43587 0.35717 0.93570
 H1350 H 0.44148 0.37506 0.94129
 C1351 C 0.42084 0.31135 0.92066
 C1352 C 0.56205 0.64132 0.93615
 H1353 H 0.55455 0.62489 0.94367
 C1354 C 0.58238 0.68286 0.91577
 C1355 C 0.43660 0.56150 0.85699
 H1356 H 0.44413 0.55397 0.87338
 C1357 C 0.41620 0.58194 0.81558
 C1358 C 0.56154 0.43659 0.85699
 H1359 H 0.55398 0.44414 0.87336
 C1360 C 0.58205 0.41610 0.81566
 C1361 C 0.56197 0.35736 0.93630
 H1362 H 0.55434 0.37366 0.94392
 C1363 C 0.58263 0.31620 0.91568
 C1364 C 0.43687 0.64138 0.93624
 H1365 H 0.44440 0.62502 0.94382
 C1366 C 0.41643 0.68271 0.91572
 C1367 C 0.35736 0.56196 0.93629
 H1368 H 0.37366 0.55433 0.94390
 C1369 C 0.31619 0.58263 0.91568
 C1370 C 0.64140 0.43689 0.93628
 H1371 H 0.62502 0.44441 0.94384
 C1372 C 0.68276 0.41650 0.91580
 O1373 O 0.52297 0.41224 1.11893
 O1374 O 0.52292 0.38410 1.14709
 C1375 C 0.53130 0.40366 1.13850
 C1376 C 0.55155 0.41605 1.15087
 C1377 C 0.56184 0.40606 1.17179
 H1378 H 0.55440 0.38972 1.17960
 O1379 O 0.47599 0.58667 1.11905
 O1380 O 0.47598 0.61478 1.14723
 C1381 C 0.46763 0.59522 1.13861
 C1382 C 0.44736 0.58281 1.15092
 C1383 C 0.43704 0.59279 1.17184
 H1384 H 0.44449 0.60911 1.17968
 O1385 O 0.37909 0.52286 1.08596
 O1386 O 0.35094 0.52280 1.11411
 C1387 C 0.35952 0.53116 1.09455
 C1388 C 0.34717 0.55138 1.08218
 C1389 C 0.32624 0.56163 1.09217
 H1390 H 0.31839 0.55416 1.10847
 O1391 O 0.61981 0.47601 1.08609
 O1392 O 0.64795 0.47603 1.11425
 C1393 C 0.63936 0.46768 1.09469
 C1394 C 0.65168 0.44744 1.08233
 C1395 C 0.67262 0.43718 1.09231
 H1396 H 0.68047 0.44465 1.10861
 O1397 O 0.58660 0.37917 1.02250
 O1398 O 0.61472 0.35105 1.02251
 C1399 C 0.59515 0.35961 1.03083
 C1400 C 0.58272 0.34721 1.05102
 C1401 C 0.59267 0.32629 1.06132
 H1402 H 0.60901 0.31850 1.05391
 O1403 O 0.41229 0.61969 1.02253
 O1404 O 0.38419 0.64782 1.02254
 C1405 C 0.40375 0.63925 1.03088
 C1406 C 0.41616 0.65162 1.05110
 C1407 C 0.40622 0.67256 1.06138
 H1408 H 0.38991 0.68037 1.05396
 O1409 O 0.41220 0.47576 1.11901
 O1410 O 0.38407 0.47570 1.14718
 C1411 C 0.40363 0.46740 1.13859
 C1412 C 0.41602 0.44721 1.15096
 C1413 C 0.40608 0.43696 1.17194
 H1414 H 0.38979 0.44440 1.17979
 O1415 O 0.58677 0.52318 1.11912
 O1416 O 0.61489 0.52320 1.14731
 C1417 C 0.59534 0.53153 1.13870
 C1418 C 0.58295 0.55173 1.15106
 C1419 C 0.59290 0.56199 1.17204
 H1420 H 0.60920 0.55456 1.17989
 O1421 O 0.47568 0.37923 1.08580
 O1422 O 0.47561 0.35110 1.11397
 C1423 C 0.46727 0.35969 1.09440
 C1424 C 0.44697 0.34733 1.08208
 C1425 C 0.43658 0.32653 1.09225
 H1426 H 0.44398 0.31883 1.10864
 O1427 O 0.52322 0.61983 1.08606
 O1428 O 0.52326 0.64796 1.11422
 C1429 C 0.53159 0.63939 1.09465
 C1430 C 0.55182 0.65177 1.08225
 C1431 C 0.56211 0.67275 1.09218
 H1432 H 0.55468 0.68060 1.10848
 O1433 O 0.37888 0.41182 1.02208
 O1434 O 0.35069 0.38367 1.02227
 C1435 C 0.35936 0.40325 1.03055
 C1436 C 0.34717 0.41565 1.05086
 C1437 C 0.32636 0.40558 1.06136
 H1438 H 0.31853 0.38919 1.05405
 O1439 O 0.61982 0.58678 1.02242
 O1440 O 0.64801 0.61495 1.02234
 C1441 C 0.63941 0.59539 1.03072
 C1442 C 0.65179 0.58303 1.05095
 C1443 C 0.67278 0.59300 1.06118
 H1444 H 0.68064 0.60930 1.05370
 O1445 O 0.52318 0.58676 1.11912
 O1446 O 0.52320 0.61487 1.14731
 C1447 C 0.53152 0.59532 1.13870
 C1448 C 0.55173 0.58294 1.15107
 C1449 C 0.56199 0.59289 1.17204
 H1450 H 0.55455 0.60918 1.17989
 O1451 O 0.47578 0.41217 1.11901
 O1452 O 0.47572 0.38404 1.14718
 C1453 C 0.46742 0.40360 1.13859
 C1454 C 0.44723 0.41599 1.15095
 C1455 C 0.43698 0.40605 1.17194
 H1456 H 0.44442 0.38976 1.17979
 O1457 O 0.61983 0.52320 1.08605
 O1458 O 0.64797 0.52325 1.11421
 C1459 C 0.63940 0.53157 1.09463
 C1460 C 0.65178 0.55180 1.08222
 C1461 C 0.67277 0.56209 1.09215
 H1462 H 0.68062 0.55465 1.10845
 O1463 O 0.37926 0.47565 1.08581
 O1464 O 0.35113 0.47559 1.11397
 C1465 C 0.35971 0.46725 1.09440
 C1466 C 0.34735 0.44696 1.08207
 C1467 C 0.32654 0.43658 1.09223
 H1468 H 0.31883 0.44398 1.10862
 O1469 O 0.58680 0.61981 1.02244
 O1470 O 0.61496 0.64800 1.02236
 C1471 C 0.59540 0.63940 1.03074
 C1472 C 0.58305 0.65177 1.05098
 C1473 C 0.59303 0.67275 1.06121
 H1474 H 0.60934 0.68061 1.05374
 O1475 O 0.41184 0.37887 1.02208
 O1476 O 0.38368 0.35067 1.02227
 C1477 C 0.40326 0.35935 1.03055
 C1478 C 0.41566 0.34715 1.05087
 C1479 C 0.40558 0.32636 1.06138
 H1480 H 0.38919 0.31853 1.05408
 O1481 O 0.58667 0.47599 1.11905
 O1482 O 0.61478 0.47599 1.14723
 C1483 C 0.59522 0.46763 1.13861
 C1484 C 0.58281 0.44737 1.15093
 C1485 C 0.59277 0.43706 1.17185
 H1486 H 0.60909 0.44452 1.17970
 O1487 O 0.41225 0.52296 1.11893
 O1488 O 0.38411 0.52290 1.14709
 C1489 C 0.40367 0.53129 1.13850
 C1490 C 0.41606 0.55155 1.15086
 C1491 C 0.40605 0.56184 1.17178
 H1492 H 0.38970 0.55440 1.17958
 O1493 O 0.47603 0.61980 1.08608
 O1494 O 0.47604 0.64794 1.11424
 C1495 C 0.46769 0.63935 1.09467
 C1496 C 0.44746 0.65168 1.08230
 C1497 C 0.43721 0.67262 1.09227
 H1498 H 0.44468 0.68047 1.10857
 O1499 O 0.52289 0.37906 1.08597
 O1500 O 0.52282 0.35091 1.11412
 C1501 C 0.53119 0.35950 1.09456
 C1502 C 0.55142 0.34715 1.08220
 C1503 C 0.56169 0.32623 1.09220
 H1504 H 0.55423 0.31839 1.10851
 O1505 O 0.61970 0.41228 1.02255
 O1506 O 0.64783 0.38418 1.02256
 C1507 C 0.63925 0.40373 1.03090
 C1508 C 0.65163 0.41614 1.05113
 C1509 C 0.67256 0.40620 1.06142
 H1510 H 0.68037 0.38988 1.05400
 O1511 O 0.37919 0.58659 1.02248
 O1512 O 0.35107 0.61470 1.02250
 C1513 C 0.35962 0.59513 1.03082
 C1514 C 0.34723 0.58269 1.05100
 C1515 C 0.32630 0.59263 1.06129
 H1516 H 0.31849 0.60896 1.05388
 Cu1517 Cu 0.49934 0.39849 1.09961
 Cu1518 Cu 0.49926 0.36472 1.13340
 Cu1519 Cu 0.49961 0.60045 1.09976
 Cu1520 Cu 0.49963 0.63421 1.13357
 Cu1521 Cu 0.39804 0.39803 0.99842
 Cu1522 Cu 0.36422 0.36421 0.99861
 Cu1523 Cu 0.60034 0.39856 0.99894
 Cu1524 Cu 0.63411 0.36482 0.99894
 Cu1525 Cu 0.39857 0.60033 0.99892
 Cu1526 Cu 0.36483 0.63409 0.99893
 Cu1527 Cu 0.60043 0.60043 0.99885
 Cu1528 Cu 0.63424 0.63425 0.99873
 Cu1529 Cu 0.39852 0.49932 1.09961
 Cu1530 Cu 0.36474 0.49923 1.13340
 Cu1531 Cu 0.60046 0.49960 1.09976
 Cu1532 Cu 0.63421 0.49963 1.13357
 C1533 C 0.56202 0.43688 1.14072
 H1534 H 0.55451 0.44441 1.12433
 C1535 C 0.58240 0.41646 1.18216
 C1536 C 0.43688 0.56202 1.14072
 H1537 H 0.44443 0.55450 1.12434
 C1538 C 0.41644 0.58241 1.18214
 C1539 C 0.35737 0.56190 1.06143
 H1540 H 0.37378 0.55440 1.05390
 C1541 C 0.31592 0.58220 1.08182
 C1542 C 0.64148 0.43693 1.06156
 H1543 H 0.62508 0.44443 1.05404
 C1544 C 0.68293 0.41661 1.08196
 C1545 C 0.56192 0.35734 1.06144
 H1546 H 0.55441 0.37374 1.05390
 C1547 C 0.58226 0.31592 1.08186
 C1548 C 0.43695 0.64147 1.06154
 H1549 H 0.44445 0.62507 1.05402
 C1550 C 0.41664 0.68294 1.08192
 C1551 C 0.43677 0.43675 1.14075
 H1552 H 0.44427 0.44424 1.12432
 C1553 C 0.41645 0.41643 1.18231
 C1554 C 0.56219 0.56219 1.14087
 H1555 H 0.55469 0.55468 1.12444
 C1556 C 0.58252 0.58252 1.18241
 C1557 C 0.43653 0.35737 1.06121
 H1558 H 0.44413 0.37368 1.05353
 C1559 C 0.41593 0.31619 1.08203
 C1560 C 0.56227 0.64158 1.06147
 H1561 H 0.55474 0.62515 1.05398
 C1562 C 0.58266 0.68313 1.08176
 C1563 C 0.35739 0.43651 1.06121
 H1564 H 0.37371 0.44410 1.05355
 C1565 C 0.31619 0.41594 1.08200
 C1566 C 0.64159 0.56225 1.06145
 H1567 H 0.62515 0.55473 1.05397
 C1568 C 0.68315 0.58263 1.08172
 C1569 C 1.14257 1.14256 1.26989
 C1570 C 1.14866 1.15030 1.24400
 C1571 C 1.13622 1.13785 1.22683
 C1572 C 1.11889 1.11886 1.23720
 C1573 C 1.10261 1.13280 1.25474
 C1574 C 1.11507 1.14527 1.27194
 C1575 C 1.14713 1.11524 1.27050
 C1576 C 1.13467 1.10277 1.25330
 C1577 C 1.15616 1.15616 1.28812
 C1578 C 1.16768 1.16770 1.30256
 C1579 C 1.10570 1.10566 1.21840
 C1580 C 1.09534 1.09529 1.20231
 H1581 H 1.16161 1.16434 1.23952
 H1582 H 1.13853 1.14124 1.20766
 H1583 H 1.08304 1.13285 1.25376
 H1584 H 1.10618 1.15601 1.28570
 H1585 H 1.15906 1.10647 1.28332
 H1586 H 1.13593 1.08331 1.25139
 C1587 C 1.14291 0.64345 0.76919
 C1588 C 1.14711 0.65243 0.74333
 C1589 C 1.13449 0.63985 0.72639
 C1590 C 1.11889 0.61950 0.73694
 C1591 C 1.10281 0.63182 0.75582
 C1592 C 1.11545 0.64442 0.77280
 C1593 C 1.14908 0.61645 0.76853
 C1594 C 1.13645 0.60385 0.75156
 C1595 C 1.15667 0.65715 0.78720
 C1596 C 1.16832 0.66873 0.80150
 C1597 C 1.10552 0.60615 0.71839
 C1598 C 1.09500 0.59563 0.70250
 H1599 H 1.15895 0.66737 0.73871
 H1600 H 1.13554 0.64403 0.70726
 H1601 H 1.08324 0.63073 0.75588
 H1602 H 1.10671 0.65413 0.78740
 H1603 H 1.16219 0.60797 0.78036
 H1604 H 1.13873 0.58458 0.74885
 C1605 C 0.64343 1.14288 0.76920
 C1606 C 0.64837 1.15120 0.74325
 C1607 C 0.63580 1.13857 0.72632
 C1608 C 0.61949 1.11884 0.73696
 C1609 C 0.60333 1.13196 0.75525
 C1610 C 0.61593 1.14461 0.77221
 C1611 C 0.64894 1.11573 0.76924
 C1612 C 0.63634 1.10308 0.75228
 C1613 C 0.65714 1.15666 0.78719
 C1614 C 0.66872 1.16833 0.80148
 C1615 C 0.60614 1.10545 0.71842
 C1616 C 0.59562 1.09494 0.70253
 H1617 H 0.66067 1.16574 0.73856
 H1618 H 0.63734 1.14231 0.70713
 H1619 H 0.58375 1.13134 0.75491
 H1620 H 0.60714 1.15484 0.78642
 H1621 H 0.66159 1.10720 0.78152
 H1622 H 0.63819 1.08371 0.75002
 C1623 C 0.64164 0.64163 1.26983
 C1624 C 0.62467 0.62233 1.28028
 C1625 C 0.61217 0.60983 1.26310
 C1626 C 0.61790 0.61789 1.23720
 C1627 C 0.64540 0.61557 1.23485
 C1628 C 0.65787 0.62804 1.25199
 C1629 C 0.62547 0.65762 1.25404
 C1630 C 0.61300 0.64515 1.23689
 C1631 C 0.65526 0.65525 1.28801
 C1632 C 0.66683 0.66681 1.30240
 C1633 C 0.60468 0.60468 1.21843
 C1634 C 0.59430 0.59429 1.20236
 H1635 H 0.62265 0.61879 1.29945
 H1636 H 0.59944 0.59559 1.26755
 H1637 H 0.65430 0.60502 1.22095
 H1638 H 0.67745 0.62817 1.25277
 H1639 H 0.62392 0.67704 1.25616
 H1640 H 0.60077 0.65389 1.22433
 C1641 C 0.85828 0.85830 1.26974
 C1642 C 0.88431 0.84945 1.26633
 C1643 C 0.89681 0.86195 1.24919
 C1644 C 0.88205 0.88205 1.23715
 C1645 C 0.87309 0.89788 1.25805
 C1646 C 0.86058 0.88538 1.27520
 C1647 C 0.84688 0.85697 1.24453
 C1648 C 0.85936 0.86944 1.22742
 C1649 C 0.84465 0.84467 1.28791
 C1650 C 0.83308 0.83309 1.30229
 C1651 C 0.89529 0.89528 1.21840
 C1652 C 0.90568 0.90567 1.20235
 H1653 H 0.89223 0.83471 1.27651
 H1654 H 0.91544 0.85791 1.24468
 H1655 H 0.87631 0.91718 1.25928
 H1656 H 0.85308 0.89397 1.29113
 H1657 H 0.83042 0.84710 1.24048
 H1658 H 0.85358 0.87025 1.20871
 C1659 C 0.85659 0.35712 0.76922
 C1660 C 0.88304 0.34924 0.76688
 C1661 C 0.89564 0.36188 0.74992
 C1662 C 0.88055 0.38115 0.73698
 C1663 C 0.87026 0.39702 0.75722
 C1664 C 0.85765 0.38437 0.77419
 C1665 C 0.84613 0.35486 0.74367
 C1666 C 0.85871 0.36747 0.72674
 C1667 C 0.84288 0.34336 0.78721
 C1668 C 0.83130 0.33170 0.80150
 C1669 C 0.89390 0.39453 0.71843
 C1670 C 0.90443 0.40504 0.70255
 H1671 H 0.89117 0.33502 0.77763
 H1672 H 0.91456 0.35849 0.74613
 H1673 H 0.87268 0.41645 0.75815
 H1674 H 0.84927 0.39297 0.78967
 H1675 H 0.83022 0.34427 0.73926
 H1676 H 0.85356 0.36769 0.70783
 C1677 C 0.35710 0.85661 0.76919
 C1678 C 0.38288 0.84725 0.76535
 C1679 C 0.39552 0.85984 0.74838
 C1680 C 0.38113 0.88054 0.73693
 C1681 C 0.37271 0.89610 0.75825
 C1682 C 0.36006 0.88350 0.77523
 C1683 C 0.34546 0.85611 0.74406
 C1684 C 0.35808 0.86867 0.72712
 C1685 C 0.34333 0.84291 0.78718
 C1686 C 0.33167 0.83133 0.80148
 C1687 C 0.39452 0.89388 0.71838
 C1688 C 0.40504 0.90439 0.70249
 H1689 H 0.39054 0.83210 0.77512
 H1690 H 0.41401 0.85547 0.74362
 H1691 H 0.37638 0.91529 0.75988
 H1692 H 0.35289 0.89190 0.79141
 H1693 H 0.32874 0.84671 0.73993
 H1694 H 0.35217 0.87004 0.70848
 C1695 C 0.35745 0.35744 1.26988
 C1696 C 0.34402 0.37972 1.26039
 C1697 C 0.35647 0.39216 1.24320
 C1698 C 0.38113 0.38111 1.23717
 C1699 C 0.37567 0.35486 1.23015
 C1700 C 0.36323 0.34243 1.24733
 C1701 C 0.38195 0.36702 1.27866
 C1702 C 0.39442 0.37948 1.26144
 C1703 C 0.34386 0.34386 1.28812
 C1704 C 0.33233 0.33234 1.30257
 C1705 C 0.39432 0.39430 1.21836
 C1706 C 0.40469 0.40466 1.20227
 H1707 H 0.32631 0.38526 1.26667
 H1708 H 0.34943 0.40836 1.23474
 H1709 H 0.38113 0.34674 1.21318
 H1710 H 0.35804 0.32366 1.24506
 H1711 H 0.38888 0.36427 1.29678
 H1712 H 0.41203 0.38742 1.26481
 C1713 C 0.85772 1.14307 0.72929
 C1714 C 0.85282 1.15135 0.75526
 C1715 C 0.86557 1.13890 0.77215
 C1716 C 0.88201 1.11937 0.76145
 C1717 C 0.89797 1.13267 0.74309
 C1718 C 0.88518 1.14514 0.72616
 C1719 C 0.85244 1.11585 0.72931
 C1720 C 0.86522 1.10338 0.74623
 C1721 C 0.84381 1.15666 0.71136
 C1722 C 0.83209 1.16820 0.69712
 C1723 C 0.89553 1.10616 0.77996
 C1724 C 0.90611 1.09575 0.79584
 H1725 H 0.84041 1.16574 0.75998
 H1726 H 0.86409 1.14264 0.79133
 H1727 H 0.91756 1.13229 0.74333
 H1728 H 0.89382 1.15546 0.71190
 H1729 H 0.83981 1.10714 0.71709
 H1730 H 0.86354 1.08399 0.74851
 C1731 C 0.85817 0.64184 0.22806
 C1732 C 0.85261 0.65007 0.25392
 C1733 C 0.86501 0.63767 0.27110
 C1734 C 0.88178 0.61821 0.26080
 C1735 C 0.89812 0.63159 0.24283
 C1736 C 0.88570 0.64402 0.22560
 C1737 C 0.85301 0.61460 0.22794
 C1738 C 0.86543 0.60217 0.24517
 C1739 C 0.84462 0.65539 0.20981
 C1740 C 0.83311 0.66691 0.19537
 C1741 C 0.89493 0.60505 0.27963
 C1742 C 0.90526 0.59471 0.29573
 H1743 H 0.84003 0.66441 0.25834
 H1744 H 0.86304 0.64139 0.29025
 H1745 H 0.91770 0.63131 0.24355
 H1746 H 0.89463 0.65439 0.21156
 H1747 H 0.84072 0.60584 0.21542
 H1748 H 0.86378 0.58277 0.24740
 C1749 C 0.35662 1.14337 0.23040
 C1750 C 0.35850 1.11632 0.22470
 C1751 C 0.37122 1.10360 0.24150
 C1752 C 0.38079 1.11922 0.26231
 C1753 C 0.35845 1.13192 0.27261
 C1754 C 0.34576 1.14460 0.25585
 C1755 C 0.38281 1.15200 0.23333
 C1756 C 0.39552 1.13930 0.25012
 C1757 C 0.34279 1.15721 0.21260
 C1758 C 0.33111 1.16890 0.19845
 C1759 C 0.39426 1.10576 0.28067
 C1760 C 0.40485 1.09517 0.29644
 H1761 H 0.35056 1.10790 0.20887
 H1762 H 0.37419 1.08429 0.24006
 H1763 H 0.35306 1.13101 0.29143
 H1764 H 0.32950 1.15456 0.26032
 H1765 H 0.39069 1.16676 0.22310
 H1766 H 0.41429 1.14317 0.25427
 C1767 C 0.35705 0.64222 0.72921
 C1768 C 0.35169 0.65006 0.75522
 C1769 C 0.36414 0.63731 0.77212
 C1770 C 0.38074 0.61795 0.76138
 C1771 C 0.39703 0.63154 0.74353
 C1772 C 0.38456 0.64432 0.72660
 C1773 C 0.35175 0.61501 0.72867
 C1774 C 0.36422 0.60224 0.74560
 C1775 C 0.34346 0.65612 0.71127
 C1776 C 0.33192 0.66784 0.69703
 C1777 C 0.39395 0.60444 0.77990
 C1778 C 0.40435 0.59386 0.79579
 H1779 H 0.33922 0.66439 0.75997
 H1780 H 0.36231 0.64072 0.79134
 H1781 H 0.41662 0.63115 0.74411
 H1782 H 0.39346 0.65487 0.71267
 H1783 H 0.33934 0.60653 0.71608
 H1784 H 0.36249 0.58281 0.74752
 C1785 C 1.14314 0.85769 0.72937
 C1786 C 1.13602 0.88312 0.72097
 C1787 C 1.12353 0.89591 0.73789
 C1788 C 1.11941 0.88199 0.76150
 C1789 C 1.14468 0.87435 0.76983
 C1790 C 1.15715 0.86158 0.75295
 C1791 C 1.11935 0.84567 0.73702
 C1792 C 1.10687 0.85845 0.75391
 C1793 C 1.15674 0.84378 0.71145
 C1794 C 1.16829 0.83204 0.69724
 C1795 C 1.10618 0.89551 0.77999
 C1796 C 1.09575 0.90610 0.79586
 H1797 H 1.14039 0.89042 0.70331
 H1798 H 1.11719 0.91417 0.73473
 H1799 H 1.15216 0.87861 0.78744
 H1800 H 1.17529 0.85492 0.75611
 H1801 H 1.11286 0.82864 0.72977
 H1802 H 1.08969 0.85237 0.76114
 C1803 C 1.14333 0.35670 0.23038
 C1804 C 1.13633 0.38217 0.22201
 C1805 C 1.12361 0.39487 0.23882
 C1806 C 1.11917 0.38083 0.26231
 C1807 C 1.14433 0.37315 0.27093
 C1808 C 1.15702 0.36047 0.25416
 C1809 C 1.11944 0.34464 0.23765
 C1810 C 1.10674 0.35733 0.25444
 C1811 C 1.15716 0.34288 0.21257
 C1812 C 1.16885 0.33120 0.19842
 C1813 C 1.10571 0.39428 0.28068
 C1814 C 1.09513 0.40485 0.29646
 H1815 H 1.14093 0.38956 0.20445
 H1816 H 1.11731 0.41315 0.23567
 H1817 H 1.15157 0.37732 0.28867
 H1818 H 1.17513 0.35379 0.25753
 H1819 H 1.11305 0.32765 0.23023
 H1820 H 1.08946 0.35121 0.26141
 C1821 C 0.64184 0.85821 0.22803
 C1822 C 0.63520 0.88401 0.22040
 C1823 C 0.62276 0.89645 0.23762
 C1824 C 0.61820 0.88184 0.26074
 C1825 C 0.64327 0.87352 0.26902
 C1826 C 0.65568 0.86111 0.25184
 C1827 C 0.61779 0.84633 0.23508
 C1828 C 0.60536 0.85875 0.25228
 C1829 C 0.65540 0.84465 0.20979
 C1830 C 0.66692 0.83312 0.19538
 C1831 C 0.60503 0.89499 0.27955
 C1832 C 0.59469 0.90532 0.29566
 H1833 H 0.63985 0.89181 0.20303
 H1834 H 0.61674 0.91490 0.23500
 H1835 H 0.65065 0.87708 0.28683
 H1836 H 0.67369 0.85406 0.25494
 H1837 H 0.61109 0.82966 0.22722
 H1838 H 0.58802 0.85272 0.25916
 C1839 C 0.64241 0.35681 0.72943
 C1840 C 0.64176 0.34448 0.75423
 C1841 C 0.62901 0.35695 0.77111
 C1842 C 0.61812 0.38054 0.76157
 C1843 C 0.60303 0.37309 0.73953
 C1844 C 0.61581 0.36060 0.72262
 C1845 C 0.65235 0.38223 0.73429
 C1846 C 0.63958 0.39472 0.75119
 C1847 C 0.65632 0.34321 0.71151
 C1848 C 0.66805 0.33166 0.69729
 C1849 C 0.60459 0.39378 0.78006
 C1850 C 0.59400 0.40421 0.79592
 H1851 H 0.65055 0.32743 0.75819
 H1852 H 0.62687 0.35057 0.78952
 H1853 H 0.58401 0.37728 0.73740
 H1854 H 0.60775 0.35408 0.70598
 H1855 H 0.66801 0.38978 0.72522
 H1856 H 0.64430 0.41296 0.75660
 C1857 C 1.26948 1.14371 1.14311
 C1858 C 1.27648 1.13995 1.11655
 C1859 C 1.25967 1.12739 1.10363
 C1860 C 1.23757 1.11985 1.11856
 C1861 C 1.22790 1.14340 1.12945
 C1862 C 1.24467 1.15593 1.14234
 C1863 C 1.26463 1.11826 1.15297
 C1864 C 1.24784 1.10571 1.14006
 C1865 C 1.28730 1.15738 1.15714
 C1866 C 1.30149 1.16897 1.16891
 C1867 C 1.21921 1.10654 1.10489
 C1868 C 1.20345 1.09605 1.09416
 H1869 H 1.29314 1.14655 1.10861
 H1870 H 1.26194 1.12322 1.08462
 H1871 H 1.20949 1.14970 1.12720
 H1872 H 1.24061 1.17296 1.15114
 H1873 H 1.27361 1.11075 1.16868
 H1874 H 1.24244 1.08744 1.14470
 C1875 C 1.26998 0.64264 0.64212
 C1876 C 1.27123 0.64669 0.61473
 C1877 C 1.25423 0.63407 0.60214
 C1878 C 1.23768 0.61866 0.61819
 C1879 C 1.22701 0.63638 0.63659
 C1880 C 1.24397 0.64898 0.64916
 C1881 C 1.27180 0.61519 0.64545
 C1882 C 1.25480 0.60257 0.63285
 C1883 C 1.28800 0.65637 0.65584
 C1884 C 1.30231 0.66797 0.66746
 C1885 C 1.21910 0.60530 0.60487
 C1886 C 1.20316 0.59480 0.59441
 H1887 H 1.28432 0.65840 0.60600
 H1888 H 1.25275 0.63497 0.58262
 H1889 H 1.20779 0.63883 0.63950
 H1890 H 1.23928 0.66221 0.66283
 H1891 H 1.28526 0.60644 0.65667
 H1892 H 1.25370 0.58301 0.63328
 C1893 C 0.77010 1.14277 0.64222
 C1894 C 0.76615 1.11697 0.65155
 C1895 C 0.74917 1.10439 0.63892
 C1896 C 0.73780 1.11885 0.61820
 C1897 C 0.75919 1.12728 0.60269
 C1898 C 0.77618 1.13987 0.61533
 C1899 C 0.74501 1.15445 0.64268
 C1900 C 0.72805 1.14189 0.63007
 C1901 C 0.78811 1.15648 0.65597
 C1902 C 0.80240 1.16811 0.66759
 C1903 C 0.71923 1.10553 0.60483
 C1904 C 0.70330 1.09504 0.59433
 H1905 H 0.77587 1.10925 0.66671
 H1906 H 0.74433 1.08589 0.64326
 H1907 H 0.76084 1.12367 0.58350
 H1908 H 0.79240 1.14705 0.60697
 H1909 H 0.74092 1.17114 0.65208
 H1910 H 0.70944 1.14783 0.62867
 C1911 C 0.77083 0.64168 1.14059
 C1912 C 0.78101 0.62648 1.11978
 C1913 C 0.76377 0.61400 1.10733
 C1914 C 0.73809 0.61798 1.11695
 C1915 C 0.73447 0.64543 1.11649
 C1916 C 0.75166 0.65789 1.12891
 C1917 C 0.75655 0.62381 1.15624
 C1918 C 0.73934 0.61135 1.14382
 C1919 C 0.78907 0.65529 1.15416
 C1920 C 0.80349 0.66685 1.16570
 C1921 C 0.71926 0.60478 1.10378
 C1922 C 0.70314 0.59441 1.09345
 H1923 H 0.80005 0.62559 1.11523
 H1924 H 0.76804 0.60242 1.09212
 H1925 H 0.71970 0.65433 1.10719
 H1926 H 0.75162 0.67744 1.13024
 H1927 H 0.75970 0.62113 1.17540
 H1928 H 0.72776 0.59801 1.15234
 C1929 C 1.26999 0.85710 0.85632
 C1930 C 1.25195 0.84115 0.87005
 C1931 C 1.23507 0.85389 0.88254
 C1932 C 1.23787 0.88135 0.88009
 C1933 C 1.23752 0.88620 0.85282
 C1934 C 1.25440 0.87345 0.84032
 C1935 C 1.28080 0.87396 0.87551
 C1936 C 1.26389 0.88673 0.88803
 C1937 C 1.28790 0.84321 0.84269
 C1938 C 1.30210 0.83148 0.83111
 C1939 C 1.21938 0.89486 0.89334
 C1940 C 1.20353 0.90545 0.90379
 H1941 H 1.25241 0.82155 0.87001
 H1942 H 1.22107 0.84521 0.89319
 H1943 H 1.22512 0.89859 0.84408
 H1944 H 1.25646 0.87493 0.82089
 H1945 H 1.30001 0.87571 0.87896
 H1946 H 1.26860 0.89942 0.90220
 C1947 C 1.27036 0.35775 0.35743
 C1948 C 1.25148 0.34161 0.36974
 C1949 C 1.23441 0.35416 0.38217
 C1950 C 1.23788 0.38163 0.38109
 C1951 C 1.23867 0.38771 0.35407
 C1952 C 1.25574 0.37517 0.34164
 C1953 C 1.28079 0.37347 0.37776
 C1954 C 1.26368 0.38604 0.39022
 C1955 C 1.28847 0.34405 0.34385
 C1956 C 1.30280 0.33244 0.33230
 C1957 C 1.21919 0.39493 0.39428
 C1958 C 1.20318 0.40537 0.40464
 H1959 H 1.25153 0.32203 0.36881
 H1960 H 1.21984 0.34532 0.39188
 H1961 H 1.22688 0.40077 0.34547
 H1962 H 1.25858 0.37747 0.32238
 H1963 H 1.29989 0.37462 0.38199
 H1964 H 1.26813 0.39797 0.40513
 C1965 C 0.77088 0.85817 0.35708
 C1966 C 0.75117 0.84202 0.36802
 C1967 C 0.73405 0.85446 0.38048
 C1968 C 0.73828 0.88184 0.38080
 C1969 C 0.74013 0.88915 0.35414
 C1970 C 0.75726 0.87670 0.34167
 C1971 C 0.78105 0.87263 0.37846
 C1972 C 0.76388 0.88510 0.39094
 C1973 C 0.78905 0.84458 0.34348
 C1974 C 0.80343 0.83305 0.33192
 C1975 C 0.71954 0.89503 0.39402
 C1976 C 0.70348 0.90538 0.40440
 H1977 H 0.75072 0.82251 0.36617
 H1978 H 0.71893 0.84560 0.38929
 H1979 H 0.72899 0.90292 0.34579
 H1980 H 0.76080 0.87982 0.32265
 H1981 H 0.80002 0.87305 0.38334
 H1982 H 0.76815 0.89620 0.40652
 C1983 C 0.76942 0.35690 0.85641
 C1984 C 0.76910 0.35117 0.88352
 C1985 C 0.75210 0.36376 0.89605
 C1986 C 0.73710 0.38084 0.88023
 C1987 C 0.72655 0.36476 0.86028
 C1988 C 0.74353 0.35219 0.84777
 C1989 C 0.77267 0.38439 0.85489
 C1990 C 0.75566 0.39699 0.86742
 C1991 C 0.78745 0.34319 0.84274
 C1992 C 0.80174 0.33160 0.83115
 C1993 C 0.71851 0.39418 0.89350
 C1994 C 0.70257 0.40465 0.90394
 H1995 H 0.78118 0.33837 0.89212
 H1996 H 0.74961 0.36176 0.91539
 H1997 H 0.70741 0.36337 0.85631
 H1998 H 0.73891 0.34003 0.83309
 H1999 H 0.78707 0.39318 0.84488
 H2000 H 0.75548 0.41657 0.86816
 C2001 C 0.72924 0.85829 1.14062
 C2002 C 0.71889 0.87767 1.12373
 C2003 C 0.73613 0.89014 1.11129
 C2004 C 0.76198 0.88199 1.11698
 C2005 C 0.76216 0.85474 1.11196
 C2006 C 0.74495 0.84229 1.12438
 C2007 C 0.74715 0.87179 1.15691
 C2008 C 0.76436 0.88423 1.14449
 C2009 C 0.71099 0.84469 1.15419
 C2010 C 0.69657 0.83314 1.16573
 C2011 C 0.78081 0.89518 1.10382
 C2012 C 0.79693 0.90556 1.09348
 H2013 H 0.69974 0.88126 1.12173
 H2014 H 0.73175 0.90443 1.09862
 H2015 H 0.77467 0.84599 1.09969
 H2016 H 0.74273 0.82288 1.12274
 H2017 H 0.74637 0.87161 1.17649
 H2018 H 0.77831 0.89472 1.15344
 C2019 C 0.73004 0.35714 0.64240
 C2020 C 0.72686 0.38463 0.64387
 C2021 C 0.74384 0.39722 0.63122
 C2022 C 0.76231 0.38107 0.61837
 C2023 C 0.74720 0.36393 0.60266
 C2024 C 0.73022 0.35134 0.61530
 C2025 C 0.75597 0.35249 0.65094
 C2026 C 0.77291 0.36506 0.63832
 C2027 C 0.71204 0.34342 0.65616
 C2028 C 0.69775 0.33178 0.66777
 C2029 C 0.78087 0.39441 0.60498
 C2030 C 0.79678 0.40490 0.59446
 H2031 H 0.71254 0.39342 0.65392
 H2032 H 0.74407 0.41680 0.63043
 H2033 H 0.74960 0.36189 0.58332
 H2034 H 0.71808 0.33851 0.60679
 H2035 H 0.76062 0.34039 0.66563
 H2036 H 0.79207 0.36371 0.64221
 C2037 C 0.23022 0.85720 0.64231
 C2038 C 0.22171 0.88232 0.63430
 C2039 C 0.23870 0.89494 0.62169
 C2040 C 0.26250 0.88118 0.61835
 C2041 C 0.25532 0.85721 0.60642
 C2042 C 0.23834 0.84460 0.61902
 C2043 C 0.25354 0.86175 0.65656
 C2044 C 0.27049 0.87434 0.64398
 C2045 C 0.21221 0.84347 0.65604
 C2046 C 0.19790 0.83188 0.66768
 C2047 C 0.28106 0.89454 0.60501
 C2048 C 0.29699 0.90506 0.59453
 H2049 H 0.20392 0.88953 0.63818
 H2050 H 0.23548 0.91298 0.61475
 H2051 H 0.26287 0.85073 0.58954
 H2052 H 0.23135 0.82732 0.61293
 H2053 H 0.25648 0.85563 0.67495
 H2054 H 0.28795 0.87901 0.65159
 C2055 C 0.23049 0.35641 1.14310
 C2056 C 0.23344 0.34738 1.11706
 C2057 C 0.25023 0.35991 1.10414
 C2058 C 0.26241 0.38024 1.11853
 C2059 C 0.27269 0.36792 1.14110
 C2060 C 0.25592 0.35540 1.15401
 C2061 C 0.22478 0.38342 1.14074
 C2062 C 0.24159 0.39597 1.12781
 C2063 C 0.21267 0.34275 1.15712
 C2064 C 0.19848 0.33115 1.16889
 C2065 C 0.28077 0.39353 1.10485
 C2066 C 0.29655 0.40400 1.09411
 H2067 H 0.22321 0.33247 1.10944
 H2068 H 0.25440 0.35576 1.08545
 H2069 H 0.29150 0.36895 1.14650
 H2070 H 0.26037 0.34571 1.17045
 H2071 H 0.20895 0.39193 1.14851
 H2072 H 0.24016 0.41523 1.12450
 C2073 C 0.73065 1.14322 0.85636
 C2074 C 0.73409 1.11726 0.84732
 C2075 C 0.75110 1.10468 0.85984
 C2076 C 0.76299 1.11930 0.88018
 C2077 C 0.74198 1.12814 0.89592
 C2078 C 0.72496 1.14074 0.88338
 C2079 C 0.75588 1.15464 0.85535
 C2080 C 0.77287 1.14207 0.86785
 C2081 C 0.71260 1.15692 0.84271
 C2082 C 0.69829 1.16848 0.83111
 C2083 C 0.78159 1.10596 0.89345
 C2084 C 0.79753 1.09549 0.90389
 H2085 H 0.72402 1.10944 0.83242
 H2086 H 0.75561 1.08608 0.85568
 H2087 H 0.74058 1.12480 0.91517
 H2088 H 0.70897 1.14818 0.89190
 H2089 H 0.76005 1.17117 0.84566
 H2090 H 0.79158 1.14785 0.86887
 C2091 C 0.72903 0.64173 0.35720
 C2092 C 0.74751 0.62904 0.34095
 C2093 C 0.76464 0.61661 0.35341
 C2094 C 0.76164 0.61806 0.38092
 C2095 C 0.73581 0.60923 0.38581
 C2096 C 0.71864 0.62169 0.37332
 C2097 C 0.74411 0.65759 0.37421
 C2098 C 0.76124 0.64516 0.38667
 C2099 C 0.71085 0.65531 0.34359
 C2100 C 0.69648 0.66684 0.33203
 C2101 C 0.78040 0.60489 0.39413
 C2102 C 0.79647 0.59455 0.40451
 H2103 H 0.74716 0.62973 0.32137
 H2104 H 0.77896 0.60666 0.34450
 H2105 H 0.73139 0.59452 0.39799
 H2106 H 0.69951 0.61765 0.37480
 H2107 H 0.74152 0.67690 0.37631
 H2108 H 0.77334 0.65382 0.39945
 C2109 C 0.22971 1.14236 0.35736
 C2110 C 0.25516 1.14472 0.34669
 C2111 C 0.27222 1.13218 0.35912
 C2112 C 0.26220 1.11848 0.38102
 C2113 C 0.24190 1.10252 0.37089
 C2114 C 0.22480 1.11509 0.35844
 C2115 C 0.23225 1.15027 0.38381
 C2116 C 0.24934 1.13771 0.39625
 C2117 C 0.21159 1.15606 0.34379
 C2118 C 0.19724 1.16765 0.33226
 C2119 C 0.28089 1.10517 0.39421
 C2120 C 0.29689 1.09472 0.40458
 H2121 H 0.25942 1.15531 0.33075
 H2122 H 0.29109 1.13203 0.35381
 H2123 H 0.24101 1.08310 0.37329
 H2124 H 0.20926 1.10643 0.35017
 H2125 H 0.22155 1.16446 0.39203
 H2126 H 0.25329 1.14114 0.41514
 C2127 C 0.23002 0.64298 0.85633
 C2128 C 0.22082 0.63319 0.88059
 C2129 C 0.23774 0.62042 0.89309
 C2130 C 0.26215 0.61872 0.88008
 C2131 C 0.26953 0.64496 0.87508
 C2132 C 0.25265 0.65770 0.86260
 C2133 C 0.23941 0.62077 0.84271
 C2134 C 0.25631 0.60802 0.85519
 C2135 C 0.21210 0.65686 0.84270
 C2136 C 0.19788 0.66858 0.83113
 C2137 C 0.28064 0.60521 0.89332
 C2138 C 0.29649 0.59461 0.90377
 H2139 H 0.20265 0.63602 0.88733
 H2140 H 0.23407 0.61230 0.91055
 H2141 H 0.28653 0.65286 0.88086
 H2142 H 0.25519 0.67651 0.85770
 H2143 H 0.23330 0.61550 0.82484
 H2144 H 0.26467 0.59182 0.84803
 C2145 C 1.14368 1.26952 1.14311
 C2146 C 1.12178 1.25921 1.15662
 C2147 C 1.10924 1.24241 1.14371
 C2148 C 1.11984 1.23758 1.11857
 C2149 C 1.14626 1.23066 1.12314
 C2150 C 1.15878 1.24745 1.13603
 C2151 C 1.13351 1.27923 1.11922
 C2152 C 1.12096 1.26241 1.10630
 C2153 C 1.15733 1.28736 1.15713
 C2154 C 1.16892 1.30156 1.16889
 C2155 C 1.10655 1.21921 1.10490
 C2156 C 1.09607 1.20345 1.09417
 H2157 H 1.11655 1.26464 1.17470
 H2158 H 1.09328 1.23345 1.15074
 H2159 H 1.15443 1.21404 1.11678
 H2160 H 1.17768 1.24519 1.14071
 H2161 H 1.13594 1.29766 1.11302
 H2162 H 1.11263 1.26643 1.08903
 C2163 C 1.14286 0.77003 0.64236
 C2164 C 1.15355 0.76464 0.61737
 C2165 C 1.14097 0.74766 0.60473
 C2166 C 1.11894 0.73774 0.61833
 C2167 C 1.10390 0.76005 0.62488
 C2168 C 1.11649 0.77704 0.63753
 C2169 C 1.14150 0.74545 0.65507
 C2170 C 1.12894 0.72850 0.64245
 C2171 C 1.15657 0.78803 0.65611
 C2172 C 1.16820 0.80233 0.66773
 C2173 C 1.10562 0.71917 0.60494
 C2174 C 1.09513 0.70325 0.59443
 H2175 H 1.16956 0.77341 0.61022
 H2176 H 1.14621 0.74188 0.58676
 H2177 H 1.08506 0.76230 0.62001
 H2178 H 1.10843 0.79386 0.64350
 H2179 H 1.14967 0.74170 0.67248
 H2180 H 1.12636 0.71022 0.64906
 C2181 C 0.64288 1.26979 0.64231
 C2182 C 0.62185 1.25869 0.65657
 C2183 C 0.60924 1.24173 0.64397
 C2184 C 0.61888 1.23752 0.61834
 C2185 C 0.64565 1.23127 0.62169
 C2186 C 0.65826 1.24822 0.63428
 C2187 C 0.63145 1.27952 0.61901
 C2188 C 0.61881 1.26253 0.60639
 C2189 C 0.65661 1.28778 0.65605
 C2190 C 0.66820 1.30208 0.66770
 C2191 C 0.60550 1.21896 0.60499
 C2192 C 0.59498 1.20305 0.59452
 H2193 H 0.61725 1.26374 0.67493
 H2194 H 0.59383 1.23225 0.65154
 H2195 H 0.65399 1.21497 0.61475
 H2196 H 0.67739 1.24644 0.63812
 H2197 H 0.63312 1.29809 0.61297
 H2198 H 0.60965 1.26654 0.58954
 C2199 C 0.64173 0.77078 1.14065
 C2200 C 0.64797 0.76991 1.11366
 C2201 C 0.63550 0.75269 1.10122
 C2202 C 0.61803 0.73804 1.11700
 C2203 C 0.60177 0.75689 1.12914
 C2204 C 0.61424 0.77412 1.14158
 C2205 C 0.64611 0.74504 1.14987
 C2206 C 0.63367 0.72786 1.13746
 C2207 C 0.65534 0.78903 1.15421
 C2208 C 0.66689 0.80346 1.16574
 C2209 C 0.60483 0.71922 1.10384
 C2210 C 0.59445 0.70311 1.09350
 H2211 H 0.66100 0.78180 1.10507
 H2212 H 0.63785 0.74982 1.08198
 H2213 H 0.58220 0.75674 1.12804
 H2214 H 0.60536 0.78872 1.15114
 H2215 H 0.65796 0.74069 1.16486
 H2216 H 0.63486 0.70879 1.14182
 C2217 C 0.85703 1.26998 0.85630
 C2218 C 0.85619 1.27353 0.88378
 C2219 C 0.86895 1.25662 0.89629
 C2220 C 0.88129 1.23786 0.88008
 C2221 C 0.89676 1.25263 0.86243
 C2222 C 0.88400 1.26953 0.84993
 C2223 C 0.84817 1.24406 0.85213
 C2224 C 0.86091 1.22719 0.86461
 C2225 C 0.84315 1.28790 0.84268
 C2226 C 0.83143 1.30212 0.83111
 C2227 C 0.89480 1.21938 0.89333
 C2228 C 0.90540 1.20354 0.90379
 H2229 H 0.84645 1.28804 0.89262
 H2230 H 0.87016 1.25665 0.91585
 H2231 H 0.91603 1.25007 0.86000
 H2232 H 0.89234 1.28145 0.83678
 H2233 H 0.83319 1.23935 0.84039
 H2234 H 0.85683 1.20804 0.86356
 C2235 C 0.85817 0.77090 0.35708
 C2236 C 0.85380 0.77171 0.38444
 C2237 C 0.86625 0.75456 0.39693
 C2238 C 0.88185 0.73830 0.38082
 C2239 C 0.89812 0.75570 0.36661
 C2240 C 0.88566 0.77285 0.35412
 C2241 C 0.85191 0.74497 0.34958
 C2242 C 0.86434 0.72786 0.36204
 C2243 C 0.84458 0.78907 0.34347
 C2244 C 0.83304 0.80344 0.33192
 C2245 C 0.89503 0.71956 0.39404
 C2246 C 0.90538 0.70351 0.40443
 H2247 H 0.84199 0.78463 0.39323
 H2248 H 0.86512 0.75279 0.41641
 H2249 H 0.91768 0.75466 0.36640
 H2250 H 0.89455 0.78650 0.34321
 H2251 H 0.83884 0.74043 0.33568
 H2252 H 0.86191 0.70867 0.35881
 C2253 C 0.35771 1.27038 0.35744
 C2254 C 0.36235 1.27712 0.38393
 C2255 C 0.37492 1.26002 0.39639
 C2256 C 0.38161 1.23790 0.38110
 C2257 C 0.39534 1.24811 0.35929
 C2258 C 0.38278 1.26519 0.34685
 C2259 C 0.34503 1.24576 0.35839
 C2260 C 0.35757 1.22870 0.37081
 C2261 C 0.34401 1.28849 0.34386
 C2262 C 0.33240 1.30282 0.33231
 C2263 C 0.39492 1.21921 0.39428
 C2264 C 0.40537 1.20321 0.40464
 H2265 H 0.35630 1.29383 0.39217
 H2266 H 0.37966 1.26208 0.41529
 H2267 H 0.41336 1.24245 0.35410
 H2268 H 0.39003 1.27417 0.33101
 H2269 H 0.32768 1.24204 0.35004
 H2270 H 0.35097 1.21037 0.37310
 C2271 C 0.35682 0.76938 0.85634
 C2272 C 0.35383 0.77135 0.88382
 C2273 C 0.36642 0.75433 0.89635
 C2274 C 0.38075 0.73704 0.88014
 C2275 C 0.39676 0.75341 0.86450
 C2276 C 0.38417 0.77043 0.85197
 C2277 C 0.34949 0.74338 0.85016
 C2278 C 0.36206 0.72640 0.86266
 C2279 C 0.34312 0.78743 0.84269
 C2280 C 0.33154 0.80175 0.83110
 C2281 C 0.39409 0.71844 0.89340
 C2282 C 0.40456 0.70250 0.90385
 H2283 H 0.34282 0.78492 0.89266
 H2284 H 0.36621 0.75332 0.91592
 H2285 H 0.41626 0.75180 0.86338
 H2286 H 0.39288 0.78340 0.84013
 H2287 H 0.33563 0.73871 0.83710
 H2288 H 0.35896 0.70718 0.86030
 C2289 C 1.14311 0.73062 0.85639
 C2290 C 1.13707 0.75315 0.84147
 C2291 C 1.12450 0.77013 0.85397
 C2292 C 1.11917 0.76295 0.88020
 C2293 C 1.14391 0.75716 0.89122
 C2294 C 1.15650 0.74016 0.87870
 C2295 C 1.11871 0.72152 0.86594
 C2296 C 1.10611 0.73854 0.87848
 C2297 C 1.15682 0.71259 0.84274
 C2298 C 1.16841 0.69828 0.83115
 C2299 C 1.10584 0.78155 0.89346
 C2300 C 1.09537 0.79749 0.90390
 H2301 H 1.14221 0.75555 0.82270
 H2302 H 1.11886 0.78708 0.84591
 H2303 H 1.15091 0.76564 0.90745
 H2304 H 1.17428 0.73407 0.88421
 H2305 H 1.11194 0.70333 0.86313
 H2306 H 1.08854 0.73494 0.88640
 C2307 C 1.14229 0.22966 0.35742
 C2308 C 1.13776 0.25283 0.34295
 C2309 C 1.12521 0.26988 0.35538
 C2310 C 1.11840 0.26213 0.38110
 C2311 C 1.14238 0.25513 0.39306
 C2312 C 1.15494 0.23805 0.38062
 C2313 C 1.11717 0.22117 0.36556
 C2314 C 1.10459 0.23827 0.37802
 C2315 C 1.15599 0.21156 0.34384
 C2316 C 1.16760 0.19724 0.33228
 C2317 C 1.10510 0.28082 0.39428
 C2318 C 1.09465 0.29682 0.40465
 H2319 H 1.14385 0.25559 0.32453
 H2320 H 1.12056 0.28725 0.34760
 H2321 H 1.14890 0.26286 0.40985
 H2322 H 1.17222 0.23116 0.38675
 H2323 H 1.10992 0.20333 0.36188
 H2324 H 1.08656 0.23508 0.38502
 C2325 C 0.64178 0.72904 0.35718
 C2326 C 0.63700 0.72225 0.38363
 C2327 C 0.62455 0.73942 0.39611
 C2328 C 0.61811 0.76166 0.38088
 C2329 C 0.60435 0.75165 0.35899
 C2330 C 0.61679 0.73449 0.34653
 C2331 C 0.65469 0.75354 0.35825
 C2332 C 0.64226 0.77067 0.37069
 C2333 C 0.65535 0.71085 0.34358
 C2334 C 0.66688 0.69646 0.33203
 C2335 C 0.60493 0.78042 0.39407
 C2336 C 0.59458 0.79649 0.40444
 H2337 H 0.64286 0.70545 0.39183
 H2338 H 0.61973 0.73734 0.41499
 H2339 H 0.58639 0.75749 0.35377
 H2340 H 0.60950 0.72564 0.33063
 H2341 H 0.67209 0.75713 0.34996
 H2342 H 0.64903 0.78893 0.37306
 C2343 C 0.64295 0.23006 0.85626
 C2344 C 0.64018 0.25408 0.84276
 C2345 C 0.62744 0.27095 0.85525
 C2346 C 0.61870 0.26218 0.88004
 C2347 C 0.64159 0.25368 0.89312
 C2348 C 0.65434 0.23679 0.88061
 C2349 C 0.61707 0.22214 0.86232
 C2350 C 0.60431 0.23905 0.87484
 C2351 C 0.65684 0.21214 0.84263
 C2352 C 0.66856 0.19793 0.83107
 C2353 C 0.60520 0.28066 0.89330
 C2354 C 0.59461 0.29650 0.90376
 H2355 H 0.64755 0.25754 0.82493
 H2356 H 0.62391 0.28886 0.84811
 H2357 H 0.64725 0.26031 0.91067
 H2358 H 0.67093 0.22895 0.88746
 H2359 H 0.60946 0.20479 0.85725
 H2360 H 0.58576 0.23619 0.88050
 C2361 C 0.85833 0.72918 1.14058
 C2362 C 0.87471 0.74481 1.15658
 C2363 C 0.88717 0.76201 1.14416
 C2364 C 0.88203 0.76192 1.11693
 C2365 C 0.85453 0.76437 1.11480
 C2366 C 0.84208 0.74717 1.12722
 C2367 C 0.87509 0.71883 1.12109
 C2368 C 0.88757 0.73607 1.10863
 C2369 C 0.84473 0.71094 1.15415
 C2370 C 0.83317 0.69652 1.16569
 C2371 C 0.89523 0.78075 1.10376
 C2372 C 0.90561 0.79687 1.09343
 H2373 H 0.87642 0.74254 1.17597
 H2374 H 0.89953 0.77447 1.15291
 H2375 H 0.84560 0.77837 1.10441
 H2376 H 0.82249 0.74645 1.12746
 H2377 H 0.87699 0.69968 1.11740
 H2378 H 0.90016 0.73169 1.09428
 C2379 C 0.85731 0.23009 0.64218
 C2380 C 0.87400 0.24556 0.65802
 C2381 C 0.88661 0.26252 0.64544
 C2382 C 0.88131 0.26237 0.61825
 C2383 C 0.85383 0.26520 0.61626
 C2384 C 0.84122 0.24823 0.62884
 C2385 C 0.87381 0.21941 0.62264
 C2386 C 0.88644 0.23641 0.61004
 C2387 C 0.84357 0.21208 0.65590
 C2388 C 0.83197 0.19779 0.66754
 C2389 C 0.89468 0.28094 0.60492
 C2390 C 0.90519 0.29688 0.59446
 H2391 H 0.87578 0.24335 0.67741
 H2392 H 0.89920 0.27485 0.65406
 H2393 H 0.84504 0.27927 0.60586
 H2394 H 0.82163 0.24777 0.62921
 H2395 H 0.87542 0.20022 0.61903
 H2396 H 0.89888 0.23179 0.59563
 C2397 C 0.35737 0.72980 0.64210
 C2398 C 0.34173 0.75082 0.63319
 C2399 C 0.35429 0.76779 0.62058
 C2400 C 0.38127 0.76210 0.61809
 C2401 C 0.38224 0.73686 0.60670
 C2402 C 0.36965 0.71985 0.61934
 C2403 C 0.37774 0.74168 0.65668
 C2404 C 0.39030 0.75866 0.64406
 C2405 C 0.34366 0.71179 0.65585
 C2406 C 0.33202 0.69751 0.66748
 C2407 C 0.39459 0.78069 0.60473
 C2408 C 0.40506 0.79664 0.59424
 H2409 H 0.32246 0.75225 0.63647
 H2410 H 0.34577 0.78375 0.61306
 H2411 H 0.39195 0.73271 0.59019
 H2412 H 0.36857 0.70112 0.61366
 H2413 H 0.38195 0.73712 0.67527
 H2414 H 0.40528 0.76865 0.65184
 C2415 C 0.35635 0.23054 1.14315
 C2416 C 0.35194 0.22905 1.11582
 C2417 C 0.36449 0.24584 1.10290
 C2418 C 0.38020 0.26245 1.11859
 C2419 C 0.39638 0.24537 1.13321
 C2420 C 0.38383 0.22858 1.14613
 C2421 C 0.35026 0.25666 1.15001
 C2422 C 0.36279 0.27342 1.13711
 C2423 C 0.34267 0.21273 1.15717
 C2424 C 0.33107 0.19853 1.16893
 C2425 C 0.39350 0.28080 1.10490
 C2426 C 0.40398 0.29656 1.09415
 H2427 H 0.34003 0.21595 1.10738
 H2428 H 0.36335 0.24713 1.08338
 H2429 H 0.41596 0.24637 1.13337
 H2430 H 0.39264 0.21519 1.15738
 H2431 H 0.33725 0.26157 1.16381
 H2432 H 0.36050 0.29268 1.13986
 C2433 C 1.14360 1.14357 0.72885
 C2434 C 1.14248 1.11630 0.72402
 C2435 C 1.12992 1.10376 0.74110
 C2436 C 1.11974 1.11975 0.76131
 C2437 C 1.10462 1.13898 0.74833
 C2438 C 1.11718 1.15151 0.73125
 C2439 C 1.15417 1.14595 0.75434
 C2440 C 1.14164 1.13344 0.77139
 C2441 C 1.15728 1.15723 0.71076
 C2442 C 1.16886 1.16880 0.69640
 C2443 C 1.10647 1.10649 0.77998
 C2444 C 1.09605 1.09608 0.79600
 H2445 H 1.15078 1.10762 0.70855
 H2446 H 1.12746 1.08433 0.74027
 H2447 H 1.08573 1.14241 0.75218
 H2448 H 1.10903 1.16569 0.72047
 H2449 H 1.17012 1.15653 0.75864
 H2450 H 1.14687 1.13330 0.79028
 C2451 C 1.14186 0.64215 0.22825
 C2452 C 1.12631 0.65822 0.24456
 C2453 C 1.11387 0.64575 0.26172
 C2454 C 1.11818 0.61840 0.26091
 C2455 C 1.14566 0.61546 0.26275
 C2456 C 1.15810 0.62793 0.24559
 C2457 C 1.12431 0.62337 0.21779
 C2458 C 1.11184 0.61087 0.23499
 C2459 C 1.15546 0.65576 0.21004
 C2460 C 1.16702 0.66729 0.19563
 C2461 C 1.10500 0.60517 0.27969
 C2462 C 1.09465 0.59479 0.29578
 H2463 H 1.12514 0.67770 0.24277
 H2464 H 1.10205 0.65454 0.27463
 H2465 H 1.15457 0.60450 0.27632
 H2466 H 1.17767 0.62766 0.24447
 H2467 H 1.12188 0.62019 0.19861
 H2468 H 1.09873 0.59697 0.23054
 C2469 C 0.64233 1.14206 0.22840
 C2470 C 0.64587 1.11462 0.22697
 C2471 C 0.63336 1.10215 0.24414
 C2472 C 0.61855 1.11836 0.26102
 C2473 C 0.60240 1.13335 0.24423
 C2474 C 0.61491 1.14582 0.22707
 C2475 C 0.64929 1.14888 0.25433
 C2476 C 0.63680 1.13643 0.27146
 C2477 C 0.65596 1.15566 0.21021
 C2478 C 0.66750 1.16722 0.19579
 C2479 C 0.60530 1.10516 0.27977
 C2480 C 0.59490 1.09479 0.29583
 H2481 H 0.65717 1.10576 0.21365
 H2482 H 0.63393 1.08261 0.24552
 H2483 H 0.58287 1.13408 0.24568
 H2484 H 0.60611 1.15723 0.21381
 H2485 H 0.66285 1.16232 0.25886
 H2486 H 0.63967 1.13922 0.29065
 C2487 C 0.64185 0.64182 0.72857
 C2488 C 0.63469 0.61628 0.72046
 C2489 C 0.62209 0.60369 0.73748
 C2490 C 0.61792 0.61789 0.76091
 C2491 C 0.60549 0.64133 0.75299
 C2492 C 0.61807 0.65391 0.73598
 C2493 C 0.65576 0.63822 0.75225
 C2494 C 0.64319 0.62566 0.76924
 C2495 C 0.65557 0.65554 0.71055
 C2496 C 0.66720 0.66718 0.69627
 C2497 C 0.60459 0.60457 0.77952
 C2498 C 0.59412 0.59411 0.79548
 H2499 H 0.63911 0.60877 0.70291
 H2500 H 0.61571 0.58538 0.73452
 H2501 H 0.58830 0.64748 0.76008
 H2502 H 0.61166 0.67084 0.72851
 H2503 H 0.67391 0.64494 0.75540
 H2504 H 0.65059 0.62162 0.78693
 C2505 C 0.85814 0.85814 0.72862
 C2506 C 0.85018 0.88457 0.73100
 C2507 C 0.86277 0.89717 0.74800
 C2508 C 0.88207 0.88210 0.76093
 C2509 C 0.89799 0.87190 0.74068
 C2510 C 0.88539 0.85929 0.72367
 C2511 C 0.85588 0.84763 0.75414
 C2512 C 0.86845 0.86021 0.77111
 C2513 C 0.84442 0.84441 0.71060
 C2514 C 0.83278 0.83277 0.69633
 C2515 C 0.89540 0.89545 0.77953
 C2516 C 0.90587 0.90592 0.79548
 H2517 H 0.83595 0.89267 0.72026
 H2518 H 0.85932 0.91607 0.75182
 H2519 H 0.91741 0.87438 0.73977
 H2520 H 0.89402 0.85096 0.70818
 H2521 H 0.84534 0.83167 0.75851
 H2522 H 0.86866 0.85502 0.79001
 C2523 C 0.85755 0.35784 0.22856
 C2524 C 0.86019 0.38485 0.22291
 C2525 C 0.87272 0.39734 0.24005
 C2526 C 0.88135 0.38157 0.26114
 C2527 C 0.89596 0.36121 0.24936
 C2528 C 0.88344 0.34873 0.23223
 C2529 C 0.84595 0.35683 0.25369
 C2530 C 0.85845 0.36930 0.27080
 C2531 C 0.84391 0.34422 0.21039
 C2532 C 0.83237 0.33264 0.19600
 C2533 C 0.89462 0.39478 0.27987
 C2534 C 0.90504 0.40517 0.29592
 H2535 H 0.85290 0.39340 0.20686
 H2536 H 0.87617 0.41659 0.23870
 H2537 H 0.91451 0.35699 0.25404
 H2538 H 0.89126 0.33382 0.22222
 H2539 H 0.82935 0.34719 0.25771
 H2540 H 0.85255 0.37032 0.28947
 C2541 C 0.35786 0.85759 0.22850
 C2542 C 0.37807 0.87352 0.21812
 C2543 C 0.39055 0.88606 0.23528
 C2544 C 0.38157 0.88140 0.26109
 C2545 C 0.38279 0.85391 0.26430
 C2546 C 0.37034 0.84140 0.24718
 C2547 C 0.34207 0.87480 0.24336
 C2548 C 0.35453 0.88731 0.26049
 C2549 C 0.34425 0.84395 0.21033
 C2550 C 0.33268 0.83240 0.19593
 C2551 C 0.39478 0.89466 0.27984
 C2552 C 0.40516 0.90507 0.29588
 H2553 H 0.38220 0.87484 0.19901
 H2554 H 0.40538 0.89812 0.23088
 H2555 H 0.39262 0.84504 0.27875
 H2556 H 0.36949 0.82182 0.24696
 H2557 H 0.32279 0.87699 0.24064
 H2558 H 0.34592 0.90022 0.27244
 C2559 C 0.35645 0.35642 0.72886
 C2560 C 0.34675 0.38200 0.73319
 C2561 C 0.35929 0.39455 0.75025
 C2562 C 0.38029 0.38028 0.76130
 C2563 C 0.39580 0.37243 0.73973
 C2564 C 0.38325 0.35987 0.72265
 C2565 C 0.35632 0.34437 0.75380
 C2566 C 0.36884 0.35690 0.77084
 C2567 C 0.34278 0.34275 0.71077
 C2568 C 0.33120 0.33117 0.69642
 C2569 C 0.39356 0.39355 0.77997
 C2570 C 0.40397 0.40396 0.79599
 H2571 H 0.33142 0.38960 0.72366
 H2572 H 0.35471 0.41290 0.75535
 H2573 H 0.41492 0.37640 0.73800
 H2574 H 0.39161 0.35308 0.70628
 H2575 H 0.34720 0.32746 0.75773
 H2576 H 0.37044 0.35071 0.78936
 C2577 C 1.14237 0.85808 1.26932
 C2578 C 1.11690 0.84821 1.26458
 C2579 C 1.10451 0.86081 1.24747
 C2580 C 1.11881 0.88204 1.23680
 C2581 C 1.14236 0.87088 1.22746
 C2582 C 1.15473 0.85830 1.24453
 C2583 C 1.13872 0.88479 1.27575
 C2584 C 1.12632 0.89740 1.25863
 C2585 C 1.15589 0.84434 1.28745
 C2586 C 1.16739 0.83271 1.30180
 C2587 C 1.10568 0.89538 1.21810
 C2588 C 1.09533 0.90583 1.20207
 H2589 H 1.10925 0.83272 1.27386
 H2590 H 1.08624 0.85612 1.24210
 H2591 H 1.14877 0.87273 1.20902
 H2592 H 1.17173 0.84937 1.24072
 H2593 H 1.14527 0.89305 1.29227
 H2594 H 1.12224 0.91647 1.26049
 C2595 C 1.11297 0.38705 0.79815
 C2596 C 1.08883 0.40061 0.79773
 C2597 C 1.08184 0.40761 0.77522
 C2598 C 1.09965 0.40037 0.75528
 C2599 C 1.10261 0.37295 0.75796
 C2600 C 1.10961 0.36594 0.78050
 C2601 C 1.13099 0.40407 0.78571
 C2602 C 1.12399 0.41107 0.76318
 C2603 C 1.12036 0.37966 0.82252
 C2604 C 1.12606 0.37396 0.84277
 C2605 C 1.09202 0.40801 0.73107
 C2606 C 1.08562 0.41442 0.71126
 H2607 H 1.07815 0.40438 0.81372
 H2608 H 1.06518 0.41736 0.77194
 H2609 H 1.09950 0.36016 0.74344
 H2610 H 1.11250 0.34716 0.78527
 H2611 H 1.14778 0.41007 0.79386
 H2612 H 1.13479 0.42307 0.75205
 C2613 C 0.64236 0.85768 0.77009
 C2614 C 0.61675 0.84797 0.76578
 C2615 C 0.60426 0.86046 0.74866
 C2616 C 0.61861 0.88142 0.73755
 C2617 C 0.64195 0.86994 0.72807
 C2618 C 0.65442 0.85748 0.74516
 C2619 C 0.63901 0.88450 0.77621
 C2620 C 0.62651 0.89700 0.75909
 C2621 C 0.65597 0.84407 0.78824
 C2622 C 0.66752 0.83252 0.80262
 C2623 C 0.60538 0.89465 0.71884
 C2624 C 0.59498 0.90504 0.70281
 H2625 H 0.60908 0.83267 0.77535
 H2626 H 0.58589 0.85585 0.74357
 H2627 H 0.64815 0.87149 0.70954
 H2628 H 0.67130 0.84835 0.74126
 H2629 H 0.64583 0.89292 0.79255
 H2630 H 0.62262 0.91612 0.76075
 C2631 C 0.64203 0.35760 1.26924
 C2632 C 0.61592 0.34878 1.26616
 C2633 C 0.60331 0.36118 1.24907
 C2634 C 0.61805 0.38118 1.23675
 C2635 C 0.64056 0.36847 1.22686
 C2636 C 0.65315 0.35609 1.24392
 C2637 C 0.63994 0.38472 1.27455
 C2638 C 0.62732 0.39713 1.25745
 C2639 C 0.65578 0.34407 1.28735
 C2640 C 0.66741 0.33255 1.30169
 C2641 C 0.60469 0.39432 1.21806
 C2642 C 0.59423 0.40467 1.20204
 H2643 H 0.60803 0.33411 1.27651
 H2644 H 0.58461 0.35714 1.24478
 H2645 H 0.64614 0.36915 1.20808
 H2646 H 0.66952 0.34617 1.23975
 H2647 H 0.64767 0.39340 1.29034
 H2648 H 0.62423 0.41644 1.25858
 C2649 C 0.85810 1.14238 1.26931
 C2650 C 0.86697 1.15822 1.24838
 C2651 C 0.87956 1.14585 1.23130
 C2652 C 0.88206 1.11882 1.23679
 C2653 C 0.85610 1.10970 1.24022
 C2654 C 0.84351 1.12208 1.25731
 C2655 C 0.88089 1.13005 1.27914
 C2656 C 0.89350 1.11765 1.26202
 C2657 C 0.84437 1.15589 1.28744
 C2658 C 0.83273 1.16739 1.30179
 C2659 C 0.89540 1.10568 1.21809
 C2660 C 0.90584 1.09533 1.20207
 H2661 H 0.86369 1.17750 1.24710
 H2662 H 0.88705 1.15453 1.21539
 H2663 H 0.84831 1.09480 1.23014
 H2664 H 0.82493 1.11779 1.26187
 H2665 H 0.88660 1.13098 1.29786
 H2666 H 0.91002 1.10794 1.26607
 C2667 C 0.85748 0.64253 0.76989
 C2668 C 0.86908 0.61928 0.77950
 C2669 C 0.88160 0.60676 0.76241
 C2670 C 0.88128 0.61874 0.73741
 C2671 C 0.89087 0.64442 0.74161
 C2672 C 0.87837 0.65692 0.75868
 C2673 C 0.84195 0.63445 0.74841
 C2674 C 0.85444 0.62196 0.73135
 C2675 C 0.84384 0.65617 0.78800
 C2676 C 0.83228 0.66773 0.80235
 C2677 C 0.89453 0.60549 0.71874
 C2678 C 0.90496 0.59508 0.70274
 H2679 H 0.86759 0.61320 0.79807
 H2680 H 0.89085 0.58995 0.76633
 H2681 H 0.90617 0.65209 0.73203
 H2682 H 0.88295 0.67530 0.76373
 H2683 H 0.82279 0.63819 0.74676
 H2684 H 0.84599 0.61500 0.71509
 C2685 C 0.38699 1.11304 0.79803
 C2686 C 0.37283 1.12535 0.77765
 C2687 C 0.37985 1.11834 0.75511
 C2688 C 0.40033 1.09970 0.75517
 C2689 C 0.39101 1.07886 0.77091
 C2690 C 0.38400 1.08587 0.79341
 C2691 C 0.41362 1.11841 0.79251
 C2692 C 0.42063 1.11140 0.77000
 C2693 C 0.37959 1.12043 0.82239
 C2694 C 0.37388 1.12614 0.84264
 C2695 C 0.40798 1.09205 0.73097
 C2696 C 0.41440 1.08563 0.71117
 H2697 H 0.35857 1.13842 0.78064
 H2698 H 0.37158 1.12540 0.73881
 H2699 H 0.38998 1.06024 0.76488
 H2700 H 0.37696 1.07324 0.80666
 H2701 H 0.42589 1.12700 0.80516
 H2702 H 0.43890 1.11399 0.76339
 C2703 C 0.35756 0.64202 1.26921
 C2704 C 0.36088 0.65584 1.24543
 C2705 C 0.37326 0.64325 1.22837
 C2706 C 0.38114 0.61805 1.23671
 C2707 C 0.35779 0.60555 1.24495
 C2708 C 0.34540 0.61815 1.26204
 C2709 C 0.38319 0.63500 1.27708
 C2710 C 0.39560 0.62239 1.25997
 C2711 C 0.34403 0.65576 1.28734
 C2712 C 0.33253 0.66739 1.30168
 C2713 C 0.39428 0.60470 1.21802
 C2714 C 0.40463 0.59424 1.20201
 H2715 H 0.35412 0.67395 1.24228
 H2716 H 0.37710 0.65058 1.21060
 H2717 H 0.35157 0.58830 1.23800
 H2718 H 0.32855 0.61170 1.26973
 H2719 H 0.39089 0.63953 1.29452
 H2720 H 0.41393 0.61609 1.26275
 C2721 C 1.11336 1.29953 0.88553
 C2722 C 1.08912 1.29131 0.87486
 C2723 C 1.08235 1.26872 0.88190
 C2724 C 1.10047 1.25653 0.89894
 C2725 C 1.10361 1.27426 0.92000
 C2726 C 1.11038 1.29684 0.91296
 C2727 C 1.13140 1.27981 0.87831
 C2728 C 1.12463 1.25720 0.88536
 C2729 C 1.12052 1.32396 0.87811
 C2730 C 1.12612 1.34425 0.87241
 C2731 C 1.09307 1.23224 0.90661
 C2732 C 1.08681 1.21237 0.91302
 H2733 H 1.07825 1.30227 0.86280
 H2734 H 1.06567 1.26033 0.87588
 H2735 H 1.10079 1.26949 0.93880
 H2736 H 1.11336 1.31140 0.92574
 H2737 H 1.14803 1.28330 0.86853
 H2738 H 1.13545 1.24132 0.88161
 C2739 C 1.14221 0.77054 0.35677
 C2740 C 1.13176 0.77984 0.38070
 C2741 C 1.11932 0.76271 0.39334
 C2742 C 1.11858 0.73802 0.38078
 C2743 C 1.14511 0.73147 0.37632
 C2744 C 1.15752 0.74855 0.36371
 C2745 C 1.12052 0.76012 0.34300
 C2746 C 1.10810 0.74302 0.35562
 C2747 C 1.15577 0.78867 0.34302
 C2748 C 1.16732 0.80303 0.33141
 C2749 C 1.10541 0.71931 0.39414
 C2750 C 1.09503 0.70329 0.40461
 H2751 H 1.13392 0.79822 0.38714
 H2752 H 1.11083 0.76643 0.41060
 H2753 H 1.15344 0.71488 0.38254
 H2754 H 1.17648 0.74659 0.35915
 H2755 H 1.11535 0.76571 0.32495
 H2756 H 1.09229 0.73396 0.34837
 C2757 C 0.64235 1.27050 0.35673
 C2758 C 0.64413 1.24510 0.34584
 C2759 C 0.63168 1.22806 0.35845
 C2760 C 0.61864 1.23805 0.38075
 C2761 C 0.60270 1.25855 0.37113
 C2762 C 0.61518 1.27563 0.35849
 C2763 C 0.65086 1.26771 0.38295
 C2764 C 0.63840 1.25064 0.39559
 C2765 C 0.65594 1.28860 0.34297
 C2766 C 0.66748 1.30295 0.33133
 C2767 C 0.60543 1.21939 0.39412
 C2768 C 0.59503 1.20339 0.40459
 H2769 H 0.65427 1.24087 0.32962
 H2770 H 0.63117 1.20923 0.35302
 H2771 H 0.58335 1.25958 0.37401
 H2772 H 0.60651 1.29129 0.35054
 H2773 H 0.66538 1.27824 0.39091
 H2774 H 0.64223 1.24654 0.41436
 C2775 C 0.64203 0.77032 0.85721
 C2776 C 0.63132 0.77945 0.88109
 C2777 C 0.61867 0.76227 0.89343
 C2778 C 0.61800 0.73768 0.88065
 C2779 C 0.64457 0.73109 0.87645
 C2780 C 0.65718 0.74823 0.86415
 C2781 C 0.62047 0.76009 0.84309
 C2782 C 0.60784 0.74292 0.85541
 C2783 C 0.65579 0.78852 0.84375
 C2784 C 0.66744 0.80291 0.83226
 C2785 C 0.60463 0.71890 0.89371
 C2786 C 0.59417 0.70281 0.90401
 H2787 H 0.63346 0.79778 0.88771
 H2788 H 0.60998 0.76586 0.91061
 H2789 H 0.65277 0.71441 0.88264
 H2790 H 0.67619 0.74624 0.85979
 H2791 H 0.61553 0.76584 0.82502
 H2792 H 0.59209 0.73398 0.84790
 C2793 C 0.85797 1.27076 1.14118
 C2794 C 0.85918 1.24624 1.15400
 C2795 C 0.87180 1.22926 1.14156
 C2796 C 0.88200 1.23842 1.11748
 C2797 C 0.89704 1.26079 1.12406
 C2798 C 0.88439 1.27781 1.13654
 C2799 C 0.84746 1.26525 1.11614
 C2800 C 0.86010 1.24825 1.10367
 C2801 C 0.84419 1.28880 1.15478
 C2802 C 0.83252 1.30307 1.16632
 C2803 C 0.89538 1.21981 1.10426
 C2804 C 0.90586 1.20386 1.09385
 H2805 H 0.85086 1.24254 1.17137
 H2806 H 0.87429 1.21102 1.14826
 H2807 H 0.91592 1.26306 1.11933
 H2808 H 0.89243 1.29467 1.14250
 H2809 H 0.83152 1.27397 1.10882
 H2810 H 0.85498 1.24239 1.08568
 C2811 C 0.85784 0.77063 0.64154
 C2812 C 0.85936 0.74623 0.65456
 C2813 C 0.87183 0.72918 0.64205
 C2814 C 0.88159 0.73816 0.61772
 C2815 C 0.89665 0.76064 0.62384
 C2816 C 0.88415 0.77773 0.63638
 C2817 C 0.84692 0.76485 0.61673
 C2818 C 0.85941 0.74777 0.60420
 C2819 C 0.84423 0.78873 0.65520
 C2820 C 0.83268 0.80307 0.66678
 C2821 C 0.89481 0.71948 0.60445
 C2822 C 0.90520 0.70347 0.59404
 H2823 H 0.85136 0.74266 0.67210
 H2824 H 0.87450 0.71101 0.64888
 H2825 H 0.91544 0.76293 0.61876
 H2826 H 0.89223 0.79467 0.64204
 H2827 H 0.83083 0.77344 0.60961
 H2828 H 0.85401 0.74173 0.58635
 C2829 C 0.35691 1.26951 0.64161
 C2830 C 0.35962 1.24553 0.65520
 C2831 C 0.37235 1.22860 0.64280
 C2832 C 0.38115 1.23726 0.61800
 C2833 C 0.39557 1.26040 0.62313
 C2834 C 0.38281 1.27737 0.63556
 C2835 C 0.34556 1.26271 0.61726
 C2836 C 0.35830 1.24575 0.60484
 C2837 C 0.34303 1.28747 0.65517
 C2838 C 0.33132 1.30169 0.66673
 C2839 C 0.39464 1.21870 0.60485
 C2840 C 0.40519 1.20276 0.59451
 H2841 H 0.35221 1.24215 0.67303
 H2842 H 0.37584 1.21072 0.65001
 H2843 H 0.41413 1.26320 0.61749
 H2844 H 0.39044 1.29473 0.64057
 H2845 H 0.32899 1.27056 0.61036
 H2846 H 0.35266 1.23907 0.58730
 C2847 C 0.35770 0.77024 1.14108
 C2848 C 0.35813 0.74553 1.15359
 C2849 C 0.37055 0.72842 1.14112
 C2850 C 0.38136 0.73764 1.11734
 C2851 C 0.39680 0.75957 1.12446
 C2852 C 0.38435 0.77672 1.13695
 C2853 C 0.34748 0.76530 1.11580
 C2854 C 0.35992 0.74816 1.10331
 C2855 C 0.34413 0.78841 1.15470
 C2856 C 0.33261 0.80280 1.16626
 C2857 C 0.39454 0.71890 1.10411
 C2858 C 0.40489 0.70285 1.09372
 H2859 H 0.34944 0.74180 1.17077
 H2860 H 0.37250 0.71003 1.14763
 H2861 H 0.41581 0.76146 1.12006
 H2862 H 0.39269 0.79331 1.14327
 H2863 H 0.33187 0.77449 1.10834
 H2864 H 0.35497 0.74266 1.08516
 C2865 C 0.85775 0.72995 0.85692
 C2866 C 0.86418 0.75217 0.84166
 C2867 C 0.87681 0.76930 0.85399
 C2868 C 0.88180 0.76256 0.88039
 C2869 C 0.89462 0.73804 0.87925
 C2870 C 0.88196 0.72087 0.86689
 C2871 C 0.84424 0.73998 0.87892
 C2872 C 0.85688 0.75713 0.89126
 C2873 C 0.84398 0.71176 0.84345
 C2874 C 0.83234 0.69737 0.83196
 C2875 C 0.89518 0.78132 0.89348
 C2876 C 0.90566 0.79737 0.90381
 H2877 H 0.85927 0.75426 0.82281
 H2878 H 0.88271 0.78606 0.84568
 H2879 H 0.91206 0.73447 0.88742
 H2880 H 0.88856 0.70259 0.86448
 H2881 H 0.82634 0.73411 0.88436
 H2882 H 0.84980 0.76594 0.90726
 C2883 C 0.85774 0.22944 0.35685
 C2884 C 0.88448 0.23120 0.34977
 C2885 C 0.89693 0.24828 0.36240
 C2886 C 0.88142 0.26191 0.38086
 C2887 C 0.87026 0.24221 0.39687
 C2888 C 0.85780 0.22512 0.38423
 C2889 C 0.84780 0.25507 0.35365
 C2890 C 0.86024 0.27212 0.36625
 C2891 C 0.84416 0.21133 0.34309
 C2892 C 0.83263 0.19698 0.33145
 C2893 C 0.89463 0.28058 0.39422
 C2894 C 0.90503 0.29659 0.40469
 H2895 H 0.89288 0.22000 0.33607
 H2896 H 0.91602 0.25172 0.35953
 H2897 H 0.87202 0.24170 0.41638
 H2898 H 0.84887 0.20997 0.39292
 H2899 H 0.83233 0.25945 0.34245
 H2900 H 0.85541 0.29110 0.36586
 C2901 C 0.35775 0.72955 0.35665
 C2902 C 0.38503 0.72483 0.35783
 C2903 C 0.39747 0.74194 0.37048
 C2904 C 0.38139 0.76205 0.38067
 C2905 C 0.36212 0.74894 0.39570
 C2906 C 0.34969 0.73184 0.38307
 C2907 C 0.35536 0.75506 0.34615
 C2908 C 0.36777 0.77212 0.35876
 C2909 C 0.34418 0.71143 0.34289
 C2910 C 0.33261 0.69707 0.33128
 C2911 C 0.39456 0.78074 0.39405
 C2912 C 0.40494 0.79675 0.40453
 H2913 H 0.39378 0.70943 0.34951
 H2914 H 0.41688 0.74119 0.37298
 H2915 H 0.35858 0.75272 0.41460
 H2916 H 0.33550 0.72098 0.39114
 H2917 H 0.34484 0.75935 0.33018
 H2918 H 0.36788 0.79103 0.35359
 C2919 C 0.38664 0.20055 0.88542
 C2920 C 0.41399 0.20345 0.88881
 C2921 C 0.42077 0.22603 0.89587
 C2922 C 0.39954 0.24354 0.89886
 C2923 C 0.38235 0.23101 0.91663
 C2924 C 0.37556 0.20843 0.90957
 C2925 C 0.37953 0.22039 0.86743
 C2926 C 0.38632 0.24299 0.87449
 C2927 C 0.37946 0.17612 0.87799
 C2928 C 0.37385 0.15584 0.87228
 C2929 C 0.40695 0.26782 0.90654
 C2930 C 0.41321 0.28769 0.91296
 H2931 H 0.42692 0.18904 0.88590
 H2932 H 0.43949 0.23094 0.89899
 H2933 H 0.37603 0.23917 0.93329
 H2934 H 0.36343 0.19725 0.92019
 H2935 H 0.37001 0.21698 0.85064
 H2936 H 0.38261 0.25894 0.86374
 C2937 C 1.14207 0.72949 1.14079
 C2938 C 1.12132 0.74080 1.15522
 C2939 C 1.10891 0.75797 1.14277
 C2940 C 1.11846 0.76216 1.11709
 C2941 C 1.11790 0.73720 1.10505
 C2942 C 1.13033 0.72000 1.11753
 C2943 C 1.15775 0.75089 1.13274
 C2944 C 1.14535 0.76805 1.12030
 C2945 C 1.15562 0.71129 1.15439
 C2946 C 1.16712 0.69688 1.16595
 C2947 C 1.10531 0.78095 1.10390
 C2948 C 1.09499 0.79704 1.09355
 H2949 H 1.11675 0.73573 1.17360
 H2950 H 1.09371 0.76761 1.15048
 H2951 H 1.10857 0.73337 1.08825
 H2952 H 1.13165 0.70143 1.11141
 H2953 H 1.17694 0.75242 1.13646
 H2954 H 1.15392 0.78428 1.11336
 C2955 C 1.14319 0.23051 0.64163
 C2956 C 1.11687 0.23286 0.64998
 C2957 C 1.10412 0.24984 0.63757
 C2958 C 1.11895 0.26277 0.61804
 C2959 C 1.12892 0.24252 0.60198
 C2960 C 1.14168 0.22553 0.61440
 C2961 C 1.15376 0.25604 0.64371
 C2962 C 1.14103 0.27298 0.63132
 C2963 C 1.15706 0.21253 0.65518
 C2964 C 1.16876 0.19829 0.66672
 C2965 C 1.10546 0.28134 0.60490
 C2966 C 1.09490 0.29727 0.59456
 H2967 H 1.10894 0.22212 0.66434
 H2968 H 1.08527 0.25364 0.64130
 H2969 H 1.12619 0.24159 0.58260
 H2970 H 1.14988 0.21005 0.60566
 H2971 H 1.16985 0.26043 0.65401
 H2972 H 1.14623 0.29189 0.63101
 C2973 C 0.64216 0.72933 0.64147
 C2974 C 0.62956 0.71947 0.61882
 C2975 C 0.61707 0.73658 0.60628
 C2976 C 0.61843 0.76182 0.61766
 C2977 C 0.64550 0.76730 0.61992
 C2978 C 0.65797 0.75023 0.63243
 C2979 C 0.62206 0.74137 0.65622
 C2980 C 0.60959 0.75845 0.64371
 C2981 C 0.65577 0.71121 0.65513
 C2982 C 0.66730 0.69687 0.66672
 C2983 C 0.60521 0.78051 0.60441
 C2984 C 0.59483 0.79653 0.59400
 H2985 H 0.63037 0.70074 0.61314
 H2986 H 0.60717 0.73251 0.58986
 H2987 H 0.65414 0.78318 0.61233
 H2988 H 0.67728 0.75150 0.63554
 H2989 H 0.61795 0.73685 0.67485
 H2990 H 0.59479 0.76856 0.65161
 C2991 C 0.64193 0.22908 1.14094
 C2992 C 0.62038 0.23933 1.15498
 C2993 C 0.60775 0.25635 1.14253
 C2994 C 0.61792 0.26146 1.11726
 C2995 C 0.61859 0.23678 1.10466
 C2996 C 0.63123 0.21973 1.11713
 C2997 C 0.65709 0.25118 1.13385
 C2998 C 0.64448 0.26818 1.12142
 C2999 C 0.65570 0.21103 1.15453
 C3000 C 0.66736 0.19676 1.16609
 C3001 C 0.60455 0.28009 1.10407
 C3002 C 0.59409 0.29607 1.09368
 H3003 H 0.61543 0.23368 1.17309
 H3004 H 0.59200 0.26529 1.14998
 H3005 H 0.60990 0.23302 1.08749
 H3006 H 0.63338 0.20137 1.11064
 H3007 H 0.67610 0.25328 1.13820
 H3008 H 0.65269 0.28484 1.11511
 C3009 C 1.29946 1.11341 0.88543
 C3010 C 1.29381 1.11944 0.91188
 C3011 C 1.27123 1.11266 0.91894
 C3012 C 1.25647 1.10050 0.89887
 C3013 C 1.27217 1.07941 0.89019
 C3014 C 1.29475 1.08619 0.88314
 C3015 C 1.27922 1.12542 0.87083
 C3016 C 1.25662 1.11863 0.87789
 C3017 C 1.32389 1.12058 0.87799
 C3018 C 1.34417 1.12618 0.87228
 C3019 C 1.23219 1.09309 0.90656
 C3020 C 1.21233 1.08684 0.91297
 H3021 H 1.30643 1.12830 0.92400
 H3022 H 1.26452 1.11571 0.93710
 H3023 H 1.26607 1.06078 0.88962
 H3024 H 1.30798 1.07336 0.87652
 H3025 H 1.28236 1.13812 0.85623
 H3026 H 1.24040 1.12553 0.86934
 C3027 C 1.27048 0.64235 0.35674
 C3028 C 1.25874 0.62181 0.34229
 C3029 C 1.24167 0.60936 0.35490
 C3030 C 1.23801 0.61865 0.38075
 C3031 C 1.23231 0.64561 0.37793
 C3032 C 1.24937 0.65805 0.36532
 C3033 C 1.28026 0.63031 0.37971
 C3034 C 1.26317 0.61784 0.39235
 C3035 C 1.28858 0.65594 0.34298
 C3036 C 1.30294 0.66747 0.33134
 C3037 C 1.21934 0.60545 0.39411
 C3038 C 1.20335 0.59504 0.40459
 H3039 H 1.26344 0.61741 0.32378
 H3040 H 1.23176 0.59429 0.34720
 H3041 H 1.21629 0.65418 0.38524
 H3042 H 1.24795 0.67728 0.36183
 H3043 H 1.29895 0.63148 0.38552
 H3044 H 1.26720 0.60831 0.40899
 C3045 C 0.77057 1.14216 0.35676
 C3046 C 0.75548 1.15810 0.37363
 C3047 C 0.73839 1.14569 0.38625
 C3048 C 0.73805 1.11853 0.38076
 C3049 C 0.76390 1.10991 0.38570
 C3050 C 0.78103 1.12235 0.37306
 C3051 C 0.75208 1.12920 0.34066
 C3052 C 0.73500 1.11679 0.35328
 C3053 C 0.78869 1.15572 0.34300
 C3054 C 0.80305 1.16729 0.33139
 C3055 C 0.71934 1.10537 0.39412
 C3056 C 0.70331 1.09500 0.40459
 H3057 H 0.75803 1.17744 0.37554
 H3058 H 0.72630 1.15440 0.39896
 H3059 H 0.76837 1.09534 0.39802
 H3060 H 0.80016 1.11844 0.37455
 H3061 H 0.75241 1.12970 0.32107
 H3062 H 0.72069 1.10666 0.34448
 C3063 C 0.77008 0.64227 0.85694
 C3064 C 0.75896 0.65637 0.87803
 C3065 C 0.74182 0.64373 0.89037
 C3066 C 0.73746 0.61823 0.88042
 C3067 C 0.76238 0.60614 0.88056
 C3068 C 0.77955 0.61879 0.86820
 C3069 C 0.74854 0.63453 0.84131
 C3070 C 0.73141 0.62191 0.85363
 C3071 C 0.78826 0.65604 0.84346
 C3072 C 0.80265 0.66768 0.83197
 C3073 C 0.71871 0.60485 0.89350
 C3074 C 0.70266 0.59437 0.90383
 H3075 H 0.76413 0.67465 0.88288
 H3076 H 0.73230 0.65119 0.90578
 H3077 H 0.76620 0.58917 0.88956
 H3078 H 0.79808 0.61266 0.86662
 H3079 H 0.74690 0.63859 0.82220
 H3080 H 0.71511 0.61516 0.84508
 C3081 C 1.27079 0.85795 1.14111
 C3082 C 1.25727 0.84277 1.12226
 C3083 C 1.24026 0.85539 1.10981
 C3084 C 1.23842 0.88197 1.11741
 C3085 C 1.26407 0.89213 1.11452
 C3086 C 1.28111 0.87949 1.12699
 C3087 C 1.25099 0.86870 1.15720
 C3088 C 1.23399 0.88131 1.14475
 C3089 C 1.28884 0.84418 1.15470
 C3090 C 1.30312 0.83252 1.16625
 C3091 C 1.21980 0.89534 1.10420
 C3092 C 1.20384 0.90582 1.09380
 H3093 H 1.26078 0.82378 1.11895
 H3094 H 1.22920 0.84721 1.09583
 H3095 H 1.26845 0.90784 1.10364
 H3096 H 1.30010 0.88437 1.12681
 H3097 H 1.25039 0.86661 1.17668
 H3098 H 1.21883 0.89003 1.15357
 C3099 C 1.26949 0.35681 0.64164
 C3100 C 1.27431 0.35808 0.61438
 C3101 C 1.25733 0.37083 0.60195
 C3102 C 1.23723 0.38105 0.61804
 C3103 C 1.25035 0.39595 0.63739
 C3104 C 1.26732 0.38320 0.64980
 C3105 C 1.24391 0.34640 0.64395
 C3106 C 1.22697 0.35913 0.63155
 C3107 C 1.28747 0.34294 0.65520
 C3108 C 1.30171 0.33125 0.66674
 C3109 C 1.21867 0.39454 0.60491
 C3110 C 1.20273 0.40510 0.59457
 H3111 H 1.28970 0.34972 0.60561
 H3112 H 1.25817 0.37341 0.58255
 H3113 H 1.24667 0.41485 0.64099
 H3114 H 1.27819 0.39118 0.66404
 H3115 H 1.23948 0.33040 0.65439
 H3116 H 1.20803 0.35403 0.63138
 C3117 C 0.77059 0.85778 0.64157
 C3118 C 0.76819 0.84983 0.61513
 C3119 C 0.75110 0.86231 0.60260
 C3120 C 0.73811 0.88151 0.61775
 C3121 C 0.75831 0.89756 0.62795
 C3122 C 0.77540 0.88507 0.64049
 C3123 C 0.74510 0.85534 0.65214
 C3124 C 0.72805 0.86780 0.63963
 C3125 C 0.78871 0.84418 0.65522
 C3126 C 0.80307 0.83264 0.66680
 C3127 C 0.71943 0.89473 0.60448
 C3128 C 0.70343 0.90513 0.59406
 H3129 H 0.77897 0.83567 0.60696
 H3130 H 0.74725 0.85885 0.58369
 H3131 H 0.75913 0.91699 0.62552
 H3132 H 0.79087 0.89380 0.64881
 H3133 H 0.74082 0.84475 0.66807
 H3134 H 0.70916 0.86788 0.64486
 C3135 C 0.77022 0.35764 1.14113
 C3136 C 0.76736 0.34929 1.11485
 C3137 C 0.75022 0.36174 1.10236
 C3138 C 0.73763 0.38131 1.11738
 C3139 C 0.75813 0.39731 1.12704
 C3140 C 0.77528 0.38486 1.13954
 C3141 C 0.74486 0.35562 1.15209
 C3142 C 0.72775 0.36805 1.13962
 C3143 C 0.78839 0.34407 1.15475
 C3144 C 0.80278 0.33255 1.16631
 C3145 C 0.71889 0.39449 1.10415
 C3146 C 0.70284 0.40485 1.09376
 H3147 H 0.77790 0.33490 1.10676
 H3148 H 0.74607 0.35802 1.08358
 H3149 H 0.75910 0.41669 1.12429
 H3150 H 0.79094 0.39357 1.14750
 H3151 H 0.74070 0.34534 1.16825
 H3152 H 0.70894 0.36840 1.14511
 C3153 C 0.72965 1.14218 1.14094
 C3154 C 0.72975 1.14763 1.11376
 C3155 C 0.74691 1.13519 1.10128
 C3156 C 0.76226 1.11853 1.11722
 C3157 C 0.74403 1.10221 1.13027
 C3158 C 0.72686 1.11465 1.14276
 C3159 C 0.75550 1.14741 1.14941
 C3160 C 0.77263 1.13499 1.13695
 C3161 C 0.71147 1.15574 1.15455
 C3162 C 0.69708 1.16727 1.16610
 C3163 C 0.78103 1.10536 1.10401
 C3164 C 0.79710 1.09502 1.09363
 H3165 H 0.71742 1.16012 1.10509
 H3166 H 0.74928 1.13702 1.08192
 H3167 H 0.74453 1.08263 1.12974
 H3168 H 0.71266 1.10573 1.15292
 H3169 H 0.75998 1.15979 1.16393
 H3170 H 0.79177 1.13675 1.14082
 C3171 C 0.72938 0.64213 0.64152
 C3172 C 0.75508 0.64576 0.65121
 C3173 C 0.77214 0.63330 0.63871
 C3174 C 0.76186 0.61840 0.61771
 C3175 C 0.74786 0.63656 0.60219
 C3176 C 0.73077 0.64905 0.61472
 C3177 C 0.72537 0.61470 0.64169
 C3178 C 0.74247 0.60221 0.62917
 C3179 C 0.71126 0.65574 0.65517
 C3180 C 0.69690 0.66729 0.66674
 C3181 C 0.78055 0.60518 0.60446
 C3182 C 0.79656 0.59480 0.59404
 H3183 H 0.75950 0.65712 0.66656
 H3184 H 0.79116 0.63399 0.64336
 H3185 H 0.75105 0.63934 0.58306
 H3186 H 0.71932 0.66253 0.60631
 H3187 H 0.71043 0.60587 0.65082
 H3188 H 0.74218 0.58268 0.62756
 C3189 C 0.23051 1.14310 0.64157
 C3190 C 0.24124 1.12201 0.65597
 C3191 C 0.25819 1.10927 0.64355
 C3192 C 0.26275 1.11886 0.61796
 C3193 C 0.26925 1.14559 0.62134
 C3194 C 0.25231 1.15832 0.63374
 C3195 C 0.22088 1.13170 0.61820
 C3196 C 0.23786 1.11894 0.60576
 C3197 C 0.21255 1.15697 0.65514
 C3198 C 0.19833 1.16868 0.66670
 C3199 C 0.28131 1.10538 0.60482
 C3200 C 0.29725 1.09482 0.59448
 H3201 H 0.23595 1.11746 0.67429
 H3202 H 0.26743 1.09381 0.65124
 H3203 H 0.28571 1.15382 0.61455
 H3204 H 0.25426 1.17745 0.63757
 H3205 H 0.20239 1.13349 0.61197
 H3206 H 0.23392 1.10979 0.58888
 C3207 C 0.22896 0.64175 1.14084
 C3208 C 0.25026 0.63351 1.15650
 C3209 C 0.26729 0.62092 1.14407
 C3210 C 0.26139 0.61778 1.11718
 C3211 C 0.25748 0.64349 1.10765
 C3212 C 0.24044 0.65609 1.12009
 C3213 C 0.21922 0.61858 1.12910
 C3214 C 0.23630 0.60596 1.11665
 C3215 C 0.21089 0.65550 1.15442
 C3216 C 0.19660 0.66715 1.16596
 C3217 C 0.28004 0.60444 1.10400
 C3218 C 0.29604 0.59400 1.09363
 H3219 H 0.25181 0.63720 1.17568
 H3220 H 0.28343 0.61384 1.15262
 H3221 H 0.26722 0.65112 1.09244
 H3222 H 0.23557 0.67451 1.11553
 H3223 H 0.20059 0.61262 1.13044
 H3224 H 0.23230 0.58919 1.10731
 C3225 C 0.72970 0.85801 0.85722
 C3226 C 0.72003 0.87058 0.87996
 C3227 C 0.73722 0.88323 0.89229
 C3228 C 0.76235 0.88204 0.88066
 C3229 C 0.75868 0.89082 0.85464
 C3230 C 0.74152 0.87819 0.84232
 C3231 C 0.75075 0.84239 0.86609
 C3232 C 0.76790 0.85501 0.87839
 C3233 C 0.71151 0.84424 0.84376
 C3234 C 0.69712 0.83260 0.83227
 C3235 C 0.78113 0.89541 0.89371
 C3236 C 0.79722 0.90588 0.90401
 H3237 H 0.70136 0.86963 0.88583
 H3238 H 0.73328 0.89312 0.90874
 H3239 H 0.76865 0.90567 0.84660
 H3240 H 0.73679 0.88223 0.82373
 H3241 H 0.75206 0.82308 0.86300
 H3242 H 0.78390 0.84651 0.88584
 C3243 C 0.72957 0.35772 0.35667
 C3244 C 0.75520 0.35475 0.34660
 C3245 C 0.77226 0.36716 0.35923
 C3246 C 0.76207 0.38135 0.38071
 C3247 C 0.74845 0.36259 0.39591
 C3248 C 0.73136 0.35016 0.38327
 C3249 C 0.72526 0.38509 0.35724
 C3250 C 0.74236 0.39752 0.36989
 C3251 C 0.71145 0.34416 0.34290
 C3252 C 0.69709 0.33261 0.33128
 C3253 C 0.78075 0.39452 0.39409
 C3254 C 0.79675 0.40491 0.40458
 H3255 H 0.75957 0.34385 0.33092
 H3256 H 0.79124 0.36688 0.35434
 H3257 H 0.75190 0.35937 0.41494
 H3258 H 0.72016 0.33629 0.39146
 H3259 H 0.71011 0.39391 0.34851
 H3260 H 0.74186 0.41700 0.37200
 C3261 C 0.22944 0.85778 0.35684
 C3262 C 0.25512 0.85450 0.34702
 C3263 C 0.27217 0.86694 0.35962
 C3264 C 0.26190 0.88148 0.38084
 C3265 C 0.24803 0.86300 0.39617
 C3266 C 0.23095 0.85054 0.38355
 C3267 C 0.22531 0.88518 0.35703
 C3268 C 0.24239 0.89765 0.36966
 C3269 C 0.21134 0.84418 0.34309
 C3270 C 0.19699 0.83264 0.33145
 C3271 C 0.28057 0.89469 0.39420
 C3272 C 0.29658 0.90509 0.40467
 H3273 H 0.25954 0.84337 0.33151
 H3274 H 0.29118 0.86647 0.35490
 H3275 H 0.25130 0.86001 0.41526
 H3276 H 0.21959 0.83685 0.39182
 H3277 H 0.21029 0.89399 0.34806
 H3278 H 0.24202 0.91715 0.37152
 C3279 C 0.20049 0.38671 0.88553
 C3280 C 0.21674 0.39470 0.86454
 C3281 C 0.23935 0.40148 0.87159
 C3282 C 0.24349 0.39959 0.89893
 C3283 C 0.23721 0.37336 0.90535
 C3284 C 0.21460 0.36659 0.89830
 C3285 C 0.20075 0.40799 0.90328
 C3286 C 0.22333 0.41476 0.91031
 C3287 C 0.17605 0.37954 0.87811
 C3288 C 0.15577 0.37393 0.87241
 C3289 C 0.26779 0.40699 0.90660
 C3290 C 0.28766 0.41323 0.91300
 H3291 H 0.21100 0.39500 0.84580
 H3292 H 0.25297 0.40758 0.85887
 H3293 H 0.24943 0.36118 0.91459
 H3294 H 0.20748 0.34860 0.90151
 H3295 H 0.18459 0.41697 0.90975
 H3296 H 0.22651 0.42953 0.92280
   
