data_POSCAR
  _audit_creation_date              2014-09-24
  _audit_creation_method            'ToBaCCo'
  _symmetry_space_group_name_H-M    'P1'
  _symmetry_Int_Tables_number       1
  _symmetry_cell_setting            triclinic
  loop_
  _symmetry_equiv_pos_as_xyz
 x,y,z
_cell_length_a 60.6324
_cell_length_b 61.5677
_cell_length_c 61.3054
_cell_angle_alpha 90.523400
_cell_angle_beta 91.716300
_cell_angle_gamma 89.667100
loop_
  _atom_site_label
  _atom_site_type_symbol
  _atom_site_fract_x
  _atom_site_fract_y
  _atom_site_fract_z
C1 C 0.13052 -0.03399 0.26362
 C2 C 0.12270 -0.01263 0.26592
 C3 C 0.11047 -0.00681 0.28401
 C4 C 0.10592 -0.02218 0.29988
 C5 C 0.11385 -0.04351 0.29766
 C6 C 0.12612 -0.04991 0.27939
 C7 C 0.12523 0.00313 0.24829
 C8 C 0.11231 0.00096 0.22911
 C9 C 0.11355 0.01623 0.21218
 C10 C 0.12822 0.03384 0.21512
 C11 C 0.14101 0.03625 0.23448
 C12 C 0.13952 0.02077 0.25099
 H13 H 0.13890 -0.03824 0.24882
 H14 H 0.10401 0.00958 0.28546
 H15 H 0.10172 -0.01309 0.22735
 H16 H 0.14917 0.02264 0.26605
 H17 H 0.11049 -0.05493 0.31045
 H18 H 0.12919 0.04627 0.20282
 C19 C 0.37425 -0.02411 0.74025
 C20 C 0.38692 -0.00515 0.73923
 C21 C 0.39707 0.00013 0.71974
 C22 C 0.39435 -0.01311 0.70112
 C23 C 0.38091 -0.03157 0.70201
 C24 C 0.37094 -0.03731 0.72158
 C25 C 0.38875 0.00994 0.75806
 C26 C 0.40132 0.00441 0.77682
 C27 C 0.40397 0.01926 0.79448
 C28 C 0.39349 0.03978 0.79260
 C29 C 0.38093 0.04542 0.77387
 C30 C 0.37859 0.03038 0.75670
 H31 H 0.36629 -0.02810 0.75528
 H32 H 0.40702 0.01467 0.71905
 H33 H 0.40860 -0.01167 0.77759
 H34 H 0.36922 0.03474 0.74204
 H35 H 0.37877 -0.04184 0.68766
 H36 H 0.39571 0.05200 0.80525
 C37 C 0.87191 0.46485 0.22840
 C38 C 0.88433 0.48397 0.22833
 C39 C 0.89637 0.48913 0.20995
 C40 C 0.89580 0.47551 0.19148
 C41 C 0.88257 0.45685 0.19131
 C42 C 0.87076 0.45129 0.20984
 C43 C 0.88432 0.49899 0.24718
 C44 C 0.89464 0.49313 0.26709
 C45 C 0.89519 0.50771 0.28507
 C46 C 0.88504 0.52825 0.28238
 C47 C 0.87484 0.53414 0.26251
 C48 C 0.87442 0.51948 0.24498
 H49 H 0.86260 0.46091 0.24264
 H50 H 0.90625 0.50376 0.21005
 H51 H 0.90180 0.47704 0.26848
 H52 H 0.86668 0.52413 0.22953
 H53 H 0.88213 0.44624 0.17710
 H54 H 0.88589 0.54034 0.29531
 C55 C 0.63036 0.47456 0.76131
 C56 C 0.62285 0.49488 0.76876
 C57 C 0.61279 0.49649 0.78908
 C58 C 0.60964 0.47785 0.80155
 C59 C 0.61745 0.45774 0.79409
 C60 C 0.62811 0.45595 0.77413
 C61 C 0.62429 0.51420 0.75478
 C62 C 0.61363 0.51429 0.73414
 C63 C 0.61344 0.53307 0.72135
 C64 C 0.62457 0.55167 0.72910
 C65 C 0.63607 0.55153 0.74932
 C66 C 0.63562 0.53280 0.76224
 H67 H 0.63830 0.47336 0.74573
 H68 H 0.60638 0.51200 0.79461
 H69 H 0.60472 0.50002 0.72842
 H70 H 0.64415 0.53264 0.77803
 H71 H 0.61482 0.44335 0.80372
 H72 H 0.62484 0.56604 0.71903
 C73 C 0.25647 0.14915 1.01857
 C74 C 0.25126 0.13653 1.00002
 C75 C 0.22928 0.13049 0.99549
 C76 C 0.21225 0.13715 1.00935
 C77 C 0.21790 0.15017 1.02766
 C78 C 0.23984 0.15583 1.03247
 C79 C 0.26884 0.13024 0.98508
 C80 C 0.28670 0.11742 0.99246
 C81 C 0.30486 0.11334 0.97908
 C82 C 0.30464 0.12274 0.95812
 C83 C 0.28642 0.13493 0.95037
 C84 C 0.26852 0.13846 0.96391
 H85 H 0.27346 0.15359 1.02228
 H86 H 0.22557 0.12098 0.98090
 H87 H 0.28674 0.11151 1.00905
 H88 H 0.25478 0.14853 0.95836
 H89 H 0.20550 0.15490 1.03917
 H90 H 0.31806 0.11968 0.94721
 C91 C 0.76764 0.34961 1.02491
 C92 C 0.76790 0.36178 1.00569
 C93 C 0.78816 0.36774 0.99711
 C94 C 0.80811 0.36136 1.00738
 C95 C 0.80762 0.34842 1.02604
 C96 C 0.78752 0.34240 1.03515
 C97 C 0.74717 0.36602 0.99310
 C98 C 0.72942 0.37750 1.00211
 C99 C 0.70938 0.38045 0.98996
 C100 C 0.70787 0.37178 0.96853
 C101 C 0.72560 0.36056 0.95953
 C102 C 0.74508 0.35767 0.97187
 H103 H 0.75185 0.34448 1.03081
 H104 H 0.78836 0.37718 0.98228
 H105 H 0.73113 0.38345 1.01875
 H106 H 0.75874 0.34884 0.96490
 H107 H 0.82309 0.34439 1.03434
 H108 H 0.69322 0.37436 0.95832
 C109 C 0.24759 0.85726 0.52220
 C110 C 0.25015 0.86998 0.50362
 C111 C 0.27081 0.87889 0.49933
 C112 C 0.28928 0.87484 0.51332
 C113 C 0.28630 0.86186 0.53184
 C114 C 0.26560 0.85329 0.53648
 C115 C 0.23127 0.87330 0.48830
 C116 C 0.21399 0.88737 0.49375
 C117 C 0.19535 0.88952 0.47976
 C118 C 0.19400 0.87713 0.46039
 C119 C 0.21144 0.86330 0.45458
 C120 C 0.23013 0.86162 0.46857
 H121 H 0.23157 0.85055 0.52557
 H122 H 0.27248 0.88823 0.48459
 H123 H 0.21497 0.89646 0.50896
 H124 H 0.24348 0.85068 0.46447
 H125 H 0.29988 0.85896 0.54334
 H126 H 0.17966 0.87872 0.44952
 C127 C 0.74415 0.64190 0.53736
 C128 C 0.73841 0.63501 0.51603
 C129 C 0.71648 0.62970 0.51063
 C130 C 0.70035 0.63117 0.52646
 C131 C 0.70618 0.63812 0.54766
 C132 C 0.72809 0.64358 0.55338
 C133 C 0.75565 0.63256 0.49973
 C134 C 0.77318 0.61808 0.50372
 C135 C 0.79106 0.61696 0.48965
 C136 C 0.79101 0.63077 0.47143
 C137 C 0.77282 0.64426 0.46655
 C138 C 0.75509 0.64506 0.48072
 H139 H 0.76112 0.64619 0.54130
 H140 H 0.71209 0.62394 0.49432
 H141 H 0.77325 0.60837 0.51838
 H142 H 0.74128 0.65589 0.47732
 H143 H 0.69368 0.63835 0.55993
 H144 H 0.80438 0.63000 0.46010
 C145 C -0.03544 0.25046 0.11807
 C146 C -0.01593 0.25934 0.11030
 C147 C -0.01656 0.27968 0.10016
 C148 C -0.03670 0.29080 0.09642
 C149 C -0.05615 0.28130 0.10382
 C150 C -0.05555 0.26159 0.11511
 C151 C 0.00501 0.24693 0.11102
 C152 C 0.00645 0.22703 0.09969
 C153 C 0.02707 0.21687 0.09681
 C154 C 0.04589 0.22635 0.10680
 C155 C 0.04442 0.24521 0.11969
 C156 C 0.02404 0.25592 0.12109
 H157 H -0.03498 0.23496 0.12632
 H158 H -0.00142 0.28596 0.09377
 H159 H -0.00826 0.22050 0.09164
 H160 H 0.02283 0.27093 0.13037
 H161 H -0.07176 0.28986 0.10218
 H162 H 0.06180 0.21839 0.10558
 C163 C -0.02754 0.74680 0.37762
 C164 C -0.00604 0.74263 0.38570
 C165 C 0.00031 0.72135 0.39092
 C166 C -0.01460 0.70413 0.38824
 C167 C -0.03596 0.70847 0.37976
 C168 C -0.04262 0.72973 0.37438
 C169 C 0.00989 0.76048 0.38902
 C170 C 0.00435 0.77880 0.40150
 C171 C 0.01971 0.79547 0.40519
 C172 C 0.04073 0.79374 0.39634
 C173 C 0.04643 0.77552 0.38379
 C174 C 0.03094 0.75894 0.38019
 H175 H -0.03228 0.76324 0.37331
 H176 H 0.01668 0.71840 0.39788
 H177 H -0.01188 0.78006 0.40838
 H178 H 0.03528 0.74479 0.37054
 H179 H -0.04754 0.69527 0.37752
 H180 H 0.05261 0.80664 0.39911
 C181 C 0.47114 0.23341 0.86958
 C182 C 0.48983 0.23128 0.88331
 C183 C 0.49579 0.21076 0.89164
 C184 C 0.48325 0.19213 0.88584
 C185 C 0.46443 0.19488 0.87201
 C186 C 0.45850 0.21528 0.86395
 C187 C 0.50471 0.25001 0.88568
 C188 C 0.49936 0.26783 0.89900
 C189 C 0.51141 0.28740 0.89808
 C190 C 0.52912 0.28831 0.88365
 C191 C 0.53456 0.27056 0.87033
 C192 C 0.52226 0.25144 0.87154
 H193 H 0.46686 0.24909 0.86267
 H194 H 0.51091 0.20927 0.90139
 H195 H 0.48493 0.26673 0.90891
 H196 H 0.52561 0.23792 0.86065
 H197 H 0.45386 0.18128 0.86771
 H198 H 0.53951 0.30253 0.88335
 C199 C 0.47067 0.76871 0.62884
 C200 C 0.49090 0.77226 0.61894
 C201 C 0.49345 0.79038 0.60565
 C202 C 0.47590 0.80491 0.60205
 C203 C 0.45580 0.80139 0.61213
 C204 C 0.45299 0.78324 0.62543
 C205 C 0.50846 0.75571 0.61992
 C206 C 0.50482 0.73570 0.60944
 C207 C 0.52194 0.72048 0.60796
 C208 C 0.54271 0.72519 0.61733
 C209 C 0.54664 0.74522 0.62779
 C210 C 0.52940 0.76049 0.62909
 H211 H 0.46849 0.75429 0.63854
 H212 H 0.50890 0.79280 0.59755
 H213 H 0.48882 0.73225 0.60186
 H214 H 0.53237 0.77621 0.63669
 H215 H 0.44214 0.81253 0.60919
 H216 H 0.55598 0.71340 0.61608
 C217 C 0.86576 1.03356 0.75397
 C218 C 0.87300 1.01283 0.76010
 C219 C 0.87925 1.00875 0.78188
 C220 C 0.87816 1.02537 0.79784
 C221 C 0.87041 1.04601 0.79132
 C222 C 0.86457 1.05022 0.76949
 C223 C 0.87419 0.99561 0.74342
 C224 C 0.88779 0.99822 0.72565
 C225 C 0.88745 0.98323 0.70813
 C226 C 0.87315 0.96521 0.70907
 C227 C 0.85991 0.96225 0.72728
 C228 C 0.86053 0.97753 0.74435
 H229 H 0.86123 1.03674 0.73705
 H230 H 0.88459 0.99251 0.78627
 H231 H 0.89767 1.01280 0.72505
 H232 H 0.85003 0.97556 0.75820
 H233 H 0.86990 1.05935 0.80294
 H234 H 0.87259 0.95321 0.69604
 C235 C 0.36244 0.52804 0.26020
 C236 C 0.37152 0.50724 0.26317
 C237 C 0.38330 0.50235 0.28251
 C238 C 0.38634 0.51817 0.29894
 C239 C 0.37702 0.53891 0.29589
 C240 C 0.36506 0.54403 0.27658
 C241 C 0.36997 0.49080 0.24562
 C242 C 0.38378 0.49219 0.22783
 C243 C 0.38383 0.47579 0.21180
 C244 C 0.36975 0.45785 0.21367
 C245 C 0.35579 0.45632 0.23156
 C246 C 0.35601 0.47292 0.24744
 H247 H 0.35371 0.53184 0.24502
 H248 H 0.39033 0.48625 0.28461
 H249 H 0.39479 0.50592 0.22664
 H250 H 0.34570 0.47168 0.26152
 H251 H 0.37933 0.55122 0.30848
 H252 H 0.36985 0.44504 0.20143
 C253 C 0.64913 1.01929 0.25715
 C254 C 0.63926 0.99954 0.25072
 C255 C 0.63247 0.99646 0.22879
 C256 C 0.63512 1.01292 0.21333
 C257 C 0.64493 1.03259 0.22015
 C258 C 0.65220 1.03586 0.24192
 C259 C 0.63652 0.98187 0.26675
 C260 C 0.62714 0.98619 0.28710
 C261 C 0.62503 0.96960 0.30266
 C262 C 0.63226 0.94849 0.29710
 C263 C 0.64088 0.94375 0.27659
 C264 C 0.64321 0.96059 0.26161
 H265 H 0.65465 1.02165 0.27398
 H266 H 0.62518 0.98112 0.22379
 H267 H 0.62209 1.00266 0.29090
 H268 H 0.65009 0.95709 0.24584
 H269 H 0.64711 1.04540 0.20843
 H270 H 0.63032 0.93526 0.30837
 C271 C 0.15608 0.52645 0.73693
 C272 C 0.14467 0.50755 0.73067
 C273 C 0.13735 0.50485 0.70895
 C274 C 0.14021 0.52131 0.69354
 C275 C 0.15166 0.54025 0.70008
 C276 C 0.15994 0.54277 0.72166
 C277 C 0.13923 0.49099 0.74694
 C278 C 0.12737 0.49693 0.76540
 C279 C 0.12080 0.48113 0.78020
 C280 C 0.12651 0.45930 0.77651
 C281 C 0.13844 0.45307 0.75819
 C282 C 0.14465 0.46905 0.74338
 H283 H 0.16179 0.52852 0.75374
 H284 H 0.12891 0.49000 0.70426
 H285 H 0.12296 0.51382 0.76804
 H286 H 0.15355 0.46445 0.72896
 H287 H 0.15402 0.55314 0.68849
 H288 H 0.12157 0.44707 0.78796
 C289 C 0.76414 0.86471 -0.01221
 C290 C 0.76263 0.87768 0.00656
 C291 C 0.74373 0.89046 0.00958
 C292 C 0.72640 0.89059 -0.00619
 C293 C 0.72816 0.87750 -0.02502
 C294 C 0.74694 0.86445 -0.02795
 C295 C 0.78046 0.87710 0.02342
 C296 C 0.80198 0.88312 0.01840
 C297 C 0.81943 0.88188 0.03417
 C298 C 0.81455 0.87385 0.05503
 C299 C 0.79305 0.86762 0.06011
 C300 C 0.77606 0.86960 0.04427
 H301 H 0.77858 0.85454 -0.01441
 H302 H 0.74249 0.90017 0.02434
 H303 H 0.80497 0.88809 0.00187
 H304 H 0.75938 0.86496 0.04801
 H305 H 0.71495 0.87736 -0.03733
 H306 H 0.82726 0.87284 0.06774
 C307 C 0.24971 0.37182 0.46490
 C308 C 0.24682 0.37698 0.48690
 C309 C 0.22787 0.38817 0.49313
 C310 C 0.21162 0.39391 0.47750
 C311 C 0.21411 0.38774 0.45557
 C312 C 0.23316 0.37658 0.44906
 C313 C 0.26368 0.37055 0.50337
 C314 C 0.28520 0.37835 0.50203
 C315 C 0.30138 0.37272 0.51782
 C316 C 0.29595 0.35860 0.53463
 C317 C 0.27438 0.35062 0.53617
 C318 C 0.25826 0.35677 0.52046
 H319 H 0.26479 0.36370 0.46030
 H320 H 0.22579 0.39240 0.51016
 H321 H 0.28925 0.38910 0.48884
 H322 H 0.24147 0.35102 0.52160
 H323 H 0.20109 0.39154 0.44372
 H324 H 0.30844 0.35420 0.54683
 C325 C 0.25462 0.63065 -0.03735
 C326 C 0.25667 0.62295 -0.01592
 C327 C 0.27544 0.61104 -0.00944
 C328 C 0.29234 0.60703 -0.02407
 C329 C 0.29059 0.61552 -0.04526
 C330 C 0.27165 0.62728 -0.05221
 C331 C 0.23933 0.62745 -0.00007
 C332 C 0.21791 0.61943 -0.00371
 C333 C 0.20128 0.62313 0.01161
 C334 C 0.20687 0.63543 0.03058
 C335 C 0.22828 0.64353 0.03432
 C336 C 0.24441 0.63943 0.01892
 H337 H 0.23976 0.63935 -0.04231
 H338 H 0.27686 0.60480 0.00702
 H339 H 0.21434 0.61071 -0.01880
 H340 H 0.26104 0.64542 0.02177
 H341 H 0.30395 0.61277 -0.05630
 H342 H 0.19489 0.63817 0.04305
 C343 C 0.73701 0.13631 0.46725
 C344 C 0.73914 0.13134 0.48947
 C345 C 0.75866 0.12156 0.49762
 C346 C 0.77635 0.11703 0.48374
 C347 C 0.77381 0.12260 0.46149
 C348 C 0.75431 0.13212 0.45314
 C349 C 0.72090 0.13686 0.50406
 C350 C 0.69937 0.13006 0.49861
 C351 C 0.68157 0.13605 0.51159
 C352 C 0.68558 0.14956 0.52986
 C353 C 0.70698 0.15678 0.53535
 C354 C 0.72468 0.15000 0.52262
 H355 H 0.72188 0.14372 0.46100
 H356 H 0.76013 0.11815 0.51490
 H357 H 0.69652 0.12018 0.48409
 H358 H 0.74120 0.15570 0.52659
 H359 H 0.78680 0.11904 0.45026
 H360 H 0.67212 0.15411 0.54022
 C361 C 1.03542 0.75494 0.86483
 C362 C 1.01400 0.75603 0.87272
 C363 C 1.00680 0.77475 0.88360
 C364 C 1.02091 0.79271 0.88668
 C365 C 1.04244 0.79123 0.87852
 C366 C 1.04979 0.77249 0.86774
 C367 C 0.99965 0.73690 0.87083
 C368 C 1.00609 0.71781 0.88140
 C369 C 0.99312 0.69894 0.87975
 C370 C 0.97376 0.69952 0.86629
 C371 C 0.96684 0.71892 0.85614
 C372 C 0.97981 0.73762 0.85865
 H373 H 1.04100 0.74023 0.85680
 H374 H 0.99006 0.77523 0.88927
 H375 H 1.02166 0.71771 0.89053
 H376 H 0.97475 0.75257 0.85070
 H377 H 1.05407 0.80432 0.88121
 H378 H 0.96313 0.68547 0.86488
 C379 C 0.53942 0.27129 0.37061
 C380 C 0.51834 0.27390 0.37892
 C381 C 0.51378 0.29153 0.39263
 C382 C 0.53050 0.30620 0.39859
 C383 C 0.55160 0.30362 0.39013
 C384 C 0.55614 0.28631 0.37583
 C385 C 0.50189 0.25680 0.37529
 C386 C 0.50440 0.23732 0.38664
 C387 C 0.48861 0.22090 0.38422
 C388 C 0.47040 0.22406 0.36990
 C389 C 0.46776 0.24359 0.35834
 C390 C 0.48363 0.25997 0.36114
 H391 H 0.54287 0.25725 0.36046
 H392 H 0.49758 0.29321 0.39950
 H393 H 0.51863 0.23505 0.39752
 H394 H 0.48163 0.27526 0.35266
 H395 H 0.56432 0.31532 0.39446
 H396 H 0.45807 0.21146 0.36801
 C397 C 1.01567 0.25351 0.64220
 C398 C 0.99609 0.24635 0.63179
 C399 C 0.99447 0.22458 0.62475
 C400 C 1.01228 0.20981 0.62777
 C401 C 1.03185 0.21773 0.63804
 C402 C 1.03359 0.23934 0.64530
 C403 C 0.97718 0.26161 0.62871
 C404 C 0.98068 0.28290 0.62138
 C405 C 0.96320 0.29811 0.61995
 C406 C 0.94196 0.29122 0.62533
 C407 C 0.93804 0.26991 0.63194
 C408 C 0.95575 0.25522 0.63384
 H409 H 1.01697 0.27015 0.64799
 H410 H 0.97894 0.21926 0.61749
 H411 H 0.99728 0.28775 0.61770
 H412 H 0.95287 0.23892 0.63958
 H413 H 1.04622 0.20737 0.64007
 H414 H 0.92807 0.30229 0.62389
 C415 C 0.51431 0.74369 0.14623
 C416 C 0.49564 0.74080 0.13250
 C417 C 0.49376 0.72195 0.11959
 C418 C 0.51051 0.70608 0.12005
 C419 C 0.52918 0.70917 0.13388
 C420 C 0.53108 0.72793 0.14704
 C421 C 0.47809 0.75750 0.13154
 C422 C 0.48298 0.77886 0.12561
 C423 C 0.46627 0.79474 0.12440
 C424 C 0.44465 0.78908 0.12955
 C425 C 0.43951 0.76774 0.13551
 C426 C 0.45636 0.75200 0.13631
 H427 H 0.51581 0.75824 0.15625
 H428 H 0.47927 0.71973 0.10903
 H429 H 0.49976 0.78305 0.12179
 H430 H 0.45262 0.73543 0.14067
 H431 H 0.54229 0.69712 0.13429
 H432 H 0.43176 0.80133 0.12882
 O433 O 0.00026 0.99612 0.93110
 O434 O 0.03419 1.01386 0.93061
 O435 O 0.00770 0.94349 0.97322
 O436 O 0.02121 0.93930 1.01099
 O437 O -0.04646 0.98765 0.98150
 O438 O -0.04998 1.02339 0.99646
 O439 O 0.06321 1.00287 1.03776
 O440 O 0.06802 0.97042 1.02176
 O441 O 0.05897 1.05105 0.99400
 O442 O 0.03602 1.05900 0.96125
 O443 O 0.00839 1.04559 1.04169
 O444 O -0.02271 1.02107 1.04592
 O445 O 0.03188 1.01258 1.05503
 O446 O -0.00529 0.99568 1.05669
 O447 O 0.02336 1.06422 1.01398
 O448 O 0.00914 1.06911 0.97642
 O449 O 0.07691 1.02000 1.00402
 O450 O 0.07698 0.98280 0.98629
 O451 O -0.03069 1.00850 0.94738
 O452 O -0.03770 1.04008 0.96997
 O453 O -0.02882 0.95743 0.99426
 O454 O -0.00655 0.95001 1.02593
 O455 O 0.02187 0.96278 0.94555
 O456 O 0.05470 0.98554 0.94457
 Zr457 Zr 0.02361 0.99478 0.95690
 O458 O 0.04363 1.01421 0.97744
 Zr459 Zr 0.00440 0.96693 0.99848
 O460 O 0.02400 0.98515 1.02086
 Zr461 Zr -0.02172 1.01137 0.98085
 O462 O -0.00358 1.03137 1.00279
 Zr463 Zr 0.05207 0.99670 1.00568
 O464 O 0.03398 0.97609 0.98403
 Zr465 Zr 0.02584 1.04123 0.98854
 O466 O 0.00635 1.02313 0.96566
 Zr467 Zr 0.00697 1.01334 1.03019
 O468 O -0.01370 0.99400 1.00951
 O469 O -0.00517 0.98374 0.97062
 O470 O 0.03579 1.02458 1.01651
 C471 C -0.02009 1.00205 0.93058
 C472 C 0.01556 0.94499 0.95399
 C473 C -0.04627 0.96781 0.98781
 C474 C 0.05278 1.00880 1.05476
 C475 C 0.07659 1.04016 0.99896
 C476 C 0.01530 1.06313 1.03307
 H477 H 0.05673 1.01826 0.96918
 H478 H -0.01301 1.04382 1.00683
 H479 H -0.01430 0.97452 0.96064
 H480 H 0.02835 0.97609 1.03353
 H481 H 0.06301 0.95709 1.01406
 H482 H 0.03448 0.93712 1.00221
 H483 H -0.00514 1.07020 0.98375
 H484 H -0.02742 1.04732 0.96014
 H485 H 0.09143 0.98507 0.99395
 H486 H 0.05246 0.97948 0.92961
 H487 H -0.03003 1.03293 1.03762
 H488 H -0.05086 1.01547 1.01039
 H489 H 0.02581 1.02770 0.93102
 H490 H 0.04785 1.05056 0.95427
 H491 H -0.01629 0.96016 1.03381
 H492 H 0.00461 0.98311 1.05940
 O493 O 0.47448 0.50257 0.45212
 O494 O 0.51064 0.51399 0.44751
 O495 O 0.48426 0.44660 0.49422
 O496 O 0.49521 0.43933 0.52801
 O497 O 0.43410 0.49693 0.50791
 O498 O 0.43681 0.53204 0.52464
 O499 O 0.55032 0.49571 0.55138
 O500 O 0.54851 0.46403 0.53084
 O501 O 0.54644 0.54779 0.50885
 O502 O 0.52182 0.55845 0.47832
 O503 O 0.50494 0.54637 0.56210
 O504 O 0.47110 0.52795 0.57028
 O505 O 0.52333 0.51091 0.57166
 O506 O 0.48399 0.49836 0.57715
 O507 O 0.51552 0.56427 0.53193
 O508 O 0.49730 0.57078 0.49569
 O509 O 0.56207 0.51529 0.51777
 O510 O 0.55742 0.48096 0.49700
 O511 O 0.44782 0.51769 0.47286
 O512 O 0.44742 0.54855 0.49728
 O513 O 0.44981 0.46445 0.51665
 O514 O 0.47516 0.45670 0.54889
 O515 O 0.49175 0.46517 0.46339
 O516 O 0.52787 0.48279 0.45877
 Zr517 Zr 0.50039 0.49630 0.47486
 O518 O 0.52520 0.51283 0.49296
 Zr519 Zr 0.48389 0.47057 0.51889
 O520 O 0.50836 0.48568 0.53867
 Zr521 Zr 0.46113 0.51781 0.50497
 O522 O 0.48426 0.53511 0.52450
 Zr523 Zr 0.53532 0.49409 0.51995
 O524 O 0.51208 0.47637 0.50065
 Zr525 Zr 0.51233 0.54148 0.50638
 O526 O 0.48807 0.52629 0.48608
 Zr527 Zr 0.49605 0.51544 0.55020
 O528 O 0.47058 0.49917 0.53231
 O529 O 0.47270 0.48865 0.49234
 O530 O 0.52385 0.52335 0.53287
 C531 C 0.45535 0.51134 0.45444
 C532 C 0.48714 0.44775 0.47358
 C533 C 0.43296 0.47667 0.51256
 C534 C 0.54289 0.50320 0.56943
 C535 C 0.56322 0.53551 0.51308
 C536 C 0.51190 0.56328 0.55242
 H537 H 0.53769 0.51568 0.48339
 H538 H 0.47725 0.54858 0.52988
 H539 H 0.46152 0.48087 0.48318
 H540 H 0.51304 0.47589 0.55067
 H541 H 0.54303 0.45283 0.52036
 H542 H 0.51077 0.44101 0.53298
 H543 H 0.48537 0.57440 0.50579
 H544 H 0.45697 0.55499 0.48625
 H545 H 0.57227 0.48000 0.50416
 H546 H 0.52280 0.47698 0.44434
 H547 H 0.46383 0.54012 0.56241
 H548 H 0.43728 0.52402 0.53857
 H549 H 0.50534 0.52910 0.44945
 H550 H 0.53210 0.54903 0.47026
 H551 H 0.46383 0.46631 0.55523
 H552 H 0.49339 0.48535 0.57947
 O553 O 0.43581 -0.03588 0.48398
 O554 O 0.45569 -0.04522 0.45369
 O555 O 0.48404 -0.02885 0.53586
 O556 O 0.51523 -0.01012 0.54229
 O557 O 0.43410 0.01826 0.52639
 O558 O 0.43045 0.04928 0.50278
 O559 O 0.54468 0.01997 0.47557
 O560 O 0.54604 -0.01200 0.49447
 O561 O 0.49912 0.01256 0.42373
 O562 O 0.46103 -0.00145 0.42041
 O563 O 0.49444 0.06701 0.46285
 O564 O 0.48191 0.07604 0.49718
 O565 O 0.52880 0.05221 0.48476
 O566 O 0.50525 0.06271 0.51746
 O567 O 0.48016 0.04752 0.43422
 O568 O 0.44551 0.02596 0.42962
 O569 O 0.52908 0.00010 0.44304
 O570 O 0.52887 -0.03334 0.46595
 O571 O 0.41919 -0.00337 0.49106
 O572 O 0.41845 0.03243 0.47524
 O573 O 0.46462 0.00768 0.54600
 O574 O 0.50296 0.02250 0.54699
 O575 O 0.47069 -0.04923 0.50728
 O576 O 0.48776 -0.05523 0.47126
 Zr577 Zr 0.46913 -0.02759 0.48071
 O578 O 0.48961 -0.01207 0.45855
 Zr579 Zr 0.48875 0.00191 0.52262
 O580 O 0.51082 0.01780 0.50240
 Zr581 Zr 0.44507 0.01931 0.49400
 O582 O 0.46513 0.03684 0.47298
 Zr583 Zr 0.51831 -0.00176 0.47533
 O584 O 0.49878 -0.01904 0.49731
 Zr585 Zr 0.47463 0.01660 0.44708
 O586 O 0.45278 -0.00036 0.46701
 Zr587 Zr 0.49507 0.04524 0.48904
 O588 O 0.47347 0.03052 0.51113
 O589 O 0.45982 -0.00834 0.50690
 O590 O 0.50407 0.02640 0.46239
 C591 C 0.41871 -0.02398 0.48737
 C592 C 0.47683 -0.04669 0.52742
 C593 C 0.44422 0.01340 0.54448
 C594 C 0.54560 0.04041 0.47984
 C595 C 0.51932 0.00613 0.42518
 C596 C 0.48787 0.06509 0.44281
 H597 H 0.49319 -0.02217 0.44651
 H598 H 0.45694 0.04983 0.46781
 H599 H 0.44991 -0.01630 0.51653
 H600 H 0.52430 0.02158 0.51104
 H601 H 0.54107 -0.02428 0.50339
 H602 H 0.52883 -0.00781 0.53416
 H603 H 0.44050 0.04002 0.43572
 H604 H 0.41740 0.02374 0.46159
 H605 H 0.54385 -0.03212 0.46004
 H606 H 0.47959 -0.06851 0.47510
 H607 H 0.46592 0.07551 0.49359
 H608 H 0.44058 0.05616 0.51373
 H609 H 0.44739 -0.03463 0.44453
 H610 H 0.46940 -0.01523 0.41930
 H611 H 0.49354 0.03566 0.54772
 H612 H 0.51905 0.05596 0.52321
 O613 O 0.00422 0.45544 1.03728
 O614 O 0.03560 0.47603 1.04351
 O615 O -0.04611 0.50315 1.02211
 O616 O -0.04894 0.53166 0.99889
 O617 O -0.04191 0.44727 0.98180
 O618 O -0.01749 0.43563 0.95406
 O619 O 0.01771 0.54939 0.96153
 O620 O 0.00011 0.55809 0.99297
 O621 O 0.06754 0.50395 0.97932
 O622 O 0.06771 0.46954 1.00019
 O623 O 0.02710 0.49183 0.92551
 O624 O -0.01102 0.47768 0.92006
 O625 O 0.00666 0.52777 0.93301
 O626 O -0.02640 0.50584 0.92560
 O627 O 0.05482 0.47952 0.94792
 O628 O 0.05754 0.45043 0.97539
 O629 O 0.05058 0.53640 0.98512
 O630 O 0.02828 0.54444 1.01746
 O631 O -0.00856 0.43461 1.00869
 O632 O 0.00849 0.42541 0.97493
 O633 O -0.05860 0.47985 0.98767
 O634 O -0.05737 0.51400 0.96844
 O635 O -0.01778 0.49185 1.04444
 O636 O 0.01934 0.50920 1.04733
 Zr637 Zr 0.00855 0.48618 1.02338
 O638 O 0.03200 0.50177 1.00436
 Zr639 Zr -0.03284 0.50226 0.99072
 O640 O -0.01119 0.51864 0.97048
 Zr641 Zr -0.00803 0.45502 0.98135
 O642 O 0.01474 0.46932 0.96063
 Zr643 Zr 0.01716 0.52836 0.98840
 O644 O -0.00586 0.51426 1.00944
 Zr645 Zr 0.04192 0.48101 0.97919
 O646 O 0.02033 0.46443 0.99963
 Zr647 Zr 0.00062 0.49725 0.94651
 O648 O -0.02320 0.48140 0.96522
 O649 O -0.01921 0.47518 1.00593
 O650 O 0.02863 0.50823 0.96359
 C651 C -0.00260 0.43739 1.02884
 C652 C -0.03782 0.49824 1.04102
 C653 C -0.05914 0.45929 0.98411
 C654 C 0.01254 0.54619 0.94123
 C655 C 0.06781 0.52469 0.98191
 C656 C 0.04682 0.48460 0.92903
 H657 H 0.04461 0.50650 1.01382
 H658 H 0.01920 0.45858 0.94952
 H659 H -0.02979 0.46749 1.01507
 H660 H -0.01907 0.53126 0.96406
 H661 H -0.00880 0.55636 1.00612
 H662 H -0.04114 0.54349 0.99160
 H663 H 0.04988 0.44267 0.96320
 H664 H 0.02231 0.42560 0.98395
 H665 H 0.03505 0.55839 1.01336
 H666 H 0.01528 0.50396 1.06193
 H667 H -0.00234 0.46403 0.92014
 H668 H -0.02632 0.44513 0.94417
 H669 H 0.04391 0.46518 1.03497
 H670 H 0.07035 0.48058 1.01178
 H671 H -0.05776 0.50385 0.95582
 H672 H -0.03302 0.51932 0.93146
 O673 O 0.00301 0.43383 0.51254
 O674 O -0.01692 0.43415 0.47958
 O675 O 0.05805 0.47354 0.50512
 O676 O 0.06399 0.51031 0.49393
 O677 O 0.01733 0.48360 0.56050
 O678 O -0.01747 0.49952 0.56608
 O679 O -0.00117 0.54038 0.45440
 O680 O 0.02999 0.52163 0.44814
 O681 O -0.05365 0.50096 0.45999
 O682 O -0.06221 0.46820 0.47995
 O683 O -0.04063 0.54717 0.50911
 O684 O -0.01470 0.54990 0.54006
 O685 O -0.01031 0.55726 0.48614
 O686 O 0.01232 0.55778 0.52266
 O687 O -0.06275 0.52022 0.49569
 O688 O -0.06810 0.48187 0.50934
 O689 O -0.02314 0.50872 0.44079
 O690 O 0.01261 0.48773 0.43788
 O691 O -0.00692 0.45044 0.54414
 O692 O -0.03720 0.47492 0.55288
 O693 O 0.04757 0.49478 0.54276
 O694 O 0.05489 0.52640 0.52122
 O695 O 0.03644 0.44669 0.49068
 O696 O 0.01064 0.44704 0.45881
 Zr697 Zr 0.00431 0.45949 0.49045
 O698 O -0.01590 0.48096 0.47230
 Zr699 Zr 0.03591 0.49951 0.51028
 O700 O 0.01755 0.52258 0.49205
 Zr701 Zr -0.00832 0.48396 0.53682
 O702 O -0.02842 0.50715 0.52065
 Zr703 Zr 0.00295 0.50800 0.46413
 O704 O 0.02396 0.48561 0.48067
 Zr705 Zr -0.04127 0.49344 0.49151
 O706 O -0.02282 0.46952 0.50882
 Zr707 Zr -0.00911 0.53320 0.51040
 O708 O 0.01037 0.51160 0.52955
 O709 O 0.01808 0.47253 0.51917
 O710 O -0.02323 0.52005 0.48198
 C711 C -0.00201 0.43348 0.53274
 C712 C 0.05526 0.45451 0.49669
 C713 C 0.03776 0.48892 0.56008
 C714 C -0.00727 0.55705 0.46546
 C715 C -0.04401 0.50595 0.44234
 C716 C -0.05940 0.53982 0.50242
 H717 H -0.02167 0.47325 0.45912
 H718 H -0.04016 0.51203 0.53045
 H719 H 0.02746 0.46213 0.52753
 H720 H 0.02714 0.53471 0.48790
 H721 H 0.04272 0.51186 0.45097
 H722 H 0.06403 0.50270 0.47965
 H723 H -0.06943 0.49115 0.52249
 H724 H -0.04550 0.46510 0.54279
 H725 H 0.01009 0.49589 0.42415
 H726 H 0.01672 0.43210 0.46019
 H727 H -0.02662 0.54222 0.54744
 H728 H -0.00981 0.51367 0.56654
 H729 H -0.03082 0.43586 0.48750
 H730 H -0.05452 0.46044 0.46817
 H731 H 0.04612 0.53405 0.53232
 H732 H 0.02178 0.56242 0.51070
 O733 O 0.51372 0.93134 0.01720
 O734 O 0.49824 0.93388 -0.01768
 O735 O 0.57095 0.97097 0.01691
 O736 O 0.57805 1.00823 0.00927
 O737 O 0.52473 0.97838 0.06925
 O738 O 0.48994 0.99449 0.07230
 O739 O 0.51791 1.04182 -0.03332
 O740 O 0.54893 1.02161 -0.03885
 O741 O 0.46355 1.00260 -0.03564
 O742 O 0.45365 0.96771 -0.01896
 O743 O 0.47294 1.04604 0.01275
 O744 O 0.49324 1.04501 0.04969
 O745 O 0.50952 1.05724 -0.00068
 O746 O 0.52239 1.05442 0.03764
 O747 O 0.45116 1.01873 -0.00052
 O748 O 0.44452 0.98005 0.01012
 O749 O 0.49550 1.01222 -0.05147
 O750 O 0.53021 0.98988 -0.05349
 O751 O 0.50166 0.94645 0.04875
 O752 O 0.47105 0.97085 0.05599
 O753 O 0.55686 0.98947 0.05491
 O754 O 0.56651 1.02250 0.03644
 O755 O 0.55036 0.94477 -0.00007
 O756 O 0.52805 0.94769 -0.03439
 Zr757 Zr 0.51843 0.95821 -0.00297
 O758 O 0.50016 0.98101 -0.02163
 Zr759 Zr 0.54836 0.99660 0.02200
 O760 O 0.53189 1.02090 0.00375
 Zr761 Zr 0.50154 0.98031 0.04327
 O762 O 0.48309 1.00455 0.02670
 Zr763 Zr 0.51977 1.00845 -0.02631
 O764 O 0.53902 0.98476 -0.00933
 Zr765 Zr 0.47316 0.99249 -0.00413
 O766 O 0.48972 0.96753 0.01335
 Zr767 Zr 0.50355 1.03097 0.01998
 O768 O 0.52118 1.00807 0.03938
 O769 O 0.52947 0.96938 0.02759
 O770 O 0.49211 1.01967 -0.01030
 C771 C 0.50677 0.92996 0.03676
 C772 C 0.56877 0.95225 0.00763
 C773 C 0.54531 0.98313 0.07093
 C774 C 0.51414 1.05836 -0.02096
 C775 C 0.47447 1.00957 -0.05175
 C776 C 0.45451 1.03862 0.00504
 H777 H 0.49554 0.97434 -0.03576
 H778 H 0.47035 1.00900 0.03539
 H779 H 0.53786 0.95832 0.03609
 H780 H 0.54224 1.03299 0.00148
 H781 H 0.56066 1.01058 -0.03659
 H782 H 0.57897 1.00228 -0.00571
 H783 H 0.44207 0.98832 0.02375
 H784 H 0.46363 0.96166 0.04469
 H785 H 0.52953 0.99938 -0.06647
 H786 H 0.53393 0.93264 -0.03335
 H787 H 0.47805 1.04008 0.05227
 H788 H 0.49620 1.00930 0.07309
 H789 H 0.48333 0.93578 -0.01177
 H790 H 0.46152 0.96214 -0.03177
 H791 H 0.55727 1.02881 0.04796
 H792 H 0.53650 1.05610 0.03015
 O793 O 0.49935 0.45889 -0.04362
 O794 O 0.47027 0.48366 -0.04979
 O795 O 0.55479 0.49845 -0.02618
 O796 O 0.56408 0.52303 -0.00040
 O797 O 0.53837 0.44238 0.01165
 O798 O 0.51245 0.43701 0.04028
 O799 O 0.49816 0.55539 0.03227
 O800 O 0.51939 0.55962 0.00256
 O801 O 0.44207 0.52014 0.01131
 O802 O 0.43592 0.48576 -0.00785
 O803 O 0.47806 0.49977 0.06824
 O804 O 0.51202 0.48149 0.07537
 O805 O 0.50411 0.53305 0.06122
 O806 O 0.53363 0.50475 0.06894
 O807 O 0.44898 0.49470 0.04460
 O808 O 0.44166 0.46581 0.01707
 O809 O 0.46533 0.54835 0.00646
 O810 O 0.49099 0.55080 -0.02406
 O811 O 0.50362 0.43633 -0.01453
 O812 O 0.48488 0.43168 0.01923
 O813 O 0.56182 0.47062 0.00727
 O814 O 0.56601 0.50462 0.02914
 O815 O 0.52556 0.49151 -0.04924
 O816 O 0.49185 0.51372 -0.05351
 Zr817 Zr 0.49820 0.48999 -0.02916
 O818 O 0.47759 0.51033 -0.01097
 Zr819 Zr 0.54102 0.49819 0.00512
 O820 O 0.52209 0.51926 0.02448
 Zr821 Zr 0.50697 0.45713 0.01287
 O822 O 0.48688 0.47629 0.03296
 Zr823 Zr 0.49676 0.53383 0.00559
 O824 O 0.51742 0.51489 -0.01444
 Zr825 Zr 0.46293 0.49266 0.01373
 O826 O 0.48152 0.47154 -0.00615
 Zr827 Zr 0.50552 0.50130 0.04788
 O828 O 0.52640 0.48026 0.02996
 O829 O 0.52283 0.47425 -0.01101
 O830 O 0.48063 0.51717 0.02995
 C831 C 0.50122 0.43990 -0.03513
 C832 C 0.54612 0.49528 -0.04539
 C833 C 0.55776 0.45028 0.00941
 C834 C 0.50146 0.55201 0.05279
 C835 C 0.44592 0.54038 0.00814
 C836 C 0.45735 0.49693 0.06397
 H837 H 0.46655 0.51712 -0.02100
 H838 H 0.48019 0.46681 0.04384
 H839 H 0.53208 0.46492 -0.02031
 H840 H 0.53184 0.53039 0.03128
 H841 H 0.52872 0.55584 -0.00992
 H842 H 0.55741 0.53677 0.00471
 H843 H 0.44721 0.45719 0.02964
 H844 H 0.47155 0.43426 0.00988
 H845 H 0.48673 0.56596 -0.02042
 H846 H 0.49487 0.50725 -0.06801
 H847 H 0.50455 0.46747 0.07253
 H848 H 0.52409 0.44406 0.04948
 H849 H 0.46091 0.47331 -0.04204
 H850 H 0.43724 0.49508 -0.02080
 H851 H 0.56448 0.49367 0.04072
 H852 H 0.54186 0.51763 0.06425
 O853 O -0.07166 0.03145 0.50131
 O854 O -0.07550 -0.00133 0.48334
 O855 O -0.03387 0.01602 0.55971
 O856 O -0.00020 0.00574 0.56972
 O857 O -0.01738 0.07117 0.51762
 O858 O 0.00322 0.07350 0.48568
 O859 O 0.02732 -0.04201 0.50829
 O860 O 0.00430 -0.04428 0.53807
 O861 O -0.00878 -0.03169 0.45262
 O862 O -0.03915 -0.00792 0.44117
 O863 O 0.04355 0.00821 0.46726
 O864 O 0.05020 0.03935 0.49074
 O865 O 0.04981 -0.01382 0.50063
 O866 O 0.05364 0.02358 0.52002
 O867 O 0.01485 0.00005 0.44396
 O868 O -0.02158 0.01928 0.43563
 O869 O -0.00321 -0.05111 0.48367
 O870 O -0.02834 -0.05113 0.51562
 O871 O -0.04979 0.05910 0.49058
 O872 O -0.02159 0.06367 0.46347
 O873 O -0.01027 0.05300 0.54920
 O874 O 0.02200 0.02745 0.55752
 O875 O -0.06277 0.00751 0.53682
 O876 O -0.06635 -0.02357 0.51161
 Zr877 Zr -0.04912 0.00564 0.50570
 O878 O -0.02936 -0.01607 0.48800
 Zr879 Zr -0.00711 0.02005 0.53908
 O880 O 0.01408 -0.00218 0.52351
 Zr881 Zr -0.01721 0.04712 0.49338
 O882 O 0.00456 0.02715 0.47599
 Zr883 Zr -0.00402 -0.02768 0.50885
 O884 O -0.02473 -0.00731 0.52719
 Zr885 Zr -0.01312 0.00044 0.46340
 O886 O -0.03531 0.02154 0.47908
 Zr887 Zr 0.02862 0.01351 0.49736
 O888 O 0.00885 0.03641 0.51413
 O889 O -0.03247 0.03222 0.51921
 O890 O 0.01169 -0.01260 0.48344
 C891 C -0.06873 0.05090 0.49451
 C892 C -0.05411 0.01063 0.55598
 C893 C -0.01432 0.07052 0.53838
 C894 C 0.04628 -0.03409 0.50418
 C895 C -0.00485 -0.04949 0.46280
 C896 C 0.03548 0.00296 0.44834
 H897 H -0.03847 -0.02814 0.48205
 H898 H 0.01128 0.03568 0.46436
 H899 H -0.04257 0.04176 0.52739
 H900 H 0.02521 -0.00791 0.53411
 H901 H -0.00714 -0.04033 0.54862
 H902 H 0.00327 -0.00969 0.56673
 H903 H -0.00994 0.03030 0.43402
 H904 H -0.03273 0.05545 0.45468
 H905 H -0.02127 -0.06568 0.51491
 H906 H -0.08136 -0.01993 0.51661
 H907 H 0.04293 0.04833 0.47931
 H908 H 0.01681 0.07199 0.49493
 H909 H -0.07153 0.00488 0.46916
 H910 H -0.04859 -0.01856 0.44839
 H911 H 0.02869 0.04024 0.55069
 H912 H 0.05570 0.01201 0.53100
 O913 O 0.68815 0.24726 0.25812
 O914 O 0.68913 0.26024 0.22287
 O915 O 0.73039 0.19144 0.25834
 O916 O 0.76845 0.18515 0.25039
 O917 O 0.73657 0.23975 0.30946
 O918 O 0.75319 0.27415 0.31254
 O919 O 0.79885 0.24289 0.20655
 O920 O 0.77977 0.21205 0.20156
 O921 O 0.75396 0.29485 0.20349
 O922 O 0.72192 0.30594 0.22225
 O923 O 0.80209 0.29067 0.25582
 O924 O 0.80439 0.26986 0.28970
 O925 O 0.81502 0.25469 0.23841
 O926 O 0.81424 0.24172 0.27665
 O927 O 0.77479 0.30908 0.23761
 O928 O 0.73578 0.31592 0.25064
 O929 O 0.76676 0.26349 0.18848
 O930 O 0.74614 0.22807 0.18750
 O931 O 0.70414 0.26147 0.28908
 O932 O 0.72847 0.29196 0.29627
 O933 O 0.74873 0.20760 0.29570
 O934 O 0.78305 0.19853 0.27775
 O935 O 0.70263 0.21030 0.24138
 O936 O 0.70385 0.23041 0.20668
 Zr937 Zr 0.71500 0.24190 0.23785
 O938 O 0.73688 0.25952 0.21894
 Zr939 Zr 0.75571 0.21464 0.26286
 O940 O 0.77924 0.23058 0.24414
 Zr941 Zr 0.73825 0.26145 0.28360
 O942 O 0.76167 0.27927 0.26671
 Zr943 Zr 0.76536 0.24079 0.21410
 O944 O 0.74254 0.22201 0.23150
 Zr945 Zr 0.74817 0.28725 0.23594
 O946 O 0.72391 0.27123 0.25372
 Zr947 Zr 0.78901 0.25945 0.26000
 O948 O 0.76694 0.24253 0.27983
 O949 O 0.72760 0.23295 0.26835
 O950 O 0.77641 0.26915 0.22960
 C951 C 0.68721 0.25550 0.27742
 C952 C 0.71102 0.19272 0.24926
 C953 C 0.74155 0.21957 0.31135
 C954 C 0.81582 0.24846 0.21836
 C955 C 0.76079 0.28355 0.18736
 C956 C 0.79428 0.30771 0.24634
 H957 H 0.72919 0.26310 0.20497
 H958 H 0.76594 0.29230 0.27533
 H959 H 0.71670 0.22497 0.27689
 H960 H 0.79184 0.22064 0.24175
 H961 H 0.76969 0.20005 0.20491
 H962 H 0.76175 0.18311 0.23562
 H963 H 0.74593 0.32006 0.26289
 H964 H 0.71900 0.29888 0.28486
 H965 H 0.75509 0.22874 0.17425
 H966 H 0.68886 0.22423 0.20791
 H967 H 0.79605 0.28258 0.29508
 H968 H 0.76748 0.26645 0.31454
 H969 H 0.68978 0.27500 0.22939
 H970 H 0.71403 0.29665 0.21136
 H971 H 0.78917 0.20852 0.28911
 H972 H 0.81644 0.22791 0.26862
 O973 O 0.73988 0.70872 0.72042
 O974 O 0.77378 0.70090 0.73874
 O975 O 0.69518 0.72287 0.77080
 O976 O 0.69493 0.74483 0.80069
 O977 O 0.69956 0.76631 0.71732
 O978 O 0.72570 0.79379 0.70774
 O979 O 0.76426 0.77738 0.82078
 O980 O 0.74533 0.74582 0.82660
 O981 O 0.81168 0.75917 0.77294
 O982 O 0.80879 0.74201 0.73679
 O983 O 0.77386 0.81656 0.76367
 O984 O 0.73439 0.82346 0.75200
 O985 O 0.75631 0.80764 0.80095
 O986 O 0.72311 0.81851 0.78168
 O987 O 0.80025 0.79365 0.75124
 O988 O 0.79950 0.76816 0.71982
 O989 O 0.79525 0.75519 0.80553
 O990 O 0.77207 0.72229 0.81091
 O991 O 0.72932 0.73945 0.70230
 O992 O 0.74925 0.77210 0.69533
 O993 O 0.68361 0.75902 0.74952
 O994 O 0.68777 0.77617 0.78511
 O995 O 0.72177 0.70023 0.75806
 O996 O 0.75972 0.69465 0.77229
 Zr997 Zr 0.74864 0.72056 0.75206
 O998 O 0.77404 0.73737 0.76922
 Zr999 Zr 0.71025 0.75372 0.77157
 O1000 O 0.73407 0.77188 0.78929
 Zr1001 Zr 0.73368 0.76497 0.72481
 O1002 O 0.75866 0.78344 0.74044
 Zr1003 Zr 0.76151 0.75231 0.79725
 O1004 O 0.73655 0.73329 0.78154
 Zr1005 Zr 0.78503 0.76310 0.75035
 O1006 O 0.76115 0.74500 0.73216
 Zr1007 Zr 0.74675 0.79638 0.76963
 O1008 O 0.72078 0.77992 0.75266
 O1009 O 0.72158 0.73978 0.74313
 O1010 O 0.77403 0.77760 0.77894
 C1011 C 0.73249 0.71884 0.70337
 C1012 C 0.70239 0.70395 0.76522
 C1013 C 0.68262 0.76377 0.72916
 C1014 C 0.76168 0.79806 0.81890
 C1015 C 0.81230 0.75699 0.79379
 C1016 C 0.79316 0.81265 0.75635
 H1017 H 0.78613 0.72716 0.77314
 H1018 H 0.76330 0.79487 0.73037
 H1019 H 0.70982 0.73155 0.73523
 H1020 H 0.72730 0.77786 0.80254
 H1021 H 0.73565 0.73317 0.82361
 H1022 H 0.70392 0.75093 0.81298
 H1023 H 0.79217 0.78091 0.71303
 H1024 H 0.76226 0.76236 0.69459
 H1025 H 0.77985 0.72543 0.82504
 H1026 H 0.75484 0.68070 0.76555
 H1027 H 0.74261 0.82436 0.73834
 H1028 H 0.71672 0.80282 0.71759
 H1029 H 0.78055 0.70941 0.72710
 H1030 H 0.80951 0.72872 0.74574
 H1031 H 0.68821 0.78942 0.77612
 H1032 H 0.71537 0.81122 0.79352
 O1033 O 0.24417 0.30620 0.73771
 O1034 O 0.27657 0.30365 0.75857
 O1035 O 0.25206 0.26250 0.68456
 O1036 O 0.26004 0.22731 0.67979
 O1037 O 0.19202 0.25999 0.72123
 O1038 O 0.18305 0.24727 0.75566
 O1039 O 0.29246 0.19440 0.74783
 O1040 O 0.30312 0.21268 0.71719
 O1041 O 0.28766 0.23922 0.79867
 O1042 O 0.26868 0.27390 0.80382
 O1043 O 0.23646 0.19543 0.78491
 O1044 O 0.20510 0.19488 0.75822
 O1045 O 0.25829 0.18068 0.75326
 O1046 O 0.22190 0.18367 0.73262
 O1047 O 0.25175 0.22254 0.80563
 O1048 O 0.23813 0.26172 0.80882
 O1049 O 0.30729 0.22471 0.77103
 O1050 O 0.31603 0.24431 0.73702
 O1051 O 0.21004 0.29348 0.74507
 O1052 O 0.19722 0.27161 0.77513
 O1053 O 0.21164 0.24614 0.69328
 O1054 O 0.23098 0.21115 0.68977
 O1055 O 0.26644 0.28952 0.70598
 O1056 O 0.29743 0.28713 0.73281
 Zr1057 Zr 0.26416 0.27843 0.73799
 O1058 O 0.27937 0.25661 0.75990
 Zr1059 Zr 0.24291 0.23874 0.70718
 O1060 O 0.25789 0.21506 0.72745
 Zr1061 Zr 0.21441 0.25940 0.74810
 O1062 O 0.22754 0.23605 0.77003
 Zr1063 Zr 0.28635 0.22762 0.74321
 O1064 O 0.27309 0.25027 0.72054
 Zr1065 Zr 0.25725 0.24783 0.78387
 O1066 O 0.24294 0.27200 0.76365
 Zr1067 Zr 0.23676 0.20779 0.75293
 O1068 O 0.22077 0.23004 0.73141
 O1069 O 0.23495 0.26752 0.72299
 O1070 O 0.26566 0.21902 0.76813
 C1071 C 0.22356 0.30900 0.74116
 C1072 C 0.26126 0.28117 0.68729
 C1073 C 0.19373 0.25355 0.70134
 C1074 C 0.27930 0.17860 0.75137
 C1075 C 0.30507 0.23033 0.79109
 C1076 C 0.24388 0.20335 0.80313
 H1077 H 0.29294 0.26330 0.76622
 H1078 H 0.21673 0.23285 0.78129
 H1079 H 0.22802 0.27816 0.71286
 H1080 H 0.26152 0.20206 0.71865
 H1081 H 0.30315 0.22336 0.70522
 H1082 H 0.27179 0.21747 0.68540
 H1083 H 0.22512 0.25241 0.81079
 H1084 H 0.20789 0.28041 0.78392
 H1085 H 0.32854 0.23421 0.73998
 H1086 H 0.29772 0.30183 0.72630
 H1087 H 0.19850 0.20326 0.77025
 H1088 H 0.18243 0.23229 0.74969
 H1089 H 0.26749 0.30391 0.77172
 H1090 H 0.28239 0.27937 0.79751
 H1091 H 0.21725 0.20666 0.69678
 H1092 H 0.23260 0.17949 0.72144
 O1093 O 0.19788 0.79399 0.24205
 O1094 O 0.19215 0.77354 0.20987
 O1095 O 0.19317 0.74946 0.29384
 O1096 O 0.20923 0.71862 0.30493
 O1097 O 0.24908 0.79304 0.29142
 O1098 O 0.28212 0.79266 0.27126
 O1099 O 0.24639 0.68123 0.24425
 O1100 O 0.21195 0.68432 0.25899
 O1101 O 0.24775 0.72232 0.19061
 O1102 O 0.23941 0.75980 0.18387
 O1103 O 0.29943 0.72559 0.23835
 O1104 O 0.30343 0.74086 0.27481
 O1105 O 0.27884 0.69496 0.25765
 O1106 O 0.28731 0.71801 0.29075
 O1107 O 0.28472 0.73841 0.20647
 O1108 O 0.26625 0.77396 0.19725
 O1109 O 0.23059 0.69585 0.20917
 O1110 O 0.19480 0.70072 0.22735
 O1111 O 0.23116 0.80768 0.25353
 O1112 O 0.26861 0.80405 0.24203
 O1113 O 0.23065 0.76707 0.30960
 O1114 O 0.24226 0.72856 0.31442
 O1115 O 0.17829 0.76195 0.26181
 O1116 O 0.17609 0.74440 0.22577
 Zr1117 Zr 0.20415 0.76034 0.23977
 O1118 O 0.22076 0.73669 0.22135
 Zr1119 Zr 0.22602 0.74183 0.28650
 O1120 O 0.24306 0.71704 0.26995
 Zr1121 Zr 0.25147 0.78037 0.25953
 O1122 O 0.27003 0.75735 0.24219
 Zr1123 Zr 0.22647 0.70904 0.24049
 O1124 O 0.20780 0.73182 0.25840
 Zr1125 Zr 0.25230 0.74758 0.21381
 O1126 O 0.23471 0.77245 0.23003
 Zr1127 Zr 0.27373 0.72876 0.26047
 O1128 O 0.25767 0.75300 0.27913
 O1129 O 0.22062 0.76980 0.26852
 O1130 O 0.25765 0.71922 0.23149
 C1131 C 0.21085 0.80983 0.24721
 C1132 C 0.17697 0.75677 0.28197
 C1133 C 0.24033 0.78555 0.30865
 C1134 C 0.26652 0.67907 0.25116
 C1135 C 0.23884 0.70346 0.19178
 C1136 C 0.30079 0.73062 0.21814
 H1137 H 0.21177 0.73312 0.20809
 H1138 H 0.28439 0.76386 0.23887
 H1139 H 0.21224 0.78083 0.27676
 H1140 H 0.24463 0.70414 0.27937
 H1141 H 0.19893 0.69095 0.26587
 H1142 H 0.21216 0.70426 0.29825
 H1143 H 0.27998 0.77816 0.20530
 H1144 H 0.26149 0.80467 0.22730
 H1145 H 0.19534 0.68536 0.22238
 H1146 H 0.16314 0.75428 0.22658
 H1147 H 0.30739 0.75406 0.26676
 H1148 H 0.28757 0.78254 0.28270
 H1149 H 0.20442 0.78175 0.20362
 H1150 H 0.22367 0.75574 0.18269
 H1151 H 0.25664 0.73600 0.31615
 H1152 H 0.27737 0.70688 0.29648
 O1153 O 0.19185 0.75155 0.75727
 O1154 O 0.19408 0.76774 0.72346
 O1155 O 0.23575 0.69776 0.75600
 O1156 O 0.27480 0.69352 0.74893
 O1157 O 0.23924 0.74262 0.81077
 O1158 O 0.25296 0.77807 0.81622
 O1159 O 0.30489 0.75524 0.71131
 O1160 O 0.28771 0.72359 0.70378
 O1161 O 0.26071 0.80559 0.70953
 O1162 O 0.22499 0.81336 0.72613
 O1163 O 0.30428 0.79954 0.76303
 O1164 O 0.30510 0.77664 0.79620
 O1165 O 0.31926 0.76529 0.74457
 O1166 O 0.31723 0.74996 0.78175
 O1167 O 0.27674 0.81831 0.74560
 O1168 O 0.23708 0.82292 0.75576
 O1169 O 0.27298 0.77484 0.69285
 O1170 O 0.25385 0.73888 0.68896
 O1171 O 0.20557 0.76362 0.79012
 O1172 O 0.22765 0.79504 0.80002
 O1173 O 0.25313 0.71199 0.79529
 O1174 O 0.28723 0.70458 0.77800
 O1175 O 0.20843 0.71692 0.73870
 O1176 O 0.21043 0.73945 0.70580
 Zr1177 Zr 0.21984 0.74901 0.73812
 O1178 O 0.24202 0.76848 0.72139
 Zr1179 Zr 0.26029 0.72135 0.76318
 O1180 O 0.28418 0.73941 0.74699
 Zr1181 Zr 0.23999 0.76604 0.78612
 O1182 O 0.26351 0.78592 0.77150
 Zr1183 Zr 0.27128 0.75088 0.71705
 O1184 O 0.24826 0.73033 0.73189
 Zr1185 Zr 0.25141 0.79545 0.74058
 O1186 O 0.22694 0.77746 0.75625
 Zr1187 Zr 0.29200 0.76765 0.76504
 O1188 O 0.26962 0.74852 0.78242
 O1189 O 0.23126 0.73825 0.76854
 O1190 O 0.28049 0.77861 0.73475
 C1191 C 0.18951 0.75778 0.77714
 C1192 C 0.21687 0.69910 0.74586
 C1193 C 0.24554 0.72267 0.81162
 C1194 C 0.32108 0.76071 0.72419
 C1195 C 0.26834 0.79523 0.69309
 C1196 C 0.29612 0.81697 0.75456
 H1197 H 0.23509 0.77271 0.70723
 H1198 H 0.26685 0.79853 0.78109
 H1199 H 0.22048 0.72920 0.77613
 H1200 H 0.29730 0.73016 0.74465
 H1201 H 0.27798 0.71098 0.70574
 H1202 H 0.26786 0.69166 0.73424
 H1203 H 0.24520 0.82559 0.76975
 H1204 H 0.21868 0.80230 0.78842
 H1205 H 0.26345 0.74047 0.67626
 H1206 H 0.19549 0.73295 0.70588
 H1207 H 0.29695 0.78964 0.80119
 H1208 H 0.26776 0.77140 0.81826
 H1209 H 0.19442 0.78218 0.73068
 H1210 H 0.21967 0.80526 0.71301
 H1211 H 0.29359 0.71444 0.78935
 H1212 H 0.32049 0.73684 0.77296
 O1213 O 0.24921 0.19816 0.20904
 O1214 O 0.28088 0.19096 0.23003
 O1215 O 0.19837 0.20782 0.25464
 O1216 O 0.19242 0.22934 0.28392
 O1217 O 0.20622 0.25215 0.20250
 O1218 O 0.23028 0.28281 0.19791
 O1219 O 0.26072 0.26210 0.31285
 O1220 O 0.24048 0.23084 0.31561
 O1221 O 0.31168 0.25088 0.27103
 O1222 O 0.31445 0.23497 0.23426
 O1223 O 0.27176 0.30599 0.25993
 O1224 O 0.23571 0.31285 0.24655
 O1225 O 0.25144 0.29332 0.29514
 O1226 O 0.21737 0.30193 0.27089
 O1227 O 0.30056 0.28511 0.24926
 O1228 O 0.30482 0.26082 0.21692
 O1229 O 0.29216 0.24067 0.30021
 O1230 O 0.26883 0.20777 0.30135
 O1231 O 0.24141 0.22925 0.19032
 O1232 O 0.25762 0.26483 0.18777
 O1233 O 0.18738 0.24227 0.23239
 O1234 O 0.18664 0.26082 0.26857
 O1235 O 0.22712 0.18712 0.24326
 O1236 O 0.26383 0.18286 0.26171
 Zr1237 Zr 0.25361 0.20901 0.24138
 O1238 O 0.27624 0.22616 0.26152
 Zr1239 Zr 0.21142 0.23938 0.25749
 O1240 O 0.23222 0.25741 0.27883
 Zr1241 Zr 0.23934 0.25390 0.21433
 O1242 O 0.26113 0.27297 0.23377
 Zr1243 Zr 0.25957 0.23847 0.28838
 O1244 O 0.23727 0.21942 0.26947
 Zr1245 Zr 0.28761 0.25368 0.24551
 O1246 O 0.26696 0.23510 0.22413
 Zr1247 Zr 0.24555 0.28372 0.26215
 O1248 O 0.22268 0.26697 0.24114
 O1249 O 0.22680 0.22726 0.23014
 O1250 O 0.27263 0.26562 0.27329
 C1251 C 0.24506 0.20864 0.19134
 C1252 C 0.20694 0.18960 0.24874
 C1253 C 0.18847 0.24684 0.21208
 C1254 C 0.25710 0.28263 0.31245
 C1255 C 0.31025 0.24558 0.29120
 C1256 C 0.29194 0.30349 0.25441
 H1257 H 0.28843 0.21635 0.26621
 H1258 H 0.26614 0.28523 0.22492
 H1259 H 0.21689 0.21840 0.22058
 H1260 H 0.22390 0.26223 0.29164
 H1261 H 0.23129 0.21820 0.31123
 H1262 H 0.20006 0.23446 0.29746
 H1263 H 0.29818 0.27411 0.21051
 H1264 H 0.27144 0.25620 0.18786
 H1265 H 0.27475 0.21009 0.31645
 H1266 H 0.26016 0.16898 0.25413
 H1267 H 0.24054 0.31178 0.23131
 H1268 H 0.21936 0.29032 0.20706
 H1269 H 0.28935 0.20084 0.22082
 H1270 H 0.31513 0.22137 0.24272
 H1271 H 0.18637 0.27347 0.25871
 H1272 H 0.21179 0.29581 0.28452
 O1273 O 0.78877 0.68486 0.24636
 O1274 O 0.79614 0.70285 0.21393
 O1275 O 0.79493 0.73455 0.29553
 O1276 O 0.77945 0.76717 0.30217
 O1277 O 0.73793 0.69215 0.29374
 O1278 O 0.70496 0.69075 0.27141
 O1279 O 0.74309 0.79802 0.23719
 O1280 O 0.77739 0.79589 0.25381
 O1281 O 0.74117 0.75115 0.18702
 O1282 O 0.74994 0.71185 0.18516
 O1283 O 0.68894 0.75341 0.23044
 O1284 O 0.68493 0.74187 0.26881
 O1285 O 0.71013 0.78629 0.24923
 O1286 O 0.69993 0.76746 0.28236
 O1287 O 0.70471 0.73787 0.20096
 O1288 O 0.72117 0.70144 0.19626
 O1289 O 0.75821 0.77959 0.20411
 O1290 O 0.79403 0.77622 0.22455
 O1291 O 0.75583 0.67291 0.25841
 O1292 O 0.71856 0.67569 0.24440
 O1293 O 0.75655 0.71991 0.31048
 O1294 O 0.74633 0.75859 0.31109
 O1295 O 0.80873 0.71666 0.26627
 O1296 O 0.81251 0.73272 0.22987
 Zr1297 Zr 0.78369 0.71830 0.24207
 O1298 O 0.76780 0.74003 0.22046
 Zr1299 Zr 0.76212 0.74211 0.28537
 O1300 O 0.74529 0.76495 0.26549
 Zr1301 Zr 0.73594 0.70108 0.26059
 O1302 O 0.71795 0.72217 0.23973
 Zr1303 Zr 0.76233 0.76963 0.23665
 O1304 O 0.78063 0.74874 0.25773
 Zr1305 Zr 0.73627 0.72854 0.21196
 O1306 O 0.75307 0.70540 0.23162
 Zr1307 Zr 0.71440 0.75270 0.25490
 O1308 O 0.73021 0.73070 0.27695
 O1309 O 0.76692 0.71217 0.27045
 O1310 O 0.73109 0.75881 0.22644
 C1311 C 0.77583 0.66977 0.25253
 C1312 C 0.81040 0.72415 0.28585
 C1313 C 0.74654 0.70157 0.31076
 C1314 C 0.72306 0.80131 0.24276
 C1315 C 0.74995 0.77010 0.18703
 C1316 C 0.68842 0.74689 0.21041
 H1317 H 0.77698 0.74205 0.20758
 H1318 H 0.70354 0.71553 0.23592
 H1319 H 0.77484 0.70176 0.28014
 H1320 H 0.74384 0.77877 0.27367
 H1321 H 0.79036 0.78981 0.26190
 H1322 H 0.77604 0.78084 0.29441
 H1323 H 0.70787 0.69777 0.20438
 H1324 H 0.72534 0.67378 0.23001
 H1325 H 0.79368 0.79102 0.21829
 H1326 H 0.82518 0.72267 0.23235
 H1327 H 0.68006 0.72872 0.26067
 H1328 H 0.69968 0.70222 0.28144
 H1329 H 0.78385 0.69443 0.20713
 H1330 H 0.76451 0.71829 0.18246
 H1331 H 0.73145 0.75220 0.31209
 H1332 H 0.71099 0.77732 0.28922
 O1333 O 0.69191 0.23522 0.79482
 O1334 O 0.70944 0.20241 0.79506
 O1335 O 0.74420 0.28154 0.80540
 O1336 O 0.77567 0.29032 0.78912
 O1337 O 0.69460 0.29299 0.75520
 O1338 O 0.68838 0.27869 0.71945
 O1339 O 0.79982 0.23231 0.73976
 O1340 O 0.80248 0.24151 0.77594
 O1341 O 0.74997 0.18586 0.73191
 O1342 O 0.71109 0.18402 0.74279
 O1343 O 0.74994 0.23962 0.69025
 O1344 O 0.73981 0.27683 0.69282
 O1345 O 0.78534 0.25178 0.71136
 O1346 O 0.76511 0.28882 0.71144
 O1347 O 0.73496 0.20774 0.70080
 O1348 O 0.69833 0.20202 0.71805
 O1349 O 0.78138 0.19814 0.74880
 O1350 O 0.78302 0.21023 0.78785
 O1351 O 0.67623 0.25520 0.76723
 O1352 O 0.67449 0.24892 0.72787
 O1353 O 0.72571 0.30415 0.77358
 O1354 O 0.76378 0.30575 0.75958
 O1355 O 0.72802 0.25008 0.81553
 O1356 O 0.74246 0.21271 0.80990
 Zr1357 Zr 0.72484 0.23178 0.78644
 O1358 O 0.74357 0.21322 0.76484
 Zr1359 Zr 0.74786 0.27797 0.77157
 O1360 O 0.76839 0.26125 0.74992
 Zr1361 Zr 0.70232 0.26078 0.74573
 O1362 O 0.72090 0.24379 0.72236
 Zr1363 Zr 0.77343 0.22923 0.76041
 O1364 O 0.75563 0.24690 0.78377
 Zr1365 Zr 0.72806 0.21238 0.73381
 O1366 O 0.70773 0.22865 0.75615
 Zr1367 Zr 0.75208 0.25815 0.71935
 O1368 O 0.73218 0.27700 0.74046
 O1369 O 0.71770 0.26327 0.77633
 O1370 O 0.75864 0.22657 0.72940
 C1371 C 0.67535 0.24446 0.78516
 C1372 C 0.73612 0.26895 0.81971
 C1373 C 0.70588 0.30716 0.76625
 C1374 C 0.80135 0.24164 0.72126
 C1375 C 0.77013 0.18348 0.73853
 C1376 C 0.74334 0.22010 0.68657
 H1377 H 0.74599 0.19852 0.77088
 H1378 H 0.71263 0.24344 0.70823
 H1379 H 0.70854 0.27121 0.78689
 H1380 H 0.78256 0.26899 0.74898
 H1381 H 0.79820 0.24699 0.79046
 H1382 H 0.78866 0.28217 0.78404
 H1383 H 0.69478 0.21218 0.70603
 H1384 H 0.67269 0.23360 0.73220
 H1385 H 0.79743 0.20332 0.78482
 H1386 H 0.73460 0.21326 0.82387
 H1387 H 0.72410 0.27301 0.69044
 H1388 H 0.69990 0.28890 0.71492
 H1389 H 0.70035 0.19770 0.78222
 H1390 H 0.71902 0.17776 0.75561
 H1391 H 0.75487 0.31082 0.74680
 H1392 H 0.77924 0.29062 0.71973
 C1393 C 0.10804 1.02071 1.17252
 C1394 C 0.09531 1.01758 1.15326
 C1395 C 0.07407 1.00838 1.15423
 C1396 C 0.06614 1.00198 1.17436
 C1397 C 0.07919 1.00443 1.19336
 C1398 C 0.10033 1.01391 1.19285
 C1399 C 0.06120 1.00544 1.13503
 C1400 C 0.06963 1.01090 1.11476
 C1401 C 0.09118 1.01945 1.11373
 C1402 C 0.10373 1.02306 1.13299
 C1403 C 0.09993 1.02406 1.09339
 C1404 C 0.08748 1.02021 1.07425
 C1405 C 0.06589 1.01215 1.07512
 C1406 C 0.05698 1.00765 1.09545
 H1407 H 0.12448 1.02733 1.17136
 H1408 H 0.04988 0.99494 1.17542
 H1409 H 0.07218 0.99961 1.20860
 H1410 H 0.04481 0.99858 1.13584
 H1411 H 0.12017 1.02981 1.13216
 H1412 H 0.11644 1.03053 1.09229
 H1413 H 0.09458 1.02393 1.05872
 H1414 H 0.04040 1.00124 1.09619
 C1415 C 0.60452 0.51760 0.68411
 C1416 C 0.59244 0.51810 0.66417
 C1417 C 0.57631 0.53450 0.66061
 C1418 C 0.57297 0.55041 0.67669
 C1419 C 0.58533 0.55002 0.69625
 C1420 C 0.60100 0.53356 0.70022
 C1421 C 0.56370 0.53473 0.64109
 C1422 C 0.56716 0.51897 0.62490
 C1423 C 0.58374 0.50297 0.62803
 C1424 C 0.59618 0.50253 0.64774
 C1425 C 0.58744 0.48765 0.61139
 C1426 C 0.57458 0.48796 0.59201
 C1427 C 0.55759 0.50336 0.58914
 C1428 C 0.55415 0.51893 0.60563
 H1429 H 0.61677 0.50499 0.68705
 H1430 H 0.56077 0.56314 0.67416
 H1431 H 0.58237 0.56239 0.70853
 H1432 H 0.55114 0.54716 0.63853
 H1433 H 0.60871 0.49009 0.65031
 H1434 H 0.60017 0.47535 0.61341
 H1435 H 0.57753 0.47582 0.57952
 H1436 H 0.54128 0.53107 0.60347
 C1437 C 0.39501 -0.00600 0.66079
 C1438 C 0.40660 -0.00106 0.64191
 C1439 C 0.42980 0.00138 0.64334
 C1440 C 0.44091 -0.00059 0.66361
 C1441 C 0.42924 -0.00506 0.68231
 C1442 C 0.40629 -0.00799 0.68107
 C1443 C 0.44156 0.00562 0.62450
 C1444 C 0.43047 0.00769 0.60421
 C1445 C 0.40724 0.00594 0.60281
 C1446 C 0.39544 0.00148 0.62165
 C1447 C 0.39625 0.00838 0.58250
 C1448 C 0.40820 0.01179 0.56366
 C1449 C 0.43138 0.01276 0.56473
 C1450 C 0.44234 0.01107 0.58523
 H1451 H 0.37726 -0.00805 0.65981
 H1452 H 0.45866 0.00131 0.66500
 H1453 H 0.43819 -0.00659 0.69778
 H1454 H 0.45938 0.00716 0.62561
 H1455 H 0.37764 -0.00017 0.62052
 H1456 H 0.37844 0.00722 0.58112
 H1457 H 0.39930 0.01290 0.54812
 H1458 H 0.46020 0.01189 0.58638
 C1459 C -0.09919 0.48213 1.15159
 C1460 C -0.08556 0.48665 1.13404
 C1461 C -0.06254 0.48885 1.13782
 C1462 C -0.05362 0.48712 1.15909
 C1463 C -0.06732 0.48306 1.17647
 C1464 C -0.09011 0.48032 1.17286
 C1465 C -0.04875 0.49257 1.12028
 C1466 C -0.05767 0.49432 1.09899
 C1467 C -0.08074 0.49287 1.09527
 C1468 C -0.09455 0.48896 1.11280
 C1469 C -0.08957 0.49499 1.07399
 C1470 C -0.07565 0.49776 1.05646
 C1471 C -0.05261 0.49835 1.05986
 C1472 C -0.04379 0.49703 1.08130
 H1473 H -0.11682 0.48023 1.14881
 H1474 H -0.03604 0.48886 1.16228
 H1475 H -0.06006 0.48167 1.19277
 H1476 H -0.03107 0.49389 1.12318
 H1477 H -0.11221 0.48752 1.10989
 H1478 H -0.10722 0.49405 1.07083
 H1479 H -0.08292 0.49862 1.04014
 H1480 H -0.02608 0.49759 1.08420
 C1481 C -0.10062 0.51143 0.32503
 C1482 C -0.08867 0.50772 0.34459
 C1483 C -0.06923 0.49501 0.34440
 C1484 C -0.06267 0.48538 0.32483
 C1485 C -0.07485 0.48883 0.30545
 C1486 C -0.09368 0.50244 0.30504
 C1487 C -0.05657 0.49227 0.36372
 C1488 C -0.06340 0.50174 0.38332
 C1489 C -0.08341 0.51363 0.38371
 C1490 C -0.09582 0.51670 0.36431
 C1491 C -0.09060 0.52234 0.40353
 C1492 C -0.07797 0.51948 0.42275
 C1493 C -0.05774 0.50835 0.42231
 C1494 C -0.05053 0.49948 0.40256
 H1495 H -0.11565 0.52099 0.32560
 H1496 H -0.04787 0.47545 0.32443
 H1497 H -0.06855 0.48184 0.29061
 H1498 H -0.04142 0.48283 0.36349
 H1499 H -0.11096 0.52618 0.36453
 H1500 H -0.10597 0.53136 0.40415
 H1501 H -0.08373 0.52638 0.43788
 H1502 H -0.03504 0.49059 0.40228
 C1503 C 0.41289 1.02370 -0.16614
 C1504 C 0.42644 1.01945 -0.14768
 C1505 C 0.44492 1.00557 -0.14947
 C1506 C 0.44916 0.99574 -0.16962
 C1507 C 0.43543 0.99978 -0.18790
 C1508 C 0.41722 1.01414 -0.18667
 C1509 C 0.45874 1.00165 -0.13108
 C1510 C 0.45394 1.01103 -0.11077
 C1511 C 0.43505 1.02446 -0.10891
 C1512 C 0.42160 1.02878 -0.12740
 C1513 C 0.42971 1.03313 -0.08851
 C1514 C 0.44273 1.02829 -0.07001
 C1515 C 0.46164 1.01521 -0.07168
 C1516 C 0.46740 1.00684 -0.09215
 H1517 H 0.39848 1.03391 -0.16413
 H1518 H 0.46325 0.98501 -0.17131
 H1519 H 0.43995 0.99240 -0.20322
 H1520 H 0.47303 0.99111 -0.13251
 H1521 H 0.40725 1.03923 -0.12594
 H1522 H 0.41526 1.04337 -0.08678
 H1523 H 0.43809 1.03485 -0.05432
 H1524 H 0.48184 0.99648 -0.09339
 C1525 C 0.60409 0.48878 -0.15941
 C1526 C 0.59145 0.48834 -0.14052
 C1527 C 0.57056 0.47815 -0.14136
 C1528 C 0.56277 0.46841 -0.16082
 C1529 C 0.57559 0.46856 -0.17931
 C1530 C 0.59623 0.47872 -0.17878
 C1531 C 0.55779 0.47766 -0.12271
 C1532 C 0.56567 0.48695 -0.10307
 C1533 C 0.58664 0.49686 -0.10196
 C1534 C 0.59937 0.49763 -0.12076
 C1535 C 0.59445 0.50576 -0.08203
 C1536 C 0.58153 0.50502 -0.06346
 C1537 C 0.56048 0.49554 -0.06457
 C1538 C 0.55279 0.48643 -0.08449
 H1539 H 0.62015 0.49645 -0.15899
 H1540 H 0.54685 0.46049 -0.16169
 H1541 H 0.56941 0.46071 -0.19413
 H1542 H 0.54175 0.46993 -0.12347
 H1543 H 0.61543 0.50530 -0.11999
 H1544 H 0.61052 0.51336 -0.08081
 H1545 H 0.58786 0.51216 -0.04834
 H1546 H 0.53671 0.47881 -0.08559
 C1547 C 0.09928 -0.01893 0.33985
 C1548 C 0.08562 -0.01334 0.35716
 C1549 C 0.06401 -0.00546 0.35261
 C1550 C 0.05664 -0.00275 0.33091
 C1551 C 0.07048 -0.00794 0.31384
 C1552 C 0.09176 -0.01622 0.31817
 C1553 C 0.05008 -0.00043 0.36978
 C1554 C 0.05755 -0.00287 0.39148
 C1555 C 0.07935 -0.01012 0.39609
 C1556 C 0.09321 -0.01547 0.37889
 C1557 C 0.08685 -0.01202 0.41786
 C1558 C 0.07277 -0.00713 0.43489
 C1559 C 0.05089 -0.00050 0.43043
 C1560 C 0.04345 0.00173 0.40864
 H1561 H 0.11579 -0.02516 0.34318
 H1562 H 0.04018 0.00336 0.32715
 H1563 H 0.06447 -0.00584 0.29717
 H1564 H 0.03342 0.00535 0.36626
 H1565 H 0.10984 -0.02130 0.38241
 H1566 H 0.10353 -0.01748 0.42172
 H1567 H 0.07881 -0.00912 0.45157
 H1568 H 0.02665 0.00699 0.40505
 C1569 C 0.18603 1.10882 0.99781
 C1570 C 0.16465 1.10026 0.99770
 C1571 C 0.14682 1.11323 1.00461
 C1572 C 0.15073 1.13462 1.01151
 C1573 C 0.17221 1.14273 1.01256
 C1574 C 0.19028 1.12987 1.00605
 C1575 C 0.12554 1.10437 1.00519
 C1576 C 0.12210 1.08241 0.99989
 C1577 C 0.14013 1.06942 0.99334
 C1578 C 0.16111 1.07852 0.99184
 C1579 C 0.13705 1.04733 0.98886
 C1580 C 0.11639 1.03805 0.99107
 C1581 C 0.09825 1.05072 0.99739
 C1582 C 0.10110 1.07303 1.00151
 H1583 H 0.19953 1.09827 0.99326
 H1584 H 0.13727 1.14489 1.01673
 H1585 H 0.17454 1.15929 1.01822
 H1586 H 0.11185 1.11435 1.01047
 H1587 H 0.17485 1.06846 0.98682
 H1588 H 0.15068 1.03716 0.98387
 H1589 H 0.11453 1.02089 0.98748
 H1590 H 0.08720 1.08287 1.00644
 C1591 C 0.67425 0.60173 0.51604
 C1592 C 0.65281 0.59337 0.51468
 C1593 C 0.63455 0.60724 0.51827
 C1594 C 0.63813 0.62928 0.52309
 C1595 C 0.65961 0.63730 0.52512
 C1596 C 0.67774 0.62354 0.52173
 C1597 C 0.61314 0.59871 0.51767
 C1598 C 0.60984 0.57639 0.51425
 C1599 C 0.62817 0.56256 0.51084
 C1600 C 0.64947 0.57119 0.51072
 C1601 C 0.62496 0.54020 0.50805
 C1602 C 0.60383 0.53152 0.50891
 C1603 C 0.58546 0.54505 0.51224
 C1604 C 0.58856 0.56756 0.51467
 H1605 H 0.68831 0.59104 0.51383
 H1606 H 0.62436 0.64014 0.52596
 H1607 H 0.66215 0.65416 0.52969
 H1608 H 0.59913 0.60932 0.52047
 H1609 H 0.66350 0.56054 0.50818
 H1610 H 0.63882 0.52939 0.50545
 H1611 H 0.60186 0.51415 0.50678
 H1612 H 0.57451 0.57812 0.51737
 C1613 C 0.66937 0.38670 -0.00772
 C1614 C 0.65145 0.39930 -0.00093
 C1615 C 0.65521 0.41807 0.01202
 C1616 C 0.67681 0.42305 0.01913
 C1617 C 0.69460 0.41006 0.01279
 C1618 C 0.69129 0.39215 -0.00145
 C1619 C 0.63737 0.43163 0.01735
 C1620 C 0.61577 0.42634 0.01026
 C1621 C 0.61197 0.40679 -0.00152
 C1622 C 0.62981 0.39351 -0.00718
 C1623 C 0.59039 0.40100 -0.00786
 C1624 C 0.57274 0.41478 -0.00327
 C1625 C 0.57635 0.43479 0.00740
 C1626 C 0.59793 0.44040 0.01438
 H1627 H 0.66609 0.37234 -0.01762
 H1628 H 0.68002 0.43724 0.02930
 H1629 H 0.71105 0.41504 0.01794
 H1630 H 0.64032 0.44638 0.02678
 H1631 H 0.62688 0.37884 -0.01674
 H1632 H 0.58718 0.38599 -0.01673
 H1633 H 0.55630 0.41019 -0.00894
 H1634 H 0.60082 0.45574 0.02277
 C1635 C 0.15540 -0.10201 0.48510
 C1636 C 0.13835 -0.08733 0.48990
 C1637 C 0.14335 -0.06529 0.49440
 C1638 C 0.16540 -0.05848 0.49462
 C1639 C 0.18229 -0.07330 0.49023
 C1640 C 0.17743 -0.09509 0.48521
 C1641 C 0.12625 -0.05044 0.49853
 C1642 C 0.10423 -0.05741 0.49854
 C1643 C 0.09938 -0.07959 0.49469
 C1644 C 0.11642 -0.09435 0.49026
 C1645 C 0.07751 -0.08667 0.49514
 C1646 C 0.06049 -0.07191 0.49897
 C1647 C 0.06491 -0.04967 0.50226
 C1648 C 0.08694 -0.04255 0.50214
 H1649 H 0.15159 -0.11887 0.48145
 H1650 H 0.16957 -0.04170 0.49813
 H1651 H 0.19919 -0.06766 0.49032
 H1652 H 0.13007 -0.03348 0.50167
 H1653 H 0.11259 -0.11129 0.48703
 H1654 H 0.07351 -0.10361 0.49228
 H1655 H 0.04372 -0.07789 0.49872
 H1656 H 0.09061 -0.02549 0.50466
 C1657 C 0.31219 -0.09559 0.49967
 C1658 C 0.33297 -0.08598 0.49750
 C1659 C 0.35226 -0.09750 0.50399
 C1660 C 0.35048 -0.11831 0.51268
 C1661 C 0.32979 -0.12744 0.51555
 C1662 C 0.31025 -0.11623 0.50928
 C1663 C 0.37302 -0.08788 0.50216
 C1664 C 0.37471 -0.06652 0.49470
 C1665 C 0.35540 -0.05479 0.48860
 C1666 C 0.33469 -0.06472 0.48968
 C1667 C 0.35711 -0.03316 0.48195
 C1668 C 0.37772 -0.02315 0.48160
 C1669 C 0.39701 -0.03473 0.48744
 C1670 C 0.39539 -0.05653 0.49376
 H1671 H 0.29756 -0.08626 0.49522
 H1672 H 0.36511 -0.12743 0.51762
 H1673 H 0.32925 -0.14366 0.52217
 H1674 H 0.38780 -0.09680 0.50709
 H1675 H 0.31990 -0.05572 0.48495
 H1676 H 0.34250 -0.02389 0.47730
 H1677 H 0.37860 -0.00636 0.47659
 H1678 H 0.41017 -0.06550 0.49855
 C1679 C -0.16803 0.39135 0.99460
 C1680 C -0.14715 0.39983 0.99060
 C1681 C -0.12839 0.38606 0.99131
 C1682 C -0.13100 0.36386 0.99532
 C1683 C -0.15184 0.35560 0.99958
 C1684 C -0.17045 0.36934 0.99974
 C1685 C -0.10731 0.39484 0.98876
 C1686 C -0.10476 0.41728 0.98594
 C1687 C -0.12364 0.43089 0.98476
 C1688 C -0.14468 0.42206 0.98686
 C1689 C -0.12117 0.45327 0.98214
 C1690 C -0.10019 0.46227 0.98145
 C1691 C -0.08120 0.44907 0.98320
 C1692 C -0.08363 0.42645 0.98498
 H1693 H -0.18222 0.40215 0.99493
 H1694 H -0.11686 0.35301 0.99578
 H1695 H -0.15336 0.33850 1.00324
 H1696 H -0.09289 0.38434 0.98965
 H1697 H -0.15908 0.43261 0.98629
 H1698 H -0.13547 0.46390 0.98110
 H1699 H -0.09888 0.47971 0.97981
 H1700 H -0.06914 0.41609 0.98637
 C1701 C -0.16953 0.60806 0.48982
 C1702 C -0.15214 0.59339 0.49382
 C1703 C -0.15670 0.57191 0.50018
 C1704 C -0.17851 0.56595 0.50395
 C1705 C -0.19563 0.58106 0.50125
 C1706 C -0.19148 0.60214 0.49358
 C1707 C -0.13938 0.55684 0.50285
 C1708 C -0.11746 0.56337 0.50046
 C1709 C -0.11289 0.58535 0.49586
 C1710 C -0.13024 0.60005 0.49198
 C1711 C -0.09101 0.59234 0.49535
 C1712 C -0.07377 0.57761 0.49879
 C1713 C -0.07802 0.55540 0.50161
 C1714 C -0.09997 0.54839 0.50274
 H1715 H -0.16582 0.62445 0.48479
 H1716 H -0.18231 0.54964 0.50910
 H1717 H -0.21232 0.57580 0.50407
 H1718 H -0.14293 0.54018 0.50707
 H1719 H -0.12669 0.61674 0.48782
 H1720 H -0.08721 0.60921 0.49235
 H1721 H -0.05701 0.58354 0.49849
 H1722 H -0.10340 0.53139 0.50552
 C1723 C 0.34453 1.10421 -0.01991
 C1724 C 0.36218 1.09093 -0.01275
 C1725 C 0.35806 1.07260 0.00019
 C1726 C 0.33655 1.06853 0.00669
 C1727 C 0.31919 1.08230 0.00025
 C1728 C 0.32275 1.10011 -0.01354
 C1729 C 0.37550 1.05867 0.00645
 C1730 C 0.39716 1.06326 0.00057
 C1731 C 0.40145 1.08230 -0.01130
 C1732 C 0.38391 1.09581 -0.01818
 C1733 C 0.42324 1.08743 -0.01624
 C1734 C 0.44057 1.07361 -0.00990
 C1735 C 0.43636 1.05419 0.00100
 C1736 C 0.41463 1.04909 0.00628
 H1737 H 0.34801 1.11827 -0.02971
 H1738 H 0.33310 1.05463 0.01673
 H1739 H 0.30277 1.07818 0.00522
 H1740 H 0.37223 1.04433 0.01595
 H1741 H 0.38719 1.11014 -0.02771
 H1742 H 0.42685 1.10203 -0.02517
 H1743 H 0.45722 1.07765 -0.01430
 H1744 H 0.41137 1.03413 0.01478
 C1745 C 0.01315 1.18103 1.08507
 C1746 C 0.01650 1.16102 1.07440
 C1747 C 0.03530 1.15791 1.06161
 C1748 C 0.05074 1.17457 1.06019
 C1749 C 0.04794 1.19395 1.07173
 C1750 C 0.02916 1.19754 1.08439
 C1751 C 0.03863 1.13808 1.05076
 C1752 C 0.02386 1.12092 1.05323
 C1753 C 0.00552 1.12368 1.06674
 C1754 C 0.00172 1.14382 1.07690
 C1755 C -0.00866 1.10617 1.06993
 C1756 C -0.00491 1.08624 1.05959
 C1757 C 0.01282 1.08357 1.04554
 C1758 C 0.02722 1.10099 1.04249
 H1759 H -0.00114 1.18311 1.09511
 H1760 H 0.06524 1.17249 1.05044
 H1761 H 0.06029 1.20643 1.07017
 H1762 H 0.05291 1.13587 1.04070
 H1763 H -0.01251 1.14599 1.08703
 H1764 H -0.02270 1.10792 1.08034
 H1765 H -0.01633 1.07307 1.06204
 H1766 H 0.04104 1.09900 1.03182
 C1767 C 0.52335 0.68008 0.60500
 C1768 C 0.52049 0.66084 0.59287
 C1769 C 0.51321 0.66189 0.57075
 C1770 C 0.50840 0.68208 0.56130
 C1771 C 0.51089 0.70110 0.57362
 C1772 C 0.51852 0.70023 0.59542
 C1773 C 0.51076 0.64278 0.55843
 C1774 C 0.51498 0.62259 0.56805
 C1775 C 0.52168 0.62143 0.59031
 C1776 C 0.52465 0.64060 0.60253
 C1777 C 0.52507 0.60107 0.59999
 C1778 C 0.52177 0.58206 0.58772
 C1779 C 0.51554 0.58315 0.56551
 C1780 C 0.51229 0.60349 0.55577
 H1781 H 0.52910 0.67945 0.62190
 H1782 H 0.50271 0.68315 0.54442
 H1783 H 0.50725 0.71658 0.56602
 H1784 H 0.50538 0.64361 0.54141
 H1785 H 0.52997 0.63977 0.61956
 H1786 H 0.53009 0.59985 0.61705
 H1787 H 0.52429 0.56651 0.59553
 H1788 H 0.50712 0.60443 0.53871
 C1789 C -0.02350 0.66893 0.40601
 C1790 C -0.01738 0.64847 0.41403
 C1791 C 0.00442 0.64074 0.41162
 C1792 C 0.01955 0.65347 0.40062
 C1793 C 0.01328 0.67384 0.39255
 C1794 C -0.00823 0.68190 0.39540
 C1795 C 0.01077 0.62063 0.42054
 C1796 C -0.00445 0.60824 0.43188
 C1797 C -0.02641 0.61588 0.43374
 C1798 C -0.03271 0.63587 0.42480
 C1799 C -0.04175 0.60353 0.44478
 C1800 C -0.03525 0.58411 0.45452
 C1801 C -0.01338 0.57682 0.45360
 C1802 C 0.00194 0.58856 0.44179
 H1803 H -0.04001 0.67502 0.40871
 H1804 H 0.03629 0.64778 0.39844
 H1805 H 0.02530 0.68333 0.38413
 H1806 H 0.02757 0.61481 0.41896
 H1807 H -0.04948 0.64177 0.42650
 H1808 H -0.05871 0.60895 0.44604
 H1809 H -0.04736 0.57458 0.46271
 H1810 H 0.01879 0.58270 0.44087
 C1811 C 0.49924 1.16789 -0.08590
 C1812 C 0.50283 1.14678 -0.07783
 C1813 C 0.49749 1.12857 -0.09114
 C1814 C 0.48879 1.13168 -0.11223
 C1815 C 0.48451 1.15258 -0.11985
 C1816 C 0.48925 1.17109 -0.10675
 C1817 C 0.50032 1.10750 -0.08298
 C1818 C 0.50761 1.10435 -0.06134
 C1819 C 0.51281 1.12252 -0.04790
 C1820 C 0.51078 1.14360 -0.05635
 C1821 C 0.51932 1.11932 -0.02604
 C1822 C 0.52007 1.09840 -0.01741
 C1823 C 0.51481 1.08025 -0.03060
 C1824 C 0.50900 1.08332 -0.05270
 H1825 H 0.50275 1.18167 -0.07526
 H1826 H 0.48483 1.11791 -0.12274
 H1827 H 0.47790 1.15413 -0.13636
 H1828 H 0.49613 1.09359 -0.09325
 H1829 H 0.51469 1.15751 -0.04598
 H1830 H 0.52335 1.13303 -0.01548
 H1831 H 0.52468 1.09641 -0.00034
 H1832 H 0.50463 1.06944 -0.06292
 C1833 C 0.50995 0.32704 -0.09644
 C1834 C 0.50573 0.34531 -0.08337
 C1835 C 0.49747 0.34261 -0.06230
 C1836 C 0.49270 0.32168 -0.05505
 C1837 C 0.49664 0.30352 -0.06830
 C1838 C 0.50591 0.30580 -0.08901
 C1839 C 0.49431 0.36084 -0.04879
 C1840 C 0.49910 0.38175 -0.05625
 C1841 C 0.50651 0.38446 -0.07771
 C1842 C 0.50984 0.36624 -0.09109
 C1843 C 0.51080 0.40536 -0.08534
 C1844 C 0.50834 0.42342 -0.07168
 C1845 C 0.50175 0.42090 -0.05006
 C1846 C 0.49691 0.39998 -0.04253
 H1847 H 0.51586 0.32960 -0.11272
 H1848 H 0.48622 0.31930 -0.03897
 H1849 H 0.49349 0.28765 -0.06166
 H1850 H 0.48835 0.35875 -0.03244
 H1851 H 0.51590 0.36832 -0.10741
 H1852 H 0.51638 0.40772 -0.10177
 H1853 H 0.51227 0.43933 -0.07784
 H1854 H 0.49164 0.39787 -0.02594
 C1855 C 0.01647 -0.16440 0.40926
 C1856 C 0.01107 -0.14582 0.42137
 C1857 C 0.00325 -0.14798 0.44275
 C1858 C 0.00044 -0.16876 0.45140
 C1859 C 0.00551 -0.18721 0.43905
 C1860 C 0.01376 -0.18512 0.41804
 C1861 C -0.00161 -0.12937 0.45509
 C1862 C 0.00095 -0.10865 0.44619
 C1863 C 0.00820 -0.10657 0.42459
 C1864 C 0.01336 -0.12515 0.41238
 C1865 C 0.01028 -0.08590 0.41556
 C1866 C 0.00549 -0.06741 0.42788
 C1867 C -0.00125 -0.06924 0.44952
 C1868 C -0.00355 -0.08996 0.45857
 H1869 H 0.02259 -0.16280 0.39291
 H1870 H -0.00563 -0.17074 0.46771
 H1871 H 0.00337 -0.20314 0.44603
 H1872 H -0.00737 -0.13100 0.47157
 H1873 H 0.01916 -0.12352 0.39591
 H1874 H 0.01576 -0.08402 0.39902
 H1875 H 0.00758 -0.05162 0.42059
 H1876 H -0.00884 -0.09154 0.47522
 C1877 C 0.47250 -0.15572 0.59345
 C1878 C 0.47415 -0.13840 0.57895
 C1879 C 0.48107 -0.14233 0.55742
 C1880 C 0.48671 -0.16349 0.55095
 C1881 C 0.48539 -0.18060 0.56563
 C1882 C 0.47812 -0.17685 0.58688
 C1883 C 0.48234 -0.12505 0.54278
 C1884 C 0.47727 -0.10384 0.54955
 C1885 C 0.47089 -0.09989 0.57126
 C1886 C 0.46911 -0.11721 0.58572
 C1887 C 0.46657 -0.07861 0.57824
 C1888 C 0.46868 -0.06135 0.56390
 C1889 C 0.47470 -0.06513 0.54224
 C1890 C 0.47878 -0.08644 0.53506
 H1891 H 0.46707 -0.15280 0.60992
 H1892 H 0.49212 -0.16680 0.53456
 H1893 H 0.48964 -0.19688 0.56030
 H1894 H 0.48748 -0.12808 0.52622
 H1895 H 0.46402 -0.11418 0.60230
 H1896 H 0.46174 -0.07529 0.59483
 H1897 H 0.46532 -0.04501 0.56967
 H1898 H 0.48362 -0.08936 0.51840
 C1899 C -0.01977 0.32569 1.08747
 C1900 C -0.02039 0.34550 1.07634
 C1901 C -0.03846 0.35040 1.06212
 C1902 C -0.05608 0.33587 1.06004
 C1903 C -0.05572 0.31651 1.07172
 C1904 C -0.03741 0.31086 1.08531
 C1905 C -0.03862 0.36970 1.05016
 C1906 C -0.02119 0.38445 1.05271
 C1907 C -0.00366 0.38011 1.06782
 C1908 C -0.00324 0.36054 1.07935
 C1909 C 0.01327 0.39535 1.07097
 C1910 C 0.01313 0.41447 1.05886
 C1911 C -0.00367 0.41839 1.04312
 C1912 C -0.02092 0.40343 1.04027
 H1913 H -0.00589 0.32229 1.09847
 H1914 H -0.07012 0.33942 1.04928
 H1915 H -0.06942 0.30550 1.06912
 H1916 H -0.05228 0.37322 1.03888
 H1917 H 0.01044 0.35700 1.09059
 H1918 H 0.02672 0.39239 1.08261
 H1919 H 0.02657 0.42584 1.06121
 H1920 H -0.03408 0.40656 1.02831
 C1921 C 0.77099 0.33277 0.06979
 C1922 C 0.77184 0.32149 0.08954
 C1923 C 0.78880 0.30612 0.09375
 C1924 C 0.80484 0.30253 0.07817
 C1925 C 0.80438 0.31438 0.05885
 C1926 C 0.78749 0.32977 0.05433
 C1927 C 0.78968 0.29493 0.11361
 C1928 C 0.77422 0.29951 0.12961
 C1929 C 0.75761 0.31534 0.12550
 C1930 C 0.75630 0.32592 0.10541
 C1931 C 0.74265 0.32059 0.14166
 C1932 C 0.74413 0.31036 0.16178
 C1933 C 0.76033 0.29438 0.16603
 C1934 C 0.77527 0.28884 0.14980
 H1935 H 0.75821 0.34495 0.06723
 H1936 H 0.81794 0.29075 0.08104
 H1937 H 0.81699 0.31091 0.04717
 H1938 H 0.80262 0.28303 0.11678
 H1939 H 0.74345 0.33794 0.10231
 H1940 H 0.72988 0.33270 0.13879
 H1941 H 0.73227 0.31471 0.17396
 H1942 H 0.78786 0.27661 0.15304
 C1943 C 0.27084 0.84864 0.57673
 C1944 C 0.26936 0.83626 0.59571
 C1945 C 0.26020 0.81519 0.59442
 C1946 C 0.25218 0.80714 0.57423
 C1947 C 0.25343 0.81974 0.55544
 C1948 C 0.26301 0.84044 0.55651
 C1949 C 0.25913 0.80260 0.61332
 C1950 C 0.26663 0.81100 0.63356
 C1951 C 0.27527 0.83229 0.63489
 C1952 C 0.27684 0.84466 0.61592
 C1953 C 0.28193 0.84098 0.65525
 C1954 C 0.27977 0.82882 0.67418
 C1955 C 0.27149 0.80759 0.67299
 C1956 C 0.26520 0.79864 0.65260
 H1957 H 0.27800 0.86474 0.57766
 H1958 H 0.24500 0.79109 0.57295
 H1959 H 0.24740 0.81314 0.53997
 H1960 H 0.25225 0.78638 0.61233
 H1961 H 0.28364 0.86091 0.61693
 H1962 H 0.28850 0.85728 0.65657
 H1963 H 0.28467 0.83595 0.68977
 H1964 H 0.25849 0.78236 0.65169
 C1965 C 0.71907 0.66339 0.58794
 C1966 C 0.72407 0.66979 0.60950
 C1967 C 0.74451 0.66387 0.61946
 C1968 C 0.75946 0.65125 0.60767
 C1969 C 0.75422 0.64467 0.58623
 C1970 C 0.73399 0.65071 0.57609
 C1971 C 0.74973 0.67090 0.64089
 C1972 C 0.73478 0.68392 0.65233
 C1973 C 0.71415 0.68941 0.64232
 C1974 C 0.70891 0.68223 0.62109
 C1975 C 0.69927 0.70262 0.65343
 C1976 C 0.70512 0.71121 0.67384
 C1977 C 0.72576 0.70647 0.68370
 C1978 C 0.74035 0.69229 0.67323
 H1979 H 0.70360 0.66859 0.58030
 H1980 H 0.77518 0.64643 0.61504
 H1981 H 0.76590 0.63459 0.57770
 H1982 H 0.76554 0.66661 0.64846
 H1983 H 0.69318 0.68668 0.61343
 H1984 H 0.68340 0.70690 0.64603
 H1985 H 0.69370 0.72211 0.68176
 H1986 H 0.75640 0.68886 0.68074
 C1987 C 0.23955 0.15820 0.07281
 C1988 C 0.24294 0.16961 0.09244
 C1989 C 0.25197 0.19074 0.09224
 C1990 C 0.25821 0.19971 0.07239
 C1991 C 0.25498 0.18806 0.05287
 C1992 C 0.24525 0.16747 0.05299
 C1993 C 0.25432 0.20259 0.11182
 C1994 C 0.24798 0.19344 0.13155
 C1995 C 0.23971 0.17200 0.13175
 C1996 C 0.23713 0.16028 0.11219
 C1997 C 0.23398 0.16265 0.15153
 C1998 C 0.23614 0.17451 0.17095
 C1999 C 0.24372 0.19602 0.17086
 C2000 C 0.24968 0.20540 0.15110
 H2001 H 0.23222 0.14217 0.07285
 H2002 H 0.26530 0.21581 0.07193
 H2003 H 0.25945 0.19535 0.03761
 H2004 H 0.26091 0.21893 0.11168
 H2005 H 0.23044 0.14398 0.11232
 H2006 H 0.22773 0.14621 0.15197
 H2007 H 0.23140 0.16703 0.18602
 H2008 H 0.25578 0.22192 0.15100
 C2009 C 0.26759 0.14328 0.91443
 C2010 C 0.26683 0.15412 0.89437
 C2011 C 0.28500 0.16686 0.88840
 C2012 C 0.30385 0.16791 0.90217
 C2013 C 0.30453 0.15693 0.92199
 C2014 C 0.28632 0.14485 0.92846
 C2015 C 0.28392 0.17863 0.86896
 C2016 C 0.26497 0.17774 0.85533
 C2017 C 0.24709 0.16440 0.86077
 C2018 C 0.24810 0.15272 0.88035
 C2019 C 0.22847 0.16321 0.84658
 C2020 C 0.22742 0.17548 0.82743
 C2021 C 0.24478 0.18939 0.82251
 C2022 C 0.26359 0.19019 0.83637
 H2023 H 0.25358 0.13378 0.91926
 H2024 H 0.31794 0.17751 0.89776
 H2025 H 0.31904 0.15843 0.93263
 H2026 H 0.29771 0.18869 0.86458
 H2027 H 0.23426 0.14276 0.88477
 H2028 H 0.21469 0.15292 0.85038
 H2029 H 0.21286 0.17456 0.81679
 H2030 H 0.27725 0.20050 0.83229
 C2031 C 0.75621 0.65307 0.42987
 C2032 C 0.75687 0.66392 0.40982
 C2033 C 0.77351 0.67947 0.40650
 C2034 C 0.78931 0.68372 0.42315
 C2035 C 0.78888 0.67241 0.44279
 C2036 C 0.77236 0.65709 0.44629
 C2037 C 0.77433 0.69026 0.38648
 C2038 C 0.75906 0.68535 0.36952
 C2039 C 0.74266 0.66954 0.37268
 C2040 C 0.74151 0.65911 0.39289
 C2041 C 0.72782 0.66428 0.35547
 C2042 C 0.72921 0.67454 0.33530
 C2043 C 0.74525 0.69048 0.33204
 C2044 C 0.76010 0.69583 0.34933
 H2045 H 0.74364 0.64098 0.43246
 H2046 H 0.80222 0.69549 0.42085
 H2047 H 0.80149 0.67556 0.45529
 H2048 H 0.78704 0.70224 0.38399
 H2049 H 0.72889 0.64703 0.39533
 H2050 H 0.71520 0.65215 0.35757
 H2051 H 0.71754 0.67016 0.32230
 H2052 H 0.77271 0.70793 0.34698
 C2053 C 0.22758 0.85044 0.41957
 C2054 C 0.22658 0.83779 0.40038
 C2055 C 0.20801 0.82449 0.39588
 C2056 C 0.19052 0.82457 0.41035
 C2057 C 0.19149 0.83751 0.42921
 C2058 C 0.21009 0.85034 0.43410
 C2059 C 0.20724 0.81136 0.37703
 C2060 C 0.22462 0.81165 0.36239
 C2061 C 0.24286 0.82545 0.36657
 C2062 C 0.24382 0.83826 0.38563
 C2063 C 0.25983 0.82626 0.35157
 C2064 C 0.25884 0.81345 0.33263
 C2065 C 0.24108 0.79929 0.32856
 C2066 C 0.22400 0.79845 0.34356
 H2067 H 0.24187 0.86052 0.42315
 H2068 H 0.17611 0.81458 0.40712
 H2069 H 0.17789 0.83716 0.44027
 H2070 H 0.19310 0.80099 0.37371
 H2071 H 0.25794 0.84865 0.38893
 H2072 H 0.27386 0.83683 0.35445
 H2073 H 0.27217 0.81435 0.32130
 H2074 H 0.21007 0.78779 0.34038
 C2075 C 0.72842 0.33004 0.93282
 C2076 C 0.72868 0.32212 0.91133
 C2077 C 0.72499 0.33656 0.89375
 C2078 C 0.72029 0.35850 0.89802
 C2079 C 0.71973 0.36618 0.91952
 C2080 C 0.72416 0.35209 0.93698
 C2081 C 0.72623 0.32888 0.87224
 C2082 C 0.73066 0.30687 0.86809
 C2083 C 0.73350 0.29228 0.88566
 C2084 C 0.73273 0.30005 0.90718
 C2085 C 0.73703 0.27014 0.88138
 C2086 C 0.73773 0.26250 0.85988
 C2087 C 0.73550 0.27697 0.84238
 C2088 C 0.73212 0.29916 0.84661
 H2089 H 0.73167 0.31914 0.94635
 H2090 H 0.71727 0.36975 0.88476
 H2091 H 0.71651 0.38325 0.92253
 H2092 H 0.72371 0.33999 0.85874
 H2093 H 0.73526 0.28894 0.92066
 H2094 H 0.73910 0.25872 0.89463
 H2095 H 0.74034 0.24532 0.85692
 H2096 H 0.73020 0.31036 0.83316
 C2097 C 0.85945 0.41651 0.22708
 C2098 C 0.84634 0.39778 0.22736
 C2099 C 0.83043 0.39407 0.21042
 C2100 C 0.82831 0.40887 0.19321
 C2101 C 0.84169 0.42727 0.19286
 C2102 C 0.85718 0.43136 0.20987
 C2103 C 0.81691 0.37565 0.21095
 C2104 C 0.81936 0.36069 0.22801
 C2105 C 0.83571 0.36410 0.24461
 C2106 C 0.84895 0.38271 0.24429
 C2107 C 0.83856 0.34882 0.26129
 C2108 C 0.82527 0.33037 0.26163
 C2109 C 0.80863 0.32703 0.24552
 C2110 C 0.80577 0.34230 0.22871
 H2111 H 0.87157 0.41947 0.24012
 H2112 H 0.81628 0.40624 0.18003
 H2113 H 0.83967 0.43858 0.17951
 H2114 H 0.80455 0.37293 0.19807
 H2115 H 0.86132 0.38543 0.25716
 H2116 H 0.85108 0.35112 0.27407
 H2117 H 0.82776 0.31887 0.27475
 H2118 H 0.79316 0.33973 0.21605
 C2119 C 0.35982 0.92757 0.73870
 C2120 C 0.34646 0.90895 0.73901
 C2121 C 0.32939 0.90624 0.72298
 C2122 C 0.32622 0.92195 0.70676
 C2123 C 0.33984 0.94016 0.70632
 C2124 C 0.35666 0.94321 0.72228
 C2125 C 0.31586 0.88782 0.72331
 C2126 C 0.31941 0.87180 0.73920
 C2127 C 0.33676 0.87422 0.75494
 C2128 C 0.35003 0.89288 0.75489
 C2129 C 0.34065 0.85783 0.77036
 C2130 C 0.32752 0.83920 0.77019
 C2131 C 0.30999 0.83676 0.75484
 C2132 C 0.30600 0.85326 0.73944
 H2133 H 0.37292 0.92972 0.75094
 H2134 H 0.31327 0.92011 0.69432
 H2135 H 0.33707 0.95206 0.69361
 H2136 H 0.30270 0.88586 0.71108
 H2137 H 0.36324 0.89480 0.76707
 H2138 H 0.35394 0.85934 0.78248
 H2139 H 0.33094 0.82678 0.78223
 H2140 H 0.29269 0.85151 0.72737
 C2141 C 0.15246 0.92314 0.26507
 C2142 C 0.15950 0.90153 0.26239
 C2143 C 0.14695 0.88445 0.27083
 C2144 C 0.12779 0.88930 0.28212
 C2145 C 0.12112 0.91084 0.28515
 C2146 C 0.13322 0.92822 0.27661
 C2147 C 0.15390 0.86283 0.26813
 C2148 C 0.17366 0.85810 0.25771
 C2149 C 0.18649 0.87523 0.24967
 C2150 C 0.17916 0.89679 0.25176
 C2151 C 0.20672 0.87056 0.24014
 C2152 C 0.21445 0.84918 0.23904
 C2153 C 0.20177 0.83206 0.24683
 C2154 C 0.18119 0.83656 0.25581
 H2155 H 0.16269 0.93597 0.25899
 H2156 H 0.11793 0.87640 0.28865
 H2157 H 0.10583 0.91361 0.29341
 H2158 H 0.14418 0.84974 0.27457
 H2159 H 0.18897 0.90989 0.24551
 H2160 H 0.21681 0.88349 0.23400
 H2161 H 0.23040 0.84597 0.23215
 H2162 H 0.17157 0.82340 0.26222
 C2163 C 0.64903 0.42173 0.78194
 C2164 C 0.65711 0.40129 0.77577
 C2165 C 0.65293 0.39333 0.75434
 C2166 C 0.64093 0.40627 0.73937
 C2167 C 0.63310 0.42679 0.74562
 C2168 C 0.63693 0.43459 0.76701
 C2169 C 0.66091 0.37270 0.74828
 C2170 C 0.67338 0.36017 0.76329
 C2171 C 0.67777 0.36847 0.78460
 C2172 C 0.66944 0.38880 0.79073
 C2173 C 0.69072 0.35644 0.79945
 C2174 C 0.69960 0.33652 0.79323
 C2175 C 0.69537 0.32796 0.77223
 C2176 C 0.68193 0.33968 0.75734
 H2177 H 0.65234 0.42778 0.79838
 H2178 H 0.63759 0.40052 0.72285
 H2179 H 0.62370 0.43640 0.73388
 H2180 H 0.65765 0.36654 0.73188
 H2181 H 0.67278 0.39502 0.80711
 H2182 H 0.69425 0.36258 0.81580
 H2183 H 0.70978 0.32768 0.80493
 H2184 H 0.67879 0.33322 0.74104
 C2185 C 0.64055 0.59168 0.75542
 C2186 C 0.65394 0.60983 0.75999
 C2187 C 0.67664 0.60677 0.76515
 C2188 C 0.68532 0.58565 0.76662
 C2189 C 0.67183 0.56771 0.76230
 C2190 C 0.64950 0.57056 0.75624
 C2191 C 0.69041 0.62484 0.76828
 C2192 C 0.68178 0.64596 0.76643
 C2193 C 0.65892 0.64906 0.76228
 C2194 C 0.64514 0.63097 0.75904
 C2195 C 0.65033 0.67025 0.76095
 C2196 C 0.66436 0.68818 0.76291
 C2197 C 0.68723 0.68523 0.76599
 C2198 C 0.69576 0.66403 0.76814
 H2199 H 0.62326 0.59395 0.75093
 H2200 H 0.70263 0.58302 0.77070
 H2201 H 0.67904 0.55159 0.76290
 H2202 H 0.70790 0.62246 0.77174
 H2203 H 0.62768 0.63335 0.75538
 H2204 H 0.63284 0.67295 0.75793
 H2205 H 0.65742 0.70434 0.76114
 H2206 H 0.71336 0.66157 0.77074
 C2207 C 0.14651 0.07642 0.23633
 C2208 C 0.16009 0.09464 0.23955
 C2209 C 0.18300 0.09173 0.24364
 C2210 C 0.19181 0.07064 0.24501
 C2211 C 0.17807 0.05260 0.24227
 C2212 C 0.15543 0.05536 0.23769
 C2213 C 0.19671 0.10992 0.24634
 C2214 C 0.18775 0.13098 0.24542
 C2215 C 0.16475 0.13386 0.24198
 C2216 C 0.15110 0.11569 0.23887
 C2217 C 0.15578 0.15489 0.24168
 C2218 C 0.16946 0.17295 0.24448
 C2219 C 0.19241 0.17034 0.24730
 C2220 C 0.20143 0.14923 0.24784
 H2221 H 0.12896 0.07856 0.23307
 H2222 H 0.20929 0.06810 0.24826
 H2223 H 0.18516 0.03645 0.24339
 H2224 H 0.21431 0.10768 0.24922
 H2225 H 0.13350 0.11793 0.23599
 H2226 H 0.13818 0.15740 0.23917
 H2227 H 0.16209 0.18901 0.24391
 H2228 H 0.21909 0.14700 0.25019
 C2229 C 0.34863 0.07002 0.76578
 C2230 C 0.33924 0.09090 0.76410
 C2231 C 0.35253 0.10938 0.76821
 C2232 C 0.37486 0.10668 0.77424
 C2233 C 0.38397 0.08588 0.77620
 C2234 C 0.37101 0.06740 0.77192
 C2235 C 0.34331 0.13026 0.76629
 C2236 C 0.32087 0.13293 0.76061
 C2237 C 0.30747 0.11446 0.75692
 C2238 C 0.31677 0.09357 0.75853
 C2239 C 0.28495 0.11721 0.75173
 C2240 C 0.27579 0.13804 0.75013
 C2241 C 0.28901 0.15654 0.75341
 C2242 C 0.31160 0.15381 0.75867
 H2243 H 0.33851 0.05581 0.76264
 H2244 H 0.38527 0.12066 0.77748
 H2245 H 0.40128 0.08420 0.78078
 H2246 H 0.35357 0.14442 0.76931
 H2247 H 0.30650 0.07941 0.75555
 H2248 H 0.27441 0.10325 0.74893
 H2249 H 0.25836 0.13967 0.74603
 H2250 H 0.32194 0.16793 0.76150
 C2251 C 0.84269 0.55924 0.25744
 C2252 C 0.83381 0.58034 0.25639
 C2253 C 0.84812 0.59844 0.25730
 C2254 C 0.87098 0.59516 0.25946
 C2255 C 0.87960 0.57415 0.26100
 C2256 C 0.86555 0.55614 0.25996
 C2257 C 0.83938 0.61953 0.25630
 C2258 C 0.81649 0.62282 0.25487
 C2259 C 0.80214 0.60479 0.25433
 C2260 C 0.81090 0.58365 0.25488
 C2261 C 0.77925 0.60826 0.25342
 C2262 C 0.77065 0.62939 0.25304
 C2263 C 0.78481 0.64739 0.25327
 C2264 C 0.80775 0.64393 0.25416
 H2265 H 0.83187 0.54527 0.25689
 H2266 H 0.88215 0.60883 0.26026
 H2267 H 0.89727 0.57189 0.26302
 H2268 H 0.85037 0.63338 0.25691
 H2269 H 0.79990 0.56981 0.25439
 H2270 H 0.76799 0.59465 0.25308
 H2271 H 0.75292 0.63162 0.25230
 H2272 H 0.81885 0.65768 0.25458
 C2273 C 0.92262 0.25260 0.14759
 C2274 C 0.90214 0.24943 0.15718
 C2275 C 0.88296 0.24658 0.14377
 C2276 C 0.88466 0.24660 0.12100
 C2277 C 0.90498 0.25044 0.11162
 C2278 C 0.92400 0.25374 0.12482
 C2279 C 0.86229 0.24461 0.15328
 C2280 C 0.86047 0.24607 0.17602
 C2281 C 0.87968 0.24878 0.18941
 C2282 C 0.90040 0.25014 0.17994
 C2283 C 0.87781 0.25065 0.21207
 C2284 C 0.85709 0.25032 0.22139
 C2285 C 0.83779 0.24789 0.20829
 C2286 C 0.83968 0.24548 0.18556
 H2287 H 0.93722 0.25557 0.15780
 H2288 H 0.87015 0.24447 0.11046
 H2289 H 0.90579 0.25147 0.09403
 H2290 H 0.84758 0.24264 0.14297
 H2291 H 0.91508 0.25244 0.19024
 H2292 H 0.89235 0.25272 0.22257
 H2293 H 0.85621 0.25208 0.23894
 H2294 H 0.82498 0.24369 0.17521
 C2295 C 0.42933 0.77484 0.65706
 C2296 C 0.40848 0.77182 0.66593
 C2297 C 0.38936 0.77247 0.65212
 C2298 C 0.39138 0.77622 0.62977
 C2299 C 0.41212 0.77961 0.62118
 C2300 C 0.43121 0.77901 0.63471
 C2301 C 0.36849 0.76965 0.66089
 C2302 C 0.36641 0.76663 0.68337
 C2303 C 0.38547 0.76620 0.69723
 C2304 C 0.40640 0.76857 0.68840
 C2305 C 0.38323 0.76367 0.71976
 C2306 C 0.36231 0.76181 0.72851
 C2307 C 0.34325 0.76214 0.71486
 C2308 C 0.34549 0.76440 0.69224
 H2309 H 0.44403 0.77454 0.66758
 H2310 H 0.37692 0.77676 0.61896
 H2311 H 0.41329 0.78262 0.60387
 H2312 H 0.35386 0.77014 0.65027
 H2313 H 0.42102 0.76821 0.69903
 H2314 H 0.39764 0.76335 0.73065
 H2315 H 0.36105 0.76003 0.74599
 H2316 H 0.33092 0.76492 0.68155
 C2317 C 0.41808 0.21748 0.85677
 C2318 C 0.39984 0.21906 0.84229
 C2319 C 0.40315 0.22014 0.81956
 C2320 C 0.42465 0.21996 0.81175
 C2321 C 0.44272 0.21871 0.82634
 C2322 C 0.43947 0.21738 0.84881
 C2323 C 0.38495 0.22157 0.80504
 C2324 C 0.36352 0.22249 0.81296
 C2325 C 0.36023 0.22179 0.83569
 C2326 C 0.37840 0.21978 0.85020
 C2327 C 0.33882 0.22351 0.84354
 C2328 C 0.32087 0.22628 0.82903
 C2329 C 0.32395 0.22675 0.80640
 C2330 C 0.34535 0.22460 0.79848
 H2331 H 0.41574 0.21645 0.87420
 H2332 H 0.42748 0.22084 0.79442
 H2333 H 0.45926 0.21855 0.82012
 H2334 H 0.38747 0.22231 0.78762
 H2335 H 0.37588 0.21915 0.86763
 H2336 H 0.33599 0.22312 0.86090
 H2337 H 0.30457 0.22814 0.83556
 H2338 H 0.34796 0.22525 0.78108
 C2339 C 0.92525 0.71932 0.34991
 C2340 C 0.90385 0.72280 0.34133
 C2341 C 0.89166 0.74124 0.34790
 C2342 C 0.90118 0.75586 0.36309
 C2343 C 0.92255 0.75222 0.37165
 C2344 C 0.93478 0.73390 0.36518
 C2345 C 0.87028 0.74481 0.33904
 C2346 C 0.86108 0.73022 0.32355
 C2347 C 0.87341 0.71175 0.31716
 C2348 C 0.89459 0.70812 0.32614
 C2349 C 0.86454 0.69729 0.30157
 C2350 C 0.84389 0.70130 0.29189
 C2351 C 0.83150 0.71973 0.29774
 C2352 C 0.84000 0.73397 0.31396
 H2353 H 0.93461 0.70534 0.34445
 H2354 H 0.89211 0.77008 0.36839
 H2355 H 0.92938 0.76359 0.38357
 H2356 H 0.86095 0.75901 0.34399
 H2357 H 0.90399 0.69398 0.32111
 H2358 H 0.87373 0.68303 0.29658
 H2359 H 0.83761 0.68995 0.27964
 H2360 H 0.83062 0.74826 0.31850
 C2361 C 0.07024 0.76974 0.35177
 C2362 C 0.09103 0.76829 0.34244
 C2363 C 0.11034 0.77062 0.35578
 C2364 C 0.10845 0.77487 0.37817
 C2365 C 0.08763 0.77669 0.38726
 C2366 C 0.06843 0.77394 0.37418
 C2367 C 0.13116 0.76870 0.34651
 C2368 C 0.13289 0.76483 0.32402
 C2369 C 0.11352 0.76312 0.31066
 C2370 C 0.09275 0.76467 0.31997
 C2371 C 0.11523 0.75987 0.28814
 C2372 C 0.13590 0.75816 0.27889
 C2373 C 0.15527 0.75933 0.29202
 C2374 C 0.15365 0.76270 0.31463
 H2375 H 0.05542 0.76791 0.34159
 H2376 H 0.12304 0.77681 0.38863
 H2377 H 0.08650 0.77992 0.40459
 H2378 H 0.14597 0.77027 0.35676
 H2379 H 0.07794 0.76313 0.30972
 H2380 H 0.10056 0.75862 0.27766
 H2381 H 0.13672 0.75549 0.26145
 H2382 H 0.16851 0.76387 0.32485
 C2383 C 0.56701 0.25415 0.85193
 C2384 C 0.58444 0.25532 0.83753
 C2385 C 0.58805 0.27466 0.82594
 C2386 C 0.57387 0.29246 0.82881
 C2387 C 0.55645 0.29114 0.84317
 C2388 C 0.55292 0.27202 0.85494
 C2389 C 0.60593 0.27597 0.81197
 C2390 C 0.62038 0.25824 0.80974
 C2391 C 0.61649 0.23884 0.82123
 C2392 C 0.59849 0.23746 0.83487
 C2393 C 0.63101 0.22124 0.81940
 C2394 C 0.64973 0.22307 0.80700
 C2395 C 0.65412 0.24236 0.79591
 C2396 C 0.63909 0.25976 0.79683
 H2397 H 0.56469 0.23943 0.86113
 H2398 H 0.57628 0.30740 0.82001
 H2399 H 0.54560 0.30504 0.84492
 H2400 H 0.60885 0.29087 0.80324
 H2401 H 0.59568 0.22263 0.84377
 H2402 H 0.62820 0.20627 0.82802
 H2403 H 0.66106 0.20941 0.80634
 H2404 H 0.64253 0.27474 0.78844
 C2405 C 0.57195 0.75710 0.65855
 C2406 C 0.59330 0.75949 0.66774
 C2407 C 0.61185 0.75545 0.65480
 C2408 C 0.60875 0.74930 0.63287
 C2409 C 0.58748 0.74649 0.62401
 C2410 C 0.56896 0.75011 0.63681
 C2411 C 0.63319 0.75699 0.66412
 C2412 C 0.63623 0.76189 0.68638
 C2413 C 0.61769 0.76597 0.69931
 C2414 C 0.59637 0.76507 0.68984
 C2415 C 0.62077 0.77029 0.72167
 C2416 C 0.64194 0.76994 0.73127
 C2417 C 0.66046 0.76565 0.71862
 C2418 C 0.65750 0.76208 0.69605
 H2419 H 0.55768 0.75971 0.66852
 H2420 H 0.62276 0.74616 0.62271
 H2421 H 0.58545 0.74126 0.60715
 H2422 H 0.64739 0.75372 0.65422
 H2423 H 0.58216 0.76807 0.69981
 H2424 H 0.60677 0.77346 0.73183
 H2425 H 0.64382 0.77290 0.74867
 H2426 H 0.67164 0.75860 0.68617
 C2427 C 0.07679 0.23686 0.14399
 C2428 C 0.09648 0.24254 0.15494
 C2429 C 0.10379 0.26428 0.15490
 C2430 C 0.09082 0.28006 0.14401
 C2431 C 0.07112 0.27418 0.13294
 C2432 C 0.06419 0.25244 0.13255
 C2433 C 0.12390 0.26973 0.16565
 C2434 C 0.13658 0.25364 0.17644
 C2435 C 0.12887 0.23194 0.17646
 C2436 C 0.10900 0.22658 0.16571
 C2437 C 0.14106 0.21582 0.18740
 C2438 C 0.16059 0.22109 0.19856
 C2439 C 0.16848 0.24244 0.19879
 C2440 C 0.15666 0.25875 0.18750
 H2441 H 0.07131 0.22013 0.14419
 H2442 H 0.09604 0.29686 0.14384
 H2443 H 0.06162 0.28645 0.12421
 H2444 H 0.12961 0.28639 0.16564
 H2445 H 0.10325 0.20992 0.16573
 H2446 H 0.13536 0.19917 0.18753
 H2447 H 0.16964 0.20840 0.20717
 H2448 H 0.16271 0.27528 0.18786
 C2449 C -0.09569 1.00848 0.82392
 C2450 C -0.08568 1.00793 0.84481
 C2451 C -0.09477 1.02015 0.86201
 C2452 C -0.11387 1.03250 0.85808
 C2453 C -0.12323 1.03370 0.83707
 C2454 C -0.11404 1.02210 0.81953
 C2455 C -0.08419 1.02046 0.88264
 C2456 C -0.06414 1.00939 0.88605
 C2457 C -0.05502 0.99720 0.86882
 C2458 C -0.06604 0.99622 0.84844
 C2459 C -0.03472 0.98660 0.87209
 C2460 C -0.02336 0.98833 0.89214
 C2461 C -0.03222 1.00048 0.90938
 C2462 C -0.05279 1.01077 0.90627
 H2463 H -0.08786 0.99976 0.81078
 H2464 H -0.12122 1.04178 0.87113
 H2465 H -0.13789 1.04362 0.83469
 H2466 H -0.09114 1.02992 0.89580
 H2467 H -0.05894 0.98697 0.83520
 H2468 H -0.02750 0.97718 0.85907
 H2469 H -0.00766 0.98000 0.89416
 H2470 H -0.05978 1.02020 0.91941
 C2471 C 0.39324 0.52059 0.33947
 C2472 C 0.40648 0.51672 0.35823
 C2473 C 0.42669 0.50536 0.35642
 C2474 C 0.43319 0.49789 0.33591
 C2475 C 0.41994 0.50184 0.31733
 C2476 C 0.39992 0.51332 0.31888
 C2477 C 0.44015 0.50181 0.37508
 C2478 C 0.43368 0.50951 0.39555
 C2479 C 0.41336 0.52068 0.39735
 C2480 C 0.39988 0.52418 0.37871
 C2481 C 0.40689 0.52830 0.41779
 C2482 C 0.42047 0.52510 0.43627
 C2483 C 0.44086 0.51421 0.43473
 C2484 C 0.44728 0.50635 0.41422
 H2485 H 0.37771 0.52923 0.34090
 H2486 H 0.44863 0.48918 0.33421
 H2487 H 0.42559 0.49630 0.30163
 H2488 H 0.45571 0.49319 0.37366
 H2489 H 0.38436 0.53286 0.38013
 H2490 H 0.39135 0.53686 0.41948
 H2491 H 0.41502 0.53134 0.45179
 H2492 H 0.46288 0.49786 0.41273
 C2493 C 0.59786 -0.01136 0.32540
 C2494 C 0.58672 -0.00943 0.34517
 C2495 C 0.59381 -0.02185 0.36337
 C2496 C 0.61184 -0.03594 0.36156
 C2497 C 0.62229 -0.03839 0.34173
 C2498 C 0.61536 -0.02644 0.32316
 C2499 C 0.58248 -0.02043 0.38296
 C2500 C 0.56361 -0.00729 0.38443
 C2501 C 0.55631 0.00500 0.36620
 C2502 C 0.56809 0.00411 0.34680
 C2503 C 0.53710 0.01767 0.36758
 C2504 C 0.52509 0.01796 0.38670
 C2505 C 0.53220 0.00582 0.40496
 C2506 C 0.55167 -0.00661 0.40373
 H2507 H 0.59176 -0.00226 0.31141
 H2508 H 0.61764 -0.04542 0.37542
 H2509 H 0.63624 -0.04942 0.34119
 H2510 H 0.58800 -0.03000 0.39687
 H2511 H 0.56243 0.01352 0.33282
 H2512 H 0.53123 0.02720 0.35379
 H2513 H 0.51027 0.02783 0.38724
 H2514 H 0.55730 -0.01614 0.41762
 C2515 C 0.11250 0.47791 0.81974
 C2516 C 0.09895 0.48192 0.83746
 C2517 C 0.08017 0.49547 0.83486
 C2518 C 0.07559 0.50517 0.81459
 C2519 C 0.08916 0.50103 0.79695
 C2520 C 0.10752 0.48711 0.79929
 C2521 C 0.06618 0.49885 0.85244
 C2522 C 0.07078 0.48882 0.87257
 C2523 C 0.08983 0.47561 0.87517
 C2524 C 0.10377 0.47226 0.85765
 C2525 C 0.09461 0.46578 0.89526
 C2526 C 0.08062 0.46886 0.91265
 C2527 C 0.06144 0.48172 0.91030
 C2528 C 0.05663 0.49170 0.89014
 H2529 H 0.12682 0.46742 0.82177
 H2530 H 0.06131 0.51565 0.81227
 H2531 H 0.08492 0.50817 0.78129
 H2532 H 0.05166 0.50910 0.85041
 H2533 H 0.11824 0.46194 0.85965
 H2534 H 0.10916 0.45565 0.89753
 H2535 H 0.08475 0.46093 0.92794
 H2536 H 0.04201 0.50180 0.88816
 C2537 C 0.11014 0.50813 0.66772
 C2538 C 0.10081 0.50531 0.64671
 C2539 C 0.11145 0.51385 0.62852
 C2540 C 0.13159 0.52471 0.63174
 C2541 C 0.14104 0.52710 0.65276
 C2542 C 0.13042 0.51887 0.67102
 C2543 C 0.10168 0.51150 0.60752
 C2544 C 0.08144 0.50063 0.60458
 C2545 C 0.07120 0.49169 0.62287
 C2546 C 0.08089 0.49412 0.64375
 C2547 C 0.05116 0.48072 0.62008
 C2548 C 0.04087 0.47921 0.59952
 C2549 C 0.05038 0.48860 0.58121
 C2550 C 0.07099 0.49893 0.58380
 H2551 H 0.10135 0.50215 0.68155
 H2552 H 0.14010 0.53127 0.61799
 H2553 H 0.15679 0.53518 0.65466
 H2554 H 0.10968 0.51828 0.59356
 H2555 H 0.07283 0.48743 0.65773
 H2556 H 0.04321 0.47364 0.63391
 H2557 H 0.02515 0.47099 0.59808
 H2558 H 0.07852 0.50628 0.56988
 C2559 C 0.60811 0.99825 0.18489
 C2560 C 0.60071 0.99571 0.16308
 C2561 C 0.61291 1.00475 0.14613
 C2562 C 0.63261 1.01572 0.15128
 C2563 C 0.63994 1.01806 0.17302
 C2564 C 0.62769 1.00961 0.19011
 C2565 C 0.60509 1.00295 0.12438
 C2566 C 0.58511 0.99231 0.11936
 C2567 C 0.57321 0.98285 0.13632
 C2568 C 0.58109 0.98455 0.15801
 C2569 C 0.55330 0.97223 0.13138
 C2570 C 0.54478 0.97167 0.10999
 C2571 C 0.55601 0.98161 0.09300
 C2572 C 0.57651 0.99150 0.09778
 H2573 H 0.59829 0.99185 0.19781
 H2574 H 0.64230 1.02259 0.13851
 H2575 H 0.65533 1.02644 0.17641
 H2576 H 0.61432 1.01015 0.11142
 H2577 H 0.57176 0.97751 0.17099
 H2578 H 0.54405 0.96477 0.14414
 H2579 H 0.52906 0.96379 0.10686
 H2580 H 0.58535 0.99928 0.08491
 C2581 C 0.39125 0.47870 0.17192
 C2582 C 0.40585 0.48233 0.15493
 C2583 C 0.42877 0.48409 0.15967
 C2584 C 0.43665 0.48235 0.18132
 C2585 C 0.42198 0.47925 0.19815
 C2586 C 0.39923 0.47742 0.19361
 C2587 C 0.44340 0.48780 0.14277
 C2588 C 0.43543 0.49002 0.12116
 C2589 C 0.41250 0.48854 0.11649
 C2590 C 0.39789 0.48462 0.13334
 C2591 C 0.40453 0.49089 0.09496
 C2592 C 0.41910 0.49423 0.07813
 C2593 C 0.44203 0.49533 0.08239
 C2594 C 0.45004 0.49348 0.10411
 H2595 H 0.37365 0.47760 0.16842
 H2596 H 0.45413 0.48371 0.18529
 H2597 H 0.42837 0.47838 0.21481
 H2598 H 0.46097 0.48902 0.14645
 H2599 H 0.38032 0.48342 0.12967
 H2600 H 0.38700 0.48991 0.09109
 H2601 H 0.41235 0.49566 0.06165
 H2602 H 0.46763 0.49421 0.10771
 C2603 C -0.10739 -0.01748 0.66844
 C2604 C -0.09548 -0.01090 0.65031
 C2605 C -0.07471 -0.00087 0.65356
 C2606 C -0.06629 0.00266 0.67475
 C2607 C -0.07861 -0.00299 0.69265
 C2608 C -0.09944 -0.01293 0.68987
 C2609 C -0.06278 0.00582 0.63560
 C2610 C -0.07156 0.00312 0.61437
 C2611 C -0.09258 -0.00639 0.61106
 C2612 C -0.10431 -0.01355 0.62902
 C2613 C -0.10144 -0.00867 0.58979
 C2614 C -0.08934 -0.00220 0.57195
 C2615 C -0.06808 0.00663 0.57499
 C2616 C -0.05950 0.00958 0.59638
 H2617 H -0.12354 -0.02464 0.66575
 H2618 H -0.05033 0.01020 0.67753
 H2619 H -0.07149 0.00010 0.70878
 H2620 H -0.04674 0.01330 0.63817
 H2621 H -0.12037 -0.02098 0.62645
 H2622 H -0.11758 -0.01579 0.58693
 H2623 H -0.09643 -0.00473 0.55571
 H2624 H -0.04319 0.01639 0.59906
 C2625 C -0.15532 0.90485 1.01357
 C2626 C -0.13402 0.91250 1.00970
 C2627 C -0.11568 0.90374 1.02138
 C2628 C -0.11891 0.88726 1.03648
 C2629 C -0.14014 0.87988 1.04047
 C2630 C -0.15886 0.88868 1.02933
 C2631 C -0.09448 0.91190 1.01813
 C2632 C -0.09145 0.92911 1.00370
 C2633 C -0.10979 0.93778 0.99187
 C2634 C -0.13091 0.92928 0.99477
 C2635 C -0.10681 0.95524 0.97777
 C2636 C -0.08602 0.96457 0.97600
 C2637 C -0.06771 0.95642 0.98803
 C2638 C -0.07049 0.93830 1.00148
 H2639 H -0.16913 0.91262 1.00512
 H2640 H -0.10499 0.88015 1.04540
 H2641 H -0.14158 0.86675 1.05192
 H2642 H -0.08044 0.90526 1.02727
 H2643 H -0.14498 0.93609 0.98581
 H2644 H -0.12067 0.96204 0.96853
 H2645 H -0.08432 0.97841 0.96541
 H2646 H -0.05656 0.93196 1.01097
 C2647 C 0.32553 0.40500 0.51389
 C2648 C 0.34631 0.41479 0.51425
 C2649 C 0.36545 0.40199 0.51813
 C2650 C 0.36342 0.37961 0.52156
 C2651 C 0.34260 0.37001 0.52129
 C2652 C 0.32352 0.38261 0.51745
 C2653 C 0.38625 0.41179 0.51864
 C2654 C 0.38813 0.43422 0.51539
 C2655 C 0.36898 0.44699 0.51153
 C2656 C 0.34819 0.43719 0.51097
 C2657 C 0.37096 0.46939 0.50828
 C2658 C 0.39173 0.47906 0.50876
 C2659 C 0.41091 0.46652 0.51254
 C2660 C 0.40890 0.44406 0.51590
 H2661 H 0.31085 0.41490 0.51129
 H2662 H 0.37792 0.36957 0.52453
 H2663 H 0.34139 0.35270 0.52396
 H2664 H 0.40095 0.40200 0.52161
 H2665 H 0.33349 0.44699 0.50802
 H2666 H 0.35645 0.47941 0.50532
 H2667 H 0.39275 0.49639 0.50610
 H2668 H 0.42351 0.43413 0.51879
 C2669 C 0.33308 0.60116 -0.01844
 C2670 C 0.35108 0.58816 -0.01156
 C2671 C 0.34735 0.56691 -0.00390
 C2672 C 0.32570 0.55924 -0.00275
 C2673 C 0.30790 0.57243 -0.00921
 C2674 C 0.31143 0.59336 -0.01725
 C2675 C 0.36530 0.55363 0.00238
 C2676 C 0.38696 0.56136 0.00129
 C2677 C 0.39065 0.58281 -0.00575
 C2678 C 0.37272 0.59604 -0.01219
 C2679 C 0.41228 0.59057 -0.00655
 C2680 C 0.43014 0.57702 -0.00116
 C2681 C 0.42679 0.55537 0.00512
 C2682 C 0.40502 0.54781 0.00670
 H2683 H 0.33583 0.61741 -0.02441
 H2684 H 0.32252 0.54306 0.00316
 H2685 H 0.29130 0.56618 -0.00820
 H2686 H 0.36241 0.53725 0.00795
 H2687 H 0.37561 0.61240 -0.01784
 H2688 H 0.41542 0.60701 -0.01176
 H2689 H 0.44665 0.58339 -0.00252
 H2690 H 0.40210 0.53122 0.01157
 C2691 C -0.18364 0.11097 0.48169
 C2692 C -0.16450 0.09935 0.48762
 C2693 C -0.16528 0.08325 0.50380
 C2694 C -0.18505 0.07981 0.51452
 C2695 C -0.20410 0.09159 0.50862
 C2696 C -0.20393 0.10683 0.49155
 C2697 C -0.14638 0.07069 0.50875
 C2698 C -0.12673 0.07422 0.49775
 C2699 C -0.12583 0.09100 0.48221
 C2700 C -0.14469 0.10342 0.47724
 C2701 C -0.10613 0.09493 0.47160
 C2702 C -0.08754 0.08210 0.47600
 C2703 C -0.08835 0.06492 0.49088
 C2704 C -0.10800 0.06114 0.50186
 H2705 H -0.18247 0.12352 0.46952
 H2706 H -0.18592 0.06765 0.52712
 H2707 H -0.21922 0.08760 0.51660
 H2708 H -0.14706 0.05803 0.52090
 H2709 H -0.14405 0.11601 0.46500
 H2710 H -0.10515 0.10781 0.45974
 H2711 H -0.07262 0.08533 0.46732
 H2712 H -0.10871 0.04810 0.51357
 C2713 C 0.65584 0.10656 0.49846
 C2714 C 0.63455 0.09841 0.49436
 C2715 C 0.61595 0.11166 0.49833
 C2716 C 0.61903 0.13306 0.50575
 C2717 C 0.64031 0.14111 0.50966
 C2718 C 0.65894 0.12789 0.50633
 C2719 C 0.59463 0.10319 0.49516
 C2720 C 0.59171 0.08159 0.48816
 C2721 C 0.61035 0.06858 0.48366
 C2722 C 0.63162 0.07707 0.48674
 C2723 C 0.60747 0.04708 0.47656
 C2724 C 0.58637 0.03825 0.47466
 C2725 C 0.56766 0.05073 0.47979
 C2726 C 0.57048 0.07261 0.48611
 H2727 H 0.66997 0.09603 0.49609
 H2728 H 0.60498 0.14353 0.50870
 H2729 H 0.64216 0.15774 0.51527
 H2730 H 0.58036 0.11326 0.49850
 H2731 H 0.64590 0.06694 0.48356
 H2732 H 0.62157 0.03694 0.47290
 H2733 H 0.58479 0.02142 0.46961
 H2734 H 0.55626 0.08248 0.49006
 C2735 C 0.17627 0.59479 0.99653
 C2736 C 0.15519 0.58548 0.99447
 C2737 C 0.13699 0.59605 1.00384
 C2738 C 0.14014 0.61574 1.01503
 C2739 C 0.16119 0.62470 1.01740
 C2740 C 0.17975 0.61438 1.00838
 C2741 C 0.11599 0.58660 1.00223
 C2742 C 0.11303 0.56640 0.99180
 C2743 C 0.13125 0.55574 0.98250
 C2744 C 0.15215 0.56545 0.98368
 C2745 C 0.12833 0.53534 0.97251
 C2746 C 0.10767 0.52537 0.97213
 C2747 C 0.08944 0.53575 0.98145
 C2748 C 0.09223 0.55646 0.99100
 H2749 H 0.19007 0.58592 0.98995
 H2750 H 0.12632 0.62417 1.02215
 H2751 H 0.16260 0.64018 1.02580
 H2752 H 0.10205 0.59474 1.00949
 H2753 H 0.16612 0.55722 0.97658
 H2754 H 0.14210 0.52694 0.96528
 H2755 H 0.10596 0.50949 0.96455
 H2756 H 0.07837 0.56458 0.99839
 C2757 C 0.17080 0.39892 0.47800
 C2758 C 0.15209 0.41068 0.48410
 C2759 C 0.15459 0.43019 0.49629
 C2760 C 0.17577 0.43731 0.50258
 C2761 C 0.19431 0.42534 0.49665
 C2762 C 0.19195 0.40622 0.48415
 C2763 C 0.13590 0.44233 0.50182
 C2764 C 0.11476 0.43516 0.49538
 C2765 C 0.11230 0.41536 0.48368
 C2766 C 0.13096 0.40327 0.47810
 C2767 C 0.09119 0.40811 0.47746
 C2768 C 0.07268 0.42059 0.48225
 C2769 C 0.07490 0.44063 0.49332
 C2770 C 0.09606 0.44765 0.50013
 H2771 H 0.16894 0.38400 0.46860
 H2772 H 0.17800 0.45216 0.51198
 H2773 H 0.21056 0.43119 0.50149
 H2774 H 0.13782 0.45742 0.51092
 H2775 H 0.12905 0.38823 0.46890
 H2776 H 0.08901 0.39292 0.46860
 H2777 H 0.05663 0.41469 0.47684
 H2778 H 0.09804 0.46298 0.50878
 C2779 C 0.68523 0.89560 -0.00638
 C2780 C 0.66639 0.90827 -0.00232
 C2781 C 0.66882 0.92991 0.00528
 C2782 C 0.69002 0.93847 0.00877
 C2783 C 0.70865 0.92571 0.00488
 C2784 C 0.70648 0.90419 -0.00271
 C2785 C 0.65005 0.94264 0.00928
 C2786 C 0.62884 0.93402 0.00580
 C2787 C 0.62643 0.91233 -0.00165
 C2788 C 0.64519 0.89960 -0.00564
 C2789 C 0.60526 0.90377 -0.00518
 C2790 C 0.58661 0.91664 -0.00174
 C2791 C 0.58871 0.93834 0.00541
 C2792 C 0.60999 0.94683 0.00939
 H2793 H 0.68337 0.87894 -0.01197
 H2794 H 0.69221 0.95502 0.01456
 H2795 H 0.72484 0.93273 0.00767
 H2796 H 0.65196 0.95926 0.01503
 H2797 H 0.64329 0.88299 -0.01142
 H2798 H 0.60310 0.88717 -0.01083
 H2799 H 0.57050 0.90958 -0.00488
 H2800 H 0.61192 0.96354 0.01481
 C2801 C 0.02303 0.83195 0.89315
 C2802 C 0.01822 0.85041 0.90556
 C2803 C 0.00397 0.84897 0.92327
 C2804 C -0.00590 0.82902 0.92768
 C2805 C -0.00102 0.81055 0.91517
 C2806 C 0.01411 0.81158 0.89811
 C2807 C 0.00012 0.86741 0.93635
 C2808 C 0.01041 0.88720 0.93178
 C2809 C 0.02413 0.88853 0.91356
 C2810 C 0.02788 0.87022 0.90059
 C2811 C 0.03424 0.90811 0.90865
 C2812 C 0.03112 0.92627 0.92180
 C2813 C 0.01788 0.92529 0.94025
 C2814 C 0.00744 0.90564 0.94514
 H2815 H 0.03357 0.83371 0.87932
 H2816 H -0.01699 0.82757 0.94112
 H2817 H -0.00816 0.79530 0.91988
 H2818 H -0.01058 0.86630 0.95015
 H2819 H 0.03867 0.87130 0.88684
 H2820 H 0.04474 0.90936 0.89472
 H2821 H 0.03946 0.94108 0.91758
 H2822 H -0.00291 0.90471 0.95921
 C2823 C 0.51001 0.33950 0.40962
 C2824 C 0.50642 0.35663 0.42435
 C2825 C 0.51865 0.35748 0.44437
 C2826 C 0.53445 0.34138 0.44918
 C2827 C 0.53837 0.32477 0.43413
 C2828 C 0.52619 0.32374 0.41435
 C2829 C 0.51534 0.37471 0.45899
 C2830 C 0.50074 0.39163 0.45343
 C2831 C 0.48879 0.39100 0.43325
 C2832 C 0.49131 0.37324 0.41906
 C2833 C 0.47518 0.40859 0.42723
 C2834 C 0.47414 0.42698 0.44068
 C2835 C 0.48596 0.42763 0.46069
 C2836 C 0.49876 0.40971 0.46727
 H2837 H 0.50074 0.33873 0.39424
 H2838 H 0.54402 0.34184 0.46438
 H2839 H 0.55082 0.31259 0.43796
 H2840 H 0.52474 0.37537 0.47433
 H2841 H 0.48216 0.37274 0.40359
 H2842 H 0.46601 0.40846 0.41178
 H2843 H 0.46433 0.44083 0.43538
 H2844 H 0.50826 0.41046 0.48254
 C2845 C -0.01771 0.32462 0.59742
 C2846 C -0.01605 0.34573 0.58914
 C2847 C -0.02946 0.36257 0.59738
 C2848 C -0.04426 0.35807 0.61376
 C2849 C -0.04640 0.33695 0.62138
 C2850 C -0.03343 0.31975 0.61316
 C2851 C -0.02834 0.38353 0.58873
 C2852 C -0.01454 0.38770 0.57135
 C2853 C -0.00124 0.37081 0.56294
 C2854 C -0.00179 0.35005 0.57213
 C2855 C 0.01201 0.37485 0.54511
 C2856 C 0.01174 0.39526 0.53540
 C2857 C -0.00147 0.41215 0.54357
 C2858 C -0.01432 0.40834 0.56181
 H2859 H -0.00785 0.31178 0.59035
 H2860 H -0.05452 0.37083 0.62043
 H2861 H -0.05796 0.33430 0.63419
 H2862 H -0.03869 0.39640 0.59508
 H2863 H 0.00838 0.33712 0.56561
 H2864 H 0.02231 0.36212 0.53845
 H2865 H 0.02197 0.39786 0.52148
 H2866 H -0.02466 0.42122 0.56814
 C2867 C 0.48338 0.82041 0.09839
 C2868 C 0.48667 0.84148 0.09057
 C2869 C 0.47793 0.85954 0.10191
 C2870 C 0.46617 0.85620 0.12093
 C2871 C 0.46270 0.83516 0.12841
 C2872 C 0.47113 0.81709 0.11716
 C2873 C 0.48077 0.88059 0.09386
 C2874 C 0.49193 0.88380 0.07443
 C2875 C 0.50067 0.86572 0.06313
 C2876 C 0.49813 0.84472 0.07134
 C2877 C 0.51158 0.86892 0.04361
 C2878 C 0.51360 0.88978 0.03517
 C2879 C 0.50489 0.90793 0.04614
 C2880 C 0.49421 0.90477 0.06594
 H2881 H 0.48972 0.80654 0.08947
 H2882 H 0.45940 0.86984 0.12985
 H2883 H 0.45337 0.83297 0.14301
 H2884 H 0.47399 0.89442 0.10254
 H2885 H 0.50478 0.83088 0.06260
 H2886 H 0.51841 0.85527 0.03475
 H2887 H 0.52203 0.89166 0.01998
 H2888 H 0.48735 0.91855 0.07458
 C2889 C 0.51172 0.66562 0.11412
 C2890 C 0.50873 0.64723 0.10057
 C2891 C 0.50286 0.64994 0.07824
 C2892 C 0.49992 0.67090 0.06989
 C2893 C 0.50258 0.68904 0.08352
 C2894 C 0.50847 0.68662 0.10571
 C2895 C 0.49993 0.63168 0.06462
 C2896 C 0.50263 0.61068 0.07301
 C2897 C 0.50823 0.60792 0.09537
 C2898 C 0.51131 0.62620 0.10900
 C2899 C 0.51076 0.58689 0.10369
 C2900 C 0.50811 0.56876 0.08996
 C2901 C 0.50288 0.57126 0.06760
 C2902 C 0.49997 0.59239 0.05932
 H2903 H 0.51604 0.66363 0.13127
 H2904 H 0.49542 0.67327 0.05284
 H2905 H 0.50014 0.70507 0.07669
 H2906 H 0.49555 0.63382 0.04748
 H2907 H 0.51570 0.62406 0.12613
 H2908 H 0.51497 0.58444 0.12079
 H2909 H 0.51048 0.55276 0.09686
 H2910 H 0.49590 0.59468 0.04216
 C2911 C -0.00368 0.18164 0.60303
 C2912 C -0.00446 0.16012 0.59526
 C2913 C 0.00917 0.14407 0.60508
 C2914 C 0.02307 0.14978 0.62280
 C2915 C 0.02388 0.17124 0.63041
 C2916 C 0.01074 0.18775 0.62055
 C2917 C 0.00896 0.12269 0.59678
 C2918 C -0.00446 0.11727 0.57849
 C2919 C -0.01827 0.13339 0.56887
 C2920 C -0.01831 0.15458 0.57740
 C2921 C -0.03147 0.12825 0.55048
 C2922 C -0.03044 0.10759 0.54113
 C2923 C -0.01643 0.09149 0.55012
 C2924 C -0.00385 0.09625 0.56919
 H2925 H -0.01351 0.19369 0.59438
 H2926 H 0.03345 0.13765 0.63076
 H2927 H 0.03444 0.17453 0.64457
 H2928 H 0.01960 0.11043 0.60423
 H2929 H -0.02879 0.16689 0.56982
 H2930 H -0.04222 0.14036 0.54299
 H2931 H -0.04051 0.10424 0.52660
 H2932 H 0.00706 0.08398 0.57617
 C2933 C 0.48709 0.18039 0.38751
 C2934 C 0.48918 0.16143 0.39994
 C2935 C 0.49503 0.16297 0.42241
 C2936 C 0.49886 0.18337 0.43203
 C2937 C 0.49680 0.20213 0.41954
 C2938 C 0.49086 0.20084 0.39723
 C2939 C 0.49677 0.14413 0.43499
 C2940 C 0.49260 0.12375 0.42543
 C2941 C 0.48698 0.12214 0.40292
 C2942 C 0.48539 0.14099 0.39029
 C2943 C 0.48271 0.10171 0.39351
 C2944 C 0.48348 0.08310 0.40637
 C2945 C 0.48865 0.08456 0.42887
 C2946 C 0.49354 0.10498 0.43818
 H2947 H 0.48273 0.17926 0.37026
 H2948 H 0.50331 0.18484 0.44923
 H2949 H 0.49953 0.21774 0.42742
 H2950 H 0.50111 0.14535 0.45225
 H2951 H 0.48094 0.13978 0.37305
 H2952 H 0.47846 0.10016 0.37628
 H2953 H 0.47975 0.06757 0.39872
 H2954 H 0.49753 0.10641 0.45549
 C2955 C -0.00526 0.65917 0.88383
 C2956 C 0.00122 0.64080 0.89591
 C2957 C 0.01164 0.64341 0.91670
 C2958 C 0.01611 0.66426 0.92475
 C2959 C 0.01024 0.68242 0.91244
 C2960 C -0.00071 0.68027 0.89185
 C2961 C 0.01724 0.62516 0.92923
 C2962 C 0.01276 0.60425 0.92115
 C2963 C 0.00324 0.60158 0.89996
 C2964 C -0.00254 0.61985 0.88750
 C2965 C -0.00085 0.58065 0.89177
 C2966 C 0.00340 0.56259 0.90484
 C2967 C 0.01178 0.56507 0.92640
 C2968 C 0.01703 0.58600 0.93420
 H2969 H -0.01300 0.65689 0.86782
 H2970 H 0.02404 0.66657 0.94068
 H2971 H 0.01342 0.69822 0.91972
 H2972 H 0.02479 0.62725 0.94538
 H2973 H -0.01023 0.61776 0.87141
 H2974 H -0.00791 0.57827 0.87548
 H2975 H -0.00073 0.54669 0.89826
 H2976 H 0.02361 0.58821 0.95071
 C2977 C 0.25919 0.65622 0.92122
 C2978 C 0.25730 0.66461 0.90001
 C2979 C 0.26624 0.65292 0.88237
 C2980 C 0.27654 0.63281 0.88625
 C2981 C 0.27813 0.62445 0.90739
 C2982 C 0.26963 0.63608 0.92518
 C2983 C 0.26489 0.66159 0.86122
 C2984 C 0.25469 0.68183 0.85750
 C2985 C 0.24537 0.69326 0.87513
 C2986 C 0.24674 0.68460 0.89622
 C2987 C 0.23510 0.71337 0.87147
 C2988 C 0.23459 0.72246 0.85070
 C2989 C 0.24431 0.71165 0.83304
 C2990 C 0.25403 0.69106 0.83654
 H2991 H 0.25284 0.66563 0.93470
 H2992 H 0.28335 0.62352 0.87292
 H2993 H 0.28585 0.60871 0.90974
 H2994 H 0.27197 0.65271 0.84774
 H2995 H 0.23977 0.69354 0.90973
 H2996 H 0.22776 0.72228 0.88478
 H2997 H 0.22688 0.73824 0.84860
 H2998 H 0.26162 0.68250 0.82316
 C2999 C 0.74316 0.15868 0.42414
 C3000 C 0.74289 0.16567 0.40245
 C3001 C 0.75203 0.15236 0.38608
 C3002 C 0.76074 0.13195 0.39167
 C3003 C 0.76096 0.12509 0.41336
 C3004 C 0.75248 0.13851 0.42985
 C3005 C 0.75271 0.15988 0.36454
 C3006 C 0.74453 0.18062 0.35927
 C3007 C 0.73494 0.19362 0.37566
 C3008 C 0.73410 0.18605 0.39706
 C3009 C 0.72671 0.21425 0.37052
 C3010 C 0.72850 0.22229 0.34952
 C3011 C 0.73855 0.20988 0.33311
 C3012 C 0.74619 0.18881 0.33803
 H3013 H 0.73683 0.16931 0.43670
 H3014 H 0.76765 0.12142 0.37934
 H3015 H 0.76789 0.10929 0.41725
 H3016 H 0.75999 0.14980 0.35203
 H3017 H 0.72700 0.19621 0.40962
 H3018 H 0.71918 0.22435 0.38285
 H3019 H 0.72221 0.23848 0.34626
 H3020 H 0.75390 0.17902 0.32557
 C3021 C 0.24596 0.34898 0.42193
 C3022 C 0.24786 0.34114 0.40060
 C3023 C 0.23858 0.35298 0.38292
 C3024 C 0.22817 0.37296 0.38699
 C3025 C 0.22671 0.38091 0.40838
 C3026 C 0.23540 0.36890 0.42612
 C3027 C 0.23958 0.34445 0.36162
 C3028 C 0.24980 0.32425 0.35791
 C3029 C 0.25971 0.31292 0.37567
 C3030 C 0.25866 0.32141 0.39683
 C3031 C 0.27012 0.29295 0.37215
 C3032 C 0.26993 0.28371 0.35137
 C3033 C 0.25931 0.29422 0.33363
 C3034 C 0.24977 0.31485 0.33689
 H3035 H 0.25228 0.33916 0.43532
 H3036 H 0.22112 0.38241 0.37366
 H3037 H 0.21881 0.39649 0.41098
 H3038 H 0.23212 0.35331 0.34806
 H3039 H 0.26596 0.31246 0.41043
 H3040 H 0.27799 0.28421 0.38556
 H3041 H 0.27775 0.26799 0.34933
 H3042 H 0.24161 0.32315 0.32336
 C3043 C 0.75223 0.85874 0.93221
 C3044 C 0.75508 0.84491 0.91415
 C3045 C 0.75382 0.82213 0.91675
 C3046 C 0.75011 0.81359 0.93745
 C3047 C 0.74770 0.82747 0.95539
 C3048 C 0.74861 0.85005 0.95284
 C3049 C 0.75624 0.80828 0.89865
 C3050 C 0.75991 0.81690 0.87796
 C3051 C 0.76162 0.83965 0.87550
 C3052 C 0.75922 0.85349 0.89358
 C3053 C 0.76523 0.84824 0.85485
 C3054 C 0.76623 0.83455 0.83664
 C3055 C 0.76384 0.81195 0.83870
 C3056 C 0.76127 0.80318 0.85958
 H3057 H 0.75322 0.87621 0.93037
 H3058 H 0.74920 0.79620 0.93978
 H3059 H 0.74509 0.82061 0.97131
 H3060 H 0.75501 0.79084 0.90062
 H3061 H 0.76032 0.87094 0.89160
 H3062 H 0.76673 0.86562 0.85268
 H3063 H 0.76836 0.84176 0.82079
 H3064 H 0.75927 0.78581 0.86140
 C3065 C 0.77514 0.83993 0.08334
 C3066 C 0.77140 0.83060 0.10368
 C3067 C 0.78100 0.83998 0.12281
 C3068 C 0.79394 0.85868 0.12129
 C3069 C 0.79766 0.86780 0.10096
 C3070 C 0.78844 0.85846 0.08180
 C3071 C 0.77779 0.83035 0.14310
 C3072 C 0.76533 0.81131 0.14446
 C3073 C 0.75554 0.80206 0.12536
 C3074 C 0.75854 0.81183 0.10510
 C3075 C 0.74322 0.78296 0.12679
 C3076 C 0.74105 0.77279 0.14689
 C3077 C 0.75105 0.78160 0.16596
 C3078 C 0.76290 0.80112 0.16460
 H3079 H 0.76817 0.83243 0.06865
 H3080 H 0.80134 0.86613 0.13580
 H3081 H 0.80771 0.88225 0.10021
 H3082 H 0.78530 0.83746 0.15776
 H3083 H 0.75117 0.80464 0.09041
 H3084 H 0.73554 0.77569 0.11232
 H3085 H 0.73172 0.75787 0.14742
 H3086 H 0.77071 0.80816 0.17913
 C3087 C 0.27664 0.34183 0.57581
 C3088 C 0.27182 0.32863 0.59348
 C3089 C 0.25864 0.30995 0.59019
 C3090 C 0.25039 0.30494 0.56912
 C3091 C 0.25532 0.31821 0.55152
 C3092 C 0.26862 0.33667 0.55471
 C3093 C 0.25398 0.29667 0.60798
 C3094 C 0.26236 0.30192 0.62898
 C3095 C 0.27546 0.32071 0.63210
 C3096 C 0.28009 0.33390 0.61438
 C3097 C 0.28377 0.32612 0.65293
 C3098 C 0.27913 0.31314 0.67064
 C3099 C 0.26613 0.29438 0.66795
 C3100 C 0.25784 0.28879 0.64696
 H3101 H 0.28653 0.35627 0.57853
 H3102 H 0.24025 0.29071 0.56623
 H3103 H 0.24905 0.31386 0.53535
 H3104 H 0.24389 0.28232 0.60549
 H3105 H 0.29017 0.34827 0.61687
 H3106 H 0.29384 0.34045 0.65556
 H3107 H 0.28586 0.31788 0.68653
 H3108 H 0.24773 0.27444 0.64464
 C3109 C 0.72714 0.16735 0.57015
 C3110 C 0.72931 0.18057 0.58889
 C3111 C 0.71510 0.19867 0.59146
 C3112 C 0.69911 0.20333 0.57517
 C3113 C 0.69676 0.18985 0.55683
 C3114 C 0.71056 0.17165 0.55425
 C3115 C 0.71662 0.21142 0.61053
 C3116 C 0.73166 0.20588 0.62743
 C3117 C 0.74593 0.18781 0.62483
 C3118 C 0.74493 0.17552 0.60544
 C3119 C 0.76038 0.18180 0.64205
 C3120 C 0.76002 0.19297 0.66195
 C3121 C 0.74574 0.21071 0.66471
 C3122 C 0.73195 0.21748 0.64730
 H3123 H 0.73773 0.15323 0.56833
 H3124 H 0.68810 0.21714 0.57684
 H3125 H 0.68404 0.19357 0.54463
 H3126 H 0.70557 0.22516 0.61255
 H3127 H 0.75574 0.16157 0.60357
 H3128 H 0.77136 0.16797 0.64039
 H3129 H 0.77055 0.18749 0.67542
 H3130 H 0.72062 0.23094 0.64965
 C3131 C 0.22781 0.64807 0.07497
 C3132 C 0.23256 0.66000 0.09415
 C3133 C 0.24332 0.68025 0.09296
 C3134 C 0.24958 0.68796 0.07260
 C3135 C 0.24496 0.67587 0.05359
 C3136 C 0.23383 0.65597 0.05457
 C3137 C 0.24745 0.69252 0.11208
 C3138 C 0.24097 0.68476 0.13239
 C3139 C 0.23069 0.66426 0.13354
 C3140 C 0.22656 0.65203 0.11446
 C3141 C 0.22437 0.65641 0.15377
 C3142 C 0.22762 0.66895 0.17264
 C3143 C 0.23727 0.68966 0.17177
 C3144 C 0.24425 0.69731 0.15151
 H3145 H 0.21951 0.63256 0.07589
 H3146 H 0.25791 0.70341 0.07135
 H3147 H 0.24970 0.68228 0.03802
 H3148 H 0.25546 0.70818 0.11112
 H3149 H 0.21844 0.63643 0.11540
 H3150 H 0.21659 0.64068 0.15496
 H3151 H 0.22216 0.66249 0.18793
 H3152 H 0.25176 0.71319 0.15052
 C3153 C 0.16413 0.58328 0.72318
 C3154 C 0.17586 0.60200 0.72961
 C3155 C 0.19633 0.60000 0.74114
 C3156 C 0.20447 0.57927 0.74638
 C3157 C 0.19254 0.56073 0.74018
 C3158 C 0.17237 0.56254 0.72840
 C3159 C 0.20830 0.61873 0.74716
 C3160 C 0.20000 0.63945 0.74192
 C3161 C 0.17930 0.64135 0.73079
 C3162 C 0.16742 0.62267 0.72468
 C3163 C 0.17084 0.66193 0.72573
 C3164 C 0.18289 0.68051 0.73117
 C3165 C 0.20377 0.67902 0.74178
 C3166 C 0.21212 0.65832 0.74737
 H3167 H 0.14844 0.58483 0.71436
 H3168 H 0.22008 0.57738 0.75526
 H3169 H 0.19922 0.54488 0.74429
 H3170 H 0.22410 0.61717 0.75581
 H3171 H 0.15166 0.62422 0.71598
 H3172 H 0.15496 0.66367 0.71731
 H3173 H 0.17587 0.69611 0.72670
 H3174 H 0.22814 0.65684 0.75556
 C3175 C 0.65571 0.07651 0.24089
 C3176 C 0.66748 0.09569 0.24550
 C3177 C 0.68754 0.09477 0.25783
 C3178 C 0.69517 0.07472 0.26580
 C3179 C 0.68335 0.05569 0.26115
 C3180 C 0.66370 0.05633 0.24839
 C3181 C 0.69979 0.11383 0.26167
 C3182 C 0.69224 0.13380 0.25329
 C3183 C 0.67190 0.13471 0.24141
 C3184 C 0.65965 0.11570 0.23764
 C3185 C 0.66424 0.15459 0.23318
 C3186 C 0.67678 0.17336 0.23620
 C3187 C 0.69733 0.17274 0.24751
 C3188 C 0.70483 0.15283 0.25627
 H3189 H 0.64042 0.07724 0.23129
 H3190 H 0.71048 0.07368 0.27533
 H3191 H 0.68995 0.04035 0.26697
 H3192 H 0.71532 0.11307 0.27090
 H3193 H 0.64419 0.11644 0.22828
 H3194 H 0.64864 0.15558 0.22414
 H3195 H 0.67044 0.18836 0.22930
 H3196 H 0.72057 0.15203 0.26509
 C3197 C 0.83767 0.07530 0.75102
 C3198 C 0.82973 0.09634 0.74695
 C3199 C 0.84217 0.11445 0.75445
 C3200 C 0.86252 0.11126 0.76539
 C3201 C 0.87003 0.09028 0.76980
 C3202 C 0.85750 0.07222 0.76301
 C3203 C 0.83365 0.13543 0.75180
 C3204 C 0.81249 0.13850 0.74256
 C3205 C 0.80021 0.12052 0.73457
 C3206 C 0.80910 0.09953 0.73645
 C3207 C 0.77885 0.12380 0.72576
 C3208 C 0.76926 0.14450 0.72611
 C3209 C 0.78103 0.16226 0.73501
 C3210 C 0.80298 0.15921 0.74237
 H3211 H 0.82793 0.06135 0.74587
 H3212 H 0.87228 0.12496 0.77114
 H3213 H 0.88553 0.08812 0.77879
 H3214 H 0.84303 0.14927 0.75792
 H3215 H 0.79955 0.08566 0.73070
 H3216 H 0.76924 0.11023 0.71942
 H3217 H 0.75238 0.14642 0.72013
 H3218 H 0.81239 0.17277 0.74907
 C3219 C 0.33422 0.56933 0.26501
 C3220 C 0.32524 0.59036 0.26305
 C3221 C 0.33815 0.60854 0.26942
 C3222 C 0.35980 0.60542 0.27745
 C3223 C 0.36853 0.58449 0.27950
 C3224 C 0.35583 0.56624 0.27348
 C3225 C 0.32917 0.62953 0.26789
 C3226 C 0.30736 0.63263 0.26023
 C3227 C 0.29446 0.61452 0.25373
 C3228 C 0.30349 0.59349 0.25511
 C3229 C 0.27265 0.61775 0.24613
 C3230 C 0.26363 0.63869 0.24516
 C3231 C 0.27623 0.65685 0.25177
 C3232 C 0.29820 0.65361 0.25917
 H3233 H 0.32424 0.55536 0.26048
 H3234 H 0.36994 0.61917 0.28231
 H3235 H 0.38532 0.58256 0.28574
 H3236 H 0.33908 0.64343 0.27286
 H3237 H 0.29355 0.57959 0.25021
 H3238 H 0.26252 0.60407 0.24103
 H3239 H 0.24670 0.64062 0.23933
 H3240 H 0.30821 0.66738 0.26428
 C3241 C 0.35056 0.41610 0.23484
 C3242 C 0.33728 0.39811 0.23932
 C3243 C 0.31450 0.40115 0.24280
 C3244 C 0.30546 0.42216 0.24194
 C3245 C 0.31887 0.44000 0.23795
 C3246 C 0.34148 0.43715 0.23435
 C3247 C 0.30117 0.38320 0.24721
 C3248 C 0.31034 0.36222 0.24839
 C3249 C 0.33319 0.35927 0.24525
 C3250 C 0.34647 0.37718 0.24068
 C3251 C 0.34238 0.33838 0.24650
 C3252 C 0.32903 0.32047 0.25023
 C3253 C 0.30617 0.32300 0.25288
 C3254 C 0.29700 0.34408 0.25231
 H3255 H 0.36807 0.41386 0.23240
 H3256 H 0.28806 0.42482 0.24461
 H3257 H 0.31161 0.45611 0.23771
 H3258 H 0.28368 0.38555 0.24971
 H3259 H 0.36396 0.37483 0.23817
 H3260 H 0.35986 0.33583 0.24426
 H3261 H 0.33664 0.30451 0.25067
 H3262 H 0.27942 0.34633 0.25421
 C3263 C 0.85394 0.92224 0.72988
 C3264 C 0.84029 0.90463 0.73464
 C3265 C 0.81753 0.90822 0.73785
 C3266 C 0.80878 0.92927 0.73606
 C3267 C 0.82254 0.94671 0.73181
 C3268 C 0.84518 0.94337 0.72888
 C3269 C 0.80394 0.89082 0.74319
 C3270 C 0.81280 0.86986 0.74554
 C3271 C 0.83553 0.86622 0.74229
 C3272 C 0.84912 0.88361 0.73682
 C3273 C 0.84426 0.84520 0.74451
 C3274 C 0.83057 0.82789 0.74956
 C3275 C 0.80792 0.83128 0.75271
 C3276 C 0.79922 0.85243 0.75090
 H3277 H 0.87149 0.91971 0.72795
 H3278 H 0.79139 0.93231 0.73847
 H3279 H 0.81561 0.96296 0.73120
 H3280 H 0.78651 0.89363 0.74568
 H3281 H 0.86656 0.88082 0.73441
 H3282 H 0.86163 0.84210 0.74211
 H3283 H 0.83772 0.81177 0.75086
 H3284 H 0.78175 0.85527 0.75306
 C3285 C 0.66695 0.91613 0.26090
 C3286 C 0.67324 0.89441 0.25711
 C3287 C 0.65916 0.87739 0.26319
 C3288 C 0.63889 0.88233 0.27245
 C3289 C 0.63285 0.90390 0.27630
 C3290 C 0.64692 0.92100 0.27093
 C3291 C 0.66574 0.85569 0.26035
 C3292 C 0.68637 0.85072 0.25177
 C3293 C 0.70028 0.86769 0.24529
 C3294 C 0.69358 0.88942 0.24787
 C3295 C 0.72091 0.86263 0.23678
 C3296 C 0.72801 0.84104 0.23538
 C3297 C 0.71459 0.82401 0.24236
 C3298 C 0.69354 0.82904 0.25015
 H3299 H 0.67797 0.92917 0.25677
 H3300 H 0.62782 0.86950 0.27704
 H3301 H 0.61714 0.90723 0.28362
 H3302 H 0.65502 0.84269 0.26528
 H3303 H 0.70439 0.90243 0.24314
 H3304 H 0.73175 0.87541 0.23162
 H3305 H 0.74424 0.83774 0.22920
 H3306 H 0.68295 0.81617 0.25558
 C3307 C 0.16600 0.42438 0.74834
 C3308 C 0.17253 0.40254 0.74674
 C3309 C 0.15750 0.38589 0.75158
 C3310 C 0.13603 0.39144 0.75752
 C3311 C 0.12969 0.41324 0.75918
 C3312 C 0.14467 0.42993 0.75488
 C3313 C 0.16430 0.36405 0.75075
 C3314 C 0.18601 0.35867 0.74533
 C3315 C 0.20086 0.37539 0.74019
 C3316 C 0.19402 0.39715 0.74084
 C3317 C 0.22249 0.37012 0.73478
 C3318 C 0.22957 0.34857 0.73485
 C3319 C 0.21518 0.33170 0.74030
 C3320 C 0.19325 0.33691 0.74530
 H3321 H 0.17778 0.43708 0.74521
 H3322 H 0.12423 0.37893 0.76114
 H3323 H 0.11304 0.41707 0.76391
 H3324 H 0.15283 0.35131 0.75466
 H3325 H 0.20554 0.40991 0.73709
 H3326 H 0.23404 0.38272 0.73072
 H3327 H 0.24651 0.34518 0.73078
 H3328 H 0.18194 0.32413 0.74948
 C3329 C 0.07671 0.76380 0.83865
 C3330 C 0.09824 0.76356 0.83086
 C3331 C 0.11602 0.77060 0.84458
 C3332 C 0.11195 0.77766 0.86589
 C3333 C 0.09045 0.77805 0.87344
 C3334 C 0.07265 0.77126 0.85989
 C3335 C 0.13752 0.77065 0.83674
 C3336 C 0.14147 0.76393 0.81528
 C3337 C 0.12368 0.75689 0.80158
 C3338 C 0.10221 0.75668 0.80946
 C3339 C 0.12764 0.75027 0.78014
 C3340 C 0.14899 0.75065 0.77227
 C3341 C 0.16688 0.75763 0.78568
 C3342 C 0.16292 0.76423 0.80726
 H3343 H 0.06303 0.75870 0.82805
 H3344 H 0.12536 0.78304 0.87666
 H3345 H 0.08772 0.78360 0.88996
 H3346 H 0.15113 0.77607 0.84728
 H3347 H 0.08859 0.75132 0.79891
 H3348 H 0.11422 0.74482 0.76942
 H3349 H 0.15145 0.74541 0.75560
 H3350 H 0.17649 0.76962 0.81784
 C3351 C 0.58012 0.27699 0.34460
 C3352 C 0.60087 0.27399 0.33562
 C3353 C 0.62014 0.27800 0.34854
 C3354 C 0.61827 0.28488 0.37028
 C3355 C 0.59749 0.28767 0.37916
 C3356 C 0.57824 0.28371 0.36644
 C3357 C 0.64093 0.27504 0.33955
 C3358 C 0.64266 0.26804 0.31783
 C3359 C 0.62337 0.26392 0.30496
 C3360 C 0.60260 0.26698 0.31392
 C3361 C 0.62519 0.25680 0.28332
 C3362 C 0.64593 0.25390 0.27442
 C3363 C 0.66524 0.25812 0.28699
 C3364 C 0.66341 0.26513 0.30877
 H3365 H 0.56539 0.27424 0.33452
 H3366 H 0.63287 0.28796 0.38044
 H3367 H 0.59650 0.29258 0.39611
 H3368 H 0.65573 0.27816 0.34944
 H3369 H 0.58780 0.26386 0.30403
 H3370 H 0.61057 0.25353 0.27325
 H3371 H 0.64681 0.24850 0.25761
 H3372 H 0.67813 0.26837 0.31873
 C3373 C 0.57147 0.73440 0.15224
 C3374 C 0.59014 0.73852 0.16573
 C3375 C 0.58818 0.73917 0.18867
 C3376 C 0.56739 0.73626 0.19766
 C3377 C 0.54881 0.73263 0.18407
 C3378 C 0.55078 0.73145 0.16134
 C3379 C 0.60701 0.74256 0.20219
 C3380 C 0.62777 0.74536 0.19305
 C3381 C 0.62949 0.74534 0.17007
 C3382 C 0.61071 0.74195 0.15660
 C3383 C 0.65010 0.74814 0.16086
 C3384 C 0.66904 0.74983 0.17420
 C3385 C 0.66779 0.74896 0.19705
 C3386 C 0.64697 0.74741 0.20644
 H3387 H 0.57291 0.73379 0.13465
 H3388 H 0.56551 0.73684 0.21518
 H3389 H 0.53287 0.73055 0.19128
 H3390 H 0.60556 0.74270 0.21979
 H3391 H 0.61218 0.74165 0.13900
 H3392 H 0.65168 0.74835 0.14330
 H3393 H 0.68485 0.75121 0.16656
 H3394 H 0.64584 0.74656 0.22403
 C3395 C 0.07473 0.24275 0.64726
 C3396 C 0.09435 0.24848 0.65854
 C3397 C 0.09343 0.25846 0.67936
 C3398 C 0.07286 0.26325 0.68817
 C3399 C 0.05339 0.25759 0.67678
 C3400 C 0.05417 0.24694 0.65646
 C3401 C 0.11303 0.26298 0.69125
 C3402 C 0.13354 0.25748 0.68264
 C3403 C 0.13445 0.24823 0.66149
 C3404 C 0.11487 0.24388 0.64953
 C3405 C 0.15494 0.24283 0.65290
 C3406 C 0.17430 0.24556 0.66551
 C3407 C 0.17359 0.25382 0.68697
 C3408 C 0.15311 0.26035 0.69517
 H3409 H 0.07540 0.23479 0.63144
 H3410 H 0.07182 0.27099 0.70406
 H3411 H 0.03769 0.26092 0.68414
 H3412 H 0.11230 0.27023 0.70741
 H3413 H 0.11559 0.23639 0.63348
 H3414 H 0.15595 0.23588 0.63665
 H3415 H 0.18977 0.24048 0.65866
 H3416 H 0.15223 0.26682 0.71163
 C3417 C 0.91193 0.25337 0.65778
 C3418 C 0.89045 0.25065 0.66514
 C3419 C 0.87219 0.25801 0.65226
 C3420 C 0.87572 0.26720 0.63185
 C3421 C 0.89716 0.27010 0.62478
 C3422 C 0.91545 0.26372 0.63791
 C3423 C 0.85081 0.25672 0.66030
 C3424 C 0.84751 0.24848 0.68120
 C3425 C 0.86575 0.24054 0.69374
 C3426 C 0.88704 0.24154 0.68559
 C3427 C 0.86251 0.23221 0.71453
 C3428 C 0.84152 0.23229 0.72314
 C3429 C 0.82325 0.24072 0.71117
 C3430 C 0.82635 0.24851 0.69000
 H3431 H 0.92594 0.24857 0.66808
 H3432 H 0.86194 0.27276 0.62167
 H3433 H 0.89952 0.27785 0.60923
 H3434 H 0.83686 0.26271 0.65058
 H3435 H 0.90103 0.23580 0.69542
 H3436 H 0.87628 0.22596 0.72430
 H3437 H 0.83973 0.22604 0.73944
 H3438 H 0.81244 0.25489 0.68051
 C3439 C 0.41270 0.74910 0.15942
 C3440 C 0.39106 0.74511 0.16579
 C3441 C 0.37306 0.75404 0.15362
 C3442 C 0.37699 0.76633 0.13502
 C3443 C 0.39857 0.77036 0.12891
 C3444 C 0.41663 0.76210 0.14119
 C3445 C 0.35148 0.75109 0.16059
 C3446 C 0.34768 0.73977 0.17985
 C3447 C 0.36560 0.73043 0.19177
 C3448 C 0.38717 0.73295 0.18453
 C3449 C 0.36171 0.71939 0.21117
 C3450 C 0.34043 0.71857 0.21928
 C3451 C 0.32260 0.72854 0.20800
 C3452 C 0.32631 0.73851 0.18788
 H3453 H 0.42649 0.74281 0.16913
 H3454 H 0.36339 0.77316 0.12543
 H3455 H 0.40115 0.78008 0.11458
 H3456 H 0.33773 0.75824 0.15143
 H3457 H 0.40095 0.72606 0.19386
 H3458 H 0.37522 0.71202 0.22045
 H3459 H 0.33807 0.71066 0.23474
 H3460 H 0.31278 0.74632 0.17898
 C3461 C 0.42708 0.24190 0.35170
 C3462 C 0.40818 0.24457 0.33831
 C3463 C 0.41007 0.25249 0.31687
 C3464 C 0.43095 0.25798 0.30939
 C3465 C 0.44975 0.25538 0.32295
 C3466 C 0.44796 0.24708 0.34409
 C3467 C 0.39110 0.25463 0.30330
 C3468 C 0.37031 0.24899 0.31099
 C3469 C 0.36857 0.24146 0.33261
 C3470 C 0.38746 0.23930 0.34608
 C3471 C 0.34794 0.23601 0.34046
 C3472 C 0.32916 0.23766 0.32699
 C3473 C 0.33053 0.24475 0.30529
 C3474 C 0.35124 0.25058 0.29743
 H3475 H 0.42554 0.23585 0.36815
 H3476 H 0.43275 0.26415 0.29305
 H3477 H 0.46575 0.25944 0.31678
 H3478 H 0.39252 0.26053 0.28679
 H3479 H 0.38604 0.23334 0.36259
 H3480 H 0.34634 0.23031 0.35701
 H3481 H 0.31350 0.23313 0.33363
 H3482 H 0.35257 0.25618 0.28081
 C3483 C 0.93011 0.73618 0.84808
 C3484 C 0.91022 0.73762 0.83586
 C3485 C 0.90607 0.72296 0.81834
 C3486 C 0.92169 0.70677 0.81374
 C3487 C 0.94128 0.70518 0.82630
 C3488 C 0.94574 0.71999 0.84338
 C3489 C 0.88633 0.72463 0.80584
 C3490 C 0.87041 0.74036 0.81107
 C3491 C 0.87435 0.75459 0.82901
 C3492 C 0.89434 0.75335 0.84106
 C3493 C 0.85804 0.76962 0.83486
 C3494 C 0.83789 0.77036 0.82325
 C3495 C 0.83397 0.75660 0.80522
 C3496 C 0.85037 0.74178 0.79898
 H3497 H 0.93339 0.74749 0.86144
 H3498 H 0.91875 0.69531 0.80046
 H3499 H 0.95317 0.69263 0.82244
 H3500 H 0.88322 0.71350 0.79230
 H3501 H 0.89741 0.76440 0.85468
 H3502 H 0.86073 0.78054 0.84863
 H3503 H 0.82532 0.78179 0.82828
 H3504 H 0.84718 0.73089 0.78526
   
