data_POSCAR
  _audit_creation_date              2014-09-24
  _audit_creation_method            'ToBaCCo'
  _symmetry_space_group_name_H-M    'P1'
  _symmetry_Int_Tables_number       1
  _symmetry_cell_setting            triclinic
  loop_
  _symmetry_equiv_pos_as_xyz
 x,y,z
_cell_length_a 94.0986
_cell_length_b 93.7219
_cell_length_c 93.4573
_cell_angle_alpha 89.870700
_cell_angle_beta 90.316500
_cell_angle_gamma 90.088900
loop_
  _atom_site_label
  _atom_site_type_symbol
  _atom_site_fract_x
  _atom_site_fract_y
  _atom_site_fract_z
N1 N 0.33189 0.41833 0.91773
 N2 N 0.41332 0.83748 0.41329
 N3 N 0.89372 0.89253 0.85494
 N4 N 0.40451 -0.09692 0.34604
 N5 N 0.83462 0.33149 0.33186
 N6 N -0.14284 0.85500 0.85547
 N7 N 0.91963 0.33052 0.41795
 N8 N 0.41620 0.41709 0.83054
 N9 N 0.85499 0.89410 0.89372
 N10 N 0.34478 0.84154 0.34492
 N11 N 0.80100 0.44848 0.44910
 N12 N 0.89288 0.85450 -0.10630
 N13 N 0.33078 0.33094 0.82865
 N14 N 0.15731 0.59141 0.58810
 N15 N 0.58157 0.67489 0.07720
 N16 N 0.67194 0.16798 0.67240
 N17 N 1.07942 0.07512 0.16720
 N18 N 0.07982 0.16597 1.07680
 N19 N 0.16380 0.67140 0.66884
 N20 N 1.16996 0.16674 0.16977
 N21 N 0.67366 1.07779 0.57977
 N22 N 0.58106 0.57964 0.17110
 N23 N 0.67166 0.67280 0.16848
 N24 N 0.16830 0.07633 1.07677
 N25 N 0.57923 0.17093 0.57774
 N26 N 0.08012 0.58719 0.66708
 N27 N 0.67127 0.58278 0.08079
 N28 N 0.08146 0.66911 0.58538
 N29 N 0.58106 1.07694 0.67341
 N30 N 0.41763 0.33305 0.91948
 N31 N 0.91929 0.41656 0.33074
 N32 N 0.34668 0.90355 0.40542
 O33 O 0.24985 0.48237 0.78730
 O34 O 0.22549 0.48448 0.78320
 O35 O 0.26584 0.46262 0.74949
 O36 O 0.26557 0.46686 0.72581
 O37 O 0.28665 0.49964 0.76680
 O38 O 0.28179 0.52463 0.76568
 O39 O 0.22833 0.50216 0.71247
 O40 O 0.23126 0.47755 0.71622
 O41 O 0.21157 0.52005 0.74865
 O42 O 0.21702 0.51852 0.77467
 O43 O 0.24696 0.53808 0.73049
 O44 O 0.27270 0.53296 0.73109
 O45 O 0.24564 0.51922 0.71205
 O46 O 0.27229 0.51706 0.71630
 O47 O 0.23040 0.53837 0.74816
 O48 O 0.23300 0.53317 0.77466
 O49 O 0.21091 0.50311 0.73122
 O50 O 0.21505 0.47702 0.73618
 O51 O 0.26702 0.49962 0.78704
 O52 O 0.26609 0.52500 0.78164
 O53 O 0.28603 0.48248 0.74957
 O54 O 0.27963 0.48502 0.72380
 O55 O 0.24952 0.46287 0.76742
 O56 O 0.22381 0.46879 0.76460
 Zr57 Zr 0.24080 0.48357 0.76671
 O58 O 0.22699 0.49654 0.75457
 Zr59 Zr 0.26526 0.48346 0.74108
 O60 O 0.25225 0.49602 0.72765
 Zr61 Zr 0.26610 0.50848 0.76628
 O62 O 0.25350 0.52238 0.75381
 Zr63 Zr 0.23077 0.49291 0.73278
 O64 O 0.24367 0.47882 0.74487
 Zr65 Zr 0.23195 0.51813 0.75781
 O66 O 0.24460 0.50525 0.77139
 Zr67 Zr 0.25615 0.51767 0.73198
 O68 O 0.27027 0.50510 0.74443
 O69 O 0.26226 0.48697 0.76275
 O70 O 0.23473 0.51449 0.73611
 C71 C 0.25994 0.48958 0.79315
 C72 C 0.25906 0.45673 0.75983
 C73 C 0.29232 0.48958 0.75950
 C74 C 0.23494 0.51261 0.70660
 C75 C 0.20554 0.51357 0.73817
 C76 C 0.23686 0.54398 0.73748
 H77 H 0.21700 0.49435 0.75702
 H78 H 0.25603 0.53238 0.75599
 H79 H 0.26841 0.48079 0.76875
 H80 H 0.25400 0.49363 0.71751
 H81 H 0.23422 0.46844 0.72072
 H82 H 0.25831 0.46921 0.71850
 H83 H 0.24082 0.53991 0.77255
 H84 H 0.25688 0.52437 0.78667
 H85 H 0.20812 0.47761 0.72817
 H86 H 0.22483 0.46135 0.77210
 H87 H 0.27214 0.53886 0.73983
 H88 H 0.28587 0.52440 0.75594
 H89 H 0.22576 0.49431 0.78704
 H90 H 0.21068 0.51017 0.77352
 H91 H 0.28540 0.49372 0.72540
 H92 H 0.26996 0.50929 0.70953
 O93 O 0.21312 0.01471 0.24740
 O94 O 0.21805 0.01287 0.27181
 O95 O 0.25029 0.03391 0.22957
 O96 O 0.27363 0.02941 0.22848
 O97 O 0.23175 -0.00355 0.21007
 O98 O 0.23290 -0.02843 0.21557
 O99 O 0.28805 -0.00518 0.26663
 O100 O 0.28435 0.01963 0.26308
 O101 O 0.25313 -0.02274 0.28516
 O102 O 0.22682 -0.02079 0.28095
 O103 O 0.26951 -0.04108 0.24965
 O104 O 0.26747 -0.03670 0.22342
 O105 O 0.28757 -0.02268 0.24971
 O106 O 0.28240 -0.02066 0.22281
 O107 O 0.25264 -0.04098 0.26704
 O108 O 0.22609 -0.03597 0.26512
 O109 O 0.27059 -0.00589 0.28460
 O110 O 0.26529 0.02028 0.28043
 O111 O 0.21255 -0.00293 0.23059
 O112 O 0.21770 -0.02833 0.23209
 O113 O 0.24892 0.01362 0.20955
 O114 O 0.27486 0.01101 0.21498
 O115 O 0.23317 0.03408 0.24673
 O116 O 0.23669 0.02849 0.27257
 Zr117 Zr 0.23389 0.01349 0.25581
 O118 O 0.24646 0.00078 0.26953
 Zr119 Zr 0.25831 0.01298 0.23009
 O120 O 0.27214 0.00067 0.24292
 Zr121 Zr 0.23310 -0.01193 0.23095
 O122 O 0.24592 -0.02563 0.24342
 Zr123 Zr 0.26793 0.00426 0.26467
 O124 O 0.25547 0.01808 0.25186
 Zr125 Zr 0.24287 -0.02090 0.26516
 O126 O 0.22895 -0.00824 0.25270
 Zr127 Zr 0.26749 -0.02103 0.23969
 O128 O 0.25461 -0.00873 0.22571
 O129 O 0.23691 0.00965 0.23413
 O130 O 0.26424 -0.01730 0.26125
 C131 C 0.20686 0.00734 0.23763
 C132 C 0.24045 0.04002 0.23677
 C133 C 0.23877 0.00640 0.20381
 C134 C 0.29339 -0.01600 0.26022
 C135 C 0.26408 -0.01643 0.29042
 C136 C 0.26317 -0.04658 0.26046
 H137 H 0.24451 0.00313 0.27965
 H138 H 0.24362 -0.03569 0.24126
 H139 H 0.23079 0.01578 0.22806
 H140 H 0.28214 0.00297 0.24070
 H141 H 0.27974 0.02873 0.26031
 H142 H 0.28084 0.02754 0.23597
 H143 H 0.22803 -0.04303 0.25753
 H144 H 0.21315 -0.02748 0.24158
 H145 H 0.27355 0.01974 0.28703
 H146 H 0.22925 0.03594 0.27168
 H147 H 0.25907 -0.04288 0.22488
 H148 H 0.24244 -0.02845 0.21117
 H149 H 0.21431 0.00300 0.27200
 H150 H 0.22864 -0.01261 0.28738
 H151 H 0.27291 0.00225 0.20940
 H152 H 0.28960 -0.01328 0.22504
 O153 O 0.53877 0.73293 0.24782
 O154 O 0.53442 0.73422 0.27233
 O155 O 0.50120 0.71408 0.23017
 O156 O 0.47780 0.71854 0.22967
 O157 O 0.51918 0.75187 0.21101
 O158 O 0.51823 0.77663 0.21688
 O159 O 0.46438 0.75244 0.26844
 O160 O 0.46787 0.72782 0.26450
 O161 O 0.50013 0.76933 0.28687
 O162 O 0.52606 0.76795 0.28194
 O163 O 0.48253 0.78869 0.25163
 O164 O 0.48382 0.78474 0.22538
 O165 O 0.46432 0.77012 0.25163
 O166 O 0.46891 0.76884 0.22477
 O167 O 0.49970 0.78821 0.26889
 O168 O 0.52624 0.78332 0.26636
 O169 O 0.48262 0.75253 0.28632
 O170 O 0.48745 0.72657 0.28137
 O171 O 0.53895 0.75087 0.23125
 O172 O 0.53380 0.77626 0.23319
 O173 O 0.50197 0.73474 0.21051
 O174 O 0.47622 0.73721 0.21636
 O175 O 0.51876 0.71358 0.24706
 O176 O 0.51580 0.71859 0.27304
 Zr177 Zr 0.51822 0.73396 0.25650
 O178 O 0.50605 0.74643 0.27059
 Zr179 Zr 0.49315 0.73497 0.23120
 O180 O 0.47968 0.74704 0.24442
 Zr181 Zr 0.51840 0.75985 0.23203
 O182 O 0.50589 0.77332 0.24489
 Zr183 Zr 0.48444 0.74304 0.26604
 O184 O 0.49654 0.72944 0.25284
 Zr185 Zr 0.50950 0.76819 0.26651
 O186 O 0.52310 0.75575 0.25366
 Zr187 Zr 0.48423 0.76879 0.24145
 O188 O 0.49674 0.75676 0.22709
 O189 O 0.51465 0.73822 0.23494
 O190 O 0.48801 0.76470 0.26294
 C191 C 0.54481 0.74048 0.23809
 C192 C 0.51125 0.70785 0.23709
 C193 C 0.51197 0.74205 0.20472
 C194 C 0.45876 0.76323 0.26210
 C195 C 0.48948 0.76275 0.29232
 C196 C 0.48910 0.79401 0.26244
 H197 H 0.50830 0.74385 0.28061
 H198 H 0.50814 0.78341 0.24283
 H199 H 0.52062 0.73223 0.22869
 H200 H 0.46962 0.74478 0.24232
 H201 H 0.47232 0.71878 0.26140
 H202 H 0.47065 0.72042 0.23713
 H203 H 0.52402 0.79057 0.25897
 H204 H 0.53862 0.77521 0.24258
 H205 H 0.47937 0.72693 0.28813
 H206 H 0.52321 0.71116 0.27192
 H207 H 0.49234 0.79081 0.22669
 H208 H 0.50858 0.77672 0.21260
 H209 H 0.53836 0.74402 0.27246
 H210 H 0.52482 0.75932 0.28792
 H211 H 0.47801 0.74608 0.21089
 H212 H 0.46197 0.76116 0.22676
 O213 O -0.00087 0.71492 0.73420
 O214 O -0.02528 0.71889 0.73578
 O215 O 0.01554 0.75229 0.71398
 O216 O 0.01532 0.77595 0.71765
 O217 O 0.03567 0.73579 0.75193
 O218 O 0.03045 0.73719 0.77678
 O219 O -0.02273 0.78955 0.75236
 O220 O -0.01925 0.78542 0.72737
 O221 O -0.03944 0.75410 0.77086
 O222 O -0.03419 0.72796 0.76968
 O223 O -0.00485 0.77308 0.78841
 O224 O 0.02144 0.77166 0.78417
 O225 O -0.00569 0.79034 0.76982
 O226 O 0.02126 0.78645 0.76766
 O227 O -0.02163 0.75554 0.78879
 O228 O -0.01795 0.72845 0.78478
 O229 O -0.03960 0.77153 0.75382
 O230 O -0.03589 0.76558 0.72753
 O231 O 0.01606 0.71556 0.75180
 O232 O 0.01452 0.72134 0.77722
 O233 O 0.03539 0.75262 0.73429
 O234 O 0.02890 0.77848 0.73608
 O235 O -0.00084 0.73434 0.71427
 O236 O -0.02668 0.73727 0.71964
 Zr237 Zr -0.00993 0.73540 0.73483
 O238 O -0.02393 0.74764 0.74735
 Zr239 Zr 0.01462 0.76107 0.73464
 O240 O 0.00146 0.77467 0.74665
 Zr241 Zr 0.01498 0.73637 0.76032
 O242 O 0.00228 0.74904 0.77378
 Zr243 Zr -0.02000 0.76931 0.74327
 O244 O -0.00692 0.75710 0.72965
 Zr245 Zr -0.01920 0.74481 0.76917
 O246 O -0.00647 0.73111 0.75674
 Zr247 Zr 0.00513 0.77070 0.76850
 O248 O 0.01935 0.75809 0.75648
 O249 O 0.01147 0.73952 0.73861
 O250 O -0.01612 0.76626 0.76488
 C251 C 0.00916 0.70928 0.74168
 C252 C 0.00886 0.74182 0.70817
 C253 C 0.04152 0.74287 0.74176
 C254 C -0.01659 0.79537 0.76318
 C255 C -0.04496 0.76498 0.76460
 C256 C -0.01556 0.76668 0.79396
 H257 H -0.03392 0.74516 0.74509
 H258 H 0.00459 0.74712 0.78393
 H259 H 0.01771 0.73348 0.73267
 H260 H 0.00321 0.78476 0.74408
 H261 H -0.01652 0.78064 0.71835
 H262 H 0.00767 0.78294 0.71941
 H263 H -0.01119 0.73155 0.79230
 H264 H 0.00539 0.71615 0.77635
 H265 H -0.04272 0.77361 0.72799
 H266 H -0.02557 0.72968 0.71235
 H267 H 0.01994 0.76370 0.79096
 H268 H 0.03421 0.74706 0.77679
 H269 H -0.02521 0.71527 0.74573
 H270 H -0.04052 0.72904 0.76127
 H271 H 0.03465 0.77702 0.74486
 H272 H 0.01866 0.79335 0.76007
 O273 O 0.03701 0.01411 -0.00492
 O274 O 0.03213 0.01236 -0.02935
 O275 O 0.00030 0.03409 0.01270
 O276 O -0.02326 0.03021 0.01309
 O277 O 0.01759 -0.00352 0.03257
 O278 O 0.01617 -0.02836 0.02737
 O279 O -0.03807 -0.00469 -0.02466
 O280 O -0.03400 0.02017 -0.02135
 O281 O -0.00335 -0.02294 -0.04246
 O282 O 0.02295 -0.02149 -0.03793
 O283 O -0.02074 -0.04053 -0.00706
 O284 O -0.01853 -0.03602 0.01936
 O285 O -0.03816 -0.02199 -0.00745
 O286 O -0.03330 -0.01972 0.01953
 O287 O -0.00379 -0.04083 -0.02437
 O288 O 0.02307 -0.03655 -0.02167
 O289 O -0.02059 -0.00590 -0.04222
 O290 O -0.01465 0.02035 -0.03842
 O291 O 0.03706 -0.00333 0.01220
 O292 O 0.03136 -0.02871 0.01088
 O293 O 0.00074 0.01391 0.03275
 O294 O -0.02516 0.01191 0.02702
 O295 O 0.01753 0.03384 -0.00434
 O296 O 0.01380 0.02830 -0.03024
 Zr297 Zr 0.01627 0.01327 -0.01339
 O298 O 0.00361 0.00062 -0.02709
 Zr299 Zr -0.00838 0.01339 0.01208
 O300 O -0.02235 0.00122 -0.00073
 Zr301 Zr 0.01633 -0.01200 0.01177
 O302 O 0.00330 -0.02559 -0.00062
 Zr303 Zr -0.01784 0.00454 -0.02248
 O304 O -0.00525 0.01828 -0.00971
 Zr305 Zr 0.00669 -0.02108 -0.02238
 O306 O 0.02075 -0.00852 -0.00998
 Zr307 Zr -0.01819 -0.02053 0.00284
 O308 O -0.00516 -0.00835 0.01676
 O309 O 0.01298 0.00961 0.00829
 O310 O -0.01458 -0.01701 -0.01869
 C311 C 0.04303 0.00675 0.00502
 C312 C 0.01041 0.03994 0.00561
 C313 C 0.01068 0.00656 0.03867
 C314 C -0.04365 -0.01542 -0.01822
 C315 C -0.01427 -0.01664 -0.04780
 C316 C -0.01460 -0.04612 -0.01792
 H317 H 0.00571 0.00284 -0.03721
 H318 H 0.00534 -0.03568 0.00168
 H319 H 0.01919 0.01561 0.01438
 H320 H -0.03234 0.00370 0.00134
 H321 H -0.02926 0.02921 -0.01860
 H322 H -0.03062 0.02820 0.00578
 H323 H 0.02044 -0.04386 -0.01451
 H324 H 0.03613 -0.02789 0.00150
 H325 H -0.02275 0.01978 -0.04522
 H326 H 0.02136 0.03564 -0.02934
 H327 H -0.01054 -0.04265 0.01775
 H328 H 0.00652 -0.02837 0.03153
 H329 H 0.03570 0.00243 -0.02943
 H330 H 0.02143 -0.01332 -0.04447
 H331 H -0.02353 0.00311 0.03267
 H332 H -0.04040 -0.01233 0.01703
 O333 O -0.04200 0.50128 0.48210
 O334 O -0.03757 0.52560 0.48391
 O335 O -0.00469 0.48452 0.46204
 O336 O 0.01878 0.48433 0.46611
 O337 O -0.02176 0.46403 0.49941
 O338 O -0.02034 0.46907 0.52443
 O339 O 0.03295 0.52160 0.50082
 O340 O 0.02869 0.51876 0.47635
 O341 O -0.00255 0.53931 0.51926
 O342 O -0.02844 0.53436 0.51798
 O343 O 0.01496 0.50335 0.53753
 O344 O 0.01439 0.47778 0.53248
 O345 O 0.03335 0.50448 0.51821
 O346 O 0.02867 0.47777 0.51633
 O347 O -0.00244 0.52019 0.53788
 O348 O -0.02870 0.51836 0.53259
 O349 O 0.01445 0.53958 0.50202
 O350 O 0.00913 0.53540 0.47605
 O351 O -0.04171 0.48416 0.49951
 O352 O -0.03597 0.48499 0.52485
 O353 O -0.00478 0.46431 0.48213
 O354 O 0.02088 0.47043 0.48435
 O355 O -0.02239 0.50110 0.46227
 O356 O -0.01927 0.52688 0.46800
 Zr357 Zr -0.02139 0.50996 0.48298
 O358 O -0.00902 0.52373 0.49578
 Zr359 Zr 0.00381 0.48505 0.48287
 O360 O 0.01742 0.49798 0.49524
 Zr361 Zr -0.02093 0.48472 0.50813
 O362 O -0.00824 0.49728 0.52185
 Zr363 Zr 0.01253 0.51960 0.49200
 O364 O 0.00022 0.50674 0.47808
 Zr365 Zr -0.01199 0.51898 0.51752
 O366 O -0.02577 0.50638 0.50480
 Zr367 Zr 0.01336 0.49429 0.51702
 O368 O 0.00068 0.48020 0.50463
 O369 O -0.01767 0.48837 0.48649
 O370 O 0.00952 0.51587 0.51375
 C371 C -0.04787 0.49137 0.48953
 C372 C -0.01494 0.49143 0.45614
 C373 C -0.01460 0.45816 0.48936
 C374 C 0.03891 0.51490 0.51122
 C375 C 0.00777 0.54519 0.51252
 C376 C 0.00801 0.51343 0.54356
 H377 H -0.01136 0.53378 0.49354
 H378 H -0.01036 0.49481 0.53190
 H379 H -0.02377 0.48226 0.48040
 H380 H 0.02743 0.49603 0.49274
 H381 H 0.02401 0.51590 0.46727
 H382 H 0.02599 0.49172 0.46819
 H383 H -0.02685 0.51031 0.53921
 H384 H -0.04088 0.49431 0.52425
 H385 H 0.01724 0.54217 0.47644
 H386 H -0.02685 0.52595 0.46064
 H387 H 0.00555 0.47816 0.53814
 H388 H -0.01076 0.46475 0.52411
 H389 H -0.04109 0.52562 0.49387
 H390 H -0.02733 0.54062 0.50953
 H391 H 0.01938 0.46473 0.49314
 H392 H 0.03544 0.48003 0.50858
 O393 O 0.53899 0.01833 0.49936
 O394 O 0.53422 0.01579 0.47503
 O395 O 0.50165 0.03764 0.51644
 O396 O 0.47831 0.03305 0.51732
 O397 O 0.52011 0.00090 0.53721
 O398 O 0.51938 -0.02409 0.53245
 O399 O 0.46426 -0.00262 0.48038
 O400 O 0.46787 0.02215 0.48313
 O401 O 0.49938 -0.02057 0.46260
 O402 O 0.52556 -0.01831 0.46679
 O403 O 0.48353 -0.03834 0.49923
 O404 O 0.48446 -0.03274 0.52479
 O405 O 0.46477 -0.01986 0.49764
 O406 O 0.46965 -0.01689 0.52457
 O407 O 0.50046 -0.03860 0.48192
 O408 O 0.52660 -0.03278 0.48305
 O409 O 0.48210 -0.00358 0.46235
 O410 O 0.48700 0.02255 0.46592
 O411 O 0.53954 0.00126 0.51682
 O412 O 0.53462 -0.02425 0.51607
 O413 O 0.50281 0.01788 0.53708
 O414 O 0.47700 0.01494 0.53147
 O415 O 0.51885 0.03750 0.49936
 O416 O 0.51544 0.03118 0.47366
 Zr417 Zr 0.51828 0.01667 0.49091
 O418 O 0.50590 0.00344 0.47754
 Zr419 Zr 0.49368 0.01665 0.51645
 O420 O 0.48003 0.00387 0.50392
 Zr421 Zr 0.51907 -0.00799 0.51658
 O422 O 0.50640 -0.02213 0.50450
 Zr423 Zr 0.48437 0.00686 0.48211
 O424 O 0.49665 0.02117 0.49455
 Zr425 Zr 0.50954 -0.01808 0.48260
 O426 O 0.52332 -0.00492 0.49473
 Zr427 Zr 0.48475 -0.01769 0.50788
 O428 O 0.49749 -0.00490 0.52154
 O429 O 0.51514 0.01344 0.51269
 O430 O 0.48807 -0.01465 0.48616
 C431 C 0.54523 0.01135 0.50944
 C432 C 0.51152 0.04363 0.50912
 C433 C 0.51291 0.01087 0.54313
 C434 C 0.45889 -0.01330 0.48705
 C435 C 0.48867 -0.01421 0.45688
 C436 C 0.49030 -0.04434 0.48902
 H437 H 0.50791 0.00555 0.46738
 H438 H 0.50882 -0.03206 0.50711
 H439 H 0.52117 0.01977 0.51863
 H440 H 0.47000 0.00614 0.50599
 H441 H 0.47242 0.03134 0.48570
 H442 H 0.47098 0.03073 0.51007
 H443 H 0.52522 -0.03915 0.49138
 H444 H 0.53940 -0.02345 0.50669
 H445 H 0.47872 0.02188 0.45934
 H446 H 0.52281 0.03874 0.47436
 H447 H 0.49340 -0.03825 0.52432
 H448 H 0.50991 -0.02394 0.53702
 H449 H 0.53796 0.00593 0.47511
 H450 H 0.52382 -0.01023 0.46020
 H451 H 0.47894 0.00634 0.53732
 H452 H 0.46238 -0.00972 0.52195
 O453 O 0.54027 0.52122 -0.00200
 O454 O 0.53558 0.51925 -0.02645
 O455 O 0.50324 0.54078 0.01529
 O456 O 0.47969 0.53668 0.01527
 O457 O 0.52062 0.50345 0.03546
 O458 O 0.51973 0.47859 0.03026
 O459 O 0.46535 0.50172 -0.02180
 O460 O 0.46930 0.52618 -0.01900
 O461 O 0.50090 0.48371 -0.03985
 O462 O 0.52679 0.48523 -0.03517
 O463 O 0.48411 0.46534 -0.00364
 O464 O 0.48503 0.47058 0.02217
 O465 O 0.46542 0.48440 -0.00462
 O466 O 0.47026 0.48621 0.02200
 O467 O 0.50131 0.46512 -0.02067
 O468 O 0.52750 0.47071 -0.01909
 O469 O 0.48367 0.50074 -0.03997
 O470 O 0.48867 0.52673 -0.03579
 O471 O 0.54040 0.50391 0.01523
 O472 O 0.53515 0.47852 0.01414
 O473 O 0.50348 0.52059 0.03541
 O474 O 0.47787 0.51844 0.02942
 O475 O 0.52056 0.54069 -0.00167
 O476 O 0.51705 0.53501 -0.02751
 Zr477 Zr 0.51961 0.52007 -0.01060
 O478 O 0.50722 0.50719 -0.02430
 Zr479 Zr 0.49476 0.51998 0.01462
 O480 O 0.48113 0.50751 0.00178
 Zr481 Zr 0.51981 0.49496 0.01466
 O482 O 0.50713 0.48117 0.00221
 Zr483 Zr 0.48567 0.51076 -0.01995
 O484 O 0.49799 0.52477 -0.00718
 Zr485 Zr 0.51056 0.48554 -0.01956
 O486 O 0.52435 0.49835 -0.00708
 Zr487 Zr 0.48551 0.48582 0.00543
 O488 O 0.49821 0.49830 0.01941
 O489 O 0.51620 0.51650 0.01108
 O490 O 0.48904 0.48911 -0.01625
 C491 C 0.54630 0.51399 0.00802
 C492 C 0.51332 0.54673 0.00822
 C493 C 0.51339 0.51334 0.04148
 C494 C 0.45963 0.49128 -0.01503
 C495 C 0.49041 0.49033 -0.04565
 C496 C 0.49104 0.45937 -0.01377
 H497 H 0.50940 0.50946 -0.03439
 H498 H 0.50941 0.47117 0.00468
 H499 H 0.52227 0.52259 0.01723
 H500 H 0.47111 0.50989 0.00382
 H501 H 0.47386 0.53526 -0.01608
 H502 H 0.47220 0.53432 0.00820
 H503 H 0.52590 0.46414 -0.01095
 H504 H 0.54005 0.47935 0.00482
 H505 H 0.48054 0.52621 -0.04257
 H506 H 0.52457 0.54241 -0.02665
 H507 H 0.49368 0.46465 0.02139
 H508 H 0.51016 0.47870 0.03463
 H509 H 0.53938 0.50941 -0.02635
 H510 H 0.52557 0.49373 -0.04134
 H511 H 0.47939 0.50956 0.03496
 H512 H 0.46356 0.49409 0.01997
 O513 O 0.76912 0.29034 0.50183
 O514 O 0.76719 0.28511 0.52614
 O515 O 0.78879 0.25327 0.48396
 O516 O 0.78465 0.22974 0.48315
 O517 O 0.75179 0.27133 0.46384
 O518 O 0.72696 0.27011 0.46873
 O519 O 0.74989 0.21465 0.51992
 O520 O 0.77418 0.21869 0.51736
 O521 O 0.73205 0.25026 0.53872
 O522 O 0.73318 0.27616 0.53432
 O523 O 0.71367 0.23376 0.50183
 O524 O 0.71882 0.23496 0.47630
 O525 O 0.73281 0.21494 0.50251
 O526 O 0.73465 0.22049 0.47598
 O527 O 0.71338 0.25060 0.51933
 O528 O 0.71877 0.27696 0.51825
 O529 O 0.74899 0.23295 0.53860
 O530 O 0.77479 0.23791 0.53445
 O531 O 0.75185 0.29075 0.48459
 O532 O 0.72664 0.28525 0.48522
 O533 O 0.76885 0.25411 0.46365
 O534 O 0.76652 0.22820 0.46903
 O535 O 0.78864 0.27050 0.50113
 O536 O 0.78294 0.26659 0.52685
 Zr537 Zr 0.76807 0.26939 0.50992
 O538 O 0.75523 0.25669 0.52327
 Zr539 Zr 0.76806 0.24488 0.48420
 O540 O 0.75568 0.23094 0.49671
 Zr541 Zr 0.74314 0.26998 0.48451
 O542 O 0.72941 0.25698 0.49662
 Zr543 Zr 0.75883 0.23513 0.51856
 O544 O 0.77277 0.24775 0.50609
 Zr545 Zr 0.73366 0.26005 0.51850
 O546 O 0.74643 0.27414 0.50638
 Zr547 Zr 0.73409 0.23535 0.49300
 O548 O 0.74649 0.24839 0.47933
 O549 O 0.76459 0.26636 0.48816
 O550 O 0.73725 0.23849 0.51480
 C551 C 0.76180 0.29661 0.49202
 C552 C 0.79469 0.26330 0.49121
 C553 C 0.76172 0.26423 0.45776
 C554 C 0.73965 0.20893 0.51283
 C555 C 0.73876 0.23978 0.54445
 C556 C 0.70768 0.24046 0.51209
 H557 H 0.75747 0.25875 0.53341
 H558 H 0.71945 0.25928 0.49413
 H559 H 0.77068 0.27261 0.48223
 H560 H 0.75810 0.22094 0.49446
 H561 H 0.78322 0.22330 0.51453
 H562 H 0.78246 0.22223 0.49025
 H563 H 0.71217 0.27536 0.51013
 H564 H 0.72730 0.28990 0.49469
 H565 H 0.77433 0.22964 0.54107
 H566 H 0.79028 0.27418 0.52618
 H567 H 0.71333 0.24394 0.47681
 H568 H 0.72725 0.26065 0.46404
 H569 H 0.75741 0.28899 0.52600
 H570 H 0.74176 0.27507 0.54039
 H571 H 0.75782 0.22998 0.46330
 H572 H 0.74244 0.21368 0.47794
 O573 O 0.77435 0.78946 -0.00285
 O574 O 0.77179 0.78455 0.02212
 O575 O 0.79195 0.75255 -0.02095
 O576 O 0.78740 0.72867 -0.02058
 O577 O 0.75610 0.77181 -0.03975
 O578 O 0.73081 0.77045 -0.03505
 O579 O 0.75242 0.71481 0.01630
 O580 O 0.77688 0.71792 0.01319
 O581 O 0.73620 0.75102 0.03517
 O582 O 0.73783 0.77668 0.03072
 O583 O 0.71675 0.73479 -0.00142
 O584 O 0.72131 0.73574 -0.02685
 O585 O 0.73521 0.71555 -0.00097
 O586 O 0.73720 0.72112 -0.02777
 O587 O 0.71728 0.75158 0.01614
 O588 O 0.72336 0.77796 0.01462
 O589 O 0.75256 0.73314 0.03484
 O590 O 0.77850 0.73712 0.03019
 O591 O 0.75682 0.79043 -0.01986
 O592 O 0.73100 0.78593 -0.01814
 O593 O 0.77268 0.75408 -0.04017
 O594 O 0.76864 0.72789 -0.03526
 O595 O 0.79253 0.76976 -0.00370
 O596 O 0.78753 0.76562 0.02235
 Zr597 Zr 0.77226 0.76884 0.00588
 O598 O 0.75925 0.75656 0.01939
 Zr599 Zr 0.77118 0.74425 -0.01987
 O600 O 0.75853 0.73074 -0.00717
 Zr601 Zr 0.74698 0.77016 -0.01926
 O602 O 0.73305 0.75760 -0.00695
 Zr603 Zr 0.76215 0.73490 0.01462
 O604 O 0.77634 0.74706 0.00196
 Zr605 Zr 0.73774 0.76061 0.01485
 O606 O 0.75075 0.77435 0.00256
 Zr607 Zr 0.73707 0.73585 -0.01062
 O608 O 0.74965 0.74847 -0.02453
 O609 O 0.76819 0.76567 -0.01566
 O610 O 0.74065 0.73896 0.01112
 C611 C 0.76761 0.79565 -0.01313
 C612 C 0.79796 0.76291 -0.01425
 C613 C 0.76636 0.76498 -0.04563
 C614 C 0.74187 0.70944 0.00941
 C615 C 0.74265 0.74033 0.04082
 C616 C 0.71119 0.74155 0.00906
 H617 H 0.76171 0.75856 0.02949
 H618 H 0.72313 0.76016 -0.00930
 H619 H 0.77439 0.77172 -0.02160
 H620 H 0.76056 0.72064 -0.00941
 H621 H 0.78594 0.72217 0.00992
 H622 H 0.78431 0.72061 -0.01451
 H623 H 0.71658 0.77646 0.00664
 H624 H 0.73247 0.79102 -0.00898
 H625 H 0.77782 0.72892 0.03688
 H626 H 0.79486 0.77320 0.02155
 H627 H 0.71681 0.74526 -0.02692
 H628 H 0.73144 0.76125 -0.04018
 H629 H 0.76255 0.78952 0.02122
 H630 H 0.74688 0.77589 0.03609
 H631 H 0.76036 0.73052 -0.04128
 H632 H 0.74452 0.71383 -0.02567
 O633 O 1.03823 0.22782 0.24870
 O634 O 1.03312 0.22932 0.27298
 O635 O 1.00135 0.20836 0.23013
 O636 O 0.97788 0.21252 0.22929
 O637 O 1.01943 0.24581 0.21091
 O638 O 1.01819 0.27069 0.21627
 O639 O 0.96309 0.24690 0.26673
 O640 O 0.96697 0.22244 0.26354
 O641 O 0.99844 0.26450 0.28596
 O642 O 1.02436 0.26332 0.28173
 O643 O 0.98192 0.28342 0.24954
 O644 O 0.98323 0.27882 0.22385
 O645 O 0.96335 0.26435 0.24968
 O646 O 0.96884 0.26270 0.22299
 O647 O 0.99875 0.28339 0.26713
 O648 O 1.02506 0.27818 0.26596
 O649 O 0.98114 0.24750 0.28539
 O650 O 0.98608 0.22164 0.28089
 O651 O 1.03872 0.24542 0.23177
 O652 O 1.03332 0.27075 0.23286
 O653 O 1.00226 0.22865 0.21026
 O654 O 0.97641 0.23097 0.21547
 O655 O 1.01850 0.20826 0.24745
 O656 O 1.01457 0.21356 0.27329
 Zr657 Zr 1.01742 0.22875 0.25667
 O658 O 1.00485 0.24142 0.27019
 Zr659 Zr 0.99301 0.22916 0.23075
 O660 O 0.97916 0.24139 0.24341
 Zr661 Zr 1.01807 0.25420 0.23174
 O662 O 1.00517 0.26779 0.24402
 Zr663 Zr 0.98338 0.23785 0.26522
 O664 O 0.99587 0.22405 0.25256
 Zr665 Zr 1.00825 0.26313 0.26582
 O666 O 1.02223 0.25053 0.25356
 Zr667 Zr 0.98361 0.26312 0.24016
 O668 O 0.99655 0.25091 0.22633
 O669 O 1.01440 0.23261 0.23495
 O670 O 0.98680 0.25954 0.26188
 C671 C 1.04448 0.23527 0.23904
 C672 C 1.01134 0.20233 0.23733
 C673 C 1.01238 0.23589 0.20460
 C674 C 0.95746 0.25740 0.25995
 C675 C 0.98790 0.25776 0.29143
 C676 C 0.98853 0.28918 0.26009
 H677 H 1.00689 0.23902 0.28030
 H678 H 1.00746 0.27784 0.24177
 H679 H 1.02060 0.22660 0.22895
 H680 H 0.96918 0.23900 0.24107
 H681 H 0.97157 0.21340 0.26067
 H682 H 0.97040 0.21464 0.23635
 H683 H 1.02343 0.28493 0.25797
 H684 H 1.03795 0.26995 0.24237
 H685 H 0.97779 0.22198 0.28739
 H686 H 1.02206 0.20617 0.27251
 H687 H 0.99217 0.28433 0.22456
 H688 H 1.00874 0.27049 0.21156
 H689 H 1.03697 0.23916 0.27312
 H690 H 1.02312 0.25472 0.28774
 H691 H 0.97828 0.23974 0.20985
 H692 H 0.96188 0.25502 0.22492
 O693 O 0.75328 1.03334 0.73133
 O694 O 0.77754 1.02855 0.73360
 O695 O 0.73574 0.99593 0.71217
 O696 O 0.73538 0.97233 0.71669
 O697 O 0.71586 1.01422 0.74901
 O698 O 0.72088 1.01345 0.77408
 O699 O 0.77280 0.95883 0.75315
 O700 O 0.76919 0.96167 0.72801
 O701 O 0.79020 0.99414 0.77018
 O702 O 0.78590 1.02034 0.76794
 O703 O 0.75443 0.97734 0.78804
 O704 O 0.72846 0.97899 0.78273
 O705 O 0.75556 0.95920 0.77021
 O706 O 0.72867 0.96357 0.76692
 O707 O 0.77189 0.99421 0.78798
 O708 O 0.76967 1.02105 0.78264
 O709 O 0.79019 0.97662 0.75331
 O710 O 0.78620 0.98126 0.72692
 O711 O 0.73618 1.03386 0.74857
 O712 O 0.73711 1.02895 0.77411
 O713 O 0.71572 0.99671 0.73212
 O714 O 0.72137 0.97085 0.73491
 O715 O 0.75275 1.01328 0.71215
 O716 O 0.77839 1.00967 0.71813
 Zr717 Zr 0.76160 1.01258 0.73291
 O718 O 0.77506 1.00031 0.74617
 Zr719 Zr 0.73625 0.98773 0.73317
 O720 O 0.74883 0.97412 0.74602
 Zr721 Zr 0.73645 1.01330 0.75786
 O722 O 0.74863 1.00073 0.77207
 Zr723 Zr 0.77046 0.97864 0.74287
 O724 O 0.75794 0.99082 0.72850
 Zr725 Zr 0.77028 1.00406 0.76777
 O726 O 0.75809 1.01773 0.75456
 Zr727 Zr 0.74514 0.97898 0.76762
 O728 O 0.73145 0.99161 0.75479
 O729 O 0.74003 1.00929 0.73637
 O730 O 0.76658 0.98257 0.76432
 C731 C 0.74340 1.03957 0.73840
 C732 C 0.74284 1.00597 0.70612
 C733 C 0.70983 1.00689 0.73909
 C734 C 0.76642 0.95361 0.76409
 C735 C 0.79566 0.98324 0.76400
 C736 C 0.76519 0.98368 0.79362
 H737 H 0.78513 1.00240 0.74399
 H738 H 0.74626 1.00310 0.78207
 H739 H 0.73404 1.01534 0.73010
 H740 H 0.74678 0.96400 0.74386
 H741 H 0.76663 0.96600 0.71867
 H742 H 0.74245 0.96493 0.71915
 H743 H 0.76238 1.01875 0.78988
 H744 H 0.74656 1.03356 0.77351
 H745 H 0.79281 0.97307 0.72770
 H746 H 0.77763 1.01709 0.71057
 H747 H 0.72983 0.98736 0.78902
 H748 H 0.71650 1.00384 0.77407
 H749 H 0.77750 1.03249 0.74341
 H750 H 0.79225 1.01875 0.75970
 H751 H 0.71578 0.97264 0.74367
 H752 H 0.73146 0.95605 0.76009
 O753 O 0.71177 0.51901 0.25301
 O754 O 0.71703 0.51703 0.27736
 O755 O 0.74813 0.53948 0.23500
 O756 O 0.77170 0.53592 0.23468
 O757 O 0.73092 0.50215 0.21503
 O758 O 0.73241 0.47719 0.22004
 O759 O 0.78731 0.50056 0.27140
 O760 O 0.78322 0.52494 0.26867
 O761 O 0.75186 0.48245 0.29016
 O762 O 0.72622 0.48280 0.28537
 O763 O 0.76891 0.46433 0.25314
 O764 O 0.76740 0.46971 0.22753
 O765 O 0.78725 0.48380 0.25375
 O766 O 0.78170 0.48577 0.22731
 O767 O 0.75234 0.46368 0.27078
 O768 O 0.72592 0.46836 0.26942
 O769 O 0.76890 0.49972 0.29013
 O770 O 0.76398 0.52549 0.28559
 O771 O 0.71155 0.50183 0.23572
 O772 O 0.71727 0.47663 0.23646
 O773 O 0.74786 0.51955 0.21488
 O774 O 0.77365 0.51778 0.22041
 O775 O 0.73109 0.53889 0.25223
 O776 O 0.73529 0.53314 0.27802
 Zr777 Zr 0.73262 0.51824 0.26114
 O778 O 0.74544 0.50545 0.27451
 Zr779 Zr 0.75698 0.51888 0.23550
 O780 O 0.77103 0.50655 0.24803
 Zr781 Zr 0.73233 0.49338 0.23575
 O782 O 0.74547 0.47971 0.24788
 Zr783 Zr 0.76688 0.50944 0.26989
 O784 O 0.75411 0.52337 0.25739
 Zr785 Zr 0.74239 0.48377 0.26975
 O786 O 0.72817 0.49646 0.25760
 Zr787 Zr 0.76691 0.48485 0.24429
 O788 O 0.75377 0.49719 0.23061
 O789 O 0.73566 0.51494 0.23939
 O790 O 0.76381 0.48776 0.26611
 C791 C 0.70563 0.51170 0.24313
 C792 C 0.73801 0.54514 0.24219
 C793 C 0.73790 0.51224 0.20895
 C794 C 0.79312 0.49050 0.26420
 C795 C 0.76205 0.48945 0.29604
 C796 C 0.76249 0.45818 0.26353
 H797 H 0.74331 0.50762 0.28462
 H798 H 0.74334 0.46969 0.24540
 H799 H 0.72934 0.52095 0.23340
 H800 H 0.78097 0.50915 0.24581
 H801 H 0.77862 0.53398 0.26571
 H802 H 0.77945 0.53358 0.24146
 H803 H 0.72767 0.46182 0.26133
 H804 H 0.71275 0.47709 0.24598
 H805 H 0.77222 0.52515 0.29224
 H806 H 0.72766 0.54040 0.27731
 H807 H 0.75869 0.46383 0.22822
 H808 H 0.74181 0.47767 0.21536
 H809 H 0.71309 0.50723 0.27707
 H810 H 0.72690 0.49155 0.29122
 H811 H 0.77204 0.50905 0.21468
 H812 H 0.78833 0.49375 0.22924
 O813 O 0.53934 0.22926 0.75181
 O814 O 0.53433 0.23161 0.77615
 O815 O 0.50224 0.21009 0.73380
 O816 O 0.47887 0.21452 0.73277
 O817 O 0.52064 0.24712 0.71372
 O818 O 0.52010 0.27199 0.71877
 O819 O 0.46439 0.24991 0.76936
 O820 O 0.46800 0.22537 0.76690
 O821 O 0.50006 0.26747 0.78838
 O822 O 0.52589 0.26586 0.78427
 O823 O 0.48371 0.28570 0.75166
 O824 O 0.48530 0.28056 0.72586
 O825 O 0.46497 0.26690 0.75187
 O826 O 0.47049 0.26486 0.72542
 O827 O 0.50052 0.28590 0.76927
 O828 O 0.52689 0.28031 0.76805
 O829 O 0.48243 0.25080 0.78808
 O830 O 0.48710 0.22469 0.78421
 O831 O 0.54007 0.24645 0.73449
 O832 O 0.53521 0.27195 0.73540
 O833 O 0.50331 0.23012 0.71344
 O834 O 0.47756 0.23266 0.71868
 O835 O 0.51928 0.21008 0.75122
 O836 O 0.51556 0.21609 0.77690
 Zr837 Zr 0.51858 0.23081 0.75989
 O838 O 0.50614 0.24395 0.77311
 Zr839 Zr 0.49418 0.23100 0.73395
 O840 O 0.48050 0.24369 0.74630
 Zr841 Zr 0.51962 0.25572 0.73445
 O842 O 0.50688 0.26976 0.74641
 Zr843 Zr 0.48461 0.24058 0.76819
 O844 O 0.49695 0.22634 0.75587
 Zr845 Zr 0.50986 0.26552 0.76830
 O846 O 0.52370 0.25245 0.75635
 Zr847 Zr 0.48527 0.26528 0.74258
 O848 O 0.49806 0.25259 0.72907
 O849 O 0.51561 0.23424 0.73808
 O850 O 0.48836 0.26214 0.76437
 C851 C 0.54567 0.23632 0.74191
 C852 C 0.51207 0.20405 0.74121
 C853 C 0.51338 0.23725 0.70758
 C854 C 0.45891 0.26025 0.76222
 C855 C 0.48933 0.26109 0.79391
 C856 C 0.49031 0.29160 0.76213
 H857 H 0.50812 0.24174 0.78328
 H858 H 0.50929 0.27973 0.74396
 H859 H 0.52167 0.22800 0.73216
 H860 H 0.47049 0.24139 0.74397
 H861 H 0.47245 0.21622 0.76416
 H862 H 0.47146 0.21679 0.73986
 H863 H 0.52522 0.28706 0.76007
 H864 H 0.53987 0.27112 0.74489
 H865 H 0.47888 0.22536 0.79076
 H866 H 0.52297 0.20860 0.77631
 H867 H 0.49398 0.28644 0.72694
 H868 H 0.51057 0.27209 0.71423
 H869 H 0.53842 0.24134 0.77592
 H870 H 0.52468 0.25727 0.79031
 H871 H 0.47945 0.24134 0.71294
 H872 H 0.46359 0.25713 0.72732
 O873 O 0.28653 0.75248 0.48161
 O874 O 0.28123 0.72803 0.48350
 O875 O 0.24980 0.77117 0.46277
 O876 O 0.22619 0.77160 0.46709
 O877 O 0.26874 0.78988 0.49963
 O878 O 0.26744 0.78471 0.52485
 O879 O 0.21162 0.73444 0.50185
 O880 O 0.21509 0.73773 0.47730
 O881 O 0.24697 0.71522 0.51918
 O882 O 0.27298 0.71928 0.51751
 O883 O 0.23129 0.75149 0.53828
 O884 O 0.23258 0.77698 0.53367
 O885 O 0.21235 0.75129 0.51941
 O886 O 0.21806 0.77804 0.51749
 O887 O 0.24795 0.73390 0.53805
 O888 O 0.27412 0.73494 0.53243
 O889 O 0.22947 0.71590 0.50225
 O890 O 0.23405 0.72047 0.47618
 O891 O 0.28748 0.76934 0.49920
 O892 O 0.28256 0.76791 0.52484
 O893 O 0.25120 0.79061 0.48273
 O894 O 0.22525 0.78571 0.48568
 O895 O 0.26675 0.75381 0.46248
 O896 O 0.26247 0.72797 0.46770
 Zr897 Zr 0.26573 0.74439 0.48298
 O898 O 0.25322 0.73092 0.49585
 Zr899 Zr 0.24155 0.77032 0.48364
 O900 O 0.22779 0.75771 0.49612
 Zr901 Zr 0.26704 0.76922 0.50844
 O902 O 0.25426 0.75696 0.52224
 Zr903 Zr 0.23176 0.73599 0.49251
 O904 O 0.24415 0.74859 0.47849
 Zr905 Zr 0.25706 0.73522 0.51757
 O906 O 0.27097 0.74745 0.50474
 Zr907 Zr 0.23264 0.76086 0.51785
 O908 O 0.24552 0.77468 0.50541
 O909 O 0.26290 0.76598 0.48691
 O910 O 0.23559 0.73923 0.51422
 C911 C 0.29292 0.76228 0.48878
 C912 C 0.25981 0.76415 0.45671
 C913 C 0.26176 0.79608 0.48954
 C914 C 0.20624 0.74111 0.51251
 C915 C 0.23623 0.70987 0.51256
 C916 C 0.23793 0.74096 0.54401
 H917 H 0.25510 0.72083 0.49342
 H918 H 0.25674 0.75917 0.53228
 H919 H 0.26907 0.77192 0.48078
 H920 H 0.21778 0.76007 0.49387
 H921 H 0.21953 0.74079 0.46820
 H922 H 0.21837 0.76506 0.46968
 H923 H 0.27280 0.74299 0.53911
 H924 H 0.28726 0.75853 0.52376
 H925 H 0.22579 0.71392 0.47671
 H926 H 0.26993 0.72874 0.46029
 H927 H 0.24188 0.77665 0.53863
 H928 H 0.25819 0.78970 0.52439
 H929 H 0.28549 0.72814 0.49320
 H930 H 0.27150 0.71333 0.50890
 H931 H 0.22741 0.79130 0.49440
 H932 H 0.21082 0.77601 0.51005
 O933 O 0.28882 0.24959 0.98159
 O934 O 0.28428 0.22515 0.98369
 O935 O 0.25218 0.26647 0.96048
 O936 O 0.22861 0.26681 0.96383
 O937 O 0.26861 0.28681 0.99839
 O938 O 0.26682 0.28175 1.02334
 O939 O 0.21347 0.22956 0.99859
 O940 O 0.21804 0.23239 0.97418
 O941 O 0.24884 0.21163 1.01775
 O942 O 0.27452 0.21662 1.01758
 O943 O 0.23087 0.24787 1.03541
 O944 O 0.23180 0.27347 1.03024
 O945 O 0.21286 0.24695 1.01560
 O946 O 0.21781 0.27354 1.01371
 O947 O 0.24801 0.23078 1.03637
 O948 O 0.27447 0.23265 1.03205
 O949 O 0.23203 0.21141 1.00014
 O950 O 0.23761 0.21578 0.97429
 O951 O 0.28835 0.26670 0.99893
 O952 O 0.28227 0.26558 1.02420
 O953 O 0.25207 0.28670 0.98049
 O954 O 0.22626 0.28077 0.98195
 O955 O 0.26964 0.24965 0.96135
 O956 O 0.26630 0.22393 0.96717
 Zr957 Zr 0.26821 0.24088 0.98208
 O958 O 0.25550 0.22724 0.99461
 Zr959 Zr 0.24323 0.26600 0.98105
 O960 O 0.22928 0.25317 0.99308
 Zr961 Zr 0.26749 0.26612 1.00708
 O962 O 0.25443 0.25373 1.02048
 Zr963 Zr 0.23403 0.23148 0.99018
 O964 O 0.24671 0.24425 0.97655
 Zr965 Zr 0.25813 0.23202 1.01639
 O966 O 0.27225 0.24445 1.00400
 Zr967 Zr 0.23297 0.25690 1.01494
 O968 O 0.24599 0.27085 1.00288
 O969 O 0.26458 0.26250 0.98537
 O970 O 0.23670 0.23526 1.01198
 C971 C 0.29458 0.25958 0.98904
 C972 C 0.26246 0.25942 0.95493
 C973 C 0.26178 0.29275 0.98807
 C974 C 0.20735 0.23646 1.00868
 C975 C 0.23868 0.20572 1.01072
 C976 C 0.23753 0.23767 1.04167
 H977 H 0.25785 0.21719 0.99248
 H978 H 0.25635 0.25621 1.03058
 H979 H 0.27079 0.26858 0.97941
 H980 H 0.21934 0.25519 0.99028
 H981 H 0.22281 0.23532 0.96522
 H982 H 0.22127 0.25951 0.96577
 H983 H 0.27239 0.24059 1.03866
 H984 H 0.28719 0.25627 1.02363
 H985 H 0.22952 0.20898 0.97451
 H986 H 0.27405 0.22478 0.96007
 H987 H 0.24043 0.27292 1.03629
 H988 H 0.25726 0.28611 1.02279
 H989 H 0.28797 0.22551 0.99362
 H990 H 0.27396 0.21071 1.00884
 H991 H 0.22772 0.28655 0.99070
 H992 H 0.21128 0.27143 1.00566
 C993 C 0.32257 0.34007 0.82034
 C994 C 0.31555 0.34828 0.81332
 C995 C 0.30740 0.35854 0.80527
 C996 C 0.29306 0.36080 0.80846
 C997 C 0.28548 0.37163 0.80149
 C998 C 0.29217 0.38036 0.79126
 C999 C 0.30649 0.37775 0.78788
 C1000 C 0.31404 0.36692 0.79485
 C1001 C 0.28457 0.39267 0.78475
 C1002 C 0.28668 0.39637 0.77031
 C1003 C 0.28049 0.40871 0.76458
 C1004 C 0.27208 0.41746 0.77319
 C1005 C 0.26959 0.41365 0.78745
 C1006 C 0.27576 0.40134 0.79319
 C1007 C 0.26694 0.43091 0.76783
 C1008 C 0.26308 0.44252 0.76386
 H1009 H 0.28782 0.35439 0.81652
 H1010 H 0.27444 0.37326 0.80421
 H1011 H 0.31202 0.38441 0.78023
 H1012 H 0.32516 0.36533 0.79238
 H1013 H 0.29326 0.38983 0.76349
 H1014 H 0.28254 0.41159 0.75355
 H1015 H 0.26321 0.42042 0.79425
 H1016 H 0.27410 0.39893 0.80439
 C1017 C 0.33738 -0.14842 0.33692
 C1018 C 0.33088 -0.13969 0.33001
 C1019 C 0.32304 -0.12934 0.32179
 C1020 C 0.31552 -0.11852 0.32872
 C1021 C 0.30768 -0.10862 0.32074
 C1022 C 0.30726 -0.10941 0.30570
 C1023 C 0.31495 -0.12028 0.29885
 C1024 C 0.32277 -0.13017 0.30685
 C1025 C 0.29883 -0.09898 0.29721
 C1026 C 0.29113 -0.10336 0.28500
 C1027 C 0.28326 -0.09349 0.27699
 C1028 C 0.28293 -0.07917 0.28111
 C1029 C 0.29047 -0.07474 0.29327
 C1030 C 0.29840 -0.08453 0.30124
 C1031 C 0.27519 -0.06875 0.27287
 C1032 C 0.26927 -0.05917 0.26666
 H1033 H 0.31564 -0.11780 0.34029
 H1034 H 0.30176 -0.10049 0.32637
 H1035 H 0.31504 -0.12104 0.28729
 H1036 H 0.32859 -0.13848 0.30138
 H1037 H 0.29108 -0.11443 0.28174
 H1038 H 0.27745 -0.09703 0.26760
 H1039 H 0.29030 -0.06365 0.29653
 H1040 H 0.30437 -0.08075 0.31043
 C1041 C 0.84868 0.86388 0.84716
 C1042 C 0.84115 0.87139 0.83988
 C1043 C 0.83199 0.88009 0.83112
 C1044 C 0.82061 0.87389 0.82368
 C1045 C 0.81175 0.88231 0.81508
 C1046 C 0.81416 0.89708 0.81381
 C1047 C 0.82562 0.90320 0.82137
 C1048 C 0.83446 0.89475 0.82996
 C1049 C 0.80479 0.90609 0.80465
 C1050 C 0.80092 0.91987 0.80908
 C1051 C 0.79237 0.92847 0.80038
 C1052 C 0.78750 0.92345 0.78712
 C1053 C 0.79121 0.90972 0.78263
 C1054 C 0.79977 0.90107 0.79135
 C1055 C 0.77929 0.93281 0.77805
 C1056 C 0.77295 0.94166 0.77113
 H1057 H 0.81858 0.86253 0.82455
 H1058 H 0.80292 0.87729 0.80957
 H1059 H 0.82790 0.91448 0.82049
 H1060 H 0.84326 0.89962 0.83565
 H1061 H 0.80449 0.92401 0.81929
 H1062 H 0.78970 0.93913 0.80391
 H1063 H 0.78764 0.90577 0.77233
 H1064 H 0.80272 0.89059 0.78754
 C1065 C 0.41281 0.89395 0.33794
 C1066 C 0.42003 0.88593 0.33100
 C1067 C 0.42864 0.87623 0.32287
 C1068 C 0.43620 0.86541 0.32988
 C1069 C 0.44443 0.85584 0.32203
 C1070 C 0.44523 0.85696 0.30704
 C1071 C 0.43766 0.86794 0.30009
 C1072 C 0.42941 0.87750 0.30796
 C1073 C 0.45373 0.84657 0.29869
 C1074 C 0.46190 0.85104 0.28691
 C1075 C 0.46982 0.84116 0.27906
 C1076 C 0.46968 0.82673 0.28292
 C1077 C 0.46162 0.82221 0.29463
 C1078 C 0.45368 0.83203 0.30244
 C1079 C 0.47741 0.81627 0.27483
 C1080 C 0.48323 0.80662 0.26870
 H1081 H 0.43571 0.86435 0.34141
 H1082 H 0.45027 0.84763 0.32772
 H1083 H 0.43790 0.86897 0.28855
 H1084 H 0.42357 0.88581 0.30242
 H1085 H 0.46227 0.86218 0.28385
 H1086 H 0.47602 0.84477 0.27001
 H1087 H 0.46139 0.81106 0.29766
 H1088 H 0.44733 0.82818 0.31129
 C1089 C -0.09837 0.88308 0.84684
 C1090 C -0.09140 0.87512 0.83958
 C1091 C -0.08294 0.86609 0.83060
 C1092 C -0.06892 0.86286 0.83447
 C1093 C -0.06044 0.85474 0.82536
 C1094 C -0.06588 0.84976 0.81224
 C1095 C -0.08004 0.85291 0.80852
 C1096 C -0.08849 0.86107 0.81763
 C1097 C -0.05679 0.84139 0.80243
 C1098 C -0.06230 0.82939 0.79529
 C1099 C -0.05367 0.82134 0.78629
 C1100 C -0.03946 0.82521 0.78418
 C1101 C -0.03390 0.83721 0.79112
 C1102 C -0.04251 0.84526 0.80019
 C1103 C -0.03047 0.81607 0.77585
 C1104 C -0.02358 0.80733 0.76951
 H1105 H -0.06451 0.86674 0.84446
 H1106 H -0.04964 0.85232 0.82859
 H1107 H -0.08450 0.84930 0.79846
 H1108 H -0.09931 0.86357 0.81451
 H1109 H -0.07319 0.82607 0.79691
 H1110 H -0.05802 0.81193 0.78114
 H1111 H -0.02288 0.84022 0.78967
 H1112 H -0.03803 0.85455 0.80541
 C1113 C -0.09860 -0.13639 -0.09829
 C1114 C -0.09108 -0.12872 -0.09117
 C1115 C -0.08193 -0.11996 -0.08247
 C1116 C -0.07082 -0.12623 -0.07469
 C1117 C -0.06191 -0.11782 -0.06616
 C1118 C -0.06395 -0.10298 -0.06535
 C1119 C -0.07521 -0.09679 -0.07316
 C1120 C -0.08414 -0.10524 -0.08165
 C1121 C -0.05431 -0.09396 -0.05652
 C1122 C -0.04990 -0.08052 -0.06154
 C1123 C -0.04100 -0.07192 -0.05321
 C1124 C -0.03633 -0.07661 -0.03975
 C1125 C -0.04053 -0.09002 -0.03469
 C1126 C -0.04945 -0.09866 -0.04302
 C1127 C -0.02789 -0.06715 -0.03104
 C1128 C -0.02137 -0.05820 -0.02446
 H1129 H -0.06903 -0.13763 -0.07525
 H1130 H -0.05328 -0.12290 -0.06039
 H1131 H -0.07721 -0.08545 -0.07259
 H1132 H -0.09279 -0.10033 -0.08752
 H1133 H -0.05331 -0.07667 -0.07193
 H1134 H -0.03792 -0.06151 -0.05719
 H1135 H -0.03708 -0.09370 -0.02424
 H1136 H -0.05279 -0.10888 -0.03879
 C1137 C -0.07223 0.33994 0.42598
 C1138 C -0.06550 0.34840 0.43297
 C1139 C -0.05800 0.35894 0.44127
 C1140 C -0.06527 0.36671 0.45168
 C1141 C -0.05841 0.37772 0.45905
 C1142 C -0.04416 0.38112 0.45608
 C1143 C -0.03682 0.37301 0.44584
 C1144 C -0.04372 0.36199 0.43847
 C1145 C -0.03732 0.39364 0.46300
 C1146 C -0.02888 0.40303 0.45490
 C1147 C -0.02346 0.41550 0.46102
 C1148 C -0.02636 0.41876 0.47531
 C1149 C -0.03441 0.40931 0.48359
 C1150 C -0.03985 0.39681 0.47749
 C1151 C -0.02188 0.43227 0.48105
 C1152 C -0.01841 0.44393 0.48523
 H1153 H -0.07635 0.36449 0.45386
 H1154 H -0.06442 0.38390 0.46669
 H1155 H -0.02581 0.37528 0.44343
 H1156 H -0.03799 0.35604 0.43043
 H1157 H -0.02692 0.40102 0.44368
 H1158 H -0.01734 0.42280 0.45448
 H1159 H -0.03674 0.41175 0.49466
 H1160 H -0.04617 0.38971 0.48404
 C1161 C 0.42201 -0.15401 0.42174
 C1162 C 0.42948 -0.14640 0.42895
 C1163 C 0.43824 -0.13694 0.43729
 C1164 C 0.44824 -0.12824 0.43048
 C1165 C 0.45610 -0.11832 0.43837
 C1166 C 0.45404 -0.11694 0.45320
 C1167 C 0.44418 -0.12596 0.46001
 C1168 C 0.43632 -0.13589 0.45209
 C1169 C 0.46155 -0.10559 0.46132
 C1170 C 0.45420 -0.09741 0.47148
 C1171 C 0.46084 -0.08586 0.47818
 C1172 C 0.47490 -0.08236 0.47487
 C1173 C 0.48245 -0.09068 0.46510
 C1174 C 0.47583 -0.10225 0.45838
 C1175 C 0.48105 -0.06947 0.48048
 C1176 C 0.48563 -0.05822 0.48469
 H1177 H 0.44974 -0.12891 0.41901
 H1178 H 0.46343 -0.11138 0.43278
 H1179 H 0.44247 -0.12525 0.47143
 H1180 H 0.42860 -0.14257 0.45746
 H1181 H 0.44315 -0.09957 0.47382
 H1182 H 0.45485 -0.07938 0.48560
 H1183 H 0.49331 -0.08800 0.46240
 H1184 H 0.48180 -0.10845 0.45073
 C1185 C 0.42601 0.34239 -0.07267
 C1186 C 0.43315 0.35079 -0.06601
 C1187 C 0.44141 0.36125 -0.05838
 C1188 C 0.45541 0.36414 -0.06247
 C1189 C 0.46303 0.37512 -0.05584
 C1190 C 0.45673 0.38339 -0.04505
 C1191 C 0.44276 0.38016 -0.04078
 C1192 C 0.43516 0.36917 -0.04742
 C1193 C 0.46434 0.39582 -0.03881
 C1194 C 0.46314 0.39907 -0.02417
 C1195 C 0.46945 0.41140 -0.01859
 C1196 C 0.47706 0.42059 -0.02755
 C1197 C 0.47861 0.41727 -0.04204
 C1198 C 0.47231 0.40497 -0.04765
 C1199 C 0.48247 0.43392 -0.02217
 C1200 C 0.48661 0.44538 -0.01809
 H1201 H 0.46033 0.35808 -0.07096
 H1202 H 0.47382 0.37724 -0.05924
 H1203 H 0.43753 0.38646 -0.03267
 H1204 H 0.42430 0.36709 -0.04425
 H1205 H 0.45722 0.39216 -0.01707
 H1206 H 0.46816 0.41390 -0.00736
 H1207 H 0.48438 0.42438 -0.04910
 H1208 H 0.47327 0.40289 -0.05899
 C1209 C 0.79759 0.43459 0.45297
 C1210 C 0.79455 0.42255 0.45641
 C1211 C 0.79085 0.40823 0.46061
 C1212 C 0.77659 0.40398 0.46082
 C1213 C 0.77296 0.39012 0.46502
 C1214 C 0.78357 0.38031 0.46906
 C1215 C 0.79788 0.38469 0.46879
 C1216 C 0.80148 0.39856 0.46460
 C1217 C 0.77972 0.36556 0.47349
 C1218 C 0.78791 0.35386 0.46900
 C1219 C 0.78423 0.33998 0.47307
 C1220 C 0.77234 0.33759 0.48169
 C1221 C 0.76415 0.34916 0.48626
 C1222 C 0.76781 0.36305 0.48219
 C1223 C 0.76848 0.32325 0.48565
 C1224 C 0.76535 0.31114 0.48872
 H1225 H 0.76827 0.41137 0.45773
 H1226 H 0.76187 0.38702 0.46493
 H1227 H 0.80627 0.37745 0.47200
 H1228 H 0.81255 0.40176 0.46453
 H1229 H 0.79703 0.35542 0.46215
 H1230 H 0.79060 0.33110 0.46942
 H1231 H 0.75494 0.34744 0.49296
 H1232 H 0.76140 0.37185 0.48596
 C1233 C 0.84702 0.88504 -0.09773
 C1234 C 0.83995 0.87740 -0.09015
 C1235 C 0.83134 0.86874 -0.08087
 C1236 C 0.82081 0.87515 -0.07258
 C1237 C 0.81252 0.86691 -0.06335
 C1238 C 0.81465 0.85209 -0.06229
 C1239 C 0.82526 0.84572 -0.07070
 C1240 C 0.83355 0.85401 -0.07994
 C1241 C 0.80586 0.84339 -0.05240
 C1242 C 0.81203 0.83234 -0.04429
 C1243 C 0.80372 0.82414 -0.03503
 C1244 C 0.78916 0.82686 -0.03373
 C1245 C 0.78292 0.83785 -0.04171
 C1246 C 0.79122 0.84608 -0.05098
 C1247 C 0.78054 0.81731 -0.02537
 C1248 C 0.77404 0.80815 -0.01913
 H1249 H 0.81904 0.88656 -0.07318
 H1250 H 0.80459 0.87216 -0.05688
 H1251 H 0.82702 0.83432 -0.07027
 H1252 H 0.84162 0.84895 -0.08638
 H1253 H 0.82327 0.83006 -0.04504
 H1254 H 0.80862 0.81551 -0.02906
 H1255 H 0.77161 0.83986 -0.04102
 H1256 H 0.78611 0.85434 -0.05727
 C1257 C 0.82635 0.32361 0.34124
 C1258 C 0.81928 0.31689 0.34961
 C1259 C 0.81108 0.30911 0.35996
 C1260 C 0.79665 0.31216 0.36181
 C1261 C 0.78896 0.30533 0.37260
 C1262 C 0.79563 0.29538 0.38171
 C1263 C 0.81006 0.29215 0.37953
 C1264 C 0.81772 0.29898 0.36874
 C1265 C 0.78786 0.28900 0.39394
 C1266 C 0.79003 0.27465 0.39786
 C1267 C 0.78366 0.26906 0.41014
 C1268 C 0.77502 0.27771 0.41862
 C1269 C 0.77248 0.29186 0.41459
 C1270 C 0.77883 0.29748 0.40233
 C1271 C 0.76971 0.27248 0.43205
 C1272 C 0.76577 0.26849 0.44363
 H1273 H 0.79141 0.32000 0.35507
 H1274 H 0.77783 0.30792 0.37391
 H1275 H 0.81555 0.28470 0.38649
 H1276 H 0.82891 0.29661 0.36746
 H1277 H 0.79680 0.26782 0.39153
 H1278 H 0.78575 0.25810 0.41320
 H1279 H 0.76592 0.29869 0.42116
 H1280 H 0.77711 0.30861 0.39973
 C1281 C 0.84899 0.84672 -0.13539
 C1282 C 0.84167 0.83948 -0.12768
 C1283 C 0.83268 0.83074 -0.11886
 C1284 C 0.83464 0.81596 -0.11846
 C1285 C 0.82577 0.80739 -0.11012
 C1286 C 0.81470 0.81348 -0.10211
 C1287 C 0.81279 0.82838 -0.10265
 C1288 C 0.82174 0.83693 -0.11094
 C1289 C 0.80530 0.80436 -0.09317
 C1290 C 0.80050 0.80923 -0.07981
 C1291 C 0.79176 0.80066 -0.07134
 C1292 C 0.78768 0.78708 -0.07604
 C1293 C 0.79243 0.78207 -0.08926
 C1294 C 0.80113 0.79066 -0.09780
 C1295 C 0.77926 0.77819 -0.06676
 C1296 C 0.77281 0.77151 -0.05787
 H1297 H 0.84310 0.81106 -0.12454
 H1298 H 0.82771 0.79602 -0.10977
 H1299 H 0.80427 0.83343 -0.09681
 H1300 H 0.82007 0.84837 -0.11124
 H1301 H 0.80370 0.81956 -0.07577
 H1302 H 0.78834 0.80459 -0.06101
 H1303 H 0.78950 0.77150 -0.09291
 H1304 H 0.80452 0.78661 -0.10807
 C1305 C 0.32384 0.42692 0.90872
 C1306 C 0.31697 0.43424 0.90063
 C1307 C 0.30900 0.44267 0.89053
 C1308 C 0.31608 0.45228 0.88156
 C1309 C 0.30858 0.45962 0.87091
 C1310 C 0.29389 0.45743 0.86908
 C1311 C 0.28680 0.44803 0.87840
 C1312 C 0.29433 0.44068 0.88905
 C1313 C 0.28623 0.46422 0.85693
 C1314 C 0.27634 0.45632 0.84882
 C1315 C 0.27008 0.46222 0.83659
 C1316 C 0.27356 0.47610 0.83231
 C1317 C 0.28307 0.48421 0.84051
 C1318 C 0.28935 0.47832 0.85276
 C1319 C 0.26827 0.48149 0.81889
 C1320 C 0.26423 0.48549 0.80731
 H1321 H 0.32745 0.45382 0.88256
 H1322 H 0.31438 0.46661 0.86378
 H1323 H 0.27547 0.44624 0.87736
 H1324 H 0.28875 0.43325 0.89593
 H1325 H 0.27388 0.44537 0.85160
 H1326 H 0.26285 0.45580 0.83023
 H1327 H 0.28588 0.49494 0.83725
 H1328 H 0.29679 0.48472 0.85887
 C1329 C 0.33917 -0.08890 0.39507
 C1330 C 0.33259 -0.08238 0.38606
 C1331 C 0.32465 -0.07458 0.37542
 C1332 C 0.31776 -0.06192 0.37916
 C1333 C 0.30992 -0.05435 0.36893
 C1334 C 0.30885 -0.05935 0.35478
 C1335 C 0.31585 -0.07208 0.35109
 C1336 C 0.32369 -0.07964 0.36136
 C1337 C 0.30048 -0.05129 0.34393
 C1338 C 0.30550 -0.04979 0.32986
 C1339 C 0.29767 -0.04211 0.31971
 C1340 C 0.28470 -0.03587 0.32343
 C1341 C 0.27958 -0.03731 0.33738
 C1342 C 0.28743 -0.04496 0.34758
 C1343 C 0.27662 -0.02834 0.31270
 C1344 C 0.27042 -0.02251 0.30301
 H1345 H 0.31847 -0.05788 0.39000
 H1346 H 0.30484 -0.04449 0.37205
 H1347 H 0.31509 -0.07631 0.34034
 H1348 H 0.32894 -0.08946 0.35835
 H1349 H 0.31557 -0.05438 0.32674
 H1350 H 0.30173 -0.04105 0.30893
 H1351 H 0.26951 -0.03261 0.34035
 H1352 H 0.28318 -0.04609 0.35827
 C1353 C -0.09769 -0.09937 -0.13610
 C1354 C -0.09009 -0.09219 -0.12856
 C1355 C -0.08086 -0.08338 -0.12000
 C1356 C -0.06706 -0.08043 -0.12466
 C1357 C -0.05823 -0.07142 -0.11669
 C1358 C -0.06304 -0.06526 -0.10388
 C1359 C -0.07691 -0.06840 -0.09923
 C1360 C -0.08576 -0.07734 -0.10728
 C1361 C -0.05367 -0.05556 -0.09546
 C1362 C -0.05938 -0.04370 -0.08827
 C1363 C -0.05066 -0.03484 -0.08003
 C1364 C -0.03608 -0.03759 -0.07892
 C1365 C -0.03025 -0.04923 -0.08614
 C1366 C -0.03897 -0.05816 -0.09436
 C1367 C -0.02750 -0.02940 -0.06912
 C1368 C -0.02093 -0.02311 -0.05999
 H1369 H -0.06320 -0.08496 -0.13456
 H1370 H -0.04773 -0.06905 -0.12073
 H1371 H -0.08088 -0.06406 -0.08931
 H1372 H -0.09642 -0.07954 -0.10363
 H1373 H -0.07060 -0.04126 -0.08901
 H1374 H -0.05533 -0.02598 -0.07431
 H1375 H -0.01904 -0.05164 -0.08511
 H1376 H -0.03424 -0.06733 -0.09949
 C1377 C -0.07242 0.42482 0.33981
 C1378 C -0.06544 0.43197 0.34795
 C1379 C -0.05753 0.44036 0.35810
 C1380 C -0.05978 0.45509 0.35899
 C1381 C -0.05304 0.46305 0.36970
 C1382 C -0.04398 0.45635 0.37968
 C1383 C -0.04151 0.44159 0.37844
 C1384 C -0.04825 0.43367 0.36773
 C1385 C -0.03784 0.46446 0.39186
 C1386 C -0.02395 0.46166 0.39675
 C1387 C -0.01871 0.46831 0.40908
 C1388 C -0.02726 0.47786 0.41663
 C1389 C -0.04092 0.48105 0.41161
 C1390 C -0.04618 0.47442 0.39929
 C1391 C -0.02252 0.48337 0.43019
 C1392 C -0.01888 0.48740 0.44188
 H1393 H -0.06697 0.46037 0.35160
 H1394 H -0.05504 0.47441 0.37028
 H1395 H -0.03478 0.43608 0.38608
 H1396 H -0.04652 0.42225 0.36720
 H1397 H -0.01722 0.45417 0.39117
 H1398 H -0.00815 0.46571 0.41293
 H1399 H -0.04768 0.48831 0.41747
 H1400 H -0.05699 0.47665 0.39593
 C1401 C 0.41251 -0.08844 0.35521
 C1402 C 0.41946 -0.08113 0.36324
 C1403 C 0.42776 -0.07251 0.37291
 C1404 C 0.42240 -0.06903 0.38640
 C1405 C 0.43053 -0.06084 0.39589
 C1406 C 0.44415 -0.05601 0.39201
 C1407 C 0.44943 -0.05953 0.37841
 C1408 C 0.44128 -0.06772 0.36893
 C1409 C 0.45287 -0.04752 0.40223
 C1410 C 0.46755 -0.05007 0.40373
 C1411 C 0.47559 -0.04254 0.41384
 C1412 C 0.46910 -0.03233 0.42252
 C1413 C 0.45457 -0.02954 0.42092
 C1414 C 0.44650 -0.03706 0.41085
 C1415 C 0.47695 -0.02550 0.43386
 C1416 C 0.48282 -0.02010 0.44399
 H1417 H 0.41198 -0.07273 0.38962
 H1418 H 0.42625 -0.05850 0.40635
 H1419 H 0.45980 -0.05584 0.37506
 H1420 H 0.44552 -0.07034 0.35851
 H1421 H 0.47272 -0.05818 0.39739
 H1422 H 0.48679 -0.04492 0.41512
 H1423 H 0.44941 -0.02171 0.42763
 H1424 H 0.43527 -0.03472 0.40984
 C1425 C 0.42423 0.42494 -0.15978
 C1426 C 0.43094 0.43173 -0.15112
 C1427 C 0.43851 0.43976 -0.14041
 C1428 C 0.43131 0.45006 -0.13244
 C1429 C 0.43831 0.45730 -0.12141
 C1430 C 0.45262 0.45432 -0.11819
 C1431 C 0.45987 0.44416 -0.12646
 C1432 C 0.45283 0.43690 -0.13749
 C1433 C 0.45976 0.46139 -0.10590
 C1434 C 0.47394 0.46608 -0.10687
 C1435 C 0.48065 0.47248 -0.09511
 C1436 C 0.47327 0.47423 -0.08227
 C1437 C 0.45917 0.46963 -0.08124
 C1438 C 0.45244 0.46326 -0.09295
 C1439 C 0.48011 0.48035 -0.06993
 C1440 C 0.48522 0.48514 -0.05911
 H1441 H 0.42023 0.45236 -0.13462
 H1442 H 0.43251 0.46521 -0.11536
 H1443 H 0.47084 0.44152 -0.12413
 H1444 H 0.45848 0.42889 -0.14355
 H1445 H 0.47979 0.46489 -0.11673
 H1446 H 0.49159 0.47599 -0.09601
 H1447 H 0.45339 0.47083 -0.07131
 H1448 H 0.44161 0.45955 -0.09178
 C1449 C 0.42076 0.82948 0.40338
 C1450 C 0.42715 0.82266 0.39460
 C1451 C 0.43461 0.81473 0.38385
 C1452 C 0.42704 0.80850 0.37255
 C1453 C 0.43426 0.80128 0.36174
 C1454 C 0.44918 0.80022 0.36209
 C1455 C 0.45668 0.80635 0.37360
 C1456 C 0.44943 0.81358 0.38440
 C1457 C 0.45686 0.79306 0.35029
 C1458 C 0.46864 0.78422 0.35313
 C1459 C 0.47585 0.77756 0.34192
 C1460 C 0.47137 0.77968 0.32778
 C1461 C 0.45967 0.78844 0.32487
 C1462 C 0.45248 0.79510 0.33602
 C1463 C 0.47863 0.77303 0.31606
 C1464 C 0.48405 0.76797 0.30560
 H1465 H 0.41557 0.80932 0.37202
 H1466 H 0.42817 0.79650 0.35313
 H1467 H 0.46817 0.80586 0.37408
 H1468 H 0.45539 0.81843 0.39308
 H1469 H 0.47216 0.78233 0.36402
 H1470 H 0.48488 0.77078 0.34428
 H1471 H 0.45613 0.79015 0.31396
 H1472 H 0.44361 0.80202 0.33344
 C1473 C -0.09916 0.84656 0.88414
 C1474 C -0.09203 0.83963 0.87601
 C1475 C -0.08315 0.83137 0.86667
 C1476 C -0.06994 0.83676 0.86245
 C1477 C -0.06099 0.82856 0.85388
 C1478 C -0.06511 0.81482 0.84945
 C1479 C -0.07850 0.80957 0.85359
 C1480 C -0.08744 0.81779 0.86217
 C1481 C -0.05543 0.80595 0.84066
 C1482 C -0.05413 0.79120 0.84327
 C1483 C -0.04515 0.78282 0.83490
 C1484 C -0.03730 0.78905 0.82386
 C1485 C -0.03849 0.80372 0.82120
 C1486 C -0.04745 0.81212 0.82956
 C1487 C -0.02886 0.78034 0.81450
 C1488 C -0.02233 0.77359 0.80577
 H1489 H -0.06648 0.84722 0.86595
 H1490 H -0.05071 0.83286 0.85099
 H1491 H -0.08212 0.79918 0.85007
 H1492 H -0.09769 0.81356 0.86529
 H1493 H -0.06002 0.78616 0.85183
 H1494 H -0.04445 0.77146 0.83693
 H1495 H -0.03265 0.80863 0.81252
 H1496 H -0.04835 0.82338 0.82717
 C1497 C 0.35427 0.83372 0.33678
 C1498 C 0.36265 0.82708 0.32971
 C1499 C 0.37286 0.81943 0.32128
 C1500 C 0.38444 0.82670 0.31538
 C1501 C 0.39454 0.81932 0.30739
 C1502 C 0.39321 0.80452 0.30519
 C1503 C 0.38147 0.79732 0.31106
 C1504 C 0.37137 0.80473 0.31907
 C1505 C 0.40417 0.79665 0.29700
 C1506 C 0.40030 0.78579 0.28734
 C1507 C 0.41071 0.77844 0.27964
 C1508 C 0.42507 0.78187 0.28154
 C1509 C 0.42899 0.79264 0.29113
 C1510 C 0.41865 0.79997 0.29882
 C1511 C 0.43600 0.77444 0.27386
 C1512 C 0.44594 0.76886 0.26804
 H1513 H 0.38568 0.83808 0.31699
 H1514 H 0.40334 0.82521 0.30285
 H1515 H 0.38024 0.78591 0.30970
 H1516 H 0.36246 0.79899 0.32361
 H1517 H 0.38923 0.78310 0.28559
 H1518 H 0.40755 0.77014 0.27223
 H1519 H 0.44008 0.79535 0.29269
 H1520 H 0.42202 0.80810 0.30633
 C1521 C -0.13393 0.84672 0.84712
 C1522 C -0.12640 0.83943 0.83972
 C1523 C -0.11779 0.83055 0.83070
 C1524 C -0.12430 0.82135 0.82087
 C1525 C -0.11605 0.81259 0.81215
 C1526 C -0.10114 0.81287 0.81321
 C1527 C -0.09467 0.82221 0.82306
 C1528 C -0.10296 0.83101 0.83173
 C1529 C -0.09240 0.80338 0.80414
 C1530 C -0.08078 0.79599 0.81006
 C1531 C -0.07238 0.78723 0.80150
 C1532 C -0.07546 0.78573 0.78690
 C1533 C -0.08703 0.79300 0.78091
 C1534 C -0.09550 0.80173 0.78949
 C1535 C -0.06597 0.77762 0.77805
 C1536 C -0.05703 0.77138 0.77133
 H1537 H -0.13578 0.82089 0.82000
 H1538 H -0.12132 0.80542 0.80475
 H1539 H -0.08321 0.82281 0.82394
 H1540 H -0.09780 0.83817 0.83922
 H1541 H -0.07825 0.79694 0.82133
 H1542 H -0.06336 0.78176 0.80623
 H1543 H -0.08935 0.79213 0.76958
 H1544 H -0.10426 0.80747 0.78461
 C1545 C 0.91039 0.32241 0.42614
 C1546 C 0.90214 0.31554 0.43318
 C1547 C 0.89191 0.30766 0.44142
 C1548 C 0.88287 0.29790 0.43462
 C1549 C 0.87218 0.29105 0.44236
 C1550 C 0.87036 0.29389 0.45701
 C1551 C 0.87972 0.30347 0.46383
 C1552 C 0.89041 0.31031 0.45606
 C1553 C 0.85824 0.28752 0.46490
 C1554 C 0.85028 0.29587 0.47444
 C1555 C 0.83811 0.29031 0.48090
 C1556 C 0.83375 0.27634 0.47796
 C1557 C 0.84181 0.26781 0.46882
 C1558 C 0.85400 0.27334 0.46234
 C1559 C 0.82037 0.27125 0.48333
 C1560 C 0.80882 0.26738 0.48726
 H1561 H 0.88388 0.29584 0.42327
 H1562 H 0.86502 0.28391 0.43675
 H1563 H 0.87868 0.30576 0.47512
 H1564 H 0.89734 0.31787 0.46142
 H1565 H 0.85313 0.30688 0.47647
 H1566 H 0.83186 0.29706 0.48784
 H1567 H 0.83848 0.25700 0.46641
 H1568 H 0.85999 0.26660 0.45518
 C1569 C 0.88460 0.84589 -0.09758
 C1570 C 0.87758 0.83837 -0.08986
 C1571 C 0.86944 0.82929 -0.08053
 C1572 C 0.85712 0.82262 -0.08560
 C1573 C 0.84932 0.81362 -0.07664
 C1574 C 0.85383 0.81108 -0.06248
 C1575 C 0.86620 0.81792 -0.05745
 C1576 C 0.87395 0.82695 -0.06643
 C1577 C 0.84569 0.80128 -0.05305
 C1578 C 0.84369 0.80455 -0.03851
 C1579 C 0.83568 0.79552 -0.02975
 C1580 C 0.82965 0.78307 -0.03537
 C1581 C 0.83171 0.77964 -0.04978
 C1582 C 0.83972 0.78865 -0.05855
 C1583 C 0.81983 0.77487 -0.02693
 C1584 C 0.81054 0.76878 -0.02053
 H1585 H 0.85353 0.82442 -0.09647
 H1586 H 0.83967 0.80878 -0.08074
 H1587 H 0.87004 0.81608 -0.04666
 H1588 H 0.88353 0.83202 -0.06241
 H1589 H 0.84793 0.81431 -0.03400
 H1590 H 0.83384 0.79847 -0.01871
 H1591 H 0.82687 0.77017 -0.05433
 H1592 H 0.84120 0.78574 -0.06966
 C1593 C -0.13611 -0.09725 -0.09817
 C1594 C -0.12853 -0.08969 -0.09097
 C1595 C -0.11974 -0.08068 -0.08214
 C1596 C -0.11380 -0.08608 -0.06950
 C1597 C -0.10531 -0.07738 -0.06084
 C1598 C -0.10259 -0.06311 -0.06472
 C1599 C -0.10872 -0.05774 -0.07741
 C1600 C -0.11724 -0.06647 -0.08605
 C1601 C -0.09324 -0.05398 -0.05567
 C1602 C -0.09630 -0.03941 -0.05359
 C1603 C -0.08736 -0.03088 -0.04516
 C1604 C -0.07528 -0.03679 -0.03868
 C1605 C -0.07220 -0.05125 -0.04065
 C1606 C -0.08109 -0.05978 -0.04905
 C1607 C -0.06538 -0.02809 -0.03075
 C1608 C -0.05608 -0.02167 -0.02459
 H1609 H -0.11569 -0.09705 -0.06635
 H1610 H -0.10092 -0.08181 -0.05107
 H1611 H -0.10668 -0.04689 -0.08082
 H1612 H -0.12176 -0.06218 -0.09584
 H1613 H -0.10566 -0.03464 -0.05839
 H1614 H -0.08980 -0.01967 -0.04378
 H1615 H -0.06279 -0.05591 -0.03581
 H1616 H -0.07829 -0.07086 -0.05053
 C1617 C -0.18518 0.45223 0.45275
 C1618 C -0.17319 0.45558 0.45596
 C1619 C -0.15892 0.45966 0.45981
 C1620 C -0.15099 0.45123 0.46929
 C1621 C -0.13718 0.45526 0.47314
 C1622 C -0.13110 0.46781 0.46754
 C1623 C -0.13916 0.47620 0.45799
 C1624 C -0.15297 0.47214 0.45416
 C1625 C -0.11643 0.47212 0.47164
 C1626 C -0.11311 0.48655 0.47420
 C1627 C -0.09928 0.49059 0.47802
 C1628 C -0.08861 0.48028 0.47932
 C1629 C -0.09181 0.46591 0.47682
 C1630 C -0.10562 0.46185 0.47301
 C1631 C -0.07433 0.48442 0.48308
 C1632 C -0.06230 0.48771 0.48611
 H1633 H -0.15551 0.44157 0.47376
 H1634 H -0.13133 0.44868 0.48065
 H1635 H -0.13473 0.48580 0.45333
 H1636 H -0.15900 0.47873 0.44677
 H1637 H -0.12123 0.49469 0.47342
 H1638 H -0.09693 0.50174 0.47995
 H1639 H -0.08361 0.45785 0.47775
 H1640 H -0.10778 0.45069 0.47093
 C1641 C 0.35590 -0.08793 0.41330
 C1642 C 0.36403 -0.08058 0.42010
 C1643 C 0.37389 -0.07191 0.42813
 C1644 C 0.38762 -0.06956 0.42292
 C1645 C 0.39727 -0.06130 0.43076
 C1646 C 0.39334 -0.05525 0.44393
 C1647 C 0.37950 -0.05765 0.44905
 C1648 C 0.36985 -0.06593 0.44119
 C1649 C 0.40371 -0.04665 0.45232
 C1650 C 0.40465 -0.04809 0.46730
 C1651 C 0.41489 -0.04049 0.47509
 C1652 C 0.42426 -0.03129 0.46803
 C1653 C 0.42323 -0.02958 0.45318
 C1654 C 0.41304 -0.03718 0.44537
 C1655 C 0.43569 -0.02444 0.47571
 C1656 C 0.44590 -0.01908 0.48142
 H1657 H 0.39089 -0.07419 0.41285
 H1658 H 0.40790 -0.05985 0.42662
 H1659 H 0.37610 -0.05302 0.45906
 H1660 H 0.35924 -0.06766 0.44532
 H1661 H 0.39775 -0.05542 0.47295
 H1662 H 0.41570 -0.04202 0.48656
 H1663 H 0.43049 -0.02255 0.44759
 H1664 H 0.41249 -0.03569 0.43389
 C1665 C 0.34244 0.42565 -0.07492
 C1666 C 0.35188 0.43193 -0.06881
 C1667 C 0.36352 0.43925 -0.06200
 C1668 C 0.36102 0.45050 -0.05252
 C1669 C 0.37246 0.45781 -0.04628
 C1670 C 0.38653 0.45395 -0.04952
 C1671 C 0.38890 0.44254 -0.05896
 C1672 C 0.37747 0.43526 -0.06515
 C1673 C 0.39875 0.46178 -0.04317
 C1674 C 0.41072 0.46499 -0.05154
 C1675 C 0.42250 0.47181 -0.04549
 C1676 C 0.42248 0.47556 -0.03101
 C1677 C 0.41054 0.47265 -0.02263
 C1678 C 0.39871 0.46583 -0.02868
 C1679 C 0.43507 0.48170 -0.02475
 C1680 C 0.44605 0.48638 -0.02000
 H1681 H 0.35026 0.45371 -0.05005
 H1682 H 0.37032 0.46663 -0.03916
 H1683 H 0.39960 0.43916 -0.06147
 H1684 H 0.37952 0.42654 -0.07245
 H1685 H 0.41098 0.46221 -0.06278
 H1686 H 0.43170 0.47399 -0.05207
 H1687 H 0.41046 0.47543 -0.01138
 H1688 H 0.38970 0.46338 -0.02194
 C1689 C 0.40711 0.42537 0.82228
 C1690 C 0.39896 0.43250 0.81529
 C1691 C 0.38884 0.44084 0.80729
 C1692 C 0.38051 0.45096 0.81433
 C1693 C 0.36994 0.45838 0.80686
 C1694 C 0.36754 0.45576 0.79222
 C1695 C 0.37619 0.44579 0.78516
 C1696 C 0.38676 0.43837 0.79266
 C1697 C 0.35553 0.46279 0.78464
 C1698 C 0.34683 0.45492 0.77523
 C1699 C 0.33475 0.46111 0.76909
 C1700 C 0.33121 0.47525 0.77221
 C1701 C 0.34000 0.48332 0.78122
 C1702 C 0.35211 0.47714 0.78738
 C1703 C 0.31793 0.48099 0.76716
 C1704 C 0.30642 0.48525 0.76338
 H1705 H 0.38197 0.45288 0.82567
 H1706 H 0.36333 0.46581 0.81266
 H1707 H 0.37469 0.44365 0.77387
 H1708 H 0.39314 0.43055 0.78711
 H1709 H 0.34904 0.44380 0.77307
 H1710 H 0.32793 0.45472 0.76225
 H1711 H 0.33732 0.49426 0.78376
 H1712 H 0.35868 0.48353 0.79444
 C1713 C 0.39490 -0.08916 0.33785
 C1714 C 0.38648 -0.08245 0.33075
 C1715 C 0.37642 -0.07449 0.32228
 C1716 C 0.36217 -0.07376 0.32644
 C1717 C 0.35237 -0.06611 0.31815
 C1718 C 0.35671 -0.05907 0.30558
 C1719 C 0.37106 -0.05984 0.30152
 C1720 C 0.38084 -0.06751 0.30981
 C1721 C 0.34629 -0.05107 0.29669
 C1722 C 0.34992 -0.03781 0.29056
 C1723 C 0.34001 -0.03023 0.28231
 C1724 C 0.32641 -0.03586 0.28001
 C1725 C 0.32277 -0.04909 0.28595
 C1726 C 0.33260 -0.05663 0.29425
 C1727 C 0.31581 -0.02798 0.27217
 C1728 C 0.30609 -0.02202 0.26622
 H1729 H 0.35863 -0.07909 0.33608
 H1730 H 0.34143 -0.06558 0.32165
 H1731 H 0.37469 -0.05470 0.29181
 H1732 H 0.39183 -0.06806 0.30647
 H1733 H 0.36032 -0.03318 0.29238
 H1734 H 0.34290 -0.01995 0.27786
 H1735 H 0.31227 -0.05352 0.28423
 H1736 H 0.32953 -0.06687 0.29866
 C1737 C 0.09050 0.57990 0.67473
 C1738 C 0.09971 0.57372 0.68127
 C1739 C 0.11100 0.56659 0.68886
 C1740 C 0.12256 0.57448 0.69403
 C1741 C 0.13386 0.56757 0.70088
 C1742 C 0.13375 0.55265 0.70264
 C1743 C 0.12197 0.54484 0.69758
 C1744 C 0.11068 0.55178 0.69071
 C1745 C 0.14603 0.54528 0.70941
 C1746 C 0.14394 0.53386 0.71899
 C1747 C 0.15559 0.52695 0.72529
 C1748 C 0.16942 0.53137 0.72206
 C1749 C 0.17158 0.54268 0.71252
 C1750 C 0.15999 0.54959 0.70624
 C1751 C 0.18154 0.52440 0.72838
 C1752 C 0.19220 0.51909 0.73319
 H1753 H 0.12291 0.58596 0.69266
 H1754 H 0.14267 0.57390 0.70483
 H1755 H 0.12166 0.53333 0.69863
 H1756 H 0.10180 0.54557 0.68669
 H1757 H 0.13332 0.53039 0.72174
 H1758 H 0.15381 0.51821 0.73267
 H1759 H 0.18225 0.54614 0.70989
 H1760 H 0.16195 0.55818 0.69873
 C1761 C 0.08896 0.06716 0.17527
 C1762 C 0.09754 0.06054 0.18224
 C1763 C 0.10823 0.05311 0.19043
 C1764 C 0.11725 0.06080 0.19954
 C1765 C 0.12828 0.05388 0.20681
 C1766 C 0.13048 0.03914 0.20504
 C1767 C 0.12117 0.03144 0.19608
 C1768 C 0.11013 0.03839 0.18881
 C1769 C 0.14288 0.03205 0.21193
 C1770 C 0.15097 0.02205 0.20429
 C1771 C 0.16330 0.01622 0.21029
 C1772 C 0.16772 0.02026 0.22402
 C1773 C 0.15956 0.02993 0.23187
 C1774 C 0.14721 0.03578 0.22588
 C1775 C 0.18115 0.01529 0.22953
 C1776 C 0.19272 0.01146 0.23358
 H1777 H 0.11594 0.07221 0.20080
 H1778 H 0.13539 0.06016 0.21343
 H1779 H 0.12249 0.02006 0.19461
 H1780 H 0.10322 0.03234 0.18176
 H1781 H 0.14807 0.01913 0.19345
 H1782 H 0.16961 0.00886 0.20406
 H1783 H 0.16291 0.03317 0.24249
 H1784 H 0.14113 0.04333 0.23210
 C1785 C 0.66236 0.68102 0.17643
 C1786 C 0.65395 0.68795 0.18319
 C1787 C 0.64345 0.69586 0.19100
 C1788 C 0.63510 0.70604 0.18394
 C1789 C 0.62406 0.71286 0.19115
 C1790 C 0.62119 0.70955 0.20555
 C1791 C 0.62989 0.69956 0.21266
 C1792 C 0.64093 0.69275 0.20542
 C1793 C 0.60870 0.71589 0.21281
 C1794 C 0.59998 0.70738 0.22155
 C1795 C 0.58761 0.71299 0.22752
 C1796 C 0.58379 0.72718 0.22488
 C1797 C 0.59256 0.73584 0.21647
 C1798 C 0.60495 0.73025 0.21048
 C1799 C 0.57040 0.73247 0.23000
 C1800 C 0.55887 0.73642 0.23392
 H1801 H 0.63688 0.70844 0.17274
 H1802 H 0.61744 0.72033 0.18531
 H1803 H 0.62806 0.69691 0.22378
 H1804 H 0.64732 0.68486 0.21099
 H1805 H 0.60243 0.69624 0.22337
 H1806 H 0.58082 0.70615 0.23389
 H1807 H 0.58967 0.74683 0.21430
 H1808 H 0.61152 0.73711 0.20393
 C1809 C 0.15504 0.67974 0.67729
 C1810 C 0.14713 0.68687 0.68444
 C1811 C 0.13723 0.69516 0.69264
 C1812 C 0.12875 0.70538 0.68579
 C1813 C 0.11834 0.71270 0.69343
 C1814 C 0.11624 0.70987 0.70807
 C1815 C 0.12503 0.69979 0.71494
 C1816 C 0.13545 0.69248 0.70726
 C1817 C 0.10438 0.71679 0.71585
 C1818 C 0.09593 0.70881 0.72533
 C1819 C 0.08398 0.71491 0.73166
 C1820 C 0.08032 0.72907 0.72866
 C1821 C 0.08888 0.73725 0.71958
 C1822 C 0.10086 0.73117 0.71324
 C1823 C 0.06710 0.73469 0.73387
 C1824 C 0.05563 0.73880 0.73775
 H1825 H 0.12997 0.70746 0.67445
 H1826 H 0.11160 0.72020 0.68777
 H1827 H 0.12377 0.69748 0.72621
 H1828 H 0.14193 0.68457 0.71266
 H1829 H 0.09821 0.69767 0.72740
 H1830 H 0.07734 0.70843 0.73855
 H1831 H 0.08610 0.74820 0.71713
 H1832 H 0.10725 0.73764 0.70613
 C1833 C 0.58889 0.17887 0.56989
 C1834 C 0.59754 0.18567 0.56328
 C1835 C 0.60828 0.19355 0.55575
 C1836 C 0.61533 0.20484 0.56254
 C1837 C 0.62659 0.21176 0.55573
 C1838 C 0.63098 0.20744 0.54205
 C1839 C 0.62358 0.19632 0.53516
 C1840 C 0.61232 0.18941 0.54199
 C1841 C 0.64371 0.21396 0.53537
 C1842 C 0.65370 0.20532 0.52837
 C1843 C 0.66619 0.21123 0.52293
 C1844 C 0.66887 0.22584 0.52439
 C1845 C 0.65888 0.23459 0.53108
 C1846 C 0.64636 0.22870 0.53653
 C1847 C 0.68223 0.23159 0.51972
 C1848 C 0.69371 0.23592 0.51608
 H1849 H 0.61234 0.20806 0.57324
 H1850 H 0.63219 0.22014 0.56140
 H1851 H 0.62661 0.19287 0.52455
 H1852 H 0.60694 0.18067 0.53665
 H1853 H 0.65209 0.19391 0.52750
 H1854 H 0.67391 0.20434 0.51788
 H1855 H 0.66087 0.24592 0.53228
 H1856 H 0.63880 0.23563 0.54174
 C1857 C 0.59156 0.68252 0.06943
 C1858 C 0.60055 0.68896 0.06287
 C1859 C 0.61169 0.69630 0.05532
 C1860 C 0.61670 0.69087 0.04236
 C1861 C 0.62826 0.69731 0.03556
 C1862 C 0.63500 0.70927 0.04167
 C1863 C 0.62969 0.71485 0.05454
 C1864 C 0.61813 0.70838 0.06133
 C1865 C 0.64790 0.71550 0.03496
 C1866 C 0.65002 0.73037 0.03457
 C1867 C 0.66244 0.73612 0.02871
 C1868 C 0.67288 0.72708 0.02319
 C1869 C 0.67081 0.71230 0.02344
 C1870 C 0.65842 0.70654 0.02926
 C1871 C 0.68602 0.73281 0.01782
 C1872 C 0.69734 0.73711 0.01362
 H1873 H 0.61182 0.68152 0.03762
 H1874 H 0.63198 0.69288 0.02558
 H1875 H 0.63475 0.72393 0.05960
 H1876 H 0.61441 0.71261 0.07141
 H1877 H 0.64206 0.73755 0.03876
 H1878 H 0.66396 0.74758 0.02862
 H1879 H 0.67889 0.70519 0.01933
 H1880 H 0.65724 0.69505 0.02963
 C1881 C 0.15918 0.06851 0.06810
 C1882 C 0.15094 0.06191 0.06071
 C1883 C 0.14062 0.05434 0.05219
 C1884 C 0.13967 0.03945 0.05298
 C1885 C 0.12889 0.03224 0.04557
 C1886 C 0.11890 0.03985 0.03729
 C1887 C 0.12017 0.05478 0.03631
 C1888 C 0.13095 0.06196 0.04372
 C1889 C 0.10674 0.03239 0.03034
 C1890 C 0.10178 0.03667 0.01676
 C1891 C 0.08958 0.03046 0.01082
 C1892 C 0.08221 0.01988 0.01835
 C1893 C 0.08729 0.01527 0.03167
 C1894 C 0.09948 0.02146 0.03763
 C1895 C 0.06879 0.01465 0.01304
 C1896 C 0.05721 0.01074 0.00909
 H1897 H 0.14710 0.03345 0.05952
 H1898 H 0.12829 0.02074 0.04641
 H1899 H 0.11253 0.06098 0.03023
 H1900 H 0.13153 0.07350 0.04311
 H1901 H 0.10723 0.04494 0.01081
 H1902 H 0.08570 0.03417 0.00053
 H1903 H 0.08158 0.00720 0.03766
 H1904 H 0.10288 0.01807 0.04819
 C1905 C 0.14841 0.58298 0.57981
 C1906 C 0.14054 0.57580 0.57259
 C1907 C 0.13088 0.56750 0.56402
 C1908 C 0.12755 0.57189 0.55008
 C1909 C 0.11747 0.56439 0.54204
 C1910 C 0.11057 0.55240 0.54787
 C1911 C 0.11425 0.54787 0.56177
 C1912 C 0.12433 0.55540 0.56979
 C1913 C 0.09906 0.54510 0.53981
 C1914 C 0.09767 0.53015 0.54023
 C1915 C 0.08619 0.52343 0.53346
 C1916 C 0.07600 0.53158 0.52618
 C1917 C 0.07746 0.54641 0.52544
 C1918 C 0.08891 0.55314 0.53219
 C1919 C 0.06346 0.52496 0.52037
 C1920 C 0.05249 0.51999 0.51593
 H1921 H 0.13258 0.58125 0.54551
 H1922 H 0.11499 0.56802 0.53131
 H1923 H 0.10898 0.53881 0.56662
 H1924 H 0.12680 0.55196 0.58060
 H1925 H 0.10540 0.52368 0.54590
 H1926 H 0.08511 0.51194 0.53415
 H1927 H 0.06954 0.55283 0.51997
 H1928 H 0.08955 0.56467 0.53186
 C1929 C 0.66402 0.06997 0.57169
 C1930 C 0.65534 0.06338 0.56480
 C1931 C 0.64454 0.05585 0.55686
 C1932 C 0.63645 0.04527 0.56359
 C1933 C 0.62520 0.03872 0.55629
 C1934 C 0.62188 0.04267 0.54212
 C1935 C 0.63028 0.05310 0.53534
 C1936 C 0.64152 0.05964 0.54267
 C1937 C 0.60928 0.03644 0.53476
 C1938 C 0.60026 0.04513 0.52642
 C1939 C 0.58785 0.03955 0.52034
 C1940 C 0.58428 0.02520 0.52244
 C1941 C 0.59333 0.01637 0.53044
 C1942 C 0.60576 0.02194 0.53654
 C1943 C 0.57086 0.01985 0.51726
 C1944 C 0.55932 0.01574 0.51340
 H1945 H 0.63862 0.04232 0.57461
 H1946 H 0.61882 0.03090 0.56189
 H1947 H 0.62809 0.05626 0.52440
 H1948 H 0.64769 0.06784 0.53736
 H1949 H 0.60253 0.05638 0.52502
 H1950 H 0.58085 0.04651 0.51429
 H1951 H 0.59064 0.00527 0.53219
 H1952 H 0.61255 0.01494 0.54275
 C1953 C 0.66205 0.57456 0.07263
 C1954 C 0.65380 0.56755 0.06565
 C1955 C 0.64357 0.55950 0.05750
 C1956 C 0.64188 0.56205 0.04284
 C1957 C 0.63118 0.55502 0.03515
 C1958 C 0.62203 0.54536 0.04206
 C1959 C 0.62405 0.54262 0.05675
 C1960 C 0.63475 0.54966 0.06440
 C1961 C 0.60988 0.53882 0.03426
 C1962 C 0.60586 0.52459 0.03692
 C1963 C 0.59365 0.51889 0.03052
 C1964 C 0.58535 0.52731 0.02136
 C1965 C 0.58949 0.54133 0.01832
 C1966 C 0.60169 0.54705 0.02469
 C1967 C 0.57197 0.52205 0.01605
 C1968 C 0.56041 0.51809 0.01210
 H1969 H 0.64865 0.56966 0.03740
 H1970 H 0.62999 0.55723 0.02383
 H1971 H 0.61705 0.53542 0.06243
 H1972 H 0.63591 0.54767 0.07578
 H1973 H 0.61205 0.51794 0.04410
 H1974 H 0.59050 0.50805 0.03299
 H1975 H 0.58306 0.54799 0.01135
 H1976 H 0.60437 0.55809 0.02258
 C1977 C 0.07130 0.06716 0.15768
 C1978 C 0.06443 0.06044 0.14908
 C1979 C 0.05656 0.05273 0.13834
 C1980 C 0.04627 0.05977 0.13010
 C1981 C 0.03942 0.05268 0.11887
 C1982 C 0.04282 0.03842 0.11568
 C1983 C 0.05296 0.03132 0.12423
 C1984 C 0.05978 0.03845 0.13547
 C1985 C 0.03635 0.03127 0.10304
 C1986 C 0.04475 0.02281 0.09399
 C1987 C 0.03896 0.01692 0.08153
 C1988 C 0.02471 0.01934 0.07794
 C1989 C 0.01617 0.02747 0.08703
 C1990 C 0.02194 0.03339 0.09951
 C1991 C 0.01920 0.01432 0.06446
 C1992 C 0.01503 0.01052 0.05285
 H1993 H 0.04377 0.07086 0.13215
 H1994 H 0.03184 0.05850 0.11236
 H1995 H 0.05569 0.02031 0.12214
 H1996 H 0.06776 0.03290 0.14176
 H1997 H 0.05592 0.02116 0.09628
 H1998 H 0.04571 0.01077 0.07450
 H1999 H 0.00514 0.02947 0.08433
 H2000 H 0.01517 0.03972 0.10634
 C2001 C 0.07227 0.57857 0.65795
 C2002 C 0.06557 0.57122 0.64975
 C2003 C 0.05779 0.56272 0.63956
 C2004 C 0.04306 0.56425 0.63818
 C2005 C 0.03567 0.55675 0.62757
 C2006 C 0.04295 0.54764 0.61816
 C2007 C 0.05772 0.54595 0.61986
 C2008 C 0.06508 0.55345 0.63048
 C2009 C 0.03535 0.54053 0.60616
 C2010 C 0.03892 0.52656 0.60202
 C2011 C 0.03254 0.52035 0.59000
 C2012 C 0.02249 0.52799 0.58200
 C2013 C 0.01860 0.54174 0.58624
 C2014 C 0.02496 0.54797 0.59824
 C2015 C 0.01695 0.52223 0.56884
 C2016 C 0.01265 0.51791 0.55748
 H2017 H 0.03731 0.57141 0.64515
 H2018 H 0.02428 0.55815 0.62664
 H2019 H 0.06367 0.53921 0.61267
 H2020 H 0.07650 0.55226 0.63140
 H2021 H 0.04675 0.52050 0.60799
 H2022 H 0.03567 0.50971 0.58677
 H2023 H 0.01092 0.54780 0.58005
 H2024 H 0.02213 0.55881 0.60100
 C2025 C 0.57307 0.06925 0.66358
 C2026 C 0.56624 0.06281 0.65474
 C2027 C 0.55830 0.05552 0.64375
 C2028 C 0.56044 0.04096 0.64131
 C2029 C 0.55350 0.03418 0.62992
 C2030 C 0.54436 0.04190 0.62080
 C2031 C 0.54205 0.05647 0.62356
 C2032 C 0.54899 0.06322 0.63494
 C2033 C 0.53784 0.03505 0.60802
 C2034 C 0.52386 0.03837 0.60376
 C2035 C 0.51817 0.03273 0.59112
 C2036 C 0.52636 0.02367 0.58261
 C2037 C 0.54015 0.02005 0.58693
 C2038 C 0.54586 0.02567 0.59955
 C2039 C 0.52103 0.01881 0.56900
 C2040 C 0.51704 0.01502 0.55733
 H2041 H 0.56764 0.03490 0.64806
 H2042 H 0.55537 0.02292 0.62818
 H2043 H 0.53526 0.06277 0.61662
 H2044 H 0.54734 0.07452 0.63667
 H2045 H 0.51737 0.04543 0.61014
 H2046 H 0.50749 0.03564 0.58786
 H2047 H 0.54663 0.01315 0.58035
 H2048 H 0.55672 0.02308 0.60240
 C2049 C 0.57309 0.57195 0.16127
 C2050 C 0.56620 0.56553 0.15248
 C2051 C 0.55810 0.55831 0.14160
 C2052 C 0.55094 0.56630 0.13118
 C2053 C 0.54372 0.55943 0.12006
 C2054 C 0.54360 0.54445 0.11921
 C2055 C 0.55061 0.53648 0.12989
 C2056 C 0.55783 0.54339 0.14103
 C2057 C 0.53686 0.53729 0.10676
 C2058 C 0.54376 0.52588 0.09994
 C2059 C 0.53818 0.52008 0.08735
 C2060 C 0.52562 0.52555 0.08145
 C2061 C 0.51842 0.53656 0.08840
 C2062 C 0.52398 0.54239 0.10100
 C2063 C 0.52081 0.52071 0.06767
 C2064 C 0.51719 0.51710 0.05584
 H2065 H 0.55116 0.57786 0.13148
 H2066 H 0.53864 0.56586 0.11187
 H2067 H 0.55058 0.52494 0.12958
 H2068 H 0.56335 0.53711 0.14905
 H2069 H 0.55377 0.52184 0.10401
 H2070 H 0.54390 0.51163 0.08197
 H2071 H 0.50871 0.54090 0.08390
 H2072 H 0.51835 0.55104 0.10611
 C2073 C 0.16534 0.58363 0.59783
 C2074 C 0.17224 0.57697 0.60644
 C2075 C 0.18032 0.56923 0.61697
 C2076 C 0.18280 0.55460 0.61531
 C2077 C 0.19023 0.54703 0.62586
 C2078 C 0.19522 0.55401 0.63822
 C2079 C 0.19283 0.56875 0.63968
 C2080 C 0.18543 0.57629 0.62913
 C2081 C 0.20258 0.54595 0.64974
 C2082 C 0.19951 0.54877 0.66416
 C2083 C 0.20647 0.54132 0.67506
 C2084 C 0.21659 0.53094 0.67173
 C2085 C 0.21969 0.52797 0.65742
 C2086 C 0.21271 0.53542 0.64646
 C2087 C 0.22374 0.52360 0.68319
 C2088 C 0.22923 0.51812 0.69349
 H2089 H 0.17884 0.54903 0.60595
 H2090 H 0.19178 0.53566 0.62452
 H2091 H 0.19672 0.57445 0.64898
 H2092 H 0.18359 0.58762 0.63049
 H2093 H 0.19161 0.55664 0.66702
 H2094 H 0.20396 0.54368 0.68612
 H2095 H 0.22754 0.51998 0.65475
 H2096 H 0.21537 0.53311 0.63545
 C2097 C 0.17627 0.06814 0.08623
 C2098 C 0.18311 0.06126 0.09474
 C2099 C 0.19112 0.05349 0.10535
 C2100 C 0.18849 0.03898 0.10771
 C2101 C 0.19558 0.03174 0.11874
 C2102 C 0.20539 0.03896 0.12758
 C2103 C 0.20816 0.05348 0.12490
 C2104 C 0.20107 0.06068 0.11388
 C2105 C 0.21217 0.03163 0.13997
 C2106 C 0.22643 0.03441 0.14367
 C2107 C 0.23244 0.02836 0.15599
 C2108 C 0.22430 0.01941 0.16473
 C2109 C 0.21022 0.01631 0.16095
 C2110 C 0.20420 0.02234 0.14865
 C2111 C 0.22998 0.01428 0.17812
 C2112 C 0.23428 0.01042 0.18967
 H2113 H 0.18079 0.03331 0.10119
 H2114 H 0.19333 0.02053 0.12043
 H2115 H 0.21547 0.05940 0.13163
 H2116 H 0.20312 0.07194 0.11221
 H2117 H 0.23289 0.04139 0.13713
 H2118 H 0.24332 0.03089 0.15885
 H2119 H 0.20378 0.00952 0.16772
 H2120 H 0.19314 0.02016 0.14623
 C2121 C 0.67941 0.17622 0.66265
 C2122 C 0.68574 0.18323 0.65391
 C2123 C 0.69304 0.19130 0.64307
 C2124 C 0.68575 0.20176 0.63527
 C2125 C 0.69245 0.20886 0.62399
 C2126 C 0.70655 0.20554 0.62034
 C2127 C 0.71390 0.19523 0.62847
 C2128 C 0.70717 0.18815 0.63975
 C2129 C 0.71330 0.21228 0.60768
 C2130 C 0.72157 0.20405 0.59830
 C2131 C 0.72728 0.21014 0.58594
 C2132 C 0.72485 0.22453 0.58278
 C2133 C 0.71683 0.23288 0.59213
 C2134 C 0.71109 0.22681 0.60452
 C2135 C 0.73003 0.23044 0.56957
 C2136 C 0.73415 0.23496 0.55824
 H2137 H 0.67477 0.20422 0.63769
 H2138 H 0.68645 0.21659 0.61782
 H2139 H 0.72482 0.19257 0.62604
 H2140 H 0.71291 0.18005 0.64571
 H2141 H 0.72326 0.19279 0.60029
 H2142 H 0.73337 0.20355 0.57871
 H2143 H 0.71485 0.24403 0.58977
 H2144 H 0.70490 0.23345 0.61160
 C2145 C 0.68005 0.68056 0.15909
 C2146 C 0.68709 0.68715 0.15057
 C2147 C 0.69509 0.69474 0.13990
 C2148 C 0.70845 0.68975 0.13572
 C2149 C 0.71565 0.69635 0.12444
 C2150 C 0.70955 0.70802 0.11716
 C2151 C 0.69629 0.71319 0.12170
 C2152 C 0.68911 0.70657 0.13298
 C2153 C 0.71660 0.71426 0.10440
 C2154 C 0.71639 0.72908 0.10190
 C2155 C 0.72234 0.73478 0.08943
 C2156 C 0.72857 0.72575 0.07934
 C2157 C 0.72900 0.71104 0.08184
 C2158 C 0.72308 0.70532 0.09427
 C2159 C 0.73389 0.73140 0.06608
 C2160 C 0.73807 0.73572 0.05469
 H2161 H 0.71316 0.68058 0.14097
 H2162 H 0.72592 0.69224 0.12132
 H2163 H 0.69122 0.72202 0.11620
 H2164 H 0.67873 0.71046 0.13606
 H2165 H 0.71160 0.73625 0.10955
 H2166 H 0.72190 0.74619 0.08758
 H2167 H 0.73367 0.70394 0.07404
 H2168 H 0.72319 0.69386 0.09575
 C2169 C 0.57363 0.68313 0.08652
 C2170 C 0.56688 0.69009 0.09493
 C2171 C 0.55910 0.69805 0.10545
 C2172 C 0.56626 0.70774 0.11430
 C2173 C 0.55903 0.71461 0.12534
 C2174 C 0.54452 0.71185 0.12771
 C2175 C 0.53734 0.70236 0.11852
 C2176 C 0.54459 0.69549 0.10748
 C2177 C 0.53719 0.71822 0.14021
 C2178 C 0.52791 0.70989 0.14853
 C2179 C 0.52189 0.71545 0.16096
 C2180 C 0.52502 0.72941 0.16524
 C2181 C 0.53396 0.73791 0.15686
 C2182 C 0.54000 0.73237 0.14441
 C2183 C 0.51991 0.73453 0.17878
 C2184 C 0.51603 0.73829 0.19045
 H2185 H 0.57751 0.70972 0.11290
 H2186 H 0.56492 0.72169 0.13234
 H2187 H 0.52614 0.70013 0.11996
 H2188 H 0.53895 0.68799 0.10071
 H2189 H 0.52571 0.69890 0.14574
 H2190 H 0.51511 0.70872 0.16745
 H2191 H 0.53651 0.74871 0.16011
 H2192 H 0.54698 0.73909 0.13815
 C2193 C 0.07324 0.67750 0.59430
 C2194 C 0.06616 0.68456 0.60235
 C2195 C 0.05788 0.69261 0.61241
 C2196 C 0.06051 0.70717 0.61445
 C2197 C 0.05315 0.71470 0.62498
 C2198 C 0.04309 0.70773 0.63364
 C2199 C 0.04031 0.69316 0.63128
 C2200 C 0.04767 0.68567 0.62075
 C2201 C 0.03605 0.71537 0.64558
 C2202 C 0.02172 0.71269 0.64892
 C2203 C 0.01550 0.71902 0.66089
 C2204 C 0.02349 0.72813 0.66964
 C2205 C 0.03763 0.73115 0.66620
 C2206 C 0.04387 0.72485 0.65425
 C2207 C 0.01763 0.73348 0.68277
 C2208 C 0.01328 0.73754 0.69416
 H2209 H 0.06840 0.71264 0.60806
 H2210 H 0.05541 0.72593 0.62642
 H2211 H 0.03281 0.68743 0.63790
 H2212 H 0.04561 0.67438 0.61933
 H2213 H 0.01537 0.70558 0.64237
 H2214 H 0.00456 0.71654 0.66350
 H2215 H 0.04396 0.73807 0.67299
 H2216 H 0.05498 0.72696 0.65213
 C2217 C 0.57319 0.58971 0.17842
 C2218 C 0.56637 0.59871 0.18449
 C2219 C 0.55833 0.60984 0.19121
 C2220 C 0.55375 0.60841 0.20537
 C2221 C 0.54621 0.61947 0.21187
 C2222 C 0.54315 0.63208 0.20424
 C2223 C 0.54774 0.63334 0.18999
 C2224 C 0.55526 0.62229 0.18354
 C2225 C 0.53568 0.64413 0.21117
 C2226 C 0.52557 0.65216 0.20348
 C2227 C 0.51954 0.66434 0.20950
 C2228 C 0.52348 0.66863 0.22329
 C2229 C 0.53315 0.66045 0.23123
 C2230 C 0.53920 0.64824 0.22523
 C2231 C 0.51857 0.68207 0.22872
 C2232 C 0.51495 0.69368 0.23280
 H2233 H 0.55607 0.59879 0.21139
 H2234 H 0.54273 0.61817 0.22282
 H2235 H 0.54579 0.64300 0.18393
 H2236 H 0.55883 0.62353 0.17260
 H2237 H 0.52251 0.64914 0.19272
 H2238 H 0.51210 0.67063 0.20325
 H2239 H 0.53636 0.66375 0.24187
 H2240 H 0.54705 0.64237 0.23135
 C2241 C 0.07188 0.59606 0.67550
 C2242 C 0.06488 0.60402 0.68272
 C2243 C 0.05683 0.61392 0.69116
 C2244 C 0.04613 0.62210 0.68471
 C2245 C 0.03902 0.63252 0.69259
 C2246 C 0.04256 0.63491 0.70704
 C2247 C 0.05311 0.62641 0.71351
 C2248 C 0.06020 0.61599 0.70560
 C2249 C 0.03582 0.64676 0.71504
 C2250 C 0.04407 0.65556 0.72402
 C2251 C 0.03805 0.66746 0.73060
 C2252 C 0.02370 0.67070 0.72835
 C2253 C 0.01530 0.66181 0.71976
 C2254 C 0.02130 0.64990 0.71316
 C2255 C 0.01801 0.68384 0.73377
 C2256 C 0.01369 0.69526 0.73773
 H2257 H 0.04350 0.62065 0.67351
 H2258 H 0.03112 0.63903 0.68723
 H2259 H 0.05596 0.62790 0.72465
 H2260 H 0.06849 0.60974 0.71069
 H2261 H 0.05532 0.65358 0.72550
 H2262 H 0.04469 0.67437 0.73709
 H2263 H 0.00420 0.66429 0.71787
 H2264 H 0.01464 0.64324 0.70644
 C2265 C 0.07149 0.15683 0.06864
 C2266 C 0.06446 0.14855 0.06171
 C2267 C 0.05641 0.13816 0.05375
 C2268 C 0.05907 0.13602 0.03919
 C2269 C 0.05211 0.12508 0.03178
 C2270 C 0.04240 0.11610 0.03886
 C2271 C 0.03956 0.11856 0.05342
 C2272 C 0.04653 0.12950 0.06080
 C2273 C 0.03584 0.10375 0.03136
 C2274 C 0.02163 0.09985 0.03398
 C2275 C 0.01585 0.08754 0.02780
 C2276 C 0.02417 0.07900 0.01889
 C2277 C 0.03819 0.08299 0.01592
 C2278 C 0.04399 0.09528 0.02209
 C2279 C 0.01876 0.06560 0.01366
 C2280 C 0.01468 0.05406 0.00972
 H2281 H 0.06672 0.14264 0.03364
 H2282 H 0.05440 0.12356 0.02055
 H2283 H 0.03233 0.11171 0.05924
 H2284 H 0.04447 0.13098 0.07209
 H2285 H 0.01504 0.10623 0.04093
 H2286 H 0.00501 0.08453 0.03021
 H2287 H 0.04477 0.07639 0.00915
 H2288 H 0.05501 0.09785 0.02002
 C2289 C 0.07365 0.65958 0.57716
 C2290 C 0.06697 0.65104 0.57019
 C2291 C 0.05922 0.64046 0.56215
 C2292 C 0.06530 0.63431 0.55001
 C2293 C 0.05823 0.62334 0.54276
 C2294 C 0.04498 0.61834 0.54759
 C2295 C 0.03882 0.62479 0.55964
 C2296 C 0.04592 0.63576 0.56688
 C2297 C 0.03790 0.60605 0.54046
 C2298 C 0.02306 0.60578 0.53848
 C2299 C 0.01643 0.59392 0.53226
 C2300 C 0.02454 0.58221 0.52794
 C2301 C 0.03931 0.58245 0.52974
 C2302 C 0.04596 0.59427 0.53594
 C2303 C 0.01783 0.56965 0.52217
 C2304 C 0.01283 0.55872 0.51759
 H2305 H 0.07560 0.63785 0.54627
 H2306 H 0.06317 0.61872 0.53342
 H2307 H 0.02874 0.62106 0.56374
 H2308 H 0.04115 0.64038 0.57632
 H2309 H 0.01659 0.61474 0.54172
 H2310 H 0.00498 0.59383 0.53095
 H2311 H 0.04569 0.57339 0.52655
 H2312 H 0.05736 0.59403 0.53752
 C2313 C 0.57089 0.16187 0.56952
 C2314 C 0.56378 0.15369 0.56258
 C2315 C 0.55557 0.14342 0.55465
 C2316 C 0.54569 0.13483 0.56177
 C2317 C 0.53866 0.12390 0.55445
 C2318 C 0.54144 0.12139 0.53989
 C2319 C 0.55108 0.13037 0.53272
 C2320 C 0.55812 0.14130 0.54007
 C2321 C 0.53504 0.10888 0.53256
 C2322 C 0.54333 0.10041 0.52342
 C2323 C 0.53780 0.08784 0.51761
 C2324 C 0.52393 0.08357 0.52081
 C2325 C 0.51543 0.09214 0.52952
 C2326 C 0.52093 0.10474 0.53534
 C2327 C 0.51892 0.06984 0.51615
 C2328 C 0.51524 0.05802 0.51270
 H2329 H 0.54372 0.13632 0.57308
 H2330 H 0.53147 0.11706 0.56034
 H2331 H 0.55332 0.12881 0.52148
 H2332 H 0.56577 0.14787 0.53447
 H2333 H 0.55429 0.10317 0.52125
 H2334 H 0.54452 0.08121 0.51100
 H2335 H 0.50469 0.08890 0.53210
 H2336 H 0.51424 0.11112 0.54219
 C2337 C 0.57355 0.66540 0.06912
 C2338 C 0.56671 0.65684 0.06233
 C2339 C 0.55879 0.64616 0.05460
 C2340 C 0.56161 0.64359 0.04014
 C2341 C 0.55470 0.63244 0.03298
 C2342 C 0.54489 0.62370 0.04020
 C2343 C 0.54188 0.62660 0.05463
 C2344 C 0.54880 0.63774 0.06177
 C2345 C 0.53840 0.61112 0.03300
 C2346 C 0.52416 0.60731 0.03554
 C2347 C 0.51844 0.59484 0.02963
 C2348 C 0.52687 0.58603 0.02109
 C2349 C 0.54094 0.58991 0.01822
 C2350 C 0.54667 0.60237 0.02410
 C2351 C 0.52148 0.57253 0.01610
 C2352 C 0.51745 0.56091 0.01228
 H2353 H 0.56934 0.65003 0.03448
 H2354 H 0.55713 0.63059 0.02182
 H2355 H 0.53455 0.61995 0.06056
 H2356 H 0.54660 0.63957 0.07299
 H2357 H 0.51748 0.61391 0.04220
 H2358 H 0.50755 0.59192 0.03197
 H2359 H 0.54760 0.58311 0.01173
 H2360 H 0.55772 0.60487 0.02210
 C2361 C 0.68117 0.08788 0.57198
 C2362 C 0.68746 0.09695 0.56536
 C2363 C 0.69460 0.10819 0.55769
 C2364 C 0.70739 0.11382 0.56294
 C2365 C 0.71373 0.12550 0.55615
 C2366 C 0.70732 0.13174 0.54402
 C2367 C 0.69464 0.12578 0.53863
 C2368 C 0.68833 0.11410 0.54543
 C2369 C 0.71345 0.14482 0.53745
 C2370 C 0.70451 0.15602 0.53300
 C2371 C 0.71022 0.16860 0.52742
 C2372 C 0.72495 0.17020 0.52617
 C2373 C 0.73396 0.15907 0.53039
 C2374 C 0.72825 0.14645 0.53600
 C2375 C 0.73070 0.18352 0.52109
 C2376 C 0.73506 0.19496 0.51713
 H2377 H 0.71229 0.10939 0.57248
 H2378 H 0.72338 0.12994 0.56067
 H2379 H 0.68955 0.13023 0.52921
 H2380 H 0.67843 0.10984 0.54128
 H2381 H 0.69310 0.15521 0.53420
 H2382 H 0.70315 0.17720 0.52430
 H2383 H 0.74538 0.16019 0.52950
 H2384 H 0.73541 0.13797 0.53921
 C2385 C 0.67876 0.59279 0.07287
 C2386 C 0.68499 0.60175 0.06605
 C2387 C 0.69198 0.61284 0.05806
 C2388 C 0.68394 0.62196 0.04936
 C2389 C 0.69048 0.63331 0.04223
 C2390 C 0.70517 0.63570 0.04372
 C2391 C 0.71323 0.62629 0.05226
 C2392 C 0.70666 0.61494 0.05940
 C2393 C 0.71194 0.64827 0.03685
 C2394 C 0.72542 0.64721 0.03048
 C2395 C 0.73184 0.65922 0.02433
 C2396 C 0.72488 0.67240 0.02449
 C2397 C 0.71145 0.67353 0.03073
 C2398 C 0.70502 0.66157 0.03686
 C2399 C 0.73151 0.68495 0.01864
 C2400 C 0.73657 0.69589 0.01415
 H2401 H 0.67257 0.62043 0.04824
 H2402 H 0.68402 0.64025 0.03559
 H2403 H 0.72453 0.62795 0.05375
 H2404 H 0.71297 0.60798 0.06617
 H2405 H 0.73095 0.63709 0.03019
 H2406 H 0.74225 0.65823 0.01953
 H2407 H 0.70600 0.68370 0.03100
 H2408 H 0.69475 0.66280 0.04188
 C2409 C 0.17115 0.66095 0.67635
 C2410 C 0.17738 0.65162 0.68270
 C2411 C 0.18455 0.64012 0.68998
 C2412 C 0.17678 0.62826 0.69463
 C2413 C 0.18372 0.61673 0.70108
 C2414 C 0.19857 0.61689 0.70296
 C2415 C 0.20628 0.62896 0.69845
 C2416 C 0.19930 0.64048 0.69197
 C2417 C 0.20598 0.60439 0.70933
 C2418 C 0.21723 0.60624 0.71915
 C2419 C 0.22410 0.59440 0.72516
 C2420 C 0.21982 0.58059 0.72139
 C2421 C 0.20870 0.57866 0.71157
 C2422 C 0.20183 0.59046 0.70558
 C2423 C 0.22662 0.56827 0.72758
 C2424 C 0.23171 0.55747 0.73238
 H2425 H 0.16536 0.62786 0.69315
 H2426 H 0.17747 0.60769 0.70462
 H2427 H 0.21773 0.62933 0.69960
 H2428 H 0.20543 0.64958 0.68834
 H2429 H 0.22057 0.61683 0.72234
 H2430 H 0.23267 0.59600 0.73277
 H2431 H 0.20534 0.56802 0.70854
 H2432 H 0.19337 0.58867 0.69788
 C2433 C 0.17877 0.15769 0.17749
 C2434 C 0.18629 0.14953 0.18402
 C2435 C 0.19495 0.13928 0.19148
 C2436 C 0.20338 0.12982 0.18370
 C2437 C 0.21082 0.11898 0.19073
 C2438 C 0.20993 0.11744 0.20568
 C2439 C 0.20174 0.12727 0.21347
 C2440 C 0.19429 0.13811 0.20639
 C2441 C 0.21671 0.10507 0.21291
 C2442 C 0.20934 0.09747 0.22356
 C2443 C 0.21503 0.08494 0.22932
 C2444 C 0.22815 0.07986 0.22458
 C2445 C 0.23579 0.08759 0.21435
 C2446 C 0.23013 0.10014 0.20857
 C2447 C 0.23312 0.06614 0.22932
 C2448 C 0.23676 0.05435 0.23292
 H2449 H 0.20388 0.13058 0.17214
 H2450 H 0.21683 0.11146 0.18441
 H2451 H 0.20096 0.12645 0.22500
 H2452 H 0.18777 0.14538 0.21252
 H2453 H 0.19890 0.10086 0.22698
 H2454 H 0.20897 0.07897 0.23714
 H2455 H 0.24595 0.08372 0.21058
 H2456 H 0.23612 0.10585 0.20052
 C2457 C 0.68024 1.15804 0.67961
 C2458 C 0.68736 1.14909 0.68554
 C2459 C 0.69565 1.13794 0.69213
 C2460 C 0.69934 1.12592 0.68413
 C2461 C 0.70687 1.11474 0.69051
 C2462 C 0.71082 1.11541 0.70504
 C2463 C 0.70723 1.12763 0.71297
 C2464 C 0.69968 1.13883 0.70654
 C2465 C 0.71817 1.10315 0.71195
 C2466 C 0.71432 1.09865 0.72578
 C2467 C 0.72042 1.08642 0.73183
 C2468 C 0.73046 1.07858 0.72417
 C2469 C 0.73463 1.08317 0.71057
 C2470 C 0.72856 1.09539 0.70451
 C2471 C 0.73562 1.06521 0.72973
 C2472 C 0.73946 1.05368 0.73396
 H2473 H 0.69621 1.12510 0.67299
 H2474 H 0.70925 1.10540 0.68417
 H2475 H 0.71027 1.12854 0.72412
 H2476 H 0.69689 1.14809 0.71284
 H2477 H 0.70623 1.10426 0.73172
 H2478 H 0.71702 1.08288 0.74231
 H2479 H 0.74234 1.07713 0.70452
 H2480 H 0.73189 1.09867 0.69392
 C2481 C 0.67893 0.66261 0.17641
 C2482 C 0.68494 0.65342 0.18318
 C2483 C 0.69157 0.64195 0.19101
 C2484 C 0.68706 0.62792 0.18862
 C2485 C 0.69322 0.61667 0.19624
 C2486 C 0.70400 0.61926 0.20639
 C2487 C 0.70856 0.63339 0.20867
 C2488 C 0.70235 0.64467 0.20104
 C2489 C 0.71044 0.60718 0.21444
 C2490 C 0.72523 0.60646 0.21670
 C2491 C 0.73130 0.59453 0.22341
 C2492 C 0.72265 0.58326 0.22800
 C2493 C 0.70791 0.58409 0.22614
 C2494 C 0.70184 0.59595 0.21943
 C2495 C 0.72879 0.57036 0.23369
 C2496 C 0.73335 0.55909 0.23792
 H2497 H 0.67877 0.62568 0.18086
 H2498 H 0.68965 0.60590 0.19405
 H2499 H 0.71676 0.63572 0.21650
 H2500 H 0.70589 0.65550 0.20300
 H2501 H 0.73213 0.61487 0.21287
 H2502 H 0.74273 0.59396 0.22470
 H2503 H 0.70112 0.57542 0.22961
 H2504 H 0.69041 0.59629 0.21805
 C2505 C 0.57313 0.08624 0.68166
 C2506 C 0.56638 0.09462 0.68865
 C2507 C 0.55862 0.10509 0.69668
 C2508 C 0.56587 0.11405 0.70621
 C2509 C 0.55863 0.12500 0.71319
 C2510 C 0.54402 0.12716 0.71070
 C2511 C 0.53676 0.11788 0.70135
 C2512 C 0.54403 0.10693 0.69438
 C2513 C 0.53666 0.13955 0.71720
 C2514 C 0.52708 0.14774 0.70900
 C2515 C 0.52110 0.16013 0.71463
 C2516 C 0.52456 0.16450 0.72853
 C2517 C 0.53376 0.15622 0.73692
 C2518 C 0.53976 0.14380 0.73131
 C2519 C 0.51960 0.17806 0.73364
 C2520 C 0.51590 0.18976 0.73740
 H2521 H 0.57719 0.11280 0.70798
 H2522 H 0.56458 0.13209 0.72012
 H2523 H 0.52550 0.11919 0.69933
 H2524 H 0.53832 0.10007 0.68700
 H2525 H 0.52465 0.14489 0.69804
 H2526 H 0.51411 0.16655 0.70799
 H2527 H 0.53656 0.15954 0.74767
 H2528 H 0.54696 0.13764 0.73794
 C2529 C 1.07170 0.08484 0.17516
 C2530 C 1.06525 0.09357 0.18202
 C2531 C 1.05800 0.10440 0.19006
 C2532 C 1.04314 0.10508 0.19004
 C2533 C 1.03623 0.11611 0.19726
 C2534 C 1.04410 0.12661 0.20459
 C2535 C 1.05903 0.12569 0.20471
 C2536 C 1.06591 0.11467 0.19749
 C2537 C 1.03690 0.13883 0.21158
 C2538 C 1.04190 0.14419 0.22473
 C2539 C 1.03583 0.15639 0.23072
 C2540 C 1.02464 0.16335 0.22369
 C2541 C 1.01934 0.15789 0.21079
 C2542 C 1.02540 0.14569 0.20478
 C2543 C 1.01940 0.17671 0.22906
 C2544 C 1.01545 0.18823 0.23312
 H2545 H 1.03692 0.09718 0.18431
 H2546 H 1.02472 0.11645 0.19709
 H2547 H 1.06541 0.13373 0.21003
 H2548 H 1.07742 0.11430 0.19750
 H2549 H 1.05063 0.13905 0.23030
 H2550 H 1.04006 0.16056 0.24067
 H2551 H 1.01078 0.16328 0.20518
 H2552 H 1.02143 0.14196 0.19456
 C2553 C 0.16538 0.60077 0.58000
 C2554 C 0.17227 0.60902 0.57296
 C2555 C 0.18026 0.61910 0.56463
 C2556 C 0.17355 0.62670 0.55361
 C2557 C 0.18105 0.63705 0.54596
 C2558 C 0.19538 0.63992 0.54925
 C2559 C 0.20212 0.63202 0.56014
 C2560 C 0.19458 0.62168 0.56780
 C2561 C 0.20306 0.65155 0.54176
 C2562 C 0.21735 0.64990 0.53771
 C2563 C 0.22465 0.66114 0.53112
 C2564 C 0.21774 0.67410 0.52853
 C2565 C 0.20350 0.67577 0.53241
 C2566 C 0.19620 0.66459 0.53897
 C2567 C 0.22519 0.68601 0.52242
 C2568 C 0.23071 0.69659 0.51767
 H2569 H 0.16247 0.62476 0.55106
 H2570 H 0.17564 0.64283 0.53751
 H2571 H 0.21308 0.63411 0.56303
 H2572 H 0.19985 0.61587 0.57634
 H2573 H 0.22286 0.63993 0.53961
 H2574 H 0.23569 0.65976 0.52818
 H2575 H 0.19809 0.68582 0.53056
 H2576 H 0.18529 0.66627 0.54218
 C2577 C 0.17621 0.08647 1.06946
 C2578 C 0.18297 0.09553 1.06331
 C2579 C 0.19084 0.10668 1.05631
 C2580 C 0.18610 0.11222 1.04321
 C2581 C 0.19321 0.12372 1.03690
 C2582 C 0.20515 0.12985 1.04365
 C2583 C 0.21000 0.12400 1.05667
 C2584 C 0.20288 0.11251 1.06295
 C2585 C 0.21213 0.14267 1.03746
 C2586 C 0.21647 0.15394 1.04640
 C2587 C 0.22248 0.16629 1.04060
 C2588 C 0.22425 0.16756 1.02580
 C2589 C 0.22014 0.15635 1.01681
 C2590 C 0.21411 0.14397 1.02260
 C2591 C 0.22973 0.18066 1.01993
 C2592 C 0.23401 0.19193 1.01545
 H2593 H 0.17674 0.10785 1.03803
 H2594 H 0.18911 0.12810 1.02698
 H2595 H 0.21925 0.12837 1.06204
 H2596 H 0.20663 0.10831 1.07310
 H2597 H 0.21488 0.15338 1.05786
 H2598 H 0.22552 0.17495 1.04766
 H2599 H 0.22144 0.15724 1.00533
 H2600 H 0.21100 0.13542 1.01546
 C2601 C 0.17217 0.67918 0.65945
 C2602 C 0.17927 0.68581 0.65102
 C2603 C 0.18748 0.69349 0.64057
 C2604 C 0.18130 0.70474 0.63290
 C2605 C 0.18889 0.71158 0.62204
 C2606 C 0.20278 0.70722 0.61867
 C2607 C 0.20900 0.69607 0.62664
 C2608 C 0.20139 0.68926 0.63751
 C2609 C 0.21044 0.71381 0.60645
 C2610 C 0.21827 0.70527 0.59698
 C2611 C 0.22470 0.71128 0.58494
 C2612 C 0.22345 0.72591 0.58220
 C2613 C 0.21594 0.73457 0.59171
 C2614 C 0.20949 0.72857 0.60377
 C2615 C 0.22906 0.73178 0.56915
 C2616 C 0.23336 0.73626 0.55786
 H2617 H 0.17050 0.70804 0.63511
 H2618 H 0.18372 0.71997 0.61597
 H2619 H 0.21972 0.69258 0.62441
 H2620 H 0.20627 0.68055 0.64337
 H2621 H 0.21903 0.69385 0.59861
 H2622 H 0.23037 0.70445 0.57758
 H2623 H 0.21485 0.74590 0.58968
 H2624 H 0.20368 0.73545 0.61095
 C2625 C 0.17705 0.17479 1.15959
 C2626 C 0.18303 0.18171 1.15056
 C2627 C 0.18988 0.18980 1.13948
 C2628 C 0.20401 0.18698 1.13589
 C2629 C 0.21036 0.19424 1.12451
 C2630 C 0.20261 0.20439 1.11657
 C2631 C 0.18850 0.20735 1.12047
 C2632 C 0.18218 0.20009 1.13185
 C2633 C 0.20899 0.21137 1.10388
 C2634 C 0.20093 0.21310 1.09127
 C2635 C 0.20705 0.21911 1.07909
 C2636 C 0.22126 0.22350 1.07933
 C2637 C 0.22934 0.22198 1.09186
 C2638 C 0.22324 0.21594 1.10408
 C2639 C 0.22757 0.22899 1.06649
 C2640 C 0.23241 0.23320 1.05535
 H2641 H 0.21002 0.17898 1.14170
 H2642 H 0.22117 0.19161 1.12165
 H2643 H 0.18233 0.21523 1.11466
 H2644 H 0.17123 0.20235 1.13455
 H2645 H 0.19001 0.20947 1.09071
 H2646 H 0.20074 0.22014 1.06940
 H2647 H 0.24037 0.22531 1.09213
 H2648 H 0.22965 0.21486 1.11368
 C2649 C 0.67960 0.57489 0.09017
 C2650 C 0.68659 0.56810 0.09863
 C2651 C 0.69450 0.56018 0.10918
 C2652 C 0.70391 0.56729 0.11836
 C2653 C 0.71066 0.55989 0.12946
 C2654 C 0.70806 0.54524 0.13155
 C2655 C 0.69887 0.53809 0.12203
 C2656 C 0.69212 0.54553 0.11093
 C2657 C 0.71425 0.53771 0.14411
 C2658 C 0.70590 0.52818 0.15214
 C2659 C 0.71126 0.52202 0.16468
 C2660 C 0.72504 0.52526 0.16935
 C2661 C 0.73358 0.53442 0.16124
 C2662 C 0.72824 0.54059 0.14868
 C2663 C 0.72997 0.52007 0.18299
 C2664 C 0.73377 0.51621 0.19471
 H2665 H 0.70573 0.57865 0.11718
 H2666 H 0.71751 0.56574 0.13673
 H2667 H 0.69679 0.52679 0.12326
 H2668 H 0.68483 0.53992 0.10390
 H2669 H 0.69503 0.52590 0.14904
 H2670 H 0.70451 0.51506 0.17095
 H2671 H 0.74425 0.53704 0.16478
 H2672 H 0.73498 0.54776 0.14265
 C2673 C 0.68198 1.06964 0.58897
 C2674 C 0.68902 1.06272 0.59729
 C2675 C 0.69709 1.05474 0.60771
 C2676 C 0.69457 1.04014 0.60964
 C2677 C 0.70158 1.03268 0.62056
 C2678 C 0.71120 1.03973 0.62973
 C2679 C 0.71390 1.05434 0.62747
 C2680 C 0.70688 1.06178 0.61655
 C2681 C 0.71778 1.03213 0.64208
 C2682 C 0.73193 1.03491 0.64618
 C2683 C 0.73769 1.02858 0.65848
 C2684 C 0.72941 1.01936 0.66681
 C2685 C 0.71545 1.01627 0.66262
 C2686 C 0.70967 1.02259 0.65034
 C2687 C 0.73475 1.01401 0.68025
 C2688 C 0.73873 1.01001 0.69187
 H2689 H 0.68699 1.03459 0.60288
 H2690 H 0.69939 1.02141 0.62191
 H2691 H 0.72106 1.06014 0.63446
 H2692 H 0.70884 1.07310 0.61523
 H2693 H 0.73849 1.04209 0.63997
 H2694 H 0.74849 1.03112 0.66167
 H2695 H 0.70889 1.00929 0.66907
 H2696 H 0.69868 1.02040 0.64763
 C2697 C 0.57158 0.17896 0.58744
 C2698 C 0.56509 0.18581 0.59613
 C2699 C 0.55767 0.19372 0.60691
 C2700 C 0.56517 0.20317 0.61573
 C2701 C 0.55829 0.21001 0.62699
 C2702 C 0.54379 0.20747 0.62959
 C2703 C 0.53625 0.19823 0.62043
 C2704 C 0.54317 0.19138 0.60917
 C2705 C 0.53685 0.21375 0.64232
 C2706 C 0.52765 0.20542 0.65074
 C2707 C 0.52207 0.21086 0.66343
 C2708 C 0.52557 0.22468 0.66785
 C2709 C 0.53439 0.23320 0.65936
 C2710 C 0.53998 0.22778 0.64666
 C2711 C 0.52089 0.22967 0.68156
 C2712 C 0.51729 0.23338 0.69332
 H2713 H 0.57643 0.20498 0.61412
 H2714 H 0.56444 0.21688 0.63398
 H2715 H 0.52505 0.19618 0.62207
 H2716 H 0.53727 0.18407 0.60241
 H2717 H 0.52520 0.19452 0.64782
 H2718 H 0.51534 0.20414 0.66998
 H2719 H 0.53719 0.24390 0.66272
 H2720 H 0.54690 0.23450 0.64031
 C2721 C 1.07228 0.17410 0.08654
 C2722 C 1.06602 0.18109 0.09531
 C2723 C 1.05904 0.18925 0.10623
 C2724 C 1.06706 0.19496 0.11749
 C2725 C 1.06037 0.20228 0.12857
 C2726 C 1.04552 0.20399 0.12856
 C2727 C 1.03754 0.19838 0.11708
 C2728 C 1.04427 0.19106 0.10599
 C2729 C 1.03842 0.21105 0.14081
 C2730 C 1.02579 0.20538 0.14651
 C2731 C 1.01975 0.21130 0.15877
 C2732 C 1.02621 0.22299 0.16547
 C2733 C 1.03855 0.22895 0.15967
 C2734 C 1.04460 0.22305 0.14741
 C2735 C 1.02083 0.22813 0.17890
 C2736 C 1.01673 0.23197 0.19046
 H2737 H 1.07849 0.19355 0.11784
 H2738 H 1.06680 0.20624 0.13736
 H2739 H 1.02611 0.19965 0.11670
 H2740 H 1.03795 0.18667 0.09732
 H2741 H 1.02088 0.19603 0.14181
 H2742 H 1.01028 0.20651 0.16325
 H2743 H 1.04367 0.23796 0.16481
 H2744 H 1.05422 0.22777 0.14319
 C2745 C 0.66288 0.17575 0.68105
 C2746 C 0.65465 0.18245 0.68826
 C2747 C 0.64430 0.19030 0.69633
 C2748 C 0.63691 0.20155 0.68984
 C2749 C 0.62595 0.20841 0.69713
 C2750 C 0.62218 0.20408 0.71103
 C2751 C 0.62993 0.19300 0.71761
 C2752 C 0.64090 0.18615 0.71030
 C2753 C 0.60969 0.21051 0.71822
 C2754 C 0.60007 0.20183 0.72576
 C2755 C 0.58769 0.20762 0.73153
 C2756 C 0.58474 0.22216 0.72988
 C2757 C 0.59440 0.23097 0.72270
 C2758 C 0.60681 0.22520 0.71692
 C2759 C 0.57133 0.22774 0.73466
 C2760 C 0.55978 0.23194 0.73822
 H2761 H 0.63938 0.20479 0.67899
 H2762 H 0.62007 0.21674 0.69167
 H2763 H 0.62739 0.18953 0.72836
 H2764 H 0.64653 0.17743 0.71542
 H2765 H 0.60185 0.19046 0.72675
 H2766 H 0.58023 0.20068 0.73694
 H2767 H 0.59220 0.24224 0.72131
 H2768 H 0.61407 0.23219 0.71131
 C2769 C 1.16094 0.17476 0.17821
 C2770 C 1.15283 0.18168 0.18531
 C2771 C 1.14270 0.18979 0.19335
 C2772 C 1.14037 0.18673 0.20781
 C2773 C 1.12965 0.19382 0.21525
 C2774 C 1.12111 0.20405 0.20828
 C2775 C 1.12381 0.20731 0.19385
 C2776 C 1.13453 0.20021 0.18644
 C2777 C 1.10884 0.21060 0.21567
 C2778 C 1.10532 0.22503 0.21336
 C2779 C 1.09293 0.23076 0.21920
 C2780 C 1.08395 0.22216 0.22743
 C2781 C 1.08759 0.20794 0.23015
 C2782 C 1.09995 0.20219 0.22434
 C2783 C 1.07041 0.22746 0.23205
 C2784 C 1.05873 0.23135 0.23548
 H2785 H 1.14664 0.17866 0.21325
 H2786 H 1.12791 0.19120 0.22639
 H2787 H 1.11729 0.21494 0.18811
 H2788 H 1.13619 0.20259 0.17522
 H2789 H 1.11204 0.23180 0.20686
 H2790 H 1.09018 0.24176 0.21698
 H2791 H 1.08062 0.20116 0.23639
 H2792 H 1.10223 0.19101 0.22612
 C2793 C 0.09166 0.67661 0.57776
 C2794 C 0.10079 0.68291 0.57127
 C2795 C 0.11209 0.69004 0.56374
 C2796 C 0.10941 0.70245 0.55582
 C2797 C 0.12050 0.70931 0.54860
 C2798 C 0.13440 0.70379 0.54918
 C2799 C 0.13695 0.69131 0.55719
 C2800 C 0.12588 0.68450 0.56441
 C2801 C 0.14625 0.71102 0.54159
 C2802 C 0.15670 0.70294 0.53458
 C2803 C 0.16820 0.70966 0.52798
 C2804 C 0.16945 0.72454 0.52826
 C2805 C 0.15901 0.73271 0.53501
 C2806 C 0.14746 0.72600 0.54160
 C2807 C 0.18189 0.73121 0.52230
 C2808 C 0.19275 0.73616 0.51762
 H2809 H 0.09877 0.70682 0.55522
 H2810 H 0.11817 0.71881 0.54241
 H2811 H 0.14756 0.68693 0.55806
 H2812 H 0.12808 0.67494 0.57056
 H2813 H 0.15599 0.69141 0.53420
 H2814 H 0.17624 0.70323 0.52283
 H2815 H 0.15992 0.74422 0.53539
 H2816 H 0.13969 0.73250 0.54706
 C2817 C 0.08964 0.17375 1.06897
 C2818 C 0.09845 0.18043 1.06243
 C2819 C 0.10936 0.18829 1.05509
 C2820 C 0.11463 0.18340 1.04201
 C2821 C 0.12596 0.19049 1.03544
 C2822 C 0.13220 0.20253 1.04192
 C2823 C 0.12660 0.20753 1.05490
 C2824 C 0.11528 0.20045 1.06144
 C2825 C 0.14489 0.20944 1.03553
 C2826 C 0.15625 0.21384 1.04433
 C2827 C 0.16844 0.21988 1.03837
 C2828 C 0.16947 0.22165 1.02355
 C2829 C 0.15819 0.21744 1.01468
 C2830 C 0.14596 0.21137 1.02063
 C2831 C 0.18240 0.22724 1.01756
 C2832 C 0.19359 0.23164 1.01313
 H2833 H 0.11018 0.17395 1.03705
 H2834 H 0.13013 0.18627 1.02554
 H2835 H 0.13105 0.21687 1.06006
 H2836 H 0.11129 0.20431 1.07157
 H2837 H 0.15587 0.21228 1.05581
 H2838 H 0.17716 0.22298 1.04533
 H2839 H 0.15889 0.21873 1.00318
 H2840 H 0.13734 0.20821 1.01359
 C2841 C 0.58960 0.57124 0.17982
 C2842 C 0.59736 0.56409 0.18721
 C2843 C 0.60718 0.55585 0.19565
 C2844 C 0.60933 0.55902 0.21013
 C2845 C 0.61993 0.55196 0.21793
 C2846 C 0.62855 0.54168 0.21131
 C2847 C 0.62599 0.53826 0.19686
 C2848 C 0.61539 0.54531 0.18910
 C2849 C 0.64083 0.53530 0.21903
 C2850 C 0.64457 0.52092 0.21690
 C2851 C 0.65705 0.51542 0.22294
 C2852 C 0.66588 0.52418 0.23122
 C2853 C 0.66199 0.53834 0.23381
 C2854 C 0.64955 0.54387 0.22778
 C2855 C 0.67953 0.51914 0.23599
 C2856 C 0.69130 0.51544 0.23951
 H2857 H 0.60304 0.56718 0.21529
 H2858 H 0.62154 0.55471 0.22907
 H2859 H 0.63258 0.53056 0.19139
 H2860 H 0.61389 0.54285 0.17787
 H2861 H 0.63799 0.51402 0.21036
 H2862 H 0.65999 0.50445 0.22083
 H2863 H 0.66883 0.54525 0.24009
 H2864 H 0.64710 0.55502 0.22944
 C2865 C 0.59069 1.06880 0.68118
 C2866 C 0.59937 1.06193 0.68778
 C2867 C 0.61018 1.05408 0.69538
 C2868 C 0.61868 1.06101 0.70555
 C2869 C 0.62994 1.05378 0.71214
 C2870 C 0.63288 1.03950 0.70860
 C2871 C 0.62407 1.03253 0.69860
 C2872 C 0.61281 1.03978 0.69202
 C2873 C 0.64553 1.03221 0.71476
 C2874 C 0.65420 1.02367 0.70606
 C2875 C 0.66669 1.01766 0.71152
 C2876 C 0.67067 1.02004 0.72577
 C2877 C 0.66197 1.02825 0.73462
 C2878 C 0.64947 1.03429 0.72917
 C2879 C 0.68415 1.01487 0.73094
 C2880 C 0.69573 1.01096 0.73489
 H2881 H 0.61682 1.07211 0.70815
 H2882 H 0.63664 1.05952 0.71962
 H2883 H 0.62597 1.02150 0.69577
 H2884 H 0.60631 1.03432 0.68414
 H2885 H 0.65160 1.02205 0.69488
 H2886 H 0.67341 1.01143 0.70454
 H2887 H 0.66498 1.03021 0.74565
 H2888 H 0.64294 1.04068 0.73617
 C2889 C 0.90987 0.42446 0.32248
 C2890 C 0.90140 0.43135 0.31564
 C2891 C 0.89087 0.43953 0.30802
 C2892 C 0.88522 0.45182 0.31425
 C2893 C 0.87414 0.45917 0.30749
 C2894 C 0.86855 0.45429 0.29440
 C2895 C 0.87455 0.44212 0.28804
 C2896 C 0.88563 0.43478 0.29483
 C2897 C 0.85600 0.46139 0.28784
 C2898 C 0.84492 0.45317 0.28195
 C2899 C 0.83268 0.45973 0.27660
 C2900 C 0.83133 0.47459 0.27703
 C2901 C 0.84239 0.48291 0.28264
 C2902 C 0.85466 0.47635 0.28801
 C2903 C 0.81829 0.48107 0.27230
 C2904 C 0.80698 0.48582 0.26851
 H2905 H 0.88913 0.45553 0.32452
 H2906 H 0.86962 0.46837 0.31276
 H2907 H 0.87058 0.43819 0.27789
 H2908 H 0.88992 0.42526 0.28992
 H2909 H 0.84550 0.44163 0.28188
 H2910 H 0.82413 0.45319 0.27237
 H2911 H 0.84144 0.49442 0.28304
 H2912 H 0.86308 0.48297 0.29236
 C2913 C 0.88523 0.90109 0.84630
 C2914 C 0.87807 0.90859 0.83863
 C2915 C 0.86978 0.91760 0.82931
 C2916 C 0.86697 0.93173 0.83318
 C2917 C 0.85889 0.94047 0.82414
 C2918 C 0.85354 0.93519 0.81111
 C2919 C 0.85658 0.92103 0.80724
 C2920 C 0.86466 0.91230 0.81628
 C2921 C 0.84451 0.94430 0.80177
 C2922 C 0.83238 0.93856 0.79508
 C2923 C 0.82362 0.94717 0.78663
 C2924 C 0.82686 0.96162 0.78469
 C2925 C 0.83898 0.96744 0.79117
 C2926 C 0.84777 0.95882 0.79966
 C2927 C 0.81711 0.97042 0.77675
 C2928 C 0.80792 0.97692 0.77054
 H2929 H 0.87089 0.93594 0.84324
 H2930 H 0.85658 0.95127 0.82750
 H2931 H 0.85277 0.91672 0.79718
 H2932 H 0.86687 0.90141 0.81313
 H2933 H 0.82949 0.92748 0.79661
 H2934 H 0.81418 0.94260 0.78178
 H2935 H 0.84153 0.97863 0.78979
 H2936 H 0.85714 0.96349 0.80453
 C2937 C 0.34088 0.32344 0.82097
 C2938 C 0.34990 0.31710 0.81445
 C2939 C 0.36104 0.30984 0.80692
 C2940 C 0.36450 0.29573 0.81040
 C2941 C 0.37595 0.28902 0.80373
 C2942 C 0.38414 0.29638 0.79354
 C2943 C 0.38039 0.31047 0.78992
 C2944 C 0.36894 0.31715 0.79658
 C2945 C 0.39687 0.28963 0.78715
 C2946 C 0.40944 0.29757 0.78536
 C2947 C 0.42159 0.29118 0.77978
 C2948 C 0.42138 0.27677 0.77588
 C2949 C 0.40891 0.26878 0.77751
 C2950 C 0.39672 0.27516 0.78311
 C2951 C 0.43416 0.27025 0.77065
 C2952 C 0.44525 0.26533 0.76658
 H2953 H 0.35851 0.29000 0.81845
 H2954 H 0.37868 0.27823 0.80688
 H2955 H 0.38637 0.31636 0.78199
 H2956 H 0.36637 0.32808 0.79382
 H2957 H 0.40998 0.30865 0.78858
 H2958 H 0.43122 0.29743 0.77867
 H2959 H 0.40865 0.25761 0.77454
 H2960 H 0.38717 0.26881 0.78424
 C2961 C 0.84403 0.32325 0.32407
 C2962 C 0.85245 0.31614 0.31752
 C2963 C 0.86288 0.30780 0.31010
 C2964 C 0.86631 0.31096 0.29589
 C2965 C 0.87715 0.30346 0.28903
 C2966 C 0.88473 0.29273 0.29635
 C2967 C 0.88098 0.28943 0.31053
 C2968 C 0.87014 0.29693 0.31735
 C2969 C 0.89694 0.28548 0.28947
 C2970 C 0.90944 0.28281 0.29736
 C2971 C 0.92116 0.27650 0.29084
 C2972 C 0.92058 0.27274 0.27637
 C2973 C 0.90816 0.27521 0.26844
 C2974 C 0.89640 0.28155 0.27495
 C2975 C 0.93301 0.26685 0.26973
 C2976 C 0.94391 0.26229 0.26483
 H2977 H 0.86080 0.31941 0.29020
 H2978 H 0.87991 0.30637 0.27818
 H2979 H 0.88648 0.28111 0.31639
 H2980 H 0.86757 0.29441 0.32836
 H2981 H 0.91029 0.28593 0.30848
 H2982 H 0.93076 0.27473 0.29705
 H2983 H 0.90762 0.27236 0.25722
 H2984 H 0.88687 0.28334 0.26864
 C2985 C 0.40360 0.82953 0.42107
 C2986 C 0.39494 0.82274 0.42768
 C2987 C 0.38425 0.81485 0.43529
 C2988 C 0.36989 0.81751 0.43245
 C2989 C 0.35939 0.80983 0.43963
 C2990 C 0.36310 0.79934 0.44977
 C2991 C 0.37757 0.79681 0.45266
 C2992 C 0.38809 0.80451 0.44543
 C2993 C 0.35185 0.79112 0.45721
 C2994 C 0.35276 0.78836 0.47201
 C2995 C 0.34165 0.78138 0.47908
 C2996 C 0.32959 0.77700 0.47141
 C2997 C 0.32880 0.77938 0.45665
 C2998 C 0.33983 0.78637 0.44959
 C2999 C 0.31747 0.77106 0.47860
 C3000 C 0.30662 0.76666 0.48379
 H3001 H 0.36680 0.82554 0.42467
 H3002 H 0.34834 0.81220 0.43735
 H3003 H 0.38074 0.78872 0.46033
 H3004 H 0.39918 0.80235 0.44769
 H3005 H 0.36184 0.79201 0.47817
 H3006 H 0.34232 0.77970 0.49053
 H3007 H 0.31949 0.77609 0.45062
 H3008 H 0.33892 0.78814 0.43817
 C3009 C 0.40887 0.32451 0.92777
 C3010 C 0.40098 0.31716 0.93475
 C3011 C 0.39110 0.30855 0.94269
 C3012 C 0.38278 0.29841 0.93555
 C3013 C 0.37234 0.29081 0.94293
 C3014 C 0.37006 0.29329 0.95758
 C3015 C 0.37873 0.30324 0.96476
 C3016 C 0.38918 0.31083 0.95735
 C3017 C 0.35806 0.28620 0.96504
 C3018 C 0.34940 0.29403 0.97439
 C3019 C 0.33728 0.28783 0.98033
 C3020 C 0.33367 0.27371 0.97706
 C3021 C 0.34245 0.26568 0.96814
 C3022 C 0.35459 0.27187 0.96217
 C3023 C 0.32031 0.26800 0.98185
 C3024 C 0.30875 0.26380 0.98540
 H3025 H 0.38412 0.29663 0.92418
 H3026 H 0.36570 0.28339 0.93704
 H3027 H 0.37733 0.30526 0.97607
 H3028 H 0.39557 0.31867 0.96298
 H3029 H 0.35165 0.30514 0.97663
 H3030 H 0.33047 0.29419 0.98710
 H3031 H 0.33972 0.25476 0.96549
 H3032 H 0.36115 0.26552 0.95514
 C3033 C 0.79768 0.45158 0.43495
 C3034 C 0.79476 0.45440 0.42267
 C3035 C 0.79121 0.45793 0.40808
 C3036 C 0.80191 0.46168 0.39843
 C3037 C 0.79842 0.46546 0.38435
 C3038 C 0.78415 0.46556 0.37975
 C3039 C 0.77348 0.46166 0.38952
 C3040 C 0.77700 0.45788 0.40358
 C3041 C 0.78038 0.46985 0.36489
 C3042 C 0.76842 0.47847 0.36222
 C3043 C 0.76485 0.48252 0.34825
 C3044 C 0.77316 0.47800 0.33675
 C3045 C 0.78510 0.46944 0.33928
 C3046 C 0.78870 0.46539 0.35326
 C3047 C 0.76937 0.48208 0.32236
 C3048 C 0.76608 0.48548 0.31034
 H3049 H 0.81294 0.46181 0.40181
 H3050 H 0.80685 0.46856 0.37715
 H3051 H 0.76242 0.46144 0.38626
 H3052 H 0.76863 0.45496 0.41095
 H3053 H 0.76192 0.48225 0.37095
 H3054 H 0.75562 0.48918 0.34642
 H3055 H 0.79158 0.46584 0.33046
 H3056 H 0.79787 0.45862 0.35494
 C3057 C 0.84640 0.90206 0.88462
 C3058 C 0.83882 0.90910 0.87692
 C3059 C 0.82965 0.91775 0.86812
 C3060 C 0.83460 0.92340 0.85521
 C3061 C 0.82584 0.93221 0.84693
 C3062 C 0.81202 0.93560 0.85150
 C3063 C 0.80713 0.92979 0.86448
 C3064 C 0.81589 0.92092 0.87270
 C3065 C 0.80282 0.94525 0.84286
 C3066 C 0.78812 0.94269 0.84161
 C3067 C 0.77958 0.95159 0.83314
 C3068 C 0.78562 0.96316 0.82588
 C3069 C 0.80019 0.96586 0.82718
 C3070 C 0.80872 0.95701 0.83563
 C3071 C 0.77736 0.97125 0.81574
 C3072 C 0.77124 0.97745 0.80625
 H3073 H 0.84523 0.92102 0.85160
 H3074 H 0.82987 0.93630 0.83689
 H3075 H 0.79665 0.93235 0.86843
 H3076 H 0.81198 0.91668 0.88274
 H3077 H 0.78327 0.93358 0.84680
 H3078 H 0.76837 0.94921 0.83196
 H3079 H 0.80501 0.97464 0.82140
 H3080 H 0.81995 0.95938 0.83646
 C3081 C 0.33589 0.83310 0.35318
 C3082 C 0.32807 0.82598 0.36049
 C3083 C 0.31866 0.81782 0.36944
 C3084 C 0.30516 0.82313 0.37264
 C3085 C 0.29627 0.81566 0.38197
 C3086 C 0.30078 0.80276 0.38825
 C3087 C 0.31427 0.79737 0.38473
 C3088 C 0.32315 0.80487 0.37540
 C3089 C 0.29177 0.79534 0.39893
 C3090 C 0.29086 0.78034 0.39923
 C3091 C 0.28310 0.77340 0.40992
 C3092 C 0.27612 0.78136 0.42040
 C3093 C 0.27672 0.79627 0.42001
 C3094 C 0.28446 0.80322 0.40935
 C3095 C 0.26951 0.77439 0.43238
 C3096 C 0.26462 0.76924 0.44311
 H3097 H 0.30157 0.83314 0.36807
 H3098 H 0.28589 0.82000 0.38433
 H3099 H 0.31814 0.78758 0.38953
 H3100 H 0.33361 0.80069 0.37303
 H3101 H 0.29626 0.77399 0.39127
 H3102 H 0.28282 0.76184 0.41020
 H3103 H 0.27155 0.80253 0.42820
 H3104 H 0.28514 0.81475 0.40959
 C3105 C 0.32293 0.32254 0.83794
 C3106 C 0.31621 0.31543 0.84629
 C3107 C 0.30840 0.30729 0.85669
 C3108 C 0.29774 0.31386 0.86468
 C3109 C 0.29087 0.30635 0.87557
 C3110 C 0.29461 0.29213 0.87865
 C3111 C 0.30512 0.28550 0.87033
 C3112 C 0.31198 0.29304 0.85943
 C3113 C 0.28814 0.28459 0.89100
 C3114 C 0.29664 0.27629 0.90023
 C3115 C 0.29086 0.27019 0.91255
 C3116 C 0.27651 0.27223 0.91580
 C3117 C 0.26786 0.28014 0.90649
 C3118 C 0.27363 0.28626 0.89415
 C3119 C 0.27101 0.26715 0.92922
 C3120 C 0.26683 0.26336 0.94079
 H3121 H 0.29496 0.32492 0.86272
 H3122 H 0.28299 0.31183 0.88192
 H3123 H 0.30813 0.27453 0.87234
 H3124 H 0.32024 0.28786 0.85331
 H3125 H 0.30788 0.27497 0.89823
 H3126 H 0.29768 0.26421 0.91975
 H3127 H 0.25675 0.28183 0.90892
 H3128 H 0.26678 0.29245 0.88716
 C3129 C 0.42503 0.32552 0.90918
 C3130 C 0.43124 0.31905 0.90001
 C3131 C 0.43825 0.31147 0.88871
 C3132 C 0.43035 0.30669 0.87694
 C3133 C 0.43710 0.29980 0.86563
 C3134 C 0.45189 0.29761 0.86593
 C3135 C 0.45973 0.30225 0.87792
 C3136 C 0.45294 0.30917 0.88923
 C3137 C 0.45909 0.29083 0.85360
 C3138 C 0.47002 0.28080 0.85574
 C3139 C 0.47667 0.27440 0.84404
 C3140 C 0.47249 0.27799 0.83009
 C3141 C 0.46169 0.28801 0.82788
 C3142 C 0.45504 0.29440 0.83954
 C3143 C 0.47910 0.27147 0.81792
 C3144 C 0.48411 0.26643 0.80723
 H3145 H 0.41897 0.30838 0.87645
 H3146 H 0.43075 0.29616 0.85665
 H3147 H 0.47114 0.30084 0.87839
 H3148 H 0.45916 0.31287 0.89828
 H3149 H 0.47328 0.27776 0.86645
 H3150 H 0.48501 0.26664 0.84586
 H3151 H 0.45841 0.29091 0.81713
 H3152 H 0.44683 0.30224 0.83753
 C3153 C 0.92730 0.32260 0.40815
 C3154 C 0.93366 0.31574 0.39936
 C3155 C 0.94075 0.30764 0.38847
 C3156 C 0.93399 0.29577 0.38242
 C3157 C 0.94035 0.28842 0.37116
 C3158 C 0.95358 0.29285 0.36577
 C3159 C 0.96043 0.30462 0.37212
 C3160 C 0.95404 0.31198 0.38339
 C3161 C 0.95992 0.28557 0.35323
 C3162 C 0.97466 0.28311 0.35255
 C3163 C 0.98063 0.27675 0.34046
 C3164 C 0.97195 0.27277 0.32893
 C3165 C 0.95728 0.27503 0.32958
 C3166 C 0.95129 0.28137 0.34164
 C3167 C 0.97808 0.26699 0.31611
 C3168 C 0.98282 0.26253 0.30504
 H3169 H 0.92370 0.29234 0.38627
 H3170 H 0.93489 0.27929 0.36663
 H3171 H 0.97053 0.30841 0.36809
 H3172 H 0.95933 0.32121 0.38793
 H3173 H 0.98156 0.28609 0.36136
 H3174 H 0.99201 0.27508 0.34005
 H3175 H 0.95048 0.27211 0.32065
 H3176 H 0.93995 0.28333 0.34172
 C3177 C 0.42401 0.40732 0.82273
 C3178 C 0.43058 0.39855 0.81606
 C3179 C 0.43804 0.38765 0.80832
 C3180 C 0.45277 0.38617 0.80981
 C3181 C 0.45981 0.37495 0.80302
 C3182 C 0.45217 0.36504 0.79469
 C3183 C 0.43741 0.36683 0.79301
 C3184 C 0.43040 0.37804 0.79979
 C3185 C 0.45942 0.35255 0.78827
 C3186 C 0.45290 0.33904 0.78861
 C3187 C 0.45974 0.32717 0.78287
 C3188 C 0.47318 0.32860 0.77670
 C3189 C 0.47977 0.34200 0.77626
 C3190 C 0.47294 0.35392 0.78203
 C3191 C 0.48011 0.31616 0.77110
 C3192 C 0.48522 0.30522 0.76676
 H3193 H 0.45877 0.39352 0.81645
 H3194 H 0.47115 0.37377 0.80464
 H3195 H 0.43126 0.35950 0.78651
 H3196 H 0.41899 0.37909 0.79856
 H3197 H 0.44262 0.33757 0.79355
 H3198 H 0.45458 0.31684 0.78334
 H3199 H 0.49018 0.34321 0.77151
 H3200 H 0.47816 0.36421 0.78150
 C3201 C 0.92689 0.40642 0.32319
 C3202 C 0.93340 0.39730 0.31693
 C3203 C 0.94093 0.38594 0.30998
 C3204 C 0.94561 0.37425 0.31805
 C3205 C 0.95227 0.36278 0.31136
 C3206 C 0.95432 0.36281 0.29646
 C3207 C 0.94985 0.37474 0.28845
 C3208 C 0.94316 0.38622 0.29518
 C3209 C 0.96069 0.35023 0.28932
 C3210 C 0.97058 0.35189 0.27819
 C3211 C 0.97659 0.33992 0.27164
 C3212 C 0.97274 0.32619 0.27611
 C3213 C 0.96283 0.32446 0.28708
 C3214 C 0.95685 0.33637 0.29364
 C3215 C 0.97889 0.31373 0.26969
 C3216 C 0.98359 0.30278 0.26493
 H3217 H 0.94396 0.37393 0.32951
 H3218 H 0.95579 0.35386 0.31784
 H3219 H 0.95117 0.37501 0.27695
 H3220 H 0.93954 0.39520 0.28882
 H3221 H 0.97383 0.36243 0.27471
 H3222 H 0.98427 0.34137 0.26316
 H3223 H 0.95973 0.31388 0.29059
 H3224 H 0.94908 0.33473 0.30199
 C3225 C 0.33796 0.89515 0.41392
 C3226 C 0.33037 0.88774 0.42120
 C3227 C 0.32133 0.87869 0.42969
 C3228 C 0.31711 0.86537 0.42442
 C3229 C 0.30842 0.85649 0.43263
 C3230 C 0.30381 0.86080 0.44626
 C3231 C 0.30810 0.87422 0.45146
 C3232 C 0.31679 0.88311 0.44321
 C3233 C 0.29481 0.85116 0.45504
 C3234 C 0.29736 0.84954 0.46981
 C3235 C 0.28956 0.83965 0.47782
 C3236 C 0.27905 0.83135 0.47120
 C3237 C 0.27616 0.83320 0.45660
 C3238 C 0.28395 0.84304 0.44858
 C3239 C 0.27231 0.81984 0.47881
 C3240 C 0.26714 0.80942 0.48431
 H3241 H 0.32060 0.86182 0.41399
 H3242 H 0.30552 0.84613 0.42841
 H3243 H 0.30462 0.87789 0.46185
 H3244 H 0.31997 0.89342 0.44738
 H3245 H 0.30575 0.85551 0.47506
 H3246 H 0.29202 0.83816 0.48907
 H3247 H 0.26815 0.82674 0.45132
 H3248 H 0.28160 0.84418 0.43728
 C3249 C 0.32384 0.40929 0.92621
 C3250 C 0.31690 0.40112 0.93332
 C3251 C 0.30877 0.39088 0.94134
 C3252 C 0.31196 0.38823 0.95575
 C3253 C 0.30480 0.37743 0.96315
 C3254 C 0.29437 0.36913 0.95621
 C3255 C 0.29100 0.37214 0.94183
 C3256 C 0.29816 0.38294 0.93446
 C3257 C 0.28765 0.35681 0.96360
 C3258 C 0.27321 0.35350 0.96130
 C3259 C 0.26728 0.34114 0.96723
 C3260 C 0.27568 0.33198 0.97555
 C3261 C 0.28992 0.33540 0.97823
 C3262 C 0.29587 0.34773 0.97232
 C3263 C 0.27010 0.31854 0.98042
 C3264 C 0.26596 0.30693 0.98412
 H3265 H 0.32017 0.39431 0.96117
 H3266 H 0.30752 0.37548 0.97426
 H3267 H 0.28320 0.36581 0.93611
 H3268 H 0.29568 0.38484 0.92329
 H3269 H 0.26656 0.36036 0.95478
 H3270 H 0.25625 0.33857 0.96504
 H3271 H 0.29655 0.32832 0.98455
 H3272 H 0.30706 0.34984 0.97412
 C3273 C 0.82686 0.34105 0.32363
 C3274 C 0.82017 0.34961 0.31670
 C3275 C 0.81233 0.36023 0.30884
 C3276 C 0.81749 0.36540 0.29580
 C3277 C 0.81045 0.37652 0.28874
 C3278 C 0.79817 0.38264 0.29466
 C3279 C 0.79288 0.37713 0.30760
 C3280 C 0.79993 0.36600 0.31464
 C3281 C 0.79134 0.39521 0.28781
 C3282 C 0.77644 0.39665 0.28757
 C3283 C 0.77012 0.40895 0.28193
 C3284 C 0.77859 0.41993 0.27644
 C3285 C 0.79339 0.41848 0.27639
 C3286 C 0.79973 0.40622 0.28201
 C3287 C 0.77228 0.43304 0.27153
 C3288 C 0.76749 0.44435 0.26772
 H3289 H 0.82709 0.36101 0.29123
 H3290 H 0.81468 0.38041 0.27871
 H3291 H 0.78358 0.38174 0.31255
 H3292 H 0.79589 0.36214 0.32477
 H3293 H 0.76970 0.38830 0.29181
 H3294 H 0.75865 0.40999 0.28205
 H3295 H 0.80005 0.42698 0.27226
 H3296 H 0.81121 0.40556 0.28225
   
