data_POSCAR
  _audit_creation_date              2014-09-24
  _audit_creation_method            'ToBaCCo'
  _symmetry_space_group_name_H-M    'P1'
  _symmetry_Int_Tables_number       1
  _symmetry_cell_setting            triclinic
  loop_
  _symmetry_equiv_pos_as_xyz
 x,y,z
_cell_length_a 64.1952
_cell_length_b 64.2333
_cell_length_c 64.2069
_cell_angle_alpha 89.992300
_cell_angle_beta 90.001400
_cell_angle_gamma 90.012800
loop_
  _atom_site_label
  _atom_site_type_symbol
  _atom_site_fract_x
  _atom_site_fract_y
  _atom_site_fract_z
N1 N 0.32856 0.32842 0.32864
 N2 N 0.32803 0.82803 -0.17179
 N3 N 0.82874 0.32864 -0.17121
 N4 N 0.82909 0.82885 0.32912
 N5 N 0.67151 0.67157 0.32861
 N6 N 0.67115 0.17133 -0.17121
 N7 N 0.17163 0.67175 -0.17146
 N8 N 0.17122 0.17127 0.32898
 N9 N 0.67139 0.32840 0.67123
 N10 N 0.67138 0.82845 1.17123
 N11 N 0.17135 0.32872 1.17113
 N12 N 0.17164 0.82832 0.67162
 N13 N 0.32882 0.67130 0.67109
 N14 N 0.32877 0.17135 1.17100
 N15 N 0.82848 0.67168 1.17149
 N16 N 0.82834 0.17179 0.67159
 N17 N 0.32819 0.32848 0.67186
 N18 N 0.32865 0.82889 0.17137
 N19 N 0.82874 0.32893 0.17131
 N20 N 0.82846 0.82868 0.67171
 N21 N 0.67147 0.67125 0.67159
 N22 N 0.67129 0.17103 0.17138
 N23 N 0.17178 0.67149 0.17183
 N24 N 0.17161 0.17144 0.67172
 N25 N 0.32867 0.67114 0.32871
 N26 N 0.32818 0.17152 0.82817
 N27 N 0.82840 0.67141 0.82832
 N28 N 0.82857 0.17123 0.32841
 N29 N 0.67178 0.32836 0.32810
 N30 N 0.67140 0.82867 0.82841
 N31 N 0.17147 0.32891 0.82845
 N32 N 0.17145 0.82887 0.32865
 O33 O 0.24799 1.02056 0.27645
 O34 O 0.27650 0.97980 0.24793
 O35 O 0.27651 1.02056 0.24792
 O36 O 0.24794 0.97980 0.27641
 O37 O 0.22358 0.97983 0.25205
 O38 O 0.25216 1.02058 0.22355
 O39 O 0.25214 0.97982 0.22356
 O40 O 0.22363 1.02059 0.25209
 Cu41 Cu 0.26469 1.00018 0.26464
 Cu42 Cu 0.23542 1.00021 0.23536
 C43 C 0.23116 1.02767 0.26893
 C44 C 0.26897 0.97271 0.23109
 C45 C 0.26900 1.02766 0.23108
 C46 C 0.23110 0.97271 0.26888
 O47 O 0.25215 0.52053 0.72349
 O48 O 0.22354 0.47997 0.75223
 O49 O 0.22370 0.52073 0.75210
 O50 O 0.25198 0.47976 0.72365
 O51 O 0.27641 0.47976 0.74794
 O52 O 0.24813 0.52072 0.77640
 O53 O 0.24796 0.47995 0.77652
 O54 O 0.27657 0.52051 0.74779
 Cu55 Cu 0.23538 0.50025 0.73542
 Cu56 Cu 0.26473 0.50024 0.76461
 C57 C 0.26903 0.52758 0.73095
 C58 C 0.23109 0.47289 0.76905
 C59 C 0.23130 0.52785 0.76889
 C60 C 0.26880 0.47262 0.73116
 O61 O 0.72351 0.02010 0.24793
 O62 O 0.75210 -0.02060 0.27647
 O63 O 0.75205 0.02016 0.27642
 O64 O 0.72356 -0.02067 0.24794
 O65 O 0.74791 -0.02064 0.22358
 O66 O 0.77640 0.02018 0.25206
 O67 O 0.77645 -0.02058 0.25211
 O68 O 0.74786 0.02012 0.22356
 Cu69 Cu 0.73535 -0.00026 0.26465
 Cu70 Cu 0.76461 -0.00023 0.23537
 C71 C 0.73102 0.02721 0.23110
 C72 C 0.76895 -0.02767 0.26895
 C73 C 0.76887 0.02729 0.26888
 C74 C 0.73108 -0.02776 0.23111
 O75 O 0.74791 0.47939 0.72351
 O76 O 0.77642 0.52026 0.75190
 O77 O 0.77650 0.47949 0.75198
 O78 O 0.74780 0.52016 0.72349
 O79 O 0.72350 0.52012 0.74791
 O80 O 0.75220 0.47947 0.77641
 O81 O 0.75213 0.52023 0.77632
 O82 O 0.72361 0.47935 0.74793
 Cu83 Cu 0.76461 0.49982 0.73526
 Cu84 Cu 0.73541 0.49979 0.76460
 C85 C 0.73111 0.47225 0.73109
 C86 C 0.76892 0.52737 0.76874
 C87 C 0.76903 0.47239 0.76884
 C88 C 0.73098 0.52724 0.73106
 O89 O 0.22360 0.52025 0.24798
 O90 O 0.25201 0.47939 0.27649
 O91 O 0.25200 0.52016 0.27663
 O92 O 0.22358 0.47949 0.24786
 O93 O 0.24804 0.47956 0.22360
 O94 O 0.27646 0.52023 0.25237
 O95 O 0.27647 0.47947 0.25223
 O96 O 0.24806 0.52032 0.22372
 Cu97 Cu 0.23533 0.49981 0.26469
 Cu98 Cu 0.26472 0.49990 0.23553
 C99 C 0.23120 0.52740 0.23121
 C100 C 0.26887 0.47232 0.26901
 C101 C 0.26887 0.52728 0.26919
 C102 C 0.23118 0.47244 0.23104
 O103 O 0.74784 1.02052 0.77645
 O104 O 0.77642 0.97982 0.74790
 O105 O 0.77638 1.02060 0.74794
 O106 O 0.74791 0.97975 0.77643
 O107 O 0.72355 0.97974 0.75207
 O108 O 0.75202 1.02059 0.72359
 O109 O 0.75206 0.97981 0.72354
 O110 O 0.72348 1.02051 0.75210
 Cu111 Cu 0.76460 1.00018 0.76463
 Cu112 Cu 0.73532 1.00016 0.73537
 C113 C 0.73100 1.02761 0.76893
 C114 C 0.76889 0.97272 0.73107
 C115 C 0.76884 1.02772 0.73113
 C116 C 0.73109 0.97263 0.76889
 O117 O 0.74778 0.52050 0.27643
 O118 O 0.77643 0.47979 0.24796
 O119 O 0.77640 0.52056 0.24802
 O120 O 0.74780 0.47972 0.27638
 O121 O 0.72352 0.47973 0.25194
 O122 O 0.75212 0.52058 0.22358
 O123 O 0.75216 0.47981 0.22352
 O124 O 0.72350 0.52052 0.25199
 Cu125 Cu 0.76455 0.50014 0.26467
 Cu126 Cu 0.73537 0.50016 0.23530
 C127 C 0.73098 0.52762 0.26885
 C128 C 0.76897 0.47271 0.23109
 C129 C 0.76892 0.52769 0.23118
 C130 C 0.73100 0.47260 0.26878
 O131 O 0.24799 -0.02045 0.72345
 O132 O 0.27650 0.02023 0.75213
 O133 O 0.27649 -0.02055 0.75199
 O134 O 0.24799 0.02033 0.72358
 O135 O 0.22361 0.02025 0.74792
 O136 O 0.25210 -0.02062 0.77633
 O137 O 0.25212 0.02016 0.77646
 O138 O 0.22361 -0.02052 0.74779
 Cu139 Cu 0.26470 -0.00010 0.73533
 Cu140 Cu 0.23541 -0.00019 0.76458
 C141 C 0.23116 -0.02758 0.73095
 C142 C 0.26896 0.02728 0.76897
 C143 C 0.26893 -0.02771 0.76878
 C144 C 0.23116 0.02741 0.73112
 O145 O 0.22355 0.25217 1.02016
 O146 O 0.25203 0.22372 0.97931
 O147 O 0.25205 0.22361 1.02009
 O148 O 0.22354 0.25225 0.97938
 O149 O 0.24793 0.27657 0.97942
 O150 O 0.27644 0.24793 1.02012
 O151 O 0.27642 0.24804 0.97935
 O152 O 0.24795 0.27648 1.02020
 Cu153 Cu 0.23533 0.23548 0.99973
 Cu154 Cu 0.26465 0.26471 0.99978
 C155 C 0.23111 0.26897 1.02729
 C156 C 0.26886 0.23124 0.97221
 C157 C 0.26890 0.23110 1.02719
 C158 C 0.23109 0.26907 0.97231
 O159 O 0.24776 0.77640 0.47962
 O160 O 0.27632 0.74774 0.52025
 O161 O 0.27623 0.74784 0.47950
 O162 O 0.24784 0.77629 0.52040
 O163 O 0.22344 0.75197 0.52039
 O164 O 0.25184 0.72352 0.47949
 O165 O 0.25193 0.72342 0.52025
 O166 O 0.22336 0.75208 0.47960
 Cu167 Cu 0.26450 0.76452 0.49994
 Cu168 Cu 0.23518 0.73530 0.49993
 C169 C 0.23091 0.76891 0.47252
 C170 C 0.26880 0.73090 0.52732
 C171 C 0.26867 0.73104 0.47238
 C172 C 0.23102 0.76876 0.52752
 O173 O 0.22347 0.74783 -0.02015
 O174 O 0.25204 0.77647 0.02051
 O175 O 0.25192 0.77642 -0.02028
 O176 O 0.22360 0.74786 0.02064
 O177 O 0.24802 0.72358 0.02059
 O178 O 0.27635 0.75214 -0.02031
 O179 O 0.27647 0.75219 0.02047
 O180 O 0.24790 0.72356 -0.02020
 Cu181 Cu 0.23529 0.76459 0.00019
 Cu182 Cu 0.26465 0.73542 0.00014
 C183 C 0.23103 0.73104 -0.02727
 C184 C 0.26892 0.76900 0.02757
 C185 C 0.26874 0.76893 -0.02743
 C186 C 0.23119 0.73107 0.02774
 O187 O 0.22348 0.24798 0.47984
 O188 O 0.25192 0.27663 0.52058
 O189 O 0.25194 0.27657 0.47979
 O190 O 0.22352 0.24798 0.52062
 O191 O 0.24796 0.22373 0.52063
 O192 O 0.27639 0.25231 0.47982
 O193 O 0.27636 0.25237 0.52060
 O194 O 0.24792 0.22372 0.47984
 Cu195 Cu 0.23525 0.26474 0.50021
 Cu196 Cu 0.26462 0.23559 0.50022
 C197 C 0.23106 0.23118 0.47274
 C198 C 0.26877 0.26916 0.52769
 C199 C 0.26880 0.26910 0.47270
 C200 C 0.23111 0.23119 0.52773
 O201 O 0.74794 0.77638 0.97938
 O202 O 0.77645 0.74792 1.02022
 O203 O 0.77644 0.74785 0.97943
 O204 O 0.74790 0.77641 1.02016
 O205 O 0.72353 0.75206 1.02018
 O206 O 0.75208 0.72350 0.97946
 O207 O 0.75208 0.72358 1.02025
 O208 O 0.72358 0.75203 0.97940
 Cu209 Cu 0.76464 0.76459 0.99980
 Cu210 Cu 0.73536 0.73533 0.99983
 C211 C 0.73111 0.76884 0.97228
 C212 C 0.76891 0.73112 1.02736
 C213 C 0.76891 0.73102 0.97234
 C214 C 0.73106 0.76889 1.02727
 O215 O 0.75216 0.22345 0.47944
 O216 O 0.72356 0.25199 0.52015
 O217 O 0.72361 0.25193 0.47935
 O218 O 0.75214 0.22354 0.52023
 O219 O 0.77647 0.24792 0.52020
 O220 O 0.74794 0.27631 0.47933
 O221 O 0.74789 0.27637 0.52013
 O222 O 0.77649 0.24783 0.47941
 Cu223 Cu 0.73541 0.23527 0.49979
 Cu224 Cu 0.76465 0.26457 0.49976
 C225 C 0.76899 0.23099 0.47233
 C226 C 0.73107 0.26883 0.52724
 C227 C 0.73112 0.26875 0.47222
 C228 C 0.76895 0.23110 0.52734
 O229 O 0.77648 0.25198 -0.02026
 O230 O 0.74794 0.22345 0.02051
 O231 O 0.74794 0.22346 -0.02027
 O232 O 0.77646 0.25197 0.02053
 O233 O 0.75210 0.27631 0.02051
 O234 O 0.72358 0.24780 -0.02028
 O235 O 0.72357 0.24778 0.02050
 O236 O 0.75211 0.27632 -0.02027
 Cu237 Cu 0.76466 0.23526 0.00013
 Cu238 Cu 0.73538 0.26451 0.00012
 C239 C 0.76895 0.26880 -0.02737
 C240 C 0.73110 0.23096 0.02760
 C241 C 0.73111 0.23097 -0.02738
 C242 C 0.76893 0.26880 0.02762
 O243 O 0.77653 0.75206 0.47990
 O244 O 0.74785 0.72351 0.52056
 O245 O 0.74796 0.72358 0.47977
 O246 O 0.77644 0.75198 0.52068
 O247 O 0.75211 0.77636 0.52066
 O248 O 0.72364 0.74795 0.47975
 O249 O 0.72353 0.74789 0.52055
 O250 O 0.75221 0.77644 0.47988
 Cu251 Cu 0.76465 0.73532 0.50023
 Cu252 Cu 0.73542 0.76462 0.50021
 C253 C 0.76905 0.76891 0.47281
 C254 C 0.73102 0.73105 0.52765
 C255 C 0.73116 0.73114 0.47264
 C256 C 0.76892 0.76880 0.52779
 O257 O 1.02042 0.22360 0.25207
 O258 O 0.97964 0.25209 0.22350
 O259 O 1.02043 0.25209 0.22351
 O260 O 0.97963 0.22356 0.25201
 O261 O 0.97959 0.24791 0.27636
 O262 O 1.02041 0.27644 0.24787
 O263 O 0.97962 0.27644 0.24785
 O264 O 1.02038 0.24794 0.27643
 Cu265 Cu 1.00003 0.23538 0.23532
 Cu266 Cu 1.00000 0.26464 0.26458
 C267 C 1.02749 0.23112 0.26892
 C268 C 0.97253 0.26891 0.23101
 C269 C 1.02752 0.26892 0.23104
 C270 C 0.97250 0.23108 0.26883
 O271 O 0.52020 0.22355 0.75209
 O272 O 0.47945 0.25210 0.72356
 O273 O 0.52024 0.25200 0.72350
 O274 O 0.47942 0.22361 0.75210
 O275 O 0.47947 0.24800 0.77642
 O276 O 0.52032 0.27638 0.74782
 O277 O 0.47952 0.27648 0.74788
 O278 O 0.52027 0.24793 0.77642
 Cu279 Cu 0.49982 0.23536 0.73536
 Cu280 Cu 0.49991 0.26466 0.76459
 C281 C 0.52733 0.23108 0.76891
 C282 C 0.47238 0.26894 0.73108
 C283 C 0.52739 0.26882 0.73100
 C284 C 0.47233 0.23118 0.76891
 O285 O 0.02051 0.25214 0.77644
 O286 O -0.02034 0.22354 0.74806
 O287 O 0.02047 0.22354 0.74801
 O288 O -0.02028 0.25212 0.77652
 O289 O -0.02032 0.27641 0.75210
 O290 O 0.02044 0.24783 0.72360
 O291 O -0.02036 0.24782 0.72364
 O292 O 0.02047 0.27643 0.75201
 Cu293 Cu 0.00009 0.23538 0.76472
 Cu294 Cu 0.00005 0.26457 0.73537
 C295 C 0.02760 0.26895 0.76885
 C296 C -0.02747 0.23103 0.73123
 C297 C 0.02756 0.23103 0.73116
 C298 C -0.02739 0.26892 0.76896
 O299 O 0.47961 0.22357 0.24794
 O300 O 0.52041 0.25209 0.27645
 O301 O 0.47961 0.25214 0.27641
 O302 O 0.52039 0.22351 0.24801
 O303 O 0.52046 0.24781 0.22360
 O304 O 0.47967 0.27643 0.25201
 O305 O 0.52047 0.27638 0.25204
 O306 O 0.47968 0.24787 0.22353
 Cu307 Cu 0.49999 0.23538 0.26467
 Cu308 Cu 0.50007 0.26458 0.23534
 C309 C 0.47254 0.23106 0.23108
 C310 C 0.52755 0.26888 0.26889
 C311 C 0.47253 0.26895 0.26884
 C312 C 0.52752 0.23099 0.23117
 O313 O 1.02041 0.77644 0.74795
 O314 O 0.97963 0.74797 0.77655
 O315 O 1.02043 0.74793 0.77648
 O316 O 0.97962 0.77649 0.74804
 O317 O 0.97953 0.75215 0.72368
 O318 O 1.02035 0.72359 0.75212
 O319 O 0.97956 0.72363 0.75220
 O320 O 1.02033 0.75209 0.72359
 Cu321 Cu 1.00003 0.76466 0.76471
 Cu322 Cu 0.99993 0.73541 0.73544
 C323 C 1.02748 0.76890 0.73111
 C324 C 0.97249 0.73116 0.76904
 C325 C 1.02750 0.73110 0.76893
 C326 C 0.97246 0.76898 0.73123
 O327 O 0.52033 0.77634 0.24778
 O328 O 0.47959 0.74783 0.27640
 O329 O 0.52038 0.74789 0.27636
 O330 O 0.47954 0.77634 0.24785
 O331 O 0.47952 0.75197 0.22352
 O332 O 0.52037 0.72351 0.25203
 O333 O 0.47958 0.72346 0.25207
 O334 O 0.52030 0.75197 0.22345
 Cu335 Cu 0.49996 0.76456 0.26455
 Cu336 Cu 0.49994 0.73527 0.23531
 C337 C 0.52742 0.76880 0.23095
 C338 C 0.47249 0.73099 0.26890
 C339 C 0.52749 0.73107 0.26884
 C340 C 0.47242 0.76880 0.23104
 O341 O -0.02019 0.77650 0.25196
 O342 O 0.02056 0.74784 0.22353
 O343 O -0.02024 0.74793 0.22348
 O344 O 0.02060 0.77642 0.25197
 O345 O 0.02052 0.75212 0.27639
 O346 O -0.02032 0.72364 0.24789
 O347 O 0.02049 0.72355 0.24794
 O348 O -0.02025 0.75220 0.27637
 Cu349 Cu 0.00019 0.76462 0.23527
 Cu350 Cu 0.00010 0.73542 0.26460
 C351 C -0.02731 0.76903 0.26881
 C352 C 0.02764 0.73103 0.23111
 C353 C -0.02739 0.73114 0.23104
 C354 C 0.02767 0.76891 0.26882
 O355 O 0.52028 0.75230 0.77645
 O356 O 0.47970 0.72356 0.74784
 O357 O 0.52048 0.72372 0.74800
 O358 O 0.47948 0.75211 0.77632
 O359 O 0.47946 0.77641 0.75192
 O360 O 0.52048 0.74803 0.72360
 O361 O 0.47970 0.74787 0.72344
 O362 O 0.52026 0.77661 0.75205
 Cu363 Cu 0.49999 0.73548 0.76462
 Cu364 Cu 0.49998 0.76469 0.73529
 C365 C 0.52735 0.76914 0.76891
 C366 C 0.47263 0.73103 0.73097
 C367 C 0.52761 0.73125 0.73118
 C368 C 0.47232 0.76888 0.76873
 C369 C 0.38567 0.30943 0.30949
 C370 C 0.39242 0.31960 0.28894
 C371 C 0.41077 0.31212 0.28137
 C372 C 0.42060 0.29520 0.29510
 C373 C 0.40365 0.27852 0.29742
 C374 C 0.38533 0.28598 0.30498
 C375 C 0.40414 0.31262 0.32437
 C376 C 0.42255 0.30512 0.31678
 C377 C 0.36561 0.31712 0.31726
 C378 C 0.34856 0.32267 0.32286
 C379 C 0.44005 0.28676 0.28659
 C380 C 0.45532 0.27904 0.27887
 H381 H 0.38359 0.33167 0.28105
 H382 H 0.41767 0.31778 0.26700
 H383 H 0.40587 0.26222 0.29351
 H384 H 0.37186 0.27608 0.30754
 H385 H 0.40289 0.32011 0.33947
 H386 H 0.43707 0.30619 0.32538
 C387 C 0.38516 0.80904 0.80913
 C388 C 0.39434 0.82225 0.79144
 C389 C 0.41274 0.81481 0.78392
 C390 C 0.42017 0.79488 0.79483
 C391 C 0.40199 0.77952 0.79268
 C392 C 0.38363 0.78695 0.80018
 C393 C 0.40245 0.80786 0.82563
 C394 C 0.42089 0.80041 0.81810
 C395 C 0.36507 0.81670 0.81686
 C396 C 0.34802 0.82225 0.82244
 C397 C 0.43968 0.78650 0.78638
 C398 C 0.45501 0.77886 0.77871
 H399 H 0.38705 0.83626 0.78540
 H400 H 0.42121 0.82243 0.77143
 H401 H 0.40342 0.76412 0.78586
 H402 H 0.36934 0.77790 0.79979
 H403 H 0.40041 0.81250 0.84176
 H404 H 0.43465 0.79866 0.82777
 C405 C -0.11421 0.30952 0.80963
 C406 C -0.10038 0.29949 0.82636
 C407 C -0.08200 0.29195 0.81880
 C408 C -0.07930 0.29520 0.79526
 C409 C -0.08210 0.31870 0.79186
 C410 C -0.10048 0.32624 0.79942
 C411 C -0.11691 0.29268 0.79291
 C412 C -0.09860 0.28517 0.78537
 C413 C -0.13425 0.31726 0.81739
 C414 C -0.15128 0.32285 0.82299
 C415 C -0.05985 0.28673 0.78676
 C416 C -0.04460 0.27900 0.77903
 H417 H -0.10462 0.29845 0.84270
 H418 H -0.07049 0.28446 0.82866
 H419 H -0.07065 0.32855 0.78426
 H420 H -0.10477 0.34255 0.79830
 H421 H -0.13192 0.28713 0.78745
 H422 H -0.09795 0.27318 0.77347
 C423 C -0.11391 0.80977 0.30978
 C424 C -0.10465 0.82309 0.29222
 C425 C -0.08633 0.81556 0.28457
 C426 C -0.07908 0.79543 0.29524
 C427 C -0.09740 0.78027 0.29297
 C428 C -0.11567 0.78779 0.30060
 C429 C -0.09659 0.80825 0.32623
 C430 C -0.07824 0.80070 0.31857
 C431 C -0.13392 0.81750 0.31763
 C432 C -0.15094 0.82308 0.32329
 C433 C -0.05968 0.78694 0.28666
 C434 C -0.04447 0.77916 0.27888
 H435 H -0.11181 0.83724 0.28636
 H436 H -0.07780 0.82324 0.27216
 H437 H -0.09614 0.76493 0.28599
 H438 H -0.13004 0.77887 0.30016
 H439 H -0.09855 0.81272 0.34241
 H440 H -0.06448 0.79871 0.32819
 C441 C 0.61443 0.69067 0.30946
 C442 C 0.60049 0.67384 0.29975
 C443 C 0.58209 0.68134 0.29220
 C444 C 0.57948 0.70492 0.29512
 C445 C 0.59875 0.71461 0.28483
 C446 C 0.61708 0.70714 0.29236
 C447 C 0.60083 0.70116 0.32611
 C448 C 0.58243 0.70865 0.31856
 C449 C 0.63449 0.68296 0.31721
 C450 C 0.65153 0.67737 0.32281
 C451 C 0.56001 0.71335 0.28663
 C452 C 0.54473 0.72104 0.27889
 H453 H 0.60467 0.65748 0.29892
 H454 H 0.57051 0.67141 0.28491
 H455 H 0.59806 0.72635 0.27268
 H456 H 0.63208 0.71248 0.28664
 H457 H 0.60523 0.70253 0.34237
 H458 H 0.57107 0.71645 0.32836
 C459 C 0.61407 0.19043 0.80968
 C460 C 0.61065 0.18581 0.78648
 C461 C 0.59232 0.19334 0.77892
 C462 C 0.57917 0.20476 0.79529
 C463 C 0.59359 0.22166 0.80410
 C464 C 0.61191 0.21414 0.81166
 C465 C 0.59480 0.18149 0.82070
 C466 C 0.57641 0.18904 0.81312
 C467 C 0.63411 0.18269 0.81744
 C468 C 0.65116 0.17711 0.82303
 C469 C 0.55975 0.21325 0.78676
 C470 C 0.54451 0.22099 0.77900
 H471 H 0.62163 0.17730 0.77685
 H472 H 0.58762 0.19127 0.76281
 H473 H 0.58972 0.23811 0.80443
 H474 H 0.62371 0.22415 0.81847
 H475 H 0.59553 0.17026 0.83332
 H476 H 0.56137 0.18428 0.81922
 C477 C 1.11449 0.69070 0.80941
 C478 C 1.10072 0.67391 0.79938
 C479 C 1.08230 0.68139 0.79186
 C480 C 1.07951 0.70491 0.79511
 C481 C 1.09876 0.71488 0.78505
 C482 C 1.11711 0.70742 0.79255
 C483 C 1.10074 0.70084 0.82614
 C484 C 1.08233 0.70832 0.81861
 C485 C 1.13457 0.68302 0.81714
 C486 C 1.15163 0.67748 0.82274
 C487 C 1.06003 0.71334 0.78665
 C488 C 1.04474 0.72104 0.77895
 H489 H 1.10502 0.65760 0.79834
 H490 H 1.07083 0.67149 0.78436
 H491 H 1.09805 0.72678 0.77306
 H492 H 1.13209 0.71294 0.78698
 H493 H 1.10506 0.70200 0.84244
 H494 H 1.07087 0.71589 0.82847
 C495 C 1.11419 0.19043 0.30975
 C496 C 1.11596 0.19964 0.28777
 C497 C 1.09767 0.20717 0.28021
 C498 C 1.07932 0.20480 0.29534
 C499 C 1.08649 0.21549 0.31549
 C500 C 1.10483 0.20794 0.32306
 C501 C 1.09696 0.17392 0.30819
 C502 C 1.07859 0.18148 0.30060
 C503 C 1.13422 0.18267 0.31754
 C504 C 1.15125 0.17707 0.32316
 C505 C 1.05990 0.21331 0.28680
 C506 C 1.04467 0.22105 0.27903
 H507 H 1.13034 0.20017 0.27889
 H508 H 1.09640 0.21415 0.26486
 H509 H 1.07789 0.22786 0.32316
 H510 H 1.11194 0.21383 0.33723
 H511 H 1.09899 0.15775 0.31268
 H512 H 1.06487 0.17180 0.29859
 C513 C 0.61429 0.30929 0.69033
 C514 C 0.60370 0.29354 0.67577
 C515 C 0.58532 0.28602 0.68331
 C516 C 0.57934 0.29499 0.70465
 C517 C 0.57945 0.31872 0.70167
 C518 C 0.59785 0.32625 0.69413
 C519 C 0.61641 0.29793 0.71124
 C520 C 0.59809 0.29043 0.71875
 C521 C 0.63435 0.31702 0.68259
 C522 C 0.65140 0.32261 0.67700
 C523 C 0.55988 0.28654 0.71314
 C524 C 0.54461 0.27884 0.72090
 H525 H 0.61006 0.28876 0.66085
 H526 H 0.57593 0.27479 0.67484
 H527 H 0.56625 0.32870 0.70514
 H528 H 0.60043 0.34268 0.69113
 H529 H 0.63107 0.29596 0.71945
 H530 H 0.59706 0.28203 0.73339
 C531 C 0.61428 0.80934 0.19032
 C532 C 0.60356 0.79382 0.17563
 C533 C 0.58518 0.78629 0.18316
 C534 C 0.57934 0.79504 0.20463
 C535 C 0.57955 0.81880 0.20194
 C536 C 0.59795 0.82633 0.19440
 C537 C 0.61646 0.79773 0.21108
 C538 C 0.59813 0.79023 0.21859
 C539 C 0.63434 0.81707 0.18259
 C540 C 0.65139 0.82266 0.17701
 C541 C 0.55988 0.78657 0.21311
 C542 C 0.54462 0.77886 0.22086
 H543 H 0.60982 0.78919 0.16062
 H544 H 0.57569 0.77522 0.17460
 H545 H 0.56641 0.82880 0.20557
 H546 H 0.60059 0.84278 0.19158
 H547 H 0.63114 0.79559 0.21921
 H548 H 0.59713 0.78166 0.23314
 C549 C 1.11428 0.30962 0.19032
 C550 C 1.10466 0.29246 0.17673
 C551 C 1.08631 0.28491 0.18429
 C552 C 1.07938 0.29526 0.20470
 C553 C 1.07882 0.31868 0.19990
 C554 C 1.09720 0.32625 0.19233
 C555 C 1.11612 0.29997 0.21210
 C556 C 1.09782 0.29244 0.21964
 C557 C 1.13432 0.31737 0.18255
 C558 C 1.15136 0.32295 0.17693
 C559 C 1.05995 0.28676 0.21321
 C560 C 1.04471 0.27901 0.22096
 H561 H 1.11162 0.28678 0.16240
 H562 H 1.07755 0.27276 0.17645
 H563 H 1.06521 0.32844 0.20221
 H564 H 1.09934 0.34248 0.18815
 H565 H 1.13056 0.29915 0.22086
 H566 H 1.09660 0.28516 0.23486
 C567 C 1.11449 0.80929 0.69063
 C568 C 1.10085 0.82600 0.70095
 C569 C 1.08242 0.81850 0.70844
 C570 C 1.07948 0.79505 0.70487
 C571 C 1.09872 0.78484 0.71470
 C572 C 1.11708 0.79231 0.70723
 C573 C 1.10062 0.79945 0.67381
 C574 C 1.08219 0.79196 0.68130
 C575 C 1.13458 0.81699 0.68295
 C576 C 1.15164 0.82256 0.67738
 C577 C 1.05999 0.78662 0.71331
 C578 C 1.04470 0.77893 0.72103
 H579 H 1.10524 0.84227 0.70222
 H580 H 1.07103 0.82835 0.71612
 H581 H 1.09799 0.77276 0.72651
 H582 H 1.13205 0.78662 0.71266
 H583 H 1.10487 0.79850 0.65748
 H584 H 1.07066 0.78458 0.67139
 C585 C 0.38591 0.69036 0.69020
 C586 C 0.38323 0.70640 0.70770
 C587 C 0.40154 0.71390 0.71524
 C588 C 0.42083 0.70466 0.70458
 C589 C 0.41764 0.70889 0.68126
 C590 C 0.39927 0.70137 0.67369
 C591 C 0.40010 0.67346 0.69942
 C592 C 0.41848 0.68099 0.70699
 C593 C 0.36586 0.68265 0.68244
 C594 C 0.34881 0.67707 0.67686
 C595 C 0.44026 0.71314 0.71310
 C596 C 0.45549 0.72090 0.72087
 H597 H 0.36823 0.71144 0.71366
 H598 H 0.40221 0.72535 0.72766
 H599 H 0.42885 0.71700 0.67154
 H600 H 0.39473 0.70303 0.65749
 H601 H 0.39610 0.65705 0.69990
 H602 H 0.43023 0.67102 0.71396
 C603 C 0.38583 0.19047 0.19018
 C604 C 0.40308 0.19205 0.17368
 C605 C 0.42145 0.19960 0.18130
 C606 C 0.42070 0.20478 0.20464
 C607 C 0.41349 0.18463 0.21528
 C608 C 0.39515 0.17710 0.20767
 C609 C 0.38408 0.21242 0.19944
 C610 C 0.40238 0.21992 0.20703
 C611 C 0.36579 0.18274 0.18238
 C612 C 0.34876 0.17714 0.17678
 C613 C 0.44012 0.21326 0.21320
 C614 C 0.45536 0.22099 0.22098
 H615 H 0.40107 0.18762 0.15749
 H616 H 0.43518 0.20162 0.17164
 H617 H 0.42206 0.17691 0.22764
 H618 H 0.38801 0.16293 0.21351
 H619 H 0.36972 0.22132 0.19996
 H620 H 0.40366 0.23525 0.21405
 C621 C -0.11439 0.69073 0.19055
 C622 C -0.11697 0.70622 0.20855
 C623 C -0.09863 0.71369 0.21604
 C624 C -0.07941 0.70498 0.20483
 C625 C -0.08299 0.70986 0.18169
 C626 C -0.10140 0.70237 0.17417
 C627 C -0.09989 0.67373 0.19905
 C628 C -0.08147 0.68123 0.20657
 C629 C -0.13447 0.68303 0.18283
 C630 C -0.15153 0.67746 0.17725
 C631 C -0.05993 0.71342 0.21328
 C632 C -0.04464 0.72111 0.22100
 H633 H -0.13193 0.71091 0.21489
 H634 H -0.09789 0.72478 0.22878
 H635 H -0.07202 0.71839 0.17205
 H636 H -0.10620 0.70447 0.15810
 H637 H -0.10372 0.65726 0.19912
 H638 H -0.06953 0.67119 0.21308
 C639 C -0.11452 0.19071 0.69075
 C640 C -0.11711 0.20751 0.70753
 C641 C -0.09876 0.21494 0.71504
 C642 C -0.07952 0.20488 0.70507
 C643 C -0.08227 0.20820 0.68155
 C644 C -0.10069 0.20075 0.67401
 C645 C -0.10083 0.17392 0.70088
 C646 C -0.08240 0.18138 0.70842
 C647 C -0.13461 0.18306 0.68300
 C648 C -0.15166 0.17753 0.67739
 C649 C -0.06002 0.21328 0.71353
 C650 C -0.04472 0.22097 0.72123
 H651 H -0.13209 0.21310 0.71305
 H652 H -0.09803 0.22689 0.72699
 H653 H -0.07076 0.21569 0.67168
 H654 H -0.10496 0.20185 0.65769
 H655 H -0.10519 0.15763 0.70199
 H656 H -0.07098 0.17148 0.71599
 C657 C 0.30944 0.38547 0.30953
 C658 C 0.29618 0.39754 0.32535
 C659 C 0.28864 0.41592 0.31783
 C660 C 0.29510 0.42038 0.29524
 C661 C 0.28790 0.40128 0.28285
 C662 C 0.29542 0.38296 0.29034
 C663 C 0.32654 0.40076 0.30275
 C664 C 0.31900 0.41914 0.29523
 C665 C 0.31718 0.36542 0.31725
 C666 C 0.32277 0.34839 0.32284
 C667 C 0.28662 0.43983 0.28678
 C668 C 0.27891 0.45510 0.27907
 H669 H 0.29306 0.39218 0.34107
 H670 H 0.27905 0.42629 0.32711
 H671 H 0.27776 0.40206 0.26933
 H672 H 0.29172 0.36807 0.28323
 H673 H 0.34309 0.39746 0.30382
 H674 H 0.32908 0.43160 0.28985
 C675 C 0.30910 -0.11485 0.80909
 C676 C 0.29208 -0.11739 0.79252
 C677 C 0.28466 -0.09902 0.78505
 C678 C 0.29497 -0.07983 0.79485
 C679 C 0.31842 -0.08285 0.79124
 C680 C 0.32586 -0.10128 0.79873
 C681 C 0.29935 -0.10094 0.82592
 C682 C 0.29191 -0.08251 0.81842
 C683 C 0.31675 -0.13494 0.81680
 C684 C 0.32228 -0.15199 0.82240
 C685 C 0.28660 -0.06031 0.78644
 C686 C 0.27894 -0.04499 0.77877
 H687 H 0.28633 -0.13234 0.78711
 H688 H 0.27257 -0.09826 0.77325
 H689 H 0.32831 -0.07151 0.78353
 H690 H 0.34212 -0.10573 0.79744
 H691 H 0.29841 -0.10517 0.84226
 H692 H 0.28459 -0.07094 0.82834
 C693 C 0.80966 0.38567 0.80957
 C694 C 0.79977 0.39958 0.82632
 C695 C 0.79225 0.41794 0.81874
 C696 C 0.79537 0.42056 0.79517
 C697 C 0.78521 0.40128 0.78540
 C698 C 0.79270 0.38298 0.79295
 C699 C 0.82637 0.39930 0.79922
 C700 C 0.81885 0.41767 0.79164
 C701 C 0.81738 0.36563 0.81736
 C702 C 0.82296 0.34861 0.82298
 C703 C 0.78690 0.43999 0.78666
 C704 C 0.77915 0.45523 0.77891
 H705 H 0.79882 0.39541 0.84268
 H706 H 0.78486 0.42951 0.82861
 H707 H 0.77316 0.40193 0.77355
 H708 H 0.78706 0.36798 0.78756
 H709 H 0.84267 0.39494 0.79801
 H710 H 0.82870 0.42904 0.78394
 C711 C 0.80981 -0.11421 0.30986
 C712 C 0.78935 -0.11658 0.29775
 C713 C 0.78178 -0.09832 0.29017
 C714 C 0.79539 -0.07940 0.29540
 C715 C 0.81714 -0.08491 0.28712
 C716 C 0.82473 -0.10322 0.29473
 C717 C 0.80513 -0.09803 0.32684
 C718 C 0.79753 -0.07970 0.31922
 C719 C 0.81761 -0.13420 0.31767
 C720 C 0.82325 -0.15121 0.32330
 C721 C 0.78685 -0.06002 0.28684
 C722 C 0.77907 -0.04481 0.27906
 H723 H 0.78146 -0.13134 0.29535
 H724 H 0.76742 -0.09746 0.28127
 H725 H 0.82584 -0.07526 0.27631
 H726 H 0.83993 -0.10926 0.29043
 H727 H 0.80760 -0.10072 0.34334
 H728 H 0.79350 -0.06667 0.32921
 C729 C 0.30972 0.61424 0.69018
 C730 C 0.29328 0.61692 0.70730
 C731 C 0.28576 0.59862 0.71482
 C732 C 0.29539 0.57935 0.70452
 C733 C 0.31899 0.58190 0.70743
 C734 C 0.32654 0.60028 0.69988
 C735 C 0.29918 0.60068 0.67354
 C736 C 0.29164 0.58231 0.68109
 C737 C 0.31746 0.63429 0.68244
 C738 C 0.32305 0.65132 0.67686
 C739 C 0.28689 0.55993 0.71303
 C740 C 0.27913 0.54471 0.72081
 H741 H 0.28798 0.63192 0.71303
 H742 H 0.27403 0.59796 0.72699
 H743 H 0.32891 0.57030 0.71469
 H744 H 0.34292 0.60441 0.70067
 H745 H 0.29784 0.60508 0.65727
 H746 H 0.28382 0.57097 0.67129
 C747 C 0.30966 1.11435 0.19027
 C748 C 0.29485 1.11699 0.20883
 C749 C 0.28734 1.09870 0.21640
 C750 C 0.29534 1.07948 0.20470
 C751 C 0.31919 1.08114 0.20562
 C752 C 0.32673 1.09949 0.19802
 C753 C 0.29724 1.10172 0.17419
 C754 C 0.28970 1.08338 0.18179
 C755 C 0.31740 1.13437 0.18246
 C756 C 0.32298 1.15139 0.17683
 C757 C 0.28685 1.06007 0.21324
 C758 C 0.27909 1.04484 0.22100
 H759 H 0.29063 1.13195 0.21547
 H760 H 0.27669 1.09802 0.22952
 H761 H 0.32925 1.06897 0.21166
 H762 H 0.34325 1.10305 0.19754
 H763 H 0.29465 1.10672 0.15825
 H764 H 0.28065 1.07266 0.17236
 C765 C 0.80942 0.61462 0.19068
 C766 C 0.79646 0.61698 0.21062
 C767 C 0.78898 0.59866 0.21813
 C768 C 0.79516 0.57968 0.20501
 C769 C 0.81904 0.58049 0.20381
 C770 C 0.82655 0.59889 0.19626
 C771 C 0.79514 0.60311 0.17534
 C772 C 0.78764 0.58473 0.18288
 C773 C 0.81712 0.63468 0.18293
 C774 C 0.82269 0.65171 0.17731
 C775 C 0.78671 0.56021 0.21348
 C776 C 0.77899 0.54493 0.22118
 H777 H 0.79342 0.63179 0.21820
 H778 H 0.77954 0.59778 0.23214
 H779 H 0.82914 0.56775 0.20843
 H780 H 0.84308 0.60191 0.19441
 H781 H 0.79131 0.60885 0.15991
 H782 H 0.77737 0.57472 0.17391
 C783 C 0.80925 1.11471 0.69067
 C784 C 0.79201 1.11731 0.70700
 C785 C 0.78453 1.09897 0.71449
 C786 C 0.79500 1.07974 0.70495
 C787 C 0.81840 1.08284 0.70885
 C788 C 0.82590 1.10125 0.70133
 C789 C 0.79973 1.10066 0.67381
 C790 C 0.79224 1.08226 0.68133
 C791 C 0.81695 1.13478 0.68294
 C792 C 0.82254 1.15182 0.67736
 C793 C 0.78657 1.06026 0.71340
 C794 C 0.77887 1.04497 0.72110
 H795 H 0.78617 1.13228 0.71225
 H796 H 0.77230 1.09825 0.72616
 H797 H 0.82821 1.07158 0.71676
 H798 H 0.84213 1.10575 0.70280
 H799 H 0.79901 1.10478 0.65743
 H800 H 0.78509 1.07060 0.67139
 C801 C 0.69053 0.61451 0.30943
 C802 C 0.69972 0.60027 0.32631
 C803 C 0.70721 0.58189 0.31875
 C804 C 0.70476 0.57958 0.29506
 C805 C 0.71548 0.59883 0.28583
 C806 C 0.70802 0.61715 0.29336
 C807 C 0.67395 0.60123 0.29842
 C808 C 0.68144 0.58285 0.29086
 C809 C 0.68284 0.63456 0.31719
 C810 C 0.67727 0.65159 0.32281
 C811 C 0.71319 0.56012 0.28658
 C812 C 0.72090 0.54484 0.27887
 H813 H 0.70025 0.60425 0.34273
 H814 H 0.71416 0.57011 0.32869
 H815 H 0.72788 0.59814 0.27434
 H816 H 0.71403 0.63213 0.28833
 H817 H 0.65777 0.60584 0.29676
 H818 H 0.67167 0.57171 0.28272
 C819 C 0.69032 1.11433 0.80961
 C820 C 0.70631 1.11703 0.79206
 C821 C 0.71385 1.09875 0.78453
 C822 C 0.70468 1.07946 0.79524
 C823 C 0.68098 1.08173 0.79290
 C824 C 0.67342 1.10009 0.80046
 C825 C 0.70141 1.10105 0.82611
 C826 C 0.70897 1.08269 0.81855
 C827 C 0.68256 1.13436 0.81737
 C828 C 0.67695 1.15137 0.82298
 C829 C 0.71318 1.06004 0.78675
 C830 C 0.72092 1.04479 0.77900
 H831 H 0.71131 1.13204 0.78607
 H832 H 0.72529 1.09810 0.77209
 H833 H 0.67103 1.06995 0.78598
 H834 H 0.65699 1.10403 0.80002
 H835 H 0.70313 1.10562 0.84230
 H836 H 0.71717 1.07154 0.82826
 C837 C 0.19083 0.61474 0.80942
 C838 C 0.20093 0.60098 0.82617
 C839 C 0.20847 0.58260 0.81864
 C840 C 0.20516 0.57983 0.79512
 C841 C 0.21515 0.59910 0.78514
 C842 C 0.20764 0.61741 0.79265
 C843 C 0.17410 0.60098 0.79929
 C844 C 0.18164 0.58260 0.79176
 C845 C 0.18308 0.63478 0.81715
 C846 C 0.17745 0.65180 0.82274
 C847 C 0.21362 0.56038 0.78666
 C848 C 0.22131 0.54510 0.77894
 H849 H 0.20201 0.60526 0.84249
 H850 H 0.21603 0.57114 0.82851
 H851 H 0.22712 0.59843 0.77321
 H852 H 0.21317 0.63241 0.78713
 H853 H 0.15778 0.60526 0.79818
 H854 H 0.17178 0.57114 0.78419
 C855 C 0.19042 1.11428 0.30980
 C856 C 0.18340 1.09513 0.32230
 C857 C 0.19099 1.07678 0.31469
 C858 C 0.20482 1.07945 0.29535
 C859 C 0.22185 1.09485 0.30199
 C860 C 0.21429 1.11313 0.30957
 C861 C 0.18378 1.10977 0.28728
 C862 C 0.19135 1.09148 0.27969
 C863 C 0.18264 1.13428 0.31758
 C864 C 0.17702 1.15130 0.32319
 C865 C 0.21334 1.06006 0.28680
 C866 C 0.22109 1.04485 0.27902
 H867 H 0.17337 1.09591 0.33590
 H868 H 0.18747 1.06183 0.32176
 H869 H 0.23842 1.09166 0.30088
 H870 H 0.22439 1.12558 0.31496
 H871 H 0.17394 1.12001 0.27811
 H872 H 0.18800 1.08607 0.26403
 C873 C 0.69054 0.38542 0.69045
 C874 C 0.70709 0.38272 0.70748
 C875 C 0.71460 0.40101 0.71502
 C876 C 0.70487 0.42031 0.70484
 C877 C 0.68128 0.41767 0.70785
 C878 C 0.67374 0.39931 0.70028
 C879 C 0.70096 0.39906 0.67380
 C880 C 0.70850 0.41743 0.68137
 C881 C 0.68280 0.36538 0.68267
 C882 C 0.67719 0.34836 0.67705
 C883 C 0.71334 0.43974 0.71334
 C884 C 0.72106 0.45501 0.72106
 H885 H 0.71245 0.36771 0.71313
 H886 H 0.72639 0.40167 0.72713
 H887 H 0.67139 0.42921 0.71524
 H888 H 0.65738 0.39512 0.70117
 H889 H 0.70227 0.39472 0.65751
 H890 H 0.71627 0.42881 0.67158
 C891 C 0.69048 -0.11451 0.19037
 C892 C 0.71272 -0.11608 0.19898
 C893 C 0.72023 -0.09778 0.20653
 C894 C 0.70481 -0.07962 0.20476
 C895 C 0.68504 -0.08718 0.21590
 C896 C 0.67751 -0.10552 0.20833
 C897 C 0.69139 -0.09709 0.17401
 C898 C 0.69893 -0.07871 0.18159
 C899 C 0.68275 -0.13455 0.18261
 C900 C 0.67716 -0.15158 0.17702
 C901 C 0.71329 -0.06020 0.21328
 C902 C 0.72102 -0.04495 0.22104
 H903 H 0.72181 -0.13033 0.19910
 H904 H 0.73575 -0.09637 0.21312
 H905 H 0.67758 -0.07883 0.22856
 H906 H 0.66359 -0.11289 0.21451
 H907 H 0.68652 -0.09900 0.15793
 H908 H 0.70053 -0.06487 0.17201
 C909 C 0.19057 0.38574 0.19024
 C910 C 0.21160 0.38361 0.20138
 C911 C 0.21913 0.40190 0.20891
 C912 C 0.20493 0.42062 0.20459
 C913 C 0.18369 0.41452 0.21373
 C914 C 0.17613 0.39617 0.20618
 C915 C 0.19417 0.40227 0.17332
 C916 C 0.20173 0.42064 0.18088
 C917 C 0.18280 0.36571 0.18249
 C918 C 0.17717 0.34868 0.17691
 C919 C 0.21342 0.44004 0.21310
 C920 C 0.22114 0.45527 0.22089
 H921 H 0.21989 0.36898 0.20317
 H922 H 0.23387 0.40293 0.21716
 H923 H 0.17530 0.42381 0.22509
 H924 H 0.16127 0.38975 0.21107
 H925 H 0.19103 0.39978 0.15690
 H926 H 0.20508 0.43389 0.17094
 C927 C 0.19072 -0.11455 0.69055
 C928 C 0.17398 -0.10083 0.70071
 C929 C 0.18149 -0.08241 0.70818
 C930 C 0.20500 -0.07956 0.70474
 C931 C 0.20823 -0.08236 0.68121
 C932 C 0.20072 -0.10078 0.67374
 C933 C 0.20759 -0.11714 0.70727
 C934 C 0.21508 -0.09879 0.71471
 C935 C 0.18300 -0.13463 0.68288
 C936 C 0.17742 -0.15168 0.67735
 C937 C 0.21344 -0.06008 0.71316
 C938 C 0.22113 -0.04480 0.72087
 H939 H 0.15768 -0.10516 0.70189
 H940 H 0.17163 -0.07097 0.71576
 H941 H 0.21573 -0.07090 0.67130
 H942 H 0.20177 -0.10509 0.65742
 H943 H 0.21319 -0.13210 0.71278
 H944 H 0.22709 -0.09806 0.72660
 C945 C 0.30944 0.30946 0.38576
 C946 C 0.29808 0.32595 0.39883
 C947 C 0.29051 0.31849 0.41723
 C948 C 0.29507 0.29529 0.42073
 C949 C 0.31881 0.29322 0.41860
 C950 C 0.32637 0.30068 0.40019
 C951 C 0.29367 0.29170 0.38317
 C952 C 0.28614 0.28427 0.40151
 C953 C 0.31720 0.31712 0.36569
 C954 C 0.32279 0.32267 0.34864
 C955 C 0.28657 0.28688 0.44020
 C956 C 0.27883 0.27917 0.45548
 H957 H 0.29620 0.34207 0.39408
 H958 H 0.28216 0.32822 0.42825
 H959 H 0.32879 0.28654 0.43050
 H960 H 0.34283 0.30038 0.39632
 H961 H 0.28886 0.28547 0.36821
 H962 H 0.27487 0.27168 0.40224
 C963 C 0.30903 0.80919 -0.11458
 C964 C 0.31240 0.78572 -0.11164
 C965 C 0.30492 0.77829 -0.09325
 C966 C 0.29480 0.79504 -0.07954
 C967 C 0.27805 0.80504 -0.09335
 C968 C 0.28553 0.81247 -0.11175
 C969 C 0.31908 0.81935 -0.09538
 C970 C 0.31158 0.81189 -0.07692
 C971 C 0.31672 0.81683 -0.13469
 C972 C 0.32228 0.82233 -0.15177
 C973 C 0.28638 0.78665 -0.06002
 C974 C 0.27872 0.77897 -0.04470
 H975 H 0.32004 0.77581 -0.12300
 H976 H 0.30617 0.76202 -0.08886
 H977 H 0.26174 0.80623 -0.08903
 H978 H 0.27562 0.82003 -0.12318
 H979 H 0.33101 0.83130 -0.09622
 H980 H 0.31708 0.81746 -0.06193
 C981 C 0.80965 0.30953 -0.11412
 C982 C 0.81272 0.28598 -0.11147
 C983 C 0.80519 0.27844 -0.09315
 C984 C 0.79531 0.29515 -0.07922
 C985 C 0.77866 0.30553 -0.09288
 C986 C 0.78620 0.31308 -0.11120
 C987 C 0.81987 0.31933 -0.09483
 C988 C 0.81231 0.31175 -0.07644
 C989 C 0.81739 0.31729 -0.13417
 C990 C 0.82297 0.32288 -0.15121
 C991 C 0.78680 0.28664 -0.05980
 C992 C 0.77904 0.27888 -0.04456
 H993 H 0.82022 0.27611 -0.12296
 H994 H 0.80625 0.26210 -0.08895
 H995 H 0.76238 0.30690 -0.08851
 H996 H 0.77637 0.32091 -0.12252
 H997 H 0.83195 0.33114 -0.09555
 H998 H 0.81791 0.31706 -0.06140
 C999 C 0.80995 0.80968 0.38617
 C1000 C 0.82172 0.79049 0.39421
 C1001 C 0.81414 0.78293 0.41254
 C1002 C 0.79553 0.79529 0.42104
 C1003 C 0.77950 0.79533 0.40331
 C1004 C 0.78707 0.80287 0.38502
 C1005 C 0.81083 0.82547 0.40412
 C1006 C 0.80323 0.81789 0.42249
 C1007 C 0.81773 0.81745 0.36614
 C1008 C 0.82332 0.82305 0.34911
 C1009 C 0.78698 0.78677 0.44044
 C1010 C 0.77919 0.77901 0.45566
 H1011 H 0.83490 0.78350 0.38624
 H1012 H 0.82083 0.76946 0.42027
 H1013 H 0.76356 0.78992 0.40498
 H1014 H 0.77760 0.80392 0.37104
 H1015 H 0.81691 0.84116 0.40255
 H1016 H 0.80281 0.82709 0.43666
 C1017 C 0.69051 0.30933 0.61414
 C1018 C 0.70771 0.29297 0.61679
 C1019 C 0.71521 0.28547 0.59847
 C1020 C 0.70482 0.29503 0.57920
 C1021 C 0.70763 0.31864 0.58173
 C1022 C 0.70010 0.32617 0.60012
 C1023 C 0.67387 0.29871 0.60063
 C1024 C 0.68140 0.29118 0.58224
 C1025 C 0.68277 0.31705 0.63420
 C1026 C 0.67718 0.32263 0.65124
 C1027 C 0.71328 0.28658 0.55973
 C1028 C 0.72101 0.27887 0.54446
 H1029 H 0.71351 0.28771 0.63179
 H1030 H 0.72743 0.27380 0.59778
 H1031 H 0.71485 0.32857 0.57010
 H1032 H 0.70087 0.34254 0.60425
 H1033 H 0.65762 0.29726 0.60509
 H1034 H 0.67161 0.28329 0.57094
 C1035 C 0.69048 0.80940 1.11414
 C1036 C 0.70757 0.79293 1.11679
 C1037 C 0.71508 0.78544 1.09846
 C1038 C 0.70479 0.79513 1.07920
 C1039 C 0.70774 0.81871 1.08180
 C1040 C 0.70020 0.82622 1.10020
 C1041 C 0.67381 0.79892 1.10055
 C1042 C 0.68135 0.79141 1.08216
 C1043 C 0.68274 0.81711 1.13420
 C1044 C 0.67716 0.82268 1.15124
 C1045 C 0.71327 0.78668 1.05974
 C1046 C 0.72100 0.77896 1.04447
 H1047 H 0.71330 0.78759 1.13178
 H1048 H 0.72723 0.77370 1.09778
 H1049 H 0.71504 0.82863 1.07022
 H1050 H 0.70105 0.84257 1.10438
 H1051 H 0.65754 0.79756 1.10496
 H1052 H 0.67153 0.78362 1.07081
 C1053 C 0.19047 0.30959 1.11408
 C1054 C 0.19625 0.32667 1.09837
 C1055 C 0.20381 0.31912 1.07999
 C1056 C 0.20482 0.29524 1.07918
 C1057 C 0.18261 0.28790 1.08413
 C1058 C 0.17505 0.29544 1.10249
 C1059 C 0.21029 0.29647 1.11652
 C1060 C 0.21781 0.28895 1.09822
 C1061 C 0.18271 0.31733 1.13412
 C1062 C 0.17712 0.32292 1.15115
 C1063 C 0.21331 0.28675 1.05975
 C1064 C 0.22105 0.27902 1.04449
 H1065 H 0.19453 0.34321 1.10139
 H1066 H 0.20858 0.32918 1.06727
 H1067 H 0.17359 0.27772 1.07409
 H1068 H 0.15956 0.29173 1.10817
 H1069 H 0.21778 0.29337 1.13136
 H1070 H 0.23175 0.27940 1.09740
 C1071 C 0.19066 0.80922 0.61452
 C1072 C 0.20774 0.79273 0.61713
 C1073 C 0.21521 0.78524 0.59879
 C1074 C 0.20490 0.79494 0.57955
 C1075 C 0.20789 0.81852 0.58216
 C1076 C 0.20040 0.82604 0.60057
 C1077 C 0.17396 0.79878 0.60095
 C1078 C 0.18146 0.79126 0.58254
 C1079 C 0.18297 0.81694 0.63459
 C1080 C 0.17740 0.82253 0.65163
 C1081 C 0.21333 0.78650 0.56007
 C1082 C 0.22101 0.77879 0.54478
 H1083 H 0.21348 0.78738 0.63212
 H1084 H 0.22734 0.77348 0.59808
 H1085 H 0.21520 0.82843 0.57058
 H1086 H 0.20128 0.84239 0.60475
 H1087 H 0.15770 0.79744 0.60538
 H1088 H 0.17162 0.78349 0.57121
 C1089 C 0.30964 0.69033 0.61402
 C1090 C 0.29913 0.67365 0.60049
 C1091 C 0.29154 0.68115 0.58211
 C1092 C 0.29523 0.70458 0.57911
 C1093 C 0.31883 0.70755 0.58163
 C1094 C 0.32642 0.70005 0.60001
 C1095 C 0.29316 0.70740 0.61670
 C1096 C 0.28560 0.71487 0.59840
 C1097 C 0.31742 0.68263 0.63407
 C1098 C 0.32303 0.67707 0.65111
 C1099 C 0.28669 0.71304 0.55969
 C1100 C 0.27891 0.72079 0.54446
 H1101 H 0.29783 0.65738 0.60491
 H1102 H 0.28375 0.67131 0.57079
 H1103 H 0.32871 0.71483 0.57000
 H1104 H 0.34280 0.70091 0.60413
 H1105 H 0.28787 0.71314 0.63171
 H1106 H 0.27384 0.72701 0.59773
 C1107 C 0.30960 0.19042 1.11393
 C1108 C 0.29713 0.17432 1.10139
 C1109 C 0.28957 0.18186 1.08303
 C1110 C 0.29523 0.20474 1.07903
 C1111 C 0.31908 0.20563 1.08063
 C1112 C 0.32665 0.19809 1.09901
 C1113 C 0.29483 0.20900 1.11654
 C1114 C 0.28729 0.21651 1.09823
 C1115 C 0.31736 0.18268 1.13398
 C1116 C 0.32297 0.17711 1.15101
 C1117 C 0.28672 0.21322 1.05960
 C1118 C 0.27897 0.22098 1.04436
 H1119 H 0.29453 0.15840 1.10646
 H1120 H 0.28049 0.17240 1.07235
 H1121 H 0.32913 0.21159 1.06841
 H1122 H 0.34318 0.19759 1.10253
 H1123 H 0.29065 0.21571 1.13149
 H1124 H 0.27667 0.22965 1.09752
 C1125 C 0.80939 0.69071 1.11436
 C1126 C 0.79926 0.67397 1.10062
 C1127 C 0.79175 0.68147 1.08222
 C1128 C 0.79512 0.70497 1.07939
 C1129 C 0.81865 0.70827 1.08217
 C1130 C 0.82616 0.70077 1.10058
 C1131 C 0.79263 0.70753 1.11698
 C1132 C 0.78514 0.71500 1.09864
 C1133 C 0.81711 0.68301 1.13444
 C1134 C 0.82269 0.67744 1.15150
 C1135 C 0.78666 0.71341 1.05990
 C1136 C 0.77895 0.72110 1.04461
 H1137 H 0.79814 0.65766 1.10494
 H1138 H 0.78420 0.67160 1.07076
 H1139 H 0.82853 0.71578 1.07069
 H1140 H 0.84248 0.70185 1.10487
 H1141 H 0.78710 0.71309 1.13196
 H1142 H 0.77321 0.72697 1.09793
 C1143 C 0.80938 0.19083 0.61442
 C1144 C 0.82618 0.20079 0.60061
 C1145 C 0.81868 0.20826 0.58218
 C1146 C 0.79514 0.20504 0.57941
 C1147 C 0.78521 0.21516 0.59864
 C1148 C 0.79267 0.20771 0.61700
 C1149 C 0.79918 0.17408 0.60073
 C1150 C 0.79169 0.18156 0.58231
 C1151 C 0.81706 0.18314 0.63452
 C1152 C 0.82261 0.17757 0.65158
 C1153 C 0.78670 0.21344 0.55991
 C1154 C 0.77900 0.22111 0.54460
 H1155 H 0.84250 0.20183 0.60489
 H1156 H 0.82859 0.21570 0.57067
 H1157 H 0.77332 0.22717 0.59790
 H1158 H 0.78718 0.21334 0.63197
 H1159 H 0.79801 0.15779 0.60510
 H1160 H 0.78410 0.17168 0.57088
 C1161 C 0.69061 0.69064 0.38570
 C1162 C 0.67393 0.70104 0.39933
 C1163 C 0.68146 0.70857 0.41771
 C1164 C 0.70492 0.70494 0.42064
 C1165 C 0.71515 0.71468 0.40137
 C1166 C 0.70764 0.70718 0.38305
 C1167 C 0.70042 0.67385 0.39962
 C1168 C 0.70795 0.68137 0.41801
 C1169 C 0.68288 0.68291 0.36564
 C1170 C 0.67729 0.67734 0.34860
 C1171 C 0.71340 0.71341 0.44011
 C1172 C 0.72111 0.72111 0.45539
 H1173 H 0.65765 0.70232 0.39494
 H1174 H 0.67163 0.71630 0.42909
 H1175 H 0.72726 0.72647 0.40205
 H1176 H 0.71333 0.71255 0.36805
 H1177 H 0.70132 0.65750 0.39543
 H1178 H 0.71531 0.67148 0.42957
 C1179 C 0.69035 0.19038 -0.11415
 C1180 C 0.67369 0.20068 -0.10044
 C1181 C 0.68127 0.20821 -0.08207
 C1182 C 0.70476 0.20467 -0.07924
 C1183 C 0.71486 0.21449 -0.09854
 C1184 C 0.70731 0.20699 -0.11685
 C1185 C 0.70029 0.17360 -0.10030
 C1186 C 0.70787 0.18112 -0.08193
 C1187 C 0.68257 0.18266 -0.13419
 C1188 C 0.67696 0.17709 -0.15122
 C1189 C 0.71328 0.21315 -0.05981
 C1190 C 0.72103 0.22089 -0.04457
 H1191 H 0.65738 0.20190 -0.10475
 H1192 H 0.67145 0.21587 -0.07064
 H1193 H 0.72692 0.22632 -0.09789
 H1194 H 0.71291 0.21241 -0.13186
 H1195 H 0.70123 0.15726 -0.10452
 H1196 H 0.71530 0.17123 -0.07041
 C1197 C 0.19059 0.69068 -0.11428
 C1198 C 0.20190 0.67419 -0.10116
 C1199 C 0.20940 0.68166 -0.08274
 C1200 C 0.20483 0.70487 -0.07927
 C1201 C 0.18110 0.70694 -0.08148
 C1202 C 0.17360 0.69947 -0.09991
 C1203 C 0.20636 0.70844 -0.11683
 C1204 C 0.21383 0.71588 -0.09847
 C1205 C 0.18289 0.68302 -0.13438
 C1206 C 0.17735 0.67748 -0.15145
 C1207 C 0.21327 0.71327 -0.05977
 C1208 C 0.22098 0.72097 -0.04448
 H1209 H 0.20382 0.65808 -0.10590
 H1210 H 0.21774 0.67195 -0.07169
 H1211 H 0.17108 0.71362 -0.06962
 H1212 H 0.15716 0.69976 -0.10384
 H1213 H 0.21125 0.71465 -0.13178
 H1214 H 0.22512 0.72845 -0.09771
 C1215 C 0.19038 0.19043 0.38601
 C1216 C 0.17397 0.20185 0.39913
 C1217 C 0.18154 0.20942 0.41749
 C1218 C 0.20476 0.20480 0.42089
 C1219 C 0.21573 0.21367 0.40161
 C1220 C 0.20819 0.20613 0.38332
 C1221 C 0.19919 0.17350 0.40043
 C1222 C 0.20676 0.18107 0.41879
 C1223 C 0.18262 0.18267 0.36598
 C1224 C 0.17701 0.17706 0.34895
 C1225 C 0.21327 0.21331 0.44032
 C1226 C 0.22101 0.22107 0.45556
 H1227 H 0.15784 0.20378 0.39444
 H1228 H 0.17189 0.21783 0.42853
 H1229 H 0.22836 0.22490 0.40226
 H1230 H 0.21437 0.21091 0.36831
 H1231 H 0.19941 0.15705 0.39659
 H1232 H 0.21347 0.17110 0.43068
 C1233 C 0.30914 0.38557 0.69088
 C1234 C 0.29955 0.39953 0.67399
 C1235 C 0.29204 0.41794 0.68146
 C1236 C 0.29487 0.42054 0.70507
 C1237 C 0.31828 0.41751 0.70891
 C1238 C 0.32580 0.39910 0.70144
 C1239 C 0.29195 0.38298 0.70727
 C1240 C 0.28446 0.40132 0.71471
 C1241 C 0.31686 0.36550 0.68321
 C1242 C 0.32243 0.34845 0.67764
 C1243 C 0.28644 0.44003 0.71347
 C1244 C 0.27877 0.45534 0.72115
 H1245 H 0.29877 0.39535 0.65763
 H1246 H 0.28482 0.42953 0.67150
 H1247 H 0.32809 0.42883 0.71676
 H1248 H 0.34204 0.39464 0.70289
 H1249 H 0.28615 0.36801 0.71257
 H1250 H 0.27225 0.40205 0.72639
 C1251 C 0.30958 0.88594 0.19049
 C1252 C 0.30028 0.90009 0.17361
 C1253 C 0.29274 0.91847 0.18115
 C1254 C 0.29525 0.92084 0.20482
 C1255 C 0.31860 0.91767 0.20895
 C1256 C 0.32614 0.89930 0.20141
 C1257 C 0.29215 0.88326 0.20662
 C1258 C 0.28464 0.90157 0.21413
 C1259 C 0.31732 0.86590 0.18275
 C1260 C 0.32289 0.84887 0.17716
 C1261 C 0.28677 0.94027 0.21329
 C1262 C 0.27904 0.95552 0.22103
 H1263 H 0.29971 0.89607 0.15720
 H1264 H 0.28571 0.93019 0.17120
 H1265 H 0.32835 0.92888 0.21703
 H1266 H 0.34235 0.89476 0.20303
 H1267 H 0.28622 0.86827 0.21171
 H1268 H 0.27227 0.90224 0.22565
 C1269 C 0.80967 0.38598 0.19045
 C1270 C 0.80012 0.40004 0.17362
 C1271 C 0.79258 0.41840 0.18118
 C1272 C 0.79534 0.42087 0.20481
 C1273 C 0.81874 0.41783 0.20870
 C1274 C 0.82629 0.39947 0.20114
 C1275 C 0.79244 0.38329 0.20678
 C1276 C 0.78492 0.40159 0.21431
 C1277 C 0.81741 0.36595 0.18269
 C1278 C 0.82298 0.34891 0.17710
 C1279 C 0.78684 0.44030 0.21330
 C1280 C 0.77908 0.45554 0.22104
 H1281 H 0.79941 0.39596 0.15723
 H1282 H 0.78540 0.43006 0.17126
 H1283 H 0.82853 0.42911 0.21662
 H1284 H 0.84254 0.39502 0.20258
 H1285 H 0.78663 0.36829 0.21198
 H1286 H 0.77267 0.40224 0.22596
 C1287 C 0.80937 0.88579 0.69065
 C1288 C 0.79983 0.89979 0.67377
 C1289 C 0.79232 0.91819 0.68126
 C1290 C 0.79511 0.92076 0.70488
 C1291 C 0.81851 0.91769 0.70876
 C1292 C 0.82602 0.89929 0.70127
 C1293 C 0.79215 0.88319 0.70701
 C1294 C 0.78467 0.90153 0.71447
 C1295 C 0.81709 0.86571 0.68297
 C1296 C 0.82268 0.84866 0.67744
 C1297 C 0.78666 0.94023 0.71331
 C1298 C 0.77895 0.95551 0.72102
 H1299 H 0.79909 0.89564 0.65740
 H1300 H 0.78514 0.92982 0.67130
 H1301 H 0.82833 0.92899 0.71662
 H1302 H 0.84227 0.89482 0.70272
 H1303 H 0.78631 0.86822 0.71227
 H1304 H 0.77243 0.90225 0.72612
 C1305 C 0.69042 0.61412 0.69061
 C1306 C 0.67387 0.60085 0.70167
 C1307 C 0.68138 0.58245 0.70919
 C1308 C 0.70468 0.57917 0.70489
 C1309 C 0.71545 0.59840 0.71410
 C1310 C 0.70798 0.61673 0.70661
 C1311 C 0.69953 0.59989 0.67369
 C1312 C 0.70703 0.58149 0.68120
 C1313 C 0.68273 0.63419 0.68290
 C1314 C 0.67720 0.65125 0.67734
 C1315 C 0.71314 0.55970 0.71334
 C1316 C 0.72088 0.54444 0.72103
 H1317 H 0.65770 0.60547 0.70340
 H1318 H 0.67164 0.57131 0.71736
 H1319 H 0.72789 0.59768 0.72554
 H1320 H 0.71401 0.63170 0.71164
 H1321 H 0.69998 0.60388 0.65726
 H1322 H 0.71392 0.56972 0.67122
 C1323 C 0.69039 0.11398 0.19049
 C1324 C 0.70088 0.10040 0.17383
 C1325 C 0.70843 0.08204 0.18138
 C1326 C 0.70473 0.07908 0.20482
 C1327 C 0.68113 0.08166 0.20777
 C1328 C 0.67358 0.10003 0.20022
 C1329 C 0.70687 0.11666 0.20757
 C1330 C 0.71439 0.09836 0.21509
 C1331 C 0.68265 0.13402 0.18274
 C1332 C 0.67707 0.15105 0.17716
 C1333 C 0.71321 0.05965 0.21330
 C1334 C 0.72095 0.04440 0.22104
 H1335 H 0.70222 0.10479 0.15756
 H1336 H 0.71624 0.07069 0.17158
 H1337 H 0.67122 0.07007 0.21509
 H1338 H 0.65721 0.10417 0.20106
 H1339 H 0.71219 0.13166 0.21328
 H1340 H 0.72615 0.09770 0.22724
 C1341 C 0.19080 0.61437 0.19080
 C1342 C 0.18195 0.60841 0.21219
 C1343 C 0.18944 0.59003 0.21967
 C1344 C 0.20505 0.57940 0.20503
 C1345 C 0.22201 0.59577 0.20109
 C1346 C 0.21453 0.61412 0.19362
 C1347 C 0.18603 0.59567 0.17666
 C1348 C 0.19354 0.57724 0.18416
 C1349 C 0.18310 0.63444 0.18312
 C1350 C 0.17754 0.65150 0.17757
 C1351 C 0.21349 0.55992 0.21346
 C1352 C 0.22119 0.54464 0.22116
 H1353 H 0.17072 0.61777 0.22069
 H1354 H 0.18463 0.58366 0.23457
 H1355 H 0.23849 0.59316 0.20388
 H1356 H 0.22459 0.62722 0.19002
 H1357 H 0.17751 0.59679 0.16210
 H1358 H 0.19146 0.56257 0.17603
 C1359 C 0.19060 0.11431 0.69070
 C1360 C 0.18213 0.10860 0.71231
 C1361 C 0.18965 0.09025 0.71981
 C1362 C 0.20491 0.07937 0.70497
 C1363 C 0.22189 0.09560 0.70056
 C1364 C 0.21438 0.11393 0.69306
 C1365 C 0.18544 0.09552 0.67683
 C1366 C 0.19298 0.07711 0.68435
 C1367 C 0.18289 0.13438 0.68300
 C1368 C 0.17734 0.15144 0.67745
 C1369 C 0.21338 0.05992 0.71341
 C1370 C 0.22110 0.04464 0.72111
 H1371 H 0.17112 0.11810 0.72093
 H1372 H 0.18509 0.08403 0.73486
 H1373 H 0.23840 0.09291 0.70306
 H1374 H 0.22447 0.12693 0.68914
 H1375 H 0.17664 0.09657 0.66243
 H1376 H 0.19064 0.06238 0.67639
 C1377 C 0.30952 0.61404 0.30981
 C1378 C 0.29962 0.60020 0.32663
 C1379 C 0.29205 0.58183 0.31912
 C1380 C 0.29513 0.57913 0.29556
 C1381 C 0.31861 0.58198 0.29198
 C1382 C 0.32618 0.60035 0.29948
 C1383 C 0.29253 0.61671 0.29322
 C1384 C 0.28499 0.59840 0.28574
 C1385 C 0.31729 0.63409 0.31749
 C1386 C 0.32290 0.65114 0.32300
 C1387 C 0.28663 0.55969 0.28709
 C1388 C 0.27890 0.54445 0.27933
 H1389 H 0.29869 0.60444 0.34297
 H1390 H 0.28463 0.57031 0.32903
 H1391 H 0.32842 0.57056 0.28430
 H1392 H 0.34248 0.60468 0.29823
 H1393 H 0.28690 0.63170 0.28781
 H1394 H 0.27289 0.59773 0.27394
 C1395 C 0.30928 0.11430 0.80936
 C1396 C 0.29887 0.10073 0.82609
 C1397 C 0.29140 0.08230 0.81863
 C1398 C 0.29509 0.07927 0.79519
 C1399 C 0.31867 0.08195 0.79220
 C1400 C 0.32614 0.10039 0.79966
 C1401 C 0.29276 0.11683 0.79229
 C1402 C 0.28532 0.09847 0.78486
 C1403 C 0.31695 0.13441 0.81700
 C1404 C 0.32247 0.15149 0.82250
 C1405 C 0.28668 0.05977 0.78678
 C1406 C 0.27899 0.04449 0.77906
 H1407 H 0.29753 0.10519 0.84234
 H1408 H 0.28366 0.07095 0.82849
 H1409 H 0.32862 0.07038 0.78492
 H1410 H 0.34249 0.10462 0.79877
 H1411 H 0.28736 0.13178 0.78653
 H1412 H 0.27354 0.09770 0.77274
 C1413 C 0.80940 0.61433 0.80917
 C1414 C 0.79791 0.60126 0.82558
 C1415 C 0.79040 0.58287 0.81806
 C1416 C 0.79513 0.57938 0.79487
 C1417 C 0.81888 0.58151 0.79297
 C1418 C 0.82639 0.59991 0.80050
 C1419 C 0.79376 0.61693 0.79129
 C1420 C 0.78628 0.59860 0.78379
 C1421 C 0.81710 0.63439 0.81691
 C1422 C 0.82265 0.65143 0.82251
 C1423 C 0.78668 0.55991 0.78643
 C1424 C 0.77897 0.54462 0.77874
 H1425 H 0.79590 0.60600 0.84168
 H1426 H 0.78196 0.57185 0.82771
 H1427 H 0.82890 0.56962 0.78635
 H1428 H 0.84285 0.60379 0.80032
 H1429 H 0.78898 0.63190 0.78504
 H1430 H 0.77509 0.59788 0.77113
 C1431 C 0.80943 0.11418 0.30935
 C1432 C 0.82377 0.10382 0.29326
 C1433 C 0.81624 0.08545 0.28575
 C1434 C 0.79510 0.07925 0.29507
 C1435 C 0.78078 0.09790 0.29089
 C1436 C 0.78829 0.11622 0.29838
 C1437 C 0.80605 0.09761 0.32627
 C1438 C 0.79850 0.07921 0.31875
 C1439 C 0.81717 0.13423 0.31706
 C1440 C 0.82277 0.15126 0.32264
 C1441 C 0.78663 0.05979 0.28662
 C1442 C 0.77891 0.04452 0.27891
 H1443 H 0.83856 0.11032 0.28826
 H1444 H 0.82457 0.07621 0.27431
 H1445 H 0.76599 0.09681 0.28276
 H1446 H 0.77993 0.13082 0.29666
 H1447 H 0.80932 0.10009 0.34267
 H1448 H 0.79531 0.06593 0.32871
 C1449 C 0.69066 0.38554 0.30912
 C1450 C 0.67404 0.39885 0.29823
 C1451 C 0.68150 0.41727 0.29072
 C1452 C 0.70483 0.42055 0.29486
 C1453 C 0.71553 0.40135 0.28551
 C1454 C 0.70810 0.38299 0.29299
 C1455 C 0.69989 0.39971 0.32603
 C1456 C 0.70736 0.41813 0.31853
 C1457 C 0.68301 0.36545 0.31682
 C1458 C 0.67750 0.34837 0.32237
 C1459 C 0.71324 0.44005 0.28643
 C1460 C 0.72094 0.45535 0.27876
 H1461 H 0.65785 0.39424 0.29660
 H1462 H 0.67170 0.42845 0.28267
 H1463 H 0.72788 0.40210 0.27398
 H1464 H 0.71409 0.36804 0.28786
 H1465 H 0.70047 0.39566 0.34244
 H1466 H 0.71432 0.42987 0.32850
 C1467 C 0.69052 0.88575 0.80939
 C1468 C 0.67379 0.89951 0.79927
 C1469 C 0.68133 0.91789 0.79175
 C1470 C 0.70485 0.92067 0.79511
 C1471 C 0.71485 0.90141 0.78513
 C1472 C 0.70733 0.88309 0.79262
 C1473 C 0.70061 0.89950 0.82615
 C1474 C 0.70816 0.91789 0.81863
 C1475 C 0.68278 0.86569 0.81711
 C1476 C 0.67719 0.84865 0.82267
 C1477 C 0.71333 0.94013 0.78665
 C1478 C 0.72105 0.95540 0.77894
 H1479 H 0.65746 0.89523 0.79817
 H1480 H 0.67147 0.92936 0.78419
 H1481 H 0.72681 0.90209 0.77320
 H1482 H 0.71286 0.86810 0.78710
 H1483 H 0.70168 0.89522 0.84247
 H1484 H 0.71570 0.92935 0.82851
 C1485 C 0.19052 0.38604 0.80954
 C1486 C 0.20686 0.38344 0.79230
 C1487 C 0.21436 0.40178 0.78485
 C1488 C 0.20482 0.42100 0.79532
 C1489 C 0.20871 0.41789 0.81872
 C1490 C 0.20118 0.39948 0.82620
 C1491 C 0.17366 0.40009 0.80003
 C1492 C 0.18119 0.41849 0.79255
 C1493 C 0.18280 0.36597 0.81720
 C1494 C 0.17722 0.34891 0.82273
 C1495 C 0.21329 0.44047 0.78689
 C1496 C 0.22102 0.45572 0.77916
 H1497 H 0.21210 0.36847 0.78645
 H1498 H 0.22602 0.40250 0.77261
 H1499 H 0.21660 0.42916 0.82854
 H1500 H 0.20263 0.39498 0.84243
 H1501 H 0.15728 0.39598 0.79930
 H1502 H 0.17125 0.43016 0.78541
 C1503 C 0.19047 0.88594 0.30953
 C1504 C 0.19030 0.90366 0.32560
 C1505 C 0.19784 0.92204 0.31802
 C1506 C 0.20479 0.92084 0.29516
 C1507 C 0.18569 0.91270 0.28329
 C1508 C 0.17817 0.89435 0.29084
 C1509 C 0.21311 0.88465 0.30197
 C1510 C 0.22061 0.90296 0.29443
 C1511 C 0.18275 0.86590 0.31729
 C1512 C 0.17720 0.84885 0.32288
 C1513 C 0.21327 0.94027 0.28666
 C1514 C 0.22101 0.95552 0.27893
 H1515 H 0.18473 0.90194 0.34147
 H1516 H 0.19872 0.93608 0.32740
 H1517 H 0.17865 0.92068 0.27015
 H1518 H 0.16469 0.88662 0.28418
 H1519 H 0.22245 0.87057 0.30253
 H1520 H 0.23638 0.90455 0.28853
 C1521 C 0.38535 0.30944 0.69079
 C1522 C 0.38277 0.29271 0.70764
 C1523 C 0.40112 0.28522 0.71507
 C1524 C 0.42036 0.29517 0.70497
 C1525 C 0.41760 0.31869 0.70824
 C1526 C 0.39918 0.32620 0.70078
 C1527 C 0.39904 0.29929 0.67401
 C1528 C 0.41746 0.29178 0.68147
 C1529 C 0.36526 0.31715 0.68313
 C1530 C 0.34819 0.32272 0.67759
 C1531 C 0.43985 0.28672 0.71336
 C1532 C 0.45514 0.27900 0.72105
 H1533 H 0.36779 0.28720 0.71326
 H1534 H 0.40186 0.27331 0.72706
 H1535 H 0.42912 0.32858 0.71571
 H1536 H 0.39490 0.34252 0.70185
 H1537 H 0.39467 0.29815 0.65771
 H1538 H 0.42888 0.28421 0.67157
 C1539 C 0.38568 0.80965 0.19046
 C1540 C 0.38508 0.80448 0.21378
 C1541 C 0.40338 0.79689 0.22129
 C1542 C 0.42056 0.79519 0.20477
 C1543 C 0.42243 0.81715 0.19547
 C1544 C 0.40406 0.82477 0.18793
 C1545 C 0.39275 0.78946 0.17982
 C1546 C 0.41108 0.78185 0.18734
 C1547 C 0.36565 0.81745 0.18273
 C1548 C 0.34862 0.82308 0.17715
 C1549 C 0.43998 0.78664 0.21324
 C1550 C 0.45522 0.77887 0.22097
 H1551 H 0.37146 0.80664 0.22358
 H1552 H 0.40542 0.79255 0.23751
 H1553 H 0.43688 0.82591 0.19484
 H1554 H 0.40276 0.84006 0.18084
 H1555 H 0.38415 0.78183 0.16742
 H1556 H 0.41817 0.76772 0.18139
 C1557 C 0.88580 0.30971 0.19038
 C1558 C 0.89511 0.32291 0.20800
 C1559 C 0.91346 0.31532 0.21553
 C1560 C 0.92068 0.29528 0.20470
 C1561 C 0.92143 0.30071 0.18141
 C1562 C 0.90306 0.30831 0.17387
 C1563 C 0.88407 0.28767 0.19942
 C1564 C 0.90236 0.28010 0.20693
 C1565 C 0.86576 0.31751 0.18266
 C1566 C 0.84873 0.32313 0.17708
 C1567 C 0.94010 0.28675 0.21318
 C1568 C 0.95534 0.27899 0.22092
 H1569 H 0.88798 0.33702 0.21398
 H1570 H 0.92203 0.32292 0.22797
 H1571 H 0.93516 0.29879 0.17173
 H1572 H 0.90104 0.31291 0.15773
 H1573 H 0.86970 0.27875 0.19985
 H1574 H 0.90366 0.26470 0.21380
 C1575 C 0.88557 0.80963 0.69080
 C1576 C 0.88937 0.81480 0.71382
 C1577 C 0.90772 0.80727 0.72132
 C1578 C 0.92051 0.79529 0.70507
 C1579 C 0.92319 0.81052 0.68681
 C1580 C 0.90478 0.81807 0.67929
 C1581 C 0.88745 0.78586 0.68940
 C1582 C 0.90579 0.77833 0.69690
 C1583 C 0.86551 0.81737 0.68309
 C1584 C 0.84846 0.82293 0.67750
 C1585 C 0.93997 0.78680 0.71352
 C1586 C 0.95524 0.77905 0.72121
 H1587 H 0.87861 0.82367 0.72339
 H1588 H 0.91267 0.80968 0.73731
 H1589 H 0.93819 0.81496 0.68038
 H1590 H 0.90400 0.82900 0.66641
 H1591 H 0.87544 0.77581 0.68302
 H1592 H 0.90948 0.76184 0.69694
 C1593 C 0.61464 0.30929 0.30915
 C1594 C 0.60067 0.29973 0.32605
 C1595 C 0.58223 0.29223 0.31859
 C1596 C 0.57961 0.29504 0.29499
 C1597 C 0.59883 0.28463 0.28534
 C1598 C 0.61720 0.29210 0.29277
 C1599 C 0.60111 0.32594 0.29858
 C1600 C 0.58267 0.31844 0.29113
 C1601 C 0.63473 0.31700 0.31680
 C1602 C 0.65179 0.32258 0.32235
 C1603 C 0.56011 0.28661 0.28659
 C1604 C 0.54480 0.27891 0.27892
 H1605 H 0.60486 0.29896 0.34241
 H1606 H 0.57062 0.28503 0.32857
 H1607 H 0.59808 0.27241 0.27367
 H1608 H 0.63217 0.28628 0.28746
 H1609 H 0.60558 0.34218 0.29714
 H1610 H 0.57135 0.32825 0.28330
 C1611 C 0.61423 0.80971 0.80943
 C1612 C 0.59972 0.80120 0.82644
 C1613 C 0.58131 0.79370 0.81893
 C1614 C 0.57925 0.79546 0.79516
 C1615 C 0.59846 0.78426 0.78644
 C1616 C 0.61681 0.79173 0.79392
 C1617 C 0.60125 0.82609 0.79780
 C1618 C 0.58284 0.81859 0.79029
 C1619 C 0.63432 0.81740 0.81712
 C1620 C 0.65139 0.82294 0.82267
 C1621 C 0.55978 0.78700 0.78671
 C1622 C 0.54452 0.77925 0.77898
 H1623 H 0.60354 0.80114 0.84291
 H1624 H 0.56935 0.78721 0.82896
 H1625 H 0.59773 0.77153 0.77533
 H1626 H 0.63177 0.78540 0.78922
 H1627 H 0.60606 0.84216 0.79572
 H1628 H 0.57188 0.82823 0.78177
 C1629 C 0.11440 0.30978 0.80933
 C1630 C 0.11710 0.29378 0.79181
 C1631 C 0.09880 0.28622 0.78431
 C1632 C 0.07950 0.29537 0.79503
 C1633 C 0.08175 0.31905 0.79264
 C1634 C 0.10013 0.32664 0.80017
 C1635 C 0.10113 0.29871 0.82587
 C1636 C 0.08276 0.29112 0.81834
 C1637 C 0.13444 0.31755 0.81707
 C1638 C 0.15148 0.32314 0.82266
 C1639 C 0.06007 0.28683 0.78657
 C1640 C 0.04481 0.27906 0.77887
 H1641 H 0.13210 0.28882 0.78579
 H1642 H 0.09814 0.27478 0.77187
 H1643 H 0.06996 0.32898 0.78570
 H1644 H 0.10407 0.34307 0.79969
 H1645 H 0.10571 0.29704 0.84206
 H1646 H 0.07162 0.28295 0.82807
 C1647 C 0.11444 0.80963 0.30948
 C1648 C 0.11718 0.79287 0.29269
 C1649 C 0.09888 0.78531 0.28516
 C1650 C 0.07956 0.79522 0.29512
 C1651 C 0.08228 0.81874 0.29181
 C1652 C 0.10064 0.82633 0.29937
 C1653 C 0.10069 0.79947 0.32620
 C1654 C 0.08233 0.79188 0.31865
 C1655 C 0.13447 0.81741 0.31724
 C1656 C 0.15149 0.82304 0.32284
 C1657 C 0.06014 0.78671 0.28663
 C1658 C 0.04488 0.77897 0.27889
 H1659 H 0.13220 0.78740 0.28717
 H1660 H 0.09826 0.77337 0.27320
 H1661 H 0.07078 0.82857 0.28425
 H1662 H 0.10488 0.84265 0.29828
 H1663 H 0.10496 0.79838 0.34253
 H1664 H 0.07087 0.78430 0.32850
 C1665 C 0.61445 0.69049 0.69072
 C1666 C 0.61419 0.69316 0.71447
 C1667 C 0.59588 0.70074 0.72197
 C1668 C 0.57957 0.70493 0.70502
 C1669 C 0.57724 0.68416 0.69337
 C1670 C 0.59562 0.67656 0.68584
 C1671 C 0.60870 0.71198 0.68200
 C1672 C 0.59037 0.71957 0.68951
 C1673 C 0.63449 0.68270 0.68300
 C1674 C 0.65151 0.67707 0.67740
 C1675 C 0.56013 0.71346 0.71347
 C1676 C 0.54486 0.72120 0.72117
 H1677 H 0.62725 0.68938 0.72453
 H1678 H 0.59327 0.70345 0.73845
 H1679 H 0.56249 0.67618 0.69121
 H1680 H 0.59663 0.66205 0.67722
 H1681 H 0.61816 0.72047 0.67085
 H1682 H 0.58414 0.73456 0.68480
 C1683 C 0.61426 0.19019 0.19055
 C1684 C 0.61699 0.20651 0.20778
 C1685 C 0.59870 0.21406 0.21532
 C1686 C 0.57938 0.20458 0.20492
 C1687 C 0.58183 0.18096 0.20768
 C1688 C 0.60018 0.17339 0.20012
 C1689 C 0.60077 0.20089 0.17395
 C1690 C 0.58241 0.20847 0.18152
 C1691 C 0.63429 0.18242 0.18279
 C1692 C 0.65132 0.17682 0.17718
 C1693 C 0.55996 0.21310 0.21342
 C1694 C 0.54472 0.22088 0.22114
 H1695 H 0.63201 0.21170 0.21357
 H1696 H 0.59807 0.22571 0.22756
 H1697 H 0.57016 0.17106 0.21489
 H1698 H 0.60425 0.15700 0.20083
 H1699 H 0.60521 0.20233 0.15770
 H1700 H 0.57113 0.21640 0.17175
 C1701 C 0.11465 0.69050 0.19085
 C1702 C 0.10091 0.67377 0.20101
 C1703 C 0.08249 0.68127 0.20849
 C1704 C 0.07966 0.70476 0.20506
 C1705 C 0.08245 0.70800 0.18152
 C1706 C 0.10087 0.70049 0.17405
 C1707 C 0.11725 0.70736 0.20757
 C1708 C 0.09890 0.71484 0.21502
 C1709 C 0.13473 0.68280 0.18316
 C1710 C 0.15179 0.67724 0.17760
 C1711 C 0.06016 0.71321 0.21346
 C1712 C 0.04487 0.72095 0.22112
 H1713 H 0.10525 0.65747 0.20218
 H1714 H 0.07104 0.67141 0.21607
 H1715 H 0.07097 0.71547 0.17161
 H1716 H 0.10518 0.70154 0.15773
 H1717 H 0.13223 0.71295 0.21308
 H1718 H 0.09817 0.72683 0.22692
 C1719 C 0.11449 0.19051 0.69072
 C1720 C 0.11609 0.21259 0.69969
 C1721 C 0.09774 0.22007 0.70716
 C1722 C 0.07951 0.20479 0.70496
 C1723 C 0.08684 0.18482 0.71586
 C1724 C 0.10523 0.17731 0.70837
 C1725 C 0.09723 0.19177 0.67419
 C1726 C 0.07881 0.19929 0.68169
 C1727 C 0.13456 0.18280 0.68303
 C1728 C 0.15162 0.17722 0.67747
 C1729 C 0.06004 0.21324 0.71341
 C1730 C 0.04477 0.22096 0.72112
 H1731 H 0.13040 0.22159 0.70010
 H1732 H 0.09636 0.23548 0.71398
 H1733 H 0.07831 0.17720 0.72832
 H1734 H 0.11245 0.16326 0.71440
 H1735 H 0.09929 0.18714 0.65806
 H1736 H 0.06508 0.20111 0.67199
 C1737 C 0.38576 0.69028 0.30963
 C1738 C 0.40038 0.69860 0.32663
 C1739 C 0.41875 0.70617 0.31908
 C1740 C 0.42065 0.70465 0.29528
 C1741 C 0.40139 0.71596 0.28680
 C1742 C 0.38309 0.70842 0.29432
 C1743 C 0.39864 0.67401 0.29776
 C1744 C 0.41701 0.68158 0.29021
 C1745 C 0.36571 0.68251 0.31737
 C1746 C 0.34867 0.67692 0.32294
 C1747 C 0.44008 0.71316 0.28678
 C1748 C 0.45532 0.72091 0.27901
 H1749 H 0.39666 0.69851 0.34312
 H1750 H 0.43078 0.71256 0.32910
 H1751 H 0.40207 0.72881 0.27583
 H1752 H 0.36811 0.71482 0.28979
 H1753 H 0.39381 0.65797 0.29554
 H1754 H 0.42791 0.67201 0.28152
 C1755 C 0.38530 0.19067 0.80924
 C1756 C 0.39901 0.20078 0.82604
 C1757 C 0.41742 0.20832 0.81858
 C1758 C 0.42029 0.20501 0.79507
 C1759 C 0.40105 0.21498 0.78502
 C1760 C 0.38270 0.20746 0.79245
 C1761 C 0.39912 0.17395 0.79918
 C1762 C 0.41753 0.18150 0.79172
 C1763 C 0.36522 0.18292 0.81689
 C1764 C 0.34817 0.17731 0.82242
 C1765 C 0.43978 0.21348 0.78667
 C1766 C 0.45508 0.22118 0.77897
 H1767 H 0.39465 0.20186 0.84234
 H1768 H 0.42885 0.21588 0.82849
 H1769 H 0.40176 0.22694 0.77309
 H1770 H 0.36771 0.21299 0.78688
 H1771 H 0.39484 0.15764 0.79806
 H1772 H 0.42904 0.17165 0.78421
 C1773 C 0.88554 0.69058 0.80944
 C1774 C 0.90103 0.69672 0.82661
 C1775 C 0.91945 0.70428 0.81914
 C1776 C 0.92051 0.70492 0.79525
 C1777 C 0.90146 0.71769 0.78854
 C1778 C 0.88312 0.71016 0.79599
 C1779 C 0.89738 0.67503 0.79567
 C1780 C 0.91578 0.68258 0.78820
 C1781 C 0.86546 0.68282 0.81710
 C1782 C 0.84840 0.67721 0.82261
 C1783 C 0.93999 0.71341 0.78683
 C1784 C 0.95527 0.72112 0.77911
 H1785 H 0.89783 0.69523 0.84315
 H1786 H 0.93203 0.70927 0.82927
 H1787 H 0.90231 0.73148 0.77879
 H1788 H 0.86827 0.71751 0.79261
 H1789 H 0.89184 0.65945 0.79215
 H1790 H 0.92599 0.67347 0.77828
 C1791 C 0.88567 0.19034 0.30934
 C1792 C 0.88704 0.19024 0.28548
 C1793 C 0.90536 0.19780 0.27798
 C1794 C 0.92059 0.20473 0.29505
 C1795 C 0.92321 0.18561 0.30919
 C1796 C 0.90481 0.17803 0.31672
 C1797 C 0.89003 0.21296 0.31570
 C1798 C 0.90837 0.22052 0.30819
 C1799 C 0.86561 0.18258 0.31706
 C1800 C 0.84856 0.17700 0.32263
 C1801 C 0.94003 0.21325 0.28659
 C1802 C 0.95529 0.22100 0.27888
 H1803 H 0.87469 0.18466 0.27535
 H1804 H 0.90871 0.19869 0.26143
 H1805 H 0.93816 0.17866 0.31294
 H1806 H 0.90399 0.16458 0.32693
 H1807 H 0.87965 0.22221 0.32531
 H1808 H 0.91369 0.23625 0.31137
 C1809 C 0.30914 0.30957 0.61470
 C1810 C 0.29166 0.29350 0.61727
 C1811 C 0.28419 0.28605 0.59891
 C1812 C 0.29490 0.29538 0.57970
 C1813 C 0.31822 0.29118 0.58295
 C1814 C 0.32572 0.29865 0.60137
 C1815 C 0.29994 0.32651 0.60054
 C1816 C 0.29245 0.31904 0.58211
 C1817 C 0.31684 0.31723 0.63479
 C1818 C 0.32241 0.32276 0.65186
 C1819 C 0.28647 0.28696 0.56021
 C1820 C 0.27879 0.27924 0.54492
 H1821 H 0.28564 0.28840 0.63223
 H1822 H 0.27178 0.27458 0.59817
 H1823 H 0.32799 0.28311 0.57175
 H1824 H 0.34191 0.29698 0.60597
 H1825 H 0.29940 0.34291 0.60460
 H1826 H 0.28549 0.32903 0.57038
 C1827 C 0.30954 0.80981 0.11429
 C1828 C 0.31622 0.82262 0.09522
 C1829 C 0.30868 0.81503 0.07683
 C1830 C 0.29523 0.79541 0.07940
 C1831 C 0.27816 0.80158 0.09495
 C1832 C 0.28568 0.80913 0.11326
 C1833 C 0.31658 0.78748 0.10954
 C1834 C 0.30906 0.77991 0.09121
 C1835 C 0.31728 0.81756 0.13433
 C1836 C 0.32286 0.82314 0.15138
 C1837 C 0.28675 0.78689 0.05997
 C1838 C 0.27900 0.77911 0.04474
 H1839 H 0.32599 0.83639 0.09607
 H1840 H 0.31198 0.82230 0.06192
 H1841 H 0.26160 0.80018 0.09183
 H1842 H 0.27554 0.81421 0.12581
 H1843 H 0.32665 0.77841 0.11966
 H1844 H 0.31268 0.76437 0.08564
 C1845 C 0.80957 0.30969 0.11431
 C1846 C 0.81862 0.32056 0.09500
 C1847 C 0.81105 0.31293 0.07664
 C1848 C 0.79522 0.29522 0.07946
 C1849 C 0.77833 0.30420 0.09379
 C1850 C 0.78586 0.31180 0.11208
 C1851 C 0.81405 0.28646 0.11102
 C1852 C 0.80651 0.27886 0.09272
 C1853 C 0.81732 0.31751 0.13433
 C1854 C 0.82293 0.32313 0.15135
 C1855 C 0.78673 0.28666 0.06005
 C1856 C 0.77899 0.27888 0.04482
 H1857 H 0.82994 0.33310 0.09569
 H1858 H 0.81589 0.31893 0.06159
 H1859 H 0.76188 0.30461 0.08987
 H1860 H 0.77587 0.31873 0.12383
 H1861 H 0.82248 0.27683 0.12207
 H1862 H 0.80848 0.26271 0.08811
 C1863 C 0.80943 0.80945 0.61465
 C1864 C 0.81463 0.82323 0.59579
 C1865 C 0.80710 0.81565 0.57740
 C1866 C 0.79515 0.79506 0.57974
 C1867 C 0.77816 0.79955 0.59594
 C1868 C 0.78565 0.80710 0.61425
 C1869 C 0.81789 0.78782 0.60905
 C1870 C 0.81038 0.78025 0.59070
 C1871 C 0.81714 0.81723 0.63470
 C1872 C 0.82270 0.82285 0.65173
 C1873 C 0.78669 0.78655 0.56030
 C1874 C 0.77897 0.77883 0.54503
 H1875 H 0.82344 0.83763 0.59679
 H1876 H 0.80946 0.82354 0.56264
 H1877 H 0.76164 0.79705 0.59323
 H1878 H 0.77556 0.81109 0.62723
 H1879 H 0.82887 0.77922 0.61861
 H1880 H 0.81493 0.76518 0.58456
 C1881 C 0.30944 0.69040 0.38567
 C1882 C 0.29406 0.70847 0.38296
 C1883 C 0.28650 0.71600 0.40124
 C1884 C 0.29501 0.70475 0.42053
 C1885 C 0.31880 0.70636 0.41864
 C1886 C 0.32640 0.69880 0.40029
 C1887 C 0.29761 0.67410 0.39857
 C1888 C 0.29002 0.68165 0.41692
 C1889 C 0.31723 0.68263 0.36566
 C1890 C 0.32286 0.67699 0.34865
 C1891 C 0.28648 0.71324 0.43994
 C1892 C 0.27873 0.72098 0.45518
 H1893 H 0.28952 0.71483 0.36797
 H1894 H 0.27547 0.72881 0.40189
 H1895 H 0.32879 0.71282 0.43066
 H1896 H 0.34290 0.69879 0.39658
 H1897 H 0.29545 0.65804 0.39376
 H1898 H 0.28135 0.67207 0.42782
 C1899 C 0.30917 0.19072 0.88524
 C1900 C 0.29930 0.17395 0.89915
 C1901 C 0.29183 0.18150 0.91755
 C1902 C 0.29498 0.20505 0.92020
 C1903 C 0.28478 0.21486 0.90095
 C1904 C 0.29222 0.20734 0.88261
 C1905 C 0.32593 0.20102 0.89884
 C1906 C 0.31846 0.20857 0.91725
 C1907 C 0.31684 0.18296 0.86517
 C1908 C 0.32240 0.17734 0.84814
 C1909 C 0.28658 0.21351 0.93968
 C1910 C 0.27889 0.22122 0.95497
 H1911 H 0.29831 0.15761 0.89494
 H1912 H 0.28444 0.17162 0.92912
 H1913 H 0.27275 0.22672 0.90166
 H1914 H 0.28656 0.21277 0.86763
 H1915 H 0.34221 0.20226 0.89443
 H1916 H 0.32834 0.21626 0.92861
 C1917 C 0.80929 0.69043 0.88542
 C1918 C 0.79317 0.70786 0.88280
 C1919 C 0.78571 0.71537 0.90114
 C1920 C 0.79507 0.70474 0.92038
 C1921 C 0.81874 0.70724 0.91795
 C1922 C 0.82622 0.69971 0.89955
 C1923 C 0.79839 0.67388 0.89880
 C1924 C 0.79090 0.68141 0.91721
 C1925 C 0.81699 0.68271 0.86535
 C1926 C 0.82258 0.67715 0.84830
 C1927 C 0.78665 0.71322 0.93985
 C1928 C 0.77895 0.72095 0.95513
 H1929 H 0.78805 0.71381 0.86782
 H1930 H 0.77420 0.72773 0.90185
 H1931 H 0.82872 0.71424 0.92966
 H1932 H 0.84263 0.70025 0.89548
 H1933 H 0.79675 0.65768 0.89426
 H1934 H 0.78285 0.67167 0.92843
 C1935 C 0.80952 0.19036 0.38550
 C1936 C 0.80072 0.17342 0.39991
 C1937 C 0.79321 0.18097 0.41830
 C1938 C 0.79525 0.20469 0.42043
 C1939 C 0.78425 0.21360 0.40118
 C1940 C 0.79174 0.20608 0.38286
 C1941 C 0.82598 0.20174 0.39859
 C1942 C 0.81847 0.20928 0.41698
 C1943 C 0.81723 0.18261 0.36544
 C1944 C 0.82280 0.17702 0.34840
 C1945 C 0.78679 0.21318 0.43988
 C1946 C 0.77906 0.22092 0.45514
 H1947 H 0.80046 0.15697 0.39604
 H1948 H 0.78651 0.17098 0.43019
 H1949 H 0.77165 0.22486 0.40187
 H1950 H 0.78554 0.21090 0.36788
 H1951 H 0.84211 0.20365 0.39388
 H1952 H 0.82816 0.21766 0.42801
 C1953 C 0.69076 0.30925 0.38522
 C1954 C 0.70723 0.29215 0.38260
 C1955 C 0.71468 0.28464 0.40094
 C1956 C 0.70497 0.29493 0.42019
 C1957 C 0.68137 0.29201 0.41754
 C1958 C 0.67390 0.29955 0.39913
 C1959 C 0.70124 0.32590 0.39882
 C1960 C 0.70871 0.31836 0.41723
 C1961 C 0.68309 0.31699 0.36514
 C1962 C 0.67755 0.32258 0.34809
 C1963 C 0.71339 0.28646 0.43967
 C1964 C 0.72108 0.27876 0.45497
 H1965 H 0.71258 0.28642 0.36762
 H1966 H 0.72641 0.27248 0.40165
 H1967 H 0.67142 0.28472 0.42910
 H1968 H 0.65754 0.29872 0.39492
 H1969 H 0.70260 0.34216 0.39443
 H1970 H 0.71649 0.32816 0.42860
 C1971 C 0.69053 0.80948 0.88545
 C1972 C 0.70741 0.79280 0.88275
 C1973 C 0.71492 0.78527 0.90105
 C1974 C 0.70486 0.79511 0.92035
 C1975 C 0.68135 0.79167 0.91752
 C1976 C 0.67381 0.79924 0.89915
 C1977 C 0.70053 0.82622 0.89930
 C1978 C 0.70807 0.81865 0.91767
 C1979 C 0.68279 0.81725 0.86541
 C1980 C 0.67720 0.82286 0.84838
 C1981 C 0.71333 0.78662 0.93979
 C1982 C 0.72106 0.77889 0.95506
 H1983 H 0.71299 0.78737 0.86774
 H1984 H 0.72693 0.77338 0.90171
 H1985 H 0.67150 0.78402 0.92894
 H1986 H 0.65750 0.79808 0.89484
 H1987 H 0.70154 0.84256 0.89509
 H1988 H 0.71555 0.82851 0.92919
 C1989 C 0.19054 0.30979 0.88551
 C1990 C 0.20700 0.29269 0.88283
 C1991 C 0.21450 0.28516 0.90114
 C1992 C 0.20485 0.29544 0.92043
 C1993 C 0.18124 0.29252 0.91785
 C1994 C 0.17371 0.30007 0.89947
 C1995 C 0.20105 0.32642 0.89910
 C1996 C 0.20858 0.31887 0.91748
 C1997 C 0.18281 0.31753 0.86547
 C1998 C 0.17723 0.32312 0.84843
 C1999 C 0.21331 0.28694 0.93987
 C2000 C 0.22103 0.27918 0.95512
 H2001 H 0.21232 0.28698 0.86783
 H2002 H 0.22625 0.27301 0.90181
 H2003 H 0.17132 0.28524 0.92944
 H2004 H 0.15734 0.29927 0.89532
 H2005 H 0.20240 0.34269 0.89471
 H2006 H 0.21639 0.32866 0.92883
 C2007 C 0.19045 0.80976 0.38575
 C2008 C 0.18803 0.82496 0.40406
 C2009 C 0.19554 0.81737 0.42246
 C2010 C 0.20469 0.79535 0.42067
 C2011 C 0.22121 0.79688 0.40347
 C2012 C 0.21374 0.80444 0.38515
 C2013 C 0.17968 0.78965 0.39292
 C2014 C 0.18717 0.78208 0.41127
 C2015 C 0.18276 0.81752 0.36570
 C2016 C 0.17720 0.82310 0.34865
 C2017 C 0.21313 0.78681 0.44011
 C2018 C 0.22084 0.77903 0.45535
 H2019 H 0.18104 0.84029 0.40270
 H2020 H 0.19498 0.82619 0.43687
 H2021 H 0.23741 0.79245 0.40552
 H2022 H 0.22354 0.80649 0.37152
 H2023 H 0.16722 0.78207 0.38436
 H2024 H 0.18112 0.76801 0.41843
 C2025 C 0.69048 0.69040 0.61450
 C2026 C 0.70101 0.67378 0.60091
 C2027 C 0.70852 0.68134 0.58252
 C2028 C 0.70474 0.70476 0.57956
 C2029 C 0.71439 0.71507 0.59883
 C2030 C 0.70691 0.70754 0.61715
 C2031 C 0.67363 0.70007 0.60055
 C2032 C 0.68113 0.70763 0.58215
 C2033 C 0.68279 0.68264 0.63456
 C2034 C 0.67723 0.67704 0.65160
 C2035 C 0.71319 0.71325 0.56010
 C2036 C 0.72092 0.72099 0.54484
 H2037 H 0.70240 0.65752 0.60531
 H2038 H 0.71634 0.67155 0.57117
 H2039 H 0.72610 0.72725 0.59815
 H2040 H 0.71222 0.71328 0.63215
 H2041 H 0.65726 0.70086 0.60472
 H2042 H 0.67119 0.71490 0.57057
 C2043 C 0.69042 0.19021 0.11434
 C2044 C 0.67627 0.20661 0.10422
 C2045 C 0.68382 0.21419 0.08588
 C2046 C 0.70477 0.20461 0.07946
 C2047 C 0.70099 0.18100 0.07921
 C2048 C 0.69343 0.17341 0.09758
 C2049 C 0.71173 0.20081 0.11638
 C2050 C 0.71926 0.20837 0.09808
 C2051 C 0.68266 0.18243 0.13437
 C2052 C 0.67707 0.17683 0.15140
 C2053 C 0.71326 0.21313 0.06003
 C2054 C 0.72101 0.22088 0.04479
 H2055 H 0.66159 0.21177 0.11084
 H2056 H 0.67561 0.22585 0.07679
 H2057 H 0.70395 0.17114 0.06580
 H2058 H 0.68990 0.15705 0.09992
 H2059 H 0.72021 0.20224 0.13094
 H2060 H 0.73417 0.21628 0.09700
 C2061 C 0.19081 0.69053 0.11471
 C2062 C 0.20828 0.70660 0.11732
 C2063 C 0.21577 0.71409 0.09899
 C2064 C 0.20508 0.70481 0.07974
 C2065 C 0.18175 0.70900 0.08298
 C2066 C 0.17424 0.70148 0.10138
 C2067 C 0.20002 0.67362 0.10052
 C2068 C 0.20753 0.68114 0.08212
 C2069 C 0.18310 0.68282 0.13478
 C2070 C 0.17754 0.67725 0.15184
 C2071 C 0.21352 0.71327 0.06027
 C2072 C 0.22120 0.72100 0.04498
 H2073 H 0.21428 0.71167 0.13230
 H2074 H 0.22817 0.72557 0.09828
 H2075 H 0.17199 0.71709 0.07180
 H2076 H 0.15804 0.70313 0.10597
 H2077 H 0.20054 0.65722 0.10455
 H2078 H 0.21449 0.67117 0.07037
 C2079 C 0.19069 0.19055 0.61463
 C2080 C 0.20378 0.17470 0.60243
 C2081 C 0.21130 0.18224 0.58405
 C2082 C 0.20497 0.20488 0.57970
 C2083 C 0.21234 0.21714 0.59883
 C2084 C 0.20485 0.20962 0.61715
 C2085 C 0.17356 0.19749 0.59944
 C2086 C 0.18108 0.20504 0.58104
 C2087 C 0.18297 0.18281 0.63469
 C2088 C 0.17739 0.17722 0.65173
 C2089 C 0.21341 0.21336 0.56024
 C2090 C 0.22110 0.22111 0.54496
 H2091 H 0.20681 0.15893 0.60772
 H2092 H 0.22078 0.17293 0.57359
 H2093 H 0.22256 0.23059 0.59806
 H2094 H 0.20865 0.21665 0.63206
 H2095 H 0.15702 0.19652 0.60280
 H2096 H 0.17099 0.21053 0.56865
   
