data_POSCAR
  _audit_creation_date              2014-09-24
  _audit_creation_method            'ToBaCCo'
  _symmetry_space_group_name_H-M    'P1'
  _symmetry_Int_Tables_number       1
  _symmetry_cell_setting            triclinic
  loop_
  _symmetry_equiv_pos_as_xyz
 x,y,z
_cell_length_a 55.0144
_cell_length_b 54.7546
_cell_length_c 50.1918
_cell_angle_alpha 89.904700
_cell_angle_beta 90.153500
_cell_angle_gamma 89.499300
loop_
  _atom_site_label
  _atom_site_type_symbol
  _atom_site_fract_x
  _atom_site_fract_y
  _atom_site_fract_z
C1 C 0.37580 0.01173 0.29213
 C2 C 0.35779 0.03217 0.28536
 C3 C 0.34329 0.02771 0.26403
 C4 C 0.34848 0.00299 0.25068
 C5 C 0.36020 -0.01128 0.29473
 C6 C 0.34594 -0.01589 0.27316
 C7 C 0.39016 0.00762 0.26618
 C8 C 0.37594 0.00289 0.24445
 H9 H 0.35690 0.04908 0.29652
 H10 H 0.33640 -0.00072 0.23347
 H11 H 0.36169 -0.02373 0.31146
 H12 H 0.40971 0.00803 0.26491
 C13 C 0.11459 -0.00194 0.77118
 C14 C 0.12505 -0.02675 0.76299
 C15 C 0.13957 -0.02601 0.74121
 C16 C 0.14232 -0.00040 0.72939
 C17 C 0.13677 0.01470 0.77431
 C18 C 0.15142 0.01544 0.75258
 C19 C 0.10233 0.00751 0.74745
 C20 C 0.11739 0.00816 0.72398
 H21 H 0.12148 -0.04347 0.77384
 H22 H 0.15522 -0.00017 0.71260
 H23 H 0.13912 0.02688 0.79109
 H24 H 0.08356 0.01332 0.74756
 C25 C 0.62212 0.48566 0.26425
 C26 C 0.63307 0.46317 0.25071
 C27 C 0.64475 0.46801 0.22750
 C28 C 0.64433 0.49497 0.21947
 C29 C 0.64324 0.50358 0.26690
 C30 C 0.65509 0.50829 0.24374
 C31 C 0.60579 0.49758 0.24296
 C32 C 0.61704 0.50193 0.21918
 H33 H 0.63258 0.44506 0.25944
 H34 H 0.65412 0.49833 0.20055
 H35 H 0.64738 0.51308 0.28525
 H36 H 0.58714 0.50282 0.24664
 C37 C 0.87031 0.50636 0.79265
 C38 C 0.85241 0.52720 0.78657
 C39 C 0.83687 0.52279 0.76596
 C40 C 0.84069 0.49742 0.75305
 C41 C 0.85378 0.48430 0.79707
 C42 C 0.83872 0.47911 0.77632
 C43 C 0.88306 0.50127 0.76620
 C44 C 0.86789 0.49638 0.74539
 H45 H 0.85178 0.54407 0.79768
 H46 H 0.82798 0.49350 0.73645
 H47 H 0.85435 0.47331 0.81502
 H48 H 0.90262 0.50223 0.76422
 C49 C 0.27714 0.41430 0.99961
 C50 C 0.27112 0.39907 1.02443
 C51 C 0.25244 0.38322 1.02105
 C52 C 0.24106 0.38421 0.99308
 C53 C 0.28142 0.39499 0.97797
 C54 C 0.26271 0.37930 0.97442
 C55 C 0.25314 0.42680 0.99201
 C56 C 0.23404 0.41134 0.98861
 H57 H 0.28161 0.39923 1.04261
 H58 H 0.22612 0.37100 0.99030
 H59 H 0.29804 0.39384 0.96650
 H60 H 0.25130 0.44649 0.99144
 C61 C 0.76864 0.09370 0.99464
 C62 C 0.76083 0.10733 0.96909
 C63 C 0.74324 0.12468 0.97321
 C64 C 0.73502 0.12659 1.00239
 C65 C 0.77599 0.11400 1.01389
 C66 C 0.75848 0.13106 1.01830
 C67 C 0.74617 0.08398 1.00528
 C68 C 0.72730 0.10185 1.00940
 H69 H 0.76769 0.10340 0.94942
 H70 H 0.72153 0.14133 1.00583
 H71 H 0.79299 0.11363 1.02486
 H72 H 0.74306 0.06451 1.00610
 C73 C 0.27197 0.59058 0.50260
 C74 C 0.26700 0.60697 0.47826
 C75 C 0.24995 0.62477 0.48237
 C76 C 0.23878 0.62419 0.51043
 C77 C 0.27804 0.60860 0.52489
 C78 C 0.26083 0.62603 0.52916
 C79 C 0.24701 0.58048 0.50982
 C80 C 0.22947 0.59781 0.51404
 H81 H 0.27591 0.60512 0.45927
 H82 H 0.22512 0.63883 0.51393
 H83 H 0.29442 0.60715 0.53686
 H84 H 0.24339 0.56108 0.50974
 C85 C 0.78268 0.90632 0.50039
 C86 C 0.77620 0.88799 0.52243
 C87 C 0.75704 0.87346 0.51646
 C88 C 0.74591 0.87847 0.48894
 C89 C 0.78650 0.89027 0.47565
 C90 C 0.76732 0.87579 0.46950
 C91 C 0.75894 0.92031 0.49496
 C92 C 0.73958 0.90597 0.48873
 H93 H 0.78575 0.88604 0.54109
 H94 H 0.73075 0.86603 0.48437
 H95 H 0.80293 0.89078 0.46385
 H96 H 0.75767 0.93995 0.49703
 C97 C 0.00313 0.29019 0.39907
 C98 C 0.02516 0.29129 0.38060
 C99 C 0.02593 0.27355 0.36147
 C100 C 0.00435 0.25566 0.36330
 C101 C -0.01783 0.28989 0.38141
 C102 C -0.01729 0.27132 0.36144
 C103 C 0.00410 0.26432 0.41088
 C104 C 0.00489 0.24608 0.39238
 H105 H 0.03907 0.30498 0.38299
 H106 H 0.00500 0.24110 0.34806
 H107 H -0.03377 0.30121 0.38478
 H108 H 0.00434 0.26064 0.43202
 C109 C 0.00054 0.77745 0.10384
 C110 C -0.02338 0.77517 0.11930
 C111 C -0.02517 0.75460 0.13466
 C112 C -0.00219 0.73816 0.13316
 C113 C 0.01997 0.77572 0.12583
 C114 C 0.01875 0.75518 0.14103
 C115 C 0.00292 0.75363 0.08819
 C116 C 0.00156 0.73301 0.10324
 H117 H -0.03664 0.78984 0.11976
 H118 H -0.00281 0.72136 0.14543
 H119 H 0.03331 0.78968 0.12964
 H120 H 0.00477 0.75333 0.06672
 C121 C 0.50464 0.26737 0.60421
 C122 C 0.48138 0.26315 0.62034
 C123 C 0.48224 0.24326 0.63677
 C124 C 0.50668 0.22928 0.63561
 C125 C 0.52449 0.26871 0.62575
 C126 C 0.52578 0.24880 0.64193
 C127 C 0.50931 0.24326 0.58975
 C128 C 0.51036 0.22324 0.60585
 H129 H 0.46645 0.27615 0.62069
 H130 H 0.50779 0.21317 0.64901
 H131 H 0.53651 0.28410 0.62817
 H132 H 0.51038 0.24218 0.56824
 C133 C 0.50696 0.77974 0.90383
 C134 C 0.52552 0.78377 0.88161
 C135 C 0.52587 0.76614 0.86249
 C136 C 0.50719 0.74582 0.86751
 C137 C 0.48252 0.77668 0.88941
 C138 C 0.48264 0.75923 0.87022
 C139 C 0.51241 0.75548 0.91419
 C140 C 0.51265 0.73641 0.89440
 H141 H 0.53839 0.79861 0.88224
 H142 H 0.50691 0.73234 0.85119
 H143 H 0.46625 0.78689 0.89458
 H144 H 0.51170 0.75153 0.93524
 C145 C -0.23274 0.62988 0.95899
 C146 C -0.21414 0.61072 0.96800
 C147 C -0.22219 0.59501 0.98703
 C148 C -0.24845 0.60042 0.99599
 C149 C -0.25524 0.61518 0.95101
 C150 C -0.26363 0.59982 0.97023
 C151 C -0.24035 0.64284 0.98485
 C152 C -0.24886 0.62759 1.00412
 H153 H -0.19582 0.61009 0.96015
 H154 H -0.25513 0.58789 1.01162
 H155 H -0.26384 0.61718 0.93170
 H156 H -0.23881 0.66218 0.98821
 C157 C -0.25245 0.37312 0.48098
 C158 C -0.27565 0.38551 0.49099
 C159 C -0.27260 0.39914 0.51329
 C160 C -0.24646 0.39896 0.52385
 C161 C -0.23403 0.39399 0.47780
 C162 C -0.23084 0.40754 0.50028
 C163 C -0.24310 0.35916 0.50355
 C164 C -0.23987 0.37312 0.52754
 H165 H -0.29285 0.38444 0.48050
 H166 H -0.24443 0.41102 0.54131
 H167 H -0.22218 0.39571 0.46073
 H168 H -0.23893 0.33992 0.50207
 C169 C 0.23864 -0.11736 -0.01990
 C170 C 0.21888 -0.09863 -0.01297
 C171 C 0.22381 -0.08492 0.00885
 C172 C 0.24801 -0.09152 0.02237
 C173 C 0.26205 -0.10238 -0.02191
 C174 C 0.26693 -0.08876 0.00007
 C175 C 0.24193 -0.13190 0.00422
 C176 C 0.24718 -0.11785 0.02773
 H177 H 0.20275 -0.09576 -0.02507
 H178 H 0.25208 -0.07955 0.03952
 H179 H 0.27428 -0.10351 -0.03875
 H180 H 0.23985 -0.15141 0.00487
 C181 C 0.27141 1.12525 0.46799
 C182 C 0.29124 1.10648 0.47465
 C183 C 0.28566 1.09070 0.49472
 C184 C 0.26048 1.09576 0.50696
 C185 C 0.24845 1.11010 0.46309
 C186 C 0.24267 1.09480 0.48343
 C187 C 0.26629 1.13826 0.49459
 C188 C 0.26049 1.12291 0.51496
 H189 H 0.30862 1.10647 0.46460
 H190 H 0.25545 1.08305 0.52319
 H191 H 0.23654 1.11306 0.44613
 H192 H 0.26645 1.15779 0.49728
 C193 C 0.15275 0.52199 0.25124
 C194 C 0.13708 0.51384 0.22763
 C195 C 0.12146 0.49545 0.23336
 C196 C 0.12270 0.48690 0.26242
 C197 C 0.13467 0.52813 0.27340
 C198 C 0.11895 0.51000 0.27932
 C199 C 0.16537 0.49820 0.26059
 C200 C 0.14965 0.47966 0.26616
 H201 H 0.13984 0.52047 0.20752
 H202 H 0.10957 0.47226 0.26715
 H203 H 0.13541 0.54499 0.28463
 H204 H 0.18466 0.49482 0.25877
 C205 C -0.17507 1.01714 0.26827
 C206 C -0.15733 1.00809 0.28985
 C207 C -0.14258 0.98948 0.28183
 C208 C -0.14727 0.98111 0.25308
 C209 C -0.15898 1.02302 0.24417
 C210 C -0.14440 1.00434 0.23620
 C211 C -0.18840 0.99535 0.26066
 C212 C -0.17324 0.97520 0.25233
 H213 H -0.15606 1.01621 0.30947
 H214 H -0.13455 0.96626 0.24740
 H215 H -0.15966 1.04043 0.23389
 H216 H -0.20789 0.99413 0.26177
 C217 C 0.33160 0.51897 -0.24051
 C218 C 0.34915 0.50916 -0.21917
 C219 C 0.36324 0.49013 -0.22730
 C220 C 0.35821 0.48211 -0.25602
 C221 C 0.34756 0.52431 -0.26485
 C222 C 0.36152 0.50518 -0.27311
 C223 C 0.31675 0.49650 -0.24866
 C224 C 0.33067 0.47717 -0.25674
 H225 H 0.35067 0.51705 -0.19946
 H226 H 0.36976 0.46643 -0.26214
 H227 H 0.34667 0.54156 -0.27541
 H228 H 0.29742 0.49479 -0.24567
 C229 C 0.64675 0.01934 -0.26080
 C230 C 0.62823 0.00977 -0.28117
 C231 C 0.61354 -0.00810 -0.27166
 C232 C 0.61870 -0.01503 -0.24263
 C233 C 0.63170 0.02671 -0.23653
 C234 C 0.61699 0.00902 -0.22699
 C235 C 0.66065 -0.00388 -0.25200
 C236 C 0.64597 -0.02213 -0.24282
 H237 H 0.62844 0.01493 -0.30202
 H238 H 0.60659 -0.02942 -0.23471
 H239 H 0.63229 0.04488 -0.22805
 H240 H 0.67950 -0.00725 -0.25692
 C241 C 0.03027 0.24020 0.85741
 C242 C 0.03007 0.26478 0.87203
 C243 C 0.01002 0.26892 0.88729
 C244 C -0.00817 0.24773 0.88665
 C245 C 0.02699 0.22126 0.87990
 C246 C 0.00684 0.22513 0.89510
 C247 C 0.00751 0.23967 0.84269
 C248 C -0.01390 0.24400 0.85836
 H249 H 0.04493 0.27759 0.87075
 H250 H -0.02387 0.25062 0.90001
 H251 H 0.03831 0.20531 0.88293
 H252 H 0.00726 0.23787 0.82124
 C253 C 0.52611 0.26422 0.14862
 C254 C 0.52885 0.24198 0.13053
 C255 C 0.51050 0.23882 0.11261
 C256 C 0.49023 0.25835 0.11505
 C257 C 0.52205 0.28582 0.12948
 C258 C 0.50355 0.28273 0.11184
 C259 C 0.50128 0.26095 0.16201
 C260 C 0.48237 0.25783 0.14465
 H261 H 0.54414 0.22950 0.13240
 H262 H 0.47520 0.25635 0.10048
 H263 H 0.53251 0.30247 0.13026
 H264 H 0.49880 0.26137 0.18333
 C265 C 0.02491 0.76926 0.64235
 C266 C 0.02380 0.74692 0.62415
 C267 C 0.00312 0.74517 0.60934
 C268 C -0.01517 0.76601 0.61460
 C269 C 0.02003 0.79108 0.62389
 C270 C -0.00063 0.78935 0.60919
 C271 C 0.00181 0.76777 0.65940
 C272 C -0.01930 0.76561 0.64514
 H273 H 0.03827 0.73338 0.62355
 H274 H -0.03176 0.76481 0.60216
 H275 H 0.03199 0.80665 0.62253
 H276 H 0.00195 0.76981 0.68076
 C277 C 0.51992 0.73921 0.34595
 C278 C 0.51989 0.76078 0.36534
 C279 C 0.50147 0.76087 0.38360
 C280 C 0.48412 0.73903 0.38012
 C281 C 0.51912 0.71646 0.36379
 C282 C 0.50091 0.71645 0.38202
 C283 C 0.49466 0.74002 0.33299
 C284 C 0.47582 0.74011 0.35061
 H285 H 0.53324 0.77510 0.36382
 H286 H 0.46901 0.73828 0.39461
 H287 H 0.53204 0.70150 0.36222
 H288 H 0.49181 0.74090 0.31171
 B289 B -0.01477 0.01886 1.03936
 B290 B -0.02593 0.01576 1.00834
 B291 B -0.00644 0.03840 1.01510
 B292 B 0.01446 0.02793 1.03731
 B293 B 0.00759 -0.00175 1.04399
 B294 B -0.01762 -0.00927 1.02594
 B295 B 0.01826 0.00205 0.99084
 B296 B 0.02958 0.00512 1.02183
 B297 B 0.01001 -0.01747 1.01518
 B298 B -0.01083 -0.00703 0.99303
 B299 B -0.00399 0.02268 0.98630
 B300 B 0.02127 0.03015 1.00426
 B301 B 0.48867 0.50703 0.52761
 B302 B 0.47324 0.50254 0.49895
 B303 B 0.49439 0.52477 0.50087
 B304 B 0.51767 0.51441 0.52019
 B305 B 0.51064 0.48554 0.52985
 B306 B 0.48285 0.47837 0.51689
 B307 B 0.51397 0.48583 0.47554
 B308 B 0.52952 0.48993 0.50403
 B309 B 0.50824 0.46813 0.50234
 B310 B 0.48513 0.47841 0.48303
 B311 B 0.49234 0.50737 0.47318
 B312 B 0.52002 0.51434 0.48630
 B313 B 0.51573 0.96420 0.53247
 B314 B 0.52864 0.97267 0.50348
 B315 B 0.50320 0.95581 0.50307
 B316 B 0.48510 0.96489 0.52849
 B317 B 0.49974 0.98799 0.54450
 B318 B 0.52698 0.99265 0.52905
 B319 B 0.49068 1.00271 0.49330
 B320 B 0.47771 0.99437 0.52214
 B321 B 0.50327 1.01111 0.52258
 B322 B 0.52121 1.00204 0.49724
 B323 B 0.50656 0.97907 0.48121
 B324 B 0.47944 0.97424 0.49665
 B325 B 0.00810 0.47391 1.03923
 B326 B 0.02202 0.48035 1.01023
 B327 B -0.00277 0.46262 1.01032
 B328 B -0.02232 0.47307 1.03376
 B329 B -0.00921 0.49793 1.04809
 B330 B 0.01852 0.50239 1.03355
 B331 B -0.01644 0.50798 0.99521
 B332 B -0.03043 0.50157 1.02404
 B333 B -0.00555 0.51929 1.02415
 B334 B 0.01390 0.50887 1.00067
 B335 B 0.00078 0.48407 0.98633
 B336 B -0.02679 0.47945 1.00089
 B337 B 0.00628 0.52625 0.48636
 B338 B 0.02033 0.52173 0.51574
 B339 B -0.00124 0.54357 0.51297
 B340 B -0.02320 0.53351 0.49213
 B341 B -0.01495 0.50486 0.48234
 B342 B 0.01217 0.49754 0.49708
 B343 B -0.02120 0.50430 0.53648
 B344 B -0.03529 0.50886 0.50711
 B345 B -0.01376 0.48703 0.50980
 B346 B 0.00822 0.49706 0.53070
 B347 B -0.00002 0.52578 0.54054
 B348 B -0.02718 0.53305 0.52580
 B349 B 0.51071 0.02155 -0.01597
 B350 B 0.52348 0.01847 0.01440
 B351 B 0.50056 0.03860 0.00987
 B352 B 0.48052 0.02671 -0.01198
 B353 B 0.49121 -0.00137 -0.02079
 B354 B 0.51811 -0.00653 -0.00448
 B355 B 0.48246 -0.00183 0.03290
 B356 B 0.46947 0.00148 0.00279
 B357 B 0.49231 -0.01881 0.00693
 B358 B 0.51252 -0.00700 0.02885
 B359 B 0.50176 0.02118 0.03777
 B360 B 0.47496 0.02633 0.02145
 B361 B 0.49804 0.48341 -0.04483
 B362 B 0.48134 0.49311 -0.01882
 B363 B 0.50192 0.47024 -0.01491
 B364 B 0.52639 0.47639 -0.03416
 B365 B 0.52056 0.50347 -0.04976
 B366 B 0.49254 0.51366 -0.04030
 B367 B 0.52151 0.51184 0.00400
 B368 B 0.53813 0.50246 -0.02230
 B369 B 0.51750 0.52518 -0.02592
 B370 B 0.49318 0.51903 -0.00679
 B371 B 0.49888 0.49183 0.00871
 B372 B 0.52701 0.48172 -0.00065
 B373 B -0.00511 0.99508 0.46226
 B374 B -0.02035 1.00325 0.48989
 B375 B 0.00132 0.98122 0.49130
 B376 B 0.02404 0.98900 0.47025
 B377 B 0.01615 1.01634 0.45624
 B378 B -0.01152 1.02491 0.46829
 B379 B 0.02043 1.02288 0.51015
 B380 B 0.03548 1.01541 0.48213
 B381 B 0.01372 1.03707 0.48114
 B382 B -0.00889 1.02919 0.50195
 B383 B -0.00088 1.00195 0.51600
 B384 B 0.02687 0.99327 0.50369
 B385 B 0.77583 0.24176 0.22218
 B386 B 0.76894 0.23008 0.25212
 B387 B 0.79025 0.25189 0.24965
 B388 B 0.78154 0.27189 0.22559
 B389 B 0.75437 0.26206 0.21354
 B390 B 0.74651 0.23610 0.23009
 B391 B 0.74865 0.27313 0.26635
 B392 B 0.75533 0.28465 0.23619
 B393 B 0.73417 0.26283 0.23887
 B394 B 0.74283 0.24300 0.26294
 B395 B 0.77014 0.25266 0.27499
 B396 B 0.77786 0.27880 0.25839
 B397 B 0.72502 0.75872 0.70690
 B398 B 0.73214 0.77057 0.73675
 B399 B 0.71280 0.74701 0.73484
 B400 B 0.72207 0.72814 0.71013
 B401 B 0.74776 0.74034 0.69693
 B402 B 0.75401 0.76680 0.71352
 B403 B 0.75674 0.72924 0.74927
 B404 B 0.74972 0.71747 0.71930
 B405 B 0.76902 0.74105 0.72134
 B406 B 0.75972 0.75984 0.74605
 B407 B 0.73400 0.74765 0.75925
 B408 B 0.72780 0.72118 0.74266
 B409 B 0.27211 0.24898 0.77978
 B410 B 0.26706 0.26352 0.75077
 B411 B 0.28883 0.24178 0.75247
 B412 B 0.27925 0.21945 0.77324
 B413 B 0.25088 0.22757 0.78387
 B414 B 0.24330 0.25505 0.76982
 B415 B 0.24914 0.22224 0.72963
 B416 B 0.25432 0.20757 0.75860
 B417 B 0.23254 0.22925 0.75684
 B418 B 0.24211 0.25172 0.73619
 B419 B 0.27039 0.24351 0.72551
 B420 B 0.27794 0.21600 0.73948
 B421 B 0.22648 0.74301 0.28392
 B422 B 0.22987 0.72970 0.25406
 B423 B 0.21056 0.75349 0.25738
 B424 B 0.22264 0.77339 0.27946
 B425 B 0.25002 0.76159 0.28933
 B426 B 0.25447 0.73438 0.27346
 B427 B 0.25193 0.77013 0.23556
 B428 B 0.24869 0.78334 0.26557
 B429 B 0.26789 0.75958 0.26201
 B430 B 0.25577 0.73969 0.24003
 B431 B 0.22845 0.75148 0.23018
 B432 B 0.22401 0.77877 0.24606
 B433 B 0.27236 0.74233 0.72974
 B434 B 0.26634 0.72983 0.75951
 B435 B 0.28539 0.75364 0.75753
 B436 B 0.27513 0.77290 0.73360
 B437 B 0.24915 0.76066 0.72099
 B438 B 0.24369 0.73379 0.73709
 B439 B 0.24172 0.77039 0.77382
 B440 B 0.24768 0.78297 0.74402
 B441 B 0.22873 0.75912 0.74604
 B442 B 0.23898 0.73990 0.76991
 B443 B 0.26494 0.75212 0.78256
 B444 B 0.27035 0.77908 0.76648
 B445 B 0.23056 0.26285 0.21494
 B446 B 0.23606 0.27343 0.24573
 B447 B 0.21658 0.25027 0.24143
 B448 B 0.22706 0.23227 0.21650
 B449 B 0.25369 0.24461 0.20572
 B450 B 0.25921 0.27028 0.22399
 B451 B 0.25935 0.23134 0.25804
 B452 B 0.25399 0.22089 0.22710
 B453 B 0.27340 0.24407 0.23167
 B454 B 0.26285 0.26199 0.25651
 B455 B 0.23632 0.24965 0.26724
 B456 B 0.23077 0.22395 0.24899
 B457 B 0.76082 0.74703 0.27215
 B458 B 0.75651 0.76491 0.24511
 B459 B 0.77836 0.74285 0.24503
 B460 B 0.76773 0.71838 0.26208
 B461 B 0.73914 0.72558 0.27238
 B462 B 0.73233 0.75456 0.26196
 B463 B 0.73935 0.72646 0.21785
 B464 B 0.74315 0.70862 0.24484
 B465 B 0.72175 0.73068 0.24508
 B466 B 0.73229 0.75500 0.22796
 B467 B 0.76106 0.74776 0.21758
 B468 B 0.76760 0.71880 0.22815
 B469 B 0.73987 0.22790 0.76748
 B470 B 0.74701 0.21609 0.73752
 B471 B 0.72775 0.24009 0.73946
 B472 B 0.73701 0.25864 0.76439
 B473 B 0.76264 0.24580 0.77772
 B474 B 0.76877 0.21923 0.76106
 B475 B 0.77184 0.25694 0.72554
 B476 B 0.76475 0.26878 0.75542
 B477 B 0.78393 0.24465 0.75350
 B478 B 0.77465 0.22624 0.72860
 B479 B 0.74907 0.23909 0.71526
 B480 B 0.74287 0.26560 0.73192
 C481 C 0.37619 1.01952 0.34142
 C482 C 0.38758 1.02490 0.36546
 C483 C 0.41258 1.02879 0.36645
 C484 C 0.42621 1.02772 0.34289
 C485 C 0.41481 1.02226 0.31862
 C486 C 0.38961 1.01761 0.31766
 N487 N 0.42366 1.03098 0.39209
 N488 N 0.44598 1.03577 0.39605
 C489 C 0.45577 1.03420 0.42254
 C490 C 0.48052 1.03844 0.42712
 C491 C 0.49136 1.03133 0.45133
 C492 C 0.47764 1.01934 0.47104
 C493 C 0.45246 1.01691 0.46677
 C494 C 0.44163 1.02472 0.44325
 H495 H 0.35675 1.01655 0.34138
 H496 H 0.37693 1.02549 0.38358
 H497 H 0.44567 1.03051 0.34333
 H498 H 0.42596 1.02173 0.30099
 H499 H 0.49172 1.04572 0.41134
 H500 H 0.51082 1.03326 0.45352
 H501 H 0.44113 1.00678 0.48029
 H502 H 0.42248 1.02114 0.44041
 C503 C -0.09965 0.49005 0.82669
 C504 C -0.08460 0.49274 0.84883
 C505 C -0.08014 0.51584 0.85940
 C506 C -0.09002 0.53654 0.84682
 C507 C -0.10549 0.53387 0.82480
 C508 C -0.11153 0.51041 0.81525
 N509 N -0.06818 0.51715 0.88463
 N510 N -0.05850 0.53623 0.89433
 C511 C -0.04975 0.53489 0.92118
 C512 C -0.02644 0.54295 0.92805
 C513 C -0.01627 0.53656 0.95289
 C514 C -0.02950 0.52229 0.97112
 C515 C -0.05368 0.51631 0.96462
 C516 C -0.06363 0.52264 0.94016
 H517 H -0.10265 0.47184 0.81904
 H518 H -0.07688 0.47664 0.85829
 H519 H -0.08660 0.55461 0.85465
 H520 H -0.11271 0.55025 0.81563
 H521 H -0.01552 0.55251 0.91354
 H522 H 0.00243 0.54130 0.95695
 H523 H -0.06462 0.50504 0.97749
 H524 H -0.08180 0.51655 0.93530
 C525 C 0.07435 -0.00805 0.79641
 C526 C 0.06166 -0.01140 0.82030
 C527 C 0.07403 -0.01144 0.84469
 C528 C 0.09939 -0.00903 0.84491
 C529 C 0.11205 -0.00595 0.82122
 C530 C 0.09972 -0.00438 0.79663
 N531 N 0.06071 -0.01305 0.86909
 N532 N 0.07094 -0.00779 0.89107
 C533 C 0.05874 -0.00811 0.91612
 C534 C 0.06857 0.00557 0.93685
 C535 C 0.05615 0.00802 0.96079
 C536 C 0.03404 -0.00415 0.96503
 C537 C 0.02482 -0.01900 0.94451
 C538 C 0.03694 -0.02073 0.92006
 H539 H 0.06423 -0.00871 0.77795
 H540 H 0.04213 -0.01368 0.81982
 H541 H 0.10950 -0.00960 0.86344
 H542 H 0.13167 -0.00489 0.82222
 H543 H 0.08538 0.01536 0.93394
 H544 H 0.06373 0.01998 0.97576
 H545 H 0.00778 -0.02849 0.94686
 H546 H 0.02918 -0.03157 0.90421
 C547 C 0.62464 0.47625 0.31365
 C548 C 0.61403 0.47203 0.33839
 C549 C 0.58888 0.46967 0.34066
 C550 C 0.57438 0.47043 0.31763
 C551 C 0.58496 0.47497 0.29278
 C552 C 0.61015 0.47919 0.29066
 N553 N 0.57856 0.46937 0.36674
 N554 N 0.55649 0.46420 0.37157
 C555 C 0.54705 0.46746 0.39792
 C556 C 0.52526 0.45635 0.40549
 C557 C 0.51513 0.46110 0.43063
 C558 C 0.52642 0.47751 0.44823
 C559 C 0.54827 0.48854 0.44027
 C560 C 0.55861 0.48329 0.41573
 H561 H 0.64421 0.47789 0.31266
 H562 H 0.62541 0.47122 0.35602
 H563 H 0.55486 0.46842 0.31896
 H564 H 0.57327 0.47535 0.27545
 H565 H 0.51602 0.44426 0.39184
 H566 H 0.49817 0.45248 0.43590
 H567 H 0.55749 0.50152 0.45292
 H568 H 0.57524 0.49243 0.41026
 C569 C 0.57844 0.50466 0.19247
 C570 C 0.56566 0.51064 0.16935
 C571 C 0.57734 0.52173 0.14793
 C572 C 0.60210 0.52745 0.15008
 C573 C 0.61500 0.52163 0.17346
 C574 C 0.60336 0.50995 0.19492
 N575 N 0.56381 0.52482 0.12376
 N576 N 0.57229 0.53367 0.10227
 C577 C 0.55767 0.53382 0.07851
 C578 C 0.56784 0.54065 0.05409
 C579 C 0.55535 0.53623 0.03018
 C580 C 0.53284 0.52412 0.03033
 C581 C 0.52163 0.52008 0.05515
 C582 C 0.53388 0.52477 0.07886
 H583 H 0.56879 0.49502 0.20793
 H584 H 0.54666 0.50581 0.16773
 H585 H 0.61153 0.53590 0.13361
 H586 H 0.63405 0.52611 0.17449
 H587 H 0.58593 0.54826 0.05345
 H588 H 0.56387 0.54137 0.01168
 H589 H 0.50384 0.51193 0.05657
 H590 H 0.52518 0.51997 0.09744
 C591 C 0.12181 1.00929 0.67506
 C592 C 0.11298 1.01556 0.64992
 C593 C 0.09091 1.02794 0.64701
 C594 C 0.07778 1.03469 0.66975
 C595 C 0.08664 1.02860 0.69515
 C596 C 0.10879 1.01547 0.69838
 N597 N 0.08167 1.03126 0.62060
 N598 N 0.06147 1.04151 0.61475
 C599 C 0.05323 1.04159 0.58756
 C600 C 0.03016 1.05093 0.58096
 C601 C 0.02034 1.04710 0.55543
 C602 C 0.03344 1.03373 0.53616
 C603 C 0.05702 1.02548 0.54282
 C604 C 0.06690 1.02973 0.56782
 H605 H 0.13822 0.99840 0.67547
 H606 H 0.12303 1.00989 0.63242
 H607 H 0.06057 1.04429 0.66789
 H608 H 0.07604 1.03457 0.71203
 H609 H 0.01928 1.05999 0.59599
 H610 H 0.00190 1.05318 0.55147
 H611 H 0.06751 1.01413 0.52945
 H612 H 0.08472 1.02219 0.57220
 C613 C -0.13618 0.49743 0.69547
 C614 C -0.12602 0.49511 0.67010
 C615 C -0.10244 0.48581 0.66691
 C616 C -0.08946 0.47767 0.68936
 C617 C -0.09955 0.48011 0.71477
 C618 C -0.12274 0.49085 0.71823
 N619 N -0.09141 0.48730 0.64117
 N620 N -0.07038 0.47870 0.63586
 C621 C -0.05941 0.48317 0.61043
 C622 C -0.03774 0.47117 0.60334
 C623 C -0.02585 0.47705 0.57946
 C624 C -0.03531 0.49536 0.56256
 C625 C -0.05719 0.50712 0.56988
 C626 C -0.06917 0.50093 0.59323
 H627 H -0.15411 0.50537 0.69713
 H628 H -0.13622 0.50143 0.65290
 H629 H -0.07123 0.47031 0.68737
 H630 H -0.08894 0.47399 0.73173
 H631 H -0.02988 0.45754 0.61651
 H632 H -0.00903 0.46770 0.57459
 H633 H -0.06521 0.52135 0.55763
 H634 H -0.08575 0.51067 0.59822
 C635 C 0.37265 0.00336 0.19460
 C636 C 0.38239 -0.00067 0.16935
 C637 C 0.40556 -0.01092 0.16646
 C638 C 0.41883 -0.01777 0.18923
 C639 C 0.40910 -0.01370 0.21462
 C640 C 0.38602 -0.00263 0.21762
 N641 N 0.41569 -0.01213 0.14028
 N642 N 0.43630 -0.02165 0.13492
 C643 C 0.44597 -0.02002 0.10846
 C644 C 0.46846 -0.03088 0.10241
 C645 C 0.47951 -0.02665 0.07766
 C646 C 0.46830 -0.01121 0.05874
 C647 C 0.44528 -0.00120 0.06472
 C648 C 0.43418 -0.00576 0.08903
 H649 H 0.35493 0.01184 0.19588
 H650 H 0.37206 0.00482 0.15190
 H651 H 0.43683 -0.02573 0.18743
 H652 H 0.41971 -0.01920 0.23182
 H653 H 0.47782 -0.04190 0.11722
 H654 H 0.49727 -0.03458 0.07389
 H655 H 0.43598 0.01095 0.05097
 H656 H 0.41681 0.00290 0.09304
 C657 C 0.30926 0.43797 0.02649
 C658 C 0.33086 0.45117 0.02720
 C659 C 0.34159 0.45920 0.00363
 C660 C 0.32949 0.45560 -0.02069
 C661 C 0.30788 0.44244 -0.02146
 C662 C 0.29823 0.43211 0.00192
 N663 N 0.36570 0.46871 0.00468
 N664 N 0.37697 0.47515 -0.01624
 C665 C 0.40189 0.48233 -0.01561
 C666 C 0.41297 0.48940 -0.03935
 C667 C 0.43791 0.49368 -0.04011
 C668 C 0.45248 0.49004 -0.01728
 C669 C 0.44088 0.48488 0.00700
 C670 C 0.41587 0.48073 0.00780
 H671 H 0.30182 0.43216 0.04528
 H672 H 0.33978 0.45430 0.04614
 H673 H 0.33723 0.46202 -0.03921
 H674 H 0.29932 0.43922 -0.04058
 H675 H 0.40233 0.49106 -0.05746
 H676 H 0.44580 0.49922 -0.05887
 H677 H 0.45098 0.48398 0.02547
 H678 H 0.40759 0.47579 0.02657
 C679 C -0.18341 0.92436 0.52997
 C680 C -0.16270 0.93871 0.53269
 C681 C -0.15428 0.95250 0.51127
 C682 C -0.16748 0.95279 0.48730
 C683 C -0.18818 0.93848 0.48452
 C684 C -0.19600 0.92332 0.50545
 N685 N -0.13129 0.96430 0.51359
 N686 N -0.12222 0.97611 0.49426
 C687 C -0.09832 0.98607 0.49532
 C688 C -0.08902 0.99689 0.47239
 C689 C -0.06466 1.00344 0.47123
 C690 C -0.04888 0.99869 0.49286
 C691 C -0.05896 0.99013 0.51679
 C692 C -0.08340 0.98345 0.51791
 H693 H -0.18893 0.91410 0.54720
 H694 H -0.15276 0.93853 0.55134
 H695 H -0.16142 0.96347 0.47044
 H696 H -0.19774 0.93863 0.46562
 H697 H -0.10046 0.99932 0.45497
 H698 H -0.05803 1.01121 0.45282
 H699 H -0.04806 0.98834 0.53459
 H700 H -0.09043 0.97571 0.53616
 C701 C -0.20468 0.06188 1.01639
 C702 C -0.18295 0.04878 1.01812
 C703 C -0.16717 0.04784 0.99646
 C704 C -0.17408 0.05876 0.97226
 C705 C -0.19576 0.07225 0.97053
 C706 C -0.21096 0.07475 0.99297
 N707 N -0.14290 0.03944 1.00099
 N708 N -0.12808 0.03444 0.98235
 C709 C -0.10318 0.02957 0.98869
 C710 C -0.08952 0.01326 0.97332
 C711 C -0.06512 0.00861 0.97966
 C712 C -0.05385 0.02080 1.00107
 C713 C -0.06757 0.03801 1.01554
 C714 C -0.09201 0.04200 1.00975
 H715 H -0.21580 0.06351 1.03409
 H716 H -0.17769 0.04057 1.03694
 H717 H -0.16192 0.05842 0.95533
 H718 H -0.19943 0.08179 0.95213
 H719 H -0.09787 0.00387 0.95672
 H720 H -0.05515 -0.00440 0.96760
 H721 H -0.05949 0.04879 1.03117
 H722 H -0.10210 0.05531 1.02131
 C723 C 0.29687 0.55648 0.52307
 C724 C 0.31724 0.54110 0.52369
 C725 C 0.33253 0.53949 0.50160
 C726 C 0.32630 0.55212 0.47816
 C727 C 0.30604 0.56759 0.47752
 C728 C 0.29154 0.57081 0.50039
 N729 N 0.35557 0.52744 0.50437
 N730 N 0.37078 0.52699 0.48535
 C731 C 0.39492 0.51757 0.48843
 C732 C 0.41063 0.51864 0.46669
 C733 C 0.43524 0.51307 0.46984
 C734 C 0.44471 0.50677 0.49509
 C735 C 0.42843 0.50391 0.51642
 C736 C 0.40379 0.50955 0.51323
 H737 H 0.28596 0.55827 0.54091
 H738 H 0.32181 0.53141 0.54188
 H739 H 0.33776 0.55098 0.46069
 H740 H 0.30275 0.57747 0.45929
 H741 H 0.40394 0.52470 0.44746
 H742 H 0.44692 0.51476 0.45264
 H743 H 0.43463 0.49767 0.53572
 H744 H 0.39185 0.50828 0.53028
 C745 C 0.18473 0.60715 0.51125
 C746 C 0.16054 0.59992 0.51318
 C747 C 0.15470 0.57695 0.52335
 C748 C 0.17331 0.56155 0.53281
 C749 C 0.19758 0.56876 0.53090
 C750 C 0.20367 0.59138 0.51928
 N751 N 0.12993 0.56935 0.52203
 N752 N 0.12242 0.54889 0.53069
 C753 C 0.09751 0.54211 0.52708
 C754 C 0.08831 0.52142 0.53991
 C755 C 0.06394 0.51473 0.53636
 C756 C 0.04846 0.52855 0.51964
 C757 C 0.05816 0.54899 0.50648
 C758 C 0.08220 0.55575 0.51024
 H759 H 0.18839 0.62469 0.50247
 H760 H 0.14629 0.61198 0.50590
 H761 H 0.16917 0.54376 0.54098
 H762 H 0.21155 0.55639 0.53816
 H763 H 0.09997 0.51060 0.55282
 H764 H 0.05729 0.49882 0.54679
 H765 H 0.04712 0.56027 0.49346
 H766 H 0.08881 0.57167 0.49980
 C767 C 0.68332 0.11095 0.00968
 C768 C 0.65946 0.10335 0.01352
 C769 C 0.65462 0.08017 0.02367
 C770 C 0.67398 0.06485 0.03118
 C771 C 0.69795 0.07238 0.02742
 C772 C 0.70313 0.09534 0.01587
 N773 N 0.63000 0.07210 0.02376
 N774 N 0.62339 0.05124 0.03212
 C775 C 0.59857 0.04388 0.02933
 C776 C 0.59072 0.02186 0.04051
 C777 C 0.56685 0.01386 0.03633
 C778 C 0.55053 0.02769 0.02059
 C779 C 0.55875 0.04978 0.00955
 C780 C 0.58226 0.05784 0.01399
 H781 H 0.68568 0.12845 0.00014
 H782 H 0.64458 0.11522 0.00746
 H783 H 0.67060 0.04686 0.03929
 H784 H 0.71230 0.06001 0.03368
 H785 H 0.60318 0.01078 0.05221
 H786 H 0.56137 -0.00331 0.04507
 H787 H 0.54733 0.06071 -0.00343
 H788 H 0.58785 0.07473 0.00469
 C789 C 0.71142 0.94040 0.47460
 C790 C 0.68801 0.95016 0.47122
 C791 C 0.66763 0.93573 0.47589
 C792 C 0.67093 0.91113 0.48314
 C793 C 0.69420 0.90143 0.48667
 C794 C 0.71483 0.91601 0.48306
 N795 N 0.64386 0.94661 0.47517
 N796 N 0.62522 0.93376 0.47992
 C797 C 0.60115 0.94352 0.48183
 C798 C 0.58284 0.92782 0.49000
 C799 C 0.55984 0.93686 0.49604
 C800 C 0.55433 0.96195 0.49354
 C801 C 0.57263 0.97758 0.48405
 C802 C 0.59592 0.96847 0.47839
 H803 H 0.72673 0.95211 0.47070
 H804 H 0.68576 0.96912 0.46549
 H805 H 0.65549 0.89950 0.48688
 H806 H 0.69564 0.88269 0.49303
 H807 H 0.58683 0.90862 0.49317
 H808 H 0.54709 0.92424 0.50461
 H809 H 0.56934 0.99700 0.48192
 H810 H 0.60996 0.98097 0.47216
 C811 C 0.20422 0.44342 0.97211
 C812 C 0.18057 0.45299 0.97047
 C813 C 0.16091 0.43971 0.98024
 C814 C 0.16510 0.41621 0.99069
 C815 C 0.18868 0.40666 0.99239
 C816 C 0.20870 0.42036 0.98384
 N817 N 0.13716 0.45079 0.98079
 N818 N 0.11913 0.43937 0.99039
 C819 C 0.09523 0.44964 0.99292
 C820 C 0.07738 0.43528 1.00457
 C821 C 0.05433 0.44484 1.00956
 C822 C 0.04833 0.46918 1.00283
 C823 C 0.06627 0.48349 0.99048
 C824 C 0.08958 0.47384 0.98562
 H825 H 0.21897 0.45430 0.96447
 H826 H 0.17764 0.47103 0.96213
 H827 H 0.15023 0.40542 0.99827
 H828 H 0.19105 0.38890 1.00134
 H829 H 0.08159 0.41670 1.01057
 H830 H 0.04164 0.43324 1.01984
 H831 H 0.06254 0.50229 0.98503
 H832 H 0.10322 0.48535 0.97665
 C833 C 0.01154 0.30915 0.44530
 C834 C 0.01031 0.32890 0.46304
 C835 C 0.00034 0.35128 0.45483
 C836 C -0.00718 0.35406 0.42823
 C837 C -0.00557 0.33460 0.41046
 C838 C 0.00272 0.31143 0.41893
 N839 N -0.00158 0.37129 0.47320
 N840 N -0.01614 0.38884 0.46800
 C841 C -0.01845 0.41080 0.48321
 C842 C -0.03491 0.42828 0.47390
 C843 C -0.03480 0.45185 0.48404
 C844 C -0.01859 0.45854 0.50453
 C845 C -0.00324 0.44026 0.51538
 C846 C -0.00304 0.41653 0.50465
 H847 H 0.01969 0.29234 0.45238
 H848 H 0.01688 0.32668 0.48326
 H849 H -0.01412 0.37143 0.42103
 H850 H -0.01114 0.33766 0.39001
 H851 H -0.04671 0.42411 0.45723
 H852 H -0.04629 0.46517 0.47415
 H853 H 0.00980 0.44469 0.53078
 H854 H 0.00996 0.40320 0.51208
 C855 C 0.51747 -0.20006 -0.05083
 C856 C 0.51696 -0.17963 -0.03390
 C857 C 0.50583 -0.15779 -0.04219
 C858 C 0.49590 -0.15644 -0.06800
 C859 C 0.49666 -0.17654 -0.08490
 C860 C 0.50677 -0.19895 -0.07647
 N861 N 0.50518 -0.13684 -0.02492
 N862 N 0.49115 -0.11906 -0.03091
 C863 C 0.48947 -0.09619 -0.01731
 C864 C 0.47362 -0.07894 -0.02818
 C865 C 0.47365 -0.05500 -0.01929
 C866 C 0.48901 -0.04756 0.00168
 C867 C 0.50415 -0.06537 0.01374
 C868 C 0.50452 -0.08959 0.00417
 H869 H 0.52664 -0.21638 -0.04384
 H870 H 0.52519 -0.18085 -0.01432
 H871 H 0.48776 -0.13965 -0.07534
 H872 H 0.48924 -0.17454 -0.10480
 H873 H 0.46218 -0.08375 -0.04494
 H874 H 0.46244 -0.04211 -0.03019
 H875 H 0.51662 -0.06033 0.02947
 H876 H 0.51711 -0.10274 0.01274
 C877 C -0.01872 -0.19236 1.07109
 C878 C -0.01786 -0.17146 1.05502
 C879 C 0.00364 -0.15817 1.05284
 C880 C 0.02473 -0.16691 1.06565
 C881 C 0.02396 -0.18790 1.08145
 C882 C 0.00191 -0.20024 1.08560
 N883 N 0.00329 -0.13497 1.03951
 N884 N 0.02071 -0.12009 1.04257
 C885 C 0.02061 -0.09587 1.03186
 C886 C 0.03488 -0.07855 1.04461
 C887 C 0.03241 -0.05391 1.03835
 C888 C 0.01658 -0.04597 1.01789
 C889 C 0.00341 -0.06378 1.00377
 C890 C 0.00511 -0.08853 1.01098
 H891 H -0.03568 -0.20214 1.07250
 H892 H -0.03419 -0.16514 1.04497
 H893 H 0.04177 -0.15734 1.06374
 H894 H 0.04076 -0.19423 1.09037
 H895 H 0.04664 -0.08397 1.06097
 H896 H 0.04197 -0.04109 1.05081
 H897 H -0.00931 -0.05849 0.98826
 H898 H -0.00612 -0.10176 1.00085
 C899 C 0.48187 0.29631 0.57247
 C900 C 0.48124 0.31644 0.55521
 C901 C 0.50245 0.32937 0.54968
 C902 C 0.52464 0.32100 0.56039
 C903 C 0.52534 0.30080 0.57738
 C904 C 0.50380 0.28891 0.58485
 N905 N 0.50091 0.35189 0.53509
 N906 N 0.51866 0.36662 0.53516
 C907 C 0.51786 0.39031 0.52314
 C908 C 0.53372 0.40777 0.53304
 C909 C 0.53130 0.43210 0.52552
 C910 C 0.51386 0.43952 0.50643
 C911 C 0.49880 0.42150 0.49521
 C912 C 0.50052 0.39710 0.50381
 H913 H 0.46511 0.28673 0.57621
 H914 H 0.46404 0.32242 0.54678
 H915 H 0.54144 0.33029 0.55593
 H916 H 0.54284 0.29469 0.58482
 H917 H 0.54692 0.40280 0.54820
 H918 H 0.54247 0.44517 0.53586
 H919 H 0.48480 0.42644 0.48095
 H920 H 0.48802 0.38375 0.49593
 C921 C 0.52678 1.19396 0.57163
 C922 C 0.52786 1.17074 0.56012
 C923 C 0.51565 1.15117 0.57176
 C924 C 0.50265 1.15503 0.59553
 C925 C 0.50147 1.17830 0.60702
 C926 C 0.51324 1.19812 0.59500
 N927 N 0.51628 1.12778 0.55885
 N928 N 0.50650 1.10913 0.56934
 C929 C 0.50632 1.08552 0.55705
 C930 C 0.49737 1.06598 0.57177
 C931 C 0.49659 1.04265 0.56085
 C932 C 0.50449 1.03823 0.53455
 C933 C 0.51345 1.05800 0.51964
 C934 C 0.51444 1.08149 0.53083
 H935 H 0.53648 1.20870 0.56211
 H936 H 0.53808 1.16803 0.54194
 H937 H 0.49301 1.14020 0.60496
 H938 H 0.49064 1.18089 0.62479
 H939 H 0.49096 1.06887 0.59191
 H940 H 0.48935 1.02817 0.57310
 H941 H 0.51967 1.05536 0.49941
 H942 H 0.52135 1.09644 0.51901
 C943 C 0.01738 0.70354 1.06878
 C944 C 0.01804 0.68035 1.05710
 C945 C 0.00448 0.66124 1.06784
 C946 C -0.00968 0.66562 1.09070
 C947 C -0.01040 0.68882 1.10236
 C948 C 0.00301 0.70811 1.09146
 N949 N 0.00535 0.63765 1.05533
 N950 N -0.00609 0.61962 1.06503
 C951 C -0.00590 0.59562 1.05367
 C952 C -0.01749 0.57712 1.06770
 C953 C -0.01746 0.55329 1.05814
 C954 C -0.00608 0.54725 1.03382
 C955 C 0.00538 0.56602 1.01945
 C956 C 0.00554 0.59005 1.02933
 H957 H 0.02828 0.71785 1.06010
 H958 H 0.02915 0.67726 1.03964
 H959 H -0.02039 0.65119 1.09942
 H960 H -0.02192 0.69174 1.11953
 H961 H -0.02642 0.58117 1.08641
 H962 H -0.02662 0.53963 1.06994
 H963 H 0.01443 0.56211 1.00080
 H964 H 0.01460 0.60417 1.01808
 C965 C 0.52531 0.70425 -0.07372
 C966 C 0.52755 0.67965 -0.06651
 C967 C 0.52098 0.66127 -0.08444
 C968 C 0.51255 0.66782 -0.10975
 C969 C 0.50994 0.69240 -0.11696
 C970 C 0.51601 0.71128 -0.09897
 N971 N 0.52215 0.63592 -0.07735
 N972 N 0.52590 0.62863 -0.05356
 C973 C 0.52642 0.60315 -0.04686
 C974 C 0.52485 0.59609 -0.02011
 C975 C 0.52292 0.57139 -0.01320
 C976 C 0.52328 0.55314 -0.03294
 C977 C 0.52553 0.56045 -0.05978
 C978 C 0.52710 0.58510 -0.06664
 H979 H 0.53138 0.71753 -0.05934
 H980 H 0.53450 0.67502 -0.04692
 H981 H 0.50735 0.65377 -0.12376
 H982 H 0.50223 0.69603 -0.13634
 H983 H 0.52403 0.60983 -0.00465
 H984 H 0.52009 0.56684 0.00749
 H985 H 0.52522 0.54723 -0.07577
 H986 H 0.52829 0.59005 -0.08748
 C987 C 0.02016 1.20317 0.38452
 C988 C 0.02390 1.17910 0.39322
 C989 C 0.01465 1.17131 0.41773
 C990 C 0.00081 1.18769 0.43309
 C991 C -0.00310 1.21163 0.42433
 C992 C 0.00697 1.21988 0.40019
 N993 N 0.01924 1.14673 0.42648
 N994 N 0.01350 1.13952 0.44976
 C995 C 0.01707 1.11480 0.45853
 C996 C 0.00890 1.10808 0.48385
 C997 C 0.00940 1.08361 0.49187
 C998 C 0.01811 1.06532 0.47461
 C999 C 0.02778 1.07242 0.44982
 C1000 C 0.02721 1.09690 0.44183
 H1001 H 0.02826 1.20879 0.36597
 H1002 H 0.03443 1.16661 0.38105
 H1003 H -0.00696 1.18201 0.45187
 H1004 H -0.01398 1.22369 0.43662
 H1005 H 0.00119 1.12174 0.49700
 H1006 H 0.00187 1.07898 0.51109
 H1007 H 0.03492 1.05901 0.43603
 H1008 H 0.03390 1.10166 0.42225
 C1009 C 0.77802 0.67111 0.93667
 C1010 C 0.78406 0.68434 0.91378
 C1011 C 0.78856 0.67230 0.88975
 C1012 C 0.78868 0.64666 0.88926
 C1013 C 0.78285 0.63342 0.91207
 C1014 C 0.77652 0.64538 0.93590
 N1015 N 0.78948 0.68622 0.86557
 N1016 N 0.78744 0.67561 0.84318
 C1017 C 0.78495 0.68838 0.81850
 C1018 C 0.77335 0.67624 0.79780
 C1019 C 0.76538 0.68899 0.77546
 C1020 C 0.77036 0.71404 0.77226
 C1021 C 0.78364 0.72589 0.79247
 C1022 C 0.79056 0.71323 0.81566
 H1023 H 0.77384 0.68143 0.95434
 H1024 H 0.78387 0.70411 0.91442
 H1025 H 0.79225 0.63683 0.87096
 H1026 H 0.78224 0.61368 0.91081
 H1027 H 0.76850 0.65721 0.80006
 H1028 H 0.75397 0.67928 0.76161
 H1029 H 0.78729 0.74524 0.79122
 H1030 H 0.79942 0.72298 0.83166
 C1031 C 0.28279 0.16614 0.44546
 C1032 C 0.28743 0.17969 0.42238
 C1033 C 0.28770 0.16836 0.39745
 C1034 C 0.28455 0.14296 0.39596
 C1035 C 0.28003 0.12941 0.41893
 C1036 C 0.27818 0.14085 0.44395
 N1037 N 0.28877 0.18307 0.37384
 N1038 N 0.28507 0.17359 0.35109
 C1039 C 0.28333 0.18739 0.32698
 C1040 C 0.27200 0.17638 0.30534
 C1041 C 0.26547 0.19007 0.28310
 C1042 C 0.27139 0.21502 0.28117
 C1043 C 0.28424 0.22574 0.30242
 C1044 C 0.28993 0.21209 0.32534
 H1045 H 0.28270 0.17583 0.46413
 H1046 H 0.29000 0.19923 0.42383
 H1047 H 0.28491 0.13363 0.37697
 H1048 H 0.27728 0.10992 0.41709
 H1049 H 0.26651 0.15746 0.30658
 H1050 H 0.25454 0.18118 0.26813
 H1051 H 0.28862 0.24496 0.30210
 H1052 H 0.29864 0.22098 0.34203
 C1053 C 0.73344 0.33444 0.45701
 C1054 C 0.72786 0.32159 0.43372
 C1055 C 0.73036 0.33273 0.40882
 C1056 C 0.73784 0.35719 0.40752
 C1057 C 0.74350 0.36996 0.43067
 C1058 C 0.74238 0.35853 0.45576
 N1059 N 0.72686 0.31869 0.38503
 N1060 N 0.73042 0.32846 0.36241
 C1061 C 0.72988 0.31558 0.33773
 C1062 C 0.74080 0.32679 0.31602
 C1063 C 0.74543 0.31369 0.29294
 C1064 C 0.73794 0.28925 0.29026
 C1065 C 0.72527 0.27849 0.31160
 C1066 C 0.72155 0.29148 0.33539
 H1067 H 0.73063 0.32547 0.47595
 H1068 H 0.72181 0.30287 0.43508
 H1069 H 0.73955 0.36646 0.38856
 H1070 H 0.74856 0.38892 0.42876
 H1071 H 0.74757 0.34523 0.31779
 H1072 H 0.75633 0.32252 0.27793
 H1073 H 0.71965 0.25962 0.31061
 H1074 H 0.71309 0.28247 0.35214
 C1075 C 0.23170 0.88419 0.93063
 C1076 C 0.22694 0.87378 0.90592
 C1077 C 0.22262 0.84882 0.90377
 C1078 C 0.22254 0.83428 0.92683
 C1079 C 0.22747 0.84465 0.95174
 C1080 C 0.23266 0.86980 0.95393
 N1081 N 0.22087 0.83856 0.87771
 N1082 N 0.21524 0.81646 0.87322
 C1083 C 0.21676 0.80677 0.84678
 C1084 C 0.21028 0.78252 0.84200
 C1085 C 0.21602 0.77140 0.81767
 C1086 C 0.22863 0.78438 0.79784
 C1087 C 0.23383 0.80915 0.80240
 C1088 C 0.22765 0.82029 0.82633
 H1089 H 0.23507 0.90364 0.93155
 H1090 H 0.22715 0.88513 0.88823
 H1091 H 0.21932 0.81484 0.92551
 H1092 H 0.22721 0.83271 0.96881
 H1093 H 0.20199 0.77182 0.85765
 H1094 H 0.21210 0.75220 0.81527
 H1095 H 0.24422 0.81971 0.78830
 H1096 H 0.23302 0.83904 0.82947
 C1097 C 0.24941 0.88506 0.07672
 C1098 C 0.25367 0.87429 0.10155
 C1099 C 0.26072 0.84979 0.10353
 C1100 C 0.26371 0.83603 0.08025
 C1101 C 0.25928 0.84667 0.05531
 C1102 C 0.25191 0.87142 0.05301
 N1103 N 0.26275 0.83908 0.12947
 N1104 N 0.27036 0.81737 0.13375
 C1105 C 0.26978 0.80719 0.16011
 C1106 C 0.27829 0.78333 0.16472
 C1107 C 0.27453 0.77196 0.18947
 C1108 C 0.26195 0.78429 0.20990
 C1109 C 0.25439 0.80860 0.20526
 C1110 C 0.25854 0.81996 0.18096
 H1111 H 0.24296 0.90374 0.07663
 H1112 H 0.25090 0.88497 0.11945
 H1113 H 0.26908 0.81699 0.08133
 H1114 H 0.26234 0.83540 0.03797
 H1115 H 0.28691 0.77318 0.14880
 H1116 H 0.28027 0.75315 0.19202
 H1117 H 0.24407 0.81871 0.21994
 H1118 H 0.25166 0.83836 0.17804
 C1119 C 0.76564 0.37509 0.57633
 C1120 C 0.77307 0.36437 0.60025
 C1121 C 0.78381 0.34121 0.60059
 C1122 C 0.78796 0.32903 0.57652
 C1123 C 0.78069 0.33975 0.55242
 C1124 C 0.76889 0.36286 0.55181
 N1125 N 0.78756 0.32968 0.62584
 N1126 N 0.79617 0.30820 0.62894
 C1127 C 0.79622 0.29719 0.65491
 C1128 C 0.80309 0.27263 0.65808
 C1129 C 0.79783 0.26018 0.68185
 C1130 C 0.78530 0.27211 0.70264
 C1131 C 0.78005 0.29720 0.69969
 C1132 C 0.78587 0.30963 0.67651
 H1133 H 0.75612 0.39233 0.57783
 H1134 H 0.76943 0.37374 0.61882
 H1135 H 0.79627 0.31104 0.57636
 H1136 H 0.78469 0.32970 0.53445
 H1137 H 0.81102 0.26272 0.64156
 H1138 H 0.80184 0.24083 0.68303
 H1139 H 0.76943 0.30714 0.71416
 H1140 H 0.78029 0.32857 0.67476
 C1141 C 0.25984 0.11790 0.56446
 C1142 C 0.25461 0.12660 0.58991
 C1143 C 0.24299 0.14916 0.59333
 C1144 C 0.23590 0.16279 0.57088
 C1145 C 0.24113 0.15408 0.54530
 C1146 C 0.25360 0.13171 0.54186
 N1147 N 0.24098 0.15857 0.61976
 N1148 N 0.23074 0.17877 0.62570
 C1149 C 0.23201 0.18770 0.65253
 C1150 C 0.22033 0.20962 0.65958
 C1151 C 0.22426 0.22004 0.68479
 C1152 C 0.24025 0.20876 0.70310
 C1153 C 0.25122 0.18637 0.69596
 C1154 C 0.24689 0.17586 0.67132
 H1155 H 0.26958 0.10081 0.56264
 H1156 H 0.26036 0.11607 0.60713
 H1157 H 0.22694 0.18035 0.57311
 H1158 H 0.23554 0.16493 0.52828
 H1159 H 0.20887 0.21905 0.64526
 H1160 H 0.21568 0.23737 0.68942
 H1161 H 0.26393 0.17710 0.70908
 H1162 H 0.25626 0.15896 0.66654
 C1163 C 0.74428 0.62225 0.05312
 C1164 C 0.73779 0.63158 0.07794
 C1165 C 0.72878 0.65541 0.08034
 C1166 C 0.72507 0.66959 0.05740
 C1167 C 0.73149 0.66023 0.03243
 C1168 C 0.74193 0.63669 0.03012
 N1169 N 0.72702 0.66547 0.10648
 N1170 N 0.71931 0.68689 0.11189
 C1171 C 0.72194 0.69584 0.13859
 C1172 C 0.71030 0.71746 0.14687
 C1173 C 0.71482 0.72704 0.17242
 C1174 C 0.73144 0.71530 0.18968
 C1175 C 0.74295 0.69369 0.18089
 C1176 C 0.73800 0.68397 0.15611
 H1177 H 0.75216 0.60417 0.05231
 H1178 H 0.74092 0.62059 0.09561
 H1179 H 0.71818 0.68811 0.05886
 H1180 H 0.72867 0.67163 0.01505
 H1181 H 0.69804 0.72701 0.13346
 H1182 H 0.70584 0.74384 0.17835
 H1183 H 0.75611 0.68400 0.19309
 H1184 H 0.74760 0.66748 0.15030
 C1185 C 0.19365 0.54490 0.24882
 C1186 C 0.20635 0.56669 0.24481
 C1187 C 0.19396 0.58795 0.23694
 C1188 C 0.16899 0.58682 0.23137
 C1189 C 0.15640 0.56516 0.23501
 C1190 C 0.16831 0.54401 0.24447
 N1191 N 0.20608 0.61100 0.23753
 N1192 N 0.19356 0.63025 0.24162
 C1193 C 0.20329 0.65424 0.24360
 C1194 C 0.18934 0.67168 0.25684
 C1195 C 0.19788 0.69522 0.26022
 C1196 C 0.22029 0.70243 0.24934
 C1197 C 0.23432 0.68476 0.23573
 C1198 C 0.22598 0.66070 0.23310
 H1199 H 0.20373 0.52933 0.25626
 H1200 H 0.22560 0.56735 0.24930
 H1201 H 0.15901 0.60295 0.22504
 H1202 H 0.13697 0.56514 0.23143
 H1203 H 0.17194 0.66677 0.26527
 H1204 H 0.18683 0.70757 0.27188
 H1205 H 0.25183 0.68939 0.22743
 H1206 H 0.23703 0.64731 0.22275
 C1207 C 0.64822 0.06078 0.71757
 C1208 C 0.65965 0.08279 0.71200
 C1209 C 0.68428 0.08583 0.71765
 C1210 C 0.69779 0.06608 0.72800
 C1211 C 0.68630 0.04389 0.73380
 C1212 C 0.66118 0.04108 0.72902
 N1213 N 0.69378 0.11005 0.71637
 N1214 N 0.71623 0.11531 0.71799
 C1215 C 0.72332 0.14044 0.71989
 C1216 C 0.74732 0.14738 0.71479
 C1217 C 0.75461 0.17163 0.71891
 C1218 C 0.73811 0.18925 0.72885
 C1219 C 0.71408 0.18185 0.73385
 C1220 C 0.70672 0.15805 0.72905
 H1221 H 0.62882 0.05957 0.71421
 H1222 H 0.64895 0.09800 0.70444
 H1223 H 0.71680 0.06825 0.73302
 H1224 H 0.69691 0.02964 0.74329
 H1225 H 0.76047 0.13395 0.70802
 H1226 H 0.77339 0.17628 0.71525
 H1227 H 0.70106 0.19382 0.74330
 H1228 H 0.68825 0.15310 0.73395
 C1229 C 0.78571 0.04361 0.27131
 C1230 C 0.77500 0.06676 0.27444
 C1231 C 0.78912 0.08665 0.28222
 C1232 C 0.81354 0.08279 0.28917
 C1233 C 0.82417 0.05982 0.28637
 C1234 C 0.81074 0.03996 0.27657
 N1235 N 0.77968 0.11098 0.27939
 N1236 N 0.79433 0.12810 0.27392
 C1237 C 0.78734 0.15293 0.26961
 C1238 C 0.80361 0.16779 0.25609
 C1239 C 0.79767 0.19194 0.25046
 C1240 C 0.77556 0.20225 0.25919
 C1241 C 0.75919 0.18720 0.27307
 C1242 C 0.76494 0.16259 0.27805
 H1243 H 0.77452 0.02932 0.26326
 H1244 H 0.75615 0.06955 0.26886
 H1245 H 0.82479 0.09788 0.29543
 H1246 H 0.84347 0.05795 0.29026
 H1247 H 0.82083 0.16039 0.24930
 H1248 H 0.81054 0.20240 0.23902
 H1249 H 0.74185 0.19427 0.27984
 H1250 H 0.75210 0.15125 0.28856
 C1251 C 0.29275 0.54504 0.76624
 C1252 C 0.28197 0.56773 0.77179
 C1253 C 0.29633 0.58754 0.77922
 C1254 C 0.32142 0.58407 0.78288
 C1255 C 0.33214 0.56156 0.77752
 C1256 C 0.31815 0.54184 0.76849
 N1257 N 0.28595 0.61158 0.77963
 N1258 N 0.29983 0.62990 0.77738
 C1259 C 0.29141 0.65452 0.77565
 C1260 C 0.30725 0.67165 0.76508
 C1261 C 0.29939 0.69538 0.76020
 C1262 C 0.27567 0.70293 0.76692
 C1263 C 0.25992 0.68570 0.77841
 C1264 C 0.26766 0.66153 0.78248
 H1265 H 0.28113 0.53069 0.75910
 H1266 H 0.26261 0.57025 0.76873
 H1267 H 0.33293 0.59906 0.78878
 H1268 H 0.35171 0.55981 0.77934
 H1269 H 0.32548 0.66622 0.75932
 H1270 H 0.31179 0.70732 0.75000
 H1271 H 0.24142 0.69060 0.78354
 H1272 H 0.25512 0.64837 0.79063
 C1273 C 0.29733 0.45028 0.72584
 C1274 C 0.28708 0.42712 0.72269
 C1275 C 0.29960 0.40630 0.73161
 C1276 C 0.32291 0.40887 0.74289
 C1277 C 0.33310 0.43185 0.74601
 C1278 C 0.32034 0.45282 0.73786
 N1279 N 0.28825 0.38284 0.73048
 N1280 N 0.29861 0.36487 0.74199
 C1281 C 0.28963 0.34057 0.74318
 C1282 C 0.30312 0.32397 0.75818
 C1283 C 0.29574 0.30000 0.76056
 C1284 C 0.27454 0.29167 0.74775
 C1285 C 0.26078 0.30853 0.73257
 C1286 C 0.26826 0.33296 0.73032
 H1287 H 0.28721 0.46618 0.71911
 H1288 H 0.26918 0.42546 0.71390
 H1289 H 0.33311 0.39314 0.74994
 H1290 H 0.35059 0.43315 0.75579
 H1291 H 0.31958 0.32972 0.76818
 H1292 H 0.30709 0.28799 0.77242
 H1293 H 0.24437 0.30289 0.72246
 H1294 H 0.25756 0.34573 0.71860
 C1295 C 0.83146 0.93456 0.23149
 C1296 C 0.82283 0.91107 0.22663
 C1297 C 0.80056 0.90371 0.23696
 C1298 C 0.78636 0.92048 0.25130
 C1299 C 0.79462 0.94421 0.25564
 C1300 C 0.81763 0.95165 0.24629
 N1301 N 0.79337 0.87883 0.23379
 N1302 N 0.77744 0.86928 0.24878
 C1303 C 0.77069 0.84421 0.24644
 C1304 C 0.75991 0.83282 0.26825
 C1305 C 0.75516 0.80786 0.26770
 C1306 C 0.76100 0.79373 0.24514
 C1307 C 0.77003 0.80574 0.22240
 C1308 C 0.77540 0.83066 0.22327
 H1309 H 0.84883 0.93905 0.22303
 H1310 H 0.83390 0.89830 0.21541
 H1311 H 0.76900 0.91514 0.25948
 H1312 H 0.78330 0.95601 0.26767
 H1313 H 0.75585 0.84320 0.28607
 H1314 H 0.74699 0.79975 0.28511
 H1315 H 0.77404 0.79571 0.20436
 H1316 H 0.78335 0.83927 0.20597
 C1317 C 0.63930 0.93298 0.75147
 C1318 C 0.64778 0.90890 0.75112
 C1319 C 0.67163 0.90327 0.75867
 C1320 C 0.68696 0.92208 0.76733
 C1321 C 0.67846 0.94633 0.76773
 C1322 C 0.65458 0.95209 0.75947
 N1323 N 0.67985 0.87852 0.75578
 N1324 N 0.70113 0.87097 0.76185
 C1325 C 0.70817 0.84602 0.75704
 C1326 C 0.73122 0.83757 0.76488
 C1327 C 0.73871 0.81358 0.75909
 C1328 C 0.72327 0.79760 0.74515
 C1329 C 0.70008 0.80632 0.73760
 C1330 C 0.69260 0.83005 0.74355
 H1331 H 0.62105 0.93657 0.74434
 H1332 H 0.63586 0.89458 0.74421
 H1333 H 0.70552 0.91813 0.77324
 H1334 H 0.69065 0.96059 0.77414
 H1335 H 0.74350 0.84967 0.77522
 H1336 H 0.75674 0.80777 0.76518
 H1337 H 0.68769 0.79507 0.72640
 H1338 H 0.67475 0.83603 0.73701
 C1339 C 0.14371 0.43518 0.25742
 C1340 C 0.15212 0.41112 0.25730
 C1341 C 0.17479 0.40511 0.26813
 C1342 C 0.18887 0.42341 0.28001
 C1343 C 0.18039 0.44764 0.28029
 C1344 C 0.15783 0.45383 0.26862
 N1345 N 0.18335 0.38056 0.26507
 N1346 N 0.20398 0.37276 0.27308
 C1347 C 0.21132 0.34805 0.26765
 C1348 C 0.23366 0.33909 0.27712
 C1349 C 0.24144 0.31533 0.27071
 C1350 C 0.22700 0.30020 0.25453
 C1351 C 0.20453 0.30945 0.24534
 C1352 C 0.19676 0.33288 0.25188
 H1353 H 0.12660 0.43915 0.24761
 H1354 H 0.14124 0.39715 0.24790
 H1355 H 0.20650 0.41911 0.28850
 H1356 H 0.19161 0.46156 0.28925
 H1357 H 0.24516 0.35059 0.28922
 H1358 H 0.25889 0.30904 0.27814
 H1359 H 0.19285 0.29879 0.23262
 H1360 H 0.17948 0.33927 0.24408
 C1361 C 0.05628 0.25548 0.81924
 C1362 C 0.07682 0.25462 0.80285
 C1363 C 0.09410 0.23596 0.80585
 C1364 C 0.09021 0.21775 0.82514
 C1365 C 0.06971 0.21855 0.84153
 C1366 C 0.05248 0.23766 0.83915
 N1367 N 0.11611 0.23659 0.79051
 N1368 N 0.13283 0.22075 0.79433
 C1369 C 0.15599 0.22101 0.78137
 C1370 C 0.17405 0.20562 0.79151
 C1371 C 0.19788 0.20743 0.78266
 C1372 C 0.20428 0.22407 0.76242
 C1373 C 0.18569 0.23869 0.75112
 C1374 C 0.16172 0.23735 0.76070
 H1375 H 0.04342 0.27040 0.81670
 H1376 H 0.07954 0.26885 0.78817
 H1377 H 0.10326 0.20305 0.82792
 H1378 H 0.06795 0.20420 0.85606
 H1379 H 0.16991 0.19313 0.80760
 H1380 H 0.21145 0.19643 0.79281
 H1381 H 0.18986 0.25203 0.73589
 H1382 H 0.14794 0.24950 0.75259
 C1383 C 0.54078 0.74945 0.30124
 C1384 C 0.56140 0.74947 0.28480
 C1385 C 0.58351 0.73975 0.29395
 C1386 C 0.58502 0.73101 0.32024
 C1387 C 0.56468 0.73140 0.33677
 C1388 C 0.54191 0.73964 0.32728
 N1389 N 0.60449 0.73937 0.27692
 N1390 N 0.62228 0.72521 0.28243
 C1391 C 0.64489 0.72433 0.26836
 C1392 C 0.66206 0.70714 0.27682
 C1393 C 0.68583 0.70794 0.26760
 C1394 C 0.69317 0.72584 0.24910
 C1395 C 0.67534 0.74217 0.23914
 C1396 C 0.65133 0.74149 0.24878
 H1397 H 0.52420 0.75749 0.29351
 H1398 H 0.56007 0.75691 0.26484
 H1399 H 0.60207 0.72417 0.32821
 H1400 H 0.56684 0.72513 0.35710
 H1401 H 0.65735 0.69392 0.29199
 H1402 H 0.69877 0.69535 0.27647
 H1403 H 0.68023 0.75642 0.22523
 H1404 H 0.63828 0.75506 0.24202
 C1405 C 0.54911 0.25753 0.19294
 C1406 C 0.57076 0.25779 0.20780
 C1407 C 0.59214 0.26698 0.19669
 C1408 C 0.59147 0.27622 0.17054
 C1409 C 0.57003 0.27586 0.15572
 C1410 C 0.54835 0.26683 0.16667
 N1411 N 0.61464 0.26552 0.21129
 N1412 N 0.63403 0.27350 0.20077
 C1413 C 0.65778 0.27211 0.21239
 C1414 C 0.67698 0.28051 0.19700
 C1415 C 0.70080 0.27796 0.20578
 C1416 C 0.70622 0.26729 0.23072
 C1417 C 0.68675 0.25941 0.24670
 C1418 C 0.66261 0.26169 0.23752
 H1419 H 0.53338 0.24918 0.20185
 H1420 H 0.57103 0.25020 0.22773
 H1421 H 0.60772 0.28311 0.16116
 H1422 H 0.57064 0.28206 0.13524
 H1423 H 0.67347 0.28854 0.17761
 H1424 H 0.71497 0.28439 0.19268
 H1425 H 0.69019 0.25103 0.26590
 H1426 H 0.64790 0.25502 0.24974
 C1427 C 0.07016 0.77625 0.64153
 C1428 C 0.09318 0.77638 0.65315
 C1429 C 0.09629 0.77029 0.67996
 C1430 C 0.07593 0.76417 0.69529
 C1431 C 0.05268 0.76418 0.68370
 C1432 C 0.04942 0.77053 0.65662
 N1433 N 0.12050 0.76990 0.69046
 N1434 N 0.12610 0.76339 0.71407
 C1435 C 0.15110 0.76322 0.72246
 C1436 C 0.15753 0.75466 0.74789
 C1437 C 0.18204 0.75353 0.75576
 C1438 C 0.20050 0.76103 0.73826
 C1439 C 0.19375 0.76985 0.71288
 C1440 C 0.16948 0.77100 0.70516
 H1441 H 0.06859 0.78034 0.62047
 H1442 H 0.10880 0.78084 0.64104
 H1443 H 0.07801 0.75908 0.71603
 H1444 H 0.03763 0.75855 0.69594
 H1445 H 0.14358 0.74857 0.76148
 H1446 H 0.18649 0.74653 0.77534
 H1447 H 0.20718 0.77606 0.69876
 H1448 H 0.16515 0.77782 0.68544
 C1449 C 0.95468 0.75360 0.68447
 C1450 C 0.93206 0.75031 0.69653
 C1451 C 0.91062 0.75498 0.68239
 C1452 C 0.91208 0.76370 0.65609
 C1453 C 0.93472 0.76762 0.64418
 C1454 C 0.95644 0.76243 0.65809
 N1455 N 0.88765 0.75069 0.69500
 N1456 N 0.86849 0.74730 0.68129
 C1457 C 0.84500 0.74359 0.69283
 C1458 C 0.82643 0.73514 0.67639
 C1459 C 0.80281 0.73299 0.68598
 C1460 C 0.79698 0.73973 0.71233
 C1461 C 0.81591 0.74745 0.72919
 C1462 C 0.83980 0.74925 0.71956
 H1463 H 0.97070 0.74870 0.69585
 H1464 H 0.93123 0.74349 0.71677
 H1465 H 0.89571 0.76776 0.64485
 H1466 H 0.93500 0.77492 0.62418
 H1467 H 0.83022 0.73058 0.65582
 H1468 H 0.78903 0.72661 0.67230
 H1469 H 0.81219 0.75282 0.74952
 H1470 H 0.85394 0.75586 0.73266
 C1471 C 0.44027 0.24098 0.13846
 C1472 C 0.41650 0.23729 0.14736
 C1473 C 0.40873 0.24692 0.17174
 C1474 C 0.42500 0.26072 0.18702
 C1475 C 0.44872 0.26459 0.17806
 C1476 C 0.45680 0.25454 0.15374
 N1477 N 0.38418 0.24285 0.18013
 N1478 N 0.37631 0.24927 0.20295
 C1479 C 0.35146 0.24575 0.21063
 C1480 C 0.34383 0.25302 0.23604
 C1481 C 0.31931 0.25147 0.24333
 C1482 C 0.30191 0.24267 0.22520
 C1483 C 0.30990 0.23467 0.19998
 C1484 C 0.33434 0.23612 0.19282
 H1485 H 0.44571 0.23278 0.11985
 H1486 H 0.40411 0.22670 0.13531
 H1487 H 0.41934 0.26867 0.20576
 H1488 H 0.46058 0.27571 0.19013
 H1489 H 0.35683 0.26044 0.25002
 H1490 H 0.31396 0.25787 0.26284
 H1491 H 0.29720 0.22766 0.18543
 H1492 H 0.33973 0.23026 0.17310
 C1493 C 0.43324 0.75616 0.35672
 C1494 C 0.40968 0.76048 0.34711
 C1495 C 0.40245 0.75143 0.32227
 C1496 C 0.41894 0.73734 0.30737
 C1497 C 0.44249 0.73294 0.31701
 C1498 C 0.45008 0.74265 0.34164
 N1499 N 0.37834 0.75680 0.31283
 N1500 N 0.37061 0.75024 0.28999
 C1501 C 0.34617 0.75549 0.28141
 C1502 C 0.33760 0.74566 0.25742
 C1503 C 0.31310 0.74836 0.25008
 C1504 C 0.29671 0.76105 0.26665
 C1505 C 0.30586 0.77206 0.28996
 C1506 C 0.33022 0.76933 0.29723
 H1507 H 0.43843 0.76414 0.37552
 H1508 H 0.39711 0.77128 0.35887
 H1509 H 0.41372 0.72986 0.28827
 H1510 H 0.45477 0.72200 0.30506
 H1511 H 0.34972 0.73507 0.24491
 H1512 H 0.30684 0.73956 0.23206
 H1513 H 0.29400 0.78206 0.30330
 H1514 H 0.33638 0.77739 0.31571
 C1515 C 0.94275 0.25628 0.86094
 C1516 C 0.91953 0.25759 0.84963
 C1517 C 0.91507 0.24811 0.82429
 C1518 C 0.93418 0.23708 0.81025
 C1519 C 0.95744 0.23561 0.82151
 C1520 C 0.96232 0.24523 0.84714
 N1521 N 0.89090 0.24964 0.81367
 N1522 N 0.88525 0.24273 0.79025
 C1523 C 0.86059 0.24419 0.78088
 C1524 C 0.85493 0.23717 0.75475
 C1525 C 0.83078 0.23774 0.74564
 C1526 C 0.81185 0.24524 0.76267
 C1527 C 0.81783 0.25250 0.78881
 C1528 C 0.84181 0.25207 0.79773
 H1529 H 0.94511 0.26488 0.88009
 H1530 H 0.90492 0.26627 0.86062
 H1531 H 0.93109 0.22935 0.79070
 H1532 H 0.97123 0.22616 0.81012
 H1533 H 0.86923 0.23106 0.74150
 H1534 H 0.82693 0.23199 0.72546
 H1535 H 0.80400 0.25865 0.80261
 H1536 H 0.84559 0.25767 0.81799
 C1537 C 0.57337 0.97513 0.71396
 C1538 C 0.55915 0.96320 0.69482
 C1539 C 0.57007 0.95263 0.67234
 C1540 C 0.59558 0.95282 0.67016
 C1541 C 0.60964 0.96496 0.68897
 C1542 C 0.59858 0.97688 0.71049
 N1543 N 0.55525 0.94577 0.65002
 N1544 N 0.56527 0.93910 0.62837
 C1545 C 0.55260 0.93665 0.60366
 C1546 C 0.56600 0.94107 0.58073
 C1547 C 0.55435 0.94774 0.55723
 C1548 C 0.52879 0.94795 0.55519
 C1549 C 0.51541 0.94004 0.57756
 C1550 C 0.52718 0.93518 0.60192
 H1551 H 0.56460 0.98410 0.73062
 H1552 H 0.53955 0.96340 0.69672
 H1553 H 0.60461 0.94480 0.65311
 H1554 H 0.62916 0.96574 0.68630
 H1555 H 0.58558 0.94279 0.58204
 H1556 H 0.56573 0.95556 0.54216
 H1557 H 0.49573 0.94029 0.57721
 H1558 H 0.51646 0.93183 0.61957
 C1559 C 0.12258 0.47377 1.19000
 C1560 C 0.11097 0.46283 1.16850
 C1561 C 0.08582 0.45956 1.16865
 C1562 C 0.07242 0.46593 1.19148
 C1563 C 0.08417 0.47668 1.21334
 C1564 C 0.10917 0.48154 1.21219
 N1565 N 0.07446 0.45387 1.14383
 N1566 N 0.05178 0.45061 1.14046
 C1567 C 0.04219 0.44951 1.11384
 C1568 C 0.01746 0.44497 1.10947
 C1569 C 0.00691 0.44969 1.08441
 C1570 C 0.02086 0.45975 1.06362
 C1571 C 0.04595 0.46274 1.06798
 C1572 C 0.05652 0.45710 1.09235
 H1573 H 0.14198 0.47683 1.18897
 H1574 H 0.12142 0.45814 1.15095
 H1575 H 0.05288 0.46377 1.19187
 H1576 H 0.07361 0.48237 1.23045
 H1577 H 0.00606 0.43925 1.12584
 H1578 H -0.01252 0.44749 1.08215
 H1579 H 0.05738 0.47171 1.05360
 H1580 H 0.07562 0.46106 1.09503
 C1581 C -0.12560 -0.01321 1.19528
 C1582 C -0.11103 -0.01111 1.17272
 C1583 C -0.09831 0.01040 1.16768
 C1584 C -0.10007 0.02993 1.18567
 C1585 C -0.11486 0.02790 1.20823
 C1586 C -0.12786 0.00631 1.21313
 N1587 N -0.08464 0.01188 1.14358
 N1588 N -0.07077 0.02949 1.13738
 C1589 C -0.05843 0.02909 1.11223
 C1590 C -0.03846 0.04428 1.10760
 C1591 C -0.02502 0.04210 1.08392
 C1592 C -0.03158 0.02480 1.06452
 C1593 C -0.05242 0.01059 1.06893
 C1594 C -0.06562 0.01273 1.09232
 H1595 H -0.13571 -0.02979 1.19821
 H1596 H -0.10990 -0.02620 1.15885
 H1597 H -0.09041 0.04674 1.18208
 H1598 H -0.11616 0.04318 1.22184
 H1599 H -0.03279 0.05713 1.12271
 H1600 H -0.00912 0.05334 1.08124
 H1601 H -0.05846 -0.00275 1.05453
 H1602 H -0.08124 0.00111 1.09505
 C1603 C 0.38217 0.48494 0.68823
 C1604 C 0.39730 0.48566 0.66599
 C1605 C 0.40751 0.50765 0.65761
 C1606 C 0.40254 0.52913 0.67183
 C1607 C 0.38769 0.52839 0.69445
 C1608 C 0.37734 0.50623 0.70294
 N1609 N 0.42350 0.50714 0.63521
 N1610 N 0.43062 0.52602 0.62270
 C1611 C 0.44725 0.52326 0.60092
 C1612 C 0.44860 0.54110 0.58092
 C1613 C 0.46277 0.53696 0.55807
 C1614 C 0.47593 0.51497 0.55506
 C1615 C 0.47565 0.49802 0.57627
 C1616 C 0.46150 0.50206 0.59871
 H1617 H 0.37407 0.46768 0.69355
 H1618 H 0.40100 0.46899 0.65509
 H1619 H 0.41050 0.54629 0.66582
 H1620 H 0.38470 0.54511 0.70547
 H1621 H 0.43784 0.55769 0.58245
 H1622 H 0.46250 0.55053 0.54252
 H1623 H 0.48547 0.48084 0.57524
 H1624 H 0.46119 0.48818 0.61410
 C1625 C 0.40611 0.47648 -0.21967
 C1626 C 0.42497 0.46990 -0.20222
 C1627 C 0.42016 0.46540 -0.17527
 C1628 C 0.39606 0.46664 -0.16612
 C1629 C 0.37732 0.47373 -0.18339
 C1630 C 0.38230 0.47927 -0.21013
 N1631 N 0.44007 0.46315 -0.15693
 N1632 N 0.43717 0.45562 -0.13314
 C1633 C 0.45607 0.45717 -0.11352
 C1634 C 0.45246 0.44668 -0.08842
 C1635 C 0.46752 0.45281 -0.06697
 C1636 C 0.48596 0.47027 -0.07011
 C1637 C 0.49094 0.47882 -0.09601
 C1638 C 0.47620 0.47229 -0.11749
 H1639 H 0.41034 0.48082 -0.24020
 H1640 H 0.44348 0.46927 -0.20947
 H1641 H 0.39190 0.46351 -0.14533
 H1642 H 0.35902 0.47564 -0.17569
 H1643 H 0.43698 0.43501 -0.08504
 H1644 H 0.46304 0.44567 -0.04753
 H1645 H 0.50516 0.49194 -0.09958
 H1646 H 0.47945 0.48060 -0.13672
 C1647 C -0.09897 0.97866 0.28907
 C1648 C -0.07962 0.97365 0.30643
 C1649 C -0.08395 0.96923 0.33349
 C1650 C -0.10801 0.96875 0.34282
 C1651 C -0.12728 0.97424 0.32563
 C1652 C -0.12283 0.97985 0.29881
 N1653 N -0.06390 0.96897 0.35170
 N1654 N -0.06633 0.96228 0.37583
 C1655 C -0.04760 0.96581 0.39524
 C1656 C -0.05058 0.95610 0.42078
 C1657 C -0.03570 0.96367 0.44174
 C1658 C -0.01800 0.98173 0.43766
 C1659 C -0.01380 0.98986 0.41144
 C1660 C -0.02840 0.98193 0.39044
 H1661 H -0.09518 0.98313 0.26848
 H1662 H -0.06115 0.97433 0.29906
 H1663 H -0.11182 0.96561 0.36369
 H1664 H -0.14561 0.97497 0.33345
 H1665 H -0.06539 0.94374 0.42478
 H1666 H -0.03954 0.95679 0.46146
 H1667 H -0.00017 1.00343 0.40717
 H1668 H -0.02573 0.98972 0.37084
 C1669 C 0.09854 0.49171 0.31889
 C1670 C 0.08485 0.49417 0.34213
 C1671 C 0.07397 0.51656 0.34869
 C1672 C 0.07624 0.53646 0.33127
 C1673 C 0.09016 0.53410 0.30808
 C1674 C 0.10183 0.51181 0.30196
 N1675 N 0.06265 0.51883 0.37419
 N1676 N 0.05013 0.53725 0.38173
 C1677 C 0.04106 0.53792 0.40850
 C1678 C 0.02002 0.55134 0.41488
 C1679 C 0.00961 0.54934 0.44036
 C1680 C 0.02039 0.53413 0.45983
 C1681 C 0.04249 0.52226 0.45359
 C1682 C 0.05263 0.52414 0.42841
 H1683 H 0.10754 0.47444 0.31491
 H1684 H 0.08332 0.47875 0.35554
 H1685 H 0.06804 0.55396 0.33603
 H1686 H 0.09222 0.54983 0.29520
 H1687 H 0.01102 0.56230 0.39977
 H1688 H -0.00741 0.55869 0.44434
 H1689 H 0.05161 0.51037 0.46774
 H1690 H 0.06921 0.51408 0.42424
 C1691 C 0.57686 0.00432 -0.20377
 C1692 C 0.56139 0.00928 -0.18224
 C1693 C 0.56967 0.02291 -0.16046
 C1694 C 0.59351 0.03195 -0.16074
 C1695 C 0.60879 0.02727 -0.18229
 C1696 C 0.60070 0.01331 -0.20398
 N1697 N 0.55456 0.02565 -0.13736
 N1698 N 0.56382 0.03236 -0.11533
 C1699 C 0.55062 0.03354 -0.09090
 C1700 C 0.56288 0.02652 -0.06785
 C1701 C 0.55041 0.02372 -0.04408
 C1702 C 0.52552 0.02984 -0.04198
 C1703 C 0.51345 0.03838 -0.06509
 C1704 C 0.52581 0.03974 -0.08957
 H1705 H 0.57009 -0.00627 -0.22036
 H1706 H 0.54315 0.00201 -0.18222
 H1707 H 0.60046 0.04242 -0.14415
 H1708 H 0.62714 0.03426 -0.18177
 H1709 H 0.58189 0.02127 -0.06880
 H1710 H 0.56027 0.01523 -0.02789
 H1711 H 0.49418 0.04257 -0.06465
 H1712 H 0.51603 0.04521 -0.10738
 C1713 C 0.69449 0.59473 -0.04871
 C1714 C 0.67270 0.58208 -0.05073
 C1715 C 0.66931 0.56040 -0.03662
 C1716 C 0.68830 0.55101 -0.02078
 C1717 C 0.71035 0.56352 -0.01897
 C1718 C 0.71361 0.58568 -0.03273
 N1719 N 0.64606 0.54902 -0.03814
 N1720 N 0.63990 0.53094 -0.02377
 C1721 C 0.61585 0.52122 -0.02567
 C1722 C 0.60763 0.50490 -0.00625
 C1723 C 0.58324 0.49776 -0.00586
 C1724 C 0.56665 0.50712 -0.02483
 C1725 C 0.57556 0.52190 -0.04547
 C1726 C 0.59978 0.52905 -0.04577
 H1727 H 0.69601 0.61196 -0.05914
 H1728 H 0.65809 0.58955 -0.06285
 H1729 H 0.68607 0.53416 -0.00978
 H1730 H 0.72480 0.55577 -0.00689
 H1731 H 0.61987 0.49854 0.00926
 H1732 H 0.57718 0.48599 0.01010
 H1733 H 0.56375 0.52860 -0.06111
 H1734 H 0.60576 0.54124 -0.06139
 C1735 C 0.20547 1.08304 0.50821
 C1736 C 0.18223 1.07311 0.50898
 C1737 C 0.17251 1.06167 0.48653
 C1738 C 0.18643 1.05987 0.46319
 C1739 C 0.20960 1.07021 0.46223
 C1740 C 0.21918 1.08205 0.48471
 N1741 N 0.14781 1.05390 0.48750
 N1742 N 0.13831 1.03967 0.47045
 C1743 C 0.11296 1.03417 0.47205
 C1744 C 0.10406 1.01244 0.46129
 C1745 C 0.07948 1.00644 0.46419
 C1746 C 0.06336 1.02239 0.47748
 C1747 C 0.07239 1.04473 0.48700
 C1748 C 0.09686 1.05040 0.48461
 H1749 H 0.21226 1.09240 0.52567
 H1750 H 0.17153 1.07478 0.52697
 H1751 H 0.17911 1.05128 0.44553
 H1752 H 0.21991 1.06924 0.44391
 H1753 H 0.11628 0.99986 0.45131
 H1754 H 0.07326 0.98921 0.45627
 H1755 H 0.06082 1.05765 0.49728
 H1756 H 0.10323 1.06751 0.49270
 C1757 C 0.20204 -0.04694 0.99621
 C1758 C 0.18273 -0.03077 1.00003
 C1759 C 0.16935 -0.03133 1.02362
 C1760 C 0.17699 -0.04667 1.04460
 C1761 C 0.19652 -0.06296 1.04081
 C1762 C 0.20824 -0.06398 1.01603
 N1763 N 0.14553 -0.02083 1.02293
 N1764 N 0.13214 -0.01723 1.04319
 C1765 C 0.10708 -0.01133 1.03866
 C1766 C 0.09464 0.00568 1.05451
 C1767 C 0.07013 0.01131 1.04913
 C1768 C 0.05765 -0.00053 1.02829
 C1769 C 0.07026 -0.01835 1.01348
 C1770 C 0.09461 -0.02336 1.01830
 H1771 H 0.21103 -0.04738 0.97703
 H1772 H 0.17685 -0.01921 0.98366
 H1773 H 0.16662 -0.04760 1.06287
 H1774 H 0.20105 -0.07607 1.05625
 H1775 H 0.10399 0.01486 1.07059
 H1776 H 0.06099 0.02479 1.06137
 H1777 H 0.06134 -0.02894 0.99825
 H1778 H 0.10369 -0.03715 1.00639
 C1779 C 0.71025 0.43878 0.53009
 C1780 C 0.68983 0.45363 0.53500
 C1781 C 0.66651 0.44355 0.53438
 C1782 C 0.66404 0.41814 0.53160
 C1783 C 0.68424 0.40344 0.52666
 C1784 C 0.70734 0.41380 0.52460
 N1785 N 0.64544 0.45907 0.53250
 N1786 N 0.62782 0.45145 0.51845
 C1787 C 0.60516 0.46362 0.51405
 C1788 C 0.58974 0.45310 0.49547
 C1789 C 0.56646 0.46218 0.49163
 C1790 C 0.55771 0.48229 0.50633
 C1791 C 0.57366 0.49352 0.52458
 C1792 C 0.59736 0.48422 0.52844
 H1793 H 0.72799 0.44709 0.52860
 H1794 H 0.69203 0.47316 0.53718
 H1795 H 0.64623 0.40986 0.53161
 H1796 H 0.68167 0.38414 0.52300
 H1797 H 0.59557 0.43708 0.48449
 H1798 H 0.55497 0.45216 0.47814
 H1799 H 0.56762 0.50889 0.53644
 H1800 H 0.60916 0.49253 0.54308
 C1801 C -0.19812 0.42647 0.52754
 C1802 C -0.17769 0.44113 0.52995
 C1803 C -0.16954 0.45484 0.50832
 C1804 C -0.18261 0.45456 0.48427
 C1805 C -0.20317 0.43980 0.48178
 C1806 C -0.21083 0.42525 0.50329
 N1807 N -0.14638 0.46617 0.51073
 N1808 N -0.13703 0.48022 0.49339
 C1809 C -0.11245 0.48807 0.49704
 C1810 C -0.10329 0.50799 0.48278
 C1811 C -0.07896 0.51503 0.48608
 C1812 C -0.06337 0.50189 0.50337
 C1813 C -0.07284 0.48167 0.51707
 C1814 C -0.09693 0.47504 0.51419
 H1815 H -0.20309 0.41517 0.54433
 H1816 H -0.16750 0.44098 0.54844
 H1817 H -0.17641 0.46490 0.46723
 H1818 H -0.21276 0.43934 0.46292
 H1819 H -0.11498 0.51807 0.46921
 H1820 H -0.07235 0.53053 0.47492
 H1821 H -0.06160 0.47032 0.52978
 H1822 H -0.10325 0.45919 0.52498
 C1823 C 0.30230 -0.07447 0.02676
 C1824 C 0.32465 -0.06272 0.02857
 C1825 C 0.33413 -0.05034 0.00658
 C1826 C 0.32073 -0.04922 -0.01723
 C1827 C 0.29848 -0.06122 -0.01918
 C1828 C 0.28929 -0.07426 0.00270
 N1829 N 0.35825 -0.04103 0.00838
 N1830 N 0.36776 -0.02744 -0.00928
 C1831 C 0.39272 -0.02055 -0.00698
 C1832 C 0.40159 -0.00057 -0.02133
 C1833 C 0.42596 0.00639 -0.01866
 C1834 C 0.44190 -0.00686 -0.00191
 C1835 C 0.43285 -0.02745 0.01155
 C1836 C 0.40865 -0.03405 0.00926
 H1837 H 0.29575 -0.08460 0.04380
 H1838 H 0.33497 -0.06383 0.04695
 H1839 H 0.32782 -0.03985 -0.03451
 H1840 H 0.28861 -0.06062 -0.03787
 H1841 H 0.38953 0.00984 -0.03420
 H1842 H 0.43217 0.02223 -0.02954
 H1843 H 0.44437 -0.03859 0.02420
 H1844 H 0.40242 -0.04990 0.02011
 C1845 C 0.30249 1.06188 0.52989
 C1846 C 0.32062 1.04557 0.53872
 C1847 C 0.33920 1.03827 0.52143
 C1848 C 0.33839 1.04576 0.49473
 C1849 C 0.32020 1.06162 0.48581
 C1850 C 0.30266 1.07091 0.50356
 N1851 N 0.36050 1.02614 0.53135
 N1852 N 0.38082 1.03572 0.52576
 C1853 C 0.40419 1.02557 0.53171
 C1854 C 0.42401 1.04070 0.52781
 C1855 C 0.44739 1.03111 0.52700
 C1856 C 0.45178 1.00588 0.53038
 C1857 C 0.43180 0.99086 0.53642
 C1858 C 0.40806 1.00063 0.53698
 H1859 H 0.28920 1.06817 0.54410
 H1860 H 0.32106 1.03993 0.55941
 H1861 H 0.35246 1.03994 0.48102
 H1862 H 0.32038 1.06706 0.46508
 H1863 H 0.42115 1.05985 0.52322
 H1864 H 0.46136 1.04343 0.52068
 H1865 H 0.43425 0.97134 0.53886
 H1866 H 0.39280 0.98856 0.53976
 C1867 C -0.20666 0.56807 1.02440
 C1868 C -0.18876 0.55209 1.03454
 C1869 C -0.17063 0.54283 1.01770
 C1870 C -0.17188 0.54785 0.99033
 C1871 C -0.18973 0.56349 0.98022
 C1872 C -0.20657 0.57481 0.99733
 N1873 N -0.14905 0.53179 1.02847
 N1874 N -0.12890 0.54032 1.02054
 C1875 C -0.10526 0.53126 1.02728
 C1876 C -0.08580 0.54618 1.02092
 C1877 C -0.06218 0.53725 1.02184
 C1878 C -0.05711 0.51290 1.02931
 C1879 C -0.07676 0.49820 1.03733
 C1880 C -0.10078 0.50733 1.03630
 H1881 H -0.21946 0.57627 1.03804
 H1882 H -0.18799 0.54842 1.05573
 H1883 H -0.15818 0.54059 0.97698
 H1884 H -0.18968 0.56755 0.95910
 H1885 H -0.08911 0.56451 1.01352
 H1886 H -0.04834 0.54913 1.01419
 H1887 H -0.07377 0.47930 1.04290
 H1888 H -0.11574 0.49538 1.04100
 C1889 C -0.02406 0.71579 0.58495
 C1890 C -0.02705 0.69532 0.56854
 C1891 C -0.00679 0.68373 0.55713
 C1892 C 0.01633 0.69386 0.56084
 C1893 C 0.01929 0.71441 0.57683
 C1894 C -0.00072 0.72512 0.58989
 N1895 N -0.00951 0.66043 0.54447
 N1896 N 0.00852 0.64574 0.54345
 C1897 C 0.00722 0.62153 0.53300
 C1898 C 0.02253 0.60389 0.54418
 C1899 C 0.02026 0.57947 0.53722
 C1900 C 0.00366 0.57212 0.51741
 C1901 C -0.01103 0.59021 0.50520
 C1902 C -0.00955 0.61473 0.51326
 H1903 H -0.03985 0.72354 0.59472
 H1904 H -0.04498 0.68767 0.56594
 H1905 H 0.03223 0.68547 0.55191
 H1906 H 0.03741 0.72159 0.57937
 H1907 H 0.03531 0.60892 0.55964
 H1908 H 0.03106 0.56630 0.54825
 H1909 H -0.02442 0.58532 0.49034
 H1910 H -0.02156 0.62825 0.50438
 C1911 C 0.53350 0.20890 0.08417
 C1912 C 0.53446 0.18791 0.06853
 C1913 C 0.51314 0.17653 0.06030
 C1914 C 0.49057 0.18703 0.06697
 C1915 C 0.48955 0.20795 0.08311
 C1916 C 0.51105 0.21863 0.09270
 N1917 N 0.51511 0.15281 0.04853
 N1918 N 0.49845 0.14290 0.03474
 C1919 C 0.50101 0.11789 0.02664
 C1920 C 0.48830 0.10907 0.00446
 C1921 C 0.48943 0.08418 -0.00219
 C1922 C 0.50276 0.06758 0.01377
 C1923 C 0.51544 0.07677 0.03598
 C1924 C 0.51496 0.10156 0.04199
 H1925 H 0.55050 0.21709 0.09010
 H1926 H 0.55197 0.18001 0.06347
 H1927 H 0.47383 0.17832 0.06100
 H1928 H 0.47197 0.21492 0.08903
 H1929 H 0.47729 0.12142 -0.00747
 H1930 H 0.47910 0.07785 -0.01917
 H1931 H 0.52538 0.06473 0.04930
 H1932 H 0.52461 0.10780 0.05950
 C1933 C -0.02508 0.19987 0.91706
 C1934 C -0.03175 0.18110 0.93448
 C1935 C -0.01453 0.17032 0.95153
 C1936 C 0.00942 0.17904 0.95150
 C1937 C 0.01622 0.19746 0.93372
 C1938 C -0.00087 0.20772 0.91599
 N1939 N -0.02092 0.14871 0.96602
 N1940 N -0.00782 0.14003 0.98481
 C1941 C -0.01255 0.11659 0.99647
 C1942 C 0.00101 0.10887 1.01864
 C1943 C 0.00073 0.08436 1.02679
 C1944 C -0.01279 0.06698 1.01248
 C1945 C -0.02774 0.07535 0.99143
 C1946 C -0.02783 0.09986 0.98373
 H1947 H -0.03854 0.20733 0.90344
 H1948 H -0.05020 0.17438 0.93407
 H1949 H 0.02313 0.17083 0.96427
 H1950 H 0.03497 0.20333 0.93338
 H1951 H 0.01296 0.12153 1.02864
 H1952 H 0.01264 0.07879 1.04292
 H1953 H -0.03790 0.06274 0.97927
 H1954 H -0.03837 0.10525 0.96641
 C1955 C 0.52113 0.68911 0.41536
 C1956 C 0.52071 0.66993 0.43366
 C1957 C 0.49886 0.65856 0.44012
 C1958 C 0.47704 0.66737 0.42876
 C1959 C 0.47741 0.68688 0.41050
 C1960 C 0.49959 0.69747 0.40312
 N1961 N 0.49996 0.63713 0.45659
 N1962 N 0.48148 0.62450 0.46279
 C1963 C 0.48402 0.60205 0.47749
 C1964 C 0.46371 0.58728 0.48117
 C1965 C 0.46637 0.56348 0.49111
 C1966 C 0.48950 0.55378 0.49745
 C1967 C 0.50949 0.56973 0.49620
 C1968 C 0.50684 0.59346 0.48618
 H1969 H 0.53844 0.69724 0.41049
 H1970 H 0.53762 0.66337 0.44227
 H1971 H 0.45990 0.65882 0.43344
 H1972 H 0.46057 0.69301 0.40137
 H1973 H 0.44589 0.59377 0.47510
 H1974 H 0.45023 0.55280 0.49307
 H1975 H 0.52763 0.56344 0.50133
 H1976 H 0.52287 0.60461 0.48403
 C1977 C 0.47663 0.78487 0.41743
 C1978 C 0.47420 0.80421 0.43560
 C1979 C 0.49393 0.81934 0.44118
 C1980 C 0.51656 0.81391 0.42966
 C1981 C 0.51912 0.79444 0.41194
 C1982 C 0.49900 0.78012 0.40467
 N1983 N 0.49050 0.84118 0.45665
 N1984 N 0.50450 0.85920 0.45276
 C1985 C 0.50289 0.88226 0.46606
 C1986 C 0.51303 0.90221 0.45315
 C1987 C 0.51250 0.92519 0.46473
 C1988 C 0.50268 0.92885 0.49038
 C1989 C 0.49244 0.90865 0.50356
 C1990 C 0.49230 0.88546 0.49132
 H1991 H 0.46070 0.77430 0.41296
 H1992 H 0.45662 0.80807 0.44438
 H1993 H 0.53227 0.82498 0.43408
 H1994 H 0.53700 0.79091 0.40388
 H1995 H 0.52127 0.89994 0.43372
 H1996 H 0.52060 0.93995 0.45360
 H1997 H 0.48459 0.91075 0.52319
 H1998 H 0.48445 0.87009 0.50170
 C1999 C 0.01376 0.31414 0.89088
 C2000 C 0.01194 0.33586 0.90516
 C2001 C 0.00281 0.33604 0.93110
 C2002 C -0.00519 0.31411 0.94259
 C2003 C -0.00351 0.29217 0.92813
 C2004 C 0.00640 0.29199 0.90228
 N2005 N 0.00260 0.35891 0.94490
 N2006 N -0.00457 0.36239 0.96872
 C2007 C -0.00327 0.38656 0.97991
 C2008 C -0.01280 0.39164 1.00526
 C2009 C -0.01223 0.41555 1.01558
 C2010 C -0.00205 0.43469 1.00063
 C2011 C 0.00792 0.42913 0.97550
 C2012 C 0.00739 0.40557 0.96540
 H2013 H 0.02102 0.31470 0.87086
 H2014 H 0.01800 0.35269 0.89607
 H2015 H -0.01236 0.31390 0.96264
 H2016 H -0.00922 0.27532 0.93742
 H2017 H -0.02098 0.37719 1.01684
 H2018 H -0.02004 0.41910 1.03498
 H2019 H 0.01626 0.44300 0.96327
 H2020 H 0.01520 0.40235 0.94593
 C2021 C 0.47362 0.31083 0.08958
 C2022 C 0.46859 0.33065 0.07266
 C2023 C 0.48699 0.34076 0.05693
 C2024 C 0.51047 0.33048 0.05796
 C2025 C 0.51564 0.31114 0.07535
 C2026 C 0.49735 0.30140 0.09158
 N2027 N 0.48228 0.36295 0.04248
 N2028 N 0.49596 0.37013 0.02363
 C2029 C 0.49320 0.39379 0.01159
 C2030 C 0.50543 0.39898 -0.01216
 C2031 C 0.50644 0.42296 -0.02189
 C2032 C 0.49569 0.44239 -0.00764
 C2033 C 0.48257 0.43677 0.01562
 C2034 C 0.48107 0.41278 0.02492
 H2035 H 0.45930 0.30365 0.10205
 H2036 H 0.45047 0.33853 0.07227
 H2037 H 0.52506 0.33814 0.04627
 H2038 H 0.53406 0.30406 0.07656
 H2039 H 0.51500 0.38455 -0.02261
 H2040 H 0.51675 0.42638 -0.03983
 H2041 H 0.47472 0.45095 0.02779
 H2042 H 0.47182 0.40935 0.04355
 C2043 C -0.02977 0.82013 0.59022
 C2044 C -0.03425 0.84055 0.57399
 C2045 C -0.01655 0.84868 0.55605
 C2046 C 0.00539 0.83556 0.55376
 C2047 C 0.01007 0.81553 0.57035
 C2048 C -0.00724 0.80803 0.58913
 N2049 N -0.01976 0.87194 0.54328
 N2050 N -0.00660 0.87895 0.52390
 C2051 C -0.00782 0.90360 0.51420
 C2052 C 0.00246 0.90959 0.48953
 C2053 C 0.00422 0.93408 0.48147
 C2054 C -0.00386 0.95308 0.49825
 C2055 C -0.01420 0.94673 0.52292
 C2056 C -0.01658 0.92240 0.53055
 H2057 H -0.04328 0.81470 0.60468
 H2058 H -0.05114 0.85064 0.57615
 H2059 H 0.01944 0.84162 0.54029
 H2060 H 0.02756 0.80635 0.56917
 H2061 H 0.00966 0.89530 0.47683
 H2062 H 0.01265 0.93814 0.46252
 H2063 H -0.01938 0.96042 0.53725
 H2064 H -0.02397 0.91837 0.55003
 C2065 C 0.26481 0.35396 0.05675
 C2066 C 0.25929 0.33907 0.07832
 C2067 C 0.23515 0.33450 0.08503
 C2068 C 0.21632 0.34416 0.06917
 C2069 C 0.22186 0.35933 0.04750
 C2070 C 0.24617 0.36496 0.04165
 N2071 N 0.23079 0.32230 0.10966
 N2072 N 0.21054 0.31354 0.11704
 C2073 C 0.20939 0.30354 0.14336
 C2074 C 0.19906 0.28061 0.14791
 C2075 C 0.20363 0.26826 0.17199
 C2076 C 0.21842 0.27888 0.19173
 C2077 C 0.22651 0.30294 0.18778
 C2078 C 0.22194 0.31510 0.16401
 H2079 H 0.28373 0.35732 0.05229
 H2080 H 0.27391 0.33163 0.09043
 H2081 H 0.19751 0.34094 0.07424
 H2082 H 0.20717 0.36754 0.03625
 H2083 H 0.18926 0.27150 0.13211
 H2084 H 0.19709 0.24979 0.17425
 H2085 H 0.23800 0.31193 0.20221
 H2086 H 0.22974 0.33298 0.16096
 C2087 C 0.76555 0.84045 0.54950
 C2088 C 0.75796 0.82507 0.56989
 C2089 C 0.73330 0.82306 0.57599
 C2090 C 0.71598 0.83558 0.56045
 C2091 C 0.72361 0.85116 0.53997
 C2092 C 0.74852 0.85434 0.53498
 N2093 N 0.72714 0.81130 0.60040
 N2094 N 0.70581 0.80527 0.60744
 C2095 C 0.70311 0.79641 0.63405
 C2096 C 0.69377 0.77313 0.63906
 C2097 C 0.69801 0.76182 0.66381
 C2098 C 0.71170 0.77376 0.68364
 C2099 C 0.71857 0.79813 0.67909
 C2100 C 0.71413 0.80931 0.65475
 H2101 H 0.78484 0.84217 0.54573
 H2102 H 0.77144 0.81555 0.58187
 H2103 H 0.69682 0.83448 0.56514
 H2104 H 0.71014 0.86178 0.52926
 H2105 H 0.68523 0.76295 0.62316
 H2106 H 0.69249 0.74305 0.66645
 H2107 H 0.72953 0.80803 0.69326
 H2108 H 0.72133 0.82738 0.65116
 C2109 C 0.24316 0.64882 0.56751
 C2110 C 0.24614 0.66292 0.59042
 C2111 C 0.26884 0.67273 0.59679
 C2112 C 0.28850 0.66907 0.57948
 C2113 C 0.28563 0.65467 0.55673
 C2114 C 0.26305 0.64398 0.55091
 N2115 N 0.27175 0.68427 0.62208
 N2116 N 0.29031 0.69658 0.62885
 C2117 C 0.29169 0.70583 0.65546
 C2118 C 0.30103 0.72910 0.66048
 C2119 C 0.29748 0.74011 0.68544
 C2120 C 0.28484 0.72772 0.70572
 C2121 C 0.27799 0.70334 0.70111
 C2122 C 0.28136 0.69260 0.67636
 H2123 H 0.22567 0.64061 0.56358
 H2124 H 0.23090 0.66557 0.60376
 H2125 H 0.30621 0.67643 0.58411
 H2126 H 0.30119 0.65135 0.54403
 H2127 H 0.30926 0.73944 0.64452
 H2128 H 0.30287 0.75891 0.68804
 H2129 H 0.26790 0.69305 0.71569
 H2130 H 0.27446 0.67439 0.67301
 C2131 C 0.74133 0.15329 0.05729
 C2132 C 0.74480 0.16656 0.08067
 C2133 C 0.76763 0.17609 0.08689
 C2134 C 0.78682 0.17341 0.06877
 C2135 C 0.78343 0.15999 0.04541
 C2136 C 0.76084 0.14917 0.03991
 N2137 N 0.77112 0.18631 0.11275
 N2138 N 0.79049 0.19682 0.12035
 C2139 C 0.79219 0.20499 0.14735
 C2140 C 0.80468 0.22641 0.15363
 C2141 C 0.80192 0.23708 0.17886
 C2142 C 0.78681 0.22621 0.19807
 C2143 C 0.77670 0.20325 0.19235
 C2144 C 0.77935 0.19283 0.16735
 H2145 H 0.72385 0.14494 0.05375
 H2146 H 0.72991 0.16852 0.09460
 H2147 H 0.80461 0.18069 0.07322
 H2148 H 0.79870 0.15725 0.03214
 H2149 H 0.81494 0.23581 0.13843
 H2150 H 0.81007 0.25469 0.18250
 H2151 H 0.76492 0.19412 0.20634
 H2152 H 0.77008 0.17590 0.16309
 C2153 C 0.72777 0.16439 0.95447
 C2154 C 0.71995 0.17854 0.93272
 C2155 C 0.71644 0.16772 0.90774
 C2156 C 0.71948 0.14227 0.90520
 C2157 C 0.72743 0.12825 0.92675
 C2158 C 0.73237 0.13927 0.95135
 N2159 N 0.71325 0.18288 0.88460
 N2160 N 0.71387 0.17324 0.86158
 C2161 C 0.71445 0.18661 0.83715
 C2162 C 0.72405 0.17448 0.81522
 C2163 C 0.73086 0.18739 0.79270
 C2164 C 0.72651 0.21272 0.79051
 C2165 C 0.71488 0.22464 0.81196
 C2166 C 0.70932 0.21175 0.83541
 H2167 H 0.73142 0.17328 0.97330
 H2168 H 0.71784 0.19811 0.93500
 H2169 H 0.71676 0.13331 0.88623
 H2170 H 0.73024 0.10881 0.92402
 H2171 H 0.72858 0.15522 0.81661
 H2172 H 0.74132 0.17747 0.77810
 H2173 H 0.71173 0.24418 0.81146
 H2174 H 0.70201 0.22150 0.85237
 C2175 C 0.26359 0.65244 0.44598
 C2176 C 0.25870 0.66773 0.42443
 C2177 C 0.23488 0.67492 0.41851
 C2178 C 0.21586 0.66757 0.43523
 C2179 C 0.22076 0.65203 0.45692
 C2180 C 0.24460 0.64367 0.46191
 N2181 N 0.23077 0.68706 0.39369
 N2182 N 0.21117 0.69784 0.38665
 C2183 C 0.20984 0.70712 0.35997
 C2184 C 0.19932 0.73000 0.35444
 C2185 C 0.20263 0.74093 0.32933
 C2186 C 0.21629 0.72889 0.30949
 C2187 C 0.22486 0.70505 0.31477
 C2188 C 0.22157 0.69433 0.33952
 H2189 H 0.28224 0.64694 0.44972
 H2190 H 0.27348 0.67334 0.41165
 H2191 H 0.19727 0.67282 0.43080
 H2192 H 0.20580 0.64565 0.46882
 H2193 H 0.19008 0.74005 0.37003
 H2194 H 0.19582 0.75930 0.32608
 H2195 H 0.23559 0.69499 0.30040
 H2196 H 0.22945 0.67645 0.34323
 C2197 C 0.74496 0.85390 0.43343
 C2198 C 0.74433 0.83762 0.41213
 C2199 C 0.76568 0.82653 0.40296
 C2200 C 0.78790 0.83183 0.41535
 C2201 C 0.78854 0.84791 0.43698
 C2202 C 0.76702 0.85907 0.44630
 N2203 N 0.76397 0.80987 0.38119
 N2204 N 0.78228 0.80139 0.36869
 C2205 C 0.77876 0.78480 0.34702
 C2206 C 0.79676 0.78198 0.32760
 C2207 C 0.79203 0.76860 0.30440
 C2208 C 0.76921 0.75774 0.30038
 C2209 C 0.75207 0.75901 0.32118
 C2210 C 0.75671 0.77247 0.34406
 H2211 H 0.72815 0.86262 0.43954
 H2212 H 0.72713 0.83375 0.40255
 H2213 H 0.80461 0.82331 0.40861
 H2214 H 0.80580 0.85122 0.44665
 H2215 H 0.81400 0.79115 0.32981
 H2216 H 0.80595 0.76769 0.28946
 H2217 H 0.73434 0.75076 0.31933
 H2218 H 0.74266 0.77393 0.35905
 C2219 C 0.24283 0.35342 0.93991
 C2220 C 0.24422 0.33636 0.91933
 C2221 C 0.26626 0.32464 0.91334
 C2222 C 0.28689 0.32946 0.92885
 C2223 C 0.28557 0.34669 0.94938
 C2224 C 0.26363 0.35925 0.95468
 N2225 N 0.26750 0.31045 0.88951
 N2226 N 0.28556 0.29726 0.88241
 C2227 C 0.28505 0.28628 0.85646
 C2228 C 0.29805 0.26470 0.85081
 C2229 C 0.29539 0.25317 0.82586
 C2230 C 0.27998 0.26340 0.80626
 C2231 C 0.26821 0.28578 0.81198
 C2232 C 0.27081 0.29700 0.83645
 H2233 H 0.22578 0.36291 0.94336
 H2234 H 0.22826 0.33292 0.90727
 H2235 H 0.30413 0.32072 0.92442
 H2236 H 0.30182 0.35053 0.96079
 H2237 H 0.30938 0.25631 0.86599
 H2238 H 0.30459 0.23593 0.82231
 H2239 H 0.25607 0.29457 0.79788
 H2240 H 0.26106 0.31396 0.83995
 C2241 C 0.80132 0.45489 0.76441
 C2242 C 0.78873 0.43264 0.76379
 C2243 C 0.79969 0.41115 0.77354
 C2244 C 0.82321 0.41235 0.78441
 C2245 C 0.83557 0.43442 0.78531
 C2246 C 0.82485 0.45597 0.77532
 N2247 N 0.78756 0.38807 0.77109
 N2248 N 0.79984 0.36835 0.77340
 C2249 C 0.79031 0.34423 0.77076
 C2250 C 0.80657 0.32574 0.76377
 C2251 C 0.79858 0.30209 0.75949
 C2252 C 0.77408 0.29569 0.76346
 C2253 C 0.75771 0.31435 0.77129
 C2254 C 0.76570 0.33855 0.77460
 H2255 H 0.79263 0.47124 0.75662
 H2256 H 0.77067 0.43205 0.75520
 H2257 H 0.83221 0.39612 0.79207
 H2258 H 0.85384 0.43449 0.79339
 H2259 H 0.82551 0.32999 0.76034
 H2260 H 0.81165 0.28946 0.75135
 H2261 H 0.73861 0.31047 0.77396
 H2262 H 0.75280 0.35269 0.78009
 C2263 C 0.33190 0.94853 0.24647
 C2264 C 0.32024 0.92606 0.24451
 C2265 C 0.30784 0.91638 0.26636
 C2266 C 0.30688 0.92961 0.29029
 C2267 C 0.31888 0.95196 0.29241
 C2268 C 0.33169 0.96148 0.27057
 N2269 N 0.29792 0.89241 0.26411
 N2270 N 0.28344 0.88324 0.28108
 C2271 C 0.27540 0.85855 0.27823
 C2272 C 0.25429 0.85075 0.29115
 C2273 C 0.24586 0.82688 0.28753
 C2274 C 0.25870 0.81028 0.27127
 C2275 C 0.28046 0.81812 0.25938
 C2276 C 0.28854 0.84193 0.26257
 H2277 H 0.34191 0.95527 0.22947
 H2278 H 0.32124 0.91590 0.22604
 H2279 H 0.29752 0.92236 0.30747
 H2280 H 0.31837 0.96171 0.31116
 H2281 H 0.24409 0.86334 0.30351
 H2282 H 0.22917 0.82158 0.29724
 H2283 H 0.29112 0.80612 0.24686
 H2284 H 0.30514 0.84734 0.25273
 C2285 C 0.13819 0.93039 0.72799
 C2286 C 0.14999 0.90845 0.72228
 C2287 C 0.17523 0.90764 0.71935
 C2288 C 0.18854 0.92941 0.72015
 C2289 C 0.17664 0.95158 0.72556
 C2290 C 0.15154 0.95195 0.73059
 N2291 N 0.18669 0.88419 0.71994
 N2292 N 0.20950 0.88045 0.71836
 C2293 C 0.21882 0.85632 0.72324
 C2294 C 0.24251 0.84977 0.71577
 C2295 C 0.25178 0.82644 0.72192
 C2296 C 0.23757 0.80955 0.73615
 C2297 C 0.21401 0.81669 0.74389
 C2298 C 0.20471 0.83949 0.73731
 H2299 H 0.11877 0.93038 0.73149
 H2300 H 0.13962 0.89173 0.72183
 H2301 H 0.20813 0.92909 0.71812
 H2302 H 0.18721 0.96807 0.72756
 H2303 H 0.25376 0.86270 0.70523
 H2304 H 0.27009 0.82179 0.71582
 H2305 H 0.20265 0.80499 0.75577
 H2306 H 0.18660 0.84422 0.74405
 C2307 C 0.64645 0.42735 0.20613
 C2308 C 0.65992 0.40674 0.19903
 C2309 C 0.68533 0.40726 0.19943
 C2310 C 0.69724 0.42944 0.20414
 C2311 C 0.68368 0.45031 0.21084
 C2312 C 0.65831 0.44890 0.21323
 N2313 N 0.69773 0.38434 0.20132
 N2314 N 0.72068 0.38155 0.20294
 C2315 C 0.72991 0.35803 0.21063
 C2316 C 0.75298 0.34975 0.20272
 C2317 C 0.76146 0.32656 0.21086
 C2318 C 0.74716 0.31177 0.22758
 C2319 C 0.72456 0.32100 0.23615
 C2320 C 0.71602 0.34351 0.22764
 H2321 H 0.62688 0.42600 0.20788
 H2322 H 0.65060 0.38966 0.19569
 H2323 H 0.71689 0.43013 0.20484
 H2324 H 0.69306 0.46684 0.21647
 H2325 H 0.76413 0.36097 0.18996
 H2326 H 0.77904 0.32025 0.20398
 H2327 H 0.71308 0.31088 0.24955
 H2328 H 0.69850 0.34980 0.23480
 C2329 C 0.69153 0.52861 0.26371
 C2330 C 0.70756 0.54828 0.26458
 C2331 C 0.70715 0.56584 0.24433
 C2332 C 0.69208 0.56226 0.22196
 C2333 C 0.67623 0.54255 0.22099
 C2334 C 0.67503 0.52617 0.24239
 N2335 N 0.71923 0.58862 0.24834
 N2336 N 0.71203 0.60716 0.23518
 C2337 C 0.72102 0.63133 0.23821
 C2338 C 0.70782 0.64984 0.22578
 C2339 C 0.71457 0.67396 0.22859
 C2340 C 0.73533 0.68044 0.24344
 C2341 C 0.74879 0.66165 0.25603
 C2342 C 0.74155 0.63715 0.25362
 H2343 H 0.69131 0.51588 0.28024
 H2344 H 0.71910 0.55072 0.28187
 H2345 H 0.69162 0.57543 0.20585
 H2346 H 0.66380 0.54117 0.20436
 H2347 H 0.69185 0.64552 0.21408
 H2348 H 0.70335 0.68745 0.21866
 H2349 H 0.76481 0.66584 0.26766
 H2350 H 0.75193 0.62292 0.26355
 C2351 C 0.17546 0.04517 0.72601
 C2352 C 0.19161 0.06459 0.72473
 C2353 C 0.20417 0.07213 0.74749
 C2354 C 0.20171 0.05898 0.77133
 C2355 C 0.18550 0.03949 0.77266
 C2356 C 0.17158 0.03300 0.75023
 N2357 N 0.21558 0.09540 0.74674
 N2358 N 0.22817 0.10428 0.76565
 C2359 C 0.23518 0.12936 0.76416
 C2360 C 0.25521 0.13807 0.77850
 C2361 C 0.26151 0.16286 0.77699
 C2362 C 0.24745 0.17929 0.76158
 C2363 C 0.22691 0.17026 0.74817
 C2364 C 0.22105 0.14577 0.74920
 H2365 H 0.16484 0.04088 0.70847
 H2366 H 0.19318 0.07485 0.70635
 H2367 H 0.21114 0.06466 0.78920
 H2368 H 0.18310 0.03015 0.79150
 H2369 H 0.26607 0.12565 0.79051
 H2370 H 0.27732 0.16910 0.78782
 H2371 H 0.21510 0.18204 0.73659
 H2372 H 0.20506 0.13971 0.73855
 C2373 C 0.31123 0.05842 0.27486
 C2374 C 0.29743 0.07886 0.26785
 C2375 C 0.29630 0.08666 0.24138
 C2376 C 0.30772 0.07270 0.22148
 C2377 C 0.32177 0.05218 0.22854
 C2378 C 0.32450 0.04557 0.25545
 N2379 N 0.28736 0.11079 0.23639
 N2380 N 0.28164 0.11920 0.21356
 C2381 C 0.27641 0.14475 0.21171
 C2382 C 0.25418 0.15331 0.20158
 C2383 C 0.24748 0.17792 0.20491
 C2384 C 0.26313 0.19425 0.21812
 C2385 C 0.28622 0.18563 0.22611
 C2386 C 0.29265 0.16123 0.22309
 H2387 H 0.31263 0.05344 0.29571
 H2388 H 0.28876 0.08956 0.28334
 H2389 H 0.30727 0.07866 0.20091
 H2390 H 0.33185 0.04271 0.21325
 H2391 H 0.24145 0.14069 0.19274
 H2392 H 0.22960 0.18378 0.19835
 H2393 H 0.29874 0.19703 0.23688
 H2394 H 0.30992 0.15483 0.23096
 C2395 C 0.80784 0.55679 0.77643
 C2396 C 0.79535 0.57791 0.76875
 C2397 C 0.79299 0.58406 0.74184
 C2398 C 0.80198 0.56791 0.72242
 C2399 C 0.81484 0.54676 0.73015
 C2400 C 0.81882 0.54159 0.75728
 N2401 N 0.78467 0.60820 0.73542
 N2402 N 0.77685 0.61496 0.71266
 C2403 C 0.77154 0.64036 0.70873
 C2404 C 0.74854 0.64817 0.70005
 C2405 C 0.74202 0.67300 0.70145
 C2406 C 0.75862 0.69039 0.71118
 C2407 C 0.78241 0.68241 0.71738
 C2408 C 0.78864 0.65773 0.71647
 H2409 H 0.80997 0.55303 0.79750
 H2410 H 0.78845 0.59019 0.78391
 H2411 H 0.80050 0.57245 0.70147
 H2412 H 0.82302 0.53550 0.71495
 H2413 H 0.73514 0.63491 0.69398
 H2414 H 0.72358 0.67828 0.69638
 H2415 H 0.79573 0.69464 0.72555
 H2416 H 0.80652 0.65197 0.72316
 C2417 C 0.95556 0.73456 0.17490
 C2418 C 0.93563 0.73094 0.19180
 C2419 C 0.91360 0.74322 0.18715
 C2420 C 0.91141 0.75848 0.16479
 C2421 C 0.93098 0.76154 0.14748
 C2422 C 0.95356 0.75001 0.15246
 N2423 N 0.89330 0.73945 0.20453
 N2424 N 0.87710 0.75598 0.20745
 C2425 C 0.85520 0.75251 0.22236
 C2426 C 0.84087 0.77290 0.22853
 C2427 C 0.81742 0.77009 0.23864
 C2428 C 0.80734 0.74676 0.24200
 C2429 C 0.82283 0.72633 0.23814
 C2430 C 0.84648 0.72916 0.22837
 H2431 H 0.97253 0.72557 0.17988
 H2432 H 0.93753 0.71896 0.20888
 H2433 H 0.89435 0.76766 0.16040
 H2434 H 0.92815 0.77289 0.13008
 H2435 H 0.84758 0.79108 0.22459
 H2436 H 0.80732 0.78633 0.24333
 H2437 H 0.81624 0.70794 0.24101
 H2438 H 0.85730 0.71307 0.22397
 C2439 C 0.46653 0.22865 0.68129
 C2440 C 0.44736 0.22626 0.69958
 C2441 C 0.42361 0.23303 0.69230
 C2442 C 0.41908 0.24077 0.66601
 C2443 C 0.43801 0.24291 0.64781
 C2444 C 0.46207 0.23762 0.65540
 N2445 N 0.40424 0.23285 0.71152
 N2446 N 0.38564 0.24627 0.70721
 C2447 C 0.36402 0.24740 0.72296
 C2448 C 0.34601 0.26359 0.71438
 C2449 C 0.32290 0.26298 0.72528
 C2450 C 0.31708 0.24656 0.74596
 C2451 C 0.33581 0.23121 0.75586
 C2452 C 0.35917 0.23151 0.74431
 H2453 H 0.48489 0.22449 0.68777
 H2454 H 0.45118 0.22008 0.71967
 H2455 H 0.40084 0.24552 0.65956
 H2456 H 0.43380 0.24918 0.62784
 H2457 H 0.34947 0.27573 0.69778
 H2458 H 0.30923 0.27445 0.71597
 H2459 H 0.33204 0.21795 0.77129
 H2460 H 0.37291 0.21868 0.75114
 C2461 C 0.43930 0.74701 0.86953
 C2462 C 0.41731 0.74384 0.85618
 C2463 C 0.41579 0.74699 0.82857
 C2464 C 0.43697 0.75227 0.81409
 C2465 C 0.45926 0.75499 0.82747
 C2466 C 0.46037 0.75296 0.85537
 N2467 N 0.39222 0.74569 0.81648
 N2468 N 0.38738 0.75140 0.79241
 C2469 C 0.36272 0.75032 0.78285
 C2470 C 0.35666 0.75914 0.75739
 C2471 C 0.33228 0.75981 0.74882
 C2472 C 0.31360 0.75161 0.76565
 C2473 C 0.32005 0.74227 0.79091
 C2474 C 0.34415 0.74156 0.79931
 H2475 H 0.43981 0.74532 0.89103
 H2476 H 0.40113 0.73971 0.86753
 H2477 H 0.43619 0.75469 0.79269
 H2478 H 0.47535 0.75971 0.81627
 H2479 H 0.37073 0.76600 0.74441
 H2480 H 0.32807 0.76715 0.72930
 H2481 H 0.30647 0.73544 0.80452
 H2482 H 0.34816 0.73446 0.81899
 C2483 C 0.95086 0.29029 0.33402
 C2484 C 0.93169 0.28864 0.31589
 C2485 C 0.92463 0.26601 0.30595
 C2486 C 0.93806 0.24501 0.31304
 C2487 C 0.95803 0.24673 0.33040
 C2488 C 0.96419 0.26934 0.34195
 N2489 N 0.90257 0.26476 0.29078
 N2490 N 0.88954 0.24569 0.29069
 C2491 C 0.86637 0.24510 0.27764
 C2492 C 0.84805 0.23129 0.28927
 C2493 C 0.82423 0.23312 0.28000
 C2494 C 0.81827 0.24762 0.25761
 C2495 C 0.83707 0.26062 0.24510
 C2496 C 0.86087 0.25969 0.25530
 H2497 H 0.95543 0.30824 0.34142
 H2498 H 0.92155 0.30497 0.31052
 H2499 H 0.93286 0.22728 0.30553
 H2500 H 0.96741 0.23006 0.33606
 H2501 H 0.85196 0.22030 0.30675
 H2502 H 0.81037 0.22357 0.29104
 H2503 H 0.83325 0.27234 0.22818
 H2504 H 0.87485 0.27062 0.24610
 C2505 C 0.05744 0.29426 0.33336
 C2506 C 0.07723 0.29345 0.31610
 C2507 C 0.08497 0.27135 0.30503
 C2508 C 0.07204 0.24997 0.31065
 C2509 C 0.05231 0.25067 0.32833
 C2510 C 0.04524 0.27274 0.34061
 N2511 N 0.10776 0.27090 0.29137
 N2512 N 0.11489 0.25379 0.27603
 C2513 C 0.13938 0.25395 0.26621
 C2514 C 0.14570 0.24165 0.24268
 C2515 C 0.16998 0.24119 0.23390
 C2516 C 0.18833 0.25256 0.24895
 C2517 C 0.18167 0.26439 0.27279
 C2518 C 0.15761 0.26545 0.28099
 H2519 H 0.05206 0.31182 0.34134
 H2520 H 0.08706 0.31007 0.31190
 H2521 H 0.07793 0.23262 0.30249
 H2522 H 0.04341 0.23376 0.33308
 H2523 H 0.13187 0.23243 0.23119
 H2524 H 0.17441 0.23148 0.21577
 H2525 H 0.19509 0.27283 0.28551
 H2526 H 0.15337 0.27463 0.29952
 C2527 C 0.55393 0.78790 0.83115
 C2528 C 0.57329 0.78772 0.81325
 C2529 C 0.58277 0.76567 0.80369
 C2530 C 0.57208 0.74362 0.81157
 C2531 C 0.55292 0.74372 0.82997
 C2532 C 0.54403 0.76588 0.84052
 N2533 N 0.60512 0.76618 0.78917
 N2534 N 0.61269 0.74883 0.77441
 C2535 C 0.63670 0.74969 0.76336
 C2536 C 0.64239 0.73691 0.73997
 C2537 C 0.66625 0.73686 0.73001
 C2538 C 0.68490 0.74904 0.74378
 C2539 C 0.67892 0.76144 0.76749
 C2540 C 0.65515 0.76215 0.77683
 H2541 H 0.54719 0.80535 0.83819
 H2542 H 0.58144 0.80483 0.80739
 H2543 H 0.57942 0.72634 0.80473
 H2544 H 0.54604 0.72640 0.83690
 H2545 H 0.62838 0.72697 0.72951
 H2546 H 0.67016 0.72677 0.71197
 H2547 H 0.69267 0.77056 0.77919
 H2548 H 0.65135 0.77174 0.79522
 C2549 C 0.54983 0.26568 0.67995
 C2550 C 0.57028 0.26482 0.69659
 C2551 C 0.58632 0.24487 0.69559
 C2552 C 0.58059 0.22483 0.67924
 C2553 C 0.55981 0.22541 0.66310
 C2554 C 0.54480 0.24623 0.66260
 N2555 N 0.60937 0.24641 0.70891
 N2556 N 0.62745 0.23400 0.70057
 C2557 C 0.65144 0.23541 0.71155
 C2558 C 0.67057 0.22672 0.69603
 C2559 C 0.69445 0.22864 0.70480
 C2560 C 0.69990 0.23850 0.73006
 C2561 C 0.68053 0.24699 0.74595
 C2562 C 0.65642 0.24570 0.73664
 H2563 H 0.53837 0.28186 0.67996
 H2564 H 0.57443 0.28038 0.70904
 H2565 H 0.59263 0.20911 0.67827
 H2566 H 0.55630 0.21027 0.64980
 H2567 H 0.66696 0.21884 0.67665
 H2568 H 0.70860 0.22182 0.69179
 H2569 H 0.68400 0.25476 0.76540
 H2570 H 0.64177 0.25256 0.74897
 C2571 C 0.04752 0.72678 0.16448
 C2572 C 0.06731 0.72298 0.18162
 C2573 C 0.07616 0.74207 0.19738
 C2574 C 0.06421 0.76482 0.19677
 C2575 C 0.04464 0.76875 0.17937
 C2576 C 0.03659 0.74995 0.16249
 N2577 N 0.09908 0.73888 0.21065
 N2578 N 0.10762 0.75409 0.22738
 C2579 C 0.13213 0.75160 0.23704
 C2580 C 0.13998 0.76504 0.25920
 C2581 C 0.16460 0.76474 0.26684
 C2582 C 0.18184 0.75137 0.25201
 C2583 C 0.17360 0.73792 0.22985
 C2584 C 0.14915 0.73767 0.22281
 H2585 H 0.04178 0.71207 0.15158
 H2586 H 0.07651 0.70541 0.18172
 H2587 H 0.07080 0.77990 0.20861
 H2588 H 0.03631 0.78672 0.17842
 H2589 H 0.12712 0.77616 0.27021
 H2590 H 0.17023 0.77564 0.28370
 H2591 H 0.18611 0.72777 0.21739
 H2592 H 0.14376 0.72746 0.20534
   
