data_POSCAR
  _audit_creation_date              2014-09-24
  _audit_creation_method            'ToBaCCo'
  _symmetry_space_group_name_H-M    'P1'
  _symmetry_Int_Tables_number       1
  _symmetry_cell_setting            triclinic
  loop_
  _symmetry_equiv_pos_as_xyz
 x,y,z
_cell_length_a 38.8375
_cell_length_b 38.8733
_cell_length_c 42.9190
_cell_angle_alpha 89.694500
_cell_angle_beta 90.236400
_cell_angle_gamma 90.196800
loop_
  _atom_site_label
  _atom_site_type_symbol
  _atom_site_fract_x
  _atom_site_fract_y
  _atom_site_fract_z
C1 C 0.43206 0.00835 0.28413
 C2 C 0.40556 0.03776 0.28146
 C3 C 0.38597 0.03812 0.25468
 C4 C 0.39372 0.00658 0.23364
 C5 C 0.41115 -0.02443 0.28028
 C6 C 0.39021 -0.02605 0.25516
 C7 C 0.45298 0.01096 0.25391
 C8 C 0.43324 0.01055 0.22716
 H9 H 0.40492 0.05869 0.29811
 H10 H 0.37760 0.00500 0.21238
 H11 H 0.41224 -0.04529 0.29726
 H12 H 0.48085 0.01266 0.25394
 C13 C 0.06771 -0.00167 0.77809
 C14 C 0.09549 -0.03000 0.77830
 C15 C 0.11633 -0.03107 0.75262
 C16 C 0.10784 -0.00154 0.72925
 C17 C 0.08734 0.03183 0.77314
 C18 C 0.10954 0.03246 0.74890
 C19 C 0.04901 -0.00667 0.74905
 C20 C 0.07080 -0.00718 0.72163
 H21 H 0.09601 -0.05015 0.79593
 H22 H 0.12504 -0.00057 0.70877
 H23 H 0.08519 0.05335 0.78910
 H24 H 0.02111 -0.00781 0.74813
 C25 C 0.56994 0.50222 0.27906
 C26 C 0.59747 0.47376 0.27841
 C27 C 0.61769 0.47280 0.25239
 C28 C 0.60906 0.50244 0.22934
 C29 C 0.58938 0.53563 0.27348
 C30 C 0.61104 0.53624 0.24895
 C31 C 0.54949 0.49700 0.24866
 C32 C 0.56978 0.49682 0.22224
 H33 H 0.59837 0.45352 0.29596
 H34 H 0.62545 0.50330 0.20833
 H35 H 0.58762 0.55721 0.28942
 H36 H 0.52167 0.49474 0.24821
 C37 C 0.93182 0.50937 0.78385
 C38 C 0.90562 0.53919 0.78151
 C39 C 0.88588 0.53997 0.75479
 C40 C 0.89319 0.50864 0.73352
 C41 C 0.91058 0.47685 0.77969
 C42 C 0.88913 0.47602 0.75491
 C43 C 0.95264 0.51207 0.75365
 C44 C 0.93282 0.51224 0.72695
 H45 H 0.90505 0.55983 0.79845
 H46 H 0.87706 0.50732 0.71226
 H47 H 0.91128 0.45589 0.79658
 H48 H 0.98053 0.51342 0.75362
 C49 C 0.28892 0.36423 0.99552
 C50 C 0.28721 0.33767 1.02152
 C51 C 0.25813 0.31801 1.02265
 C52 C 0.23331 0.32520 0.99466
 C53 C 0.28475 0.34298 0.96598
 C54 C 0.25631 0.32185 0.96499
 C55 C 0.25466 0.38434 0.99752
 C56 C 0.22511 0.36431 0.99696
 H57 H 0.30609 0.33744 1.04031
 H58 H 0.21035 0.30823 0.99417
 H59 H 0.30217 0.34596 0.94641
 H60 H 0.25420 0.41221 0.99723
 C61 C 0.77836 0.13501 1.00009
 C62 C 0.77992 0.16373 0.97610
 C63 C 0.75177 0.18447 0.97419
 C64 C 0.72455 0.17578 1.00026
 C65 C 0.77374 0.15423 1.03064
 C66 C 0.74606 0.17632 1.03135
 C67 C 0.74554 0.11747 0.99528
 C68 C 0.71522 0.13907 0.99577
 H69 H 0.80086 0.16542 0.95940
 H70 H 0.70251 0.19374 1.00042
 H71 H 0.79053 0.14993 1.05058
 H72 H 0.74382 0.08959 0.99585
 C73 C 0.28513 0.63722 0.50117
 C74 C 0.28520 0.66334 0.47512
 C75 C 0.25708 0.68388 0.47287
 C76 C 0.23102 0.67777 0.50044
 C77 C 0.28144 0.65904 0.53036
 C78 C 0.25355 0.68090 0.53060
 C79 C 0.25037 0.61812 0.49857
 C80 C 0.22157 0.63864 0.49970
 H81 H 0.30545 0.66367 0.45768
 H82 H 0.20880 0.69551 0.49972
 H83 H 0.29762 0.65465 0.55069
 H84 H 0.24875 0.59023 0.49862
 C85 C 0.78662 0.86378 0.49735
 C86 C 0.78429 0.83741 0.52328
 C87 C 0.75503 0.81807 0.52400
 C88 C 0.73095 0.82499 0.49538
 C89 C 0.78315 0.84242 0.46782
 C90 C 0.75471 0.82128 0.46635
 C91 C 0.75243 0.88402 0.49874
 C92 C 0.72292 0.86414 0.49649
 H93 H 0.80297 0.83689 0.54223
 H94 H 0.70787 0.80815 0.49480
 H95 H 0.80064 0.84587 0.44836
 H96 H 0.75209 0.91177 0.50100
 C97 C -0.00079 0.28244 0.39811
 C98 C 0.03443 0.26992 0.38845
 C99 C 0.03341 0.24239 0.36893
 C100 C -0.00320 0.22937 0.36218
 C101 C -0.01929 0.28822 0.36926
 C102 C -0.02215 0.25868 0.34968
 C103 C -0.01765 0.25116 0.41345
 C104 C -0.01814 0.22265 0.39478
 H105 H 0.05766 0.28499 0.39240
 H106 H -0.00342 0.20665 0.34701
 H107 H -0.03592 0.31044 0.36605
 H108 H -0.02124 0.24965 0.43850
 C109 C 0.00243 0.77088 0.10122
 C110 C -0.03235 0.75470 0.10730
 C111 C -0.03131 0.72932 0.12937
 C112 C 0.00538 0.71979 0.13958
 C113 C 0.01685 0.77993 0.13329
 C114 C 0.02076 0.75276 0.15276
 C115 C 0.02435 0.74137 0.08921
 C116 C 0.02490 0.71363 0.10908
 H117 H -0.05602 0.76796 0.10104
 H118 H 0.00608 0.69808 0.15615
 H119 H 0.03069 0.80395 0.13718
 H120 H 0.03096 0.73934 0.06472
 C121 C 0.50167 0.27183 0.59880
 C122 C 0.46669 0.25615 0.60500
 C123 C 0.46757 0.23042 0.62675
 C124 C 0.50409 0.22081 0.63726
 C125 C 0.51618 0.28074 0.63093
 C126 C 0.51972 0.25354 0.65042
 C127 C 0.52329 0.24200 0.58689
 C128 C 0.52378 0.21450 0.60702
 H129 H 0.44312 0.26961 0.59880
 H130 H 0.50454 0.19925 0.65395
 H131 H 0.53037 0.30455 0.63481
 H132 H 0.52996 0.23971 0.56244
 C133 C 0.49790 0.78353 0.89891
 C134 C 0.51917 0.78563 0.86927
 C135 C 0.51877 0.75648 0.85183
 C136 C 0.49553 0.72839 0.86557
 C137 C 0.46195 0.77466 0.88782
 C138 C 0.46033 0.74578 0.87004
 C139 C 0.50981 0.75343 0.91553
 C140 C 0.50891 0.72269 0.89707
 H141 H 0.53852 0.80563 0.86610
 H142 H 0.49410 0.70497 0.85108
 H143 H 0.44077 0.79272 0.88969
 H144 H 0.51372 0.75355 0.94057
 C145 C -0.24029 0.68267 0.96681
 C146 C -0.21055 0.65638 0.96911
 C147 C -0.20976 0.63671 0.99587
 C148 C -0.24101 0.64419 1.01726
 C149 C -0.27291 0.66159 0.97117
 C150 C -0.27377 0.64025 0.99603
 C151 C -0.23739 0.70354 0.99695
 C152 C -0.23722 0.68377 1.02370
 H153 H -0.18994 0.65573 0.95211
 H154 H -0.24232 0.62811 1.03856
 H155 H -0.29388 0.66223 0.95429
 H156 H -0.23593 0.73139 0.99690
 C157 C -0.24776 0.31812 0.47238
 C158 C -0.27614 0.34582 0.47281
 C159 C -0.27713 0.36603 0.49883
 C160 C -0.24765 0.35698 0.52202
 C161 C -0.21425 0.33750 0.47786
 C162 C -0.21366 0.35908 0.50244
 C163 C -0.25287 0.29862 0.50111
 C164 C -0.25322 0.31982 0.52902
 H165 H -0.29627 0.34684 0.45518
 H166 H -0.24670 0.37363 0.54285
 H167 H -0.19269 0.33583 0.46183
 H168 H -0.25441 0.27077 0.50138
 C169 C 0.24793 -0.18141 -0.02849
 C170 C 0.21952 -0.15368 -0.02865
 C171 C 0.21840 -0.13293 -0.00295
 C172 C 0.24801 -0.14138 0.02036
 C173 C 0.28144 -0.16175 -0.02358
 C174 C 0.28202 -0.13955 0.00062
 C175 C 0.24298 -0.20013 0.00055
 C176 C 0.24245 -0.17842 0.02797
 H177 H 0.19937 -0.15314 -0.04629
 H178 H 0.24898 -0.12423 0.04083
 H179 H 0.30303 -0.16395 -0.03951
 H180 H 0.24191 -0.22801 0.00148
 C181 C 0.25835 1.18168 0.46555
 C182 C 0.28769 1.15509 0.46817
 C183 C 0.28796 1.13545 0.49493
 C184 C 0.25642 1.14326 0.51599
 C185 C 0.22545 1.16093 0.46940
 C186 C 0.22378 1.13989 0.49446
 C187 C 0.26104 1.20250 0.49577
 C188 C 0.26055 1.18272 0.52251
 H189 H 0.30866 1.15442 0.45153
 H190 H 0.25476 1.12712 0.53725
 H191 H 0.20461 1.16210 0.45241
 H192 H 0.26285 1.23034 0.49575
 C193 C 0.11417 0.53667 0.25305
 C194 C 0.08660 0.53528 0.22800
 C195 C 0.06720 0.50605 0.22704
 C196 C 0.07537 0.48101 0.25465
 C197 C 0.09407 0.53217 0.28320
 C198 C 0.07304 0.50368 0.28459
 C199 C 0.13432 0.50254 0.25017
 C200 C 0.11440 0.47297 0.25122
 H201 H 0.08574 0.55431 0.20935
 H202 H 0.05845 0.45804 0.25541
 H203 H 0.09769 0.54940 0.30280
 H204 H 0.16222 0.50216 0.24989
 C205 C -0.11415 1.03352 0.24923
 C206 C -0.08695 1.03359 0.27448
 C207 C -0.06716 1.00489 0.27684
 C208 C -0.07551 0.97822 0.25017
 C209 C -0.09336 1.02877 0.21964
 C210 C -0.07272 1.00005 0.21924
 C211 C -0.13327 1.00136 0.25277
 C212 C -0.11275 0.97021 0.25310
 H213 H -0.08550 1.05422 0.29148
 H214 H -0.05843 0.95545 0.25055
 H215 H -0.09667 1.04556 0.19953
 H216 H -0.16112 1.00095 0.25080
 C217 C 0.38610 0.53083 -0.25028
 C218 C 0.41326 0.53175 -0.22503
 C219 C 0.43451 0.50407 -0.22328
 C220 C 0.42816 0.47787 -0.25053
 C221 C 0.40708 0.52760 -0.28013
 C222 C 0.42984 0.50042 -0.28066
 C223 C 0.36810 0.49562 -0.24703
 C224 C 0.38933 0.46744 -0.24871
 H225 H 0.41405 0.55229 -0.20793
 H226 H 0.44643 0.45610 -0.25026
 H227 H 0.40222 0.54396 -0.30025
 H228 H 0.34024 0.49319 -0.24660
 C229 C 0.61419 0.03853 -0.24644
 C230 C 0.58759 0.03675 -0.27239
 C231 C 0.56778 0.00775 -0.27325
 C232 C 0.57488 -0.01685 -0.24510
 C233 C 0.59295 0.03466 -0.21684
 C234 C 0.57166 0.00638 -0.21562
 C235 C 0.63418 0.00421 -0.24823
 C236 C 0.61400 -0.02522 -0.24740
 H237 H 0.58739 0.05546 -0.29131
 H238 H 0.55780 -0.03970 -0.24439
 H239 H 0.59598 0.05223 -0.19741
 H240 H 0.66208 0.00363 -0.24801
 C241 C 0.03245 0.24949 0.85093
 C242 C 0.03510 0.27046 0.88070
 C243 C 0.00619 0.26997 0.89854
 C244 C -0.02223 0.24703 0.88500
 C245 C 0.02354 0.21351 0.86190
 C246 C -0.00508 0.21184 0.88004
 C247 C 0.00216 0.26171 0.83482
 C248 C -0.02835 0.26077 0.85367
 H249 H 0.05520 0.28973 0.88369
 H250 H -0.04543 0.24552 0.89982
 H251 H 0.04148 0.19228 0.85964
 H252 H 0.00186 0.26567 0.80977
 C253 C 0.52362 0.25222 0.15090
 C254 C 0.50798 0.21724 0.14478
 C255 C 0.48202 0.21811 0.12327
 C256 C 0.47235 0.25457 0.11272
 C257 C 0.53236 0.26676 0.11873
 C258 C 0.50503 0.27020 0.09936
 C259 C 0.49377 0.27375 0.16297
 C260 C 0.46615 0.27423 0.14298
 H261 H 0.52150 0.19370 0.15092
 H262 H 0.45069 0.25498 0.09614
 H263 H 0.55613 0.28101 0.11474
 H264 H 0.49158 0.28039 0.18742
 C265 C 0.01978 0.75189 0.64833
 C266 C 0.00373 0.71706 0.64236
 C267 C -0.02152 0.71793 0.62015
 C268 C -0.03109 0.75453 0.60969
 C269 C 0.02907 0.76607 0.61620
 C270 C 0.00199 0.76997 0.59663
 C271 C -0.00989 0.77378 0.66005
 C272 C -0.03754 0.77413 0.64008
 H273 H 0.01702 0.69349 0.64883
 H274 H -0.05268 0.75514 0.59299
 H275 H 0.05315 0.77983 0.61235
 H276 H -0.01210 0.78052 0.68449
 C277 C 0.53300 0.74912 0.35166
 C278 C 0.52032 0.78424 0.36114
 C279 C 0.49258 0.78325 0.38041
 C280 C 0.47943 0.74683 0.38720
 C281 C 0.53875 0.72972 0.38220
 C282 C 0.51032 0.72721 0.40049
 C283 C 0.50196 0.73194 0.33633
 C284 C 0.47326 0.73150 0.35477
 H285 H 0.53545 0.80745 0.35729
 H286 H 0.45673 0.74633 0.40247
 H287 H 0.56092 0.71308 0.38560
 H288 H 0.50072 0.72813 0.31130
 Zr289 Zr 0.02521 -0.03114 1.03927
 O290 O 0.06205 -0.01583 1.07298
 O291 O 0.01706 -0.08267 1.05000
 O292 O 0.00450 -0.03205 1.08576
 O293 O 0.08410 -0.04362 0.98004
 O294 O -0.04517 -0.00168 1.07975
 O295 O 0.07456 -0.05455 1.03148
 O296 O -0.02318 -0.10185 1.01507
 O297 O -0.02805 -0.03785 1.03273
 O298 O 0.01789 -0.05427 0.99575
 O299 O 0.00386 0.01852 1.04142
 O300 O 0.04854 0.00227 1.00648
 Zr301 Zr -0.03624 0.02162 0.95672
 Zr302 Zr -0.04876 0.01164 1.03290
 Zr303 Zr 0.03856 -0.02075 0.96336
 Zr304 Zr -0.03502 -0.05902 0.98838
 O305 O 0.08087 0.00826 0.94662
 O306 O -0.08109 -0.07597 1.01005
 O307 O -0.01410 -0.02768 0.95378
 O308 O -0.05893 -0.01117 0.98976
 O309 O -0.02890 0.04574 0.99984
 O310 O 0.01708 0.02823 0.96309
 C311 C -0.00220 -0.10589 1.03773
 C312 C 0.09344 -0.05608 1.00660
 C313 C -0.02355 -0.01852 1.09649
 O314 O -0.09470 -0.01428 1.04543
 O315 O -0.09046 0.04153 1.01852
 O316 O -0.08409 0.04709 0.96592
 C317 C -0.10053 0.05239 0.99176
 O318 O 0.06315 0.05799 1.04074
 Zr319 Zr 0.02405 0.05049 1.00661
 O320 O -0.03109 0.07294 0.94504
 O321 O -0.05319 0.05586 1.06123
 O322 O 0.00719 0.08987 1.03691
 O323 O 0.06988 0.06853 0.98523
 O324 O 0.01027 0.09284 0.97847
 C325 C -0.01104 0.09631 0.95563
 O326 O -0.07462 0.00588 0.92469
 O327 O 0.04916 -0.06693 0.93918
 O328 O -0.01654 0.01967 0.91005
 O329 O 0.02930 -0.01649 0.91579
 O330 O -0.01919 -0.09855 0.95776
 O331 O -0.07199 -0.06546 0.95220
 C332 C 0.00908 0.00212 0.89912
 H333 H 0.02963 -0.07670 0.99372
 H334 H -0.08396 -0.01389 0.98600
 H335 H 0.02765 0.04250 0.94649
 H336 H 0.00819 0.02904 1.06203
 H337 H -0.08410 -0.10073 1.00531
 H338 H -0.10642 0.00026 1.06102
 H339 H -0.07495 0.05362 1.07309
 H340 H 0.01995 0.11115 1.03139
 H341 H -0.03341 -0.11922 0.96219
 H342 H 0.07045 -0.06315 0.92693
 H343 H 0.09363 -0.00692 0.93228
 H344 H 0.07135 0.09366 0.98882
 H345 H -0.08256 -0.08859 0.95393
 H346 H -0.08006 0.02625 0.91157
 H347 H 0.06751 -0.03648 1.08573
 H348 H 0.06971 0.08262 1.04131
 Zr349 Zr 0.53106 0.46927 0.54122
 O350 O 0.56780 0.48079 0.57625
 O351 O 0.52065 0.41769 0.54960
 O352 O 0.50983 0.46782 0.58752
 O353 O 0.59149 0.45967 0.48277
 O354 O 0.45974 0.49754 0.58131
 O355 O 0.57995 0.44516 0.53317
 O356 O 0.48152 0.40103 0.51262
 O357 O 0.47788 0.46400 0.53318
 O358 O 0.52448 0.44885 0.49649
 O359 O 0.51064 0.51908 0.54535
 O360 O 0.55613 0.50382 0.51059
 Zr361 Zr 0.47320 0.52869 0.46019
 Zr362 Zr 0.45815 0.51379 0.53523
 Zr363 Zr 0.54666 0.48382 0.46614
 Zr364 Zr 0.47173 0.44573 0.48767
 O365 O 0.58960 0.51282 0.45070
 O366 O 0.42448 0.42873 0.50711
 O367 O 0.49411 0.47896 0.45536
 O368 O 0.44894 0.49405 0.49075
 O369 O 0.47987 0.54966 0.50468
 O370 O 0.52648 0.53333 0.46789
 C371 C 0.50129 0.39554 0.53592
 C372 C 0.59963 0.44506 0.50875
 C373 C 0.48150 0.48097 0.59806
 O374 O 0.41163 0.48772 0.54570
 O375 O 0.41653 0.54392 0.52144
 O376 O 0.42554 0.55429 0.46979
 C377 C 0.40772 0.55705 0.49520
 O378 O 0.57098 0.55593 0.54836
 Zr379 Zr 0.53287 0.55241 0.51281
 O380 O 0.48129 0.58079 0.45147
 O381 O 0.45368 0.55675 0.56506
 O382 O 0.51657 0.59047 0.54472
 O383 O 0.57988 0.57003 0.49333
 O384 O 0.52180 0.59703 0.48723
 C385 C 0.50163 0.60284 0.46406
 O386 O 0.43485 0.51755 0.42652
 O387 O 0.55714 0.43863 0.44044
 O388 O 0.49279 0.52709 0.41356
 O389 O 0.53800 0.49006 0.41863
 O390 O 0.48804 0.40794 0.45550
 O391 O 0.43592 0.44216 0.45023
 C392 C 0.51776 0.50898 0.40226
 H393 H 0.53575 0.42626 0.49378
 H394 H 0.42400 0.49200 0.48621
 H395 H 0.53774 0.54820 0.45211
 H396 H 0.51455 0.52840 0.56649
 H397 H 0.42107 0.40436 0.50112
 H398 H 0.39983 0.50115 0.56205
 H399 H 0.43174 0.55414 0.57658
 H400 H 0.53078 0.61133 0.54112
 H401 H 0.47352 0.38720 0.45860
 H402 H 0.57876 0.44262 0.42873
 H403 H 0.60187 0.49832 0.43548
 H404 H 0.58257 0.59462 0.49884
 H405 H 0.42510 0.41906 0.45040
 H406 H 0.43074 0.53910 0.41459
 H407 H 0.57209 0.45918 0.58804
 H408 H 0.57880 0.58011 0.55025
 Zr409 Zr 0.47336 1.01928 0.54714
 O410 O 0.43357 1.00896 0.57945
 O411 O 0.49071 1.06686 0.56363
 O412 O 0.49223 1.01099 0.59330
 O413 O 0.42446 1.05276 0.48587
 O414 O 0.53211 0.96830 0.58851
 O415 O 0.42686 1.04867 0.53882
 O416 O 0.54149 1.07583 0.53817
 O417 O 0.52706 1.01398 0.54413
 O418 O 0.48930 1.04643 0.50742
 O419 O 0.48338 0.96602 0.54542
 O420 O 0.44670 0.99682 0.50953
 Zr421 Zr 0.52857 0.96524 0.46290
 Zr422 Zr 0.53685 0.96133 0.54023
 Zr423 Zr 0.46532 1.02276 0.47003
 Zr424 Zr 0.54235 1.03933 0.50346
 O425 O 0.41863 1.00778 0.44838
 O426 O 0.59124 1.04206 0.52562
 O427 O 0.51870 1.01855 0.46407
 O428 O 0.55471 0.98762 0.50065
 O429 O 0.51276 0.93735 0.50251
 O430 O 0.47492 0.97032 0.46611
 C431 C 0.51821 1.08418 0.55754
 C432 C 0.41206 1.05863 0.51299
 C433 C 0.51523 0.99028 0.60466
 O434 O 0.58523 0.97493 0.55952
 O435 O 0.57578 0.92850 0.52383
 O436 O 0.57286 0.93308 0.47087
 C437 C 0.58755 0.92233 0.49642
 O438 O 0.41712 0.94420 0.53759
 Zr439 Zr 0.45947 0.94463 0.50638
 O440 O 0.51218 0.91776 0.44707
 O441 O 0.52928 0.91250 0.56109
 O442 O 0.46397 0.89879 0.53309
 O443 O 0.41261 0.94014 0.48113
 O444 O 0.46414 0.90387 0.47510
 C445 C 0.48664 0.89824 0.45403
 O446 O 0.56996 0.97516 0.43217
 O447 O 0.46966 1.07303 0.45107
 O448 O 0.51182 0.97601 0.41607
 O449 O 0.47537 1.02134 0.42244
 O450 O 0.53680 1.08750 0.48056
 O451 O 0.58036 1.04280 0.46806
 C452 C 0.49107 0.99946 0.40541
 H453 H 0.48281 1.07104 0.50791
 H454 H 0.58001 0.98630 0.49847
 H455 H 0.46248 0.96089 0.44787
 H456 H 0.47515 0.95427 0.56453
 H457 H 0.60007 1.06588 0.52315
 H458 H 0.59238 0.95575 0.57341
 H459 H 0.54977 0.90805 0.57434
 H460 H 0.44633 0.88241 0.52537
 H461 H 0.55511 1.10292 0.48861
 H462 H 0.44926 1.07685 0.43754
 H463 H 0.41184 1.02689 0.43429
 H464 H 0.40420 0.91617 0.48362
 H465 H 0.59429 1.06392 0.47104
 H466 H 0.57114 0.95545 0.41761
 H467 H 0.43195 1.02936 0.59317
 H468 H 0.40534 0.92160 0.53659
 Zr469 Zr -0.02528 0.51876 1.04674
 O470 O -0.06502 0.50822 1.07904
 O471 O -0.00811 0.56643 1.06319
 O472 O -0.00630 0.51049 1.09284
 O473 O -0.07563 0.55037 0.98565
 O474 O 0.03449 0.46865 1.08786
 O475 O -0.07161 0.54845 1.03861
 O476 O 0.04091 0.57717 1.03555
 O477 O 0.02850 0.51443 1.04311
 O478 O -0.01050 0.54541 1.00642
 O479 O -0.01425 0.46569 1.04550
 O480 O -0.05231 0.49524 1.00986
 Zr481 Zr 0.02925 0.46407 0.96231
 Zr482 Zr 0.03925 0.46188 1.03959
 Zr483 Zr -0.03473 0.52061 0.96971
 Zr484 Zr 0.04256 0.53934 1.00186
 O485 O -0.08131 0.50397 0.94890
 O486 O 0.09137 0.54291 1.02407
 O487 O 0.01860 0.51726 0.96315
 O488 O 0.05575 0.48777 0.99930
 O489 O 0.01471 0.43699 1.00271
 O490 O -0.02440 0.46814 0.96618
 C491 C 0.01858 0.58455 1.05619
 C492 C -0.08710 0.55749 1.01284
 C493 C 0.01699 0.49004 1.10412
 O494 O 0.08730 0.47703 1.05858
 O495 O 0.07895 0.42989 1.02297
 O496 O 0.07438 0.43307 0.96995
 C497 C 0.09000 0.42329 0.99536
 O498 O -0.08133 0.44429 1.03806
 Zr499 Zr -0.03864 0.44325 1.00726
 O500 O 0.01395 0.41523 0.94841
 O501 O 0.03319 0.41283 1.06043
 O502 O -0.03477 0.39895 1.03614
 O503 O -0.08465 0.43624 0.98120
 O504 O -0.03173 0.40026 0.97906
 C505 C -0.00942 0.39427 0.95795
 O506 O 0.06964 0.47379 0.93044
 O507 O -0.03220 0.57067 0.95000
 O508 O 0.01153 0.47416 0.91558
 O509 O -0.02493 0.51940 0.92216
 O510 O 0.03601 0.58670 0.97780
 O511 O 0.08032 0.54325 0.96627
 C512 C -0.00929 0.49763 0.90502
 H513 H -0.01732 0.56993 1.00675
 H514 H 0.08102 0.48694 0.99672
 H515 H -0.03671 0.45785 0.94824
 H516 H -0.02206 0.45407 1.06481
 H517 H 0.09976 0.56688 1.02165
 H518 H 0.09519 0.45805 1.07235
 H519 H 0.05381 0.40899 1.07366
 H520 H -0.05271 0.38239 1.02933
 H521 H 0.05392 0.60279 0.98551
 H522 H -0.05286 0.57372 0.93662
 H523 H -0.08906 0.52285 0.93498
 H524 H -0.09241 0.41219 0.98452
 H525 H 0.09443 0.56420 0.96954
 H526 H 0.07079 0.45368 0.91632
 H527 H -0.06669 0.52856 1.09282
 H528 H -0.09392 0.42214 1.03692
 Zr529 Zr -0.03006 0.47552 0.46362
 O530 O -0.06794 0.48664 0.42952
 O531 O -0.01878 0.42507 0.45356
 O532 O -0.00890 0.47463 0.41720
 O533 O -0.08714 0.45936 0.52524
 O534 O 0.03875 0.50871 0.42224
 O535 O -0.07771 0.44908 0.47369
 O536 O 0.02380 0.40960 0.48776
 O537 O 0.02353 0.47335 0.47026
 O538 O -0.02109 0.45407 0.50782
 O539 O -0.01210 0.52639 0.45922
 O540 O -0.05591 0.50744 0.49532
 Zr541 Zr 0.02710 0.53594 0.54397
 Zr542 Zr 0.04084 0.52430 0.46848
 Zr543 Zr -0.04388 0.48701 0.53940
 Zr544 Zr 0.03193 0.45359 0.51498
 O545 O -0.08994 0.51125 0.55369
 O546 O 0.07971 0.44070 0.49442
 O547 O 0.00918 0.48474 0.54885
 O548 O 0.05209 0.50348 0.51237
 O549 O 0.01801 0.55795 0.49995
 O550 O -0.02646 0.53731 0.53701
 C551 C 0.00284 0.40377 0.46519
 C552 C -0.09585 0.44624 0.49909
 C553 C 0.01845 0.48967 0.40613
 O554 O 0.08851 0.50167 0.45667
 O555 O 0.08134 0.55666 0.48199
 O556 O 0.07362 0.56487 0.53394
 C557 C 0.09079 0.56946 0.50818
 O558 O -0.07334 0.55931 0.45679
 Zr559 Zr -0.03534 0.55725 0.49255
 O560 O 0.01407 0.58638 0.55380
 O561 O 0.04212 0.56813 0.43901
 O562 O -0.02031 0.59775 0.46218
 O563 O -0.08381 0.57078 0.51144
 O564 O -0.02922 0.60085 0.51990
 C565 C -0.00936 0.60653 0.54314
 O566 O 0.06688 0.52717 0.57688
 O567 O -0.04643 0.44133 0.56642
 O568 O 0.00837 0.53210 0.59113
 O569 O -0.03974 0.49855 0.58648
 O570 O 0.01906 0.41261 0.54565
 O571 O 0.06842 0.45050 0.55193
 C572 C -0.01826 0.51611 0.60262
 H573 H -0.03092 0.43070 0.51038
 H574 H 0.07720 0.50285 0.51639
 H575 H -0.03889 0.55064 0.55296
 H576 H -0.01693 0.53580 0.43818
 H577 H 0.08429 0.41617 0.49923
 H578 H 0.09900 0.51628 0.44023
 H579 H 0.06385 0.56709 0.42702
 H580 H -0.03576 0.61750 0.46605
 H581 H 0.03475 0.39321 0.54113
 H582 H -0.06832 0.44200 0.57820
 H583 H -0.10032 0.49664 0.57020
 H584 H -0.08864 0.59497 0.50547
 H585 H 0.08100 0.42845 0.55059
 H586 H 0.06939 0.54860 0.58916
 H587 H -0.07209 0.46499 0.41793
 H588 H -0.08111 0.58336 0.45400
 Zr589 Zr 0.46537 -0.02118 -0.03762
 O590 O 0.42706 -0.00922 -0.07108
 O591 O 0.47614 -0.07155 -0.04855
 O592 O 0.48633 -0.02108 -0.08417
 O593 O 0.41120 -0.04275 0.02491
 O594 O 0.53195 0.01574 -0.07956
 O595 O 0.41794 -0.04806 -0.02764
 O596 O 0.52391 -0.08470 -0.01967
 O597 O 0.51919 -0.02149 -0.03267
 O598 O 0.47673 -0.04452 0.00536
 O599 O 0.48138 0.03049 -0.04056
 O600 O 0.43978 0.00822 -0.00379
 Zr601 Zr 0.52376 0.03669 0.04336
 Zr602 Zr 0.53468 0.03005 -0.03300
 Zr603 Zr 0.45404 -0.01409 0.03900
 Zr604 Zr 0.53004 -0.04332 0.01076
 O605 O 0.40770 0.00770 0.05558
 O606 O 0.57825 -0.05318 -0.01040
 O607 O 0.50751 -0.01514 0.04675
 O608 O 0.54851 0.00713 0.00945
 O609 O 0.51215 0.06095 0.00077
 O610 O 0.46992 0.03683 0.03811
 C611 C 0.50099 -0.09122 -0.04041
 C612 C 0.40109 -0.05337 -0.00182
 C613 C 0.51275 -0.00460 -0.09546
 O614 O 0.58300 0.01039 -0.04682
 O615 O 0.57362 0.06449 -0.01957
 O616 O 0.57036 0.06546 0.03342
 C617 C 0.58539 0.07347 0.00722
 O618 O 0.41883 0.06125 -0.03918
 Zr619 Zr 0.45861 0.05878 -0.00508
 O620 O 0.51069 0.08645 0.05504
 O621 O 0.53261 0.07474 -0.06136
 O622 O 0.47084 0.10110 -0.03443
 O623 O 0.41079 0.07010 0.01621
 O624 O 0.46512 0.10119 0.02381
 C625 C 0.48642 0.10652 0.04609
 O626 O 0.56415 0.02725 0.07551
 O627 O 0.45432 -0.06103 0.06426
 O628 O 0.50636 0.03100 0.09072
 O629 O 0.45940 -0.00419 0.08637
 O630 O 0.51949 -0.08747 0.03841
 O631 O 0.56676 -0.04688 0.04748
 C632 C 0.48060 0.01386 0.10241
 H633 H 0.46773 -0.06830 0.00723
 H634 H 0.57377 0.00696 0.01259
 H635 H 0.45782 0.04921 0.05490
 H636 H 0.47544 0.04056 -0.06112
 H637 H 0.58395 -0.07765 -0.00644
 H638 H 0.59212 0.02614 -0.06306
 H639 H 0.55399 0.07527 -0.07391
 H640 H 0.45511 0.12017 -0.02904
 H641 H 0.53615 -0.10550 0.03242
 H642 H 0.43291 -0.06172 0.07674
 H643 H 0.39838 -0.00814 0.07167
 H644 H 0.40516 0.09443 0.01146
 H645 H 0.58002 -0.06844 0.04534
 H646 H 0.56685 0.04835 0.08822
 H647 H 0.42298 -0.03050 -0.08321
 H648 H 0.41022 0.08514 -0.04073
 Zr649 Zr 0.54413 0.52105 -0.04583
 O650 O 0.58295 0.50641 -0.07742
 O651 O 0.53490 0.57108 -0.06112
 O652 O 0.52327 0.51770 -0.09269
 O653 O 0.59902 0.54074 0.01724
 O654 O 0.47804 0.48048 -0.08730
 O655 O 0.59202 0.54729 -0.03537
 O656 O 0.49145 0.58891 -0.02945
 O657 O 0.49039 0.52471 -0.04149
 O658 O 0.53426 0.54580 -0.00347
 O659 O 0.52524 0.47026 -0.04665
 O660 O 0.56779 0.49107 -0.01053
 Zr661 Zr 0.48218 0.46893 0.03694
 Zr662 Zr 0.47198 0.47402 -0.03977
 Zr663 Zr 0.55481 0.51478 0.03165
 Zr664 Zr 0.48118 0.54828 0.00128
 O665 O 0.59967 0.49023 0.04887
 O666 O 0.43434 0.56093 -0.02158
 O667 O 0.50159 0.51970 0.03858
 O668 O 0.45961 0.49912 0.00170
 O669 O 0.49252 0.44323 -0.00486
 O670 O 0.53584 0.46471 0.03251
 C671 C 0.51281 0.59323 -0.05192
 C672 C 0.60907 0.55180 -0.00937
 C673 C 0.49745 0.49992 -0.10379
 O674 O 0.42682 0.49795 -0.05684
 O675 O 0.42907 0.44548 -0.02508
 O676 O 0.43363 0.44395 0.02785
 C677 C 0.41752 0.43732 0.00194
 O678 O 0.58828 0.43777 -0.04125
 Zr679 Zr 0.54605 0.44175 -0.01014
 O680 O 0.48901 0.41732 0.04804
 O681 O 0.46952 0.42613 -0.06301
 O682 O 0.53505 0.40068 -0.04105
 O683 O 0.59050 0.42612 0.01503
 O684 O 0.53181 0.39889 0.01585
 C685 C 0.50941 0.39440 0.03725
 O686 O 0.44316 0.48271 0.06878
 O687 O 0.55762 0.56214 0.05570
 O688 O 0.50019 0.47389 0.08424
 O689 O 0.54888 0.50653 0.07942
 O690 O 0.49427 0.59178 0.02857
 O691 O 0.44379 0.55567 0.03665
 C692 C 0.52666 0.49006 0.09580
 H693 H 0.54445 0.56915 -0.00238
 H694 H 0.43443 0.50139 0.00445
 H695 H 0.54636 0.45118 0.04966
 H696 H 0.53119 0.45879 -0.06644
 H697 H 0.43054 0.58594 -0.01889
 H698 H 0.41535 0.48117 -0.07079
 H699 H 0.44850 0.42622 -0.07622
 H700 H 0.54985 0.38099 -0.03502
 H701 H 0.47938 0.61106 0.02170
 H702 H 0.57901 0.56171 0.06838
 H703 H 0.61004 0.50566 0.06469
 H704 H 0.59379 0.40123 0.01120
 H705 H 0.43213 0.57800 0.03332
 H706 H 0.43849 0.46217 0.08196
 H707 H 0.58744 0.52683 -0.09075
 H708 H 0.59725 0.41395 -0.04086
 Zr709 Zr 0.03658 1.02626 0.45653
 O710 O 0.07539 1.01641 0.42337
 O711 O 0.02234 1.07612 0.44279
 O712 O 0.01592 1.02147 0.40970
 O713 O 0.09292 1.04551 0.51873
 O714 O -0.02824 0.98304 0.41520
 O715 O 0.08416 1.05335 0.46653
 O716 O -0.02220 1.08918 0.47507
 O717 O -0.01706 1.02702 0.46238
 O718 O 0.02685 1.04926 0.49972
 O719 O 0.02036 0.97450 0.45499
 O720 O 0.06243 0.99610 0.49050
 Zr721 Zr -0.02057 0.96884 0.53934
 Zr722 Zr -0.03284 0.97559 0.46283
 Zr723 Zr 0.04984 1.01804 0.53353
 Zr724 Zr -0.02620 1.04858 0.50617
 O725 O 0.09604 0.99496 0.54948
 O726 O -0.07552 1.05966 0.48722
 O727 O -0.00326 1.02021 0.54214
 O728 O -0.04542 0.99872 0.50525
 O729 O -0.01022 0.94480 0.49671
 O730 O 0.03310 0.96710 0.53369
 C731 C -0.00199 1.09574 0.45240
 C732 C 0.10212 1.05721 0.49210
 C733 C -0.00923 1.00276 0.39859
 O734 O -0.07883 0.99866 0.44661
 O735 O -0.07426 0.94533 0.47770
 O736 O -0.06872 0.94291 0.53057
 C737 C -0.08514 0.93650 0.50475
 O738 O 0.08492 0.94436 0.45856
 Zr739 Zr 0.04316 0.94570 0.49040
 O740 O -0.01196 0.91730 0.54845
 O741 O -0.03399 0.92807 0.43891
 O742 O 0.03314 0.90521 0.45861
 O743 O 0.08885 0.93149 0.51441
 O744 O 0.03125 0.90130 0.51563
 C745 C 0.00895 0.89540 0.53690
 O746 O -0.05887 0.97959 0.57282
 O747 O 0.05146 1.06503 0.55822
 O748 O -0.00104 0.97287 0.58630
 O749 O 0.04559 1.00835 0.58120
 O750 O -0.01335 1.09281 0.53260
 O751 O -0.06099 1.05211 0.54413
 C752 C 0.02494 0.99002 0.59768
 H753 H 0.03596 1.07305 0.50082
 H754 H -0.07058 0.99998 0.50856
 H755 H 0.04461 0.95352 0.55028
 H756 H 0.02647 0.96377 0.43490
 H757 H -0.08094 1.08394 0.49207
 H758 H -0.09001 0.98189 0.43246
 H759 H -0.05530 0.92756 0.42609
 H760 H 0.04880 0.88595 0.46390
 H761 H -0.03022 1.11098 0.52718
 H762 H 0.07310 1.06510 0.57055
 H763 H 0.10612 1.01034 0.56549
 H764 H 0.09299 0.90682 0.51018
 H765 H -0.07294 1.07456 0.54333
 H766 H -0.06223 0.95830 0.58534
 H767 H 0.07786 1.03772 0.41074
 H768 H 0.09478 0.92091 0.45819
 Zr769 Zr 0.72115 0.28139 0.20926
 O770 O 0.73343 0.31807 0.17439
 O771 O 0.66956 0.27128 0.20054
 O772 O 0.71890 0.25979 0.16307
 O773 O 0.71024 0.34088 0.26821
 O774 O 0.75163 0.21157 0.16857
 O775 O 0.69687 0.33013 0.21742
 O776 O 0.65296 0.23105 0.23659
 O777 O 0.71646 0.22814 0.21672
 O778 O 0.70017 0.27407 0.25374
 O779 O 0.77133 0.26173 0.20543
 O780 O 0.75500 0.30633 0.24059
 Zr781 Zr 0.77996 0.22312 0.29045
 Zr782 Zr 0.76662 0.20914 0.21499
 Zr783 Zr 0.73448 0.29610 0.28476
 Zr784 Zr 0.69744 0.22123 0.26191
 O785 O 0.76284 0.33908 0.30091
 O786 O 0.68115 0.17422 0.24164
 O787 O 0.72991 0.24341 0.29493
 O788 O 0.74609 0.19907 0.25910
 O789 O 0.80170 0.23067 0.24630
 O790 O 0.78427 0.27648 0.28334
 C791 C 0.64745 0.25142 0.21370
 C792 C 0.69624 0.34941 0.24206
 C793 C 0.73317 0.23217 0.15221
 O794 O 0.74124 0.16262 0.20345
 O795 O 0.79703 0.16773 0.22880
 O796 O 0.80534 0.17541 0.28091
 C797 C 0.80898 0.15817 0.25529
 O798 O 0.80764 0.32259 0.20380
 Zr799 Zr 0.80395 0.28373 0.23869
 O800 O 0.83202 0.23119 0.29955
 O801 O 0.81033 0.20561 0.18584
 O802 O 0.84259 0.26846 0.20688
 O803 O 0.82092 0.33046 0.25902
 O804 O 0.84837 0.27244 0.26452
 C805 C 0.85416 0.25188 0.28744
 O806 O 0.76863 0.18453 0.32388
 O807 O 0.68874 0.30574 0.31003
 O808 O 0.77768 0.24220 0.33724
 O809 O 0.74017 0.28702 0.33233
 O810 O 0.65896 0.23657 0.29385
 O811 O 0.69369 0.18471 0.29880
 C812 C 0.75919 0.26683 0.34867
 H813 H 0.67745 0.28513 0.25637
 H814 H 0.74412 0.17407 0.26328
 H815 H 0.79887 0.28760 0.29939
 H816 H 0.78080 0.26607 0.18439
 H817 H 0.65671 0.17049 0.24732
 H818 H 0.75524 0.15124 0.18725
 H819 H 0.80825 0.18381 0.17407
 H820 H 0.86332 0.28271 0.21094
 H821 H 0.63840 0.22188 0.29034
 H822 H 0.69229 0.32728 0.32191
 H823 H 0.74797 0.35101 0.31608
 H824 H 0.84563 0.33338 0.25392
 H825 H 0.67067 0.17371 0.29826
 H826 H 0.79007 0.18045 0.33598
 H827 H 0.71196 0.32253 0.16244
 H828 H 0.83180 0.33061 0.20226
 Zr829 Zr 0.76762 0.72412 0.70359
 O830 O 0.75682 0.68431 0.67152
 O831 O 0.81521 0.74115 0.68670
 O832 O 0.75907 0.74305 0.65749
 O833 O 0.79986 0.67423 0.76475
 O834 O 0.71698 0.78356 0.66258
 O835 O 0.79739 0.67787 0.71178
 O836 O 0.82597 0.79041 0.71385
 O837 O 0.76318 0.77786 0.70697
 O838 O 0.79459 0.73917 0.74363
 O839 O 0.71449 0.73503 0.70518
 O840 O 0.74446 0.69728 0.74082
 Zr841 Zr 0.71340 0.77896 0.78815
 Zr842 Zr 0.71059 0.78850 0.71086
 Zr843 Zr 0.77011 0.71514 0.78069
 Zr844 Zr 0.78844 0.79218 0.74792
 O845 O 0.75375 0.66868 0.80191
 O846 O 0.79171 0.84084 0.72543
 O847 O 0.76667 0.76845 0.78695
 O848 O 0.73682 0.80525 0.75083
 O849 O 0.68601 0.76413 0.74804
 O850 O 0.71759 0.72534 0.78455
 C851 C 0.83331 0.76795 0.69335
 C852 C 0.80670 0.66258 0.73758
 C853 C 0.73846 0.76623 0.64627
 O854 O 0.72544 0.83647 0.69152
 O855 O 0.67867 0.82823 0.72746
 O856 O 0.68236 0.82406 0.78047
 C857 C 0.67236 0.83950 0.75504
 O858 O 0.69338 0.66798 0.71317
 Zr859 Zr 0.69241 0.71081 0.74373
 O860 O 0.66458 0.76363 0.80241
 O861 O 0.66133 0.78218 0.69047
 O862 O 0.64785 0.71434 0.71514
 O863 O 0.68573 0.66497 0.77011
 O864 O 0.64957 0.71773 0.77216
 C865 C 0.64361 0.74017 0.79312
 O866 O 0.72319 0.81945 0.81981
 O867 O 0.82037 0.71793 0.79999
 O868 O 0.72390 0.76154 0.83488
 O869 O 0.76923 0.72521 0.82820
 O870 O 0.83607 0.78585 0.77161
 O871 O 0.79264 0.83013 0.78325
 C872 C 0.74752 0.74087 0.84540
 H873 H 0.81914 0.73239 0.74315
 H874 H 0.73598 0.83052 0.75327
 H875 H 0.70745 0.71312 0.80263
 H876 H 0.70273 0.72711 0.68599
 H877 H 0.81572 0.84927 0.72757
 H878 H 0.70633 0.84420 0.67781
 H879 H 0.65731 0.80269 0.67715
 H880 H 0.63139 0.69639 0.72216
 H881 H 0.85210 0.80367 0.76361
 H882 H 0.82358 0.69737 0.81346
 H883 H 0.77278 0.66108 0.81573
 H884 H 0.66167 0.65711 0.76700
 H885 H 0.81357 0.84420 0.77973
 H886 H 0.70312 0.82061 0.83402
 H887 H 0.77709 0.68261 0.65761
 H888 H 0.67127 0.65532 0.71455
 Zr889 Zr 0.22724 0.21597 0.78695
 O890 O 0.23877 0.17789 0.82075
 O891 O 0.17668 0.22671 0.79727
 O892 O 0.22711 0.23706 0.83349
 O893 O 0.20737 0.16089 0.72476
 O894 O 0.26332 0.28312 0.82866
 O895 O 0.20054 0.16846 0.77705
 O896 O 0.16354 0.27397 0.76772
 O897 O 0.22631 0.26968 0.78137
 O898 O 0.20449 0.22659 0.74356
 O899 O 0.27871 0.23258 0.79028
 O900 O 0.25751 0.19029 0.75381
 Zr901 Zr 0.28614 0.27386 0.70606
 Zr902 Zr 0.27765 0.28572 0.78212
 Zr903 Zr 0.23579 0.20382 0.71058
 Zr904 Zr 0.20524 0.27977 0.73747
 O905 O 0.25833 0.15758 0.69472
 O906 O 0.19465 0.32831 0.75757
 O907 O 0.23444 0.25712 0.70220
 O908 O 0.25555 0.29872 0.73916
 O909 O 0.30960 0.26309 0.74916
 O910 O 0.28658 0.22014 0.71190
 C911 C 0.15701 0.25141 0.78878
 C912 C 0.19599 0.15121 0.75137
 C913 C 0.24333 0.26367 0.84469
 O914 O 0.25657 0.33357 0.79548
 O915 O 0.31044 0.32577 0.76849
 O916 O 0.31581 0.31990 0.71602
 C917 C 0.32178 0.33615 0.74202
 O918 O 0.31032 0.17054 0.79026
 Zr919 Zr 0.30791 0.20964 0.75550
 O920 O 0.33604 0.26070 0.69478
 O921 O 0.32247 0.28505 0.81037
 O922 O 0.34974 0.22277 0.78509
 O923 O 0.31986 0.16158 0.73507
 O924 O 0.35074 0.21593 0.72696
 C925 C 0.35615 0.23672 0.70429
 O926 O 0.27669 0.31428 0.67396
 O927 O 0.18918 0.20326 0.68480
 O928 O 0.28104 0.25611 0.65877
 O929 O 0.24626 0.20885 0.66328
 O930 O 0.16158 0.26815 0.70956
 O931 O 0.20175 0.31574 0.70013
 C932 C 0.26421 0.23013 0.64718
 H933 H 0.18079 0.21738 0.74155
 H934 H 0.25529 0.32391 0.73562
 H935 H 0.29925 0.20791 0.69538
 H936 H 0.28859 0.22702 0.81100
 H937 H 0.17014 0.33368 0.75331
 H938 H 0.27190 0.34326 0.81177
 H939 H 0.32243 0.30650 0.82277
 H940 H 0.36905 0.20714 0.78015
 H941 H 0.14318 0.28457 0.71519
 H942 H 0.18893 0.18174 0.67252
 H943 H 0.24286 0.14798 0.67848
 H944 H 0.34419 0.15621 0.74013
 H945 H 0.17986 0.32859 0.70169
 H946 H 0.29781 0.31694 0.66122
 H947 H 0.21731 0.17388 0.83270
 H948 H 0.33428 0.16214 0.79212
 Zr949 Zr 0.27723 0.78649 0.29263
 O950 O 0.26747 0.82525 0.32580
 O951 O 0.32717 0.77220 0.30613
 O952 O 0.27285 0.76593 0.33949
 O953 O 0.29609 0.84293 0.23041
 O954 O 0.23446 0.72172 0.33430
 O955 O 0.30431 0.83401 0.28254
 O956 O 0.34015 0.72771 0.27383
 O957 O 0.27800 0.73290 0.28681
 O958 O 0.30007 0.77681 0.24936
 O959 O 0.22546 0.77022 0.29452
 O960 O 0.24684 0.81234 0.25886
 Zr961 Zr 0.21938 0.72940 0.21022
 Zr962 Zr 0.22655 0.71707 0.28671
 Zr963 Zr 0.26861 0.79981 0.21574
 Zr964 Zr 0.29936 0.72381 0.24291
 O965 O 0.24539 0.84595 0.19985
 O966 O 0.31060 0.67450 0.26176
 O967 O 0.27076 0.74676 0.20712
 O968 O 0.24948 0.70455 0.24416
 O969 O 0.19553 0.73968 0.25298
 O970 O 0.21765 0.78301 0.21587
 C971 C 0.34675 0.74787 0.29649
 C972 C 0.30797 0.85205 0.25698
 C973 C 0.25426 0.74079 0.35075
 O974 O 0.24975 0.67111 0.30278
 O975 O 0.19609 0.67572 0.27206
 O976 O 0.19344 0.68126 0.21919
 C977 C 0.18709 0.66487 0.24506
 O978 O 0.19515 0.83463 0.29116
 Zr979 Zr 0.19642 0.79301 0.25926
 O980 O 0.16777 0.73799 0.20136
 O981 O 0.17919 0.71587 0.31102
 O982 O 0.15605 0.78282 0.29121
 O983 O 0.18209 0.83872 0.23539
 O984 O 0.15191 0.78122 0.23415
 C985 C 0.14594 0.75896 0.21291
 O986 O 0.22999 0.69116 0.17670
 O987 O 0.31553 0.80152 0.19082
 O988 O 0.22313 0.74904 0.16323
 O989 O 0.25870 0.79560 0.16815
 O990 O 0.34350 0.73671 0.21628
 O991 O 0.30266 0.68914 0.20491
 C992 C 0.24023 0.77503 0.15177
 H993 H 0.32387 0.78593 0.24814
 H994 H 0.25071 0.67942 0.24085
 H995 H 0.20397 0.79454 0.19936
 H996 H 0.21483 0.77630 0.31466
 H997 H 0.33487 0.66909 0.25672
 H998 H 0.23303 0.65989 0.31699
 H999 H 0.17884 0.69459 0.32388
 H1000 H 0.13671 0.79843 0.28601
 H1001 H 0.36171 0.71984 0.22159
 H1002 H 0.31553 0.82317 0.17850
 H1003 H 0.26072 0.85607 0.18379
 H1004 H 0.15741 0.84286 0.23976
 H1005 H 0.32514 0.67724 0.20553
 H1006 H 0.20862 0.68783 0.16430
 H1007 H 0.28885 0.82779 0.33832
 H1008 H 0.17165 0.84441 0.29168
 Zr1009 Zr 0.21763 0.77579 0.71061
 O1010 O 0.23267 0.81281 0.67692
 O1011 O 0.16601 0.76760 0.69999
 O1012 O 0.21746 0.75562 0.66399
 O1013 O 0.20605 0.83493 0.76965
 O1014 O 0.24553 0.70460 0.67019
 O1015 O 0.19441 0.82515 0.71840
 O1016 O 0.14656 0.72802 0.73546
 O1017 O 0.21029 0.72266 0.71738
 O1018 O 0.19467 0.76882 0.75429
 O1019 O 0.26705 0.75385 0.70824
 O1020 O 0.25154 0.79887 0.74305
 Zr1021 Zr 0.27042 0.71418 0.79301
 Zr1022 Zr 0.25954 0.70137 0.71694
 Zr1023 Zr 0.22866 0.78930 0.78634
 Zr1024 Zr 0.18947 0.71604 0.76197
 O1025 O 0.25820 0.83136 0.80272
 O1026 O 0.17192 0.66998 0.74079
 O1027 O 0.22132 0.73679 0.79622
 O1028 O 0.23710 0.69164 0.76036
 O1029 O 0.29419 0.72104 0.74964
 O1030 O 0.27747 0.76736 0.78639
 C1031 C 0.14266 0.74863 0.71252
 C1032 C 0.19325 0.84415 0.74320
 C1033 C 0.23023 0.72723 0.65332
 O1034 O 0.23298 0.65564 0.70498
 O1035 O 0.28906 0.65944 0.73127
 O1036 O 0.29613 0.66656 0.78364
 C1037 C 0.30078 0.64982 0.75786
 O1038 O 0.30725 0.81252 0.70818
 Zr1039 Zr 0.29954 0.77386 0.74269
 O1040 O 0.32182 0.71910 0.80459
 O1041 O 0.30343 0.69638 0.68820
 O1042 O 0.33863 0.75630 0.71238
 O1043 O 0.31811 0.81967 0.76359
 O1044 O 0.34193 0.76001 0.77080
 C1045 C 0.34530 0.73893 0.79382
 O1046 O 0.25456 0.67583 0.82505
 O1047 O 0.18271 0.80040 0.81079
 O1048 O 0.26881 0.73397 0.83967
 O1049 O 0.23316 0.78019 0.83391
 O1050 O 0.15024 0.73247 0.79270
 O1051 O 0.18293 0.67947 0.79849
 C1052 C 0.25159 0.75981 0.85058
 H1053 H 0.17232 0.78072 0.75635
 H1054 H 0.23422 0.66668 0.76430
 H1055 H 0.29193 0.77788 0.80286
 H1056 H 0.27757 0.75797 0.68757
 H1057 H 0.14715 0.66725 0.74572
 H1058 H 0.24706 0.64381 0.68911
 H1059 H 0.30085 0.67460 0.67648
 H1060 H 0.36008 0.76890 0.71767
 H1061 H 0.12940 0.71843 0.78850
 H1062 H 0.18676 0.82167 0.82294
 H1063 H 0.24322 0.84431 0.81709
 H1064 H 0.34325 0.82091 0.75982
 H1065 H 0.15965 0.66912 0.79700
 H1066 H 0.27497 0.67029 0.83808
 H1067 H 0.21197 0.81823 0.66422
 H1068 H 0.33197 0.81879 0.70741
 Zr1069 Zr 0.27036 0.22404 0.20259
 O1070 O 0.26012 0.18450 0.17009
 O1071 O 0.31813 0.24131 0.18626
 O1072 O 0.26209 0.24311 0.15647
 O1073 O 0.30333 0.17456 0.26376
 O1074 O 0.21955 0.28314 0.16138
 O1075 O 0.29957 0.17738 0.21082
 O1076 O 0.32742 0.29165 0.21221
 O1077 O 0.26532 0.27770 0.20585
 O1078 O 0.29741 0.23952 0.24248
 O1079 O 0.21710 0.23436 0.20424
 O1080 O 0.24756 0.19723 0.23999
 Zr1081 Zr 0.21612 0.27879 0.28697
 Zr1082 Zr 0.21264 0.28779 0.20968
 Zr1083 Zr 0.27341 0.21540 0.27967
 Zr1084 Zr 0.29057 0.29252 0.24668
 O1085 O 0.25805 0.16869 0.30107
 O1086 O 0.29358 0.34145 0.22464
 O1087 O 0.26944 0.26869 0.28588
 O1088 O 0.23887 0.30512 0.24944
 O1089 O 0.18833 0.26350 0.24719
 O1090 O 0.22095 0.22521 0.28349
 C1091 C 0.33566 0.26859 0.19263
 C1092 C 0.30935 0.16235 0.23661
 C1093 C 0.24141 0.26616 0.14516
 O1094 O 0.22690 0.33597 0.19039
 O1095 O 0.18017 0.32704 0.22621
 O1096 O 0.18414 0.32316 0.27922
 C1097 C 0.17386 0.33835 0.25376
 O1098 O 0.19491 0.16820 0.21159
 Zr1099 Zr 0.19536 0.21025 0.24305
 O1100 O 0.16843 0.26250 0.30261
 O1101 O 0.16367 0.28082 0.18890
 O1102 O 0.14966 0.21518 0.21621
 O1103 O 0.19050 0.16326 0.26804
 O1104 O 0.15442 0.21486 0.27420
 C1105 C 0.14879 0.23715 0.29542
 O1106 O 0.22612 0.31989 0.31791
 O1107 O 0.32366 0.21932 0.29879
 O1108 O 0.22663 0.26175 0.33373
 O1109 O 0.27183 0.22514 0.32730
 O1110 O 0.33859 0.28663 0.26979
 O1111 O 0.29413 0.33025 0.28225
 C1112 C 0.24997 0.24086 0.34435
 H1113 H 0.32201 0.23292 0.24202
 H1114 H 0.23770 0.33039 0.25179
 H1115 H 0.21136 0.21270 0.30165
 H1116 H 0.20535 0.22632 0.18508
 H1117 H 0.31744 0.35017 0.22716
 H1118 H 0.20772 0.34348 0.17667
 H1119 H 0.15943 0.30137 0.17569
 H1120 H 0.13314 0.19756 0.22377
 H1121 H 0.35418 0.30490 0.26190
 H1122 H 0.32730 0.19885 0.31228
 H1123 H 0.27706 0.16172 0.31521
 H1124 H 0.16649 0.15499 0.26541
 H1125 H 0.31521 0.34423 0.27924
 H1126 H 0.20634 0.32107 0.33245
 H1127 H 0.28060 0.18293 0.15642
 H1128 H 0.17224 0.15652 0.21248
 Zr1129 Zr 0.72710 0.71982 0.28718
 O1130 O 0.73844 0.68179 0.32109
 O1131 O 0.67662 0.73103 0.29752
 O1132 O 0.72623 0.74060 0.33359
 O1133 O 0.71046 0.66322 0.22547
 O1134 O 0.75997 0.78849 0.32859
 O1135 O 0.70063 0.67229 0.27714
 O1136 O 0.66120 0.77387 0.26357
 O1137 O 0.72518 0.77342 0.28083
 O1138 O 0.70543 0.72916 0.24314
 O1139 O 0.77811 0.73754 0.29148
 O1140 O 0.75879 0.69410 0.25521
 Zr1141 Zr 0.78722 0.77728 0.20681
 Zr1142 Zr 0.77627 0.79051 0.28249
 Zr1143 Zr 0.73814 0.70647 0.21130
 Zr1144 Zr 0.70514 0.78220 0.23629
 O1145 O 0.76221 0.66049 0.19666
 O1146 O 0.69245 0.82972 0.25732
 O1147 O 0.73593 0.75956 0.20210
 O1148 O 0.75512 0.80217 0.23879
 O1149 O 0.80957 0.76781 0.25063
 O1150 O 0.78854 0.72372 0.21353
 C1151 C 0.65532 0.75273 0.28600
 C1152 C 0.69762 0.65432 0.25171
 C1153 C 0.74106 0.76797 0.34467
 O1154 O 0.75444 0.83855 0.29419
 O1155 O 0.81001 0.83018 0.26934
 O1156 O 0.81535 0.82417 0.21678
 C1157 C 0.82124 0.84050 0.24276
 O1158 O 0.81080 0.67621 0.29338
 Zr1159 Zr 0.80871 0.71447 0.25785
 O1160 O 0.83772 0.76442 0.19690
 O1161 O 0.81975 0.79092 0.31242
 O1162 O 0.84943 0.72917 0.28809
 O1163 O 0.82210 0.66617 0.23865
 O1164 O 0.85221 0.72068 0.23030
 C1165 C 0.85785 0.74081 0.20724
 O1166 O 0.77867 0.81694 0.17373
 O1167 O 0.69226 0.70424 0.18454
 O1168 O 0.78312 0.75884 0.15958
 O1169 O 0.74948 0.71082 0.16420
 O1170 O 0.66387 0.76993 0.20575
 O1171 O 0.70213 0.81898 0.19956
 C1172 C 0.76703 0.73233 0.14806
 H1173 H 0.68201 0.71939 0.24065
 H1174 H 0.75453 0.82729 0.23494
 H1175 H 0.80180 0.71141 0.19744
 H1176 H 0.78754 0.73253 0.31248
 H1177 H 0.66791 0.83444 0.25259
 H1178 H 0.76916 0.84870 0.31070
 H1179 H 0.81888 0.81256 0.32451
 H1180 H 0.86914 0.71372 0.28404
 H1181 H 0.64464 0.78578 0.21040
 H1182 H 0.69278 0.68243 0.17268
 H1183 H 0.74743 0.65022 0.18024
 H1184 H 0.84630 0.66123 0.24453
 H1185 H 0.68025 0.83183 0.20119
 H1186 H 0.80021 0.81946 0.16154
 H1187 H 0.71683 0.67752 0.33276
 H1188 H 0.83489 0.66845 0.29610
 Zr1189 Zr 0.76988 0.29360 0.79614
 O1190 O 0.75472 0.33217 0.82772
 O1191 O 0.81982 0.28459 0.81175
 O1192 O 0.76596 0.27251 0.84297
 O1193 O 0.79019 0.34875 0.73333
 O1194 O 0.72930 0.22692 0.83716
 O1195 O 0.79600 0.34165 0.78600
 O1196 O 0.83822 0.24141 0.78010
 O1197 O 0.77391 0.23995 0.79164
 O1198 O 0.79514 0.28409 0.75391
 O1199 O 0.71915 0.27445 0.79651
 O1200 O 0.74019 0.31727 0.76063
 Zr1201 Zr 0.71895 0.23194 0.71266
 Zr1202 Zr 0.72330 0.22131 0.78948
 Zr1203 Zr 0.76442 0.30465 0.71857
 Zr1204 Zr 0.79797 0.23110 0.74899
 O1205 O 0.73985 0.34953 0.70145
 O1206 O 0.81060 0.18424 0.77177
 O1207 O 0.76970 0.25155 0.71150
 O1208 O 0.74888 0.20935 0.74811
 O1209 O 0.69280 0.24189 0.75436
 O1210 O 0.71440 0.28550 0.71728
 C1211 C 0.84219 0.26269 0.80264
 C1212 C 0.80083 0.35877 0.76007
 C1213 C 0.74829 0.24648 0.85390
 O1214 O 0.74732 0.17622 0.80658
 O1215 O 0.69510 0.17845 0.77436
 O1216 O 0.69411 0.18327 0.72142
 C1217 C 0.68727 0.16703 0.74725
 O1218 O 0.68658 0.33738 0.79100
 Zr1219 Zr 0.69095 0.29533 0.75982
 O1220 O 0.66734 0.23858 0.70125
 O1221 O 0.67512 0.21858 0.81232
 O1222 O 0.64957 0.28409 0.79041
 O1223 O 0.67526 0.33974 0.73465
 O1224 O 0.64837 0.28093 0.73360
 C1225 C 0.64418 0.25868 0.71209
 O1226 O 0.73326 0.19322 0.68078
 O1227 O 0.81204 0.30770 0.69483
 O1228 O 0.72436 0.25029 0.66539
 O1229 O 0.75658 0.29913 0.67067
 O1230 O 0.84178 0.24455 0.72214
 O1231 O 0.80596 0.19399 0.71357
 C1232 C 0.74044 0.27694 0.65399
 H1233 H 0.81847 0.29437 0.75303
 H1234 H 0.75132 0.18422 0.74529
 H1235 H 0.70098 0.29604 0.70007
 H1236 H 0.70743 0.28020 0.81624
 H1237 H 0.83568 0.18060 0.76931
 H1238 H 0.73042 0.16457 0.82033
 H1239 H 0.67511 0.19747 0.82542
 H1240 H 0.62990 0.29889 0.78433
 H1241 H 0.86107 0.22972 0.72912
 H1242 H 0.81168 0.32915 0.68224
 H1243 H 0.75540 0.36008 0.68580
 H1244 H 0.65031 0.34288 0.73838
 H1245 H 0.82835 0.18245 0.71704
 H1246 H 0.71286 0.18855 0.66743
 H1247 H 0.77500 0.33666 0.84123
 H1248 H 0.66273 0.34627 0.79049
 C1249 C 0.45173 1.00667 0.31601
 C1250 C 0.47186 1.03877 0.32624
 C1251 C 0.48636 1.03581 0.35528
 C1252 C 0.47964 1.00088 0.37160
 C1253 C 0.44036 0.99652 0.37086
 C1254 C 0.42593 1.00039 0.34256
 C1255 C 0.47813 0.97695 0.31942
 C1256 C 0.49266 0.97393 0.34851
 H1257 H 0.47479 1.06161 0.31183
 H1258 H 0.50175 1.05621 0.36553
 H1259 H 0.42494 0.98969 0.39096
 H1260 H 0.39828 0.99806 0.33922
 H1261 H 0.48492 0.95998 0.30043
 H1262 H 0.51166 0.95449 0.35428
 C1263 C -0.04848 0.50690 0.81569
 C1264 C -0.02790 0.53850 0.82640
 C1265 C -0.01345 0.53478 0.85539
 C1266 C -0.02066 0.49964 0.87120
 C1267 C -0.06000 0.49586 0.87039
 C1268 C -0.07437 0.50052 0.84216
 C1269 C -0.02249 0.47674 0.81867
 C1270 C -0.00801 0.47295 0.84772
 H1271 H -0.02465 0.56156 0.81234
 H1272 H 0.00225 0.55476 0.86594
 H1273 H -0.07553 0.48888 0.89037
 H1274 H -0.10206 0.49873 0.83882
 H1275 H -0.01592 0.46005 0.79941
 H1276 H 0.01071 0.45314 0.85319
 C1277 C 0.04751 -0.00031 0.80959
 C1278 C 0.07287 0.00861 0.83604
 C1279 C 0.05850 0.01121 0.86428
 C1280 C 0.01985 0.00299 0.86521
 C1281 C 0.00401 0.02857 0.84181
 C1282 C 0.01856 0.02692 0.81263
 C1283 C 0.03047 -0.03403 0.82031
 C1284 C 0.01625 -0.03237 0.84930
 H1285 H 0.10018 0.01345 0.83273
 H1286 H 0.07352 0.01934 0.88431
 H1287 H -0.01658 0.04622 0.84750
 H1288 H 0.01019 0.04321 0.79346
 H1289 H 0.02916 -0.05701 0.80611
 H1290 H 0.00277 -0.05404 0.85972
 C1291 C 0.55146 0.50412 0.31133
 C1292 C 0.57849 0.51251 0.33664
 C1293 C 0.56580 0.51584 0.36547
 C1294 C 0.52704 0.50895 0.36804
 C1295 C 0.51074 0.53471 0.34508
 C1296 C 0.52355 0.53221 0.31533
 C1297 C 0.53406 0.47105 0.32308
 C1298 C 0.52149 0.47350 0.35268
 H1299 H 0.60577 0.51620 0.33215
 H1300 H 0.58220 0.52319 0.38489
 H1301 H 0.49100 0.55303 0.35145
 H1302 H 0.51454 0.54842 0.29634
 H1303 H 0.53136 0.44794 0.30919
 H1304 H 0.50801 0.45235 0.36395
 C1305 C 0.55570 0.49332 0.18891
 C1306 C 0.55337 0.52833 0.17251
 C1307 C 0.54238 0.52675 0.14243
 C1308 C 0.53493 0.49009 0.13058
 C1309 C 0.56816 0.46999 0.13762
 C1310 C 0.57883 0.47151 0.16784
 C1311 C 0.51944 0.47713 0.18440
 C1312 C 0.50865 0.47547 0.15388
 H1313 H 0.55931 0.55255 0.18385
 H1314 H 0.53891 0.54974 0.12830
 H1315 H 0.58152 0.45470 0.12039
 H1316 H 0.60102 0.45725 0.17617
 H1317 H 0.50399 0.46679 0.20325
 H1318 H 0.48414 0.46423 0.14708
 C1319 C 0.05730 0.99043 0.68983
 C1320 C 0.05234 1.02442 0.67605
 C1321 C 0.03977 1.02366 0.64471
 C1322 C 0.03474 0.98898 0.63228
 C1323 C 0.06775 0.97164 0.63693
 C1324 C 0.08002 0.97219 0.66844
 C1325 C 0.02382 0.97281 0.68602
 C1326 C 0.01138 0.97214 0.65419
 H1327 H 0.05670 1.04838 0.68842
 H1328 H 0.03369 1.04706 0.63189
 H1329 H 0.08057 0.95691 0.61895
 H1330 H 0.10212 0.95708 0.67572
 H1331 H 0.01079 0.95872 0.70442
 H1332 H -0.01189 0.95856 0.64730
 C1333 C -0.05181 0.51514 0.69414
 C1334 C -0.07442 0.53541 0.67111
 C1335 C -0.06214 0.53635 0.64148
 C1336 C -0.02791 0.51721 0.63694
 C1337 C -0.00345 0.53358 0.66086
 C1338 C -0.01589 0.53256 0.69082
 C1339 C -0.04734 0.47974 0.67932
 C1340 C -0.03470 0.48071 0.64986
 H1341 H -0.09708 0.54967 0.67776
 H1342 H -0.07481 0.55096 0.62312
 H1343 H 0.02090 0.54561 0.65484
 H1344 H -0.00197 0.54431 0.70998
 H1345 H -0.05304 0.45572 0.69130
 H1346 H -0.02954 0.45738 0.63691
 C1347 C 0.44838 0.01315 0.19427
 C1348 C 0.48451 0.02997 0.19056
 C1349 C 0.49649 0.03080 0.16045
 C1350 C 0.47142 0.01481 0.13681
 C1351 C 0.46424 -0.02158 0.14978
 C1352 C 0.45204 -0.02234 0.17941
 C1353 C 0.42578 0.03379 0.17151
 C1354 C 0.43759 0.03448 0.14174
 H1355 H 0.49893 0.04144 0.20955
 H1356 H 0.52096 0.04240 0.15415
 H1357 H 0.46884 -0.04498 0.13676
 H1358 H 0.44614 -0.04626 0.19147
 H1359 H 0.40346 0.04843 0.17844
 H1360 H 0.42488 0.04928 0.12352
 C1361 C 0.32348 0.38552 -0.00234
 C1362 C 0.35573 0.36300 -0.00702
 C1363 C 0.38623 0.38023 -0.00504
 C1364 C 0.38268 0.41872 0.00170
 C1365 C 0.35803 0.43201 -0.02415
 C1366 C 0.32750 0.41461 -0.02633
 C1367 C 0.33006 0.40339 0.02933
 C1368 C 0.36093 0.42041 0.03148
 H1369 H 0.35459 0.33561 -0.01174
 H1370 H 0.41078 0.36753 -0.00824
 H1371 H 0.36391 0.45370 -0.03926
 H1372 H 0.30779 0.42135 -0.04327
 H1373 H 0.31170 0.40297 0.04833
 H1374 H 0.36874 0.43427 0.05224
 C1375 C -0.17891 0.88489 0.50000
 C1376 C -0.17495 0.91434 0.47641
 C1377 C -0.14448 0.93167 0.47888
 C1378 C -0.11981 0.91788 0.50451
 C1379 C -0.14148 0.91912 0.53433
 C1380 C -0.17238 0.90221 0.53193
 C1381 C -0.14672 0.86238 0.49503
 C1382 C -0.11624 0.87954 0.49720
 H1383 H -0.19470 0.92144 0.45964
 H1384 H -0.13874 0.95374 0.46419
 H1385 H -0.13364 0.93264 0.55526
 H1386 H -0.19078 0.90156 0.55090
 H1387 H -0.14787 0.83508 0.48988
 H1388 H -0.09173 0.86694 0.49357
 C1389 C -0.18894 0.11154 0.99768
 C1390 C -0.15492 0.13088 1.00407
 C1391 C -0.12616 0.11122 1.00135
 C1392 C -0.13334 0.07366 0.99249
 C1393 C -0.15933 0.06087 1.01728
 C1394 C -0.18801 0.08072 1.02012
 C1395 C -0.18367 0.09536 0.96509
 C1396 C -0.15463 0.07582 0.96239
 H1397 H -0.15360 0.15791 1.01019
 H1398 H -0.10046 0.12156 1.00502
 H1399 H -0.15567 0.03783 1.03128
 H1400 H -0.20833 0.07477 1.03658
 H1401 H -0.20155 0.09885 0.94583
 H1402 H -0.14783 0.06282 0.94097
 C1403 C 0.31813 0.61439 0.49959
 C1404 C 0.35184 0.63521 0.50301
 C1405 C 0.38102 0.61611 0.50097
 C1406 C 0.37452 0.57767 0.49579
 C1407 C 0.34993 0.56704 0.52261
 C1408 C 0.32076 0.58627 0.52459
 C1409 C 0.32239 0.59485 0.46849
 C1410 C 0.35184 0.57586 0.46651
 H1411 H 0.35263 0.66276 0.50695
 H1412 H 0.40651 0.62734 0.50327
 H1413 H 0.35465 0.54568 0.53843
 H1414 H 0.30113 0.58151 0.54203
 H1415 H 0.30358 0.59571 0.44973
 H1416 H 0.35811 0.56069 0.44616
 C1417 C 0.18529 0.62225 0.50329
 C1418 C 0.18368 0.59351 0.52835
 C1419 C 0.15275 0.57666 0.53028
 C1420 C 0.12528 0.58977 0.50734
 C1421 C 0.12345 0.62873 0.51374
 C1422 C 0.15459 0.64566 0.51164
 C1423 C 0.17395 0.60451 0.47323
 C1424 C 0.14324 0.58780 0.47515
 H1425 H 0.20502 0.58735 0.54378
 H1426 H 0.14807 0.55628 0.54714
 H1427 H 0.09980 0.64180 0.51989
 H1428 H 0.15697 0.67294 0.51630
 H1429 H 0.18885 0.60525 0.45188
 H1430 H 0.13277 0.57450 0.45505
 C1431 C 0.68057 0.12360 -0.00072
 C1432 C 0.65115 0.14496 -0.00996
 C1433 C 0.61817 0.12803 -0.00623
 C1434 C 0.62040 0.09280 0.00598
 C1435 C 0.64404 0.07538 -0.01524
 C1436 C 0.67636 0.09241 -0.01935
 C1437 C 0.67282 0.11263 0.03133
 C1438 C 0.63980 0.09589 0.03504
 H1439 H 0.65337 0.17032 -0.02046
 H1440 H 0.59407 0.14021 -0.01280
 H1441 H 0.63788 0.05188 -0.02765
 H1442 H 0.69489 0.08342 -0.03634
 H1443 H 0.69073 0.11515 0.05052
 H1444 H 0.63107 0.08566 0.05723
 C1445 C 0.68608 0.87918 0.49521
 C1446 C 0.68369 0.91695 0.48412
 C1447 C 0.65123 0.93022 0.48432
 C1448 C 0.62318 0.90500 0.49529
 C1449 C 0.62739 0.87366 0.47389
 C1450 C 0.66013 0.86025 0.47378
 C1451 C 0.66877 0.87882 0.52721
 C1452 C 0.63634 0.89210 0.52738
 H1453 H 0.70522 0.93172 0.47512
 H1454 H 0.64579 0.95613 0.47617
 H1455 H 0.60664 0.86319 0.45978
 H1456 H 0.66703 0.83854 0.45931
 H1457 H 0.68087 0.86841 0.54806
 H1458 H 0.62118 0.89253 0.54856
 C1459 C 0.18821 0.37952 0.99612
 C1460 C 0.16045 0.35770 1.01267
 C1461 C 0.12799 0.37141 1.01151
 C1462 C 0.12560 0.40610 0.99411
 C1463 C 0.15283 0.42878 1.01029
 C1464 C 0.18500 0.41503 1.01158
 C1465 C 0.17356 0.38499 0.96296
 C1466 C 0.14111 0.39882 0.96188
 H1467 H 0.16584 0.33379 1.02485
 H1468 H 0.10604 0.35886 1.02231
 H1469 H 0.14703 0.45347 1.02071
 H1470 H 0.20581 0.42795 1.02377
 H1471 H 0.18753 0.37837 0.94204
 H1472 H 0.12772 0.40376 0.94009
 C1473 C 0.00098 0.31441 0.41811
 C1474 C 0.01620 0.34527 0.40013
 C1475 C 0.01723 0.37449 0.41672
 C1476 C 0.00321 0.37033 0.44977
 C1477 C -0.03329 0.35548 0.44616
 C1478 C -0.03449 0.32622 0.42942
 C1479 C 0.02313 0.31155 0.44794
 C1480 C 0.02443 0.34123 0.46466
 H1481 H 0.02583 0.34404 0.37644
 H1482 H 0.02771 0.39833 0.40733
 H1483 H -0.05618 0.36680 0.45626
 H1484 H -0.05837 0.31242 0.42507
 H1485 H 0.03636 0.28830 0.45523
 H1486 H 0.03872 0.34349 0.48634
 C1487 C 0.49948 -0.18302 -0.08337
 C1488 C 0.53551 -0.17381 -0.07062
 C1489 C 0.53670 -0.14299 -0.05600
 C1490 C 0.50175 -0.12466 -0.05569
 C1491 C 0.49092 -0.12187 -0.08998
 C1492 C 0.48924 -0.15241 -0.10435
 C1493 C 0.47542 -0.18108 -0.05514
 C1494 C 0.47654 -0.15023 -0.04065
 H1495 H 0.55800 -0.19007 -0.07303
 H1496 H 0.56024 -0.13267 -0.04596
 H1497 H 0.48528 -0.09792 -0.10210
 H1498 H 0.48169 -0.15458 -0.12866
 H1499 H 0.45919 -0.20213 -0.04720
 H1500 H 0.46125 -0.14466 -0.02016
 C1501 C 0.00089 -0.19712 1.08151
 C1502 C -0.01574 -0.20031 1.04917
 C1503 C -0.01686 -0.16981 1.03350
 C1504 C -0.00101 -0.13970 1.05212
 C1505 C -0.02058 -0.13879 1.08275
 C1506 C -0.01994 -0.16887 1.09809
 C1507 C 0.03672 -0.18146 1.07551
 C1508 C 0.03568 -0.15118 1.06008
 H1509 H -0.02534 -0.22423 1.03945
 H1510 H -0.02736 -0.16757 1.01011
 H1511 H -0.03448 -0.11658 1.09136
 H1512 H -0.03350 -0.17245 1.11996
 H1513 H 0.06080 -0.19351 1.08235
 H1514 H 0.05881 -0.13711 1.05367
 C1515 C 0.50082 0.30382 0.57898
 C1516 C 0.48426 0.30129 0.54651
 C1517 C 0.48417 0.33195 0.53092
 C1518 C 0.50088 0.36141 0.54975
 C1519 C 0.48110 0.36272 0.58029
 C1520 C 0.48072 0.33257 0.59552
 C1521 C 0.53713 0.31841 0.57317
 C1522 C 0.53712 0.34870 0.55783
 H1523 H 0.47389 0.27774 0.53671
 H1524 H 0.47377 0.33473 0.50754
 H1525 H 0.46766 0.38524 0.58884
 H1526 H 0.46677 0.32924 0.61723
 H1527 H 0.56081 0.30562 0.58005
 H1528 H 0.56072 0.36200 0.55154
 C1529 C 0.52496 1.17913 0.59451
 C1530 C 0.49086 1.17112 0.57772
 C1531 C 0.48932 1.13939 0.56561
 C1532 C 0.52185 1.11834 0.57147
 C1533 C 0.55164 1.14062 0.55826
 C1534 C 0.55320 1.17263 0.57054
 C1535 C 0.52964 1.15017 0.61893
 C1536 C 0.52750 1.11809 0.60673
 H1537 H 0.46995 1.18929 0.57460
 H1538 H 0.46713 1.13041 0.55242
 H1539 H 0.57049 1.13191 0.54149
 H1540 H 0.57318 1.19104 0.56447
 H1541 H 0.53708 1.15419 0.64303
 H1542 H 0.53203 1.09498 0.62043
 C1543 C 0.02572 0.67844 1.09581
 C1544 C -0.00836 0.67110 1.07868
 C1545 C -0.01002 0.63976 1.06569
 C1546 C 0.02238 0.61836 1.07103
 C1547 C 0.05232 0.64085 1.05855
 C1548 C 0.05404 0.67243 1.07174
 C1549 C 0.03004 0.64871 1.11947
 C1550 C 0.02787 0.61702 1.10636
 H1551 H -0.02924 0.68939 1.07613
 H1552 H -0.03225 0.63124 1.05231
 H1553 H 0.07116 0.63256 1.04158
 H1554 H 0.07419 0.69087 1.06622
 H1555 H 0.03697 0.65195 1.14378
 H1556 H 0.03201 0.59345 1.11951
 C1557 C 0.51142 0.68902 -0.08982
 C1558 C 0.47720 0.67450 -0.08445
 C1559 C 0.47791 0.64060 -0.07207
 C1560 C 0.51270 0.62773 -0.06688
 C1561 C 0.52978 0.63026 -0.09713
 C1562 C 0.52926 0.66438 -0.10977
 C1563 C 0.52957 0.68683 -0.05988
 C1564 C 0.52989 0.65295 -0.04711
 H1565 H 0.45316 0.68757 -0.08971
 H1566 H 0.45455 0.62587 -0.06786
 H1567 H 0.54251 0.60910 -0.10875
 H1568 H 0.54255 0.67111 -0.13118
 H1569 H 0.54598 0.70682 -0.05028
 H1570 H 0.54502 0.64634 -0.02659
 C1571 C -0.01546 1.18796 0.40944
 C1572 C 0.02069 1.18259 0.42353
 C1573 C 0.02491 1.15183 0.43777
 C1574 C -0.00726 1.12920 0.43662
 C1575 C -0.03627 1.15133 0.45077
 C1576 C -0.04061 1.18201 0.43631
 C1577 C -0.02137 1.15707 0.38768
 C1578 C -0.01674 1.12613 0.40201
 H1579 H 0.04118 1.20163 0.42277
 H1580 H 0.04888 1.14445 0.44905
 H1581 H -0.05274 1.14345 0.46990
 H1582 H -0.06073 1.19986 0.44286
 H1583 H -0.03055 1.15898 0.36384
 H1584 H -0.02113 1.10184 0.39024
 C1585 C 0.75718 0.70221 0.93489
 C1586 C 0.78879 0.72269 0.92394
 C1587 C 0.78496 0.73697 0.89488
 C1588 C 0.74972 0.72970 0.87926
 C1589 C 0.74592 0.69041 0.88030
 C1590 C 0.75069 0.67621 0.90858
 C1591 C 0.72701 0.72818 0.93190
 C1592 C 0.72311 0.74248 0.90279
 H1593 H 0.81193 0.72599 0.93788
 H1594 H 0.80493 0.75257 0.88414
 H1595 H 0.73887 0.67479 0.86043
 H1596 H 0.74890 0.64856 0.91208
 H1597 H 0.71039 0.73488 0.95119
 H1598 H 0.70329 0.76119 0.89730
 C1599 C 0.25681 0.20138 0.43370
 C1600 C 0.28904 0.22139 0.42352
 C1601 C 0.28621 0.23593 0.39448
 C1602 C 0.25127 0.22936 0.37813
 C1603 C 0.24677 0.19014 0.37884
 C1604 C 0.25049 0.17566 0.40714
 C1605 C 0.22717 0.22787 0.43027
 C1606 C 0.22428 0.24244 0.40118
 H1607 H 0.31187 0.22421 0.43796
 H1608 H 0.30671 0.25125 0.38425
 H1609 H 0.23998 0.17479 0.35871
 H1610 H 0.24806 0.14804 0.41046
 H1611 H 0.21016 0.23468 0.44924
 H1612 H 0.20490 0.26150 0.39540
 C1613 C 0.75414 0.29971 0.43997
 C1614 C 0.72106 0.28238 0.42810
 C1615 C 0.72353 0.27008 0.39840
 C1616 C 0.75901 0.27581 0.38301
 C1617 C 0.76582 0.31449 0.38583
 C1618 C 0.76250 0.32692 0.41474
 C1619 C 0.78230 0.27192 0.43573
 C1620 C 0.78482 0.25939 0.40588
 H1621 H 0.69792 0.27955 0.44198
 H1622 H 0.70238 0.25671 0.38706
 H1623 H 0.77310 0.33107 0.36649
 H1624 H 0.76616 0.35414 0.41936
 H1625 H 0.79855 0.26277 0.45463
 H1626 H 0.80320 0.23976 0.39937
 C1627 C 0.24930 0.79838 0.94004
 C1628 C 0.27647 0.76937 0.93704
 C1629 C 0.27809 0.75477 0.90789
 C1630 C 0.25254 0.77063 0.88448
 C1631 C 0.21714 0.76716 0.90043
 C1632 C 0.21551 0.78142 0.92939
 C1633 C 0.25830 0.82364 0.91353
 C1634 C 0.26089 0.80923 0.88532
 H1635 H 0.29276 0.76101 0.95621
 H1636 H 0.29572 0.73415 0.90224
 H1637 H 0.19542 0.75373 0.89006
 H1638 H 0.19249 0.78019 0.94361
 H1639 H 0.26321 0.85092 0.91677
 H1640 H 0.26908 0.82419 0.86525
 C1641 C 0.24018 0.80794 0.05974
 C1642 C 0.22236 0.77457 0.06353
 C1643 C 0.22183 0.76192 0.09531
 C1644 C 0.23899 0.78500 0.11720
 C1645 C 0.27364 0.78990 0.10456
 C1646 C 0.27426 0.80267 0.07327
 C1647 C 0.22222 0.83060 0.08136
 C1648 C 0.22180 0.81813 0.11281
 H1649 H 0.20806 0.76176 0.04516
 H1650 H 0.20815 0.73871 0.10219
 H1651 H 0.29710 0.78360 0.11719
 H1652 H 0.29819 0.80698 0.06077
 H1653 H 0.20714 0.85279 0.07427
 H1654 H 0.20722 0.83088 0.13093
 C1655 C 0.74363 0.30643 0.56089
 C1656 C 0.72904 0.27158 0.56485
 C1657 C 0.72745 0.26012 0.59702
 C1658 C 0.74063 0.28558 0.61903
 C1659 C 0.77547 0.29348 0.60810
 C1660 C 0.77704 0.30509 0.57646
 C1661 C 0.72200 0.32788 0.58074
 C1662 C 0.72061 0.31660 0.61253
 H1663 H 0.71754 0.25663 0.54624
 H1664 H 0.71579 0.23586 0.60394
 H1665 H 0.79854 0.28987 0.62212
 H1666 H 0.80131 0.31111 0.56510
 H1667 H 0.70580 0.34858 0.57213
 H1668 H 0.70389 0.32871 0.62946
 C1669 C 0.26330 0.19782 0.55538
 C1670 C 0.28042 0.23379 0.55901
 C1671 C 0.28136 0.24580 0.58909
 C1672 C 0.26516 0.22090 0.61280
 C1673 C 0.22868 0.21400 0.59988
 C1674 C 0.22781 0.20178 0.57028
 C1675 C 0.28378 0.17509 0.57816
 C1676 C 0.28459 0.18694 0.60791
 H1677 H 0.29204 0.24807 0.53998
 H1678 H 0.29318 0.27015 0.59533
 H1679 H 0.20530 0.21878 0.61292
 H1680 H 0.20382 0.19606 0.55827
 H1681 H 0.29822 0.15265 0.57126
 H1682 H 0.29929 0.17414 0.62613
 C1683 C 0.76579 0.69912 0.05649
 C1684 C 0.73040 0.70342 0.07148
 C1685 C 0.73147 0.71597 0.10095
 C1686 C 0.76803 0.72283 0.11371
 C1687 C 0.78728 0.68872 0.10903
 C1688 C 0.78626 0.67654 0.07940
 C1689 C 0.78311 0.73506 0.05977
 C1690 C 0.78423 0.74740 0.08974
 H1691 H 0.70633 0.69770 0.05960
 H1692 H 0.70815 0.72103 0.11401
 H1693 H 0.80203 0.67606 0.12731
 H1694 H 0.80058 0.65396 0.07265
 H1695 H 0.79472 0.74906 0.04056
 H1696 H 0.79621 0.77175 0.09573
 C1697 C 0.13532 0.57116 0.25035
 C1698 C 0.11307 0.60331 0.25631
 C1699 C 0.13024 0.63377 0.25389
 C1700 C 0.16836 0.63023 0.24546
 C1701 C 0.18293 0.60521 0.27044
 C1702 C 0.16559 0.57475 0.27311
 C1703 C 0.15160 0.57812 0.21799
 C1704 C 0.16852 0.60898 0.21540
 H1705 H 0.08593 0.60213 0.26217
 H1706 H 0.11776 0.65827 0.25788
 H1707 H 0.20548 0.61075 0.28459
 H1708 H 0.17316 0.55481 0.28953
 H1709 H 0.15025 0.56001 0.19885
 H1710 H 0.18135 0.61706 0.19416
 C1711 C 0.63554 0.07303 0.75129
 C1712 C 0.61300 0.10522 0.75613
 C1713 C 0.63023 0.13569 0.75420
 C1714 C 0.66874 0.13218 0.74732
 C1715 C 0.68213 0.10744 0.77303
 C1716 C 0.66473 0.07693 0.77520
 C1717 C 0.65332 0.07974 0.71958
 C1718 C 0.67035 0.11061 0.71746
 H1719 H 0.58559 0.10407 0.76091
 H1720 H 0.61753 0.16020 0.75756
 H1721 H 0.70390 0.11324 0.78807
 H1722 H 0.67154 0.05716 0.79205
 H1723 H 0.65285 0.06149 0.70053
 H1724 H 0.68415 0.11853 0.69667
 C1725 C 0.86396 0.06721 0.25088
 C1726 C 0.84561 0.07257 0.28247
 C1727 C 0.82746 0.10251 0.28452
 C1728 C 0.82882 0.12456 0.25482
 C1729 C 0.86726 0.12998 0.24844
 C1730 C 0.88554 0.10029 0.24633
 C1731 C 0.83506 0.07020 0.22663
 C1732 C 0.81662 0.09982 0.22875
 H1733 H 0.84667 0.05412 0.30152
 H1734 H 0.81318 0.10953 0.30521
 H1735 H 0.87913 0.15513 0.24570
 H1736 H 0.91300 0.10027 0.24174
 H1737 H 0.82926 0.05051 0.20954
 H1738 H 0.79487 0.10487 0.21346
 C1739 C 0.36194 0.56288 0.75202
 C1740 C 0.34373 0.56654 0.78391
 C1741 C 0.32345 0.59506 0.78652
 C1742 C 0.32269 0.61745 0.75702
 C1743 C 0.36060 0.62566 0.75021
 C1744 C 0.38098 0.59743 0.74756
 C1745 C 0.33247 0.56404 0.72821
 C1746 C 0.31191 0.59222 0.73087
 H1747 H 0.34643 0.54800 0.80276
 H1748 H 0.30902 0.60078 0.80745
 H1749 H 0.37063 0.65164 0.74771
 H1750 H 0.40833 0.59946 0.74273
 H1751 H 0.32782 0.54415 0.71103
 H1752 H 0.28958 0.59588 0.71595
 C1753 C 0.37358 0.43100 0.74742
 C1754 C 0.34556 0.42906 0.72173
 C1755 C 0.32900 0.39801 0.71958
 C1756 C 0.34174 0.37079 0.74293
 C1757 C 0.38093 0.36926 0.73740
 C1758 C 0.39755 0.40052 0.73976
 C1759 C 0.35508 0.41964 0.77711
 C1760 C 0.33867 0.38886 0.77496
 H1761 H 0.33962 0.45030 0.70612
 H1762 H 0.30910 0.39310 0.70233
 H1763 H 0.39440 0.34571 0.73172
 H1764 H 0.42498 0.40309 0.73584
 H1765 H 0.35503 0.43463 0.79839
 H1766 H 0.32476 0.37848 0.79477
 C1767 C 0.87129 0.93567 0.25006
 C1768 C 0.88979 0.90728 0.26517
 C1769 C 0.87305 0.87420 0.26168
 C1770 C 0.84074 0.87535 0.24382
 C1771 C 0.81998 0.90119 0.25969
 C1772 C 0.83671 0.93367 0.26360
 C1773 C 0.86678 0.92444 0.21765
 C1774 C 0.85004 0.89141 0.21421
 H1775 H 0.91319 0.91048 0.27877
 H1776 H 0.88344 0.85079 0.27187
 H1777 H 0.79483 0.89601 0.26969
 H1778 H 0.82558 0.95312 0.27852
 H1779 H 0.87653 0.93846 0.19781
 H1780 H 0.84607 0.87940 0.19170
 C1781 C 0.62905 0.93784 0.75371
 C1782 C 0.66453 0.93432 0.73816
 C1783 C 0.67813 0.90213 0.73967
 C1784 C 0.65533 0.87517 0.75613
 C1785 C 0.64821 0.89096 0.78826
 C1786 C 0.63453 0.92346 0.78696
 C1787 C 0.60702 0.91008 0.73744
 C1788 C 0.62058 0.87759 0.73882
 H1789 H 0.67755 0.95496 0.72580
 H1790 H 0.70280 0.89613 0.72923
 H1791 H 0.65315 0.87773 0.81014
 H1792 H 0.62802 0.93762 0.80780
 H1793 H 0.58310 0.91548 0.72528
 H1794 H 0.60787 0.85563 0.72824
 C1795 C 0.12975 0.43621 0.25229
 C1796 C 0.16507 0.43291 0.23643
 C1797 C 0.17894 0.40084 0.23798
 C1798 C 0.15653 0.37381 0.25477
 C1799 C 0.14965 0.38971 0.28688
 C1800 C 0.13571 0.42206 0.28555
 C1801 C 0.10775 0.40821 0.23635
 C1802 C 0.12158 0.37584 0.23775
 H1803 H 0.17777 0.45356 0.22382
 H1804 H 0.20354 0.39498 0.22735
 H1805 H 0.15494 0.37665 0.30879
 H1806 H 0.12935 0.43627 0.30638
 H1807 H 0.08364 0.41337 0.22440
 H1808 H 0.10894 0.35372 0.22738
 C1809 C 0.06565 0.25091 0.83275
 C1810 C 0.06696 0.22689 0.80449
 C1811 C 0.09764 0.22767 0.78963
 C1812 C 0.12368 0.25257 0.80435
 C1813 C 0.10572 0.28769 0.80485
 C1814 C 0.07506 0.28682 0.81988
 C1815 C 0.09644 0.24036 0.85337
 C1816 C 0.12680 0.24173 0.83864
 H1817 H 0.04560 0.21093 0.79678
 H1818 H 0.10276 0.21238 0.76907
 H1819 H 0.11616 0.31108 0.79465
 H1820 H 0.05905 0.30945 0.82249
 H1821 H 0.09455 0.23287 0.87772
 H1822 H 0.15085 0.23594 0.85053
 C1823 C 0.56523 0.75076 0.33212
 C1824 C 0.57728 0.71528 0.32116
 C1825 C 0.60685 0.71646 0.30476
 C1826 C 0.62170 0.75295 0.30118
 C1827 C 0.59277 0.77405 0.28586
 C1828 C 0.56281 0.77277 0.30220
 C1829 C 0.59578 0.76600 0.35046
 C1830 C 0.62532 0.76703 0.33423
 H1831 H 0.56345 0.69142 0.32551
 H1832 H 0.61841 0.69356 0.29494
 H1833 H 0.59532 0.78825 0.26415
 H1834 H 0.53962 0.78590 0.29454
 H1835 H 0.59415 0.77560 0.37412
 H1836 H 0.64904 0.77748 0.34390
 C1837 C 0.55570 0.25133 0.17060
 C1838 C 0.55317 0.23458 0.20301
 C1839 C 0.58384 0.23438 0.21857
 C1840 C 0.61333 0.25118 0.19980
 C1841 C 0.61467 0.23165 0.16916
 C1842 C 0.58450 0.23136 0.15394
 C1843 C 0.57030 0.28756 0.17653
 C1844 C 0.60061 0.28745 0.19187
 H1845 H 0.52958 0.22419 0.21280
 H1846 H 0.58659 0.22387 0.24192
 H1847 H 0.63723 0.21833 0.16051
 H1848 H 0.58117 0.21761 0.13216
 H1849 H 0.55749 0.31125 0.16975
 H1850 H 0.61390 0.31100 0.19829
 C1851 C 0.05166 0.75069 0.66824
 C1852 C 0.04830 0.73444 0.70073
 C1853 C 0.07871 0.73371 0.71658
 C1854 C 0.10891 0.74950 0.69797
 C1855 C 0.11017 0.72958 0.66756
 C1856 C 0.08018 0.72985 0.65204
 C1857 C 0.06710 0.78666 0.67395
 C1858 C 0.09728 0.78599 0.68955
 H1859 H 0.02433 0.72481 0.71041
 H1860 H 0.08081 0.72351 0.74010
 H1861 H 0.13254 0.71570 0.65922
 H1862 H 0.07683 0.71600 0.63032
 H1863 H 0.05495 0.81057 0.66680
 H1864 H 0.11118 0.80925 0.69580
 C1865 C 0.92717 0.77492 0.65331
 C1866 C 0.89736 0.77871 0.62965
 C1867 C 0.86567 0.77662 0.64288
 C1868 C 0.86708 0.77168 0.67829
 C1869 C 0.88867 0.73949 0.68399
 C1870 C 0.92000 0.74108 0.67089
 C1871 C 0.92104 0.80354 0.67700
 C1872 C 0.88948 0.80188 0.69029
 H1873 H 0.90054 0.78520 0.60523
 H1874 H 0.84203 0.78042 0.62974
 H1875 H 0.88025 0.71742 0.69764
 H1876 H 0.93838 0.72031 0.67359
 H1877 H 0.93940 0.82386 0.68219
 H1878 H 0.88112 0.82094 0.70700
 C1879 C 0.43075 0.27539 0.15560
 C1880 C 0.42268 0.24123 0.17226
 C1881 C 0.39090 0.23966 0.18439
 C1882 C 0.36989 0.27223 0.17869
 C1883 C 0.39225 0.30187 0.19200
 C1884 C 0.42430 0.30345 0.17970
 C1885 C 0.40177 0.28028 0.13123
 C1886 C 0.36966 0.27810 0.14346
 H1887 H 0.44084 0.22031 0.17530
 H1888 H 0.38186 0.21742 0.19750
 H1889 H 0.38357 0.32060 0.20888
 H1890 H 0.44276 0.32334 0.18584
 H1891 H 0.40581 0.28783 0.10716
 H1892 H 0.34653 0.28272 0.12979
 C1893 C 0.43871 0.73415 0.33980
 C1894 C 0.43350 0.77029 0.32569
 C1895 C 0.40283 0.77458 0.31129
 C1896 C 0.38014 0.74248 0.31233
 C1897 C 0.40234 0.71349 0.29827
 C1898 C 0.43294 0.70907 0.31289
 C1899 C 0.40762 0.72825 0.36139
 C1900 C 0.37678 0.73294 0.34691
 H1901 H 0.45261 0.79071 0.32646
 H1902 H 0.39559 0.79854 0.29993
 H1903 H 0.39455 0.69712 0.27907
 H1904 H 0.45084 0.68897 0.30642
 H1905 H 0.40932 0.71899 0.38523
 H1906 H 0.35237 0.72854 0.35854
 C1907 C 0.93789 0.26273 0.84072
 C1908 C 0.92443 0.22833 0.83432
 C1909 C 0.89055 0.22845 0.82189
 C1910 C 0.87663 0.26297 0.81768
 C1911 C 0.87852 0.27896 0.84843
 C1912 C 0.91263 0.27904 0.86113
 C1913 C 0.93525 0.28190 0.81133
 C1914 C 0.90141 0.28164 0.79848
 H1915 H 0.93820 0.20454 0.83894
 H1916 H 0.87653 0.20484 0.81703
 H1917 H 0.85693 0.29067 0.86031
 H1918 H 0.91892 0.29194 0.88282
 H1919 H 0.95493 0.29903 0.80217
 H1920 H 0.89444 0.29716 0.77830
 C1921 C 0.55086 0.99989 0.69529
 C1922 C 0.53046 0.96637 0.69024
 C1923 C 0.51776 0.96297 0.66040
 C1924 C 0.52640 0.99355 0.63851
 C1925 C 0.51296 1.02528 0.65571
 C1926 C 0.52557 1.02849 0.68521
 C1927 C 0.57841 0.99935 0.66964
 C1928 C 0.56576 0.99680 0.64039
 H1929 H 0.52611 0.94720 0.70824
 H1930 H 0.50263 0.94088 0.65315
 H1931 H 0.49463 1.04338 0.64589
 H1932 H 0.51777 1.04930 0.70037
 H1933 H 0.60592 1.00078 0.67418
 H1934 H 0.58261 0.99670 0.62029
 C1935 C 0.05085 0.49835 1.19532
 C1936 C 0.02547 0.52688 1.18525
 C1937 C 0.01348 0.52408 1.15553
 C1938 C 0.02753 0.49279 1.13813
 C1939 C 0.06681 0.49630 1.14062
 C1940 C 0.07889 0.49840 1.17006
 C1941 C 0.03085 0.46475 1.18956
 C1942 C 0.01873 0.46175 1.15947
 H1943 H 0.01712 0.54731 1.20059
 H1944 H -0.00487 0.54217 1.14570
 H1945 H 0.08403 0.49658 1.12077
 H1946 H 0.10631 0.49984 1.17503
 H1947 H 0.02639 0.44525 1.20726
 H1948 H 0.00395 0.43965 1.15169
 C1949 C -0.05615 -0.00934 1.18797
 C1950 C -0.08428 -0.01600 1.16356
 C1951 C -0.07248 -0.02130 1.13447
 C1952 C -0.03309 -0.01843 1.13099
 C1953 C -0.02364 0.01646 1.14530
 C1954 C -0.03526 0.02107 1.17476
 C1955 C -0.03145 -0.04035 1.18472
 C1956 C -0.01922 -0.04505 1.15475
 H1957 H -0.11164 -0.01553 1.16848
 H1958 H -0.09001 -0.02695 1.11538
 H1959 H -0.00795 0.03566 1.13352
 H1960 H -0.02932 0.04415 1.18790
 H1961 H -0.02414 -0.05696 1.20400
 H1962 H -0.00172 -0.06562 1.14867
 C1963 C 0.44724 0.49134 0.68853
 C1964 C 0.46216 0.52372 0.67288
 C1965 C 0.47453 0.51863 0.64390
 C1966 C 0.47169 0.48142 0.63232
 C1967 C 0.49038 0.46020 0.65770
 C1968 C 0.47744 0.46534 0.68734
 C1969 C 0.42087 0.47695 0.66533
 C1970 C 0.43349 0.47161 0.63638
 H1971 H 0.46425 0.54852 0.68427
 H1972 H 0.48685 0.53919 0.63077
 H1973 H 0.51153 0.44287 0.65297
 H1974 H 0.48787 0.45241 0.70773
 H1975 H 0.39460 0.47025 0.67155
 H1976 H 0.41786 0.46024 0.61807
 C1977 C 0.45520 0.50057 -0.19279
 C1978 C 0.48281 0.52921 -0.18841
 C1979 C 0.49842 0.52967 -0.15963
 C1980 C 0.48514 0.50153 -0.13762
 C1981 C 0.44595 0.50706 -0.13728
 C1982 C 0.43051 0.50517 -0.16523
 C1983 C 0.47434 0.46719 -0.18488
 C1984 C 0.48987 0.46761 -0.15602
 H1985 H 0.48973 0.54731 -0.20670
 H1986 H 0.51833 0.54807 -0.15341
 H1987 H 0.43117 0.51256 -0.11654
 H1988 H 0.40273 0.50745 -0.16752
 H1989 H 0.47576 0.44527 -0.20035
 H1990 H 0.50465 0.44599 -0.14718
 C1991 C -0.04798 1.00125 0.30819
 C1992 C -0.02839 0.96839 0.31694
 C1993 C -0.01418 0.96937 0.34640
 C1994 C -0.02062 1.00329 0.36445
 C1995 C -0.00710 1.03158 0.34280
 C1996 C -0.02123 1.03051 0.31351
 C1997 C -0.07404 1.00535 0.33480
 C1998 C -0.05996 1.00760 0.36339
 H1999 H -0.02578 0.94646 0.30161
 H2000 H 0.00067 0.94815 0.35593
 H2001 H 0.01209 1.05049 0.34961
 H2002 H -0.01373 1.04860 0.29540
 H2003 H -0.10174 1.00678 0.33137
 H2004 H -0.07583 1.01206 0.38371
 C2005 C 0.05497 0.49554 0.31560
 C2006 C 0.02736 0.46675 0.31839
 C2007 C 0.01373 0.46310 0.34805
 C2008 C 0.02920 0.48846 0.37196
 C2009 C 0.06829 0.48229 0.36965
 C2010 C 0.08154 0.48631 0.34073
 C2011 C 0.03642 0.52755 0.32800
 C2012 C 0.02342 0.52395 0.35706
 H2013 H 0.01914 0.45086 0.29903
 H2014 H -0.00580 0.44410 0.35378
 H2015 H 0.08432 0.47474 0.38931
 H2016 H 0.10874 0.48283 0.33610
 H2017 H 0.03273 0.55094 0.31447
 H2018 H 0.00889 0.54434 0.36811
 C2019 C 0.55231 -0.00095 -0.18506
 C2020 C 0.52423 -0.02932 -0.18262
 C2021 C 0.50950 -0.03219 -0.15332
 C2022 C 0.52442 -0.00654 -0.12938
 C2023 C 0.56349 -0.01325 -0.13045
 C2024 C 0.57782 -0.01006 -0.15902
 C2025 C 0.53373 0.03154 -0.17373
 C2026 C 0.51962 0.02871 -0.14503
 H2027 H 0.51644 -0.04544 -0.20196
 H2028 H 0.48942 -0.05073 -0.14791
 H2029 H 0.57866 -0.02081 -0.11024
 H2030 H 0.60506 -0.01444 -0.16288
 H2031 H 0.53079 0.05469 -0.18776
 H2032 H 0.50491 0.04947 -0.13479
 C2033 C 0.69610 0.61436 -0.00335
 C2034 C 0.66114 0.63308 -0.00267
 C2035 C 0.63315 0.61219 -0.00537
 C2036 C 0.64176 0.57390 -0.00805
 C2037 C 0.66613 0.57150 -0.03584
 C2038 C 0.69446 0.59226 -0.03335
 C2039 C 0.69365 0.58791 0.02308
 C2040 C 0.66545 0.56672 0.02066
 H2041 H 0.65866 0.66072 0.00007
 H2042 H 0.60704 0.62208 -0.00515
 H2043 H 0.66197 0.55446 -0.05546
 H2044 H 0.71444 0.59260 -0.05098
 H2045 H 0.71245 0.58547 0.04170
 H2046 H 0.66082 0.54621 0.03739
 C2047 C 0.19216 1.11584 0.49591
 C2048 C 0.15822 1.13643 0.49628
 C2049 C 0.12909 1.11695 0.49435
 C2050 C 0.13566 1.07818 0.49271
 C2051 C 0.15965 1.07357 0.46486
 C2052 C 0.18904 1.09290 0.46655
 C2053 C 0.18858 1.09048 0.52306
 C2054 C 0.15928 1.07078 0.52145
 H2055 H 0.15725 1.16425 0.49824
 H2056 H 0.10354 1.12820 0.49446
 H2057 H 0.15436 1.05617 0.44572
 H2058 H 0.20877 1.09165 0.44875
 H2059 H 0.20739 1.08768 0.54163
 H2060 H 0.15381 1.05117 0.53884
 C2061 C 0.18588 -0.11097 1.00267
 C2062 C 0.15293 -0.13310 1.00471
 C2063 C 0.12308 -0.11484 1.00663
 C2064 C 0.12799 -0.07564 1.00667
 C2065 C 0.15359 -0.06911 1.03365
 C2066 C 0.18383 -0.08748 1.03157
 C2067 C 0.17930 -0.08635 0.97525
 C2068 C 0.14960 -0.06819 0.97720
 H2069 H 0.15315 -0.16103 1.00494
 H2070 H 0.09809 -0.12729 1.00824
 H2071 H 0.14850 -0.05148 1.05259
 H2072 H 0.20421 -0.08512 1.04877
 H2073 H 0.19723 -0.08268 0.95616
 H2074 H 0.14292 -0.04913 0.95963
 C2075 C 0.69082 0.38847 0.50457
 C2076 C 0.68501 0.41366 0.47744
 C2077 C 0.65566 0.43235 0.47942
 C2078 C 0.63368 0.42482 0.50865
 C2079 C 0.62795 0.38574 0.50801
 C2080 C 0.65744 0.36694 0.50606
 C2081 C 0.68901 0.41148 0.53378
 C2082 C 0.65913 0.43039 0.53591
 H2083 H 0.70318 0.41729 0.45853
 H2084 H 0.64952 0.45178 0.46204
 H2085 H 0.60271 0.37378 0.50921
 H2086 H 0.65712 0.33901 0.50588
 H2087 H 0.70926 0.41313 0.55116
 H2088 H 0.65421 0.44778 0.55506
 C2089 C -0.18326 0.38443 0.50362
 C2090 C -0.14853 0.36527 0.50501
 C2091 C -0.12029 0.38589 0.50292
 C2092 C -0.12852 0.42427 0.50009
 C2093 C -0.15245 0.42730 0.47182
 C2094 C -0.18099 0.40681 0.47369
 C2095 C -0.18095 0.41046 0.53015
 C2096 C -0.15251 0.43134 0.52836
 H2097 H -0.14640 0.33760 0.50796
 H2098 H -0.09429 0.37577 0.50399
 H2099 H -0.14779 0.44454 0.45230
 H2100 H -0.20067 0.40686 0.45565
 H2101 H -0.19992 0.41279 0.54848
 H2102 H -0.14788 0.45148 0.54529
 C2103 C 0.31279 -0.11442 0.00185
 C2104 C 0.34725 -0.13378 0.00496
 C2105 C 0.37579 -0.11347 0.00314
 C2106 C 0.36811 -0.07510 -0.00127
 C2107 C 0.34529 -0.07314 -0.03039
 C2108 C 0.31649 -0.09332 -0.02873
 C2109 C 0.31440 -0.08720 0.02748
 C2110 C 0.34311 -0.06661 0.02586
 H2111 H 0.34899 -0.16138 0.00866
 H2112 H 0.40165 -0.12381 0.00509
 H2113 H 0.35083 -0.05679 -0.05033
 H2114 H 0.29753 -0.09386 -0.04739
 H2115 H 0.29475 -0.08386 0.04507
 H2116 H 0.34736 -0.04576 0.04216
 C2117 C 0.32029 1.11391 0.50336
 C2118 C 0.32575 1.08493 0.47990
 C2119 C 0.35510 1.06660 0.48446
 C2120 C 0.37781 1.07866 0.51205
 C2121 C 0.38328 1.11724 0.50607
 C2122 C 0.35368 1.13547 0.50182
 C2123 C 0.32283 1.09541 0.53540
 C2124 C 0.35296 1.07724 0.53998
 H2125 H 0.30725 1.07840 0.46182
 H2126 H 0.36096 1.04442 0.47021
 H2127 H 0.40846 1.12947 0.50613
 H2128 H 0.35394 1.16316 0.49835
 H2129 H 0.30255 1.09549 0.55265
 H2130 H 0.35809 1.06259 0.56107
 C2131 C -0.17770 0.61463 1.00383
 C2132 C -0.14390 0.63541 1.00146
 C2133 C -0.11465 0.61657 1.00549
 C2134 C -0.12089 0.57821 1.01205
 C2135 C -0.14514 0.57777 1.04039
 C2136 C -0.17491 0.59655 1.03607
 C2137 C -0.17341 0.58519 0.98065
 C2138 C -0.14441 0.56626 0.98496
 H2139 H -0.14308 0.66302 0.99757
 H2140 H -0.08921 0.62821 1.00496
 H2141 H -0.13993 0.56330 1.06156
 H2142 H -0.19478 0.59728 1.05367
 H2143 H -0.19239 0.57888 0.96292
 H2144 H -0.13929 0.54377 0.97086
 C2145 C -0.02169 0.68879 0.59809
 C2146 C -0.04892 0.68828 0.57191
 C2147 C -0.04537 0.66096 0.55239
 C2148 C -0.01525 0.63720 0.56162
 C2149 C 0.01656 0.66006 0.56215
 C2150 C 0.01324 0.68719 0.58107
 C2151 C -0.02598 0.65411 0.61475
 C2152 C -0.02248 0.62701 0.59564
 H2153 H -0.06989 0.70644 0.56951
 H2154 H -0.06290 0.65625 0.53311
 H2155 H 0.03948 0.65574 0.54831
 H2156 H 0.03371 0.70605 0.58339
 H2157 H -0.03254 0.65118 0.63920
 H2158 H -0.02591 0.60070 0.60375
 C2159 C 0.47970 0.18872 0.10173
 C2160 C 0.47663 0.15415 0.11878
 C2161 C 0.47809 0.12696 0.09950
 C2162 C 0.48229 0.13707 0.06503
 C2163 C 0.45168 0.16097 0.05798
 C2164 C 0.45014 0.18832 0.07765
 C2165 C 0.51295 0.18685 0.08233
 C2166 C 0.51426 0.15972 0.06321
 H2167 H 0.47225 0.15134 0.14365
 H2168 H 0.47510 0.10069 0.10786
 H2169 H 0.43222 0.15615 0.04029
 H2170 H 0.42888 0.20630 0.07706
 H2171 H 0.53379 0.20549 0.08337
 H2172 H 0.53590 0.15514 0.04781
 C2173 C -0.00918 0.18167 0.90117
 C2174 C 0.01721 0.18307 0.92798
 C2175 C 0.01658 0.15513 0.94691
 C2176 C -0.01051 0.12845 0.93724
 C2177 C -0.04487 0.14810 0.93619
 C2178 C -0.04421 0.17624 0.91706
 C2179 C -0.00248 0.14769 0.88420
 C2180 C -0.00249 0.12002 0.90314
 H2181 H 0.03462 0.20455 0.93194
 H2182 H 0.03342 0.15273 0.96705
 H2183 H -0.06774 0.14020 0.94886
 H2184 H -0.06674 0.19207 0.91297
 H2185 H 0.00102 0.14539 0.85920
 H2186 H 0.00175 0.09421 0.89437
 C2187 C 0.50657 0.69520 0.41960
 C2188 C 0.53679 0.68936 0.44222
 C2189 C 0.53531 0.65878 0.45750
 C2190 C 0.50351 0.63703 0.44884
 C2191 C 0.47253 0.66041 0.45514
 C2192 C 0.47421 0.69125 0.43995
 C2193 C 0.50611 0.66367 0.39810
 C2194 C 0.50504 0.63338 0.41335
 H2195 H 0.55723 0.70795 0.44626
 H2196 H 0.55472 0.65124 0.47444
 H2197 H 0.45191 0.65390 0.47110
 H2198 H 0.45514 0.71111 0.44351
 H2199 H 0.50690 0.66504 0.37283
 H2200 H 0.50518 0.60898 0.40112
 C2201 C 0.48696 0.81309 0.40104
 C2202 C 0.48533 0.84695 0.38253
 C2203 C 0.48412 0.87508 0.40069
 C2204 C 0.48443 0.86673 0.43565
 C2205 C 0.45356 0.84231 0.44053
 C2206 C 0.45481 0.81384 0.42200
 C2207 C 0.51760 0.81654 0.42354
 C2208 C 0.51632 0.84468 0.44153
 H2209 H 0.48381 0.84855 0.35729
 H2210 H 0.48171 0.90088 0.39106
 H2211 H 0.43226 0.84739 0.45611
 H2212 H 0.43420 0.79498 0.42154
 H2213 H 0.53828 0.79790 0.42558
 H2214 H 0.53584 0.85024 0.45902
 C2215 C -0.00089 0.30169 0.91664
 C2216 C -0.00671 0.33209 0.89410
 C2217 C -0.01063 0.36256 0.90833
 C2218 C -0.00849 0.36003 0.94378
 C2219 C -0.03617 0.33333 0.95307
 C2220 C -0.03205 0.30230 0.93868
 C2221 C 0.02979 0.31190 0.93734
 C2222 C 0.02591 0.34259 0.95132
 H2223 H -0.00829 0.32972 0.86893
 H2224 H -0.01563 0.38620 0.89549
 H2225 H -0.05661 0.33807 0.96965
 H2226 H -0.04874 0.28046 0.94330
 H2227 H 0.05211 0.29575 0.94155
 H2228 H 0.04503 0.35288 0.96734
 C2229 C 0.50458 0.30224 0.08040
 C2230 C 0.47303 0.30922 0.05957
 C2231 C 0.47468 0.34020 0.04471
 C2232 C 0.50783 0.36042 0.05191
 C2233 C 0.50919 0.36387 0.08725
 C2234 C 0.50694 0.33364 0.10219
 C2235 C 0.53553 0.30525 0.05841
 C2236 C 0.53743 0.33593 0.04351
 H2237 H 0.45206 0.29129 0.05559
 H2238 H 0.45500 0.34889 0.02853
 H2239 H 0.51164 0.38809 0.09961
 H2240 H 0.50734 0.33230 0.12744
 H2241 H 0.55392 0.28477 0.05448
 H2242 H 0.55772 0.34170 0.02694
 C2243 C 0.00246 0.80231 0.57805
 C2244 C -0.02880 0.81040 0.55731
 C2245 C -0.02629 0.84159 0.54295
 C2246 C 0.00730 0.86096 0.55056
 C2247 C 0.00867 0.86360 0.58596
 C2248 C 0.00546 0.83321 0.60036
 C2249 C 0.03364 0.80514 0.55613
 C2250 C 0.03633 0.83614 0.54173
 H2251 H -0.05024 0.79309 0.55313
 H2252 H -0.04569 0.85105 0.52687
 H2253 H 0.01181 0.88745 0.59880
 H2254 H 0.00565 0.83143 0.62559
 H2255 H 0.05156 0.78432 0.55191
 H2256 H 0.05673 0.84197 0.52530
 C2257 C 0.25044 0.30130 0.05427
 C2258 C 0.21690 0.28099 0.05967
 C2259 C 0.21370 0.26846 0.08960
 C2260 C 0.24448 0.27719 0.11123
 C2261 C 0.27609 0.26363 0.09390
 C2262 C 0.27910 0.27604 0.06430
 C2263 C 0.25011 0.32897 0.07978
 C2264 C 0.24776 0.31649 0.10911
 H2265 H 0.19757 0.27658 0.04182
 H2266 H 0.19162 0.25342 0.09709
 H2267 H 0.29428 0.24536 0.10370
 H2268 H 0.29982 0.26814 0.04903
 H2269 H 0.25154 0.35642 0.07506
 H2270 H 0.24780 0.33343 0.12913
 C2271 C 0.74701 0.80129 0.55546
 C2272 C 0.71310 0.78172 0.56106
 C2273 C 0.71001 0.76913 0.59100
 C2274 C 0.74126 0.77712 0.61235
 C2275 C 0.77233 0.76293 0.59469
 C2276 C 0.77524 0.77538 0.56512
 C2277 C 0.74748 0.82887 0.58107
 C2278 C 0.74532 0.81634 0.61035
 H2279 H 0.69337 0.77807 0.54342
 H2280 H 0.68764 0.75466 0.59870
 H2281 H 0.79018 0.74417 0.60423
 H2282 H 0.79554 0.76703 0.54961
 H2283 H 0.74921 0.85633 0.57646
 H2284 H 0.74591 0.83321 0.63041
 C2285 C 0.24333 0.69690 0.56183
 C2286 C 0.22932 0.66922 0.58401
 C2287 C 0.22315 0.68044 0.61329
 C2288 C 0.23179 0.71866 0.61875
 C2289 C 0.26910 0.72300 0.60782
 C2290 C 0.27502 0.71213 0.57846
 C2291 C 0.21642 0.72618 0.56364
 C2292 C 0.21044 0.73773 0.59362
 H2293 H 0.22344 0.64309 0.57686
 H2294 H 0.21191 0.66374 0.63091
 H2295 H 0.28909 0.73529 0.62166
 H2296 H 0.29995 0.71553 0.56748
 H2297 H 0.20345 0.73694 0.54341
 H2298 H 0.19234 0.75809 0.59880
 C2299 C 0.73830 0.19486 0.06207
 C2300 C 0.70966 0.22246 0.06447
 C2301 C 0.70629 0.23645 0.09395
 C2302 C 0.73171 0.22130 0.11810
 C2303 C 0.72526 0.18224 0.11620
 C2304 C 0.72918 0.16865 0.08753
 C2305 C 0.77056 0.21351 0.07434
 C2306 C 0.76721 0.22688 0.10326
 H2307 H 0.69367 0.23042 0.04498
 H2308 H 0.68745 0.25603 0.09940
 H2309 H 0.71813 0.16633 0.13605
 H2310 H 0.72660 0.14127 0.08359
 H2311 H 0.79396 0.21684 0.06088
 H2312 H 0.78781 0.24145 0.11426
 C2313 C 0.74828 0.20480 0.94338
 C2314 C 0.71490 0.22387 0.93518
 C2315 C 0.71546 0.23912 0.90616
 C2316 C 0.74950 0.23425 0.88788
 C2317 C 0.77754 0.24768 0.90989
 C2318 C 0.77693 0.23237 0.93880
 C2319 C 0.75303 0.17989 0.91603
 C2320 C 0.75497 0.19507 0.88790
 H2321 H 0.69289 0.22541 0.95058
 H2322 H 0.69384 0.25378 0.89712
 H2323 H 0.79598 0.26753 0.90358
 H2324 H 0.79495 0.23950 0.95707
 H2325 H 0.75534 0.15217 0.91861
 H2326 H 0.76036 0.18009 0.86727
 C2327 C 0.25341 0.70285 0.44144
 C2328 C 0.22080 0.72308 0.43301
 C2329 C 0.22157 0.73697 0.40342
 C2330 C 0.25504 0.72961 0.38494
 C2331 C 0.28404 0.74268 0.40605
 C2332 C 0.28318 0.72884 0.43547
 C2333 C 0.25646 0.67647 0.41500
 C2334 C 0.25851 0.69023 0.38626
 H2335 H 0.19919 0.72633 0.44863
 H2336 H 0.20052 0.75219 0.39407
 H2337 H 0.30326 0.76137 0.39880
 H2338 H 0.30177 0.73606 0.45324
 H2339 H 0.25730 0.64880 0.41865
 H2340 H 0.26224 0.67408 0.36603
 C2341 C 0.74667 0.80350 0.43530
 C2342 C 0.71883 0.77496 0.43262
 C2343 C 0.71526 0.76165 0.40287
 C2344 C 0.73975 0.77837 0.37883
 C2345 C 0.73220 0.81713 0.38158
 C2346 C 0.73598 0.83007 0.41064
 C2347 C 0.77916 0.78625 0.42233
 C2348 C 0.77564 0.77361 0.39320
 H2349 H 0.70349 0.76596 0.45211
 H2350 H 0.69685 0.74158 0.39714
 H2351 H 0.72332 0.83296 0.36224
 H2352 H 0.73042 0.85677 0.41592
 H2353 H 0.80280 0.78292 0.43559
 H2354 H 0.79634 0.75983 0.38183
 C2355 C 0.24844 0.30271 0.93443
 C2356 C 0.28071 0.28412 0.92257
 C2357 C 0.27735 0.27017 0.89386
 C2358 C 0.24183 0.27514 0.87871
 C2359 C 0.21652 0.26017 0.90297
 C2360 C 0.21992 0.27473 0.93228
 C2361 C 0.23899 0.32836 0.90861
 C2362 C 0.23525 0.31420 0.88003
 H2363 H 0.30409 0.28103 0.93625
 H2364 H 0.29792 0.25547 0.88328
 H2365 H 0.19780 0.24022 0.89775
 H2366 H 0.20407 0.26690 0.95183
 H2367 H 0.23486 0.35557 0.91259
 H2368 H 0.22742 0.32950 0.85999
 C2369 C 0.86325 0.44588 0.75431
 C2370 C 0.88202 0.41101 0.75299
 C2371 C 0.86116 0.38299 0.75562
 C2372 C 0.82286 0.39149 0.75893
 C2373 C 0.82087 0.41538 0.78705
 C2374 C 0.84158 0.44375 0.78460
 C2375 C 0.83638 0.44382 0.72823
 C2376 C 0.81522 0.41560 0.73061
 H2377 H 0.90964 0.40862 0.74989
 H2378 H 0.87109 0.35693 0.75496
 H2379 H 0.80410 0.41090 0.80683
 H2380 H 0.84214 0.46344 0.80245
 H2381 H 0.83361 0.46290 0.70988
 H2382 H 0.79441 0.41122 0.71413
 C2383 C 0.36631 0.94225 0.25350
 C2384 C 0.38708 0.90843 0.25336
 C2385 C 0.36770 0.87924 0.25514
 C2386 C 0.32885 0.88563 0.25641
 C2387 C 0.32377 0.90959 0.28417
 C2388 C 0.34300 0.93904 0.28263
 C2389 C 0.34130 0.93854 0.22611
 C2390 C 0.32171 0.90917 0.22756
 H2391 H 0.41495 0.90759 0.25163
 H2392 H 0.37908 0.85376 0.25516
 H2393 H 0.30613 0.90424 0.30316
 H2394 H 0.34145 0.95874 0.30040
 H2395 H 0.33868 0.95730 0.20746
 H2396 H 0.30238 0.90357 0.20996
 C2397 C 0.13833 0.93647 0.74705
 C2398 C 0.16272 0.92978 0.77461
 C2399 C 0.18090 0.90010 0.77270
 C2400 C 0.17369 0.87866 0.74313
 C2401 C 0.13446 0.87376 0.74291
 C2402 C 0.11618 0.90358 0.74479
 C2403 C 0.16209 0.93455 0.71829
 C2404 C 0.18048 0.90434 0.71625
 H2405 H 0.16625 0.94761 0.79376
 H2406 H 0.19980 0.89334 0.79038
 H2407 H 0.12201 0.84880 0.74113
 H2408 H 0.08822 0.90382 0.74437
 H2409 H 0.16461 0.95498 0.70116
 H2410 H 0.19829 0.89933 0.69741
 C2411 C 0.63999 0.44071 0.24653
 C2412 C 0.66525 0.43472 0.27356
 C2413 C 0.68383 0.40534 0.27146
 C2414 C 0.67612 0.38350 0.24222
 C2415 C 0.63699 0.37792 0.24296
 C2416 C 0.61830 0.40745 0.24504
 C2417 C 0.66294 0.43891 0.21722
 C2418 C 0.68174 0.40899 0.21498
 H2419 H 0.66902 0.45280 0.29248
 H2420 H 0.70334 0.39909 0.28874
 H2421 H 0.62491 0.35276 0.24167
 H2422 H 0.59034 0.40724 0.24527
 H2423 H 0.66463 0.45919 0.19987
 H2424 H 0.69907 0.40407 0.19576
 C2425 C 0.63623 0.56673 0.24760
 C2426 C 0.61687 0.60130 0.24598
 C2427 C 0.63737 0.62963 0.24791
 C2428 C 0.67581 0.62160 0.25084
 C2429 C 0.67888 0.59789 0.27927
 C2430 C 0.65853 0.56928 0.27755
 C2431 C 0.66236 0.56899 0.22109
 C2432 C 0.68311 0.59751 0.22274
 H2433 H 0.58917 0.60328 0.24299
 H2434 H 0.62711 0.65555 0.24670
 H2435 H 0.69606 0.60274 0.29878
 H2436 H 0.65862 0.54972 0.29571
 H2437 H 0.66486 0.54992 0.20290
 H2438 H 0.70331 0.60215 0.20582
 C2439 C 0.13470 0.06317 0.74766
 C2440 C 0.16142 0.06514 0.72158
 C2441 C 0.18209 0.09376 0.72319
 C2442 C 0.17418 0.11832 0.75077
 C2443 C 0.13572 0.12613 0.74712
 C2444 C 0.11532 0.09768 0.74528
 C2445 C 0.15638 0.06634 0.77793
 C2446 C 0.17667 0.09505 0.77958
 H2447 H 0.16438 0.04580 0.70369
 H2448 H 0.20263 0.09820 0.70656
 H2449 H 0.12539 0.15200 0.74565
 H2450 H 0.08764 0.09952 0.74202
 H2451 H 0.15611 0.04712 0.79638
 H2452 H 0.19341 0.10027 0.79932
 C2453 C 0.36449 0.07050 0.24623
 C2454 C 0.33538 0.07593 0.26960
 C2455 C 0.31711 0.10530 0.26504
 C2456 C 0.32933 0.12807 0.23752
 C2457 C 0.36793 0.13344 0.24361
 C2458 C 0.38611 0.10383 0.24787
 C2459 C 0.34613 0.07317 0.21414
 C2460 C 0.32800 0.10333 0.20955
 H2461 H 0.32873 0.05740 0.28764
 H2462 H 0.29484 0.11113 0.27923
 H2463 H 0.38021 0.15858 0.24362
 H2464 H 0.41381 0.10404 0.25142
 H2465 H 0.34624 0.05297 0.19686
 H2466 H 0.31344 0.10854 0.18843
 C2467 C 0.86380 0.57201 0.74678
 C2468 C 0.83432 0.57638 0.76997
 C2469 C 0.81540 0.60536 0.76558
 C2470 C 0.82741 0.62880 0.73842
 C2471 C 0.86580 0.63500 0.74497
 C2472 C 0.88463 0.60577 0.74906
 C2473 C 0.84574 0.57477 0.71454
 C2474 C 0.82696 0.60452 0.71016
 H2475 H 0.82798 0.55745 0.78776
 H2476 H 0.79289 0.61054 0.77969
 H2477 H 0.87747 0.66041 0.74542
 H2478 H 0.91226 0.60657 0.75294
 H2479 H 0.84644 0.55488 0.69700
 H2480 H 0.81250 0.60970 0.68898
 C2481 C 0.93970 0.72894 0.15163
 C2482 C 0.90487 0.72480 0.13520
 C2483 C 0.87791 0.72814 0.15454
 C2484 C 0.88839 0.73507 0.18852
 C2485 C 0.91221 0.70488 0.19740
 C2486 C 0.93939 0.70150 0.17764
 C2487 C 0.93825 0.76369 0.16887
 C2488 C 0.91127 0.76684 0.18803
 H2489 H 0.90174 0.71845 0.11073
 H2490 H 0.85151 0.72477 0.14661
 H2491 H 0.90764 0.68720 0.21660
 H2492 H 0.95756 0.68051 0.17976
 H2493 H 0.95709 0.78418 0.16652
 H2494 H 0.90705 0.78963 0.20204
 C2495 C 0.43827 0.22861 0.64852
 C2496 C 0.43792 0.19963 0.67318
 C2497 C 0.41062 0.20165 0.69293
 C2498 C 0.38671 0.23211 0.68538
 C2499 C 0.40942 0.26405 0.68649
 C2500 C 0.43651 0.26227 0.66729
 C2501 C 0.40360 0.22521 0.63167
 C2502 C 0.37648 0.22714 0.65103
 H2503 H 0.45592 0.17840 0.67415
 H2504 H 0.40585 0.18266 0.71104
 H2505 H 0.40494 0.28599 0.70149
 H2506 H 0.45519 0.28302 0.66582
 H2507 H 0.40070 0.22029 0.60691
 H2508 H 0.35015 0.22399 0.64282
 C2509 C 0.43031 0.74144 0.84876
 C2510 C 0.43206 0.76730 0.82153
 C2511 C 0.40426 0.76643 0.80242
 C2512 C 0.37736 0.73965 0.81236
 C2513 C 0.39687 0.70527 0.81411
 C2514 C 0.42487 0.70618 0.83342
 C2515 C 0.39617 0.74860 0.86539
 C2516 C 0.36865 0.74835 0.84627
 H2517 H 0.45367 0.78453 0.81744
 H2518 H 0.40212 0.78287 0.78199
 H2519 H 0.38899 0.68221 0.80180
 H2520 H 0.44057 0.68368 0.83799
 H2521 H 0.39364 0.75258 0.89030
 H2522 H 0.34276 0.75286 0.85480
 C2523 C 0.94681 0.25546 0.33178
 C2524 C 0.94324 0.22536 0.31153
 C2525 C 0.91063 0.22410 0.29572
 C2526 C 0.88857 0.25337 0.30280
 C2527 C 0.88505 0.25366 0.33657
 C2528 C 0.91692 0.25426 0.35248
 C2529 C 0.94130 0.28493 0.31100
 C2530 C 0.90903 0.28393 0.29513
 H2531 H 0.96397 0.20815 0.30528
 H2532 H 0.90474 0.20515 0.27796
 H2533 H 0.86067 0.25394 0.34894
 H2534 H 0.91818 0.25437 0.37778
 H2535 H 0.96028 0.30496 0.30659
 H2536 H 0.90170 0.30356 0.27831
 C2537 C 0.06330 0.23698 0.34824
 C2538 C 0.06405 0.20517 0.32694
 C2539 C 0.09262 0.20412 0.30847
 C2540 C 0.11714 0.23482 0.31371
 C2541 C 0.09517 0.26683 0.30813
 C2542 C 0.06693 0.26791 0.32608
 C2543 C 0.09713 0.23501 0.36680
 C2544 C 0.12536 0.23400 0.34868
 H2545 H 0.04508 0.18466 0.32709
 H2546 H 0.09768 0.18307 0.29265
 H2547 H 0.10087 0.28657 0.29087
 H2548 H 0.04831 0.28862 0.32420
 H2549 H 0.09863 0.23314 0.39203
 H2550 H 0.15114 0.23142 0.35834
 C2551 C 0.55066 0.74913 0.83399
 C2552 C 0.55148 0.71766 0.81240
 C2553 C 0.58265 0.71338 0.79822
 C2554 C 0.60927 0.74123 0.80723
 C2555 C 0.59179 0.77544 0.79914
 C2556 C 0.56097 0.77947 0.81291
 C2557 C 0.58095 0.74372 0.85675
 C2558 C 0.61157 0.73966 0.84271
 H2559 H 0.52969 0.70085 0.80795
 H2560 H 0.58755 0.69269 0.78198
 H2561 H 0.60216 0.79432 0.78291
 H2562 H 0.54478 0.80167 0.80831
 H2563 H 0.57840 0.74250 0.88192
 H2564 H 0.63516 0.73491 0.85571
 C2565 C 0.55188 0.25325 0.66923
 C2566 C 0.55907 0.22183 0.69014
 C2567 C 0.59012 0.22368 0.70487
 C2568 C 0.61018 0.25686 0.69747
 C2569 C 0.61354 0.25812 0.66212
 C2570 C 0.58323 0.25567 0.64730
 C2571 C 0.55481 0.28425 0.69108
 C2572 C 0.58555 0.28636 0.70584
 H2573 H 0.54126 0.20079 0.69423
 H2574 H 0.59898 0.20410 0.72106
 H2575 H 0.63773 0.26061 0.64966
 H2576 H 0.58181 0.25595 0.62206
 H2577 H 0.53423 0.30255 0.69502
 H2578 H 0.59128 0.30673 0.72228
 C2579 C 0.05299 0.75307 0.17147
 C2580 C 0.06085 0.72170 0.19216
 C2581 C 0.09199 0.72399 0.20663
 C2582 C 0.11153 0.75752 0.19919
 C2583 C 0.11437 0.75907 0.16378
 C2584 C 0.08402 0.75606 0.14927
 C2585 C 0.05581 0.78410 0.19348
 C2586 C 0.08676 0.78658 0.20801
 H2587 H 0.04339 0.70036 0.19628
 H2588 H 0.10128 0.70449 0.22272
 H2589 H 0.13832 0.76221 0.15104
 H2590 H 0.08235 0.75643 0.12403
 H2591 H 0.03501 0.80206 0.19768
 H2592 H 0.09258 0.80685 0.22454
   
