data_POSCAR
  _audit_creation_date              2014-09-24
  _audit_creation_method            'ToBaCCo'
  _symmetry_space_group_name_H-M    'P1'
  _symmetry_Int_Tables_number       1
  _symmetry_cell_setting            triclinic
  loop_
  _symmetry_equiv_pos_as_xyz
 x,y,z
_cell_length_a 61.2040
_cell_length_b 60.9884
_cell_length_c 61.9689
_cell_angle_alpha 90.421200
_cell_angle_beta 89.378900
_cell_angle_gamma 90.498900
loop_
  _atom_site_label
  _atom_site_type_symbol
  _atom_site_fract_x
  _atom_site_fract_y
  _atom_site_fract_z
C1 C 0.33058 1.36225 0.33281
 C2 C 0.33989 1.37188 0.31455
 C3 C 0.35828 1.36282 0.30423
 C4 C 0.36757 1.34359 0.31285
 C5 C 0.35825 1.33361 0.33136
 C6 C 0.33962 1.34309 0.34127
 C7 C 0.31206 1.37152 0.34249
 C8 C 0.30220 1.36202 0.36076
 C9 C 0.31125 1.34275 0.36920
 C10 C 0.32977 1.33327 0.35949
 C11 C 0.33830 1.31387 0.36758
 C12 C 0.35674 1.30415 0.35806
 C13 C 0.36685 1.31414 0.33999
 H14 H 0.33255 1.38661 0.30822
 H15 H 0.38167 1.33612 0.30524
 H16 H 0.30525 1.38628 0.33567
 H17 H 0.30389 1.33465 0.38296
 H18 H 0.33051 1.30621 0.38144
 H19 H 0.38087 1.30654 0.33231
 C20 C 0.32444 0.85075 0.82297
 C21 C 0.33082 0.85937 0.80274
 C22 C 0.34742 0.84915 0.79042
 C23 C 0.35777 0.83060 0.79847
 C24 C 0.35213 0.82226 0.81869
 C25 C 0.33533 0.83218 0.83095
 C26 C 0.30726 0.86006 0.83525
 C27 C 0.30081 0.85084 0.85531
 C28 C 0.31214 0.83255 0.86293
 C29 C 0.32931 0.82330 0.85108
 C30 C 0.34045 0.80512 0.85908
 C31 C 0.35766 0.79567 0.84715
 C32 C 0.36310 0.80409 0.82681
 H33 H 0.32257 0.87354 0.79637
 H34 H 0.37057 0.82278 0.78900
 H35 H 0.29889 0.87407 0.82882
 H36 H 0.30755 0.82534 0.87831
 H37 H 0.33540 0.79825 0.87441
 H38 H 0.37614 0.79662 0.81739
 C39 C 0.81851 1.34507 0.82330
 C40 C 0.83025 1.35590 0.80690
 C41 C 0.84937 1.34660 0.79783
 C42 C 0.85663 1.32635 0.80580
 C43 C 0.84513 1.31542 0.82226
 C44 C 0.82583 1.32466 0.83080
 C45 C 0.79953 1.35433 0.83237
 C46 C 0.78778 1.34326 0.84868
 C47 C 0.79480 1.32269 0.85550
 C48 C 0.81384 1.31346 0.84691
 C49 C 0.82127 1.29339 0.85457
 C50 C 0.84088 1.28453 0.84682
 C51 C 0.85266 1.29543 0.83041
 H52 H 0.82402 1.37131 0.80126
 H53 H 0.87135 1.31901 0.79917
 H54 H 0.79385 1.36997 0.82657
 H55 H 0.78571 1.31410 0.86802
 H56 H 0.81212 1.28495 0.86715
 H57 H 0.86753 1.28836 0.82390
 C58 C 0.84226 0.86305 0.33357
 C59 C 0.85462 0.87120 0.31617
 C60 C 0.87387 0.86056 0.30914
 C61 C 0.88038 0.84150 0.31992
 C62 C 0.86828 0.83332 0.33751
 C63 C 0.84913 0.84411 0.34436
 C64 C 0.82293 0.87343 0.34015
 C65 C 0.81039 0.86531 0.35745
 C66 C 0.81733 0.84635 0.36819
 C67 C 0.83664 0.83574 0.36176
 C68 C 0.84354 0.81675 0.37229
 C69 C 0.86279 0.80606 0.36577
 C70 C 0.87495 0.81435 0.34817
 H71 H 0.84860 0.88548 0.30800
 H72 H 0.89503 0.83300 0.31469
 H73 H 0.81758 0.88793 0.33174
 H74 H 0.80758 0.83944 0.38117
 H75 H 0.83395 0.81028 0.38565
 H76 H 0.88936 0.80592 0.34234
 C77 C 0.68210 0.64665 0.32477
 C78 C 0.67202 0.63462 0.30822
 C79 C 0.65233 0.64165 0.29900
 C80 C 0.64257 0.66105 0.30710
 C81 C 0.65251 0.67335 0.32365
 C82 C 0.67247 0.66623 0.33229
 C83 C 0.70175 0.63951 0.33387
 C84 C 0.71196 0.65195 0.35020
 C85 C 0.70261 0.67171 0.35703
 C86 C 0.68291 0.67879 0.34840
 C87 C 0.67346 0.69822 0.35583
 C88 C 0.65341 0.70521 0.34784
 C89 C 0.64296 0.69279 0.33164
 H90 H 0.67969 0.61970 0.30238
 H91 H 0.62747 0.66705 0.30060
 H92 H 0.70918 0.62452 0.32801
 H93 H 0.71052 0.68140 0.36951
 H94 H 0.68159 0.70780 0.36825
 H95 H 0.62771 0.69837 0.32498
 C96 C 0.67632 0.14364 0.81825
 C97 C 0.66939 0.13553 0.79828
 C98 C 0.65009 0.14296 0.78907
 C99 C 0.63802 0.15945 0.79966
 C100 C 0.64514 0.16816 0.81951
 C101 C 0.66425 0.16000 0.82903
 C102 C 0.69501 0.13521 0.82765
 C103 C 0.70183 0.14218 0.84816
 C104 C 0.68990 0.15890 0.85892
 C105 C 0.67124 0.16809 0.84928
 C106 C 0.65937 0.18509 0.85946
 C107 C 0.64058 0.19379 0.84968
 C108 C 0.63348 0.18488 0.82996
 H109 H 0.67875 0.12285 0.79011
 H110 H 0.62335 0.16572 0.79237
 H111 H 0.70400 0.12253 0.81905
 H112 H 0.69501 0.16500 0.87452
 H113 H 0.66466 0.19125 0.87498
 H114 H 0.61891 0.19125 0.82251
 C115 C 1.18042 0.65396 0.82155
 C116 C 1.16955 0.64496 0.80342
 C117 C 1.15252 0.65663 0.79351
 C118 C 1.14607 0.67690 0.80215
 C119 C 1.15632 0.68587 0.82022
 C120 C 1.17379 0.67463 0.82969
 C121 C 1.19784 0.64294 0.83164
 C122 C 1.20877 0.65274 0.84941
 C123 C 1.20202 0.67346 0.85674
 C124 C 1.18467 0.68424 0.84731
 C125 C 1.17791 0.70449 0.85562
 C126 C 1.15994 0.71514 0.84695
 C127 C 1.14934 0.70597 0.82899
 H128 H 1.17474 0.62937 0.79676
 H129 H 1.13288 0.68580 0.79471
 H130 H 1.20286 0.62711 0.82546
 H131 H 1.21015 0.68127 0.87031
 H132 H 1.18619 0.71167 0.86939
 H133 H 1.13580 0.71448 0.82179
 C134 C 1.17108 0.14146 0.32568
 C135 C 1.16344 0.13247 0.30636
 C136 C 1.14400 0.13976 0.29717
 C137 C 1.13253 0.15698 0.30743
 C138 C 1.14031 0.16637 0.32671
 C139 C 1.15952 0.15838 0.33608
 C140 C 1.19014 0.13351 0.33467
 C141 C 1.19798 0.14173 0.35434
 C142 C 1.18644 0.15884 0.36487
 C143 C 1.16728 0.16737 0.35567
 C144 C 1.15584 0.18483 0.36550
 C145 C 1.13683 0.19322 0.35591
 C146 C 1.12923 0.18374 0.33665
 H147 H 1.17259 0.11936 0.29863
 H148 H 1.11780 0.16346 0.30056
 H149 H 1.19880 0.12043 0.32632
 H150 H 1.19228 0.16579 0.37987
 H151 H 1.16209 0.19209 0.38020
 H152 H 1.11460 0.19005 0.32926
 C153 C 0.67575 1.34824 0.67764
 C154 C 0.66848 1.35713 0.69744
 C155 C 0.65286 1.34581 0.71006
 C156 C 0.64476 1.32550 0.70296
 C157 C 0.65147 1.31669 0.68314
 C158 C 0.66705 1.32801 0.67042
 C159 C 0.69149 1.35923 0.66494
 C160 C 0.69872 1.35015 0.64506
 C161 C 0.68971 1.33003 0.63812
 C162 C 0.67389 1.31905 0.65049
 C163 C 0.66466 1.29929 0.64312
 C164 C 0.64854 1.28841 0.65546
 C165 C 0.64248 1.29691 0.67568
 H166 H 0.67516 1.37262 0.70307
 H167 H 0.63271 1.31680 0.71268
 H168 H 0.69809 1.37456 0.67093
 H169 H 0.69496 1.32286 0.62286
 H170 H 0.67012 1.29244 0.62784
 H171 H 0.63022 1.28842 0.68533
 C172 C 0.64450 0.88152 1.15358
 C173 C 0.63135 0.88842 1.17096
 C174 C 0.61262 0.87622 1.17724
 C175 C 0.60729 0.85707 1.16557
 C176 C 0.62017 0.85014 1.14801
 C177 C 0.63888 0.86236 1.14200
 C178 C 0.66353 0.89322 1.14796
 C179 C 0.67698 0.88612 1.13086
 C180 C 0.67125 0.86697 1.11934
 C181 C 0.65230 0.85509 1.12479
 C182 C 0.64681 0.83577 1.11361
 C183 C 0.62805 0.82365 1.11931
 C184 C 0.61487 0.83088 1.13667
 H185 H 0.63646 0.90285 1.17982
 H186 H 0.59306 0.84740 1.17023
 H187 H 0.66802 0.90783 1.15702
 H188 H 0.68180 0.86080 1.10659
 H189 H 0.65719 0.83007 1.10046
 H190 H 0.60084 0.82130 1.14188
 C191 C 1.18496 1.34579 1.17608
 C192 C 1.17514 1.35766 1.19304
 C193 C 1.15679 1.34926 1.20420
 C194 C 1.14801 1.32874 1.19792
 C195 C 1.15766 1.31661 1.18104
 C196 C 1.17646 1.32500 1.17042
 C197 C 1.20311 1.35436 1.16467
 C198 C 1.21313 1.34209 1.14788
 C199 C 1.20510 1.32096 1.14327
 C200 C 1.18678 1.31255 1.15409
 C201 C 1.17838 1.29198 1.14838
 C202 C 1.15922 1.28398 1.15807
 C203 C 1.14890 1.29621 1.17453
 H204 H 1.18188 1.37350 1.19766
 H205 H 1.13410 1.32178 1.20641
 H206 H 1.20930 1.37038 1.16920
 H207 H 1.21271 1.31119 1.13059
 H208 H 1.18626 1.28250 1.13567
 H209 H 1.13425 1.28980 1.18229
 C210 C 1.17171 0.85339 0.67980
 C211 C 1.16176 0.86045 0.69915
 C212 C 1.14580 0.84732 0.70941
 C213 C 1.14039 0.82684 0.70058
 C214 C 1.14994 0.81977 0.68118
 C215 C 1.16551 0.83313 0.67055
 C216 C 1.18774 0.86629 0.66960
 C217 C 1.19762 0.85952 0.65005
 C218 C 1.19085 0.83938 0.64062
 C219 C 1.17490 0.82616 0.65077
 C220 C 1.16821 0.80600 0.64161
 C221 C 1.15264 0.79272 0.65231
 C222 C 1.14390 0.79962 0.67216
 H223 H 1.16663 0.87600 0.70624
 H224 H 1.12825 0.81659 0.70858
 H225 H 1.19256 0.88174 0.67700
 H226 H 1.19804 0.83350 0.62570
 H227 H 1.17536 0.80052 0.62646
 H228 H 1.13190 0.78940 0.68042
 C229 C 0.32241 0.64553 0.68243
 C230 C 0.33205 0.64049 0.70205
 C231 C 0.35056 0.65192 0.70914
 C232 C 0.35951 0.66896 0.69644
 C233 C 0.34953 0.67477 0.67684
 C234 C 0.33096 0.66280 0.66983
 C235 C 0.30416 0.63359 0.67536
 C236 C 0.29436 0.63846 0.65569
 C237 C 0.30248 0.65608 0.64338
 C238 C 0.32064 0.66830 0.65040
 C239 C 0.32835 0.68615 0.63843
 C240 C 0.34649 0.69849 0.64522
 C241 C 0.35728 0.69257 0.66436
 H242 H 0.32521 0.62740 0.71186
 H243 H 0.37366 0.67802 0.70213
 H244 H 0.29771 0.62025 0.68507
 H245 H 0.29449 0.66062 0.62858
 H246 H 0.32009 0.69057 0.62370
 H247 H 0.37112 0.70214 0.66994
 C248 C 0.32663 0.14423 1.17622
 C249 C 0.33505 0.13355 1.19416
 C250 C 0.35552 0.13944 1.20255
 C251 C 0.36732 0.15684 1.19285
 C252 C 0.35889 0.16782 1.17495
 C253 C 0.33860 0.16132 1.16639
 C254 C 0.30634 0.13797 1.16802
 C255 C 0.29793 0.14813 1.14976
 C256 C 0.30984 0.16523 1.13980
 C257 C 0.33013 0.17207 1.14819
 C258 C 0.34195 0.18961 1.13898
 C259 C 0.36210 0.19645 1.14777
 C260 C 0.37039 0.18537 1.16565
 H261 H 0.32562 0.12036 1.20150
 H262 H 0.38285 0.16230 1.19915
 H263 H 0.29713 0.12484 1.17570
 H264 H 0.30319 0.17346 1.12594
 H265 H 0.33510 0.19819 1.12545
 H266 H 0.38587 0.19056 1.17245
 C267 C 0.82136 0.64757 1.18570
 C268 C 0.82939 0.63659 1.20366
 C269 C 0.84969 0.64231 1.21234
 C270 C 0.86170 0.65984 1.20336
 C271 C 0.85370 0.67114 1.18546
 C272 C 0.83360 0.66477 1.17632
 C273 C 0.80124 0.64150 1.17703
 C274 C 0.79326 0.65186 1.15869
 C275 C 0.80549 0.66898 1.14909
 C276 C 0.82560 0.67574 1.15803
 C277 C 0.83770 0.69342 1.14934
 C278 C 0.85760 0.70017 1.15878
 C279 C 0.86541 0.68883 1.17672
 H280 H 0.81996 0.62327 1.21073
 H281 H 0.87704 0.66497 1.21041
 H282 H 0.79182 0.62833 1.18441
 H283 H 0.79916 0.67730 1.13512
 H284 H 0.83126 0.70219 1.13572
 H285 H 0.88071 0.69389 1.18398
 C286 C 0.83131 0.13719 0.67822
 C287 C 0.84309 0.12855 0.69552
 C288 C 0.85972 0.14105 0.70557
 C289 C 0.86396 0.16241 0.69822
 C290 C 0.85250 0.17105 0.68090
 C291 C 0.83625 0.15840 0.67064
 C292 C 0.81458 0.12495 0.66849
 C293 C 0.80275 0.13332 0.65105
 C294 C 0.80826 0.15445 0.64321
 C295 C 0.82489 0.16704 0.65294
 C296 C 0.83027 0.18823 0.64547
 C297 C 0.84644 0.20086 0.65594
 C298 C 0.85721 0.19222 0.67372
 H299 H 0.83895 0.11226 0.70101
 H300 H 0.87651 0.17237 0.70586
 H301 H 0.81072 0.10873 0.67463
 H302 H 0.79955 0.16157 0.62996
 H303 H 0.82164 0.19503 0.63193
 H304 H 0.86967 0.20194 0.68175
 C305 C 1.34990 0.31933 0.68226
 C306 C 1.35656 0.32753 0.70218
 C307 C 1.34957 0.34804 0.70979
 C308 C 1.33393 0.35966 0.69771
 C309 C 1.32591 0.35080 0.67806
 C310 C 1.33466 0.33090 0.67004
 C311 C 1.35897 0.29995 0.67419
 C312 C 1.35396 0.29219 0.65346
 C313 C 1.33820 0.30345 0.64139
 C314 C 1.32834 0.32255 0.64974
 C315 C 1.31234 0.33344 0.63805
 C316 C 1.30234 0.35245 0.64625
 C317 C 1.30952 0.36138 0.66614
 H318 H 1.36839 0.31830 0.71128
 H319 H 1.32769 0.37517 0.70359
 H320 H 1.37088 0.29139 0.68382
 H321 H 1.33326 0.29747 0.62570
 H322 H 1.30728 0.32681 0.62258
 H323 H 1.30259 0.37650 0.67225
 C324 C 1.36374 0.83548 1.15812
 C325 C 1.37564 0.84209 1.17633
 C326 C 1.36943 0.86062 1.18841
 C327 C 1.35082 0.87237 1.18235
 C328 C 1.33877 0.86595 1.16424
 C329 C 1.34523 0.84745 1.15206
 C330 C 1.36998 0.81698 1.14604
 C331 C 1.35787 0.81009 1.12786
 C332 C 1.33924 0.82207 1.12221
 C333 C 1.33297 0.84073 1.13402
 C334 C 1.31454 0.85273 1.12812
 C335 C 1.30823 0.87141 1.14005
 C336 C 1.32025 0.87769 1.15824
 H337 H 1.38984 0.83285 1.18110
 H338 H 1.34529 0.88621 1.19191
 H339 H 1.38395 0.80791 1.15143
 H340 H 1.32965 0.81698 1.10840
 H341 H 1.30496 0.84720 1.11451
 H342 H 1.31527 0.89193 1.16761
 C343 C 0.85185 0.32625 1.17979
 C344 C 0.85640 0.33361 1.20066
 C345 C 0.84491 0.35114 1.20980
 C346 C 0.82825 0.36128 1.19805
 C347 C 0.82291 0.35354 1.17720
 C348 C 0.83500 0.33605 1.16803
 C349 C 0.86390 0.30909 1.17061
 C350 C 0.85963 0.30145 1.14962
 C351 C 0.84242 0.31103 1.13807
 C352 C 0.83008 0.32811 1.14723
 C353 C 0.81268 0.33711 1.13595
 C354 C 0.80014 0.35414 1.14489
 C355 C 0.80551 0.36255 1.16550
 H356 H 0.86921 0.32588 1.20980
 H357 H 0.81920 0.37468 1.20532
 H358 H 0.87688 0.30177 1.17986
 H359 H 0.83811 0.30523 1.12216
 H360 H 0.80871 0.33068 1.12008
 H361 H 0.79587 0.37549 1.17276
 C362 C 0.85264 0.83233 0.67658
 C363 C 0.86010 0.84275 0.69545
 C364 C 0.84823 0.86010 0.70484
 C365 C 0.82867 0.86662 0.69538
 C366 C 0.82114 0.85643 0.67653
 C367 C 0.83318 0.83931 0.66689
 C368 C 0.86419 0.81480 0.66748
 C369 C 0.85684 0.80414 0.64872
 C370 C 0.83752 0.81141 0.63883
 C371 C 0.82557 0.82897 0.64786
 C372 C 0.80593 0.83615 0.63856
 C373 C 0.79384 0.85319 0.64840
 C374 C 0.80158 0.86306 0.66734
 H375 H 0.87484 0.83697 0.70295
 H376 H 0.81931 0.87980 0.70270
 H377 H 0.87901 0.80929 0.67514
 H378 H 0.83140 0.80315 0.62459
 H379 H 0.79983 0.82815 0.62414
 H380 H 0.79230 0.87613 0.67497
 C381 C 0.64749 0.67849 0.67947
 C382 C 0.64057 0.66801 0.69847
 C383 C 0.65357 0.65184 0.70789
 C384 C 0.67387 0.64682 0.69857
 C385 C 0.68087 0.65703 0.67953
 C386 C 0.66756 0.67274 0.66969
 C387 C 0.63471 0.69475 0.67020
 C388 C 0.64139 0.70517 0.65110
 C389 C 0.66125 0.69901 0.64104
 C390 C 0.67445 0.68283 0.65027
 C391 C 0.69454 0.67672 0.64071
 C392 C 0.70785 0.66116 0.65078
 C393 C 0.70097 0.65165 0.67020
 H394 H 0.62523 0.67269 0.70598
 H395 H 0.68408 0.63458 0.70597
 H396 H 0.61943 0.69937 0.67794
 H397 H 0.66681 0.70715 0.62650
 H398 H 0.70002 0.68437 0.62586
 H399 H 0.71123 0.63964 0.67791
 C400 C 0.65019 1.18303 1.17208
 C401 C 0.63807 1.17344 1.18893
 C402 C 0.64620 1.15545 1.20031
 C403 C 0.66674 1.14677 1.19437
 C404 C 0.67915 1.15624 1.17756
 C405 C 0.67096 1.17468 1.16669
 C406 C 0.64189 1.20090 1.16059
 C407 C 0.65435 1.21080 1.14392
 C408 C 0.67540 1.20288 1.13946
 C409 C 0.68361 1.18487 1.15045
 C410 C 0.70425 1.17677 1.14515
 C411 C 0.71222 1.15807 1.15520
 C412 C 0.69970 1.14778 1.17147
 H413 H 0.62225 1.18009 1.19332
 H414 H 0.67345 1.13312 1.20306
 H415 H 0.62592 1.20700 1.16503
 H416 H 0.68533 1.21042 1.12688
 H417 H 0.71395 1.18465 1.13260
 H418 H 0.70606 1.13350 1.17952
 C419 C 0.13616 0.66452 1.16597
 C420 C 0.12445 0.65665 1.18407
 C421 C 0.13112 0.63762 1.19494
 C422 C 0.15023 0.62695 1.18769
 C423 C 0.16210 0.63469 1.16987
 C424 C 0.15505 0.65342 1.15886
 C425 C 0.12934 0.68332 1.15492
 C426 C 0.14128 0.69125 1.13683
 C427 C 0.16020 0.67996 1.13016
 C428 C 0.16710 0.66116 1.14091
 C429 C 0.18601 0.65006 1.13408
 C430 C 0.19302 0.63133 1.14508
 C431 C 0.18110 0.62393 1.16304
 H432 H 0.10994 0.66524 1.18955
 H433 H 0.15662 0.61299 1.19610
 H434 H 0.11492 0.69161 1.16081
 H435 H 0.16963 0.68578 1.11639
 H436 H 0.19542 0.65632 1.12053
 H437 H 0.18656 0.60957 1.17162
 C438 C 0.14750 1.17747 0.67522
 C439 C 0.13614 1.16684 0.69180
 C440 C 0.14421 1.14766 0.70118
 C441 C 0.16411 1.13886 0.69319
 C442 C 0.17585 1.14949 0.67645
 C443 C 0.16752 1.16902 0.66768
 C444 C 0.13909 1.19660 0.66620
 C445 C 0.15047 1.20747 0.64957
 C446 C 0.17075 1.19945 0.64259
 C447 C 0.17927 1.18030 0.65144
 C448 C 0.19935 1.17228 0.64420
 C449 C 0.20768 1.15274 0.65233
 C450 C 0.19587 1.14122 0.66840
 H451 H 0.12083 1.17375 0.69755
 H452 H 0.17077 1.12409 0.69997
 H453 H 0.12386 1.20310 0.67244
 H454 H 0.17975 1.20797 0.62997
 H455 H 0.20845 1.18110 0.63184
 H456 H 0.20249 1.12628 0.67493
 C457 C 1.34045 0.67425 0.32072
 C458 C 1.35101 0.66236 0.30401
 C459 C 1.34106 0.64335 0.29498
 C460 C 1.32070 0.63634 0.30322
 C461 C 1.31016 0.64779 0.31982
 C462 C 1.31981 0.66697 0.32836
 C463 C 1.35010 0.69316 0.33010
 C464 C 1.33899 0.70496 0.34662
 C465 C 1.31819 0.69771 0.35332
 C466 C 1.30878 0.67876 0.34471
 C467 C 1.28871 0.67110 0.35278
 C468 C 1.27971 0.65141 0.34516
 C469 C 1.29020 0.64007 0.32826
 H470 H 1.36670 0.66817 0.29814
 H471 H 1.31293 0.62168 0.29673
 H472 H 1.36598 0.69857 0.32431
 H473 H 1.30941 0.70651 0.36595
 H474 H 1.28052 0.67996 0.36573
 H475 H 1.28295 0.62519 0.32175
 C476 C 1.34357 1.18265 0.81427
 C477 C 1.35321 1.17088 0.79693
 C478 C 1.34198 1.15301 0.78729
 C479 C 1.32141 1.14674 0.79546
 C480 C 1.31173 1.15804 0.81269
 C481 C 1.32258 1.17631 0.82182
 C482 C 1.35437 1.20064 0.82421
 C483 C 1.34400 1.21252 0.84116
 C484 C 1.32284 1.20626 0.84773
 C485 C 1.31232 1.18819 0.83858
 C486 C 1.29180 1.18159 0.84642
 C487 C 1.28156 1.16278 0.83823
 C488 C 1.29135 1.15125 0.82102
 H489 H 1.36904 1.17598 0.79073
 H490 H 1.31283 1.13289 0.78831
 H491 H 1.37049 1.20535 0.81852
 H492 H 1.31460 1.21515 0.86065
 H493 H 1.28415 1.19058 0.85961
 H494 H 1.28318 1.13704 0.81415
 C495 C 0.87426 0.65413 0.84276
 C496 C 0.87913 0.64282 0.82359
 C497 C 0.86555 0.62557 0.81638
 C498 C 0.84681 0.61995 0.82847
 C499 C 0.84173 0.63113 0.84772
 C500 C 0.85551 0.64829 0.85490
 C501 C 0.88761 0.67153 0.84974
 C502 C 0.88258 0.68306 0.86879
 C503 C 0.86376 0.67727 0.88075
 C504 C 0.85025 0.65999 0.87393
 C505 C 0.83130 0.65455 0.88563
 C506 C 0.81763 0.63739 0.87876
 C507 C 0.82288 0.62575 0.85971
 H508 H 0.89315 0.64799 0.81407
 H509 H 0.83616 0.60686 0.82282
 H510 H 0.90192 0.67619 0.84031
 H511 H 0.85913 0.68657 0.89500
 H512 H 0.82716 0.66368 0.90018
 H513 H 0.81208 0.61293 0.85383
 C514 C 0.87836 1.14860 0.34506
 C515 C 0.88508 1.13767 0.32615
 C516 C 0.87330 1.11927 0.31829
 C517 C 0.85479 1.11195 0.32997
 C518 C 0.84798 1.12265 0.34894
 C519 C 0.85978 1.14105 0.35650
 C520 C 0.88963 1.16732 0.35244
 C521 C 0.88260 1.17853 0.37111
 C522 C 0.86401 1.17089 0.38236
 C523 C 0.85265 1.15227 0.37521
 C524 C 0.83388 1.14508 0.38622
 C525 C 0.82208 1.12675 0.37891
 C526 C 0.82920 1.11556 0.36019
 H527 H 0.89915 1.14412 0.31760
 H528 H 0.84547 1.09793 0.32416
 H529 H 0.90377 1.17336 0.34354
 H530 H 0.85776 1.17977 0.39626
 H531 H 0.82830 1.15388 0.40050
 H532 H 0.81989 1.10182 0.35390
 C533 C 0.64579 0.33230 0.31889
 C534 C 0.63694 0.34356 0.30133
 C535 C 0.64850 0.36118 0.29169
 C536 C 0.66915 0.36696 0.29973
 C537 C 0.67796 0.35605 0.31733
 C538 C 0.66624 0.33877 0.32714
 C539 C 0.63456 0.31455 0.32824
 C540 C 0.64329 0.30328 0.34583
 C541 C 0.66358 0.31015 0.35426
 C542 C 0.67509 0.32788 0.34506
 C543 C 0.69539 0.33483 0.35328
 C544 C 0.70701 0.35215 0.34339
 C545 C 0.69834 0.36236 0.32530
 H546 H 0.62125 0.33824 0.29531
 H547 H 0.67837 0.38032 0.29244
 H548 H 0.61896 0.30938 0.32171
 H549 H 0.67081 0.30151 0.36755
 H550 H 0.70228 0.32660 0.36703
 H551 H 0.70733 0.37569 0.31769
 C552 C 0.64127 0.83579 0.82196
 C553 C 0.63346 0.84565 0.80317
 C554 C 0.64481 0.86341 0.79380
 C555 C 0.66420 0.87096 0.80322
 C556 C 0.67209 0.86135 0.82200
 C557 C 0.66059 0.84376 0.83156
 C558 C 0.63022 0.81789 0.83110
 C559 C 0.63798 0.80783 0.84980
 C560 C 0.65722 0.81599 0.85948
 C561 C 0.66860 0.83394 0.85045
 C562 C 0.68805 0.84202 0.85969
 C563 C 0.69955 0.85961 0.85005
 C564 C 0.69146 0.86901 0.83121
 H565 H 0.61885 0.83912 0.79571
 H566 H 0.67314 0.88450 0.79592
 H567 H 0.61549 0.81165 0.82356
 H568 H 0.66373 0.80818 0.87361
 H569 H 0.69440 0.83430 0.87396
 H570 H 0.70030 0.88248 0.82370
 C571 C 0.14846 0.32870 0.81826
 C572 C 0.13995 0.33964 0.80045
 C573 C 0.15150 0.35719 0.79102
 C574 C 0.17208 0.36307 0.79897
 C575 C 0.18068 0.35234 0.81684
 C576 C 0.16872 0.33527 0.82681
 C577 C 0.13692 0.31127 0.82757
 C578 C 0.14494 0.30030 0.84568
 C579 C 0.16508 0.30733 0.85459
 C580 C 0.17708 0.32474 0.84517
 C581 C 0.19736 0.33176 0.85356
 C582 C 0.20937 0.34865 0.84332
 C583 C 0.20099 0.35860 0.82492
 H584 H 0.12446 0.33429 0.79387
 H585 H 0.18119 0.37639 0.79149
 H586 H 0.12144 0.30626 0.82061
 H587 H 0.17181 0.29922 0.86845
 H588 H 0.20398 0.32383 0.86761
 H589 H 0.21022 0.37163 0.81710
 C590 C 0.13624 0.82882 0.32724
 C591 C 0.12689 0.83909 0.30963
 C592 C 0.13625 0.85808 0.30063
 C593 C 0.15550 0.86695 0.30988
 C594 C 0.16518 0.85667 0.32773
 C595 C 0.15542 0.83749 0.33634
 C596 C 0.12663 0.80980 0.33569
 C597 C 0.13577 0.79909 0.35337
 C598 C 0.15512 0.80774 0.36238
 C599 C 0.16493 0.82675 0.35391
 C600 C 0.18430 0.83501 0.36266
 C601 C 0.19426 0.85401 0.35443
 C602 C 0.18460 0.86493 0.33697
 H603 H 0.11213 0.83204 0.30278
 H604 H 0.16319 0.88149 0.30328
 H605 H 0.11183 0.80333 0.32844
 H606 H 0.16298 0.79977 0.37569
 H607 H 0.19170 0.82658 0.37606
 H608 H 0.19237 0.87939 0.33022
 O609 O 0.97786 0.92052 0.89705
 O610 O 0.97765 0.89450 0.87214
 C611 C 0.97023 0.91237 0.87975
 C612 C 0.95226 0.92345 0.86853
 C613 C 0.94580 0.91616 0.84804
 H614 H 0.95447 0.90285 0.84017
 O615 O 1.02273 1.07704 0.89059
 O616 O 1.02222 1.10128 0.86440
 C617 C 1.03016 1.08415 0.87271
 C618 C 1.04866 1.07258 0.86209
 C619 C 1.05733 1.07932 0.84197
 H620 H 1.04978 1.09273 0.83358
 O621 O 0.88868 0.97668 0.92748
 O622 O 0.86350 0.97505 0.90233
 C623 C 0.87128 0.96826 0.92001
 C624 C 0.86058 0.94989 0.93174
 C625 C 0.84045 0.94109 0.92495
 H626 H 0.83210 0.94859 0.91163
 O627 O 1.10937 1.02083 0.92387
 O628 O 1.13482 1.02000 0.89840
 C629 C 1.12712 1.02811 0.91579
 C630 C 1.13838 1.04688 0.92611
 C631 C 1.15828 1.05464 0.91765
 H632 H 1.16610 1.04602 0.90434
 O633 O 0.92239 0.89038 0.98504
 O634 O 0.89753 0.86397 0.98588
 C635 C 0.91519 0.87202 0.97830
 C636 C 0.92738 0.86023 0.96120
 C637 C 0.92254 0.83824 0.95631
 H638 H 0.90999 0.82962 0.96545
 O639 O 1.07780 1.11159 0.97598
 O640 O 1.10296 1.13770 0.97537
 C641 C 1.08532 1.12938 0.96827
 C642 C 1.07391 1.14016 0.95037
 C643 C 1.08117 1.16056 0.94291
 H644 H 1.09455 1.16885 0.95101
 O645 O 0.91918 1.01879 0.89740
 O646 O 0.89427 1.01738 0.87197
 C647 C 0.91208 1.02518 0.87938
 C648 C 0.92451 1.04187 0.86691
 C649 C 0.91802 1.04708 0.84598
 H650 H 0.90416 1.03862 0.83890
 O651 O 1.07869 0.97784 0.89534
 O652 O 1.10409 0.97710 0.86980
 C653 C 1.08607 0.97020 0.87763
 C654 C 1.07378 0.95285 0.86620
 C655 C 1.07997 0.94647 0.84528
 H656 H 1.09343 0.95480 0.83719
 O657 O 1.02110 0.89144 0.92579
 O658 O 1.02071 0.86552 0.90078
 C659 C 1.02830 0.87348 0.91818
 C660 C 1.04600 0.86188 0.92930
 C661 C 1.05326 0.84160 0.92142
 H662 H 1.04530 0.83402 0.90768
 O663 O 0.97967 1.10627 0.92056
 O664 O 0.97885 1.13066 0.89450
 C665 C 0.97169 1.12344 0.91248
 C666 C 0.95346 1.13481 0.92367
 C667 C 0.94607 1.15488 0.91584
 H668 H 0.95430 1.16245 0.90219
 O669 O 0.88859 1.07814 0.97935
 O670 O 0.86337 1.10376 0.97954
 C671 C 0.87064 1.08562 0.97253
 C672 C 0.85852 1.07351 0.95570
 C673 C 0.83816 1.08090 0.94886
 H674 H 0.83078 1.09497 0.95675
 O675 O 1.11010 0.91921 0.98020
 O676 O 1.13567 0.89396 0.97992
 C677 C 1.12782 0.91153 0.97246
 C678 C 1.13893 0.92317 0.95437
 C679 C 1.15925 0.91611 0.94592
 H680 H 1.16728 0.90223 0.95305
 O681 O 0.97990 1.07542 0.89189
 O682 O 0.97915 1.09949 0.86554
 C683 C 0.97196 1.08199 0.87425
 C684 C 0.95374 1.06948 0.86419
 C685 C 0.94672 1.07458 0.84330
 H686 H 0.95536 1.08704 0.83416
 O687 O 1.02054 0.92054 0.89559
 O688 O 1.02026 0.89470 0.87050
 C689 C 1.02778 0.91268 0.87790
 C690 C 1.04545 0.92445 0.86624
 C691 C 1.05218 0.91790 0.84542
 H692 H 1.04388 0.90444 0.83738
 O693 O 1.10911 0.97781 0.92423
 O694 O 1.13448 0.97729 0.89870
 C695 C 1.12675 0.97012 0.91639
 C696 C 1.13828 0.95226 0.92746
 C697 C 1.15863 0.94531 0.91962
 H698 H 1.16618 0.95373 0.90607
 O699 O 0.88675 1.01945 0.92472
 O700 O 0.86151 1.01820 0.89964
 C701 C 0.86902 1.02650 0.91690
 C702 C 0.85766 1.04492 0.92793
 C703 C 0.83739 1.05291 0.92082
 H704 H 0.82932 1.04502 0.90734
 O705 O 0.91978 1.10706 0.97701
 O706 O 0.89473 1.13282 0.97672
 C707 C 0.91229 1.12459 0.96915
 C708 C 0.92406 1.13524 0.95087
 C709 C 0.91666 1.15515 0.94237
 H710 H 0.90254 1.16308 0.94951
 O711 O 1.07896 0.89042 0.98167
 O712 O 1.10429 0.86493 0.98116
 C713 C 1.08649 0.87263 0.97411
 C714 C 1.07468 0.86136 0.95644
 C715 C 1.08206 0.84127 0.94795
 H716 H 1.09605 0.83338 0.95497
 O717 O 1.08002 1.02036 0.89403
 O718 O 1.10561 1.01931 0.86870
 C719 C 1.08791 1.02711 0.87617
 C720 C 1.07674 1.04448 0.86407
 C721 C 1.08494 1.05116 0.84395
 H722 H 1.09908 1.04301 0.83703
 O723 O 0.91792 0.97623 0.89700
 O724 O 0.89285 0.97480 0.87171
 C725 C 0.91065 0.96806 0.87952
 C726 C 0.92294 0.95037 0.86843
 C727 C 0.91657 0.94269 0.84796
 H728 H 0.90301 0.95032 0.83996
 O729 O 1.02218 1.10867 0.91871
 O730 O 1.02159 1.13313 0.89272
 C731 C 1.02927 1.12641 0.91044
 C732 C 1.04694 1.13880 0.92156
 C733 C 1.05483 1.15920 0.91393
 H734 H 1.04751 1.16649 0.89991
 O735 O 0.97877 0.89080 0.92670
 O736 O 0.97849 0.86463 0.90192
 C737 C 0.97156 0.87254 0.91971
 C738 C 0.95485 0.86055 0.93241
 C739 C 0.94990 0.83854 0.92773
 H740 H 0.95908 0.83020 0.91518
 O741 O 1.10838 1.08259 0.97629
 O742 O 1.13368 1.10855 0.97514
 C743 C 1.12609 1.09029 0.96849
 C744 C 1.13763 1.07788 0.95128
 C745 C 1.15734 1.08573 0.94223
 H746 H 1.16461 1.10077 0.94831
 O747 O 0.89182 0.91949 0.98434
 O748 O 0.86685 0.89320 0.98503
 C749 C 0.87416 0.91109 0.97733
 C750 C 0.86216 0.92198 0.95981
 C751 C 0.84194 0.91361 0.95297
 H752 H 0.83477 0.89948 0.96097
 Cu753 Cu 0.99959 0.90852 0.91373
 Cu754 Cu 0.99920 0.87725 0.88377
 Cu755 Cu 1.00133 1.08939 0.90797
 Cu756 Cu 1.00029 1.11854 0.87664
 Cu757 Cu 0.90549 0.99794 0.91426
 Cu758 Cu 0.87547 0.99631 0.88395
 Cu759 Cu 1.09177 0.99927 0.91201
 Cu760 Cu 1.12240 0.99827 0.88143
 C761 C 0.94088 0.94070 0.87854
 H762 H 0.94569 0.94626 0.89445
 C763 C 0.92791 0.92548 0.83773
 C764 C 1.05850 1.05509 0.87289
 H765 H 1.05228 1.05003 0.88852
 C766 C 1.07561 1.06860 0.83282
 C767 C 0.87123 0.94024 0.94925
 H768 H 0.88694 0.94662 0.95434
 C769 C 0.83109 0.92283 0.93546
 C770 C 1.12835 1.05839 0.94314
 H771 H 1.11287 1.05253 0.94959
 C772 C 1.16762 1.07418 0.92530
 C773 C 0.94363 0.87121 0.94925
 H774 H 0.94726 0.88827 0.95279
 C775 C 0.93364 0.82730 0.93955
 C776 C 1.05663 1.12955 0.93982
 H777 H 1.05110 1.11368 0.94554
 C778 C 1.07201 1.17016 0.92469
 C779 C 0.94256 1.05300 0.87586
 H780 H 0.94757 1.04919 0.89210
 C781 C 0.92879 1.06346 0.83417
 C782 C 1.05631 0.94199 0.87644
 H783 H 1.05157 0.94682 0.89267
 C784 C 1.06947 0.92894 0.83490
 C785 C 1.05658 0.87150 0.94702
 H786 H 1.05112 0.88726 0.95305
 C787 C 1.07140 0.83142 0.93035
 C788 C 0.94252 1.12520 0.94137
 H789 H 0.94809 1.10963 0.94744
 C790 C 0.92762 1.16495 0.92481
 C791 C 0.86793 1.05535 0.94542
 H792 H 0.88374 1.04973 0.95067
 C793 C 0.82756 1.07097 0.93136
 C794 C 1.12867 0.94129 0.94498
 H795 H 1.11287 0.94659 0.95098
 C796 C 1.16917 0.92724 0.92845
 O797 O 1.02362 0.92398 1.10947
 O798 O 1.02414 0.89986 1.13578
 C799 C 1.03151 0.91730 1.12711
 C800 C 1.04975 0.92980 1.13721
 C801 C 1.05804 0.92376 1.15743
 H802 H 1.05043 0.91033 1.16607
 O803 O 0.97775 1.08247 1.10470
 O804 O 0.97803 1.10834 1.12977
 C805 C 0.97076 1.09021 1.12256
 C806 C 0.95396 1.07809 1.13505
 C807 C 0.94904 1.08419 1.15640
 H808 H 0.95790 1.09768 1.16383
 O809 O 0.89214 1.02262 1.07887
 O810 O 0.86706 1.02321 1.10470
 C811 C 0.87454 1.03024 1.08678
 C812 C 0.86291 1.04785 1.07543
 C813 C 0.84259 1.05499 1.08317
 H814 H 0.83499 1.04696 1.09691
 O815 O 1.11084 0.98307 1.07526
 O816 O 1.13639 0.98456 1.10006
 C817 C 1.12868 0.97621 1.08285
 C818 C 1.14009 0.95792 1.07172
 C819 C 1.16136 0.95187 1.07747
 H820 H 1.16993 0.96122 1.08970
 O821 O 1.08074 0.89033 1.02374
 O822 O 1.10598 0.86478 1.02373
 C823 C 1.08837 0.87271 1.03138
 C824 C 1.07666 0.86184 1.04962
 C825 C 1.08315 0.84123 1.05743
 H826 H 1.09655 0.83277 1.04961
 O827 O 0.92006 1.10993 1.01897
 O828 O 0.89500 1.13571 1.01876
 C829 C 0.91280 1.12819 1.02579
 C830 C 0.92478 1.14043 1.04261
 C831 C 0.91813 1.16145 1.04898
 H832 H 0.90464 1.16917 1.04085
 O833 O 0.92231 0.98086 1.10861
 O834 O 0.89717 0.98129 1.13438
 C835 C 0.91497 0.97392 1.12656
 C836 C 0.92713 0.95700 1.13838
 C837 C 0.92076 0.95122 1.15940
 H838 H 0.90712 0.95950 1.16711
 O839 O 1.07980 1.02587 1.10362
 O840 O 1.10495 1.02752 1.12882
 C841 C 1.08702 1.03409 1.12105
 C842 C 1.07452 1.05168 1.13209
 C843 C 1.08033 1.05899 1.15285
 H844 H 1.09364 1.05119 1.16109
 O845 O 0.98027 0.89215 1.08268
 O846 O 0.98026 0.86786 1.10884
 C847 C 0.97257 0.87479 1.09120
 C848 C 0.95414 0.86310 1.08054
 C849 C 0.94612 0.84277 1.08815
 H850 H 0.95390 0.83507 1.10170
 O851 O 1.01985 1.11271 1.07395
 O852 O 1.01977 1.13854 1.09906
 C853 C 1.02715 1.13076 1.08142
 C854 C 1.04498 1.14249 1.06999
 C855 C 1.05240 1.16283 1.07774
 H856 H 1.04424 1.17053 1.09139
 O857 O 0.89185 0.92094 1.02626
 O858 O 0.86644 0.89505 1.02685
 C859 C 0.87392 0.91332 1.03359
 C860 C 0.86185 0.92586 1.05022
 C861 C 0.83998 0.92089 1.05510
 H862 H 0.83175 0.90780 1.04638
 O863 O 1.10818 1.08324 1.01807
 O864 O 1.13362 1.10907 1.01704
 C865 C 1.12610 1.09127 1.02475
 C866 C 1.13806 1.08010 1.04200
 C867 C 1.15853 1.08802 1.04854
 H868 H 1.16596 1.10189 1.04036
 O869 O 1.02024 1.08229 1.10281
 O870 O 1.02032 1.10809 1.12796
 C871 C 1.02771 1.09021 1.12024
 C872 C 1.04535 1.07880 1.13161
 C873 C 1.05121 1.08564 1.15237
 H874 H 1.04237 1.09885 1.16023
 O875 O 0.98094 0.92412 1.11027
 O876 O 0.98127 0.90007 1.13667
 C877 C 0.97370 0.91738 1.12835
 C878 C 0.95589 0.92948 1.13944
 C879 C 0.94920 0.92387 1.16049
 H880 H 0.95794 0.91130 1.16896
 O881 O 1.11062 1.02599 1.07468
 O882 O 1.13598 1.02757 1.09967
 C883 C 1.12816 1.03432 1.08206
 C884 C 1.13912 1.05246 1.07027
 C885 C 1.15946 1.06093 1.07694
 H886 H 1.16772 1.05355 1.09040
 O887 O 0.89084 0.98001 1.08092
 O888 O 0.86544 0.98052 1.10645
 C889 C 0.87297 0.97277 1.08885
 C890 C 0.86125 0.95494 1.07743
 C891 C 0.83932 0.94973 1.08230
 H892 H 0.83065 0.95932 1.09432
 O893 O 1.07855 1.11322 1.01807
 O894 O 1.10383 1.13921 1.01759
 C895 C 1.08616 1.13126 1.02526
 C896 C 1.07440 1.14264 1.04304
 C897 C 1.08213 1.16268 1.05157
 H898 H 1.09664 1.17038 1.04479
 O899 O 0.92211 0.89154 1.02713
 O900 O 0.89685 0.86554 1.02788
 C901 C 0.91453 0.87379 1.03495
 C902 C 0.92606 0.86279 1.05272
 C903 C 0.91862 0.84241 1.06024
 H904 H 0.90484 0.83445 1.05250
 O905 O 1.08084 0.98323 1.10500
 O906 O 1.10624 0.98487 1.12995
 C907 C 1.08861 0.97665 1.12272
 C908 C 1.07739 0.95896 1.13491
 C909 C 1.08522 0.95282 1.15514
 H910 H 1.09903 0.96153 1.16201
 O911 O 0.92127 1.02349 1.10878
 O912 O 0.89638 1.02394 1.13479
 C913 C 0.91401 1.03127 1.12650
 C914 C 0.92615 1.04930 1.13718
 C915 C 0.92133 1.05563 1.15857
 H916 H 0.90897 1.04665 1.16752
 O917 O 0.97735 1.11197 1.07465
 O918 O 0.97738 1.13790 1.09966
 C919 C 0.97000 1.12989 1.08220
 C920 C 0.95246 1.14121 1.07060
 C921 C 0.94549 1.16221 1.07697
 H922 H 0.95367 1.17057 1.09008
 O923 O 1.02298 0.89287 1.08080
 O924 O 1.02312 0.86850 1.10690
 C925 C 1.03040 0.87541 1.08887
 C926 C 1.04803 0.86331 1.07747
 C927 C 1.05454 0.84275 1.08483
 H928 H 1.04608 0.83544 1.09850
 O929 O 1.10923 0.92194 1.02203
 O930 O 1.13494 0.89682 1.02199
 C931 C 1.12728 0.91494 1.02891
 C932 C 1.13926 0.92796 1.04527
 C933 C 1.16055 0.92236 1.05097
 H934 H 1.16847 0.90862 1.04304
 O935 O 0.89050 1.07949 1.02135
 O936 O 0.86529 1.10511 1.02167
 C937 C 0.87311 1.08755 1.02931
 C938 C 0.86226 1.07639 1.04784
 C939 C 0.84217 1.08379 1.05637
 H940 H 0.83414 1.09767 1.04920
 Cu941 Cu 1.00192 0.91067 1.09320
 Cu942 Cu 1.00227 0.88165 1.12468
 Cu943 Cu 0.99868 1.09478 1.08646
 Cu944 Cu 0.99889 1.12582 1.11664
 Cu945 Cu 0.90959 0.90820 1.00561
 Cu946 Cu 0.87942 0.87677 1.00650
 Cu947 Cu 1.09221 0.90791 1.00195
 Cu948 Cu 1.12271 0.87750 1.00180
 Cu949 Cu 0.90722 1.09108 0.99917
 Cu950 Cu 0.87707 1.12192 0.99914
 Cu951 Cu 1.09063 1.09511 0.99719
 Cu952 Cu 1.12103 1.12632 0.99620
 Cu953 Cu 0.90914 1.00164 1.09171
 Cu954 Cu 0.87896 1.00226 1.12266
 Cu955 Cu 1.09308 1.00441 1.08707
 Cu956 Cu 1.12345 1.00628 1.11712
 C957 C 1.05954 0.94749 1.12614
 H958 H 1.05357 0.95206 1.11042
 C959 C 1.07592 0.93520 1.16644
 C960 C 0.94257 1.06054 1.12564
 H961 H 0.94621 1.05591 1.10908
 C962 C 0.93281 1.07313 1.16833
 C963 C 0.87248 1.05841 1.05756
 H964 H 0.88820 1.05292 1.05153
 C965 C 0.83230 1.07301 1.07401
 C966 C 1.12925 0.94589 1.05556
 H967 H 1.11272 0.95021 1.05129
 C968 C 1.17166 0.93408 1.06707
 C969 C 1.05902 0.87261 1.05974
 H970 H 1.05412 0.88859 1.05413
 C971 C 1.07204 0.83157 1.07509
 C972 C 0.94209 1.13055 1.05333
 H973 H 0.94710 1.11419 1.04861
 C974 C 0.92818 1.17237 1.06624
 C975 C 0.94482 0.94616 1.12858
 H976 H 0.94967 0.95038 1.11226
 C977 C 0.93154 0.93465 1.17054
 C978 C 1.05692 1.06164 1.12163
 H979 H 1.05254 1.05640 1.10549
 C980 C 1.06870 1.07605 1.16301
 C981 C 0.94396 0.87288 1.06280
 H982 H 0.94967 0.88868 1.05707
 C983 C 0.92830 0.83232 1.07795
 C984 C 1.05579 1.13271 1.05239
 H985 H 1.05011 1.11695 1.04643
 C986 C 1.07109 1.17278 1.06895
 C987 C 0.87229 0.94296 1.06135
 H988 H 0.88925 0.94674 1.05769
 C989 C 0.82855 0.93270 1.07105
 C990 C 1.12863 1.06214 1.05274
 H991 H 1.11274 1.05608 1.04781
 C992 C 1.16919 1.07879 1.06610
 O993 O 0.97666 0.41211 0.39703
 O994 O 0.97524 0.38446 0.37396
 C995 C 0.96878 0.40328 0.38014
 C996 C 0.95180 0.41523 0.36800
 C997 C 0.94437 0.40794 0.34765
 H998 H 0.95105 0.39324 0.34032
 O999 O 1.02724 0.56982 0.39202
 O1000 O 1.02959 0.59429 0.36604
 C1001 C 1.03558 0.57635 0.37430
 C1002 C 1.05271 0.56318 0.36342
 C1003 C 1.06086 0.56928 0.34307
 H1004 H 1.05349 0.58294 0.33498
 O1005 O 0.89191 0.47596 0.42221
 O1006 O 0.86718 0.47587 0.39659
 C1007 C 0.87393 0.46895 0.41457
 C1008 C 0.86111 0.45230 0.42666
 C1009 C 0.84097 0.44431 0.41893
 H1010 H 0.83432 0.45085 0.40422
 O1011 O 1.10703 0.50794 0.42439
 O1012 O 1.13391 0.50573 0.40049
 C1013 C 1.12563 0.51421 0.41746
 C1014 C 1.13758 0.53194 0.42880
 C1015 C 1.15799 0.53896 0.42086
 H1016 H 1.16530 0.53086 0.40696
 O1017 O 0.91486 0.39281 0.48550
 O1018 O 0.88803 0.36842 0.48577
 C1019 C 0.90662 0.37485 0.47882
 C1020 C 0.91876 0.36146 0.46271
 C1021 C 0.91197 0.33991 0.45785
 H1022 H 0.89791 0.33286 0.46612
 O1023 O 1.08258 0.59979 0.47974
 O1024 O 1.10989 0.62365 0.47893
 C1025 C 1.09170 0.61673 0.47181
 C1026 C 1.08128 0.62828 0.45387
 C1027 C 1.08932 0.64870 0.44707
 H1028 H 1.10291 0.65629 0.45546
 O1029 O 0.92516 0.51581 0.39181
 O1030 O 0.90034 0.51608 0.36627
 C1031 C 0.91828 0.52303 0.37395
 C1032 C 0.93099 0.54017 0.36243
 C1033 C 0.92442 0.54769 0.34213
 H1034 H 0.91049 0.54011 0.33434
 O1035 O 1.07761 0.46502 0.39436
 O1036 O 1.10442 0.46273 0.37042
 C1037 C 1.08595 0.45629 0.37753
 C1038 C 1.07420 0.43801 0.36672
 C1039 C 1.08179 0.42885 0.34716
 H1040 H 1.09586 0.43618 0.33930
 O1041 O 1.01768 0.38381 0.42938
 O1042 O 1.01683 0.35596 0.40652
 C1043 C 1.02456 0.36512 0.42336
 C1044 C 1.04206 0.35429 0.43584
 C1045 C 1.05036 0.33380 0.42921
 H1046 H 1.04326 0.32553 0.41543
 O1047 O 0.98565 0.60343 0.41946
 O1048 O 0.98811 0.62795 0.39355
 C1049 C 0.97967 0.62138 0.41117
 C1050 C 0.96242 0.63447 0.42195
 C1051 C 0.95663 0.65513 0.41402
 H1052 H 0.96527 0.66188 0.40020
 O1053 O 0.89648 0.58059 0.47606
 O1054 O 0.87222 0.60695 0.47368
 C1055 C 0.87943 0.58839 0.46760
 C1056 C 0.86814 0.57586 0.45032
 C1057 C 0.84798 0.58293 0.44223
 H1058 H 0.84030 0.59736 0.44904
 O1059 O 1.10286 0.41526 0.48989
 O1060 O 1.12689 0.38861 0.49148
 C1061 C 1.12024 0.40628 0.48308
 C1062 C 1.13232 0.41600 0.46463
 C1063 C 1.15280 0.40781 0.45840
 H1064 H 1.16020 0.39490 0.46768
 O1065 O 0.98488 0.57149 0.39170
 O1066 O 0.98715 0.59589 0.36565
 C1067 C 0.97853 0.57871 0.37370
 C1068 C 0.96059 0.56730 0.36233
 C1069 C 0.95399 0.57438 0.34198
 H1070 H 0.96259 0.58783 0.33418
 O1071 O 1.01913 0.41028 0.39692
 O1072 O 1.01800 0.38263 0.37384
 C1073 C 1.02628 0.40074 0.38001
 C1074 C 1.04485 0.41069 0.36797
 C1075 C 1.05259 0.40164 0.34845
 H1076 H 1.04437 0.38746 0.34157
 O1077 O 1.10477 0.46565 0.42629
 O1078 O 1.13177 0.46338 0.40254
 C1079 C 1.12280 0.45743 0.42019
 C1080 C 1.13335 0.44066 0.43369
 C1081 C 1.15393 0.43240 0.42787
 H1082 H 1.16232 0.43920 0.41400
 O1083 O 0.89579 0.51855 0.42203
 O1084 O 0.87082 0.51848 0.39662
 C1085 C 0.87858 0.52639 0.41401
 C1086 C 0.86767 0.54524 0.42459
 C1087 C 0.84740 0.55227 0.41714
 H1088 H 0.83939 0.54333 0.40422
 O1089 O 0.92745 0.60990 0.47583
 O1090 O 0.90328 0.63638 0.47361
 C1091 C 0.92096 0.62755 0.46731
 C1092 C 0.93376 0.63751 0.44948
 C1093 C 0.92815 0.65812 0.44133
 H1094 H 0.91516 0.66726 0.44910
 O1095 O 1.07240 0.38562 0.48986
 O1096 O 1.09636 0.35893 0.49172
 C1097 C 1.07947 0.36715 0.48331
 C1098 C 1.06853 0.35532 0.46528
 C1099 C 1.07634 0.33481 0.45845
 H1100 H 1.08974 0.32734 0.46691
 O1101 O 1.07926 0.50793 0.39328
 O1102 O 1.10601 0.50580 0.36925
 C1103 C 1.08837 0.51450 0.37595
 C1104 C 1.07857 0.53291 0.36404
 C1105 C 1.08676 0.53943 0.34375
 H1106 H 1.10008 0.53046 0.33626
 O1107 O 0.92367 0.47303 0.39433
 O1108 O 0.89904 0.47335 0.36862
 C1109 C 0.91608 0.46526 0.37688
 C1110 C 0.92673 0.44623 0.36636
 C1111 C 0.92022 0.43926 0.34583
 H1112 H 0.90804 0.44845 0.33720
 O1113 O 1.02796 0.60063 0.42101
 O1114 O 1.03047 0.62525 0.39518
 C1115 C 1.03668 0.61781 0.41319
 C1116 C 1.05447 0.62888 0.42507
 C1117 C 1.06268 0.64936 0.41845
 H1118 H 1.05515 0.65742 0.40500
 O1119 O 0.97502 0.38585 0.42960
 O1120 O 0.97395 0.35788 0.40687
 C1121 C 0.96677 0.36767 0.42366
 C1122 C 0.94832 0.35798 0.43607
 C1123 C 0.94140 0.33648 0.43162
 H1124 H 0.95057 0.32677 0.42006
 O1125 O 1.10978 0.56767 0.48118
 O1126 O 1.13708 0.59151 0.48020
 C1127 C 1.12810 0.57393 0.47347
 C1128 C 1.13879 0.56112 0.45601
 C1129 C 1.15907 0.56805 0.44756
 H1130 H 1.16737 0.58208 0.45461
 O1131 O 0.88618 0.42369 0.48318
 O1132 O 0.85923 0.39946 0.48367
 C1133 C 0.86828 0.41638 0.47569
 C1134 C 0.85825 0.42711 0.45701
 C1135 C 0.83798 0.41976 0.44941
 H1136 H 0.82913 0.40695 0.45794
 Cu1137 Cu 0.99725 0.40080 0.41546
 Cu1138 Cu 0.99584 0.36736 0.38808
 Cu1139 Cu 1.00620 0.58391 0.40868
 Cu1140 Cu 1.00908 0.61330 0.37747
 Cu1141 Cu 0.91164 0.49578 0.41012
 Cu1142 Cu 0.88188 0.49597 0.37945
 Cu1143 Cu 1.08933 0.48678 0.41182
 Cu1144 Cu 1.12169 0.48414 0.38323
 C1145 C 0.94274 0.43435 0.37716
 H1146 H 0.94784 0.43980 0.39301
 C1147 C 0.92872 0.42016 0.33646
 C1148 C 1.06150 0.54489 0.37366
 H1149 H 1.05537 0.54028 0.38946
 C1150 C 1.07812 0.55773 0.33319
 C1151 C 0.86955 0.44359 0.44574
 H1152 H 0.88529 0.44920 0.45153
 C1153 C 0.82940 0.42794 0.43028
 C1154 C 1.12815 0.54296 0.44656
 H1155 H 1.11224 0.53785 0.45258
 C1156 C 1.16851 0.55724 0.42978
 C1157 C 0.93703 0.37032 0.45178
 H1158 H 0.94220 0.38702 0.45516
 C1159 C 0.92308 0.32740 0.44220
 C1160 C 1.06377 0.61856 0.44289
 H1161 H 1.05772 0.60263 0.44793
 C1162 C 1.08026 0.65933 0.42936
 C1163 C 0.94917 0.55001 0.37232
 H1164 H 0.95407 0.54464 0.38816
 C1165 C 0.93579 0.56493 0.33193
 C1166 C 1.05566 0.42894 0.37678
 H1167 H 1.04996 0.43576 0.39199
 C1168 C 1.07111 0.41051 0.33791
 C1169 C 1.05128 0.36488 0.45395
 H1170 H 1.04534 0.38082 0.45896
 C1171 C 1.06768 0.32407 0.44034
 C1172 C 0.95099 0.62590 0.43979
 H1173 H 0.95515 0.60985 0.44580
 C1174 C 0.93939 0.66697 0.42344
 C1175 C 0.87782 0.55695 0.44138
 H1176 H 0.89355 0.55164 0.44714
 C1177 C 0.83757 0.57112 0.42561
 C1178 C 1.12274 0.43249 0.45222
 H1179 H 1.10674 0.43859 0.45669
 C1180 C 1.16362 0.41570 0.43995
 O1181 O 1.00866 0.42414 0.61514
 O1182 O 1.00658 0.39998 0.64140
 C1183 C 1.01506 0.41715 0.63323
 C1184 C 1.03300 0.42873 0.64453
 C1185 C 1.03981 0.42162 0.66484
 H1186 H 1.03137 0.40811 0.67269
 O1187 O 0.97899 0.58449 0.60735
 O1188 O 0.97966 0.61116 0.63157
 C1189 C 0.97164 0.59317 0.62457
 C1190 C 0.95339 0.58226 0.63625
 C1191 C 0.94790 0.58845 0.65744
 H1192 H 0.95735 0.60113 0.66552
 O1193 O 0.88827 0.53040 0.57860
 O1194 O 0.86196 0.53346 0.60298
 C1195 C 0.87080 0.53941 0.58532
 C1196 C 0.86100 0.55720 0.57253
 C1197 C 0.84108 0.56684 0.57885
 H1198 H 0.83240 0.56080 0.59294
 O1199 O 1.10176 0.47492 0.58689
 O1200 O 1.12602 0.47543 0.61294
 C1201 C 1.11871 0.46711 0.59561
 C1202 C 1.12986 0.44791 0.58584
 C1203 C 1.14849 0.43926 0.59552
 H1204 H 1.15502 0.44712 0.60984
 O1205 O 1.06959 0.38880 0.53199
 O1206 O 1.09343 0.36200 0.53375
 C1207 C 1.07582 0.37098 0.54022
 C1208 C 1.06287 0.36096 0.55796
 C1209 C 1.06947 0.34112 0.56700
 H1210 H 1.08327 0.33255 0.56000
 O1211 O 0.92587 0.61174 0.51807
 O1212 O 0.90163 0.63814 0.51579
 C1213 C 0.91855 0.63015 0.52440
 C1214 C 0.92933 0.64210 0.54242
 C1215 C 0.92135 0.66248 0.54935
 H1216 H 0.90788 0.66985 0.54090
 O1217 O 0.91367 0.48715 0.61063
 O1218 O 0.88729 0.48992 0.63498
 C1219 C 0.90462 0.48082 0.62810
 C1220 C 0.91402 0.46223 0.64005
 C1221 C 0.90456 0.45502 0.65957
 H1222 H 0.89063 0.46358 0.66638
 O1223 O 1.07358 0.52188 0.61259
 O1224 O 1.09791 0.52175 0.63857
 C1225 C 1.08117 0.52997 0.62997
 C1226 C 1.07097 0.54950 0.64011
 C1227 C 1.07841 0.55718 0.66011
 H1228 H 1.09091 0.54821 0.66850
 O1229 O 0.96612 0.39357 0.58617
 O1230 O 0.96398 0.36911 0.61215
 C1231 C 0.95760 0.37631 0.59414
 C1232 C 0.93980 0.36503 0.58233
 C1233 C 0.93120 0.34467 0.58912
 H1234 H 0.93807 0.33662 0.60297
 O1235 O 1.02327 0.61118 0.57707
 O1236 O 1.02424 0.63840 0.60065
 C1237 C 1.03169 0.62902 0.58372
 C1238 C 1.05080 0.63828 0.57192
 C1239 C 1.06018 0.65851 0.57798
 H1240 H 1.05277 0.66804 0.59088
 O1241 O 0.88502 0.42649 0.52528
 O1242 O 0.85806 0.40228 0.52575
 C1243 C 0.86658 0.42010 0.53255
 C1244 C 0.85529 0.43326 0.54949
 C1245 C 0.83466 0.42679 0.55751
 H1246 H 0.82657 0.41275 0.55033
 O1247 O 1.10940 0.57021 0.52334
 O1248 O 1.13686 0.59385 0.52221
 C1249 C 1.12766 0.57706 0.53036
 C1250 C 1.13797 0.56583 0.54861
 C1251 C 1.15894 0.57199 0.55535
 H1252 H 1.16803 0.58443 0.54654
 O1253 O 1.02148 0.58435 0.60915
 O1254 O 1.02245 0.61131 0.63301
 C1255 C 1.02914 0.59275 0.62638
 C1256 C 1.04618 0.58071 0.63840
 C1257 C 1.05443 0.58856 0.65828
 H1258 H 1.04812 0.60355 0.66532
 O1259 O 0.96627 0.42580 0.61357
 O1260 O 0.96406 0.40154 0.63973
 C1261 C 0.95778 0.41927 0.63119
 C1262 C 0.94004 0.43213 0.64150
 C1263 C 0.93057 0.42534 0.66109
 H1264 H 0.93741 0.41140 0.66918
 O1265 O 1.10415 0.51742 0.58365
 O1266 O 1.12861 0.51783 0.60953
 C1267 C 1.12214 0.52430 0.59125
 C1268 C 1.13526 0.54034 0.57874
 C1269 C 1.15618 0.54694 0.58548
 H1270 H 1.16319 0.53956 0.59961
 O1271 O 0.88637 0.48769 0.57923
 O1272 O 0.85986 0.49052 0.60346
 C1273 C 0.86786 0.48161 0.58653
 C1274 C 0.85591 0.46346 0.57570
 C1275 C 0.83532 0.45674 0.58343
 H1276 H 0.82778 0.46549 0.59681
 O1277 O 1.08172 0.60221 0.52163
 O1278 O 1.10916 0.62587 0.52063
 C1279 C 1.09061 0.61997 0.52802
 C1280 C 1.07952 0.63372 0.54452
 C1281 C 1.08837 0.65413 0.55050
 H1282 H 1.10302 0.66022 0.54249
 O1283 O 0.91235 0.39430 0.52739
 O1284 O 0.88540 0.37003 0.52749
 C1285 C 0.90334 0.37711 0.53499
 C1286 C 0.91354 0.36549 0.55301
 C1287 C 0.90547 0.34502 0.55962
 H1288 H 0.89214 0.33732 0.55094
 O1289 O 1.06966 0.47914 0.61432
 O1290 O 1.09394 0.47917 0.64036
 C1291 C 1.07600 0.47233 0.63248
 C1292 C 1.06277 0.45571 0.64415
 C1293 C 1.06930 0.44837 0.66446
 H1294 H 1.08323 0.45602 0.67216
 O1295 O 0.91799 0.52975 0.60820
 O1296 O 0.89187 0.53249 0.63285
 C1297 C 0.91046 0.53834 0.62541
 C1298 C 0.92342 0.55549 0.63664
 C1299 C 0.91813 0.56191 0.65786
 H1300 H 0.90490 0.55359 0.66623
 O1301 O 0.98059 0.61374 0.57740
 O1302 O 0.98102 0.64079 0.60115
 C1303 C 0.97347 0.63216 0.58401
 C1304 C 0.95585 0.64316 0.57181
 C1305 C 0.94731 0.66350 0.57868
 H1306 H 0.95425 0.67170 0.59257
 O1307 O 1.00870 0.39309 0.58650
 O1308 O 1.00672 0.36876 0.61262
 C1309 C 1.01521 0.37548 0.59503
 C1310 C 1.03327 0.36309 0.58472
 C1311 C 1.04020 0.34320 0.59354
 H1312 H 1.03182 0.33645 0.60752
 O1313 O 1.10312 0.41520 0.53231
 O1314 O 1.12706 0.38850 0.53397
 C1315 C 1.12006 0.40687 0.54067
 C1316 C 1.13101 0.41845 0.55890
 C1317 C 1.14990 0.41002 0.56881
 H1318 H 1.15716 0.39509 0.56264
 O1319 O 0.89411 0.58343 0.51809
 O1320 O 0.86985 0.60980 0.51561
 C1321 C 0.87636 0.59226 0.52426
 C1322 C 0.86355 0.58254 0.54221
 C1323 C 0.84344 0.59159 0.54846
 H1324 H 0.83675 0.60507 0.53942
 Cu1325 Cu 0.98759 0.41154 0.59769
 Cu1326 Cu 0.98515 0.38241 0.62912
 Cu1327 Cu 1.00105 0.59584 0.59037
 Cu1328 Cu 1.00184 0.62820 0.61891
 Cu1329 Cu 0.90227 0.41180 0.50533
 Cu1330 Cu 0.86991 0.38268 0.50566
 Cu1331 Cu 1.08470 0.40393 0.51093
 Cu1332 Cu 1.11330 0.37185 0.51289
 Cu1333 Cu 0.91342 0.59378 0.49719
 Cu1334 Cu 0.88436 0.62549 0.49442
 Cu1335 Cu 1.09313 0.58253 0.50163
 Cu1336 Cu 1.12606 0.61105 0.50044
 Cu1337 Cu 0.90422 0.50856 0.59176
 Cu1338 Cu 0.87258 0.51198 0.62098
 Cu1339 Cu 1.08484 0.49832 0.59677
 Cu1340 Cu 1.11400 0.49858 0.62801
 C1341 C 1.04447 0.44593 0.63438
 H1342 H 1.03959 0.45120 0.61850
 C1343 C 1.05815 0.43104 0.67468
 C1344 C 0.94115 0.56567 0.62604
 H1345 H 0.94518 0.56093 0.60960
 C1346 C 0.93033 0.57840 0.66837
 C1347 C 0.87205 0.56518 0.55415
 H1348 H 0.88764 0.55824 0.54946
 C1349 C 0.83229 0.58412 0.56686
 C1350 C 1.12141 0.43754 0.56746
 H1351 H 1.10683 0.44402 0.56019
 C1352 C 1.15875 0.42046 0.58723
 C1353 C 1.04464 0.37179 0.56684
 H1354 H 1.03967 0.38732 0.56019
 C1355 C 1.05848 0.33237 0.58503
 C1356 C 0.94671 0.63267 0.55363
 H1357 H 0.95280 0.61684 0.54846
 C1358 C 0.92993 0.67321 0.56753
 C1359 C 0.93179 0.45069 0.63122
 H1360 H 0.93889 0.45586 0.61598
 C1361 C 0.91253 0.43643 0.67009
 C1362 C 1.05467 0.56118 0.62952
 H1363 H 1.04891 0.55524 0.61406
 C1364 C 1.07055 0.57669 0.66924
 C1365 C 0.93085 0.37521 0.56425
 H1366 H 0.93701 0.39108 0.55918
 C1367 C 0.91400 0.33459 0.57769
 C1368 C 1.06059 0.62608 0.55511
 H1369 H 1.05381 0.61024 0.55064
 C1370 C 1.07905 0.66645 0.56733
 C1371 C 0.86570 0.45172 0.55861
 H1372 H 0.88177 0.45658 0.55282
 C1373 C 0.82470 0.43830 0.57472
 C1374 C 1.12637 0.54982 0.56023
 H1375 H 1.11007 0.54518 0.55519
 C1376 C 1.16805 0.56287 0.57384
 O1377 O 0.57867 1.01687 0.60275
 O1378 O 0.60310 1.01563 0.62860
 C1379 C 0.58594 1.02386 0.62067
 C1380 C 0.57434 1.04191 0.63209
 C1381 C 0.58097 1.04915 0.65267
 H1382 H 0.59448 1.04127 0.66055
 O1383 O 0.41718 0.97979 0.60209
 O1384 O 0.39126 0.98067 0.62706
 C1385 C 0.40893 0.97269 0.61960
 C1386 C 0.41952 0.95450 0.63109
 C1387 C 0.41166 0.94797 0.65139
 H1388 H 0.39845 0.95693 0.65909
 O1389 O 0.52296 1.10533 0.57439
 O1390 O 0.52428 1.13065 0.59996
 C1391 C 0.53135 1.12272 0.58221
 C1392 C 0.54977 1.13362 0.57076
 C1393 C 0.55757 1.15416 0.57778
 H1394 H 0.54948 1.16245 0.59111
 O1395 O 0.47096 0.88979 0.57211
 O1396 O 0.47007 0.86439 0.59725
 C1397 C 0.46309 0.87206 0.57961
 C1398 C 0.44534 0.86040 0.56802
 C1399 C 0.43837 0.83966 0.57486
 H1400 H 0.44659 0.83186 0.58815
 O1401 O 0.61229 1.07375 0.51868
 O1402 O 0.63867 1.09860 0.51939
 C1403 C 0.63013 1.08098 0.52643
 C1404 C 0.64088 1.06913 0.54412
 C1405 C 0.66104 1.07653 0.55197
 H1406 H 0.66904 1.09049 0.54445
 O1407 O 0.38729 0.92118 0.51544
 O1408 O 0.36063 0.89665 0.51493
 C1409 C 0.36908 0.91415 0.52263
 C1410 C 0.35784 0.92610 0.54047
 C1411 C 0.33736 0.91881 0.54790
 H1412 H 0.32954 0.90490 0.54008
 O1413 O 0.47819 1.07730 0.60349
 O1414 O 0.47955 1.10255 0.62910
 C1415 C 0.47100 1.08527 0.62115
 C1416 C 0.45207 1.07480 0.63223
 C1417 C 0.44463 1.08296 0.65216
 H1418 H 0.45335 1.09640 0.65985
 O1419 O 0.51413 0.91931 0.60172
 O1420 O 0.51282 0.89418 0.62711
 C1421 C 0.52105 0.91169 0.61935
 C1422 C 0.53923 0.92286 0.63072
 C1423 C 0.54544 0.91575 0.65123
 H1424 H 0.53638 0.90262 0.65905
 O1425 O 0.60715 0.97290 0.57330
 O1426 O 0.63193 0.97128 0.59878
 C1427 C 0.62413 0.96424 0.58105
 C1428 C 0.63432 0.94543 0.56944
 C1429 C 0.65423 0.93647 0.57622
 H1430 H 0.66276 0.94391 0.58966
 O1431 O 0.38937 1.02322 0.57224
 O1432 O 0.36319 1.02362 0.59696
 C1433 C 0.37170 1.03112 0.57969
 C1434 C 0.36129 1.04979 0.56877
 C1435 C 0.34069 1.05698 0.57568
 H1436 H 0.33190 1.04805 0.58815
 O1437 O 0.42528 1.11206 0.51799
 O1438 O 0.40130 1.13886 0.51834
 C1439 C 0.41863 1.13028 0.52540
 C1440 C 0.43067 1.14120 0.54299
 C1441 C 0.42439 1.16197 0.55035
 H1442 H 0.41140 1.17056 0.54228
 O1443 O 0.57088 0.88659 0.51562
 O1444 O 0.59486 0.85982 0.51488
 C1445 C 0.57756 0.86833 0.52260
 C1446 C 0.56565 0.85724 0.54042
 C1447 C 0.57272 0.83684 0.54777
 H1448 H 0.58621 0.82874 0.53962
 O1449 O 0.41744 1.02266 0.60323
 O1450 O 0.39137 1.02355 0.62804
 C1451 C 0.40956 1.03059 0.62067
 C1452 C 0.42164 1.04848 0.63204
 C1453 C 0.41413 1.05727 0.65191
 H1454 H 0.39958 1.05051 0.65948
 O1455 O 0.57630 0.97430 0.60217
 O1456 O 0.60080 0.97283 0.62793
 C1457 C 0.58281 0.96640 0.61985
 C1458 C 0.56954 0.94930 0.63090
 C1459 C 0.57550 0.94184 0.65140
 H1460 H 0.58927 0.94939 0.65945
 O1461 O 0.51354 0.88786 0.57337
 O1462 O 0.51267 0.86260 0.59864
 C1463 C 0.52053 0.86998 0.58105
 C1464 C 0.53827 0.85808 0.56948
 C1465 C 0.54597 0.83778 0.57692
 H1466 H 0.53842 0.83031 0.59095
 O1467 O 0.48055 1.10856 0.57539
 O1468 O 0.48190 1.13384 0.60098
 C1469 C 0.47420 1.12676 0.58329
 C1470 C 0.45737 1.13941 0.57188
 C1471 C 0.45040 1.16007 0.57950
 H1472 H 0.45785 1.16732 0.59366
 O1473 O 0.39319 1.08407 0.51866
 O1474 O 0.36901 1.11066 0.51931
 C1475 C 0.37576 1.09241 0.52634
 C1476 C 0.36346 1.08054 0.54359
 C1477 C 0.34304 1.08798 0.55141
 H1478 H 0.33591 1.10266 0.54485
 O1479 O 0.60265 0.91505 0.51624
 O1480 O 0.62666 0.88830 0.51567
 C1481 C 0.61995 0.90644 0.52336
 C1482 C 0.63217 0.91737 0.54103
 C1483 C 0.65220 0.90895 0.54780
 H1484 H 0.65909 0.89481 0.53960
 O1485 O 0.47134 0.91915 0.60268
 O1486 O 0.46999 0.89394 0.62797
 C1487 C 0.46325 0.91186 0.62023
 C1488 C 0.44559 0.92431 0.63137
 C1489 C 0.43705 0.91765 0.65154
 H1490 H 0.44377 0.90350 0.65947
 O1491 O 0.52094 1.07513 0.60354
 O1492 O 0.52215 1.10033 0.62922
 C1493 C 0.52866 1.08225 0.62122
 C1494 C 0.54583 1.06984 0.63240
 C1495 C 0.55229 1.07633 0.65311
 H1496 H 0.54400 1.08973 0.66125
 O1497 O 0.38728 0.98012 0.57278
 O1498 O 0.36123 0.98057 0.59761
 C1499 C 0.36922 0.97275 0.58019
 C1500 C 0.35778 0.95451 0.56869
 C1501 C 0.33728 0.94668 0.57601
 H1502 H 0.32939 0.95465 0.58962
 O1503 O 0.61004 1.01582 0.57447
 O1504 O 0.63474 1.01455 0.60003
 C1505 C 0.62785 1.02267 0.58258
 C1506 C 0.64003 1.04076 0.57179
 C1507 C 0.66021 1.04864 0.57968
 H1508 H 0.66749 1.04076 0.59338
 O1509 O 0.41442 0.88891 0.51516
 O1510 O 0.38809 0.86404 0.51473
 C1511 C 0.40593 0.87131 0.52245
 C1512 C 0.41693 0.85982 0.54045
 C1513 C 0.40969 0.83916 0.54807
 H1514 H 0.39601 0.83092 0.54047
 O1515 O 0.58244 1.10352 0.51800
 O1516 O 0.60870 1.12850 0.51887
 C1517 C 0.59037 1.12115 0.52565
 C1518 C 0.57840 1.13293 0.54295
 C1519 C 0.58573 1.15356 0.55000
 H1520 H 0.59977 1.16124 0.54225
 Cu1521 Cu 0.59072 0.99513 0.58555
 Cu1522 Cu 0.62015 0.99339 0.61637
 Cu1523 Cu 0.40539 1.00139 0.58511
 Cu1524 Cu 0.37411 1.00213 0.61484
 Cu1525 Cu 0.50047 1.08905 0.58663
 Cu1526 Cu 0.50217 1.11930 0.61745
 Cu1527 Cu 0.49258 0.90655 0.58498
 Cu1528 Cu 0.49124 0.87628 0.61529
 C1529 C 0.55672 1.05241 0.62211
 H1530 H 0.55180 1.04739 0.60607
 C1531 C 0.56991 1.06636 0.66321
 C1532 C 0.43667 0.94278 0.62134
 H1533 H 0.44271 0.94774 0.60561
 C1534 C 0.42006 0.92952 0.66162
 C1535 C 0.56024 1.12316 0.55325
 H1536 H 0.55461 1.10711 0.54802
 C1537 C 0.57563 1.16410 0.56752
 C1538 C 0.43476 0.87020 0.55064
 H1539 H 0.44017 0.88627 0.54536
 C1540 C 0.42060 0.82896 0.56523
 C1541 C 0.63064 1.05111 0.55395
 H1542 H 0.61496 1.04549 0.54802
 C1543 C 0.67081 1.06664 0.56975
 C1544 C 0.36787 0.94410 0.55084
 H1545 H 0.38380 0.94969 0.54532
 C1546 C 0.32703 0.92872 0.56571
 C1547 C 0.44064 1.05741 0.62244
 H1548 H 0.44630 1.05115 0.60698
 C1549 C 0.42565 1.07458 0.66204
 C1550 C 0.55128 0.93978 0.62073
 H1551 H 0.54678 0.94515 0.60477
 C1552 C 0.56364 0.92490 0.66155
 C1553 C 0.62350 0.93574 0.55179
 H1554 H 0.60797 0.94220 0.54670
 C1555 C 0.66324 0.91817 0.56542
 C1556 C 0.37241 1.06145 0.55250
 H1557 H 0.38833 1.05589 0.54712
 C1558 C 0.33158 1.07605 0.56737
 C1559 C 0.44741 1.13021 0.55359
 H1560 H 0.45220 1.11407 0.54796
 C1561 C 0.43387 1.17138 0.56868
 C1562 C 0.54825 0.86760 0.55119
 H1563 H 0.54285 0.88344 0.54565
 C1564 C 0.56329 0.82712 0.56608
 O1565 O 0.57792 0.97677 0.38928
 O1566 O 0.60347 0.97577 0.36390
 C1567 C 0.58500 0.96957 0.37130
 C1568 C 0.57160 0.95379 0.35894
 C1569 C 0.57603 0.94989 0.33705
 H1570 H 0.58925 0.95875 0.32912
 O1571 O 0.42165 1.02525 0.39266
 O1572 O 0.39688 1.02679 0.36716
 C1573 C 0.41494 1.03324 0.37511
 C1574 C 0.42819 1.05029 0.36391
 C1575 C 0.42216 1.05768 0.34339
 H1576 H 0.40818 1.05032 0.33556
 O1577 O 0.48533 1.11016 0.42086
 O1578 O 0.48654 1.13555 0.39572
 C1579 C 0.47849 1.12808 0.41320
 C1580 C 0.46047 1.14005 0.42419
 C1581 C 0.45405 1.16057 0.41654
 H1582 H 0.46296 1.16804 0.40324
 O1583 O 0.51577 0.89163 0.41581
 O1584 O 0.51530 0.86705 0.38952
 C1585 C 0.52268 0.87389 0.40747
 C1586 C 0.53975 0.86131 0.41854
 C1587 C 0.54655 0.84102 0.41022
 H1588 H 0.53879 0.83420 0.39600
 O1589 O 0.60311 0.91574 0.47420
 O1590 O 0.62724 0.88907 0.47379
 C1591 C 0.62064 0.90737 0.46685
 C1592 C 0.63324 0.91878 0.44976
 C1593 C 0.65414 0.91156 0.44376
 H1594 H 0.66131 0.89788 0.45215
 O1595 O 0.39348 1.08318 0.47681
 O1596 O 0.36925 1.10976 0.47734
 C1597 C 0.37593 1.09147 0.47003
 C1598 C 0.36339 1.07996 0.45319
 C1599 C 0.34265 1.08730 0.44752
 H1600 H 0.33549 1.10108 0.45610
 O1601 O 0.52745 1.07932 0.39059
 O1602 O 0.52847 1.10470 0.36544
 C1603 C 0.53539 1.08681 0.37303
 C1604 C 0.55330 1.07488 0.36179
 C1605 C 0.56210 1.08240 0.34203
 H1606 H 0.55495 1.09652 0.33449
 O1607 O 0.47435 0.92348 0.38766
 O1608 O 0.47359 0.89885 0.36142
 C1609 C 0.46676 0.91661 0.36983
 C1610 C 0.44959 0.92926 0.35900
 C1611 C 0.44291 0.92364 0.33804
 H1612 H 0.45113 0.91051 0.32950
 O1613 O 0.61069 1.01628 0.41994
 O1614 O 0.63673 1.01499 0.39506
 C1615 C 0.62921 1.02251 0.41279
 C1616 C 0.64181 1.03900 0.42508
 C1617 C 0.66376 1.04336 0.41998
 H1618 H 0.67176 1.03414 0.40718
 O1619 O 0.38943 0.98261 0.42057
 O1620 O 0.36455 0.98404 0.39516
 C1621 C 0.37169 0.97570 0.41247
 C1622 C 0.35956 0.95733 0.42282
 C1623 C 0.33905 0.95088 0.41505
 H1624 H 0.33172 0.95997 0.40206
 O1625 O 0.58523 1.10510 0.47612
 O1626 O 0.61177 1.12977 0.47692
 C1627 C 0.59390 1.12277 0.46919
 C1628 C 0.58323 1.13507 0.45173
 C1629 C 0.59180 1.15524 0.44463
 H1630 H 0.60611 1.16216 0.45236
 O1631 O 0.41574 0.88998 0.47284
 O1632 O 0.38936 0.86517 0.47203
 C1633 C 0.40748 0.87260 0.46483
 C1634 C 0.41898 0.86157 0.44656
 C1635 C 0.41175 0.84124 0.43814
 H1636 H 0.39790 0.83294 0.44551
 O1637 O 0.41874 0.98273 0.39014
 O1638 O 0.39394 0.98432 0.36465
 C1639 C 0.41123 0.97612 0.37216
 C1640 C 0.42254 0.95844 0.36012
 C1641 C 0.41609 0.95264 0.33916
 H1642 H 0.40307 0.96154 0.33150
 O1643 O 0.58177 1.01923 0.39007
 O1644 O 0.60764 1.01822 0.36503
 C1645 C 0.59031 1.02663 0.37278
 C1646 C 0.58016 1.04545 0.36183
 C1647 C 0.58865 1.05311 0.34213
 H1648 H 0.60240 1.04483 0.33464
 O1649 O 0.47333 0.89231 0.41586
 O1650 O 0.47287 0.86757 0.38972
 C1651 C 0.46562 0.87477 0.40768
 C1652 C 0.44775 0.86281 0.41888
 C1653 C 0.44071 0.84238 0.41109
 H1654 H 0.44896 0.83501 0.39731
 O1655 O 0.52812 1.10900 0.42068
 O1656 O 0.52930 1.13445 0.39560
 C1657 C 0.53641 1.12650 0.41304
 C1658 C 0.55501 1.13708 0.42429
 C1659 C 0.56381 1.15725 0.41731
 H1660 H 0.55606 1.16568 0.40420
 O1661 O 0.38686 0.92083 0.47339
 O1662 O 0.36020 0.89631 0.47256
 C1663 C 0.36883 0.91404 0.46570
 C1664 C 0.35818 0.92684 0.44839
 C1665 C 0.33772 0.92045 0.44006
 H1666 H 0.32926 0.90637 0.44677
 O1667 O 0.61301 1.07322 0.47669
 O1668 O 0.63973 1.09771 0.47743
 C1669 C 0.63145 1.08009 0.46993
 C1670 C 0.64297 1.06745 0.45293
 C1671 C 0.66495 1.07175 0.44761
 H1672 H 0.67383 1.08411 0.45663
 O1673 O 0.51689 0.92214 0.38687
 O1674 O 0.51604 0.89772 0.36044
 C1675 C 0.52394 0.91509 0.36877
 C1676 C 0.54173 0.92711 0.35756
 C1677 C 0.54644 0.92325 0.33559
 H1678 H 0.53642 0.91176 0.32662
 O1679 O 0.48465 1.07933 0.39203
 O1680 O 0.48569 1.10461 0.36676
 C1681 C 0.47749 1.08711 0.37458
 C1682 C 0.45900 1.07614 0.36354
 C1683 C 0.45275 1.08316 0.34306
 H1684 H 0.46201 1.09602 0.33505
 O1685 O 0.38952 1.02559 0.42043
 O1686 O 0.36451 1.02710 0.39516
 C1687 C 0.37218 1.03387 0.41296
 C1688 C 0.36140 1.05194 0.42497
 C1689 C 0.34070 1.05978 0.41913
 H1690 H 0.33197 1.05193 0.40605
 O1691 O 0.60802 0.97377 0.41817
 O1692 O 0.63381 0.97244 0.39306
 C1693 C 0.62536 0.96530 0.41048
 C1694 C 0.63556 0.94685 0.42192
 C1695 C 0.65647 0.93931 0.41600
 H1696 H 0.66546 0.94754 0.40327
 O1697 O 0.57188 0.88692 0.47325
 O1698 O 0.59592 0.86020 0.47257
 C1699 C 0.57883 0.86901 0.46522
 C1700 C 0.56727 0.85882 0.44671
 C1701 C 0.57412 0.83864 0.43789
 H1702 H 0.58735 0.82990 0.44532
 O1703 O 0.42461 1.11225 0.47592
 O1704 O 0.40062 1.13901 0.47608
 C1705 C 0.41795 1.13036 0.46850
 C1706 C 0.43047 1.14113 0.45070
 C1707 C 0.42406 1.16156 0.44243
 H1708 H 0.41014 1.16988 0.44949
 Cu1709 Cu 0.59203 0.99659 0.40690
 Cu1710 Cu 0.62301 0.99518 0.37671
 Cu1711 Cu 0.40724 1.00396 0.40855
 Cu1712 Cu 0.37743 1.00576 0.37806
 Cu1713 Cu 0.59562 1.08641 0.49721
 Cu1714 Cu 0.62736 1.11616 0.49824
 Cu1715 Cu 0.58465 0.90369 0.49488
 Cu1716 Cu 0.61351 0.87160 0.49421
 Cu1717 Cu 0.41157 1.09526 0.49731
 Cu1718 Cu 0.38268 1.12732 0.49779
 Cu1719 Cu 0.40377 0.90753 0.49421
 Cu1720 Cu 0.37192 0.87808 0.49352
 Cu1721 Cu 0.50638 1.09193 0.40856
 Cu1722 Cu 0.50753 1.12237 0.37837
 Cu1723 Cu 0.49517 0.90991 0.40415
 Cu1724 Cu 0.49439 0.88029 0.37265
 C1725 C 0.55431 0.94251 0.36903
 H1726 H 0.55093 0.94539 0.38601
 C1727 C 0.56357 0.93472 0.32522
 C1728 C 0.44673 1.05955 0.37382
 H1729 H 0.45132 1.05422 0.38977
 C1730 C 0.43431 1.07427 0.33297
 C1731 C 0.44874 1.13057 0.44142
 H1732 H 0.45356 1.11466 0.44729
 C1733 C 0.43582 1.17133 0.42526
 C1734 C 0.55002 0.86996 0.43693
 H1735 H 0.54494 0.88572 0.44330
 C1736 C 0.56385 0.82974 0.41955
 C1737 C 0.62416 0.93653 0.43887
 H1738 H 0.60794 0.94205 0.44335
 C1739 C 0.66587 0.92159 0.42691
 C1740 C 0.37250 1.06212 0.44208
 H1741 H 0.38863 1.05655 0.44637
 C1742 C 0.33126 1.07753 0.43047
 C1743 C 0.56241 1.05634 0.37144
 H1744 H 0.55596 1.05064 0.38676
 C1745 C 0.57991 1.07162 0.33212
 C1746 C 0.43939 0.94674 0.36985
 H1747 H 0.44428 0.95098 0.38612
 C1748 C 0.42604 0.93519 0.32806
 C1749 C 0.63163 1.05098 0.44166
 H1750 H 0.61458 1.04779 0.44547
 C1751 C 0.67544 1.05972 0.43106
 C1752 C 0.36890 0.94535 0.43964
 H1753 H 0.38482 0.95017 0.44559
 C1754 C 0.32811 0.93244 0.42331
 C1755 C 0.56477 1.12626 0.44157
 H1756 H 0.55826 1.11059 0.44683
 C1757 C 0.58237 1.16641 0.42736
 C1758 C 0.43702 0.87213 0.43677
 H1759 H 0.44241 0.88800 0.44273
 C1760 C 0.42270 0.83157 0.42036
 O1761 O 0.48383 0.42078 0.88899
 O1762 O 0.48511 0.39564 0.86328
 C1763 C 0.47687 0.41306 0.87117
 C1764 C 0.45888 0.42452 0.85989
 C1765 C 0.45076 0.41694 0.83985
 H1766 H 0.45772 0.40256 0.83218
 O1767 O 0.52212 0.58359 0.89507
 O1768 O 0.52217 0.60960 0.87050
 C1769 C 0.52959 0.59170 0.87768
 C1770 C 0.54739 0.58041 0.86597
 C1771 C 0.55401 0.58742 0.84543
 H1772 H 0.54557 0.60081 0.83780
 O1773 O 0.39506 0.47772 0.91672
 O1774 O 0.37045 0.47687 0.89100
 C1775 C 0.37774 0.46958 0.90866
 C1776 C 0.36631 0.45134 0.92003
 C1777 C 0.34600 0.44308 0.91290
 H1778 H 0.33828 0.45023 0.89900
 O1779 O 0.60936 0.52724 0.92348
 O1780 O 0.63550 0.52828 0.89869
 C1781 C 0.62740 0.53494 0.91648
 C1782 C 0.63908 0.55184 0.92910
 C1783 C 0.66103 0.55668 0.92456
 H1784 H 0.66953 0.54770 0.91190
 O1785 O 0.42424 0.39022 0.97352
 O1786 O 0.39870 0.36452 0.97273
 C1787 C 0.41665 0.37246 0.96561
 C1788 C 0.42878 0.36137 0.94769
 C1789 C 0.42121 0.34153 0.93844
 H1790 H 0.40659 0.33374 0.94483
 O1791 O 0.57882 0.61303 0.98099
 O1792 O 0.60399 0.63913 0.98163
 C1793 C 0.58646 0.63110 0.97399
 C1794 C 0.57510 0.64273 0.95656
 C1795 C 0.58262 0.66333 0.94967
 H1796 H 0.59646 0.67100 0.95757
 O1797 O 0.42438 0.52254 0.88907
 O1798 O 0.39996 0.52210 0.86319
 C1799 C 0.41700 0.53037 0.87166
 C1800 C 0.42820 0.54962 0.86169
 C1801 C 0.42152 0.55810 0.84170
 H1802 H 0.40832 0.55025 0.83299
 O1803 O 0.58087 0.48446 0.89239
 O1804 O 0.60678 0.48592 0.86740
 C1805 C 0.58906 0.47771 0.87466
 C1806 C 0.57830 0.45965 0.86270
 C1807 C 0.58645 0.45300 0.84248
 H1808 H 0.60006 0.46177 0.83514
 O1809 O 0.52734 0.39260 0.91862
 O1810 O 0.52894 0.36730 0.89310
 C1811 C 0.53590 0.37530 0.91078
 C1812 C 0.55451 0.36492 0.92215
 C1813 C 0.56421 0.34549 0.91417
 H1814 H 0.55771 0.33780 0.89981
 O1815 O 0.47880 0.61195 0.92498
 O1816 O 0.47870 0.63820 0.90069
 C1817 C 0.47105 0.62968 0.91787
 C1818 C 0.45247 0.63998 0.92937
 C1819 C 0.44479 0.66059 0.92319
 H1820 H 0.45338 0.66958 0.91066
 O1821 O 0.38857 0.57620 0.97689
 O1822 O 0.36233 0.60073 0.97725
 C1823 C 0.37088 0.58354 0.96925
 C1824 C 0.36075 0.57207 0.95053
 C1825 C 0.34069 0.57884 0.94181
 H1826 H 0.33193 0.59229 0.94928
 O1827 O 0.61242 0.42708 0.97897
 O1828 O 0.63876 0.40263 0.97864
 C1829 C 0.63052 0.42022 0.97154
 C1830 C 0.64153 0.43243 0.95386
 C1831 C 0.66183 0.42559 0.94558
 H1832 H 0.67010 0.41198 0.95295
 O1833 O 0.47978 0.58299 0.89414
 O1834 O 0.47986 0.60917 0.86977
 C1835 C 0.47271 0.59086 0.87663
 C1836 C 0.45574 0.57887 0.86425
 C1837 C 0.44935 0.58657 0.84404
 H1838 H 0.45738 0.60087 0.83717
 O1839 O 0.52631 0.42357 0.89025
 O1840 O 0.52783 0.39850 0.86447
 C1841 C 0.53436 0.41659 0.87256
 C1842 C 0.55185 0.42945 0.86172
 C1843 C 0.56047 0.42279 0.84164
 H1844 H 0.55362 0.40857 0.83352
 O1845 O 0.61012 0.48477 0.92238
 O1846 O 0.63606 0.48595 0.89740
 C1847 C 0.62827 0.47810 0.91483
 C1848 C 0.64028 0.46073 0.92615
 C1849 C 0.66071 0.45388 0.91836
 H1850 H 0.66805 0.46181 0.90442
 O1851 O 0.39421 0.52033 0.91859
 O1852 O 0.36965 0.51950 0.89281
 C1853 C 0.37637 0.52697 0.91077
 C1854 C 0.36357 0.54398 0.92227
 C1855 C 0.34340 0.55055 0.91420
 H1856 H 0.33680 0.54244 0.90004
 O1857 O 0.41844 0.60649 0.97883
 O1858 O 0.39239 0.63126 0.97946
 C1859 C 0.41067 0.62446 0.97230
 C1860 C 0.42285 0.63733 0.95596
 C1861 C 0.41548 0.65802 0.94970
 H1862 H 0.40104 0.66493 0.95729
 O1863 O 0.58382 0.39569 0.97695
 O1864 O 0.61001 0.37111 0.97696
 C1865 C 0.59233 0.37834 0.96922
 C1866 C 0.58196 0.36667 0.95072
 C1867 C 0.59125 0.34734 0.94248
 H1868 H 0.60557 0.34068 0.95012
 O1869 O 0.58025 0.52724 0.89342
 O1870 O 0.60623 0.52863 0.86851
 C1871 C 0.58815 0.53536 0.87617
 C1872 C 0.57627 0.55305 0.86523
 C1873 C 0.58294 0.56051 0.84477
 H1874 H 0.59653 0.55273 0.83653
 O1875 O 0.42699 0.47946 0.88886
 O1876 O 0.40247 0.47902 0.86306
 C1877 C 0.42009 0.47193 0.87102
 C1878 C 0.43199 0.45408 0.85972
 C1879 C 0.42489 0.44685 0.83948
 H1880 H 0.41164 0.45525 0.83162
 O1881 O 0.52160 0.61384 0.92447
 O1882 O 0.52155 0.64000 0.90010
 C1883 C 0.52904 0.63196 0.91731
 C1884 C 0.54706 0.64332 0.92882
 C1885 C 0.55498 0.66392 0.92196
 H1886 H 0.54710 0.67205 0.90873
 O1887 O 0.48443 0.39158 0.91912
 O1888 O 0.48580 0.36627 0.89357
 C1889 C 0.47756 0.37366 0.91108
 C1890 C 0.45914 0.36184 0.92161
 C1891 C 0.45168 0.34187 0.91303
 H1892 H 0.46025 0.33451 0.89944
 O1893 O 0.60917 0.58379 0.98148
 O1894 O 0.63456 0.60969 0.98214
 C1895 C 0.62716 0.59171 0.97460
 C1896 C 0.63916 0.57983 0.95740
 C1897 C 0.66114 0.58476 0.95248
 H1898 H 0.66967 0.59720 0.96174
 O1899 O 0.39481 0.42062 0.97419
 O1900 O 0.36915 0.39502 0.97386
 C1901 C 0.37707 0.41291 0.96673
 C1902 C 0.36585 0.42434 0.94906
 C1903 C 0.34536 0.41688 0.94216
 H1904 H 0.33728 0.40346 0.95052
 Cu1905 Cu 0.50535 0.40958 0.90679
 Cu1906 Cu 0.50709 0.37932 0.87612
 Cu1907 Cu 0.50056 0.59558 0.91222
 Cu1908 Cu 0.50054 0.62693 0.88286
 Cu1909 Cu 0.41268 0.50007 0.90581
 Cu1910 Cu 0.38327 0.49930 0.87485
 Cu1911 Cu 0.59245 0.50583 0.91037
 Cu1912 Cu 0.62372 0.50733 0.88044
 C1913 C 0.44922 0.44309 0.86965
 H1914 H 0.45474 0.44869 0.88531
 C1915 C 0.43378 0.42824 0.82959
 C1916 C 0.55843 0.56305 0.87565
 H1917 H 0.55346 0.55768 0.89160
 C1918 C 0.57183 0.57776 0.83483
 C1919 C 0.37606 0.44177 0.93813
 H1920 H 0.39192 0.44756 0.94343
 C1921 C 0.33546 0.42587 0.92405
 C1922 C 0.62833 0.56330 0.94566
 H1923 H 0.61131 0.55961 0.94914
 C1924 C 0.67217 0.57306 0.93607
 C1925 C 0.44779 0.37130 0.93911
 H1926 H 0.45345 0.38682 0.94567
 C1927 C 0.43265 0.33177 0.92101
 C1928 C 0.55720 0.63295 0.94618
 H1929 H 0.55148 0.61694 0.95133
 C1930 C 0.57289 0.67398 0.93230
 C1931 C 0.44532 0.56021 0.87279
 H1932 H 0.45024 0.55422 0.88840
 C1933 C 0.43220 0.57656 0.83279
 C1934 C 0.56082 0.44798 0.87206
 H1935 H 0.55464 0.45293 0.88779
 C1936 C 0.57791 0.43445 0.83204
 C1937 C 0.56348 0.37521 0.94055
 H1938 H 0.55641 0.39028 0.94666
 C1939 C 0.58262 0.33655 0.92433
 C1940 C 0.44148 0.62855 0.94587
 H1941 H 0.44708 0.61245 0.95044
 C1942 C 0.42616 0.66960 0.93318
 C1943 C 0.37196 0.55459 0.94058
 H1944 H 0.38762 0.54957 0.94675
 C1945 C 0.33196 0.56804 0.92356
 C1946 C 0.63092 0.45010 0.94408
 H1947 H 0.61502 0.45517 0.95001
 C1948 C 0.67136 0.43616 0.92768
 O1949 O 0.52051 0.42216 1.10308
 O1950 O 0.52097 0.39615 1.12762
 C1951 C 0.52790 0.41448 1.12051
 C1952 C 0.54486 0.42675 1.13263
 C1953 C 0.55098 0.41957 1.15310
 H1954 H 0.54291 0.40541 1.16015
 O1955 O 0.47631 0.57885 1.10830
 O1956 O 0.47516 0.60498 1.13306
 C1957 C 0.46846 0.58665 1.12577
 C1958 C 0.45091 0.57466 1.13740
 C1959 C 0.44348 0.58211 1.15757
 H1960 H 0.45134 0.59619 1.16505
 O1961 O 0.39107 0.51919 1.07895
 O1962 O 0.36467 0.51789 1.10341
 C1963 C 0.37261 0.52561 1.08599
 C1964 C 0.36045 0.54227 1.07373
 C1965 C 0.33911 0.54830 1.07990
 H1966 H 0.33126 0.54034 1.09350
 O1967 O 0.60844 0.48350 1.07872
 O1968 O 0.63297 0.48360 1.10451
 C1969 C 0.62596 0.47618 1.08663
 C1970 C 0.63802 0.45839 1.07535
 C1971 C 0.65801 0.45126 1.08344
 H1972 H 0.66496 0.45943 1.09740
 O1973 O 0.58213 0.39470 1.01901
 O1974 O 0.60818 0.36995 1.01912
 C1975 C 0.58985 0.37691 1.02603
 C1976 C 0.57740 0.36464 1.04271
 C1977 C 0.58426 0.34394 1.04977
 H1978 H 0.59853 0.33645 1.04247
 O1979 O 0.41698 0.60552 1.02058
 O1980 O 0.39093 0.63030 1.02129
 C1981 C 0.40887 0.62302 1.02839
 C1982 C 0.42051 0.63486 1.04590
 C1983 C 0.41429 0.65617 1.05224
 H1984 H 0.40107 0.66413 1.04401
 O1985 O 0.42106 0.47739 1.10860
 O1986 O 0.39503 0.47587 1.13342
 C1987 C 0.41312 0.46911 1.12578
 C1988 C 0.42494 0.45097 1.13625
 C1989 C 0.41860 0.44273 1.15664
 H1990 H 0.40522 0.45032 1.16536
 O1991 O 0.57756 0.52544 1.10901
 O1992 O 0.60202 0.52550 1.13485
 C1993 C 0.58459 0.53294 1.12686
 C1994 C 0.57271 0.55102 1.13788
 C1995 C 0.57996 0.55982 1.15766
 H1996 H 0.59377 0.55243 1.16542
 O1997 O 0.47872 0.39053 1.07367
 O1998 O 0.47903 0.36456 1.09823
 C1999 C 0.47155 0.37235 1.08089
 C2000 C 0.45400 0.36055 1.06910
 C2001 C 0.44600 0.34002 1.07607
 H2002 H 0.45343 0.33228 1.08977
 O2003 O 0.51800 0.61038 1.07829
 O2004 O 0.51647 0.63661 1.10296
 C2005 C 0.52445 0.62886 1.08555
 C2006 C 0.54170 0.64124 1.07389
 C2007 C 0.54641 0.66311 1.07944
 H2008 H 0.53691 0.67120 1.09198
 O2009 O 0.39436 0.41984 1.01656
 O2010 O 0.36872 0.39423 1.01618
 C2011 C 0.37657 0.41192 1.02403
 C2012 C 0.36523 0.42319 1.04232
 C2013 C 0.34448 0.41593 1.04953
 H2014 H 0.33641 0.40238 1.04140
 O2015 O 0.60794 0.58362 1.02347
 O2016 O 0.63291 0.60990 1.02417
 C2017 C 0.62536 0.59183 1.03120
 C2018 C 0.63672 0.58055 1.04886
 C2019 C 0.65696 0.58840 1.05609
 H2020 H 0.66469 0.60226 1.04813
 O2021 O 0.51892 0.58061 1.10797
 O2022 O 0.51767 0.60680 1.13266
 C2023 C 0.52588 0.58912 1.12539
 C2024 C 0.54400 0.57859 1.13699
 C2025 C 0.55142 0.58714 1.15672
 H2026 H 0.54336 0.60124 1.16384
 O2027 O 0.47803 0.42039 1.10380
 O2028 O 0.47871 0.39440 1.12835
 C2029 C 0.47099 0.41222 1.12138
 C2030 C 0.45347 0.42328 1.13377
 C2031 C 0.44722 0.41553 1.15414
 H2032 H 0.45576 0.40177 1.16099
 O2033 O 0.60820 0.52634 1.07996
 O2034 O 0.63286 0.52659 1.10564
 C2035 C 0.62558 0.53420 1.08809
 C2036 C 0.63689 0.55271 1.07708
 C2037 C 0.65697 0.56122 1.08450
 H2038 H 0.66480 0.55382 1.09820
 O2039 O 0.39408 0.47690 1.07684
 O2040 O 0.36767 0.47540 1.10129
 C2041 C 0.37619 0.46872 1.08360
 C2042 C 0.36518 0.45110 1.07105
 C2043 C 0.34432 0.44398 1.07743
 H2044 H 0.33618 0.45180 1.09103
 O2045 O 0.57740 0.61270 1.02284
 O2046 O 0.60216 0.63920 1.02355
 C2047 C 0.58425 0.63090 1.03029
 C2048 C 0.57121 0.64224 1.04711
 C2049 C 0.57580 0.66408 1.05291
 H2050 H 0.58863 0.67287 1.04441
 O2051 O 0.42395 0.38985 1.01564
 O2052 O 0.39845 0.36409 1.01496
 C2053 C 0.41609 0.37186 1.02259
 C2054 C 0.42713 0.36031 1.04025
 C2055 C 0.41947 0.33981 1.04727
 H2056 H 0.40594 0.33194 1.03903
 O2057 O 0.57728 0.48254 1.10722
 O2058 O 0.60159 0.48240 1.13322
 C2059 C 0.58427 0.47469 1.12473
 C2060 C 0.57240 0.45603 1.13489
 C2061 C 0.57845 0.44834 1.15531
 H2062 H 0.59127 0.45673 1.16407
 O2063 O 0.42032 0.52032 1.10902
 O2064 O 0.39414 0.51915 1.13369
 C2065 C 0.41186 0.52747 1.12648
 C2066 C 0.42275 0.54601 1.13790
 C2067 C 0.41514 0.55400 1.15804
 H2068 H 0.40139 0.54603 1.16592
 O2069 O 0.47537 0.60729 1.07748
 O2070 O 0.47411 0.63348 1.10219
 C2071 C 0.46719 0.62496 1.08473
 C2072 C 0.44929 0.63571 1.07301
 C2073 C 0.44300 0.65697 1.07887
 H2074 H 0.45165 0.66557 1.09160
 O2075 O 0.52141 0.39220 1.07313
 O2076 O 0.52158 0.36615 1.09763
 C2077 C 0.52904 0.37440 1.08029
 C2078 C 0.54721 0.36343 1.06878
 C2079 C 0.55396 0.34264 1.07526
 H2080 H 0.54513 0.33421 1.08804
 O2081 O 0.61176 0.42532 1.02125
 O2082 O 0.63801 0.40081 1.02113
 C2083 C 0.62947 0.41808 1.02897
 C2084 C 0.63982 0.42969 1.04754
 C2085 C 0.65978 0.42253 1.05622
 H2086 H 0.66813 0.40879 1.04883
 O2087 O 0.38860 0.57388 1.01919
 O2088 O 0.36233 0.59842 1.01971
 C2089 C 0.37055 0.58079 1.02669
 C2090 C 0.35935 0.56867 1.04424
 C2091 C 0.33802 0.57419 1.05043
 H2092 H 0.32940 0.58669 1.04163
 Cu2093 Cu 0.49956 0.40887 1.08587
 Cu2094 Cu 0.50017 0.37770 1.11541
 Cu2095 Cu 0.49733 0.59163 1.09054
 Cu2096 Cu 0.49569 0.62309 1.12019
 Cu2097 Cu 0.41188 0.40769 0.99499
 Cu2098 Cu 0.38115 0.37695 0.99436
 Cu2099 Cu 0.59499 0.41318 0.99915
 Cu2100 Cu 0.62640 0.38371 0.99897
 Cu2101 Cu 0.40565 0.58797 0.99876
 Cu2102 Cu 0.37427 0.61756 0.99951
 Cu2103 Cu 0.59085 0.59563 1.00212
 Cu2104 Cu 0.62095 0.62712 1.00297
 Cu2105 Cu 0.40939 0.49871 1.09109
 Cu2106 Cu 0.37777 0.49689 1.12045
 Cu2107 Cu 0.59042 0.50452 1.09119
 Cu2108 Cu 0.61981 0.50445 1.12215
 C2109 C 0.55549 0.44515 1.12371
 H2110 H 0.55095 0.45067 1.10781
 C2111 C 0.56781 0.43002 1.16443
 C2112 C 0.44068 0.55647 1.12786
 H2113 H 0.44636 0.55083 1.11218
 C2114 C 0.42558 0.57214 1.16796
 C2115 C 0.37037 0.55251 1.05581
 H2116 H 0.38694 0.54832 1.05118
 C2117 C 0.32787 0.56433 1.06828
 C2118 C 0.62916 0.44767 1.05727
 H2119 H 0.61363 0.45303 1.05107
 C2120 C 0.66895 0.43332 1.07426
 C2121 C 0.55880 0.37417 1.05229
 H2122 H 0.55369 0.39033 1.04738
 C2123 C 0.57253 0.33291 1.06613
 C2124 C 0.43810 0.62481 1.05637
 H2125 H 0.44286 0.60834 1.05180
 C2126 C 0.42560 0.66733 1.06871
 C2127 C 0.44246 0.44112 1.12508
 H2128 H 0.44721 0.44700 1.10924
 C2129 C 0.42984 0.42493 1.16569
 C2130 C 0.55464 0.56044 1.12784
 H2131 H 0.54916 0.55397 1.11248
 C2132 C 0.56944 0.57805 1.16717
 C2133 C 0.44452 0.37042 1.05111
 H2134 H 0.45029 0.38638 1.04588
 C2135 C 0.42859 0.32959 1.06523
 C2136 C 0.55406 0.63101 1.05761
 H2137 H 0.55062 0.61406 1.05341
 C2138 C 0.56345 0.67463 1.06914
 C2139 C 0.37546 0.44083 1.05326
 H2140 H 0.39161 0.44625 1.04824
 C2141 C 0.33401 0.42638 1.06705
 C2142 C 0.62697 0.56255 1.05924
 H2143 H 0.61129 0.55651 1.05371
 C2144 C 0.66708 0.57909 1.07394
 C2145 C 1.13712 1.12931 1.27813
 C2146 C 1.11718 1.13251 1.26795
 C2147 C 1.11150 1.11988 1.24848
 N2148 N 1.09104 1.12091 1.24043
 N2149 N 1.08572 1.10937 1.22291
 C2150 C 1.10066 1.09639 1.21280
 N2151 N 1.12113 1.09543 1.22080
 N2152 N 1.12643 1.10692 1.23835
 C2153 C 1.09521 1.08417 1.19305
 C2154 C 1.07427 1.08472 1.18456
 H2155 H 1.10504 1.14351 1.27451
 H2156 H 1.10824 1.07579 1.18453
 H2157 H 1.14790 1.11711 1.27111
 H2158 H 1.06179 1.09388 1.19316
 C2159 C 1.14137 0.64918 0.77357
 C2160 C 1.13764 0.62736 0.76765
 C2161 C 1.12372 0.62164 0.74896
 N2162 N 1.11886 0.60036 0.74441
 N2163 N 1.10609 0.59512 0.72780
 C2164 C 1.09759 0.61095 0.71509
 N2165 N 1.10245 0.63222 0.71964
 N2166 N 1.11521 0.63745 0.73624
 C2167 C 1.08402 0.60534 0.69614
 C2168 C 1.07979 0.58360 0.69027
 H2169 H 1.14398 0.61429 0.77744
 H2170 H 1.07865 0.61847 0.68585
 H2171 H 1.13390 0.66180 0.76395
 H2172 H 1.08618 0.57078 0.70038
 C2173 C 0.64329 1.13290 0.76843
 C2174 C 0.62152 1.12954 0.76285
 C2175 C 0.61551 1.11596 0.74404
 N2176 N 0.59416 1.11201 0.73970
 N2177 N 0.58853 1.09943 0.72296
 C2178 C 0.60404 1.09024 0.70997
 N2179 N 0.62539 1.09416 0.71434
 N2180 N 0.63101 1.10674 0.73108
 C2181 C 0.59801 1.07708 0.69088
 C2182 C 0.57632 1.07484 0.68461
 H2183 H 0.60857 1.13574 0.77318
 H2184 H 0.61097 1.07071 0.68065
 H2185 H 0.65593 1.12558 0.75841
 H2186 H 0.56371 1.08242 0.69446
 C2187 C 0.64359 0.62907 1.28185
 C2188 C 0.62410 0.63338 1.27106
 C2189 C 0.61684 0.62018 1.25234
 N2190 N 0.59742 0.62452 1.24299
 N2191 N 0.59081 0.61312 1.22579
 C2192 C 0.60340 0.59694 1.21721
 N2193 N 0.62282 0.59257 1.22657
 N2194 N 0.62941 0.60395 1.24381
 C2195 C 0.59659 0.58459 1.19778
 C2196 C 0.57667 0.58847 1.18771
 H2197 H 0.61363 0.64669 1.27602
 H2198 H 0.60795 0.57284 1.19111
 H2199 H 0.65280 0.61493 1.27639
 H2200 H 0.56603 0.60074 1.19480
 C2201 C 0.88655 0.86782 1.29142
 C2202 C 0.88338 0.88751 1.28049
 C2203 C 0.89578 0.89331 1.26087
 N2204 N 0.89254 0.91306 1.25159
 N2205 N 0.90288 0.91836 1.23333
 C2206 C 0.91685 0.90409 1.22362
 N2207 N 0.92019 0.88435 1.23296
 N2208 N 0.90985 0.87906 1.25126
 C2209 C 0.92753 0.90941 1.20290
 C2210 C 0.92362 0.92922 1.19254
 H2211 H 0.87166 0.89941 1.28617
 H2212 H 0.93754 0.89697 1.19530
 H2213 H 0.89987 0.85751 1.28590
 H2214 H 0.91283 0.94090 1.20036
 C2215 C 0.86139 0.35639 0.78086
 C2216 C 0.85712 0.37687 0.77177
 C2217 C 0.86958 0.38508 0.75298
 N2218 N 0.86608 0.40564 0.74557
 N2219 N 0.87692 0.41308 0.72830
 C2220 C 0.89160 0.40018 0.71776
 N2221 N 0.89507 0.37964 0.72516
 N2222 N 0.88430 0.37223 0.74245
 C2223 C 0.90343 0.40774 0.69837
 C2224 C 0.90141 0.42892 0.69018
 H2225 H 0.84459 0.38745 0.77826
 H2226 H 0.91347 0.39578 0.69012
 H2227 H 0.87509 0.34732 0.77422
 H2228 H 0.89038 0.44018 0.69827
 C2229 C 0.35431 0.85663 0.76876
 C2230 C 0.35764 0.87857 0.76343
 C2231 C 0.37003 0.88466 0.74373
 N2232 N 0.37438 0.90603 0.73934
 N2233 N 0.38632 0.91153 0.72205
 C2234 C 0.39450 0.89586 0.70855
 N2235 N 0.39015 0.87452 0.71294
 N2236 N 0.37819 0.86903 0.73019
 C2237 C 0.40749 0.90162 0.68917
 C2238 C 0.41039 0.92330 0.68271
 H2239 H 0.35278 0.89135 0.77466
 H2240 H 0.41360 0.88843 0.67907
 H2241 H 0.36016 0.84415 0.75764
 H2242 H 0.40295 0.93618 0.69235
 C2243 C 0.36592 0.37360 1.28555
 C2244 C 0.38410 0.36812 1.27286
 C2245 C 0.38948 0.38093 1.25329
 N2246 N 0.40862 0.37775 1.24253
 N2247 N 0.41349 0.38937 1.22495
 C2248 C 0.39940 0.40459 1.21740
 N2249 N 0.38022 0.40767 1.22808
 N2250 N 0.37540 0.39611 1.24568
 C2251 C 0.40435 0.41723 1.19768
 C2252 C 0.42438 0.41525 1.18698
 H2253 H 0.39470 0.35481 1.27719
 H2254 H 0.39169 0.42746 1.19120
 H2255 H 0.35677 0.38777 1.28046
 H2256 H 0.43643 0.40455 1.19393
 C2257 C 0.87234 1.13340 0.72273
 C2258 C 0.87151 1.11225 0.73125
 C2259 C 0.88529 1.10615 0.74953
 N2260 N 0.88457 1.08539 0.75719
 N2261 N 0.89658 1.07983 0.77405
 C2262 C 0.90978 1.09482 0.78387
 N2263 N 0.91059 1.11554 0.77613
 N2264 N 0.89860 1.12109 0.75926
 C2265 C 0.92213 1.08925 0.80325
 C2266 C 0.92039 1.06859 0.81255
 H2267 H 0.86093 1.09970 0.72465
 H2268 H 0.93126 1.10222 0.81115
 H2269 H 0.88400 1.14479 0.72979
 H2270 H 0.91033 1.05624 0.80473
 C2271 C 0.85751 0.62976 0.23098
 C2272 C 0.87954 0.62721 0.23570
 C2273 C 0.88661 0.61329 0.25354
 N2274 N 0.90820 0.61095 0.25751
 N2275 N 0.91479 0.59850 0.27372
 C2276 C 0.90003 0.58787 0.28651
 N2277 N 0.87844 0.59013 0.28247
 N2278 N 0.87185 0.60258 0.26627
 C2279 C 0.90699 0.57492 0.30507
 C2280 C 0.92881 0.57411 0.31116
 H2281 H 0.89201 0.63492 0.22577
 H2282 H 0.89442 0.56741 0.31505
 H2283 H 0.84542 0.62086 0.24045
 H2284 H 0.94095 0.58285 0.30161
 C2285 C 0.36304 1.12770 0.22041
 C2286 C 0.38366 1.13001 0.22966
 C2287 C 0.38980 1.11715 0.24859
 N2288 N 0.41050 1.11835 0.25610
 N2289 N 0.41619 1.10702 0.27341
 C2290 C 0.40137 1.09409 0.28388
 N2291 N 0.38067 1.09289 0.27637
 N2292 N 0.37500 1.10418 0.25902
 C2293 C 0.40717 1.08220 0.30350
 C2294 C 0.42826 1.08313 0.31173
 H2295 H 0.39592 1.14091 0.22297
 H2296 H 0.39423 1.07370 0.31211
 H2297 H 0.35209 1.11551 0.22735
 H2298 H 0.44062 1.09246 0.30302
 C2299 C 0.35913 0.64588 0.73044
 C2300 C 0.38089 0.64051 0.73389
 C2301 C 0.38719 0.62762 0.75296
 N2302 N 0.40841 0.62237 0.75619
 N2303 N 0.41400 0.60996 0.77286
 C2304 C 0.39856 0.60214 0.78684
 N2305 N 0.37736 0.60734 0.78357
 N2306 N 0.37179 0.61980 0.76697
 C2307 C 0.40443 0.58870 0.80562
 C2308 C 0.42605 0.58608 0.81184
 H2309 H 0.39309 0.64405 0.72158
 H2310 H 0.39137 0.58224 0.81572
 H2311 H 0.34710 0.64150 0.74267
 H2312 H 0.43884 0.59404 0.80245
 C2313 C 1.13432 0.85432 0.72932
 C2314 C 1.13022 0.87620 0.73436
 C2315 C 1.11651 0.88242 0.75299
 N2316 N 1.11279 0.90389 0.75731
 N2317 N 1.10042 0.90976 0.77415
 C2318 C 1.09122 0.89437 0.78722
 N2319 N 1.09482 0.87289 0.78282
 N2320 N 1.10721 0.86702 0.76599
 C2321 C 1.07856 0.90069 0.80653
 C2322 C 1.07747 0.92247 0.81330
 H2323 H 1.13633 0.88911 0.72399
 H2324 H 1.07183 0.88781 0.81660
 H2325 H 1.12708 0.84166 0.73935
 H2326 H 1.08553 0.93496 0.80366
 C2327 C 1.14800 0.36200 0.22287
 C2328 C 1.12741 0.35851 0.23231
 C2329 C 1.12002 0.37063 0.25173
 N2330 N 1.09970 0.36692 0.25999
 N2331 N 1.09293 0.37738 0.27778
 C2332 C 1.10625 0.39193 0.28803
 N2333 N 1.12656 0.39566 0.27974
 N2334 N 1.13332 0.38522 0.26195
 C2335 C 1.09923 0.40340 0.30796
 C2336 C 1.07861 0.40005 0.31738
 H2337 H 1.11618 0.34670 0.22541
 H2338 H 1.11102 0.41417 0.31552
 H2339 H 1.15828 0.37491 0.22943
 H2340 H 1.06759 0.38843 0.30976
 C2341 C 0.59959 0.88181 0.19529
 C2342 C 0.60173 0.90121 0.20726
 C2343 C 0.59035 0.90462 0.22798
 N2344 N 0.59323 0.92381 0.23878
 N2345 N 0.58433 0.92677 0.25825
 C2346 C 0.57223 0.91066 0.26770
 N2347 N 0.56912 0.89152 0.25680
 N2348 N 0.57804 0.88854 0.23729
 C2349 C 0.56362 0.91336 0.28982
 C2350 C 0.56896 0.93188 0.30207
 H2351 H 0.61229 0.91439 0.20188
 H2352 H 0.55440 0.89995 0.29686
 H2353 H 0.58710 0.87020 0.20044
 H2354 H 0.57910 0.94448 0.29471
 C2355 C 0.64432 0.35451 0.73071
 C2356 C 0.64145 0.37679 0.73486
 C2357 C 0.62865 0.38427 0.75369
 N2358 N 0.62511 0.40597 0.75697
 N2359 N 0.61288 0.41279 0.77359
 C2360 C 0.60365 0.39812 0.78744
 N2361 N 0.60720 0.37645 0.78416
 N2362 N 0.61944 0.36966 0.76758
 C2363 C 0.59040 0.40526 0.80605
 C2364 C 0.58820 0.42730 0.81157
 H2365 H 0.64720 0.38888 0.72338
 H2366 H 0.58349 0.39273 0.81642
 H2367 H 0.63757 0.34275 0.74205
 H2368 H 0.59651 0.43958 0.80187
 C2369 C 1.27645 1.14039 1.14206
 C2370 C 1.27084 1.13912 1.12036
 C2371 C 1.25123 1.12680 1.11352
 N2372 N 1.24666 1.12446 1.09225
 N2373 N 1.22939 1.11266 1.08597
 C2374 C 1.21613 1.10267 1.10073
 N2375 N 1.22070 1.10504 1.12197
 N2376 N 1.23793 1.11685 1.12824
 C2377 C 1.19680 1.08984 1.09416
 C2378 C 1.19025 1.08862 1.07274
 H2379 H 1.28174 1.14573 1.10812
 H2380 H 1.18682 1.08241 1.10669
 H2381 H 1.26569 1.13280 1.15388
 H2382 H 1.19972 1.09734 1.06062
 C2383 C 1.27535 0.62515 0.64884
 C2384 C 1.26982 0.62202 0.62728
 C2385 C 1.25103 0.60839 0.62090
 N2386 N 1.24650 0.60558 0.59969
 N2387 N 1.22924 0.59369 0.59365
 C2388 C 1.21591 0.58414 0.60858
 N2389 N 1.22053 0.58683 0.62980
 N2390 N 1.23779 0.59873 0.63585
 C2391 C 1.19613 0.57203 0.60214
 C2392 C 1.18974 0.57093 0.58064
 H2393 H 1.27968 0.62934 0.61460
 H2394 H 1.18561 0.56554 0.61475
 H2395 H 1.26614 0.61649 0.66119
 H2396 H 1.20004 0.57859 0.56847
 C2397 C 0.78566 1.12022 0.64262
 C2398 C 0.77312 1.12521 0.62459
 C2399 C 0.75480 1.11109 0.61750
 N2400 N 0.74492 1.11520 0.59849
 N2401 N 0.72808 1.10295 0.59197
 C2402 C 0.72037 1.08613 0.60422
 N2403 N 0.73021 1.08202 0.62329
 N2404 N 0.74714 1.09424 0.62978
 C2405 C 0.70116 1.07304 0.59738
 C2406 C 0.69181 1.07626 0.57720
 H2407 H 0.77670 1.13948 0.61493
 H2408 H 0.69395 1.06161 0.60871
 H2409 H 0.78196 1.10488 0.65067
 H2410 H 0.69971 1.08793 0.56649
 C2411 C 0.77183 0.64433 1.15064
 C2412 C 0.76706 0.64173 1.12884
 C2413 C 0.74770 0.62896 1.12194
 N2414 N 0.74388 0.62548 1.10066
 N2415 N 0.72689 0.61326 1.09439
 C2416 C 0.71315 0.60394 1.10916
 N2417 N 0.71698 0.60743 1.13042
 N2418 N 0.73393 0.61966 1.13668
 C2419 C 0.69403 0.59073 1.10252
 C2420 C 0.68809 0.58876 1.08095
 H2421 H 0.77851 0.64755 1.11668
 H2422 H 0.68364 0.58374 1.11498
 H2423 H 0.76053 0.63755 1.16246
 H2424 H 0.69799 0.59704 1.06884
 C2425 C 1.28332 0.85859 0.86819
 C2426 C 1.27071 0.87711 0.86429
 C2427 C 1.25234 0.88309 0.87880
 N2428 N 1.24255 0.90282 0.87684
 N2429 N 1.22590 0.90832 0.88976
 C2430 C 1.21831 0.89428 0.90513
 N2431 N 1.22802 0.87449 0.90702
 N2432 N 1.24474 0.86904 0.89416
 C2433 C 1.19935 0.89999 0.91899
 C2434 C 1.19032 0.92089 0.91841
 H2435 H 1.27437 0.88784 0.85091
 H2436 H 1.19193 0.88730 0.92882
 H2437 H 1.27932 0.84944 0.88266
 H2438 H 1.19829 0.93300 0.90824
 C2439 C 1.28339 0.37203 0.36932
 C2440 C 1.27235 0.36583 0.38820
 C2441 C 1.25201 0.37673 0.39482
 N2442 N 1.24319 0.37312 0.41467
 N2443 N 1.22469 0.38290 0.42066
 C2444 C 1.21432 0.39654 0.40696
 N2445 N 1.22307 0.40003 0.38710
 N2446 N 1.24159 0.39034 0.38115
 C2447 C 1.19378 0.40725 0.41301
 C2448 C 1.18484 0.40590 0.43374
 H2449 H 1.27855 0.35331 0.39867
 H2450 H 1.18545 0.41594 0.40044
 H2451 H 1.27698 0.38589 0.36063
 H2452 H 1.19321 0.39630 0.44570
 C2453 C 0.78977 0.87664 0.36317
 C2454 C 0.77918 0.87475 0.38313
 C2455 C 0.75847 0.88596 0.38796
 N2456 N 0.74896 0.88376 0.40770
 N2457 N 0.73005 0.89349 0.41225
 C2458 C 0.71990 0.90579 0.39723
 N2459 N 0.72944 0.90806 0.37750
 N2460 N 0.74838 0.89833 0.37294
 C2461 C 0.69870 0.91617 0.40192
 C2462 C 0.68793 0.91314 0.42165
 H2463 H 0.78623 0.86508 0.39580
 H2464 H 0.69119 0.92546 0.38924
 H2465 H 0.78297 0.88750 0.35127
 H2466 H 0.69553 0.90286 0.43358
 C2467 C 0.76819 0.35252 0.85923
 C2468 C 0.76505 0.37493 0.86227
 C2469 C 0.74726 0.38313 0.87617
 N2470 N 0.74467 0.40500 0.87919
 N2471 N 0.72883 0.41253 0.89210
 C2472 C 0.71511 0.39843 0.90255
 N2473 N 0.71776 0.37658 0.89958
 N2474 N 0.73355 0.36907 0.88665
 C2475 C 0.69711 0.40636 0.91626
 C2476 C 0.69188 0.42850 0.91760
 H2477 H 0.77651 0.38668 0.85550
 H2478 H 0.68667 0.39426 0.92398
 H2479 H 0.75697 0.34112 0.86698
 H2480 H 0.70161 0.44026 0.90855
 C2481 C 0.69752 0.89832 1.12635
 C2482 C 0.70847 0.89740 1.10653
 C2483 C 0.73012 0.90746 1.10312
 N2484 N 0.74029 0.90517 1.08372
 N2485 N 0.76035 0.91320 1.08058
 C2486 C 0.77102 0.92384 1.09672
 N2487 N 0.76076 0.92634 1.11609
 N2488 N 0.74067 0.91827 1.11925
 C2489 C 0.79359 0.93185 1.09362
 C2490 C 0.80529 0.92700 1.07477
 H2491 H 0.70129 0.88868 1.09305
 H2492 H 0.80132 0.94047 1.10684
 H2493 H 0.70421 0.90846 1.13914
 H2494 H 0.79732 0.91728 1.06238
 C2495 C 0.71482 0.35996 0.63182
 C2496 C 0.72475 0.38038 0.63540
 C2497 C 0.74249 0.38840 0.62119
 N2498 N 0.75068 0.40897 0.62387
 N2499 N 0.76713 0.41614 0.61147
 C2500 C 0.77602 0.40300 0.59596
 N2501 N 0.76781 0.38246 0.59327
 N2502 N 0.75133 0.37531 0.60562
 C2503 C 0.79490 0.41021 0.58287
 C2504 C 0.80370 0.43130 0.58476
 H2505 H 0.71971 0.39095 0.64855
 H2506 H 0.80259 0.39808 0.57258
 H2507 H 0.71996 0.35094 0.61753
 H2508 H 0.79574 0.44279 0.59563
 C2509 C 0.21414 0.87309 0.64116
 C2510 C 0.22489 0.86962 0.62141
 C2511 C 0.24307 0.88387 0.61408
 N2512 N 0.25174 0.88102 0.59403
 N2513 N 0.26857 0.89329 0.58736
 C2514 C 0.27745 0.90886 0.60048
 N2515 N 0.26877 0.91173 0.62053
 N2516 N 0.25187 0.89950 0.62719
 C2517 C 0.29677 0.92178 0.59357
 C2518 C 0.30578 0.91929 0.57291
 H2519 H 0.22014 0.85641 0.61072
 H2520 H 0.30453 0.93233 0.60535
 H2521 H 0.21896 0.88749 0.65037
 H2522 H 0.29764 0.90822 0.56178
 C2523 C 0.23066 0.34987 1.13513
 C2524 C 0.23862 0.37140 1.13489
 C2525 C 0.25605 0.37808 1.11965
 N2526 N 0.26143 0.39957 1.11760
 N2527 N 0.27711 0.40580 1.10383
 C2528 C 0.28799 0.39079 1.09156
 N2529 N 0.28261 0.36929 1.09361
 N2530 N 0.26689 0.36307 1.10734
 C2531 C 0.30623 0.39742 1.07728
 C2532 C 0.31252 0.41934 1.07559
 H2533 H 0.23146 0.38401 1.14498
 H2534 H 0.31602 0.38475 1.06971
 H2535 H 0.23790 0.33849 1.12365
 H2536 H 0.30283 0.43162 1.08392
 C2537 C 0.72021 1.13162 0.85662
 C2538 C 0.72835 1.13363 0.87754
 C2539 C 0.74690 1.11996 0.88439
 N2540 N 0.75321 1.11986 0.90532
 N2541 N 0.76969 1.10728 0.91153
 C2542 C 0.78049 1.09429 0.89707
 N2543 N 0.77422 1.09446 0.87617
 N2544 N 0.75774 1.10699 0.86998
 C2545 C 0.79923 1.08079 0.90350
 C2546 C 0.80651 1.08051 0.92472
 H2547 H 0.72069 1.14429 0.88934
 H2548 H 0.80822 1.07212 0.89101
 H2549 H 0.72837 1.11991 0.84611
 H2550 H 0.79761 1.09000 0.93672
 C2551 C 0.73242 0.64513 0.36055
 C2552 C 0.73819 0.62330 0.36338
 C2553 C 0.75707 0.61727 0.37655
 N2554 N 0.76153 0.59585 0.37995
 N2555 N 0.77836 0.59018 0.39210
 C2556 C 0.79133 0.60573 0.40138
 N2557 N 0.78684 0.62716 0.39800
 N2558 N 0.77001 0.63282 0.38585
 C2559 C 0.81041 0.59966 0.41424
 C2560 C 0.81655 0.57785 0.41638
 H2561 H 0.72803 0.61026 0.35692
 H2562 H 0.82059 0.61266 0.42074
 H2563 H 0.74224 0.65782 0.36815
 H2564 H 0.80671 0.56522 0.40871
 C2565 C 0.21708 1.13208 0.36215
 C2566 C 0.22675 1.13577 0.38217
 C2567 C 0.24632 1.12322 0.38810
 N2568 N 0.25403 1.12395 0.40853
 N2569 N 0.27141 1.11219 0.41387
 C2570 C 0.28169 1.09926 0.39900
 N2571 N 0.27405 1.09865 0.37859
 N2572 N 0.25670 1.11035 0.37327
 C2573 C 0.30121 1.08656 0.40439
 C2574 C 0.30977 1.08680 0.42510
 H2575 H 0.21969 1.14691 0.39392
 H2576 H 0.30960 1.07796 0.39146
 H2577 H 0.22473 1.11989 0.35181
 H2578 H 0.30145 1.09625 0.43752
 C2579 C 0.22621 0.64334 0.86064
 C2580 C 0.23481 0.62231 0.85807
 C2581 C 0.25279 0.61517 0.87221
 N2582 N 0.25953 0.59401 0.87211
 N2583 N 0.27550 0.58769 0.88513
 C2584 C 0.28534 0.60225 0.89876
 N2585 N 0.27865 0.62336 0.89877
 N2586 N 0.26271 0.62965 0.88582
 C2587 C 0.30351 0.59583 0.91282
 C2588 C 0.31125 0.57443 0.91322
 H2589 H 0.22808 0.61082 0.84649
 H2590 H 0.31177 0.60857 0.92193
 H2591 H 0.23345 0.65337 0.87324
 H2592 H 0.30311 0.56219 0.90333
 C2593 C 1.15024 1.26311 1.14985
 C2594 C 1.12834 1.26078 1.14438
 C2595 C 1.12110 1.24345 1.12935
 N2596 N 1.10009 1.24280 1.12264
 N2597 N 1.09366 1.22789 1.10816
 C2598 C 1.10804 1.21321 1.09972
 N2599 N 1.12904 1.21386 1.10644
 N2600 N 1.13546 1.22873 1.12093
 C2601 C 1.10102 1.19618 1.08428
 C2602 C 1.07911 1.19312 1.07921
 H2603 H 1.11676 1.27327 1.14922
 H2604 H 1.11304 1.18454 1.07847
 H2605 H 1.16181 1.25104 1.14400
 H2606 H 1.06707 1.20403 1.08627
 C2607 C 1.14489 0.77147 0.64368
 C2608 C 1.14209 0.76705 0.62178
 C2609 C 1.12932 0.74775 0.61468
 N2610 N 1.12646 0.74356 0.59336
 N2611 N 1.11421 0.72658 0.58695
 C2612 C 1.10426 0.71328 0.60165
 N2613 N 1.10710 0.71750 0.62294
 N2614 N 1.11937 0.73440 0.62932
 C2615 C 1.09082 0.69434 0.59502
 C2616 C 1.08985 0.68724 0.57365
 H2617 H 1.14779 0.77864 0.60979
 H2618 H 1.08274 0.68491 0.60756
 H2619 H 1.13843 0.75982 0.65528
 H2620 H 1.09940 0.69585 0.56151
 C2621 C 0.63744 1.26837 0.64764
 C2622 C 0.63439 1.26395 0.62579
 C2623 C 0.62135 1.24513 0.61838
 N2624 N 0.61898 1.24141 0.59694
 N2625 N 0.60716 1.22443 0.58994
 C2626 C 0.59720 1.21062 0.60414
 N2627 N 0.59947 1.21442 0.62559
 N2628 N 0.61133 1.23139 0.63259
 C2629 C 0.58484 1.19138 0.59666
 C2630 C 0.58477 1.18521 0.57498
 H2631 H 0.64090 1.27497 0.61367
 H2632 H 0.57713 1.18101 0.60868
 H2633 H 0.62975 1.25776 0.65950
 H2634 H 0.59391 1.19498 0.56340
 C2635 C 0.62336 0.80293 1.10760
 C2636 C 0.60264 0.79325 1.10699
 C2637 C 0.59876 0.77158 1.09720
 N2638 N 0.57846 0.76253 1.09808
 N2639 N 0.57478 0.74252 1.09011
 C2640 C 0.59127 0.73082 1.08095
 N2641 N 0.61155 0.73994 1.07991
 N2642 N 0.61524 0.75995 1.08792
 C2643 C 0.58758 0.70841 1.07278
 C2644 C 0.56755 0.69767 1.07563
 H2645 H 0.58874 0.80151 1.11415
 H2646 H 0.60129 0.69998 1.06548
 H2647 H 0.63673 0.79510 1.09901
 H2648 H 0.55456 0.70609 1.08424
 C2649 C 0.84858 1.26410 0.85668
 C2650 C 0.87062 1.25960 0.85956
 C2651 C 0.87767 1.24141 0.87321
 N2652 N 0.89925 1.23828 0.87667
 N2653 N 0.90582 1.22222 0.88945
 C2654 C 0.89105 1.20877 0.89934
 N2655 N 0.86947 1.21193 0.89590
 N2656 N 0.86290 1.22798 0.88310
 C2657 C 0.89812 1.19056 0.91294
 C2658 C 0.92013 1.18546 0.91497
 H2659 H 0.88303 1.27050 0.85302
 H2660 H 0.88570 1.18004 0.92007
 H2661 H 0.83645 1.25358 0.86431
 H2662 H 0.93222 1.19543 0.90663
 C2663 C 0.86922 0.78586 0.37717
 C2664 C 0.89044 0.77760 0.37679
 C2665 C 0.89619 0.75698 0.38744
 N2666 N 0.91700 0.74955 0.38615
 N2667 N 0.92242 0.73072 0.39535
 C2668 C 0.90722 0.71861 0.40620
 N2669 N 0.88643 0.72607 0.40755
 N2670 N 0.88099 0.74490 0.39833
 C2671 C 0.91284 0.69764 0.41624
 C2672 C 0.93360 0.68847 0.41421
 H2673 H 0.90346 0.78641 0.36860
 H2674 H 0.89993 0.68893 0.42471
 H2675 H 0.85682 0.77743 0.38665
 H2676 H 0.94581 0.69679 0.40439
 C2677 C 0.36394 1.28310 0.36727
 C2678 C 0.38540 1.27556 0.36706
 C2679 C 0.39142 1.25583 0.37932
 N2680 N 0.41259 1.24949 0.38031
 N2681 N 0.41812 1.23197 0.39174
 C2682 C 0.40271 1.22014 0.40267
 N2683 N 0.38157 1.22647 0.40166
 N2684 N 0.37605 1.24396 0.39025
 C2685 C 0.40843 1.20045 0.41508
 C2686 C 0.42976 1.19262 0.41569
 H2687 H 0.39813 1.28481 0.35887
 H2688 H 0.39532 1.19136 0.42284
 H2689 H 0.35183 1.27391 0.37644
 H2690 H 0.44237 1.20149 0.40688
 C2691 C 0.37004 0.77675 0.85514
 C2692 C 0.37174 0.77168 0.87695
 C2693 C 0.38442 0.75288 0.88427
 N2694 N 0.38483 0.74793 0.90556
 N2695 N 0.39593 0.73068 0.91238
 C2696 C 0.40709 0.71781 0.89816
 N2697 N 0.40681 0.72286 0.87690
 N2698 N 0.39567 0.74008 0.87007
 C2699 C 0.41874 0.69828 0.90529
 C2700 C 0.41708 0.69076 0.92643
 H2701 H 0.36392 0.78179 0.88913
 H2702 H 0.42747 0.68883 0.89318
 H2703 H 0.37902 0.76703 0.84339
 H2704 H 0.40693 0.69960 0.93792
 C2705 C 1.15245 0.73548 0.85753
 C2706 C 1.13041 0.74051 0.85981
 C2707 C 1.12297 0.75794 0.87455
 N2708 N 1.10130 0.76087 0.87809
 N2709 N 1.09434 0.77613 0.89194
 C2710 C 1.10880 0.78897 0.90284
 N2711 N 1.13048 0.78606 0.89930
 N2712 N 1.13744 0.77077 0.88545
 C2713 C 1.10131 0.80643 0.91753
 C2714 C 1.07920 0.81103 0.92012
 H2715 H 1.11816 0.73031 0.85210
 H2716 H 1.11349 0.81697 0.92491
 H2717 H 1.16439 0.74507 0.86640
 H2718 H 1.06732 0.80100 0.91165
 C2719 C 1.12469 0.21237 0.36461
 C2720 C 1.12624 0.22070 0.38559
 C2721 C 1.11320 0.23977 0.39271
 N2722 N 1.11406 0.24695 0.41347
 N2723 N 1.10243 0.26423 0.41994
 C2724 C 1.08949 0.27501 0.40590
 N2725 N 1.08863 0.26782 0.38516
 N2726 N 1.10022 0.25054 0.37870
 C2727 C 1.07699 0.29457 0.41255
 C2728 C 1.07761 0.30294 0.43357
 H2729 H 1.13672 0.21300 0.39720
 H2730 H 1.06807 0.30306 0.40023
 H2731 H 1.11321 0.22000 0.35386
 H2732 H 1.08742 0.29450 0.44530
 C2733 C 0.64441 0.72577 0.35688
 C2734 C 0.62217 0.73025 0.35871
 C2735 C 0.61443 0.74924 0.37143
 N2736 N 0.59273 0.75335 0.37336
 N2737 N 0.58568 0.77020 0.38530
 C2738 C 0.60006 0.78347 0.39584
 N2739 N 0.62171 0.77932 0.39394
 N2740 N 0.62875 0.76254 0.38199
 C2741 C 0.59270 0.80238 0.40881
 C2742 C 0.57097 0.80899 0.40930
 H2743 H 0.61020 0.71908 0.35191
 H2744 H 0.60501 0.81213 0.41696
 H2745 H 0.65589 0.73693 0.36450
 H2746 H 0.55913 0.79990 0.39983
 C2747 C 0.62751 0.21193 0.85938
 C2748 C 0.63535 0.22718 0.87443
 C2749 C 0.62225 0.24626 0.88165
 N2750 N 0.63081 0.26102 0.89579
 N2751 N 0.61942 0.27852 0.90210
 C2752 C 0.59899 0.28202 0.89450
 N2753 N 0.59041 0.26725 0.88037
 N2754 N 0.60181 0.24973 0.87406
 C2755 C 0.58621 0.30149 0.90128
 C2756 C 0.59427 0.31668 0.91630
 H2757 H 0.65180 0.22582 0.88045
 H2758 H 0.57013 0.30349 0.89456
 H2759 H 0.61125 0.21431 0.85311
 H2760 H 0.61013 0.31352 0.92316
 C2761 C 0.87045 0.71948 1.15126
 C2762 C 0.86910 0.72861 1.13074
 C2763 C 0.88270 0.74767 1.12431
 N2764 N 0.88199 0.75514 1.10377
 N2765 N 0.89400 0.77243 1.09778
 C2766 C 0.90722 0.78295 1.11207
 N2767 N 0.90795 0.77547 1.13262
 N2768 N 0.89596 0.75814 1.13861
 C2769 C 0.91997 0.80265 1.10575
 C2770 C 0.91903 0.81091 1.08485
 H2771 H 0.85834 0.72143 1.11885
 H2772 H 0.92909 0.81133 1.11805
 H2773 H 0.88231 0.72636 1.16233
 H2774 H 0.90917 0.80209 1.07318
 C2775 C 0.85266 0.22323 0.64922
 C2776 C 0.85475 0.22955 0.62774
 C2777 C 0.86645 0.24994 0.62187
 N2778 N 0.86979 0.25506 0.60082
 N2779 N 0.88121 0.27295 0.59542
 C2780 C 0.88982 0.28632 0.61085
 N2781 N 0.88645 0.28121 0.63188
 N2782 N 0.87502 0.26335 0.63728
 C2783 C 0.90232 0.30625 0.60516
 C2784 C 0.90437 0.31320 0.58387
 H2785 H 0.84948 0.21855 0.61499
 H2786 H 0.90886 0.31626 0.61811
 H2787 H 0.85893 0.23413 0.66163
 H2788 H 0.89653 0.30361 0.57132
 C2789 C 0.35260 0.71800 0.63219
 C2790 C 0.37346 0.72734 0.63107
 C2791 C 0.37847 0.74595 0.61657
 N2792 N 0.39940 0.75304 0.61399
 N2793 N 0.40412 0.76979 0.60099
 C2794 C 0.38813 0.78015 0.59002
 N2795 N 0.36719 0.77308 0.59262
 N2796 N 0.36246 0.75627 0.60558
 C2797 C 0.39315 0.79944 0.57637
 C2798 C 0.41456 0.80708 0.57379
 H2799 H 0.38663 0.72039 0.64024
 H2800 H 0.37977 0.80860 0.56971
 H2801 H 0.34014 0.72454 0.62181
 H2802 H 0.42752 0.79787 0.58120
 C2803 C 0.37465 0.21565 1.13961
 C2804 C 0.37234 0.22467 1.11914
 C2805 C 0.38528 0.24396 1.11224
 N2806 N 0.38353 0.25157 1.09182
 N2807 N 0.39493 0.26915 1.08550
 C2808 C 0.40850 0.27981 1.09935
 N2809 N 0.41026 0.27218 1.11976
 N2810 N 0.39889 0.25459 1.12608
 C2811 C 0.42067 0.29971 1.09281
 C2812 C 0.41905 0.30826 1.07206
 H2813 H 0.36121 0.21734 1.10767
 H2814 H 0.43011 0.30821 1.10496
 H2815 H 0.38689 0.22266 1.15018
 H2816 H 0.40882 0.29966 1.06056
 C2817 C 1.13184 1.13873 0.71838
 C2818 C 1.13651 1.11982 0.73004
 C2819 C 1.12252 1.11317 0.74854
 N2820 N 1.12574 1.09372 0.75845
 N2821 N 1.11331 1.08781 0.77528
 C2822 C 1.09721 1.10112 0.78290
 N2823 N 1.09404 1.12058 0.77302
 N2824 N 1.10640 1.12646 0.75617
 C2825 C 1.08379 1.09512 0.80197
 C2826 C 1.08599 1.07485 0.81196
 H2827 H 1.15030 1.10965 0.72582
 H2828 H 1.07283 1.10728 0.80863
 H2829 H 1.11722 1.14748 0.72322
 H2830 H 1.09741 1.06331 0.80486
 C2831 C 1.11901 0.63022 0.21304
 C2832 C 1.12203 0.60980 0.22281
 C2833 C 1.11143 0.60338 0.24325
 N2834 N 1.11462 0.58292 0.25102
 N2835 N 1.10602 0.57693 0.26993
 C2836 C 1.09396 0.59124 0.28185
 N2837 N 1.09071 0.61170 0.27405
 N2838 N 1.09930 0.61769 0.25511
 C2839 C 1.08466 0.58507 0.30297
 C2840 C 1.08735 0.56426 0.31189
 H2841 H 1.13237 0.59756 0.21540
 H2842 H 1.07596 0.59768 0.31178
 H2843 H 1.10638 0.64076 0.21963
 H2844 H 1.09727 0.55241 0.30322
 C2845 C 0.63306 1.14703 0.21885
 C2846 C 0.63596 1.12662 0.22846
 C2847 C 0.62294 1.11956 0.24742
 N2848 N 0.62572 1.09923 0.25564
 N2849 N 0.61439 1.09275 0.27298
 C2850 C 0.59983 1.10636 0.28281
 N2851 N 0.59703 1.12669 0.27457
 N2852 N 0.60834 1.13316 0.25721
 C2853 C 0.58759 1.09962 0.30239
 C2854 C 0.59014 1.07890 0.31148
 H2855 H 0.64784 1.11527 0.22195
 H2856 H 0.57711 1.11161 0.31004
 H2857 H 0.62011 1.15741 0.22504
 H2858 H 0.60132 1.06764 0.30360
 C2859 C 0.64669 0.63995 0.72752
 C2860 C 0.62487 0.63640 0.73321
 C2861 C 0.61857 0.62321 0.75202
 N2862 N 0.59713 0.62031 0.75705
 N2863 N 0.59116 0.60854 0.77416
 C2864 C 0.60639 0.59916 0.78683
 N2865 N 0.62783 0.60192 0.78173
 N2866 N 0.63381 0.61373 0.76462
 C2867 C 0.60002 0.58698 0.80630
 C2868 C 0.57841 0.58639 0.81355
 H2869 H 0.61196 0.64282 0.72334
 H2870 H 0.61280 0.57992 0.81591
 H2871 H 0.65929 0.63234 0.73698
 H2872 H 0.56610 0.59478 0.80435
 C2873 C 0.85519 0.87144 0.72484
 C2874 C 0.87670 0.87211 0.73204
 C2875 C 0.88282 0.88416 0.75175
 N2876 N 0.90395 0.88462 0.75810
 N2877 N 0.90969 0.89531 0.77601
 C2878 C 0.89451 0.90598 0.78822
 N2879 N 0.87339 0.90558 0.78183
 N2880 N 0.86765 0.89488 0.76392
 C2881 C 0.90050 0.91730 0.80838
 C2882 C 0.92169 0.91664 0.81636
 H2883 H 0.88954 0.86414 0.72288
 H2884 H 0.88762 0.92514 0.81762
 H2885 H 0.84292 0.88060 0.73375
 H2886 H 0.93396 0.90760 0.80733
 C2887 C 0.85064 0.35784 0.23193
 C2888 C 0.85983 0.37832 0.23638
 C2889 C 0.87288 0.38232 0.25597
 N2890 N 0.88321 0.40188 0.25884
 N2891 N 0.89587 0.40536 0.27593
 C2892 C 0.89883 0.38936 0.29076
 N2893 N 0.88850 0.36979 0.28789
 N2894 N 0.87583 0.36632 0.27081
 C2895 C 0.91223 0.39328 0.31014
 C2896 C 0.92087 0.41396 0.31481
 H2897 H 0.85936 0.39098 0.22422
 H2898 H 0.91364 0.38027 0.32184
 H2899 H 0.85230 0.34488 0.24366
 H2900 H 0.91812 0.42718 0.30360
 C2901 C 0.38209 0.86673 0.20780
 C2902 C 0.38242 0.88793 0.21640
 C2903 C 0.39326 0.89338 0.23681
 N2904 N 0.39231 0.91416 0.24468
 N2905 N 0.40126 0.91928 0.26357
 C2906 C 0.41150 0.90378 0.27529
 N2907 N 0.41259 0.88302 0.26735
 N2908 N 0.40361 0.87790 0.24846
 C2909 C 0.42081 0.90903 0.29651
 C2910 C 0.41840 0.92967 0.30608
 H2911 H 0.37427 0.90108 0.20817
 H2912 H 0.42868 0.89594 0.30509
 H2913 H 0.39170 0.85414 0.21536
 H2914 H 0.40926 0.94202 0.29763
 C2915 C 0.35930 0.35571 0.72896
 C2916 C 0.35990 0.37733 0.73657
 C2917 C 0.37449 0.38334 0.75470
 N2918 N 0.37980 0.40463 0.75868
 N2919 N 0.39384 0.40991 0.77427
 C2920 C 0.40317 0.39411 0.78645
 N2921 N 0.39769 0.37288 0.78260
 N2922 N 0.38373 0.36761 0.76701
 C2923 C 0.41828 0.39968 0.80420
 C2924 C 0.42432 0.42129 0.80874
 H2925 H 0.35171 0.39023 0.72801
 H2926 H 0.42335 0.38673 0.81486
 H2927 H 0.36920 0.34409 0.73760
 H2928 H 0.41838 0.43409 0.79835
 C2929 C 1.12575 0.86675 1.28253
 C2930 C 1.13161 0.88564 1.27116
 C2931 C 1.11911 0.89195 1.25191
 N2932 N 1.12261 0.91164 1.24238
 N2933 N 1.11125 0.91727 1.22505
 C2934 C 1.09600 0.90340 1.21659
 N2935 N 1.09261 0.88370 1.22605
 N2936 N 1.10390 0.87812 1.24337
 C2937 C 1.08362 0.90903 1.19716
 C2938 C 1.08580 0.92943 1.18737
 H2939 H 1.14498 0.89607 1.27625
 H2940 H 1.07332 0.89645 1.19014
 H2941 H 1.11152 0.85784 1.27679
 H2942 H 1.09669 0.94140 1.19466
 C2943 C 1.14267 0.36960 0.77278
 C2944 C 1.12034 0.37181 0.76928
 C2945 C 1.11200 0.38501 0.75154
 N2946 N 1.09015 0.38666 0.74862
 N2947 N 1.08238 0.39840 0.73243
 C2948 C 1.09620 0.40896 0.71863
 N2949 N 1.11804 0.40740 0.72163
 N2950 N 1.12580 0.39565 0.73780
 C2951 C 1.08804 0.42127 0.70021
 C2952 C 1.06594 0.42164 0.69504
 H2953 H 1.10855 0.36420 0.78005
 H2954 H 1.10005 0.42882 0.68963
 H2955 H 1.15415 0.37849 0.76259
 H2956 H 1.05432 0.41267 0.70500
 C2957 C 0.63748 0.87410 0.77384
 C2958 C 0.61594 0.87374 0.76675
 C2959 C 0.60951 0.88513 0.74700
 N2960 N 0.58831 0.88498 0.74086
 N2961 N 0.58234 0.89515 0.72293
 C2962 C 0.59736 0.90585 0.71051
 N2963 N 0.61855 0.90602 0.71667
 N2964 N 0.62451 0.89587 0.73459
 C2965 C 0.59120 0.91671 0.69041
 C2966 C 0.56986 0.91608 0.68277
 H2967 H 0.60330 0.86548 0.77602
 H2968 H 0.60411 0.92434 0.68098
 H2969 H 0.64949 0.88359 0.76485
 H2970 H 0.55750 0.90721 0.69192
 C2971 C 0.64056 0.37339 1.27432
 C2972 C 0.61980 0.37129 1.26532
 C2973 C 0.61320 0.38506 1.24713
 N2974 N 0.59254 0.38366 1.23955
 N2975 N 0.58648 0.39583 1.22293
 C2976 C 0.60084 0.40987 1.21327
 N2977 N 0.62149 0.41130 1.22087
 N2978 N 0.62754 0.39916 1.23752
 C2979 C 0.59466 0.42263 1.19426
 C2980 C 0.57382 0.42088 1.18555
 H2981 H 0.60782 0.35987 1.27164
 H2982 H 0.60721 0.43228 1.18627
 H2983 H 0.65129 0.38589 1.26760
 H2984 H 0.56189 0.41039 1.19352
 C2985 C 0.87877 1.10824 1.29892
 C2986 C 0.89705 1.11290 1.28594
 C2987 C 0.90068 1.10218 1.26488
 N2988 N 0.91892 1.10715 1.25324
 N2989 N 0.92222 1.09826 1.23381
 C2990 C 0.90739 1.08408 1.22523
 N2991 N 0.88917 1.07902 1.23690
 N2992 N 0.88587 1.08791 1.25637
 C2993 C 0.91062 1.07475 1.20344
 C2994 C 0.92886 1.08041 1.19089
 H2995 H 0.90924 1.12476 1.29084
 H2996 H 0.89800 1.06407 1.19712
 H2997 H 0.86792 1.09521 1.29352
 H2998 H 0.94071 1.09172 1.19772
 C2999 C 0.86990 0.61400 0.79573
 C3000 C 0.89065 0.61303 0.78624
 C3001 C 0.89442 0.60406 0.76449
 N3002 N 0.91478 0.60493 0.75570
 N3003 N 0.91844 0.59778 0.73565
 C3004 C 0.90184 0.58949 0.72363
 N3005 N 0.88149 0.58843 0.73248
 N3006 N 0.87782 0.59564 0.75254
 C3007 C 0.90560 0.58204 0.70130
 C3008 C 0.92575 0.58511 0.69094
 H3009 H 0.90469 0.61949 0.79470
 H3010 H 0.89195 0.57489 0.69275
 H3011 H 0.85630 0.60599 0.78775
 H3012 H 0.93862 0.59371 0.69949
 C3013 C 0.35027 1.14063 0.76820
 C3014 C 0.37206 1.13949 0.76143
 C3015 C 0.37860 1.12544 0.74289
 N3016 N 0.39997 1.12363 0.73714
 N3017 N 0.40594 1.11097 0.72048
 C3018 C 0.39079 1.09958 0.70893
 N3019 N 0.36944 1.10137 0.71470
 N3020 N 0.36347 1.11401 0.73135
 C3021 C 0.39706 1.08605 0.68998
 C3022 C 0.41871 1.08470 0.68284
 H3023 H 0.38463 1.14832 0.77013
 H3024 H 0.38420 1.07820 0.68080
 H3025 H 0.33839 1.13080 0.75950
 H3026 H 0.43108 1.09350 0.69190
 C3027 C 0.35014 0.63079 1.27798
 C3028 C 0.37045 0.63408 1.26794
 C3029 C 0.37757 0.61983 1.24980
 N3030 N 0.39818 0.62157 1.24168
 N3031 N 0.40462 0.60891 1.22521
 C3032 C 0.39070 0.59403 1.21618
 N3033 N 0.37010 0.59232 1.22427
 N3034 N 0.36369 0.60492 1.24078
 C3035 C 0.39736 0.58057 1.19734
 C3036 C 0.41857 0.58169 1.18896
 H3037 H 0.38152 0.64684 1.27332
 H3038 H 0.38503 0.57074 1.18933
 H3039 H 0.34046 0.61705 1.27212
 H3040 H 0.43030 0.59208 1.19722
 C3041 C 1.13230 1.28261 0.85360
 C3042 C 1.13634 1.27057 0.87221
 C3043 C 1.12189 1.25212 0.87854
 N3044 N 1.12340 1.24333 0.89849
 N3045 N 1.11043 1.22670 0.90435
 C3046 C 1.09548 1.21813 0.89048
 N3047 N 1.09407 1.22682 0.87046
 N3048 N 1.10697 1.24354 0.86464
 C3049 C 1.08163 1.19917 0.89665
 C3050 C 1.08146 1.19144 0.91775
 H3051 H 1.14962 1.27488 0.88282
 H3052 H 1.07255 1.19066 0.88422
 H3053 H 1.11781 1.27808 0.84463
 H3054 H 1.09088 1.20047 0.92963
 C3055 C 1.12523 0.78004 0.36093
 C3056 C 1.13109 0.76828 0.37921
 C3057 C 1.11929 0.74819 0.38542
 N3058 N 1.12368 0.73844 0.40445
 N3059 N 1.11318 0.72015 0.41020
 C3060 C 1.09795 0.71092 0.39709
 N3061 N 1.09362 0.72062 0.37803
 N3062 N 1.10407 0.73894 0.37231
 C3063 C 1.08656 0.69053 0.40303
 C3064 C 1.08984 0.68068 0.42294
 H3065 H 1.14405 0.77378 0.38965
 H3066 H 1.07603 0.68305 0.39113
 H3067 H 1.11117 0.77413 0.35203
 H3068 H 1.10097 0.68853 0.43414
 C3069 C 0.63106 1.28389 0.35413
 C3070 C 0.63466 1.27407 0.37407
 C3071 C 0.62247 1.25431 0.38101
 N3072 N 0.62605 1.24566 0.40076
 N3073 N 0.61540 1.22763 0.40711
 C3074 C 0.60077 1.21753 0.39393
 N3075 N 0.59717 1.22620 0.37420
 N3076 N 0.60780 1.24424 0.36785
 C3077 C 0.58916 1.19730 0.40049
 C3078 C 0.59252 1.18750 0.42049
 H3079 H 0.64647 1.28097 0.38510
 H3080 H 0.57838 1.18973 0.38885
 H3081 H 0.61822 1.27721 0.34406
 H3082 H 0.60413 1.19512 0.43135
 C3083 C 0.62585 0.78834 0.85792
 C3084 C 0.62762 0.77987 0.87868
 C3085 C 0.61496 0.76037 0.88554
 N3086 N 0.61654 0.75297 0.90606
 N3087 N 0.60538 0.73523 0.91237
 C3088 C 0.59221 0.72420 0.89841
 N3089 N 0.59060 0.73163 0.87791
 N3090 N 0.60174 0.74937 0.87160
 C3091 C 0.58030 0.70414 0.90494
 C3092 C 0.58221 0.69544 0.92560
 H3093 H 0.63809 0.78776 0.89039
 H3094 H 0.57085 0.69558 0.89282
 H3095 H 0.61433 0.78062 0.84702
 H3096 H 0.59257 0.70398 0.93704
 C3097 C 0.87261 1.28434 1.14133
 C3098 C 0.87170 1.27596 1.12029
 C3099 C 0.88529 1.25740 1.11329
 N3100 N 0.88449 1.25025 1.09255
 N3101 N 0.89620 1.23306 1.08611
 C3102 C 0.90917 1.22239 1.10017
 N3103 N 0.91007 1.22960 1.12089
 N3104 N 0.89837 1.24681 1.12733
 C3105 C 0.92125 1.20267 1.09355
 C3106 C 0.91966 1.19407 1.07272
 H3107 H 0.86113 1.28291 1.10836
 H3108 H 0.93016 1.19405 1.10580
 H3109 H 0.88450 1.27725 1.15201
 H3110 H 0.90984 1.20266 1.06110
 C3111 C 0.86954 0.78495 0.64087
 C3112 C 0.86856 0.77598 0.62010
 C3113 C 0.88221 0.75709 0.61360
 N3114 N 0.88190 0.74956 0.59294
 N3115 N 0.89406 0.73248 0.58694
 C3116 C 0.90702 0.72224 0.60137
 N3117 N 0.90732 0.72978 0.62202
 N3118 N 0.89519 0.74688 0.62800
 C3119 C 0.92005 0.70284 0.59514
 C3120 C 0.91985 0.69431 0.57417
 H3121 H 0.85810 0.78313 0.60814
 H3122 H 0.92895 0.69459 0.60764
 H3123 H 0.88104 0.77796 0.65202
 H3124 H 0.91013 0.70261 0.56226
 C3125 C 0.36547 1.27381 0.64576
 C3126 C 0.36584 1.26623 0.62444
 C3127 C 0.38054 1.24840 0.61766
 N3128 N 0.38335 1.24372 0.59639
 N3129 N 0.39689 1.22789 0.59006
 C3130 C 0.40819 1.21617 0.60474
 N3131 N 0.40534 1.22080 0.62601
 N3132 N 0.39184 1.23667 0.63234
 C3133 C 0.42237 1.19793 0.59794
 C3134 C 0.42524 1.19264 0.57621
 H3135 H 0.35660 1.27423 0.61205
 H3136 H 0.42900 1.18747 0.61025
 H3137 H 0.37615 1.26570 0.65699
 H3138 H 0.41782 1.20300 0.56424
 C3139 C 0.36333 0.79147 1.11536
 C3140 C 0.38270 0.77969 1.11733
 C3141 C 0.38712 0.75952 1.10495
 N3142 N 0.40695 0.75001 1.10656
 N3143 N 0.41120 0.73132 1.09621
 C3144 C 0.39579 0.72133 1.08387
 N3145 N 0.37593 0.73088 1.08217
 N3146 N 0.37167 0.74966 1.09251
 C3147 C 0.40022 0.70005 1.07332
 C3148 C 0.42038 0.68990 1.07582
 H3149 H 0.39556 0.78528 1.12786
 H3150 H 0.38714 0.69189 1.06474
 H3151 H 0.35198 0.78610 1.10306
 H3152 H 0.43278 0.69844 1.08507
 C3153 C 0.89638 0.70201 0.87497
 C3154 C 0.89731 0.71013 0.89603
 C3155 C 0.90769 0.73125 0.90115
 N3156 N 0.90636 0.73940 0.92153
 N3157 N 0.91432 0.75924 0.92615
 C3158 C 0.92389 0.77165 0.91053
 N3159 N 0.92548 0.76340 0.89020
 N3160 N 0.91748 0.74356 0.88557
 C3161 C 0.93165 0.79401 0.91508
 C3162 C 0.92789 0.80416 0.93500
 H3163 H 0.88936 0.70137 0.90909
 H3164 H 0.93914 0.80298 0.90192
 H3165 H 0.90583 0.71007 0.86240
 H3166 H 0.91903 0.79521 0.94740
 C3167 C 0.89394 0.19904 0.37757
 C3168 C 0.89237 0.20801 0.39832
 C3169 C 0.90027 0.23021 0.40344
 N3170 N 0.89701 0.23867 0.42352
 N3171 N 0.90314 0.25916 0.42815
 C3172 C 0.91270 0.27194 0.41282
 N3173 N 0.91607 0.26344 0.39279
 N3174 N 0.90992 0.24297 0.38815
 C3175 C 0.91948 0.29459 0.41749
 C3176 C 0.91551 0.30481 0.43737
 H3177 H 0.88446 0.19893 0.41118
 H3178 H 0.92742 0.30353 0.40455
 H3179 H 0.90343 0.20764 0.36538
 H3180 H 0.90591 0.29628 0.44952
 C3181 C 0.34743 0.72360 0.35729
 C3182 C 0.36868 0.73203 0.35568
 C3183 C 0.37547 0.75069 0.36954
 N3184 N 0.39674 0.75704 0.37036
 N3185 N 0.40289 0.77357 0.38321
 C3186 C 0.38802 0.78436 0.39575
 N3187 N 0.36677 0.77806 0.39485
 N3188 N 0.36064 0.76154 0.38205
 C3189 C 0.39441 0.80312 0.40954
 C3190 C 0.41600 0.81041 0.41053
 H3191 H 0.38079 0.72445 0.34530
 H3192 H 0.38165 0.81214 0.41784
 H3193 H 0.33664 0.73166 0.36879
 H3194 H 0.42829 0.80151 0.40141
 C3195 C 0.35343 0.23035 0.85235
 C3196 C 0.37510 0.23768 0.85111
 C3197 C 0.38263 0.25560 0.86559
 N3198 N 0.40422 0.26055 0.86727
 N3199 N 0.41094 0.27631 0.88078
 C3200 C 0.39635 0.28769 0.89313
 N3201 N 0.37481 0.28282 0.89133
 N3202 N 0.36811 0.26708 0.87789
 C3203 C 0.40333 0.30556 0.90776
 C3204 C 0.42524 0.31140 0.91005
 H3205 H 0.38690 0.22969 0.84067
 H3206 H 0.39079 0.31513 0.91578
 H3207 H 0.34302 0.23865 0.86402
 H3208 H 0.43739 0.30206 0.90117
 C3209 C 1.13540 0.71006 1.12513
 C3210 C 1.11653 0.72247 1.12861
 C3211 C 1.11172 0.74216 1.11583
 N3212 N 1.09246 0.75260 1.11888
 N3213 N 1.08786 0.77055 1.10775
 C3214 C 1.10236 0.77883 1.09311
 N3215 N 1.12166 0.76840 1.09002
 N3216 N 1.12625 0.75039 1.10115
 C3217 C 1.09755 0.79913 1.08119
 C3218 C 1.07768 0.80990 1.08417
 H3219 H 1.10451 0.71781 1.14064
 H3220 H 1.11014 0.80598 1.07081
 H3221 H 1.14622 0.71524 1.11214
 H3222 H 1.06578 0.80258 1.09506
 C3223 C 1.14184 0.22734 0.63932
 C3224 C 1.11964 0.23224 0.63880
 C3225 C 1.11152 0.25165 0.62769
 N3226 N 1.08975 0.25560 0.62723
 N3227 N 1.08217 0.27310 0.61709
 C3228 C 1.09611 0.28724 0.60702
 N3229 N 1.11786 0.28328 0.60748
 N3230 N 1.12544 0.26581 0.61763
 C3231 C 1.08817 0.30660 0.59576
 C3232 C 1.06615 0.31228 0.59561
 H3233 H 1.10769 0.22132 0.64606
 H3234 H 1.10026 0.31706 0.58805
 H3235 H 1.15333 0.23785 0.63077
 H3236 H 1.05445 0.30265 0.60483
 C3237 C 0.62746 0.72301 0.64297
 C3238 C 0.62737 0.73020 0.62165
 C3239 C 0.61279 0.74790 0.61470
 N3240 N 0.61200 0.75346 0.59358
 N3241 N 0.59913 0.76962 0.58715
 C3242 C 0.58653 0.78085 0.60159
 N3243 N 0.58730 0.77526 0.62271
 N3244 N 0.60014 0.75907 0.62914
 C3245 C 0.57306 0.79949 0.59481
 C3246 C 0.57255 0.80610 0.57332
 H3247 H 0.63771 0.72244 0.60962
 H3248 H 0.56478 0.80901 0.60717
 H3249 H 0.61595 0.73026 0.65429
 H3250 H 0.58165 0.79663 0.56146
 C3251 C 0.64688 0.22822 1.13131
 C3252 C 0.62557 0.23626 1.13133
 C3253 C 0.61926 0.25397 1.11671
 N3254 N 0.59796 0.25958 1.11508
 N3255 N 0.59206 0.27562 1.10196
 C3256 C 0.60721 0.28666 1.08996
 N3257 N 0.62851 0.28106 1.09159
 N3258 N 0.63441 0.26497 1.10467
 C3259 C 0.60098 0.30521 1.07635
 C3260 C 0.57926 0.31157 1.07481
 H3261 H 0.61288 0.22908 1.14133
 H3262 H 0.61386 0.31498 1.06900
 H3263 H 0.65835 0.23544 1.11989
 H3264 H 0.56682 0.30182 1.08291
 C3265 C 1.26113 1.15525 0.84868
 C3266 C 1.25650 1.13311 0.85181
 C3267 C 1.23915 1.12581 0.86672
 N3268 N 1.23683 1.10420 0.87120
 N3269 N 1.22173 1.09740 0.88531
 C3270 C 1.20845 1.11198 0.89553
 N3271 N 1.21073 1.13360 0.89102
 N3272 N 1.22586 1.14041 0.87692
 C3273 C 1.19125 1.10459 0.91058
 C3274 C 1.18755 1.08239 0.91442
 H3275 H 1.26706 1.12077 0.84477
 H3276 H 1.18028 1.11673 0.91733
 H3277 H 1.25119 1.16739 0.85691
 H3278 H 1.19802 1.07043 0.90659
 C3279 C 1.25997 0.64269 0.35597
 C3280 C 1.25662 0.62029 0.35896
 C3281 C 1.23972 0.61194 0.37376
 N3282 N 1.23792 0.59009 0.37730
 N3283 N 1.22309 0.58233 0.39120
 C3284 C 1.20963 0.59617 0.40216
 N3285 N 1.21145 0.61802 0.39865
 N3286 N 1.22626 0.62578 0.38474
 C3287 C 1.19267 0.58786 0.41692
 C3288 C 1.18854 0.56550 0.41915
 H3289 H 1.26771 0.60857 0.35170
 H3290 H 1.18200 0.59969 0.42464
 H3291 H 1.24943 0.65421 0.36434
 H3292 H 1.19847 0.55390 0.41017
 C3293 C 0.80179 1.12071 0.39063
 C3294 C 0.79181 1.10013 0.38933
 C3295 C 0.77087 1.09558 0.40025
 N3296 N 0.76141 1.07549 0.39837
 N3297 N 0.74204 1.07141 0.40753
 C3298 C 0.73141 1.08727 0.41890
 N3299 N 0.74094 1.10731 0.42092
 N3300 N 0.76032 1.11139 0.41176
 C3301 C 0.70954 1.08333 0.42814
 C3302 C 0.69848 1.06357 0.42473
 H3303 H 0.79928 1.08703 0.38009
 H3304 H 0.70162 1.09680 0.43643
 H3305 H 0.79456 1.13304 0.40109
 H3306 H 0.70652 1.05082 0.41541
 C3307 C 0.79753 0.63276 0.89137
 C3308 C 0.78737 0.61225 0.89166
 C3309 C 0.76677 0.60834 0.90343
 N3310 N 0.75768 0.58801 0.90330
 N3311 N 0.73857 0.58432 0.91309
 C3312 C 0.72781 0.60080 0.92341
 N3313 N 0.73700 0.62112 0.92372
 N3314 N 0.75615 0.62482 0.91391
 C3315 C 0.70601 0.59709 0.93300
 C3316 C 0.69535 0.57698 0.93048
 H3317 H 0.79460 0.59857 0.88306
 H3318 H 0.69770 0.61082 0.94047
 H3319 H 0.79091 0.64582 0.90135
 H3320 H 0.70379 0.56390 0.92199
 C3321 C 1.28883 0.88434 1.13437
 C3322 C 1.28089 0.88546 1.11342
 C3323 C 1.26118 0.89781 1.10814
 N3324 N 1.25404 0.89794 1.08752
 N3325 N 1.23580 0.90838 1.08250
 C3326 C 1.22402 0.91912 1.09791
 N3327 N 1.23127 0.91917 1.11853
 N3328 N 1.24953 0.90870 1.12355
 C3329 C 1.20320 0.92962 1.09269
 C3330 C 1.19401 0.92713 1.07234
 H3331 H 1.28931 0.87713 1.10033
 H3332 H 1.19431 0.93786 1.10553
 H3333 H 1.28108 0.89402 1.14698
 H3334 H 1.20274 0.91767 1.06020
 C3335 C 1.28473 0.36227 0.63311
 C3336 C 1.26760 0.37492 0.64142
 C3337 C 1.24871 0.38128 0.62805
 N3338 N 1.23227 0.39326 0.63691
 N3339 N 1.21495 0.39868 0.62526
 C3340 C 1.21327 0.39229 0.60426
 N3341 N 1.22970 0.38028 0.59539
 N3342 N 1.24706 0.37488 0.60704
 C3343 C 1.19409 0.39837 0.59113
 C3344 C 1.17776 0.41204 0.59941
 H3345 H 1.26733 0.37936 0.65835
 H3346 H 1.19335 0.39267 0.57457
 H3347 H 1.28409 0.35750 0.61625
 H3348 H 1.17965 0.41814 0.61576
 C3349 C 0.77263 0.86097 0.64031
 C3350 C 0.76666 0.86131 0.61866
 C3351 C 0.74684 0.87304 0.61190
 N3352 N 0.74143 0.87404 0.59075
 N3353 N 0.72390 0.88516 0.58461
 C3354 C 0.71117 0.89579 0.59939
 N3355 N 0.71659 0.89479 0.62051
 N3356 N 0.73406 0.88366 0.62663
 C3357 C 0.69162 0.90808 0.59304
 C3358 C 0.68410 0.90807 0.57188
 H3359 H 0.77720 0.85416 0.60642
 H3360 H 0.68237 0.91632 0.60562
 H3361 H 0.76200 0.86895 0.65199
 H3362 H 0.69288 0.89855 0.55982
 C3363 C 0.78108 0.36161 1.13231
 C3364 C 0.77054 0.38165 1.13509
 C3365 C 0.75198 0.38791 1.12137
 N3366 N 0.74338 0.40828 1.12308
 N3367 N 0.72664 0.41408 1.11082
 C3368 C 0.71780 0.39975 1.09636
 N3369 N 0.72639 0.37936 1.09468
 N3370 N 0.74316 0.37357 1.10690
 C3371 C 0.69880 0.40580 1.08314
 C3372 C 0.68975 0.42672 1.08440
 H3373 H 0.77629 0.39333 1.14701
 H3374 H 0.69131 0.39325 1.07318
 H3375 H 0.77556 0.35090 1.11940
 H3376 H 0.69746 0.43863 1.09499
 C3377 C 0.73363 1.14986 1.14784
 C3378 C 0.73722 1.12785 1.14304
 C3379 C 0.75576 1.12109 1.12921
 N3380 N 0.75809 1.09973 1.12344
 N3381 N 0.77420 1.09365 1.11011
 C3382 C 0.78849 1.10870 1.10192
 N3383 N 0.78616 1.13004 1.10769
 N3384 N 0.77008 1.13612 1.12103
 C3385 C 0.80674 1.10215 1.08765
 C3386 C 0.81144 1.08018 1.08375
 H3387 H 0.72511 1.11564 1.14761
 H3388 H 0.81775 1.11477 1.08167
 H3389 H 0.74546 1.16194 1.14228
 H3390 H 0.80108 1.06771 1.09105
 C3391 C 0.72929 0.65443 0.64205
 C3392 C 0.73331 0.65017 0.62026
 C3393 C 0.75267 0.63753 0.61338
 N3394 N 0.75604 0.63250 0.59224
 N3395 N 0.77295 0.62016 0.58616
 C3396 C 0.78700 0.61227 0.60102
 N3397 N 0.78362 0.61732 0.62211
 N3398 N 0.76679 0.62968 0.62817
 C3399 C 0.80580 0.59865 0.59474
 C3400 C 0.81178 0.59515 0.57325
 H3401 H 0.72124 0.65436 0.60836
 H3402 H 0.81594 0.59237 0.60747
 H3403 H 0.74130 0.64936 0.65369
 H3404 H 0.80241 0.60290 0.56072
 C3405 C 0.22905 1.14551 0.64374
 C3406 C 0.23316 1.12407 0.63705
 C3407 C 0.25225 1.11884 0.62318
 N3408 N 0.25498 1.09819 0.61538
 N3409 N 0.27174 1.09351 0.60225
 C3410 C 0.28636 1.10933 0.59629
 N3411 N 0.28362 1.12997 0.60408
 N3412 N 0.26688 1.13464 0.61721
 C3413 C 0.30545 1.10420 0.58241
 C3414 C 0.31006 1.08275 0.57608
 H3415 H 0.22125 1.11128 0.64044
 H3416 H 0.31706 1.11719 0.57874
 H3417 H 0.24063 1.15826 0.63922
 H3418 H 0.29889 1.06978 0.58097
 C3419 C 0.21300 0.61936 1.13878
 C3420 C 0.22124 0.61869 1.11775
 C3421 C 0.24078 0.60597 1.11201
 N3422 N 0.24758 0.60481 1.09115
 N3423 N 0.26543 0.59363 1.08574
 C3424 C 0.27715 0.58316 1.10099
 N3425 N 0.27031 0.58425 1.12186
 N3426 N 0.25243 0.59542 1.12726
 C3427 C 0.29751 0.57173 1.09533
 C3428 C 0.30565 0.57164 1.07424
 H3429 H 0.21292 0.62714 1.10497
 H3430 H 0.30694 0.56482 1.10825
 H3431 H 0.22077 0.60957 1.15099
 H3432 H 0.29625 0.57953 1.06183
 C3433 C 0.72041 0.86848 0.85839
 C3434 C 0.72697 0.86746 0.87985
 C3435 C 0.74687 0.87909 0.88708
 N3436 N 0.75260 0.87891 0.90818
 N3437 N 0.77032 0.88979 0.91481
 C3438 C 0.78294 0.90129 0.90059
 N3439 N 0.77721 0.90144 0.87953
 N3440 N 0.75953 0.89058 0.87292
 C3441 C 0.80270 0.91328 0.90747
 C3442 C 0.81017 0.91270 0.92862
 H3443 H 0.71696 0.85904 0.89172
 H3444 H 0.81206 0.92187 0.89521
 H3445 H 0.73045 0.87783 0.84719
 H3446 H 0.80124 0.90289 0.94031
 C3447 C 0.72826 0.36023 0.35128
 C3448 C 0.73293 0.36261 0.37312
 C3449 C 0.75188 0.37569 0.38031
 N3450 N 0.75476 0.37988 0.40162
 N3451 N 0.77136 0.39244 0.40820
 C3452 C 0.78564 0.40137 0.39372
 N3453 N 0.78280 0.39713 0.37242
 N3454 N 0.76621 0.38458 0.36585
 C3455 C 0.80434 0.41486 0.40076
 C3456 C 0.80865 0.41838 0.42254
 H3457 H 0.72151 0.35650 0.38516
 H3458 H 0.81572 0.42077 0.38859
 H3459 H 0.73929 0.36754 0.33953
 H3460 H 0.79767 0.41130 0.43448
 C3461 C 0.21513 0.86108 0.36431
 C3462 C 0.22310 0.88256 0.36471
 C3463 C 0.24285 0.88842 0.37709
 N3464 N 0.24967 0.90961 0.37845
 N3465 N 0.26728 0.91502 0.38988
 C3466 C 0.27872 0.89945 0.40044
 N3467 N 0.27189 0.87829 0.39908
 N3468 N 0.25430 0.87289 0.38766
 C3469 C 0.29851 0.90506 0.41279
 C3470 C 0.30677 0.92642 0.41373
 H3471 H 0.21428 0.89547 0.35679
 H3472 H 0.30732 0.89183 0.42022
 H3473 H 0.22389 0.84879 0.37324
 H3474 H 0.29815 0.93913 0.40526
 C3475 C 0.23092 0.35640 0.85081
 C3476 C 0.23569 0.36037 0.87243
 C3477 C 0.25500 0.37360 0.87859
 N3478 N 0.25860 0.37862 0.89963
 N3479 N 0.27553 0.39126 0.90521
 C3480 C 0.28944 0.39949 0.88998
 N3481 N 0.28584 0.39447 0.86896
 N3482 N 0.26893 0.38182 0.86338
 C3483 C 0.30857 0.41303 0.89594
 C3484 C 0.31419 0.41651 0.91742
 H3485 H 0.22418 0.35537 0.88488
 H3486 H 0.31930 0.41891 0.88319
 H3487 H 0.24220 0.36245 0.83859
 H3488 H 0.30393 0.40937 0.92993
   
