data_POSCAR
  _audit_creation_date              2014-09-24
  _audit_creation_method            'ToBaCCo'
  _symmetry_space_group_name_H-M    'P1'
  _symmetry_Int_Tables_number       1
  _symmetry_cell_setting            triclinic
  loop_
  _symmetry_equiv_pos_as_xyz
 x,y,z
_cell_length_a 64.0729
_cell_length_b 64.0290
_cell_length_c 64.0849
_cell_angle_alpha 89.892700
_cell_angle_beta 89.968200
_cell_angle_gamma 89.973200
loop_
  _atom_site_label
  _atom_site_type_symbol
  _atom_site_fract_x
  _atom_site_fract_y
  _atom_site_fract_z
C1 C 0.11358 -0.00403 0.23101
 C2 C 0.12995 0.01308 0.23333
 C3 C 0.14023 0.01300 0.25181
 C4 C 0.13336 -0.00462 0.26665
 C5 C 0.12521 -0.02446 0.23544
 C6 C 0.13564 -0.02479 0.25389
 C7 C 0.09926 -0.00148 0.25016
 C8 C 0.10950 -0.00202 0.26890
 H9 H 0.13213 0.02522 0.22172
 H10 H 0.14216 -0.00510 0.28155
 H11 H 0.12429 -0.03799 0.22534
 H12 H 0.08246 -0.00073 0.24913
 C13 C 0.38126 -0.00577 0.72160
 C14 C 0.36486 -0.02287 0.72454
 C15 C 0.35481 -0.02222 0.74323
 C16 C 0.36215 -0.00423 0.75745
 C17 C 0.36960 0.01466 0.72545
 C18 C 0.35971 0.01569 0.74418
 C19 C 0.39506 -0.00822 0.73952
 C20 C 0.38481 -0.00696 0.75947
 H21 H 0.36275 -0.03553 0.71354
 H22 H 0.35313 -0.00320 0.77211
 H23 H 0.37002 0.02765 0.71458
 H24 H 0.41088 -0.01383 0.73807
 C25 C 0.88302 0.49931 0.23172
 C26 C 0.86748 0.48139 0.23404
 C27 C 0.85437 0.48315 0.25056
 C28 C 0.85787 0.50298 0.26364
 C29 C 0.86964 0.51908 0.23141
 C30 C 0.85638 0.52111 0.24787
 C31 C 0.89426 0.50020 0.25295
 C32 C 0.88117 0.50227 0.26971
 H33 H 0.86749 0.46787 0.22387
 H34 H 0.84685 0.50450 0.27690
 H35 H 0.87150 0.53107 0.21961
 H36 H 0.91092 0.49892 0.25486
 C37 C 0.61432 0.49199 0.73057
 C38 C 0.63162 0.50819 0.73280
 C39 C 0.64161 0.50785 0.75143
 C40 C 0.63364 0.49090 0.76647
 C41 C 0.62474 0.47103 0.73545
 C42 C 0.63490 0.47040 0.75405
 C43 C 0.59996 0.49563 0.74953
 C44 C 0.60997 0.49492 0.76836
 H45 H 0.63462 0.52008 0.72111
 H46 H 0.64214 0.49028 0.78155
 H47 H 0.62335 0.45748 0.72544
 H48 H 0.58322 0.49716 0.74840
 C49 C 0.23547 0.12028 0.99757
 C50 C 0.23606 0.13350 1.01730
 C51 C 0.25369 0.14494 1.01970
 C52 C 0.26957 0.14218 1.00192
 C53 C 0.23960 0.13567 0.97972
 C54 C 0.25719 0.14736 0.98202
 C55 C 0.25548 0.10704 0.99838
 C56 C 0.27342 0.11842 1.00054
 H57 H 0.22358 0.13343 1.02873
 H58 H 0.28380 0.15187 1.00376
 H59 H 0.23005 0.13637 0.96580
 H60 H 0.25553 0.09028 0.99653
 C61 C 0.72667 0.38978 0.99619
 C62 C 0.72804 0.37610 0.97823
 C63 C 0.74477 0.36125 0.97893
 C64 C 0.75724 0.36306 0.99815
 C65 C 0.72574 0.37600 1.01415
 C66 C 0.74267 0.36145 1.01589
 C67 C 0.74726 0.39957 0.99727
 C68 C 0.76437 0.38495 0.99847
 H69 H 0.71686 0.37683 0.96559
 H70 H 0.77013 0.35174 0.99904
 H71 H 0.71280 0.37650 1.02501
 H72 H 0.75003 0.41571 0.99330
 C73 C 0.23082 0.88790 0.49388
 C74 C 0.23133 0.86902 0.47936
 C75 C 0.24812 0.85637 0.48193
 C76 C 0.26326 0.86368 0.49905
 C77 C 0.23285 0.87878 0.51586
 C78 C 0.24971 0.86620 0.51872
 C79 C 0.25190 0.89886 0.49011
 C80 C 0.26892 0.88631 0.49309
 H81 H 0.22000 0.86667 0.46703
 H82 H 0.27686 0.85319 0.50136
 H83 H 0.22193 0.88239 0.52825
 H84 H 0.25355 0.91506 0.48581
 C85 C 0.73154 0.62125 0.49862
 C86 C 0.73256 0.63370 0.51884
 C87 C 0.75059 0.64438 0.52173
 C88 C 0.76636 0.64178 0.50379
 C89 C 0.73620 0.63717 0.48133
 C90 C 0.75422 0.64794 0.48403
 C91 C 0.75115 0.60729 0.49896
 C92 C 0.76948 0.61796 0.50164
 H93 H 0.72019 0.63338 0.53040
 H94 H 0.78085 0.65102 0.50579
 H95 H 0.72717 0.63835 0.46709
 H96 H 0.75057 0.59058 0.49671
 C97 C -0.00268 0.22901 0.11779
 C98 C 0.01320 0.22963 0.13548
 C99 C 0.01204 0.24676 0.14783
 C100 C -0.00542 0.26205 0.14151
 C101 C -0.02392 0.23172 0.12838
 C102 C -0.02548 0.24887 0.14074
 C103 C 0.00050 0.24981 0.10601
 C104 C -0.00118 0.26720 0.11835
 H105 H 0.02567 0.21826 0.13689
 H106 H -0.00680 0.27580 0.15192
 H107 H -0.03705 0.22154 0.12526
 H108 H 0.00269 0.25090 0.08936
 C109 C 0.00676 0.73038 0.38999
 C110 C -0.01137 0.73235 0.37680
 C111 C -0.01255 0.75128 0.36503
 C112 C 0.00518 0.76518 0.36889
 C113 C 0.02549 0.73385 0.37557
 C114 C 0.02467 0.75182 0.36422
 C115 C 0.00667 0.74998 0.40380
 C116 C 0.00599 0.76832 0.39282
 H117 H -0.02404 0.72118 0.37760
 H118 H 0.00505 0.77985 0.35970
 H119 H 0.03891 0.72355 0.37538
 H120 H 0.00816 0.74949 0.42058
 C121 C 0.50452 0.23190 0.89221
 C122 C 0.48785 0.23435 0.87538
 C123 C 0.48949 0.25201 0.86378
 C124 C 0.50797 0.26602 0.87002
 C125 C 0.52531 0.23398 0.88062
 C126 C 0.52726 0.25171 0.86903
 C127 C 0.50303 0.25215 0.90507
 C128 C 0.50509 0.27003 0.89357
 H129 H 0.47506 0.22343 0.87358
 H130 H 0.50951 0.28034 0.86037
 H131 H 0.53759 0.22241 0.88183
 H132 H 0.50125 0.25257 0.92178
 C133 C 0.50468 0.73867 0.61634
 C134 C 0.52030 0.73964 0.63425
 C135 C 0.51800 0.75633 0.64706
 C136 C 0.49984 0.77088 0.64094
 C137 C 0.48324 0.73987 0.62678
 C138 C 0.48057 0.75659 0.63957
 C139 C 0.50693 0.75991 0.60527
 C140 C 0.50413 0.77679 0.61801
 H141 H 0.53324 0.72882 0.63567
 H142 H 0.49768 0.78437 0.65157
 H143 H 0.47085 0.72885 0.62349
 H144 H 0.50986 0.76178 0.58882
 C145 C 0.88441 0.99338 0.77067
 C146 C 0.86890 1.00983 0.77123
 C147 C 0.85489 1.01043 0.75382
 C148 C 0.85808 0.99273 0.73961
 C149 C 0.87138 0.97339 0.76959
 C150 C 0.85773 0.97284 0.75334
 C151 C 0.89475 0.99508 0.74917
 C152 C 0.88113 0.99466 0.73279
 H153 H 0.86688 1.01962 0.78482
 H154 H 0.84714 0.99191 0.72629
 H155 H 0.87225 0.96082 0.78085
 H156 H 0.91153 0.99580 0.74721
 C157 C 0.38283 0.49694 0.26892
 C158 C 0.36839 0.51597 0.26857
 C159 C 0.35424 0.51617 0.25276
 C160 C 0.35603 0.49720 0.23814
 C161 C 0.36818 0.47815 0.26866
 C162 C 0.35417 0.47814 0.25277
 C163 C 0.39295 0.49702 0.24717
 C164 C 0.37905 0.49738 0.23100
 H165 H 0.36994 0.52872 0.27956
 H166 H 0.34442 0.49733 0.22531
 H167 H 0.36929 0.46552 0.27990
 H168 H 0.40956 0.49700 0.24452
 C169 C 0.61010 0.99515 0.25871
 C170 C 0.62900 0.98043 0.25788
 C171 C 0.64230 0.98420 0.24177
 C172 C 0.63560 1.00275 0.22791
 C173 C 0.61866 1.01597 0.25873
 C174 C 0.63257 1.02051 0.24196
 C175 C 0.60005 0.99261 0.23705
 C176 C 0.61333 0.99672 0.22081
 H177 H 0.62988 0.96615 0.26696
 H178 H 0.64654 1.00564 0.21480
 H179 H 0.61556 1.02686 0.27128
 H180 H 0.58401 0.98788 0.23478
 C181 C 0.11152 0.49839 0.76796
 C182 C 0.12182 0.47693 0.76578
 C183 C 0.13479 0.47505 0.74907
 C184 C 0.13637 0.49504 0.73579
 C185 C 0.12958 0.51391 0.76792
 C186 C 0.14254 0.51231 0.75126
 C187 C 0.10063 0.50172 0.74681
 C188 C 0.11351 0.49970 0.72995
 H189 H 0.11863 0.46412 0.77638
 H190 H 0.14708 0.49357 0.72225
 H191 H 0.13126 0.52603 0.77958
 H192 H 0.08406 0.50399 0.74497
 C193 C 0.77460 0.88730 0.00033
 C194 C 0.77094 0.87717 0.02165
 C195 C 0.75297 0.86602 0.02316
 C196 C 0.73993 0.86599 0.00304
 C197 C 0.77287 0.86948 -0.01533
 C198 C 0.75489 0.85837 -0.01415
 C199 C 0.75476 0.90045 -0.00326
 C200 C 0.73653 0.88942 -0.00158
 H201 H 0.78134 0.87943 0.03479
 H202 H 0.72546 0.85658 0.00443
 H203 H 0.78432 0.86699 -0.02754
 H204 H 0.75488 0.91707 -0.00598
 C205 C 0.27099 0.38836 0.49804
 C206 C 0.27108 0.37510 0.51787
 C207 C 0.25458 0.36194 0.51989
 C208 C 0.23878 0.36363 0.50191
 C209 C 0.26847 0.37275 0.48022
 C210 C 0.25186 0.35979 0.48217
 C211 C 0.24994 0.39993 0.49878
 C212 C 0.23298 0.38707 0.50092
 H213 H 0.28325 0.37633 0.52953
 H214 H 0.22546 0.35271 0.50360
 H215 H 0.27873 0.37242 0.46677
 H216 H 0.24835 0.41658 0.49673
 C217 C 0.26373 0.62002 -0.00042
 C218 C 0.25949 0.63149 -0.02091
 C219 C 0.24144 0.64261 -0.02128
 C220 C 0.22899 0.64142 -0.00077
 C221 C 0.26241 0.63678 0.01641
 C222 C 0.24441 0.64792 0.01648
 C223 C 0.24396 0.60662 0.00290
 C224 C 0.22568 0.61774 0.00250
 H225 H 0.26960 0.63008 -0.03440
 H226 H 0.21452 0.65091 -0.00114
 H227 H 0.27413 0.63842 0.02849
 H228 H 0.24417 0.58988 0.00473
 C229 C 0.76711 0.11334 0.49941
 C230 C 0.76781 0.12678 0.48120
 C231 C 0.75089 0.14132 0.47951
 C232 C 0.73603 0.13944 0.49699
 C233 C 0.76553 0.12727 0.51709
 C234 C 0.74868 0.14187 0.51605
 C235 C 0.74672 0.10316 0.49848
 C236 C 0.72931 0.11739 0.49673
 H237 H 0.77871 0.12391 0.46857
 H238 H 0.72346 0.15119 0.49604
 H239 H 0.77480 0.12507 0.53109
 H240 H 0.74433 0.08701 0.50261
 C241 C 1.00425 0.76800 0.88451
 C242 C 1.02031 0.76651 0.86691
 C243 C 1.01940 0.74864 0.85554
 C244 C 1.00249 0.73334 0.86306
 C245 C 0.98322 0.76407 0.87404
 C246 C 0.98215 0.74611 0.86286
 C247 C 1.00819 0.74823 0.89762
 C248 C 1.00722 0.73004 0.88649
 H249 H 1.03219 0.77829 0.86440
 H250 H 1.00172 0.71878 0.85372
 H251 H 0.97020 0.77480 0.87536
 H252 H 1.01094 0.74832 0.91422
 C253 C 0.49591 0.27607 0.38873
 C254 C 0.51399 0.27587 0.37309
 C255 C 0.51428 0.25906 0.36010
 C256 C 0.49643 0.24349 0.36420
 C257 C 0.47632 0.27359 0.37546
 C258 C 0.47647 0.25677 0.36261
 C259 C 0.49813 0.25513 0.40032
 C260 C 0.49858 0.23806 0.38757
 H261 H 0.52612 0.28765 0.37308
 H262 H 0.49656 0.22987 0.35353
 H263 H 0.46322 0.28427 0.37635
 H264 H 0.49988 0.25374 0.41700
 C265 C 1.00647 0.26936 0.61760
 C266 C 0.98831 0.26837 0.63316
 C267 C 0.98870 0.25158 0.64623
 C268 C 1.00786 0.23742 0.64297
 C269 C 1.02582 0.26891 0.63163
 C270 C 1.02673 0.25222 0.64472
 C271 C 1.00628 0.24814 0.60664
 C272 C 1.00682 0.23133 0.61976
 H273 H 0.97561 0.27950 0.63313
 H274 H 1.00852 0.22413 0.65407
 H275 H 1.03778 0.28082 0.63156
 H276 H 1.00585 0.24678 0.58982
 C277 C 0.50166 0.77005 0.12133
 C278 C 0.48435 0.76762 0.13762
 C279 C 0.48625 0.75054 0.15014
 C280 C 0.50549 0.73707 0.14507
 C281 C 0.52194 0.76926 0.13366
 C282 C 0.52414 0.75215 0.14597
 C283 C 0.50098 0.74931 0.10931
 C284 C 0.50299 0.73199 0.12167
 H285 H 0.47048 0.77730 0.13757
 H286 H 0.50722 0.72323 0.15536
 H287 H 0.53376 0.78131 0.13252
 H288 H 0.49848 0.74832 0.09266
 O289 O -0.00755 0.94190 0.98855
 O290 O 0.00086 0.94277 1.02331
 O291 O -0.05228 0.99208 0.98166
 O292 O -0.05345 1.02636 0.98618
 O293 O -0.00131 0.98504 0.93777
 O294 O 0.03447 0.99445 0.93876
 O295 O 0.00220 1.04875 1.03502
 O296 O -0.03093 1.03531 1.03630
 O297 O 0.04384 0.99975 1.04475
 O298 O 0.04915 0.96525 1.02959
 O299 O 0.05340 1.04018 0.99430
 O300 O 0.03892 1.04503 0.96071
 O301 O 0.02013 1.05988 1.00646
 O302 O 0.01138 1.05824 0.96770
 O303 O 0.06452 1.01176 1.01236
 O304 O 0.06419 0.97381 1.00367
 O305 O 0.01488 1.01746 1.05496
 O306 O -0.02108 1.00324 1.05314
 O307 O 0.01120 0.95238 0.96022
 O308 O 0.04506 0.96916 0.95661
 O309 O -0.02992 1.00370 0.94739
 O310 O -0.03298 1.03885 0.96376
 O311 O -0.04142 0.96323 0.99928
 O312 O -0.02598 0.96280 1.03483
 Zr313 Zr -0.00994 0.96917 1.00652
 O314 O 0.00865 0.98746 1.02639
 Zr315 Zr -0.02534 1.01059 0.97919
 O316 O -0.00817 1.03069 0.99861
 Zr317 Zr 0.01701 0.98445 0.96493
 O318 O 0.03624 1.00402 0.98296
 Zr319 Zr -0.00428 1.01746 1.02833
 O320 O -0.02412 0.99867 1.00986
 Zr321 Zr 0.03835 0.99199 1.01338
 O322 O 0.02070 0.97129 0.99474
 Zr323 Zr 0.02223 1.03349 0.98678
 O324 O 0.00444 1.01484 0.96605
 O325 O -0.01308 0.98073 0.97634
 O326 O 0.02591 1.02184 1.01691
 C327 C 0.00170 0.93838 0.97110
 C328 C -0.05553 0.97414 0.99006
 C329 C -0.01894 0.99375 0.93388
 C330 C 0.01175 1.06290 1.02447
 C331 C 0.03294 1.00948 1.05848
 C332 C 0.06749 1.02980 1.00410
 H333 H 0.00933 0.98074 1.04029
 H334 H 0.05006 1.00509 0.97617
 H335 H -0.02177 0.97156 0.96746
 H336 H -0.01539 1.04431 0.99951
 H337 H -0.04325 1.02666 1.03282
 H338 H -0.05101 1.03409 0.99927
 H339 H 0.06993 0.98023 0.99085
 H340 H 0.04842 0.95945 0.96818
 H341 H -0.02087 1.01289 1.06524
 H342 H -0.03454 0.95002 1.03302
 H343 H 0.04754 1.03343 0.95532
 H344 H 0.02965 1.00877 0.93547
 H345 H 0.01582 0.94110 1.01983
 H346 H 0.03851 0.96149 1.04013
 H347 H -0.02242 1.04097 0.95268
 H348 H -0.00083 1.06462 0.97469
 O349 O 0.48726 0.50038 0.43995
 O350 O 0.52212 0.51080 0.43973
 O351 O 0.48517 0.45127 0.48550
 O352 O 0.49112 0.44685 0.51925
 O353 O 0.43924 0.50213 0.48716
 O354 O 0.44070 0.53717 0.49877
 O355 O 0.53987 0.50136 0.54477
 O356 O 0.54104 0.46962 0.52793
 O357 O 0.54643 0.54766 0.49909
 O358 O 0.52910 0.55611 0.46639
 O359 O 0.49824 0.55185 0.54323
 O360 O 0.46404 0.53583 0.54737
 O361 O 0.51147 0.51763 0.55851
 O362 O 0.47346 0.50825 0.55866
 O363 O 0.51452 0.56626 0.51522
 O364 O 0.50354 0.56976 0.47792
 O365 O 0.55793 0.51748 0.51380
 O366 O 0.55610 0.48303 0.49627
 O367 O 0.45925 0.51722 0.45391
 O368 O 0.45661 0.54970 0.47314
 O369 O 0.45087 0.47139 0.50059
 O370 O 0.46885 0.46545 0.53464
 O371 O 0.50066 0.46556 0.45694
 O372 O 0.53554 0.48203 0.45594
 Zr373 Zr 0.50733 0.49649 0.46564
 O374 O 0.52789 0.51351 0.48473
 Zr375 Zr 0.48279 0.47621 0.50665
 O376 O 0.50280 0.49184 0.52738
 Zr377 Zr 0.46620 0.52073 0.48580
 O378 O 0.48496 0.53846 0.50605
 Zr379 Zr 0.53173 0.49776 0.51323
 O380 O 0.51270 0.47950 0.49337
 Zr381 Zr 0.51466 0.54235 0.49276
 O382 O 0.49511 0.52647 0.47145
 Zr383 Zr 0.49049 0.52155 0.53363
 O384 O 0.46923 0.50506 0.51452
 O385 O 0.47795 0.49141 0.47850
 O386 O 0.51991 0.52709 0.52098
 C387 C 0.46915 0.50897 0.43851
 C388 C 0.49255 0.45012 0.46688
 C389 C 0.43635 0.48331 0.49349
 C390 C 0.52974 0.50949 0.56008
 C391 C 0.56080 0.53621 0.50718
 C392 C 0.50742 0.56706 0.53396
 H393 H 0.54139 0.51515 0.47741
 H394 H 0.47805 0.55197 0.50884
 H395 H 0.46870 0.48331 0.46917
 H396 H 0.50454 0.48337 0.54018
 H397 H 0.53734 0.45816 0.51827
 H398 H 0.50443 0.44889 0.52676
 H399 H 0.49095 0.57447 0.48551
 H400 H 0.46771 0.55417 0.46336
 H401 H 0.56866 0.48256 0.50530
 H402 H 0.53318 0.47512 0.44229
 H403 H 0.45977 0.54757 0.53827
 H404 H 0.43861 0.53144 0.51297
 H405 H 0.51719 0.52544 0.43922
 H406 H 0.53914 0.54585 0.46069
 H407 H 0.45782 0.47562 0.53836
 H408 H 0.48048 0.49511 0.56276
 O409 O 0.45491 -0.03964 0.49068
 O410 O 0.47120 -0.04512 0.45886
 O411 O 0.50531 -0.04071 0.53504
 O412 O 0.53533 -0.02374 0.54000
 O413 O 0.45938 0.00835 0.53723
 O414 O 0.45429 0.03966 0.51750
 O415 O 0.55858 0.01358 0.47724
 O416 O 0.56049 -0.01915 0.49196
 O417 O 0.51110 0.01103 0.43187
 O418 O 0.47456 0.00031 0.43187
 O419 O 0.51184 0.06019 0.47540
 O420 O 0.50175 0.06377 0.51193
 O421 O 0.54501 0.04339 0.49091
 O422 O 0.52684 0.05043 0.52469
 O423 O 0.49605 0.04497 0.44763
 O424 O 0.46225 0.02588 0.44475
 O425 O 0.54067 -0.00226 0.44623
 O426 O 0.54176 -0.03635 0.46457
 O427 O 0.44132 -0.00964 0.50399
 O428 O 0.43999 0.02587 0.49172
 O429 O 0.48893 -0.00555 0.55109
 O430 O 0.52520 0.00674 0.54972
 O431 O 0.48890 -0.05577 0.50748
 O432 O 0.50216 -0.05749 0.47120
 Zr433 Zr 0.48633 -0.03188 0.48507
 O434 O 0.50457 -0.01475 0.46376
 Zr435 Zr 0.50924 -0.00940 0.52573
 O436 O 0.52873 0.00834 0.50612
 Zr437 Zr 0.46646 0.01154 0.50527
 O438 O 0.48409 0.03052 0.48494
 Zr439 Zr 0.53319 -0.00715 0.47769
 O440 O 0.51589 -0.02627 0.49838
 Zr441 Zr 0.49047 0.01409 0.45731
 O442 O 0.47085 -0.00405 0.47676
 Zr443 Zr 0.51364 0.03631 0.49793
 O444 O 0.49492 0.01956 0.51954
 O445 O 0.48035 -0.01668 0.51308
 O446 O 0.51960 0.02139 0.46972
 C447 C 0.43963 -0.02867 0.49773
 C448 C 0.49703 -0.05648 0.52580
 C449 C 0.47032 0.00169 0.55269
 C450 C 0.56016 0.03269 0.48321
 C451 C 0.53000 0.00438 0.43063
 C452 C 0.50437 0.06071 0.45680
 H453 H 0.50667 -0.02316 0.45101
 H454 H 0.47634 0.04359 0.48221
 H455 H 0.47161 -0.02514 0.52263
 H456 H 0.54219 0.01084 0.51322
 H457 H 0.55628 -0.03198 0.49951
 H458 H 0.54769 -0.01996 0.53158
 H459 H 0.45832 0.03844 0.45282
 H460 H 0.43800 0.01924 0.47792
 H461 H 0.55555 -0.03469 0.45773
 H462 H 0.49418 -0.07046 0.47407
 H463 H 0.48785 0.06652 0.50583
 H464 H 0.46534 0.04566 0.52646
 H465 H 0.46214 -0.03411 0.45288
 H466 H 0.48108 -0.01343 0.42915
 H467 H 0.51777 0.02013 0.55184
 H468 H 0.53898 0.04193 0.52903
 O469 O 0.01011 0.50669 0.94041
 O470 O -0.02414 0.49493 0.93863
 O471 O 0.00866 0.55566 0.98568
 O472 O -0.00105 0.55932 1.01916
 O473 O 0.05603 0.50760 0.98949
 O474 O 0.05593 0.47230 1.00141
 O475 O -0.04683 0.50204 1.04267
 O476 O -0.04882 0.53396 1.02605
 O477 O -0.04906 0.45583 0.99690
 O478 O -0.02998 0.44931 0.96433
 O479 O -0.00225 0.45310 1.04245
 O480 O 0.03101 0.47190 1.04795
 O481 O -0.01847 0.48687 1.05774
 O482 O 0.01836 0.49756 1.06031
 O483 O -0.01692 0.43885 1.01356
 O484 O -0.00435 0.43657 0.97685
 O485 O -0.06249 0.48531 1.01127
 O486 O -0.06187 0.52007 0.99382
 O487 O 0.03827 0.49113 0.95552
 O488 O 0.04236 0.45920 0.97489
 O489 O 0.04247 0.53738 1.00314
 O490 O 0.02277 0.54224 1.03573
 O491 O -0.00566 0.54089 0.95682
 O492 O -0.03961 0.52287 0.95450
 Zr493 Zr -0.01116 0.50963 0.96522
 O494 O -0.03171 0.49136 0.98322
 Zr495 Zr 0.01051 0.53077 1.00730
 O496 O -0.00946 0.51360 1.02707
 Zr497 Zr 0.03027 0.48736 0.98713
 O498 O 0.01147 0.46828 1.00621
 Zr499 Zr -0.03743 0.50648 1.01164
 O500 O -0.01858 0.52602 0.99274
 Zr501 Zr -0.01741 0.46312 0.99155
 O502 O 0.00237 0.48029 0.97142
 Zr503 Zr 0.00388 0.48433 1.03375
 O504 O 0.02501 0.50246 1.01577
 O505 O 0.01735 0.51607 0.97935
 O506 O -0.02462 0.47763 1.01969
 C507 C 0.02856 0.49878 0.93969
 C508 C 0.00176 0.55659 0.96682
 C509 C 0.05783 0.52638 0.99632
 C510 C -0.03717 0.49415 1.05840
 C511 C -0.06420 0.46643 1.00473
 C512 C -0.01029 0.43769 1.03243
 H513 H -0.04482 0.48914 0.97539
 H514 H 0.01897 0.45510 1.00908
 H515 H 0.02665 0.52461 0.97042
 H516 H -0.01223 0.52174 1.03987
 H517 H -0.04522 0.54570 1.01663
 H518 H -0.01331 0.55591 1.02790
 H519 H 0.00820 0.43240 0.98483
 H520 H 0.03180 0.45383 0.96499
 H521 H -0.07481 0.51964 1.00233
 H522 H -0.03708 0.52992 0.94093
 H523 H 0.03580 0.45999 1.03937
 H524 H 0.05735 0.47847 1.01549
 H525 H -0.01878 0.48043 0.93846
 H526 H -0.04095 0.45873 0.95889
 H527 H 0.03332 0.53200 1.04052
 H528 H 0.01150 0.51110 1.06316
 O529 O 0.01463 0.43840 0.50614
 O530 O 0.00287 0.43928 0.47189
 O531 O 0.05824 0.48849 0.51032
 O532 O 0.05871 0.52289 0.50468
 O533 O 0.01056 0.48166 0.55732
 O534 O -0.02555 0.48974 0.55862
 O535 O -0.00029 0.54547 0.46120
 O536 O 0.03264 0.53209 0.45703
 O537 O -0.04231 0.49583 0.45365
 O538 O -0.04606 0.46131 0.46886
 O539 O -0.04860 0.53599 0.50467
 O540 O -0.03155 0.53977 0.53811
 O541 O -0.01648 0.55590 0.49102
 O542 O -0.00556 0.55428 0.52866
 O543 O -0.06058 0.50771 0.48706
 O544 O -0.05908 0.46927 0.49622
 O545 O -0.01458 0.51455 0.44191
 O546 O 0.02154 0.50037 0.44058
 O547 O -0.00315 0.44820 0.53534
 O548 O -0.03653 0.46435 0.54182
 O549 O 0.03855 0.49994 0.54548
 O550 O 0.03998 0.53506 0.52934
 O551 O 0.04672 0.45977 0.49304
 O552 O 0.02891 0.45984 0.45854
 Zr553 Zr 0.01472 0.46564 0.48791
 O554 O -0.00557 0.48386 0.46951
 Zr555 Zr 0.03143 0.50697 0.51423
 O556 O 0.01254 0.52701 0.49637
 Zr557 Zr -0.00957 0.48027 0.53137
 O558 O -0.03041 0.49965 0.51485
 Zr559 Zr 0.00673 0.51406 0.46687
 O560 O 0.02821 0.49533 0.48367
 Zr561 Zr -0.03440 0.48792 0.48454
 O562 O -0.01511 0.46732 0.50179
 Zr563 Zr -0.01701 0.52927 0.51038
 O564 O 0.00261 0.51075 0.52953
 O565 O 0.01969 0.47702 0.51788
 O566 O -0.02259 0.51792 0.48047
 C567 C 0.00637 0.43459 0.52402
 C568 C 0.06120 0.47057 0.50179
 C569 C 0.02849 0.49031 0.55992
 C570 C -0.00919 0.55934 0.47263
 C571 C -0.03271 0.50633 0.43948
 C572 C -0.06313 0.52578 0.49540
 H573 H -0.00716 0.47732 0.45563
 H574 H -0.04377 0.50048 0.52251
 H575 H 0.02905 0.46797 0.52622
 H576 H 0.01950 0.54073 0.49512
 H577 H 0.04522 0.52345 0.45954
 H578 H 0.05478 0.53160 0.49255
 H579 H -0.06469 0.47615 0.50884
 H580 H -0.04105 0.45526 0.53020
 H581 H 0.02022 0.51019 0.42867
 H582 H 0.03749 0.44697 0.45963
 H583 H -0.04141 0.52880 0.54269
 H584 H -0.02123 0.50433 0.56133
 H585 H -0.01155 0.43708 0.47699
 H586 H -0.03575 0.45736 0.45807
 H587 H 0.02994 0.53719 0.54089
 H588 H 0.00662 0.56033 0.52133
 O589 O 0.45545 0.98938 -0.05252
 O590 O 0.45197 0.95765 -0.03574
 O591 O 0.45500 1.03442 -0.00308
 O592 O 0.47315 1.04107 0.02571
 O593 O 0.50205 1.03783 -0.05129
 O594 O 0.53319 1.01946 -0.05807
 O595 O 0.51374 0.97897 0.04825
 O596 O 0.48076 0.99259 0.05172
 O597 O 0.51186 0.93373 0.00149
 O598 O 0.49946 0.93243 -0.03421
 O599 O 0.55839 0.97949 0.00008
 O600 O 0.56032 1.01557 -0.01029
 O601 O 0.54215 0.99457 0.03372
 O602 O 0.54647 1.02887 0.01437
 O603 O 0.54391 0.95084 -0.01488
 O604 O 0.52340 0.94705 -0.04823
 O605 O 0.49859 0.94745 0.03134
 O606 O 0.46372 0.96450 0.03380
 O607 O 0.48411 1.00354 -0.06806
 O608 O 0.52031 0.99242 -0.07056
 O609 O 0.48877 1.05178 -0.02154
 O610 O 0.50276 1.05120 0.01451
 O611 O 0.44027 1.00603 -0.01835
 O612 O 0.44087 0.96980 -0.00425
 Zr613 Zr 0.46496 0.98455 -0.02161
 O614 O 0.48390 0.96413 -0.00417
 Zr615 Zr 0.48677 1.02654 -0.00056
 O616 O 0.50594 1.00788 0.01855
 Zr617 Zr 0.50649 1.00616 -0.04394
 O618 O 0.52726 0.98727 -0.02675
 Zr619 Zr 0.49198 0.97872 0.02391
 O620 O 0.47136 0.99857 0.00738
 Zr621 Zr 0.51242 0.95898 -0.01945
 O622 O 0.49232 0.97713 -0.03834
 Zr623 Zr 0.53360 1.00088 0.00245
 O624 O 0.51524 1.02129 -0.01610
 O625 O 0.47869 1.01309 -0.02885
 O626 O 0.52025 0.97205 0.00923
 C627 C 0.46526 0.99652 -0.06851
 C628 C 0.43924 1.02446 -0.01048
 C629 C 0.49539 1.05330 -0.04042
 C630 C 0.53250 0.98599 0.04915
 C631 C 0.50597 0.93222 0.02059
 C632 C 0.55948 0.96080 -0.00712
 H633 H 0.47622 0.95098 -0.00160
 H634 H 0.54013 0.98508 -0.03496
 H635 H 0.46949 1.02219 -0.03732
 H636 H 0.50861 1.01521 0.03185
 H637 H 0.46753 0.99970 0.04807
 H638 H 0.47662 1.03227 0.03792
 H639 H 0.53593 0.95511 -0.05228
 H640 H 0.51357 0.97864 -0.07241
 H641 H 0.46631 0.95763 0.04745
 H642 H 0.42737 0.97213 -0.01147
 H643 H 0.56223 1.01014 -0.02460
 H644 H 0.53991 1.02820 -0.04727
 H645 H 0.46288 0.95175 -0.04495
 H646 H 0.48598 0.92935 -0.02734
 H647 H 0.51537 1.05422 0.00609
 H648 H 0.53897 1.03235 0.02740
 O649 O 0.48282 0.51385 0.05979
 O650 O 0.51696 0.50233 0.06140
 O651 O 0.48324 0.56275 0.01451
 O652 O 0.49129 0.56709 -0.01898
 O653 O 0.43633 0.51390 0.01142
 O654 O 0.43641 0.47909 -0.00000
 O655 O 0.53922 0.51062 -0.04267
 O656 O 0.54093 0.54218 -0.02592
 O657 O 0.54131 0.46360 0.00184
 O658 O 0.52350 0.45591 0.03414
 O659 O 0.49476 0.46177 -0.04323
 O660 O 0.46248 0.47921 -0.04927
 O661 O 0.51095 0.49551 -0.05788
 O662 O 0.47275 0.50725 -0.05900
 O663 O 0.50926 0.44672 -0.01462
 O664 O 0.49675 0.44421 0.02272
 O665 O 0.55514 0.49353 -0.01131
 O666 O 0.55393 0.52816 0.00640
 O667 O 0.45459 0.49788 0.04534
 O668 O 0.45158 0.46541 0.02544
 O669 O 0.44917 0.54399 -0.00231
 O670 O 0.46906 0.54931 -0.03551
 O671 O 0.49819 0.54826 0.04325
 O672 O 0.53233 0.53007 0.04528
 Zr673 Zr 0.50377 0.51695 0.03482
 O674 O 0.52418 0.49883 0.01654
 Zr675 Zr 0.48128 0.53803 -0.00694
 O676 O 0.50165 0.52169 -0.02691
 Zr677 Zr 0.46240 0.49425 0.01347
 O678 O 0.48100 0.47592 -0.00650
 Zr679 Zr 0.52976 0.51450 -0.01164
 O680 O 0.51064 0.53366 0.00732
 Zr681 Zr 0.50993 0.47066 0.00786
 O682 O 0.49059 0.48743 0.02868
 Zr683 Zr 0.48844 0.49255 -0.03388
 O684 O 0.46705 0.50965 -0.01527
 O685 O 0.47500 0.52310 0.02109
 O686 O 0.51701 0.48575 -0.02005
 C687 C 0.46448 0.50578 0.06097
 C688 C 0.49042 0.56383 0.03321
 C689 C 0.43411 0.53263 0.00462
 C690 C 0.52967 0.50286 -0.05849
 C691 C 0.55655 0.47435 -0.00552
 C692 C 0.50277 0.44612 -0.03358
 H693 H 0.53733 0.49650 0.02428
 H694 H 0.47358 0.46276 -0.00959
 H695 H 0.46571 0.53152 0.03012
 H696 H 0.50429 0.53011 -0.03959
 H697 H 0.53724 0.55382 -0.01646
 H698 H 0.50494 0.56457 -0.02568
 H699 H 0.48473 0.43953 0.01425
 H700 H 0.46173 0.46093 0.03620
 H701 H 0.56691 0.52798 -0.00204
 H702 H 0.52987 0.53735 0.05871
 H703 H 0.45607 0.46906 -0.03954
 H704 H 0.43513 0.48464 -0.01438
 H705 H 0.51215 0.48764 0.06131
 H706 H 0.53333 0.46592 0.04053
 H707 H 0.45768 0.53971 -0.03962
 H708 H 0.48135 0.51919 -0.06370
 O709 O -0.06039 0.01380 0.51317
 O710 O -0.06198 -0.01978 0.50074
 O711 O -0.01426 0.01079 0.56182
 O712 O 0.01923 0.00169 0.56504
 O713 O -0.01197 0.06026 0.51622
 O714 O -0.00041 0.06251 0.48129
 O715 O 0.04221 -0.04188 0.50519
 O716 O 0.02597 -0.04568 0.53706
 O717 O -0.00360 -0.04143 0.45929
 O718 O -0.03578 -0.02268 0.45332
 O719 O 0.04190 0.00542 0.45935
 O720 O 0.04779 0.03710 0.47897
 O721 O 0.05711 -0.01262 0.49163
 O722 O 0.05891 0.02429 0.50530
 O723 O 0.01316 -0.00844 0.44402
 O724 O -0.02417 0.00448 0.44290
 O725 O 0.01077 -0.05671 0.48788
 O726 O -0.00642 -0.05802 0.52275
 O727 O -0.04567 0.04298 0.49910
 O728 O -0.02620 0.04868 0.46710
 O729 O 0.00249 0.04562 0.54511
 O730 O 0.03559 0.02556 0.54864
 O731 O -0.04342 -0.00292 0.54703
 O732 O -0.04519 -0.03641 0.52728
 Zr733 Zr -0.03522 -0.00710 0.51537
 O734 O -0.01724 -0.02632 0.49571
 Zr735 Zr 0.00693 0.01399 0.53700
 O736 O 0.02664 -0.00519 0.51899
 Zr737 Zr -0.01395 0.03561 0.49483
 O738 O 0.00549 0.01820 0.47493
 Zr739 Zr 0.01125 -0.03281 0.51041
 O740 O -0.00744 -0.01503 0.53109
 Zr741 Zr -0.00902 -0.01038 0.46825
 O742 O -0.02942 0.00793 0.48662
 Zr743 Zr 0.03309 0.00986 0.49060
 O744 O 0.01492 0.03004 0.50948
 O745 O -0.02130 0.02123 0.52294
 O746 O 0.01915 -0.01828 0.48235
 C747 C -0.06138 0.03259 0.50612
 C748 C -0.03310 0.00394 0.56282
 C749 C -0.00489 0.06131 0.53493
 C750 C 0.05784 -0.03178 0.49770
 C751 C 0.00419 -0.05720 0.46895
 C752 C 0.03208 -0.00180 0.44346
 H753 H -0.02503 -0.03932 0.49277
 H754 H 0.00833 0.02643 0.46218
 H755 H -0.03029 0.03001 0.53192
 H756 H 0.03947 -0.00836 0.52696
 H757 H 0.01664 -0.04285 0.54905
 H758 H 0.02668 -0.01129 0.56130
 H759 H -0.01560 0.01662 0.43866
 H760 H -0.03657 0.03861 0.46169
 H761 H 0.00212 -0.07089 0.52157
 H762 H -0.05843 -0.03442 0.53507
 H763 H 0.03834 0.04342 0.46853
 H764 H 0.01392 0.06350 0.48699
 H765 H -0.06200 -0.01451 0.48621
 H766 H -0.04171 -0.03356 0.46256
 H767 H 0.03981 0.03724 0.53941
 H768 H 0.06313 0.01545 0.51725
 O769 O 0.79212 0.25349 0.21266
 O770 O 0.77951 0.21975 0.20780
 O771 O 0.73889 0.29251 0.20308
 O772 O 0.70731 0.29716 0.21664
 O773 O 0.77837 0.30171 0.25764
 O774 O 0.78191 0.28375 0.28974
 O775 O 0.68440 0.23327 0.25473
 O776 O 0.68503 0.24643 0.22135
 O777 O 0.73548 0.19235 0.26004
 O778 O 0.77228 0.19457 0.25494
 O779 O 0.72429 0.23894 0.30605
 O780 O 0.73141 0.27560 0.30882
 O781 O 0.69298 0.25117 0.28415
 O782 O 0.70840 0.28675 0.29092
 O783 O 0.74449 0.21188 0.29523
 O784 O 0.78088 0.21074 0.27997
 O785 O 0.70668 0.20332 0.24248
 O786 O 0.70818 0.22018 0.20769
 O787 O 0.80135 0.26925 0.24311
 O788 O 0.79926 0.25840 0.27918
 O789 O 0.75040 0.31228 0.23856
 O790 O 0.71278 0.30845 0.24714
 O791 O 0.75898 0.26573 0.19142
 O792 O 0.74927 0.22843 0.19112
 Zr793 Zr 0.76070 0.24527 0.21724
 O794 O 0.74234 0.22347 0.23369
 Zr795 Zr 0.73240 0.28512 0.23437
 O796 O 0.71234 0.26491 0.25076
 Zr797 Zr 0.77379 0.26932 0.26124
 O798 O 0.75542 0.24886 0.27939
 Zr799 Zr 0.71194 0.23522 0.23695
 O800 O 0.72974 0.25636 0.21870
 Zr801 Zr 0.75317 0.21980 0.26439
 O802 O 0.77328 0.23969 0.24715
 Zr803 Zr 0.72449 0.25975 0.28071
 O804 O 0.74361 0.28175 0.26503
 O805 O 0.76281 0.27450 0.23119
 O806 O 0.72249 0.23016 0.26735
 C807 C 0.80552 0.26233 0.22470
 C808 C 0.74937 0.28317 0.18874
 C809 C 0.76747 0.31587 0.24844
 C810 C 0.68000 0.24104 0.27269
 C811 C 0.71785 0.18902 0.25105
 C812 C 0.73326 0.22126 0.30900
 H813 H 0.74239 0.21013 0.22594
 H814 H 0.76162 0.24756 0.29345
 H815 H 0.77162 0.28434 0.22314
 H816 H 0.69818 0.27104 0.25111
 H817 H 0.69000 0.25368 0.20863
 H818 H 0.69569 0.28712 0.21809
 H819 H 0.78222 0.21938 0.29267
 H820 H 0.80322 0.24466 0.27335
 H821 H 0.69488 0.21227 0.20804
 H822 H 0.75857 0.23104 0.17900
 H823 H 0.74555 0.27130 0.31326
 H824 H 0.76943 0.29160 0.29436
 H825 H 0.78799 0.21560 0.22004
 H826 H 0.76920 0.19180 0.24008
 H827 H 0.71894 0.31259 0.26068
 H828 H 0.69661 0.28921 0.28126
 O829 O 0.74784 0.70220 0.71177
 O830 O 0.77955 0.69624 0.72671
 O831 O 0.70558 0.69624 0.76524
 O832 O 0.69943 0.71265 0.79489
 O833 O 0.69901 0.74909 0.72138
 O834 O 0.71832 0.78020 0.71626
 O835 O 0.76228 0.74947 0.81804
 O836 O 0.74896 0.71625 0.81835
 O837 O 0.80641 0.75126 0.76902
 O838 O 0.80549 0.74248 0.73195
 O839 O 0.76083 0.79937 0.77271
 O840 O 0.72398 0.80172 0.76522
 O841 O 0.74711 0.77954 0.80662
 O842 O 0.71299 0.78690 0.78997
 O843 O 0.78873 0.78551 0.75579
 O844 O 0.79142 0.76802 0.72136
 O845 O 0.79337 0.73622 0.79838
 O846 O 0.77656 0.70137 0.79788
 O847 O 0.73213 0.73211 0.70064
 O848 O 0.74353 0.76766 0.70066
 O849 O 0.68687 0.73156 0.74973
 O850 O 0.68923 0.74266 0.78652
 O851 O 0.73244 0.68296 0.74629
 O852 O 0.76934 0.68221 0.75746
 Zr853 Zr 0.75366 0.70797 0.74360
 O854 O 0.77508 0.72478 0.76201
 Zr855 Zr 0.71312 0.72796 0.76904
 O856 O 0.73286 0.74521 0.78872
 Zr857 Zr 0.73132 0.75176 0.72691
 O858 O 0.75170 0.77033 0.74476
 Zr859 Zr 0.76194 0.73045 0.79145
 O860 O 0.74126 0.71171 0.77386
 Zr861 Zr 0.78013 0.75454 0.74937
 O862 O 0.76050 0.73691 0.72953
 Zr863 Zr 0.73960 0.77427 0.77499
 O864 O 0.71787 0.75786 0.75619
 O865 O 0.72484 0.72246 0.73933
 O866 O 0.76854 0.76001 0.77926
 C867 C 0.73978 0.71381 0.69746
 C868 C 0.71505 0.68106 0.75615
 C869 C 0.68419 0.74095 0.73221
 C870 C 0.75541 0.76810 0.82093
 C871 C 0.80842 0.74389 0.78760
 C872 C 0.77905 0.80080 0.76441
 H873 H 0.78820 0.71673 0.76325
 H874 H 0.75365 0.78382 0.73751
 H875 H 0.71524 0.71409 0.73058
 H876 H 0.72608 0.74665 0.80251
 H877 H 0.74191 0.70335 0.81361
 H878 H 0.70910 0.71446 0.80675
 H879 H 0.78251 0.78019 0.71803
 H880 H 0.75745 0.76154 0.69789
 H881 H 0.78368 0.70247 0.81157
 H882 H 0.76650 0.66945 0.74916
 H883 H 0.72923 0.80535 0.75116
 H884 H 0.70971 0.78569 0.72785
 H885 H 0.78558 0.70817 0.71893
 H886 H 0.80913 0.72866 0.73784
 H887 H 0.68620 0.75614 0.77957
 H888 H 0.70889 0.77721 0.80129
 O889 O 0.30066 0.20526 0.74732
 O890 O 0.30150 0.21815 0.71370
 O891 O 0.31020 0.25935 0.78568
 O892 O 0.29441 0.28927 0.79266
 O893 O 0.25907 0.21562 0.79969
 O894 O 0.22642 0.20892 0.78480
 O895 O 0.24959 0.30968 0.73278
 O896 O 0.28395 0.31125 0.74220
 O897 O 0.24124 0.25941 0.69284
 O898 O 0.25154 0.22314 0.69266
 O899 O 0.20146 0.26545 0.74307
 O900 O 0.20340 0.25874 0.78025
 O901 O 0.22176 0.29861 0.75187
 O902 O 0.22011 0.28382 0.78858
 O903 O 0.21099 0.24577 0.71521
 O904 O 0.22966 0.21119 0.71183
 O905 O 0.25964 0.28849 0.70150
 O906 O 0.29632 0.28918 0.71459
 O907 O 0.27286 0.19381 0.76628
 O908 O 0.23581 0.19310 0.75831
 O909 O 0.27748 0.24443 0.80914
 O910 O 0.26563 0.28147 0.80627
 O911 O 0.32029 0.23986 0.75785
 O912 O 0.31626 0.24968 0.72056
 Zr913 Zr 0.29295 0.23627 0.73997
 O914 O 0.27316 0.25343 0.72007
 Zr915 Zr 0.27781 0.26295 0.78179
 O916 O 0.25819 0.28191 0.76340
 Zr917 Zr 0.25263 0.21981 0.76795
 O918 O 0.23119 0.23695 0.74986
 Zr919 Zr 0.26906 0.28338 0.73253
 O920 O 0.29041 0.26691 0.75163
 Zr921 Zr 0.24312 0.24035 0.71955
 O922 O 0.26372 0.22145 0.73718
 Zr923 Zr 0.22876 0.26772 0.76107
 O924 O 0.24783 0.24954 0.78111
 O925 O 0.28215 0.23294 0.77045
 O926 O 0.23915 0.27069 0.73047
 C927 C 0.29072 0.19103 0.75746
 C928 C 0.32413 0.24988 0.77477
 C929 C 0.26854 0.22691 0.81323
 C930 C 0.23157 0.31250 0.74112
 C931 C 0.24888 0.27749 0.68866
 C932 C 0.19743 0.25596 0.72592
 H933 H 0.27939 0.25417 0.70596
 H934 H 0.21761 0.22962 0.75003
 H935 H 0.29173 0.22474 0.77941
 H936 H 0.25739 0.29604 0.76955
 H937 H 0.29757 0.30709 0.74821
 H938 H 0.29196 0.30055 0.78240
 H939 H 0.21813 0.20853 0.72177
 H940 H 0.24138 0.18909 0.74447
 H941 H 0.29416 0.30233 0.70669
 H942 H 0.32938 0.24159 0.72217
 H943 H 0.19904 0.24459 0.77591
 H944 H 0.22106 0.22102 0.79276
 H945 H 0.28906 0.20991 0.70975
 H946 H 0.26537 0.22814 0.68800
 H947 H 0.25293 0.27432 0.81144
 H948 H 0.22886 0.29650 0.78963
 O949 O 0.20893 0.74637 0.29331
 O950 O 0.22171 0.71308 0.29374
 O951 O 0.26482 0.78413 0.30049
 O952 O 0.29347 0.79171 0.28270
 O953 O 0.21726 0.79938 0.25396
 O954 O 0.21015 0.78626 0.22002
 O955 O 0.31031 0.73139 0.23696
 O956 O 0.31395 0.74030 0.27107
 O957 O 0.25887 0.69215 0.23122
 O958 O 0.22309 0.69290 0.24286
 O959 O 0.26392 0.74326 0.19128
 O960 O 0.25852 0.77914 0.19287
 O961 O 0.29871 0.75218 0.21056
 O962 O 0.28284 0.78902 0.21013
 O963 O 0.24441 0.71545 0.20145
 O964 O 0.21078 0.71241 0.22169
 O965 O 0.28900 0.70019 0.24809
 O966 O 0.29201 0.71310 0.28455
 O967 O 0.19648 0.76611 0.26646
 O968 O 0.19400 0.75931 0.22926
 O969 O 0.24771 0.80833 0.26970
 O970 O 0.28410 0.80536 0.25492
 O971 O 0.24508 0.75681 0.31162
 O972 O 0.25406 0.71930 0.30650
 Zr973 Zr 0.23962 0.73922 0.28425
 O974 O 0.25522 0.71931 0.26326
 Zr975 Zr 0.26605 0.78091 0.26797
 O976 O 0.28362 0.76241 0.24731
 Zr977 Zr 0.22150 0.76814 0.24519
 O978 O 0.23715 0.75005 0.22266
 Zr979 Zr 0.28511 0.73132 0.25771
 O980 O 0.27022 0.75051 0.28006
 Zr981 Zr 0.24066 0.71943 0.23390
 O982 O 0.22326 0.73712 0.25576
 Zr983 Zr 0.26791 0.76078 0.21866
 O984 O 0.25106 0.78099 0.23879
 O985 O 0.23623 0.76985 0.27400
 O986 O 0.27096 0.72989 0.22841
 C987 C 0.19437 0.75672 0.28410
 C988 C 0.25593 0.77340 0.31492
 C989 C 0.22915 0.81253 0.26327
 C990 C 0.31280 0.74094 0.21950
 C991 C 0.27711 0.68749 0.23815
 C992 C 0.25393 0.72630 0.18748
 H993 H 0.25597 0.70511 0.26930
 H994 H 0.22917 0.75057 0.20948
 H995 H 0.22867 0.77851 0.28432
 H996 H 0.29776 0.76847 0.24593
 H997 H 0.31070 0.74633 0.28491
 H998 H 0.30406 0.78064 0.28083
 H999 H 0.20777 0.72257 0.21045
 H1000 H 0.19003 0.74536 0.23464
 H1001 H 0.30488 0.70497 0.28168
 H1002 H 0.24694 0.72099 0.32015
 H1003 H 0.24315 0.77808 0.19193
 H1004 H 0.22181 0.79536 0.21552
 H1005 H 0.21309 0.70900 0.28160
 H1006 H 0.22878 0.68777 0.25626
 H1007 H 0.27572 0.81161 0.24353
 H1008 H 0.29633 0.78968 0.21761
 O1009 O 0.24635 0.78610 0.69929
 O1010 O 0.21203 0.78688 0.71074
 O1011 O 0.28200 0.79463 0.75577
 O1012 O 0.28667 0.77812 0.78604
 O1013 O 0.29799 0.74589 0.71135
 O1014 O 0.28421 0.71172 0.70509
 O1015 O 0.22633 0.73305 0.80206
 O1016 O 0.23607 0.76725 0.80478
 O1017 O 0.18865 0.72664 0.74957
 O1018 O 0.19104 0.73816 0.71314
 O1019 O 0.23847 0.68549 0.75635
 O1020 O 0.27583 0.68758 0.75244
 O1021 O 0.24542 0.70514 0.79117
 O1022 O 0.28266 0.70319 0.77852
 O1023 O 0.21141 0.69644 0.73628
 O1024 O 0.20964 0.71545 0.70242
 O1025 O 0.19611 0.74432 0.77939
 O1026 O 0.20966 0.78053 0.78177
 O1027 O 0.26542 0.75811 0.68853
 O1028 O 0.25884 0.72123 0.68695
 O1029 O 0.30590 0.76244 0.74167
 O1030 O 0.30140 0.74942 0.77792
 O1031 O 0.25534 0.80505 0.73479
 O1032 O 0.21779 0.80143 0.74263
 Zr1033 Zr 0.23747 0.77799 0.72989
 O1034 O 0.21659 0.75816 0.74575
 Zr1035 Zr 0.27769 0.76208 0.75867
 O1036 O 0.25826 0.74193 0.77600
 Zr1037 Zr 0.26633 0.73784 0.71443
 O1038 O 0.24682 0.71631 0.72982
 Zr1039 Zr 0.22750 0.75315 0.77618
 O1040 O 0.24744 0.77476 0.76110
 Zr1041 Zr 0.21644 0.72851 0.73196
 O1042 O 0.23549 0.74907 0.71445
 Zr1043 Zr 0.25631 0.71281 0.76103
 O1044 O 0.27766 0.73231 0.74474
 O1045 O 0.26800 0.76711 0.72819
 O1046 O 0.22569 0.72352 0.76272
 C1047 C 0.25690 0.77605 0.68544
 C1048 C 0.27173 0.80872 0.74572
 C1049 C 0.31082 0.75527 0.72358
 C1050 C 0.23431 0.71483 0.80484
 C1051 C 0.18364 0.73414 0.76748
 C1052 C 0.22165 0.68216 0.74592
 H1053 H 0.20255 0.76458 0.74589
 H1054 H 0.24724 0.70296 0.72212
 H1055 H 0.27722 0.77691 0.72057
 H1056 H 0.26367 0.74066 0.79039
 H1057 H 0.24243 0.78090 0.80123
 H1058 H 0.27678 0.77393 0.79711
 H1059 H 0.22002 0.70435 0.69968
 H1060 H 0.24478 0.72596 0.68264
 H1061 H 0.20122 0.77823 0.79455
 H1062 H 0.21971 0.81455 0.73458
 H1063 H 0.27305 0.68447 0.73759
 H1064 H 0.29285 0.70769 0.71725
 H1065 H 0.20871 0.77471 0.70183
 H1066 H 0.18537 0.75121 0.71910
 H1067 H 0.30655 0.73664 0.77092
 H1068 H 0.28356 0.71214 0.79105
 O1069 O 0.24859 0.20978 0.20520
 O1070 O 0.28125 0.20711 0.21881
 O1071 O 0.20923 0.19681 0.25942
 O1072 O 0.20197 0.21124 0.28983
 O1073 O 0.19494 0.25013 0.21801
 O1074 O 0.20992 0.28327 0.21345
 O1075 O 0.26189 0.25458 0.31239
 O1076 O 0.25238 0.22038 0.31231
 O1077 O 0.30259 0.26404 0.26215
 O1078 O 0.30168 0.25630 0.22491
 O1079 O 0.25248 0.30509 0.27043
 O1080 O 0.21555 0.30403 0.26379
 O1081 O 0.24203 0.28254 0.30303
 O1082 O 0.20641 0.28612 0.28739
 O1083 O 0.28030 0.29605 0.25044
 O1084 O 0.28392 0.27988 0.21549
 O1085 O 0.29363 0.24468 0.29051
 O1086 O 0.27987 0.20867 0.28968
 O1087 O 0.22917 0.23794 0.19550
 O1088 O 0.23615 0.27483 0.19682
 O1089 O 0.18582 0.23044 0.24608
 O1090 O 0.18860 0.24017 0.28354
 O1091 O 0.23659 0.18777 0.23876
 O1092 O 0.27365 0.19080 0.24927
 Zr1093 Zr 0.25474 0.21510 0.23689
 O1094 O 0.27474 0.23373 0.25503
 Zr1095 Zr 0.21310 0.22904 0.26436
 O1096 O 0.23154 0.24762 0.28413
 Zr1097 Zr 0.22681 0.25641 0.22261
 O1098 O 0.24530 0.27670 0.24064
 Zr1099 Zr 0.26233 0.23647 0.28517
 O1100 O 0.24316 0.21610 0.26765
 Zr1101 Zr 0.27555 0.26437 0.24347
 O1102 O 0.25757 0.24510 0.22366
 Zr1103 Zr 0.23414 0.27779 0.27147
 O1104 O 0.21384 0.25973 0.25259
 O1105 O 0.22428 0.22615 0.23408
 O1106 O 0.26476 0.26707 0.27404
 C1107 C 0.23888 0.22080 0.19151
 C1108 C 0.21994 0.18338 0.24904
 C1109 C 0.18149 0.24010 0.22902
 C1110 C 0.25260 0.27191 0.31642
 C1111 C 0.30683 0.25518 0.27966
 C1112 C 0.26963 0.30936 0.26093
 H1113 H 0.28875 0.22725 0.25532
 H1114 H 0.24529 0.29063 0.23398
 H1115 H 0.21540 0.21707 0.22528
 H1116 H 0.22523 0.24765 0.29821
 H1117 H 0.24636 0.20696 0.30756
 H1118 H 0.21236 0.21278 0.30111
 H1119 H 0.27353 0.29103 0.21296
 H1120 H 0.25037 0.27016 0.19298
 H1121 H 0.28755 0.20989 0.30305
 H1122 H 0.27205 0.17814 0.24050
 H1123 H 0.21956 0.30862 0.24960
 H1124 H 0.20178 0.28772 0.22581
 H1125 H 0.28569 0.21998 0.21148
 H1126 H 0.30723 0.24285 0.23013
 H1127 H 0.18333 0.25318 0.27703
 H1128 H 0.20440 0.27610 0.29898
 O1129 O 0.79476 0.70832 0.25416
 O1130 O 0.79804 0.71996 0.22040
 O1131 O 0.80568 0.76510 0.29008
 O1132 O 0.79045 0.79602 0.29453
 O1133 O 0.75444 0.72288 0.30517
 O1134 O 0.72024 0.71868 0.29056
 O1135 O 0.74951 0.81447 0.23391
 O1136 O 0.78388 0.81425 0.24284
 O1137 O 0.74103 0.76112 0.19488
 O1138 O 0.75007 0.72386 0.19867
 O1139 O 0.69826 0.77100 0.24334
 O1140 O 0.69841 0.76759 0.28023
 O1141 O 0.71971 0.80515 0.25095
 O1142 O 0.71607 0.79211 0.28844
 O1143 O 0.70949 0.75119 0.21617
 O1144 O 0.72531 0.71561 0.21605
 O1145 O 0.75746 0.79133 0.20339
 O1146 O 0.79453 0.79077 0.21606
 O1147 O 0.76618 0.69942 0.27338
 O1148 O 0.72940 0.69990 0.26519
 O1149 O 0.77175 0.75277 0.31332
 O1150 O 0.76137 0.78975 0.30802
 O1151 O 0.81565 0.74282 0.26433
 O1152 O 0.81373 0.75111 0.22657
 Zr1153 Zr 0.78907 0.73951 0.24548
 O1154 O 0.77088 0.75627 0.22383
 Zr1155 Zr 0.77347 0.76943 0.28496
 O1156 O 0.75502 0.78770 0.26482
 Zr1157 Zr 0.74730 0.72640 0.27330
 O1158 O 0.72729 0.74290 0.25299
 Zr1159 Zr 0.76719 0.78700 0.23442
 O1160 O 0.78725 0.77092 0.25513
 Zr1161 Zr 0.74059 0.74407 0.22302
 O1162 O 0.75946 0.72559 0.24282
 Zr1163 Zr 0.72515 0.77440 0.26208
 O1164 O 0.74300 0.75712 0.28415
 O1165 O 0.77720 0.73862 0.27569
 O1166 O 0.73698 0.77516 0.23187
 C1167 C 0.78383 0.69519 0.26477
 C1168 C 0.81942 0.75401 0.28051
 C1169 C 0.76373 0.73500 0.31815
 C1170 C 0.73120 0.81841 0.24105
 C1171 C 0.74781 0.77948 0.19044
 C1172 C 0.69539 0.76154 0.22589
 H1173 H 0.77760 0.75597 0.20993
 H1174 H 0.71348 0.73604 0.25295
 H1175 H 0.78628 0.73053 0.28525
 H1176 H 0.75454 0.80213 0.27026
 H1177 H 0.79717 0.80951 0.24917
 H1178 H 0.78865 0.80663 0.28346
 H1179 H 0.71356 0.71397 0.22594
 H1180 H 0.73431 0.69540 0.25126
 H1181 H 0.79276 0.80350 0.20740
 H1182 H 0.82645 0.74263 0.22914
 H1183 H 0.69545 0.75254 0.27853
 H1184 H 0.71677 0.73109 0.29908
 H1185 H 0.78554 0.71182 0.21642
 H1186 H 0.76319 0.72942 0.19271
 H1187 H 0.74811 0.78354 0.31299
 H1188 H 0.72518 0.80456 0.28914
 O1189 O 0.76192 0.18680 0.73247
 O1190 O 0.72880 0.18669 0.74579
 O1191 O 0.76288 0.23839 0.68955
 O1192 O 0.75711 0.27245 0.68985
 O1193 O 0.81253 0.23108 0.73474
 O1194 O 0.81568 0.23828 0.77044
 O1195 O 0.71563 0.29282 0.75256
 O1196 O 0.71038 0.28040 0.71905
 O1197 O 0.71212 0.24314 0.79351
 O1198 O 0.72732 0.20887 0.79615
 O1199 O 0.76242 0.28366 0.79700
 O1200 O 0.79473 0.28857 0.77801
 O1201 O 0.74625 0.30371 0.76682
 O1202 O 0.78320 0.30329 0.75284
 O1203 O 0.74689 0.25459 0.81012
 O1204 O 0.75603 0.21606 0.80668
 O1205 O 0.69800 0.26128 0.76650
 O1206 O 0.69515 0.24783 0.73025
 O1207 O 0.79199 0.19737 0.74810
 O1208 O 0.79929 0.21266 0.78209
 O1209 O 0.79930 0.25033 0.70802
 O1210 O 0.78177 0.28497 0.70760
 O1211 O 0.74548 0.20963 0.70105
 O1212 O 0.71285 0.20768 0.72209
 Zr1213 Zr 0.74323 0.21392 0.73377
 O1214 O 0.72584 0.23149 0.75557
 Zr1215 Zr 0.76800 0.25622 0.71644
 O1216 O 0.75067 0.27559 0.73652
 Zr1217 Zr 0.78761 0.22899 0.75586
 O1218 O 0.77219 0.24789 0.77787
 Zr1219 Zr 0.72185 0.26186 0.74393
 O1220 O 0.73783 0.24392 0.72124
 Zr1221 Zr 0.74245 0.23544 0.78358
 O1222 O 0.75865 0.21539 0.76286
 Zr1223 Zr 0.76635 0.27763 0.76515
 O1224 O 0.78474 0.25969 0.74438
 O1225 O 0.77268 0.22602 0.72725
 O1226 O 0.73712 0.26549 0.77241
 C1227 C 0.78050 0.18341 0.73937
 C1228 C 0.75349 0.22094 0.68646
 C1229 C 0.81431 0.24062 0.71721
 C1230 C 0.72716 0.30671 0.76132
 C1231 C 0.69706 0.25321 0.78484
 C1232 C 0.75468 0.27300 0.81210
 H1233 H 0.71219 0.22469 0.75796
 H1234 H 0.78069 0.24864 0.79072
 H1235 H 0.78057 0.21738 0.71715
 H1236 H 0.74865 0.28942 0.72993
 H1237 H 0.71214 0.27207 0.70617
 H1238 H 0.74438 0.27998 0.69422
 H1239 H 0.76882 0.22304 0.81175
 H1240 H 0.78847 0.20241 0.78619
 H1241 H 0.68314 0.25739 0.73227
 H1242 H 0.71352 0.19536 0.71275
 H1243 H 0.80007 0.27761 0.78750
 H1244 H 0.81775 0.25316 0.76679
 H1245 H 0.73388 0.18499 0.76027
 H1246 H 0.71656 0.20443 0.78603
 H1247 H 0.79384 0.28723 0.71695
 H1248 H 0.77460 0.30980 0.74177
 C1249 C 0.11578 0.99034 1.19213
 C1250 C 0.10796 0.99188 1.17190
 C1251 C 0.08816 1.00021 1.16833
 C1252 C 0.07607 1.00696 1.18532
 C1253 C 0.08383 1.00533 1.20567
 C1254 C 0.10374 0.99669 1.20940
 N1255 N 0.08089 1.00170 1.14729
 N1256 N 0.06352 1.01001 1.14243
 C1257 C 0.05665 1.01093 1.12119
 C1258 C 0.03717 1.01968 1.11663
 C1259 C 0.02963 1.01977 1.09615
 C1260 C 0.04153 1.01104 1.07987
 C1261 C 0.06134 1.00278 1.08448
 C1262 C 0.06883 1.00271 1.10491
 H1263 H 0.13145 0.98437 1.19427
 H1264 H 0.11749 0.98680 1.15890
 H1265 H 0.06076 1.01367 1.18286
 H1266 H 0.07434 1.01138 1.21820
 H1267 H 0.02766 1.02611 1.12903
 H1268 H 0.01431 1.02627 1.09318
 H1269 H 0.07096 0.99599 1.07235
 H1270 H 0.08400 0.99594 1.10801
 C1271 C 0.61626 0.48548 0.69174
 C1272 C 0.60837 0.48682 0.67149
 C1273 C 0.58894 0.49596 0.66783
 C1274 C 0.57738 0.50383 0.68471
 C1275 C 0.58520 0.50243 0.70502
 C1276 C 0.60464 0.49287 0.70890
 N1277 N 0.58140 0.49725 0.64685
 N1278 N 0.56431 0.50632 0.64241
 C1279 C 0.55650 0.50751 0.62154
 C1280 C 0.53758 0.51775 0.61804
 C1281 C 0.52908 0.51867 0.59803
 C1282 C 0.53942 0.50929 0.58106
 C1283 C 0.55866 0.49929 0.58457
 C1284 C 0.56714 0.49839 0.60466
 H1285 H 0.63162 0.47878 0.69399
 H1286 H 0.61753 0.48091 0.65858
 H1287 H 0.56240 0.51123 0.68221
 H1288 H 0.57612 0.50935 0.71739
 H1289 H 0.52929 0.52487 0.63093
 H1290 H 0.51429 0.52658 0.59593
 H1291 H 0.56703 0.49193 0.57187
 H1292 H 0.58185 0.49041 0.60701
 C1293 C 0.37815 -0.00726 0.68231
 C1294 C 0.38639 -0.00614 0.66217
 C1295 C 0.40777 -0.00331 0.65917
 C1296 C 0.42093 -0.00145 0.67659
 C1297 C 0.41272 -0.00245 0.69676
 C1298 C 0.39120 -0.00578 0.69996
 N1299 N 0.41573 -0.00209 0.63834
 N1300 N 0.43520 -0.00085 0.63472
 C1301 C 0.44347 0.00041 0.61404
 C1302 C 0.46507 -0.00077 0.61139
 C1303 C 0.47376 -0.00017 0.59145
 C1304 C 0.46093 0.00184 0.57375
 C1305 C 0.43921 0.00343 0.57646
 C1306 C 0.43052 0.00262 0.59647
 H1307 H 0.36144 -0.00907 0.68412
 H1308 H 0.37606 -0.00736 0.64886
 H1309 H 0.43751 0.00111 0.67464
 H1310 H 0.42334 -0.00005 0.70961
 H1311 H 0.47518 -0.00240 0.62483
 H1312 H 0.49056 -0.00129 0.58991
 H1313 H 0.42894 0.00493 0.56312
 H1314 H 0.41374 0.00364 0.59820
 C1315 C -0.08218 0.49547 1.21152
 C1316 C -0.07143 0.49389 1.19256
 C1317 C -0.08226 0.49409 1.17361
 C1318 C -0.10410 0.49560 1.17378
 C1319 C -0.11485 0.49708 1.19262
 C1320 C -0.10412 0.49722 1.21181
 N1321 N -0.07086 0.49302 1.15442
 N1322 N -0.07999 0.49469 1.13686
 C1323 C -0.06902 0.49387 1.11744
 C1324 C -0.08003 0.49773 1.09900
 C1325 C -0.06975 0.49770 1.07978
 C1326 C -0.04821 0.49361 1.07869
 C1327 C -0.03725 0.48936 1.09725
 C1328 C -0.04755 0.48957 1.11648
 H1329 H -0.07308 0.49533 1.22566
 H1330 H -0.05457 0.49268 1.19262
 H1331 H -0.11289 0.49570 1.15936
 H1332 H -0.13171 0.49827 1.19224
 H1333 H -0.09660 0.50101 1.09957
 H1334 H -0.07868 0.50090 1.06579
 H1335 H -0.02065 0.48619 1.09697
 H1336 H -0.03873 0.48647 1.13056
 C1337 C -0.12315 0.49643 0.30833
 C1338 C -0.11546 0.49720 0.32875
 C1339 C -0.09576 0.50566 0.33284
 C1340 C -0.08392 0.51376 0.31624
 C1341 C -0.09155 0.51293 0.29583
 C1342 C -0.11114 0.50395 0.29155
 N1343 N -0.08787 0.50529 0.35377
 N1344 N -0.07013 0.51292 0.35841
 C1345 C -0.06169 0.51203 0.37909
 C1346 C -0.04209 0.52086 0.38281
 C1347 C -0.03283 0.51937 0.40250
 C1348 C -0.04305 0.50889 0.41890
 C1349 C -0.06296 0.50035 0.41521
 C1350 C -0.07220 0.50190 0.39549
 H1351 H -0.13830 0.48951 0.30577
 H1352 H -0.12477 0.49093 0.34140
 H1353 H -0.06870 0.52054 0.31898
 H1354 H -0.08208 0.51945 0.28344
 H1355 H -0.03383 0.52869 0.37030
 H1356 H -0.01752 0.52615 0.40474
 H1357 H -0.07131 0.49223 0.42747
 H1358 H -0.08738 0.49493 0.39299
 C1359 C 0.41764 0.99634 -0.22076
 C1360 C 0.42848 0.99714 -0.20188
 C1361 C 0.41804 0.99436 -0.18298
 C1362 C 0.39650 0.99044 -0.18314
 C1363 C 0.38555 0.98963 -0.20200
 C1364 C 0.39585 0.99274 -0.22128
 N1365 N 0.42960 0.99579 -0.16391
 N1366 N 0.42094 0.99355 -0.14617
 C1367 C 0.43234 0.99498 -0.12701
 C1368 C 0.42182 0.99120 -0.10828
 C1369 C 0.43246 0.99196 -0.08929
 C1370 C 0.45392 0.99664 -0.08868
 C1371 C 0.46440 1.00079 -0.10754
 C1372 C 0.45372 0.99991 -0.12656
 H1373 H 0.42649 0.99947 -0.23477
 H1374 H 0.44509 1.00026 -0.20196
 H1375 H 0.38808 0.98801 -0.16869
 H1376 H 0.36912 0.98609 -0.20106
 H1377 H 0.40534 0.98745 -0.10842
 H1378 H 0.42384 0.98878 -0.07509
 H1379 H 0.48091 1.00440 -0.10763
 H1380 H 0.46217 1.00296 -0.14087
 C1381 C 0.57857 0.48693 -0.20949
 C1382 C 0.56814 0.48707 -0.19034
 C1383 C 0.57758 0.49562 -0.17266
 C1384 C 0.59775 0.50412 -0.17434
 C1385 C 0.60823 0.50400 -0.19352
 C1386 C 0.59874 0.49547 -0.21135
 N1387 N 0.56635 0.49536 -0.15330
 N1388 N 0.57402 0.50249 -0.13644
 C1389 C 0.56266 0.50221 -0.11715
 C1390 C 0.57211 0.51027 -0.09924
 C1391 C 0.56146 0.51040 -0.08020
 C1392 C 0.54101 0.50245 -0.07871
 C1393 C 0.53158 0.49426 -0.09676
 C1394 C 0.54229 0.49414 -0.11580
 H1395 H 0.57095 0.47972 -0.22270
 H1396 H 0.55266 0.48036 -0.18924
 H1397 H 0.60538 0.51085 -0.16087
 H1398 H 0.62367 0.51079 -0.19441
 H1399 H 0.58780 0.51651 -0.10005
 H1400 H 0.56926 0.51681 -0.06666
 H1401 H 0.51590 0.48799 -0.09621
 H1402 H 0.53463 0.48780 -0.12944
 C1403 C 0.07832 -0.01135 0.29104
 C1404 C 0.06818 -0.01237 0.31033
 C1405 C 0.07792 -0.00494 0.32835
 C1406 C 0.09806 0.00361 0.32688
 C1407 C 0.10823 0.00468 0.30758
 C1408 C 0.09848 -0.00269 0.28936
 N1409 N 0.06703 -0.00625 0.34785
 N1410 N 0.07520 -0.00032 0.36493
 C1411 C 0.06426 -0.00143 0.38442
 C1412 C 0.07431 0.00542 0.40251
 C1413 C 0.06397 0.00505 0.42172
 C1414 C 0.04327 -0.00218 0.42318
 C1415 C 0.03330 -0.00931 0.40496
 C1416 C 0.04369 -0.00893 0.38575
 H1417 H 0.07046 -0.01780 0.27759
 H1418 H 0.05271 -0.01912 0.31126
 H1419 H 0.10593 0.00948 0.34061
 H1420 H 0.12366 0.01143 0.30704
 H1421 H 0.09016 0.01120 0.40169
 H1422 H 0.07218 0.01063 0.43538
 H1423 H 0.01739 -0.01500 0.40549
 H1424 H 0.03559 -0.01434 0.37197
 C1425 C 0.19693 1.11980 0.98909
 C1426 C 0.17731 1.11044 0.98927
 C1427 C 0.17484 1.09013 0.99677
 C1428 C 0.19234 1.07904 1.00395
 C1429 C 0.21211 1.08835 1.00364
 C1430 C 0.21474 1.10880 0.99588
 N1431 N 0.15428 1.08151 0.99739
 N1432 N 0.15020 1.06376 1.00534
 C1433 C 0.12932 1.05579 1.00562
 C1434 C 0.12547 1.03614 1.01438
 C1435 C 0.10530 1.02781 1.01433
 C1436 C 0.08862 1.03905 1.00545
 C1437 C 0.09253 1.05896 0.99701
 C1438 C 0.11266 1.06725 0.99709
 H1439 H 0.19802 1.13592 0.98408
 H1440 H 0.16386 1.11923 0.98399
 H1441 H 0.19071 1.06337 1.01010
 H1442 H 0.22505 1.07970 1.01013
 H1443 H 0.13817 1.02719 1.02105
 H1444 H 0.10285 1.01243 1.02095
 H1445 H 0.08009 1.06809 0.99009
 H1446 H 0.11519 1.08253 0.99029
 C1447 C 0.69316 0.62151 0.48898
 C1448 C 0.67326 0.61274 0.48930
 C1449 C 0.67003 0.59294 0.49780
 C1450 C 0.68710 0.58170 0.50578
 C1451 C 0.70713 0.59041 0.50536
 C1452 C 0.71053 0.61036 0.49664
 N1453 N 0.64917 0.58505 0.49870
 N1454 N 0.64449 0.56776 0.50731
 C1455 C 0.62336 0.56048 0.50796
 C1456 C 0.61903 0.54101 0.51687
 C1457 C 0.59863 0.53326 0.51709
 C1458 C 0.58217 0.54496 0.50838
 C1459 C 0.58655 0.56474 0.49987
 C1460 C 0.60693 0.57242 0.49963
 H1461 H 0.69475 0.63735 0.48329
 H1462 H 0.66015 0.62167 0.48341
 H1463 H 0.68489 0.56643 0.51271
 H1464 H 0.71975 0.58175 0.51249
 H1465 H 0.63154 0.53170 0.52342
 H1466 H 0.59582 0.51798 0.52381
 H1467 H 0.57430 0.57418 0.49303
 H1468 H 0.60984 0.58758 0.49273
 C1469 C 0.70897 0.42524 -0.00158
 C1470 C 0.69066 0.43721 -0.00244
 C1471 C 0.67134 0.42771 -0.00598
 C1472 C 0.67046 0.40600 -0.00859
 C1473 C 0.68858 0.39406 -0.00783
 C1474 C 0.70838 0.40334 -0.00469
 N1475 N 0.65272 0.44014 -0.00636
 N1476 N 0.63490 0.43156 -0.00803
 C1477 C 0.61567 0.44289 -0.00828
 C1478 C 0.59707 0.43154 -0.00780
 C1479 C 0.57790 0.44181 -0.00717
 C1480 C 0.57698 0.46374 -0.00724
 C1481 C 0.59570 0.47519 -0.00830
 C1482 C 0.61496 0.46483 -0.00868
 H1483 H 0.72324 0.43342 0.00196
 H1484 H 0.69150 0.45392 -0.00004
 H1485 H 0.65572 0.39816 -0.01114
 H1486 H 0.68713 0.37729 -0.00965
 H1487 H 0.59747 0.41463 -0.00758
 H1488 H 0.56378 0.43253 -0.00656
 H1489 H 0.59546 0.49210 -0.00834
 H1490 H 0.62921 0.47389 -0.00915
 C1491 C 0.21019 -0.07806 0.48681
 C1492 C 0.19114 -0.06740 0.48576
 C1493 C 0.17236 -0.07790 0.48942
 C1494 C 0.17273 -0.09936 0.49384
 C1495 C 0.19165 -0.11002 0.49486
 C1496 C 0.21072 -0.09958 0.49154
 N1497 N 0.15318 -0.06643 0.48917
 N1498 N 0.13586 -0.07520 0.49336
 C1499 C 0.11650 -0.06408 0.49368
 C1500 C 0.09837 -0.07484 0.49926
 C1501 C 0.07928 -0.06441 0.50046
 C1502 C 0.07801 -0.04292 0.49600
 C1503 C 0.09627 -0.03220 0.49009
 C1504 C 0.11537 -0.04268 0.48898
 H1505 H 0.22419 -0.06914 0.48414
 H1506 H 0.19103 -0.05083 0.48235
 H1507 H 0.15842 -0.10788 0.49672
 H1508 H 0.19146 -0.12654 0.49855
 H1509 H 0.09909 -0.09135 0.50290
 H1510 H 0.06554 -0.07319 0.50493
 H1511 H 0.09585 -0.01566 0.48654
 H1512 H 0.12922 -0.03404 0.48461
 C1513 C 0.30739 -0.11840 0.48662
 C1514 C 0.32787 -0.11074 0.48672
 C1515 C 0.33200 -0.09029 0.49319
 C1516 C 0.31536 -0.07751 0.49955
 C1517 C 0.29494 -0.08509 0.49937
 C1518 C 0.29066 -0.10561 0.49280
 N1519 N 0.35310 -0.08278 0.49314
 N1520 N 0.35758 -0.06452 0.49955
 C1521 C 0.37838 -0.05633 0.49949
 C1522 C 0.38160 -0.03605 0.50687
 C1523 C 0.40151 -0.02719 0.50655
 C1524 C 0.41867 -0.03850 0.49878
 C1525 C 0.41542 -0.05902 0.49162
 C1526 C 0.39543 -0.06787 0.49196
 H1527 H 0.30472 -0.13426 0.48151
 H1528 H 0.34054 -0.12078 0.48178
 H1529 H 0.31811 -0.06166 0.50473
 H1530 H 0.28257 -0.07495 0.50480
 H1531 H 0.36857 -0.02702 0.51273
 H1532 H 0.40337 -0.01138 0.51223
 H1533 H 0.42825 -0.06819 0.48555
 H1534 H 0.39330 -0.08361 0.48619
 C1535 C -0.19780 0.37824 0.99345
 C1536 C -0.17709 0.38526 0.99408
 C1537 C -0.17242 0.40553 1.00067
 C1538 C -0.18877 0.41877 1.00672
 C1539 C -0.20942 0.41191 1.00600
 C1540 C -0.21445 0.39152 0.99927
 N1541 N -0.15113 0.41255 1.00074
 N1542 N -0.14630 0.43064 1.00738
 C1543 C -0.12541 0.43863 1.00731
 C1544 C -0.12193 0.45863 1.01528
 C1545 C -0.10203 0.46748 1.01475
 C1546 C -0.08509 0.45645 1.00613
 C1547 C -0.08856 0.43615 0.99842
 C1548 C -0.10856 0.42730 0.99899
 H1549 H -0.20049 0.36271 0.98748
 H1550 H -0.16464 0.37491 0.98919
 H1551 H -0.18564 0.43451 1.01201
 H1552 H -0.22131 0.42261 1.01139
 H1553 H -0.13479 0.46750 1.02174
 H1554 H -0.10001 0.48309 1.02090
 H1555 H -0.07589 0.42721 0.99170
 H1556 H -0.11089 0.41179 0.99273
 C1557 C -0.19276 0.61682 0.51227
 C1558 C -0.17307 0.60744 0.51212
 C1559 C -0.16968 0.58888 0.50119
 C1560 C -0.18631 0.57975 0.49023
 C1561 C -0.20606 0.58913 0.49035
 C1562 C -0.20959 0.60778 0.50148
 N1563 N -0.14925 0.57975 0.50155
 N1564 N -0.14487 0.56270 0.49233
 C1565 C -0.12429 0.55386 0.49302
 C1566 C -0.12052 0.53475 0.48312
 C1567 C -0.10067 0.52561 0.48379
 C1568 C -0.08417 0.53549 0.49439
 C1569 C -0.08802 0.55478 0.50418
 C1570 C -0.10786 0.56386 0.50352
 H1571 H -0.19469 0.63104 0.52108
 H1572 H -0.16038 0.61464 0.52063
 H1573 H -0.18404 0.56545 0.48153
 H1574 H -0.21841 0.58191 0.48141
 H1575 H -0.13303 0.52688 0.47494
 H1576 H -0.09829 0.51079 0.47603
 H1577 H -0.07573 0.56288 0.51246
 H1578 H -0.11033 0.57866 0.51128
 C1579 C 0.31135 1.11812 0.01071
 C1580 C 0.33120 1.10900 0.01031
 C1581 C 0.33470 1.09053 -0.00077
 C1582 C 0.31809 1.08132 -0.01170
 C1583 C 0.29828 1.09042 -0.01135
 C1584 C 0.29458 1.10885 0.00003
 N1585 N 0.35512 1.08138 -0.00065
 N1586 N 0.35893 1.06417 -0.00981
 C1587 C 0.37920 1.05472 -0.00983
 C1588 C 0.38176 1.03540 -0.01963
 C1589 C 0.40123 1.02556 -0.01984
 C1590 C 0.41859 1.03497 -0.01025
 C1591 C 0.41598 1.05448 -0.00049
 C1592 C 0.39644 1.06426 -0.00025
 H1593 H 0.30917 1.13223 0.01965
 H1594 H 0.34387 1.11628 0.01878
 H1595 H 0.32041 1.06713 -0.02056
 H1596 H 0.28598 1.08310 -0.02028
 H1597 H 0.36859 1.02790 -0.02709
 H1598 H 0.40264 1.01060 -0.02756
 H1599 H 0.42899 1.06218 0.00703
 H1600 H 0.39484 1.07923 0.00741
 C1601 C -0.00618 1.18993 1.11653
 C1602 C -0.00440 1.17058 1.10682
 C1603 C 0.00274 1.16917 1.08632
 C1604 C 0.00810 1.18747 1.07545
 C1605 C 0.00625 1.20700 1.08515
 C1606 C -0.00111 1.20850 1.10585
 N1607 N 0.00433 1.14888 1.07717
 N1608 N 0.01132 1.14556 1.05888
 C1609 C 0.01223 1.12475 1.05068
 C1610 C 0.01970 1.12143 1.03042
 C1611 C 0.02000 1.10129 1.02193
 C1612 C 0.01274 1.08413 1.03363
 C1613 C 0.00564 1.08752 1.05411
 C1614 C 0.00539 1.10757 1.06254
 H1615 H -0.01143 1.19041 1.13259
 H1616 H -0.00846 1.15656 1.11539
 H1617 H 0.01381 1.18668 1.05957
 H1618 H 0.01097 1.22062 1.07642
 H1619 H 0.02507 1.13451 1.02112
 H1620 H 0.02555 1.09922 1.00610
 H1621 H 0.00004 1.07471 1.06363
 H1622 H -0.00038 1.10964 1.07828
 C1623 C 0.51259 0.71867 0.58221
 C1624 C 0.51467 0.69981 0.57144
 C1625 C 0.51160 0.68078 0.58170
 C1626 C 0.50659 0.68072 0.60301
 C1627 C 0.50451 0.69949 0.61379
 C1628 C 0.50730 0.71879 0.60358
 N1629 N 0.51315 0.66176 0.57012
 N1630 N 0.51007 0.64412 0.57873
 C1631 C 0.51089 0.62493 0.56742
 C1632 C 0.50585 0.60643 0.57785
 C1633 C 0.50513 0.58755 0.56707
 C1634 C 0.50958 0.58686 0.54559
 C1635 C 0.51529 0.60541 0.53526
 C1636 C 0.51587 0.62433 0.54608
 H1637 H 0.51522 0.73284 0.57352
 H1638 H 0.51857 0.70001 0.55500
 H1639 H 0.50415 0.66620 0.61134
 H1640 H 0.50061 0.69898 0.63023
 H1641 H 0.50204 0.60674 0.59432
 H1642 H 0.50085 0.57354 0.57554
 H1643 H 0.51880 0.60540 0.51873
 H1644 H 0.51988 0.63847 0.53771
 C1645 C 0.01261 0.69141 0.38908
 C1646 C 0.01094 0.67149 0.39758
 C1647 C 0.00314 0.66871 0.41769
 C1648 C -0.00273 0.68619 0.42953
 C1649 C -0.00093 0.70628 0.42109
 C1650 C 0.00702 0.70919 0.40077
 N1651 N 0.00092 0.64789 0.42532
 N1652 N -0.00728 0.64351 0.44285
 C1653 C -0.00902 0.62229 0.44963
 C1654 C -0.01691 0.61796 0.46951
 C1655 C -0.01762 0.59739 0.47685
 C1656 C -0.01043 0.58085 0.46431
 C1657 C -0.00318 0.58525 0.44407
 C1658 C -0.00247 0.60575 0.43681
 H1659 H 0.01778 0.69285 0.37306
 H1660 H 0.01526 0.65807 0.38826
 H1661 H -0.00905 0.68430 0.44509
 H1662 H -0.00647 0.71929 0.43026
 H1663 H -0.02209 0.63057 0.47949
 H1664 H -0.02332 0.59454 0.49251
 H1665 H 0.00236 0.57291 0.43395
 H1666 H 0.00353 0.60866 0.42128
 C1667 C 0.49774 1.20899 -0.07520
 C1668 C 0.49576 1.18925 -0.06603
 C1669 C 0.49840 1.17117 -0.07794
 C1670 C 0.50303 1.17297 -0.09926
 C1671 C 0.50499 1.19261 -0.10845
 C1672 C 0.50252 1.21097 -0.09661
 N1673 N 0.49637 1.15119 -0.06809
 N1674 N 0.49894 1.13430 -0.07819
 C1675 C 0.49718 1.11421 -0.06858
 C1676 C 0.50144 1.09645 -0.08050
 C1677 C 0.50060 1.07661 -0.07146
 C1678 C 0.49536 1.07422 -0.05026
 C1679 C 0.49072 1.09212 -0.03842
 C1680 C 0.49167 1.11196 -0.04748
 H1681 H 0.49528 1.22237 -0.06534
 H1682 H 0.49210 1.18802 -0.04958
 H1683 H 0.50509 1.15922 -0.10885
 H1684 H 0.50842 1.19353 -0.12498
 H1685 H 0.50567 1.09802 -0.09678
 H1686 H 0.50421 1.06318 -0.08105
 H1687 H 0.48667 1.09086 -0.02206
 H1688 H 0.48826 1.12549 -0.03797
 C1689 C 0.51517 0.29353 -0.07672
 C1690 C 0.51646 0.31324 -0.06753
 C1691 C 0.50928 0.33091 -0.07814
 C1692 C 0.50094 0.32871 -0.09829
 C1693 C 0.49965 0.30897 -0.10754
 C1694 C 0.50652 0.29109 -0.09677
 N1695 N 0.51038 0.35075 -0.06791
 N1696 N 0.50418 0.36759 -0.07649
 C1697 C 0.50495 0.38723 -0.06584
 C1698 C 0.49737 0.40508 -0.07591
 C1699 C 0.49699 0.42430 -0.06560
 C1700 C 0.50423 0.42599 -0.04492
 C1701 C 0.51225 0.40808 -0.03501
 C1702 C 0.51259 0.38888 -0.04535
 H1703 H 0.52125 0.28028 -0.06816
 H1704 H 0.52306 0.31476 -0.05206
 H1705 H 0.49530 0.34219 -0.10682
 H1706 H 0.49300 0.30777 -0.12298
 H1707 H 0.49147 0.40402 -0.09170
 H1708 H 0.49076 0.43775 -0.07375
 H1709 H 0.51800 0.40880 -0.01914
 H1710 H 0.51858 0.37531 -0.03723
 C1711 C 0.01973 -0.20847 0.42126
 C1712 C 0.02130 -0.18898 0.43088
 C1713 C 0.01126 -0.17158 0.42235
 C1714 C -0.00036 -0.17384 0.40390
 C1715 C -0.00201 -0.19335 0.39429
 C1716 C 0.00788 -0.21093 0.40293
 N1717 N 0.01274 -0.15197 0.43293
 N1718 N 0.00468 -0.13537 0.42555
 C1719 C 0.00563 -0.11585 0.43635
 C1720 C -0.00314 -0.09819 0.42698
 C1721 C -0.00328 -0.07906 0.43740
 C1722 C 0.00532 -0.07728 0.45753
 C1723 C 0.01443 -0.09502 0.46679
 C1724 C 0.01460 -0.11414 0.45629
 H1725 H 0.02801 -0.22153 0.42810
 H1726 H 0.03039 -0.18742 0.44504
 H1727 H -0.00835 -0.16061 0.39703
 H1728 H -0.01136 -0.19467 0.38036
 H1729 H -0.01010 -0.09932 0.41163
 H1730 H -0.01042 -0.06575 0.42977
 H1731 H 0.02124 -0.09420 0.48223
 H1732 H 0.02148 -0.12761 0.46386
 C1733 C 0.51007 -0.18452 0.62191
 C1734 C 0.50966 -0.16421 0.61373
 C1735 C 0.50218 -0.16054 0.59353
 C1736 C 0.49480 -0.17742 0.58167
 C1737 C 0.49527 -0.19763 0.58976
 C1738 C 0.50322 -0.20151 0.60985
 N1739 N 0.50247 -0.13976 0.58513
 N1740 N 0.49555 -0.13607 0.56688
 C1741 C 0.49578 -0.11583 0.55740
 C1742 C 0.48743 -0.11370 0.53739
 C1743 C 0.48775 -0.09443 0.52722
 C1744 C 0.49652 -0.07680 0.53693
 C1745 C 0.50480 -0.07895 0.55718
 C1746 C 0.50444 -0.09833 0.56736
 H1747 H 0.51609 -0.18690 0.63749
 H1748 H 0.51532 -0.15134 0.62309
 H1749 H 0.48873 -0.17505 0.56609
 H1750 H 0.48919 -0.21019 0.58026
 H1751 H 0.48074 -0.12710 0.52958
 H1752 H 0.48119 -0.09342 0.51168
 H1753 H 0.51165 -0.06571 0.56512
 H1754 H 0.51102 -0.09966 0.58286
 C1755 C 0.00500 0.30585 1.12227
 C1756 C 0.00427 0.32628 1.11451
 C1757 C -0.00318 0.33025 1.09439
 C1758 C -0.00985 0.31345 1.08200
 C1759 C -0.00901 0.29302 1.08968
 C1760 C -0.00146 0.28890 1.10991
 N1761 N -0.00375 0.35136 1.08687
 N1762 N -0.01161 0.35594 1.06920
 C1763 C -0.01201 0.37680 1.06107
 C1764 C -0.02112 0.38019 1.04155
 C1765 C -0.02098 0.40005 1.03253
 C1766 C -0.01164 0.41702 1.04289
 C1767 C -0.00291 0.41367 1.06278
 C1768 C -0.00308 0.39371 1.07180
 H1769 H 0.01074 0.30348 1.13793
 H1770 H 0.00943 0.33908 1.12425
 H1771 H -0.01577 0.31608 1.06639
 H1772 H -0.01475 0.28055 1.07987
 H1773 H -0.02809 0.36730 1.03316
 H1774 H -0.02793 0.40198 1.01725
 H1775 H 0.00439 0.42636 1.07120
 H1776 H 0.00403 0.39146 1.08696
 C1777 C 0.75931 0.33184 0.03492
 C1778 C 0.76244 0.32065 0.05359
 C1779 C 0.75268 0.32697 0.07211
 C1780 C 0.73965 0.34454 0.07168
 C1781 C 0.73639 0.35555 0.05325
 C1782 C 0.74605 0.34951 0.03436
 N1783 N 0.75592 0.31561 0.09123
 N1784 N 0.74821 0.32250 0.10821
 C1785 C 0.74985 0.31243 0.12811
 C1786 C 0.74085 0.32240 0.14527
 C1787 C 0.74104 0.31304 0.16492
 C1788 C 0.75027 0.29332 0.16788
 C1789 C 0.75968 0.28341 0.15063
 C1790 C 0.75946 0.29289 0.13085
 H1791 H 0.76683 0.32606 0.02098
 H1792 H 0.77247 0.30704 0.05359
 H1793 H 0.73197 0.34998 0.08571
 H1794 H 0.72689 0.36943 0.05445
 H1795 H 0.73340 0.33747 0.14333
 H1796 H 0.73371 0.32123 0.17776
 H1797 H 0.76692 0.26822 0.15235
 H1798 H 0.76650 0.28490 0.11774
 C1799 C 0.25170 0.86947 0.55744
 C1800 C 0.25418 0.86074 0.57721
 C1801 C 0.25982 0.83978 0.57944
 C1802 C 0.26387 0.82776 0.56152
 C1803 C 0.26147 0.83656 0.54160
 C1804 C 0.25480 0.85735 0.53944
 N1805 N 0.26001 0.83103 0.60000
 N1806 N 0.26458 0.81205 0.60373
 C1807 C 0.26349 0.80367 0.62447
 C1808 C 0.26977 0.78306 0.62802
 C1809 C 0.26793 0.77417 0.64788
 C1810 C 0.25957 0.78576 0.66458
 C1811 C 0.25348 0.80656 0.66100
 C1812 C 0.25546 0.81545 0.64116
 H1813 H 0.24698 0.88568 0.55623
 H1814 H 0.25114 0.87017 0.59089
 H1815 H 0.26829 0.81149 0.56289
 H1816 H 0.26394 0.82693 0.52795
 H1817 H 0.27591 0.77379 0.61530
 H1818 H 0.27275 0.75810 0.65005
 H1819 H 0.24707 0.81595 0.67349
 H1820 H 0.25042 0.83142 0.63883
 C1821 C 0.77160 0.65141 0.55386
 C1822 C 0.77273 0.65923 0.57425
 C1823 C 0.75666 0.67175 0.58222
 C1824 C 0.73990 0.67727 0.56918
 C1825 C 0.73872 0.66940 0.54892
 C1826 C 0.75428 0.65599 0.54127
 N1827 N 0.75694 0.67756 0.60383
 N1828 N 0.74245 0.68863 0.61176
 C1829 C 0.74177 0.69410 0.63341
 C1830 C 0.72703 0.70878 0.64001
 C1831 C 0.72603 0.71481 0.66092
 C1832 C 0.73962 0.70597 0.67573
 C1833 C 0.75404 0.69075 0.66918
 C1834 C 0.75521 0.68494 0.64815
 H1835 H 0.78351 0.64076 0.54849
 H1836 H 0.78572 0.65482 0.58412
 H1837 H 0.72731 0.68700 0.57487
 H1838 H 0.72519 0.67309 0.53947
 H1839 H 0.71648 0.71581 0.62882
 H1840 H 0.71472 0.72653 0.66545
 H1841 H 0.76482 0.68379 0.68019
 H1842 H 0.76661 0.67340 0.64342
 C1843 C 0.27451 0.15620 0.05065
 C1844 C 0.27534 0.16581 0.07024
 C1845 C 0.25845 0.17769 0.07745
 C1846 C 0.24114 0.18084 0.06437
 C1847 C 0.24025 0.17115 0.04493
 C1848 C 0.25666 0.15827 0.03818
 N1849 N 0.25839 0.18487 0.09859
 N1850 N 0.24329 0.19546 0.10598
 C1851 C 0.24241 0.20159 0.12743
 C1852 C 0.22697 0.21565 0.13381
 C1853 C 0.22553 0.22172 0.15471
 C1854 C 0.23939 0.21350 0.16963
 C1855 C 0.25463 0.19906 0.16320
 C1856 C 0.25621 0.19323 0.14227
 H1857 H 0.28718 0.14612 0.04587
 H1858 H 0.28876 0.16324 0.08019
 H1859 H 0.22792 0.19002 0.06952
 H1860 H 0.22636 0.17302 0.03548
 H1861 H 0.21612 0.22204 0.12252
 H1862 H 0.21362 0.23286 0.15917
 H1863 H 0.26564 0.19256 0.17426
 H1864 H 0.26814 0.18216 0.13773
 C1865 C 0.28459 0.16432 0.95954
 C1866 C 0.28978 0.17624 0.94186
 C1867 C 0.27412 0.18645 0.93047
 C1868 C 0.25351 0.18610 0.93796
 C1869 C 0.24837 0.17441 0.95554
 C1870 C 0.26367 0.16268 0.96597
 N1871 N 0.27865 0.19515 0.91033
 N1872 N 0.26404 0.19633 0.89694
 C1873 C 0.26626 0.20424 0.87621
 C1874 C 0.25034 0.19978 0.86207
 C1875 C 0.25143 0.20694 0.84162
 C1876 C 0.26836 0.21918 0.83495
 C1877 C 0.28432 0.22401 0.84924
 C1878 C 0.28341 0.21634 0.86978
 H1879 H 0.29667 0.15544 0.96735
 H1880 H 0.30574 0.17641 0.93632
 H1881 H 0.24119 0.19423 0.92970
 H1882 H 0.23222 0.17388 0.96051
 H1883 H 0.23703 0.19055 0.86695
 H1884 H 0.23877 0.20319 0.83109
 H1885 H 0.29750 0.23347 0.84446
 H1886 H 0.29582 0.22004 0.88062
 C1887 C 0.77936 0.65507 0.45530
 C1888 C 0.78391 0.66514 0.43642
 C1889 C 0.77175 0.68205 0.42965
 C1890 C 0.75550 0.68938 0.44244
 C1891 C 0.75066 0.67902 0.46103
 C1892 C 0.76227 0.66155 0.46734
 N1893 N 0.77457 0.68996 0.40889
 N1894 N 0.76680 0.70731 0.40305
 C1895 C 0.76769 0.71416 0.38176
 C1896 C 0.76509 0.73539 0.37720
 C1897 C 0.76439 0.74228 0.35647
 C1898 C 0.76559 0.72789 0.33999
 C1899 C 0.76820 0.70658 0.34459
 C1900 C 0.76949 0.69979 0.36531
 H1901 H 0.78823 0.64136 0.45976
 H1902 H 0.79637 0.65924 0.42665
 H1903 H 0.74576 0.70228 0.43745
 H1904 H 0.73723 0.68401 0.47002
 H1905 H 0.76347 0.74659 0.38973
 H1906 H 0.76228 0.75877 0.35332
 H1907 H 0.76926 0.69520 0.33214
 H1908 H 0.77122 0.68326 0.36849
 C1909 C 0.23645 0.82412 0.46373
 C1910 C 0.23764 0.81082 0.44651
 C1911 C 0.25415 0.81260 0.43232
 C1912 C 0.27043 0.82676 0.43651
 C1913 C 0.26940 0.83986 0.45393
 C1914 C 0.25204 0.83913 0.46723
 N1915 N 0.25288 0.80165 0.41286
 N1916 N 0.26510 0.80584 0.39777
 C1917 C 0.26326 0.79630 0.37765
 C1918 C 0.27615 0.80347 0.36158
 C1919 C 0.27379 0.79592 0.34131
 C1920 C 0.25851 0.78084 0.33669
 C1921 C 0.24587 0.77323 0.35298
 C1922 C 0.24814 0.78099 0.37331
 H1923 H 0.22283 0.82348 0.47373
 H1924 H 0.22500 0.80003 0.44347
 H1925 H 0.28340 0.82841 0.42580
 H1926 H 0.28132 0.85162 0.45608
 H1927 H 0.28780 0.81530 0.36471
 H1928 H 0.28394 0.80201 0.32923
 H1929 H 0.23399 0.76160 0.34996
 H1930 H 0.23794 0.77524 0.38550
 C1931 C 0.75972 0.32875 0.96392
 C1932 C 0.76243 0.31547 0.94662
 C1933 C 0.75527 0.32145 0.92679
 C1934 C 0.74554 0.34093 0.92450
 C1935 C 0.74253 0.35389 0.94157
 C1936 C 0.74917 0.34801 0.96174
 N1937 N 0.75767 0.30791 0.90904
 N1938 N 0.75466 0.31531 0.89082
 C1939 C 0.75549 0.30375 0.87175
 C1940 C 0.75568 0.31515 0.85316
 C1941 C 0.75545 0.30504 0.83397
 C1942 C 0.75469 0.28313 0.83288
 C1943 C 0.75427 0.27155 0.85160
 C1944 C 0.75484 0.28181 0.87099
 H1945 H 0.76499 0.32336 0.97903
 H1946 H 0.77004 0.30050 0.94869
 H1947 H 0.74002 0.34619 0.90942
 H1948 H 0.73549 0.36894 0.93850
 H1949 H 0.75592 0.33206 0.85358
 H1950 H 0.75557 0.31446 0.81991
 H1951 H 0.75372 0.25465 0.85121
 H1952 H 0.75441 0.27273 0.88525
 C1953 C 0.84114 0.45519 0.27434
 C1954 C 0.83021 0.43644 0.27708
 C1955 C 0.81744 0.42867 0.26114
 C1956 C 0.81485 0.44046 0.24279
 C1957 C 0.82588 0.45905 0.23999
 C1958 C 0.83948 0.46631 0.25554
 N1959 N 0.80879 0.40810 0.26309
 N1960 N 0.79692 0.40045 0.24913
 C1961 C 0.78924 0.37945 0.24994
 C1962 C 0.77428 0.37323 0.23534
 C1963 C 0.76714 0.35262 0.23493
 C1964 C 0.77508 0.33772 0.24900
 C1965 C 0.79016 0.34401 0.26366
 C1966 C 0.79712 0.36473 0.26420
 H1967 H 0.85194 0.46020 0.28628
 H1968 H 0.83244 0.42748 0.29124
 H1969 H 0.80510 0.43483 0.23021
 H1970 H 0.82455 0.46733 0.22529
 H1971 H 0.76823 0.38439 0.22416
 H1972 H 0.75558 0.34831 0.22339
 H1973 H 0.79651 0.33294 0.27478
 H1974 H 0.80884 0.36915 0.27552
 C1975 C 0.34448 0.94961 0.76827
 C1976 C 0.33435 0.93056 0.77199
 C1977 C 0.32038 0.92242 0.75727
 C1978 C 0.31569 0.93420 0.73933
 C1979 C 0.32590 0.95306 0.73554
 C1980 C 0.34084 0.96060 0.74965
 N1981 N 0.31252 0.90158 0.75984
 N1982 N 0.30012 0.89366 0.74651
 C1983 C 0.29283 0.87255 0.74745
 C1984 C 0.27778 0.86621 0.73303
 C1985 C 0.27093 0.84554 0.73256
 C1986 C 0.27920 0.83064 0.74646
 C1987 C 0.29438 0.83704 0.76099
 C1988 C 0.30110 0.85787 0.76154
 H1989 H 0.35615 0.95499 0.77921
 H1990 H 0.33812 0.92166 0.78588
 H1991 H 0.30489 0.92838 0.72774
 H1992 H 0.32286 0.96132 0.72109
 H1993 H 0.27143 0.87734 0.72198
 H1994 H 0.25930 0.84121 0.72111
 H1995 H 0.30101 0.82598 0.77195
 H1996 H 0.31292 0.86241 0.77271
 C1997 C 0.13422 0.93735 0.26193
 C1998 C 0.14407 0.91842 0.26615
 C1999 C 0.16556 0.91771 0.26982
 C2000 C 0.17702 0.93644 0.27045
 C2001 C 0.16704 0.95557 0.26650
 C2002 C 0.14570 0.95599 0.26156
 N2003 N 0.17524 0.89761 0.27100
 N2004 N 0.19483 0.89471 0.27254
 C2005 C 0.20327 0.87394 0.27197
 C2006 C 0.22486 0.87086 0.27365
 C2007 C 0.23343 0.85082 0.27136
 C2008 C 0.22046 0.83362 0.26710
 C2009 C 0.19878 0.83675 0.26597
 C2010 C 0.19028 0.85662 0.26843
 H2011 H 0.11771 0.93740 0.25828
 H2012 H 0.13511 0.90410 0.26563
 H2013 H 0.19368 0.93622 0.27327
 H2014 H 0.17612 0.96983 0.26621
 H2015 H 0.23509 0.88405 0.27632
 H2016 H 0.25019 0.84888 0.27233
 H2017 H 0.18830 0.82382 0.26299
 H2018 H 0.17354 0.85846 0.26708
 C2019 C 0.63215 0.43246 0.76160
 C2020 C 0.64142 0.41316 0.76546
 C2021 C 0.66282 0.41177 0.76944
 C2022 C 0.67473 0.43019 0.77085
 C2023 C 0.66534 0.44967 0.76722
 C2024 C 0.64414 0.45080 0.76187
 N2025 N 0.67207 0.39143 0.77002
 N2026 N 0.69158 0.38826 0.77195
 C2027 C 0.70006 0.36755 0.77079
 C2028 C 0.72152 0.36452 0.77352
 C2029 C 0.73035 0.34469 0.77087
 C2030 C 0.71782 0.32755 0.76522
 C2031 C 0.69621 0.33059 0.76291
 C2032 C 0.68741 0.35034 0.76571
 H2033 H 0.61573 0.43304 0.75762
 H2034 H 0.63210 0.39910 0.76436
 H2035 H 0.69132 0.42947 0.77394
 H2036 H 0.67482 0.46367 0.76741
 H2037 H 0.73147 0.37763 0.77736
 H2038 H 0.74705 0.34289 0.77279
 H2039 H 0.68605 0.31774 0.75876
 H2040 H 0.67078 0.35222 0.76346
 C2041 C 0.67420 0.52774 0.74482
 C2042 C 0.68528 0.54649 0.74607
 C2043 C 0.67824 0.56262 0.75899
 C2044 C 0.66087 0.55916 0.77199
 C2045 C 0.64998 0.54023 0.77102
 C2046 C 0.65619 0.52471 0.75691
 N2047 N 0.68785 0.58277 0.75722
 N2048 N 0.67982 0.59907 0.76525
 C2049 C 0.68888 0.61939 0.76265
 C2050 C 0.67888 0.63664 0.77153
 C2051 C 0.68708 0.65673 0.76903
 C2052 C 0.70556 0.65994 0.75756
 C2053 C 0.71546 0.64255 0.74847
 C2054 C 0.70720 0.62247 0.75097
 H2055 H 0.67900 0.51605 0.73360
 H2056 H 0.69863 0.54896 0.73598
 H2057 H 0.65518 0.57137 0.78218
 H2058 H 0.63585 0.53834 0.78010
 H2059 H 0.66468 0.63450 0.78044
 H2060 H 0.67906 0.66969 0.77632
 H2061 H 0.72973 0.64439 0.73960
 H2062 H 0.71517 0.60939 0.74383
 C2063 C 0.15133 0.04191 0.27546
 C2064 C 0.16152 0.06106 0.27814
 C2065 C 0.17505 0.06867 0.26272
 C2066 C 0.17941 0.05624 0.24521
 C2067 C 0.16918 0.03720 0.24249
 C2068 C 0.15453 0.03022 0.25725
 N2069 N 0.18257 0.08971 0.26416
 N2070 N 0.19410 0.09766 0.25006
 C2071 C 0.20060 0.11905 0.25042
 C2072 C 0.21505 0.12595 0.23557
 C2073 C 0.22124 0.14687 0.23499
 C2074 C 0.21282 0.16136 0.24916
 C2075 C 0.19813 0.15441 0.26396
 C2076 C 0.19213 0.13342 0.26465
 H2077 H 0.13985 0.03707 0.28683
 H2078 H 0.15800 0.07050 0.29170
 H2079 H 0.18989 0.06168 0.23312
 H2080 H 0.17190 0.02840 0.22833
 H2081 H 0.22154 0.11505 0.22440
 H2082 H 0.23256 0.15169 0.22338
 H2083 H 0.19145 0.16513 0.27518
 H2084 H 0.18077 0.12848 0.27615
 C2085 C 0.33041 0.03578 0.76086
 C2086 C 0.32087 0.05495 0.76556
 C2087 C 0.33121 0.07381 0.76134
 C2088 C 0.35156 0.07324 0.75317
 C2089 C 0.36095 0.05425 0.74838
 C2090 C 0.35029 0.03538 0.75165
 N2091 N 0.32054 0.09333 0.76413
 N2092 N 0.32944 0.11044 0.75926
 C2093 C 0.31961 0.13046 0.76045
 C2094 C 0.33093 0.14789 0.75380
 C2095 C 0.32163 0.16756 0.75312
 C2096 C 0.30071 0.17022 0.75922
 C2097 C 0.28947 0.15274 0.76645
 C2098 C 0.29883 0.13296 0.76700
 H2099 H 0.32196 0.02138 0.76356
 H2100 H 0.30520 0.05513 0.77189
 H2101 H 0.36004 0.08750 0.74992
 H2102 H 0.37650 0.05432 0.74172
 H2103 H 0.34696 0.14611 0.74871
 H2104 H 0.33082 0.18066 0.74763
 H2105 H 0.27334 0.15426 0.77126
 H2106 H 0.28979 0.11965 0.77218
 C2107 C 0.83502 0.54999 0.23269
 C2108 C 0.82560 0.56953 0.23429
 C2109 C 0.82393 0.57943 0.25362
 C2110 C 0.83099 0.56909 0.27167
 C2111 C 0.84063 0.54945 0.27006
 C2112 C 0.84328 0.54003 0.25043
 N2113 N 0.81649 0.60051 0.25395
 N2114 N 0.81179 0.61034 0.27053
 C2115 C 0.80552 0.63183 0.26947
 C2116 C 0.79353 0.64048 0.28555
 C2117 C 0.78652 0.66117 0.28419
 C2118 C 0.79196 0.67368 0.26695
 C2119 C 0.80461 0.66516 0.25122
 C2120 C 0.81116 0.64440 0.25235
 H2121 H 0.83641 0.54294 0.21740
 H2122 H 0.82011 0.57730 0.22031
 H2123 H 0.82988 0.57653 0.28678
 H2124 H 0.84697 0.54221 0.28396
 H2125 H 0.78918 0.63102 0.29889
 H2126 H 0.77688 0.66740 0.29660
 H2127 H 0.80897 0.67439 0.23772
 H2128 H 0.82063 0.63814 0.23984
 C2129 C 0.93633 0.25478 0.13700
 C2130 C 0.91670 0.25862 0.14550
 C2131 C 0.91451 0.26305 0.16672
 C2132 C 0.93244 0.26460 0.17932
 C2133 C 0.95227 0.26094 0.17071
 C2134 C 0.95425 0.25541 0.14960
 N2135 N 0.89379 0.26445 0.17499
 N2136 N 0.88965 0.26749 0.19417
 C2137 C 0.86843 0.26743 0.20141
 C2138 C 0.86415 0.27148 0.22245
 C2139 C 0.84366 0.27028 0.23004
 C2140 C 0.82711 0.26479 0.21667
 C2141 C 0.83147 0.26107 0.19549
 C2142 C 0.85186 0.26243 0.18794
 H2143 H 0.93750 0.25088 0.12060
 H2144 H 0.90302 0.25747 0.13565
 H2145 H 0.93107 0.26803 0.19579
 H2146 H 0.96591 0.26150 0.18066
 H2147 H 0.87674 0.27529 0.23304
 H2148 H 0.84085 0.27320 0.24644
 H2149 H 0.81914 0.25694 0.18472
 H2150 H 0.85468 0.25917 0.17161
 C2151 C 0.44206 0.75987 0.63616
 C2152 C 0.42224 0.76168 0.64489
 C2153 C 0.41983 0.76494 0.66629
 C2154 C 0.43765 0.76744 0.67889
 C2155 C 0.45767 0.76582 0.67006
 C2156 C 0.45995 0.76139 0.64872
 N2157 N 0.39913 0.76420 0.67466
 N2158 N 0.39479 0.76615 0.69395
 C2159 C 0.37366 0.76405 0.70114
 C2160 C 0.36890 0.76770 0.72215
 C2161 C 0.34847 0.76504 0.72953
 C2162 C 0.33248 0.75843 0.71599
 C2163 C 0.33736 0.75485 0.69490
 C2164 C 0.35766 0.75767 0.68755
 H2165 H 0.44344 0.75676 0.61960
 H2166 H 0.40864 0.75982 0.63504
 H2167 H 0.43611 0.77002 0.69551
 H2168 H 0.47128 0.76703 0.67999
 H2169 H 0.38106 0.77253 0.73283
 H2170 H 0.34525 0.76791 0.74586
 H2171 H 0.32546 0.74988 0.68399
 H2172 H 0.36087 0.75464 0.67125
 C2173 C 0.46218 0.27611 0.84977
 C2174 C 0.44383 0.27898 0.83824
 C2175 C 0.43655 0.26322 0.82496
 C2176 C 0.44854 0.24502 0.82234
 C2177 C 0.46674 0.24210 0.83395
 C2178 C 0.47336 0.25734 0.84822
 N2179 N 0.41613 0.26506 0.81599
 N2180 N 0.40870 0.25107 0.80401
 C2181 C 0.38776 0.25177 0.79622
 C2182 C 0.38158 0.23711 0.78130
 C2183 C 0.36096 0.23655 0.77421
 C2184 C 0.34603 0.25053 0.78220
 C2185 C 0.35230 0.26527 0.79720
 C2186 C 0.37300 0.26596 0.80409
 H2187 H 0.46674 0.28787 0.86095
 H2188 H 0.43470 0.29304 0.84046
 H2189 H 0.44332 0.23261 0.81216
 H2190 H 0.47514 0.22748 0.83256
 H2191 H 0.39277 0.22597 0.77525
 H2192 H 0.35665 0.22497 0.76269
 H2193 H 0.34123 0.27634 0.80358
 H2194 H 0.37737 0.27732 0.81578
 C2195 C 0.96380 0.77603 0.34700
 C2196 C 0.94506 0.77957 0.33622
 C2197 C 0.93294 0.76276 0.32930
 C2198 C 0.94016 0.74236 0.33259
 C2199 C 0.95846 0.73878 0.34366
 C2200 C 0.97030 0.75549 0.35175
 N2201 N 0.91291 0.76638 0.32000
 N2202 N 0.90309 0.75141 0.31141
 C2203 C 0.88246 0.75319 0.30316
 C2204 C 0.87485 0.73684 0.29094
 C2205 C 0.85441 0.73720 0.28354
 C2206 C 0.84102 0.75383 0.28858
 C2207 C 0.84864 0.77026 0.30098
 C2208 C 0.86930 0.77003 0.30812
 H2209 H 0.97226 0.78944 0.35262
 H2210 H 0.93975 0.79543 0.33366
 H2211 H 0.93134 0.72903 0.32713
 H2212 H 0.96331 0.72271 0.34563
 H2213 H 0.88482 0.72369 0.28723
 H2214 H 0.84900 0.72427 0.27411
 H2215 H 0.83869 0.78333 0.30501
 H2216 H 0.87485 0.78270 0.31779
 C2217 C 0.04930 0.77832 0.34883
 C2218 C 0.06786 0.78275 0.33804
 C2219 C 0.07917 0.76660 0.32854
 C2220 C 0.07087 0.74633 0.32841
 C2221 C 0.05235 0.74197 0.33885
 C2222 C 0.04186 0.75770 0.34994
 N2223 N 0.09963 0.77040 0.32038
 N2224 N 0.11299 0.75567 0.32051
 C2225 C 0.13362 0.75740 0.31224
 C2226 C 0.14804 0.74182 0.31732
 C2227 C 0.16801 0.74202 0.30868
 C2228 C 0.17376 0.75765 0.29440
 C2229 C 0.15932 0.77349 0.28946
 C2230 C 0.13939 0.77347 0.29847
 H2231 H 0.04151 0.79072 0.35725
 H2232 H 0.07402 0.79849 0.33812
 H2233 H 0.07907 0.73371 0.32072
 H2234 H 0.04664 0.72605 0.33891
 H2235 H 0.14367 0.72932 0.32786
 H2236 H 0.17871 0.72954 0.31268
 H2237 H 0.16337 0.78577 0.27855
 H2238 H 0.12837 0.78559 0.29427
 C2239 C 0.54652 0.26584 0.83790
 C2240 C 0.56519 0.26881 0.82683
 C2241 C 0.58435 0.26301 0.83570
 C2242 C 0.58469 0.25493 0.85609
 C2243 C 0.56616 0.25192 0.86706
 C2244 C 0.54685 0.25689 0.85792
 N2245 N 0.60312 0.26440 0.82354
 N2246 N 0.62048 0.25806 0.83086
 C2247 C 0.63957 0.25818 0.81925
 C2248 C 0.65747 0.25002 0.82869
 C2249 C 0.67618 0.24865 0.81762
 C2250 C 0.67735 0.25550 0.79678
 C2251 C 0.65940 0.26414 0.78745
 C2252 C 0.64062 0.26542 0.79858
 H2253 H 0.53184 0.26978 0.83051
 H2254 H 0.56469 0.27509 0.81114
 H2255 H 0.59925 0.25051 0.86343
 H2256 H 0.56693 0.24547 0.88267
 H2257 H 0.65682 0.24439 0.84462
 H2258 H 0.68968 0.24203 0.82536
 H2259 H 0.65975 0.26959 0.77145
 H2260 H 0.62694 0.27178 0.79096
 C2261 C 0.54664 0.77863 0.66094
 C2262 C 0.56550 0.77995 0.67190
 C2263 C 0.57189 0.76356 0.68494
 C2264 C 0.55845 0.74650 0.68813
 C2265 C 0.53971 0.74514 0.67711
 C2266 C 0.53403 0.76083 0.66289
 N2267 N 0.59279 0.76347 0.69294
 N2268 N 0.59960 0.74845 0.70407
 C2269 C 0.62080 0.74716 0.71101
 C2270 C 0.62618 0.73171 0.72549
 C2271 C 0.64681 0.72953 0.73220
 C2272 C 0.66255 0.74263 0.72426
 C2273 C 0.65717 0.75796 0.70945
 C2274 C 0.63643 0.76029 0.70295
 H2275 H 0.54284 0.79063 0.64967
 H2276 H 0.57572 0.79315 0.66926
 H2277 H 0.56295 0.73366 0.69817
 H2278 H 0.53028 0.73118 0.67866
 H2279 H 0.61431 0.72135 0.73164
 H2280 H 0.65043 0.71754 0.74358
 H2281 H 0.66891 0.76838 0.70316
 H2282 H 0.63267 0.77221 0.69155
 C2283 C 0.04052 0.26949 0.16153
 C2284 C 0.05949 0.27133 0.17217
 C2285 C 0.06694 0.25484 0.18450
 C2286 C 0.05448 0.23699 0.18722
 C2287 C 0.03557 0.23512 0.17654
 C2288 C 0.02876 0.25108 0.16308
 N2289 N 0.08789 0.25573 0.19227
 N2290 N 0.09585 0.24096 0.20297
 C2291 C 0.11725 0.24116 0.20946
 C2292 C 0.12421 0.22602 0.22362
 C2293 C 0.14512 0.22549 0.22988
 C2294 C 0.15953 0.23995 0.22176
 C2295 C 0.15253 0.25495 0.20730
 C2296 C 0.13157 0.25563 0.20129
 H2297 H 0.03594 0.28172 0.15086
 H2298 H 0.06898 0.28513 0.16987
 H2299 H 0.05984 0.22404 0.19670
 H2300 H 0.02680 0.22071 0.17785
 H2301 H 0.11336 0.21466 0.22989
 H2302 H 0.15000 0.21373 0.24102
 H2303 H 0.16318 0.26641 0.20087
 H2304 H 0.12661 0.26735 0.19014
 C2305 C -0.09232 1.01436 0.79503
 C2306 C -0.07953 1.01609 0.81255
 C2307 C -0.07307 0.99825 0.82330
 C2308 C -0.07867 0.97848 0.81573
 C2309 C -0.09173 0.97671 0.79834
 C2310 C -0.09969 0.99470 0.78840
 N2311 N -0.06213 1.00072 0.84258
 N2312 N -0.05364 0.98549 0.85212
 C2313 C -0.04428 0.98819 0.87220
 C2314 C -0.03100 0.97271 0.88005
 C2315 C -0.02238 0.97465 0.90000
 C2316 C -0.02739 0.99192 0.91256
 C2317 C -0.04078 1.00740 0.90467
 C2318 C -0.04901 1.00565 0.88460
 H2319 H -0.09705 1.02853 0.78709
 H2320 H -0.07499 1.03142 0.81803
 H2321 H -0.07349 0.96443 0.82360
 H2322 H -0.09562 0.96122 0.79296
 H2323 H -0.02737 0.95911 0.87070
 H2324 H -0.01219 0.96244 0.90578
 H2325 H -0.04481 1.02091 0.91400
 H2326 H -0.05942 1.01772 0.87894
 C2327 C 0.41880 0.49512 0.28724
 C2328 C 0.43072 0.49585 0.30552
 C2329 C 0.42107 0.49840 0.32493
 C2330 C 0.39923 0.49959 0.32598
 C2331 C 0.38732 0.49867 0.30784
 C2332 C 0.39686 0.49687 0.28812
 N2333 N 0.43360 0.49987 0.34336
 N2334 N 0.42549 0.50499 0.36074
 C2335 C 0.43714 0.50645 0.37969
 C2336 C 0.42694 0.51368 0.39753
 C2337 C 0.43747 0.51487 0.41651
 C2338 C 0.45848 0.50867 0.41802
 C2339 C 0.46879 0.50155 0.39998
 C2340 C 0.45821 0.50050 0.38091
 H2341 H 0.42702 0.49316 0.27270
 H2342 H 0.44756 0.49468 0.30455
 H2343 H 0.39133 0.50127 0.34081
 H2344 H 0.37049 0.49967 0.30916
 H2345 H 0.41069 0.51827 0.39673
 H2346 H 0.42899 0.52034 0.43006
 H2347 H 0.48496 0.49666 0.40061
 H2348 H 0.46638 0.49483 0.36726
 C2349 C 0.57481 -0.00194 0.27709
 C2350 C 0.56304 -0.00109 0.29549
 C2351 C 0.57227 -0.00580 0.31470
 C2352 C 0.59320 -0.01227 0.31524
 C2353 C 0.60491 -0.01318 0.29698
 C2354 C 0.59597 -0.00802 0.27756
 N2355 N 0.56072 -0.00272 0.33359
 N2356 N 0.56975 -0.00413 0.35121
 C2357 C 0.55937 -0.00103 0.37069
 C2358 C 0.57101 -0.00330 0.38897
 C2359 C 0.56155 -0.00099 0.40840
 C2360 C 0.54016 0.00369 0.40991
 C2361 C 0.52855 0.00648 0.39147
 C2362 C 0.53809 0.00410 0.37195
 H2363 H 0.56756 0.00316 0.26272
 H2364 H 0.54698 0.00414 0.29488
 H2365 H 0.60078 -0.01591 0.32990
 H2366 H 0.62133 -0.01692 0.29831
 H2367 H 0.58745 -0.00712 0.38812
 H2368 H 0.57101 -0.00314 0.42225
 H2369 H 0.51203 0.01003 0.39211
 H2370 H 0.52884 0.00602 0.35795
 C2371 C 0.07755 0.50682 0.78801
 C2372 C 0.06649 0.50792 0.80679
 C2373 C 0.07609 0.50254 0.82561
 C2374 C 0.09709 0.49630 0.82558
 C2375 C 0.10816 0.49523 0.80692
 C2376 C 0.09854 0.50013 0.78778
 N2377 N 0.06430 0.50342 0.84454
 N2378 N 0.07232 0.49801 0.86188
 C2379 C 0.06100 0.49857 0.88107
 C2380 C 0.07097 0.49177 0.89921
 C2381 C 0.06044 0.49184 0.91825
 C2382 C 0.03964 0.49879 0.91944
 C2383 C 0.02966 0.50573 0.90114
 C2384 C 0.04025 0.50559 0.88207
 H2385 H 0.06947 0.51144 0.77400
 H2386 H 0.05035 0.51295 0.80667
 H2387 H 0.10496 0.49221 0.83997
 H2388 H 0.12437 0.49042 0.80738
 H2389 H 0.08697 0.48635 0.89857
 H2390 H 0.06864 0.48646 0.93201
 H2391 H 0.01366 0.51118 0.90151
 H2392 H 0.03225 0.51093 0.86818
 C2393 C 0.11741 0.50655 0.69152
 C2394 C 0.10965 0.50568 0.67111
 C2395 C 0.09002 0.49695 0.66711
 C2396 C 0.07824 0.48893 0.68376
 C2397 C 0.08591 0.48984 0.70410
 C2398 C 0.10549 0.49886 0.70826
 N2399 N 0.08223 0.49662 0.64615
 N2400 N 0.06462 0.48856 0.64174
 C2401 C 0.05631 0.48845 0.62101
 C2402 C 0.06704 0.49764 0.60424
 C2403 C 0.05811 0.49796 0.58435
 C2404 C 0.03830 0.48912 0.58084
 C2405 C 0.02780 0.47966 0.59767
 C2406 C 0.03676 0.47937 0.61755
 H2407 H 0.13256 0.51349 0.69419
 H2408 H 0.11891 0.51190 0.65840
 H2409 H 0.06309 0.48196 0.68110
 H2410 H 0.07658 0.48317 0.71652
 H2411 H 0.08218 0.50476 0.60653
 H2412 H 0.06668 0.50535 0.57177
 H2413 H 0.01255 0.47270 0.59556
 H2414 H 0.02835 0.47225 0.63038
 C2415 C 0.61524 1.00907 0.18365
 C2416 C 0.60848 1.00830 0.16289
 C2417 C 0.59332 0.99383 0.15674
 C2418 C 0.58530 0.97974 0.17156
 C2419 C 0.59205 0.98047 0.19226
 C2420 C 0.60690 0.99532 0.19861
 N2421 N 0.58576 0.99418 0.13568
 N2422 N 0.57095 0.98231 0.12981
 C2423 C 0.56254 0.98268 0.10911
 C2424 C 0.54508 0.97035 0.10479
 C2425 C 0.53556 0.97116 0.08521
 C2426 C 0.54347 0.98428 0.06945
 C2427 C 0.56142 0.99623 0.07363
 C2428 C 0.57083 0.99552 0.09334
 H2429 H 0.62652 1.02083 0.18808
 H2430 H 0.61476 1.01928 0.15166
 H2431 H 0.57367 0.96829 0.16720
 H2432 H 0.58566 0.96934 0.20327
 H2433 H 0.53857 0.96037 0.11680
 H2434 H 0.52187 0.96162 0.08250
 H2435 H 0.56787 1.00651 0.06184
 H2436 H 0.58437 1.00517 0.09633
 C2437 C 0.37420 0.48975 0.19272
 C2438 C 0.38149 0.49026 0.17209
 C2439 C 0.40039 0.50011 0.16724
 C2440 C 0.41164 0.51002 0.18321
 C2441 C 0.40441 0.50951 0.20373
 C2442 C 0.38584 0.49896 0.20886
 N2443 N 0.40821 0.49947 0.14627
 N2444 N 0.42582 0.50746 0.14171
 C2445 C 0.43472 0.50699 0.12123
 C2446 C 0.45433 0.51606 0.11828
 C2447 C 0.46393 0.51564 0.09875
 C2448 C 0.45403 0.50610 0.08164
 C2449 C 0.43420 0.49707 0.08460
 C2450 C 0.42461 0.49748 0.10427
 H2451 H 0.35976 0.48170 0.19600
 H2452 H 0.37257 0.48266 0.15994
 H2453 H 0.42616 0.51801 0.17990
 H2454 H 0.41345 0.51746 0.21556
 H2455 H 0.46226 0.52341 0.13126
 H2456 H 0.47914 0.52282 0.09712
 H2457 H 0.42613 0.48962 0.07178
 H2458 H 0.40942 0.49035 0.10622
 C2459 C -0.12212 -0.01523 0.69496
 C2460 C -0.11463 -0.01478 0.67440
 C2461 C -0.09677 -0.00321 0.66932
 C2462 C -0.08675 0.00835 0.68501
 C2463 C -0.09421 0.00795 0.70547
 C2464 C -0.11181 -0.00407 0.71076
 N2465 N -0.08875 -0.00378 0.64840
 N2466 N -0.07173 0.00533 0.64366
 C2467 C -0.06282 0.00499 0.62316
 C2468 C -0.04349 0.01461 0.62007
 C2469 C -0.03391 0.01429 0.60051
 C2470 C -0.04357 0.00437 0.58349
 C2471 C -0.06317 -0.00513 0.58657
 C2472 C -0.07270 -0.00488 0.60627
 H2473 H -0.13556 -0.02481 0.69856
 H2474 H -0.12252 -0.02378 0.66249
 H2475 H -0.07303 0.01758 0.68152
 H2476 H -0.08616 0.01708 0.71716
 H2477 H -0.03574 0.02228 0.63297
 H2478 H -0.01890 0.02187 0.59876
 H2479 H -0.07105 -0.01291 0.57383
 H2480 H -0.08769 -0.01242 0.60830
 C2481 C -0.18636 0.88590 1.00404
 C2482 C -0.16643 0.89448 1.00286
 C2483 C -0.16368 0.91509 0.99637
 C2484 C -0.18118 0.92717 0.99097
 C2485 C -0.20125 0.91862 0.99221
 C2486 C -0.20414 0.89784 0.99897
 N2487 N -0.14295 0.92326 0.99555
 N2488 N -0.13880 0.94157 0.98904
 C2489 C -0.11781 0.94924 0.98877
 C2490 C -0.11387 0.96933 0.98113
 C2491 C -0.09359 0.97737 0.98122
 C2492 C -0.07690 0.96541 0.98908
 C2493 C -0.08093 0.94513 0.99652
 C2494 C -0.10116 0.93712 0.99635
 H2495 H -0.18796 0.86977 1.00893
 H2496 H -0.15304 0.88500 1.00697
 H2497 H -0.17935 0.94316 0.98579
 H2498 H -0.21416 0.92838 0.98761
 H2499 H -0.12657 0.97881 0.97524
 H2500 H -0.09105 0.99305 0.97539
 H2501 H -0.06847 0.93545 1.00262
 H2502 H -0.10379 0.92151 1.00233
 C2503 C 0.30997 0.38913 0.49512
 C2504 C 0.32916 0.39914 0.49382
 C2505 C 0.33022 0.42086 0.49323
 C2506 C 0.31173 0.43265 0.49381
 C2507 C 0.29233 0.42261 0.49520
 C2508 C 0.29123 0.40062 0.49594
 N2509 N 0.35042 0.43025 0.49268
 N2510 N 0.35348 0.44981 0.49119
 C2511 C 0.37428 0.45800 0.49129
 C2512 C 0.37749 0.47937 0.48806
 C2513 C 0.39769 0.48767 0.48849
 C2514 C 0.41499 0.47465 0.49236
 C2515 C 0.41167 0.45319 0.49550
 C2516 C 0.39156 0.44494 0.49492
 H2517 H 0.30973 0.37222 0.49571
 H2518 H 0.34333 0.38992 0.49345
 H2519 H 0.31230 0.44955 0.49346
 H2520 H 0.27851 0.43220 0.49588
 H2521 H 0.36432 0.48961 0.48528
 H2522 H 0.39972 0.50428 0.48607
 H2523 H 0.42461 0.44270 0.49842
 H2524 H 0.38954 0.42835 0.49750
 C2525 C 0.30271 0.62203 -0.00483
 C2526 C 0.32275 0.61359 -0.00472
 C2527 C 0.32583 0.59254 0.00001
 C2528 C 0.30850 0.57989 0.00462
 C2529 C 0.28831 0.58831 0.00443
 C2530 C 0.28512 0.60956 -0.00040
 N2531 N 0.34670 0.58456 0.00010
 N2532 N 0.35094 0.56582 0.00514
 C2533 C 0.37190 0.55804 0.00509
 C2534 C 0.37550 0.53744 0.01136
 C2535 C 0.39570 0.52927 0.01136
 C2536 C 0.41277 0.54160 0.00499
 C2537 C 0.40910 0.56236 -0.00123
 C2538 C 0.38885 0.57052 -0.00116
 H2539 H 0.30088 0.63849 -0.00834
 H2540 H 0.33598 0.62352 -0.00822
 H2541 H 0.31055 0.56353 0.00841
 H2542 H 0.27554 0.57806 0.00832
 H2543 H 0.36258 0.52768 0.01622
 H2544 H 0.39790 0.51322 0.01623
 H2545 H 0.42185 0.57229 -0.00621
 H2546 H 0.38645 0.58653 -0.00608
 C2547 C -0.21432 0.07836 0.49806
 C2548 C -0.19569 0.06696 0.49923
 C2549 C -0.17667 0.07714 0.50244
 C2550 C -0.17637 0.09891 0.50446
 C2551 C -0.19480 0.11029 0.50344
 C2552 C -0.21430 0.10033 0.50056
 N2553 N -0.15775 0.06527 0.50328
 N2554 N -0.14015 0.07440 0.50419
 C2555 C -0.12076 0.06346 0.50512
 C2556 C -0.10231 0.07500 0.50367
 C2557 C -0.08301 0.06497 0.50409
 C2558 C -0.08186 0.04315 0.50622
 C2559 C -0.10044 0.03159 0.50806
 C2560 C -0.11979 0.04167 0.50741
 H2561 H -0.22837 0.06969 0.49482
 H2562 H -0.19604 0.05016 0.49734
 H2563 H -0.16185 0.10723 0.50681
 H2564 H -0.19386 0.12713 0.50489
 H2565 H -0.10294 0.09182 0.50199
 H2566 H -0.06899 0.07433 0.50280
 H2567 H -0.10004 0.01476 0.50967
 H2568 H -0.13392 0.03249 0.50866
 C2569 C 0.69104 0.12367 0.49768
 C2570 C 0.67058 0.11621 0.49559
 C2571 C 0.66683 0.09545 0.49001
 C2572 C 0.68384 0.08218 0.48641
 C2573 C 0.70422 0.08947 0.48861
 C2574 C 0.70836 0.11035 0.49450
 N2575 N 0.64576 0.08802 0.48852
 N2576 N 0.64173 0.06952 0.48245
 C2577 C 0.62097 0.06127 0.48148
 C2578 C 0.61816 0.04081 0.47439
 C2579 C 0.59835 0.03169 0.47442
 C2580 C 0.58091 0.04290 0.48164
 C2581 C 0.58372 0.06369 0.48827
 C2582 C 0.60357 0.07279 0.48819
 H2583 H 0.69285 0.13971 0.50242
 H2584 H 0.65759 0.12664 0.49849
 H2585 H 0.68142 0.06607 0.48191
 H2586 H 0.71660 0.07861 0.48498
 H2587 H 0.63147 0.03178 0.46917
 H2588 H 0.59681 0.01570 0.46917
 H2589 H 0.57065 0.07282 0.49388
 H2590 H 0.60536 0.08865 0.49374
 C2591 C 0.18720 0.61894 1.01057
 C2592 C 0.16734 0.60988 1.01062
 C2593 C 0.16438 0.58960 1.00315
 C2594 C 0.18165 0.57833 0.99568
 C2595 C 0.20154 0.58735 0.99566
 C2596 C 0.20463 0.60780 1.00316
 N2597 N 0.14373 0.58095 1.00318
 N2598 N 0.13984 0.56271 0.99631
 C2599 C 0.11918 0.55409 0.99631
 C2600 C 0.11617 0.53386 0.98867
 C2601 C 0.09628 0.52489 0.98856
 C2602 C 0.07892 0.53604 0.99613
 C2603 C 0.08200 0.55644 1.00370
 C2604 C 0.10193 0.56538 1.00381
 H2605 H 0.18874 0.63465 1.01644
 H2606 H 0.15417 0.61875 1.01641
 H2607 H 0.17976 0.56265 0.98969
 H2608 H 0.21436 0.57840 0.98928
 H2609 H 0.12933 0.52500 0.98282
 H2610 H 0.09453 0.50918 0.98259
 H2611 H 0.06903 0.56551 1.00964
 H2612 H 0.10383 0.58107 1.00978
 C2613 C 0.19445 0.38257 0.49447
 C2614 C 0.17406 0.39036 0.49423
 C2615 C 0.16984 0.41062 0.50116
 C2616 C 0.18628 0.42297 0.50873
 C2617 C 0.20668 0.41522 0.50896
 C2618 C 0.21112 0.39500 0.50154
 N2619 N 0.14886 0.41835 0.50008
 N2620 N 0.14409 0.43673 0.50593
 C2621 C 0.12324 0.44474 0.50469
 C2622 C 0.11929 0.46495 0.51192
 C2623 C 0.09919 0.47336 0.51091
 C2624 C 0.08258 0.46167 0.50255
 C2625 C 0.08663 0.44134 0.49524
 C2626 C 0.10677 0.43294 0.49631
 H2627 H 0.19705 0.36697 0.48869
 H2628 H 0.16152 0.38065 0.48842
 H2629 H 0.18341 0.43864 0.51437
 H2630 H 0.21892 0.42509 0.51509
 H2631 H 0.13185 0.47421 0.51838
 H2632 H 0.09669 0.48904 0.51670
 H2633 H 0.07423 0.43187 0.48877
 H2634 H 0.10945 0.41727 0.49059
 C2635 C 0.71305 0.92032 0.00485
 C2636 C 0.69336 0.92969 0.00496
 C2637 C 0.67577 0.91855 -0.00146
 C2638 C 0.67805 0.89775 -0.00800
 C2639 C 0.69776 0.88831 -0.00810
 C2640 C 0.71557 0.89951 -0.00183
 N2641 N 0.65586 0.92874 -0.00110
 N2642 N 0.63912 0.91969 -0.00678
 C2643 C 0.61933 0.93013 -0.00639
 C2644 C 0.60159 0.91950 -0.01335
 C2645 C 0.58211 0.92937 -0.01348
 C2646 C 0.58004 0.95013 -0.00658
 C2647 C 0.59790 0.96069 0.00059
 C2648 C 0.61736 0.95080 0.00067
 H2649 H 0.72617 0.92932 0.01045
 H2650 H 0.69178 0.94568 0.01020
 H2651 H 0.66464 0.88877 -0.01299
 H2652 H 0.69892 0.87231 -0.01324
 H2653 H 0.60289 0.90355 -0.01880
 H2654 H 0.56870 0.92073 -0.01905
 H2655 H 0.59692 0.97666 0.00603
 H2656 H 0.63084 0.95936 0.00616
 C2657 C 0.00355 0.80723 0.88233
 C2658 C 0.00345 0.82716 0.89097
 C2659 C 0.00391 0.82975 0.91256
 C2660 C 0.00462 0.81208 0.92557
 C2661 C 0.00498 0.79200 0.91692
 C2662 C 0.00461 0.78930 0.89508
 N2663 N 0.00363 0.85053 0.92068
 N2664 N 0.00141 0.85453 0.93999
 C2665 C 0.00140 0.87559 0.94747
 C2666 C -0.00373 0.87947 0.96832
 C2667 C -0.00392 0.89990 0.97598
 C2668 C 0.00129 0.91680 0.96289
 C2669 C 0.00649 0.91282 0.94196
 C2670 C 0.00646 0.89243 0.93429
 H2671 H 0.00276 0.80577 0.86551
 H2672 H 0.00279 0.84067 0.88080
 H2673 H 0.00491 0.81378 0.94237
 H2674 H 0.00521 0.77888 0.92749
 H2675 H -0.00764 0.86664 0.97863
 H2676 H -0.00787 0.90244 0.99221
 H2677 H 0.01051 0.92547 0.93146
 H2678 H 0.01052 0.88983 0.91810
 C2679 C 0.49309 0.29657 0.42333
 C2680 C 0.49187 0.31561 0.43396
 C2681 C 0.49256 0.33451 0.42301
 C2682 C 0.49430 0.33424 0.40120
 C2683 C 0.49543 0.31532 0.39056
 C2684 C 0.49512 0.29616 0.40141
 N2685 N 0.49143 0.35377 0.43428
 N2686 N 0.49304 0.37128 0.42499
 C2687 C 0.49209 0.39079 0.43576
 C2688 C 0.49598 0.40912 0.42455
 C2689 C 0.49590 0.42843 0.43461
 C2690 C 0.49172 0.42973 0.45612
 C2691 C 0.48737 0.41128 0.46727
 C2692 C 0.48763 0.39194 0.45719
 H2693 H 0.49206 0.28246 0.43246
 H2694 H 0.49034 0.31564 0.45079
 H2695 H 0.49469 0.34863 0.39231
 H2696 H 0.49649 0.31561 0.37369
 H2697 H 0.49936 0.40839 0.40801
 H2698 H 0.49919 0.44233 0.42553
 H2699 H 0.48412 0.41174 0.48385
 H2700 H 0.48449 0.37793 0.46614
 C2701 C -0.01446 0.29412 0.59459
 C2702 C -0.01614 0.31200 0.58224
 C2703 C 0.00168 0.32312 0.57645
 C2704 C 0.02141 0.31559 0.58228
 C2705 C 0.02312 0.29787 0.59491
 C2706 C 0.00510 0.28755 0.60225
 N2707 N -0.00077 0.34263 0.56588
 N2708 N 0.01451 0.35232 0.55770
 C2709 C 0.01187 0.37260 0.54870
 C2710 C 0.02728 0.38051 0.53539
 C2711 C 0.02535 0.40059 0.52701
 C2712 C 0.00820 0.41321 0.53232
 C2713 C -0.00717 0.40528 0.54579
 C2714 C -0.00545 0.38506 0.55377
 H2715 H -0.02860 0.28578 0.59854
 H2716 H -0.03142 0.31742 0.57744
 H2717 H 0.03546 0.32374 0.57760
 H2718 H 0.03857 0.29250 0.59900
 H2719 H 0.04077 0.37110 0.53151
 H2720 H 0.03747 0.40643 0.51675
 H2721 H -0.02058 0.41467 0.55004
 H2722 H -0.01744 0.37934 0.56422
 C2723 C 0.49439 0.80878 0.11888
 C2724 C 0.49453 0.82777 0.10829
 C2725 C 0.50101 0.82878 0.08754
 C2726 C 0.50730 0.81046 0.07729
 C2727 C 0.50704 0.79132 0.08785
 C2728 C 0.50021 0.79015 0.10874
 N2729 N 0.50143 0.84873 0.07758
 N2730 N 0.50797 0.85149 0.05904
 C2731 C 0.50804 0.87186 0.04982
 C2732 C 0.51497 0.87431 0.02927
 C2733 C 0.51467 0.89399 0.01979
 C2734 C 0.50739 0.91155 0.03081
 C2735 C 0.50079 0.90904 0.05158
 C2736 C 0.50108 0.88941 0.06099
 H2737 H 0.49007 0.80878 0.13521
 H2738 H 0.48995 0.84187 0.11640
 H2739 H 0.51268 0.81099 0.06128
 H2740 H 0.51277 0.77767 0.07976
 H2741 H 0.52040 0.86091 0.02053
 H2742 H 0.51990 0.89538 0.00378
 H2743 H 0.49513 0.92220 0.06055
 H2744 H 0.49570 0.88795 0.07694
 C2745 C 0.51362 0.69426 0.12233
 C2746 C 0.51269 0.67400 0.11420
 C2747 C 0.49994 0.66956 0.09704
 C2748 C 0.48784 0.68561 0.08822
 C2749 C 0.48871 0.70581 0.09634
 C2750 C 0.50175 0.71042 0.11337
 N2751 N 0.49982 0.64885 0.08858
 N2752 N 0.48943 0.64436 0.07226
 C2753 C 0.48931 0.62389 0.06329
 C2754 C 0.49986 0.60705 0.07261
 C2755 C 0.49996 0.58744 0.06302
 C2756 C 0.48962 0.58436 0.04388
 C2757 C 0.47887 0.60125 0.03481
 C2758 C 0.47869 0.62078 0.04449
 H2759 H 0.52398 0.69736 0.13529
 H2760 H 0.52214 0.66179 0.12111
 H2761 H 0.47774 0.68257 0.07504
 H2762 H 0.47901 0.71776 0.08935
 H2763 H 0.50814 0.60908 0.08719
 H2764 H 0.50839 0.57479 0.07045
 H2765 H 0.47065 0.59943 0.02017
 H2766 H 0.47047 0.63363 0.03718
 C2767 C 0.01438 0.19290 0.62360
 C2768 C 0.01334 0.17239 0.61617
 C2769 C 0.00316 0.16798 0.59739
 C2770 C -0.00631 0.18432 0.58623
 C2771 C -0.00527 0.20479 0.59360
 C2772 C 0.00536 0.20942 0.61224
 N2773 N 0.00296 0.14697 0.58972
 N2774 N -0.00586 0.14241 0.57254
 C2775 C -0.00599 0.12177 0.56405
 C2776 C -0.01566 0.11860 0.54479
 C2777 C -0.01547 0.09894 0.53548
 C2778 C -0.00558 0.08195 0.54533
 C2779 C 0.00386 0.08509 0.56491
 C2780 C 0.00369 0.10487 0.57420
 H2781 H 0.02258 0.19572 0.63803
 H2782 H 0.02067 0.15993 0.62496
 H2783 H -0.01446 0.18133 0.57174
 H2784 H -0.01300 0.21691 0.58472
 H2785 H -0.02318 0.13152 0.53686
 H2786 H -0.02300 0.09712 0.52046
 H2787 H 0.01160 0.07236 0.57293
 H2788 H 0.01127 0.10699 0.58914
 C2789 C 0.51484 0.21333 0.41330
 C2790 C 0.51763 0.19330 0.42146
 C2791 C 0.50809 0.17611 0.41207
 C2792 C 0.49600 0.17909 0.39400
 C2793 C 0.49320 0.19919 0.38579
 C2794 C 0.50228 0.21659 0.39558
 N2795 N 0.51036 0.15602 0.42168
 N2796 N 0.50226 0.13953 0.41416
 C2797 C 0.50408 0.11974 0.42449
 C2798 C 0.49491 0.10215 0.41541
 C2799 C 0.49538 0.08286 0.42567
 C2800 C 0.50501 0.08085 0.44532
 C2801 C 0.51460 0.09850 0.45419
 C2802 C 0.51415 0.11775 0.44388
 H2803 H 0.52263 0.22624 0.42090
 H2804 H 0.52709 0.19117 0.43530
 H2805 H 0.48848 0.16600 0.38645
 H2806 H 0.48351 0.20109 0.37212
 H2807 H 0.48710 0.10347 0.40049
 H2808 H 0.48785 0.06963 0.41835
 H2809 H 0.52221 0.09753 0.46924
 H2810 H 0.52137 0.13112 0.45123
 C2811 C 0.02279 0.70635 0.91372
 C2812 C 0.02394 0.68704 0.92388
 C2813 C 0.01199 0.67015 0.91698
 C2814 C -0.00097 0.67271 0.89944
 C2815 C -0.00218 0.69205 0.88928
 C2816 C 0.00951 0.70917 0.89644
 N2817 N 0.01290 0.65081 0.92832
 N2818 N 0.00294 0.63467 0.92243
 C2819 C 0.00330 0.61536 0.93380
 C2820 C -0.00695 0.59808 0.92535
 C2821 C -0.00731 0.57905 0.93603
 C2822 C 0.00250 0.57692 0.95558
 C2823 C 0.01281 0.59434 0.96409
 C2824 C 0.01326 0.61340 0.95327
 H2825 H 0.03230 0.71908 0.91943
 H2826 H 0.03406 0.68528 0.93730
 H2827 H -0.01042 0.65990 0.89381
 H2828 H -0.01277 0.69374 0.87623
 H2829 H -0.01473 0.59938 0.91041
 H2830 H -0.01546 0.56604 0.92897
 H2831 H 0.02055 0.59326 0.97907
 H2832 H 0.02125 0.62659 0.96016
 C2833 C 0.22632 0.67304 0.95898
 C2834 C 0.22203 0.68298 0.93990
 C2835 C 0.22506 0.67239 0.92097
 C2836 C 0.23141 0.65138 0.92142
 C2837 C 0.23576 0.64156 0.94033
 C2838 C 0.23388 0.65246 0.95924
 N2839 N 0.22317 0.68343 0.90153
 N2840 N 0.22748 0.67442 0.88436
 C2841 C 0.22725 0.68466 0.86448
 C2842 C 0.22208 0.70587 0.86224
 C2843 C 0.22378 0.71560 0.84270
 C2844 C 0.23086 0.70433 0.82520
 C2845 C 0.23545 0.68299 0.82755
 C2846 C 0.23359 0.67329 0.84698
 H2847 H 0.22472 0.68170 0.97339
 H2848 H 0.21710 0.69915 0.93982
 H2849 H 0.23367 0.64270 0.90712
 H2850 H 0.24115 0.62553 0.94014
 H2851 H 0.21717 0.71496 0.87559
 H2852 H 0.22013 0.73207 0.84143
 H2853 H 0.24077 0.67379 0.81441
 H2854 H 0.23762 0.65694 0.84854
 C2855 C 0.76637 0.15892 0.44935
 C2856 C 0.76449 0.16855 0.42998
 C2857 C 0.74497 0.17392 0.42211
 C2858 C 0.72712 0.17054 0.43447
 C2859 C 0.72894 0.16080 0.45412
 C2860 C 0.74861 0.15401 0.46147
 N2861 N 0.74410 0.18174 0.40117
 N2862 N 0.72774 0.18878 0.39238
 C2863 C 0.72850 0.19571 0.37105
 C2864 C 0.71288 0.20892 0.36335
 C2865 C 0.71417 0.21693 0.34302
 C2866 C 0.73092 0.21146 0.32987
 C2867 C 0.74610 0.19751 0.33735
 C2868 C 0.74501 0.18984 0.35777
 H2869 H 0.78197 0.15532 0.45471
 H2870 H 0.77839 0.17146 0.42080
 H2871 H 0.71181 0.17470 0.42866
 H2872 H 0.71478 0.15740 0.46267
 H2873 H 0.70002 0.21350 0.37331
 H2874 H 0.70216 0.22756 0.33766
 H2875 H 0.75921 0.19305 0.32766
 H2876 H 0.75718 0.17946 0.36324
 C2877 C 0.22819 0.34505 0.45507
 C2878 C 0.22563 0.33351 0.43673
 C2879 C 0.24193 0.32107 0.42913
 C2880 C 0.26042 0.31925 0.44077
 C2881 C 0.26302 0.33085 0.45898
 C2882 C 0.24716 0.34428 0.46593
 N2883 N 0.24020 0.31222 0.40871
 N2884 N 0.25471 0.30122 0.40076
 C2885 C 0.25371 0.29374 0.37975
 C2886 C 0.26869 0.27942 0.37284
 C2887 C 0.26850 0.27236 0.35220
 C2888 C 0.25348 0.27985 0.33805
 C2889 C 0.23861 0.29443 0.34502
 C2890 C 0.23865 0.30124 0.36570
 H2891 H 0.21599 0.35566 0.45987
 H2892 H 0.21135 0.33511 0.42784
 H2893 H 0.27324 0.30972 0.43526
 H2894 H 0.27781 0.33014 0.46714
 H2895 H 0.28049 0.27369 0.38349
 H2896 H 0.28016 0.26114 0.34730
 H2897 H 0.22672 0.30037 0.33456
 H2898 H 0.22705 0.31249 0.37063
 C2899 C 0.73142 0.84483 0.95792
 C2900 C 0.72890 0.83345 0.93947
 C2901 C 0.74462 0.81989 0.93260
 C2902 C 0.76236 0.81679 0.94510
 C2903 C 0.76492 0.82823 0.96345
 C2904 C 0.74978 0.84283 0.96966
 N2905 N 0.74316 0.81112 0.91210
 N2906 N 0.75712 0.79901 0.90478
 C2907 C 0.75641 0.79143 0.88378
 C2908 C 0.77023 0.77563 0.87770
 C2909 C 0.77014 0.76816 0.85721
 C2910 C 0.75641 0.77669 0.84233
 C2911 C 0.74282 0.79283 0.84840
 C2912 C 0.74272 0.80005 0.86896
 H2913 H 0.71978 0.85630 0.96209
 H2914 H 0.71518 0.83602 0.92994
 H2915 H 0.77472 0.80636 0.94018
 H2916 H 0.77925 0.82649 0.97227
 H2917 H 0.78100 0.76901 0.88893
 H2918 H 0.78082 0.75575 0.85299
 H2919 H 0.73195 0.79959 0.83736
 H2920 H 0.73205 0.81244 0.87323
 C2921 C 0.74696 0.86949 0.06126
 C2922 C 0.74363 0.86067 0.08085
 C2923 C 0.73960 0.83933 0.08287
 C2924 C 0.73768 0.82696 0.06483
 C2925 C 0.74080 0.83589 0.04504
 C2926 C 0.74614 0.85708 0.04325
 N2927 N 0.73934 0.83065 0.10345
 N2928 N 0.73711 0.81129 0.10735
 C2929 C 0.73858 0.80366 0.12837
 C2930 C 0.73514 0.78246 0.13253
 C2931 C 0.73781 0.77453 0.15276
 C2932 C 0.74420 0.78772 0.16911
 C2933 C 0.74733 0.80904 0.16489
 C2934 C 0.74450 0.81693 0.14480
 H2935 H 0.75085 0.88592 0.06019
 H2936 H 0.74510 0.87033 0.09463
 H2937 H 0.73454 0.81040 0.06606
 H2938 H 0.74014 0.82609 0.03130
 H2939 H 0.73065 0.77203 0.12004
 H2940 H 0.73524 0.75803 0.15550
 H2941 H 0.75206 0.81968 0.17712
 H2942 H 0.74731 0.83338 0.14206
 C2943 C 0.27120 0.33815 0.54579
 C2944 C 0.27067 0.32696 0.56440
 C2945 C 0.25196 0.32443 0.57524
 C2946 C 0.23336 0.33244 0.56673
 C2947 C 0.23388 0.34387 0.54802
 C2948 C 0.25297 0.34737 0.53778
 N2949 N 0.25292 0.31535 0.59560
 N2950 N 0.23704 0.30960 0.60605
 C2951 C 0.23970 0.30196 0.62692
 C2952 C 0.22474 0.28868 0.63574
 C2953 C 0.22766 0.28056 0.65585
 C2954 C 0.24535 0.28615 0.66759
 C2955 C 0.25999 0.29996 0.65890
 C2956 C 0.25730 0.30762 0.63871
 H2957 H 0.28606 0.34014 0.53797
 H2958 H 0.28506 0.32076 0.57077
 H2959 H 0.21871 0.33069 0.57498
 H2960 H 0.21963 0.35085 0.54217
 H2961 H 0.21105 0.28428 0.62688
 H2962 H 0.21607 0.27006 0.66228
 H2963 H 0.27377 0.30449 0.66756
 H2964 H 0.26895 0.31808 0.63232
 C2965 C 0.72468 0.16142 0.53922
 C2966 C 0.72158 0.17169 0.55841
 C2967 C 0.73867 0.17718 0.57098
 C2968 C 0.75889 0.17310 0.56368
 C2969 C 0.76196 0.16245 0.54506
 C2970 C 0.74496 0.15568 0.53286
 N2971 N 0.73557 0.18566 0.59153
 N2972 N 0.75093 0.19359 0.60135
 C2973 C 0.75018 0.20095 0.62243
 C2974 C 0.76649 0.21364 0.62938
 C2975 C 0.76743 0.22009 0.65013
 C2976 C 0.75227 0.21357 0.66458
 C2977 C 0.73592 0.20061 0.65768
 C2978 C 0.73476 0.19447 0.63666
 H2979 H 0.71116 0.15656 0.53041
 H2980 H 0.70585 0.17484 0.56373
 H2981 H 0.77244 0.17737 0.57280
 H2982 H 0.77790 0.15937 0.54032
 H2983 H 0.77862 0.21847 0.61863
 H2984 H 0.78028 0.22997 0.65494
 H2985 H 0.72396 0.19544 0.66846
 H2986 H 0.72220 0.18436 0.63165
 C2987 C 0.22213 0.65849 0.04667
 C2988 C 0.22037 0.66827 0.06612
 C2989 C 0.23606 0.68173 0.07319
 C2990 C 0.25295 0.68638 0.05996
 C2991 C 0.25474 0.67657 0.04059
 C2992 C 0.23967 0.66206 0.03405
 N2993 N 0.23550 0.68896 0.09437
 N2994 N 0.24983 0.70052 0.10184
 C2995 C 0.25027 0.70688 0.12327
 C2996 C 0.26526 0.72142 0.12958
 C2997 C 0.26656 0.72762 0.15044
 C2998 C 0.25299 0.71914 0.16550
 C2999 C 0.23808 0.70431 0.15915
 C3000 C 0.23666 0.69830 0.13820
 H3001 H 0.21064 0.64697 0.04228
 H3002 H 0.20731 0.66448 0.07618
 H3003 H 0.26527 0.69678 0.06499
 H3004 H 0.26848 0.67944 0.03115
 H3005 H 0.27597 0.72800 0.11826
 H3006 H 0.27827 0.73901 0.15478
 H3007 H 0.22732 0.69756 0.17032
 H3008 H 0.22507 0.68687 0.13372
 C3009 C 0.17381 0.53147 0.76394
 C3010 C 0.18646 0.54924 0.76338
 C3011 C 0.18442 0.56374 0.74715
 C3012 C 0.17078 0.55935 0.73049
 C3013 C 0.15838 0.54137 0.73087
 C3014 C 0.15927 0.52774 0.74799
 N3015 N 0.19463 0.58357 0.74900
 N3016 N 0.18955 0.59895 0.73747
 C3017 C 0.19846 0.61934 0.73967
 C3018 C 0.19040 0.63552 0.72746
 C3019 C 0.19780 0.65587 0.72972
 C3020 C 0.21364 0.66047 0.74421
 C3021 C 0.22191 0.64412 0.75639
 C3022 C 0.21430 0.62370 0.75421
 H3023 H 0.17457 0.52119 0.77736
 H3024 H 0.19688 0.55240 0.77629
 H3025 H 0.16900 0.57028 0.71771
 H3026 H 0.14701 0.53896 0.71863
 H3027 H 0.17813 0.63237 0.71628
 H3028 H 0.19115 0.66797 0.71994
 H3029 H 0.23413 0.64712 0.76765
 H3030 H 0.22072 0.61141 0.76389
 C3031 C 0.63044 0.05817 0.24707
 C3032 C 0.63938 0.07793 0.24679
 C3033 C 0.65972 0.08076 0.23969
 C3034 C 0.67076 0.06363 0.23149
 C3035 C 0.66146 0.04372 0.23100
 C3036 C 0.64143 0.04059 0.23963
 N3037 N 0.66849 0.10122 0.24145
 N3038 N 0.68797 0.10505 0.24151
 C3039 C 0.69533 0.12609 0.24397
 C3040 C 0.71647 0.12977 0.24814
 C3041 C 0.72377 0.15018 0.25116
 C3042 C 0.71003 0.16729 0.24974
 C3043 C 0.68883 0.16351 0.24560
 C3044 C 0.68154 0.14316 0.24286
 H3045 H 0.61462 0.05686 0.25287
 H3046 H 0.63060 0.09109 0.25277
 H3047 H 0.68649 0.06562 0.22566
 H3048 H 0.67050 0.03069 0.22518
 H3049 H 0.72727 0.11680 0.24914
 H3050 H 0.74023 0.15261 0.25412
 H3051 H 0.67784 0.17632 0.24440
 H3052 H 0.66511 0.14081 0.23970
 C3053 C 0.82565 0.02800 0.73503
 C3054 C 0.81421 0.04628 0.73063
 C3055 C 0.81927 0.06518 0.74041
 C3056 C 0.83541 0.06538 0.75515
 C3057 C 0.84656 0.04735 0.75972
 C3058 C 0.84217 0.02820 0.74969
 N3059 N 0.80833 0.08416 0.73539
 N3060 N 0.81651 0.10158 0.74037
 C3061 C 0.80719 0.12171 0.73760
 C3062 C 0.81941 0.13911 0.74229
 C3063 C 0.81084 0.15909 0.74213
 C3064 C 0.78963 0.16216 0.73736
 C3065 C 0.77743 0.14468 0.73188
 C3066 C 0.78616 0.12451 0.73202
 H3067 H 0.82111 0.01380 0.72716
 H3068 H 0.80165 0.04576 0.71936
 H3069 H 0.83965 0.07967 0.76309
 H3070 H 0.85939 0.04912 0.77050
 H3071 H 0.83562 0.13711 0.74664
 H3072 H 0.82082 0.17209 0.74624
 H3073 H 0.76106 0.14651 0.72814
 H3074 H 0.77642 0.11119 0.72845
 C3075 C 0.33095 0.54339 0.26782
 C3076 C 0.32033 0.56228 0.26615
 C3077 C 0.31786 0.57195 0.24676
 C3078 C 0.32519 0.56188 0.22869
 C3079 C 0.33602 0.54286 0.23036
 C3080 C 0.33961 0.53387 0.25007
 N3081 N 0.30987 0.59282 0.24649
 N3082 N 0.30433 0.60257 0.23008
 C3083 C 0.29804 0.62403 0.23154
 C3084 C 0.28444 0.63262 0.21672
 C3085 C 0.27758 0.65334 0.21868
 C3086 C 0.28478 0.66590 0.23518
 C3087 C 0.29896 0.65738 0.24957
 C3088 C 0.30536 0.63664 0.24789
 H3089 H 0.33315 0.53662 0.28317
 H3090 H 0.31469 0.56987 0.28015
 H3091 H 0.32351 0.56919 0.21354
 H3092 H 0.34262 0.53587 0.21647
 H3093 H 0.27876 0.62312 0.20396
 H3094 H 0.26670 0.65956 0.20732
 H3095 H 0.30471 0.66660 0.26250
 H3096 H 0.31610 0.63045 0.25938
 C3097 C 0.33782 0.45013 0.23107
 C3098 C 0.32679 0.43130 0.22979
 C3099 C 0.31695 0.42294 0.24747
 C3100 C 0.31741 0.43415 0.26628
 C3101 C 0.32858 0.45282 0.26761
 C3102 C 0.33933 0.46069 0.25016
 N3103 N 0.30822 0.40236 0.24642
 N3104 N 0.29844 0.39416 0.26168
 C3105 C 0.29106 0.37304 0.26109
 C3106 C 0.27737 0.36600 0.27663
 C3107 C 0.27038 0.34528 0.27672
 C3108 C 0.27734 0.33116 0.26144
 C3109 C 0.29128 0.33826 0.24601
 C3110 C 0.29797 0.35901 0.24575
 H3111 H 0.34621 0.45569 0.21753
 H3112 H 0.32661 0.42277 0.21521
 H3113 H 0.30994 0.42805 0.28016
 H3114 H 0.32948 0.46076 0.28249
 H3115 H 0.27206 0.37662 0.28864
 H3116 H 0.25966 0.34028 0.28881
 H3117 H 0.29681 0.32783 0.23392
 H3118 H 0.30872 0.36402 0.23370
 C3119 C 0.82342 0.95452 0.74861
 C3120 C 0.81188 0.93586 0.74909
 C3121 C 0.82211 0.91648 0.75009
 C3122 C 0.84403 0.91596 0.74943
 C3123 C 0.85546 0.93445 0.74910
 C3124 C 0.84530 0.95387 0.74930
 N3125 N 0.81026 0.89762 0.75288
 N3126 N 0.81944 0.88006 0.75472
 C3127 C 0.80885 0.86064 0.75809
 C3128 C 0.82057 0.84223 0.75745
 C3129 C 0.81098 0.82285 0.76015
 C3130 C 0.78939 0.82150 0.76382
 C3131 C 0.77769 0.84008 0.76511
 C3132 C 0.78732 0.85953 0.76215
 H3133 H 0.81532 0.96937 0.74891
 H3134 H 0.79500 0.93653 0.74948
 H3135 H 0.85240 0.90128 0.74996
 H3136 H 0.87234 0.93363 0.74953
 H3137 H 0.83720 0.84291 0.75451
 H3138 H 0.82046 0.80888 0.75911
 H3139 H 0.76100 0.83954 0.76775
 H3140 H 0.77799 0.87361 0.76288
 C3141 C 0.65227 0.95569 0.21742
 C3142 C 0.66235 0.93657 0.21413
 C3143 C 0.67746 0.92942 0.22822
 C3144 C 0.68307 0.94209 0.24522
 C3145 C 0.67263 0.96094 0.24880
 C3146 C 0.65686 0.96765 0.23517
 N3147 N 0.68534 0.90854 0.22624
 N3148 N 0.70192 0.90270 0.23550
 C3149 C 0.70899 0.88147 0.23521
 C3150 C 0.73014 0.87735 0.23859
 C3151 C 0.73735 0.85680 0.23980
 C3152 C 0.72337 0.83996 0.23836
 C3153 C 0.70208 0.84406 0.23504
 C3154 C 0.69496 0.86470 0.23318
 H3155 H 0.63982 0.96036 0.20697
 H3156 H 0.65779 0.92693 0.20104
 H3157 H 0.69456 0.93682 0.25644
 H3158 H 0.67608 0.96977 0.26278
 H3159 H 0.74105 0.89013 0.24040
 H3160 H 0.75381 0.85407 0.24255
 H3161 H 0.69101 0.83133 0.23388
 H3162 H 0.67848 0.86758 0.23085
 C3163 C 0.13346 0.43628 0.74606
 C3164 C 0.14318 0.41704 0.74319
 C3165 C 0.16431 0.41602 0.73795
 C3166 C 0.17555 0.43463 0.73468
 C3167 C 0.16574 0.45402 0.73744
 C3168 C 0.14476 0.45494 0.74372
 N3169 N 0.17401 0.39590 0.73744
 N3170 N 0.19325 0.39311 0.73336
 C3171 C 0.20233 0.37265 0.73429
 C3172 C 0.22328 0.36995 0.72877
 C3173 C 0.23276 0.35034 0.73064
 C3174 C 0.22142 0.33311 0.73828
 C3175 C 0.20030 0.33585 0.74354
 C3176 C 0.19083 0.35538 0.74152
 H3177 H 0.11715 0.43656 0.75047
 H3178 H 0.13437 0.40282 0.74564
 H3179 H 0.19194 0.43417 0.73061
 H3180 H 0.17474 0.46821 0.73557
 H3181 H 0.23234 0.38312 0.72324
 H3182 H 0.24907 0.34877 0.72646
 H3183 H 0.19106 0.32291 0.74933
 H3184 H 0.17460 0.35703 0.74594
 C3185 C 0.04062 0.76109 0.82546
 C3186 C 0.05790 0.75906 0.81244
 C3187 C 0.06934 0.74050 0.81208
 C3188 C 0.06245 0.72331 0.82393
 C3189 C 0.04506 0.72536 0.83713
 C3190 C 0.03457 0.74458 0.83860
 N3191 N 0.08921 0.74078 0.80190
 N3192 N 0.10019 0.72463 0.79821
 C3193 C 0.12089 0.72701 0.79000
 C3194 C 0.13023 0.71085 0.77858
 C3195 C 0.15057 0.71318 0.77076
 C3196 C 0.16201 0.73144 0.77493
 C3197 C 0.15268 0.74742 0.78663
 C3198 C 0.13229 0.74534 0.79389
 H3199 H 0.03260 0.77597 0.82606
 H3200 H 0.06307 0.77239 0.80338
 H3201 H 0.07120 0.70884 0.82397
 H3202 H 0.04074 0.71245 0.84719
 H3203 H 0.12169 0.69658 0.77558
 H3204 H 0.15752 0.70060 0.76186
 H3205 H 0.16111 0.76168 0.78999
 H3206 H 0.12554 0.75793 0.80291
 C3207 C 0.53967 0.27359 0.33438
 C3208 C 0.55752 0.27162 0.32215
 C3209 C 0.56703 0.25218 0.31952
 C3210 C 0.55787 0.23435 0.32849
 C3211 C 0.53993 0.23632 0.34093
 C3212 C 0.53110 0.25610 0.34451
 N3213 N 0.58707 0.25169 0.30970
 N3214 N 0.59641 0.23510 0.30403
 C3215 C 0.61730 0.23639 0.29606
 C3216 C 0.62528 0.22057 0.28322
 C3217 C 0.64567 0.22200 0.27530
 C3218 C 0.65847 0.23900 0.28069
 C3219 C 0.65049 0.25456 0.29388
 C3220 C 0.63011 0.25337 0.30133
 H3221 H 0.53295 0.28897 0.33647
 H3222 H 0.56444 0.28545 0.31528
 H3223 H 0.56512 0.21917 0.32675
 H3224 H 0.53371 0.22260 0.34863
 H3225 H 0.61563 0.20732 0.27913
 H3226 H 0.65151 0.20976 0.26523
 H3227 H 0.65993 0.26790 0.29822
 H3228 H 0.62443 0.26566 0.31143
 C3229 C 0.54280 0.74436 0.17953
 C3230 C 0.56124 0.74475 0.19135
 C3231 C 0.58042 0.74929 0.18177
 C3232 C 0.58105 0.75250 0.16007
 C3233 C 0.56276 0.75225 0.14840
 C3234 C 0.54343 0.74874 0.15807
 N3235 N 0.59898 0.75134 0.19415
 N3236 N 0.61631 0.75565 0.18543
 C3237 C 0.63559 0.75828 0.19632
 C3238 C 0.65383 0.75980 0.18447
 C3239 C 0.67318 0.76152 0.19419
 C3240 C 0.67461 0.76211 0.21605
 C3241 C 0.65622 0.76146 0.22802
 C3242 C 0.63676 0.75937 0.21820
 H3243 H 0.52800 0.74171 0.18728
 H3244 H 0.56052 0.74212 0.20803
 H3245 H 0.59560 0.75583 0.15216
 H3246 H 0.56362 0.75544 0.13181
 H3247 H 0.65306 0.75916 0.16760
 H3248 H 0.68710 0.76213 0.18460
 H3249 H 0.65698 0.76177 0.24490
 H3250 H 0.62276 0.75842 0.22762
 C3251 C 0.05556 0.22972 0.65833
 C3252 C 0.07478 0.22774 0.66851
 C3253 C 0.08346 0.24474 0.67912
 C3254 C 0.07222 0.26356 0.68026
 C3255 C 0.05313 0.26559 0.66997
 C3256 C 0.04487 0.24884 0.65852
 N3257 N 0.10423 0.24307 0.68724
 N3258 N 0.11267 0.25782 0.69750
 C3259 C 0.13383 0.25683 0.70462
 C3260 C 0.14101 0.27208 0.71846
 C3261 C 0.16170 0.27185 0.72538
 C3262 C 0.17567 0.25649 0.71824
 C3263 C 0.16847 0.24134 0.70410
 C3264 C 0.14769 0.24142 0.69744
 H3265 H 0.04971 0.21674 0.64931
 H3266 H 0.08331 0.21317 0.66746
 H3267 H 0.07855 0.27694 0.68840
 H3268 H 0.04511 0.28048 0.67037
 H3269 H 0.13052 0.28414 0.72396
 H3270 H 0.16679 0.28380 0.73618
 H3271 H 0.17883 0.22926 0.69840
 H3272 H 0.14253 0.22959 0.68656
 C3273 C 0.96410 0.22569 0.66252
 C3274 C 0.94491 0.22131 0.67210
 C3275 C 0.93194 0.23761 0.67874
 C3276 C 0.93909 0.25828 0.67729
 C3277 C 0.95833 0.26264 0.66816
 C3278 C 0.97066 0.24649 0.65983
 N3279 N 0.91122 0.23320 0.68588
 N3280 N 0.89694 0.24692 0.68414
 C3281 C 0.87603 0.24389 0.69138
 C3282 C 0.86074 0.25828 0.68536
 C3283 C 0.84041 0.25669 0.69304
 C3284 C 0.83514 0.24081 0.70726
 C3285 C 0.85045 0.22610 0.71299
 C3286 C 0.87073 0.22753 0.70499
 H3287 H 0.97314 0.21291 0.65618
 H3288 H 0.93964 0.20528 0.67327
 H3289 H 0.92954 0.27109 0.68280
 H3290 H 0.96321 0.27878 0.66694
 H3291 H 0.86470 0.27098 0.67489
 H3292 H 0.82904 0.26834 0.68846
 H3293 H 0.84683 0.21367 0.72389
 H3294 H 0.88235 0.21627 0.70990
 C3295 C 0.46254 0.72334 0.16557
 C3296 C 0.44356 0.71832 0.17528
 C3297 C 0.43090 0.73417 0.18346
 C3298 C 0.43828 0.75479 0.18366
 C3299 C 0.45726 0.75975 0.17434
 C3300 C 0.46908 0.74427 0.16428
 N3301 N 0.41001 0.72964 0.18997
 N3302 N 0.39591 0.74346 0.18761
 C3303 C 0.37476 0.74093 0.19420
 C3304 C 0.36005 0.75558 0.18746
 C3305 C 0.33960 0.75493 0.19488
 C3306 C 0.33360 0.73974 0.20955
 C3307 C 0.34827 0.72460 0.21586
 C3308 C 0.36871 0.72511 0.20813
 H3309 H 0.47130 0.71110 0.15791
 H3310 H 0.43809 0.70232 0.17518
 H3311 H 0.42896 0.76719 0.19039
 H3312 H 0.46219 0.77593 0.17406
 H3313 H 0.36461 0.76786 0.17674
 H3314 H 0.32876 0.76688 0.18981
 H3315 H 0.34409 0.71268 0.22711
 H3316 H 0.37990 0.71367 0.21358
 C3317 C 0.44870 0.23307 0.34884
 C3318 C 0.42968 0.23044 0.33841
 C3319 C 0.42066 0.24710 0.32741
 C3320 C 0.43139 0.26619 0.32612
 C3321 C 0.45022 0.26887 0.33669
 C3322 C 0.45875 0.25251 0.34857
 N3323 N 0.40001 0.24489 0.31914
 N3324 N 0.39138 0.25932 0.30850
 C3325 C 0.37027 0.25788 0.30132
 C3326 C 0.36294 0.27259 0.28689
 C3327 C 0.34227 0.27187 0.27989
 C3328 C 0.32848 0.25660 0.28757
 C3329 C 0.33584 0.24205 0.30232
 C3330 C 0.35658 0.24260 0.30904
 H3331 H 0.45487 0.22035 0.35811
 H3332 H 0.42155 0.21566 0.33955
 H3333 H 0.42482 0.27930 0.31770
 H3334 H 0.45780 0.28399 0.33621
 H3335 H 0.37331 0.28456 0.28097
 H3336 H 0.33708 0.28330 0.26856
 H3337 H 0.32566 0.23000 0.30843
 H3338 H 0.36183 0.23121 0.32038
 C3339 C 0.96296 0.73545 0.83051
 C3340 C 0.94410 0.73376 0.81950
 C3341 C 0.92497 0.73655 0.82979
 C3342 C 0.92491 0.74005 0.85145
 C3343 C 0.94363 0.74193 0.86232
 C3344 C 0.96280 0.74021 0.85187
 N3345 N 0.90588 0.73696 0.81805
 N3346 N 0.88843 0.73951 0.82722
 C3347 C 0.86881 0.74087 0.81664
 C3348 C 0.85063 0.74100 0.82868
 C3349 C 0.83109 0.74232 0.81922
 C3350 C 0.82934 0.74383 0.79740
 C3351 C 0.84766 0.74419 0.78527
 C3352 C 0.86730 0.74259 0.79482
 H3353 H 0.97761 0.73422 0.82215
 H3354 H 0.94441 0.73098 0.80284
 H3355 H 0.91041 0.74211 0.85988
 H3356 H 0.94316 0.74545 0.87885
 H3357 H 0.85163 0.73988 0.84552
 H3358 H 0.81732 0.74214 0.82903
 H3359 H 0.84678 0.74524 0.76842
 H3360 H 0.88121 0.74272 0.78522
   
