data_POSCAR
  _audit_creation_date              2014-09-24
  _audit_creation_method            'ToBaCCo'
  _symmetry_space_group_name_H-M    'P1'
  _symmetry_Int_Tables_number       1
  _symmetry_cell_setting            triclinic
  loop_
  _symmetry_equiv_pos_as_xyz
 x,y,z
_cell_length_a 67.8010
_cell_length_b 67.7869
_cell_length_c 60.5252
_cell_angle_alpha 90.822900
_cell_angle_beta 89.338800
_cell_angle_gamma 90.228600
loop_
  _atom_site_label
  _atom_site_type_symbol
  _atom_site_fract_x
  _atom_site_fract_y
  _atom_site_fract_z
C1 C 0.37635 0.01922 0.27180
 H2 H 0.37753 0.02724 0.25651
 C3 C 0.38658 0.02582 0.29041
 H4 H 0.39575 0.03889 0.28923
 C5 C 0.36261 -0.00737 0.29187
 H6 H 0.35296 -0.02006 0.29251
 C7 C 0.37246 -0.00123 0.31089
 H8 H 0.37050 -0.00958 0.32587
 N9 N 0.36489 0.00274 0.27277
 C10 C 0.35984 -0.01597 0.20388
 H11 H 0.34395 -0.01659 0.20254
 C12 C 0.37173 -0.02120 0.18578
 H13 H 0.36481 -0.02563 0.17045
 C14 C 0.38800 -0.00973 0.22577
 H15 H 0.39428 -0.00567 0.24151
 C16 C 0.40046 -0.01484 0.20808
 H17 H 0.41626 -0.01430 0.21038
 Zn18 Zn 0.35074 -0.00467 0.24722
 N19 N 0.36809 -0.01019 0.22330
 C20 C 0.33670 0.02749 0.22232
 N21 N 0.33417 0.01675 0.24095
 C22 C 0.32125 0.02246 0.25712
 C23 C 0.31053 0.03984 0.25515
 C24 C 0.32633 0.04506 0.21970
 C25 C 0.34694 -0.04431 0.25638
 C26 C 0.33773 -0.06254 0.25906
 C27 C 0.30633 -0.04690 0.25278
 C28 C 0.31623 -0.02891 0.25031
 N29 N 0.33617 -0.02799 0.25217
 H30 H 0.34740 0.02296 0.20992
 H31 H 0.31985 0.01383 0.27196
 H32 H 0.30075 0.04434 0.26854
 H33 H 0.32900 0.05371 0.20507
 H34 H 0.36282 -0.04316 0.25745
 H35 H 0.34690 -0.07519 0.26230
 H36 H 0.29045 -0.04716 0.25099
 H37 H 0.30799 -0.01581 0.24648
 C38 C 0.39235 -0.02064 0.18772
 C39 C 0.38472 0.01553 0.31030
 C40 C 0.31707 -0.06422 0.25706
 C41 C 0.31334 0.05165 0.23648
 C42 C 0.12198 0.02685 0.71700
 H43 H 0.12047 0.03482 0.73255
 C44 C 0.11066 0.03225 0.69893
 H45 H 0.10034 0.04432 0.70076
 C46 C 0.13745 0.00153 0.69580
 H47 H 0.14815 -0.01020 0.69451
 C48 C 0.12658 0.00652 0.67730
 H49 H 0.12882 -0.00179 0.66207
 N50 N 0.13472 0.01145 0.71527
 C51 C 0.14246 -0.00704 0.78324
 H52 H 0.15840 -0.00685 0.78381
 C53 C 0.13153 -0.01323 0.80155
 H54 H 0.13925 -0.01754 0.81626
 C55 C 0.11323 -0.00203 0.76301
 H56 H 0.10618 0.00186 0.74778
 C57 C 0.10170 -0.00810 0.78098
 H58 H 0.08581 -0.00843 0.77944
 Zn59 Zn 0.14970 0.00487 0.74024
 N60 N 0.13322 -0.00145 0.76454
 C61 C 0.16336 0.03740 0.76593
 N62 N 0.16579 0.02687 0.74681
 C63 C 0.17845 0.03294 0.73071
 C64 C 0.18911 0.05045 0.73333
 C65 C 0.17369 0.05505 0.76923
 C66 C 0.15431 -0.03447 0.72953
 C67 C 0.16376 -0.05255 0.72683
 C68 C 0.19483 -0.03632 0.73434
 C69 C 0.18475 -0.01843 0.73669
 N70 N 0.16483 -0.01791 0.73436
 H71 H 0.15287 0.03256 0.77830
 H72 H 0.17982 0.02443 0.71551
 H73 H 0.19876 0.05521 0.72006
 H74 H 0.17117 0.06346 0.78433
 H75 H 0.13843 -0.03365 0.72820
 H76 H 0.15496 -0.06556 0.72333
 H77 H 0.21063 -0.03659 0.73669
 H78 H 0.19275 -0.00514 0.74105
 C79 C 0.11085 -0.01382 0.80059
 C80 C 0.11280 0.02192 0.67877
 C81 C 0.18425 -0.05372 0.72957
 C82 C 0.18651 0.06196 0.75263
 C83 C 0.62310 0.52589 0.21870
 H84 H 0.62134 0.53345 0.23446
 C85 C 0.61187 0.53156 0.20067
 H86 H 0.60135 0.54344 0.20275
 C87 C 0.63911 0.50129 0.19694
 H88 H 0.64998 0.48973 0.19543
 C89 C 0.62835 0.50657 0.17846
 H90 H 0.63084 0.49866 0.16302
 N91 N 0.63605 0.51069 0.21667
 C92 C 0.64323 0.49067 0.28415
 H93 H 0.65917 0.49087 0.28485
 C94 C 0.63220 0.48419 0.30225
 H95 H 0.63984 0.47964 0.31693
 C96 C 0.61412 0.49606 0.26384
 H97 H 0.60716 0.50024 0.24866
 C98 C 0.60249 0.48971 0.28160
 H99 H 0.58660 0.48946 0.27997
 Zn100 Zn 0.65079 0.50362 0.24166
 N101 N 0.63410 0.49662 0.26553
 C102 C 0.66382 0.53563 0.26854
 N103 N 0.66663 0.52557 0.24917
 C104 C 0.67954 0.53208 0.23354
 C105 C 0.69008 0.54955 0.23694
 C106 C 0.67402 0.55323 0.27261
 C107 C 0.65588 0.46456 0.22979
 C108 C 0.66550 0.44660 0.22692
 C109 C 0.69627 0.46286 0.23576
 C110 C 0.68603 0.48064 0.23824
 N111 N 0.66617 0.48109 0.23536
 H112 H 0.65314 0.53045 0.28052
 H113 H 0.68121 0.52394 0.21813
 H114 H 0.69996 0.55466 0.22403
 H115 H 0.67121 0.56127 0.28790
 H116 H 0.64004 0.46531 0.22804
 H117 H 0.65687 0.43360 0.22286
 H118 H 0.71201 0.46263 0.23858
 H119 H 0.69384 0.49388 0.24321
 C120 C 0.61153 0.48368 0.30116
 C121 C 0.61431 0.52173 0.18024
 C122 C 0.68592 0.44549 0.23027
 C123 C 0.68711 0.56058 0.25652
 C124 C 0.87638 0.51899 0.77333
 H125 H 0.87765 0.52679 0.75791
 C126 C 0.88676 0.52569 0.79179
 H127 H 0.89608 0.53861 0.79023
 C128 C 0.86237 0.49283 0.79382
 H129 H 0.85257 0.48026 0.79466
 C130 C 0.87235 0.49904 0.81272
 H131 H 0.87022 0.49081 0.82777
 N132 N 0.86476 0.50265 0.77456
 C133 C 0.86021 0.48324 0.70583
 H134 H 0.84434 0.48280 0.70420
 C135 C 0.87231 0.47789 0.68793
 H136 H 0.86558 0.47354 0.67247
 C137 C 0.88811 0.48921 0.72821
 H138 H 0.89421 0.49323 0.74406
 C139 C 0.90076 0.48394 0.71077
 H140 H 0.91653 0.48433 0.71336
 Zn141 Zn 0.85073 0.49493 0.74903
 N142 N 0.86825 0.48899 0.72538
 C143 C 0.83704 0.52682 0.72345
 N144 N 0.83429 0.51632 0.74221
 C145 C 0.82122 0.52224 0.75812
 C146 C 0.81054 0.53960 0.75573
 C147 C 0.82672 0.54436 0.72041
 C148 C 0.84670 0.45546 0.75902
 C149 C 0.83736 0.43735 0.76204
 C150 C 0.80612 0.45296 0.75495
 C151 C 0.81609 0.47087 0.75217
 N152 N 0.83603 0.47176 0.75429
 H153 H 0.84787 0.52213 0.71126
 H154 H 0.81964 0.51379 0.77308
 H155 H 0.80062 0.54427 0.76892
 H156 H 0.82956 0.55282 0.70567
 H157 H 0.86257 0.45657 0.76025
 H158 H 0.84624 0.42458 0.76565
 H159 H 0.79027 0.45247 0.75299
 H160 H 0.80795 0.48391 0.74790
 C161 C 0.89290 0.47825 0.69025
 C162 C 0.88493 0.51563 0.81191
 C163 C 0.81680 0.43586 0.75984
 C164 C 0.81356 0.55116 0.73691
 C165 C 0.22032 0.41673 0.98624
 H166 H 0.23346 0.41782 0.97600
 C167 C 0.20352 0.42760 0.98107
 H168 H 0.20390 0.43715 0.96689
 C169 C 0.20376 0.40261 1.01688
 H170 H 0.20363 0.39258 1.03054
 C171 C 0.18675 0.41316 1.01237
 H172 H 0.17391 0.41117 1.02292
 N173 N 0.22022 0.40475 1.00409
 C174 C 0.28026 0.39689 1.02687
 H175 H 0.27956 0.38120 1.02983
 C176 C 0.29759 0.40730 1.03112
 H177 H 0.31016 0.39943 1.03739
 C178 C 0.26474 0.42589 1.01442
 H179 H 0.25192 0.43306 1.00789
 C180 C 0.28188 0.43689 1.01826
 H181 H 0.28207 0.45245 1.01451
 Zn182 Zn 0.24284 0.38978 1.01087
 N183 N 0.26446 0.40616 1.01819
 C184 C 0.26781 0.37578 0.97640
 N185 N 0.24958 0.37405 0.98583
 C186 C 0.23572 0.36181 0.97702
 C187 C 0.24006 0.35051 0.95812
 C188 C 0.27276 0.36480 0.95748
 C189 C 0.23458 0.38370 1.05532
 C190 C 0.22984 0.37332 1.07438
 C191 C 0.23154 0.34298 1.05298
 C192 C 0.23620 0.35399 1.03428
 N193 N 0.23735 0.37400 1.03573
 H194 H 0.27851 0.38588 0.98330
 H195 H 0.22123 0.36095 0.98464
 H196 H 0.22877 0.34093 0.95133
 H197 H 0.28732 0.36653 0.95022
 H198 H 0.23581 0.39962 1.05602
 H199 H 0.22755 0.38141 1.08973
 H200 H 0.23060 0.32707 1.05147
 H201 H 0.23882 0.34652 1.01865
 C202 C 0.29873 0.42749 1.02632
 C203 C 0.18646 0.42593 0.99433
 C204 C 0.22816 0.35267 1.07336
 C205 C 0.25879 0.35199 0.94803
 C206 C 0.77903 0.08371 0.98031
 H207 H 0.76608 0.08113 0.97037
 C208 C 0.79657 0.07365 0.97531
 H209 H 0.79684 0.06324 0.96157
 C210 C 0.79438 0.10073 1.00992
 H211 H 0.79375 0.11159 1.02310
 C212 C 0.81211 0.09114 1.00554
 H213 H 0.82462 0.09473 1.01582
 N214 N 0.77816 0.09668 0.99765
 C215 C 0.71742 0.10204 1.02109
 H216 H 0.71749 0.11780 1.02414
 C217 C 0.70052 0.09104 1.02568
 H218 H 0.68763 0.09856 1.03228
 C219 C 0.73415 0.07341 1.00819
 H220 H 0.74730 0.06661 1.00141
 C221 C 0.71742 0.06183 1.01232
 H222 H 0.71786 0.04618 1.00852
 Zn223 Zn 0.75460 0.11052 1.00478
 N224 N 0.73364 0.09322 1.01207
 C225 C 0.72951 0.12258 0.97058
 N226 N 0.74738 0.12566 0.98006
 C227 C 0.76056 0.13869 0.97143
 C228 C 0.75587 0.14940 0.95264
 C229 C 0.72423 0.13292 0.95179
 C230 C 0.76198 0.11681 1.04919
 C231 C 0.76661 0.12711 1.06854
 C232 C 0.76440 0.15758 1.04849
 C233 C 0.75985 0.14664 1.02943
 N234 N 0.75907 0.12661 1.03007
 H235 H 0.71937 0.11187 0.97732
 H236 H 0.77482 0.14062 0.97904
 H237 H 0.76664 0.15962 0.94598
 H238 H 0.70998 0.13010 0.94449
 H239 H 0.76113 0.10087 1.04923
 H240 H 0.76914 0.11891 1.08345
 H241 H 0.76519 0.17350 1.04762
 H242 H 0.75721 0.15417 1.01414
 C243 C 0.70020 0.07073 1.02084
 C244 C 0.81347 0.07721 0.98813
 C245 C 0.76807 0.14777 1.06834
 C246 C 0.73750 0.14650 0.94250
 C247 C 0.27998 0.58560 0.47805
 H248 H 0.26696 0.58291 0.46827
 C249 C 0.29748 0.57547 0.47306
 H250 H 0.29776 0.56489 0.45949
 C251 C 0.29554 0.60291 0.50734
 H252 H 0.29500 0.61388 0.52042
 C253 C 0.31323 0.59327 0.50291
 H254 H 0.32589 0.59684 0.51298
 N255 N 0.27922 0.59871 0.49528
 C256 C 0.21852 0.60373 0.51895
 H257 H 0.21845 0.61951 0.52189
 C258 C 0.20171 0.59262 0.52361
 H259 H 0.18875 0.60006 0.53013
 C260 C 0.23551 0.57517 0.50631
 H261 H 0.24873 0.56843 0.49963
 C262 C 0.21888 0.56347 0.51051
 H263 H 0.21947 0.54780 0.50686
 Zn264 Zn 0.25564 0.61243 0.50262
 N265 N 0.23482 0.59500 0.51001
 C266 C 0.23033 0.62442 0.46859
 N267 N 0.24820 0.62762 0.47803
 C268 C 0.26123 0.64084 0.46945
 C269 C 0.25636 0.65162 0.45078
 C270 C 0.22489 0.63484 0.44992
 C271 C 0.26331 0.61858 0.54697
 C272 C 0.26790 0.62882 0.56637
 C273 C 0.26517 0.65938 0.54658
 C274 C 0.26067 0.64850 0.52747
 N275 N 0.26015 0.62845 0.52795
 H276 H 0.22032 0.61356 0.47528
 H277 H 0.27548 0.64286 0.47703
 H278 H 0.26700 0.66199 0.44417
 H279 H 0.21063 0.63192 0.44266
 H280 H 0.26266 0.60263 0.54690
 H281 H 0.27060 0.62056 0.58120
 H282 H 0.26572 0.67532 0.54584
 H283 H 0.25782 0.65608 0.51226
 C284 C 0.20157 0.57227 0.51892
 C285 C 0.31438 0.57918 0.48573
 C286 C 0.26906 0.64950 0.56633
 C287 C 0.23799 0.64862 0.44069
 C288 C 0.71931 0.91686 0.48528
 H289 H 0.73259 0.91851 0.47538
 C290 C 0.70234 0.92745 0.48007
 H291 H 0.70274 0.93738 0.46622
 C292 C 0.70256 0.90156 0.51506
 H293 H 0.70244 0.89118 0.52839
 C294 C 0.68537 0.91177 0.51046
 H295 H 0.67240 0.90919 0.52063
 N296 N 0.71920 0.90446 0.50277
 C297 C 0.77910 0.89754 0.52631
 H298 H 0.77858 0.88181 0.52911
 C299 C 0.79626 0.90813 0.53082
 H300 H 0.80888 0.90035 0.53710
 C301 C 0.76332 0.92643 0.51397
 H302 H 0.75046 0.93348 0.50737
 C303 C 0.78030 0.93760 0.51804
 H304 H 0.78034 0.95319 0.51439
 Zn305 Zn 0.74206 0.88994 0.50974
 N306 N 0.76326 0.90667 0.51755
 C307 C 0.76761 0.87701 0.47531
 N308 N 0.74942 0.87459 0.48464
 C309 C 0.73601 0.86198 0.47563
 C310 C 0.74077 0.85101 0.45661
 C311 C 0.77297 0.86640 0.45627
 C312 C 0.73329 0.88349 0.55394
 C313 C 0.72860 0.87296 0.57290
 C314 C 0.73148 0.84271 0.55152
 C315 C 0.73607 0.85386 0.53290
 N316 N 0.73662 0.87389 0.53439
 H317 H 0.77795 0.88741 0.48237
 H318 H 0.72153 0.86057 0.48316
 H319 H 0.72982 0.84113 0.44965
 H320 H 0.78749 0.86869 0.44909
 H321 H 0.73404 0.89944 0.55467
 H322 H 0.72587 0.88099 0.58822
 H323 H 0.73103 0.82678 0.54999
 H324 H 0.73912 0.84648 0.51731
 C325 C 0.79720 0.92834 0.52615
 C326 C 0.68509 0.92502 0.49286
 C327 C 0.72756 0.85228 0.57185
 C328 C 0.75946 0.85323 0.44661
 C329 C 0.01457 0.27397 0.41637
 H330 H 0.02734 0.26447 0.41654
 C331 C 0.01413 0.29113 0.42951
 H332 H 0.02665 0.29465 0.43980
 C333 C -0.01702 0.28110 0.40229
 H334 H -0.02900 0.27742 0.39138
 C335 C -0.01810 0.29831 0.41518
 H336 H -0.03105 0.30752 0.41404
 N337 N -0.00090 0.26926 0.40315
 C338 C -0.00020 0.20576 0.39032
 H339 H -0.00148 0.20591 0.37252
 C340 C 0.00016 0.18784 0.40131
 H341 H -0.00086 0.17433 0.39161
 C342 C 0.00254 0.22345 0.42417
 H343 H 0.00330 0.23739 0.43301
 C344 C 0.00295 0.20581 0.43591
 H345 H 0.00414 0.20652 0.45373
 Zn346 Zn 0.00065 0.24637 0.38467
 N347 N 0.00123 0.22309 0.40175
 C348 C 0.03784 0.23362 0.36841
 N349 N 0.02409 0.24811 0.36716
 C350 C 0.02734 0.26425 0.35448
 C351 C 0.04492 0.26617 0.34229
 C352 C 0.05551 0.23489 0.35648
 C353 C -0.03932 0.24031 0.37757
 C354 C -0.05695 0.23867 0.36604
 C355 C -0.03904 0.24547 0.33226
 C356 C -0.02165 0.24690 0.34449
 N357 N -0.02216 0.24456 0.36679
 H358 H 0.03532 0.22113 0.37894
 H359 H 0.01633 0.27575 0.35402
 H360 H 0.04724 0.27917 0.33240
 H361 H 0.06620 0.22317 0.35792
 H362 H -0.03928 0.23831 0.39527
 H363 H -0.07040 0.23546 0.37513
 H364 H -0.03838 0.24756 0.31456
 H365 H -0.00782 0.24994 0.33615
 C366 C 0.00185 0.18757 0.42449
 C367 C -0.00237 0.30362 0.42898
 C368 C -0.05704 0.24138 0.34307
 C369 C 0.05933 0.25135 0.34324
 C370 C 0.01109 0.72602 0.08955
 H371 H 0.02436 0.73494 0.08918
 C372 C 0.00994 0.70880 0.07659
 H373 H 0.02242 0.70464 0.06625
 C374 C -0.02106 0.72048 0.10390
 H375 H -0.03301 0.72483 0.11482
 C376 C -0.02285 0.70320 0.09122
 H377 H -0.03630 0.69461 0.09251
 N378 N -0.00433 0.73158 0.10277
 C379 C 0.00048 0.79529 0.11367
 H380 H -0.00071 0.79582 0.13151
 C381 C 0.00200 0.81279 0.10187
 H382 H 0.00199 0.82670 0.11089
 C383 C 0.00169 0.77639 0.08047
 H384 H 0.00133 0.76219 0.07217
 C385 C 0.00322 0.79357 0.06799
 H386 H 0.00417 0.79232 0.05016
 Zn387 Zn -0.00178 0.75471 0.12071
 N388 N 0.00058 0.77754 0.10293
 C389 C 0.03582 0.76556 0.13719
 N390 N 0.02110 0.75192 0.13837
 C391 C 0.02283 0.73575 0.15127
 C392 C 0.03979 0.73295 0.16383
 C393 C 0.05295 0.76340 0.14950
 C394 C -0.04164 0.76252 0.12793
 C395 C -0.05935 0.76492 0.13961
 C396 C -0.04201 0.75852 0.17340
 C397 C -0.02459 0.75630 0.16098
 N398 N -0.02478 0.75802 0.13863
 H399 H 0.03448 0.77807 0.12649
 H400 H 0.01106 0.72492 0.15167
 H401 H 0.04087 0.71995 0.17392
 H402 H 0.06444 0.77447 0.14816
 H403 H -0.04133 0.76406 0.11016
 H404 H -0.07246 0.76830 0.13036
 H405 H -0.04135 0.75682 0.19115
 H406 H -0.01096 0.75309 0.16926
 C407 C 0.00346 0.81212 0.07869
 C408 C -0.00721 0.69709 0.07735
 C409 C -0.05992 0.76275 0.16277
 C410 C 0.05518 0.74690 0.16303
 C411 C 0.51188 0.22494 0.59003
 H412 H 0.52523 0.23372 0.58952
 C413 C 0.51047 0.20771 0.57712
 H414 H 0.52284 0.20341 0.56668
 C415 C 0.47977 0.21975 0.60467
 H416 H 0.46793 0.22424 0.61569
 C417 C 0.47772 0.20247 0.59205
 H418 H 0.46419 0.19402 0.59347
 N419 N 0.49661 0.23068 0.60337
 C420 C 0.50228 0.29433 0.61412
 H421 H 0.50131 0.29488 0.63198
 C422 C 0.50380 0.31180 0.60229
 H423 H 0.50403 0.32572 0.61128
 C424 C 0.50287 0.27539 0.58093
 H425 H 0.50226 0.26119 0.57265
 C426 C 0.50438 0.29255 0.56841
 H427 H 0.50507 0.29128 0.55056
 Zn428 Zn 0.49953 0.25380 0.62123
 N429 N 0.50206 0.27657 0.60340
 C430 C 0.53733 0.26421 0.63752
 N431 N 0.52243 0.25076 0.63879
 C432 C 0.52395 0.23463 0.65177
 C433 C 0.54088 0.23167 0.66434
 C434 C 0.55443 0.26188 0.64983
 C435 C 0.45981 0.26218 0.62862
 C436 C 0.44223 0.26503 0.64042
 C437 C 0.45962 0.25855 0.67414
 C438 C 0.47694 0.25588 0.66164
 N439 N 0.47666 0.25746 0.63926
 H440 H 0.53614 0.27669 0.62675
 H441 H 0.51204 0.22397 0.65226
 H442 H 0.54179 0.21871 0.67451
 H443 H 0.56606 0.27279 0.64843
 H444 H 0.46003 0.26357 0.61083
 H445 H 0.42900 0.26857 0.63147
 H446 H 0.46011 0.25702 0.69190
 H447 H 0.49054 0.25248 0.66986
 C448 C 0.50491 0.31110 0.57908
 C449 C 0.49320 0.19618 0.57806
 C450 C 0.44190 0.26309 0.66351
 C451 C 0.55644 0.24542 0.66346
 C452 C 0.51400 0.77359 0.91325
 H453 H 0.52684 0.76418 0.91363
 C454 C 0.51341 0.79092 0.92610
 H455 H 0.52588 0.79467 0.93636
 C456 C 0.48240 0.78030 0.89894
 H457 H 0.47047 0.77637 0.88807
 C458 C 0.48117 0.79768 0.91152
 H459 H 0.46816 0.80678 0.91018
 N460 N 0.49860 0.76858 0.90007
 C461 C 0.49975 0.70491 0.88838
 H462 H 0.49854 0.70474 0.87056
 C463 C 0.50019 0.68718 0.89976
 H464 H 0.49934 0.67344 0.89046
 C465 C 0.50220 0.72318 0.92189
 H466 H 0.50282 0.73726 0.93045
 C467 C 0.50269 0.70574 0.93399
 H468 H 0.50379 0.70663 0.95180
 Zn469 Zn 0.50035 0.74548 0.88197
 N470 N 0.50100 0.72244 0.89946
 C471 C 0.53765 0.73273 0.86603
 N472 N 0.52384 0.74714 0.86454
 C473 C 0.52709 0.76320 0.85172
 C474 C 0.54474 0.76511 0.83966
 C475 C 0.55539 0.73399 0.85422
 C476 C 0.46047 0.73897 0.87482
 C477 C 0.44283 0.73732 0.86331
 C478 C 0.46067 0.74437 0.82955
 C479 C 0.47807 0.74578 0.84176
 N480 N 0.47759 0.74335 0.86404
 H481 H 0.53513 0.72032 0.87667
 H482 H 0.51605 0.77464 0.85108
 H483 H 0.54707 0.77806 0.82968
 H484 H 0.56612 0.72234 0.85586
 H485 H 0.46053 0.73693 0.89252
 H486 H 0.42940 0.73405 0.87240
 H487 H 0.46130 0.74659 0.81188
 H488 H 0.49187 0.74895 0.83342
 C489 C 0.50178 0.68739 0.92289
 C490 C 0.49684 0.80329 0.92527
 C491 C 0.44270 0.74020 0.84037
 C492 C 0.55922 0.75038 0.84087
 C493 C -0.23030 0.62769 0.97888
 H494 H -0.22232 0.62880 0.99423
 C495 C -0.22365 0.63801 0.96041
 H496 H -0.21060 0.64718 0.96175
 C497 C -0.25681 0.61402 0.95852
 H498 H -0.26949 0.60435 0.95770
 C499 C -0.25063 0.62396 0.93963
 H500 H -0.25894 0.62206 0.92457
 N501 N -0.24676 0.61621 0.97770
 C502 C -0.26578 0.61067 1.04637
 H503 H -0.26648 0.59477 1.04748
 C504 C -0.27095 0.62242 1.06463
 H505 H -0.27543 0.61527 1.07977
 C506 C -0.25932 0.63898 1.02494
 H507 H -0.25517 0.64537 1.00931
 C508 C -0.26436 0.65133 1.04277
 H509 H -0.26365 0.66714 1.04056
 Zn510 Zn -0.25424 0.60188 1.00304
 N511 N -0.25990 0.61906 1.02712
 C512 C -0.22226 0.58768 1.02817
 N513 N -0.23281 0.58532 1.00934
 C514 C -0.22695 0.57255 0.99307
 C515 C -0.20962 0.56177 0.99517
 C516 C -0.20476 0.57724 1.03093
 C517 C -0.29386 0.59790 0.99343
 C518 C -0.31196 0.58853 0.99036
 C519 C -0.29611 0.55723 0.99644
 C520 C -0.27823 0.56724 0.99929
 N521 N -0.27746 0.58722 0.99770
 H522 H -0.22691 0.59827 1.04066
 H523 H -0.23544 0.57128 0.97808
 H524 H -0.20501 0.55209 0.98172
 H525 H -0.19626 0.57975 1.04576
 H526 H -0.29284 0.61381 0.99260
 H527 H -0.32481 0.59741 0.98712
 H528 H -0.29649 0.54134 0.99797
 H529 H -0.26510 0.55907 1.00319
 C530 C -0.27022 0.64312 1.06309
 C531 C -0.23388 0.63622 0.94043
 C532 C -0.31331 0.56792 0.99201
 C533 C -0.19803 0.56436 1.01409
 C534 C -0.22330 0.37114 0.53336
 H535 H -0.21534 0.36956 0.51783
 C536 C -0.21813 0.36041 0.55074
 H537 H -0.20599 0.35016 0.54901
 C538 C -0.24883 0.38760 0.55375
 H539 H -0.26043 0.39844 0.55504
 C540 C -0.24364 0.37619 0.57336
 H541 H -0.25213 0.37869 0.58841
 N542 N -0.23948 0.38474 0.53510
 C543 C -0.25764 0.39227 0.46696
 H544 H -0.25749 0.40822 0.46643
 C545 C -0.26371 0.38132 0.44857
 H546 H -0.26798 0.38902 0.43384
 C547 C -0.25262 0.36306 0.48715
 H548 H -0.24877 0.35604 0.50240
 C549 C -0.25857 0.35150 0.46910
 H550 H -0.25886 0.33561 0.47059
 Zn551 Zn -0.24595 0.39963 0.51004
 N552 N -0.25211 0.38306 0.48569
 C553 C -0.21332 0.41317 0.48462
 N554 N -0.22394 0.41571 0.50364
 C555 C -0.21793 0.42846 0.51975
 C556 C -0.20037 0.43903 0.51728
 C557 C -0.19563 0.42342 0.48147
 C558 C -0.28531 0.40414 0.52034
 C559 C -0.30347 0.41346 0.52266
 C560 C -0.28740 0.44459 0.51512
 C561 C -0.26943 0.43461 0.51316
 N562 N -0.26879 0.41472 0.51563
 H563 H -0.21812 0.40262 0.47225
 H564 H -0.22652 0.42993 0.53486
 H565 H -0.19565 0.44875 0.53057
 H566 H -0.18715 0.42080 0.46646
 H567 H -0.28438 0.38829 0.52184
 H568 H -0.31635 0.40448 0.52614
 H569 H -0.28762 0.46038 0.51261
 H570 H -0.25615 0.44266 0.50895
 C571 C -0.26423 0.36063 0.44947
 C572 C -0.22902 0.36277 0.57210
 C573 C -0.30487 0.43396 0.51962
 C574 C -0.18876 0.43629 0.49811
 C575 C 0.27597 -0.12796 0.03100
 H576 H 0.28362 -0.12978 0.01532
 C577 C 0.28130 -0.13861 0.04839
 H578 H 0.29327 -0.14904 0.04650
 C579 C 0.25104 -0.11095 0.05179
 H580 H 0.23961 -0.09996 0.05322
 C581 C 0.25643 -0.12226 0.07141
 H582 H 0.24824 -0.11953 0.08660
 N583 N 0.25999 -0.11414 0.03295
 C584 C 0.24059 -0.10711 -0.03482
 H585 H 0.24074 -0.09117 -0.03545
 C586 C 0.23428 -0.11815 -0.05304
 H587 H 0.22982 -0.11052 -0.06774
 C588 C 0.24593 -0.13622 -0.01455
 H589 H 0.25003 -0.14318 0.00065
 C590 C 0.23976 -0.14787 -0.03244
 H591 H 0.23954 -0.16376 -0.03088
 Zn592 Zn 0.25314 -0.09948 0.00783
 N593 N 0.24642 -0.11623 -0.01616
 C594 C 0.28540 -0.08660 -0.01856
 N595 N 0.27513 -0.08364 0.00063
 C596 C 0.28148 -0.07061 0.01629
 C597 C 0.29902 -0.06014 0.01314
 C598 C 0.30306 -0.07648 -0.02237
 C599 C 0.21402 -0.09454 0.01913
 C600 C 0.19596 -0.08507 0.02169
 C601 C 0.21205 -0.05420 0.01295
 C602 C 0.22993 -0.06433 0.01079
 N603 N 0.23050 -0.08416 0.01374
 H604 H 0.28034 -0.09736 -0.03057
 H605 H 0.27317 -0.06881 0.03155
 H606 H 0.30401 -0.05019 0.02608
 H607 H 0.31127 -0.07943 -0.03750
 H608 H 0.21489 -0.11037 0.02099
 H609 H 0.18310 -0.09390 0.02571
 H610 H 0.21187 -0.03848 0.01003
 H611 H 0.24316 -0.05645 0.00602
 C612 C 0.23383 -0.13883 -0.05204
 C613 C 0.27081 -0.13593 0.06995
 C614 C 0.19461 -0.06464 0.01814
 C615 C 0.31027 -0.06330 -0.00622
 C616 C 0.26887 1.12590 0.47849
 H617 H 0.27651 1.12714 0.49404
 C618 C 0.27580 1.13622 0.46015
 H619 H 0.28875 1.14550 0.46178
 C620 C 0.24283 1.11201 0.45754
 H621 H 0.23022 1.10229 0.45647
 C622 C 0.24932 1.12194 0.43876
 H623 H 0.24131 1.11997 0.42351
 N624 N 0.25248 1.11435 0.47697
 C625 C 0.23267 1.10984 0.54550
 H626 H 0.23217 1.09397 0.54709
 C627 C 0.22736 1.12197 0.56341
 H628 H 0.22295 1.11527 0.57884
 C629 C 0.23880 1.13772 0.52323
 H630 H 0.24287 1.14380 0.50742
 C631 C 0.23357 1.15040 0.54069
 H632 H 0.23406 1.16617 0.53814
 Zn633 Zn 0.24450 1.10033 0.50234
 N634 N 0.23850 1.11785 0.52601
 C635 C 0.27620 1.08648 0.52816
 N636 N 0.26576 1.08378 0.50930
 C637 C 0.27167 1.07068 0.49340
 C638 C 0.28895 1.05990 0.49590
 C639 C 0.29367 1.07607 0.53130
 C640 C 0.20511 1.09641 0.49181
 C641 C 0.18701 1.08710 0.48850
 C642 C 0.20250 1.05582 0.49568
 C643 C 0.22039 1.06577 0.49876
 N644 N 0.22133 1.08571 0.49673
 H645 H 0.27153 1.09734 0.54034
 H646 H 0.26328 1.06915 0.47837
 H647 H 0.29362 1.04996 0.48271
 H648 H 0.30209 1.07887 0.54611
 H649 H 0.20625 1.11229 0.49066
 H650 H 0.17429 1.09601 0.48475
 H651 H 0.20197 1.03997 0.49758
 H652 H 0.23337 1.05760 0.50320
 C653 C 0.22785 1.14257 0.56117
 C654 C 0.26595 1.13436 0.43994
 C655 C 0.18548 1.06654 0.49058
 C656 C 0.30046 1.06287 0.51482
 C657 C 0.16603 0.47057 0.26513
 H658 H 0.16716 0.48367 0.27546
 C659 C 0.17679 0.45369 0.27026
 H660 H 0.18630 0.45398 0.28451
 C661 C 0.15191 0.45415 0.23430
 H662 H 0.14191 0.45411 0.22058
 C663 C 0.16234 0.43707 0.23879
 H664 H 0.16030 0.42425 0.22816
 N665 N 0.15409 0.47057 0.24721
 C666 C 0.14627 0.53083 0.22523
 H667 H 0.13058 0.53014 0.22224
 C668 C 0.15666 0.54819 0.22119
 H669 H 0.14876 0.56080 0.21505
 C670 C 0.17529 0.51522 0.23749
 H671 H 0.18247 0.50233 0.24385
 C672 C 0.18627 0.53240 0.23385
 H673 H 0.20185 0.53255 0.23758
 Zn674 Zn 0.13917 0.49326 0.24058
 N675 N 0.15556 0.51495 0.23369
 C676 C 0.12510 0.51795 0.27529
 N677 N 0.12332 0.49982 0.26556
 C678 C 0.11097 0.48593 0.27403
 C679 C 0.09960 0.49014 0.29290
 C680 C 0.11405 0.52277 0.29418
 C681 C 0.13333 0.48532 0.19599
 C682 C 0.12308 0.48083 0.17673
 C683 C 0.09260 0.48254 0.19779
 C684 C 0.10352 0.48696 0.21668
 N685 N 0.12352 0.48799 0.21549
 H686 H 0.13529 0.52867 0.26866
 H687 H 0.11008 0.47152 0.26619
 H688 H 0.08995 0.47883 0.29944
 H689 H 0.11583 0.53725 0.30168
 H690 H 0.14925 0.48644 0.19551
 H691 H 0.13149 0.47864 0.16157
 H692 H 0.07669 0.48176 0.19937
 H693 H 0.09597 0.48950 0.23226
 C694 C 0.17685 0.54929 0.22597
 C695 C 0.17505 0.43665 0.25692
 C696 C 0.10232 0.47928 0.17731
 C697 C 0.10113 0.50877 0.30329
 C698 C -0.16542 1.02825 0.26750
 H699 H -0.16787 1.01520 0.27725
 C700 C -0.17558 1.04569 0.27277
 H701 H -0.18595 1.04588 0.28650
 C702 C -0.14864 1.04399 0.23806
 H703 H -0.13785 1.04356 0.22484
 C704 C -0.15833 1.06162 0.24275
 H705 H -0.15497 1.07433 0.23272
 N706 N -0.15253 1.02763 0.25010
 C707 C -0.14714 0.96702 0.22600
 H708 H -0.13139 0.96709 0.22291
 C709 C -0.15815 0.95011 0.22139
 H710 H -0.15066 0.93720 0.21476
 C711 C -0.17571 0.98375 0.23902
 H712 H -0.18249 0.99689 0.24586
 C713 C -0.18730 0.96702 0.23487
 H714 H -0.20293 0.96746 0.23872
 Zn715 Zn -0.13865 1.00418 0.24259
 N716 N -0.15592 0.98323 0.23511
 C717 C -0.12619 0.97888 0.27640
 N718 N -0.12331 0.99684 0.26711
 C719 C -0.11029 1.01005 0.27579
 C720 C -0.09939 1.00530 0.29443
 C721 C -0.11565 0.97354 0.29504
 C722 C -0.13255 1.01206 0.19829
 C723 C -0.12233 1.01690 0.17902
 C724 C -0.09179 1.01435 0.19898
 C725 C -0.10267 1.00959 0.21795
 N726 N -0.12270 1.00890 0.21733
 H727 H -0.13690 0.96871 0.26963
 H728 H -0.10852 1.02436 0.26833
 H729 H -0.08918 1.01609 0.30113
 H730 H -0.11832 0.95922 0.30220
 H731 H -0.14849 1.01125 0.19827
 H732 H -0.13069 1.01961 0.16424
 H733 H -0.07586 1.01502 0.19998
 H734 H -0.09511 1.00671 0.23316
 C735 C -0.17844 0.94978 0.22631
 C736 C -0.17214 1.06265 0.26017
 C737 C -0.10161 1.01833 0.17914
 C738 C -0.10208 0.98684 0.30438
 C739 C 0.33625 0.53009 -0.23043
 H740 H 0.33368 0.51708 -0.22066
 C741 C 0.32613 0.54758 -0.22534
 H742 H 0.31567 0.54785 -0.21169
 C743 C 0.35328 0.54566 -0.25982
 H744 H 0.36414 0.54513 -0.27298
 C745 C 0.34364 0.56334 -0.25529
 H746 H 0.34708 0.57600 -0.26536
 N747 N 0.34921 0.52934 -0.24777
 C748 C 0.35460 0.46774 -0.27224
 H749 H 0.37027 0.46794 -0.27582
 C750 C 0.34401 0.45151 -0.27642
 H751 H 0.35138 0.43869 -0.28344
 C752 C 0.32644 0.48554 -0.25901
 H753 H 0.31971 0.49868 -0.25212
 C754 C 0.31415 0.46782 -0.26306
 H755 H 0.29862 0.46847 -0.25874
 Zn756 Zn 0.36286 0.50576 -0.25530
 N757 N 0.34540 0.48493 -0.26265
 C758 C 0.37524 0.48032 -0.22164
 N759 N 0.37824 0.49828 -0.23088
 C760 C 0.39145 0.51133 -0.22226
 C761 C 0.40242 0.50641 -0.20373
 C762 C 0.38584 0.47482 -0.20311
 C763 C 0.36878 0.51348 -0.29965
 C764 C 0.37894 0.51817 -0.31902
 C765 C 0.40956 0.51548 -0.29926
 C766 C 0.39876 0.51086 -0.28019
 N767 N 0.37872 0.51030 -0.28067
 H768 H 0.36439 0.47029 -0.22837
 H769 H 0.39333 0.52565 -0.22968
 H770 H 0.41278 0.51707 -0.19706
 H771 H 0.38307 0.46049 -0.19600
 H772 H 0.35283 0.51279 -0.29957
 H773 H 0.37063 0.52091 -0.33383
 H774 H 0.42550 0.51609 -0.29852
 H775 H 0.40639 0.50799 -0.26501
 C776 C 0.32258 0.45110 -0.27089
 C777 C 0.32969 0.56447 -0.23801
 C778 C 0.39962 0.51942 -0.31897
 C779 C 0.39962 0.48794 -0.19384
 C780 C 0.66802 -0.03038 -0.23379
 H781 H 0.66963 -0.01724 -0.22359
 C782 C 0.67808 -0.04675 -0.22903
 H783 H 0.68785 -0.04660 -0.21501
 C784 C 0.65221 -0.04597 -0.26444
 H785 H 0.64184 -0.04596 -0.27780
 C786 C 0.66296 -0.06421 -0.25994
 H787 H 0.66031 -0.07686 -0.27065
 N788 N 0.65496 -0.03019 -0.25236
 C789 C 0.64767 0.02997 -0.27474
 H790 H 0.63200 0.02927 -0.27783
 C791 C 0.65808 0.04729 -0.27883
 H792 H 0.65012 0.05977 -0.28520
 C793 C 0.67659 0.01442 -0.26213
 H794 H 0.68370 0.00157 -0.25559
 C795 C 0.68761 0.03157 -0.26579
 H796 H 0.70316 0.03161 -0.26188
 Zn797 Zn 0.64031 -0.00727 -0.25880
 N798 N 0.65689 0.01416 -0.26606
 C799 C 0.62718 0.01780 -0.22402
 N800 N 0.62494 -0.00034 -0.23358
 C801 C 0.61243 -0.01394 -0.22481
 C802 C 0.60136 -0.00938 -0.20581
 C803 C 0.61645 0.02296 -0.20502
 C804 C 0.63380 -0.01523 -0.30323
 C805 C 0.62326 -0.01979 -0.32228
 C806 C 0.59306 -0.01770 -0.30079
 C807 C 0.60422 -0.01321 -0.28209
 N808 N 0.62423 -0.01236 -0.28360
 H809 H 0.63749 0.02829 -0.23089
 H810 H 0.61117 -0.02838 -0.23252
 H811 H 0.59155 -0.02046 -0.19906
 H812 H 0.61858 0.03746 -0.19767
 H813 H 0.64972 -0.01425 -0.30397
 H814 H 0.63126 -0.02217 -0.33766
 H815 H 0.57715 -0.01843 -0.29924
 H816 H 0.59686 -0.01051 -0.26643
 C817 C 0.67827 0.04854 -0.27377
 C818 C 0.67558 -0.06487 -0.24293
 C819 C 0.60261 -0.02120 -0.32120
 C820 C 0.60336 0.00928 -0.19561
 C821 C 0.02556 0.26554 0.83533
 H822 H 0.01609 0.27835 0.83523
 C823 C 0.04269 0.26508 0.82221
 H824 H 0.04624 0.27763 0.81201
 C825 C 0.03260 0.23387 0.84919
 H826 H 0.02888 0.22186 0.85999
 C827 C 0.04978 0.23277 0.83631
 H828 H 0.05894 0.21977 0.83736
 N829 N 0.02081 0.25004 0.84842
 C830 C -0.04266 0.25080 0.86095
 H831 H -0.04254 0.24945 0.87874
 C832 C -0.06056 0.25125 0.84987
 H833 H -0.07414 0.25024 0.85937
 C834 C -0.02492 0.25363 0.82719
 H835 H -0.01098 0.25439 0.81842
 C836 C -0.04255 0.25413 0.81539
 H837 H -0.04194 0.25538 0.79758
 Zn838 Zn -0.00208 0.25155 0.86680
 N839 N -0.02531 0.25224 0.84960
 C840 C -0.01487 0.28866 0.88326
 N841 N -0.00037 0.27492 0.88453
 C842 C 0.01571 0.27814 0.89736
 C843 C 0.01756 0.29569 0.90970
 C844 C -0.01368 0.30628 0.89536
 C845 C -0.00829 0.21159 0.87342
 C846 C -0.01004 0.19388 0.88473
 C847 C -0.00326 0.21153 0.91877
 C848 C -0.00172 0.22900 0.90676
 N849 N -0.00399 0.22865 0.88444
 H850 H -0.02731 0.28618 0.87260
 H851 H 0.02721 0.26714 0.89783
 H852 H 0.03051 0.29800 0.91971
 H853 H -0.02541 0.31696 0.89390
 H854 H -0.01024 0.21176 0.85571
 H855 H -0.01329 0.18051 0.87546
 H856 H -0.00124 0.21206 0.93648
 H857 H 0.00136 0.24277 0.91528
 C858 C -0.06071 0.25303 0.82677
 C859 C 0.05511 0.24853 0.82263
 C860 C -0.00740 0.19362 0.90772
 C861 C 0.00272 0.31008 0.90875
 C862 C 0.47483 0.26186 0.16191
 H863 H 0.48379 0.27510 0.16240
 C864 C 0.45764 0.26070 0.17485
 H865 H 0.45353 0.27315 0.18530
 C866 C 0.46918 0.22978 0.14728
 H867 H 0.47347 0.21786 0.13625
 C868 C 0.45193 0.22798 0.15994
 H869 H 0.44330 0.21455 0.15852
 N870 N 0.48033 0.24648 0.14856
 C871 C 0.54398 0.25130 0.13742
 H872 H 0.54435 0.25012 0.11957
 C873 C 0.56157 0.25279 0.14907
 H874 H 0.57540 0.25279 0.13995
 C875 C 0.52537 0.25249 0.17076
 H876 H 0.51124 0.25214 0.17917
 C877 C 0.54266 0.25400 0.18311
 H878 H 0.54157 0.25493 0.20096
 Zn879 Zn 0.50341 0.24901 0.13060
 N880 N 0.52633 0.25139 0.14830
 C881 C 0.51418 0.28664 0.11428
 N882 N 0.50059 0.27186 0.11296
 C883 C 0.48452 0.27349 0.09985
 C884 C 0.48181 0.29036 0.08716
 C885 C 0.51208 0.30369 0.10187
 C886 C 0.51118 0.20912 0.12337
 C887 C 0.51373 0.19143 0.11163
 C888 C 0.50748 0.20873 0.07784
 C889 C 0.50510 0.22616 0.09026
 N890 N 0.50670 0.22598 0.11265
 H891 H 0.52660 0.28539 0.12515
 H892 H 0.47374 0.26168 0.09933
 H893 H 0.46891 0.29133 0.07685
 H894 H 0.52311 0.31521 0.10331
 H895 H 0.51260 0.20943 0.14115
 H896 H 0.51708 0.17820 0.12065
 H897 H 0.50595 0.20914 0.06006
 H898 H 0.50191 0.23977 0.08197
 C899 C 0.56111 0.25423 0.17226
 C900 C 0.44588 0.24357 0.17394
 C901 C 0.51175 0.19100 0.08854
 C902 C 0.49573 0.30577 0.08806
 C903 C -0.02619 0.76256 0.66120
 H904 H -0.01732 0.77587 0.66176
 C905 C -0.04267 0.76126 0.67354
 H906 H -0.04689 0.77365 0.68403
 C907 C -0.03066 0.73028 0.64583
 H908 H -0.02629 0.71843 0.63476
 C909 C -0.04887 0.72814 0.65918
 H910 H -0.05715 0.71450 0.65758
 N911 N -0.02017 0.74639 0.64706
 C912 C 0.04336 0.75210 0.63599
 H913 H 0.04377 0.75105 0.61814
 C914 C 0.06093 0.75368 0.64769
 H915 H 0.07476 0.75388 0.63859
 C916 C 0.02469 0.75285 0.66930
 H917 H 0.01055 0.75228 0.67767
 C918 C 0.04195 0.75443 0.68171
 H919 H 0.04083 0.75521 0.69956
 Zn920 Zn 0.00286 0.74928 0.62910
 N921 N 0.02570 0.75191 0.64684
 C922 C 0.01311 0.78711 0.61303
 N923 N -0.00025 0.77214 0.61155
 C924 C -0.01630 0.77359 0.59838
 C925 C -0.01921 0.79048 0.58577
 C926 C 0.01081 0.80418 0.60071
 C927 C 0.01136 0.70957 0.62182
 C928 C 0.01426 0.69193 0.61010
 C929 C 0.00759 0.70906 0.57630
 C930 C 0.00488 0.72646 0.58871
 N931 N 0.00653 0.72633 0.61110
 H932 H 0.02551 0.78600 0.62395
 H933 H -0.02691 0.76164 0.59775
 H934 H -0.03208 0.79131 0.57541
 H935 H 0.02167 0.81586 0.60227
 H936 H 0.01282 0.70992 0.63960
 H937 H 0.01789 0.67878 0.61912
 H938 H 0.00602 0.70943 0.55853
 H939 H 0.00140 0.73999 0.58042
 C940 C 0.06041 0.75491 0.67089
 C941 C -0.05498 0.74303 0.67258
 C942 C 0.01225 0.69144 0.58701
 C943 C -0.00552 0.80609 0.58683
 C944 C 0.52446 0.76429 0.33619
 H945 H 0.51510 0.77717 0.33588
 C946 C 0.54181 0.76370 0.32344
 H947 H 0.54562 0.77622 0.31330
 C948 C 0.53105 0.73260 0.35026
 H949 H 0.52707 0.72063 0.36102
 C950 C 0.54844 0.73137 0.33776
 H951 H 0.55750 0.71832 0.33904
 N952 N 0.51940 0.74884 0.34922
 C953 C 0.45577 0.74995 0.36084
 H954 H 0.45568 0.74856 0.37863
 C955 C 0.43801 0.75053 0.34950
 H956 H 0.42431 0.74958 0.35881
 C957 C 0.47392 0.75280 0.32735
 H958 H 0.48796 0.75352 0.31878
 C959 C 0.45642 0.75343 0.31530
 H960 H 0.45724 0.75475 0.29751
 Zn961 Zn 0.49631 0.75055 0.36727
 N962 N 0.47326 0.75134 0.34975
 C963 C 0.48353 0.78773 0.38351
 N964 N 0.49798 0.77396 0.38493
 C965 C 0.51401 0.77718 0.39786
 C966 C 0.51583 0.79477 0.41014
 C967 C 0.48470 0.80539 0.39554
 C968 C 0.48963 0.71067 0.37401
 C969 C 0.48791 0.69298 0.38534
 C970 C 0.49517 0.71059 0.41928
 C971 C 0.49664 0.72805 0.40725
 N972 N 0.49414 0.72771 0.38497
 H973 H 0.47114 0.78525 0.37279
 H974 H 0.52548 0.76617 0.39844
 H975 H 0.52874 0.79708 0.42022
 H976 H 0.47301 0.81609 0.39397
 H977 H 0.48754 0.71084 0.35632
 H978 H 0.48452 0.67961 0.37612
 H979 H 0.49744 0.71110 0.43695
 H980 H 0.49992 0.74179 0.41572
 C981 C 0.43813 0.75240 0.32641
 C982 C 0.55412 0.74709 0.32419
 C983 C 0.49086 0.69269 0.40828
 C984 C 0.50104 0.80919 0.40903
 B985 B -0.00959 0.01316 1.00701
 B986 B -0.01986 0.00657 0.98295
 B987 B -0.00187 0.02358 0.98359
 B988 B 0.01469 0.01736 1.00281
 B989 B 0.00660 -0.00420 1.01416
 B990 B -0.01507 -0.01077 1.00186
 B991 B 0.01386 -0.01097 0.97023
 B992 B 0.02411 -0.00434 0.99427
 B993 B 0.00610 -0.02138 0.99367
 B994 B -0.01046 -0.01514 0.97439
 B995 B -0.00232 0.00641 0.96306
 B996 B 0.01934 0.01297 0.97537
 B997 B 0.49116 0.51225 0.50717
 B998 B 0.48094 0.50569 0.48308
 B999 B 0.49904 0.52258 0.48376
 B1000 B 0.51549 0.51630 0.50306
 B1001 B 0.50722 0.49481 0.51443
 B1002 B 0.48555 0.48835 0.50206
 B1003 B 0.51459 0.48791 0.47055
 B1004 B 0.52479 0.49451 0.49462
 B1005 B 0.50667 0.47760 0.49399
 B1006 B 0.49023 0.48390 0.47462
 B1007 B 0.49855 0.50537 0.46327
 B1008 B 0.52020 0.51182 0.47566
 B1009 B 0.50879 0.99145 0.50925
 B1010 B 0.51940 0.99820 0.48538
 B1011 B 0.50156 0.98103 0.48551
 B1012 B 0.48462 0.98707 0.50502
 B1013 B 0.49234 1.00864 0.51711
 B1014 B 0.51414 1.01544 0.50493
 B1015 B 0.48574 1.01545 0.47342
 B1016 B 0.47516 1.00868 0.49731
 B1017 B 0.49299 1.02587 0.49719
 B1018 B 0.50994 1.01984 0.47763
 B1019 B 0.50223 0.99823 0.46557
 B1020 B 0.48042 0.99146 0.47775
 B1021 B 0.01022 0.49245 1.00873
 B1022 B 0.02092 0.49918 0.98490
 B1023 B 0.00314 0.48195 0.98497
 B1024 B -0.01392 0.48797 1.00437
 B1025 B -0.00632 0.50960 1.01644
 B1026 B 0.01551 0.51645 1.00437
 B1027 B -0.01274 0.51629 0.97269
 B1028 B -0.02341 0.50954 0.99653
 B1029 B -0.00564 0.52679 0.99648
 B1030 B 0.01143 0.52078 0.97703
 B1031 B 0.00385 0.49911 0.96499
 B1032 B -0.01800 0.49229 0.97705
 B1033 B 0.01957 0.50873 0.48533
 B1034 B 0.03161 0.50397 0.50863
 B1035 B 0.01391 0.52116 0.50863
 B1036 B -0.00425 0.51365 0.49162
 B1037 B 0.00256 0.49112 0.48108
 B1038 B 0.02502 0.48520 0.49164
 B1039 B -0.00131 0.48805 0.52586
 B1040 B -0.01334 0.49292 0.50259
 B1041 B 0.00432 0.47567 0.50258
 B1042 B 0.02248 0.48314 0.51964
 B1043 B 0.01576 0.50570 0.53013
 B1044 B -0.00671 0.51159 0.51965
 B1045 B 0.51880 0.00972 -0.01621
 B1046 B 0.52990 0.00411 0.00743
 B1047 B 0.51211 0.02122 0.00733
 B1048 B 0.49474 0.01426 -0.01096
 B1049 B 0.50210 -0.00781 -0.02218
 B1050 B 0.52414 -0.01401 -0.01077
 B1051 B 0.49644 -0.01260 0.02220
 B1052 B 0.48536 -0.00696 -0.00148
 B1053 B 0.50311 -0.02408 -0.00133
 B1054 B 0.52050 -0.01717 0.01694
 B1055 B 0.51317 0.00495 0.02816
 B1056 B 0.49112 0.01113 0.01679
 B1057 B 0.48208 0.48466 -0.01534
 B1058 B 0.47058 0.49041 0.00852
 B1059 B 0.48825 0.47317 0.00788
 B1060 B 0.50603 0.47996 -0.01024
 B1061 B 0.49901 0.50207 -0.02081
 B1062 B 0.47680 0.50845 -0.00917
 B1063 B 0.50385 0.50697 0.02365
 B1064 B 0.51537 0.50110 -0.00013
 B1065 B 0.49773 0.51838 0.00046
 B1066 B 0.47995 0.51165 0.01863
 B1067 B 0.48689 0.48952 0.02917
 B1068 B 0.50912 0.48315 0.01761
 B1069 B -0.01971 0.98477 0.48315
 B1070 B -0.03106 0.99064 0.50705
 B1071 B -0.01351 0.97328 0.50636
 B1072 B 0.00424 0.97992 0.48812
 B1073 B -0.00269 1.00206 0.47754
 B1074 B -0.02481 1.00861 0.48928
 B1075 B 0.00238 1.00700 0.52196
 B1076 B 0.01375 1.00104 0.49812
 B1077 B -0.00378 1.01842 0.49879
 B1078 B -0.02150 1.01184 0.51706
 B1079 B -0.01466 0.98968 0.52762
 B1080 B 0.00747 0.98315 0.51594
 B1081 B 0.76279 0.24006 0.24239
 B1082 B 0.75624 0.22985 0.26644
 B1083 B 0.77334 0.24775 0.26582
 B1084 B 0.76713 0.26433 0.24665
 B1085 B 0.74548 0.25634 0.23531
 B1086 B 0.73886 0.23471 0.24757
 B1087 B 0.73892 0.26366 0.27927
 B1088 B 0.74550 0.27387 0.25524
 B1089 B 0.72839 0.25593 0.25582
 B1090 B 0.73462 0.23936 0.27505
 B1091 B 0.75623 0.24740 0.28637
 B1092 B 0.76286 0.26902 0.27410
 B1093 B 0.74155 0.75943 0.74159
 B1094 B 0.74833 0.77031 0.76536
 B1095 B 0.73128 0.75234 0.76541
 B1096 B 0.73736 0.73526 0.74602
 B1097 B 0.75883 0.74303 0.73383
 B1098 B 0.76552 0.76499 0.74582
 B1099 B 0.76587 0.73688 0.77756
 B1100 B 0.75907 0.72603 0.75377
 B1101 B 0.77613 0.74398 0.75370
 B1102 B 0.77007 0.76107 0.77314
 B1103 B 0.74856 0.75331 0.78531
 B1104 B 0.74189 0.73135 0.77332
 B1105 B 0.25975 0.27009 0.76597
 B1106 B 0.25499 0.28198 0.74259
 B1107 B 0.27220 0.26431 0.74274
 B1108 B 0.26470 0.24623 0.75981
 B1109 B 0.24216 0.25308 0.77022
 B1110 B 0.23622 0.27548 0.75953
 B1111 B 0.23913 0.24894 0.72544
 B1112 B 0.24400 0.23705 0.74878
 B1113 B 0.22673 0.25469 0.74864
 B1114 B 0.23420 0.27276 0.73153
 B1115 B 0.25676 0.26600 0.72117
 B1116 B 0.26267 0.24360 0.73177
 B1117 B 0.23507 0.73243 0.26348
 B1118 B 0.24136 0.72086 0.23980
 B1119 B 0.22401 0.73842 0.23995
 B1120 B 0.23035 0.75635 0.25818
 B1121 B 0.25228 0.74950 0.26938
 B1122 B 0.25901 0.72729 0.25800
 B1123 B 0.25801 0.75417 0.22504
 B1124 B 0.25164 0.76576 0.24865
 B1125 B 0.26901 0.74821 0.24853
 B1126 B 0.26272 0.73029 0.23026
 B1127 B 0.24079 0.73709 0.21909
 B1128 B 0.23408 0.75932 0.23042
 B1129 B 0.26224 0.74106 0.74088
 B1130 B 0.25585 0.73085 0.76497
 B1131 B 0.27276 0.74892 0.76425
 B1132 B 0.26635 0.76539 0.74505
 B1133 B 0.24477 0.75715 0.73379
 B1134 B 0.23838 0.73549 0.74613
 B1135 B 0.23822 0.76452 0.77774
 B1136 B 0.24465 0.77473 0.75367
 B1137 B 0.22772 0.75663 0.75435
 B1138 B 0.23415 0.74016 0.77361
 B1139 B 0.25571 0.74845 0.78485
 B1140 B 0.26210 0.77011 0.77250
 B1141 B 0.24131 0.25988 0.24309
 B1142 B 0.24812 0.27082 0.26681
 B1143 B 0.23104 0.25288 0.26694
 B1144 B 0.23708 0.23573 0.24762
 B1145 B 0.25856 0.24343 0.23538
 B1146 B 0.26529 0.26541 0.24729
 B1147 B 0.26560 0.23739 0.27914
 B1148 B 0.25878 0.22649 0.25539
 B1149 B 0.27587 0.24441 0.25525
 B1150 B 0.26985 0.26156 0.27463
 B1151 B 0.24833 0.25389 0.28683
 B1152 B 0.24162 0.23189 0.27493
 B1153 B 0.76068 0.76900 0.26684
 B1154 B 0.75512 0.77977 0.24300
 B1155 B 0.77223 0.76199 0.24344
 B1156 B 0.76525 0.74487 0.26194
 B1157 B 0.74315 0.75238 0.27293
 B1158 B 0.73697 0.77425 0.26117
 B1159 B 0.73845 0.74609 0.22861
 B1160 B 0.74405 0.73535 0.25248
 B1161 B 0.72692 0.75308 0.25198
 B1162 B 0.73387 0.77022 0.23349
 B1163 B 0.75601 0.76274 0.22250
 B1164 B 0.76217 0.74086 0.23423
 B1165 B 0.73570 0.23027 0.76508
 B1166 B 0.74218 0.21893 0.74134
 B1167 B 0.72468 0.23635 0.74157
 B1168 B 0.73079 0.25419 0.75999
 B1169 B 0.75273 0.24745 0.77123
 B1170 B 0.75970 0.22538 0.75968
 B1171 B 0.75859 0.25250 0.72697
 B1172 B 0.75204 0.26385 0.75066
 B1173 B 0.76955 0.24645 0.75045
 B1174 B 0.76349 0.22862 0.73199
 B1175 B 0.74154 0.23531 0.72078
 B1176 B 0.73460 0.25740 0.73229
 N1177 N 0.40292 1.01791 0.36752
 C1178 C 0.41672 1.03237 0.36640
 N1179 N 0.41983 1.04165 0.34697
 N1180 N 0.40941 1.03658 0.32921
 C1181 C 0.39564 1.02196 0.33021
 N1182 N 0.39255 1.01283 0.34979
 C1183 C 0.42910 1.03617 0.38502
 C1184 C 0.43954 1.03755 0.40094
 C1185 C 0.45183 1.03676 0.42000
 N1186 N 0.47149 1.03382 0.41747
 N1187 N 0.48239 1.02873 0.43463
 C1188 C 0.47399 1.02632 0.45490
 N1189 N 0.45440 1.02980 0.45746
 N1190 N 0.44349 1.03491 0.44032
 N1191 N -0.09571 0.51703 0.86749
 C1192 C -0.08282 0.53230 0.86645
 N1193 N -0.08089 0.54233 0.84733
 N1194 N -0.09156 0.53718 0.82978
 C1195 C -0.10442 0.52172 0.83064
 N1196 N -0.10633 0.51187 0.84996
 C1197 C -0.07018 0.53633 0.88479
 C1198 C -0.05950 0.53789 0.90049
 C1199 C -0.04690 0.53728 0.91930
 N1200 N -0.02741 0.53355 0.91643
 N1201 N -0.01637 0.52857 0.93353
 C1202 C -0.02445 0.52708 0.95407
 N1203 N -0.04385 0.53138 0.95697
 N1204 N -0.05490 0.53635 0.93988
 N1205 N 0.09735 -0.03030 0.85674
 C1206 C 0.07738 -0.02982 0.85628
 N1207 N 0.06834 -0.02446 0.83744
 N1208 N 0.07895 -0.01975 0.81960
 C1209 C 0.09899 -0.02007 0.82000
 N1210 N 0.10795 -0.02560 0.83890
 C1211 C 0.06613 -0.03243 0.87623
 C1212 C 0.05693 -0.03310 0.89335
 C1213 C 0.04633 -0.03175 0.91393
 N1214 N 0.02639 -0.03329 0.91448
 N1215 N 0.01627 -0.02832 0.93273
 C1216 C 0.02576 -0.02161 0.95103
 N1217 N 0.04575 -0.02046 0.95048
 N1218 N 0.05586 -0.02547 0.93229
 N1219 N 0.59775 0.46687 0.35709
 C1220 C 0.57780 0.46767 0.35664
 N1221 N 0.56885 0.47328 0.33785
 N1222 N 0.57953 0.47794 0.32004
 C1223 C 0.59956 0.47732 0.32045
 N1224 N 0.60843 0.47153 0.33930
 C1225 C 0.56654 0.46527 0.37662
 C1226 C 0.55737 0.46483 0.39377
 C1227 C 0.54687 0.46649 0.41440
 N1228 N 0.52694 0.46482 0.41513
 N1229 N 0.51690 0.47003 0.43334
 C1230 C 0.52645 0.47712 0.45142
 N1231 N 0.54642 0.47842 0.45070
 N1232 N 0.55646 0.47317 0.43254
 N1233 N 0.57407 0.54191 0.14665
 C1234 C 0.57757 0.53312 0.12673
 N1235 N 0.59343 0.52119 0.12419
 N1236 N 0.60539 0.51803 0.14105
 C1237 C 0.60188 0.52661 0.16113
 N1238 N 0.58607 0.53877 0.16352
 C1239 C 0.56345 0.53419 0.10935
 C1240 C 0.55158 0.53325 0.09472
 C1241 C 0.53763 0.52977 0.07748
 N1242 N 0.54112 0.53632 0.05672
 N1243 N 0.52987 0.53021 0.04002
 C1244 C 0.51490 0.51720 0.04352
 N1245 N 0.51123 0.51104 0.06440
 N1246 N 0.52240 0.51719 0.08107
 N1247 N 0.07279 1.04212 0.64484
 C1248 C 0.07610 1.03293 0.62511
 N1249 N 0.09174 1.02068 0.62281
 N1250 N 0.10366 1.01760 0.63971
 C1251 C 0.10035 1.02660 0.65960
 N1252 N 0.08476 1.03907 0.66176
 C1253 C 0.06204 1.03403 0.60768
 C1254 C 0.05022 1.03314 0.59300
 C1255 C 0.03633 1.02977 0.57568
 N1256 N 0.04030 1.03572 0.55478
 N1257 N 0.02903 1.02963 0.53809
 C1258 C 0.01357 1.01724 0.54172
 N1259 N 0.00944 1.01168 0.56273
 N1260 N 0.02064 1.01781 0.57939
 N1261 N -0.06213 0.47015 0.65627
 C1262 C -0.06973 0.46601 0.63611
 N1263 N -0.08958 0.46543 0.63377
 N1264 N -0.10146 0.46888 0.65108
 C1265 C -0.09393 0.47320 0.67130
 N1266 N -0.07401 0.47361 0.67356
 C1267 C -0.05697 0.46480 0.61710
 C1268 C -0.04614 0.46530 0.60120
 C1269 C -0.03323 0.46796 0.58255
 N1270 N -0.03850 0.46164 0.56208
 N1271 N -0.02791 0.46686 0.54439
 C1272 C -0.01181 0.47869 0.54659
 N1273 N -0.00639 0.48461 0.56716
 N1274 N -0.01692 0.47936 0.58482
 N1275 N 0.43683 -0.02848 0.15281
 C1276 C 0.42890 -0.03336 0.13301
 N1277 N 0.40902 -0.03446 0.13122
 N1278 N 0.39743 -0.03079 0.14870
 C1279 C 0.40527 -0.02574 0.16857
 N1280 N 0.42523 -0.02480 0.17029
 C1281 C 0.44127 -0.03508 0.11371
 C1282 C 0.45159 -0.03514 0.09738
 C1283 C 0.46370 -0.03332 0.07795
 N1284 N 0.45531 -0.03313 0.05773
 N1285 N 0.46587 -0.02798 0.04002
 C1286 C 0.48514 -0.02278 0.04191
 N1287 N 0.49359 -0.02342 0.06212
 N1288 N 0.48304 -0.02858 0.07983
 N1289 N 0.33781 0.46520 0.01967
 C1290 C 0.35361 0.45598 0.02829
 N1291 N 0.35122 0.43787 0.03710
 N1292 N 0.33362 0.42913 0.03711
 C1293 C 0.31774 0.43814 0.02828
 N1294 N 0.32016 0.45645 0.01972
 C1295 C 0.37303 0.46417 0.02607
 C1296 C 0.38974 0.46988 0.02358
 C1297 C 0.40995 0.47528 0.01998
 N1298 N 0.42282 0.46164 0.01200
 N1299 N 0.44164 0.46638 0.00847
 C1300 C 0.44827 0.48493 0.01279
 N1301 N 0.43532 0.49861 0.02077
 N1302 N 0.41646 0.49387 0.02431
 N1303 N -0.16385 0.96613 0.51924
 C1304 C -0.14806 0.95708 0.52809
 N1305 N -0.15045 0.93910 0.53722
 N1306 N -0.16803 0.93031 0.53730
 C1307 C -0.18388 0.93915 0.52820
 N1308 N -0.18147 0.95734 0.51935
 C1309 C -0.12864 0.96520 0.52566
 C1310 C -0.11192 0.97079 0.52297
 C1311 C -0.09171 0.97603 0.51911
 N1312 N -0.07907 0.96234 0.51076
 N1313 N -0.06025 0.96692 0.50702
 C1314 C -0.05338 0.98535 0.51150
 N1315 N -0.06609 0.99908 0.51985
 N1316 N -0.08497 0.99450 0.52360
 N1317 N -0.14977 0.04430 0.96367
 C1318 C -0.13395 0.04830 0.97654
 N1319 N -0.13568 0.06186 0.99305
 N1320 N -0.15266 0.07115 0.99666
 C1321 C -0.16864 0.06730 0.98392
 N1322 N -0.16682 0.05365 0.96730
 C1323 C -0.11547 0.03846 0.97317
 C1324 C -0.09935 0.03110 0.97182
 C1325 C -0.07968 0.02344 0.97190
 N1326 N -0.06459 0.03421 0.96342
 N1327 N -0.04600 0.02857 0.96614
 C1328 C -0.04184 0.01204 0.97758
 N1329 N -0.05702 0.00111 0.98575
 N1330 N -0.07562 0.00676 0.98304
 N1331 N 0.35160 0.54453 0.46241
 C1332 C 0.36760 0.54909 0.47476
 N1333 N 0.36617 0.56350 0.49039
 N1334 N 0.34928 0.57305 0.49367
 C1335 C 0.33315 0.56860 0.48145
 N1336 N 0.33465 0.55414 0.46570
 C1337 C 0.38593 0.53887 0.47187
 C1338 C 0.40192 0.53121 0.47088
 C1339 C 0.42145 0.52323 0.47132
 N1340 N 0.43674 0.53351 0.46252
 N1341 N 0.45522 0.52763 0.46550
 C1342 C 0.45906 0.51137 0.47753
 N1343 N 0.44369 0.50092 0.48601
 N1344 N 0.42519 0.50680 0.48304
 N1345 N 0.14979 0.55962 0.53192
 C1346 C 0.14808 0.54130 0.52292
 N1347 N 0.16415 0.53270 0.51341
 N1348 N 0.18138 0.54225 0.51279
 C1349 C 0.18310 0.56077 0.52153
 N1350 N 0.16697 0.56916 0.53126
 C1351 C 0.12899 0.53227 0.52142
 C1352 C 0.11244 0.52598 0.51960
 C1353 C 0.09230 0.52007 0.51680
 N1354 N 0.08586 0.50197 0.52294
 N1355 N 0.06699 0.49688 0.52038
 C1356 C 0.05398 0.50973 0.51161
 N1357 N 0.06056 0.52779 0.50549
 N1358 N 0.07937 0.53288 0.50804
 N1359 N 0.66235 0.03163 0.01487
 C1360 C 0.64640 0.04029 0.02456
 N1361 N 0.64833 0.05848 0.03383
 N1362 N 0.66562 0.06783 0.03327
 C1363 C 0.68162 0.05938 0.02337
 N1364 N 0.67968 0.04099 0.01435
 C1365 C 0.62720 0.03152 0.02291
 C1366 C 0.61058 0.02547 0.02094
 C1367 C 0.59038 0.01984 0.01794
 N1368 N 0.57725 0.03347 0.01130
 N1369 N 0.55848 0.02854 0.00818
 C1370 C 0.55212 0.00982 0.01161
 N1371 N 0.56532 -0.00385 0.01827
 N1372 N 0.58416 0.00108 0.02140
 N1373 N 0.64927 0.95862 0.46715
 C1374 C 0.63304 0.95578 0.48004
 N1375 N 0.63390 0.94297 0.49693
 N1376 N 0.65045 0.93327 0.50089
 C1377 C 0.66680 0.93598 0.48811
 N1378 N 0.66590 0.94888 0.47113
 C1379 C 0.61495 0.96593 0.47617
 C1380 C 0.59904 0.97355 0.47444
 C1381 C 0.57949 0.98144 0.47416
 N1382 N 0.57512 0.99815 0.48575
 N1383 N 0.55645 1.00384 0.48841
 C1384 C 0.54151 0.99291 0.47974
 N1385 N 0.54598 0.97639 0.46781
 N1386 N 0.56464 0.97071 0.46514
 N1387 N 0.13582 0.44532 0.99901
 C1388 C 0.13469 0.45707 0.98118
 N1389 N 0.15059 0.45878 0.96753
 N1390 N 0.16714 0.44897 0.97166
 C1391 C 0.16831 0.43711 0.98955
 N1392 N 0.15230 0.43555 1.00311
 C1393 C 0.11660 0.46712 0.97701
 C1394 C 0.10069 0.47467 0.97502
 C1395 C 0.08112 0.48250 0.97442
 N1396 N 0.06637 0.47161 0.96543
 N1397 N 0.04768 0.47728 0.96784
 C1398 C 0.04308 0.49394 0.97945
 N1399 N 0.05793 0.50501 0.98808
 N1400 N 0.07663 0.49934 0.98569
 N1401 N 0.01254 0.34586 0.46468
 C1402 C -0.00363 0.35755 0.46406
 N1403 N -0.01948 0.35139 0.45235
 N1404 N -0.01917 0.33412 0.44158
 C1405 C -0.00298 0.32236 0.44199
 N1406 N 0.01284 0.32856 0.45389
 C1407 C -0.00345 0.37696 0.47398
 C1408 C -0.00334 0.39368 0.48113
 C1409 C -0.00313 0.41407 0.48801
 N1410 N -0.01046 0.42789 0.47445
 N1411 N -0.00887 0.44699 0.47958
 C1412 C -0.00001 0.45300 0.49852
 N1413 N 0.00722 0.43911 0.51220
 N1414 N 0.00567 0.41995 0.50704
 N1415 N 0.51140 -0.15394 -0.03966
 C1416 C 0.49524 -0.14227 -0.04068
 N1417 N 0.47950 -0.14862 -0.05245
 N1418 N 0.47991 -0.16605 -0.06289
 C1419 C 0.49609 -0.17778 -0.06207
 N1420 N 0.51180 -0.17139 -0.05011
 C1421 C 0.49538 -0.12271 -0.03115
 C1422 C 0.49558 -0.10589 -0.02431
 C1423 C 0.49608 -0.08542 -0.01777
 N1424 N 0.49385 -0.07140 -0.03325
 N1425 N 0.49543 -0.05237 -0.02784
 C1426 C 0.49921 -0.04661 -0.00673
 N1427 N 0.50135 -0.06068 0.00883
 N1428 N 0.49979 -0.07978 0.00340
 N1429 N 0.00768 -0.15297 1.03219
 C1430 C 0.00805 -0.13530 1.04298
 N1431 N 0.00695 -0.13489 1.06535
 N1432 N 0.00552 -0.15158 1.07660
 C1433 C 0.00512 -0.16936 1.06595
 N1434 N 0.00625 -0.16970 1.04348
 C1435 C 0.00935 -0.11708 1.03114
 C1436 C 0.01024 -0.10116 1.02247
 C1437 C 0.01101 -0.08148 1.01391
 N1438 N 0.01725 -0.06647 1.02711
 N1439 N 0.01644 -0.04791 1.02031
 C1440 C 0.00944 -0.04364 1.00000
 N1441 N 0.00330 -0.05872 0.98670
 N1442 N 0.00408 -0.07734 0.99354
 N1443 N 0.50849 0.36406 0.56565
 C1444 C 0.50912 0.36365 0.54327
 N1445 N 0.50843 0.34598 0.53249
 N1446 N 0.50714 0.32926 0.54381
 C1447 C 0.50648 0.32961 0.56630
 N1448 N 0.50720 0.34738 0.57694
 C1449 C 0.51024 0.38187 0.53141
 C1450 C 0.51099 0.39780 0.52276
 C1451 C 0.51163 0.41750 0.51424
 N1452 N 0.50472 0.42162 0.49386
 N1453 N 0.50388 0.44024 0.48703
 C1454 C 0.50994 0.45533 0.50037
 N1455 N 0.51690 0.45107 0.52069
 N1456 N 0.51778 0.43252 0.52747
 N1457 N 0.50555 1.15350 0.54160
 C1458 C 0.48887 1.14245 0.54290
 N1459 N 0.47352 1.14915 0.55539
 N1460 N 0.47481 1.16633 0.56626
 C1461 C 0.49152 1.17745 0.56513
 N1462 N 0.50683 1.17070 0.55247
 C1463 C 0.48801 1.12319 0.53265
 C1464 C 0.48749 1.10664 0.52504
 C1465 C 0.48728 1.08647 0.51737
 N1466 N 0.48508 1.07179 0.53214
 N1467 N 0.48618 1.05299 0.52560
 C1468 C 0.48943 1.04815 0.50402
 N1469 N 0.49152 1.06289 0.48918
 N1470 N 0.49044 1.08175 0.49574
 N1471 N 0.00579 0.65459 1.04091
 C1472 C -0.01080 0.64339 1.04202
 N1473 N -0.02630 0.64993 1.05438
 N1474 N -0.02524 0.66711 1.06530
 C1475 C -0.00862 0.67837 1.06436
 N1476 N 0.00684 0.67178 1.05183
 C1477 C -0.01142 0.62414 1.03174
 C1478 C -0.01175 0.60758 1.02413
 C1479 C -0.01177 0.58739 1.01649
 N1480 N -0.01391 0.57272 1.03129
 N1481 N -0.01266 0.55393 1.02480
 C1482 C -0.00932 0.54906 1.00324
 N1483 N -0.00729 0.56379 0.98837
 N1484 N -0.00852 0.58265 0.99488
 N1485 N 0.50474 0.65137 -0.03168
 C1486 C 0.50390 0.63394 -0.04293
 N1487 N 0.50234 0.63406 -0.06522
 N1488 N 0.50166 0.65103 -0.07597
 C1489 C 0.50249 0.66857 -0.06487
 N1490 N 0.50405 0.66839 -0.04247
 C1491 C 0.50454 0.61541 -0.03169
 C1492 C 0.50489 0.59922 -0.02365
 C1493 C 0.50502 0.57926 -0.01595
 N1494 N 0.51276 0.56484 -0.02907
 N1495 N 0.51122 0.54601 -0.02335
 C1496 C 0.50200 0.54087 -0.00426
 N1497 N 0.49436 0.55537 0.00899
 N1498 N 0.49586 0.57426 0.00324
 N1499 N 0.00189 1.13496 0.43478
 C1500 C 0.00355 1.13449 0.45704
 N1501 N 0.00463 1.15175 0.46860
 N1502 N 0.00408 1.16894 0.45813
 C1503 C 0.00241 1.16951 0.43574
 N1504 N 0.00134 1.15210 0.42436
 C1505 C 0.00402 1.11579 0.46791
 C1506 C 0.00419 1.09945 0.47558
 C1507 C 0.00406 1.07934 0.48281
 N1508 N -0.00378 1.07432 0.50269
 N1509 N -0.00547 1.05538 0.50820
 C1510 C 0.00064 1.04086 0.49401
 N1511 N 0.00853 1.04602 0.47420
 N1512 N 0.01026 1.06489 0.46872
 N1513 N 0.76870 0.65455 0.88333
 C1514 C 0.78310 0.66840 0.88466
 N1515 N 0.79228 0.67151 0.90419
 N1516 N 0.78716 0.66104 0.92185
 C1517 C 0.77260 0.64721 0.92064
 N1518 N 0.76358 0.64412 0.90097
 C1519 C 0.78694 0.68081 0.86612
 C1520 C 0.78834 0.69124 0.85023
 C1521 C 0.78752 0.70348 0.83117
 N1522 N 0.78594 0.69507 0.81082
 N1523 N 0.78075 0.70584 0.79362
 C1524 C 0.77689 0.72538 0.79616
 N1525 N 0.77903 0.73386 0.81646
 N1526 N 0.78422 0.72309 0.83367
 N1527 N 0.26908 0.15321 0.38309
 C1528 C 0.28322 0.16730 0.38485
 N1529 N 0.29209 0.17034 0.40457
 N1530 N 0.28692 0.15958 0.42200
 C1531 C 0.27260 0.14554 0.42035
 N1532 N 0.26390 0.14250 0.40049
 C1533 C 0.28698 0.18010 0.36663
 C1534 C 0.28830 0.19089 0.35104
 C1535 C 0.28740 0.20359 0.33237
 N1536 N 0.28691 0.19571 0.31168
 N1537 N 0.28166 0.20669 0.29467
 C1538 C 0.27664 0.22591 0.29775
 N1539 N 0.27770 0.23389 0.31841
 N1540 N 0.28295 0.22292 0.33543
 N1541 N 0.71948 0.34710 0.39315
 C1542 C 0.72009 0.32714 0.39351
 N1543 N 0.72549 0.31810 0.41233
 N1544 N 0.73009 0.32871 0.43025
 C1545 C 0.72964 0.34875 0.42995
 N1546 N 0.72409 0.35770 0.41107
 C1547 C 0.71756 0.31590 0.37349
 C1548 C 0.71694 0.30672 0.35632
 C1549 C 0.71833 0.29617 0.33567
 N1550 N 0.71654 0.27624 0.33495
 N1551 N 0.72147 0.26614 0.31666
 C1552 C 0.72839 0.27562 0.29851
 N1553 N 0.72980 0.29559 0.29923
 N1554 N 0.72483 0.30569 0.31745
 N1555 N 0.22386 0.81851 0.91089
 C1556 C 0.21823 0.82749 0.89213
 N1557 N 0.21728 0.84744 0.89182
 N1558 N 0.22182 0.85809 0.90972
 C1559 C 0.22764 0.84921 0.92854
 N1560 N 0.22840 0.82917 0.92881
 C1561 C 0.21590 0.81627 0.87207
 C1562 C 0.21548 0.80715 0.85485
 C1563 C 0.21712 0.79671 0.83416
 N1564 N 0.22387 0.80634 0.81612
 N1565 N 0.22904 0.79635 0.79788
 C1566 C 0.22758 0.77638 0.79698
 N1567 N 0.22044 0.76679 0.81496
 N1568 N 0.21531 0.77679 0.83325
 N1569 N 0.26923 0.84264 0.12450
 C1570 C 0.28259 0.82794 0.12233
 N1571 N 0.29248 0.82558 0.10288
 N1572 N 0.28902 0.83757 0.08610
 C1573 C 0.27541 0.85222 0.08807
 N1574 N 0.26575 0.85457 0.10774
 C1575 C 0.28431 0.81381 0.13959
 C1576 C 0.28387 0.80194 0.15420
 C1577 C 0.28091 0.78799 0.17150
 N1578 N 0.28638 0.79236 0.19250
 N1579 N 0.28035 0.78110 0.20917
 C1580 C 0.26852 0.76520 0.20540
 N1581 N 0.26350 0.76065 0.18429
 N1582 N 0.26955 0.77185 0.16765
 N1583 N 0.76898 0.34107 0.62650
 C1584 C 0.78268 0.32666 0.62452
 N1585 N 0.79289 0.32457 0.60524
 N1586 N 0.78943 0.33655 0.58845
 C1587 C 0.77550 0.35091 0.59023
 N1588 N 0.76550 0.35299 0.60972
 C1589 C 0.78451 0.31257 0.64179
 C1590 C 0.78417 0.30070 0.65640
 C1591 C 0.78136 0.28673 0.67371
 N1592 N 0.78632 0.29138 0.69480
 N1593 N 0.78035 0.28002 0.71141
 C1594 C 0.76910 0.26375 0.70749
 N1595 N 0.76459 0.25893 0.68629
 N1596 N 0.77059 0.27023 0.66971
 N1597 N 0.21543 0.16023 0.61772
 C1598 C 0.21613 0.18008 0.61540
 N1599 N 0.22019 0.18763 0.59524
 N1600 N 0.22346 0.17570 0.57792
 C1601 C 0.22295 0.15579 0.58015
 N1602 N 0.21869 0.14830 0.60038
 C1603 C 0.21514 0.19288 0.63443
 C1604 C 0.21586 0.20377 0.65030
 C1605 C 0.21878 0.21676 0.66887
 N1606 N 0.23060 0.23276 0.66656
 N1607 N 0.23599 0.24335 0.68416
 C1608 C 0.22978 0.23832 0.70473
 N1609 N 0.21754 0.22254 0.70697
 N1610 N 0.21218 0.21188 0.68933
 N1611 N 0.72264 0.68675 0.09770
 C1612 C 0.71762 0.67869 0.11734
 N1613 N 0.71629 0.65881 0.11883
 N1614 N 0.71987 0.64733 0.10120
 C1615 C 0.72509 0.65528 0.08144
 N1616 N 0.72623 0.67527 0.08007
 C1617 C 0.71598 0.69090 0.13680
 C1618 C 0.71596 0.70109 0.15327
 C1619 C 0.71780 0.71301 0.17290
 N1620 N 0.71936 0.70432 0.19282
 N1621 N 0.72451 0.71489 0.21056
 C1622 C 0.72832 0.73450 0.20901
 N1623 N 0.72633 0.74323 0.18910
 N1624 N 0.72119 0.73266 0.17135
 N1625 N 0.18736 0.60174 0.21511
 C1626 C 0.20573 0.60398 0.22334
 N1627 N 0.21502 0.58812 0.23171
 N1628 N 0.20609 0.57056 0.23198
 C1629 C 0.18755 0.56828 0.22396
 N1630 N 0.17845 0.58422 0.21541
 C1631 C 0.21437 0.62327 0.22475
 C1632 C 0.22058 0.63989 0.22633
 C1633 C 0.22673 0.66005 0.22856
 N1634 N 0.24248 0.66506 0.24108
 N1635 N 0.24724 0.68397 0.24431
 C1636 C 0.23631 0.69848 0.23527
 N1637 N 0.22069 0.69336 0.22259
 N1638 N 0.21594 0.67448 0.21934
 N1639 N 0.68803 0.10036 0.71694
 C1640 C 0.70690 0.10218 0.72375
 N1641 N 0.71656 0.08597 0.73065
 N1642 N 0.70751 0.06847 0.73091
 C1643 C 0.68843 0.06658 0.72440
 N1644 N 0.67899 0.08291 0.71723
 C1645 C 0.71573 0.12136 0.72527
 C1646 C 0.72199 0.13796 0.72696
 C1647 C 0.72808 0.15812 0.72937
 N1648 N 0.74357 0.16313 0.74229
 N1649 N 0.74817 0.18205 0.74575
 C1650 C 0.73733 0.19655 0.73656
 N1651 N 0.72199 0.19142 0.72346
 N1652 N 0.71740 0.17254 0.71998
 N1653 N 0.81197 0.11444 0.25624
 C1654 C 0.79815 0.11590 0.27248
 N1655 N 0.79400 0.09990 0.28494
 N1656 N 0.80345 0.08292 0.28118
 C1657 C 0.81734 0.08140 0.26484
 N1658 N 0.82137 0.09753 0.25250
 C1659 C 0.78818 0.13430 0.27597
 C1660 C 0.78072 0.15036 0.27740
 C1661 C 0.77297 0.17000 0.27740
 N1662 N 0.75657 0.17409 0.26575
 N1663 N 0.75094 0.19269 0.26306
 C1664 C 0.76162 0.20785 0.27176
 N1665 N 0.77785 0.20366 0.28373
 N1666 N 0.78348 0.18506 0.28642
 N1667 N 0.31380 0.61621 0.75751
 C1668 C 0.29943 0.61758 0.77314
 N1669 N 0.29497 0.60156 0.78545
 N1670 N 0.30464 0.58465 0.78211
 C1671 C 0.31906 0.58321 0.76635
 N1672 N 0.32341 0.59936 0.75418
 C1673 C 0.28914 0.63587 0.77608
 C1674 C 0.28142 0.65183 0.77708
 C1675 C 0.27342 0.67135 0.77665
 N1676 N 0.25705 0.67508 0.76477
 N1677 N 0.25117 0.69358 0.76180
 C1678 C 0.26156 0.70896 0.77045
 N1679 N 0.27775 0.70513 0.78263
 N1680 N 0.28363 0.68666 0.78561
 N1681 N 0.28334 0.41464 0.73364
 C1682 C 0.29276 0.39808 0.72656
 N1683 N 0.31176 0.39936 0.71961
 N1684 N 0.32115 0.41663 0.71990
 C1685 C 0.31196 0.43330 0.72724
 N1686 N 0.29275 0.43196 0.73389
 C1687 C 0.28362 0.37906 0.72838
 C1688 C 0.27724 0.36259 0.73052
 C1689 C 0.27122 0.34254 0.73370
 N1690 N 0.28373 0.32985 0.74337
 N1691 N 0.27858 0.31110 0.74619
 C1692 C 0.26075 0.30433 0.73946
 N1693 N 0.24819 0.31709 0.72978
 N1694 N 0.25335 0.33591 0.72694
 N1695 N 0.80935 0.89774 0.21391
 C1696 C 0.79120 0.89590 0.22323
 N1697 N 0.78254 0.91196 0.23271
 N1698 N 0.79187 0.92932 0.23299
 C1699 C 0.81022 0.93117 0.22393
 N1700 N 0.81867 0.91506 0.21422
 C1701 C 0.78251 0.87670 0.22527
 C1702 C 0.77649 0.86013 0.22766
 C1703 C 0.77085 0.84002 0.23123
 N1704 N 0.75237 0.83348 0.22677
 N1705 N 0.74743 0.81472 0.23035
 C1706 C 0.76082 0.80192 0.23848
 N1707 N 0.77926 0.80860 0.24292
 N1708 N 0.78419 0.82730 0.23936
 N1709 N 0.69318 0.88480 0.75276
 C1710 C 0.70578 0.88398 0.76987
 N1711 N 0.70842 0.90023 0.78285
 N1712 N 0.69868 0.91683 0.77875
 C1713 C 0.68597 0.91774 0.76155
 N1714 N 0.68348 0.90133 0.74868
 C1715 C 0.71590 0.86590 0.77390
 C1716 C 0.72349 0.84999 0.77574
 C1717 C 0.73138 0.83043 0.77614
 N1718 N 0.74815 0.82603 0.76474
 N1719 N 0.75388 0.80735 0.76221
 C1720 C 0.74294 0.79244 0.77083
 N1721 N 0.72634 0.79695 0.78256
 N1722 N 0.72061 0.81561 0.78510
 N1723 N 0.19402 0.38583 0.25224
 C1724 C 0.20579 0.38465 0.27007
 N1725 N 0.20765 0.40057 0.28373
 N1726 N 0.19796 0.41719 0.27959
 C1727 C 0.18608 0.41841 0.26170
 N1728 N 0.18436 0.40238 0.24814
 C1729 C 0.21576 0.36650 0.27423
 C1730 C 0.22328 0.35058 0.27625
 C1731 C 0.23113 0.33101 0.27691
 N1732 N 0.24806 0.32653 0.26586
 N1733 N 0.25382 0.30784 0.26359
 C1734 C 0.24275 0.29298 0.27215
 N1735 N 0.22599 0.29758 0.28353
 N1736 N 0.22023 0.31626 0.28581
 N1737 N 0.09724 0.26333 0.78690
 C1738 C 0.10884 0.24709 0.78737
 N1739 N 0.10267 0.23125 0.79900
 N1740 N 0.08547 0.23162 0.80985
 C1741 C 0.07380 0.24788 0.80958
 N1742 N 0.08001 0.26369 0.79776
 C1743 C 0.12817 0.24720 0.77734
 C1744 C 0.14484 0.24723 0.77010
 C1745 C 0.16518 0.24734 0.76312
 N1746 N 0.17900 0.23953 0.77636
 N1747 N 0.19807 0.24108 0.77122
 C1748 C 0.20407 0.25038 0.75258
 N1749 N 0.19017 0.25808 0.73922
 N1750 N 0.17104 0.25657 0.74439
 N1751 N 0.59704 0.76170 0.28956
 C1752 C 0.60863 0.74548 0.29048
 N1753 N 0.60219 0.72968 0.30202
 N1754 N 0.58473 0.73010 0.31235
 C1755 C 0.57307 0.74634 0.31163
 N1756 N 0.57956 0.76210 0.29989
 C1757 C 0.62821 0.74560 0.28109
 C1758 C 0.64506 0.74579 0.27439
 C1759 C 0.66555 0.74627 0.26804
 N1760 N 0.67949 0.74447 0.28371
 N1761 N 0.69854 0.74600 0.27844
 C1762 C 0.70438 0.74928 0.25727
 N1763 N 0.69039 0.75099 0.24152
 N1764 N 0.67127 0.74948 0.24681
 N1765 N 0.61423 0.25763 0.18511
 C1766 C 0.61405 0.25865 0.20749
 N1767 N 0.59649 0.25825 0.21845
 N1768 N 0.57965 0.25689 0.20732
 C1769 C 0.57976 0.25584 0.18484
 N1770 N 0.59742 0.25626 0.17402
 C1771 C 0.63240 0.25985 0.21915
 C1772 C 0.64841 0.26064 0.22765
 C1773 C 0.66818 0.26127 0.23602
 N1774 N 0.67243 0.25441 0.25639
 N1775 N 0.69110 0.25349 0.26307
 C1776 C 0.70611 0.25941 0.24962
 N1777 N 0.70173 0.26634 0.22932
 N1778 N 0.68312 0.26730 0.22268
 N1779 N 0.11349 0.75853 0.68386
 C1780 C 0.11329 0.75924 0.70624
 N1781 N 0.09573 0.75859 0.71717
 N1782 N 0.07890 0.75727 0.70601
 C1783 C 0.07903 0.75653 0.68352
 N1784 N 0.09670 0.75720 0.67272
 C1785 C 0.13163 0.76037 0.71792
 C1786 C 0.14765 0.76111 0.72641
 C1787 C 0.16743 0.76172 0.73472
 N1788 N 0.17176 0.75476 0.75502
 N1789 N 0.19045 0.75388 0.76164
 C1790 C 0.20541 0.75993 0.74819
 N1791 N 0.20095 0.76695 0.72795
 N1792 N 0.18232 0.76787 0.72137
 N1793 N 0.89875 0.72409 0.69481
 C1794 C 0.89247 0.73949 0.70752
 N1795 N 0.90384 0.75595 0.70887
 N1796 N 0.92095 0.75698 0.69783
 C1797 C 0.92730 0.74163 0.68491
 N1798 N 0.91584 0.72512 0.68378
 C1799 C 0.87330 0.73890 0.71793
 C1800 C 0.85680 0.73853 0.72565
 C1801 C 0.83666 0.73839 0.73339
 N1802 N 0.83204 0.74175 0.75500
 N1803 N 0.81321 0.74282 0.76161
 C1804 C 0.79841 0.74050 0.74683
 N1805 N 0.80316 0.73707 0.72527
 N1806 N 0.82192 0.73598 0.71868
 N1807 N 0.40350 0.25647 0.21053
 C1808 C 0.39227 0.23989 0.20925
 N1809 N 0.39875 0.22445 0.19673
 N1810 N 0.41590 0.22554 0.18582
 C1811 C 0.42719 0.24213 0.18692
 N1812 N 0.42067 0.25754 0.19961
 C1813 C 0.37306 0.23923 0.21957
 C1814 C 0.35654 0.23883 0.22723
 C1815 C 0.33640 0.23869 0.23496
 N1816 N 0.32165 0.23628 0.22025
 N1817 N 0.30289 0.23739 0.22683
 C1818 C 0.29814 0.24086 0.24839
 N1819 N 0.31294 0.24316 0.26317
 N1820 N 0.33177 0.24207 0.25657
 N1821 N 0.40189 0.75582 0.28116
 C1822 C 0.38451 0.75496 0.29246
 N1823 N 0.38475 0.75324 0.31472
 N1824 N 0.40177 0.75242 0.32540
 C1825 C 0.41925 0.75328 0.31425
 N1826 N 0.41896 0.75501 0.29187
 C1827 C 0.36593 0.75564 0.28130
 C1828 C 0.34969 0.75596 0.27336
 C1829 C 0.32968 0.75594 0.26579
 N1830 N 0.32491 0.74855 0.24557
 N1831 N 0.30605 0.74690 0.23969
 C1832 C 0.29136 0.75261 0.25383
 N1833 N 0.29626 0.76007 0.27397
 N1834 N 0.31505 0.76175 0.27982
 N1835 N 0.88577 0.25343 0.81584
 C1836 C 0.88527 0.25493 0.79357
 N1837 N 0.90251 0.25581 0.78201
 N1838 N 0.91971 0.25523 0.79249
 C1839 C 0.92027 0.25371 0.81487
 N1840 N 0.90292 0.25285 0.82628
 C1841 C 0.86656 0.25530 0.78267
 C1842 C 0.85023 0.25533 0.77495
 C1843 C 0.83015 0.25494 0.76763
 N1844 N 0.82542 0.24840 0.74706
 N1845 N 0.80656 0.24647 0.74127
 C1846 C 0.79183 0.25104 0.75587
 N1847 N 0.79669 0.25765 0.77638
 N1848 N 0.81548 0.25961 0.78214
 N1849 N 0.56093 0.97039 0.64086
 C1850 C 0.57040 0.96707 0.62132
 N1851 N 0.59038 0.96726 0.62068
 N1852 N 0.60058 0.97063 0.63903
 C1853 C 0.59119 0.97410 0.65866
 N1854 N 0.57115 0.97376 0.65922
 C1855 C 0.55952 0.96581 0.60119
 C1856 C 0.55057 0.96620 0.58414
 C1857 C 0.54013 0.96866 0.56394
 N1858 N 0.55002 0.97450 0.54557
 N1859 N 0.54023 0.98032 0.52789
 C1860 C 0.52022 0.98051 0.52794
 N1861 N 0.51035 0.97424 0.54621
 N1862 N 0.52014 0.96844 0.56393
 N1863 N 0.06197 0.47073 1.14062
 C1864 C 0.07159 0.46814 1.12106
 N1865 N 0.09154 0.46897 1.12051
 N1866 N 0.10158 0.47231 1.13898
 C1867 C 0.09209 0.47512 1.15872
 N1868 N 0.07203 0.47406 1.15910
 C1869 C 0.06080 0.46691 1.10087
 C1870 C 0.05188 0.46732 1.08379
 C1871 C 0.04148 0.46979 1.06356
 N1872 N 0.05139 0.47561 1.04521
 N1873 N 0.04163 0.48140 1.02750
 C1874 C 0.02162 0.48158 1.02750
 N1875 N 0.01172 0.47534 1.04577
 N1876 N 0.02149 0.46957 1.06351
 N1877 N -0.09090 0.03152 1.12235
 C1878 C -0.07095 0.03245 1.12226
 N1879 N -0.06116 0.02886 1.14118
 N1880 N -0.07106 0.02455 1.15965
 C1881 C -0.09110 0.02346 1.15986
 N1882 N -0.10078 0.02720 1.14080
 C1883 C -0.06035 0.03491 1.10186
 C1884 C -0.05159 0.03553 1.08445
 C1885 C -0.04130 0.03422 1.06368
 N1886 N -0.02134 0.03535 1.06293
 N1887 N -0.01149 0.03031 1.04455
 C1888 C -0.02124 0.02393 1.02630
 N1889 N -0.04125 0.02326 1.02699
 N1890 N -0.05111 0.02832 1.04534
 N1891 N 0.44042 0.52901 0.64145
 C1892 C 0.43050 0.53296 0.62271
 N1893 N 0.41053 0.53271 0.62314
 N1894 N 0.40076 0.52869 0.64176
 C1895 C 0.41059 0.52461 0.66059
 N1896 N 0.43064 0.52500 0.66009
 C1897 C 0.44092 0.53509 0.60213
 C1898 C 0.44954 0.53544 0.58463
 C1899 C 0.45968 0.53383 0.56378
 N1900 N 0.44979 0.52750 0.54568
 N1901 N 0.45955 0.52224 0.52733
 C1902 C 0.47955 0.52314 0.52641
 N1903 N 0.48938 0.52996 0.54441
 N1904 N 0.47962 0.53520 0.56279
 N1905 N 0.41577 0.46101 -0.14448
 C1906 C 0.42906 0.47373 -0.13561
 N1907 N 0.43297 0.49091 -0.14600
 N1908 N 0.42385 0.49528 -0.16467
 C1909 C 0.41043 0.48266 -0.17362
 N1910 N 0.40666 0.46538 -0.16318
 C1911 C 0.43785 0.46993 -0.11465
 C1912 C 0.44512 0.46811 -0.09672
 C1913 C 0.45364 0.46797 -0.07514
 N1914 N 0.47319 0.46459 -0.07270
 N1915 N 0.48182 0.46814 -0.05335
 C1916 C 0.47120 0.47519 -0.03580
 N1917 N 0.45156 0.47817 -0.03825
 N1918 N 0.44293 0.47458 -0.05754
 N1919 N -0.08603 0.96032 0.35407
 C1920 C -0.07288 0.97320 0.36294
 N1921 N -0.06903 0.99034 0.35245
 N1922 N -0.07807 0.99453 0.33368
 C1923 C -0.09135 0.98176 0.32473
 N1924 N -0.09506 0.96452 0.33527
 C1925 C -0.06413 0.96956 0.38397
 C1926 C -0.05689 0.96789 0.40193
 C1927 C -0.04837 0.96791 0.42352
 N1928 N -0.02888 0.96425 0.42602
 N1929 N -0.02020 0.96789 0.44532
 C1930 C -0.03072 0.97531 0.46277
 N1931 N -0.05030 0.97858 0.46026
 N1932 N -0.05898 0.97490 0.44102
 N1933 N 0.06790 0.50359 0.35171
 C1934 C 0.07071 0.52096 0.36263
 N1935 N 0.08317 0.53452 0.35391
 N1936 N 0.09256 0.53079 0.33484
 C1937 C 0.08991 0.51333 0.32389
 N1938 N 0.07730 0.49986 0.33267
 C1939 C 0.06183 0.52407 0.38400
 C1940 C 0.05469 0.52534 0.40228
 C1941 C 0.04660 0.52492 0.42425
 N1942 N 0.05758 0.51768 0.44080
 N1943 N 0.04940 0.51401 0.46040
 C1944 C 0.02996 0.51756 0.46424
 N1945 N 0.01904 0.52514 0.44772
 N1946 N 0.02722 0.52876 0.42805
 N1947 N 0.57015 0.00522 -0.14705
 C1948 C 0.57336 0.02259 -0.13630
 N1949 N 0.58614 0.03579 -0.14515
 N1950 N 0.59544 0.03169 -0.16418
 C1951 C 0.59237 0.01422 -0.17497
 N1952 N 0.57945 0.00112 -0.16604
 C1953 C 0.56433 0.02615 -0.11509
 C1954 C 0.55685 0.02768 -0.09700
 C1955 C 0.54806 0.02740 -0.07536
 N1956 N 0.52849 0.03078 -0.07255
 N1957 N 0.51959 0.02683 -0.05335
 C1958 C 0.52996 0.01936 -0.03634
 N1959 N 0.54961 0.01637 -0.03914
 N1960 N 0.55851 0.02035 -0.05828
 N1961 N 0.64779 0.52947 -0.00742
 C1962 C 0.63149 0.54008 -0.01210
 N1963 N 0.63334 0.55965 -0.01585
 N1964 N 0.65093 0.56838 -0.01488
 C1965 C 0.66733 0.55789 -0.01009
 N1966 N 0.66541 0.53822 -0.00647
 C1967 C 0.61232 0.53111 -0.01179
 C1968 C 0.59589 0.52431 -0.01098
 C1969 C 0.57605 0.51708 -0.00936
 N1970 N 0.56238 0.52262 -0.02418
 N1971 N 0.54357 0.51727 -0.02161
 C1972 C 0.53778 0.50635 -0.00406
 N1973 N 0.55159 0.50056 0.01056
 N1974 N 0.57039 0.50590 0.00800
 N1975 N 0.14626 1.02843 0.49135
 C1976 C 0.13015 1.03906 0.48604
 N1977 N 0.13223 1.05852 0.48177
 N1978 N 0.14988 1.06712 0.48285
 C1979 C 0.16610 1.05661 0.48829
 N1980 N 0.16394 1.03705 0.49241
 C1981 C 0.11089 1.03029 0.48631
 C1982 C 0.09440 1.02366 0.48709
 C1983 C 0.07448 1.01663 0.48869
 N1984 N 0.06066 1.02312 0.47455
 N1985 N 0.04182 1.01791 0.47716
 C1986 C 0.03616 1.00615 0.49407
 N1987 N 0.05011 0.99946 0.50801
 N1988 N 0.06894 1.00466 0.50541
 N1989 N 0.15652 -0.02749 1.01284
 C1990 C 0.14003 -0.03818 1.01723
 N1991 N 0.14180 -0.05740 1.02258
 N1992 N 0.15948 -0.06576 1.02334
 C1993 C 0.17613 -0.05528 1.01873
 N1994 N 0.17426 -0.03588 1.01365
 C1995 C 0.12078 -0.02997 1.01459
 C1996 C 0.10418 -0.02434 1.01186
 C1997 C 0.08407 -0.01909 1.00804
 N1998 N 0.07071 -0.03342 1.00339
 N1999 N 0.05206 -0.02881 0.99932
 C2000 C 0.04609 -0.00973 0.99977
 N2001 N 0.05954 0.00462 1.00442
 N2002 N 0.07823 0.00002 1.00850
 N2003 N 0.64222 0.44085 0.52311
 C2004 C 0.64045 0.46019 0.51831
 N2005 N 0.65696 0.47106 0.51459
 N2006 N 0.67471 0.46273 0.51551
 C2007 C 0.67659 0.44322 0.52005
 N2008 N 0.65993 0.43255 0.52399
 C2009 C 0.62121 0.46840 0.51558
 C2010 C 0.60464 0.47407 0.51274
 C2011 C 0.58459 0.47941 0.50877
 N2012 N 0.57876 0.49852 0.50964
 N2013 N 0.56011 0.50323 0.50543
 C2014 C 0.54672 0.48899 0.50022
 N2015 N 0.55267 0.46990 0.49937
 N2016 N 0.57127 0.46520 0.50358
 N2017 N -0.14390 0.46489 0.51178
 C2018 C -0.13194 0.46070 0.49427
 N2019 N -0.13879 0.44907 0.47763
 N2020 N -0.15703 0.44173 0.47858
 C2021 C -0.16906 0.44571 0.49620
 N2022 N -0.16213 0.45753 0.51272
 C2023 C -0.11186 0.46740 0.49413
 C2024 C -0.09486 0.47261 0.49462
 C2025 C -0.07455 0.47839 0.49591
 N2026 N -0.06105 0.47092 0.48140
 N2027 N -0.04203 0.47557 0.48331
 C2028 C -0.03586 0.48773 0.49988
 N2029 N -0.04946 0.49534 0.51423
 N2030 N -0.06847 0.49070 0.51233
 N2031 N 0.35534 -0.03441 0.00563
 C2032 C 0.36708 -0.03914 -0.01190
 N2033 N 0.35999 -0.05125 -0.02798
 N2034 N 0.34175 -0.05851 -0.02648
 C2035 C 0.32995 -0.05398 -0.00882
 N2036 N 0.33711 -0.04168 0.00713
 C2037 C 0.38719 -0.03256 -0.01253
 C2038 C 0.40421 -0.02741 -0.01226
 C2039 C 0.42452 -0.02163 -0.01099
 N2040 N 0.43887 -0.03354 -0.01936
 N2041 N 0.45781 -0.02881 -0.01683
 C2042 C 0.46303 -0.01207 -0.00577
 N2043 N 0.44861 -0.00010 0.00243
 N2044 N 0.42967 -0.00482 -0.00010
 N2045 N 0.34487 1.03377 0.50062
 C2046 C 0.35726 1.03892 0.51714
 N2047 N 0.35079 1.05128 0.53343
 N2048 N 0.33251 1.05842 0.53309
 C2049 C 0.32008 1.05349 0.51641
 N2050 N 0.32661 1.04091 0.50027
 C2051 C 0.37741 1.03265 0.51627
 C2052 C 0.39443 1.02777 0.51463
 C2053 C 0.41470 1.02235 0.51165
 N2054 N 0.42928 1.03432 0.51920
 N2055 N 0.44812 1.02993 0.51509
 C2056 C 0.45300 1.01349 0.50322
 N2057 N 0.43835 1.00147 0.49582
 N2058 N 0.41952 1.00585 0.49992
 N2059 N -0.15364 0.53555 0.99901
 C2060 C -0.14132 0.54010 1.01580
 N2061 N -0.14782 0.55199 1.03252
 N2062 N -0.16606 0.55924 1.03233
 C2063 C -0.17842 0.55491 1.01539
 N2064 N -0.17185 0.54280 0.99882
 C2065 C -0.12121 0.53369 1.01489
 C2066 C -0.10421 0.52873 1.01327
 C2067 C -0.08394 0.52324 1.01039
 N2068 N -0.06939 0.53498 1.01842
 N2069 N -0.05054 0.53056 1.01447
 C2070 C -0.04561 0.51432 1.00228
 N2071 N -0.06024 0.50252 0.99440
 N2072 N -0.07909 0.50693 0.99834
 N2073 N 0.02165 0.63880 0.57410
 C2074 C 0.01834 0.63774 0.55209
 N2075 N 0.01324 0.65435 0.54134
 N2076 N 0.01150 0.67148 0.55233
 C2077 C 0.01474 0.67259 0.57446
 N2078 N 0.01990 0.65588 0.58506
 C2079 C 0.01941 0.61896 0.54077
 C2080 C 0.02009 0.60263 0.53257
 C2081 C 0.02057 0.58256 0.52454
 N2082 N 0.01003 0.57684 0.50661
 N2083 N 0.00877 0.55780 0.50086
 C2084 C 0.01803 0.54385 0.51282
 N2085 N 0.02865 0.54970 0.53065
 N2086 N 0.02995 0.56869 0.53637
 N2087 N 0.52007 0.13818 0.07554
 C2088 C 0.51692 0.13726 0.05348
 N2089 N 0.51227 0.15402 0.04275
 N2090 N 0.51081 0.17115 0.05379
 C2091 C 0.51389 0.17213 0.07596
 N2092 N 0.51860 0.15527 0.08655
 C2093 C 0.51775 0.11852 0.04208
 C2094 C 0.51825 0.10222 0.03378
 C2095 C 0.51855 0.08219 0.02561
 N2096 N 0.50998 0.07710 0.00617
 N2097 N 0.50872 0.05818 -0.00013
 C2098 C 0.51600 0.04375 0.01279
 N2099 N 0.52464 0.04897 0.03215
 N2100 N 0.52594 0.06782 0.03841
 N2101 N -0.00519 0.15651 0.95210
 C2102 C -0.01013 0.13969 0.94103
 N2103 N -0.01439 0.14063 0.91927
 N2104 N -0.01371 0.15778 0.90885
 C2105 C -0.00872 0.17470 0.91976
 N2106 N -0.00454 0.17372 0.94166
 C2107 C -0.00992 0.12084 0.95162
 C2108 C -0.00952 0.10439 0.95900
 C2109 C -0.00867 0.08418 0.96581
 N2110 N -0.00711 0.07933 0.98741
 N2111 N -0.00543 0.06047 0.99318
 C2112 C -0.00528 0.04588 0.97752
 N2113 N -0.00688 0.05086 0.95598
 N2114 N -0.00858 0.06964 0.95024
 N2115 N 0.48423 0.63967 0.41988
 C2116 C 0.48906 0.63869 0.44148
 N2117 N 0.49421 0.65550 0.45245
 N2118 N 0.49452 0.67274 0.44205
 C2119 C 0.48978 0.67376 0.42031
 N2120 N 0.48457 0.65685 0.40951
 C2121 C 0.48974 0.61980 0.45196
 C2122 C 0.49055 0.60335 0.45926
 C2123 C 0.49188 0.58314 0.46598
 N2124 N 0.49312 0.56871 0.45033
 N2125 N 0.49504 0.54995 0.45605
 C2126 C 0.49573 0.54487 0.47764
 N2127 N 0.49444 0.55935 0.49336
 N2128 N 0.49253 0.57819 0.48762
 N2129 N 0.48931 0.85905 0.43085
 C2130 C 0.50582 0.86391 0.44211
 N2131 N 0.52078 0.85070 0.44287
 N2132 N 0.51922 0.83319 0.43264
 C2133 C 0.50269 0.82830 0.42122
 N2134 N 0.48777 0.84160 0.42064
 C2135 C 0.50764 0.88326 0.45194
 C2136 C 0.50840 0.89995 0.45915
 C2137 C 0.50841 0.92026 0.46633
 N2138 N 0.50920 0.93470 0.45110
 N2139 N 0.50762 0.95356 0.45726
 C2140 C 0.50523 0.95871 0.47888
 N2141 N 0.50453 0.94422 0.49417
 N2142 N 0.50608 0.92530 0.48799
 N2143 N -0.00902 0.35986 0.93081
 C2144 C 0.00758 0.36476 0.94190
 N2145 N 0.02258 0.35159 0.94249
 N2146 N 0.02100 0.33409 0.93225
 C2147 C 0.00439 0.32917 0.92099
 N2148 N -0.01058 0.34242 0.92059
 C2149 C 0.00942 0.38412 0.95170
 C2150 C 0.01018 0.40082 0.95887
 C2151 C 0.01017 0.42115 0.96601
 N2152 N 0.01102 0.43555 0.95074
 N2153 N 0.00940 0.45443 0.95684
 C2154 C 0.00689 0.45962 0.97843
 N2155 N 0.00613 0.44517 0.99376
 N2156 N 0.00773 0.42624 0.98764
 N2157 N 0.47435 0.34367 0.05184
 C2158 C 0.48830 0.35806 0.05262
 N2159 N 0.50469 0.35522 0.06475
 N2160 N 0.50707 0.33855 0.07578
 C2161 C 0.49315 0.32407 0.07517
 N2162 N 0.47676 0.32696 0.06288
 C2163 C 0.48551 0.37658 0.04175
 C2164 C 0.48380 0.39264 0.03361
 C2165 C 0.48255 0.41238 0.02531
 N2166 N 0.49184 0.41741 0.00621
 N2167 N 0.49270 0.43622 0.00004
 C2168 C 0.48427 0.45065 0.01276
 N2169 N 0.47485 0.44549 0.03176
 N2170 N 0.47396 0.42671 0.03789
 N2171 N -0.02720 0.84377 0.55054
 C2172 C -0.01347 0.85837 0.55151
 N2173 N 0.00285 0.85574 0.56381
 N2174 N 0.00540 0.83909 0.57481
 C2175 C -0.00829 0.82440 0.57400
 N2176 N -0.02463 0.82708 0.56156
 C2177 C -0.01640 0.87684 0.54059
 C2178 C -0.01817 0.89287 0.53239
 C2179 C -0.01943 0.91257 0.52398
 N2180 N -0.02804 0.92695 0.53647
 N2181 N -0.02711 0.94570 0.53026
 C2182 C -0.01760 0.95079 0.51128
 N2183 N -0.00916 0.93631 0.49866
 N2184 N -0.01006 0.91753 0.50490
 N2185 N 0.21939 0.31122 0.11135
 C2186 C 0.21631 0.32079 0.13090
 N2187 N 0.21675 0.34077 0.13152
 N2188 N 0.22014 0.35088 0.11315
 C2189 C 0.22338 0.34139 0.09352
 N2190 N 0.22278 0.32134 0.09297
 C2191 C 0.21508 0.30998 0.15104
 C2192 C 0.21552 0.30108 0.16809
 C2193 C 0.21807 0.29071 0.18830
 N2194 N 0.22367 0.30073 0.20673
 N2195 N 0.22963 0.29107 0.22443
 C2196 C 0.23022 0.27106 0.22433
 N2197 N 0.22419 0.26106 0.20600
 N2198 N 0.21825 0.27072 0.18827
 N2199 N 0.71583 0.84009 0.62986
 C2200 C 0.71615 0.82011 0.62929
 N2201 N 0.71983 0.81062 0.60982
 N2202 N 0.72307 0.82081 0.59146
 C2203 C 0.72291 0.84087 0.59196
 N2204 N 0.71907 0.85027 0.61151
 C2205 C 0.71506 0.80932 0.64944
 C2206 C 0.71561 0.80047 0.66653
 C2207 C 0.71825 0.79020 0.68679
 N2208 N 0.71814 0.77020 0.68694
 N2209 N 0.72411 0.76059 0.70469
 C2210 C 0.73045 0.77064 0.72286
 N2211 N 0.73016 0.79065 0.72277
 N2212 N 0.72417 0.80027 0.70505
 N2213 N 0.27823 0.69041 0.60609
 C2214 C 0.28227 0.68053 0.62482
 N2215 N 0.28221 0.66055 0.62432
 N2216 N 0.27828 0.65075 0.60565
 C2217 C 0.27412 0.66054 0.58683
 N2218 N 0.27431 0.68059 0.58741
 C2219 C 0.28438 0.69097 0.64544
 C2220 C 0.28477 0.69957 0.66299
 C2221 C 0.28326 0.70965 0.68391
 N2222 N 0.27693 0.69973 0.70195
 N2223 N 0.27185 0.70946 0.72040
 C2224 C 0.27295 0.72944 0.72150
 N2225 N 0.27976 0.73930 0.70356
 N2226 N 0.28482 0.72958 0.68508
 N2227 N 0.78137 0.15900 0.12624
 C2228 C 0.78180 0.17897 0.12656
 N2229 N 0.77792 0.18879 0.10775
 N2230 N 0.77381 0.17891 0.08916
 C2231 C 0.77327 0.15886 0.08876
 N2232 N 0.77726 0.14913 0.10767
 C2233 C 0.78413 0.18951 0.14708
 C2234 C 0.78473 0.19819 0.16457
 C2235 C 0.78343 0.20839 0.18545
 N2236 N 0.78493 0.22833 0.18645
 N2237 N 0.78001 0.23814 0.20492
 C2238 C 0.77342 0.22836 0.22301
 N2239 N 0.77239 0.20837 0.22207
 N2240 N 0.77733 0.19855 0.20363
 N2241 N 0.71100 0.16225 0.89263
 C2242 C 0.72384 0.17540 0.88378
 N2243 N 0.74098 0.17930 0.89431
 N2244 N 0.74520 0.17033 0.91310
 C2245 C 0.73245 0.15706 0.92204
 N2246 N 0.71522 0.15328 0.91144
 C2247 C 0.72007 0.18430 0.86288
 C2248 C 0.71824 0.19184 0.84510
 C2249 C 0.71808 0.20093 0.82384
 N2250 N 0.72348 0.19035 0.80561
 N2251 N 0.72728 0.19936 0.78662
 C2252 C 0.72578 0.21926 0.78514
 N2253 N 0.71983 0.22975 0.80330
 N2254 N 0.71605 0.22075 0.82232
 N2255 N 0.21108 0.66454 0.39117
 C2256 C 0.22380 0.67781 0.38232
 N2257 N 0.24099 0.68173 0.39275
 N2258 N 0.24537 0.67266 0.41143
 C2259 C 0.23275 0.65928 0.42036
 N2260 N 0.21547 0.65548 0.40988
 C2261 C 0.21986 0.68678 0.36151
 C2262 C 0.21791 0.69436 0.34377
 C2263 C 0.21761 0.70345 0.32251
 N2264 N 0.22255 0.69276 0.30420
 N2265 N 0.22627 0.70170 0.28514
 C2266 C 0.22516 0.72162 0.28368
 N2267 N 0.21966 0.73223 0.30193
 N2268 N 0.21596 0.72331 0.32101
 N2269 N 0.75590 0.82020 0.39771
 C2270 C 0.77320 0.82374 0.38704
 N2271 N 0.78621 0.83669 0.39604
 N2272 N 0.78198 0.84582 0.41516
 C2273 C 0.76458 0.84241 0.42588
 N2274 N 0.75167 0.82934 0.41679
 C2275 C 0.77687 0.81487 0.36575
 C2276 C 0.77846 0.80746 0.34761
 C2277 C 0.77823 0.79869 0.32592
 N2278 N 0.78209 0.77920 0.32299
 N2279 N 0.77818 0.77021 0.30379
 C2280 C 0.77027 0.78039 0.28689
 N2281 N 0.76680 0.79997 0.28981
 N2282 N 0.77075 0.80897 0.30895
 N2283 N 0.25394 0.31888 0.89935
 C2284 C 0.27140 0.32164 0.88870
 N2285 N 0.28493 0.33405 0.89767
 N2286 N 0.28106 0.34342 0.91673
 C2287 C 0.26350 0.34081 0.92743
 N2288 N 0.25007 0.32825 0.91838
 C2289 C 0.27468 0.31275 0.86734
 C2290 C 0.27606 0.30559 0.84906
 C2291 C 0.27573 0.29744 0.82708
 N2292 N 0.27981 0.27811 0.82327
 N2293 N 0.27626 0.26984 0.80358
 C2294 C 0.26852 0.28063 0.78706
 N2295 N 0.26472 0.30003 0.79092
 N2296 N 0.26831 0.30830 0.81054
 N2297 N 0.80874 0.38255 0.76803
 C2298 C 0.78931 0.38048 0.76356
 N2299 N 0.77870 0.39663 0.75832
 N2300 N 0.78732 0.41432 0.75751
 C2301 C 0.80686 0.41646 0.76183
 N2302 N 0.81734 0.40021 0.76720
 C2303 C 0.78055 0.36121 0.76309
 C2304 C 0.77400 0.34468 0.76221
 C2305 C 0.76713 0.32470 0.76055
 N2306 N 0.75456 0.31921 0.74432
 N2307 N 0.74949 0.30033 0.74161
 C2308 C 0.75693 0.28630 0.75494
 N2309 N 0.76931 0.29191 0.77135
 N2310 N 0.77438 0.31078 0.77407
 N2311 N 0.27943 0.89846 0.25692
 C2312 C 0.29022 0.88206 0.26048
 N2313 N 0.30993 0.88381 0.26326
 N2314 N 0.31863 0.90142 0.26241
 C2315 C 0.30801 0.91801 0.25867
 N2316 N 0.28815 0.91611 0.25608
 C2317 C 0.28124 0.86288 0.26016
 C2318 C 0.27448 0.84643 0.25941
 C2319 C 0.26736 0.82653 0.25791
 N2320 N 0.27404 0.81272 0.27193
 N2321 N 0.26877 0.79388 0.26940
 C2322 C 0.25674 0.78820 0.25268
 N2323 N 0.24986 0.80213 0.23885
 N2324 N 0.25512 0.82097 0.24138
 N2325 N 0.19208 0.89265 0.72337
 C2326 C 0.21087 0.89062 0.73030
 N2327 N 0.22128 0.90693 0.73626
 N2328 N 0.21305 0.92474 0.73544
 C2329 C 0.19411 0.92682 0.72874
 N2330 N 0.18387 0.91042 0.72259
 C2331 C 0.21880 0.87127 0.73304
 C2332 C 0.22432 0.85465 0.73587
 C2333 C 0.22960 0.83458 0.73980
 N2334 N 0.24867 0.82865 0.73864
 N2335 N 0.25335 0.80999 0.74277
 C2336 C 0.23913 0.79667 0.74819
 N2337 N 0.22009 0.80272 0.74933
 N2338 N 0.21540 0.82133 0.74520
 N2339 N 0.69419 0.39199 0.22340
 C2340 C 0.71267 0.38991 0.23125
 N2341 N 0.72277 0.40617 0.23802
 N2342 N 0.71454 0.42396 0.23709
 C2343 C 0.69588 0.42609 0.22947
 N2344 N 0.68596 0.40974 0.22251
 C2345 C 0.72050 0.37055 0.23418
 C2346 C 0.72591 0.35391 0.23716
 C2347 C 0.73103 0.33382 0.24123
 N2348 N 0.75008 0.32781 0.24049
 N2349 N 0.75459 0.30912 0.24469
 C2350 C 0.74020 0.29586 0.24976
 N2351 N 0.72118 0.30200 0.25051
 N2352 N 0.71667 0.32065 0.24631
 N2353 N 0.71633 0.60554 0.24540
 C2354 C 0.71157 0.61723 0.26298
 N2355 N 0.69934 0.61013 0.27888
 N2356 N 0.69198 0.59193 0.27714
 C2357 C 0.69654 0.58019 0.25941
 N2358 N 0.70896 0.58735 0.24365
 C2359 C 0.71822 0.63732 0.26381
 C2360 C 0.72343 0.65432 0.26366
 C2361 C 0.72925 0.67463 0.26246
 N2362 N 0.74651 0.67967 0.25252
 N2363 N 0.75128 0.69858 0.24990
 C2364 C 0.73891 0.71308 0.25707
 N2365 N 0.72170 0.70797 0.26719
 N2366 N 0.71693 0.68906 0.26981
 N2367 N 0.21546 0.10665 0.73944
 C2368 C 0.21134 0.11860 0.75701
 N2369 N 0.19963 0.11178 0.77353
 N2370 N 0.19215 0.09359 0.77242
 C2371 C 0.19606 0.08159 0.75474
 N2372 N 0.20797 0.08848 0.73833
 C2373 C 0.21816 0.13864 0.75729
 C2374 C 0.22347 0.15561 0.75686
 C2375 C 0.22938 0.17589 0.75558
 N2376 N 0.22234 0.18939 0.77037
 N2377 N 0.22704 0.20840 0.76843
 C2378 C 0.23880 0.21454 0.75156
 N2379 N 0.24599 0.20092 0.73693
 N2380 N 0.24130 0.18192 0.73886
 N2381 N 0.28470 0.09607 0.25201
 C2382 C 0.28946 0.10856 0.23550
 N2383 N 0.30143 0.10218 0.21881
 N2384 N 0.30856 0.08388 0.21876
 C2385 C 0.30401 0.07134 0.23541
 N2386 N 0.29183 0.07779 0.25196
 C2387 C 0.28313 0.12870 0.23666
 C2388 C 0.27821 0.14570 0.23846
 C2389 C 0.27271 0.16596 0.24152
 N2390 N 0.25668 0.17076 0.25401
 N2391 N 0.25222 0.18960 0.25801
 C2392 C 0.26369 0.20428 0.24973
 N2393 N 0.27966 0.19940 0.23710
 N2394 N 0.28413 0.18056 0.23310
 N2395 N 0.78479 0.59576 0.75135
 C2396 C 0.78977 0.60806 0.73474
 N2397 N 0.80195 0.60149 0.71833
 N2398 N 0.80905 0.58319 0.71865
 C2399 C 0.80427 0.57084 0.73541
 N2400 N 0.79189 0.57748 0.75167
 C2401 C 0.78347 0.62821 0.73555
 C2402 C 0.77856 0.64523 0.73712
 C2403 C 0.77306 0.66551 0.73996
 N2404 N 0.75647 0.67034 0.75147
 N2405 N 0.75200 0.68919 0.75540
 C2406 C 0.76400 0.70384 0.74805
 N2407 N 0.78054 0.69893 0.73640
 N2408 N 0.78502 0.68008 0.73246
 N2409 N 0.88868 0.76971 0.17479
 C2410 C 0.88801 0.76718 0.19693
 N2411 N 0.90497 0.76334 0.20770
 N2412 N 0.92205 0.76205 0.19659
 C2413 C 0.92285 0.76447 0.17427
 N2414 N 0.90571 0.76840 0.16371
 C2415 C 0.86934 0.76790 0.20845
 C2416 C 0.85310 0.76831 0.21684
 C2417 C 0.83313 0.76854 0.22513
 N2418 N 0.82809 0.75943 0.24422
 N2419 N 0.80921 0.75812 0.25056
 C2420 C 0.79475 0.76589 0.23802
 N2421 N 0.79991 0.77506 0.21900
 N2422 N 0.81874 0.77640 0.21270
 N2423 N 0.40517 0.26406 0.70942
 C2424 C 0.38845 0.26903 0.69877
 N2425 N 0.38932 0.27226 0.67674
 N2426 N 0.40632 0.27056 0.66567
 C2427 C 0.42314 0.26553 0.67617
 N2428 N 0.42222 0.26238 0.69832
 C2429 C 0.36976 0.27004 0.71022
 C2430 C 0.35350 0.27067 0.71854
 C2431 C 0.33350 0.27109 0.72671
 N2432 N 0.31959 0.28075 0.71523
 N2433 N 0.30063 0.27941 0.72101
 C2434 C 0.29487 0.26846 0.73858
 N2435 N 0.30887 0.25892 0.75020
 N2436 N 0.32787 0.26022 0.74437
 N2437 N 0.38972 0.73379 0.82824
 C2438 C 0.38887 0.73863 0.80665
 N2439 N 0.40575 0.74372 0.79585
 N2440 N 0.42293 0.74396 0.80641
 C2441 C 0.42383 0.73920 0.82815
 N2442 N 0.40685 0.73405 0.83877
 C2443 C 0.37003 0.73939 0.79601
 C2444 C 0.35359 0.74027 0.78864
 C2445 C 0.33338 0.74166 0.78192
 N2446 N 0.31901 0.74295 0.79758
 N2447 N 0.30024 0.74490 0.79188
 C2448 C 0.29508 0.74558 0.77031
 N2449 N 0.30950 0.74426 0.75456
 N2450 N 0.32836 0.74232 0.76028
 N2451 N 0.89005 0.23461 0.33082
 C2452 C 0.88927 0.23900 0.30909
 N2453 N 0.90618 0.24397 0.29827
 N2454 N 0.92331 0.24451 0.30892
 C2455 C 0.92413 0.24019 0.33079
 N2456 N 0.90713 0.23517 0.34144
 C2457 C 0.87049 0.23933 0.29828
 C2458 C 0.85408 0.23982 0.29076
 C2459 C 0.83389 0.24074 0.28383
 N2460 N 0.81933 0.24085 0.29933
 N2461 N 0.80057 0.24260 0.29350
 C2462 C 0.79562 0.24424 0.27194
 N2463 N 0.81023 0.24408 0.25636
 N2464 N 0.82907 0.24235 0.26221
 N2465 N 0.10919 0.23982 0.32138
 C2466 C 0.11400 0.25643 0.31033
 N2467 N 0.10077 0.27138 0.30973
 N2468 N 0.08328 0.26972 0.31990
 C2469 C 0.07843 0.25310 0.33111
 N2470 N 0.09175 0.23819 0.33154
 C2471 C 0.13334 0.25836 0.30054
 C2472 C 0.15000 0.25922 0.29334
 C2473 C 0.17029 0.25938 0.28613
 N2474 N 0.18477 0.26056 0.30132
 N2475 N 0.20363 0.25911 0.29516
 C2476 C 0.20872 0.25647 0.27356
 N2477 N 0.19418 0.25538 0.25831
 N2478 N 0.17527 0.25681 0.26449
 N2479 N 0.60076 0.77038 0.80749
 C2480 C 0.61412 0.75557 0.80846
 N2481 N 0.60936 0.73906 0.81972
 N2482 N 0.59186 0.73738 0.82972
 C2483 C 0.57840 0.75216 0.82892
 N2484 N 0.58320 0.76868 0.81750
 C2485 C 0.63350 0.75754 0.79880
 C2486 C 0.65019 0.75845 0.79168
 C2487 C 0.67049 0.75866 0.78453
 N2488 N 0.67552 0.75624 0.76288
 N2489 N 0.69444 0.75487 0.75673
 C2490 C 0.70895 0.75587 0.77202
 N2491 N 0.70381 0.75837 0.79362
 N2492 N 0.68495 0.75976 0.79976
 N2493 N 0.60615 0.25365 0.68650
 C2494 C 0.60903 0.23702 0.69817
 N2495 N 0.59456 0.22316 0.69875
 N2496 N 0.57774 0.22588 0.68798
 C2497 C 0.57482 0.24253 0.67615
 N2498 N 0.58938 0.25636 0.67574
 C2499 C 0.62771 0.23385 0.70858
 C2500 C 0.64395 0.23191 0.71622
 C2501 C 0.66394 0.23050 0.72376
 N2502 N 0.66879 0.23560 0.74479
 N2503 N 0.68767 0.23643 0.75081
 C2504 C 0.70231 0.23218 0.73599
 N2505 N 0.69733 0.22698 0.71503
 N2506 N 0.67852 0.22610 0.70904
 N2507 N 0.10487 0.75561 0.18591
 C2508 C 0.10800 0.73895 0.19745
 N2509 N 0.09369 0.72491 0.19802
 N2510 N 0.07679 0.72750 0.18735
 C2511 C 0.07363 0.74417 0.17565
 N2512 N 0.08802 0.75818 0.17526
 C2513 C 0.12677 0.73592 0.20772
 C2514 C 0.14309 0.73407 0.21522
 C2515 C 0.16314 0.73273 0.22259
 N2516 N 0.16812 0.73786 0.24357
 N2517 N 0.18703 0.73868 0.24945
 C2518 C 0.20159 0.73439 0.23453
 N2519 N 0.19647 0.72915 0.21361
 N2520 N 0.17762 0.72829 0.20777
   
