data_POSCAR
  _audit_creation_date              2014-09-24
  _audit_creation_method            'ToBaCCo'
  _symmetry_space_group_name_H-M    'P1'
  _symmetry_Int_Tables_number       1
  _symmetry_cell_setting            triclinic
  loop_
  _symmetry_equiv_pos_as_xyz
 x,y,z
_cell_length_a 62.2853
_cell_length_b 62.2752
_cell_length_c 62.7934
_cell_angle_alpha 90.000500
_cell_angle_beta 89.998500
_cell_angle_gamma 90.062100
loop_
  _atom_site_label
  _atom_site_type_symbol
  _atom_site_fract_x
  _atom_site_fract_y
  _atom_site_fract_z
O1 O 0.36936 0.34361 -0.02144
 O2 O 0.33992 0.37288 0.02035
 O3 O 0.36926 0.34302 0.01995
 O4 O 0.34011 0.37358 -0.02107
 O5 O 0.31472 0.34874 -0.02148
 O6 O 0.34385 0.31819 0.01951
 O7 O 0.31455 0.34801 0.01988
 O8 O 0.34392 0.31880 -0.02184
 Cu9 Cu 0.35723 0.36079 -0.00051
 Cu10 Cu 0.32670 0.33093 -0.00103
 C11 C 0.36163 0.32619 -0.02861
 C12 C 0.32223 0.36541 0.02710
 C13 C 0.36152 0.32540 0.02658
 C14 C 0.32245 0.36636 -0.02814
 O15 O 0.63089 0.65824 -0.02152
 O16 O 0.66067 0.62860 0.01975
 O17 O 0.63096 0.65808 0.02004
 O18 O 0.66057 0.62867 -0.02151
 O19 O 0.68562 0.65386 -0.02147
 O20 O 0.65603 0.68325 0.02003
 O21 O 0.68572 0.65381 0.01975
 O22 O 0.65597 0.68340 -0.02148
 Cu23 Cu 0.64319 0.64090 -0.00082
 Cu24 Cu 0.67332 0.67117 -0.00080
 C25 C 0.63842 0.67583 -0.02846
 C26 C 0.67831 0.63612 0.02656
 C27 C 0.63853 0.67561 0.02707
 C28 C 0.67821 0.63618 -0.02833
 O29 O 0.65369 0.37442 0.97905
 O30 O 0.62431 0.34558 1.02120
 O31 O 0.65422 0.37489 1.02044
 O32 O 0.62377 0.34505 0.97966
 O33 O 0.64866 0.31976 0.97969
 O34 O 0.67905 0.34953 1.02038
 O35 O 0.64920 0.32028 1.02115
 O36 O 0.67853 0.34907 0.97906
 Cu37 Cu 0.63646 0.36253 1.00008
 Cu38 Cu 0.66634 0.33208 1.00006
 C39 C 0.67114 0.36666 0.97203
 C40 C 0.63183 0.32807 1.02830
 C41 C 0.67183 0.36727 1.02723
 C42 C 0.63110 0.32735 0.97280
 O43 O 0.34347 0.62537 0.98051
 O44 O 0.37275 0.65547 1.02180
 O45 O 0.34330 0.62570 1.02217
 O46 O 0.37284 0.65525 0.98056
 O47 O 0.34756 0.68016 0.98036
 O48 O 0.31808 0.65065 1.02190
 O49 O 0.34748 0.68040 1.02155
 O50 O 0.31823 0.65032 0.98030
 Cu51 Cu 0.36058 0.63785 1.00128
 Cu52 Cu 0.33022 0.66783 1.00100
 C53 C 0.32596 0.63284 0.97335
 C54 C 0.36516 0.67312 1.02848
 C55 C 0.32575 0.63327 1.02914
 C56 C 0.36528 0.67281 0.97360
 O57 O -0.01977 0.37263 0.34329
 O58 O 0.02127 0.34375 0.37437
 O59 O 0.02196 0.37282 0.34447
 O60 O -0.02055 0.34360 0.37330
 O61 O -0.01977 0.31804 0.34887
 O62 O 0.02266 0.34721 0.32007
 O63 O 0.02197 0.31819 0.34993
 O64 O -0.01900 0.34701 0.31891
 Cu65 Cu 0.00064 0.36078 0.36134
 Cu66 Cu 0.00153 0.33002 0.33200
 C67 C -0.02621 0.36474 0.32579
 C68 C 0.02851 0.32607 0.36739
 C69 C 0.02941 0.36498 0.32734
 C70 C -0.02729 0.32584 0.36597
 O71 O 0.01868 0.66083 0.62994
 O72 O -0.02310 0.63025 0.65820
 O73 O -0.02294 0.66039 0.62934
 O74 O 0.01863 0.63077 0.65891
 O75 O 0.01796 0.65549 0.68418
 O76 O -0.02357 0.68508 0.65465
 O77 O -0.02375 0.65495 0.68349
 O78 O 0.01803 0.68555 0.65523
 Cu79 Cu -0.00211 0.64304 0.64155
 Cu80 Cu -0.00290 0.67275 0.67196
 C81 C 0.02526 0.67844 0.63771
 C82 C -0.03041 0.63739 0.67566
 C83 C -0.03014 0.67784 0.63693
 C84 C 0.02523 0.63809 0.67659
 O85 O 1.01902 0.62501 0.34566
 O86 O 0.97701 0.65334 0.37588
 O87 O 0.97732 0.62407 0.34614
 O88 O 1.01879 0.65414 0.37555
 O89 O 1.01804 0.67959 0.35100
 O90 O 0.97661 0.64954 0.32160
 O91 O 0.97631 0.67877 0.35130
 O92 O 1.01825 0.65050 0.32115
 Cu93 Cu 0.99812 0.63658 0.36330
 Cu94 Cu 0.99723 0.66718 0.33380
 C95 C 1.02562 0.63292 0.32823
 C96 C 0.96962 0.67088 0.36870
 C97 C 0.97006 0.63167 0.32884
 C98 C 1.02537 0.67198 0.36827
 O99 O 0.98082 0.33836 0.63123
 O100 O 1.02290 0.36859 0.65943
 O101 O 1.02247 0.33855 0.63047
 O102 O 0.98118 0.36831 0.66033
 O103 O 0.98182 0.34348 0.68550
 O104 O 1.02308 0.31377 0.65569
 O105 O 1.02351 0.34378 0.68463
 O106 O 0.98145 0.31354 0.65642
 Cu107 Cu 1.00177 0.35597 0.64283
 Cu108 Cu 1.00252 0.32615 0.67312
 C109 C 0.97418 0.32075 0.63897
 C110 C 1.03023 0.36134 0.67684
 C111 C 1.02963 0.32105 0.63798
 C112 C 0.97462 0.36097 0.67802
 O113 O 0.37208 0.01959 0.34105
 O114 O 0.34181 -0.02236 0.36954
 O115 O 0.37193 -0.02234 0.34063
 O116 O 0.34196 0.01923 0.36993
 O117 O 0.31726 0.01950 0.34462
 O118 O 0.34720 -0.02201 0.31536
 O119 O 0.31712 -0.02204 0.34422
 O120 O 0.34734 0.01985 0.31579
 Cu121 Cu 0.35950 -0.00151 0.35779
 Cu122 Cu 0.32980 -0.00115 0.32739
 C123 C 0.36477 0.02684 0.32362
 C124 C 0.32424 -0.02910 0.36180
 C125 C 0.36459 -0.02921 0.32306
 C126 C 0.32444 0.02621 0.36231
 O127 O 0.65532 -0.01979 0.62787
 O128 O 0.62623 0.02198 0.65770
 O129 O 0.65540 0.02199 0.62780
 O130 O 0.62615 -0.01969 0.65775
 O131 O 0.65167 -0.01965 0.68224
 O132 O 0.68087 0.02198 0.65234
 O133 O 0.65175 0.02198 0.68219
 O134 O 0.68080 -0.01974 0.65240
 Cu135 Cu 0.63821 0.00112 0.64029
 Cu136 Cu 0.66886 0.00115 0.66975
 C137 C 0.67303 -0.02674 0.63507
 C138 C 0.63400 0.02888 0.67508
 C139 C 0.67314 0.02893 0.63497
 C140 C 0.63391 -0.02658 0.67514
 O141 O 0.34707 1.01896 0.62485
 O142 O 0.37552 0.97678 0.65482
 O143 O 0.34645 0.97726 0.62486
 O144 O 0.37620 1.01870 0.65466
 O145 O 0.35064 1.01910 0.67911
 O146 O 0.32092 0.97770 0.64934
 O147 O 0.34995 0.97725 0.67925
 O148 O 0.32156 1.01935 0.64935
 Cu149 Cu 0.36393 0.99786 0.63736
 Cu150 Cu 0.33323 0.99837 0.66676
 C151 C 0.32945 1.02619 0.63201
 C152 C 0.36751 0.96990 0.67210
 C153 C 0.32858 0.97061 0.63200
 C154 C 0.36840 1.02594 0.67188
 O155 O 0.65948 1.02287 0.36897
 O156 O 0.62980 0.98117 0.33957
 O157 O 0.65961 0.98122 0.36876
 O158 O 0.62947 1.02291 0.33991
 O159 O 0.65437 1.02322 0.31480
 O160 O 0.68451 0.98155 0.34365
 O161 O 0.65472 0.98150 0.31448
 O162 O 0.68435 1.02317 0.34383
 Cu163 Cu 0.64206 1.00202 0.35683
 Cu164 Cu 0.67198 1.00241 0.32663
 C165 C 0.67704 1.02990 0.36145
 C166 C 0.63723 0.97436 0.32202
 C167 C 0.67722 0.97447 0.36116
 C168 C 0.63678 1.03001 0.32242
 C169 C 0.81246 0.81482 0.51058
 C170 C 0.81221 0.81450 0.48887
 C171 C 0.82545 0.79903 0.47656
 C172 C 0.79923 0.83004 0.47637
 C173 C 0.79786 0.82891 0.52300
 C174 C 0.82778 0.80149 0.52298
 C175 C 0.83989 0.80665 0.46113
 C176 C 0.85317 0.79237 0.45016
 C177 C 0.85204 0.77033 0.45437
 C178 C 0.83728 0.76255 0.46932
 C179 C 0.82396 0.77682 0.48030
 C180 C 0.80154 0.85227 0.47950
 C181 C 0.78915 0.86673 0.46774
 C182 C 0.77450 0.85913 0.45260
 C183 C 0.77241 0.83702 0.44913
 C184 C 0.78477 0.82254 0.46090
 C185 C 0.77552 0.82828 0.51983
 C186 C 0.76206 0.84210 0.53121
 C187 C 0.77078 0.85650 0.54599
 C188 C 0.79296 0.85687 0.54955
 C189 C 0.80642 0.84309 0.53818
 C190 C 0.82011 0.78744 0.53874
 C191 C 0.83439 0.77470 0.55034
 C192 C 0.85648 0.77600 0.54642
 C193 C 0.86427 0.79025 0.53099
 C194 C 0.85001 0.80301 0.51939
 H195 H 0.84122 0.82369 0.45795
 H196 H 0.86452 0.79855 0.43860
 H197 H 0.83623 0.74551 0.47263
 H198 H 0.81267 0.77060 0.49188
 H199 H 0.81294 0.85840 0.49103
 H200 H 0.79098 0.88382 0.47045
 H201 H 0.78290 0.80547 0.45813
 H202 H 0.76857 0.81720 0.50846
 H203 H 0.74490 0.84163 0.52841
 H204 H 0.79985 0.86794 0.56098
 H205 H 0.82358 0.84376 0.54093
 H206 H 0.80304 0.78617 0.54184
 H207 H 0.82821 0.76378 0.56231
 H208 H 0.88135 0.79148 0.52794
 H209 H 0.85627 0.81406 0.50761
 H210 H 0.76118 0.83098 0.43738
 C211 C 0.18716 0.18460 0.51108
 C212 C 0.18691 0.18460 0.48935
 C213 C 0.17319 0.19970 0.47710
 C214 C 0.19993 0.16913 0.47681
 C215 C 0.20237 0.17097 0.52331
 C216 C 0.17184 0.19778 0.52364
 C217 C 0.15872 0.19167 0.46190
 C218 C 0.14511 0.20561 0.45088
 C219 C 0.14595 0.22772 0.45479
 C220 C 0.16070 0.23591 0.46954
 C221 C 0.17434 0.22198 0.48057
 C222 C 0.19807 0.14690 0.48028
 C223 C 0.21066 0.13251 0.46863
 C224 C 0.22503 0.14017 0.45327
 C225 C 0.22663 0.16226 0.44942
 C226 C 0.21407 0.17667 0.46107
 C227 C 0.22460 0.17201 0.51954
 C228 C 0.23862 0.15843 0.53054
 C229 C 0.23058 0.14388 0.54556
 C230 C 0.20852 0.14316 0.54976
 C231 C 0.19449 0.15669 0.53876
 C232 C 0.17955 0.21205 0.53918
 C233 C 0.16527 0.22474 0.55087
 C234 C 0.14315 0.22314 0.54725
 C235 C 0.13532 0.20865 0.53206
 C236 C 0.14958 0.19594 0.52039
 H237 H 0.15764 0.17457 0.45892
 H238 H 0.13378 0.19912 0.43947
 H239 H 0.16154 0.25300 0.47262
 H240 H 0.18566 0.22852 0.49196
 H241 H 0.18693 0.14074 0.49203
 H242 H 0.20921 0.11544 0.47164
 H243 H 0.21560 0.19373 0.45805
 H244 H 0.23103 0.18317 0.50795
 H245 H 0.25567 0.15917 0.52723
 H246 H 0.20214 0.13197 0.56136
 H247 H 0.17743 0.15571 0.54197
 H248 H 0.19664 0.21358 0.54202
 H249 H 0.17148 0.23584 0.56264
 H250 H 0.11822 0.20720 0.52924
 H251 H 0.14328 0.18471 0.50880
 H252 H 0.23766 0.16834 0.43751
 C253 C 0.18302 0.81494 0.48788
 C254 C 0.18332 0.81537 0.50959
 C255 C 0.16800 0.80247 0.52244
 C256 C 0.19865 0.82915 0.52157
 C257 C 0.19624 0.83002 0.47506
 C258 C 0.16912 0.79972 0.47590
 C259 C 0.14574 0.80431 0.51925
 C260 C 0.13149 0.79184 0.53120
 C261 C 0.13933 0.77761 0.54659
 C262 C 0.16146 0.77602 0.55014
 C263 C 0.17573 0.78846 0.53819
 C264 C 0.19089 0.84374 0.53679
 C265 C 0.20504 0.85724 0.54771
 C266 C 0.22712 0.85619 0.54367
 C267 C 0.23503 0.84138 0.52885
 C268 C 0.22089 0.82784 0.51792
 C269 C 0.21042 0.82202 0.45960
 C270 C 0.22333 0.83606 0.44786
 C271 C 0.22203 0.85823 0.45133
 C272 C 0.20758 0.86634 0.46639
 C273 C 0.19465 0.85232 0.47812
 C274 C 0.17000 0.77750 0.47979
 C275 C 0.15628 0.76348 0.46893
 C276 C 0.14172 0.77149 0.45392
 C277 C 0.14112 0.79354 0.44962
 C278 C 0.15480 0.80757 0.46048
 H279 H 0.13944 0.81535 0.50749
 H280 H 0.11438 0.79326 0.52841
 H281 H 0.16767 0.76510 0.56207
 H282 H 0.19282 0.78695 0.54098
 H283 H 0.17383 0.84494 0.53990
 H284 H 0.19876 0.86861 0.55918
 H285 H 0.22723 0.81644 0.50653
 H286 H 0.21175 0.80489 0.45692
 H287 H 0.23441 0.82965 0.43619
 H288 H 0.20638 0.88348 0.46911
 H289 H 0.18350 0.85882 0.48966
 H290 H 0.18119 0.77108 0.49134
 H291 H 0.15695 0.74643 0.47231
 H292 H 0.12995 0.79991 0.43801
 H293 H 0.15393 0.82462 0.45717
 H294 H 0.25210 0.84036 0.52568
 C295 C 0.81504 0.18580 0.48869
 C296 C 0.81504 0.18554 0.51041
 C297 C 0.83047 0.19859 0.52296
 C298 C 0.80007 0.17168 0.52271
 C299 C 0.80168 0.17061 0.47616
 C300 C 0.82887 0.20080 0.47637
 C301 C 0.85271 0.19665 0.51964
 C302 C 0.86708 0.20904 0.53154
 C303 C 0.85938 0.22329 0.54698
 C304 C 0.83727 0.22503 0.55060
 C305 C 0.82288 0.21267 0.53870
 C306 C 0.80827 0.15728 0.53787
 C307 C 0.79448 0.14371 0.54915
 C308 C 0.77232 0.14450 0.54552
 C309 C 0.76396 0.15912 0.53075
 C310 C 0.77776 0.17272 0.51946
 C311 C 0.78738 0.17849 0.46075
 C312 C 0.77460 0.16435 0.44901
 C313 C 0.77612 0.14219 0.45244
 C314 C 0.79061 0.13420 0.46752
 C315 C 0.80343 0.14832 0.47925
 C316 C 0.82820 0.22308 0.48001
 C317 C 0.84171 0.23688 0.46861
 C318 C 0.85583 0.22858 0.45334
 C319 C 0.85626 0.20647 0.44937
 C320 C 0.84280 0.19267 0.46075
 H321 H 0.85889 0.18554 0.50788
 H322 H 0.88417 0.20748 0.52872
 H323 H 0.83117 0.23597 0.56258
 H324 H 0.80581 0.21425 0.54160
 H325 H 0.82540 0.15628 0.54068
 H326 H 0.80111 0.13249 0.56057
 H327 H 0.77108 0.18397 0.50810
 H328 H 0.78595 0.19561 0.45804
 H329 H 0.76349 0.17067 0.43731
 H330 H 0.79199 0.11707 0.47020
 H331 H 0.81468 0.14191 0.49074
 H332 H 0.81729 0.22972 0.49170
 H333 H 0.84119 0.25398 0.47174
 H334 H 0.86710 0.19989 0.43756
 H335 H 0.84351 0.17558 0.45764
 H336 H 0.74683 0.15992 0.52789
 C337 C 0.51082 0.81329 0.81441
 C338 C 0.48894 0.81243 0.81450
 C339 C 0.47588 0.82539 0.79944
 C340 C 0.47700 0.79890 0.83000
 C341 C 0.52397 0.79890 0.82804
 C342 C 0.52269 0.82897 0.80098
 C343 C 0.45995 0.83921 0.80734
 C344 C 0.44828 0.85228 0.79346
 C345 C 0.45230 0.85156 0.77153
 C346 C 0.46775 0.83742 0.76348
 C347 C 0.47941 0.82429 0.77735
 C348 C 0.48048 0.80106 0.85202
 C349 C 0.46937 0.78804 0.86643
 C350 C 0.45453 0.77289 0.85900
 C351 C 0.45070 0.77093 0.83712
 C352 C 0.46182 0.78393 0.82269
 C353 C 0.52135 0.77649 0.82728
 C354 C 0.53338 0.76322 0.84070
 C355 C 0.54830 0.77222 0.85481
 C356 C 0.55133 0.79448 0.85527
 C357 C 0.53930 0.80775 0.84190
 C358 C 0.53859 0.82172 0.78686
 C359 C 0.54966 0.83629 0.77396
 C360 C 0.54508 0.85825 0.77518
 C361 C 0.52951 0.86564 0.78948
 C362 C 0.51844 0.85110 0.80242
 H363 H 0.45692 0.84023 0.82429
 H364 H 0.43633 0.86315 0.79984
 H365 H 0.47093 0.83669 0.74653
 H366 H 0.49136 0.81347 0.77091
 H367 H 0.49180 0.81281 0.85801
 H368 H 0.47234 0.78978 0.88335
 H369 H 0.45881 0.78214 0.80579
 H370 H 0.50989 0.76932 0.81642
 H371 H 0.53098 0.74599 0.84016
 H372 H 0.56286 0.80159 0.86610
 H373 H 0.54164 0.82498 0.84264
 H374 H 0.54219 0.80475 0.78564
 H375 H 0.56174 0.83042 0.76300
 H376 H 0.52593 0.88263 0.79063
 H377 H 0.50655 0.85706 0.81352
 H378 H 0.43919 0.75932 0.83121
 C379 C 0.50861 0.18979 0.18784
 C380 C 0.48672 0.18971 0.18745
 C381 C 0.47399 0.17590 0.20205
 C382 C 0.47446 0.20282 0.17189
 C383 C 0.52136 0.20472 0.17439
 C384 C 0.52092 0.17443 0.20118
 C385 C 0.45876 0.16159 0.19364
 C386 C 0.44739 0.14778 0.20707
 C387 C 0.45102 0.14824 0.22905
 C388 C 0.46577 0.16284 0.23764
 C389 C 0.47713 0.17671 0.22422
 C390 C 0.47827 0.20090 0.14991
 C391 C 0.46676 0.21345 0.13543
 C392 C 0.45119 0.22787 0.14276
 C393 C 0.44704 0.22957 0.16460
 C394 C 0.45856 0.21705 0.17910
 C395 C 0.51780 0.22701 0.17503
 C396 C 0.52938 0.24073 0.16163
 C397 C 0.54477 0.23231 0.14770
 C398 C 0.54876 0.21021 0.14739
 C399 C 0.53717 0.19649 0.16071
 C400 C 0.53635 0.18211 0.21560
 C401 C 0.54799 0.16780 0.22826
 C402 C 0.54443 0.14567 0.22650
 C403 C 0.52931 0.13788 0.21192
 C404 C 0.51768 0.15217 0.19923
 H405 H 0.45605 0.16077 0.17662
 H406 H 0.43597 0.13658 0.20028
 H407 H 0.46862 0.16338 0.25465
 H408 H 0.48853 0.18790 0.23105
 H409 H 0.49015 0.18970 0.14400
 H410 H 0.47000 0.21192 0.11855
 H411 H 0.45529 0.21862 0.19597
 H412 H 0.50594 0.23372 0.18574
 H413 H 0.52624 0.25783 0.16204
 H414 H 0.56066 0.20356 0.13668
 H415 H 0.54022 0.17938 0.16005
 H416 H 0.53919 0.19920 0.21720
 H417 H 0.55974 0.17398 0.23941
 H418 H 0.52655 0.12077 0.21033
 H419 H 0.50618 0.14590 0.18787
 H420 H 0.43496 0.24062 0.17042
 C421 C 0.48656 0.18758 0.81298
 C422 C 0.50846 0.18744 0.81339
 C423 C 0.52103 0.17204 0.80036
 C424 C 0.52088 0.20223 0.82733
 C425 C 0.47390 0.20087 0.82806
 C426 C 0.47422 0.17398 0.79784
 C427 C 0.51748 0.14981 0.80208
 C428 C 0.52902 0.13549 0.78935
 C429 C 0.54437 0.14322 0.77497
 C430 C 0.54831 0.16531 0.77353
 C431 C 0.53676 0.17965 0.78624
 C432 C 0.53609 0.19383 0.84158
 C433 C 0.54731 0.20743 0.85534
 C434 C 0.54359 0.22959 0.85491
 C435 C 0.52882 0.23815 0.84041
 C436 C 0.51760 0.22456 0.82659
 C437 C 0.45864 0.21546 0.82025
 C438 C 0.44703 0.22842 0.83429
 C439 C 0.45045 0.22679 0.85627
 C440 C 0.46531 0.21196 0.86418
 C441 C 0.47690 0.19896 0.85016
 C442 C 0.47809 0.17497 0.77580
 C443 C 0.46714 0.16126 0.76188
 C444 C 0.45206 0.14661 0.76982
 C445 C 0.44770 0.14599 0.79168
 C446 C 0.45865 0.15965 0.80561
 H447 H 0.50571 0.14360 0.81318
 H448 H 0.52594 0.11841 0.79067
 H449 H 0.56021 0.17144 0.76250
 H450 H 0.53982 0.19672 0.78482
 H451 H 0.53893 0.17669 0.84234
 H452 H 0.55875 0.20065 0.86646
 H453 H 0.50623 0.23140 0.81544
 H454 H 0.45599 0.21703 0.80327
 H455 H 0.43548 0.23978 0.82802
 H456 H 0.46797 0.21048 0.88117
 H457 H 0.48829 0.18750 0.85652
 H458 H 0.48976 0.18616 0.76944
 H459 H 0.47058 0.16194 0.74498
 H460 H 0.43605 0.13474 0.79799
 H461 H 0.45537 0.15869 0.82252
 H462 H 0.52589 0.25529 0.83987
 C463 C 0.49106 0.81211 0.18601
 C464 C 0.51295 0.81250 0.18620
 C465 C 0.52505 0.82811 0.19945
 C466 C 0.52589 0.79789 0.17258
 C467 C 0.47894 0.79863 0.17066
 C468 C 0.47813 0.82572 0.20062
 C469 C 0.52136 0.85029 0.19752
 C470 C 0.53269 0.86482 0.21022
 C471 C 0.54798 0.85735 0.22478
 C472 C 0.55202 0.83531 0.22649
 C473 C 0.54067 0.82076 0.21382
 C474 C 0.54134 0.80653 0.15871
 C475 C 0.55312 0.79311 0.14526
 C476 C 0.54970 0.77090 0.14563
 C477 C 0.53465 0.76210 0.15973
 C478 C 0.52287 0.77552 0.17323
 C479 C 0.46346 0.78405 0.17812
 C480 C 0.45204 0.77120 0.16382
 C481 C 0.45587 0.77293 0.14192
 C482 C 0.47101 0.78769 0.13434
 C483 C 0.48242 0.80057 0.14862
 C484 C 0.48131 0.82507 0.22278
 C485 C 0.46949 0.83855 0.23620
 C486 C 0.45423 0.85259 0.22761
 C487 C 0.45065 0.85294 0.20561
 C488 C 0.46247 0.83953 0.19220
 H489 H 0.50970 0.85630 0.18621
 H490 H 0.52955 0.88186 0.20869
 H491 H 0.56389 0.82939 0.23765
 H492 H 0.54386 0.80373 0.21539
 H493 H 0.54396 0.82371 0.15800
 H494 H 0.56475 0.80007 0.13443
 H495 H 0.51130 0.76850 0.18407
 H496 H 0.46043 0.78247 0.19504
 H497 H 0.44028 0.75988 0.16983
 H498 H 0.47398 0.78924 0.11740
 H499 H 0.49395 0.81205 0.14253
 H500 H 0.49304 0.81427 0.22964
 H501 H 0.47232 0.83810 0.25322
 H502 H 0.43885 0.86372 0.19881
 H503 H 0.45971 0.84022 0.17518
 H504 H 0.53195 0.74492 0.16018
 C505 C 0.81452 0.50889 0.81478
 C506 C 0.81460 0.48699 0.81457
 C507 C 0.79947 0.47435 0.82791
 C508 C 0.83012 0.47465 0.80141
 C509 C 0.82804 0.52161 0.79992
 C510 C 0.80125 0.52121 0.83018
 C511 C 0.80745 0.45891 0.84214
 C512 C 0.79347 0.44769 0.85553
 C513 C 0.77137 0.45167 0.85471
 C514 C 0.76323 0.46662 0.84016
 C515 C 0.77720 0.47783 0.82673
 C516 C 0.85233 0.47832 0.80318
 C517 C 0.86676 0.46685 0.79050
 C518 C 0.85918 0.45144 0.77611
 C519 C 0.83711 0.44741 0.77456
 C520 C 0.82266 0.45889 0.78721
 C521 C 0.82695 0.51830 0.77780
 C522 C 0.84022 0.52998 0.76407
 C523 C 0.85453 0.54521 0.77231
 C524 C 0.85535 0.54891 0.79427
 C525 C 0.84212 0.53724 0.80801
 C526 C 0.78696 0.53696 0.82278
 C527 C 0.77432 0.54854 0.83713
 C528 C 0.77596 0.54462 0.85902
 C529 C 0.79043 0.52919 0.86654
 C530 C 0.80310 0.51761 0.85221
 H531 H 0.82454 0.45593 0.84322
 H532 H 0.79992 0.43614 0.86673
 H533 H 0.74615 0.46975 0.83934
 H534 H 0.77070 0.48942 0.81560
 H535 H 0.85845 0.49008 0.81435
 H536 H 0.88381 0.47000 0.79191
 H537 H 0.80562 0.45572 0.78573
 H538 H 0.81592 0.50659 0.77122
 H539 H 0.83942 0.52705 0.74708
 H540 H 0.86635 0.56069 0.80080
 H541 H 0.84313 0.54010 0.82500
 H542 H 0.78544 0.54008 0.80588
 H543 H 0.76324 0.56052 0.83116
 H544 H 0.79192 0.52613 0.88346
 H545 H 0.81434 0.50585 0.85827
 H546 H 0.83109 0.43545 0.76353
 C547 C 0.18754 0.51264 0.18910
 C548 C 0.18770 0.49074 0.18880
 C549 C 0.20097 0.47853 0.17332
 C550 C 0.17404 0.47788 0.20345
 C551 C 0.17190 0.52476 0.20228
 C552 C 0.20250 0.52551 0.17574
 C553 C 0.19910 0.48227 0.15131
 C554 C 0.21166 0.47068 0.13690
 C555 C 0.22601 0.45509 0.14431
 C556 C 0.22767 0.45103 0.16617
 C557 C 0.21515 0.46264 0.18061
 C558 C 0.15997 0.46239 0.19510
 C559 C 0.14652 0.45067 0.20859
 C560 C 0.14711 0.45417 0.23060
 C561 C 0.16142 0.46925 0.23912
 C562 C 0.17492 0.48098 0.22562
 C563 C 0.17921 0.54019 0.21689
 C564 C 0.16461 0.55134 0.22968
 C565 C 0.14257 0.54729 0.22784
 C566 C 0.13515 0.53226 0.21298
 C567 C 0.14972 0.52113 0.20018
 C568 C 0.22479 0.52203 0.17647
 C569 C 0.23853 0.53359 0.16307
 C570 C 0.23016 0.54889 0.14901
 C571 C 0.20805 0.55285 0.14864
 C572 C 0.19429 0.54128 0.16198
 H573 H 0.18792 0.49413 0.14534
 H574 H 0.21015 0.47384 0.12000
 H575 H 0.23867 0.43894 0.17205
 H576 H 0.21667 0.45940 0.19749
 H577 H 0.15910 0.45969 0.17808
 H578 H 0.13551 0.43903 0.20185
 H579 H 0.18592 0.49259 0.23241
 H580 H 0.19623 0.54333 0.21861
 H581 H 0.17050 0.56301 0.24107
 H582 H 0.11811 0.52911 0.21134
 H583 H 0.14374 0.50961 0.18869
 H584 H 0.23149 0.51023 0.18724
 H585 H 0.25564 0.53046 0.16354
 H586 H 0.20141 0.56468 0.13785
 H587 H 0.17719 0.54429 0.16123
 H588 H 0.16205 0.47203 0.25614
 C589 C 0.81523 0.48657 0.18412
 C590 C 0.81528 0.50848 0.18439
 C591 C 0.80231 0.52117 0.16905
 C592 C 0.82866 0.52079 0.19973
 C593 C 0.83050 0.47395 0.19728
 C594 C 0.80019 0.47425 0.17037
 C595 C 0.80435 0.51788 0.14699
 C596 C 0.79176 0.52960 0.13272
 C597 C 0.77720 0.54489 0.14033
 C598 C 0.77541 0.54857 0.16226
 C599 C 0.78797 0.53683 0.17655
 C600 C 0.84309 0.53638 0.19221
 C601 C 0.85635 0.54750 0.20639
 C602 C 0.85520 0.54328 0.22826
 C603 C 0.84050 0.52811 0.23593
 C604 C 0.82721 0.51700 0.22176
 C605 C 0.82275 0.45825 0.21139
 C606 C 0.83695 0.44687 0.22441
 C607 C 0.85903 0.45095 0.22331
 C608 C 0.86691 0.46620 0.20891
 C609 C 0.85274 0.47756 0.19586
 C610 C 0.77793 0.47788 0.17129
 C611 C 0.76406 0.46692 0.15756
 C612 C 0.77226 0.45207 0.14293
 C613 C 0.79435 0.44797 0.14233
 C614 C 0.80824 0.45893 0.15604
 H615 H 0.81563 0.50618 0.14087
 H616 H 0.79335 0.52673 0.11578
 H617 H 0.76424 0.56042 0.16830
 H618 H 0.78629 0.53970 0.19348
 H619 H 0.84439 0.53961 0.17530
 H620 H 0.86764 0.55923 0.20028
 H621 H 0.81592 0.50531 0.22792
 H622 H 0.80568 0.45515 0.21260
 H623 H 0.83071 0.43504 0.23545
 H624 H 0.88398 0.46939 0.20786
 H625 H 0.85907 0.48930 0.18479
 H626 H 0.77136 0.48936 0.18248
 H627 H 0.74698 0.47015 0.15822
 H628 H 0.80086 0.43649 0.13110
 H629 H 0.82532 0.45584 0.15514
 H630 H 0.83942 0.52478 0.25283
 C631 C 0.18738 0.49142 0.81233
 C632 C 0.18730 0.51331 0.81171
 C633 C 0.20239 0.52623 0.82482
 C634 C 0.17160 0.52539 0.79854
 C635 C 0.17361 0.47841 0.79795
 C636 C 0.20084 0.47941 0.82779
 C637 C 0.19434 0.54183 0.83884
 C638 C 0.20823 0.55315 0.85221
 C639 C 0.23032 0.54912 0.85159
 C640 C 0.23856 0.53407 0.83720
 C641 C 0.22467 0.52275 0.82377
 C642 C 0.14942 0.52183 0.80077
 C643 C 0.13480 0.53316 0.78818
 C644 C 0.14218 0.54831 0.77343
 C645 C 0.16422 0.55222 0.77140
 C646 C 0.17887 0.54087 0.78396
 C647 C 0.17434 0.48125 0.77575
 C648 C 0.16080 0.46932 0.76250
 C649 C 0.14660 0.45430 0.77130
 C650 C 0.14614 0.45108 0.79335
 C651 C 0.15963 0.46301 0.80660
 C652 C 0.21508 0.46356 0.82051
 C653 C 0.22792 0.45227 0.83491
 C654 C 0.22652 0.45660 0.85674
 C655 C 0.21210 0.47212 0.86416
 C656 C 0.19923 0.48339 0.84977
 H657 H 0.17724 0.54480 0.83982
 H658 H 0.20171 0.56479 0.86328
 H659 H 0.25564 0.53090 0.83655
 H660 H 0.23123 0.51105 0.81280
 H661 H 0.14347 0.51029 0.81224
 H662 H 0.11776 0.53012 0.78997
 H663 H 0.19588 0.54397 0.78214
 H664 H 0.18527 0.49280 0.76874
 H665 H 0.16131 0.47188 0.74544
 H666 H 0.13521 0.43950 0.80030
 H667 H 0.15889 0.46052 0.82366
 H668 H 0.21643 0.46014 0.80365
 H669 H 0.23896 0.44021 0.82903
 H670 H 0.21080 0.47548 0.88104
 H671 H 0.18801 0.49523 0.85575
 H672 H 0.17008 0.56398 0.76008
 C673 C 0.26297 0.42149 0.10194
 C674 C 0.27777 0.43255 0.08878
 C675 C 0.29031 0.42099 0.07375
 C676 C 0.28798 0.39844 0.07197
 C677 C 0.27330 0.38736 0.08524
 C678 C 0.26077 0.39892 0.10028
 C679 C 0.24616 0.38750 0.11334
 C680 C 0.24398 0.36530 0.11158
 C681 C 0.25623 0.35400 0.09686
 C682 C 0.27075 0.36481 0.08381
 C683 C 0.30493 0.43241 0.06070
 C684 C 0.30710 0.45462 0.06247
 C685 C 0.29484 0.46591 0.07717
 C686 C 0.28033 0.45509 0.09023
 C687 C 0.30040 0.38670 0.05625
 C688 C 0.31051 0.37697 0.04304
 C689 C 0.24989 0.43335 0.11702
 C690 C 0.23900 0.44324 0.12948
 H691 H 0.23629 0.39558 0.12503
 H692 H 0.23273 0.35682 0.12168
 H693 H 0.25448 0.33675 0.09555
 H694 H 0.27992 0.35532 0.07261
 H695 H 0.31482 0.42433 0.04903
 H696 H 0.31835 0.46310 0.05237
 H697 H 0.29656 0.48316 0.07846
 H698 H 0.27117 0.46459 0.10143
 C699 C 0.73953 0.57846 0.09856
 C700 C 0.73802 0.57176 0.07706
 C701 C 0.72505 0.58348 0.06252
 C702 C 0.71369 0.60184 0.06958
 C703 C 0.71507 0.60844 0.09111
 C704 C 0.72804 0.59672 0.10565
 C705 C 0.72921 0.60364 0.12709
 C706 C 0.71786 0.62163 0.13397
 C707 C 0.70517 0.63308 0.11976
 C708 C 0.70373 0.62664 0.09855
 C709 C 0.72378 0.57648 0.04111
 C710 C 0.73498 0.55839 0.03426
 C711 C 0.74767 0.54693 0.04847
 C712 C 0.74924 0.55347 0.06964
 C713 C 0.70082 0.61407 0.05461
 C714 C 0.69038 0.62419 0.04196
 C715 C 0.75292 0.56658 0.11337
 C716 C 0.76401 0.55672 0.12567
 H717 H 0.73886 0.59526 0.13874
 H718 H 0.71893 0.62669 0.15043
 H719 H 0.69638 0.64704 0.12519
 H720 H 0.69364 0.63606 0.08810
 H721 H 0.71411 0.58485 0.02945
 H722 H 0.73377 0.55321 0.01785
 H723 H 0.75634 0.53289 0.04308
 H724 H 0.75932 0.54403 0.08010
 C725 C 0.73178 0.42107 0.89703
 C726 C 0.71849 0.40384 0.89046
 C727 C 0.70550 0.39294 0.90562
 C728 C 0.70588 0.39934 0.92725
 C729 C 0.71895 0.41676 0.93378
 C730 C 0.73193 0.42766 0.91862
 C731 C 0.74491 0.44499 0.92552
 C732 C 0.74504 0.45138 0.94679
 C733 C 0.73235 0.44071 0.96162
 C734 C 0.71943 0.42359 0.95528
 C735 C 0.69239 0.37572 0.89868
 C736 C 0.69213 0.36945 0.87738
 C737 C 0.70484 0.38011 0.86256
 C738 C 0.71791 0.39711 0.86893
 C739 C 0.69318 0.38776 0.94289
 C740 C 0.68294 0.37812 0.95607
 C741 C 0.74553 0.43183 0.88170
 C742 C 0.75718 0.44081 0.86922
 H743 H 0.75506 0.45380 0.91459
 H744 H 0.75505 0.46468 0.95179
 H745 H 0.73250 0.44575 0.97812
 H746 H 0.70982 0.41582 0.96740
 H747 H 0.68220 0.36696 0.90962
 H748 H 0.68201 0.35626 0.87235
 H749 H 0.70458 0.37518 0.84603
 H750 H 0.72750 0.40492 0.85682
 C751 C 0.26910 0.57977 0.89456
 C752 C 0.27082 0.60244 0.89432
 C753 C 0.28299 0.61311 0.91028
 C754 C 0.29335 0.60104 0.92640
 C755 C 0.29199 0.57834 0.92637
 C756 C 0.27985 0.56767 0.91039
 C757 C 0.27871 0.54497 0.91069
 C758 C 0.28930 0.53314 0.92631
 C759 C 0.30114 0.54357 0.94197
 C760 C 0.30252 0.56592 0.94209
 C761 C 0.28445 0.63579 0.90973
 C762 C 0.27419 0.64758 0.89386
 C763 C 0.26227 0.63715 0.87827
 C764 C 0.26053 0.61484 0.87843
 C765 C 0.30511 0.61203 0.94313
 C766 C 0.31471 0.62140 0.95698
 C767 C 0.25577 0.56896 0.87892
 C768 C 0.24435 0.55996 0.86625
 H769 H 0.26971 0.53612 0.89883
 H770 H 0.28833 0.51579 0.92625
 H771 H 0.30933 0.53431 0.95408
 H772 H 0.31195 0.57331 0.95457
 H773 H 0.29355 0.64465 0.92150
 H774 H 0.27551 0.66492 0.89366
 H775 H 0.25433 0.64638 0.86597
 H776 H 0.25111 0.60744 0.86594
 C777 C 0.10319 0.26685 0.42407
 C778 C 0.08096 0.26260 0.42629
 C779 C 0.06575 0.27530 0.41508
 C780 C 0.07285 0.29218 0.40171
 C781 C 0.09506 0.29666 0.39975
 C782 C 0.11027 0.28396 0.41097
 C783 C 0.13238 0.28869 0.40872
 C784 C 0.13928 0.30551 0.39577
 C785 C 0.12441 0.31793 0.38479
 C786 C 0.10253 0.31362 0.38670
 C787 C 0.04362 0.27068 0.41749
 C788 C 0.03671 0.25401 0.43063
 C789 C 0.05158 0.24160 0.44159
 C790 C 0.07346 0.24576 0.43951
 C791 C 0.05732 0.30461 0.38965
 C792 C 0.04426 0.31460 0.37953
 C793 C 0.11870 0.25337 0.43497
 C794 C 0.13131 0.24186 0.44399
 H795 H 0.14455 0.27950 0.41696
 H796 H 0.15625 0.30893 0.39424
 H797 H 0.12985 0.33097 0.37475
 H798 H 0.09157 0.32374 0.37787
 H799 H 0.03143 0.27989 0.40931
 H800 H 0.01972 0.25071 0.43230
 H801 H 0.04614 0.22867 0.45178
 H802 H 0.08440 0.23567 0.44838
 C803 C 0.09752 0.74026 0.58066
 C804 C 0.10462 0.72941 0.59918
 C805 C 0.09005 0.71647 0.61097
 C806 C 0.06847 0.71447 0.60416
 C807 C 0.06139 0.72523 0.58558
 C808 C 0.07597 0.73817 0.57379
 C809 C 0.06854 0.74877 0.55525
 C810 C 0.04732 0.74662 0.54854
 C811 C 0.03307 0.73397 0.56006
 C812 C 0.03992 0.72338 0.57839
 C813 C 0.09750 0.70576 0.62942
 C814 C 0.11876 0.70779 0.63605
 C815 C 0.13302 0.72046 0.62453
 C816 C 0.12612 0.73119 0.60630
 C817 C 0.05350 0.70146 0.61630
 C818 C 0.04080 0.69082 0.62621
 C819 C 0.11238 0.75354 0.56866
 C820 C 0.12468 0.76454 0.55864
 H821 H 0.07903 0.75879 0.54575
 H822 H 0.04193 0.75481 0.53431
 H823 H 0.01661 0.73232 0.55476
 H824 H 0.02822 0.71373 0.58681
 H825 H 0.08702 0.69572 0.63891
 H826 H 0.12420 0.69948 0.65019
 H827 H 0.14952 0.72198 0.62974
 H828 H 0.13780 0.74085 0.59787
 C829 C 0.89441 0.73029 0.42430
 C830 C 0.91658 0.73249 0.42884
 C831 C 0.93180 0.71962 0.41785
 C832 C 0.92477 0.70463 0.40238
 C833 C 0.90258 0.70216 0.39812
 C834 C 0.88735 0.71503 0.40912
 C835 C 0.86526 0.71233 0.40455
 C836 C 0.85841 0.69735 0.38952
 C837 C 0.87330 0.68477 0.37876
 C838 C 0.89515 0.68708 0.38294
 C839 C 0.95389 0.72218 0.42257
 C840 C 0.96073 0.73703 0.43774
 C841 C 0.94584 0.74960 0.44850
 C842 C 0.92400 0.74743 0.44416
 C843 C 0.94041 0.69219 0.39052
 C844 C 0.95363 0.68224 0.38058
 C845 C 0.87898 0.74408 0.43493
 C846 C 0.86649 0.75587 0.44376
 H847 H 0.85307 0.72174 0.41253
 H848 H 0.84145 0.69549 0.38622
 H849 H 0.86789 0.67315 0.36710
 H850 H 0.90612 0.67691 0.37419
 H851 H 0.96609 0.71275 0.41465
 H852 H 0.97768 0.73878 0.44115
 H853 H 0.95123 0.76111 0.46027
 H854 H 0.91305 0.75757 0.45297
 C855 C 0.90150 0.25981 0.58153
 C856 C 0.92383 0.25592 0.57991
 C857 C 0.93849 0.26856 0.59191
 C858 C 0.93073 0.28502 0.60543
 C859 C 0.90839 0.28889 0.60705
 C860 C 0.89373 0.27625 0.59506
 C861 C 0.87147 0.28042 0.59692
 C862 C 0.86392 0.29662 0.61027
 C863 C 0.87826 0.30897 0.62202
 C864 C 0.90026 0.30523 0.62048
 C865 C 0.96076 0.26435 0.59006
 C866 C 0.96830 0.24812 0.57675
 C867 C 0.95395 0.23579 0.56499
 C868 C 0.93196 0.23958 0.56649
 C869 C 0.94575 0.29795 0.61758
 C870 C 0.95853 0.30850 0.62749
 C871 C 0.88654 0.24687 0.56931
 C872 C 0.87414 0.23611 0.55913
 H873 H 0.85969 0.27124 0.58811
 H874 H 0.84685 0.29959 0.61151
 H875 H 0.87231 0.32152 0.63237
 H876 H 0.91079 0.31526 0.62993
 H877 H 0.97256 0.27351 0.59886
 H878 H 0.98536 0.24508 0.57557
 H879 H 0.95989 0.22322 0.55466
 H880 H 0.92144 0.22955 0.55703
 C881 C 0.41904 0.10498 0.26654
 C882 C 0.39752 0.09966 0.26152
 C883 C 0.38650 0.08386 0.27366
 C884 C 0.39708 0.07346 0.29075
 C885 C 0.41854 0.07891 0.29588
 C886 C 0.42956 0.09471 0.28373
 C887 C 0.45105 0.09982 0.28908
 C888 C 0.46136 0.08960 0.30596
 C889 C 0.45058 0.07415 0.31785
 C890 C 0.42942 0.06880 0.31295
 C891 C 0.36502 0.07876 0.26828
 C892 C 0.35473 0.08896 0.25137
 C893 C 0.36551 0.10441 0.23950
 C894 C 0.38666 0.10977 0.24444
 C895 C 0.38592 0.05696 0.30279
 C896 C 0.37640 0.04322 0.31247
 C897 C 0.43047 0.12063 0.25367
 C898 C 0.43987 0.13338 0.24265
 H899 H 0.46009 0.11175 0.28030
 H900 H 0.47779 0.09371 0.30984
 H901 H 0.45867 0.06626 0.33095
 H902 H 0.42170 0.05669 0.32266
 H903 H 0.35595 0.06686 0.27704
 H904 H 0.33831 0.08485 0.24747
 H905 H 0.35746 0.11229 0.22638
 H906 H 0.39436 0.12189 0.23473
 C907 C 0.57724 0.10124 0.73689
 C908 C 0.59145 0.10911 0.72110
 C909 C 0.60298 0.09450 0.70802
 C910 C 0.60025 0.07210 0.71083
 C911 C 0.58592 0.06423 0.72652
 C912 C 0.57438 0.07884 0.73958
 C913 C 0.56015 0.07060 0.75516
 C914 C 0.55743 0.04855 0.75777
 C915 C 0.56874 0.03425 0.74503
 C916 C 0.58284 0.04190 0.72955
 C917 C 0.61710 0.10274 0.69235
 C918 C 0.61974 0.12480 0.68968
 C919 C 0.60847 0.13909 0.70247
 C920 C 0.59446 0.13143 0.71803
 C921 C 0.61231 0.05713 0.69777
 C922 C 0.62227 0.04443 0.68721
 C923 C 0.56563 0.11615 0.75040
 C924 C 0.55597 0.12851 0.76162
 H925 H 0.55099 0.08109 0.76546
 H926 H 0.54648 0.04253 0.76977
 H927 H 0.56660 0.01713 0.74715
 H928 H 0.59125 0.03013 0.72001
 H929 H 0.62621 0.09225 0.68201
 H930 H 0.63060 0.13083 0.67761
 H931 H 0.61057 0.15621 0.70032
 H932 H 0.58604 0.14318 0.72758
 C933 C 0.42000 0.89305 0.73241
 C934 C 0.39975 0.90106 0.73885
 C935 C 0.38892 0.91644 0.72605
 C936 C 0.39841 0.92375 0.70687
 C937 C 0.41853 0.91552 0.70028
 C938 C 0.42936 0.90012 0.71308
 C939 C 0.44949 0.89220 0.70622
 C940 C 0.45867 0.89928 0.68723
 C941 C 0.44809 0.91433 0.67471
 C942 C 0.42825 0.92241 0.68108
 C943 C 0.36873 0.92427 0.73288
 C944 C 0.35950 0.91712 0.75181
 C945 C 0.37009 0.90208 0.76433
 C946 C 0.38998 0.89409 0.75801
 C947 C 0.38762 0.93997 0.69416
 C948 C 0.37853 0.95358 0.68392
 C949 C 0.43141 0.87798 0.74593
 C950 C 0.44091 0.86576 0.75745
 H951 H 0.45832 0.88046 0.71540
 H952 H 0.47409 0.89306 0.68222
 H953 H 0.45529 0.91978 0.65998
 H954 H 0.42062 0.93408 0.67080
 H955 H 0.35985 0.93597 0.72368
 H956 H 0.34405 0.92328 0.75679
 H957 H 0.36286 0.89658 0.77903
 H958 H 0.39758 0.88240 0.76828
 C959 C 0.58064 0.90015 0.26217
 C960 C 0.57458 0.92206 0.26213
 C961 C 0.58604 0.93707 0.27485
 C962 C 0.60350 0.93007 0.28752
 C963 C 0.60943 0.90813 0.28770
 C964 C 0.59797 0.89312 0.27498
 C965 C 0.60422 0.87128 0.27538
 C966 C 0.62131 0.86446 0.28800
 C967 C 0.63251 0.87913 0.30045
 C968 C 0.62672 0.90074 0.30037
 C969 C 0.57971 0.95889 0.27452
 C970 C 0.56255 0.96569 0.26199
 C971 C 0.55135 0.95101 0.24955
 C972 C 0.55722 0.92943 0.24955
 C973 C 0.61551 0.94551 0.30008
 C974 C 0.62547 0.95855 0.31026
 C975 C 0.56911 0.88490 0.24897
 C976 C 0.55950 0.87230 0.23794
 H977 H 0.59600 0.85926 0.26597
 H978 H 0.62587 0.84769 0.28812
 H979 H 0.64576 0.87375 0.31024
 H980 H 0.63590 0.91155 0.31033
 H981 H 0.58791 0.97092 0.28394
 H982 H 0.55791 0.98244 0.26194
 H983 H 0.53803 0.95636 0.23984
 H984 H 0.54801 0.91862 0.23961
 C985 C 0.41718 0.26527 0.89753
 C986 C 0.42703 0.28380 0.90622
 C987 C 0.41559 0.29682 0.92095
 C988 C 0.39439 0.29121 0.92690
 C989 C 0.38446 0.27279 0.91804
 C990 C 0.39590 0.25978 0.90331
 C991 C 0.38567 0.24141 0.89472
 C992 C 0.36475 0.23603 0.90052
 C993 C 0.35357 0.24876 0.91491
 C994 C 0.36322 0.26694 0.92362
 C995 C 0.42579 0.31524 0.92947
 C996 C 0.44669 0.32065 0.92360
 C997 C 0.45787 0.30791 0.90921
 C998 C 0.44823 0.28968 0.90057
 C999 C 0.38290 0.30408 0.94244
 C1000 C 0.37324 0.31440 0.95554
 C1001 C 0.42898 0.25171 0.88283
 C1002 C 0.43876 0.24036 0.87069
 H1003 H 0.39370 0.23102 0.88345
 H1004 H 0.35718 0.22192 0.89380
 H1005 H 0.33731 0.24452 0.91936
 H1006 H 0.35386 0.27633 0.93474
 H1007 H 0.41773 0.32566 0.94070
 H1008 H 0.45424 0.33479 0.93027
 H1009 H 0.47411 0.31217 0.90471
 H1010 H 0.45758 0.28029 0.88942
 C1011 C 0.58239 0.73503 0.89658
 C1012 C 0.58005 0.71241 0.89691
 C1013 C 0.59164 0.70000 0.91202
 C1014 C 0.60549 0.71028 0.92673
 C1015 C 0.60792 0.73289 0.92632
 C1016 C 0.59634 0.74530 0.91120
 C1017 C 0.59900 0.76788 0.91113
 C1018 C 0.61271 0.77791 0.92558
 C1019 C 0.62403 0.76578 0.94036
 C1020 C 0.62174 0.74353 0.94080
 C1021 C 0.58902 0.67742 0.91207
 C1022 C 0.57533 0.66739 0.89759
 C1023 C 0.56399 0.67953 0.88282
 C1024 C 0.56626 0.70180 0.88241
 C1025 C 0.61710 0.69769 0.94242
 C1026 C 0.62680 0.68754 0.95563
 C1027 C 0.57028 0.74781 0.88143
 C1028 C 0.56025 0.75874 0.86912
 H1029 H 0.59055 0.77802 0.89994
 H1030 H 0.61454 0.79520 0.92531
 H1031 H 0.63466 0.77365 0.95155
 H1032 H 0.63090 0.73479 0.95259
 H1033 H 0.59751 0.66730 0.92325
 H1034 H 0.57351 0.65011 0.89784
 H1035 H 0.55337 0.67167 0.87162
 H1036 H 0.55711 0.71056 0.87062
 C1037 C 0.42266 0.73483 0.10023
 C1038 C 0.40496 0.72260 0.10756
 C1039 C 0.39323 0.70957 0.09307
 C1040 C 0.39927 0.70886 0.07135
 C1041 C 0.41707 0.72097 0.06405
 C1042 C 0.42881 0.73399 0.07854
 C1043 C 0.44653 0.74597 0.07089
 C1044 C 0.45250 0.74509 0.04952
 C1045 C 0.44104 0.73235 0.03534
 C1046 C 0.42350 0.72040 0.04242
 C1047 C 0.37557 0.69752 0.10075
 C1048 C 0.36968 0.69831 0.12214
 C1049 C 0.38116 0.71104 0.13632
 C1050 C 0.39861 0.72309 0.12920
 C1051 C 0.38707 0.69588 0.05645
 C1052 C 0.37699 0.68533 0.04384
 C1053 C 0.43447 0.74834 0.11498
 C1054 C 0.44424 0.75957 0.12725
 H1055 H 0.45596 0.75611 0.08131
 H1056 H 0.46611 0.75434 0.04394
 H1057 H 0.44577 0.73168 0.01877
 H1058 H 0.41509 0.71073 0.03078
 H1059 H 0.36616 0.68736 0.09033
 H1060 H 0.35614 0.68898 0.12775
 H1061 H 0.37653 0.71160 0.15293
 H1062 H 0.40705 0.73275 0.14084
 C1063 C 0.57772 0.27022 0.10566
 C1064 C 0.57022 0.29091 0.10005
 C1065 C 0.58139 0.30318 0.08449
 C1066 C 0.59998 0.29467 0.07464
 C1067 C 0.60762 0.27408 0.08045
 C1068 C 0.59646 0.26182 0.09600
 C1069 C 0.60436 0.24123 0.10149
 C1070 C 0.62276 0.23301 0.09189
 C1071 C 0.63368 0.24499 0.07668
 C1072 C 0.62628 0.26530 0.07096
 C1073 C 0.57355 0.32379 0.07908
 C1074 C 0.55520 0.33205 0.08878
 C1075 C 0.54428 0.32005 0.10399
 C1076 C 0.55163 0.29970 0.10962
 C1077 C 0.61110 0.30690 0.05833
 C1078 C 0.62048 0.31674 0.04467
 C1079 C 0.56593 0.25732 0.12095
 C1080 C 0.55623 0.24617 0.13335
 H1081 H 0.59643 0.23129 0.11324
 H1082 H 0.62858 0.21724 0.09628
 H1083 H 0.64797 0.23853 0.06927
 H1084 H 0.63534 0.27400 0.05905
 H1085 H 0.58150 0.33373 0.06734
 H1086 H 0.54942 0.34785 0.08446
 H1087 H 0.53004 0.32654 0.11148
 H1088 H 0.54261 0.29097 0.12155
 C1089 C 0.27018 0.10151 0.57627
 C1090 C 0.28264 0.10811 0.59396
 C1091 C 0.29544 0.09290 0.60507
 C1092 C 0.29570 0.07117 0.59842
 C1093 C 0.28350 0.06463 0.58052
 C1094 C 0.27072 0.07985 0.56941
 C1095 C 0.25861 0.07291 0.55160
 C1096 C 0.25914 0.05157 0.54495
 C1097 C 0.27163 0.03669 0.55582
 C1098 C 0.28370 0.04305 0.57342
 C1099 C 0.30769 0.09986 0.62276
 C1100 C 0.30732 0.12124 0.62929
 C1101 C 0.29480 0.13611 0.61843
 C1102 C 0.28256 0.12971 0.60097
 C1103 C 0.30808 0.05544 0.61026
 C1104 C 0.31803 0.04220 0.62017
 C1105 C 0.25647 0.11684 0.56539
 C1106 C 0.24482 0.12933 0.55636
 H1107 H 0.24866 0.08389 0.54261
 H1108 H 0.24980 0.04655 0.53129
 H1109 H 0.27199 0.02013 0.55059
 H1110 H 0.29318 0.03089 0.58133
 H1111 H 0.31770 0.08889 0.63170
 H1112 H 0.31680 0.12629 0.64285
 H1113 H 0.29457 0.15271 0.62356
 H1114 H 0.27309 0.14187 0.59302
 C1115 C 0.73808 0.10083 0.41861
 C1116 C 0.73511 0.07952 0.42588
 C1117 C 0.72197 0.06511 0.41411
 C1118 C 0.71194 0.07210 0.39510
 C1119 C 0.71480 0.09345 0.38789
 C1120 C 0.72791 0.10787 0.39969
 C1121 C 0.73057 0.12914 0.39217
 C1122 C 0.72053 0.13597 0.37353
 C1123 C 0.70770 0.12187 0.36200
 C1124 C 0.70482 0.10084 0.36902
 C1125 C 0.71920 0.04388 0.42172
 C1126 C 0.72912 0.03710 0.44044
 C1127 C 0.74202 0.05117 0.45192
 C1128 C 0.74504 0.07215 0.44480
 C1129 C 0.69897 0.05721 0.38282
 C1130 C 0.68848 0.04454 0.37269
 C1131 C 0.75159 0.11550 0.43057
 C1132 C 0.76279 0.12767 0.44053
 H1133 H 0.74039 0.14069 0.40059
 H1134 H 0.72272 0.15229 0.36801
 H1135 H 0.69994 0.12726 0.34754
 H1136 H 0.69467 0.09047 0.35951
 H1137 H 0.70932 0.03233 0.41336
 H1138 H 0.72675 0.02085 0.44608
 H1139 H 0.74971 0.04582 0.46644
 H1140 H 0.75522 0.08250 0.45429
 C1141 C 0.73291 0.89920 0.57831
 C1142 C 0.71199 0.89351 0.58511
 C1143 C 0.69935 0.90855 0.59663
 C1144 C 0.70771 0.92919 0.60125
 C1145 C 0.72856 0.93494 0.59427
 C1146 C 0.74120 0.91989 0.58278
 C1147 C 0.76202 0.92600 0.57602
 C1148 C 0.77009 0.94640 0.58043
 C1149 C 0.75771 0.96113 0.59162
 C1150 C 0.73718 0.95555 0.59852
 C1151 C 0.67850 0.90250 0.60329
 C1152 C 0.67034 0.88217 0.59868
 C1153 C 0.68270 0.86748 0.58740
 C1154 C 0.70329 0.87299 0.58066
 C1155 C 0.69497 0.94450 0.61325
 C1156 C 0.68474 0.95747 0.62323
 C1157 C 0.74598 0.88377 0.56681
 C1158 C 0.75711 0.87119 0.55731
 H1159 H 0.77226 0.91512 0.56724
 H1160 H 0.78603 0.95080 0.57512
 H1161 H 0.76404 0.97696 0.59500
 H1162 H 0.72819 0.96757 0.60717
 H1163 H 0.66828 0.91339 0.61210
 H1164 H 0.65435 0.87781 0.60387
 H1165 H 0.67629 0.85171 0.58385
 H1166 H 0.71229 0.86102 0.57192
 C1167 C 0.26098 0.89936 0.41820
 C1168 C 0.27245 0.89197 0.40017
 C1169 C 0.28591 0.90632 0.38868
 C1170 C 0.28779 0.92798 0.39528
 C1171 C 0.27644 0.93534 0.41341
 C1172 C 0.26299 0.92098 0.42490
 C1173 C 0.25177 0.92871 0.44295
 C1174 C 0.25381 0.95000 0.44947
 C1175 C 0.26696 0.96404 0.43824
 C1176 C 0.27817 0.95689 0.42040
 C1177 C 0.29720 0.89857 0.37070
 C1178 C 0.29526 0.87725 0.36425
 C1179 C 0.28210 0.86321 0.37548
 C1180 C 0.27078 0.87040 0.39325
 C1181 C 0.30111 0.94280 0.38328
 C1182 C 0.31187 0.95541 0.37339
 C1183 C 0.24713 0.88475 0.42986
 C1184 C 0.23565 0.87264 0.43960
 H1185 H 0.24133 0.91840 0.45220
 H1186 H 0.24513 0.95563 0.46333
 H1187 H 0.26852 0.98055 0.44340
 H1188 H 0.28821 0.96842 0.41220
 H1189 H 0.30766 0.90888 0.36146
 H1190 H 0.30401 0.87159 0.35046
 H1191 H 0.28065 0.84666 0.37041
 H1192 H 0.26074 0.85888 0.40147
 C1193 C 0.10446 0.42049 0.73417
 C1194 C 0.08217 0.42306 0.73781
 C1195 C 0.06716 0.41094 0.72571
 C1196 C 0.07453 0.39635 0.71005
 C1197 C 0.09681 0.39391 0.70629
 C1198 C 0.11183 0.40603 0.71839
 C1199 C 0.13402 0.40331 0.71440
 C1200 C 0.14118 0.38899 0.69889
 C1201 C 0.12650 0.37713 0.68707
 C1202 C 0.10454 0.37949 0.69065
 C1203 C 0.04495 0.41372 0.72969
 C1204 C 0.03779 0.42805 0.74518
 C1205 C 0.05248 0.43992 0.75698
 C1206 C 0.07442 0.43752 0.75341
 C1207 C 0.05916 0.38376 0.69795
 C1208 C 0.04612 0.37343 0.68816
 C1209 C 0.11975 0.43249 0.74693
 C1210 C 0.13217 0.44244 0.75785
 H1211 H 0.14605 0.41220 0.72318
 H1212 H 0.15821 0.38711 0.69604
 H1213 H 0.13214 0.36602 0.67504
 H1214 H 0.09374 0.36992 0.68105
 H1215 H 0.03289 0.40487 0.72091
 H1216 H 0.02077 0.42994 0.74804
 H1217 H 0.04684 0.45105 0.76898
 H1218 H 0.08521 0.44713 0.76300
 C1219 C 0.09968 0.57873 0.26615
 C1220 C 0.10691 0.59476 0.28045
 C1221 C 0.09192 0.60573 0.29360
 C1222 C 0.06981 0.60060 0.29237
 C1223 C 0.06259 0.58447 0.27816
 C1224 C 0.07757 0.57350 0.26501
 C1225 C 0.06998 0.55747 0.25090
 C1226 C 0.04820 0.55242 0.24982
 C1227 C 0.03355 0.56315 0.26267
 C1228 C 0.04057 0.57900 0.27671
 C1229 C 0.09952 0.62173 0.30775
 C1230 C 0.12130 0.62674 0.30887
 C1231 C 0.13595 0.61601 0.29602
 C1232 C 0.12893 0.60019 0.28195
 C1233 C 0.05443 0.61208 0.30545
 C1234 C 0.04143 0.62162 0.31604
 C1235 C 0.11495 0.56766 0.25257
 C1236 C 0.12757 0.55843 0.24128
 H1237 H 0.08075 0.54867 0.24058
 H1238 H 0.04267 0.54012 0.23894
 H1239 H 0.01665 0.55918 0.26175
 H1240 H 0.02855 0.58687 0.28638
 H1241 H 0.08873 0.63051 0.31807
 H1242 H 0.12683 0.63902 0.31978
 H1243 H 0.15285 0.61996 0.29696
 H1244 H 0.14094 0.59229 0.27228
 C1245 C 0.90080 0.41927 0.26265
 C1246 C 0.92085 0.42875 0.26764
 C1247 C 0.93557 0.41774 0.28104
 C1248 C 0.93014 0.39731 0.28939
 C1249 C 0.91000 0.38794 0.28458
 C1250 C 0.89529 0.39895 0.27116
 C1251 C 0.87526 0.38923 0.26653
 C1252 C 0.86993 0.36921 0.27493
 C1253 C 0.88431 0.35845 0.28805
 C1254 C 0.90414 0.36762 0.29287
 C1255 C 0.95555 0.42751 0.28575
 C1256 C 0.96081 0.44761 0.27749
 C1257 C 0.94641 0.45839 0.26441
 C1258 C 0.92664 0.44914 0.25947
 C1259 C 0.94542 0.38580 0.30261
 C1260 C 0.95827 0.37619 0.31335
 C1261 C 0.88590 0.43038 0.24870
 C1262 C 0.87361 0.43968 0.23710
 H1263 H 0.86354 0.39698 0.25641
 H1264 H 0.85454 0.36202 0.27124
 H1265 H 0.88008 0.34290 0.29454
 H1266 H 0.91477 0.35864 0.30317
 H1267 H 0.96727 0.41977 0.29588
 H1268 H 0.97615 0.45486 0.28127
 H1269 H 0.95057 0.47401 0.25804
 H1270 H 0.91598 0.45816 0.24922
 C1271 C 0.89581 0.57829 0.73360
 C1272 C 0.88868 0.59622 0.72170
 C1273 C 0.90354 0.60819 0.70927
 C1274 C 0.92544 0.60215 0.70884
 C1275 C 0.93251 0.58399 0.72045
 C1276 C 0.91765 0.57202 0.73287
 C1277 C 0.92510 0.55396 0.74439
 C1278 C 0.94661 0.54788 0.74363
 C1279 C 0.96114 0.55958 0.73148
 C1280 C 0.95428 0.57745 0.72001
 C1281 C 0.89605 0.62608 0.69753
 C1282 C 0.87448 0.63198 0.69805
 C1283 C 0.85995 0.62029 0.71023
 C1284 C 0.86688 0.60261 0.72196
 C1285 C 0.94079 0.61477 0.69676
 C1286 C 0.95379 0.62519 0.68699
 C1287 C 0.88084 0.56655 0.74696
 C1288 C 0.86867 0.55682 0.75835
 H1289 H 0.91440 0.54432 0.75405
 H1290 H 0.95202 0.53400 0.75251
 H1291 H 0.97783 0.55477 0.73092
 H1292 H 0.96620 0.58602 0.71079
 H1293 H 0.90675 0.63566 0.68781
 H1294 H 0.86902 0.64569 0.68896
 H1295 H 0.84321 0.62494 0.71058
 H1296 H 0.85497 0.59400 0.73117
 C1297 C 0.73852 0.57839 0.90085
 C1298 C 0.72240 0.59234 0.89304
 C1299 C 0.70957 0.60429 0.90752
 C1300 C 0.71295 0.60224 0.92972
 C1301 C 0.72898 0.58817 0.93754
 C1302 C 0.74180 0.57621 0.92306
 C1303 C 0.75771 0.56225 0.93124
 C1304 C 0.76089 0.56019 0.95312
 C1305 C 0.74839 0.57190 0.96728
 C1306 C 0.73258 0.58575 0.95968
 C1307 C 0.69355 0.61813 0.89935
 C1308 C 0.69029 0.62010 0.87748
 C1309 C 0.70283 0.60842 0.86332
 C1310 C 0.71873 0.59468 0.87091
 C1311 C 0.70008 0.61465 0.94455
 C1312 C 0.68964 0.62487 0.95713
 C1313 C 0.75180 0.56638 0.88605
 C1314 C 0.76283 0.55645 0.87374
 H1315 H 0.76784 0.55280 0.92086
 H1316 H 0.77314 0.54944 0.95910
 H1317 H 0.75095 0.57027 0.98425
 H1318 H 0.72325 0.59449 0.97134
 H1319 H 0.68337 0.62753 0.90974
 H1320 H 0.67795 0.63074 0.87150
 H1321 H 0.70023 0.61000 0.84634
 H1322 H 0.72807 0.58592 0.85927
 C1323 C 0.26418 0.42348 0.89887
 C1324 C 0.27189 0.43372 0.91750
 C1325 C 0.28445 0.42199 0.93239
 C1326 C 0.28922 0.40010 0.92855
 C1327 C 0.28171 0.38994 0.90979
 C1328 C 0.26917 0.40167 0.89490
 C1329 C 0.26181 0.39116 0.87629
 C1330 C 0.26669 0.36966 0.87250
 C1331 C 0.27895 0.35819 0.88707
 C1332 C 0.28642 0.36812 0.90553
 C1333 C 0.29192 0.43254 0.95093
 C1334 C 0.28712 0.45407 0.95467
 C1335 C 0.27482 0.46553 0.94012
 C1336 C 0.26727 0.45556 0.92171
 C1337 C 0.30149 0.38793 0.94406
 C1338 C 0.31146 0.37778 0.95706
 C1339 C 0.25091 0.43530 0.88392
 C1340 C 0.23981 0.44504 0.87153
 H1341 H 0.25223 0.39942 0.86448
 H1342 H 0.26093 0.36188 0.85818
 H1343 H 0.28270 0.34149 0.88405
 H1344 H 0.29591 0.35852 0.91637
 H1345 H 0.30155 0.42430 0.96272
 H1346 H 0.29295 0.46189 0.96894
 H1347 H 0.27109 0.48223 0.94312
 H1348 H 0.25778 0.46516 0.91086
 C1349 C 0.26869 0.58090 0.10667
 C1350 C 0.26499 0.60294 0.10254
 C1351 C 0.27729 0.61377 0.08677
 C1352 C 0.29319 0.60249 0.07518
 C1353 C 0.29718 0.58055 0.07960
 C1354 C 0.28490 0.56973 0.09541
 C1355 C 0.28916 0.54780 0.09953
 C1356 C 0.30510 0.53687 0.08837
 C1357 C 0.31707 0.54743 0.07289
 C1358 C 0.31322 0.56901 0.06848
 C1359 C 0.27326 0.63580 0.08291
 C1360 C 0.25754 0.64681 0.09430
 C1361 C 0.24551 0.63622 0.10970
 C1362 C 0.24911 0.61454 0.11384
 C1363 C 0.30522 0.61340 0.05854
 C1364 C 0.31497 0.62264 0.04470
 C1365 C 0.25541 0.56959 0.12206
 C1366 C 0.24408 0.56018 0.13453
 H1367 H 0.28029 0.53890 0.11144
 H1368 H 0.30821 0.52012 0.09179
 H1369 H 0.32943 0.53885 0.06427
 H1370 H 0.32297 0.57655 0.05633
 H1371 H 0.28222 0.64475 0.07110
 H1372 H 0.25469 0.66366 0.09115
 H1373 H 0.23332 0.64485 0.11851
 H1374 H 0.23937 0.60701 0.12600
 C1375 C 0.73271 0.42167 0.10036
 C1376 C 0.71681 0.40705 0.10745
 C1377 C 0.70374 0.39609 0.09239
 C1378 C 0.70663 0.39982 0.07033
 C1379 C 0.72232 0.41467 0.06325
 C1380 C 0.73539 0.42562 0.07831
 C1381 C 0.75100 0.44036 0.07084
 C1382 C 0.75362 0.44416 0.04912
 C1383 C 0.74086 0.43343 0.03440
 C1384 C 0.72537 0.41884 0.04129
 C1385 C 0.68800 0.38150 0.09985
 C1386 C 0.68524 0.37786 0.12158
 C1387 C 0.69800 0.38859 0.13630
 C1388 C 0.71364 0.40302 0.12941
 C1389 C 0.69374 0.38815 0.05489
 C1390 C 0.68329 0.37837 0.04195
 C1391 C 0.74649 0.43242 0.11570
 C1392 C 0.75813 0.44135 0.12824
 H1393 H 0.76131 0.44910 0.08167
 H1394 H 0.76562 0.45549 0.04370
 H1395 H 0.74298 0.43642 0.01755
 H1396 H 0.71582 0.41091 0.02922
 H1397 H 0.67767 0.37279 0.08901
 H1398 H 0.67312 0.36666 0.12701
 H1399 H 0.69578 0.38571 0.15316
 H1400 H 0.72317 0.41099 0.14147
 C1401 C 0.89840 0.73828 0.57988
 C1402 C 0.89054 0.72234 0.59396
 C1403 C 0.90516 0.70946 0.60573
 C1404 C 0.92754 0.71260 0.60335
 C1405 C 0.93541 0.72846 0.58918
 C1406 C 0.92080 0.74133 0.57741
 C1407 C 0.92903 0.75709 0.56335
 C1408 C 0.95109 0.76009 0.56104
 C1409 C 0.96538 0.74754 0.57258
 C1410 C 0.95774 0.73187 0.58650
 C1411 C 0.89693 0.69366 0.61974
 C1412 C 0.87487 0.69067 0.62205
 C1413 C 0.86058 0.70326 0.61054
 C1414 C 0.86823 0.71894 0.59663
 C1415 C 0.94251 0.69969 0.61558
 C1416 C 0.95520 0.68924 0.62568
 C1417 C 0.88348 0.75162 0.56804
 C1418 C 0.87115 0.76273 0.55820
 H1419 H 0.91855 0.76726 0.55402
 H1420 H 0.95711 0.77223 0.55024
 H1421 H 0.98250 0.74996 0.57076
 H1422 H 0.96950 0.72249 0.59510
 H1423 H 0.90741 0.68347 0.62903
 H1424 H 0.86885 0.67852 0.63284
 H1425 H 0.84346 0.70087 0.61239
 H1426 H 0.85647 0.72832 0.58801
 C1427 C 0.89751 0.26695 0.42015
 C1428 C 0.90905 0.25781 0.40297
 C1429 C 0.92429 0.27038 0.39162
 C1430 C 0.92791 0.29204 0.39750
 C1431 C 0.91620 0.30125 0.41453
 C1432 C 0.90096 0.28867 0.42589
 C1433 C 0.88949 0.29821 0.44289
 C1434 C 0.89297 0.31958 0.44850
 C1435 C 0.90787 0.33188 0.43741
 C1436 C 0.91941 0.32291 0.42060
 C1437 C 0.93567 0.26085 0.37455
 C1438 C 0.93209 0.23952 0.36884
 C1439 C 0.91719 0.22723 0.37994
 C1440 C 0.90576 0.23618 0.39682
 C1441 C 0.94388 0.30468 0.38619
 C1442 C 0.95735 0.31482 0.37672
 C1443 C 0.88240 0.25386 0.43208
 C1444 C 0.87012 0.24258 0.44186
 H1445 H 0.87771 0.28929 0.45197
 H1446 H 0.88404 0.32663 0.46153
 H1447 H 0.91051 0.34848 0.44183
 H1448 H 0.93081 0.33312 0.41244
 H1449 H 0.94742 0.26975 0.36541
 H1450 H 0.94093 0.23250 0.35574
 H1451 H 0.91445 0.21067 0.37544
 H1452 H 0.89433 0.22596 0.40494
 C1453 C 0.10125 0.26084 0.58081
 C1454 C 0.07930 0.26140 0.57497
 C1455 C 0.06466 0.27427 0.58673
 C1456 C 0.07207 0.28651 0.60427
 C1457 C 0.09405 0.28609 0.61001
 C1458 C 0.10868 0.27321 0.59824
 C1459 C 0.13058 0.27303 0.60429
 C1460 C 0.13781 0.28523 0.62147
 C1461 C 0.12350 0.29782 0.63296
 C1462 C 0.10185 0.29831 0.62738
 C1463 C 0.04279 0.27456 0.58059
 C1464 C 0.03560 0.26250 0.56330
 C1465 C 0.04991 0.24991 0.55181
 C1466 C 0.07152 0.24929 0.55751
 C1467 C 0.05701 0.29930 0.61654
 C1468 C 0.04428 0.30968 0.62667
 C1469 C 0.11615 0.24749 0.56895
 C1470 C 0.12848 0.23638 0.55908
 H1471 H 0.14232 0.26349 0.59583
 H1472 H 0.15461 0.28490 0.62587
 H1473 H 0.12920 0.30727 0.64628
 H1474 H 0.09135 0.30837 0.63679
 H1475 H 0.03103 0.28411 0.58902
 H1476 H 0.01883 0.26296 0.55878
 H1477 H 0.04424 0.24058 0.53839
 H1478 H 0.08203 0.23927 0.54806
 C1479 C 0.09936 0.73178 0.42313
 C1480 C 0.10597 0.71958 0.40526
 C1481 C 0.09082 0.70671 0.39411
 C1482 C 0.06913 0.70612 0.40087
 C1483 C 0.06259 0.71806 0.41894
 C1484 C 0.07775 0.73091 0.43010
 C1485 C 0.07081 0.74272 0.44809
 C1486 C 0.04952 0.74185 0.45487
 C1487 C 0.03470 0.72930 0.44394
 C1488 C 0.04106 0.71752 0.42616
 C1489 C 0.09780 0.69470 0.37627
 C1490 C 0.11915 0.69538 0.36965
 C1491 C 0.13395 0.70797 0.38054
 C1492 C 0.12753 0.71997 0.39815
 C1493 C 0.05349 0.69352 0.38908
 C1494 C 0.04035 0.68328 0.37928
 C1495 C 0.11465 0.74554 0.43409
 C1496 C 0.12713 0.75722 0.44313
 H1497 H 0.08174 0.75269 0.45714
 H1498 H 0.04450 0.75097 0.46867
 H1499 H 0.01819 0.72867 0.44927
 H1500 H 0.02894 0.70799 0.41821
 H1501 H 0.08688 0.68466 0.36729
 H1502 H 0.12422 0.68607 0.35598
 H1503 H 0.15051 0.70844 0.37533
 H1504 H 0.13964 0.72950 0.40613
 C1505 C 0.57739 0.90059 0.73686
 C1506 C 0.57052 0.92220 0.73533
 C1507 C 0.58197 0.93689 0.72223
 C1508 C 0.60022 0.92988 0.71072
 C1509 C 0.60697 0.90822 0.71209
 C1510 C 0.59553 0.89353 0.72521
 C1511 C 0.60261 0.87197 0.72636
 C1512 C 0.62047 0.86511 0.71487
 C1513 C 0.63166 0.87947 0.70205
 C1514 C 0.62506 0.90080 0.70062
 C1515 C 0.57481 0.95843 0.72098
 C1516 C 0.55683 0.96524 0.73233
 C1517 C 0.54565 0.95088 0.74515
 C1518 C 0.55234 0.92959 0.74670
 C1519 C 0.61222 0.94503 0.69777
 C1520 C 0.62217 0.95783 0.68726
 C1521 C 0.56587 0.88564 0.75046
 C1522 C 0.55637 0.87319 0.76175
 H1523 H 0.59444 0.86020 0.73611
 H1524 H 0.62566 0.84856 0.71593
 H1525 H 0.64552 0.87406 0.69315
 H1526 H 0.63427 0.91136 0.69042
 H1527 H 0.58296 0.97020 0.71122
 H1528 H 0.55154 0.98175 0.73114
 H1529 H 0.53170 0.95625 0.75393
 H1530 H 0.54312 0.91902 0.75688
 C1531 C 0.42034 0.89458 0.26484
 C1532 C 0.42545 0.89764 0.28660
 C1533 C 0.41393 0.91300 0.29884
 C1534 C 0.39738 0.92521 0.28925
 C1535 C 0.39213 0.92198 0.26754
 C1536 C 0.40364 0.90663 0.25530
 C1537 C 0.39814 0.90374 0.23361
 C1538 C 0.38173 0.91566 0.22428
 C1539 C 0.37047 0.93067 0.23624
 C1540 C 0.37554 0.93387 0.25762
 C1541 C 0.41937 0.91582 0.32055
 C1542 C 0.43571 0.90379 0.32990
 C1543 C 0.44696 0.88878 0.31792
 C1544 C 0.44197 0.88568 0.29651
 C1545 C 0.38587 0.94123 0.30159
 C1546 C 0.37622 0.95467 0.31154
 C1547 C 0.43245 0.87933 0.25213
 C1548 C 0.44243 0.86696 0.24119
 H1549 H 0.40642 0.89225 0.22364
 H1550 H 0.37773 0.91324 0.20768
 H1551 H 0.35773 0.93990 0.22892
 H1552 H 0.36631 0.94573 0.26625
 H1553 H 0.41106 0.92730 0.33051
 H1554 H 0.43965 0.90614 0.34653
 H1555 H 0.45964 0.87948 0.32526
 H1556 H 0.45116 0.87381 0.28785
 C1557 C 0.57869 0.10379 0.26349
 C1558 C 0.56805 0.09079 0.27869
 C1559 C 0.57999 0.07599 0.29121
 C1560 C 0.60250 0.07430 0.28845
 C1561 C 0.61315 0.08743 0.27336
 C1562 C 0.60121 0.10222 0.26084
 C1563 C 0.61220 0.11513 0.24582
 C1564 C 0.63436 0.11348 0.24323
 C1565 C 0.64603 0.09902 0.25546
 C1566 C 0.63564 0.08610 0.27038
 C1567 C 0.56899 0.06312 0.30627
 C1568 C 0.54684 0.06482 0.30888
 C1569 C 0.53517 0.07929 0.29664
 C1570 C 0.54557 0.09216 0.28170
 C1571 C 0.61464 0.05881 0.30082
 C1572 C 0.62477 0.04578 0.31084
 C1573 C 0.56647 0.11865 0.25045
 C1574 C 0.55639 0.13097 0.23955
 H1575 H 0.60382 0.12663 0.23594
 H1576 H 0.64250 0.12347 0.23166
 H1577 H 0.66324 0.09779 0.25339
 H1578 H 0.64542 0.07511 0.27952
 H1579 H 0.57738 0.05164 0.31617
 H1580 H 0.53868 0.05486 0.32047
 H1581 H 0.51796 0.08054 0.29872
 H1582 H 0.53580 0.10318 0.27256
 C1583 C 0.42201 0.10345 0.73058
 C1584 C 0.40131 0.10778 0.72232
 C1585 C 0.39060 0.09209 0.70973
 C1586 C 0.40064 0.07214 0.70551
 C1587 C 0.42150 0.06796 0.71346
 C1588 C 0.43221 0.08366 0.72602
 C1589 C 0.45302 0.07907 0.73385
 C1590 C 0.46297 0.05954 0.72940
 C1591 C 0.45248 0.04420 0.71713
 C1592 C 0.43199 0.04827 0.70921
 C1593 C 0.36989 0.09678 0.70170
 C1594 C 0.36004 0.11639 0.70598
 C1595 C 0.37050 0.13171 0.71829
 C1596 C 0.39090 0.12754 0.72641
 C1597 C 0.38935 0.05579 0.69335
 C1598 C 0.37986 0.04217 0.68346
 C1599 C 0.43261 0.11910 0.74416
 C1600 C 0.44144 0.13182 0.75570
 H1601 H 0.46184 0.09050 0.74345
 H1602 H 0.47889 0.05631 0.73550
 H1603 H 0.46027 0.02905 0.71373
 H1604 H 0.42450 0.03584 0.69972
 H1605 H 0.36111 0.08538 0.69203
 H1606 H 0.34419 0.11971 0.69971
 H1607 H 0.36279 0.14693 0.72157
 H1608 H 0.39840 0.13997 0.73589
 C1609 C 0.58336 0.73359 0.10360
 C1610 C 0.60153 0.74254 0.09335
 C1611 C 0.61293 0.73035 0.07792
 C1612 C 0.60610 0.70927 0.07284
 C1613 C 0.58805 0.70023 0.08325
 C1614 C 0.57665 0.71243 0.09868
 C1615 C 0.55863 0.70310 0.10883
 C1616 C 0.55204 0.68230 0.10387
 C1617 C 0.56318 0.67037 0.08878
 C1618 C 0.58100 0.67915 0.07854
 C1619 C 0.63100 0.73969 0.06783
 C1620 C 0.63762 0.76047 0.07284
 C1621 C 0.62647 0.77238 0.08793
 C1622 C 0.60863 0.76361 0.09812
 C1623 C 0.61750 0.69703 0.05673
 C1624 C 0.62706 0.68712 0.04323
 C1625 C 0.57134 0.74635 0.11885
 C1626 C 0.56143 0.75731 0.13124
 H1627 H 0.54947 0.71174 0.12069
 H1628 H 0.53822 0.67540 0.11179
 H1629 H 0.55800 0.65422 0.08499
 H1630 H 0.58915 0.66924 0.06692
 H1631 H 0.64021 0.73106 0.05600
 H1632 H 0.65147 0.76736 0.06497
 H1633 H 0.63167 0.78852 0.09176
 H1634 H 0.60050 0.77351 0.10975
 C1635 C 0.41798 0.26486 0.10012
 C1636 C 0.40019 0.27721 0.10696
 C1637 C 0.38862 0.28988 0.09204
 C1638 C 0.39491 0.29012 0.07038
 C1639 C 0.41277 0.27785 0.06355
 C1640 C 0.42433 0.26518 0.07848
 C1641 C 0.44211 0.25304 0.07128
 C1642 C 0.44830 0.25340 0.04996
 C1643 C 0.43699 0.26578 0.03537
 C1644 C 0.41942 0.27790 0.04199
 C1645 C 0.37089 0.30208 0.09925
 C1646 C 0.36477 0.30178 0.12060
 C1647 C 0.37608 0.28939 0.13518
 C1648 C 0.39360 0.27721 0.12854
 C1649 C 0.38295 0.30283 0.05506
 C1650 C 0.37310 0.31324 0.04217
 C1651 C 0.42970 0.25178 0.11531
 C1652 C 0.43947 0.24088 0.12786
 H1653 H 0.45142 0.24315 0.08203
 H1654 H 0.46194 0.24402 0.04474
 H1655 H 0.44186 0.26601 0.01882
 H1656 H 0.41114 0.28728 0.03004
 H1657 H 0.36160 0.31198 0.08851
 H1658 H 0.35117 0.31121 0.12584
 H1659 H 0.37126 0.28920 0.15174
 H1660 H 0.40189 0.26783 0.14048
 C1661 C 0.57585 0.26756 0.89754
 C1662 C 0.59402 0.25896 0.90807
 C1663 C 0.60523 0.27153 0.92336
 C1664 C 0.59821 0.29263 0.92806
 C1665 C 0.58008 0.30125 0.91748
 C1666 C 0.56886 0.28868 0.90219
 C1667 C 0.55075 0.29762 0.89187
 C1668 C 0.54393 0.31840 0.89651
 C1669 C 0.55491 0.33070 0.91144
 C1670 C 0.57279 0.32231 0.92186
 C1671 C 0.62332 0.26255 0.93370
 C1672 C 0.63015 0.24177 0.92906
 C1673 C 0.61919 0.22949 0.91411
 C1674 C 0.60133 0.23790 0.90368
 C1675 C 0.60962 0.30534 0.94384
 C1676 C 0.61930 0.31558 0.95702
 C1677 C 0.56426 0.25454 0.88215
 C1678 C 0.55478 0.24338 0.86958
 H1679 H 0.54171 0.28867 0.88013
 H1680 H 0.53004 0.32499 0.88848
 H1681 H 0.54955 0.34684 0.91498
 H1682 H 0.58080 0.33249 0.93335
 H1683 H 0.63238 0.27146 0.94546
 H1684 H 0.64402 0.23517 0.93711
 H1685 H 0.62455 0.21335 0.91056
 H1686 H 0.59335 0.22771 0.89218
 C1687 C 0.42232 0.73442 0.90124
 C1688 C 0.40904 0.71761 0.89365
 C1689 C 0.39754 0.70453 0.90831
 C1690 C 0.39938 0.70835 0.93046
 C1691 C 0.41284 0.72502 0.93806
 C1692 C 0.42434 0.73809 0.92340
 C1693 C 0.43767 0.75467 0.93138
 C1694 C 0.43957 0.75825 0.95321
 C1695 C 0.42832 0.74548 0.96753
 C1696 C 0.41510 0.72903 0.96014
 C1697 C 0.38435 0.68784 0.90034
 C1698 C 0.38258 0.68416 0.87852
 C1699 C 0.39381 0.69695 0.86420
 C1700 C 0.40691 0.71350 0.87158
 C1701 C 0.38725 0.69535 0.94545
 C1702 C 0.37718 0.68486 0.95813
 C1703 C 0.43376 0.74803 0.88626
 C1704 C 0.44323 0.75937 0.87383
 H1705 H 0.44675 0.76503 0.92086
 H1706 H 0.44983 0.77100 0.95903
 H1707 H 0.42984 0.74834 0.98447
 H1708 H 0.40670 0.71951 0.97192
 H1709 H 0.37531 0.67745 0.91087
 H1710 H 0.37244 0.67130 0.87271
 H1711 H 0.39237 0.69402 0.84726
 H1712 H 0.41534 0.72301 0.85981
 C1713 C 0.73782 0.90153 0.41859
 C1714 C 0.72387 0.89393 0.40245
 C1715 C 0.71122 0.90869 0.39060
 C1716 C 0.71260 0.93096 0.39497
 C1717 C 0.72653 0.93855 0.41113
 C1718 C 0.73916 0.92379 0.42300
 C1719 C 0.75295 0.93175 0.43909
 C1720 C 0.75428 0.95369 0.44330
 C1721 C 0.74197 0.96813 0.43168
 C1722 C 0.72821 0.96074 0.41578
 C1723 C 0.69741 0.90073 0.37453
 C1724 C 0.69614 0.87880 0.37027
 C1725 C 0.70851 0.86437 0.38185
 C1726 C 0.72224 0.87175 0.39778
 C1727 C 0.69981 0.94608 0.38279
 C1728 C 0.68936 0.95887 0.37281
 C1729 C 0.75082 0.88647 0.43063
 C1730 C 0.76163 0.87400 0.44063
 H1731 H 0.76286 0.92115 0.44856
 H1732 H 0.76492 0.95950 0.45565
 H1733 H 0.74309 0.98514 0.43498
 H1734 H 0.71894 0.97261 0.40719
 H1735 H 0.68746 0.91133 0.36510
 H1736 H 0.68550 0.87298 0.35792
 H1737 H 0.70747 0.84735 0.37849
 H1738 H 0.73154 0.85990 0.40636
 C1739 C 0.26723 0.89778 0.57495
 C1740 C 0.26479 0.92015 0.57167
 C1741 C 0.27786 0.93488 0.58313
 C1742 C 0.29332 0.92717 0.59779
 C1743 C 0.29600 0.90480 0.60081
 C1744 C 0.28292 0.89006 0.58935
 C1745 C 0.28588 0.86778 0.59266
 C1746 C 0.30132 0.86026 0.60688
 C1747 C 0.31409 0.87467 0.61809
 C1748 C 0.31153 0.89670 0.61516
 C1749 C 0.27506 0.95717 0.57963
 C1750 C 0.25981 0.96468 0.56521
 C1751 C 0.24705 0.95027 0.55399
 C1752 C 0.24943 0.92825 0.55713
 C1753 C 0.30619 0.94228 0.60996
 C1754 C 0.31659 0.95506 0.62006
 C1755 C 0.25334 0.88278 0.56378
 C1756 C 0.24153 0.87052 0.55459
 H1757 H 0.27634 0.85595 0.58429
 H1758 H 0.30339 0.84317 0.60919
 H1759 H 0.32606 0.86875 0.62912
 H1760 H 0.32186 0.90728 0.62423
 H1761 H 0.28462 0.96902 0.58795
 H1762 H 0.25789 0.98177 0.56273
 H1763 H 0.23524 0.95618 0.54280
 H1764 H 0.23913 0.91768 0.54802
 C1765 C 0.26271 0.09814 0.41985
 C1766 C 0.27914 0.10607 0.40638
 C1767 C 0.29213 0.09151 0.39464
 C1768 C 0.28860 0.06912 0.39643
 C1769 C 0.27225 0.06119 0.41002
 C1770 C 0.25927 0.07574 0.42176
 C1771 C 0.24304 0.06744 0.43523
 C1772 C 0.23970 0.04539 0.43703
 C1773 C 0.25236 0.03115 0.42553
 C1774 C 0.26848 0.03886 0.41216
 C1775 C 0.30844 0.09981 0.38127
 C1776 C 0.31184 0.12187 0.37956
 C1777 C 0.29915 0.13610 0.39104
 C1778 C 0.28296 0.12838 0.40432
 C1779 C 0.30164 0.05423 0.38423
 C1780 C 0.31223 0.04162 0.37416
 C1781 C 0.24931 0.11302 0.43169
 C1782 C 0.23821 0.12539 0.44151
 H1783 H 0.23277 0.07788 0.44451
 H1784 H 0.22720 0.03932 0.44740
 H1785 H 0.24967 0.01404 0.42695
 H1786 H 0.27793 0.02714 0.40357
 H1787 H 0.31875 0.08938 0.37204
 H1788 H 0.32440 0.12794 0.36927
 H1789 H 0.30186 0.15321 0.38966
 H1790 H 0.27351 0.14009 0.41293
 C1791 C 0.73367 0.10234 0.57780
 C1792 C 0.74144 0.08135 0.58175
 C1793 C 0.72864 0.06647 0.59332
 C1794 C 0.70815 0.07267 0.60090
 C1795 C 0.70031 0.09360 0.59681
 C1796 C 0.71310 0.10848 0.58520
 C1797 C 0.70493 0.12930 0.58129
 C1798 C 0.68468 0.13527 0.58865
 C1799 C 0.67219 0.12075 0.60002
 C1800 C 0.67983 0.10013 0.60410
 C1801 C 0.73676 0.04557 0.59707
 C1802 C 0.75695 0.03956 0.58960
 C1803 C 0.76947 0.05411 0.57831
 C1804 C 0.76189 0.07478 0.57438
 C1805 C 0.69526 0.05751 0.61300
 C1806 C 0.68493 0.04464 0.62305
 C1807 C 0.74696 0.11761 0.56627
 C1808 C 0.75832 0.13004 0.55678
 H1809 H 0.71405 0.14115 0.57251
 H1810 H 0.67867 0.15126 0.58551
 H1811 H 0.65647 0.12547 0.60570
 H1812 H 0.66951 0.08938 0.61299
 H1813 H 0.72763 0.03367 0.60577
 H1814 H 0.76290 0.02351 0.59260
 H1815 H 0.78514 0.04937 0.57254
 H1816 H 0.77223 0.08551 0.56551
 C1817 C 0.89646 0.57467 0.26845
 C1818 C 0.88962 0.59297 0.27999
 C1819 C 0.90446 0.60438 0.29295
 C1820 C 0.92607 0.59746 0.29428
 C1821 C 0.93282 0.57893 0.28305
 C1822 C 0.91796 0.56749 0.27012
 C1823 C 0.92509 0.54902 0.25904
 C1824 C 0.94628 0.54206 0.26070
 C1825 C 0.96081 0.55326 0.27330
 C1826 C 0.95425 0.57151 0.28437
 C1827 C 0.89725 0.62264 0.30430
 C1828 C 0.87599 0.62942 0.30291
 C1829 C 0.86148 0.61828 0.29021
 C1830 C 0.86813 0.60025 0.27884
 C1831 C 0.94144 0.60960 0.30685
 C1832 C 0.95439 0.61970 0.31704
 C1833 C 0.88154 0.56350 0.25452
 C1834 C 0.86938 0.55428 0.24269
 H1835 H 0.91439 0.53975 0.24905
 H1836 H 0.95145 0.52787 0.25215
 H1837 H 0.97725 0.54778 0.27454
 H1838 H 0.96615 0.57967 0.29399
 H1839 H 0.90793 0.63183 0.31440
 H1840 H 0.87074 0.64340 0.31172
 H1841 H 0.84498 0.62361 0.28918
 H1842 H 0.85625 0.59209 0.26921
 C1843 C 0.90154 0.41829 0.73860
 C1844 C 0.89439 0.40042 0.72657
 C1845 C 0.90917 0.38878 0.71376
 C1846 C 0.93101 0.39506 0.71306
 C1847 C 0.93813 0.41305 0.72494
 C1848 C 0.92335 0.42469 0.73775
 C1849 C 0.93084 0.44260 0.74950
 C1850 C 0.95231 0.44884 0.74860
 C1851 C 0.96676 0.43747 0.73608
 C1852 C 0.95985 0.41975 0.72437
 C1853 C 0.90165 0.37096 0.70190
 C1854 C 0.88014 0.36483 0.70266
 C1855 C 0.86569 0.37621 0.71519
 C1856 C 0.87265 0.39381 0.72704
 C1857 C 0.94623 0.38291 0.70034
 C1858 C 0.95905 0.37284 0.69000
 C1859 C 0.88650 0.43003 0.75188
 C1860 C 0.87403 0.43977 0.76293
 H1861 H 0.92021 0.45196 0.75946
 H1862 H 0.95775 0.46260 0.75767
 H1863 H 0.98341 0.44241 0.73541
 H1864 H 0.97171 0.41143 0.71487
 H1865 H 0.91227 0.36162 0.69190
 H1866 H 0.87465 0.35117 0.69347
 H1867 H 0.84900 0.37138 0.71572
 H1868 H 0.86080 0.40215 0.73654
 C1869 C 0.09917 0.58116 0.73643
 C1870 C 0.07691 0.57713 0.73867
 C1871 C 0.06191 0.58870 0.72606
 C1872 C 0.06927 0.60423 0.71128
 C1873 C 0.09154 0.60816 0.70894
 C1874 C 0.10654 0.59660 0.72156
 C1875 C 0.12872 0.60084 0.71898
 C1876 C 0.13588 0.61607 0.70435
 C1877 C 0.12121 0.62737 0.69200
 C1878 C 0.09928 0.62353 0.69420
 C1879 C 0.03972 0.58442 0.72862
 C1880 C 0.03257 0.56917 0.74323
 C1881 C 0.04723 0.55785 0.75555
 C1882 C 0.06917 0.56172 0.75337
 C1883 C 0.05390 0.61630 0.69868
 C1884 C 0.04094 0.62629 0.68844
 C1885 C 0.11447 0.56953 0.74950
 C1886 C 0.12712 0.55986 0.76040
 H1887 H 0.14075 0.59245 0.72821
 H1888 H 0.15290 0.61912 0.70258
 H1889 H 0.12686 0.63918 0.68065
 H1890 H 0.08849 0.63271 0.68423
 H1891 H 0.02769 0.59279 0.71938
 H1892 H 0.01555 0.56612 0.74500
 H1893 H 0.04159 0.54602 0.76688
 H1894 H 0.07995 0.55250 0.76332
 C1895 C 0.10469 0.42101 0.26809
 C1896 C 0.10867 0.41734 0.28998
 C1897 C 0.09346 0.40581 0.30244
 C1898 C 0.07436 0.39805 0.29293
 C1899 C 0.07037 0.40174 0.27102
 C1900 C 0.08558 0.41324 0.25857
 C1901 C 0.08123 0.41672 0.23670
 C1902 C 0.06241 0.40907 0.22742
 C1903 C 0.04753 0.39783 0.23959
 C1904 C 0.05138 0.39416 0.26114
 C1905 C 0.09780 0.40232 0.32429
 C1906 C 0.11662 0.41002 0.33358
 C1907 C 0.13146 0.42131 0.32141
 C1908 C 0.12762 0.42497 0.29985
 C1909 C 0.05874 0.38632 0.30559
 C1910 C 0.04550 0.37658 0.31574
 C1911 C 0.12014 0.43280 0.25529
 C1912 C 0.13264 0.44256 0.24427
 H1913 H 0.09230 0.42537 0.22656
 H1914 H 0.05934 0.41188 0.21068
 H1915 H 0.03293 0.39191 0.23230
 H1916 H 0.03932 0.38533 0.26994
 H1917 H 0.08673 0.39363 0.33441
 H1918 H 0.11969 0.40721 0.35032
 H1919 H 0.14605 0.42727 0.32870
 H1920 H 0.13964 0.43384 0.29103
   
