data_POSCAR
  _audit_creation_date              2014-09-24
  _audit_creation_method            'ToBaCCo'
  _symmetry_space_group_name_H-M    'P1'
  _symmetry_Int_Tables_number       1
  _symmetry_cell_setting            triclinic
  loop_
  _symmetry_equiv_pos_as_xyz
 x,y,z
_cell_length_a 73.7471
_cell_length_b 73.6564
_cell_length_c 74.3761
_cell_angle_alpha 89.999200
_cell_angle_beta 89.899200
_cell_angle_gamma 89.929400
loop_
  _atom_site_label
  _atom_site_type_symbol
  _atom_site_fract_x
  _atom_site_fract_y
  _atom_site_fract_z
N1 N 0.36605 0.31501 0.32710
 N2 N 0.36548 0.32781 0.31481
 C3 C 0.37936 0.32554 0.30328
 C4 C 0.38924 0.31048 0.30859
 C5 C 0.38037 0.30413 0.32377
 H6 H 0.38200 0.33419 0.29186
 H7 H 0.38413 0.29246 0.33176
 Cu8 Cu 0.34664 0.34621 0.31491
 Cu9 Cu 0.34810 0.31342 0.34637
 Cu10 Cu 0.31414 0.34611 0.34645
 N11 N 0.32769 0.36452 0.31521
 N12 N 0.31490 0.36428 0.32751
 C13 C 0.30332 0.37807 0.32451
 C14 C 0.30917 0.38747 0.30946
 C15 C 0.32473 0.37854 0.30398
 H16 H 0.29161 0.38101 0.33276
 H17 H 0.33310 0.38202 0.29255
 N18 N 0.31567 0.32667 0.36451
 N19 N 0.32861 0.31427 0.36464
 C20 C 0.32578 0.30298 0.37863
 C21 C 0.31026 0.30846 0.38763
 C22 C 0.30429 0.32358 0.37832
 H23 H 0.33426 0.29151 0.38204
 H24 H 0.29259 0.33183 0.38139
 H25 H 0.32745 0.32578 0.33228
 H26 H 0.34172 0.34064 0.34682
 N27 N 0.36501 0.81555 -0.17292
 N28 N 0.36472 0.82841 -0.18515
 C29 C 0.37847 0.82563 -0.19681
 C30 C 0.38773 0.81006 -0.19169
 C31 C 0.37884 0.80416 -0.17633
 H32 H 0.38150 0.83414 -0.20827
 H33 H 0.38218 0.79258 -0.16808
 Cu34 Cu 0.34597 0.84708 -0.18475
 Cu35 Cu 0.34742 0.81421 -0.15351
 Cu36 Cu 0.31385 0.84712 -0.15247
 N37 N 0.32706 0.86556 -0.18401
 N38 N 0.31444 0.86534 -0.17151
 C39 C 0.30283 0.87916 -0.17435
 C40 C 0.30840 0.88856 -0.18956
 C41 C 0.32393 0.87958 -0.19521
 H42 H 0.29132 0.88211 -0.16584
 H43 H 0.33216 0.88300 -0.20677
 N44 N 0.31565 0.82751 -0.13443
 N45 N 0.32849 0.81503 -0.13490
 C46 C 0.32631 0.80367 -0.12090
 C47 C 0.31139 0.80923 -0.11104
 C48 C 0.30495 0.82437 -0.12004
 H49 H 0.33505 0.79226 -0.11809
 H50 H 0.29338 0.83254 -0.11621
 H51 H 0.32653 0.82706 -0.16712
 H52 H 0.34124 0.84167 -0.15274
 N53 N 0.86419 0.31537 -0.17367
 N54 N 0.86400 0.32850 -0.18562
 C55 C 0.87773 0.32585 -0.19734
 C56 C 0.88689 0.31014 -0.19251
 C57 C 0.87793 0.30395 -0.17735
 H58 H 0.88089 0.33460 -0.20858
 H59 H 0.88120 0.29214 -0.16938
 Cu60 Cu 0.84569 0.34764 -0.18460
 Cu61 Cu 0.84683 0.31392 -0.15405
 Cu62 Cu 0.81348 0.34692 -0.15234
 N63 N 0.82635 0.36574 -0.18375
 N64 N 0.81386 0.36530 -0.17112
 C65 C 0.80236 0.37930 -0.17341
 C66 C 0.80790 0.38917 -0.18832
 C67 C 0.82315 0.38007 -0.19457
 H68 H 0.79093 0.38200 -0.16474
 H69 H 0.83135 0.38380 -0.20605
 N70 N 0.81536 0.32720 -0.13453
 N71 N 0.82813 0.31467 -0.13519
 C72 C 0.82605 0.30331 -0.12115
 C73 C 0.81126 0.30896 -0.11113
 C74 C 0.80481 0.32413 -0.12004
 H75 H 0.83476 0.29185 -0.11843
 H76 H 0.79334 0.33237 -0.11607
 H77 H 0.82619 0.32720 -0.16755
 H78 H 0.84091 0.34137 -0.15270
 N79 N 0.86397 0.81263 0.32888
 N80 N 0.86427 0.82470 0.31588
 C81 C 0.87865 0.82140 0.30518
 C82 C 0.88785 0.80646 0.31180
 C83 C 0.87812 0.80123 0.32688
 H84 H 0.88234 0.82930 0.29349
 H85 H 0.88111 0.79009 0.33585
 Cu86 Cu 0.84605 0.84373 0.31426
 Cu87 Cu 0.84540 0.81277 0.34755
 Cu88 Cu 0.81323 0.84706 0.34555
 N89 N 0.82816 0.86315 0.31365
 N90 N 0.81537 0.86437 0.32591
 C91 C 0.80505 0.87902 0.32247
 C92 C 0.81171 0.88754 0.30723
 C93 C 0.82643 0.87703 0.30198
 H94 H 0.79360 0.88335 0.33052
 H95 H 0.83533 0.87930 0.29067
 N96 N 0.81330 0.82828 0.36440
 N97 N 0.82553 0.81521 0.36518
 C98 C 0.82207 0.80477 0.37965
 C99 C 0.80697 0.81157 0.38842
 C100 C 0.80175 0.82648 0.37834
 H101 H 0.83002 0.79314 0.38373
 H102 H 0.79051 0.83549 0.38100
 H103 H 0.82554 0.82547 0.33258
 H104 H 0.84050 0.84039 0.34640
 N105 N 0.63598 0.68649 0.32935
 N106 N 0.63589 0.67378 0.31694
 C107 C 0.62165 0.67656 0.30594
 C108 C 0.61230 0.69178 0.31179
 C109 C 0.62184 0.69773 0.32669
 H110 H 0.61812 0.66809 0.29461
 H111 H 0.61874 0.70926 0.33512
 Cu112 Cu 0.65417 0.65461 0.31670
 Cu113 Cu 0.65416 0.68744 0.34832
 Cu114 Cu 0.68729 0.65414 0.34762
 N115 N 0.67322 0.63619 0.31634
 N116 N 0.68606 0.63625 0.32856
 C117 C 0.69720 0.62207 0.32580
 C118 C 0.69104 0.61245 0.31107
 C119 C 0.67582 0.62187 0.30533
 H120 H 0.70880 0.61901 0.33410
 H121 H 0.66718 0.61829 0.29415
 N122 N 0.68638 0.67331 0.36592
 N123 N 0.67378 0.68603 0.36630
 C124 C 0.67672 0.69680 0.38065
 C125 C 0.69185 0.69053 0.38972
 C126 C 0.69763 0.67563 0.37995
 H127 H 0.66838 0.70828 0.38443
 H128 H 0.70906 0.66697 0.38287
 H129 H 0.67410 0.67462 0.33365
 H130 H 0.65980 0.66006 0.34856
 N131 N 0.63565 0.18662 -0.17167
 N132 N 0.63545 0.17381 -0.18395
 C133 C 0.62123 0.17666 -0.19498
 C134 C 0.61203 0.19201 -0.18920
 C135 C 0.62165 0.19798 -0.17439
 H136 H 0.61765 0.16816 -0.20628
 H137 H 0.61873 0.20964 -0.16609
 Cu138 Cu 0.65371 0.15464 -0.18397
 Cu139 Cu 0.65367 0.18756 -0.15277
 Cu140 Cu 0.68681 0.15425 -0.15261
 N141 N 0.67290 0.13643 -0.18414
 N142 N 0.68567 0.13624 -0.17183
 C143 C 0.69701 0.12228 -0.17512
 C144 C 0.69117 0.11329 -0.19042
 C145 C 0.67572 0.12265 -0.19572
 H146 H 0.70874 0.11891 -0.16706
 H147 H 0.66707 0.11966 -0.20702
 N148 N 0.68556 0.17376 -0.13439
 N149 N 0.67291 0.18644 -0.13463
 C150 C 0.67538 0.19770 -0.12062
 C151 C 0.69031 0.19190 -0.11098
 C152 C 0.69646 0.17669 -0.12013
 H153 H 0.66683 0.20922 -0.11768
 H154 H 0.70795 0.16835 -0.11650
 H155 H 0.67404 0.17429 -0.16706
 H156 H 0.65954 0.15995 -0.15211
 N157 N 0.13548 0.68730 -0.17110
 N158 N 0.13542 0.67483 -0.18373
 C159 C 0.12111 0.67771 -0.19459
 C160 C 0.11173 0.69277 -0.18842
 C161 C 0.12129 0.69851 -0.17348
 H162 H 0.11762 0.66947 -0.20611
 H163 H 0.11823 0.70992 -0.16489
 Cu164 Cu 0.15396 0.65602 -0.18445
 Cu165 Cu 0.15370 0.68799 -0.15235
 Cu166 Cu 0.18644 0.65422 -0.15253
 N167 N 0.17210 0.63686 -0.18412
 N168 N 0.18478 0.63616 -0.17172
 C169 C 0.19530 0.62149 -0.17473
 C170 C 0.18884 0.61249 -0.18977
 C171 C 0.17411 0.62268 -0.19536
 H172 H 0.20675 0.61753 -0.16655
 H173 H 0.16543 0.62002 -0.20673
 N174 N 0.18564 0.67382 -0.13431
 N175 N 0.17311 0.68662 -0.13441
 C176 C 0.17579 0.69780 -0.12038
 C177 C 0.19070 0.69182 -0.11083
 C178 C 0.19666 0.67660 -0.12010
 H179 H 0.16737 0.70939 -0.11736
 H180 H 0.20808 0.66810 -0.11655
 H181 H 0.17423 0.67488 -0.16653
 H182 H 0.15923 0.66027 -0.15238
 N183 N 0.13557 0.18631 0.32820
 N184 N 0.13570 0.17338 0.31603
 C185 C 0.12151 0.17586 0.30488
 C186 C 0.11199 0.19109 0.31046
 C187 C 0.12139 0.19738 0.32527
 H188 H 0.11812 0.16714 0.29368
 H189 H 0.11818 0.20903 0.33349
 Cu190 Cu 0.15417 0.15440 0.31652
 Cu191 Cu 0.15336 0.18779 0.34734
 Cu192 Cu 0.18679 0.15483 0.34817
 N193 N 0.17338 0.13618 0.31690
 N194 N 0.18599 0.13649 0.32937
 C195 C 0.19727 0.12235 0.32695
 C196 C 0.19146 0.11254 0.31218
 C197 C 0.17629 0.12178 0.30609
 H198 H 0.20876 0.11946 0.33547
 H199 H 0.16791 0.11804 0.29476
 N200 N 0.18528 0.17453 0.36601
 N201 N 0.17250 0.18707 0.36567
 C202 C 0.17481 0.19837 0.37970
 C203 C 0.18977 0.19266 0.38938
 C204 C 0.19607 0.17754 0.38028
 H205 H 0.16612 0.20978 0.38269
 H206 H 0.20759 0.16927 0.38402
 H207 H 0.17388 0.17469 0.33342
 H208 H 0.15938 0.16036 0.34836
 N209 N 0.63668 0.31480 0.67062
 N210 N 0.63670 0.32715 0.68338
 C211 C 0.62230 0.32434 0.69421
 C212 C 0.61276 0.30946 0.68788
 C213 C 0.62235 0.30376 0.67288
 H214 H 0.61885 0.33251 0.70581
 H215 H 0.61922 0.29248 0.66416
 Cu216 Cu 0.65555 0.34571 0.68441
 Cu217 Cu 0.65498 0.31384 0.65179
 Cu218 Cu 0.68794 0.34712 0.65256
 N219 N 0.67399 0.36472 0.68416
 N220 N 0.68657 0.36500 0.67163
 C221 C 0.69749 0.37933 0.67424
 C222 C 0.69149 0.38870 0.68922
 C223 C 0.67654 0.37901 0.69521
 H224 H 0.70889 0.38261 0.66574
 H225 H 0.66813 0.38228 0.70669
 N226 N 0.68721 0.32795 0.63428
 N227 N 0.67467 0.31522 0.63391
 C228 C 0.67770 0.30440 0.61961
 C229 C 0.69283 0.31069 0.61052
 C230 C 0.69852 0.32561 0.62026
 H231 H 0.66942 0.29291 0.61584
 H232 H 0.70993 0.33428 0.61733
 H233 H 0.67519 0.32623 0.66633
 H234 H 0.66044 0.34125 0.65230
 N235 N 0.63577 0.81368 1.17140
 N236 N 0.63590 0.82599 1.18419
 C237 C 0.62210 0.82278 1.19560
 C238 C 0.61280 0.80761 1.18970
 C239 C 0.62182 0.80224 1.17423
 H240 H 0.61906 0.83096 1.20725
 H241 H 0.61848 0.79077 1.16578
 Cu242 Cu 0.65408 0.84498 1.18482
 Cu243 Cu 0.65395 0.81333 1.15229
 Cu244 Cu 0.68670 0.84715 1.15341
 N245 N 0.67237 0.86390 1.18526
 N246 N 0.68512 0.86470 1.17294
 C247 C 0.69583 0.87909 1.17628
 C248 C 0.68942 0.88780 1.19151
 C249 C 0.67451 0.87775 1.19686
 H250 H 0.70736 0.88308 1.16819
 H251 H 0.66579 0.88033 1.20824
 N252 N 0.68599 0.82818 1.13474
 N253 N 0.67353 0.81534 1.13424
 C254 C 0.67667 0.80468 1.11985
 C255 C 0.69179 0.81110 1.11085
 C256 C 0.69735 0.82602 1.12071
 H257 H 0.66853 0.79311 1.11602
 H258 H 0.70873 0.83476 1.11787
 H259 H 0.67416 0.82594 1.16681
 H260 H 0.65938 0.84080 1.15272
 N261 N 0.13580 0.31493 1.17185
 N262 N 0.13610 0.32734 1.18455
 C263 C 0.12232 0.32430 1.19606
 C264 C 0.11288 0.30915 1.19028
 C265 C 0.12178 0.30364 1.17482
 H266 H 0.11945 0.33251 1.20775
 H267 H 0.11836 0.29211 1.16649
 Cu268 Cu 0.15474 0.34595 1.18501
 Cu269 Cu 0.15391 0.31406 1.15268
 Cu270 Cu 0.18731 0.34718 1.15364
 N271 N 0.17335 0.36464 1.18532
 N272 N 0.18618 0.36482 1.17304
 C273 C 0.19755 0.37867 1.17635
 C274 C 0.19160 0.38767 1.19159
 C275 C 0.17613 0.37846 1.19686
 H276 H 0.20919 0.38193 1.16813
 H277 H 0.16766 0.38160 1.20833
 N278 N 0.18620 0.32822 1.13507
 N279 N 0.17352 0.31561 1.13459
 C280 C 0.17652 0.30485 1.12022
 C281 C 0.19177 0.31102 1.11124
 C282 C 0.19754 0.32585 1.12109
 H283 H 0.16821 0.29339 1.11642
 H284 H 0.20911 0.33436 1.11832
 H285 H 0.17429 0.32627 1.16714
 H286 H 0.15983 0.34135 1.15298
 N287 N 0.13638 0.81519 0.67085
 N288 N 0.13591 0.82780 0.68335
 C289 C 0.12159 0.82473 0.69419
 C290 C 0.11256 0.80946 0.68810
 C291 C 0.12239 0.80374 0.67327
 H292 H 0.11780 0.83304 0.70558
 H293 H 0.11962 0.79222 0.66474
 Cu294 Cu 0.15391 0.84712 0.68406
 Cu295 Cu 0.15479 0.81461 0.65215
 Cu296 Cu 0.18782 0.84785 0.65367
 N297 N 0.17307 0.86528 0.68500
 N298 N 0.18630 0.86535 0.67314
 C299 C 0.19772 0.87904 0.67684
 C300 C 0.19139 0.88810 0.69190
 C301 C 0.17566 0.87904 0.69666
 H302 H 0.20962 0.88222 0.66897
 H303 H 0.16683 0.88228 0.70784
 N304 N 0.18711 0.82899 0.63498
 N305 N 0.17455 0.81629 0.63441
 C306 C 0.17761 0.80562 0.62002
 C307 C 0.19281 0.81192 0.61109
 C308 C 0.19850 0.82676 0.62098
 H309 H 0.16933 0.79419 0.61610
 H310 H 0.20995 0.83542 0.61817
 H311 H 0.17442 0.82738 0.66734
 H312 H 0.16040 0.84206 0.65226
 N313 N 0.36402 0.68559 0.67243
 N314 N 0.36436 0.67271 0.68465
 C315 C 0.37834 0.67571 0.69587
 C316 C 0.38715 0.69137 0.69050
 C317 C 0.37770 0.69725 0.67551
 H318 H 0.38186 0.66728 0.70724
 H319 H 0.38055 0.70903 0.66733
 Cu320 Cu 0.34611 0.65371 0.68478
 Cu321 Cu 0.34579 0.68639 0.65350
 Cu322 Cu 0.31328 0.65225 0.65357
 N323 N 0.32784 0.63475 0.68501
 N324 N 0.31500 0.63421 0.67278
 C325 C 0.30415 0.61990 0.67614
 C326 C 0.31052 0.61099 0.69127
 C327 C 0.32559 0.62084 0.69653
 H328 H 0.29247 0.61616 0.66818
 H329 H 0.33428 0.61817 0.70788
 N330 N 0.31397 0.67184 0.63536
 N331 N 0.32627 0.68484 0.63548
 C332 C 0.32306 0.69624 0.62169
 C333 C 0.30798 0.69019 0.61241
 C334 C 0.30264 0.67463 0.62142
 H335 H 0.33121 0.70799 0.61862
 H336 H 0.29124 0.66609 0.61803
 H337 H 0.32559 0.67299 0.66759
 H338 H 0.34043 0.65882 0.65288
 N339 N 0.36421 0.18333 1.17281
 N340 N 0.36372 0.17040 1.18499
 C341 C 0.37776 0.17251 1.19635
 C342 C 0.38764 0.18757 1.19101
 C343 C 0.37860 0.19408 1.17602
 H344 H 0.38062 0.16363 1.20753
 H345 H 0.38239 0.20572 1.16799
 Cu346 Cu 0.34504 0.15175 1.18471
 Cu347 Cu 0.34630 0.18511 1.15355
 Cu348 Cu 0.31241 0.15262 1.15342
 N349 N 0.32561 0.13383 1.18454
 N350 N 0.31293 0.13439 1.17219
 C351 C 0.30133 0.12058 1.17474
 C352 C 0.30702 0.11068 1.18949
 C353 C 0.32245 0.11955 1.19545
 H354 H 0.28966 0.11801 1.16639
 H355 H 0.33077 0.11570 1.20679
 N356 N 0.31395 0.17200 1.13543
 N357 N 0.32682 0.18442 1.13529
 C358 C 0.32419 0.19541 1.12100
 C359 C 0.30900 0.18952 1.11172
 C360 C 0.30287 0.17470 1.12135
 H361 H 0.33278 0.20673 1.11739
 H362 H 0.29127 0.16635 1.11833
 H363 H 0.32597 0.17268 1.16781
 H364 H 0.34011 0.15797 1.15287
 N365 N 0.86309 0.68564 1.17072
 N366 N 0.86337 0.67301 1.18321
 C367 C 0.87769 0.67594 1.19407
 C368 C 0.88690 0.69115 1.18801
 C369 C 0.87717 0.69696 1.17317
 H370 H 0.88137 0.66756 1.20543
 H371 H 0.88008 0.70846 1.16466
 Cu372 Cu 0.84520 0.65373 1.18363
 Cu373 Cu 0.84482 0.68649 1.15188
 Cu374 Cu 0.81185 0.65319 1.15291
 N375 N 0.82612 0.63535 1.18419
 N376 N 0.81320 0.63541 1.17205
 C377 C 0.80200 0.62135 1.17497
 C378 C 0.80818 0.61178 1.18974
 C379 C 0.82350 0.62112 1.19532
 H380 H 0.79031 0.61837 1.16680
 H381 H 0.83216 0.61758 1.20651
 N382 N 0.81260 0.67226 1.13451
 N383 N 0.82514 0.68499 1.13403
 C384 C 0.82211 0.69571 1.11966
 C385 C 0.80697 0.68936 1.11066
 C386 C 0.80130 0.67450 1.12051
 H387 H 0.83038 0.70718 1.11579
 H388 H 0.78988 0.66582 1.11767
 H389 H 0.82509 0.67370 1.16678
 H390 H 0.83933 0.65910 1.15179
 N391 N 0.86362 0.18566 0.67177
 N392 N 0.86381 0.17278 0.68400
 C393 C 0.87771 0.17575 0.69536
 C394 C 0.88665 0.19136 0.69005
 C395 C 0.87734 0.19726 0.67496
 H396 H 0.88114 0.16726 0.70671
 H397 H 0.88033 0.20899 0.66677
 Cu398 Cu 0.84583 0.15342 0.68399
 Cu399 Cu 0.84573 0.18646 0.65251
 Cu400 Cu 0.81299 0.15286 0.65272
 N401 N 0.82684 0.13503 0.68415
 N402 N 0.81409 0.13499 0.67184
 C403 C 0.80291 0.12089 0.67471
 C404 C 0.80894 0.11147 0.68965
 C405 C 0.82413 0.12089 0.69534
 H406 H 0.79133 0.11777 0.66642
 H407 H 0.83263 0.11749 0.70669
 N408 N 0.81397 0.17202 0.63440
 N409 N 0.82643 0.18486 0.63421
 C410 C 0.82352 0.19566 0.61986
 C411 C 0.80856 0.18928 0.61059
 C412 C 0.80286 0.17429 0.62025
 H413 H 0.83173 0.20725 0.61623
 H414 H 0.79155 0.16555 0.61721
 H415 H 0.82585 0.17339 0.66696
 H416 H 0.84045 0.15904 0.65210
 N417 N 0.31547 0.36632 0.67178
 N418 N 0.32794 0.36584 0.68439
 C419 C 0.32497 0.37949 0.69607
 C420 C 0.30976 0.38902 0.69054
 C421 C 0.30417 0.38032 0.67502
 H422 H 0.33321 0.38217 0.70775
 H423 H 0.29255 0.38382 0.66686
 Cu424 Cu 0.34654 0.34711 0.68451
 Cu425 Cu 0.31434 0.34828 0.65261
 Cu426 Cu 0.34729 0.31459 0.65302
 N427 N 0.36522 0.32843 0.68443
 N428 N 0.36527 0.31564 0.67211
 C429 C 0.37914 0.30420 0.67523
 C430 C 0.38832 0.31010 0.69035
 C431 C 0.37917 0.32560 0.69576
 H432 H 0.38229 0.29255 0.66697
 H433 H 0.38242 0.33401 0.70722
 N434 N 0.32800 0.31586 0.63479
 N435 N 0.31556 0.32875 0.63447
 C436 C 0.30437 0.32574 0.62047
 C437 C 0.30995 0.31015 0.61167
 C438 C 0.32503 0.30432 0.62108
 H439 H 0.29287 0.33412 0.61695
 H440 H 0.33333 0.29260 0.61817
 H441 H 0.32667 0.32767 0.66683
 H442 H 0.34161 0.34211 0.65250
 N443 N 0.31506 0.86541 0.17416
 N444 N 0.32768 0.86456 0.18657
 C445 C 0.32509 0.87808 0.19847
 C446 C 0.30996 0.88792 0.19331
 C447 C 0.30402 0.87955 0.17773
 H448 H 0.33365 0.88060 0.20996
 H449 H 0.29242 0.88341 0.16972
 Cu450 Cu 0.34621 0.84583 0.18606
 Cu451 Cu 0.31379 0.84783 0.15462
 Cu452 Cu 0.34687 0.81414 0.15358
 N453 N 0.36480 0.82718 0.18535
 N454 N 0.36509 0.81475 0.17268
 C455 C 0.37944 0.80374 0.17538
 C456 C 0.38865 0.80962 0.19055
 C457 C 0.37890 0.82452 0.19650
 H458 H 0.38307 0.79237 0.16690
 H459 H 0.38185 0.83292 0.20801
 N460 N 0.32723 0.81597 0.13555
 N461 N 0.31475 0.82884 0.13598
 C462 C 0.30345 0.82663 0.12196
 C463 C 0.30903 0.81167 0.11214
 C464 C 0.32413 0.80525 0.12118
 H465 H 0.29204 0.83536 0.11913
 H466 H 0.33230 0.79366 0.11740
 H467 H 0.32645 0.82664 0.16798
 H468 H 0.34120 0.84156 0.15395
 N469 N 0.81531 0.36551 0.17266
 N470 N 0.82788 0.36499 0.18515
 C471 C 0.82550 0.37903 0.19647
 C472 C 0.81062 0.38894 0.19083
 C473 C 0.80446 0.37993 0.17567
 H474 H 0.83402 0.38178 0.20793
 H475 H 0.79298 0.38369 0.16745
 Cu476 Cu 0.84634 0.34623 0.18548
 Cu477 Cu 0.81412 0.34739 0.15357
 Cu478 Cu 0.84732 0.31389 0.15367
 N479 N 0.86506 0.32773 0.18511
 N480 N 0.86548 0.31510 0.17265
 C481 C 0.87992 0.30427 0.17552
 C482 C 0.88905 0.31049 0.19056
 C483 C 0.87919 0.32541 0.19628
 H484 H 0.88364 0.29278 0.16724
 H485 H 0.88209 0.33403 0.20765
 N486 N 0.82779 0.31502 0.13562
 N487 N 0.81526 0.32783 0.13546
 C488 C 0.80399 0.32485 0.12154
 C489 C 0.80958 0.30938 0.11256
 C490 C 0.82477 0.30354 0.12184
 H491 H 0.79243 0.33322 0.11814
 H492 H 0.83310 0.29188 0.11879
 H493 H 0.82666 0.32673 0.16763
 H494 H 0.84151 0.34139 0.15342
 N495 N 0.81435 0.86544 0.67234
 N496 N 0.82733 0.86591 0.68442
 C497 C 0.82416 0.87976 0.69582
 C498 C 0.80833 0.88840 0.69069
 C499 C 0.80250 0.87895 0.67566
 H500 H 0.83262 0.88331 0.70714
 H501 H 0.79059 0.88166 0.66766
 Cu502 Cu 0.84698 0.84824 0.68450
 Cu503 Cu 0.81376 0.84737 0.65323
 Cu504 Cu 0.84732 0.81456 0.65385
 N505 N 0.86508 0.82897 0.68500
 N506 N 0.86498 0.81581 0.67309
 C507 C 0.87868 0.80429 0.67656
 C508 C 0.88791 0.81050 0.69153
 C509 C 0.87894 0.82625 0.69647
 H510 H 0.88175 0.79242 0.66860
 H511 H 0.88231 0.83499 0.70766
 N512 N 0.82836 0.81545 0.63538
 N513 N 0.81553 0.82793 0.63505
 C514 C 0.80481 0.82492 0.62070
 C515 C 0.81121 0.80984 0.61157
 C516 C 0.82616 0.80419 0.62130
 H517 H 0.79323 0.83312 0.61700
 H518 H 0.83490 0.79281 0.61836
 H519 H 0.82700 0.82780 0.66808
 H520 H 0.84122 0.84205 0.65275
 N521 N 0.68445 0.63560 0.67381
 N522 N 0.67154 0.63640 0.68599
 C523 C 0.67348 0.62242 0.69751
 C524 C 0.68843 0.61230 0.69228
 C525 C 0.69504 0.62110 0.67719
 H526 H 0.66458 0.61980 0.70875
 H527 H 0.70666 0.61710 0.66922
 Cu528 Cu 0.65326 0.65547 0.68556
 Cu529 Cu 0.68644 0.65332 0.65442
 Cu530 Cu 0.65343 0.68679 0.65271
 N531 N 0.63465 0.67418 0.68413
 N532 N 0.63480 0.68633 0.67121
 C533 C 0.62055 0.69756 0.67325
 C534 C 0.61087 0.69216 0.68829
 C535 C 0.62024 0.67728 0.69485
 H536 H 0.61754 0.70878 0.66439
 H537 H 0.61667 0.66932 0.70655
 N538 N 0.67335 0.68512 0.63518
 N539 N 0.68605 0.67250 0.63587
 C540 C 0.69787 0.67525 0.62229
 C541 C 0.69231 0.69034 0.61262
 C542 C 0.67671 0.69616 0.62116
 H543 H 0.70960 0.66686 0.61966
 H544 H 0.66853 0.70773 0.61739
 H545 H 0.67360 0.67433 0.66765
 H546 H 0.65912 0.65923 0.65351
 N547 N 0.68584 0.13371 0.17179
 N548 N 0.67293 0.13399 0.18397
 C549 C 0.67566 0.12034 0.19570
 C550 C 0.69114 0.11099 0.19058
 C551 C 0.69717 0.11983 0.17529
 H552 H 0.66698 0.11743 0.20704
 H553 H 0.70903 0.11641 0.16741
 Cu554 Cu 0.65383 0.15221 0.18352
 Cu555 Cu 0.68716 0.15152 0.15258
 Cu556 Cu 0.65414 0.18503 0.15188
 N557 N 0.63587 0.17155 0.18326
 N558 N 0.63593 0.18427 0.17088
 C559 C 0.62205 0.19577 0.17399
 C560 C 0.61290 0.19003 0.18923
 C561 C 0.62204 0.17457 0.19471
 H562 H 0.61884 0.20750 0.16586
 H563 H 0.61884 0.16604 0.20608
 N564 N 0.67375 0.18346 0.13386
 N565 N 0.68631 0.17068 0.13419
 C566 C 0.69770 0.17313 0.12025
 C567 C 0.69208 0.18817 0.11062
 C568 C 0.67686 0.19437 0.11965
 H569 H 0.70917 0.16450 0.11734
 H570 H 0.66865 0.20597 0.11599
 H571 H 0.67403 0.17207 0.16662
 H572 H 0.65973 0.15761 0.15166
 N573 N 0.18644 0.63519 0.17180
 N574 N 0.17408 0.63522 0.18452
 C575 C 0.17694 0.62088 0.19540
 C576 C 0.19187 0.61138 0.18910
 C577 C 0.19756 0.62092 0.17410
 H578 H 0.16875 0.61742 0.20698
 H579 H 0.20888 0.61777 0.16542
 Cu580 Cu 0.15539 0.65388 0.18534
 Cu581 Cu 0.18718 0.65340 0.15303
 Cu582 Cu 0.15362 0.68635 0.15329
 N583 N 0.13634 0.67213 0.18502
 N584 N 0.13564 0.68478 0.17257
 C585 C 0.12099 0.69532 0.17555
 C586 C 0.11201 0.68893 0.19065
 C587 C 0.12218 0.67419 0.19629
 H588 H 0.11701 0.70673 0.16729
 H589 H 0.11948 0.66548 0.20766
 N590 N 0.17315 0.68544 0.13500
 N591 N 0.18586 0.67282 0.13508
 C592 C 0.19705 0.67544 0.12104
 C593 C 0.19116 0.69042 0.11150
 C594 C 0.17599 0.69647 0.12078
 H595 H 0.20858 0.66695 0.11801
 H596 H 0.16758 0.70796 0.11725
 H597 H 0.17425 0.67404 0.16723
 H598 H 0.15950 0.65907 0.15323
 N599 N 0.18564 0.13525 0.67152
 N600 N 0.17328 0.13557 0.68427
 C601 C 0.17605 0.12133 0.69534
 C602 C 0.19091 0.11161 0.68918
 C603 C 0.19664 0.12090 0.67402
 H604 H 0.16787 0.11814 0.70700
 H605 H 0.20796 0.11759 0.66540
 Cu606 Cu 0.15476 0.15453 0.68499
 Cu607 Cu 0.18681 0.15341 0.65260
 Cu608 Cu 0.15371 0.18669 0.65281
 N609 N 0.13575 0.17301 0.68434
 N610 N 0.13551 0.18544 0.67167
 C611 C 0.12109 0.19635 0.67407
 C612 C 0.11163 0.19049 0.68908
 C613 C 0.12138 0.17566 0.69529
 H614 H 0.11783 0.20768 0.66546
 H615 H 0.11808 0.16739 0.70685
 N616 N 0.17324 0.18575 0.63479
 N617 N 0.18579 0.17298 0.63459
 C618 C 0.19713 0.17604 0.62071
 C619 C 0.19154 0.19155 0.61181
 C620 C 0.17630 0.19730 0.62109
 H621 H 0.20873 0.16773 0.61730
 H622 H 0.16797 0.20898 0.61809
 H623 H 0.17434 0.17400 0.66685
 H624 H 0.15940 0.15918 0.65286
 N625 N 0.31460 0.63546 0.32945
 N626 N 0.32704 0.63512 0.31677
 C627 C 0.32397 0.62076 0.30599
 C628 C 0.30884 0.61162 0.31227
 C629 C 0.30325 0.62138 0.32719
 H630 H 0.33212 0.61707 0.29445
 H631 H 0.29183 0.61854 0.33583
 Cu632 Cu 0.34593 0.65354 0.31571
 Cu633 Cu 0.31402 0.65391 0.34814
 Cu634 Cu 0.34744 0.68684 0.34659
 N635 N 0.36464 0.67217 0.31506
 N636 N 0.36495 0.68521 0.32711
 C637 C 0.37886 0.69643 0.32356
 C638 C 0.38778 0.69018 0.30840
 C639 C 0.37845 0.67466 0.30343
 H640 H 0.38223 0.70818 0.33156
 H641 H 0.38152 0.66597 0.29211
 N642 N 0.32854 0.68621 0.36525
 N643 N 0.31577 0.67370 0.36584
 C644 C 0.30510 0.67682 0.38022
 C645 C 0.31148 0.69198 0.38914
 C646 C 0.32635 0.69760 0.37924
 H647 H 0.29361 0.66861 0.38414
 H648 H 0.33505 0.70903 0.38203
 H649 H 0.32661 0.67385 0.33319
 H650 H 0.34145 0.65942 0.34768
 N651 N 0.31608 0.13568 0.82816
 N652 N 0.32850 0.13607 0.81546
 C653 C 0.32557 0.12230 0.80394
 C654 C 0.31047 0.11275 0.80967
 C655 C 0.30487 0.12159 0.82515
 H656 H 0.33382 0.11950 0.79226
 H657 H 0.29335 0.11808 0.83347
 Cu658 Cu 0.34705 0.15480 0.81503
 Cu659 Cu 0.31512 0.15375 0.84736
 Cu660 Cu 0.34814 0.18729 0.84648
 N661 N 0.36567 0.17347 0.81477
 N662 N 0.36582 0.18628 0.82706
 C663 C 0.37963 0.19770 0.82376
 C664 C 0.38866 0.19180 0.80850
 C665 C 0.37949 0.17630 0.80324
 H666 H 0.38287 0.20934 0.83198
 H667 H 0.38265 0.16787 0.79175
 N668 N 0.32916 0.18605 0.86505
 N669 N 0.31658 0.17333 0.86549
 C670 C 0.30579 0.17624 0.87986
 C671 C 0.31191 0.19147 0.88891
 C672 C 0.32673 0.19733 0.87908
 H673 H 0.29436 0.16788 0.88364
 H674 H 0.33520 0.20892 0.88189
 H675 H 0.32731 0.17425 0.83297
 H676 H 0.34236 0.15975 0.84710
 N677 N 0.81595 0.63555 0.82704
 N678 N 0.82875 0.63593 0.81472
 C679 C 0.82649 0.62187 0.80340
 C680 C 0.81143 0.61210 0.80886
 C681 C 0.80508 0.62121 0.82392
 H682 H 0.83520 0.61900 0.79207
 H683 H 0.79348 0.61753 0.83205
 Cu684 Cu 0.84715 0.65475 0.81467
 Cu685 Cu 0.81450 0.65367 0.84624
 Cu686 Cu 0.84739 0.68742 0.84589
 N687 N 0.86554 0.67361 0.81453
 N688 N 0.86538 0.68650 0.82675
 C689 C 0.87912 0.69805 0.82354
 C690 C 0.88841 0.69211 0.80845
 C691 C 0.87948 0.67649 0.80317
 H692 H 0.88212 0.70978 0.83172
 H693 H 0.88290 0.66801 0.79178
 N694 N 0.82812 0.68606 0.86418
 N695 N 0.81557 0.67330 0.86441
 C696 C 0.80463 0.67612 0.87870
 C697 C 0.81062 0.69134 0.88788
 C698 C 0.82552 0.69726 0.87823
 H699 H 0.79321 0.66768 0.88234
 H700 H 0.83396 0.70883 0.88120
 H701 H 0.82690 0.67418 0.83205
 H702 H 0.84169 0.65985 0.84660
 N703 N 0.81603 0.13406 0.32743
 N704 N 0.82891 0.13428 0.31522
 C705 C 0.82616 0.12058 0.30355
 C706 C 0.81071 0.11128 0.30876
 C707 C 0.80471 0.12018 0.32402
 H708 H 0.83482 0.11761 0.29220
 H709 H 0.79288 0.11680 0.33195
 Cu710 Cu 0.84801 0.15245 0.31554
 Cu711 Cu 0.81463 0.15198 0.34655
 Cu712 Cu 0.84744 0.18556 0.34683
 N713 N 0.86583 0.17189 0.31560
 N714 N 0.86549 0.18482 0.32776
 C715 C 0.87904 0.19659 0.32445
 C716 C 0.88838 0.19073 0.30935
 C717 C 0.87965 0.17498 0.30416
 H718 H 0.88185 0.20845 0.33252
 H719 H 0.88313 0.16653 0.29278
 N720 N 0.82805 0.18401 0.36499
 N721 N 0.81548 0.17129 0.36479
 C722 C 0.80393 0.17412 0.37855
 C723 C 0.80949 0.18939 0.38786
 C724 C 0.82487 0.19523 0.37894
 H725 H 0.79237 0.16566 0.38152
 H726 H 0.83299 0.20694 0.38235
 H727 H 0.82758 0.17231 0.33224
 H728 H 0.84198 0.15805 0.34734
 N729 N 0.68379 0.36392 0.32587
 N730 N 0.67104 0.36297 0.31358
 C731 C 0.67293 0.37697 0.30208
 C732 C 0.68769 0.38726 0.30743
 C733 C 0.69423 0.37853 0.32258
 H734 H 0.66413 0.37952 0.29078
 H735 H 0.70568 0.38266 0.33065
 Cu736 Cu 0.65298 0.34373 0.31390
 Cu737 Cu 0.68577 0.34624 0.34528
 Cu738 Cu 0.65314 0.31244 0.34682
 N739 N 0.63457 0.32486 0.31524
 N740 N 0.63470 0.31271 0.32817
 C741 C 0.62056 0.30138 0.32602
 C742 C 0.61099 0.30673 0.31091
 C743 C 0.62029 0.32168 0.30443
 H744 H 0.61752 0.29018 0.33488
 H745 H 0.61675 0.32965 0.29274
 N746 N 0.67289 0.31435 0.36450
 N747 N 0.68542 0.32710 0.36385
 C748 C 0.69715 0.32453 0.37749
 C749 C 0.69173 0.30941 0.38718
 C750 C 0.67628 0.30339 0.37858
 H751 H 0.70873 0.33307 0.38015
 H752 H 0.66822 0.29173 0.38234
 H753 H 0.67331 0.32506 0.33201
 H754 H 0.65849 0.34004 0.34601
 N755 N 0.68368 0.86531 0.82669
 N756 N 0.67089 0.86457 0.81443
 C757 C 0.67284 0.87868 0.80307
 C758 C 0.68767 0.88880 0.80850
 C759 C 0.69419 0.87989 0.82353
 H760 H 0.66403 0.88141 0.79181
 H761 H 0.70570 0.88386 0.83162
 Cu762 Cu 0.65274 0.84541 0.81463
 Cu763 Cu 0.68567 0.84750 0.84591
 Cu764 Cu 0.65286 0.81394 0.84740
 N765 N 0.63419 0.82668 0.81602
 N766 N 0.63432 0.81448 0.82890
 C767 C 0.62012 0.80324 0.82682
 C768 C 0.61048 0.80869 0.81180
 C769 C 0.61981 0.82361 0.80530
 H770 H 0.61711 0.79199 0.83564
 H771 H 0.61626 0.83161 0.79363
 N772 N 0.67271 0.81558 0.86493
 N773 N 0.68532 0.82824 0.86431
 C774 C 0.69709 0.82552 0.87789
 C775 C 0.69159 0.81038 0.88749
 C776 C 0.67607 0.80451 0.87893
 H777 H 0.70872 0.83397 0.88058
 H778 H 0.66794 0.79290 0.88267
 H779 H 0.67302 0.82651 0.83254
 H780 H 0.65835 0.84152 0.84668
 N781 N 0.18437 0.36389 0.82839
 N782 N 0.17168 0.36367 0.81600
 C783 C 0.17452 0.37749 0.80447
 C784 C 0.18983 0.38690 0.80992
 C785 C 0.19564 0.37790 0.82520
 H786 H 0.16600 0.38050 0.79306
 H787 H 0.20731 0.38131 0.83331
 Cu788 Cu 0.15258 0.34541 0.81610
 Cu789 Cu 0.18551 0.34586 0.84758
 Cu790 Cu 0.15245 0.31253 0.84735
 N791 N 0.13430 0.32627 0.81607
 N792 N 0.13445 0.31350 0.82838
 C793 C 0.12043 0.30220 0.82567
 C794 C 0.11084 0.30817 0.81083
 C795 C 0.12009 0.32347 0.80503
 H796 H 0.11746 0.29058 0.83401
 H797 H 0.11653 0.33197 0.79372
 N798 N 0.17167 0.31365 0.86553
 N799 N 0.18427 0.32634 0.86578
 C800 C 0.19516 0.32344 0.88004
 C801 C 0.18907 0.30823 0.88919
 C802 C 0.17417 0.30240 0.87955
 H803 H 0.20663 0.33180 0.88368
 H804 H 0.16566 0.29088 0.88251
 H805 H 0.17285 0.32575 0.83314
 H806 H 0.15825 0.34011 0.84798
 N807 N 0.18372 0.86389 0.32764
 N808 N 0.17072 0.86364 0.31558
 C809 C 0.17330 0.87730 0.30386
 C810 C 0.18878 0.88666 0.30873
 C811 C 0.19497 0.87785 0.32401
 H812 H 0.16442 0.88028 0.29271
 H813 H 0.20683 0.88133 0.33181
 Cu814 Cu 0.15157 0.84558 0.31578
 Cu815 Cu 0.18502 0.84587 0.34687
 Cu816 Cu 0.15224 0.81220 0.34660
 N817 N 0.13386 0.82606 0.31560
 N818 N 0.13430 0.81293 0.32753
 C819 C 0.12078 0.80117 0.32414
 C820 C 0.11135 0.80723 0.30920
 C821 C 0.12001 0.82310 0.30420
 H822 H 0.11801 0.78922 0.33208
 H823 H 0.11644 0.83174 0.29299
 N824 N 0.17139 0.81358 0.36489
 N825 N 0.18391 0.82635 0.36512
 C826 C 0.19482 0.82354 0.37940
 C827 C 0.18883 0.80831 0.38860
 C828 C 0.17396 0.80237 0.37893
 H829 H 0.20624 0.83198 0.38301
 H830 H 0.16555 0.79077 0.38188
 H831 H 0.17232 0.82588 0.33225
 H832 H 0.15781 0.83988 0.34752
 C833 C 0.24175 0.99965 0.25774
 C834 C 0.25580 0.99962 0.24597
 C835 C 0.26268 1.01667 0.23801
 C836 C 0.26354 0.98247 0.23898
 C837 C 0.23393 0.98245 0.26444
 C838 C 0.23446 1.01677 0.26537
 C839 C 0.25213 1.02603 0.22542
 C840 C 0.25878 1.04168 0.21715
 C841 C 0.27636 1.04811 0.22104
 C842 C 0.28645 1.03912 0.23442
 C843 C 0.27976 1.02346 0.24268
 C844 C 0.25375 0.97186 0.22674
 C845 C 0.26123 0.95584 0.21988
 C846 C 0.27858 0.94998 0.22528
 C847 C 0.28855 0.96116 0.23705
 C848 C 0.28100 0.97705 0.24402
 C849 C 0.24222 0.97310 0.27861
 C850 C 0.23473 0.95691 0.28503
 C851 C 0.21893 0.94960 0.27724
 C852 C 0.21053 0.95939 0.26321
 C853 C 0.21810 0.97549 0.25677
 C854 C 0.24568 1.02815 0.27555
 C855 C 0.23874 1.04397 0.28332
 C856 C 0.22025 1.04849 0.28157
 C857 C 0.20930 1.03743 0.27060
 C858 C 0.21628 1.02163 0.26279
 H859 H 0.23875 1.02112 0.22194
 H860 H 0.24996 1.04865 0.20787
 H861 H 0.29964 1.04415 0.23840
 H862 H 0.28788 1.01677 0.25282
 H863 H 0.24040 0.97611 0.22237
 H864 H 0.25348 0.94818 0.21015
 H865 H 0.28885 0.98513 0.25331
 H866 H 0.25442 0.97841 0.28475
 H867 H 0.24125 0.95011 0.29619
 H868 H 0.19792 0.95503 0.25731
 H869 H 0.21155 0.98255 0.24578
 H870 H 0.25981 1.02471 0.27758
 H871 H 0.24797 1.05259 0.29068
 H872 H 0.19531 1.04095 0.26800
 H873 H 0.20747 1.01333 0.25459
 H874 H 0.30234 0.95788 0.24075
 C875 C 0.24258 0.49992 0.75809
 C876 C 0.25496 0.50003 0.74443
 C877 C 0.26245 0.51718 0.73698
 C878 C 0.26209 0.48298 0.73634
 C879 C 0.23570 0.48272 0.76609
 C880 C 0.23492 0.51701 0.76559
 C881 C 0.26139 0.52048 0.71846
 C882 C 0.26935 0.53593 0.71099
 C883 C 0.27909 0.54821 0.72181
 C884 C 0.27934 0.54525 0.74054
 C885 C 0.27136 0.52977 0.74801
 C886 C 0.25046 0.46977 0.72920
 C887 C 0.25750 0.45378 0.72178
 C888 C 0.27638 0.45068 0.72134
 C889 C 0.28792 0.46446 0.72771
 C890 C 0.28088 0.48031 0.73523
 C891 C 0.24755 0.46955 0.77302
 C892 C 0.24078 0.45330 0.78012
 C893 C 0.22197 0.44988 0.78047
 C894 C 0.21019 0.46363 0.77438
 C895 C 0.21696 0.47975 0.76716
 C896 C 0.23596 0.52030 0.78412
 C897 C 0.22823 0.53592 0.79155
 C898 C 0.21877 0.54839 0.78068
 C899 C 0.21843 0.54535 0.76196
 C900 C 0.22614 0.52969 0.75454
 H901 H 0.25436 0.51104 0.70975
 H902 H 0.26784 0.53818 0.69670
 H903 H 0.28579 0.55483 0.74950
 H904 H 0.27234 0.52748 0.76236
 H905 H 0.23593 0.47187 0.72929
 H906 H 0.24805 0.44417 0.71616
 H907 H 0.29013 0.49049 0.74033
 H908 H 0.26205 0.47186 0.77296
 H909 H 0.25041 0.44373 0.78556
 H910 H 0.19563 0.46183 0.77508
 H911 H 0.20754 0.48988 0.76223
 H912 H 0.24291 0.51079 0.79284
 H913 H 0.22981 0.53819 0.80582
 H914 H 0.21216 0.55503 0.75297
 H915 H 0.22517 0.52741 0.74019
 H916 H 0.30251 0.46290 0.72694
 C917 C 0.74484 -0.00089 0.24334
 C918 C 0.75744 -0.00096 0.25671
 C919 C 0.76524 -0.01809 0.26383
 C920 C 0.76446 0.01611 0.26472
 C921 C 0.73775 0.01623 0.23545
 C922 C 0.73711 -0.01795 0.23606
 C923 C 0.76440 -0.02167 0.28231
 C924 C 0.77242 -0.03727 0.28940
 C925 C 0.78201 -0.04940 0.27823
 C926 C 0.78214 -0.04609 0.25956
 C927 C 0.77408 -0.03047 0.25248
 C928 C 0.75273 0.02920 0.27202
 C929 C 0.75961 0.04537 0.27907
 C930 C 0.77842 0.04880 0.27896
 C931 C 0.79011 0.03512 0.27255
 C932 C 0.78321 0.01906 0.26538
 C933 C 0.74943 0.02935 0.22817
 C934 C 0.74247 0.04548 0.22103
 C935 C 0.72363 0.04883 0.22103
 C936 C 0.71201 0.03513 0.22747
 C937 C 0.71898 0.01913 0.23472
 C938 C 0.73801 -0.02135 0.21755
 C939 C 0.72996 -0.03683 0.21030
 C940 C 0.72028 -0.04899 0.22133
 C941 C 0.72014 -0.04588 0.24004
 C942 C 0.72822 -0.03039 0.24728
 H943 H 0.75742 -0.01238 0.29126
 H944 H 0.77101 -0.03979 0.30366
 H945 H 0.78845 -0.05554 0.25034
 H946 H 0.77486 -0.02796 0.23815
 H947 H 0.73823 0.02687 0.27227
 H948 H 0.75010 0.05489 0.28484
 H949 H 0.79254 0.00897 0.26017
 H950 H 0.76393 0.02707 0.22795
 H951 H 0.75193 0.05501 0.21525
 H952 H 0.69744 0.03683 0.22696
 H953 H 0.70970 0.00901 0.23990
 H954 H 0.74504 -0.01201 0.20871
 H955 H 0.73139 -0.03922 0.19602
 H956 H 0.71376 -0.05538 0.24915
 H957 H 0.72740 -0.02800 0.26163
 H958 H 0.80467 0.03690 0.27298
 C959 C 0.74317 0.50039 0.74440
 C960 C 0.75633 0.50031 0.75722
 C961 C 0.76380 0.48318 0.76477
 C962 C 0.76406 0.51736 0.76457
 C963 C 0.73551 0.51753 0.73709
 C964 C 0.73557 0.48337 0.73684
 C965 C 0.75257 0.47032 0.77309
 C966 C 0.76003 0.45470 0.78082
 C967 C 0.77896 0.45187 0.78093
 C968 C 0.79001 0.46449 0.77186
 C969 C 0.78254 0.48006 0.76412
 C970 C 0.76347 0.52048 0.78315
 C971 C 0.77135 0.53601 0.79050
 C972 C 0.78053 0.54857 0.77949
 C973 C 0.78038 0.54573 0.76073
 C974 C 0.77248 0.53015 0.75338
 C975 C 0.73619 0.52073 0.71853
 C976 C 0.72826 0.53626 0.71119
 C977 C 0.71891 0.54873 0.72219
 C978 C 0.71897 0.54581 0.74094
 C979 C 0.72695 0.53025 0.74828
 C980 C 0.74672 0.47033 0.72866
 C981 C 0.73915 0.45478 0.72098
 C982 C 0.72020 0.45223 0.72071
 C983 C 0.70919 0.46507 0.72956
 C984 C 0.71678 0.48055 0.73731
 H985 H 0.73805 0.47244 0.77374
 H986 H 0.75095 0.44490 0.78684
 H987 H 0.80447 0.46241 0.77057
 H988 H 0.79141 0.48969 0.75750
 H989 H 0.75678 0.51089 0.79198
 H990 H 0.77010 0.53813 0.80483
 H991 H 0.77307 0.52801 0.73899
 H992 H 0.74297 0.51118 0.70970
 H993 H 0.72956 0.53845 0.69687
 H994 H 0.71282 0.55552 0.75001
 H995 H 0.72630 0.52805 0.76266
 H996 H 0.76127 0.47226 0.72810
 H997 H 0.74816 0.44483 0.71506
 H998 H 0.69470 0.46323 0.73071
 H999 H 0.70796 0.49035 0.74379
 H1000 H 0.78643 0.55549 0.75167
 C1001 C 0.24345 0.50003 0.24475
 C1002 C 0.25730 0.50011 0.25685
 C1003 C 0.26557 0.48304 0.26362
 C1004 C 0.26465 0.51723 0.26443
 C1005 C 0.23595 0.51707 0.23716
 C1006 C 0.23531 0.48290 0.23799
 C1007 C 0.26668 0.48009 0.28219
 C1008 C 0.27401 0.46400 0.28885
 C1009 C 0.28018 0.45031 0.27712
 C1010 C 0.27983 0.45373 0.25846
 C1011 C 0.27262 0.46995 0.25181
 C1012 C 0.25335 0.52970 0.27325
 C1013 C 0.26066 0.54525 0.28117
 C1014 C 0.27952 0.54836 0.28099
 C1015 C 0.29064 0.53616 0.27140
 C1016 C 0.28332 0.52065 0.26347
 C1017 C 0.24715 0.52962 0.22835
 C1018 C 0.23970 0.54509 0.22042
 C1019 C 0.22081 0.54804 0.22056
 C1020 C 0.20978 0.53576 0.23010
 C1021 C 0.21725 0.52033 0.23808
 C1022 C 0.23401 0.48002 0.21942
 C1023 C 0.22659 0.46399 0.21275
 C1024 C 0.22051 0.45026 0.22447
 C1025 C 0.22112 0.45356 0.24313
 C1026 C 0.22840 0.46973 0.24980
 H1027 H 0.26165 0.49018 0.29156
 H1028 H 0.27471 0.46215 0.30327
 H1029 H 0.28530 0.44419 0.24888
 H1030 H 0.27250 0.47229 0.23744
 H1031 H 0.23889 0.52731 0.27416
 H1032 H 0.25149 0.55476 0.28753
 H1033 H 0.29223 0.51129 0.25649
 H1034 H 0.26163 0.52733 0.22746
 H1035 H 0.24877 0.55467 0.21404
 H1036 H 0.19536 0.53800 0.23156
 H1037 H 0.20842 0.51090 0.24504
 H1038 H 0.23893 0.49015 0.21005
 H1039 H 0.22577 0.46221 0.19832
 H1040 H 0.21580 0.44395 0.25273
 H1041 H 0.22865 0.47200 0.26418
 H1042 H 0.30503 0.53853 0.26994
 C1043 C 0.74455 1.00085 0.75951
 C1044 C 0.75777 1.00044 0.74667
 C1045 C 0.76534 1.01732 0.73875
 C1046 C 0.76502 0.98308 0.73931
 C1047 C 0.73601 0.98398 0.76637
 C1048 C 0.73744 1.01819 0.76704
 C1049 C 0.75409 1.03012 0.73035
 C1050 C 0.76155 1.04556 0.72234
 C1051 C 0.78047 1.04825 0.72198
 C1052 C 0.79158 1.03565 0.73103
 C1053 C 0.78410 1.02026 0.73909
 C1054 C 0.76542 0.98040 0.72065
 C1055 C 0.77229 0.96433 0.71341
 C1056 C 0.77870 0.95033 0.72462
 C1057 C 0.77889 0.95337 0.74335
 C1058 C 0.77211 0.96956 0.75059
 C1059 C 0.73638 0.98023 0.78482
 C1060 C 0.72796 0.96472 0.79162
 C1061 C 0.71840 0.95287 0.78019
 C1062 C 0.71862 0.95642 0.76155
 C1063 C 0.72710 0.97194 0.75476
 C1064 C 0.74904 1.03128 0.77449
 C1065 C 0.74205 1.04757 0.78128
 C1066 C 0.72326 1.05116 0.78077
 C1067 C 0.71169 1.03753 0.77413
 C1068 C 0.71869 1.02136 0.76722
 H1069 H 0.73956 1.02808 0.72989
 H1070 H 0.75245 1.05534 0.71628
 H1071 H 0.80605 1.03764 0.73210
 H1072 H 0.79297 1.01063 0.74572
 H1073 H 0.76034 0.99078 0.71164
 H1074 H 0.77258 0.96282 0.69893
 H1075 H 0.77257 0.97162 0.76500
 H1076 H 0.74340 0.98927 0.79396
 H1077 H 0.72909 0.96201 0.80587
 H1078 H 0.71234 0.94719 0.75214
 H1079 H 0.72668 0.97460 0.74044
 H1080 H 0.76350 1.02883 0.77513
 H1081 H 0.75145 1.05706 0.78721
 H1082 H 0.69713 1.03941 0.77422
 H1083 H 0.70943 1.01132 0.76188
 H1084 H 0.78459 0.94357 0.75254
 C1085 C 0.74203 0.49989 0.25665
 C1086 C 0.75529 0.50000 0.24388
 C1087 C 0.76309 0.51712 0.23668
 C1088 C 0.76284 0.48299 0.23626
 C1089 C 0.73420 0.48274 0.26370
 C1090 C 0.73453 0.51690 0.26438
 C1091 C 0.75212 0.53039 0.22867
 C1092 C 0.75990 0.54600 0.22128
 C1093 C 0.77887 0.54839 0.22112
 C1094 C 0.78969 0.53532 0.22984
 C1095 C 0.78190 0.51979 0.23732
 C1096 C 0.76231 0.48021 0.21763
 C1097 C 0.77019 0.46479 0.21002
 C1098 C 0.77929 0.45201 0.22083
 C1099 C 0.77902 0.45448 0.23964
 C1100 C 0.77115 0.46995 0.24724
 C1101 C 0.73488 0.47921 0.28220
 C1102 C 0.72695 0.46356 0.28927
 C1103 C 0.71761 0.45132 0.27809
 C1104 C 0.71763 0.45460 0.25940
 C1105 C 0.72560 0.47027 0.25232
 C1106 C 0.74575 0.52974 0.27269
 C1107 C 0.73830 0.54543 0.28026
 C1108 C 0.71939 0.54831 0.28029
 C1109 C 0.70832 0.53564 0.27136
 C1110 C 0.71580 0.52002 0.26372
 H1111 H 0.73757 0.52859 0.22799
 H1112 H 0.75102 0.55611 0.21545
 H1113 H 0.80419 0.53701 0.23107
 H1114 H 0.79057 0.50981 0.24369
 H1115 H 0.75570 0.49001 0.20897
 H1116 H 0.76902 0.46294 0.19565
 H1117 H 0.77170 0.47185 0.26167
 H1118 H 0.74169 0.48856 0.29116
 H1119 H 0.72825 0.46109 0.30355
 H1120 H 0.71151 0.44507 0.25017
 H1121 H 0.72498 0.47273 0.23797
 H1122 H 0.76027 0.52759 0.27337
 H1123 H 0.74738 0.55525 0.28622
 H1124 H 0.69388 0.53773 0.27005
 H1125 H 0.70694 0.51038 0.25711
 H1126 H 0.78502 0.44453 0.24852
 C1127 C 0.24229 0.00044 0.74619
 C1128 C 0.25595 0.00049 0.75855
 C1129 C 0.26429 -0.01663 0.76529
 C1130 C 0.26328 0.01769 0.76607
 C1131 C 0.23483 0.01751 0.73844
 C1132 C 0.23429 -0.01671 0.73926
 C1133 C 0.26548 -0.01966 0.78386
 C1134 C 0.27300 -0.03571 0.79047
 C1135 C 0.27933 -0.04932 0.77872
 C1136 C 0.27888 -0.04582 0.76007
 C1137 C 0.27147 -0.02964 0.75347
 C1138 C 0.25185 0.03063 0.77408
 C1139 C 0.25897 0.04677 0.78098
 C1140 C 0.27772 0.05036 0.77998
 C1141 C 0.28916 0.03685 0.77278
 C1142 C 0.28201 0.02081 0.76578
 C1143 C 0.24607 0.03010 0.72973
 C1144 C 0.23865 0.04555 0.72166
 C1145 C 0.21974 0.04846 0.72156
 C1146 C 0.20866 0.03612 0.73099
 C1147 C 0.21610 0.02072 0.73909
 C1148 C 0.23324 -0.01953 0.72066
 C1149 C 0.22594 -0.03555 0.71384
 C1150 C 0.21972 -0.04934 0.72542
 C1151 C 0.22011 -0.04611 0.74411
 C1152 C 0.22728 -0.02994 0.75093
 H1153 H 0.26038 -0.00964 0.79326
 H1154 H 0.27371 -0.03761 0.80489
 H1155 H 0.28442 -0.05528 0.75044
 H1156 H 0.27135 -0.02727 0.73910
 H1157 H 0.23741 0.02816 0.77511
 H1158 H 0.24971 0.05613 0.78738
 H1159 H 0.29113 0.01084 0.76002
 H1160 H 0.26058 0.02788 0.72903
 H1161 H 0.24774 0.05514 0.71533
 H1162 H 0.19422 0.03828 0.73226
 H1163 H 0.20722 0.01127 0.74595
 H1164 H 0.23826 -0.00936 0.71138
 H1165 H 0.22531 -0.03729 0.69939
 H1166 H 0.21470 -0.05576 0.75360
 H1167 H 0.22736 -0.02774 0.76532
 H1168 H 0.30372 0.03871 0.77253
 C1169 C 0.25719 0.24339 1.00015
 C1170 C 0.24405 0.25640 1.00015
 C1171 C 0.23655 0.26407 1.01707
 C1172 C 0.23637 0.26386 0.98325
 C1173 C 0.26482 0.23589 0.98321
 C1174 C 0.26483 0.23589 1.01707
 C1175 C 0.21782 0.26332 1.02020
 C1176 C 0.21034 0.27108 1.03565
 C1177 C 0.22138 0.28026 1.04812
 C1178 C 0.24029 0.28025 1.04526
 C1179 C 0.24776 0.27252 1.02976
 C1180 C 0.22810 0.25259 0.97049
 C1181 C 0.22033 0.26004 0.95502
 C1182 C 0.22010 0.27899 0.95227
 C1183 C 0.22908 0.29010 0.96482
 C1184 C 0.23688 0.28264 0.98023
 C1185 C 0.27307 0.24714 0.97039
 C1186 C 0.28079 0.23967 0.95488
 C1187 C 0.28100 0.22072 0.95214
 C1188 C 0.27203 0.20963 0.96476
 C1189 C 0.26428 0.21711 0.98021
 C1190 C 0.28361 0.23643 1.01987
 C1191 C 0.29121 0.22891 1.03536
 C1192 C 0.28022 0.22023 1.04825
 C1193 C 0.26127 0.22042 1.04568
 C1194 C 0.25369 0.22785 1.03012
 H1195 H 0.20898 0.25660 1.01068
 H1196 H 0.19590 0.26974 1.03778
 H1197 H 0.24938 0.28628 1.05496
 H1198 H 0.26227 0.27323 1.02761
 H1199 H 0.22756 0.23805 0.97255
 H1200 H 0.21440 0.25092 0.94527
 H1201 H 0.24344 0.29153 0.98981
 H1202 H 0.27363 0.26168 0.97245
 H1203 H 0.28670 0.24878 0.94509
 H1204 H 0.27082 0.19515 0.96274
 H1205 H 0.25772 0.20823 0.98984
 H1206 H 0.29241 0.24283 1.01007
 H1207 H 0.30569 0.23011 1.03718
 H1208 H 0.25225 0.21465 1.05565
 H1209 H 0.23915 0.22724 1.02822
 H1210 H 0.23026 0.30458 0.96280
 C1211 C 0.25534 0.74212 0.50025
 C1212 C 0.24279 0.75573 0.49994
 C1213 C 0.23559 0.76394 0.51670
 C1214 C 0.23562 0.76340 0.48285
 C1215 C 0.26356 0.73495 0.48347
 C1216 C 0.26206 0.73408 0.51738
 C1217 C 0.21685 0.76400 0.51982
 C1218 C 0.20972 0.77217 0.53521
 C1219 C 0.22115 0.78101 0.54758
 C1220 C 0.24003 0.78028 0.54468
 C1221 C 0.24715 0.77209 0.52926
 C1222 C 0.22755 0.75229 0.46981
 C1223 C 0.22009 0.75992 0.45426
 C1224 C 0.21994 0.77890 0.45167
 C1225 C 0.22877 0.78985 0.46448
 C1226 C 0.23628 0.78220 0.47996
 C1227 C 0.27262 0.74646 0.47144
 C1228 C 0.28082 0.73940 0.45601
 C1229 C 0.28067 0.72057 0.45258
 C1230 C 0.27095 0.70924 0.46441
 C1231 C 0.26274 0.71632 0.47982
 C1232 C 0.28077 0.73287 0.52042
 C1233 C 0.28741 0.72549 0.53639
 C1234 C 0.27553 0.71934 0.54992
 C1235 C 0.25673 0.71988 0.54648
 C1236 C 0.25010 0.72714 0.53038
 H1237 H 0.20775 0.75752 0.51038
 H1238 H 0.19525 0.77135 0.53739
 H1239 H 0.24937 0.78605 0.55432
 H1240 H 0.26168 0.77214 0.52710
 H1241 H 0.22685 0.73774 0.47174
 H1242 H 0.21424 0.75093 0.44435
 H1243 H 0.24271 0.79100 0.48972
 H1244 H 0.27340 0.76091 0.47404
 H1245 H 0.28725 0.74875 0.44679
 H1246 H 0.26953 0.69487 0.46179
 H1247 H 0.25559 0.70727 0.48885
 H1248 H 0.29030 0.73781 0.51046
 H1249 H 0.30195 0.72471 0.53825
 H1250 H 0.24700 0.71450 0.55592
 H1251 H 0.23561 0.72727 0.52802
 H1252 H 0.23003 0.80434 0.46263
 C1253 C 0.24435 0.74437 0.00052
 C1254 C 0.25744 0.75742 0.00059
 C1255 C 0.26524 0.76482 -0.01631
 C1256 C 0.26481 0.76513 0.01754
 C1257 C 0.23652 0.73697 0.01740
 C1258 C 0.23703 0.73665 -0.01644
 C1259 C 0.27372 0.75351 -0.02896
 C1260 C 0.28139 0.76089 -0.04453
 C1261 C 0.28131 0.77981 -0.04751
 C1262 C 0.27214 0.79093 -0.03505
 C1263 C 0.26445 0.78354 -0.01953
 C1264 C 0.28353 0.76442 0.02071
 C1265 C 0.29091 0.77214 0.03620
 C1266 C 0.27979 0.78127 0.04870
 C1267 C 0.26089 0.78128 0.04578
 C1268 C 0.25352 0.77356 0.03024
 C1269 C 0.21771 0.73757 0.02005
 C1270 C 0.20991 0.73004 0.03545
 C1271 C 0.22074 0.72128 0.04840
 C1272 C 0.23972 0.72142 0.04600
 C1273 C 0.24750 0.72888 0.03053
 C1274 C 0.22905 0.74772 -0.02958
 C1275 C 0.22166 0.74003 -0.04511
 C1276 C 0.22146 0.72104 -0.04757
 C1277 C 0.23012 0.71011 -0.03462
 C1278 C 0.23759 0.71782 -0.01916
 H1279 H 0.27444 0.73900 -0.02675
 H1280 H 0.28743 0.75173 -0.05421
 H1281 H 0.27073 0.80537 -0.03725
 H1282 H 0.25771 0.79245 -0.01004
 H1283 H 0.29244 0.75772 0.01120
 H1284 H 0.30534 0.77078 0.03834
 H1285 H 0.23902 0.77426 0.02807
 H1286 H 0.20904 0.74400 0.01017
 H1287 H 0.19541 0.73128 0.03714
 H1288 H 0.24860 0.71558 0.05603
 H1289 H 0.26206 0.72822 0.02875
 H1290 H 0.22843 0.76229 -0.02775
 H1291 H 0.21589 0.74899 -0.05512
 H1292 H 0.23133 0.69560 -0.03635
 H1293 H 0.24392 0.70906 -0.00929
 H1294 H 0.25174 0.78732 0.05547
 C1295 C 0.24585 0.24291 0.50030
 C1296 C 0.25864 0.25629 0.50010
 C1297 C 0.26660 0.26312 0.48300
 C1298 C 0.26527 0.26486 0.51695
 C1299 C 0.23872 0.23514 0.51736
 C1300 C 0.23787 0.23561 0.48348
 C1301 C 0.27431 0.25123 0.47036
 C1302 C 0.28147 0.25787 0.45423
 C1303 C 0.28109 0.27661 0.45038
 C1304 C 0.27423 0.28850 0.46359
 C1305 C 0.26694 0.28183 0.47960
 C1306 C 0.28394 0.26592 0.52019
 C1307 C 0.29041 0.27364 0.53605
 C1308 C 0.27838 0.28026 0.54925
 C1309 C 0.25964 0.27997 0.54552
 C1310 C 0.25319 0.27239 0.52952
 C1311 C 0.21994 0.23437 0.52020
 C1312 C 0.21296 0.22722 0.53613
 C1313 C 0.22456 0.22093 0.54980
 C1314 C 0.24340 0.22099 0.54654
 C1315 C 0.25038 0.22802 0.53049
 C1316 C 0.22939 0.24709 0.47102
 C1317 C 0.22128 0.23990 0.45563
 C1318 C 0.22091 0.22100 0.45267
 C1319 C 0.23006 0.20966 0.46492
 C1320 C 0.23819 0.21687 0.48027
 H1321 H 0.27485 0.23679 0.47303
 H1322 H 0.28752 0.24823 0.44508
 H1323 H 0.27437 0.30304 0.46145
 H1324 H 0.26141 0.29130 0.48932
 H1325 H 0.29353 0.26057 0.51049
 H1326 H 0.30493 0.27427 0.53812
 H1327 H 0.23874 0.27237 0.52695
 H1328 H 0.21066 0.23944 0.51010
 H1329 H 0.19838 0.22671 0.53782
 H1330 H 0.25288 0.21537 0.55608
 H1331 H 0.26490 0.22785 0.52827
 H1332 H 0.22897 0.26162 0.47326
 H1333 H 0.21523 0.24919 0.44610
 H1334 H 0.23113 0.19520 0.46269
 H1335 H 0.24488 0.20781 0.48964
 H1336 H 0.24984 0.28577 0.55465
 C1337 C 0.75523 0.74286 0.99908
 C1338 C 0.74212 0.75591 0.99908
 C1339 C 0.73498 0.76390 1.01603
 C1340 C 0.73444 0.76325 0.98212
 C1341 C 0.76299 0.73537 0.98218
 C1342 C 0.76276 0.73534 1.01601
 C1343 C 0.71633 0.76331 1.01957
 C1344 C 0.70924 0.77127 1.03510
 C1345 C 0.72058 0.78056 1.04722
 C1346 C 0.73942 0.78047 1.04392
 C1347 C 0.74650 0.77249 1.02836
 C1348 C 0.72679 0.75179 0.96912
 C1349 C 0.72009 0.75896 0.95304
 C1350 C 0.72095 0.77777 0.94959
 C1351 C 0.72769 0.78922 0.96318
 C1352 C 0.73449 0.78204 0.97916
 C1353 C 0.77120 0.74665 0.96935
 C1354 C 0.77899 0.73922 0.95386
 C1355 C 0.77934 0.72026 0.95114
 C1356 C 0.77045 0.70913 0.96377
 C1357 C 0.76262 0.71658 0.97921
 C1358 C 0.78151 0.73593 1.01895
 C1359 C 0.78900 0.72833 1.03443
 C1360 C 0.77793 0.71948 1.04714
 C1361 C 0.75901 0.71965 1.04446
 C1362 C 0.75153 0.72721 1.02892
 H1363 H 0.70725 0.75650 1.01033
 H1364 H 0.69484 0.77001 1.03758
 H1365 H 0.74876 0.78658 1.05333
 H1366 H 0.76097 0.77308 1.02589
 H1367 H 0.72598 0.73730 0.97145
 H1368 H 0.71398 0.74968 0.94359
 H1369 H 0.73996 0.79117 0.98919
 H1370 H 0.77166 0.76120 0.97138
 H1371 H 0.78486 0.74835 0.94406
 H1372 H 0.76938 0.69464 0.96179
 H1373 H 0.75612 0.70767 0.98884
 H1374 H 0.79037 0.74242 1.00925
 H1375 H 0.80346 0.72958 1.03639
 H1376 H 0.74993 0.71381 1.05433
 H1377 H 0.73700 0.72663 1.02692
 H1378 H 0.72776 0.80381 0.96142
 C1379 C 0.75732 0.24362 0.49898
 C1380 C 0.74375 0.25621 0.49889
 C1381 C 0.73635 0.26398 0.51579
 C1382 C 0.73581 0.26327 0.48190
 C1383 C 0.76535 0.23645 0.48208
 C1384 C 0.76475 0.23604 0.51597
 C1385 C 0.71767 0.26314 0.51915
 C1386 C 0.71036 0.27093 0.53466
 C1387 C 0.72152 0.28024 0.54693
 C1388 C 0.74038 0.28035 0.54382
 C1389 C 0.74767 0.27261 0.52827
 C1390 C 0.72853 0.25155 0.46891
 C1391 C 0.72150 0.25848 0.45284
 C1392 C 0.72163 0.27731 0.44940
 C1393 C 0.72802 0.28898 0.46298
 C1394 C 0.73514 0.28205 0.47893
 C1395 C 0.77270 0.24810 0.46904
 C1396 C 0.77980 0.24108 0.45304
 C1397 C 0.77970 0.22223 0.44975
 C1398 C 0.77324 0.21063 0.46338
 C1399 C 0.76602 0.21766 0.47926
 C1400 C 0.78346 0.23679 0.51916
 C1401 C 0.79085 0.22906 0.53464
 C1402 C 0.77974 0.21990 0.54711
 C1403 C 0.76085 0.21988 0.54418
 C1404 C 0.75348 0.22757 0.52864
 H1405 H 0.70876 0.25629 0.50979
 H1406 H 0.69596 0.26949 0.53700
 H1407 H 0.74956 0.28651 0.55336
 H1408 H 0.76215 0.27341 0.52592
 H1409 H 0.72826 0.23704 0.47123
 H1410 H 0.71574 0.24897 0.44341
 H1411 H 0.74032 0.29138 0.48895
 H1412 H 0.77295 0.26263 0.47128
 H1413 H 0.78560 0.25053 0.44356
 H1414 H 0.77367 0.19604 0.46169
 H1415 H 0.76079 0.20841 0.48932
 H1416 H 0.79236 0.24350 0.50965
 H1417 H 0.80527 0.23043 0.53680
 H1418 H 0.75171 0.21380 0.55384
 H1419 H 0.73899 0.22681 0.52644
 H1420 H 0.72759 0.30357 0.46120
 C1421 C 0.74358 0.24490 0.00028
 C1422 C 0.75624 0.25837 0.00048
 C1423 C 0.76430 0.26561 -0.01637
 C1424 C 0.76317 0.26626 0.01755
 C1425 C 0.73619 0.23689 0.01708
 C1426 C 0.73640 0.23717 -0.01675
 C1427 C 0.77322 0.25416 -0.02860
 C1428 C 0.78121 0.26131 -0.04411
 C1429 C 0.78099 0.28016 -0.04745
 C1430 C 0.77142 0.29143 -0.03541
 C1431 C 0.76343 0.28427 -0.01993
 C1432 C 0.78192 0.26702 0.02053
 C1433 C 0.78876 0.27414 0.03651
 C1434 C 0.77704 0.28043 0.05013
 C1435 C 0.75823 0.28041 0.04673
 C1436 C 0.75140 0.27341 0.03061
 C1437 C 0.71743 0.23704 0.02007
 C1438 C 0.71009 0.22890 0.03538
 C1439 C 0.72132 0.21989 0.04783
 C1440 C 0.74025 0.22048 0.04511
 C1441 C 0.74758 0.22863 0.02976
 C1442 C 0.72832 0.24823 -0.02982
 C1443 C 0.72094 0.24055 -0.04536
 C1444 C 0.72089 0.22156 -0.04788
 C1445 C 0.72972 0.21066 -0.03503
 C1446 C 0.73716 0.21837 -0.01956
 H1447 H 0.77404 0.23970 -0.02611
 H1448 H 0.78754 0.25202 -0.05347
 H1449 H 0.76995 0.30582 -0.03792
 H1450 H 0.75639 0.29328 -0.01076
 H1451 H 0.79130 0.26192 0.01050
 H1452 H 0.80332 0.27460 0.03831
 H1453 H 0.73691 0.27363 0.02830
 H1454 H 0.70845 0.24359 0.01055
 H1455 H 0.69560 0.22982 0.03742
 H1456 H 0.74945 0.21457 0.05480
 H1457 H 0.76212 0.22839 0.02771
 H1458 H 0.72756 0.26279 -0.02793
 H1459 H 0.71509 0.24950 -0.05532
 H1460 H 0.73105 0.19617 -0.03684
 H1461 H 0.74361 0.20962 -0.00975
 H1462 H 0.74867 0.28603 0.05622
 C1463 C 0.74262 0.74554 0.50100
 C1464 C 0.75569 0.75860 0.50073
 C1465 C 0.76291 0.76619 0.48365
 C1466 C 0.76377 0.76596 0.51747
 C1467 C 0.73525 0.73812 0.51811
 C1468 C 0.73526 0.73760 0.48419
 C1469 C 0.78159 0.76542 0.48025
 C1470 C 0.78882 0.77308 0.46465
 C1471 C 0.77760 0.78224 0.45230
 C1472 C 0.75873 0.78228 0.45544
 C1473 C 0.75150 0.77458 0.47108
 C1474 C 0.77235 0.75458 0.52995
 C1475 C 0.78036 0.76188 0.54535
 C1476 C 0.78052 0.78079 0.54831
 C1477 C 0.77128 0.79201 0.53601
 C1478 C 0.76326 0.78470 0.52066
 C1479 C 0.72776 0.74951 0.53131
 C1480 C 0.72111 0.74226 0.54740
 C1481 C 0.72186 0.72341 0.55068
 C1482 C 0.72853 0.71204 0.53695
 C1483 C 0.73526 0.71931 0.52096
 C1484 C 0.71654 0.73814 0.48103
 C1485 C 0.70926 0.73020 0.46561
 C1486 C 0.72048 0.72104 0.45323
 C1487 C 0.73937 0.72117 0.45618
 C1488 C 0.74664 0.72910 0.47163
 H1489 H 0.79058 0.75874 0.48966
 H1490 H 0.80322 0.77168 0.46230
 H1491 H 0.74949 0.78829 0.44585
 H1492 H 0.73702 0.77527 0.47342
 H1493 H 0.77289 0.74005 0.52774
 H1494 H 0.78646 0.75266 0.55492
 H1495 H 0.75647 0.79367 0.51128
 H1496 H 0.72696 0.76403 0.52909
 H1497 H 0.71509 0.75151 0.55696
 H1498 H 0.72856 0.69744 0.53860
 H1499 H 0.74062 0.71022 0.51080
 H1500 H 0.70758 0.74487 0.49047
 H1501 H 0.69482 0.73144 0.46342
 H1502 H 0.74859 0.71511 0.44657
 H1503 H 0.76114 0.72852 0.47384
 H1504 H 0.77007 0.80647 0.53822
 C1505 C 1.00066 0.25389 0.24062
 C1506 C 1.00038 0.24080 0.25356
 C1507 C 1.01729 0.23347 0.26158
 C1508 C 0.98312 0.23345 0.26091
 C1509 C 0.98376 0.26211 0.23349
 C1510 C 1.01791 0.26121 0.23321
 C1511 C 1.02049 0.21472 0.26132
 C1512 C 1.03596 0.20747 0.26941
 C1513 C 1.04836 0.21880 0.27842
 C1514 C 1.04539 0.23771 0.27799
 C1515 C 1.02987 0.24493 0.26996
 C1516 C 0.96978 0.22610 0.24963
 C1517 C 0.95358 0.21940 0.25684
 C1518 C 0.95037 0.21993 0.27554
 C1519 C 0.96422 0.22654 0.28677
 C1520 C 0.98030 0.23334 0.27955
 C1521 C 0.97137 0.27086 0.24490
 C1522 C 0.95586 0.27910 0.23784
 C1523 C 0.95271 0.27930 0.21914
 C1524 C 0.96491 0.26988 0.20790
 C1525 C 0.98038 0.26165 0.21497
 C1526 C 1.02081 0.28001 0.23317
 C1527 C 1.03687 0.28722 0.22632
 C1528 C 1.05064 0.27580 0.21962
 C1529 C 1.04733 0.25695 0.21901
 C1530 C 1.03114 0.24976 0.22575
 H1531 H 1.01102 0.20569 0.25472
 H1532 H 1.03815 0.19300 0.26841
 H1533 H 1.05501 0.24697 0.28399
 H1534 H 1.02763 0.25946 0.27036
 H1535 H 0.97196 0.22543 0.23524
 H1536 H 0.94390 0.21352 0.24767
 H1537 H 0.99055 0.23863 0.28854
 H1538 H 0.97375 0.27136 0.25925
 H1539 H 0.94636 0.28529 0.24709
 H1540 H 0.96252 0.26873 0.19361
 H1541 H 0.98970 0.25476 0.20599
 H1542 H 1.01063 0.28915 0.23855
 H1543 H 1.03856 0.30182 0.22630
 H1544 H 1.05694 0.24767 0.21303
 H1545 H 1.02888 0.23525 0.22504
 H1546 H 0.96258 0.22649 0.30124
 C1547 C 0.50087 0.25792 0.74296
 C1548 C 0.50085 0.24399 0.75504
 C1549 C 0.51792 0.23647 0.76258
 C1550 C 0.48376 0.23577 0.76184
 C1551 C 0.48377 0.26619 0.73624
 C1552 C 0.51796 0.26541 0.73539
 C1553 C 0.52119 0.21774 0.76170
 C1554 C 0.53663 0.21026 0.76962
 C1555 C 0.54895 0.22130 0.77908
 C1556 C 0.54599 0.24022 0.77917
 C1557 C 0.53049 0.24768 0.77130
 C1558 C 0.47058 0.22889 0.75008
 C1559 C 0.45444 0.22156 0.75680
 C1560 C 0.45118 0.22088 0.77548
 C1561 C 0.46491 0.22694 0.78714
 C1562 C 0.48091 0.23440 0.78043
 C1563 C 0.47064 0.27312 0.74809
 C1564 C 0.45445 0.28043 0.74148
 C1565 C 0.45109 0.28103 0.72282
 C1566 C 0.46480 0.27494 0.71106
 C1567 C 0.48085 0.26750 0.71768
 C1568 C 0.52121 0.28414 0.73625
 C1569 C 0.53672 0.29159 0.72841
 C1570 C 0.54914 0.28052 0.71904
 C1571 C 0.54618 0.26161 0.71892
 C1572 C 0.53061 0.25419 0.72672
 H1573 H 0.51175 0.20890 0.75482
 H1574 H 0.53886 0.19582 0.76823
 H1575 H 0.55557 0.24931 0.78547
 H1576 H 0.52822 0.26218 0.77218
 H1577 H 0.47281 0.22920 0.73569
 H1578 H 0.44483 0.21626 0.74723
 H1579 H 0.49104 0.23929 0.78977
 H1580 H 0.47292 0.27285 0.76247
 H1581 H 0.44488 0.28578 0.75110
 H1582 H 0.46298 0.27576 0.69664
 H1583 H 0.49094 0.26256 0.70828
 H1584 H 0.51172 0.29301 0.74311
 H1585 H 0.53893 0.30602 0.72983
 H1586 H 0.55583 0.25250 0.71267
 H1587 H 0.52836 0.23969 0.72585
 H1588 H 0.46316 0.22606 0.80158
 C1589 C -0.00067 0.24284 0.74312
 C1590 C -0.00066 0.25693 0.75504
 C1591 C -0.01774 0.26551 0.76156
 C1592 C 0.01643 0.26430 0.76269
 C1593 C 0.01645 0.23503 0.73582
 C1594 C -0.01781 0.23471 0.73631
 C1595 C -0.03078 0.27231 0.74958
 C1596 C -0.04692 0.27996 0.75604
 C1597 C -0.05029 0.28110 0.77468
 C1598 C -0.03668 0.27510 0.78655
 C1599 C -0.02071 0.26732 0.78009
 C1600 C 0.01994 0.28297 0.76163
 C1601 C 0.03543 0.29033 0.76955
 C1602 C 0.04757 0.27923 0.77920
 C1603 C 0.04437 0.26036 0.77951
 C1604 C 0.02882 0.25303 0.77164
 C1605 C 0.01945 0.21625 0.73680
 C1606 C 0.03502 0.20853 0.72927
 C1607 C 0.04780 0.21938 0.72015
 C1608 C 0.04506 0.23833 0.71992
 C1609 C 0.02943 0.24602 0.72736
 C1610 C -0.03117 0.22816 0.74809
 C1611 C -0.04739 0.22101 0.74139
 C1612 C -0.05056 0.22021 0.72271
 C1613 C -0.03664 0.22592 0.71104
 C1614 C -0.02055 0.23318 0.71774
 H1615 H -0.02848 0.27167 0.73521
 H1616 H -0.05645 0.28506 0.74629
 H1617 H -0.03855 0.27624 0.80095
 H1618 H -0.01070 0.26248 0.78961
 H1619 H 0.01066 0.29187 0.75457
 H1620 H 0.03785 0.30471 0.76801
 H1621 H 0.02638 0.23857 0.77266
 H1622 H 0.00972 0.20755 0.74350
 H1623 H 0.03698 0.19407 0.73078
 H1624 H 0.05494 0.24725 0.71377
 H1625 H 0.02738 0.26055 0.72637
 H1626 H -0.02905 0.22859 0.76249
 H1627 H -0.05714 0.21595 0.75099
 H1628 H -0.03830 0.22492 0.69661
 H1629 H -0.01028 0.23782 0.70838
 H1630 H 0.05381 0.25119 0.78595
 C1631 C 0.50002 0.24285 0.24110
 C1632 C 0.49994 0.25548 0.25448
 C1633 C 0.48285 0.26282 0.26217
 C1634 C 0.51692 0.26281 0.26233
 C1635 C 0.51719 0.23598 0.23307
 C1636 C 0.48296 0.23483 0.23405
 C1637 C 0.46988 0.27135 0.25129
 C1638 C 0.45443 0.27916 0.25899
 C1639 C 0.45191 0.27916 0.27779
 C1640 C 0.46459 0.26980 0.28849
 C1641 C 0.47999 0.26198 0.28079
 C1642 C 0.51992 0.28159 0.26220
 C1643 C 0.53529 0.28892 0.27034
 C1644 C 0.54779 0.27766 0.27935
 C1645 C 0.54507 0.25872 0.27875
 C1646 C 0.52967 0.25139 0.27056
 C1647 C 0.52029 0.21723 0.23221
 C1648 C 0.53639 0.21046 0.22495
 C1649 C 0.54999 0.22228 0.21863
 C1650 C 0.54643 0.24110 0.21877
 C1651 C 0.53020 0.24784 0.22590
 C1652 C 0.47070 0.22592 0.24546
 C1653 C 0.45506 0.21787 0.23848
 C1654 C 0.45160 0.21804 0.21983
 C1655 C 0.46365 0.22764 0.20860
 C1656 C 0.47927 0.23567 0.21559
 H1657 H 0.47182 0.27214 0.23688
 H1658 H 0.44453 0.28534 0.25017
 H1659 H 0.46269 0.26843 0.30284
 H1660 H 0.48973 0.25521 0.28938
 H1661 H 0.51035 0.29059 0.25567
 H1662 H 0.53733 0.30341 0.26941
 H1663 H 0.52761 0.23684 0.27078
 H1664 H 0.51029 0.20779 0.23734
 H1665 H 0.53829 0.19590 0.22440
 H1666 H 0.55589 0.25072 0.21313
 H1667 H 0.52777 0.26235 0.22577
 H1668 H 0.47329 0.22511 0.25977
 H1669 H 0.44570 0.21154 0.24776
 H1670 H 0.46104 0.22906 0.19437
 H1671 H 0.48845 0.24269 0.20660
 H1672 H 0.55480 0.24952 0.28470
 C1673 C 1.00073 0.75846 0.74354
 C1674 C 1.00070 0.74451 0.75558
 C1675 C 1.01775 0.73702 0.76315
 C1676 C 0.98360 0.73626 0.76231
 C1677 C 0.98365 0.76690 0.73699
 C1678 C 1.01783 0.76576 0.73585
 C1679 C 1.02104 0.71829 0.76230
 C1680 C 1.03644 0.71084 0.77031
 C1681 C 1.04867 0.72191 0.77984
 C1682 C 1.04570 0.74082 0.77990
 C1683 C 1.03026 0.74825 0.77192
 C1684 C 0.97048 0.72941 0.75047
 C1685 C 0.95433 0.72204 0.75711
 C1686 C 0.95101 0.72130 0.77577
 C1687 C 0.96470 0.72732 0.78751
 C1688 C 0.98071 0.73481 0.78088
 C1689 C 0.97056 0.77368 0.74896
 C1690 C 0.95433 0.78104 0.74251
 C1691 C 0.95093 0.78189 0.72387
 C1692 C 0.96460 0.77598 0.71199
 C1693 C 0.98068 0.76847 0.71846
 C1694 C 1.02139 0.78441 0.73684
 C1695 C 1.03694 0.79166 0.72890
 C1696 C 1.04905 0.78047 0.71927
 C1697 C 1.04578 0.76161 0.71903
 C1698 C 1.03020 0.75438 0.72696
 H1699 H 1.01164 0.70944 0.75536
 H1700 H 1.03870 0.69641 0.76893
 H1701 H 1.05525 0.74993 0.78623
 H1702 H 1.02796 0.76275 0.77277
 H1703 H 0.97276 0.72978 0.73609
 H1704 H 0.94477 0.71676 0.74748
 H1705 H 0.99080 0.73968 0.79027
 H1706 H 0.97288 0.77321 0.76333
 H1707 H 0.94477 0.78619 0.75224
 H1708 H 0.96271 0.77697 0.69759
 H1709 H 0.99073 0.76365 0.70895
 H1710 H 1.01213 0.79337 0.74388
 H1711 H 1.03943 0.80604 0.73040
 H1712 H 1.05521 0.75238 0.71263
 H1713 H 1.02770 0.73993 0.72604
 H1714 H 0.96289 0.72639 0.80194
 C1715 C 0.50056 0.75305 0.24071
 C1716 C 0.50044 0.74007 0.25378
 C1717 C 0.51745 0.73320 0.26208
 C1718 C 0.48326 0.73228 0.26086
 C1719 C 0.48355 0.76109 0.23350
 C1720 C 0.51775 0.76025 0.23309
 C1721 C 0.52109 0.71452 0.26203
 C1722 C 0.53659 0.70768 0.27041
 C1723 C 0.54858 0.71932 0.27959
 C1724 C 0.54519 0.73816 0.27897
 C1725 C 0.52967 0.74499 0.27056
 C1726 C 0.47018 0.72481 0.24935
 C1727 C 0.45397 0.71786 0.25629
 C1728 C 0.45053 0.71818 0.27494
 C1729 C 0.46416 0.72483 0.28641
 C1730 C 0.48023 0.73191 0.27947
 C1731 C 0.47086 0.76948 0.24487
 C1732 C 0.45528 0.77755 0.23775
 C1733 C 0.45232 0.77800 0.21902
 C1734 C 0.46480 0.76895 0.20779
 C1735 C 0.48034 0.76085 0.21493
 C1736 C 0.52064 0.77904 0.23260
 C1737 C 0.53667 0.78608 0.22551
 C1738 C 0.55040 0.77450 0.21898
 C1739 C 0.54708 0.75565 0.21881
 C1740 C 0.53094 0.74863 0.22580
 H1741 H 0.51193 0.70522 0.25535
 H1742 H 0.53914 0.69326 0.26955
 H1743 H 0.55450 0.74769 0.28504
 H1744 H 0.52712 0.75947 0.27076
 H1745 H 0.47255 0.72432 0.23499
 H1746 H 0.44446 0.71203 0.24693
 H1747 H 0.49027 0.73729 0.28864
 H1748 H 0.47307 0.76985 0.25926
 H1749 H 0.44559 0.78350 0.24697
 H1750 H 0.46261 0.76797 0.19346
 H1751 H 0.48986 0.75425 0.20595
 H1752 H 0.51050 0.78829 0.23784
 H1753 H 0.53840 0.80068 0.22519
 H1754 H 0.55665 0.74621 0.21301
 H1755 H 0.52867 0.73411 0.22542
 H1756 H 0.46229 0.72468 0.30086
 C1757 C -0.00081 0.74281 0.24195
 C1758 C -0.00069 0.75607 0.25474
 C1759 C -0.01770 0.76317 0.26285
 C1760 C 0.01647 0.76390 0.26180
 C1761 C 0.01621 0.73494 0.23456
 C1762 C -0.01797 0.73528 0.23462
 C1763 C -0.02130 0.78184 0.26229
 C1764 C -0.03672 0.78895 0.27064
 C1765 C -0.04863 0.77761 0.28030
 C1766 C -0.04530 0.75875 0.28019
 C1767 C -0.02987 0.75165 0.27178
 C1768 C 0.02963 0.77129 0.25028
 C1769 C 0.04579 0.77832 0.25723
 C1770 C 0.04910 0.77814 0.27590
 C1771 C 0.03539 0.77157 0.28736
 C1772 C 0.01938 0.76442 0.28041
 C1773 C 0.02911 0.72675 0.24578
 C1774 C 0.04479 0.71899 0.23847
 C1775 C 0.04766 0.71870 0.21972
 C1776 C 0.03492 0.72755 0.20865
 C1777 C 0.01928 0.73531 0.21596
 C1778 C -0.02091 0.71649 0.23511
 C1779 C -0.03650 0.70898 0.22753
 C1780 C -0.04934 0.72006 0.21880
 C1781 C -0.04668 0.73902 0.21908
 C1782 C -0.03103 0.74652 0.22664
 H1783 H -0.01217 0.79093 0.25526
 H1784 H -0.03926 0.80335 0.26939
 H1785 H -0.05458 0.74942 0.28661
 H1786 H -0.02733 0.73717 0.27238
 H1787 H 0.02736 0.77168 0.23590
 H1788 H 0.05535 0.78412 0.24787
 H1789 H 0.00926 0.75913 0.28959
 H1790 H 0.02701 0.72633 0.26019
 H1791 H 0.05466 0.71320 0.24757
 H1792 H 0.03702 0.72867 0.19430
 H1793 H 0.00961 0.74181 0.20710
 H1794 H -0.01112 0.70761 0.24148
 H1795 H -0.03843 0.69449 0.22870
 H1796 H -0.05662 0.74810 0.21328
 H1797 H -0.02904 0.76107 0.22610
 H1798 H 0.03713 0.77187 0.30181
 C1799 C 0.49919 0.74386 0.74363
 C1800 C 0.49917 0.75769 0.75581
 C1801 C 0.48210 0.76611 0.76246
 C1802 C 0.51624 0.76492 0.76357
 C1803 C 0.51630 0.73641 0.73604
 C1804 C 0.48211 0.73568 0.73681
 C1805 C 0.46908 0.77309 0.75057
 C1806 C 0.45296 0.78066 0.75713
 C1807 C 0.44958 0.78151 0.77578
 C1808 C 0.46317 0.77531 0.78758
 C1809 C 0.47914 0.76762 0.78102
 C1810 C 0.51982 0.78358 0.76265
 C1811 C 0.53525 0.79081 0.77076
 C1812 C 0.54721 0.77960 0.78051
 C1813 C 0.54395 0.76074 0.78067
 C1814 C 0.52849 0.75353 0.77254
 C1815 C 0.51964 0.71771 0.73691
 C1816 C 0.53513 0.71030 0.72894
 C1817 C 0.54738 0.72140 0.71942
 C1818 C 0.54433 0.74030 0.71932
 C1819 C 0.52882 0.74769 0.72729
 C1820 C 0.46890 0.72879 0.74857
 C1821 C 0.45278 0.72148 0.74186
 C1822 C 0.44955 0.72085 0.72318
 C1823 C 0.46332 0.72692 0.71151
 C1824 C 0.47931 0.73435 0.71823
 H1825 H 0.47140 0.77267 0.73620
 H1826 H 0.44345 0.78595 0.74745
 H1827 H 0.46129 0.77623 0.80200
 H1828 H 0.48914 0.76264 0.79046
 H1829 H 0.51063 0.79256 0.75556
 H1830 H 0.53776 0.80519 0.76930
 H1831 H 0.52598 0.73907 0.77341
 H1832 H 0.51025 0.70882 0.74384
 H1833 H 0.53744 0.69588 0.73036
 H1834 H 0.55388 0.74943 0.71299
 H1835 H 0.52648 0.76218 0.72645
 H1836 H 0.47110 0.72906 0.76296
 H1837 H 0.44317 0.71613 0.75143
 H1838 H 0.46161 0.72605 0.69708
 H1839 H 0.48947 0.73925 0.70888
 H1840 H 0.55329 0.75151 0.78715
 C1841 C 0.40608 0.30259 0.30010
 C1842 C 0.41335 0.31276 0.28349
 C1843 C 0.42863 0.30531 0.27633
 C1844 C 0.43529 0.28814 0.28618
 C1845 C 0.43752 0.29459 0.30582
 C1846 C 0.42224 0.30199 0.31305
 C1847 C 0.40361 0.28291 0.29377
 C1848 C 0.41883 0.27540 0.28653
 H1849 H 0.40765 0.32519 0.27814
 H1850 H 0.43577 0.31170 0.26525
 H1851 H 0.45023 0.29454 0.31313
 H1852 H 0.42196 0.30775 0.32649
 H1853 H 0.39093 0.27552 0.29485
 H1854 H 0.41912 0.26158 0.28145
 C1855 C 0.40333 0.80233 0.79973
 C1856 C 0.42039 0.81404 0.80199
 C1857 C 0.43535 0.80718 0.79370
 C1858 C 0.43213 0.78916 0.78378
 C1859 C 0.42380 0.77647 0.79801
 C1860 C 0.40890 0.78329 0.80638
 C1861 C 0.40119 0.80000 0.77929
 C1862 C 0.41615 0.79312 0.77093
 H1863 H 0.42068 0.82671 0.80945
 H1864 H 0.44836 0.81405 0.79405
 H1865 H 0.42883 0.76290 0.80080
 H1866 H 0.40143 0.77528 0.81610
 H1867 H 0.38868 0.80276 0.77210
 H1868 H 0.41585 0.78984 0.75675
 C1869 C -0.09661 0.30207 0.79842
 C1870 C -0.07961 0.31384 0.80058
 C1871 C -0.06461 0.30695 0.79236
 C1872 C -0.06778 0.28882 0.78260
 C1873 C -0.07608 0.27625 0.79695
 C1874 C -0.09100 0.28314 0.80526
 C1875 C -0.09876 0.29958 0.77803
 C1876 C -0.08377 0.29265 0.76971
 H1877 H -0.07941 0.32658 0.80791
 H1878 H -0.05163 0.31387 0.79264
 H1879 H -0.07097 0.26276 0.79996
 H1880 H -0.09839 0.27534 0.81520
 H1881 H -0.11125 0.30237 0.77084
 H1882 H -0.08403 0.28934 0.75554
 C1883 C -0.09505 0.79836 0.30400
 C1884 C -0.07930 0.81196 0.30342
 C1885 C -0.06383 0.80519 0.29598
 C1886 C -0.06546 0.78535 0.28947
 C1887 C -0.07176 0.77507 0.30644
 C1888 C -0.08725 0.78178 0.31395
 C1889 C -0.09738 0.79201 0.28448
 C1890 C -0.08199 0.78526 0.27693
 H1891 H -0.07998 0.82549 0.30917
 H1892 H -0.05136 0.81298 0.29587
 H1893 H -0.06426 0.76406 0.31265
 H1894 H -0.09281 0.77616 0.32624
 H1895 H -0.11013 0.79271 0.27723
 H1896 H -0.08160 0.78022 0.26321
 C1897 C 0.59516 0.69948 0.30369
 C1898 C 0.57953 0.68574 0.30343
 C1899 C 0.56402 0.69219 0.29584
 C1900 C 0.56548 0.71189 0.28886
 C1901 C 0.57163 0.72262 0.30558
 C1902 C 0.58714 0.71624 0.31324
 C1903 C 0.59750 0.70538 0.28403
 C1904 C 0.58206 0.71183 0.27632
 H1905 H 0.58031 0.67236 0.30950
 H1906 H 0.55163 0.68428 0.29594
 H1907 H 0.56400 0.73371 0.31153
 H1908 H 0.59257 0.72223 0.32539
 H1909 H 0.61028 0.70463 0.27680
 H1910 H 0.58168 0.71656 0.26250
 C1911 C 0.59503 0.20001 0.80275
 C1912 C 0.57931 0.18641 0.80181
 C1913 C 0.56394 0.19327 0.79430
 C1914 C 0.56564 0.21322 0.78812
 C1915 C 0.57166 0.22322 0.80530
 C1916 C 0.58702 0.21644 0.81285
 C1917 C 0.59765 0.20663 0.78335
 C1918 C 0.58234 0.21352 0.77574
 H1919 H 0.57993 0.17280 0.80740
 H1920 H 0.55148 0.18548 0.79399
 H1921 H 0.56401 0.23406 0.81165
 H1922 H 0.59224 0.22185 0.82535
 H1923 H 0.61048 0.20599 0.77621
 H1924 H 0.58213 0.21874 0.76209
 C1925 C 1.09473 0.70076 0.80359
 C1926 C 1.07907 0.68709 0.80257
 C1927 C 1.06369 0.69391 0.79505
 C1928 C 1.06534 0.71389 0.78893
 C1929 C 1.07128 0.72386 0.80616
 C1930 C 1.08665 0.71712 0.81373
 C1931 C 1.09737 0.70745 0.78423
 C1932 C 1.08206 0.71429 0.77660
 H1933 H 1.07972 0.67347 0.80813
 H1934 H 1.05126 0.68607 0.79470
 H1935 H 1.06358 0.73468 0.81250
 H1936 H 1.09186 0.72253 0.82624
 H1937 H 1.11022 0.70689 0.77711
 H1938 H 1.08186 0.71954 0.76296
 C1939 C 1.09483 0.19864 0.30231
 C1940 C 1.09735 0.20521 0.28289
 C1941 C 1.08191 0.21170 0.27520
 C1942 C 1.06518 0.21107 0.28752
 C1943 C 1.06393 0.19111 0.29380
 C1944 C 1.07943 0.18466 0.30140
 C1945 C 1.08640 0.21493 0.31230
 C1946 C 1.07091 0.22130 0.30467
 H1947 H 1.11022 0.20482 0.27579
 H1948 H 1.08162 0.21683 0.26152
 H1949 H 1.05165 0.18304 0.29357
 H1950 H 1.08034 0.17111 0.30709
 H1951 H 1.09147 0.22057 0.32476
 H1952 H 1.06301 0.23205 0.31088
 C1953 C 0.59561 0.30155 0.69575
 C1954 C 0.59801 0.29466 0.71507
 C1955 C 0.58259 0.28788 0.72255
 C1956 C 0.56598 0.28853 0.71014
 C1957 C 0.56452 0.30858 0.70418
 C1958 C 0.58002 0.31534 0.69680
 C1959 C 0.58751 0.28534 0.68543
 C1960 C 0.57203 0.27866 0.69286
 H1961 H 0.61080 0.29507 0.72227
 H1962 H 0.58223 0.28252 0.73615
 H1963 H 0.55214 0.31652 0.70453
 H1964 H 0.58080 0.32900 0.69137
 H1965 H 0.59283 0.27996 0.67294
 H1966 H 0.56436 0.26792 0.68642
 C1967 C 0.59636 0.79871 0.19798
 C1968 C 0.57950 0.79997 0.18600
 C1969 C 0.56460 0.79170 0.19301
 C1970 C 0.56774 0.78280 0.21144
 C1971 C 0.58410 0.76998 0.20858
 C1972 C 0.59896 0.77833 0.20149
 C1973 C 0.59031 0.80644 0.21627
 C1974 C 0.57549 0.79807 0.22331
 H1975 H 0.57929 0.80683 0.17308
 H1976 H 0.55169 0.79146 0.18603
 H1977 H 0.58470 0.75595 0.21289
 H1978 H 0.61172 0.77125 0.19947
 H1979 H 0.59731 0.81705 0.22357
 H1980 H 0.57015 0.80161 0.23647
 C1981 C 1.09649 0.30026 0.19865
 C1982 C 1.07967 0.30122 0.18658
 C1983 C 1.06482 0.29290 0.19361
 C1984 C 1.06794 0.28425 0.21216
 C1985 C 1.08442 0.27156 0.20954
 C1986 C 1.09924 0.27995 0.20243
 C1987 C 1.09028 0.30817 0.21681
 C1988 C 1.07549 0.29974 0.22389
 H1989 H 1.07945 0.30794 0.17359
 H1990 H 1.05194 0.29247 0.18658
 H1991 H 1.08510 0.25758 0.21404
 H1992 H 1.11208 0.27296 0.20056
 H1993 H 1.09716 0.31895 0.22397
 H1994 H 1.07008 0.30338 0.23698
 C1995 C 1.09548 0.80143 0.69593
 C1996 C 1.09782 0.79488 0.71538
 C1997 C 1.08241 0.78806 0.72286
 C1998 C 1.06589 0.78834 0.71030
 C1999 C 1.06427 0.80826 0.70402
 C2000 C 1.07974 0.81507 0.69665
 C2001 C 1.08765 0.78497 0.68581
 C2002 C 1.07217 0.77825 0.69322
 H2003 H 1.11056 0.79548 0.72264
 H2004 H 1.08201 0.78287 0.73651
 H2005 H 1.05180 0.81609 0.70422
 H2006 H 1.08043 0.82866 0.69105
 H2007 H 1.09311 0.77950 0.67340
 H2008 H 1.06462 0.76740 0.68683
 C2009 C 0.40356 0.69972 0.69931
 C2010 C 0.42050 0.68769 0.69784
 C2011 C 0.43538 0.69470 0.70605
 C2012 C 0.43218 0.71320 0.71510
 C2013 C 0.42426 0.72534 0.70016
 C2014 C 0.40945 0.71829 0.69185
 C2015 C 0.40105 0.70299 0.71956
 C2016 C 0.41591 0.71007 0.72785
 H2017 H 0.42075 0.67470 0.69094
 H2018 H 0.44832 0.68766 0.70619
 H2019 H 0.42956 0.73865 0.69675
 H2020 H 0.40234 0.72571 0.68144
 H2021 H 0.38837 0.70071 0.72664
 H2022 H 0.41537 0.71407 0.74185
 C2023 C 0.40481 0.19520 0.19908
 C2024 C 0.41209 0.18523 0.21579
 C2025 C 0.42766 0.19244 0.22250
 C2026 C 0.43459 0.20920 0.21213
 C2027 C 0.43635 0.20225 0.19262
 C2028 C 0.42079 0.19509 0.18583
 C2029 C 0.40291 0.21507 0.20501
 C2030 C 0.41841 0.22236 0.21179
 H2031 H 0.40613 0.17310 0.22152
 H2032 H 0.43481 0.18608 0.23357
 H2033 H 0.44893 0.20195 0.18506
 H2034 H 0.42016 0.18912 0.17250
 H2035 H 0.39038 0.22276 0.20402
 H2036 H 0.41909 0.23627 0.21656
 C2037 C -0.09593 0.69907 0.19581
 C2038 C -0.08783 0.71528 0.18546
 C2039 C -0.07232 0.72193 0.19281
 C2040 C -0.06623 0.71203 0.21003
 C2041 C -0.08282 0.71270 0.22255
 C2042 C -0.09827 0.70594 0.21515
 C2043 C -0.08036 0.68526 0.19675
 C2044 C -0.06483 0.69198 0.20405
 H2045 H -0.09320 0.72070 0.17302
 H2046 H -0.06466 0.73271 0.18639
 H2047 H -0.08241 0.71808 0.23614
 H2048 H -0.11105 0.70558 0.22241
 H2049 H -0.08117 0.67162 0.19129
 H2050 H -0.05247 0.68401 0.20423
 C2051 C -0.09684 0.19955 0.69886
 C2052 C -0.09065 0.21798 0.69129
 C2053 C -0.07574 0.22488 0.69958
 C2054 C -0.06805 0.21275 0.71463
 C2055 C -0.08440 0.20994 0.72736
 C2056 C -0.09935 0.20302 0.71909
 C2057 C -0.08007 0.18728 0.69753
 C2058 C -0.06510 0.19414 0.70572
 H2059 H -0.09762 0.22542 0.68079
 H2060 H -0.07024 0.23808 0.69607
 H2061 H -0.08491 0.21404 0.74133
 H2062 H -0.11207 0.20096 0.72615
 H2063 H -0.07999 0.17424 0.69072
 H2064 H -0.05227 0.18690 0.70594
 C2065 C 0.30093 0.40398 0.30074
 C2066 C 0.28238 0.40993 0.30821
 C2067 C 0.27544 0.42488 0.29998
 C2068 C 0.28766 0.43282 0.28511
 C2069 C 0.30611 0.43584 0.29421
 C2070 C 0.31302 0.42083 0.30234
 C2071 C 0.29772 0.40163 0.28047
 C2072 C 0.29075 0.41662 0.27226
 H2073 H 0.27488 0.40276 0.31853
 H2074 H 0.26214 0.43022 0.30336
 H2075 H 0.31321 0.44875 0.29417
 H2076 H 0.32595 0.42093 0.30928
 H2077 H 0.29993 0.38896 0.27333
 H2078 H 0.28674 0.41620 0.25827
 C2079 C 0.30043 -0.09574 0.80222
 C2080 C 0.31232 -0.07874 0.80404
 C2081 C 0.30532 -0.06372 0.79596
 C2082 C 0.28698 -0.06683 0.78666
 C2083 C 0.29036 -0.08291 0.77373
 C2084 C 0.29739 -0.09792 0.78187
 C2085 C 0.28171 -0.08999 0.80953
 C2086 C 0.27472 -0.07503 0.80135
 H2087 H 0.32519 -0.07851 0.81110
 H2088 H 0.31228 -0.05074 0.79610
 H2089 H 0.28651 -0.08325 0.75970
 H2090 H 0.29975 -0.11049 0.77461
 H2091 H 0.27405 -0.09734 0.81962
 H2092 H 0.26131 -0.06987 0.80462
 C2093 C 0.80018 0.40540 0.80427
 C2094 C 0.81380 0.42115 0.80334
 C2095 C 0.80697 0.43661 0.79593
 C2096 C 0.78702 0.43502 0.78984
 C2097 C 0.78661 0.41839 0.77738
 C2098 C 0.79346 0.40298 0.78487
 C2099 C 0.78380 0.41343 0.81449
 C2100 C 0.77706 0.42889 0.80703
 H2101 H 0.82740 0.42052 0.80888
 H2102 H 0.81479 0.44906 0.79571
 H2103 H 0.78134 0.41872 0.76377
 H2104 H 0.79397 0.39018 0.77763
 H2105 H 0.77832 0.40816 0.82696
 H2106 H 0.76621 0.43651 0.81339
 C2107 C 0.80472 -0.09616 0.29934
 C2108 C 0.80491 -0.08002 0.31243
 C2109 C 0.79779 -0.06448 0.30550
 C2110 C 0.79083 -0.06638 0.28603
 C2111 C 0.80755 -0.07348 0.27569
 C2112 C 0.81473 -0.08905 0.28252
 C2113 C 0.78485 -0.09798 0.29344
 C2114 C 0.77764 -0.08248 0.28654
 H2115 H 0.81092 -0.08052 0.32575
 H2116 H 0.79816 -0.05181 0.31292
 H2117 H 0.81394 -0.06638 0.26458
 H2118 H 0.82689 -0.09501 0.27684
 H2119 H 0.77711 -0.11047 0.29448
 H2120 H 0.76376 -0.08176 0.28177
 C2121 C 0.30262 0.59412 0.69974
 C2122 C 0.31267 0.58687 0.71641
 C2123 C 0.30520 0.57159 0.72354
 C2124 C 0.28814 0.56489 0.71359
 C2125 C 0.27538 0.58138 0.71316
 C2126 C 0.28291 0.59660 0.70596
 C2127 C 0.30215 0.57791 0.68679
 C2128 C 0.29474 0.56263 0.69399
 H2129 H 0.32504 0.59258 0.72181
 H2130 H 0.31156 0.56444 0.73462
 H2131 H 0.26155 0.58111 0.71817
 H2132 H 0.27552 0.60931 0.70486
 H2133 H 0.30795 0.57817 0.67336
 H2134 H 0.29468 0.54989 0.68667
 C2135 C 0.29854 1.09385 0.19742
 C2136 C 0.28245 1.08603 0.18678
 C2137 C 0.27510 1.07086 0.19420
 C2138 C 0.28430 1.06480 0.21183
 C2139 C 0.30442 1.06270 0.20647
 C2140 C 0.31184 1.07788 0.19905
 C2141 C 0.29119 1.09677 0.21651
 C2142 C 0.28378 1.08165 0.22402
 H2143 H 0.27795 1.09096 0.17381
 H2144 H 0.26489 1.06318 0.18704
 H2145 H 0.31205 1.05017 0.20789
 H2146 H 0.32576 1.07830 0.19431
 H2147 H 0.29172 1.10969 0.22352
 H2148 H 0.27796 1.08168 0.23744
 C2149 C 0.80031 0.59467 0.19780
 C2150 C 0.79323 0.59728 0.21704
 C2151 C 0.78635 0.58191 0.22458
 C2152 C 0.78716 0.56514 0.21231
 C2153 C 0.77752 0.57100 0.19489
 C2154 C 0.78425 0.58641 0.18741
 C2155 C 0.81409 0.57909 0.19911
 C2156 C 0.80727 0.56364 0.20657
 H2157 H 0.79359 0.61015 0.22414
 H2158 H 0.78088 0.58167 0.23814
 H2159 H 0.76687 0.56322 0.18843
 H2160 H 0.77904 0.59149 0.17476
 H2161 H 0.82778 0.57983 0.19376
 H2162 H 0.81522 0.55127 0.20700
 C2163 C 0.80118 1.09443 0.69787
 C2164 C 0.78502 1.08602 0.68777
 C2165 C 0.77848 1.07062 0.69548
 C2166 C 0.78842 1.06496 0.71281
 C2167 C 0.80844 1.06353 0.70680
 C2168 C 0.81506 1.07894 0.69913
 C2169 C 0.79434 1.09717 0.71718
 C2170 C 0.78768 1.08183 0.72495
 H2171 H 0.77958 1.09105 0.67520
 H2172 H 0.76777 1.06275 0.68924
 H2173 H 0.81646 1.05120 0.70725
 H2174 H 0.82867 1.07971 0.69360
 H2175 H 0.79468 1.11012 0.72415
 H2176 H 0.78236 1.08169 0.73857
 C2177 C 0.69871 0.59516 0.30322
 C2178 C 0.71467 0.58676 0.31368
 C2179 C 0.72118 0.57116 0.30635
 C2180 C 0.71143 0.56528 0.28901
 C2181 C 0.69132 0.56416 0.29478
 C2182 C 0.68472 0.57979 0.30209
 C2183 C 0.70580 0.59746 0.28395
 C2184 C 0.71245 0.58190 0.27656
 H2185 H 0.71997 0.59192 0.32625
 H2186 H 0.73172 0.56328 0.31289
 H2187 H 0.68321 0.55190 0.29447
 H2188 H 0.67105 0.58080 0.30743
 H2189 H 0.70564 0.61027 0.27673
 H2190 H 0.71793 0.58144 0.26301
 C2191 C 0.69938 1.09756 0.80161
 C2192 C 0.69824 1.08074 0.81376
 C2193 C 0.70636 1.06573 0.80677
 C2194 C 0.71503 1.06865 0.78820
 C2195 C 0.69965 1.07641 0.77647
 C2196 C 0.69142 1.09137 0.78346
 C2197 C 0.71973 1.09998 0.79773
 C2198 C 0.72791 1.08497 0.79069
 H2199 H 0.69155 1.08062 0.82677
 H2200 H 0.70664 1.05285 0.81388
 H2201 H 0.69600 1.07103 0.76338
 H2202 H 0.68085 1.09843 0.77613
 H2203 H 0.72691 1.11272 0.79945
 H2204 H 0.74187 1.08542 0.78615
 C2205 C 0.19635 0.59524 0.80210
 C2206 C 0.18589 0.58773 0.78580
 C2207 C 0.19300 0.57214 0.77894
 C2208 C 0.21014 0.56540 0.78874
 C2209 C 0.22314 0.58167 0.78852
 C2210 C 0.21598 0.59720 0.79548
 C2211 C 0.19682 0.57935 0.81545
 C2212 C 0.20388 0.56375 0.80851
 H2213 H 0.17348 0.59349 0.78050
 H2214 H 0.18634 0.56481 0.76815
 H2215 H 0.23688 0.58102 0.78329
 H2216 H 0.22358 0.60979 0.79615
 H2217 H 0.19125 0.58005 0.82895
 H2218 H 0.20386 0.55121 0.81614
 C2219 C 0.19938 1.09530 0.30446
 C2220 C 0.18559 1.07973 0.30335
 C2221 C 0.19241 1.06417 0.29612
 C2222 C 0.21249 1.06551 0.29038
 C2223 C 0.21332 1.08209 0.27786
 C2224 C 0.20649 1.09760 0.28519
 C2225 C 0.21542 1.08717 0.31499
 C2226 C 0.22215 1.07160 0.30774
 H2227 H 0.17182 1.08065 0.30848
 H2228 H 0.18443 1.05182 0.29544
 H2229 H 0.21887 1.08165 0.26434
 H2230 H 0.20621 1.11038 0.27793
 H2231 H 0.22046 1.09236 0.32765
 H2232 H 0.23251 1.06378 0.31459
 C2233 C 0.69924 0.40585 0.69725
 C2234 C 0.70619 0.40328 0.71652
 C2235 C 0.71291 0.41869 0.72409
 C2236 C 0.71212 0.43545 0.71180
 C2237 C 0.72195 0.42963 0.69445
 C2238 C 0.71536 0.41417 0.68693
 C2239 C 0.68538 0.42135 0.69849
 C2240 C 0.69206 0.43684 0.70596
 H2241 H 0.70586 0.39041 0.72362
 H2242 H 0.71829 0.41896 0.73766
 H2243 H 0.73266 0.43742 0.68806
 H2244 H 0.72076 0.40904 0.67437
 H2245 H 0.67174 0.42055 0.69306
 H2246 H 0.68406 0.44919 0.70633
 C2247 C 0.69711 -0.09522 0.19984
 C2248 C 0.69722 -0.07906 0.18681
 C2249 C 0.70450 -0.06366 0.19385
 C2250 C 0.71132 -0.06577 0.21335
 C2251 C 0.69444 -0.07264 0.22357
 C2252 C 0.68711 -0.08806 0.21660
 C2253 C 0.71690 -0.09742 0.20581
 C2254 C 0.72429 -0.08209 0.21283
 H2255 H 0.69130 -0.07945 0.17346
 H2256 H 0.70433 -0.05095 0.18648
 H2257 H 0.68808 -0.06551 0.23468
 H2258 H 0.67486 -0.09392 0.22216
 H2259 H 0.72444 -0.11004 0.20467
 H2260 H 0.73817 -0.08161 0.21767
 C2261 C 0.19974 0.40411 0.20055
 C2262 C 0.20273 0.40167 0.22084
 C2263 C 0.20967 0.41660 0.22917
 C2264 C 0.21297 0.43283 0.21641
 C2265 C 0.22530 0.42486 0.20165
 C2266 C 0.21839 0.40999 0.19330
 C2267 C 0.18772 0.42104 0.19890
 C2268 C 0.19461 0.43598 0.20714
 H2269 H 0.20037 0.38899 0.22791
 H2270 H 0.21347 0.41612 0.24322
 H2271 H 0.23866 0.43013 0.19841
 H2272 H 0.22601 0.40280 0.18306
 H2273 H 0.17485 0.42124 0.19185
 H2274 H 0.18756 0.44893 0.20717
 C2275 C 0.19936 -0.09546 0.70104
 C2276 C 0.20197 -0.09793 0.72138
 C2277 C 0.20876 -0.08302 0.72987
 C2278 C 0.21230 -0.06676 0.71720
 C2279 C 0.22490 -0.07471 0.70265
 C2280 C 0.21815 -0.08957 0.69416
 C2281 C 0.18739 -0.07853 0.69919
 C2282 C 0.19413 -0.06359 0.70759
 H2283 H 0.19945 -0.11061 0.72839
 H2284 H 0.21229 -0.08353 0.74398
 H2285 H 0.23830 -0.06942 0.69963
 H2286 H 0.22595 -0.09672 0.68403
 H2287 H 0.17465 -0.07831 0.69190
 H2288 H 0.18708 -0.05064 0.70750
 C2289 C 0.30203 0.29982 0.40415
 C2290 C 0.31403 0.30176 0.42086
 C2291 C 0.30706 0.29381 0.43585
 C2292 C 0.28865 0.28450 0.43296
 C2293 C 0.27643 0.29932 0.42478
 C2294 C 0.28342 0.30738 0.40987
 C2295 C 0.29888 0.27931 0.40217
 C2296 C 0.29184 0.27127 0.41713
 H2297 H 0.32695 0.30881 0.42089
 H2298 H 0.31408 0.29403 0.44867
 H2299 H 0.26305 0.30274 0.42989
 H2300 H 0.27585 0.31759 0.40253
 H2301 H 0.30111 0.27191 0.38974
 H2302 H 0.28778 0.25715 0.41695
 C2303 C 0.30380 0.80110 -0.09397
 C2304 C 0.28412 0.79465 -0.09588
 C2305 C 0.27691 0.78773 -0.08047
 C2306 C 0.28995 0.78783 -0.06438
 C2307 C 0.30699 0.77772 -0.07107
 C2308 C 0.31413 0.78453 -0.08653
 C2309 C 0.30347 0.81462 -0.07826
 C2310 C 0.29638 0.80772 -0.06280
 H2311 H 0.27650 0.79539 -0.10833
 H2312 H 0.26313 0.78261 -0.07979
 H2313 H 0.31351 0.76671 -0.06385
 H2314 H 0.32643 0.77896 -0.09229
 H2315 H 0.30915 0.82819 -0.07899
 H2316 H 0.29652 0.81545 -0.05039
 C2317 C 0.80371 0.30095 -0.09400
 C2318 C 0.78400 0.29458 -0.09589
 C2319 C 0.77674 0.28781 -0.08045
 C2320 C 0.78976 0.28795 -0.06435
 C2321 C 0.80677 0.27771 -0.07096
 C2322 C 0.81396 0.28439 -0.08647
 C2323 C 0.80343 0.31457 -0.07838
 C2324 C 0.79629 0.30781 -0.06288
 H2325 H 0.77639 0.29527 -0.10835
 H2326 H 0.76294 0.28276 -0.07975
 H2327 H 0.81329 0.26677 -0.06364
 H2328 H 0.82628 0.27880 -0.09218
 H2329 H 0.80915 0.32812 -0.07919
 H2330 H 0.79638 0.31562 -0.05052
 C2331 C 0.79875 0.80429 0.40557
 C2332 C 0.81220 0.80426 0.42128
 C2333 C 0.80532 0.79735 0.43683
 C2334 C 0.78550 0.79077 0.43532
 C2335 C 0.77531 0.80768 0.42840
 C2336 C 0.78213 0.81466 0.41284
 C2337 C 0.79239 0.78453 0.40390
 C2338 C 0.78550 0.77749 0.41939
 H2339 H 0.82573 0.81000 0.42050
 H2340 H 0.81301 0.79771 0.44924
 H2341 H 0.76426 0.81425 0.43553
 H2342 H 0.77654 0.82685 0.40686
 H2343 H 0.79315 0.77674 0.39153
 H2344 H 0.78042 0.76369 0.42023
 C2345 C 0.70073 0.30302 0.59342
 C2346 C 0.68699 0.30247 0.57795
 C2347 C 0.69370 0.29527 0.56245
 C2348 C 0.71364 0.28898 0.56379
 C2349 C 0.72368 0.30617 0.57011
 C2350 C 0.71706 0.31341 0.58561
 C2351 C 0.70737 0.28338 0.59544
 C2352 C 0.71410 0.27607 0.58001
 H2353 H 0.67340 0.30809 0.57884
 H2354 H 0.68579 0.29525 0.55017
 H2355 H 0.73446 0.31274 0.56261
 H2356 H 0.72255 0.32585 0.59111
 H2357 H 0.70686 0.27586 0.60798
 H2358 H 0.71931 0.26229 0.57938
 C2359 C 0.69983 0.80345 1.09376
 C2360 C 0.68636 0.80349 1.07806
 C2361 C 0.69312 0.79630 1.06258
 C2362 C 0.71284 0.78940 1.06413
 C2363 C 0.72328 0.80620 1.07087
 C2364 C 0.71659 0.81344 1.08636
 C2365 C 0.70588 0.78359 1.09562
 C2366 C 0.71264 0.77628 1.08020
 H2367 H 0.67290 0.80945 1.07882
 H2368 H 0.68541 0.79661 1.05018
 H2369 H 0.73440 0.81253 1.06365
 H2370 H 0.72238 0.82560 1.09219
 H2371 H 0.70499 0.77593 1.10806
 H2372 H 0.71749 0.76237 1.07949
 C2373 C 0.19990 0.30324 1.09426
 C2374 C 0.21653 0.31342 1.08679
 C2375 C 0.22339 0.30611 1.07142
 C2376 C 0.21326 0.28907 1.06486
 C2377 C 0.21321 0.27613 1.08107
 C2378 C 0.20625 0.28351 1.09637
 C2379 C 0.18648 0.30289 1.07851
 C2380 C 0.19343 0.29562 1.06313
 H2381 H 0.22207 0.32578 1.09241
 H2382 H 0.23441 0.31255 1.06416
 H2383 H 0.21824 0.26229 1.08052
 H2384 H 0.20537 0.27597 1.10889
 H2385 H 0.17295 0.30866 1.07914
 H2386 H 0.18578 0.29569 1.05070
 C2387 C 0.20072 0.80422 0.59402
 C2388 C 0.18715 0.80428 0.57839
 C2389 C 0.19378 0.79698 0.56291
 C2390 C 0.21346 0.78996 0.56441
 C2391 C 0.22405 0.80673 0.57100
 C2392 C 0.21750 0.81409 0.58649
 C2393 C 0.20666 0.78434 0.59595
 C2394 C 0.21329 0.77692 0.58053
 H2395 H 0.17376 0.81038 0.57918
 H2396 H 0.18602 0.79738 0.55055
 H2397 H 0.23521 0.81290 0.56371
 H2398 H 0.22339 0.82623 0.59226
 H2399 H 0.20578 0.77675 0.60843
 H2400 H 0.21804 0.76298 0.57986
 C2401 C 0.29917 0.69840 0.59596
 C2402 C 0.30087 0.68630 0.57925
 C2403 C 0.29275 0.69325 0.56434
 C2404 C 0.28352 0.71175 0.56730
 C2405 C 0.27049 0.70866 0.58331
 C2406 C 0.27870 0.70165 0.59819
 C2407 C 0.30668 0.71697 0.59008
 C2408 C 0.29845 0.72394 0.57525
 H2409 H 0.30788 0.67334 0.57916
 H2410 H 0.29279 0.68615 0.55155
 H2411 H 0.25637 0.71266 0.58366
 H2412 H 0.27143 0.69943 0.61070
 H2413 H 0.31705 0.72449 0.59719
 H2414 H 0.30191 0.73724 0.56997
 C2415 C 0.30123 0.19738 1.09461
 C2416 C 0.29435 0.21693 1.09678
 C2417 C 0.28760 0.22429 1.08139
 C2418 C 0.28831 0.21155 1.06504
 C2419 C 0.30835 0.20551 1.06372
 C2420 C 0.31506 0.19824 1.07919
 C2421 C 0.28506 0.18689 1.08662
 C2422 C 0.27846 0.19420 1.07119
 H2423 H 0.29475 0.22435 1.10938
 H2424 H 0.28227 0.23803 1.08087
 H2425 H 0.31633 0.20563 1.05147
 H2426 H 0.32868 0.19271 1.08005
 H2427 H 0.27966 0.17432 1.09193
 H2428 H 0.26775 0.18762 1.06361
 C2429 C 0.79901 0.69695 1.09357
 C2430 C 0.79229 0.71657 1.09557
 C2431 C 0.78549 0.72380 1.08015
 C2432 C 0.78596 0.71085 1.06396
 C2433 C 0.80593 0.70463 1.06254
 C2434 C 0.81270 0.69750 1.07802
 C2435 C 0.78270 0.68647 1.08588
 C2436 C 0.77600 0.69365 1.07040
 H2437 H 0.79280 0.72413 1.10809
 H2438 H 0.78022 0.73756 1.07951
 H2439 H 0.81380 0.70455 1.05021
 H2440 H 0.82630 0.69189 1.07884
 H2441 H 0.77724 0.67404 1.09147
 H2442 H 0.76518 0.68707 1.06300
 C2443 C 0.80066 0.19700 0.59349
 C2444 C 0.79388 0.21660 0.59561
 C2445 C 0.78713 0.22395 0.58022
 C2446 C 0.78770 0.21113 0.56392
 C2447 C 0.80768 0.20497 0.56254
 C2448 C 0.81442 0.19773 0.57800
 C2449 C 0.78440 0.18657 0.58564
 C2450 C 0.77775 0.19386 0.57019
 H2451 H 0.79433 0.22406 0.60819
 H2452 H 0.78184 0.23770 0.57968
 H2453 H 0.81561 0.20505 0.55024
 H2454 H 0.82803 0.19216 0.57883
 H2455 H 0.77894 0.17408 0.59110
 H2456 H 0.76697 0.18731 0.56270
 C2457 C 0.69975 0.69820 0.40681
 C2458 C 0.68607 0.69858 0.42239
 C2459 C 0.69277 0.70579 0.43786
 C2460 C 0.71264 0.71225 0.43641
 C2461 C 0.72284 0.69517 0.42995
 C2462 C 0.71623 0.68792 0.41448
 C2463 C 0.70618 0.71789 0.40481
 C2464 C 0.71290 0.72521 0.42022
 H2465 H 0.67255 0.69283 0.42159
 H2466 H 0.68493 0.70566 0.45021
 H2467 H 0.73375 0.68869 0.43733
 H2468 H 0.72185 0.67556 0.40888
 H2469 H 0.70557 0.72544 0.39229
 H2470 H 0.71799 0.73902 0.42084
 C2471 C 0.69810 0.19996 -0.09398
 C2472 C 0.69893 0.18635 -0.07838
 C2473 C 0.70618 0.19327 -0.06301
 C2474 C 0.71222 0.21330 -0.06459
 C2475 C 0.72497 0.21373 -0.08095
 C2476 C 0.71763 0.20677 -0.09625
 C2477 C 0.68761 0.21629 -0.08621
 C2478 C 0.69490 0.22312 -0.07086
 H2479 H 0.69342 0.17271 -0.07906
 H2480 H 0.70629 0.18547 -0.05065
 H2481 H 0.73868 0.21906 -0.08051
 H2482 H 0.72505 0.20619 -0.10885
 H2483 H 0.67509 0.22167 -0.09162
 H2484 H 0.68833 0.23399 -0.06344
 C2485 C 0.19857 0.69971 -0.09379
 C2486 C 0.19955 0.68595 -0.07832
 C2487 C 0.20684 0.69275 -0.06291
 C2488 C 0.21278 0.71282 -0.06431
 C2489 C 0.22544 0.71348 -0.08074
 C2490 C 0.21806 0.70664 -0.09607
 C2491 C 0.18805 0.71592 -0.08578
 C2492 C 0.19538 0.72263 -0.07040
 H2493 H 0.19409 0.67229 -0.07911
 H2494 H 0.20703 0.68481 -0.05064
 H2495 H 0.23913 0.71886 -0.08030
 H2496 H 0.22543 0.70621 -0.10871
 H2497 H 0.17547 0.72129 -0.09106
 H2498 H 0.18881 0.73339 -0.06284
 C2499 C 0.19755 0.20053 0.40642
 C2500 C 0.21724 0.20688 0.40424
 C2501 C 0.22472 0.21351 0.41960
 C2502 C 0.21192 0.21326 0.43591
 C2503 C 0.19485 0.22359 0.42967
 C2504 C 0.18743 0.21705 0.41424
 C2505 C 0.19800 0.18678 0.42192
 C2506 C 0.20537 0.19340 0.43735
 H2507 H 0.22467 0.20627 0.39164
 H2508 H 0.23855 0.21852 0.42010
 H2509 H 0.18853 0.23454 0.43717
 H2510 H 0.17508 0.22275 0.40876
 H2511 H 0.19218 0.17328 0.42112
 H2512 H 0.20530 0.18551 0.44965
 C2513 C 0.30083 0.40525 0.69924
 C2514 C 0.30876 0.41109 0.71747
 C2515 C 0.30030 0.42572 0.72487
 C2516 C 0.28475 0.43351 0.71338
 C2517 C 0.29331 0.43705 0.69485
 C2518 C 0.30166 0.42235 0.68749
 C2519 C 0.28055 0.40238 0.70306
 C2520 C 0.27212 0.41705 0.71048
 H2521 H 0.31960 0.40410 0.72443
 H2522 H 0.30399 0.43091 0.73803
 H2523 H 0.29276 0.45008 0.68805
 H2524 H 0.30829 0.42285 0.67445
 H2525 H 0.27361 0.38957 0.70093
 H2526 H 0.25817 0.41623 0.71496
 C2527 C 0.30165 0.90428 0.20236
 C2528 C 0.28117 0.90242 0.20574
 C2529 C 0.27349 0.91728 0.21358
 C2530 C 0.28695 0.93287 0.21726
 C2531 C 0.30179 0.92376 0.22876
 C2532 C 0.30953 0.90897 0.22094
 C2533 C 0.30367 0.92171 0.19126
 C2534 C 0.29603 0.93659 0.19902
 H2535 H 0.27349 0.89021 0.20281
 H2536 H 0.25931 0.91751 0.21751
 H2537 H 0.30500 0.92754 0.24248
 H2538 H 0.31934 0.90074 0.22809
 H2539 H 0.31056 0.92230 0.17837
 H2540 H 0.29638 0.94989 0.19272
 C2541 C 0.80271 0.40592 0.19905
 C2542 C 0.78303 0.40352 0.20536
 C2543 C 0.77551 0.41883 0.21242
 C2544 C 0.78826 0.43531 0.21259
 C2545 C 0.80536 0.42874 0.22255
 C2546 C 0.81282 0.41337 0.21559
 C2547 C 0.80218 0.42196 0.18590
 C2548 C 0.79477 0.43734 0.19294
 H2549 H 0.77564 0.39083 0.20440
 H2550 H 0.76169 0.41920 0.21745
 H2551 H 0.81170 0.43600 0.23356
 H2552 H 0.82522 0.40774 0.22103
 H2553 H 0.80799 0.42154 0.17248
 H2554 H 0.79479 0.44999 0.18548
 C2555 C 0.79986 0.90469 0.69974
 C2556 C 0.78143 0.91086 0.69221
 C2557 C 0.77431 0.92556 0.70079
 C2558 C 0.78627 0.93308 0.71606
 C2559 C 0.78916 0.91649 0.72844
 C2560 C 0.79631 0.90175 0.71990
 C2561 C 0.81193 0.92161 0.69880
 C2562 C 0.80486 0.93637 0.70728
 H2563 H 0.77416 0.90403 0.68152
 H2564 H 0.76108 0.93100 0.69736
 H2565 H 0.78487 0.91566 0.74235
 H2566 H 0.79840 0.88887 0.72669
 H2567 H 0.82496 0.92196 0.69201
 H2568 H 0.81191 0.94929 0.70775
 C2569 C 0.69602 0.59522 0.70063
 C2570 C 0.71581 0.59725 0.70665
 C2571 C 0.72311 0.58184 0.71368
 C2572 C 0.71006 0.56561 0.71416
 C2573 C 0.69320 0.57261 0.72433
 C2574 C 0.68595 0.58810 0.71736
 C2575 C 0.69609 0.57907 0.68758
 C2576 C 0.70327 0.56360 0.69462
 H2577 H 0.72343 0.60980 0.70553
 H2578 H 0.73698 0.58124 0.71853
 H2579 H 0.68684 0.56556 0.73548
 H2580 H 0.67375 0.59409 0.72293
 H2581 H 0.69019 0.57952 0.67423
 H2582 H 0.70302 0.55090 0.68723
 C2583 C 0.69980 0.09464 0.19924
 C2584 C 0.72000 0.09736 0.20345
 C2585 C 0.72819 0.08255 0.21081
 C2586 C 0.71543 0.06611 0.21326
 C2587 C 0.69969 0.07383 0.22460
 C2588 C 0.69145 0.08861 0.21726
 C2589 C 0.69912 0.07772 0.18725
 C2590 C 0.70724 0.06287 0.19454
 H2591 H 0.72704 0.11017 0.20164
 H2592 H 0.74205 0.08321 0.21558
 H2593 H 0.69574 0.06853 0.23765
 H2594 H 0.68055 0.09562 0.22415
 H2595 H 0.69274 0.07743 0.17410
 H2596 H 0.70785 0.04993 0.18758
 C2597 C 0.19979 0.59430 0.19701
 C2598 C 0.18598 0.57877 0.19829
 C2599 C 0.19274 0.56332 0.20576
 C2600 C 0.21280 0.56477 0.21155
 C2601 C 0.22257 0.57058 0.19414
 C2602 C 0.21589 0.58603 0.18663
 C2603 C 0.20678 0.59691 0.21625
 C2604 C 0.21356 0.58153 0.22382
 H2605 H 0.17232 0.57955 0.19292
 H2606 H 0.18480 0.55095 0.20623
 H2607 H 0.23322 0.56275 0.18768
 H2608 H 0.22117 0.59117 0.17402
 H2609 H 0.20645 0.60980 0.22333
 H2610 H 0.21900 0.58129 0.23737
 C2611 C 0.19880 0.09457 0.69737
 C2612 C 0.18498 0.07908 0.69884
 C2613 C 0.19170 0.06370 0.70652
 C2614 C 0.21175 0.06516 0.71234
 C2615 C 0.22157 0.07075 0.69488
 C2616 C 0.21492 0.08612 0.68715
 C2617 C 0.20576 0.09739 0.71660
 C2618 C 0.21251 0.08209 0.72438
 H2619 H 0.17133 0.07981 0.69344
 H2620 H 0.18372 0.05136 0.70711
 H2621 H 0.23228 0.06287 0.68859
 H2622 H 0.22028 0.09112 0.67453
 H2623 H 0.20546 0.11037 0.72351
 H2624 H 0.21794 0.08202 0.73794
 C2625 C 0.30072 0.59460 0.30442
 C2626 C 0.31422 0.57874 0.30373
 C2627 C 0.30734 0.56332 0.29633
 C2628 C 0.28748 0.56513 0.28999
 C2629 C 0.27737 0.57146 0.30704
 C2630 C 0.28417 0.58688 0.31449
 C2631 C 0.29429 0.59704 0.28495
 C2632 C 0.28740 0.58169 0.27744
 H2633 H 0.32777 0.57931 0.30937
 H2634 H 0.31505 0.55078 0.29615
 H2635 H 0.26642 0.56398 0.31338
 H2636 H 0.27866 0.59237 0.32685
 H2637 H 0.29506 0.60981 0.27769
 H2638 H 0.28231 0.58136 0.26376
 C2639 C 0.30173 0.09632 0.80123
 C2640 C 0.28139 0.09887 0.79759
 C2641 C 0.27316 0.08400 0.79039
 C2642 C 0.28603 0.06768 0.78756
 C2643 C 0.30136 0.07556 0.77581
 C2644 C 0.30962 0.09039 0.78297
 C2645 C 0.30293 0.07936 0.81315
 C2646 C 0.29478 0.06446 0.80603
 H2647 H 0.27425 0.11161 0.79962
 H2648 H 0.25918 0.08455 0.78598
 H2649 H 0.30497 0.07036 0.76262
 H2650 H 0.32023 0.09752 0.77577
 H2651 H 0.30968 0.07909 0.82611
 H2652 H 0.29453 0.05149 0.81296
 C2653 C 0.80365 0.59502 0.80074
 C2654 C 0.78396 0.59725 0.79448
 C2655 C 0.77655 0.58184 0.78758
 C2656 C 0.78941 0.56542 0.78748
 C2657 C 0.80646 0.57201 0.77740
 C2658 C 0.81380 0.58749 0.78421
 C2659 C 0.80324 0.57907 0.81401
 C2660 C 0.79595 0.56360 0.80712
 H2661 H 0.77648 0.60993 0.79534
 H2662 H 0.76274 0.58138 0.78257
 H2663 H 0.81282 0.56473 0.76639
 H2664 H 0.82612 0.59320 0.77865
 H2665 H 0.80903 0.57962 0.82742
 H2666 H 0.79604 0.55101 0.81468
 C2667 C 0.80209 0.09486 0.30025
 C2668 C 0.78182 0.09745 0.29625
 C2669 C 0.77367 0.08255 0.28905
 C2670 C 0.78655 0.06618 0.28655
 C2671 C 0.80210 0.07393 0.27500
 C2672 C 0.81029 0.08879 0.28217
 C2673 C 0.80305 0.07800 0.31232
 C2674 C 0.79497 0.06308 0.30519
 H2675 H 0.77470 0.11023 0.29806
 H2676 H 0.75976 0.08312 0.28443
 H2677 H 0.80593 0.06859 0.26192
 H2678 H 0.82104 0.09586 0.27512
 H2679 H 0.80956 0.07782 0.32540
 H2680 H 0.79453 0.05017 0.31223
 C2681 C 0.69512 0.40445 0.29920
 C2682 C 0.69470 0.42058 0.31227
 C2683 C 0.70173 0.43617 0.30534
 C2684 C 0.70888 0.43428 0.28590
 C2685 C 0.72220 0.41825 0.28653
 C2686 C 0.71505 0.40272 0.29344
 C2687 C 0.68522 0.41145 0.28234
 C2688 C 0.69232 0.42705 0.27549
 H2689 H 0.68863 0.42001 0.32556
 H2690 H 0.70122 0.44884 0.31275
 H2691 H 0.73613 0.41905 0.28186
 H2692 H 0.72286 0.39028 0.29463
 H2693 H 0.67321 0.40529 0.27663
 H2694 H 0.68598 0.43404 0.26430
 C2695 C 0.69527 0.90601 0.80049
 C2696 C 0.69487 0.92198 0.81374
 C2697 C 0.70209 0.93758 0.80706
 C2698 C 0.70940 0.93585 0.78767
 C2699 C 0.72258 0.91970 0.78823
 C2700 C 0.71522 0.90416 0.79488
 C2701 C 0.68557 0.91326 0.78363
 C2702 C 0.69287 0.92888 0.77702
 H2703 H 0.68867 0.92132 0.82697
 H2704 H 0.70163 0.95017 0.81460
 H2705 H 0.73655 0.92042 0.78366
 H2706 H 0.72291 0.89163 0.79597
 H2707 H 0.67357 0.90725 0.77775
 H2708 H 0.68670 0.93606 0.76585
 C2709 C 0.19844 0.40348 0.80155
 C2710 C 0.19731 0.42028 0.81369
 C2711 C 0.20535 0.43531 0.80666
 C2712 C 0.21392 0.43238 0.78803
 C2713 C 0.22687 0.41606 0.79051
 C2714 C 0.21876 0.40106 0.79761
 C2715 C 0.19035 0.40962 0.78347
 C2716 C 0.19849 0.42458 0.77640
 H2717 H 0.19071 0.42036 0.82675
 H2718 H 0.20565 0.44818 0.81377
 H2719 H 0.24083 0.41560 0.78599
 H2720 H 0.22596 0.38833 0.79942
 H2721 H 0.17965 0.40257 0.77637
 H2722 H 0.19467 0.43002 0.76338
 C2723 C 0.19682 0.90323 0.29980
 C2724 C 0.19416 0.92059 0.31087
 C2725 C 0.20137 0.93570 0.30315
 C2726 C 0.21070 0.93227 0.28497
 C2727 C 0.22462 0.91710 0.28877
 C2728 C 0.21737 0.90199 0.29656
 C2729 C 0.18895 0.90770 0.28115
 C2730 C 0.19622 0.92272 0.27338
 H2731 H 0.18716 0.92098 0.32372
 H2732 H 0.20050 0.94898 0.30944
 H2733 H 0.23886 0.91794 0.28516
 H2734 H 0.22544 0.89006 0.29966
 H2735 H 0.17967 0.89903 0.27384
 H2736 H 0.19311 0.92607 0.25955
 C2737 C 0.40483 0.30191 0.69916
 C2738 C 0.42170 0.31394 0.69744
 C2739 C 0.43669 0.30702 0.70558
 C2740 C 0.43363 0.28860 0.71484
 C2741 C 0.41745 0.29185 0.72769
 C2742 C 0.40249 0.29882 0.71946
 C2743 C 0.41072 0.28326 0.69184
 C2744 C 0.42564 0.27631 0.70008
 H2745 H 0.42185 0.32685 0.69040
 H2746 H 0.44960 0.31408 0.70555
 H2747 H 0.41703 0.28797 0.74173
 H2748 H 0.38986 0.30115 0.72661
 H2749 H 0.40353 0.27569 0.68161
 H2750 H 0.43092 0.26296 0.69679
 C2751 C 0.40577 0.80159 0.19840
 C2752 C 0.40363 0.78172 0.20423
 C2753 C 0.41906 0.77416 0.21092
 C2754 C 0.43542 0.78705 0.21126
 C2755 C 0.43719 0.79408 0.19177
 C2756 C 0.42169 0.80153 0.18508
 C2757 C 0.41329 0.81135 0.21513
 C2758 C 0.42878 0.80386 0.22173
 H2759 H 0.39100 0.77424 0.20323
 H2760 H 0.41958 0.76021 0.21562
 H2761 H 0.44975 0.79434 0.18417
 H2762 H 0.42109 0.80764 0.17181
 H2763 H 0.40758 0.82356 0.22098
 H2764 H 0.43606 0.81001 0.23283
 C2765 C 0.90617 0.30266 0.19850
 C2766 C 0.90410 0.28279 0.20435
 C2767 C 0.91955 0.27533 0.21108
 C2768 C 0.93583 0.28832 0.21143
 C2769 C 0.93761 0.29532 0.19193
 C2770 C 0.92210 0.30267 0.18520
 C2771 C 0.91357 0.31251 0.21522
 C2772 C 0.92908 0.30511 0.22187
 H2773 H 0.89152 0.27523 0.20335
 H2774 H 0.92014 0.26139 0.21579
 H2775 H 0.95020 0.29559 0.18436
 H2776 H 0.92149 0.30873 0.17191
 H2777 H 0.90777 0.32470 0.22100
 H2778 H 0.93634 0.31136 0.23293
 C2779 C 0.90445 0.80244 0.70038
 C2780 C 0.92129 0.81449 0.69840
 C2781 C 0.93634 0.80769 0.70653
 C2782 C 0.93338 0.78938 0.71601
 C2783 C 0.91729 0.79276 0.72895
 C2784 C 0.90225 0.79961 0.72073
 C2785 C 0.91034 0.78372 0.69324
 C2786 C 0.92532 0.77691 0.70146
 H2787 H 0.92135 0.82733 0.69124
 H2788 H 0.94923 0.81480 0.70635
 H2789 H 0.91698 0.78910 0.74304
 H2790 H 0.88966 0.80203 0.72794
 H2791 H 0.90311 0.77600 0.68315
 H2792 H 0.93063 0.76354 0.69826
 C2793 C 0.59398 0.29864 0.30302
 C2794 C 0.57819 0.31221 0.30242
 C2795 C 0.56278 0.30543 0.29496
 C2796 C 0.56452 0.28558 0.28845
 C2797 C 0.58111 0.28551 0.27593
 C2798 C 0.59644 0.29230 0.28351
 C2799 C 0.58618 0.28204 0.31296
 C2800 C 0.57077 0.27532 0.30543
 H2801 H 0.57877 0.32573 0.30822
 H2802 H 0.55028 0.31319 0.29495
 H2803 H 0.58081 0.28047 0.26222
 H2804 H 0.60922 0.29304 0.27628
 H2805 H 0.59172 0.27636 0.32522
 H2806 H 0.56331 0.26422 0.31155
 C2807 C 0.59345 0.80061 0.80399
 C2808 C 0.58560 0.78414 0.81410
 C2809 C 0.57018 0.77738 0.80665
 C2810 C 0.56397 0.78748 0.78956
 C2811 C 0.56228 0.80739 0.79584
 C2812 C 0.57770 0.81422 0.80324
 C2813 C 0.59591 0.79405 0.78455
 C2814 C 0.58056 0.78722 0.77704
 H2815 H 0.59104 0.77865 0.82648
 H2816 H 0.56264 0.76648 0.81299
 H2817 H 0.54979 0.81519 0.79564
 H2818 H 0.57833 0.82781 0.80885
 H2819 H 0.60869 0.79467 0.77732
 H2820 H 0.58025 0.78202 0.76339
 C2821 C 0.09379 0.30026 0.80280
 C2822 C 0.09638 0.29350 0.78345
 C2823 C 0.08104 0.28669 0.77586
 C2824 C 0.06433 0.28719 0.78822
 C2825 C 0.07029 0.27725 0.80547
 C2826 C 0.08568 0.28395 0.81299
 C2827 C 0.07815 0.31398 0.80177
 C2828 C 0.06274 0.30720 0.79428
 H2829 H 0.10923 0.29399 0.77632
 H2830 H 0.08081 0.28139 0.76225
 H2831 H 0.06256 0.26653 0.81189
 H2832 H 0.09085 0.27859 0.82554
 H2833 H 0.07884 0.32762 0.80726
 H2834 H 0.05032 0.31509 0.79389
 C2835 C 0.09500 0.79896 0.30023
 C2836 C 0.07804 0.81093 0.30182
 C2837 C 0.06318 0.80401 0.29349
 C2838 C 0.06644 0.78565 0.28419
 C2839 C 0.08274 0.78897 0.27153
 C2840 C 0.09757 0.79596 0.27994
 C2841 C 0.08912 0.78027 0.30743
 C2842 C 0.07433 0.77331 0.29899
 H2843 H 0.07775 0.82382 0.30891
 H2844 H 0.05023 0.81103 0.29342
 H2845 H 0.08332 0.78508 0.25750
 H2846 H 0.11028 0.79833 0.27294
 H2847 H 0.09622 0.77272 0.31776
 H2848 H 0.06907 0.75994 0.30220
 C2849 C 0.59377 0.70024 0.69607
 C2850 C 0.57810 0.68657 0.69700
 C2851 C 0.56263 0.69341 0.70437
 C2852 C 0.56419 0.71340 0.71045
 C2853 C 0.58077 0.71385 0.72292
 C2854 C 0.59617 0.70700 0.71544
 C2855 C 0.58583 0.71657 0.68582
 C2856 C 0.57035 0.72334 0.69324
 H2857 H 0.57883 0.67294 0.69150
 H2858 H 0.55020 0.68557 0.70464
 H2859 H 0.58040 0.71916 0.73654
 H2860 H 0.60894 0.70649 0.72266
 H2861 H 0.59126 0.72198 0.67339
 H2862 H 0.56276 0.73418 0.68685
 C2863 C 0.59635 0.19875 0.19755
 C2864 C 0.57956 0.19749 0.18548
 C2865 C 0.56453 0.20555 0.19251
 C2866 C 0.56747 0.21426 0.21106
 C2867 C 0.57535 0.19892 0.22279
 C2868 C 0.59030 0.19076 0.21573
 C2869 C 0.59870 0.21912 0.20131
 C2870 C 0.58370 0.22725 0.20841
 H2871 H 0.57949 0.19082 0.17247
 H2872 H 0.55166 0.20579 0.18545
 H2873 H 0.57002 0.19521 0.23590
 H2874 H 0.59745 0.18018 0.22296
 H2875 H 0.61138 0.22633 0.19941
 H2876 H 0.58410 0.24125 0.21284
 C2877 C 0.09471 0.69641 0.19868
 C2878 C 0.08740 0.68624 0.21529
 C2879 C 0.07174 0.69331 0.22202
 C2880 C 0.06474 0.71011 0.21179
 C2881 C 0.08081 0.72337 0.21161
 C2882 C 0.09641 0.71624 0.20479
 C2883 C 0.07882 0.69632 0.18539
 C2884 C 0.06315 0.70333 0.19220
 H2885 H 0.09339 0.67409 0.22094
 H2886 H 0.06458 0.68687 0.23306
 H2887 H 0.07997 0.73724 0.21649
 H2888 H 0.10887 0.72402 0.20387
 H2889 H 0.07957 0.69041 0.17204
 H2890 H 0.05062 0.70290 0.18462
 C2891 C 0.09440 0.19826 0.69700
 C2892 C 0.08573 0.21390 0.68624
 C2893 C 0.07022 0.22052 0.69367
 C2894 C 0.06467 0.21120 0.71139
 C2895 C 0.06361 0.19090 0.70621
 C2896 C 0.07915 0.18420 0.69882
 C2897 C 0.09694 0.20591 0.71602
 C2898 C 0.08147 0.21267 0.72350
 H2899 H 0.09069 0.21892 0.67347
 H2900 H 0.06221 0.23089 0.68702
 H2901 H 0.05144 0.18270 0.70698
 H2902 H 0.08017 0.17038 0.69385
 H2903 H 0.10984 0.20601 0.72303
 H2904 H 0.08119 0.21850 0.73690
 C2905 C 0.40427 0.69808 0.29929
 C2906 C 0.41022 0.71686 0.30618
 C2907 C 0.42513 0.72356 0.29772
 C2908 C 0.43307 0.71090 0.28321
 C2909 C 0.43610 0.69268 0.29283
 C2910 C 0.42111 0.68600 0.30118
 C2911 C 0.40190 0.70074 0.27894
 C2912 C 0.41687 0.70748 0.27050
 H2913 H 0.40303 0.72472 0.31623
 H2914 H 0.43041 0.73698 0.30068
 H2915 H 0.44900 0.68556 0.29296
 H2916 H 0.42122 0.67324 0.30848
 H2917 H 0.38924 0.69836 0.27191
 H2918 H 0.41643 0.71113 0.25640
 C2919 C 0.40509 0.19998 0.79952
 C2920 C 0.41096 0.21864 0.80676
 C2921 C 0.42581 0.22559 0.79839
 C2922 C 0.43377 0.21328 0.78359
 C2923 C 0.43693 0.19488 0.79284
 C2924 C 0.42200 0.18796 0.80112
 C2925 C 0.40264 0.20303 0.77923
 C2926 C 0.41754 0.21001 0.77087
 H2927 H 0.40379 0.22623 0.81704
 H2928 H 0.43107 0.23895 0.80163
 H2929 H 0.44986 0.18783 0.79277
 H2930 H 0.42222 0.17505 0.80815
 H2931 H 0.38998 0.20067 0.77219
 H2932 H 0.41705 0.21384 0.75682
 C2933 C 0.90487 0.70034 0.79960
 C2934 C 0.91066 0.71901 0.80686
 C2935 C 0.92553 0.72598 0.79855
 C2936 C 0.93359 0.71368 0.78380
 C2937 C 0.93675 0.69530 0.79309
 C2938 C 0.92180 0.68835 0.80130
 C2939 C 0.90252 0.70335 0.77930
 C2940 C 0.91744 0.71035 0.77100
 H2941 H 0.90343 0.72657 0.81713
 H2942 H 0.93076 0.73935 0.80182
 H2943 H 0.94970 0.68827 0.79308
 H2944 H 0.92202 0.67545 0.80836
 H2945 H 0.88990 0.70094 0.77219
 H2946 H 0.91701 0.71415 0.75695
 C2947 C 0.90467 0.19910 0.30032
 C2948 C 0.91072 0.21764 0.30771
 C2949 C 0.92545 0.22466 0.29915
 C2950 C 0.93310 0.21250 0.28406
 C2951 C 0.93637 0.19399 0.29305
 C2952 C 0.92158 0.18702 0.30150
 C2953 C 0.90188 0.20242 0.28012
 C2954 C 0.91664 0.20946 0.27160
 H2955 H 0.90375 0.22507 0.31824
 H2956 H 0.93080 0.23797 0.30245
 H2957 H 0.94930 0.18693 0.29274
 H2958 H 0.92190 0.17405 0.30844
 H2959 H 0.88907 0.20027 0.27328
 H2960 H 0.91591 0.21364 0.25766
 C2961 C 0.30136 0.30174 0.59526
 C2962 C 0.30337 0.31357 0.57840
 C2963 C 0.29546 0.30644 0.56348
 C2964 C 0.28613 0.28806 0.56659
 C2965 C 0.30088 0.27589 0.57495
 C2966 C 0.30890 0.28303 0.58979
 C2967 C 0.28086 0.29865 0.59725
 C2968 C 0.27286 0.29146 0.58235
 H2969 H 0.31042 0.32650 0.57822
 H2970 H 0.29571 0.31335 0.55059
 H2971 H 0.30431 0.26245 0.56998
 H2972 H 0.31906 0.27553 0.59723
 H2973 H 0.27342 0.30107 0.60962
 H2974 H 0.25872 0.28750 0.58257
 C2975 C 0.30096 0.80400 0.09508
 C2976 C 0.28452 0.81438 0.08748
 C2977 C 0.27775 0.80715 0.07205
 C2978 C 0.28779 0.78999 0.06554
 C2979 C 0.30771 0.79631 0.06399
 C2980 C 0.31454 0.80348 0.07942
 C2981 C 0.29439 0.78435 0.09712
 C2982 C 0.28753 0.77706 0.08175
 H2983 H 0.27900 0.82677 0.09312
 H2984 H 0.26683 0.81368 0.06473
 H2985 H 0.31551 0.79634 0.05162
 H2986 H 0.32812 0.80911 0.08015
 H2987 H 0.29502 0.77680 0.10964
 H2988 H 0.28235 0.76328 0.08117
 C2989 C 0.80084 0.30115 0.09612
 C2990 C 0.80866 0.28277 0.08998
 C2991 C 0.80042 0.27583 0.07515
 C2992 C 0.78517 0.28787 0.06748
 C2993 C 0.77225 0.29055 0.08365
 C2994 C 0.78047 0.29753 0.09852
 C2995 C 0.80216 0.31345 0.07953
 C2996 C 0.79402 0.30654 0.06463
 H2997 H 0.81925 0.27538 0.09693
 H2998 H 0.80405 0.26263 0.06973
 H2999 H 0.75823 0.28623 0.08409
 H3000 H 0.77329 0.29945 0.11113
 H3001 H 0.80894 0.32652 0.07950
 H3002 H 0.79382 0.31377 0.05191
 C3003 C 0.80351 0.80181 0.59455
 C3004 C 0.81366 0.78517 0.58699
 C3005 C 0.80636 0.77844 0.57158
 C3006 C 0.78937 0.78871 0.56507
 C3007 C 0.77643 0.78869 0.58129
 C3008 C 0.78379 0.79551 0.59663
 C3009 C 0.80320 0.81535 0.57887
 C3010 C 0.79596 0.80854 0.56346
 H3011 H 0.82595 0.77950 0.59263
 H3012 H 0.81275 0.76740 0.56427
 H3013 H 0.76260 0.78369 0.58073
 H3014 H 0.77625 0.79630 0.60916
 H3015 H 0.80901 0.82887 0.57956
 H3016 H 0.79610 0.81628 0.55106
 C3017 C 0.30381 0.69996 0.40620
 C3018 C 0.28407 0.70624 0.40420
 C3019 C 0.27668 0.71296 0.41959
 C3020 C 0.28962 0.71288 0.43576
 C3021 C 0.29628 0.69305 0.43727
 C3022 C 0.30356 0.68633 0.42181
 C3023 C 0.31391 0.71656 0.41378
 C3024 C 0.30659 0.72321 0.42924
 H3025 H 0.27655 0.70552 0.39169
 H3026 H 0.26284 0.71795 0.42022
 H3027 H 0.29635 0.68524 0.44963
 H3028 H 0.30937 0.67281 0.42103
 H3029 H 0.32623 0.72221 0.40813
 H3030 H 0.31301 0.73415 0.43662
 C3031 C 0.30409 0.19949 0.90593
 C3032 C 0.28442 0.20596 0.90380
 C3033 C 0.27700 0.21282 0.91913
 C3034 C 0.28983 0.21266 0.93539
 C3035 C 0.29628 0.19276 0.93698
 C3036 C 0.30359 0.18592 0.92158
 C3037 C 0.31429 0.21602 0.91356
 C3038 C 0.30693 0.22278 0.92895
 H3039 H 0.27695 0.20523 0.89125
 H3040 H 0.26319 0.21792 0.91966
 H3041 H 0.29631 0.18498 0.94936
 H3042 H 0.30933 0.17235 0.92088
 H3043 H 0.32667 0.22159 0.90800
 H3044 H 0.31333 0.23376 0.93630
 C3045 C 0.80267 0.69925 0.90492
 C3046 C 0.78300 0.70569 0.90273
 C3047 C 0.77550 0.71247 0.91806
 C3048 C 0.78825 0.71226 0.93438
 C3049 C 0.79472 0.69236 0.93591
 C3050 C 0.80212 0.68560 0.92050
 C3051 C 0.81280 0.71576 0.91268
 C3052 C 0.80536 0.72243 0.92807
 H3053 H 0.77559 0.70500 0.89015
 H3054 H 0.76168 0.71754 0.91855
 H3055 H 0.79473 0.68453 0.94825
 H3056 H 0.80790 0.67206 0.91977
 H3057 H 0.82520 0.72139 0.90722
 H3058 H 0.81170 0.73339 0.93550
 C3059 C 0.80100 0.19814 0.40415
 C3060 C 0.81318 0.19713 0.42082
 C3061 C 0.80605 0.20535 0.43560
 C3062 C 0.78731 0.21395 0.43255
 C3063 C 0.78990 0.22675 0.41630
 C3064 C 0.79710 0.21846 0.40155
 C3065 C 0.78272 0.19014 0.41024
 C3066 C 0.77555 0.19847 0.42495
 H3067 H 0.82632 0.19047 0.42099
 H3068 H 0.81315 0.20574 0.44837
 H3069 H 0.78532 0.24072 0.41569
 H3070 H 0.79897 0.22553 0.38887
 H3071 H 0.77554 0.17940 0.40332
 H3072 H 0.76236 0.19476 0.43030
 C3073 C 0.70030 0.30092 0.40358
 C3074 C 0.71841 0.30924 0.40967
 C3075 C 0.72561 0.30110 0.42447
 C3076 C 0.71403 0.28546 0.43213
 C3077 C 0.69515 0.29381 0.43506
 C3078 C 0.68800 0.30184 0.42021
 C3079 C 0.70452 0.28064 0.40111
 C3080 C 0.71174 0.27255 0.41593
 H3081 H 0.72542 0.32010 0.40273
 H3082 H 0.73869 0.30505 0.42985
 H3083 H 0.68797 0.29338 0.44781
 H3084 H 0.67477 0.30831 0.42031
 H3085 H 0.70282 0.27347 0.38847
 H3086 H 0.71651 0.25864 0.41543
 C3087 C 0.70007 0.80180 0.90385
 C3088 C 0.68769 0.80270 0.92042
 C3089 C 0.69472 0.79455 0.93525
 C3090 C 0.71357 0.78612 0.93235
 C3091 C 0.71130 0.77330 0.91608
 C3092 C 0.70419 0.78151 0.90128
 C3093 C 0.71819 0.80999 0.91006
 C3094 C 0.72527 0.80173 0.92484
 H3095 H 0.67450 0.80925 0.92050
 H3096 H 0.68748 0.79410 0.94797
 H3097 H 0.71605 0.75939 0.91554
 H3098 H 0.70255 0.77442 0.88859
 H3099 H 0.72531 0.82082 0.90318
 H3100 H 0.73838 0.80555 0.93027
 C3101 C 0.19694 0.30023 0.90617
 C3102 C 0.18677 0.28367 0.91384
 C3103 C 0.19415 0.27691 0.92919
 C3104 C 0.21124 0.28705 0.93556
 C3105 C 0.22405 0.28692 0.91925
 C3106 C 0.21661 0.29379 0.90395
 C3107 C 0.19743 0.31379 0.92183
 C3108 C 0.20476 0.30694 0.93720
 H3109 H 0.17439 0.27808 0.90835
 H3110 H 0.18777 0.26592 0.93657
 H3111 H 0.23787 0.28184 0.91971
 H3112 H 0.22407 0.29454 0.89137
 H3113 H 0.19165 0.32734 0.92117
 H3114 H 0.20470 0.31470 0.94959
 C3115 C 0.19676 0.80033 0.40560
 C3116 C 0.18638 0.78403 0.41352
 C3117 C 0.19379 0.77725 0.42885
 C3118 C 0.21113 0.78710 0.43497
 C3119 C 0.22376 0.78661 0.41852
 C3120 C 0.21629 0.79350 0.40324
 C3121 C 0.19768 0.81400 0.42115
 C3122 C 0.20505 0.80714 0.43650
 H3123 H 0.17382 0.77864 0.40821
 H3124 H 0.18731 0.76642 0.43636
 H3125 H 0.23749 0.78128 0.41889
 H3126 H 0.22363 0.79403 0.39059
 H3127 H 0.19214 0.82764 0.42044
 H3128 H 0.20525 0.81501 0.44881
 C3129 C 0.70084 0.69903 0.59630
 C3130 C 0.68855 0.69823 0.57970
 C3131 C 0.69561 0.70649 0.56492
 C3132 C 0.71442 0.71492 0.56788
 C3133 C 0.71202 0.72762 0.58424
 C3134 C 0.70488 0.71930 0.59898
 C3135 C 0.71902 0.69090 0.59004
 C3136 C 0.72614 0.69927 0.57530
 H3137 H 0.67538 0.69165 0.57956
 H3138 H 0.68843 0.70701 0.55220
 H3139 H 0.71669 0.74155 0.58488
 H3140 H 0.70313 0.72632 0.61171
 H3141 H 0.72612 0.68000 0.59683
 H3142 H 0.73926 0.69547 0.56983
 C3143 C 0.70020 0.19616 0.09374
 C3144 C 0.68685 0.19635 0.07793
 C3145 C 0.69371 0.20384 0.06263
 C3146 C 0.71337 0.21078 0.06448
 C3147 C 0.71297 0.22361 0.08076
 C3148 C 0.70611 0.21600 0.09600
 C3149 C 0.71708 0.18636 0.08630
 C3150 C 0.72386 0.19390 0.07100
 H3151 H 0.67345 0.19029 0.07845
 H3152 H 0.68612 0.20364 0.05016
 H3153 H 0.71772 0.23754 0.08033
 H3154 H 0.70505 0.22344 0.10856
 H3155 H 0.72292 0.17414 0.09197
 H3156 H 0.73511 0.18778 0.06379
 C3157 C 0.19914 0.69831 0.09449
 C3158 C 0.18549 0.69934 0.07898
 C3159 C 0.19238 0.70666 0.06360
 C3160 C 0.21243 0.71256 0.06508
 C3161 C 0.21302 0.72521 0.08151
 C3162 C 0.20609 0.71780 0.09681
 C3163 C 0.21535 0.68776 0.08654
 C3164 C 0.22215 0.69511 0.07120
 H3165 H 0.17183 0.69389 0.07972
 H3166 H 0.18453 0.70688 0.05129
 H3167 H 0.21843 0.73890 0.08110
 H3168 H 0.20561 0.72515 0.10945
 H3169 H 0.22067 0.67513 0.09184
 H3170 H 0.23293 0.68852 0.06367
 C3171 C 0.20038 0.19990 0.59549
 C3172 C 0.22070 0.20364 0.59806
 C3173 C 0.22903 0.21074 0.58329
 C3174 C 0.21628 0.21339 0.56704
 C3175 C 0.20759 0.19468 0.56404
 C3176 C 0.19933 0.18765 0.57884
 C3177 C 0.19250 0.21824 0.58937
 C3178 C 0.20087 0.22530 0.57463
 H3179 H 0.22774 0.20173 0.61073
 H3180 H 0.24301 0.21518 0.58388
 H3181 H 0.20798 0.18751 0.55129
 H3182 H 0.19263 0.17454 0.57871
 H3183 H 0.18178 0.22554 0.59626
 H3184 H 0.19722 0.23850 0.56924
   
