data_POSCAR
  _audit_creation_date              2014-09-24
  _audit_creation_method            'ToBaCCo'
  _symmetry_space_group_name_H-M    'P1'
  _symmetry_Int_Tables_number       1
  _symmetry_cell_setting            triclinic
  loop_
  _symmetry_equiv_pos_as_xyz
 x,y,z
_cell_length_a 47.6617
_cell_length_b 47.4588
_cell_length_c 42.1257
_cell_angle_alpha 90.984200
_cell_angle_beta 88.769700
_cell_angle_gamma 92.373200
loop_
  _atom_site_label
  _atom_site_type_symbol
  _atom_site_fract_x
  _atom_site_fract_y
  _atom_site_fract_z
C1 C 0.37389 0.03267 0.30327
 C2 C 0.35381 0.05344 0.28960
 C3 C 0.33918 0.04294 0.26441
 C4 C 0.34572 0.01265 0.25483
 C5 C 0.35543 0.00611 0.31048
 C6 C 0.34073 -0.00431 0.28527
 C7 C 0.39237 0.02329 0.27470
 C8 C 0.37767 0.01318 0.24942
 H9 H 0.35140 0.07461 0.29902
 H10 H 0.33352 0.00419 0.23433
 H11 H 0.35724 -0.00577 0.33204
 H12 H 0.41501 0.02442 0.27371
 C13 C 0.11360 -0.01912 0.76966
 C14 C 0.12771 -0.04471 0.75524
 C15 C 0.14308 -0.03938 0.72840
 C16 C 0.14288 -0.00865 0.71809
 C17 C 0.13759 0.00329 0.77405
 C18 C 0.15297 0.00883 0.74708
 C19 C 0.09721 -0.00810 0.74413
 C20 C 0.11311 -0.00212 0.71529
 H21 H 0.12570 -0.06548 0.76557
 H22 H 0.15686 -0.00507 0.69722
 H23 H 0.13966 0.01620 0.79539
 H24 H 0.07530 -0.00387 0.74720
 C25 C 0.61952 0.49913 0.27659
 C26 C 0.63081 0.47228 0.26198
 C27 C 0.64520 0.47584 0.23416
 C28 C 0.64718 0.50636 0.22301
 C29 C 0.64509 0.51967 0.27896
 C30 C 0.65981 0.52346 0.25119
 C31 C 0.60218 0.51173 0.25038
 C32 C 0.61623 0.51525 0.22182
 H33 H 0.62788 0.45192 0.27315
 H34 H 0.65961 0.50825 0.20062
 H35 H 0.64901 0.53274 0.29984
 H36 H 0.58123 0.51875 0.25505
 C37 C 0.88006 0.52104 0.80523
 C38 C 0.85950 0.54151 0.79203
 C39 C 0.84428 0.53084 0.76744
 C40 C 0.85083 0.50048 0.75782
 C41 C 0.86196 0.49447 0.81320
 C42 C 0.84681 0.48339 0.78847
 C43 C 0.89795 0.51174 0.77626
 C44 C 0.88270 0.50128 0.75154
 H45 H 0.85755 0.56289 0.80103
 H46 H 0.83861 0.49215 0.73733
 H47 H 0.86218 0.48481 0.83627
 H48 H 0.92052 0.51400 0.77425
 C49 C 0.27165 0.42340 1.00932
 C50 C 0.25943 0.40637 1.03778
 C51 C 0.23593 0.39035 1.03077
 C52 C 0.22641 0.39297 0.99658
 C53 C 0.27554 0.40145 0.98276
 C54 C 0.25223 0.38519 0.97611
 C55 C 0.24707 0.44061 0.99906
 C56 C 0.22318 0.42489 0.99296
 H57 H 0.26800 0.40666 1.06131
 H58 H 0.20692 0.38015 0.99187
 H59 H 0.29549 0.39921 0.97038
 H60 H 0.24762 0.46344 1.00048
 C61 C 0.78090 0.07515 0.98029
 C62 C 0.77113 0.09215 0.95190
 C63 C 0.75071 0.11048 0.95969
 C64 C 0.74156 0.10970 0.99489
 C65 C 0.78918 0.09738 1.00540
 C66 C 0.76873 0.11519 1.01369
 C67 C 0.75533 0.06125 0.99279
 C68 C 0.73320 0.08007 0.99996
 H69 H 0.77812 0.08888 0.92759
 H70 H 0.72503 0.12463 1.00162
 H71 H 0.80971 0.09851 1.01605
 H72 H 0.75157 0.03863 0.99060
 C73 C 0.28385 0.57324 0.47651
 C74 C 0.27481 0.59189 0.44930
 C75 C 0.25445 0.61002 0.45795
 C76 C 0.24465 0.60771 0.49281
 C77 C 0.29168 0.59384 0.50344
 C78 C 0.27140 0.61156 0.51240
 C79 C 0.25632 0.55831 0.48778
 C80 C 0.23572 0.57631 0.49592
 H81 H 0.28233 0.58994 0.42500
 H82 H 0.22787 0.62226 0.49991
 H83 H 0.31180 0.59393 0.51500
 H84 H 0.25228 0.53577 0.48510
 C85 C 0.77053 0.92626 0.53201
 C86 C 0.75728 0.90674 0.55744
 C87 C 0.73432 0.89140 0.54749
 C88 C 0.72630 0.89702 0.51329
 C89 C 0.77566 0.90709 0.50294
 C90 C 0.75293 0.89130 0.49325
 C91 C 0.74627 0.94451 0.52260
 C92 C 0.72307 0.92917 0.51296
 H93 H 0.76563 0.90486 0.58099
 H94 H 0.70713 0.88459 0.50634
 H95 H 0.79594 0.90669 0.49091
 H96 H 0.74591 0.96703 0.52669
 C97 C -0.01442 0.28692 0.39623
 C98 C 0.01355 0.28375 0.37800
 C99 C 0.01342 0.26199 0.35632
 C100 C -0.01515 0.24514 0.35495
 C101 C -0.03466 0.28935 0.37124
 C102 C -0.03589 0.26636 0.34875
 C103 C -0.02072 0.25806 0.41080
 C104 C -0.02072 0.23591 0.38976
 H105 H 0.03150 0.29828 0.38061
 H106 H -0.01499 0.22741 0.33745
 H107 H -0.04807 0.30708 0.37000
 H108 H -0.02176 0.25533 0.43628
 C109 C 0.00558 0.77358 0.13346
 C110 C -0.01597 0.77713 0.16030
 C111 C -0.01790 0.75594 0.18166
 C112 C 0.00187 0.73182 0.17334
 C113 C 0.03302 0.76775 0.14986
 C114 C 0.03129 0.74630 0.17079
 C115 C -0.00295 0.74514 0.11782
 C116 C -0.00488 0.72298 0.13846
 H117 H -0.02960 0.79483 0.16116
 H118 H 0.00051 0.71450 0.19068
 H119 H 0.05273 0.77891 0.14408
 H120 H -0.00428 0.74223 0.09241
 C121 C 0.49883 0.27470 0.62881
 C122 C 0.47845 0.27638 0.65708
 C123 C 0.47744 0.25369 0.67650
 C124 C 0.49724 0.23043 0.66515
 C125 C 0.52707 0.26810 0.64301
 C126 C 0.52643 0.24536 0.66211
 C127 C 0.48967 0.24726 0.61150
 C128 C 0.48911 0.22380 0.63019
 H129 H 0.46438 0.29363 0.65985
 H130 H 0.49720 0.21191 0.68083
 H131 H 0.54638 0.28001 0.63739
 H132 H 0.48475 0.24631 0.58663
 C133 C 0.49307 0.78612 0.90214
 C134 C 0.52035 0.78667 0.88190
 C135 C 0.52222 0.76466 0.86070
 C136 C 0.49615 0.74416 0.86152
 C137 C 0.46998 0.78508 0.87725
 C138 C 0.47111 0.76319 0.85605
 C139 C 0.49156 0.75867 0.91655
 C140 C 0.49381 0.73510 0.89486
 H141 H 0.53680 0.80297 0.88412
 H142 H 0.49712 0.72714 0.84334
 H143 H 0.45444 0.80090 0.87577
 H144 H 0.49285 0.75704 0.94202
 C145 C -0.22469 0.63247 0.95879
 C146 C -0.20399 0.61201 0.97175
 C147 C -0.21404 0.59718 0.99710
 C148 C -0.24402 0.60411 1.00772
 C149 C -0.25133 0.61421 0.95240
 C150 C -0.26181 0.59950 0.97784
 C151 C -0.23283 0.65102 0.98766
 C152 C -0.24289 0.63623 1.01308
 H153 H -0.18290 0.60989 0.96212
 H154 H -0.25179 0.59230 1.02886
 H155 H -0.26093 0.61336 0.92934
 H156 H -0.22874 0.67348 0.98970
 C157 C -0.25494 0.36533 0.47877
 C158 C -0.28185 0.37727 0.49235
 C159 C -0.27869 0.39199 0.52001
 C160 C -0.24854 0.39343 0.53183
 C161 C -0.23412 0.39082 0.47627
 C162 C -0.23078 0.40577 0.50392
 C163 C -0.24388 0.34882 0.50408
 C164 C -0.24037 0.36392 0.53394
 H165 H -0.30168 0.37514 0.48022
 H166 H -0.24725 0.40666 0.55353
 H167 H -0.22055 0.39435 0.45565
 H168 H -0.23543 0.32847 0.49903
 C169 C 0.24313 -0.13896 -0.02628
 C170 C 0.21701 -0.12424 -0.01421
 C171 C 0.22097 -0.10803 0.01215
 C172 C 0.25077 -0.10813 0.02452
 C173 C 0.26587 -0.11520 -0.03017
 C174 C 0.26986 -0.09900 -0.00360
 C175 C 0.25235 -0.15486 0.00071
 C176 C 0.25659 -0.13799 0.02920
 H177 H 0.19689 -0.12652 -0.02574
 H178 H 0.25331 -0.09341 0.04489
 H179 H 0.27964 -0.11357 -0.05091
 H180 H 0.25602 -0.17709 -0.00070
 C181 C 0.26839 1.13041 0.44535
 C182 C 0.28988 1.10986 0.45634
 C183 C 0.28080 1.09358 0.48097
 C184 C 0.25078 1.09912 0.49272
 C185 C 0.24195 1.11194 0.43840
 C186 C 0.23281 1.09559 0.46298
 C187 C 0.26014 1.14724 0.47554
 C188 C 0.25097 1.13096 0.50023
 H189 H 0.31075 1.10862 0.44581
 H190 H 0.24329 1.08556 0.51265
 H191 H 0.22963 1.11423 0.41734
 H192 H 0.26193 1.16986 0.47817
 C193 C 0.17045 0.52777 0.23081
 C194 C 0.15170 0.51616 0.20374
 C195 C 0.13561 0.49288 0.21197
 C196 C 0.13983 0.48305 0.24585
 C197 C 0.15027 0.53209 0.25903
 C198 C 0.13405 0.50903 0.26692
 C199 C 0.18750 0.50244 0.23955
 C200 C 0.17160 0.47890 0.24706
 H201 H 0.15142 0.52482 0.18018
 H202 H 0.12674 0.46387 0.25159
 H203 H 0.14923 0.55207 0.27175
 H204 H 0.21012 0.50234 0.23649
 C205 C -0.16956 1.03475 0.25727
 C206 C -0.15078 1.02831 0.28542
 C207 C -0.13212 1.00781 0.27900
 C208 C -0.13409 0.99560 0.24507
 C209 C -0.14909 1.04154 0.22993
 C210 C -0.13076 1.02122 0.22301
 C211 C -0.18290 1.00763 0.24874
 C212 C -0.16353 0.98562 0.24296
 H213 H -0.15397 1.03652 0.30924
 H214 H -0.11868 0.97929 0.23916
 H215 H -0.14929 1.06104 0.21690
 H216 H -0.20515 1.00325 0.25291
 C217 C 0.32800 0.52532 -0.23014
 C218 C 0.34773 0.51749 -0.20348
 C219 C 0.36590 0.49722 -0.21217
 C220 C 0.36253 0.48618 -0.24639
 C221 C 0.34736 0.53267 -0.25844
 C222 C 0.36525 0.51244 -0.26730
 C223 C 0.31327 0.49708 -0.23944
 C224 C 0.33130 0.47648 -0.24760
 H225 H 0.34648 0.52578 -0.17943
 H226 H 0.37713 0.46937 -0.25329
 H227 H 0.34730 0.55290 -0.27001
 H228 H 0.29105 0.49259 -0.23513
 C229 C 0.66998 0.01851 -0.26976
 C230 C 0.65052 0.00750 -0.29646
 C231 C 0.63413 -0.01552 -0.28815
 C232 C 0.63868 -0.02571 -0.25444
 C233 C 0.65031 0.02305 -0.24106
 C234 C 0.63375 0.00026 -0.23295
 C235 C 0.68667 -0.00722 -0.26170
 C236 C 0.67039 -0.03038 -0.25387
 H237 H 0.64981 0.01632 -0.31989
 H238 H 0.62543 -0.04477 -0.24864
 H239 H 0.65006 0.04292 -0.22806
 H240 H 0.70924 -0.00784 -0.26508
 C241 C 0.03464 0.24175 0.85209
 C242 C 0.03651 0.26868 0.87279
 C243 C 0.01394 0.27195 0.89284
 C244 C -0.00858 0.24758 0.89049
 C245 C 0.03041 0.21816 0.87647
 C246 C 0.00762 0.22058 0.89607
 C247 C 0.00806 0.24282 0.83622
 C248 C -0.01599 0.24662 0.85671
 H249 H 0.05343 0.28452 0.87080
 H250 H -0.02613 0.25040 0.90772
 H251 H 0.04346 0.20010 0.87748
 H252 H 0.00670 0.23921 0.81085
 C253 C 0.51751 0.25379 0.13081
 C254 C 0.52249 0.23198 0.10457
 C255 C 0.50209 0.22907 0.08248
 C256 C 0.47754 0.24869 0.08930
 C257 C 0.51150 0.28104 0.11374
 C258 C 0.49108 0.27854 0.09189
 C259 C 0.48882 0.24469 0.14552
 C260 C 0.46752 0.24226 0.12393
 H261 H 0.53997 0.21821 0.10560
 H262 H 0.46104 0.24691 0.07120
 H263 H 0.52178 0.30120 0.11966
 H264 H 0.48516 0.24363 0.17089
 C265 C 0.02492 0.75209 0.62929
 C266 C 0.02835 0.73040 0.60260
 C267 C 0.00715 0.72835 0.58144
 C268 C -0.01659 0.74865 0.58956
 C269 C 0.01947 0.77965 0.61273
 C270 C -0.00185 0.77810 0.59183
 C271 C -0.00345 0.74378 0.64502
 C272 C -0.02545 0.74187 0.62445
 H273 H 0.04565 0.71633 0.60240
 H274 H -0.03388 0.74754 0.57237
 H275 H 0.03129 0.79916 0.61779
 H276 H -0.00630 0.74194 0.67041
 C277 C 0.54054 0.74232 0.35217
 C278 C 0.54069 0.77046 0.37066
 C279 C 0.51917 0.77277 0.39231
 C280 C 0.49947 0.74616 0.39407
 C281 C 0.54053 0.72029 0.37836
 C282 C 0.51914 0.72187 0.40013
 C283 C 0.51136 0.73933 0.33804
 C284 C 0.48967 0.74152 0.35948
 H285 H 0.55634 0.78733 0.36697
 H286 H 0.48221 0.74773 0.41203
 H287 H 0.55642 0.70475 0.37980
 H288 H 0.50846 0.73849 0.31262
 B289 B -0.00623 0.01753 1.03318
 B290 B -0.02373 0.00502 1.00102
 B291 B 0.00438 0.02764 0.99673
 B292 B 0.02854 0.01988 1.02395
 B293 B 0.01456 -0.00780 1.04498
 B294 B -0.01791 -0.01659 1.03113
 B295 B 0.02059 -0.02540 0.98321
 B296 B 0.03784 -0.01362 1.01560
 B297 B 0.00923 -0.03559 1.01994
 B298 B -0.01419 -0.02789 0.99254
 B299 B -0.00022 -0.00019 0.97142
 B300 B 0.03234 0.00876 0.98560
 B301 B 0.49553 0.52121 0.54623
 B302 B 0.47979 0.51325 0.51132
 B303 B 0.50827 0.53597 0.51287
 B304 B 0.53077 0.52405 0.53975
 B305 B 0.51555 0.49426 0.55501
 B306 B 0.48394 0.48777 0.53790
 B307 B 0.52475 0.48488 0.49148
 B308 B 0.54036 0.49194 0.52625
 B309 B 0.51163 0.47004 0.52556
 B310 B 0.48978 0.48163 0.49823
 B311 B 0.50493 0.51202 0.48277
 B312 B 0.53654 0.51812 0.50027
 B313 B 0.50067 0.97166 0.54596
 B314 B 0.52070 0.98782 0.51757
 B315 B 0.49591 0.96303 0.50751
 B316 B 0.46778 0.96620 0.53227
 B317 B 0.47537 0.99372 0.55786
 B318 B 0.50850 1.00674 0.54892
 B319 B 0.47581 1.01456 0.49787
 B320 B 0.45560 0.99838 0.52600
 B321 B 0.48050 1.02321 0.53608
 B322 B 0.50864 1.01988 0.51152
 B323 B 0.50086 0.99271 0.48597
 B324 B 0.46795 0.97955 0.49481
 B325 B 0.00277 0.46934 1.04925
 B326 B 0.02136 0.48493 1.01927
 B327 B -0.00533 0.46145 1.01140
 B328 B -0.03125 0.46579 1.03891
 B329 B -0.02033 0.49259 1.06395
 B330 B 0.01251 0.50394 1.05187
 B331 B -0.02352 0.51427 1.00446
 B332 B -0.04221 0.49879 1.03451
 B333 B -0.01545 0.52223 1.04237
 B334 B 0.01039 0.51780 1.01502
 B335 B -0.00054 0.49115 0.98997
 B336 B -0.03338 0.47963 1.00189
 B337 B 0.00916 0.50841 0.46618
 B338 B 0.02860 0.51169 0.49912
 B339 B 0.00416 0.53549 0.49204
 B340 B -0.02375 0.51826 0.47509
 B341 B -0.01638 0.48358 0.47226
 B342 B 0.01628 0.47971 0.48724
 B343 B -0.01722 0.49877 0.53531
 B344 B -0.03670 0.49542 0.50251
 B345 B -0.01239 0.47161 0.50931
 B346 B 0.01544 0.48874 0.52641
 B347 B 0.00823 0.52366 0.52928
 B348 B -0.02438 0.52751 0.51437
 B349 B 0.50920 0.00855 -0.03356
 B350 B 0.52818 0.01276 -0.00039
 B351 B 0.50370 0.03629 -0.00853
 B352 B 0.47614 0.01847 -0.02554
 B353 B 0.48369 -0.01624 -0.02699
 B354 B 0.51621 -0.01950 -0.01139
 B355 B 0.48183 0.00045 0.03550
 B356 B 0.46293 -0.00388 0.00235
 B357 B 0.48732 -0.02729 0.01048
 B358 B 0.51479 -0.00952 0.02753
 B359 B 0.50730 0.02527 0.02913
 B360 B 0.47487 0.02858 0.01343
 B361 B 0.49233 0.48624 -0.03647
 B362 B 0.47377 0.49841 -0.00488
 B363 B 0.49818 0.47417 -0.00021
 B364 B 0.52563 0.48136 -0.02518
 B365 B 0.51775 0.51059 -0.04559
 B366 B 0.48531 0.52080 -0.03329
 B367 B 0.52026 0.52559 0.01724
 B368 B 0.53894 0.51347 -0.01426
 B369 B 0.51427 0.53762 -0.01929
 B370 B 0.48704 0.53031 0.00587
 B371 B 0.49504 0.50107 0.02624
 B372 B 0.52728 0.49081 0.01403
 B373 B -0.01719 0.98820 0.46631
 B374 B -0.02939 0.99624 0.50321
 B375 B -0.00199 0.97485 0.49819
 B376 B 0.01828 0.98663 0.46735
 B377 B 0.00313 1.01576 0.45329
 B378 B -0.02659 1.02140 0.47534
 B379 B 0.01827 1.02693 0.51481
 B380 B 0.03044 1.01939 0.47798
 B381 B 0.00305 1.04044 0.48269
 B382 B -0.01702 1.02871 0.51356
 B383 B -0.00204 0.99969 0.52752
 B384 B 0.02766 0.99381 0.50542
 B385 B 0.76369 0.24747 0.20167
 B386 B 0.75767 0.22992 0.23590
 B387 B 0.78051 0.25840 0.23459
 B388 B 0.76733 0.28242 0.21007
 B389 B 0.73654 0.26825 0.19649
 B390 B 0.73078 0.23569 0.21205
 B391 B 0.73109 0.27433 0.26089
 B392 B 0.73624 0.29168 0.22666
 B393 B 0.71420 0.26300 0.22764
 B394 B 0.72716 0.23951 0.25235
 B395 B 0.75835 0.25368 0.26613
 B396 B 0.76371 0.28631 0.25019
 B397 B 0.72072 0.74861 0.70314
 B398 B 0.73474 0.76771 0.73342
 B399 B 0.71065 0.74137 0.74067
 B400 B 0.71610 0.71474 0.71429
 B401 B 0.74428 0.72489 0.69071
 B402 B 0.75535 0.75803 0.70250
 B403 B 0.76229 0.72265 0.75185
 B404 B 0.74844 0.70347 0.72134
 B405 B 0.77254 0.72995 0.71421
 B406 B 0.76695 0.75651 0.74039
 B407 B 0.73895 0.74626 0.76390
 B408 B 0.72766 0.71323 0.75234
 B409 B 0.25827 0.24945 0.78960
 B410 B 0.26212 0.27027 0.75742
 B411 B 0.28539 0.24494 0.76339
 B412 B 0.26763 0.21657 0.77917
 B413 B 0.23320 0.22451 0.78219
 B414 B 0.23010 0.25807 0.76877
 B415 B 0.24855 0.22568 0.71933
 B416 B 0.24464 0.20502 0.75130
 B417 B 0.22153 0.23029 0.74551
 B418 B 0.23927 0.25848 0.72958
 B419 B 0.27379 0.25059 0.72638
 B420 B 0.27692 0.21717 0.73990
 B421 B 0.24134 0.74320 0.28829
 B422 B 0.25085 0.72810 0.25329
 B423 B 0.22844 0.75475 0.25445
 B424 B 0.23866 0.77822 0.28323
 B425 B 0.26786 0.76542 0.29973
 B426 B 0.27493 0.73423 0.28144
 B427 B 0.28005 0.77564 0.23698
 B428 B 0.27133 0.79055 0.27229
 B429 B 0.29317 0.76351 0.27112
 B430 B 0.28286 0.74057 0.24232
 B431 B 0.25384 0.75337 0.22590
 B432 B 0.24650 0.78464 0.24441
 B433 B 0.27286 0.73812 0.70379
 B434 B 0.26528 0.72162 0.73847
 B435 B 0.28770 0.75044 0.73732
 B436 B 0.27550 0.77342 0.71085
 B437 B 0.24575 0.75813 0.69578
 B438 B 0.23970 0.72609 0.71242
 B439 B 0.23676 0.76623 0.75946
 B440 B 0.24333 0.78253 0.72474
 B441 B 0.22190 0.75336 0.72559
 B442 B 0.23387 0.73116 0.75228
 B443 B 0.26404 0.74638 0.76754
 B444 B 0.26965 0.77857 0.75047
 B445 B 0.21127 0.25516 0.19576
 B446 B 0.22562 0.27389 0.22615
 B447 B 0.20123 0.24777 0.23333
 B448 B 0.20628 0.22124 0.20671
 B449 B 0.23446 0.23115 0.18308
 B450 B 0.24600 0.26402 0.19502
 B451 B 0.25273 0.22840 0.24405
 B452 B 0.23850 0.20951 0.21348
 B453 B 0.26287 0.23571 0.20645
 B454 B 0.25771 0.26221 0.23279
 B455 B 0.22971 0.25224 0.25644
 B456 B 0.21803 0.21934 0.24467
 B457 B 0.76498 0.76163 0.29892
 B458 B 0.76877 0.78227 0.26675
 B459 B 0.79269 0.75769 0.27339
 B460 B 0.77542 0.72892 0.28897
 B461 B 0.74072 0.73582 0.29114
 B462 B 0.73682 0.76915 0.27741
 B463 B 0.75727 0.73733 0.22856
 B464 B 0.75338 0.71658 0.26048
 B465 B 0.72963 0.74104 0.25405
 B466 B 0.74674 0.76971 0.23845
 B467 B 0.78156 0.76290 0.23611
 B468 B 0.78544 0.72968 0.24988
 B469 B 0.73434 0.23598 0.78452
 B470 B 0.74671 0.21954 0.75155
 B471 B 0.72324 0.24501 0.74874
 B472 B 0.73051 0.27037 0.77640
 B473 B 0.75901 0.26007 0.79640
 B474 B 0.76865 0.22833 0.78121
 B475 B 0.77518 0.26718 0.73427
 B476 B 0.76302 0.28372 0.76735
 B477 B 0.78629 0.25804 0.77021
 B478 B 0.77897 0.23287 0.74259
 B479 B 0.75049 0.24318 0.72261
 B480 B 0.74079 0.27493 0.73771
 C481 C 0.41835 1.05429 0.38953
 C482 C 0.43309 1.05376 0.36007
 C483 C 0.41836 1.05071 0.33178
 C484 C 0.38925 1.04441 0.33235
 C485 C 0.37449 1.04700 0.36146
 C486 C 0.38880 1.05203 0.38973
 C487 C 0.43489 1.05308 0.41912
 C488 C 0.42282 1.05543 0.44973
 C489 C 0.43766 1.04729 0.47603
 C490 C 0.46382 1.03498 0.47193
 C491 C 0.47790 1.03807 0.44246
 C492 C 0.46365 1.04725 0.41612
 C493 C 0.46247 1.05306 0.35904
 C494 C 0.47737 1.04878 0.38648
 H495 H 0.47380 1.05302 0.33645
 H496 H 0.49971 1.04552 0.38431
 H497 H 0.43029 1.05136 0.30976
 H498 H 0.35190 1.04342 0.36254
 H499 H 0.42783 1.04924 0.49918
 H500 H 0.49922 1.03130 0.43922
 H501 H 0.37660 1.05194 0.41164
 H502 H 0.40175 1.06254 0.45356
 C503 C -0.07535 0.54776 0.89003
 C504 C -0.10498 0.54455 0.89065
 C505 C -0.11924 0.53785 0.86253
 C506 C -0.10433 0.53343 0.83379
 C507 C -0.07530 0.54017 0.83286
 C508 C -0.06100 0.54710 0.86056
 C509 C -0.06045 0.54871 0.92091
 C510 C -0.03106 0.54793 0.92277
 C511 C -0.01875 0.54090 0.95109
 C512 C -0.03542 0.53465 0.97824
 C513 C -0.06381 0.54142 0.97793
 C514 C -0.07673 0.54698 0.94927
 C515 C -0.11996 0.54628 0.91955
 C516 C -0.10605 0.54785 0.94835
 H517 H -0.14272 0.54482 0.92004
 H518 H -0.11848 0.54758 0.97016
 H519 H -0.14186 0.53422 0.86335
 H520 H -0.06303 0.53975 0.81111
 H521 H 0.00364 0.53782 0.95073
 H522 H -0.07650 0.54040 0.99924
 H523 H -0.03859 0.55089 0.85842
 H524 H -0.01736 0.55040 0.90223
 C525 C 0.07175 -0.04256 0.85935
 C526 C 0.10115 -0.03710 0.85711
 C527 C 0.11403 -0.03045 0.82790
 C528 C 0.09815 -0.02707 0.80062
 C529 C 0.06904 -0.03364 0.80258
 C530 C 0.05601 -0.04116 0.83154
 C531 C 0.05863 -0.04712 0.89172
 C532 C 0.02972 -0.05324 0.89718
 C533 C 0.01797 -0.05133 0.92797
 C534 C 0.03461 -0.04243 0.95382
 C535 C 0.06389 -0.04005 0.94856
 C536 C 0.07591 -0.04286 0.91825
 C537 C 0.11747 -0.03675 0.88430
 C538 C 0.10505 -0.03889 0.91432
 H539 H 0.14003 -0.03292 0.88252
 H540 H 0.11836 -0.03645 0.93481
 H541 H 0.13665 -0.02696 0.82662
 H542 H 0.05612 -0.03327 0.78185
 H543 H -0.00463 -0.05372 0.93080
 H544 H 0.07764 -0.03215 0.96675
 H545 H 0.03355 -0.04516 0.83188
 H546 H 0.01574 -0.05805 0.87783
 C547 C 0.57799 0.47673 0.36657
 C548 C 0.60712 0.48385 0.36485
 C549 C 0.62009 0.49081 0.33575
 C550 C 0.60441 0.49271 0.30807
 C551 C 0.57560 0.48493 0.30964
 C552 C 0.56251 0.47719 0.33847
 C553 C 0.56477 0.47098 0.39864
 C554 C 0.53620 0.46286 0.40344
 C555 C 0.52405 0.46287 0.43409
 C556 C 0.53996 0.47149 0.46057
 C557 C 0.56909 0.47641 0.45584
 C558 C 0.58154 0.47570 0.42556
 C559 C 0.62306 0.48511 0.39236
 C560 C 0.61043 0.48177 0.42215
 H561 H 0.64542 0.49028 0.39099
 H562 H 0.62338 0.48468 0.44289
 H563 H 0.64260 0.49508 0.33483
 H564 H 0.56308 0.48441 0.28850
 H565 H 0.50160 0.45877 0.43654
 H566 H 0.58207 0.48420 0.47496
 H567 H 0.54024 0.47205 0.33841
 H568 H 0.52270 0.45773 0.38374
 C569 C 0.57642 0.54207 0.13589
 C570 C 0.56011 0.53441 0.16308
 C571 C 0.57317 0.52659 0.19096
 C572 C 0.60264 0.52585 0.19267
 C573 C 0.61867 0.53408 0.16565
 C574 C 0.60585 0.54210 0.13779
 C575 C 0.56151 0.54713 0.10554
 C576 C 0.57548 0.55438 0.07677
 C577 C 0.56115 0.55261 0.04803
 C578 C 0.53300 0.54276 0.04738
 C579 C 0.51793 0.54158 0.07650
 C580 C 0.53202 0.54271 0.10535
 C581 C 0.53074 0.53314 0.16188
 C582 C 0.51699 0.53703 0.13358
 H583 H 0.51819 0.52769 0.18282
 H584 H 0.49430 0.53423 0.13351
 H585 H 0.55990 0.51970 0.21068
 H586 H 0.64126 0.53403 0.16532
 H587 H 0.57266 0.55738 0.02635
 H588 H 0.49557 0.53638 0.07686
 H589 H 0.61933 0.54741 0.11768
 H590 H 0.59763 0.56011 0.07582
 C591 C 0.07710 1.03204 0.63258
 C592 C 0.10416 1.02087 0.63117
 C593 C 0.11600 1.01019 0.65845
 C594 C 0.10143 1.00998 0.68797
 C595 C 0.07476 1.02201 0.68922
 C596 C 0.06284 1.03280 0.66211
 C597 C 0.06395 1.04001 0.60201
 C598 C 0.03659 1.05012 0.60016
 C599 C 0.02318 1.05094 0.57086
 C600 C 0.03662 1.04144 0.54283
 C601 C 0.06530 1.03553 0.54440
 C602 C 0.07884 1.03461 0.57340
 C603 C 0.11885 1.01896 0.60214
 C604 C 0.10638 1.02548 0.57383
 H605 H 0.13981 1.01090 0.60106
 H606 H 0.11802 1.02200 0.55181
 H607 H 0.13594 1.00047 0.65542
 H608 H 0.06271 1.02366 0.71110
 H609 H 0.00124 1.05602 0.57081
 H610 H 0.07635 1.02731 0.52391
 H611 H 0.04218 1.04114 0.66466
 H612 H 0.02463 1.05573 0.62120
 C613 C -0.07481 0.49215 0.66142
 C614 C -0.10003 0.50690 0.66449
 C615 C -0.11498 0.50738 0.69340
 C616 C -0.10420 0.49530 0.72027
 C617 C -0.07923 0.48068 0.71753
 C618 C -0.06487 0.47872 0.68830
 C619 C -0.05912 0.49298 0.63017
 C620 C -0.03547 0.47683 0.62299
 C621 C -0.02180 0.47862 0.59318
 C622 C -0.03100 0.49706 0.57027
 C623 C -0.05415 0.51359 0.57785
 C624 C -0.06884 0.51076 0.60662
 C625 C -0.10938 0.52259 0.63933
 C626 C -0.09371 0.52510 0.61131
 H627 H -0.12857 0.53401 0.64177
 H628 H -0.10140 0.53820 0.59282
 H629 H -0.13404 0.51899 0.69554
 H630 H -0.07057 0.47125 0.73819
 H631 H -0.00423 0.46542 0.58798
 H632 H -0.06215 0.52767 0.56056
 H633 H -0.04550 0.46769 0.68748
 H634 H -0.02771 0.46228 0.63980
 C635 C 0.42189 -0.00015 0.16081
 C636 C 0.39678 0.01495 0.16238
 C637 C 0.38143 0.01708 0.19095
 C638 C 0.39151 0.00607 0.21880
 C639 C 0.41628 -0.00896 0.21750
 C640 C 0.43116 -0.01238 0.18875
 C641 C 0.43804 -0.00105 0.12980
 C642 C 0.46201 -0.01724 0.12431
 C643 C 0.47620 -0.01694 0.09468
 C644 C 0.46716 -0.00005 0.07018
 C645 C 0.44358 0.01638 0.07603
 C646 C 0.42859 0.01520 0.10474
 C647 C 0.38787 0.02921 0.13593
 C648 C 0.40376 0.02987 0.10796
 H649 H 0.36879 0.04088 0.13721
 H650 H 0.39635 0.04189 0.08839
 H651 H 0.36253 0.02902 0.19193
 H652 H 0.42437 -0.01769 0.23889
 H653 H 0.49412 -0.02998 0.09092
 H654 H 0.43565 0.02931 0.05759
 H655 H 0.45033 -0.02369 0.18908
 H656 H 0.46973 -0.03056 0.14240
 C657 C 0.35362 0.46629 0.01431
 C658 C 0.33570 0.47091 -0.01121
 C659 C 0.30851 0.45847 -0.01118
 C660 C 0.29874 0.44099 0.01372
 C661 C 0.31629 0.43751 0.03961
 C662 C 0.34319 0.45015 0.04004
 C663 C 0.38349 0.47713 0.01175
 C664 C 0.40329 0.47219 0.03505
 C665 C 0.43148 0.47977 0.03004
 C666 C 0.44096 0.49233 0.00164
 C667 C 0.42093 0.49980 -0.02041
 C668 C 0.39246 0.49175 -0.01589
 C669 C 0.34544 0.48677 -0.03726
 C670 C 0.37320 0.49712 -0.03947
 H671 H 0.33162 0.49051 -0.05672
 H672 H 0.37997 0.50851 -0.06055
 H673 H 0.29539 0.46105 -0.03156
 H674 H 0.31020 0.42402 0.05910
 H675 H 0.44577 0.47555 0.04869
 H676 H 0.42763 0.51044 -0.04201
 H677 H 0.35576 0.44604 0.06028
 H678 H 0.39767 0.46205 0.05710
 C679 C -0.14521 0.96017 0.54248
 C680 C -0.16640 0.97896 0.53571
 C681 C -0.19461 0.96905 0.53501
 C682 C -0.20185 0.94065 0.54175
 C683 C -0.18087 0.92341 0.55254
 C684 C -0.15299 0.93303 0.55311
 C685 C -0.11536 0.96931 0.53608
 C686 C -0.09393 0.94997 0.53415
 C687 C -0.06696 0.95843 0.52435
 C688 C -0.05991 0.98669 0.51725
 C689 C -0.08132 1.00636 0.51988
 C690 C -0.10908 0.99764 0.52796
 C691 C -0.15902 1.00704 0.52833
 C692 C -0.13088 1.01642 0.52555
 H693 H -0.17520 1.02185 0.52413
 H694 H -0.12620 1.03821 0.51941
 H695 H -0.21021 0.98306 0.52705
 H696 H -0.18575 0.90156 0.55825
 H697 H -0.05259 0.94197 0.52089
 H698 H -0.07688 1.02817 0.51363
 H699 H -0.13773 0.91852 0.56071
 H700 H -0.09793 0.92774 0.53809
 C701 C -0.14080 0.03303 0.97551
 C702 C -0.16108 0.02633 0.99949
 C703 C -0.18780 0.03745 0.99854
 C704 C -0.19466 0.05601 0.97447
 C705 C -0.17491 0.06126 0.94979
 C706 C -0.14856 0.04964 0.95004
 C707 C -0.11139 0.02414 0.97972
 C708 C -0.08929 0.03124 0.95824
 C709 C -0.06176 0.02493 0.96483
 C710 C -0.05536 0.01157 0.99303
 C711 C -0.07763 0.00255 1.01340
 C712 C -0.10531 0.00919 1.00731
 C713 C -0.15403 0.01022 1.02546
 C714 C -0.12670 0.00178 1.02927
 H715 H -0.16963 0.00492 1.04372
 H716 H -0.12205 -0.00987 1.05030
 H717 H -0.20243 0.03372 1.01823
 H718 H -0.17866 0.07596 0.93123
 H719 H -0.04561 0.03040 0.94748
 H720 H -0.07344 -0.00861 1.03489
 H721 H -0.13410 0.05529 0.93095
 H722 H -0.09266 0.04191 0.93636
 C723 C 0.36318 0.53460 0.47547
 C724 C 0.34165 0.52579 0.49718
 C725 C 0.31434 0.53491 0.49384
 C726 C 0.30825 0.55424 0.47028
 C727 C 0.32919 0.56124 0.44742
 C728 C 0.35614 0.55121 0.44966
 C729 C 0.39283 0.52813 0.48264
 C730 C 0.41592 0.53680 0.46325
 C731 C 0.44330 0.53236 0.47245
 C732 C 0.44851 0.51974 0.50156
 C733 C 0.42545 0.50947 0.51995
 C734 C 0.39790 0.51381 0.51097
 C735 C 0.34794 0.51007 0.52373
 C736 C 0.37552 0.50435 0.53060
 H737 H 0.33141 0.50321 0.54028
 H738 H 0.37944 0.49307 0.55211
 H739 H 0.29864 0.52976 0.51207
 H740 H 0.32579 0.57637 0.42919
 H741 H 0.46045 0.53934 0.45684
 H742 H 0.42878 0.49854 0.54183
 H743 H 0.37157 0.55838 0.43220
 H744 H 0.41339 0.54716 0.44098
 C745 C 0.14998 0.54502 0.49926
 C746 C 0.15908 0.56580 0.47717
 C747 C 0.18680 0.57675 0.47741
 C748 C 0.20612 0.56642 0.49839
 C749 C 0.19754 0.54520 0.51956
 C750 C 0.16968 0.53479 0.52032
 C751 C 0.11986 0.53466 0.49888
 C752 C 0.10784 0.51629 0.52177
 C753 C 0.07927 0.50853 0.52133
 C754 C 0.06184 0.51860 0.49788
 C755 C 0.07409 0.53597 0.47431
 C756 C 0.10248 0.54469 0.47513
 C757 C 0.14070 0.57508 0.45447
 C758 C 0.11311 0.56439 0.45314
 H759 H 0.14782 0.59065 0.43725
 H760 H 0.09971 0.57219 0.43506
 H761 H 0.19365 0.59259 0.46038
 H762 H 0.21247 0.53669 0.53550
 H763 H 0.07085 0.49501 0.53997
 H764 H 0.06115 0.54491 0.45677
 H765 H 0.16415 0.51844 0.53707
 H766 H 0.11994 0.50834 0.54077
 C767 C 0.64908 0.04733 0.00098
 C768 C 0.65659 0.07254 -0.01507
 C769 C 0.68392 0.08434 -0.01314
 C770 C 0.70501 0.07002 0.00201
 C771 C 0.69779 0.04414 0.01644
 C772 C 0.67010 0.03322 0.01656
 C773 C 0.61922 0.03635 -0.00031
 C774 C 0.60817 0.01471 0.01933
 C775 C 0.57960 0.00674 0.01876
 C776 C 0.56144 0.01961 -0.00199
 C777 C 0.57301 0.03967 -0.02314
 C778 C 0.60102 0.04934 -0.02108
 C779 C 0.63718 0.08512 -0.03427
 C780 C 0.61028 0.07317 -0.03811
 H781 H 0.64310 0.10409 -0.04718
 H782 H 0.59615 0.08342 -0.05363
 H783 H 0.68909 0.10354 -0.02591
 H784 H 0.71351 0.03248 0.02824
 H785 H 0.57176 -0.00919 0.03514
 H786 H 0.55963 0.05014 -0.03903
 H787 H 0.66569 0.01334 0.02808
 H788 H 0.62099 0.00463 0.03625
 C789 C 0.64042 0.96099 0.50590
 C790 C 0.65820 0.97049 0.53070
 C791 C 0.68569 0.96115 0.53190
 C792 C 0.69551 0.94165 0.50929
 C793 C 0.67792 0.93215 0.48488
 C794 C 0.65076 0.94180 0.48298
 C795 C 0.61082 0.97038 0.50630
 C796 C 0.59185 0.96298 0.48217
 C797 C 0.56377 0.96976 0.48515
 C798 C 0.55362 0.98372 0.51241
 C799 C 0.57297 0.99343 0.53527
 C800 C 0.60139 0.98689 0.53239
 C801 C 0.64807 0.98824 0.55488
 C802 C 0.62017 0.99601 0.55590
 H803 H 0.66166 0.99547 0.57391
 H804 H 0.61306 1.00890 0.57574
 H805 H 0.69895 0.96792 0.55142
 H806 H 0.68512 0.91695 0.46738
 H807 H 0.55003 0.96362 0.46605
 H808 H 0.56584 1.00509 0.55605
 H809 H 0.63801 0.93334 0.46397
 H810 H 0.59816 0.95177 0.46089
 C811 C 0.14074 0.45840 0.99895
 C812 C 0.14669 0.43689 0.97636
 C813 C 0.17388 0.42649 0.97376
 C814 C 0.19534 0.43756 0.99312
 C815 C 0.18950 0.45939 1.01482
 C816 C 0.16266 0.46973 1.01771
 C817 C 0.11114 0.46755 1.00264
 C818 C 0.10284 0.48745 1.02579
 C819 C 0.07468 0.49348 1.03018
 C820 C 0.05385 0.48015 1.01140
 C821 C 0.06229 0.46192 0.98668
 C822 C 0.09049 0.45491 0.98278
 C823 C 0.12538 0.42559 0.95698
 C824 C 0.09792 0.43459 0.95991
 H825 H 0.12992 0.40931 0.93948
 H826 H 0.08210 0.42492 0.94463
 H827 H 0.17828 0.40958 0.95697
 H828 H 0.20549 0.46787 1.03061
 H829 H 0.06930 0.50815 1.04906
 H830 H 0.04698 0.45240 0.97096
 H831 H 0.15954 0.48619 1.03521
 H832 H 0.11755 0.49796 1.04156
 C833 C -0.01666 0.35522 0.46746
 C834 C -0.04137 0.34521 0.45219
 C835 C -0.04065 0.32208 0.43111
 C836 C -0.01504 0.31037 0.42176
 C837 C 0.00930 0.31958 0.43801
 C838 C 0.00852 0.34162 0.46058
 C839 C -0.01795 0.38164 0.48755
 C840 C 0.00464 0.39288 0.50546
 C841 C 0.00421 0.42049 0.51793
 C842 C -0.01824 0.43791 0.51172
 C843 C -0.04211 0.42512 0.49737
 C844 C -0.04246 0.39717 0.48636
 C845 C -0.06628 0.35962 0.45607
 C846 C -0.06655 0.38560 0.47182
 H847 H -0.08529 0.35185 0.44460
 H848 H -0.08570 0.39717 0.47189
 H849 H -0.06010 0.31414 0.42080
 H850 H 0.02913 0.30987 0.43330
 H851 H 0.02297 0.42918 0.52914
 H852 H -0.05929 0.43741 0.49045
 H853 H 0.02799 0.34850 0.47146
 H854 H 0.02326 0.38113 0.50869
 C855 C 0.48703 -0.14422 -0.02869
 C856 C 0.46296 -0.15522 -0.04445
 C857 C 0.46476 -0.17879 -0.06478
 C858 C 0.49087 -0.19004 -0.07292
 C859 C 0.51461 -0.17973 -0.05631
 C860 C 0.51275 -0.15722 -0.03443
 C861 C 0.48451 -0.11752 -0.00928
 C862 C 0.50628 -0.10542 0.00924
 C863 C 0.50472 -0.07773 0.02125
 C864 C 0.48202 -0.06101 0.01381
 C865 C 0.45887 -0.07467 -0.00108
 C866 C 0.45960 -0.10273 -0.01161
 C867 C 0.43758 -0.14146 -0.04178
 C868 C 0.43622 -0.11523 -0.02670
 H869 H 0.41907 -0.14997 -0.05368
 H870 H 0.41676 -0.10424 -0.02757
 H871 H 0.44566 -0.18757 -0.07506
 H872 H 0.53481 -0.18888 -0.06046
 H873 H 0.52291 -0.06841 0.03303
 H874 H 0.44149 -0.06298 -0.00872
 H875 H 0.53180 -0.14950 -0.02324
 H876 H 0.52514 -0.11656 0.01333
 C877 C 0.01084 -0.14659 1.08338
 C878 C 0.00029 -0.17098 1.06711
 C879 C -0.00092 -0.19739 1.08236
 C880 C 0.00825 -0.19961 1.11384
 C881 C 0.01876 -0.17510 1.12938
 C882 C 0.02029 -0.14925 1.11452
 C883 C 0.01092 -0.11873 1.06718
 C884 C 0.02051 -0.09364 1.08217
 C885 C 0.01959 -0.06806 1.06705
 C886 C 0.00943 -0.06619 1.03604
 C887 C 0.00002 -0.09127 1.02051
 C888 C 0.00061 -0.11751 1.03600
 C889 C -0.00936 -0.16858 1.03602
 C890 C -0.00915 -0.14249 1.02082
 H891 H -0.01739 -0.18715 1.02332
 H892 H -0.01698 -0.14184 0.99690
 H893 H -0.00964 -0.21574 1.06993
 H894 H 0.02548 -0.17587 1.15376
 H895 H 0.02755 -0.04971 1.08007
 H896 H -0.00779 -0.09039 0.99659
 H897 H 0.02859 -0.13164 1.12832
 H898 H 0.02883 -0.09300 1.10573
 C899 C 0.50601 0.35623 0.58247
 C900 C 0.49373 0.33310 0.56555
 C901 C 0.49146 0.30621 0.57969
 C902 C 0.50068 0.30253 0.61099
 C903 C 0.51127 0.32627 0.62785
 C904 C 0.51396 0.35252 0.61401
 C905 C 0.50904 0.38421 0.56678
 C906 C 0.52377 0.40702 0.58092
 C907 C 0.52468 0.43322 0.56719
 C908 C 0.51165 0.43797 0.53809
 C909 C 0.49815 0.41472 0.52260
 C910 C 0.49704 0.38773 0.53674
 C911 C 0.48321 0.33738 0.53513
 C912 C 0.48430 0.36419 0.52135
 H913 H 0.47344 0.31987 0.52206
 H914 H 0.47530 0.36645 0.49818
 H915 H 0.48207 0.28869 0.56644
 H916 H 0.51755 0.32447 0.65229
 H917 H 0.53617 0.44984 0.57986
 H918 H 0.48835 0.41765 0.49999
 H919 H 0.52180 0.36970 0.62883
 H920 H 0.53495 0.40523 0.60271
 C921 C 0.47702 1.13856 0.59265
 C922 C 0.48661 1.16080 0.57273
 C923 C 0.49033 1.18831 0.58507
 C924 C 0.48400 1.19462 0.61712
 C925 C 0.47355 1.17266 0.63657
 C926 C 0.47010 1.14504 0.62459
 C927 C 0.47518 1.10912 0.57879
 C928 C 0.46875 1.08504 0.59708
 C929 C 0.46931 1.05798 0.58337
 C930 C 0.47544 1.05407 0.55083
 C931 C 0.48147 1.07811 0.53247
 C932 C 0.48179 1.10528 0.54613
 C933 C 0.49272 1.15550 0.54058
 C934 C 0.49002 1.12843 0.52749
 H935 H 0.49982 1.17260 0.52527
 H936 H 0.49523 1.12544 0.50251
 H937 H 0.49894 1.20461 0.56957
 H938 H 0.46784 1.17669 0.66114
 H939 H 0.46570 1.04004 0.59867
 H940 H 0.48764 1.07581 0.50772
 H941 H 0.46196 1.12909 0.64067
 H942 H 0.46427 1.08660 0.62224
 C943 C -0.01426 0.63635 1.10400
 C944 C -0.02544 0.65854 1.08691
 C945 C -0.02346 0.68640 1.09894
 C946 C -0.00933 0.69302 1.12732
 C947 C 0.00187 0.67087 1.14404
 C948 C -0.00069 0.64299 1.13275
 C949 C -0.01632 0.60698 1.08994
 C950 C -0.00723 0.58322 1.10571
 C951 C -0.00812 0.55664 1.09091
 C952 C -0.01788 0.55270 1.05973
 C953 C -0.02811 0.57620 1.04445
 C954 C -0.02771 0.60302 1.05936
 C955 C -0.03773 0.65297 1.05740
 C956 C -0.03844 0.62594 1.04372
 H957 H -0.04626 0.66994 1.04421
 H958 H -0.04751 0.62296 1.02046
 H959 H -0.03260 0.70299 1.08574
 H960 H 0.01354 0.67500 1.16546
 H961 H -0.00051 0.53915 1.10397
 H962 H -0.03607 0.57407 1.02080
 H963 H 0.00885 0.62708 1.14643
 H964 H 0.00078 0.58472 1.12945
 C965 C 0.50908 0.65246 -0.07125
 C966 C 0.49900 0.67347 -0.05042
 C967 C 0.49278 0.70003 -0.06208
 C968 C 0.49783 0.70717 -0.09432
 C969 C 0.50835 0.68598 -0.11467
 C970 C 0.51375 0.65920 -0.10343
 C971 C 0.51403 0.62388 -0.05807
 C972 C 0.52068 0.60070 -0.07751
 C973 C 0.52241 0.57397 -0.06477
 C974 C 0.51885 0.56937 -0.03191
 C975 C 0.51335 0.59273 -0.01209
 C976 C 0.51012 0.61964 -0.02502
 C977 C 0.49541 0.66798 -0.01791
 C978 C 0.50135 0.64187 -0.00542
 H979 H 0.48801 0.68422 -0.00178
 H980 H 0.49815 0.63878 0.01985
 H981 H 0.48363 0.71480 -0.04550
 H982 H 0.51360 0.68983 -0.13929
 H983 H 0.52534 0.55665 -0.08137
 H984 H 0.50950 0.58964 0.01309
 H985 H 0.52218 0.64426 -0.12029
 H986 H 0.52313 0.60237 -0.10291
 C987 C -0.01286 1.15390 0.43065
 C988 C 0.00071 1.16039 0.40125
 C989 C -0.00298 1.18661 0.38698
 C990 C -0.02049 1.20642 0.40135
 C991 C -0.03548 1.19895 0.42929
 C992 C -0.03169 1.17318 0.44380
 C993 C -0.00701 1.12648 0.44612
 C994 C -0.01720 1.11919 0.47673
 C995 C -0.01232 1.09274 0.48933
 C996 C 0.00273 1.07275 0.47176
 C997 C 0.01410 1.08056 0.44184
 C998 C 0.00977 1.10721 0.42925
 C999 C 0.01800 1.14073 0.38641
 C1000 C 0.02197 1.11452 0.39979
 H1001 H 0.02830 1.14550 0.36383
 H1002 H 0.03507 1.09984 0.38699
 H1003 H 0.00870 1.19197 0.36542
 H1004 H -0.04976 1.21344 0.44048
 H1005 H -0.02126 1.08765 0.51247
 H1006 H 0.02593 1.06564 0.42779
 H1007 H -0.04357 1.16882 0.46537
 H1008 H -0.02918 1.13353 0.49119
 C1009 C 0.79630 0.67194 0.86881
 C1010 C 0.79288 0.68907 0.89631
 C1011 C 0.78837 0.67666 0.92602
 C1012 C 0.78625 0.64713 0.92882
 C1013 C 0.79228 0.63043 0.90186
 C1014 C 0.79727 0.64256 0.87228
 C1015 C 0.79557 0.68558 0.83711
 C1016 C 0.79614 0.67016 0.80833
 C1017 C 0.78869 0.68261 0.78020
 C1018 C 0.78068 0.71074 0.77986
 C1019 C 0.78493 0.72733 0.80750
 C1020 C 0.79138 0.71486 0.83618
 C1021 C 0.79190 0.71841 0.89376
 C1022 C 0.79115 0.73106 0.86425
 H1023 H 0.78998 0.73163 0.91487
 H1024 H 0.78858 0.75362 0.86349
 H1025 H 0.78491 0.69044 0.94618
 H1026 H 0.79154 0.60764 0.90340
 H1027 H 0.78884 0.66973 0.75908
 H1028 H 0.78048 0.74955 0.80765
 H1029 H 0.80044 0.62845 0.85232
 H1030 H 0.80088 0.64813 0.80721
 C1031 C 0.28851 0.17700 0.35974
 C1032 C 0.28741 0.14718 0.35923
 C1033 C 0.28301 0.13248 0.38758
 C1034 C 0.27878 0.14703 0.41654
 C1035 C 0.28325 0.17652 0.41722
 C1036 C 0.28801 0.19130 0.38923
 C1037 C 0.28727 0.19193 0.32891
 C1038 C 0.28472 0.22128 0.32707
 C1039 C 0.27682 0.23328 0.29886
 C1040 C 0.27138 0.21641 0.27172
 C1041 C 0.27876 0.18810 0.27222
 C1042 C 0.28559 0.17551 0.30069
 C1043 C 0.28886 0.13229 0.33030
 C1044 C 0.28825 0.14626 0.30153
 H1045 H 0.28895 0.10945 0.32987
 H1046 H 0.28787 0.13381 0.27979
 H1047 H 0.28089 0.10963 0.38689
 H1048 H 0.28252 0.18878 0.43893
 H1049 H 0.27303 0.25563 0.29917
 H1050 H 0.27787 0.17523 0.25114
 H1051 H 0.29021 0.21396 0.39120
 H1052 H 0.28689 0.23511 0.34751
 C1053 C 0.72448 0.32438 0.38817
 C1054 C 0.73087 0.35373 0.39049
 C1055 C 0.73719 0.36635 0.41981
 C1056 C 0.73920 0.35020 0.44722
 C1057 C 0.73217 0.32111 0.44510
 C1058 C 0.72505 0.30833 0.41597
 C1059 C 0.71920 0.31167 0.35583
 C1060 C 0.71168 0.28294 0.35038
 C1061 C 0.71153 0.27154 0.31941
 C1062 C 0.71937 0.28839 0.29325
 C1063 C 0.72431 0.31748 0.29878
 C1064 C 0.72360 0.32920 0.32933
 C1065 C 0.73202 0.37033 0.36337
 C1066 C 0.72912 0.35821 0.33335
 H1067 H 0.73670 0.39284 0.36523
 H1068 H 0.73183 0.37170 0.31290
 H1069 H 0.74091 0.38902 0.42116
 H1070 H 0.73177 0.30815 0.46598
 H1071 H 0.70765 0.24903 0.31631
 H1072 H 0.73179 0.33107 0.27993
 H1073 H 0.72047 0.28587 0.41556
 H1074 H 0.70699 0.26882 0.36977
 C1075 C 0.22301 0.82158 0.88273
 C1076 C 0.22581 0.80413 0.90920
 C1077 C 0.23266 0.81628 0.93898
 C1078 C 0.23669 0.84580 0.94247
 C1079 C 0.23153 0.86275 0.91639
 C1080 C 0.22470 0.85098 0.88715
 C1081 C 0.21962 0.80816 0.85073
 C1082 C 0.22288 0.82390 0.82301
 C1083 C 0.22567 0.81057 0.79377
 C1084 C 0.22316 0.78103 0.79039
 C1085 C 0.21703 0.76519 0.81793
 C1086 C 0.21681 0.77846 0.84816
 C1087 C 0.22186 0.77479 0.90553
 C1088 C 0.21685 0.76226 0.87572
 H1089 H 0.22319 0.76127 0.92586
 H1090 H 0.21473 0.73946 0.87399
 H1091 H 0.23454 0.80266 0.95904
 H1092 H 0.23267 0.88554 0.91872
 H1093 H 0.23298 0.82393 0.77475
 H1094 H 0.21609 0.74235 0.81634
 H1095 H 0.22079 0.86539 0.86840
 H1096 H 0.22642 0.84648 0.82344
 C1097 C 0.28522 0.83146 0.11711
 C1098 C 0.28739 0.81457 0.08938
 C1099 C 0.27843 0.82476 0.06013
 C1100 C 0.26611 0.85136 0.05829
 C1101 C 0.26323 0.86719 0.08668
 C1102 C 0.27283 0.85769 0.11525
 C1103 C 0.29317 0.81955 0.14808
 C1104 C 0.29154 0.83517 0.17645
 C1105 C 0.29079 0.82166 0.20528
 C1106 C 0.29434 0.79242 0.20737
 C1107 C 0.30141 0.77769 0.17902
 C1108 C 0.29990 0.79090 0.14930
 C1109 C 0.29725 0.78716 0.09145
 C1110 C 0.30285 0.77538 0.12085
 H1111 H 0.29920 0.77408 0.07024
 H1112 H 0.30863 0.75355 0.12140
 H1113 H 0.28121 0.81169 0.03913
 H1114 H 0.25226 0.88659 0.08803
 H1115 H 0.28356 0.83423 0.22492
 H1116 H 0.30434 0.75518 0.17962
 H1117 H 0.26906 0.87085 0.13586
 H1118 H 0.28817 0.85750 0.17701
 C1119 C 0.78940 0.32603 0.61794
 C1120 C 0.78461 0.30971 0.59009
 C1121 C 0.77574 0.32247 0.56240
 C1122 C 0.77047 0.35158 0.56167
 C1123 C 0.77560 0.36751 0.58981
 C1124 C 0.78500 0.35506 0.61722
 C1125 C 0.79585 0.31117 0.64787
 C1126 C 0.80123 0.32531 0.67694
 C1127 C 0.80015 0.31041 0.70535
 C1128 C 0.79280 0.28150 0.70529
 C1129 C 0.79410 0.26677 0.67599
 C1130 C 0.79467 0.28139 0.64738
 C1131 C 0.78703 0.28038 0.59048
 C1132 C 0.79156 0.26646 0.61865
 H1133 H 0.78374 0.26781 0.56906
 H1134 H 0.79135 0.24361 0.61815
 H1135 H 0.77160 0.30880 0.54219
 H1136 H 0.77219 0.38972 0.59181
 H1137 H 0.80361 0.32191 0.72724
 H1138 H 0.79093 0.24401 0.67522
 H1139 H 0.78771 0.36839 0.63804
 H1140 H 0.80495 0.34788 0.67834
 C1141 C 0.24103 0.17111 0.59172
 C1142 C 0.25426 0.14498 0.58827
 C1143 C 0.25468 0.13073 0.55892
 C1144 C 0.24448 0.14321 0.53195
 C1145 C 0.23105 0.16893 0.53522
 C1146 C 0.22898 0.18259 0.56485
 C1147 C 0.24206 0.18606 0.62340
 C1148 C 0.22725 0.21059 0.63090
 C1149 C 0.22924 0.22354 0.66107
 C1150 C 0.24663 0.21275 0.68401
 C1151 C 0.26190 0.18876 0.67605
 C1152 C 0.25872 0.17475 0.64696
 C1153 C 0.26867 0.13402 0.61352
 C1154 C 0.27154 0.14901 0.64192
 H1155 H 0.27894 0.11414 0.61080
 H1156 H 0.28376 0.14011 0.66041
 H1157 H 0.26484 0.11084 0.55669
 H1158 H 0.22266 0.17880 0.51468
 H1159 H 0.21705 0.24183 0.66649
 H1160 H 0.27521 0.17959 0.69329
 H1161 H 0.21905 0.20262 0.56599
 H1162 H 0.21358 0.21961 0.61406
 C1163 C 0.75061 0.68044 0.10243
 C1164 C 0.76493 0.65488 0.09951
 C1165 C 0.76449 0.63938 0.07100
 C1166 C 0.75217 0.65001 0.04422
 C1167 C 0.73818 0.67544 0.04676
 C1168 C 0.73698 0.69031 0.07569
 C1169 C 0.75203 0.69647 0.13338
 C1170 C 0.73584 0.72010 0.14074
 C1171 C 0.73774 0.73372 0.17053
 C1172 C 0.75640 0.72458 0.19314
 C1173 C 0.77328 0.70175 0.18515
 C1174 C 0.77019 0.68694 0.15655
 C1175 C 0.78108 0.64576 0.12432
 C1176 C 0.78436 0.66190 0.15186
 H1177 H 0.79227 0.62638 0.12192
 H1178 H 0.79777 0.65435 0.17008
 H1179 H 0.77549 0.61990 0.06909
 H1180 H 0.72860 0.68401 0.02614
 H1181 H 0.72428 0.75105 0.17604
 H1182 H 0.78757 0.69380 0.20217
 H1183 H 0.72640 0.70999 0.07637
 H1184 H 0.72101 0.72768 0.12422
 C1185 C 0.21323 0.60994 0.22612
 C1186 C 0.22127 0.58967 0.24801
 C1187 C 0.20893 0.56243 0.24724
 C1188 C 0.18809 0.55470 0.22524
 C1189 C 0.18072 0.57465 0.20293
 C1190 C 0.19331 0.60176 0.20310
 C1191 C 0.22472 0.63964 0.22998
 C1192 C 0.21742 0.66170 0.21023
 C1193 C 0.22647 0.68949 0.21685
 C1194 C 0.24283 0.69612 0.24346
 C1195 C 0.25216 0.67386 0.26159
 C1196 C 0.24290 0.64598 0.25548
 C1197 C 0.24041 0.59708 0.27181
 C1198 C 0.25094 0.62467 0.27550
 H1199 H 0.24664 0.58149 0.28850
 H1200 H 0.26502 0.62953 0.29490
 H1201 H 0.21417 0.54771 0.26537
 H1202 H 0.16412 0.57010 0.18632
 H1203 H 0.22046 0.70569 0.20106
 H1204 H 0.26548 0.67820 0.28176
 H1205 H 0.18622 0.61632 0.18594
 H1206 H 0.20442 0.65806 0.18981
 C1207 C 0.71350 0.10018 0.72553
 C1208 C 0.71992 0.08065 0.74899
 C1209 C 0.70767 0.05335 0.74812
 C1210 C 0.68818 0.04510 0.72478
 C1211 C 0.68282 0.06418 0.70072
 C1212 C 0.69553 0.09120 0.70088
 C1213 C 0.72436 0.13007 0.72943
 C1214 C 0.71825 0.15138 0.70814
 C1215 C 0.72612 0.17943 0.71469
 C1216 C 0.74020 0.18713 0.74262
 C1217 C 0.74857 0.16567 0.76252
 C1218 C 0.74032 0.13743 0.75650
 C1219 C 0.73713 0.08893 0.77432
 C1220 C 0.74705 0.11677 0.77805
 H1221 H 0.74217 0.07388 0.79219
 H1222 H 0.75949 0.12235 0.79865
 H1223 H 0.71160 0.03908 0.76721
 H1224 H 0.66766 0.05918 0.68261
 H1225 H 0.72089 0.19503 0.69773
 H1226 H 0.76018 0.17098 0.78379
 H1227 H 0.68989 0.10511 0.68230
 H1228 H 0.70702 0.14699 0.68656
 C1229 C 0.78508 0.11130 0.25662
 C1230 C 0.80268 0.10636 0.28232
 C1231 C 0.81539 0.08039 0.28458
 C1232 C 0.81055 0.05884 0.26170
 C1233 C 0.79082 0.06308 0.23809
 C1234 C 0.77810 0.08882 0.23567
 C1235 C 0.77609 0.14069 0.25179
 C1236 C 0.76257 0.14868 0.22420
 C1237 C 0.75696 0.17678 0.21931
 C1238 C 0.76471 0.19785 0.24167
 C1239 C 0.77652 0.18973 0.27022
 C1240 C 0.78336 0.16166 0.27478
 C1241 C 0.80868 0.12785 0.30469
 C1242 C 0.79871 0.15480 0.30133
 H1243 H 0.82176 0.12394 0.32475
 H1244 H 0.80431 0.17085 0.31896
 H1245 H 0.83065 0.07819 0.30286
 H1246 H 0.78670 0.04705 0.21998
 H1247 H 0.74681 0.18194 0.19754
 H1248 H 0.78200 0.20551 0.28819
 H1249 H 0.76379 0.09099 0.21646
 H1250 H 0.75688 0.13375 0.20562
 C1251 C 0.28668 0.60336 0.76948
 C1252 C 0.30653 0.59909 0.79312
 C1253 C 0.31772 0.57242 0.79625
 C1254 C 0.30895 0.54967 0.77641
 C1255 C 0.28671 0.55347 0.75575
 C1256 C 0.27550 0.57986 0.75253
 C1257 C 0.27985 0.63291 0.76209
 C1258 C 0.26532 0.63958 0.73475
 C1259 C 0.26145 0.66749 0.72717
 C1260 C 0.27182 0.68979 0.74664
 C1261 C 0.28534 0.68320 0.77475
 C1262 C 0.29058 0.65510 0.78176
 C1263 C 0.31622 0.62181 0.81218
 C1264 C 0.30773 0.64916 0.80719
 H1265 H 0.33096 0.61849 0.83085
 H1266 H 0.31604 0.66610 0.82229
 H1267 H 0.33501 0.57034 0.81214
 H1268 H 0.27954 0.53660 0.73990
 H1269 H 0.25047 0.67141 0.70557
 H1270 H 0.29299 0.70000 0.79047
 H1271 H 0.25906 0.58167 0.73556
 H1272 H 0.25755 0.62360 0.71827
 C1273 C 0.30107 0.39030 0.75728
 C1274 C 0.28904 0.40856 0.73566
 C1275 C 0.29903 0.43681 0.73383
 C1276 C 0.32191 0.44650 0.75201
 C1277 C 0.33497 0.42778 0.77169
 C1278 C 0.32464 0.40007 0.77449
 C1279 C 0.28901 0.36089 0.75994
 C1280 C 0.29681 0.34273 0.78380
 C1281 C 0.28703 0.31476 0.78380
 C1282 C 0.26947 0.30368 0.75993
 C1283 C 0.25960 0.32252 0.73756
 C1284 C 0.26893 0.35107 0.73775
 C1285 C 0.26769 0.39823 0.71566
 C1286 C 0.25845 0.36986 0.71600
 H1287 H 0.25861 0.41206 0.69881
 H1288 H 0.24265 0.36263 0.69929
 H1289 H 0.28929 0.45118 0.71808
 H1290 H 0.35274 0.43480 0.78577
 H1291 H 0.29581 0.30139 0.80081
 H1292 H 0.24513 0.31504 0.71950
 H1293 H 0.33555 0.38658 0.79000
 H1294 H 0.31091 0.34953 0.80238
 C1295 C 0.80643 0.90153 0.25742
 C1296 C 0.79095 0.91967 0.23895
 C1297 C 0.80095 0.94758 0.23418
 C1298 C 0.82746 0.95702 0.24529
 C1299 C 0.84394 0.93767 0.26071
 C1300 C 0.83338 0.91052 0.26721
 C1301 C 0.79431 0.87270 0.26399
 C1302 C 0.80509 0.85537 0.28705
 C1303 C 0.79512 0.82752 0.28990
 C1304 C 0.77507 0.81581 0.26900
 C1305 C 0.76176 0.83422 0.24869
 C1306 C 0.77089 0.86268 0.24660
 C1307 C 0.76619 0.90943 0.22457
 C1308 C 0.75700 0.88117 0.22726
 H1309 H 0.75444 0.92311 0.20992
 H1310 H 0.73856 0.87382 0.21444
 H1311 H 0.78849 0.96166 0.22083
 H1312 H 0.86440 0.94378 0.26977
 H1313 H 0.80541 0.81461 0.30639
 H1314 H 0.74478 0.82644 0.23381
 H1315 H 0.84667 0.89670 0.27965
 H1316 H 0.82157 0.86288 0.30265
 C1317 C 0.70161 0.88605 0.74784
 C1318 C 0.70956 0.90455 0.72292
 C1319 C 0.70004 0.93209 0.72323
 C1320 C 0.68182 0.94130 0.74747
 C1321 C 0.67325 0.92283 0.77162
 C1322 C 0.68320 0.89556 0.77205
 C1323 C 0.71212 0.85673 0.74646
 C1324 C 0.70696 0.83724 0.77092
 C1325 C 0.71541 0.80955 0.76745
 C1326 C 0.72885 0.80035 0.73942
 C1327 C 0.73622 0.82037 0.71612
 C1328 C 0.72786 0.84827 0.71935
 C1329 C 0.72616 0.89521 0.69731
 C1330 C 0.73477 0.86754 0.69534
 H1331 H 0.73200 0.90931 0.67809
 H1332 H 0.74692 0.86109 0.67461
 H1333 H 0.70594 0.94609 0.70391
 H1334 H 0.65887 0.92955 0.79023
 H1335 H 0.71107 0.79537 0.78681
 H1336 H 0.74737 0.81407 0.69464
 H1337 H 0.67577 0.88212 0.79110
 H1338 H 0.69637 0.84291 0.79284
 C1339 C 0.20195 0.39486 0.24235
 C1340 C 0.18134 0.40201 0.26550
 C1341 C 0.17209 0.42974 0.26770
 C1342 C 0.18339 0.45058 0.24739
 C1343 C 0.20455 0.44361 0.22534
 C1344 C 0.21378 0.41623 0.22287
 C1345 C 0.20981 0.36473 0.23910
 C1346 C 0.22841 0.35526 0.21522
 C1347 C 0.23392 0.32680 0.21196
 C1348 C 0.22107 0.30675 0.23235
 C1349 C 0.20353 0.31624 0.25718
 C1350 C 0.19728 0.34484 0.26022
 C1351 C 0.16989 0.38137 0.28592
 C1352 C 0.17793 0.35345 0.28358
 H1353 H 0.15431 0.38683 0.30386
 H1354 H 0.16830 0.33822 0.29979
 H1355 H 0.15591 0.43505 0.28498
 H1356 H 0.21333 0.45912 0.20897
 H1357 H 0.24782 0.32059 0.19267
 H1358 H 0.19411 0.30143 0.27378
 H1359 H 0.22988 0.41227 0.20519
 H1360 H 0.23847 0.36929 0.19823
 C1361 C 0.10457 0.22957 0.78517
 C1362 C 0.09455 0.25685 0.79058
 C1363 C 0.07190 0.26081 0.81208
 C1364 C 0.05893 0.23774 0.82820
 C1365 C 0.06674 0.21044 0.81898
 C1366 C 0.08939 0.20640 0.79821
 C1367 C 0.13151 0.22660 0.76674
 C1368 C 0.14651 0.20184 0.76738
 C1369 C 0.17433 0.20176 0.75682
 C1370 C 0.18781 0.22567 0.74299
 C1371 C 0.17139 0.24935 0.73837
 C1372 C 0.14423 0.25065 0.75221
 C1373 C 0.10743 0.27984 0.77467
 C1374 C 0.13128 0.27664 0.75513
 H1375 H 0.09930 0.30071 0.77784
 H1376 H 0.14089 0.29522 0.74413
 H1377 H 0.06453 0.28185 0.81633
 H1378 H 0.05533 0.19188 0.82765
 H1379 H 0.18574 0.18389 0.76369
 H1380 H 0.18120 0.26842 0.72863
 H1381 H 0.09463 0.18496 0.79250
 H1382 H 0.13833 0.18328 0.77943
 C1383 C 0.61049 0.73349 0.28519
 C1384 C 0.59868 0.76007 0.28962
 C1385 C 0.57531 0.76288 0.31031
 C1386 C 0.56373 0.73938 0.32684
 C1387 C 0.57302 0.71254 0.31816
 C1388 C 0.59622 0.70959 0.29789
 C1389 C 0.63859 0.73215 0.26890
 C1390 C 0.65508 0.70859 0.27151
 C1391 C 0.68350 0.71036 0.26359
 C1392 C 0.69629 0.73482 0.25018
 C1393 C 0.67883 0.75731 0.24383
 C1394 C 0.65071 0.75685 0.25510
 C1395 C 0.61085 0.78362 0.27409
 C1396 C 0.63594 0.78183 0.25639
 H1397 H 0.60131 0.80391 0.27643
 H1398 H 0.64501 0.80086 0.24582
 H1399 H 0.56672 0.78347 0.31405
 H1400 H 0.56278 0.69362 0.32760
 H1401 H 0.69555 0.69346 0.27194
 H1402 H 0.68809 0.77683 0.23459
 H1403 H 0.60292 0.68851 0.29282
 H1404 H 0.64732 0.68970 0.28322
 C1405 C 0.59610 0.26037 0.18275
 C1406 C 0.59296 0.27314 0.15299
 C1407 C 0.56738 0.27098 0.13758
 C1408 C 0.54356 0.25731 0.15132
 C1409 C 0.54622 0.24503 0.18125
 C1410 C 0.57221 0.24651 0.19680
 C1411 C 0.62499 0.26171 0.19698
 C1412 C 0.63183 0.24853 0.22554
 C1413 C 0.65972 0.24947 0.23632
 C1414 C 0.68134 0.26366 0.21894
 C1415 C 0.67415 0.27726 0.19102
 C1416 C 0.64681 0.27636 0.18004
 C1417 C 0.61547 0.28772 0.13807
 C1418 C 0.64172 0.28952 0.15144
 H1419 H 0.61281 0.29775 0.11545
 H1420 H 0.65854 0.30087 0.13870
 H1421 H 0.56621 0.27958 0.11398
 H1422 H 0.52862 0.23355 0.19223
 H1423 H 0.66444 0.23865 0.25786
 H1424 H 0.69006 0.28870 0.17708
 H1425 H 0.57339 0.23644 0.21949
 H1426 H 0.61602 0.23701 0.23939
 C1427 C 0.10442 0.75423 0.67918
 C1428 C 0.10200 0.76504 0.64828
 C1429 C 0.07602 0.76484 0.63372
 C1430 C 0.05148 0.75425 0.64898
 C1431 C 0.05356 0.74375 0.67988
 C1432 C 0.07971 0.74385 0.69488
 C1433 C 0.13339 0.75366 0.69289
 C1434 C 0.13913 0.74334 0.72331
 C1435 C 0.16693 0.74301 0.73414
 C1436 C 0.18956 0.75280 0.71480
 C1437 C 0.18359 0.76297 0.68460
 C1438 C 0.15627 0.76380 0.67385
 C1439 C 0.12558 0.77542 0.63134
 C1440 C 0.15212 0.77480 0.64383
 H1441 H 0.12355 0.78383 0.60776
 H1442 H 0.16977 0.78286 0.62954
 H1443 H 0.07499 0.77221 0.60954
 H1444 H 0.03537 0.73466 0.69224
 H1445 H 0.17070 0.73516 0.75759
 H1446 H 0.20025 0.77116 0.66907
 H1447 H 0.08034 0.73524 0.71839
 H1448 H 0.12244 0.73552 0.73894
 C1449 C 0.88933 0.72800 0.66058
 C1450 C 0.89439 0.74189 0.63142
 C1451 C 0.92207 0.74601 0.61940
 C1452 C 0.94496 0.73578 0.63561
 C1453 C 0.93945 0.72029 0.66337
 C1454 C 0.91217 0.71657 0.67578
 C1455 C 0.85988 0.72634 0.67412
 C1456 C 0.85330 0.71642 0.70480
 C1457 C 0.82592 0.71709 0.71726
 C1458 C 0.80389 0.72689 0.69938
 C1459 C 0.81031 0.73610 0.66827
 C1460 C 0.83804 0.73666 0.65599
 C1461 C 0.87179 0.75172 0.61461
 C1462 C 0.84419 0.74864 0.62631
 H1463 H 0.87548 0.76198 0.59203
 H1464 H 0.82751 0.75665 0.61236
 H1465 H 0.92566 0.75794 0.59792
 H1466 H 0.95630 0.71099 0.67583
 H1467 H 0.82260 0.71040 0.74126
 H1468 H 0.79389 0.74398 0.65383
 H1469 H 0.90944 0.70466 0.69727
 H1470 H 0.86920 0.70901 0.72007
 C1471 C 0.37961 0.23412 0.15305
 C1472 C 0.40060 0.22349 0.17228
 C1473 C 0.42898 0.22507 0.16213
 C1474 C 0.43720 0.23835 0.13356
 C1475 C 0.41621 0.24930 0.11494
 C1476 C 0.38792 0.24703 0.12432
 C1477 C 0.34963 0.23250 0.16498
 C1478 C 0.32700 0.24074 0.14685
 C1479 C 0.29976 0.24056 0.15980
 C1480 C 0.29405 0.23241 0.19137
 C1481 C 0.31648 0.22298 0.20900
 C1482 C 0.34391 0.22249 0.19595
 C1483 C 0.39326 0.21226 0.20203
 C1484 C 0.36565 0.21226 0.21384
 H1485 H 0.40926 0.20414 0.21687
 H1486 H 0.36127 0.20413 0.23739
 H1487 H 0.44468 0.21635 0.17690
 H1488 H 0.42149 0.26060 0.09344
 H1489 H 0.28316 0.24752 0.14501
 H1490 H 0.31313 0.21642 0.23309
 H1491 H 0.37298 0.25636 0.10920
 H1492 H 0.32988 0.24749 0.12264
 C1493 C 0.40642 0.75359 0.32466
 C1494 C 0.42494 0.73576 0.30807
 C1495 C 0.45129 0.73064 0.32055
 C1496 C 0.46024 0.74387 0.34895
 C1497 C 0.44174 0.76134 0.36549
 C1498 C 0.41516 0.76606 0.35366
 C1499 C 0.37842 0.75845 0.31042
 C1500 C 0.35792 0.77454 0.32581
 C1501 C 0.33166 0.77719 0.31250
 C1502 C 0.32505 0.76452 0.28296
 C1503 C 0.34581 0.74924 0.26690
 C1504 C 0.37209 0.74571 0.28062
 C1505 C 0.41735 0.72360 0.27877
 C1506 C 0.39165 0.72870 0.26520
 H1507 H 0.43163 0.71009 0.26595
 H1508 H 0.38684 0.71879 0.24248
 H1509 H 0.46508 0.71666 0.30770
 H1510 H 0.44810 0.77231 0.38706
 H1511 H 0.31624 0.78886 0.32592
 H1512 H 0.34116 0.73895 0.24435
 H1513 H 0.40211 0.78007 0.36724
 H1514 H 0.36136 0.78459 0.34862
 C1515 C 0.90258 0.25782 0.81871
 C1516 C 0.90538 0.25065 0.85095
 C1517 C 0.93215 0.24720 0.86362
 C1518 C 0.95676 0.25059 0.84461
 C1519 C 0.95352 0.25837 0.81268
 C1520 C 0.92710 0.26190 0.80002
 C1521 C 0.87359 0.26032 0.80581
 C1522 C 0.86844 0.26640 0.77379
 C1523 C 0.84097 0.26685 0.76265
 C1524 C 0.81779 0.26166 0.78312
 C1525 C 0.82292 0.25637 0.81530
 C1526 C 0.85034 0.25549 0.82662
 C1527 C 0.88135 0.24660 0.87034
 C1528 C 0.85448 0.24901 0.85847
 H1529 H 0.88333 0.24126 0.89508
 H1530 H 0.83661 0.24535 0.87444
 H1531 H 0.93331 0.24073 0.88802
 H1532 H 0.97141 0.26279 0.79711
 H1533 H 0.83810 0.27044 0.73771
 H1534 H 0.80549 0.25197 0.83167
 H1535 H 0.92640 0.26796 0.77551
 H1536 H 0.88531 0.27021 0.75675
 C1537 C 0.57128 0.95121 0.64879
 C1538 C 0.60000 0.95085 0.63950
 C1539 C 0.62072 0.96109 0.66047
 C1540 C 0.61311 0.97102 0.69083
 C1541 C 0.58503 0.96879 0.70106
 C1542 C 0.56425 0.95911 0.68029
 C1543 C 0.54971 0.94599 0.62381
 C1544 C 0.52107 0.95078 0.62928
 C1545 C 0.50342 0.95418 0.60379
 C1546 C 0.51391 0.95251 0.57240
 C1547 C 0.54032 0.94097 0.56724
 C1548 C 0.55898 0.93955 0.59249
 C1549 C 0.60767 0.94146 0.60894
 C1550 C 0.58747 0.93532 0.58605
 H1551 H 0.62964 0.94012 0.60215
 H1552 H 0.59453 0.92966 0.56225
 H1553 H 0.64264 0.96205 0.65296
 H1554 H 0.57902 0.97581 0.72477
 H1555 H 0.48243 0.96108 0.60895
 H1556 H 0.54789 0.93698 0.54326
 H1557 H 0.54283 0.95879 0.68908
 H1558 H 0.51245 0.95463 0.65275
 C1559 C 0.07491 0.45425 1.14958
 C1560 C 0.10355 0.45669 1.13982
 C1561 C 0.12353 0.46900 1.16041
 C1562 C 0.11536 0.47843 1.19078
 C1563 C 0.08755 0.47385 1.20132
 C1564 C 0.06746 0.46205 1.18097
 C1565 C 0.05358 0.44631 1.12511
 C1566 C 0.02450 0.44775 1.13105
 C1567 C 0.00622 0.44940 1.10581
 C1568 C 0.01668 0.44929 1.07435
 C1569 C 0.04390 0.43990 1.06883
 C1570 C 0.06308 0.44065 1.09370
 C1571 C 0.11174 0.44791 1.10920
 C1572 C 0.09187 0.43947 1.08674
 H1573 H 0.13373 0.44882 1.10204
 H1574 H 0.09915 0.43432 1.06288
 H1575 H 0.14532 0.47175 1.15270
 H1576 H 0.08114 0.48043 1.22506
 H1577 H -0.01537 0.45425 1.11119
 H1578 H 0.05141 0.43609 1.04485
 H1579 H 0.04616 0.45995 1.19002
 H1580 H 0.01575 0.45048 1.15467
 C1581 C -0.07179 0.03477 1.14546
 C1582 C -0.10050 0.03996 1.14181
 C1583 C -0.11957 0.03504 1.16711
 C1584 C -0.11069 0.02415 1.19589
 C1585 C -0.08250 0.01783 1.19900
 C1586 C -0.06317 0.02319 1.17416
 C1587 C -0.05222 0.03975 1.11768
 C1588 C -0.02307 0.03706 1.11940
 C1589 C -0.00672 0.03554 1.09166
 C1590 C -0.01923 0.03617 1.06167
 C1591 C -0.04664 0.04570 1.06041
 C1592 C -0.06361 0.04643 1.08812
 C1593 C -0.11015 0.04919 1.11267
 C1594 C -0.09216 0.05188 1.08620
 H1595 H -0.13217 0.05321 1.10990
 H1596 H -0.10089 0.05752 1.06374
 H1597 H -0.14154 0.03932 1.16428
 H1598 H -0.07526 0.00941 1.22094
 H1599 H 0.01515 0.03068 1.09385
 H1600 H -0.05562 0.05004 1.03779
 H1601 H -0.04170 0.01779 1.17768
 H1602 H -0.01286 0.03441 1.14171
 C1603 C 0.42592 0.52935 0.65754
 C1604 C 0.39781 0.53690 0.65423
 C1605 C 0.37806 0.53114 0.67873
 C1606 C 0.38562 0.51662 0.70593
 C1607 C 0.41298 0.50730 0.70788
 C1608 C 0.43303 0.51384 0.68423
 C1609 C 0.44643 0.53593 0.63113
 C1610 C 0.47532 0.53211 0.63361
 C1611 C 0.49257 0.53261 0.60652
 C1612 C 0.48122 0.53649 0.57637
 C1613 C 0.45401 0.54660 0.57511
 C1614 C 0.43622 0.54564 0.60220
 C1615 C 0.38942 0.54915 0.62604
 C1616 C 0.40807 0.55271 0.60022
 H1617 H 0.36781 0.55480 0.62336
 H1618 H 0.40023 0.56062 0.57825
 H1619 H 0.35662 0.53742 0.67633
 H1620 H 0.41915 0.49538 0.72798
 H1621 H 0.51419 0.52697 0.60899
 H1622 H 0.44579 0.55295 0.55280
 H1623 H 0.45381 0.50609 0.68689
 H1624 H 0.48462 0.52724 0.65590
 C1625 C 0.42520 0.46850 -0.14596
 C1626 C 0.39602 0.46482 -0.13939
 C1627 C 0.37658 0.47349 -0.16153
 C1628 C 0.38593 0.48580 -0.19009
 C1629 C 0.41467 0.48811 -0.19718
 C1630 C 0.43414 0.47956 -0.17550
 C1631 C 0.44516 0.46338 -0.11991
 C1632 C 0.47426 0.46912 -0.12309
 C1633 C 0.49071 0.47203 -0.09624
 C1634 C 0.47857 0.46890 -0.06571
 C1635 C 0.45140 0.45642 -0.06327
 C1636 C 0.43404 0.45523 -0.08989
 C1637 C 0.38654 0.45381 -0.11022
 C1638 C 0.40522 0.44887 -0.08604
 H1639 H 0.36425 0.45031 -0.10543
 H1640 H 0.39674 0.44189 -0.06328
 H1641 H 0.35423 0.47139 -0.15624
 H1642 H 0.42219 0.49784 -0.21889
 H1643 H 0.51237 0.47938 -0.09948
 H1644 H 0.44262 0.45082 -0.04024
 H1645 H 0.45604 0.48279 -0.18192
 H1646 H 0.48435 0.47363 -0.14568
 C1647 C -0.08382 0.97527 0.35434
 C1648 C -0.11273 0.98023 0.35899
 C1649 C -0.12853 0.98956 0.33387
 C1650 C -0.11589 0.99492 0.30412
 C1651 C -0.08776 0.98845 0.29885
 C1652 C -0.07181 0.97877 0.32366
 C1653 C -0.06689 0.96930 0.38294
 C1654 C -0.03774 0.96548 0.38153
 C1655 C -0.02204 0.96680 0.40926
 C1656 C -0.03501 0.97212 0.43899
 C1657 C -0.06451 0.97102 0.44068
 C1658 C -0.08042 0.97016 0.41310
 C1659 C -0.12540 0.97753 0.38912
 C1660 C -0.10953 0.97283 0.41569
 H1661 H -0.14765 0.98078 0.39253
 H1662 H -0.11999 0.97277 0.43881
 H1663 H -0.15057 0.99361 0.33780
 H1664 H -0.07778 0.99197 0.27587
 H1665 H 0.00062 0.96660 0.40687
 H1666 H -0.07546 0.97421 0.46287
 H1667 H -0.04994 0.97520 0.31867
 H1668 H -0.02646 0.96332 0.35920
 C1669 C 0.07314 0.51102 0.34419
 C1670 C 0.08625 0.48567 0.33540
 C1671 C 0.10565 0.48514 0.30995
 C1672 C 0.11240 0.50952 0.29275
 C1673 C 0.09869 0.53443 0.30075
 C1674 C 0.07939 0.53524 0.32615
 C1675 C 0.05397 0.51103 0.37295
 C1676 C 0.04047 0.53518 0.38473
 C1677 C 0.02482 0.53432 0.41334
 C1678 C 0.02269 0.50953 0.43103
 C1679 C 0.03414 0.48496 0.41782
 C1680 C 0.04997 0.48560 0.38964
 C1681 C 0.08046 0.46104 0.35244
 C1682 C 0.06261 0.46098 0.37892
 H1683 H 0.09026 0.44159 0.34554
 H1684 H 0.05924 0.44146 0.39170
 H1685 H 0.11618 0.46584 0.30434
 H1686 H 0.10281 0.55346 0.28735
 H1687 H 0.01555 0.55339 0.42230
 H1688 H 0.03175 0.46505 0.42994
 H1689 H 0.06981 0.55503 0.33142
 H1690 H 0.04233 0.55505 0.37265
 C1691 C 0.57446 0.00183 -0.15404
 C1692 C 0.58200 0.02699 -0.17003
 C1693 C 0.60059 0.02628 -0.19638
 C1694 C 0.61286 0.00092 -0.20625
 C1695 C 0.60562 -0.02378 -0.18980
 C1696 C 0.58670 -0.02342 -0.16417
 C1697 C 0.55489 0.00336 -0.12592
 C1698 C 0.54477 -0.02086 -0.11026
 C1699 C 0.52927 -0.01864 -0.08226
 C1700 C 0.52303 0.00783 -0.06869
 C1701 C 0.53015 0.03211 -0.08625
 C1702 C 0.54641 0.03004 -0.11461
 C1703 C 0.57164 0.05273 -0.15896
 C1704 C 0.55465 0.05429 -0.13151
 H1705 H 0.57747 0.07209 -0.17114
 H1706 H 0.54798 0.07478 -0.12333
 H1707 H 0.60561 0.04561 -0.20895
 H1708 H 0.61516 -0.04345 -0.19605
 H1709 H 0.52280 -0.03821 -0.07093
 H1710 H 0.52419 0.05258 -0.07726
 H1711 H 0.58265 -0.04306 -0.15210
 H1712 H 0.54885 -0.04183 -0.11892
 C1713 C 0.65794 0.55343 -0.02250
 C1714 C 0.66405 0.57528 -0.04431
 C1715 C 0.69014 0.58992 -0.04405
 C1716 C 0.71102 0.58288 -0.02288
 C1717 C 0.70533 0.56050 -0.00202
 C1718 C 0.67912 0.54602 -0.00169
 C1719 C 0.62890 0.53989 -0.02206
 C1720 C 0.61977 0.51929 0.00000
 C1721 C 0.59165 0.50956 0.00131
 C1722 C 0.57191 0.52021 -0.01925
 C1723 C 0.58160 0.53851 -0.04317
 C1724 C 0.60942 0.54908 -0.04413
 C1725 C 0.64398 0.58283 -0.06604
 C1726 C 0.61734 0.56979 -0.06618
 H1727 H 0.64883 0.59934 -0.08300
 H1728 H 0.60239 0.57672 -0.08313
 H1729 H 0.69366 0.60748 -0.05991
 H1730 H 0.72112 0.55401 0.01408
 H1731 H 0.58518 0.49479 0.01962
 H1732 H 0.56735 0.54550 -0.06055
 H1733 H 0.67585 0.52921 0.01507
 H1734 H 0.63370 0.51122 0.01719
 C1735 C 0.14817 1.06135 0.46082
 C1736 C 0.15440 1.08877 0.47336
 C1737 C 0.18225 1.09919 0.47484
 C1738 C 0.20420 1.08293 0.46362
 C1739 C 0.19838 1.05593 0.45097
 C1740 C 0.17063 1.04509 0.44971
 C1741 C 0.11797 1.05088 0.46052
 C1742 C 0.10925 1.02352 0.45017
 C1743 C 0.08108 1.01407 0.45341
 C1744 C 0.06087 1.03172 0.46676
 C1745 C 0.06931 1.05958 0.47505
 C1746 C 0.09738 1.06906 0.47252
 C1747 C 0.13285 1.10580 0.48424
 C1748 C 0.10495 1.09619 0.48371
 H1749 H 0.13766 1.12683 0.49360
 H1750 H 0.08906 1.11006 0.49286
 H1751 H 0.18692 1.12028 0.48418
 H1752 H 0.21531 1.04337 0.44183
 H1753 H 0.07546 0.99245 0.44682
 H1754 H 0.05468 1.07336 0.48668
 H1755 H 0.16719 1.02417 0.43978
 H1756 H 0.12398 1.00878 0.44060
 C1757 C 0.14800 -0.06351 1.03658
 C1758 C 0.14749 -0.09345 1.03554
 C1759 C 0.17238 -0.10768 1.03224
 C1760 C 0.19779 -0.09277 1.02699
 C1761 C 0.19900 -0.06329 1.02988
 C1762 C 0.17426 -0.04868 1.03503
 C1763 C 0.12049 -0.04932 1.03516
 C1764 C 0.11752 -0.01979 1.03730
 C1765 C 0.09127 -0.00807 1.03245
 C1766 C 0.06792 -0.02547 1.02404
 C1767 C 0.07154 -0.05464 1.02154
 C1768 C 0.09643 -0.06663 1.02914
 C1769 C 0.12216 -0.10918 1.03395
 C1770 C 0.09722 -0.09603 1.02964
 H1771 H 0.12187 -0.13204 1.03338
 H1772 H 0.07828 -0.10909 1.02617
 H1773 H 0.17166 -0.13053 1.03004
 H1774 H 0.21867 -0.05153 1.02576
 H1775 H 0.08952 0.01458 1.03424
 H1776 H 0.05563 -0.06855 1.01139
 H1777 H 0.17578 -0.02591 1.03534
 H1778 H 0.13518 -0.00565 1.04267
 C1779 C 0.64794 0.43600 0.54463
 C1780 C 0.64679 0.40650 0.53835
 C1781 C 0.67137 0.39174 0.53562
 C1782 C 0.69745 0.40616 0.53517
 C1783 C 0.69912 0.43503 0.54299
 C1784 C 0.67449 0.44983 0.54822
 C1785 C 0.62113 0.45138 0.54305
 C1786 C 0.61836 0.48014 0.55148
 C1787 C 0.59275 0.49334 0.54721
 C1788 C 0.57005 0.47843 0.53304
 C1789 C 0.57370 0.45022 0.52379
 C1790 C 0.59757 0.43624 0.53096
 C1791 C 0.62152 0.39229 0.53085
 C1792 C 0.59767 0.40707 0.52585
 H1793 H 0.62073 0.36975 0.52611
 H1794 H 0.57899 0.39548 0.51779
 H1795 H 0.67019 0.36935 0.52985
 H1796 H 0.71924 0.44651 0.54267
 H1797 H 0.59094 0.51524 0.55429
 H1798 H 0.55794 0.43857 0.51034
 H1799 H 0.67649 0.47233 0.55248
 H1800 H 0.63560 0.49244 0.56169
 C1801 C -0.15639 0.45827 0.51192
 C1802 C -0.17229 0.45954 0.48417
 C1803 C -0.19796 0.44402 0.48228
 C1804 C -0.20773 0.42730 0.50786
 C1805 C -0.19337 0.42907 0.53650
 C1806 C -0.16822 0.44468 0.53871
 C1807 C -0.12692 0.46979 0.51107
 C1808 C -0.10788 0.46277 0.53416
 C1809 C -0.07984 0.47085 0.53101
 C1810 C -0.06968 0.48750 0.50560
 C1811 C -0.08869 0.49476 0.48226
 C1812 C -0.11702 0.48506 0.48425
 C1813 C -0.16180 0.47535 0.45835
 C1814 C -0.13498 0.48856 0.45878
 H1815 H -0.17426 0.47708 0.43730
 H1816 H -0.12759 0.50016 0.43809
 H1817 H -0.20960 0.44385 0.46044
 H1818 H -0.20038 0.41696 0.55680
 H1819 H -0.06594 0.46210 0.54774
 H1820 H -0.08122 0.50650 0.46170
 H1821 H -0.15788 0.44494 0.56125
 H1822 H -0.11375 0.44930 0.55378
 C1823 C 0.34501 -0.04723 0.00583
 C1824 C 0.33017 -0.04685 -0.02280
 C1825 C 0.30483 -0.06286 -0.02563
 C1826 C 0.29417 -0.07897 -0.00003
 C1827 C 0.30795 -0.07729 0.02900
 C1828 C 0.33278 -0.06134 0.03208
 C1829 C 0.37378 -0.03385 0.00664
 C1830 C 0.39188 -0.03858 0.03155
 C1831 C 0.41950 -0.02867 0.03009
 C1832 C 0.43008 -0.01253 0.00447
 C1833 C 0.41191 -0.00723 -0.02046
 C1834 C 0.38412 -0.01861 -0.02000
 C1835 C 0.34113 -0.03104 -0.04839
 C1836 C 0.36729 -0.01664 -0.04672
 H1837 H 0.32951 -0.03013 -0.07016
 H1838 H 0.37507 -0.00505 -0.06726
 H1839 H 0.29381 -0.06334 -0.04789
 H1840 H 0.30039 -0.08937 0.04921
 H1841 H 0.43296 -0.03595 0.04818
 H1842 H 0.41978 0.00420 -0.04107
 H1843 H 0.34232 -0.06092 0.05507
 H1844 H 0.38583 -0.05160 0.05146
 C1845 C 0.34289 1.04010 0.51555
 C1846 C 0.32911 1.03337 0.48674
 C1847 C 0.30710 1.04968 0.47692
 C1848 C 0.29912 1.07317 0.49491
 C1849 C 0.31217 1.07950 0.52371
 C1850 C 0.33362 1.06301 0.53418
 C1851 C 0.36858 1.02453 0.52312
 C1852 C 0.38442 1.03016 0.55055
 C1853 C 0.41107 1.01934 0.55328
 C1854 C 0.42251 1.00277 0.52877
 C1855 C 0.40492 0.99347 0.50393
 C1856 C 0.37847 1.00472 0.50054
 C1857 C 0.33862 1.01172 0.46681
 C1858 C 0.36293 0.99783 0.47345
 H1859 H 0.32795 1.00642 0.44491
 H1860 H 0.37032 0.98231 0.45639
 H1861 H 0.29728 1.04521 0.45428
 H1862 H 0.30709 1.09826 0.53718
 H1863 H 0.42320 1.02528 0.57381
 H1864 H 0.41270 0.97962 0.48534
 H1865 H 0.34365 1.06951 0.55596
 H1866 H 0.37719 1.04383 0.56946
 C1867 C -0.15337 0.54413 1.03484
 C1868 C -0.17134 0.53390 1.01047
 C1869 C -0.19308 0.55042 1.00027
 C1870 C -0.19649 0.57743 1.01323
 C1871 C -0.17935 0.58725 1.03789
 C1872 C -0.15824 0.57069 1.04894
 C1873 C -0.12789 0.52798 1.04165
 C1874 C -0.10823 0.53682 1.06463
 C1875 C -0.08183 0.52520 1.06491
 C1876 C -0.07443 0.50471 1.04219
 C1877 C -0.09568 0.49232 1.02317
 C1878 C -0.12211 0.50422 1.02224
 C1879 C -0.16605 0.50842 0.99462
 C1880 C -0.14176 0.49403 1.00015
 H1881 H -0.17995 0.50043 0.97622
 H1882 H -0.13760 0.47547 0.98573
 H1883 H -0.20600 0.54324 0.98060
 H1884 H -0.18113 0.60848 1.04730
 H1885 H -0.06679 0.53353 1.08182
 H1886 H -0.09089 0.47540 1.00658
 H1887 H -0.14492 0.57983 1.06710
 H1888 H -0.11230 0.55354 1.08155
 C1889 C 0.00735 0.65628 0.51778
 C1890 C 0.03266 0.66913 0.52874
 C1891 C 0.03234 0.69487 0.54532
 C1892 C 0.00686 0.70626 0.55572
 C1893 C -0.01836 0.69376 0.54452
 C1894 C -0.01810 0.66936 0.52515
 C1895 C 0.00853 0.62746 0.50279
 C1896 C -0.01416 0.61402 0.48712
 C1897 C -0.01359 0.58529 0.47908
 C1898 C 0.00909 0.56901 0.48779
 C1899 C 0.03284 0.58336 0.50044
 C1900 C 0.03323 0.61250 0.50628
 C1901 C 0.05776 0.65480 0.52637
 C1902 C 0.05773 0.62651 0.51701
 H1903 H 0.07720 0.66472 0.53468
 H1904 H 0.07707 0.61540 0.51847
 H1905 H 0.05216 0.70463 0.55256
 H1906 H -0.03839 0.70178 0.55207
 H1907 H -0.03225 0.57536 0.46890
 H1908 H 0.05018 0.57194 0.50885
 H1909 H -0.03804 0.65976 0.51819
 H1910 H -0.03274 0.62526 0.48189
 C1911 C 0.50540 0.15709 0.01841
 C1912 C 0.53008 0.16969 0.03138
 C1913 C 0.52903 0.19532 0.04818
 C1914 C 0.50315 0.20681 0.05687
 C1915 C 0.47859 0.19452 0.04368
 C1916 C 0.47975 0.17030 0.02409
 C1917 C 0.50720 0.12834 0.00323
 C1918 C 0.48532 0.11492 -0.01399
 C1919 C 0.48646 0.08625 -0.02259
 C1920 C 0.50863 0.06992 -0.01252
 C1921 C 0.53132 0.08421 0.00247
 C1922 C 0.53153 0.11329 0.00835
 C1923 C 0.55510 0.15518 0.03076
 C1924 C 0.55541 0.12702 0.02104
 H1925 H 0.57401 0.16480 0.04079
 H1926 H 0.57451 0.11575 0.02379
 H1927 H 0.54847 0.20495 0.05674
 H1928 H 0.45823 0.20258 0.04974
 H1929 H 0.46849 0.07634 -0.03421
 H1930 H 0.54772 0.07270 0.01286
 H1931 H 0.46022 0.16093 0.01556
 H1932 H 0.46693 0.12610 -0.02005
 C1933 C -0.00615 0.14132 0.94110
 C1934 C 0.00026 0.16540 0.96023
 C1935 C 0.00243 0.19239 0.94633
 C1936 C -0.00289 0.19545 0.91385
 C1937 C -0.01242 0.17182 0.89615
 C1938 C -0.01410 0.14511 0.90952
 C1939 C -0.00360 0.11269 0.95501
 C1940 C -0.00278 0.08819 0.93597
 C1941 C 0.00065 0.06202 0.94940
 C1942 C 0.00203 0.05888 0.98252
 C1943 C 0.00245 0.08355 1.00172
 C1944 C 0.00058 0.11047 0.98799
 C1945 C 0.00505 0.16202 0.99272
 C1946 C 0.00421 0.13523 1.00648
 H1947 H 0.00939 0.18037 1.00777
 H1948 H 0.00775 0.13385 1.03171
 H1949 H 0.00969 0.21061 0.96018
 H1950 H -0.01673 0.17378 0.87114
 H1951 H 0.00193 0.04410 0.93330
 H1952 H 0.00508 0.08197 1.02709
 H1953 H -0.02094 0.12757 0.89455
 H1954 H -0.00379 0.08894 0.91042
 C1955 C 0.51403 0.65315 0.46548
 C1956 C 0.48903 0.66334 0.45313
 C1957 C 0.49021 0.68734 0.43362
 C1958 C 0.51612 0.70120 0.42630
 C1959 C 0.54029 0.69256 0.44124
 C1960 C 0.53933 0.66898 0.46057
 C1961 C 0.51271 0.62525 0.48193
 C1962 C 0.53688 0.61152 0.49074
 C1963 C 0.53494 0.58409 0.50220
 C1964 C 0.50883 0.56938 0.50579
 C1965 C 0.48446 0.58411 0.50001
 C1966 C 0.48623 0.61126 0.48673
 C1967 C 0.46332 0.64886 0.45944
 C1968 C 0.46189 0.62371 0.47643
 H1969 H 0.44402 0.65680 0.45061
 H1970 H 0.44153 0.61310 0.48010
 H1971 H 0.47134 0.69405 0.42253
 H1972 H 0.56037 0.70349 0.43690
 H1973 H 0.55433 0.57408 0.50720
 H1974 H 0.46404 0.57430 0.50453
 H1975 H 0.55879 0.66310 0.47070
 H1976 H 0.55768 0.62099 0.48755
 C1977 C 0.50872 0.85316 0.43951
 C1978 C 0.50679 0.82814 0.45741
 C1979 C 0.50908 0.80160 0.44198
 C1980 C 0.51408 0.79990 0.40901
 C1981 C 0.51575 0.82477 0.39153
 C1982 C 0.51307 0.85094 0.40639
 C1983 C 0.50636 0.88102 0.45656
 C1984 C 0.50692 0.90669 0.44044
 C1985 C 0.50423 0.93207 0.45689
 C1986 C 0.50147 0.93317 0.49022
 C1987 C 0.50058 0.90751 0.50663
 C1988 C 0.50295 0.88151 0.49002
 C1989 C 0.50311 0.82994 0.49052
 C1990 C 0.50140 0.85600 0.50646
 H1991 H 0.50174 0.81090 0.50440
 H1992 H 0.49867 0.85617 0.53207
 H1993 H 0.50797 0.78242 0.45565
 H1994 H 0.51933 0.82395 0.36605
 H1995 H 0.50401 0.95098 0.44292
 H1996 H 0.49729 0.90760 0.53213
 H1997 H 0.51489 0.86911 0.39140
 H1998 H 0.50888 0.90781 0.41497
 C1999 C 0.00426 0.35193 0.94121
 C2000 C 0.00408 0.32682 0.95894
 C2001 C 0.00619 0.30044 0.94315
 C2002 C 0.00959 0.29899 0.90997
 C2003 C 0.01024 0.32394 0.89266
 C2004 C 0.00755 0.35000 0.90791
 C2005 C 0.00160 0.37958 0.95869
 C2006 C -0.00094 0.40514 0.94290
 C2007 C -0.00309 0.43041 0.95983
 C2008 C -0.00228 0.43145 0.99325
 C2009 C -0.00076 0.40579 1.00935
 C2010 C 0.00095 0.37991 0.99231
 C2011 C 0.00256 0.32842 0.99223
 C2012 C 0.00146 0.35436 1.00853
 H2013 H 0.00268 0.30932 1.00595
 H2014 H 0.00068 0.35437 1.03426
 H2015 H 0.00614 0.28118 0.95665
 H2016 H 0.01296 0.32322 0.86705
 H2017 H -0.00525 0.44932 0.94627
 H2018 H -0.00139 0.40575 1.03504
 H2019 H 0.00865 0.36838 0.89317
 H2020 H -0.00173 0.40615 0.91740
 C2021 C 0.47990 0.35688 0.04611
 C2022 C 0.47555 0.35428 0.07933
 C2023 C 0.47610 0.32782 0.09344
 C2024 C 0.48206 0.30372 0.07533
 C2025 C 0.48464 0.30573 0.04227
 C2026 C 0.48343 0.33204 0.02769
 C2027 C 0.48245 0.38613 0.03269
 C2028 C 0.48762 0.39159 0.00022
 C2029 C 0.49188 0.41933 -0.01044
 C2030 C 0.49106 0.44240 0.01092
 C2031 C 0.48585 0.43690 0.04323
 C2032 C 0.48102 0.40938 0.05406
 C2033 C 0.47257 0.37821 0.09873
 C2034 C 0.47549 0.40516 0.08642
 H2035 H 0.46904 0.37612 0.12411
 H2036 H 0.47396 0.42303 0.10265
 H2037 H 0.47402 0.32622 0.11906
 H2038 H 0.48941 0.28729 0.02796
 H2039 H 0.49660 0.42256 -0.03537
 H2040 H 0.48623 0.45404 0.06053
 H2041 H 0.48664 0.33270 0.00228
 H2042 H 0.48888 0.37473 -0.01719
 C2043 C -0.01056 0.85699 0.54570
 C2044 C -0.01241 0.85481 0.57922
 C2045 C -0.01291 0.82844 0.59352
 C2046 C -0.00993 0.80377 0.57536
 C2047 C -0.00929 0.80542 0.54214
 C2048 C -0.00983 0.83178 0.52736
 C2049 C -0.00793 0.88613 0.53181
 C2050 C -0.00723 0.89159 0.49887
 C2051 C -0.00479 0.91947 0.48772
 C2052 C -0.00237 0.94246 0.50913
 C2053 C -0.00200 0.93675 0.54182
 C2054 C -0.00584 0.90940 0.55315
 C2055 C -0.01188 0.87894 0.59868
 C2056 C -0.00816 0.90559 0.58596
 H2057 H -0.01334 0.87716 0.62429
 H2058 H -0.00716 0.92358 0.60217
 H2059 H -0.01341 0.82719 0.61923
 H2060 H -0.00665 0.78656 0.52772
 H2061 H -0.00507 0.92302 0.46242
 H2062 H -0.00005 0.95374 0.55919
 H2063 H -0.00829 0.83219 0.50176
 H2064 H -0.00906 0.87464 0.48152
 C2065 C 0.19883 0.33180 0.09756
 C2066 C 0.20671 0.32280 0.06652
 C2067 C 0.21697 0.34254 0.04431
 C2068 C 0.22171 0.37084 0.05331
 C2069 C 0.21413 0.37984 0.08403
 C2070 C 0.20241 0.36062 0.10586
 C2071 C 0.19088 0.30980 0.12146
 C2072 C 0.18090 0.31622 0.15231
 C2073 C 0.18133 0.29599 0.17600
 C2074 C 0.19312 0.26982 0.16951
 C2075 C 0.19640 0.26141 0.13750
 C2076 C 0.19571 0.28137 0.11344
 C2077 C 0.20674 0.29398 0.05873
 C2078 C 0.20224 0.27366 0.08200
 H2079 H 0.21259 0.28708 0.03492
 H2080 H 0.20501 0.25172 0.07557
 H2081 H 0.22336 0.33554 0.02069
 H2082 H 0.21762 0.40170 0.09123
 H2083 H 0.17529 0.30202 0.19995
 H2084 H 0.20307 0.24039 0.13148
 H2085 H 0.19769 0.36832 0.12957
 H2086 H 0.17432 0.33708 0.15884
 C2087 C 0.69973 0.82695 0.60815
 C2088 C 0.70940 0.82027 0.57699
 C2089 C 0.71814 0.84188 0.55631
 C2090 C 0.71977 0.86989 0.56719
 C2091 C 0.70998 0.87668 0.59782
 C2092 C 0.69954 0.85549 0.61797
 C2093 C 0.69440 0.80337 0.63083
 C2094 C 0.68367 0.80741 0.66187
 C2095 C 0.68701 0.78691 0.68473
 C2096 C 0.70201 0.76276 0.67709
 C2097 C 0.70649 0.75597 0.64479
 C2098 C 0.70310 0.77630 0.62163
 C2099 C 0.71309 0.79213 0.56781
 C2100 C 0.71083 0.77064 0.58998
 H2101 H 0.72025 0.78697 0.54389
 H2102 H 0.71651 0.74960 0.58260
 H2103 H 0.72622 0.83673 0.53273
 H2104 H 0.71112 0.89833 0.60642
 H2105 H 0.68085 0.79168 0.70901
 H2106 H 0.71589 0.73634 0.63786
 H2107 H 0.69315 0.86164 0.64174
 H2108 H 0.67448 0.82693 0.66934
 C2109 C 0.28669 0.66799 0.59177
 C2110 C 0.27446 0.67790 0.56391
 C2111 C 0.26862 0.65926 0.53840
 C2112 C 0.27513 0.63086 0.54002
 C2113 C 0.28710 0.62107 0.56769
 C2114 C 0.29273 0.63927 0.59327
 C2115 C 0.29110 0.68815 0.61914
 C2116 C 0.30232 0.68030 0.64822
 C2117 C 0.30063 0.69810 0.67489
 C2118 C 0.28783 0.72408 0.67319
 C2119 C 0.28178 0.73404 0.64284
 C2120 C 0.28216 0.71596 0.61622
 C2121 C 0.26780 0.70626 0.56185
 C2122 C 0.27155 0.72489 0.58748
 H2123 H 0.25879 0.71398 0.54042
 H2124 H 0.26499 0.74634 0.58517
 H2125 H 0.25949 0.66699 0.51715
 H2126 H 0.29207 0.59909 0.56957
 H2127 H 0.30744 0.69029 0.69712
 H2128 H 0.27364 0.75484 0.64030
 H2129 H 0.30161 0.63037 0.61399
 H2130 H 0.31100 0.65994 0.65140
 C2131 C 0.78079 0.17620 0.08985
 C2132 C 0.76522 0.18287 0.06287
 C2133 C 0.76116 0.16289 0.03824
 C2134 C 0.77244 0.13621 0.03989
 C2135 C 0.78781 0.12965 0.06670
 C2136 C 0.79195 0.14929 0.09133
 C2137 C 0.78307 0.19744 0.11654
 C2138 C 0.79764 0.19288 0.14469
 C2139 C 0.79474 0.21104 0.17098
 C2140 C 0.77709 0.23389 0.16991
 C2141 C 0.76659 0.24103 0.14019
 C2142 C 0.76870 0.22269 0.11397
 C2143 C 0.75321 0.20917 0.06096
 C2144 C 0.75482 0.22863 0.08603
 H2145 H 0.74157 0.21443 0.04020
 H2146 H 0.74414 0.24822 0.08395
 H2147 H 0.74925 0.16821 0.01781
 H2148 H 0.79630 0.10898 0.06897
 H2149 H 0.80453 0.20569 0.19278
 H2150 H 0.75440 0.25960 0.13786
 H2151 H 0.80351 0.14279 0.11150
 H2152 H 0.81019 0.17473 0.14745
 C2153 C 0.71700 0.16292 0.88884
 C2154 C 0.72431 0.17422 0.91903
 C2155 C 0.73341 0.15648 0.94265
 C2156 C 0.73727 0.12790 0.93608
 C2157 C 0.72963 0.11654 0.90639
 C2158 C 0.71933 0.13376 0.88309
 C2159 C 0.71093 0.18299 0.86309
 C2160 C 0.70236 0.17422 0.83257
 C2161 C 0.70439 0.19308 0.80740
 C2162 C 0.71626 0.22034 0.81210
 C2163 C 0.71833 0.23068 0.84353
 C2164 C 0.71617 0.21209 0.86900
 C2165 C 0.72490 0.20342 0.92458
 C2166 C 0.72164 0.22203 0.89983
 H2167 H 0.73013 0.21206 0.94780
 H2168 H 0.72470 0.24445 0.90459
 H2169 H 0.73972 0.16540 0.96530
 H2170 H 0.73212 0.09438 0.90101
 H2171 H 0.69892 0.18548 0.78393
 H2172 H 0.72492 0.25247 0.84812
 H2173 H 0.71472 0.12422 0.86023
 H2174 H 0.69551 0.15267 0.82750
 C2175 C 0.22326 0.66676 0.39001
 C2176 C 0.23137 0.67661 0.42052
 C2177 C 0.23953 0.65752 0.44323
 C2178 C 0.24184 0.62897 0.43534
 C2179 C 0.23364 0.61907 0.40525
 C2180 C 0.22411 0.63768 0.38289
 C2181 C 0.21794 0.68806 0.36534
 C2182 C 0.20828 0.68081 0.33481
 C2183 C 0.21062 0.70050 0.31050
 C2184 C 0.22398 0.72699 0.31596
 C2185 C 0.22752 0.73605 0.34766
 C2186 C 0.22485 0.71668 0.37234
 C2187 C 0.23372 0.70561 0.42726
 C2188 C 0.23129 0.72526 0.40339
 H2189 H 0.23971 0.71316 0.45069
 H2190 H 0.23564 0.74736 0.40902
 H2191 H 0.24629 0.66525 0.46620
 H2192 H 0.23507 0.59696 0.39886
 H2193 H 0.20398 0.69409 0.28704
 H2194 H 0.23536 0.75733 0.35296
 H2195 H 0.21897 0.62922 0.35968
 H2196 H 0.20020 0.65979 0.32904
 C2197 C 0.75652 0.82895 0.41715
 C2198 C 0.78131 0.83793 0.43269
 C2199 C 0.77999 0.85766 0.45796
 C2200 C 0.75439 0.86986 0.46696
 C2201 C 0.73014 0.86151 0.45047
 C2202 C 0.73109 0.84130 0.42610
 C2203 C 0.75863 0.80790 0.39047
 C2204 C 0.73481 0.79573 0.37602
 C2205 C 0.73747 0.77931 0.34871
 C2206 C 0.76401 0.77440 0.33459
 C2207 C 0.78804 0.78299 0.35160
 C2208 C 0.78549 0.80005 0.37931
 C2209 C 0.80728 0.82787 0.42218
 C2210 C 0.80940 0.80986 0.39560
 H2211 H 0.82640 0.83483 0.43396
 H2212 H 0.83004 0.80364 0.38764
 H2213 H 0.79906 0.86346 0.47038
 H2214 H 0.71029 0.87096 0.45576
 H2215 H 0.71818 0.77151 0.33796
 H2216 H 0.80864 0.77785 0.34241
 H2217 H 0.71178 0.83629 0.41395
 H2218 H 0.71384 0.79910 0.38503
 C2219 C 0.25257 0.31692 0.90698
 C2220 C 0.27778 0.32596 0.92161
 C2221 C 0.27743 0.34746 0.94498
 C2222 C 0.25247 0.36132 0.95274
 C2223 C 0.22771 0.35254 0.93753
 C2224 C 0.22766 0.33060 0.91514
 C2225 C 0.25379 0.29472 0.88150
 C2226 C 0.22954 0.28320 0.86743
 C2227 C 0.23152 0.26689 0.84002
 C2228 C 0.25781 0.26124 0.82570
 C2229 C 0.28208 0.26815 0.84306
 C2230 C 0.28027 0.28563 0.87051
 C2231 C 0.30326 0.31437 0.91177
 C2232 C 0.30456 0.29509 0.88629
 H2233 H 0.32267 0.32129 0.92297
 H2234 H 0.32490 0.28788 0.87849
 H2235 H 0.29680 0.35357 0.95668
 H2236 H 0.20833 0.36311 0.94209
 H2237 H 0.21194 0.25997 0.82929
 H2238 H 0.30243 0.26227 0.83373
 H2239 H 0.20806 0.32547 0.90365
 H2240 H 0.20875 0.28732 0.87653
 C2241 C 0.80510 0.40087 0.78983
 C2242 C 0.79552 0.42191 0.76979
 C2243 C 0.80840 0.44915 0.77033
 C2244 C 0.83139 0.45554 0.78991
 C2245 C 0.84079 0.43446 0.80960
 C2246 C 0.82781 0.40765 0.80975
 C2247 C 0.79181 0.37177 0.78759
 C2248 C 0.79952 0.34970 0.80705
 C2249 C 0.78914 0.32225 0.80161
 C2250 C 0.77080 0.31588 0.77664
 C2251 C 0.76043 0.33831 0.75952
 C2252 C 0.77119 0.36607 0.76443
 C2253 C 0.77386 0.41533 0.74856
 C2254 C 0.76218 0.38794 0.74569
 H2255 H 0.76643 0.43140 0.73322
 H2256 H 0.74616 0.38373 0.72816
 H2257 H 0.80073 0.46519 0.75512
 H2258 H 0.85898 0.43821 0.82425
 H2259 H 0.79607 0.30597 0.81683
 H2260 H 0.74539 0.33403 0.74094
 H2261 H 0.83656 0.39235 0.82491
 H2262 H 0.81389 0.35302 0.82630
 C2263 C 0.31358 0.90868 0.28527
 C2264 C 0.29529 0.92913 0.29749
 C2265 C 0.30407 0.95785 0.29767
 C2266 C 0.33031 0.96620 0.28447
 C2267 C 0.34769 0.94606 0.27104
 C2268 C 0.33953 0.91765 0.27142
 C2269 C 0.30408 0.87835 0.28618
 C2270 C 0.32197 0.85678 0.27738
 C2271 C 0.31171 0.82919 0.27477
 C2272 C 0.28335 0.82168 0.28167
 C2273 C 0.26581 0.84288 0.29325
 C2274 C 0.27609 0.87118 0.29568
 C2275 C 0.26829 0.92071 0.30856
 C2276 C 0.25866 0.89243 0.30697
 H2277 H 0.25410 0.93631 0.31770
 H2278 H 0.23731 0.88712 0.31475
 H2279 H 0.29050 0.97367 0.30761
 H2280 H 0.36792 0.95234 0.26061
 H2281 H 0.32587 0.81440 0.26426
 H2282 H 0.24398 0.83768 0.29911
 H2283 H 0.35375 0.90321 0.26032
 H2284 H 0.34383 0.86078 0.27128
 C2285 C 0.18531 0.88782 0.70088
 C2286 C 0.20113 0.91352 0.70143
 C2287 C 0.18711 0.93882 0.70714
 C2288 C 0.15766 0.93790 0.71148
 C2289 C 0.14224 0.91280 0.70508
 C2290 C 0.15592 0.88795 0.69952
 C2291 C 0.20016 0.86139 0.70496
 C2292 C 0.18605 0.83811 0.71839
 C2293 C 0.20053 0.81480 0.72607
 C2294 C 0.22906 0.81206 0.71751
 C2295 C 0.24387 0.83608 0.70535
 C2296 C 0.22968 0.86144 0.70109
 C2297 C 0.23056 0.91303 0.69805
 C2298 C 0.24444 0.88735 0.69619
 H2299 H 0.24299 0.93265 0.69721
 H2300 H 0.26712 0.88799 0.69368
 H2301 H 0.19905 0.95847 0.71100
 H2302 H 0.11951 0.91203 0.70707
 H2303 H 0.18903 0.79946 0.74030
 H2304 H 0.26636 0.83561 0.70123
 H2305 H 0.14330 0.86870 0.69619
 H2306 H 0.16417 0.83849 0.72564
 C2307 C 0.68167 0.39956 0.20820
 C2308 C 0.69862 0.42445 0.20545
 C2309 C 0.68630 0.45071 0.21059
 C2310 C 0.65729 0.45156 0.21745
 C2311 C 0.64028 0.42696 0.21417
 C2312 C 0.65233 0.40111 0.20947
 C2313 C 0.69556 0.37256 0.21205
 C2314 C 0.68151 0.35010 0.22733
 C2315 C 0.69532 0.32589 0.23334
 C2316 C 0.72290 0.32192 0.22193
 C2317 C 0.73778 0.34511 0.20811
 C2318 C 0.72454 0.37105 0.20489
 C2319 C 0.72757 0.42237 0.19917
 C2320 C 0.74002 0.39597 0.19723
 H2321 H 0.74073 0.44130 0.19588
 H2322 H 0.76236 0.39534 0.19215
 H2323 H 0.69940 0.46989 0.21203
 H2324 H 0.61775 0.42750 0.21802
 H2325 H 0.68399 0.31037 0.24762
 H2326 H 0.75972 0.34344 0.20138
 H2327 H 0.63863 0.38239 0.20865
 H2328 H 0.66029 0.35159 0.23658
 C2329 C 0.71432 0.59709 0.24576
 C2330 C 0.71492 0.58014 0.27287
 C2331 C 0.69879 0.55467 0.27378
 C2332 C 0.68199 0.54613 0.24790
 C2333 C 0.68435 0.56148 0.21984
 C2334 C 0.70058 0.58645 0.21858
 C2335 C 0.72668 0.62640 0.24777
 C2336 C 0.72069 0.64647 0.22525
 C2337 C 0.72923 0.67438 0.22964
 C2338 C 0.74545 0.68348 0.25572
 C2339 C 0.75191 0.66336 0.27836
 C2340 C 0.74168 0.63511 0.27511
 C2341 C 0.73064 0.58940 0.29914
 C2342 C 0.74440 0.61607 0.29987
 H2343 H 0.73183 0.57612 0.31969
 H2344 H 0.75583 0.62249 0.32093
 H2345 H 0.69821 0.54226 0.29516
 H2346 H 0.67231 0.55535 0.19931
 H2347 H 0.72102 0.68904 0.21334
 H2348 H 0.76332 0.66993 0.29937
 H2349 H 0.70122 0.59762 0.19646
 H2350 H 0.70762 0.64155 0.20515
 C2351 C 0.20230 0.08621 0.74104
 C2352 C 0.20431 0.06936 0.76813
 C2353 C 0.18916 0.04332 0.76970
 C2354 C 0.17235 0.03387 0.74428
 C2355 C 0.17250 0.04969 0.71651
 C2356 C 0.18749 0.07533 0.71472
 C2357 C 0.21496 0.11547 0.74194
 C2358 C 0.20890 0.13524 0.71903
 C2359 C 0.21850 0.16301 0.72217
 C2360 C 0.23560 0.17215 0.74746
 C2361 C 0.24208 0.15235 0.77044
 C2362 C 0.23110 0.12433 0.76835
 C2363 C 0.22089 0.07899 0.79355
 C2364 C 0.23456 0.10567 0.79330
 H2365 H 0.22306 0.06587 0.81407
 H2366 H 0.24686 0.11230 0.81365
 H2367 H 0.18986 0.03079 0.79091
 H2368 H 0.15992 0.04306 0.69646
 H2369 H 0.21059 0.17763 0.70556
 H2370 H 0.25433 0.15900 0.79081
 H2371 H 0.18666 0.08652 0.69272
 H2372 H 0.19526 0.13023 0.69946
 C2373 C 0.28231 0.09861 0.22377
 C2374 C 0.30949 0.09568 0.21010
 C2375 C 0.32742 0.07595 0.22221
 C2376 C 0.31881 0.05955 0.24817
 C2377 C 0.29156 0.06128 0.26066
 C2378 C 0.27331 0.08040 0.24845
 C2379 C 0.26583 0.12314 0.21413
 C2380 C 0.23991 0.12960 0.22859
 C2381 C 0.22921 0.15629 0.22535
 C2382 C 0.24387 0.17686 0.20714
 C2383 C 0.26641 0.16850 0.18768
 C2384 C 0.27831 0.14236 0.19215
 C2385 C 0.31934 0.11377 0.18604
 C2386 C 0.30403 0.13666 0.17721
 H2387 H 0.33990 0.11116 0.17516
 H2388 H 0.31335 0.15112 0.15995
 H2389 H 0.34871 0.07468 0.21288
 H2390 H 0.28479 0.04858 0.28077
 H2391 H 0.21075 0.16142 0.23935
 H2392 H 0.27658 0.18322 0.17142
 H2393 H 0.25287 0.08153 0.25972
 H2394 H 0.22867 0.11525 0.24435
 C2395 C 0.79013 0.59046 0.72948
 C2396 C 0.81721 0.58703 0.71581
 C2397 C 0.83413 0.56585 0.72669
 C2398 C 0.82445 0.54809 0.75109
 C2399 C 0.79710 0.55021 0.76322
 C2400 C 0.77996 0.57102 0.75241
 C2401 C 0.77481 0.61625 0.72134
 C2402 C 0.74926 0.62328 0.73626
 C2403 C 0.73917 0.65027 0.73349
 C2404 C 0.75410 0.67079 0.71545
 C2405 C 0.77673 0.66231 0.69619
 C2406 C 0.78795 0.63573 0.70008
 C2407 C 0.82797 0.60587 0.69293
 C2408 C 0.81354 0.62965 0.68507
 H2409 H 0.84845 0.60290 0.68200
 H2410 H 0.82343 0.64438 0.66848
 H2411 H 0.85555 0.56445 0.71779
 H2412 H 0.78952 0.53664 0.78225
 H2413 H 0.72074 0.65555 0.74748
 H2414 H 0.78730 0.67709 0.68031
 H2415 H 0.75937 0.57227 0.76331
 H2416 H 0.73772 0.60898 0.75182
 C2417 C 0.91364 0.76204 0.24844
 C2418 C 0.92412 0.73515 0.24170
 C2419 C 0.94791 0.73268 0.22136
 C2420 C 0.96175 0.75707 0.20905
 C2421 C 0.95396 0.78355 0.22105
 C2422 C 0.93000 0.78609 0.24012
 C2423 C 0.88467 0.76381 0.26224
 C2424 C 0.86887 0.78767 0.25797
 C2425 C 0.84002 0.78650 0.26377
 C2426 C 0.82620 0.76275 0.27747
 C2427 C 0.84275 0.73964 0.28457
 C2428 C 0.87113 0.73918 0.27436
 C2429 C 0.91003 0.71125 0.25449
 C2430 C 0.88473 0.71347 0.27191
 H2431 H 0.91842 0.69058 0.25065
 H2432 H 0.87443 0.69435 0.28085
 H2433 H 0.95437 0.71200 0.21368
 H2434 H 0.96555 0.80269 0.21428
 H2435 H 0.82854 0.80317 0.25387
 H2436 H 0.83267 0.72036 0.29337
 H2437 H 0.92402 0.80699 0.24740
 H2438 H 0.87780 0.80615 0.24629
 C2439 C 0.40733 0.25260 0.74134
 C2440 C 0.41866 0.22661 0.73221
 C2441 C 0.44322 0.22639 0.71279
 C2442 C 0.45683 0.25201 0.70366
 C2443 C 0.44804 0.27719 0.71813
 C2444 C 0.42342 0.27759 0.73641
 C2445 C 0.37783 0.25264 0.75385
 C2446 C 0.36170 0.27650 0.75146
 C2447 C 0.33274 0.27446 0.75618
 C2448 C 0.31899 0.24956 0.76712
 C2449 C 0.33569 0.22602 0.77181
 C2450 C 0.36437 0.22683 0.76261
 C2451 C 0.40460 0.20144 0.74159
 C2452 C 0.37860 0.20167 0.75794
 H2453 H 0.41358 0.18133 0.73585
 H2454 H 0.36839 0.18166 0.76425
 H2455 H 0.45042 0.20659 0.70325
 H2456 H 0.45929 0.29707 0.71372
 H2457 H 0.32134 0.29174 0.74772
 H2458 H 0.32568 0.20593 0.77821
 H2459 H 0.41667 0.29766 0.74561
 H2460 H 0.37062 0.29603 0.74210
 C2461 C 0.40224 0.75327 0.79082
 C2462 C 0.41415 0.78028 0.79840
 C2463 C 0.43810 0.78298 0.81723
 C2464 C 0.44981 0.75929 0.83059
 C2465 C 0.43871 0.73242 0.82214
 C2466 C 0.41529 0.72939 0.80241
 C2467 C 0.37526 0.75163 0.77261
 C2468 C 0.36194 0.72607 0.76267
 C2469 C 0.33541 0.72569 0.74885
 C2470 C 0.32089 0.75061 0.74523
 C2471 C 0.33544 0.77635 0.75227
 C2472 C 0.36224 0.77703 0.76575
 C2473 C 0.40122 0.80460 0.78874
 C2474 C 0.37565 0.80302 0.77325
 H2475 H 0.41041 0.82529 0.79447
 H2476 H 0.36597 0.82252 0.76754
 H2477 H 0.44687 0.80389 0.82272
 H2478 H 0.44721 0.71377 0.83207
 H2479 H 0.32624 0.70556 0.74200
 H2480 H 0.32548 0.79611 0.74852
 H2481 H 0.40696 0.70829 0.79762
 H2482 H 0.37150 0.70611 0.76583
 C2483 C 0.89609 0.26376 0.28435
 C2484 C 0.90741 0.23830 0.29430
 C2485 C 0.93151 0.23894 0.31352
 C2486 C 0.94357 0.26484 0.32465
 C2487 C 0.93279 0.28986 0.31316
 C2488 C 0.90972 0.28938 0.29336
 C2489 C 0.86905 0.26246 0.26640
 C2490 C 0.85603 0.28663 0.25593
 C2491 C 0.82911 0.28468 0.24334
 C2492 C 0.81412 0.25858 0.24049
 C2493 C 0.82848 0.23414 0.24754
 C2494 C 0.85540 0.23588 0.26100
 C2495 C 0.89367 0.21248 0.28639
 C2496 C 0.86821 0.21131 0.27032
 H2497 H 0.90219 0.19287 0.29376
 H2498 H 0.85797 0.19083 0.26592
 H2499 H 0.93910 0.21928 0.32197
 H2500 H 0.94226 0.31029 0.31931
 H2501 H 0.81954 0.30412 0.23730
 H2502 H 0.81869 0.21365 0.24370
 H2503 H 0.90243 0.30946 0.28620
 H2504 H 0.86580 0.30744 0.25823
 C2505 C 0.08926 0.25270 0.29960
 C2506 C 0.08997 0.25476 0.33319
 C2507 C 0.06502 0.25650 0.35123
 C2508 C 0.03886 0.25612 0.33669
 C2509 C 0.03781 0.25274 0.30358
 C2510 C 0.06272 0.25117 0.28515
 C2511 C 0.11690 0.25233 0.28131
 C2512 C 0.11928 0.25150 0.24780
 C2513 C 0.14576 0.25094 0.23231
 C2514 C 0.17060 0.25138 0.24977
 C2515 C 0.16809 0.25215 0.28315
 C2516 C 0.14192 0.25298 0.29880
 C2517 C 0.11559 0.25548 0.34879
 C2518 C 0.14094 0.25439 0.33202
 H2519 H 0.11608 0.25692 0.37449
 H2520 H 0.16018 0.25492 0.34533
 H2521 H 0.06595 0.25866 0.37688
 H2522 H 0.01780 0.25245 0.29185
 H2523 H 0.14667 0.24956 0.20665
 H2524 H 0.18666 0.25196 0.29748
 H2525 H 0.06087 0.24917 0.25972
 H2526 H 0.10091 0.25108 0.23322
 C2527 C 0.59868 0.75313 0.80541
 C2528 C 0.59938 0.75971 0.83834
 C2529 C 0.57438 0.76339 0.85583
 C2530 C 0.54819 0.75995 0.84149
 C2531 C 0.54724 0.75229 0.80919
 C2532 C 0.57218 0.74916 0.79122
 C2533 C 0.62630 0.75032 0.78756
 C2534 C 0.62865 0.74551 0.75442
 C2535 C 0.65512 0.74308 0.73933
 C2536 C 0.67996 0.74551 0.75677
 C2537 C 0.67742 0.74961 0.78987
 C2538 C 0.65129 0.75276 0.80505
 C2539 C 0.62499 0.76233 0.85391
 C2540 C 0.65031 0.75853 0.83775
 H2541 H 0.62547 0.76713 0.87915
 H2542 H 0.66953 0.76052 0.85106
 H2543 H 0.57528 0.76858 0.88097
 H2544 H 0.52720 0.74935 0.79769
 H2545 H 0.65604 0.73894 0.71399
 H2546 H 0.69592 0.75046 0.80438
 H2547 H 0.57035 0.74356 0.76639
 H2548 H 0.61031 0.74361 0.73984
 C2549 C 0.60774 0.23129 0.69806
 C2550 C 0.58487 0.23446 0.71965
 C2551 C 0.55741 0.23655 0.70814
 C2552 C 0.55273 0.23555 0.67534
 C2553 C 0.57508 0.22992 0.65439
 C2554 C 0.60218 0.22754 0.66552
 C2555 C 0.63701 0.23321 0.71058
 C2556 C 0.66087 0.23494 0.69044
 C2557 C 0.68763 0.23849 0.70280
 C2558 C 0.69189 0.23963 0.73576
 C2559 C 0.66807 0.23831 0.75616
 C2560 C 0.64073 0.23560 0.74378
 C2561 C 0.58983 0.23654 0.75234
 C2562 C 0.61709 0.23657 0.76416
 H2563 H 0.57239 0.23853 0.76905
 H2564 H 0.61975 0.23847 0.78960
 H2565 H 0.54012 0.24080 0.72443
 H2566 H 0.57173 0.22872 0.62903
 H2567 H 0.70505 0.24069 0.68600
 H2568 H 0.67063 0.24049 0.78156
 H2569 H 0.61854 0.22360 0.64813
 H2570 H 0.65934 0.23461 0.66494
 C2571 C 0.11209 0.73636 0.20842
 C2572 C 0.08934 0.74024 0.22986
 C2573 C 0.06177 0.74087 0.21820
 C2574 C 0.05705 0.73687 0.18554
 C2575 C 0.07935 0.72935 0.16539
 C2576 C 0.10654 0.72892 0.17665
 C2577 C 0.14129 0.74114 0.22009
 C2578 C 0.16421 0.74516 0.19908
 C2579 C 0.19103 0.75046 0.21040
 C2580 C 0.19642 0.75068 0.24316
 C2581 C 0.17325 0.74830 0.26452
 C2582 C 0.14561 0.74443 0.25306
 C2583 C 0.09466 0.74424 0.26236
 C2584 C 0.12217 0.74523 0.27383
 H2585 H 0.07734 0.74656 0.27915
 H2586 H 0.12516 0.74806 0.29913
 H2587 H 0.04449 0.74629 0.23397
 H2588 H 0.07597 0.72564 0.14029
 H2589 H 0.20765 0.75399 0.19286
 H2590 H 0.17656 0.75025 0.28983
 H2591 H 0.12307 0.72360 0.15996
 H2592 H 0.16170 0.74524 0.17367
   
