data_POSCAR
  _audit_creation_date              2014-09-24
  _audit_creation_method            'ToBaCCo'
  _symmetry_space_group_name_H-M    'P1'
  _symmetry_Int_Tables_number       1
  _symmetry_cell_setting            triclinic
  loop_
  _symmetry_equiv_pos_as_xyz
 x,y,z
_cell_length_a 61.7919
_cell_length_b 61.6829
_cell_length_c 61.7305
_cell_angle_alpha 89.996500
_cell_angle_beta 90.069200
_cell_angle_gamma 90.050600
loop_
  _atom_site_label
  _atom_site_type_symbol
  _atom_site_fract_x
  _atom_site_fract_y
  _atom_site_fract_z
C1 C 0.32260 0.45483 0.92755
 C2 C 0.31328 0.46385 0.90888
 C3 C 0.29506 0.45422 0.89912
 C4 C 0.28587 0.43565 0.90868
 C5 C 0.29501 0.42646 0.92735
 C6 C 0.31348 0.43605 0.93681
 C7 C 0.34136 0.46392 0.93664
 C8 C 0.35141 0.45436 0.95481
 C9 C 0.34183 0.43582 0.96417
 C10 C 0.32310 0.42656 0.95521
 C11 C 0.31430 0.40750 0.96397
 C12 C 0.29610 0.39761 0.95445
 C13 C 0.28640 0.40740 0.93628
 H14 H 0.32059 0.47810 0.90167
 H15 H 0.27189 0.42799 0.90131
 H16 H 0.34835 0.47818 0.92913
 H17 H 0.34919 0.42814 0.97815
 H18 H 0.32199 0.40012 0.97793
 H19 H 0.27241 0.39995 0.92873
 C20 C 0.45428 0.82437 0.42664
 C21 C 0.46303 0.84332 0.43568
 C22 C 0.45327 0.85333 0.45375
 C23 C 0.43479 0.84357 0.46298
 C24 C 0.42587 0.82462 0.45409
 C25 C 0.43561 0.81500 0.43582
 C26 C 0.46355 0.81505 0.40810
 C27 C 0.45428 0.79657 0.39844
 C28 C 0.43584 0.78714 0.40794
 C29 C 0.42640 0.79629 0.42646
 C30 C 0.40749 0.78738 0.43534
 C31 C 0.39747 0.79702 0.45338
 C32 C 0.40697 0.81552 0.46280
 H33 H 0.47724 0.85045 0.42825
 H34 H 0.42695 0.85090 0.47687
 H35 H 0.47770 0.82253 0.40093
 H36 H 0.42847 0.77296 0.40065
 H37 H 0.40035 0.77317 0.42786
 H38 H 0.39940 0.82317 0.47666
 C39 C 0.95355 0.92493 0.82559
 C40 C 0.96251 0.90618 0.81636
 C41 C 0.95305 0.89644 0.79795
 C42 C 0.93466 0.90625 0.78859
 C43 C 0.92555 0.92499 0.79766
 C44 C 0.93498 0.93434 0.81625
 C45 C 0.96255 0.93402 0.84441
 C46 C 0.95316 0.95238 0.85426
 C47 C 0.93478 0.96183 0.84450
 C48 C 0.92561 0.95288 0.82572
 C49 C 0.90682 0.96187 0.81663
 C50 C 0.89711 0.95248 0.79825
 C51 C 0.90677 0.93415 0.78875
 H52 H 0.97665 0.89900 0.82388
 H53 H 0.92705 0.89913 0.77444
 H54 H 0.97669 0.92644 0.85154
 H55 H 0.92722 0.97594 0.85171
 H56 H 0.89955 0.97596 0.82416
 H57 H 0.89946 0.92670 0.77462
 C58 C 0.45400 -0.07278 0.32311
 C59 C 0.46319 -0.09121 0.31353
 C60 C 0.45384 -0.10062 0.29497
 C61 C 0.43541 -0.09093 0.28571
 C62 C 0.42605 -0.07247 0.29510
 C63 C 0.43533 -0.06339 0.31391
 C64 C 0.46279 -0.06404 0.34216
 C65 C 0.45307 -0.04611 0.35233
 C66 C 0.43463 -0.03665 0.34285
 C67 C 0.42565 -0.04522 0.32380
 C68 C 0.40675 -0.03632 0.31489
 C69 C 0.39719 -0.04545 0.29630
 C70 C 0.40714 -0.06340 0.28637
 H71 H 0.47733 -0.09853 0.32090
 H72 H 0.42798 -0.09803 0.27146
 H73 H 0.47696 -0.07154 0.34930
 H74 H 0.42692 -0.02288 0.35052
 H75 H 0.39924 -0.02254 0.32276
 H76 H 0.39994 -0.07066 0.27209
 C77 C 0.82371 0.29563 0.32368
 C78 C 0.81422 0.28646 0.34217
 C79 C 0.79578 0.29586 0.35166
 C80 C 0.78656 0.31436 0.34202
 C81 C 0.79587 0.32371 0.32352
 C82 C 0.81454 0.31436 0.31433
 C83 C 0.84263 0.28675 0.31481
 C84 C 0.85269 0.29644 0.29680
 C85 C 0.84324 0.31495 0.28741
 C86 C 0.82433 0.32402 0.29610
 C87 C 0.81546 0.34298 0.28724
 C88 C 0.79700 0.35261 0.29647
 C89 C 0.78717 0.34268 0.31449
 H90 H 0.82156 0.27226 0.34944
 H91 H 0.77241 0.32184 0.34918
 H92 H 0.84974 0.27253 0.32227
 H93 H 0.85083 0.32264 0.27358
 H94 H 0.82325 0.35048 0.27341
 H95 H 0.77299 0.34993 0.32182
 C96 C -0.20415 0.82431 0.82295
 C97 C -0.21274 0.84334 0.81396
 C98 C -0.20282 0.85341 0.79600
 C99 C -0.18434 0.84363 0.78682
 C100 C -0.17557 0.82461 0.79568
 C101 C -0.18547 0.81494 0.81383
 C102 C -0.21357 0.81491 0.84139
 C103 C -0.20444 0.79635 0.85100
 C104 C -0.18599 0.78692 0.84155
 C105 C -0.17640 0.79614 0.82315
 C106 C -0.15747 0.78724 0.81435
 C107 C -0.14729 0.79696 0.79643
 C108 C -0.15665 0.81552 0.78704
 H109 H -0.22696 0.85049 0.82133
 H110 H -0.17638 0.85101 0.77302
 H111 H -0.22773 0.82240 0.84852
 H112 H -0.17873 0.77268 0.84881
 H113 H -0.15043 0.77297 0.82180
 H114 H -0.14897 0.82323 0.77327
 C115 C 0.92751 0.32288 0.45516
 C116 C 0.93660 0.34166 0.46423
 C117 C 0.95468 0.35179 0.45463
 C118 C 0.96394 0.34227 0.43603
 C119 C 0.95497 0.32352 0.42677
 C120 C 0.93667 0.31381 0.43633
 C121 C 0.90894 0.31346 0.46425
 C122 C 0.89918 0.29521 0.45464
 C123 C 0.90864 0.28609 0.43603
 C124 C 0.92721 0.29532 0.42677
 C125 C 0.93604 0.28675 0.40768
 C126 C 0.95411 0.29651 0.39782
 C127 C 0.96363 0.31476 0.40767
 H128 H 0.92917 0.34859 0.47854
 H129 H 0.97784 0.34970 0.42831
 H130 H 0.90179 0.32072 0.47854
 H131 H 0.90128 0.27208 0.42839
 H132 H 0.92849 0.27272 0.40027
 H133 H 0.97752 0.32249 0.40024
 C134 C 0.42808 0.45512 0.82166
 C135 C 0.43738 0.46409 0.84037
 C136 C 0.45548 0.45434 0.85020
 C137 C 0.46460 0.43576 0.84066
 C138 C 0.45547 0.42661 0.82196
 C139 C 0.43710 0.43627 0.81245
 C140 C 0.40940 0.46426 0.81253
 C141 C 0.39941 0.45469 0.79439
 C142 C 0.40875 0.43609 0.78508
 C143 C 0.42742 0.42676 0.79405
 C144 C 0.43611 0.40764 0.78537
 C145 C 0.45425 0.39770 0.79494
 C146 C 0.46398 0.40751 0.81309
 H147 H 0.43012 0.47836 0.84756
 H148 H 0.47850 0.42803 0.84808
 H149 H 0.40237 0.47854 0.81992
 H150 H 0.40119 0.42849 0.77117
 H151 H 0.42839 0.40024 0.77143
 H152 H 0.47792 0.40002 0.82070
 C153 C 0.82485 0.92591 0.95400
 C154 C 0.81548 0.90737 0.96328
 C155 C 0.79684 0.89779 0.95413
 C156 C 0.78736 0.90761 0.93578
 C157 C 0.79658 0.92613 0.92635
 C158 C 0.81542 0.93529 0.93545
 C159 C 0.84391 0.93479 0.96266
 C160 C 0.85394 0.95290 0.95292
 C161 C 0.84411 0.96231 0.93455
 C162 C 0.82507 0.95358 0.92573
 C163 C 0.81589 0.96249 0.90693
 C164 C 0.79728 0.95325 0.89753
 C165 C 0.78760 0.93520 0.90755
 H166 H 0.82309 0.90018 0.97738
 H167 H 0.77304 0.90061 0.92841
 H168 H 0.85110 0.92723 0.97679
 H169 H 0.85145 0.97623 0.92673
 H170 H 0.82357 0.97636 0.89937
 H171 H 0.77329 0.92788 0.90048
 C172 C 0.32347 0.82472 0.29557
 C173 C 0.31456 0.84367 0.28671
 C174 C 0.29657 0.85384 0.29642
 C175 C 0.28730 0.84424 0.31499
 C176 C 0.29608 0.82533 0.32403
 C177 C 0.31425 0.81554 0.31433
 C178 C 0.34189 0.81519 0.28632
 C179 C 0.35141 0.79668 0.29568
 C180 C 0.34188 0.78747 0.31422
 C181 C 0.32348 0.79683 0.32365
 C182 C 0.31458 0.78812 0.34265
 C183 C 0.29663 0.79795 0.35264
 C184 C 0.28734 0.81643 0.34303
 H185 H 0.32201 0.85068 0.27243
 H186 H 0.27347 0.85169 0.32279
 H187 H 0.34908 0.82251 0.27208
 H188 H 0.34906 0.77328 0.32167
 H189 H 0.32194 0.77391 0.34987
 H190 H 0.27355 0.82421 0.35057
 C191 C 0.82287 0.42813 0.45583
 C192 C 0.81372 0.40943 0.46499
 C193 C 0.79549 0.39953 0.45552
 C194 C 0.78612 0.40898 0.43700
 C195 C 0.79509 0.42767 0.42767
 C196 C 0.81357 0.43727 0.43708
 C197 C 0.84164 0.43736 0.46474
 C198 C 0.85155 0.45554 0.45503
 C199 C 0.84181 0.46477 0.43652
 C200 C 0.82305 0.45568 0.42744
 C201 C 0.81406 0.46431 0.40842
 C202 C 0.79583 0.45465 0.39870
 C203 C 0.78630 0.43646 0.40863
 H204 H 0.82117 0.40230 0.47921
 H205 H 0.77213 0.40151 0.42947
 H206 H 0.84876 0.42994 0.47898
 H207 H 0.84906 0.47875 0.42872
 H208 H 0.82163 0.47828 0.40093
 H209 H 0.77229 0.42880 0.40132
 C210 C 0.95414 0.82413 -0.07433
 C211 C 0.96293 0.84297 -0.06507
 C212 C 0.95364 0.85227 -0.04646
 C213 C 0.93567 0.84210 -0.03683
 C214 C 0.92672 0.82326 -0.04589
 C215 C 0.93593 0.81427 -0.06475
 C216 C 0.96290 0.81543 -0.09340
 C217 C 0.95356 0.79705 -0.10332
 C218 C 0.93553 0.78717 -0.09336
 C219 C 0.92663 0.79570 -0.07428
 C220 C 0.90814 0.78632 -0.06498
 C221 C 0.89864 0.79538 -0.04635
 C222 C 0.90826 0.81371 -0.03676
 H223 H 0.97674 0.85065 -0.07271
 H224 H 0.92830 0.84909 -0.02253
 H225 H 0.97676 0.82335 -0.10069
 H226 H 0.92802 0.77303 -0.10062
 H227 H 0.90088 0.77225 -0.07259
 H228 H 0.90110 0.82093 -0.02247
 C229 C 0.32385 0.32269 0.79558
 C230 C 0.31448 0.34117 0.78623
 C231 C 0.29593 0.35071 0.79537
 C232 C 0.28649 0.34113 0.81378
 C233 C 0.29569 0.32265 0.82331
 C234 C 0.31447 0.31342 0.81422
 C235 C 0.34286 0.31378 0.78697
 C236 C 0.35281 0.29578 0.79683
 C237 C 0.34315 0.28645 0.81526
 C238 C 0.32414 0.29520 0.82405
 C239 C 0.31504 0.28642 0.84293
 C240 C 0.29648 0.29571 0.85231
 C241 C 0.28678 0.31370 0.84220
 H242 H 0.32198 0.34840 0.77210
 H243 H 0.27226 0.34833 0.82106
 H244 H 0.35012 0.32118 0.77281
 H245 H 0.35066 0.27264 0.82308
 H246 H 0.32275 0.27261 0.85057
 H247 H 0.27252 0.32108 0.84925
 C248 C 0.17614 0.54561 0.57347
 C249 C 0.15720 0.53688 0.56444
 C250 C 0.14768 0.54630 0.54598
 C251 C 0.15771 0.56436 0.53630
 C252 C 0.17667 0.57325 0.54515
 C253 C 0.18590 0.56389 0.56383
 C254 C 0.18506 0.53675 0.59241
 C255 C 0.20353 0.54603 0.60204
 C256 C 0.21334 0.56408 0.59212
 C257 C 0.20460 0.57311 0.57317
 C258 C 0.21387 0.59166 0.56385
 C259 C 0.20458 0.60132 0.54539
 C260 C 0.18611 0.59179 0.53600
 H261 H 0.14964 0.52302 0.57213
 H262 H 0.15054 0.57183 0.52212
 H263 H 0.17728 0.52289 0.59989
 H264 H 0.22753 0.57144 0.59937
 H265 H 0.22805 0.59885 0.57132
 H266 H 0.17872 0.59909 0.52184
 C267 C 0.57470 0.70308 0.07423
 C268 C 0.59343 0.71201 0.06500
 C269 C 0.60298 0.70254 0.04661
 C270 C 0.59322 0.68418 0.03722
 C271 C 0.57448 0.67506 0.04626
 C272 C 0.56520 0.68451 0.06486
 C273 C 0.56569 0.71207 0.09305
 C274 C 0.54738 0.70265 0.10280
 C275 C 0.53786 0.68429 0.09316
 C276 C 0.54668 0.67513 0.07436
 C277 C 0.53763 0.65635 0.06528
 C278 C 0.54693 0.64662 0.04689
 C279 C 0.56524 0.65627 0.03736
 H280 H 0.60079 0.72612 0.07246
 H281 H 0.60041 0.67666 0.02309
 H282 H 0.57325 0.72617 0.10031
 H283 H 0.52379 0.67681 0.10051
 H284 H 0.52356 0.64908 0.07284
 H285 H 0.57264 0.64894 0.02324
 C286 C 0.70564 0.17678 0.67735
 C287 C 0.71426 0.18580 0.65835
 C288 C 0.70462 0.20405 0.64864
 C289 C 0.68646 0.21355 0.65856
 C290 C 0.67768 0.20472 0.67757
 C291 C 0.68726 0.18622 0.68697
 C292 C 0.71472 0.15801 0.68641
 C293 C 0.70553 0.14822 0.70490
 C294 C 0.68738 0.15811 0.71461
 C295 C 0.67815 0.17689 0.70571
 C296 C 0.65947 0.18601 0.71484
 C297 C 0.64958 0.20426 0.70538
 C298 C 0.65902 0.21367 0.68689
 H299 H 0.72821 0.17825 0.65088
 H300 H 0.67881 0.22757 0.65125
 H301 H 0.72868 0.15078 0.67862
 H302 H 0.67999 0.15096 0.72884
 H303 H 0.65235 0.17854 0.72904
 H304 H 0.65156 0.22767 0.67936
 C305 C 1.07109 0.04341 0.17801
 C306 C 1.08989 0.03454 0.18719
 C307 C 1.09955 0.04406 0.20553
 C308 C 1.08972 0.06230 0.21502
 C309 C 1.07091 0.07134 0.20604
 C310 C 1.06159 0.06191 0.18742
 C311 C 1.06214 0.03451 0.15909
 C312 C 1.04390 0.04401 0.14912
 C313 C 1.03432 0.06228 0.15898
 C314 C 1.04311 0.07133 0.17790
 C315 C 1.03414 0.09015 0.18698
 C316 C 1.04355 0.09989 0.20534
 C317 C 1.06178 0.09014 0.21493
 H318 H 1.09731 0.02053 0.17965
 H319 H 1.09699 0.06987 0.22912
 H320 H 1.06983 0.02046 0.15188
 H321 H 1.02029 0.06991 0.15168
 H322 H 1.02015 0.09751 0.17936
 H323 H 1.06926 0.09748 0.22903
 C324 C 0.04341 0.17784 1.07165
 C325 C 0.03447 0.15891 1.06276
 C326 C 0.04389 0.14890 1.04451
 C327 C 0.06212 0.15873 1.03486
 C328 C 0.07123 0.17764 1.04361
 C329 C 0.06190 0.18721 1.06210
 C330 C 0.03460 0.18708 1.09044
 C331 C 0.04416 0.20544 1.10004
 C332 C 0.06241 0.21488 1.09018
 C333 C 0.07139 0.20583 1.07138
 C334 C 0.09018 0.21467 1.06220
 C335 C 0.09985 0.20501 1.04396
 C336 C 0.09004 0.18666 1.03459
 H337 H 0.02044 0.15173 1.07050
 H338 H 0.06969 0.15140 1.02082
 H339 H 0.02060 0.17958 1.09789
 H340 H 0.07000 0.22898 1.09742
 H341 H 0.09758 0.22876 1.06964
 H342 H 0.09733 0.17900 1.02059
 C343 C 0.17728 0.67702 0.70534
 C344 C 0.15869 0.68626 0.71453
 C345 C 0.14927 0.70495 0.70547
 C346 C 0.15909 0.71468 0.68734
 C347 C 0.17768 0.70563 0.67798
 C348 C 0.18679 0.68670 0.68697
 C349 C 0.18606 0.65784 0.71382
 C350 C 0.20414 0.64801 0.70407
 C351 C 0.21371 0.65796 0.68594
 C352 C 0.20511 0.67715 0.67728
 C353 C 0.21411 0.68651 0.65864
 C354 C 0.20491 0.70519 0.64933
 C355 C 0.18684 0.71479 0.65932
 H356 H 0.15128 0.67853 0.72843
 H357 H 0.15198 0.72903 0.68013
 H358 H 0.17847 0.65034 0.72775
 H359 H 0.22760 0.65055 0.67821
 H360 H 0.22797 0.67887 0.65109
 H361 H 0.17954 0.72914 0.65230
 C362 C 1.20595 0.17780 0.17820
 C363 C 1.21483 0.15886 0.18712
 C364 C 1.20532 0.14884 0.20532
 C365 C 1.18707 0.15867 0.21492
 C366 C 1.17804 0.17761 0.20615
 C367 C 1.18746 0.18718 0.18769
 C368 C 1.21483 0.18702 0.15943
 C369 C 1.20534 0.20538 0.14979
 C370 C 1.18710 0.21485 0.15960
 C371 C 1.17805 0.20581 0.17839
 C372 C 1.15926 0.21467 0.18753
 C373 C 1.14952 0.20502 0.20575
 C374 C 1.15925 0.18665 0.21512
 H375 H 1.22886 0.15168 0.17943
 H376 H 1.17944 0.15134 0.22893
 H377 H 1.22884 0.17950 0.15202
 H378 H 1.17956 0.22894 0.15234
 H379 H 1.15192 0.22877 0.18007
 H380 H 1.15190 0.17899 0.22910
 C381 C 0.67725 1.07378 0.54507
 C382 C 0.65861 1.06452 0.53591
 C383 C 0.64928 1.04574 0.54489
 C384 C 0.65923 1.03594 0.56292
 C385 C 0.67787 1.04501 0.57224
 C386 C 0.68689 1.06403 0.56333
 C387 C 0.68594 1.09303 0.53665
 C388 C 0.70411 1.10297 0.54636
 C389 C 0.71380 1.09283 0.56441
 C390 C 0.70526 1.07357 0.57299
 C391 C 0.71439 1.06412 0.59154
 C392 C 0.70529 1.04535 0.60078
 C393 C 0.68717 1.03575 0.59081
 H394 H 0.65109 1.07230 0.52208
 H395 H 0.65220 1.02152 0.57007
 H396 H 0.67817 1.10046 0.52276
 H397 H 0.72777 1.10009 0.57219
 H398 H 0.72830 1.07175 0.59907
 H399 H 0.67993 1.02134 0.59777
 C400 C 0.54561 0.57399 0.17564
 C401 C 0.53693 0.56479 0.15674
 C402 C 0.54635 0.54626 0.14738
 C403 C 0.56437 0.53668 0.15753
 C404 C 0.57322 0.54569 0.17644
 C405 C 0.56385 0.56444 0.18551
 C406 C 0.53671 0.59297 0.18443
 C407 C 0.54591 0.60272 0.20289
 C408 C 0.56394 0.59289 0.21279
 C409 C 0.57301 0.57391 0.20419
 C410 C 0.59152 0.56466 0.21359
 C411 C 0.60118 0.54614 0.20446
 C412 C 0.59171 0.53661 0.18602
 H413 H 0.52309 0.57240 0.14908
 H414 H 0.57184 0.52244 0.15049
 H415 H 0.52287 0.60037 0.17658
 H416 H 0.57125 0.60023 0.22698
 H417 H 0.59866 0.57223 0.22774
 H418 H 0.59900 0.52239 0.17876
 C419 C 0.67581 0.70475 0.17597
 C420 C 0.65689 0.71348 0.18496
 C421 C 0.64738 0.70410 0.20344
 C422 C 0.65741 0.68607 0.21317
 C423 C 0.67636 0.67718 0.20437
 C424 C 0.68557 0.68651 0.18567
 C425 C 0.68474 0.71359 0.15703
 C426 C 0.70322 0.70433 0.14747
 C427 C 0.71301 0.68631 0.15746
 C428 C 0.70427 0.67730 0.17639
 C429 C 0.71355 0.65880 0.18578
 C430 C 0.70428 0.64917 0.20424
 C431 C 0.68582 0.65868 0.21358
 H432 H 0.64932 0.72731 0.17724
 H433 H 0.65026 0.67863 0.22737
 H434 H 0.67697 0.72742 0.14950
 H435 H 0.72721 0.67895 0.15026
 H436 H 0.72773 0.65163 0.17836
 H437 H 0.67844 0.65140 0.22775
 C438 C 0.17738 0.04323 1.07193
 C439 C 0.15847 0.03449 1.06282
 C440 C 0.14870 0.04411 1.04452
 C441 C 0.15876 0.06231 1.03501
 C442 C 0.17768 0.07119 1.04394
 C443 C 0.18699 0.06168 1.06251
 C444 C 0.18633 0.03425 1.09081
 C445 C 0.20469 0.04361 1.10071
 C446 C 0.21440 0.06180 1.09081
 C447 C 0.20560 0.07094 1.07195
 C448 C 0.21469 0.08971 1.06288
 C449 C 0.20530 0.09955 1.04459
 C450 C 0.18695 0.08995 1.03504
 H451 H 0.15110 0.02048 1.07045
 H452 H 0.15163 0.07002 1.02093
 H453 H 0.17855 0.02026 1.09805
 H454 H 0.22853 0.06933 1.09804
 H455 H 0.22878 0.09695 1.07046
 H456 H 0.17948 0.09738 1.02099
 C457 C 0.57283 0.17757 0.54439
 C458 C 0.59197 0.18625 0.53579
 C459 C 0.60196 0.20435 0.54544
 C460 C 0.59219 0.21406 0.56361
 C461 C 0.57305 0.20555 0.57239
 C462 C 0.56335 0.18721 0.56278
 C463 C 0.56347 0.15892 0.53534
 C464 C 0.54486 0.14955 0.54457
 C465 C 0.53530 0.15952 0.56269
 C466 C 0.54447 0.17817 0.57190
 C467 C 0.53551 0.18743 0.59059
 C468 C 0.54527 0.20550 0.60052
 C469 C 0.56390 0.21464 0.59109
 H470 H 0.59932 0.17856 0.52184
 H471 H 0.59973 0.22796 0.57127
 H472 H 0.57108 0.15139 0.52144
 H473 H 0.52101 0.15245 0.57002
 H474 H 0.52120 0.18016 0.59769
 H475 H 0.57165 0.22850 0.59860
 C476 C 0.07432 0.54633 0.67594
 C477 C 0.09321 0.53757 0.68503
 C478 C 0.10264 0.54689 0.70360
 C479 C 0.09258 0.56489 0.71331
 C480 C 0.07367 0.57381 0.70441
 C481 C 0.06453 0.56454 0.68563
 C482 C 0.06546 0.53754 0.65693
 C483 C 0.04702 0.54683 0.64728
 C484 C 0.03720 0.56484 0.65724
 C485 C 0.04587 0.57379 0.67626
 C486 C 0.03655 0.59226 0.68565
 C487 C 0.04575 0.60183 0.70420
 C488 C 0.06418 0.59228 0.71362
 H489 H 0.10080 0.52375 0.67731
 H490 H 0.09967 0.57228 0.72758
 H491 H 0.07325 0.52372 0.64941
 H492 H 0.02302 0.57221 0.64998
 H493 H 0.02241 0.59947 0.67816
 H494 H 0.07150 0.59950 0.72787
 C495 C 0.67526 0.57431 0.04620
 C496 C 0.65633 0.56531 0.03741
 C497 C 0.64684 0.54676 0.04670
 C498 C 0.65687 0.53697 0.06468
 C499 C 0.67582 0.54578 0.07363
 C500 C 0.68503 0.56455 0.06440
 C501 C 0.68419 0.59330 0.03745
 C502 C 0.70268 0.60286 0.04676
 C503 C 0.71248 0.59283 0.06474
 C504 C 0.70374 0.57383 0.07366
 C505 C 0.71302 0.56437 0.09213
 C506 C 0.70375 0.54583 0.10166
 C507 C 0.68528 0.53649 0.09209
 H508 H 0.64875 0.57308 0.02361
 H509 H 0.64973 0.52272 0.07205
 H510 H 0.67641 0.60086 0.02363
 H511 H 0.72669 0.60004 0.07213
 H512 H 0.72720 0.57179 0.09935
 H513 H 0.67790 0.52227 0.09928
 C514 C 0.04485 0.67731 0.57300
 C515 C 0.03593 0.68671 0.59166
 C516 C 0.04526 0.70534 0.60098
 C517 C 0.06340 0.71485 0.59099
 C518 C 0.07249 0.70564 0.57232
 C519 C 0.06324 0.68677 0.56332
 C520 C 0.03610 0.65819 0.56432
 C521 C 0.04557 0.64821 0.54616
 C522 C 0.06374 0.65795 0.53643
 C523 C 0.07268 0.67707 0.54494
 C524 C 0.09134 0.68621 0.53576
 C525 C 0.10089 0.70484 0.54484
 C526 C 0.09114 0.71460 0.56297
 H527 H 0.02201 0.67915 0.59921
 H528 H 0.07081 0.72915 0.59801
 H529 H 0.02215 0.65085 0.57203
 H530 H 0.07127 0.65044 0.52248
 H531 H 0.09870 0.67846 0.52184
 H532 H 0.09835 0.72891 0.57020
 C533 C 0.54409 1.07101 0.67770
 C534 C 0.53532 1.06195 0.65878
 C535 C 0.54496 1.04375 0.64887
 C536 C 0.56326 1.03431 0.65880
 C537 C 0.57218 1.04320 0.67774
 C538 C 0.56261 1.06165 0.68720
 C539 C 0.53506 1.08978 0.68681
 C540 C 0.54443 1.09952 0.70518
 C541 C 0.56268 1.08982 0.71477
 C542 C 0.57189 1.07107 0.70585
 C543 C 0.59071 1.06207 0.71483
 C544 C 0.60060 1.04388 0.70532
 C545 C 0.59101 1.03437 0.68692
 H546 H 0.52125 1.06954 0.65152
 H547 H 0.57100 1.02031 0.65156
 H548 H 0.52104 1.09710 0.67920
 H549 H 0.57013 1.09717 0.72888
 H550 H 0.59793 1.06962 0.72895
 H551 H 0.59848 1.02041 0.67936
 C552 C 0.42599 0.32323 0.95417
 C553 C 0.43530 0.34179 0.96345
 C554 C 0.45381 0.35152 0.95424
 C555 C 0.46325 0.34180 0.93584
 C556 C 0.45410 0.32322 0.92641
 C557 C 0.43537 0.31394 0.93556
 C558 C 0.40702 0.31425 0.96285
 C559 C 0.39711 0.29617 0.95307
 C560 C 0.40677 0.28681 0.93468
 C561 C 0.42574 0.29562 0.92582
 C562 C 0.43485 0.28678 0.90699
 C563 C 0.45338 0.29611 0.89755
 C564 C 0.46302 0.31421 0.90756
 H565 H 0.42772 0.34890 0.97759
 H566 H 0.47748 0.34891 0.92843
 H567 H 0.39975 0.32166 0.97699
 H568 H 0.39930 0.27292 0.92693
 H569 H 0.42719 0.27289 0.89944
 H570 H 0.47725 0.32161 0.90045
 C571 C 0.92642 0.45430 0.32387
 C572 C 0.93587 0.46348 0.34240
 C573 C 0.95437 0.45414 0.35201
 C574 C 0.96370 0.43573 0.34219
 C575 C 0.95442 0.42641 0.32364
 C576 C 0.93568 0.43566 0.31448
 C577 C 0.90744 0.46309 0.31502
 C578 C 0.89738 0.45340 0.29699
 C579 C 0.90692 0.43497 0.28754
 C580 C 0.92591 0.42601 0.29621
 C581 C 0.93490 0.40714 0.28727
 C582 C 0.95344 0.39761 0.29647
 C583 C 0.96323 0.40754 0.31453
 H584 H 0.92837 0.47764 0.34958
 H585 H 0.97793 0.42823 0.34922
 H586 H 0.90025 0.47725 0.32251
 H587 H 0.89935 0.42728 0.27368
 H588 H 0.92713 0.39966 0.27342
 H589 H 0.97747 0.40035 0.32183
 C590 C 0.32568 0.95357 0.42478
 C591 C 0.31652 0.96241 0.40593
 C592 C 0.29807 0.95298 0.39640
 C593 C 0.28856 0.93477 0.40630
 C594 C 0.29753 0.92576 0.42513
 C595 C 0.31619 0.93515 0.43439
 C596 C 0.34453 0.96253 0.43379
 C597 C 0.35431 0.95323 0.45225
 C598 C 0.34443 0.93497 0.46187
 C599 C 0.32558 0.92586 0.45302
 C600 C 0.31635 0.90720 0.46219
 C601 C 0.29790 0.89754 0.45289
 C602 C 0.28847 0.90713 0.43447
 H603 H 0.32407 0.97640 0.39846
 H604 H 0.27438 0.92729 0.39913
 H605 H 0.35177 0.97656 0.42606
 H606 H 0.35158 0.92748 0.47606
 H607 H 0.32383 0.89997 0.47634
 H608 H 0.27430 0.89985 0.42708
 O609 O 0.30767 0.49837 0.77783
 O610 O 0.30071 0.53549 0.77495
 O611 O 0.25105 0.47213 0.80759
 O612 O 0.21528 0.47173 0.80127
 O613 O 0.27774 0.44192 0.75092
 O614 O 0.27586 0.44991 0.71305
 O615 O 0.19351 0.52832 0.74876
 O616 O 0.19956 0.52389 0.78567
 O617 O 0.24830 0.55644 0.72196
 O618 O 0.28736 0.54892 0.72344
 O619 O 0.22194 0.50147 0.69325
 O620 O 0.22307 0.46260 0.70067
 O621 O 0.19340 0.50224 0.72261
 O622 O 0.20111 0.46204 0.72477
 O623 O 0.24809 0.52744 0.69309
 O624 O 0.28794 0.52501 0.70118
 O625 O 0.22200 0.55632 0.74772
 O626 O 0.22921 0.54922 0.78690
 O627 O 0.30774 0.47265 0.75127
 O628 O 0.29956 0.47442 0.71286
 O629 O 0.25170 0.44178 0.77698
 O630 O 0.21259 0.45055 0.77349
 O631 O 0.27757 0.49778 0.80751
 O632 O 0.27269 0.53689 0.79907
 Zr633 Zr 0.27627 0.51143 0.77623
 O634 O 0.25741 0.53226 0.75689
 Zr635 Zr 0.23828 0.47315 0.77598
 O636 O 0.21757 0.49270 0.75722
 Zr637 Zr 0.27630 0.47345 0.73793
 O638 O 0.25704 0.49248 0.71717
 Zr639 Zr 0.22456 0.52562 0.76230
 O640 O 0.24332 0.50612 0.78340
 Zr641 Zr 0.26236 0.52543 0.72397
 O642 O 0.28335 0.50638 0.74321
 Zr643 Zr 0.22413 0.48749 0.72425
 O644 O 0.24341 0.46614 0.74301
 O645 O 0.27095 0.47863 0.77068
 O646 O 0.22952 0.52037 0.72934
 C647 C 0.31688 0.48337 0.76667
 C648 C 0.26646 0.48277 0.81672
 C649 C 0.26691 0.43267 0.76609
 C650 C 0.18450 0.51786 0.73315
 C651 C 0.23262 0.56536 0.73229
 C652 C 0.23246 0.51697 0.68419
 H653 H 0.26086 0.54751 0.76046
 H654 H 0.26045 0.48889 0.70196
 H655 H 0.28020 0.46935 0.77992
 H656 H 0.20233 0.48949 0.76088
 H657 H 0.20643 0.51921 0.79939
 H658 H 0.20395 0.48248 0.79782
 H659 H 0.28540 0.51275 0.69117
 H660 H 0.30691 0.48864 0.71399
 H661 H 0.21688 0.55948 0.78630
 H662 H 0.28424 0.53554 0.81018
 H663 H 0.23665 0.46335 0.69225
 H664 H 0.26138 0.44303 0.71354
 H665 H 0.30683 0.53508 0.76015
 H666 H 0.28608 0.55775 0.73674
 H667 H 0.21511 0.44203 0.76014
 H668 H 0.19103 0.46478 0.73689
 O669 O 0.19179 0.02790 0.24840
 O670 O 0.19898 0.02506 0.28544
 O671 O 0.24825 0.05780 0.22191
 O672 O 0.28398 0.05156 0.22125
 O673 O 0.22144 0.00086 0.19185
 O674 O 0.22331 -0.03697 0.19998
 O675 O 0.30620 -0.00071 0.27780
 O676 O 0.29999 0.03621 0.27336
 O677 O 0.25174 -0.02779 0.30622
 O678 O 0.21252 -0.02634 0.29892
 O679 O 0.27772 -0.05648 0.25134
 O680 O 0.27624 -0.04919 0.21245
 O681 O 0.30619 -0.02697 0.25182
 O682 O 0.29814 -0.02497 0.21167
 O683 O 0.25173 -0.05664 0.27739
 O684 O 0.21185 -0.04875 0.27511
 O685 O 0.27806 -0.00197 0.30588
 O686 O 0.27056 0.03723 0.29890
 O687 O 0.19158 0.00130 0.22273
 O688 O 0.19978 -0.03713 0.22459
 O689 O 0.24744 0.02703 0.19157
 O690 O 0.28658 0.02378 0.20020
 O691 O 0.22189 0.05768 0.24767
 O692 O 0.22699 0.04929 0.28672
 Zr693 Zr 0.22329 0.02639 0.26131
 O694 O 0.24232 0.00715 0.28208
 Zr695 Zr 0.26102 0.02619 0.22288
 O696 O 0.28189 0.00752 0.24235
 Zr697 Zr 0.22303 -0.01199 0.22342
 O698 O 0.24246 -0.03267 0.24240
 Zr699 Zr 0.27511 0.01267 0.27525
 O700 O 0.25618 0.03367 0.25583
 Zr701 Zr 0.23737 -0.02582 0.27533
 O702 O 0.21621 -0.00668 0.25635
 Zr703 Zr 0.27534 -0.02551 0.23724
 O704 O 0.25588 -0.00684 0.21596
 O705 O 0.22838 0.02081 0.22850
 O706 O 0.27015 -0.02033 0.27010
 C707 C 0.18249 0.01669 0.23346
 C708 C 0.23293 0.06693 0.23264
 C709 C 0.23225 0.01602 0.18252
 C710 C 0.31517 -0.01632 0.26735
 C711 C 0.26757 -0.01747 0.31497
 C712 C 0.26734 -0.06552 0.26693
 H713 H 0.23898 0.01073 0.29733
 H714 H 0.23905 -0.04792 0.23887
 H715 H 0.21908 0.03002 0.21924
 H716 H 0.29710 0.01124 0.23905
 H717 H 0.29301 0.04992 0.26878
 H718 H 0.29531 0.04826 0.23206
 H719 H 0.21430 -0.05876 0.26285
 H720 H 0.19256 -0.03599 0.23884
 H721 H 0.28299 0.03669 0.30906
 H722 H 0.21542 0.06036 0.28541
 H723 H 0.26271 -0.05772 0.21335
 H724 H 0.23778 -0.03654 0.19312
 H725 H 0.19294 0.01020 0.28512
 H726 H 0.21397 -0.01310 0.30784
 H727 H 0.28406 0.01037 0.19175
 H728 H 0.30824 -0.01281 0.21434
 O729 O 0.47168 0.80812 0.25063
 O730 O 0.47473 0.80100 0.21354
 O731 O 0.44204 0.75156 0.27702
 O732 O 0.44830 0.71568 0.27739
 O733 O 0.49857 0.77844 0.30725
 O734 O 0.53639 0.77672 0.29937
 O735 O 0.50090 0.69375 0.22118
 O736 O 0.46401 0.69977 0.22543
 O737 O 0.52783 0.74855 0.19306
 O738 O 0.52619 0.78773 0.20037
 O739 O 0.55631 0.72246 0.24805
 O740 O 0.54883 0.72375 0.28690
 O741 O 0.52699 0.69379 0.24730
 O742 O 0.52477 0.70168 0.28745
 O743 O 0.55651 0.74861 0.22208
 O744 O 0.54836 0.78853 0.22438
 O745 O 0.50213 0.72211 0.19318
 O746 O 0.46292 0.72934 0.19999
 O747 O 0.49813 0.80837 0.27645
 O748 O 0.53659 0.80032 0.27476
 O749 O 0.47256 0.75227 0.30739
 O750 O 0.47599 0.71310 0.29873
 O751 O 0.44215 0.77800 0.25126
 O752 O 0.45060 0.77284 0.21221
 Zr753 Zr 0.47340 0.77664 0.23768
 O754 O 0.49278 0.75772 0.21699
 Zr755 Zr 0.47359 0.73874 0.27607
 O756 O 0.49240 0.71797 0.25666
 Zr757 Zr 0.51158 0.77694 0.27577
 O758 O 0.53237 0.75761 0.25690
 Zr759 Zr 0.48738 0.72483 0.22373
 O760 O 0.46624 0.74364 0.24307
 Zr761 Zr 0.52564 0.76281 0.22394
 O762 O 0.50636 0.78387 0.24283
 Zr763 Zr 0.52532 0.72464 0.26196
 O764 O 0.50652 0.74400 0.28316
 O765 O 0.47889 0.77145 0.27050
 O766 O 0.52029 0.72992 0.22908
 C767 C 0.48273 0.81742 0.26568
 C768 C 0.43295 0.76697 0.26634
 C769 C 0.48342 0.76756 0.31648
 C770 C 0.51647 0.68479 0.23170
 C771 C 0.51761 0.73270 0.18420
 C772 C 0.56538 0.73299 0.23256
 H773 H 0.48925 0.76110 0.20173
 H774 H 0.54757 0.76109 0.26053
 H775 H 0.46965 0.78072 0.27973
 H776 H 0.48873 0.70270 0.25991
 H777 H 0.45028 0.70666 0.23001
 H778 H 0.45182 0.70425 0.26674
 H779 H 0.55835 0.78606 0.23667
 H780 H 0.53540 0.80769 0.26057
 H781 H 0.46358 0.71694 0.18978
 H782 H 0.43952 0.78441 0.21346
 H783 H 0.55729 0.73734 0.28609
 H784 H 0.53598 0.76221 0.30622
 H785 H 0.48950 0.80720 0.21402
 H786 H 0.51296 0.78633 0.19145
 H787 H 0.48935 0.71563 0.30724
 H788 H 0.51266 0.69155 0.28471
 O789 O 0.05779 0.72245 0.74915
 O790 O 0.05073 0.72544 0.78624
 O791 O 0.00119 0.69290 0.72271
 O792 O -0.03459 0.69926 0.72235
 O793 O 0.02812 0.74952 0.69259
 O794 O 0.02648 0.78743 0.70063
 O795 O -0.05633 0.75188 0.77861
 O796 O -0.05038 0.71492 0.77430
 O797 O -0.00151 0.77863 0.80696
 O798 O 0.03767 0.77691 0.79953
 O799 O -0.02764 0.80733 0.75213
 O800 O -0.02620 0.80002 0.71315
 O801 O -0.05623 0.77803 0.75253
 O802 O -0.04832 0.77599 0.71245
 O803 O -0.00153 0.80742 0.77813
 O804 O 0.03831 0.79933 0.77572
 O805 O -0.02797 0.75296 0.80672
 O806 O -0.02086 0.71370 0.79976
 O807 O 0.05808 0.74900 0.72342
 O808 O 0.05014 0.78749 0.72518
 O809 O 0.00194 0.72352 0.69242
 O810 O -0.03711 0.72704 0.70106
 O811 O 0.02760 0.69291 0.74847
 O812 O 0.02259 0.70134 0.78753
 Zr813 Zr 0.02637 0.72420 0.76211
 O814 O 0.00753 0.74361 0.78286
 Zr815 Zr -0.01150 0.72454 0.72374
 O816 O -0.03217 0.74340 0.74318
 Zr817 Zr 0.02672 0.76250 0.72412
 O818 O 0.00751 0.78335 0.74309
 Zr819 Zr -0.02532 0.73827 0.77609
 O820 O -0.00659 0.71710 0.75670
 Zr821 Zr 0.01268 0.77653 0.77604
 O822 O 0.03364 0.75722 0.75706
 Zr823 Zr -0.02542 0.77637 0.73799
 O824 O -0.00618 0.75752 0.71673
 O825 O 0.02118 0.72976 0.72931
 O826 O -0.02016 0.77124 0.77086
 C827 C 0.06709 0.73354 0.73416
 C828 C 0.01654 0.68373 0.73339
 C829 C 0.01719 0.73438 0.68332
 C830 C -0.06524 0.76749 0.76809
 C831 C -0.01733 0.76839 0.81578
 C832 C -0.01718 0.81632 0.76773
 H833 H 0.01091 0.74002 0.79811
 H834 H 0.01099 0.79858 0.73954
 H835 H 0.03040 0.72050 0.72005
 H836 H -0.04742 0.73977 0.73990
 H837 H -0.04354 0.70117 0.76968
 H838 H -0.04601 0.70283 0.73296
 H839 H 0.03584 0.80936 0.76346
 H840 H 0.05737 0.78637 0.73945
 H841 H -0.03324 0.71436 0.80995
 H842 H 0.03411 0.69021 0.78624
 H843 H -0.01270 0.80858 0.71415
 H844 H 0.01197 0.78707 0.69381
 H845 H 0.05695 0.74023 0.78580
 H846 H 0.03616 0.76371 0.80850
 H847 H -0.03456 0.74043 0.69260
 H848 H -0.05840 0.76381 0.71506
 O849 O 0.00108 0.05769 0.02831
 O850 O -0.03594 0.05057 0.02516
 O851 O 0.02725 0.00101 0.05813
 O852 O 0.02774 -0.03479 0.05180
 O853 O 0.05767 0.02785 0.00155
 O854 O 0.04975 0.02621 -0.03631
 O855 O -0.02834 -0.05677 -0.00105
 O856 O -0.02419 -0.05071 0.03592
 O857 O -0.05649 -0.00198 -0.02803
 O858 O -0.04910 0.03723 -0.02640
 O859 O -0.00157 -0.02817 -0.05634
 O860 O 0.03735 -0.02663 -0.04876
 O861 O -0.00217 -0.05671 -0.02704
 O862 O 0.03785 -0.04878 -0.02475
 O863 O -0.02753 -0.00206 -0.05663
 O864 O -0.02513 0.03792 -0.04858
 O865 O -0.05639 -0.02843 -0.00234
 O866 O -0.04962 -0.02116 0.03691
 O867 O 0.02689 0.05790 0.00191
 O868 O 0.02526 0.04985 -0.03652
 O869 O 0.05771 0.00176 0.02762
 O870 O 0.04902 -0.03739 0.02419
 O871 O 0.00157 0.02746 0.05794
 O872 O -0.03741 0.02243 0.04926
 Zr873 Zr -0.01189 0.02617 0.02657
 O874 O -0.03256 0.00722 0.00710
 Zr875 Zr 0.02641 -0.01172 0.02651
 O876 O 0.00704 -0.03251 0.00760
 Zr877 Zr 0.02620 0.02645 -0.01151
 O878 O 0.00733 0.00712 -0.03241
 Zr879 Zr -0.02586 -0.02567 0.01252
 O880 O -0.00655 -0.00683 0.03374
 Zr881 Zr -0.02560 0.01228 -0.02578
 O882 O -0.00672 0.03335 -0.00641
 Zr883 Zr 0.01239 -0.02584 -0.02533
 O884 O 0.03355 -0.00649 -0.00642
 O885 O 0.02091 0.02100 0.02121
 O886 O -0.02047 -0.02059 -0.02040
 C887 C 0.01609 0.06699 0.01725
 C888 C 0.01654 0.01636 0.06723
 C889 C 0.06688 0.01695 0.01672
 C890 C -0.01777 -0.06572 -0.01659
 C891 C -0.06536 -0.01783 -0.01784
 C892 C -0.01710 -0.01774 -0.06544
 H893 H -0.04781 0.01060 0.01058
 H894 H 0.01095 0.01057 -0.04761
 H895 H 0.03013 0.03026 0.03050
 H896 H 0.01028 -0.04777 0.01128
 H897 H -0.01966 -0.04379 0.04968
 H898 H 0.01702 -0.04617 0.04830
 H899 H -0.01290 0.03538 -0.05858
 H900 H 0.01101 0.05708 -0.03549
 H901 H -0.05980 -0.03358 0.03623
 H902 H -0.03615 0.03399 0.06037
 H903 H 0.03631 -0.01320 -0.05745
 H904 H 0.05651 0.01167 -0.03596
 H905 H -0.03549 0.05670 0.01035
 H906 H -0.05804 0.03582 -0.01320
 H907 H 0.05753 -0.03487 0.01085
 H908 H 0.03517 -0.05884 -0.01257
 O909 O -0.02826 0.44232 0.49845
 O910 O -0.02515 0.44929 0.53556
 O911 O -0.05789 0.49908 0.47233
 O912 O -0.05151 0.53488 0.47186
 O913 O -0.00137 0.47219 0.44203
 O914 O 0.03645 0.47395 0.44998
 O915 O 0.00106 0.55669 0.52830
 O916 O -0.03582 0.55061 0.52401
 O917 O 0.02797 0.50180 0.55637
 O918 O 0.02635 0.46267 0.54894
 O919 O 0.05645 0.52808 0.50144
 O920 O 0.04898 0.52694 0.46265
 O921 O 0.02711 0.55674 0.50221
 O922 O 0.02485 0.54888 0.46202
 O923 O 0.05665 0.50186 0.52734
 O924 O 0.04847 0.46195 0.52494
 O925 O 0.00229 0.52821 0.55629
 O926 O -0.03692 0.52097 0.54936
 O927 O -0.00183 0.44219 0.47268
 O928 O 0.03664 0.45026 0.47454
 O929 O -0.02741 0.49828 0.44194
 O930 O -0.02383 0.53749 0.45067
 O931 O -0.05780 0.47256 0.49800
 O932 O -0.04921 0.47741 0.53705
 Zr933 Zr -0.02649 0.47378 0.51154
 O934 O -0.00708 0.49267 0.53232
 Zr935 Zr -0.02629 0.51179 0.47327
 O936 O -0.00747 0.53254 0.49277
 Zr937 Zr 0.01165 0.47362 0.47352
 O938 O 0.03247 0.49293 0.49248
 Zr939 Zr -0.01246 0.52558 0.52568
 O940 O -0.03362 0.50679 0.50624
 Zr941 Zr 0.02577 0.48764 0.52542
 O942 O 0.00646 0.46661 0.50644
 Zr943 Zr 0.02544 0.52591 0.48750
 O944 O 0.00662 0.50659 0.46621
 O945 O -0.02104 0.47907 0.47875
 O946 O 0.02044 0.52055 0.52037
 C947 C -0.01723 0.43308 0.48339
 C948 C -0.06702 0.48369 0.48300
 C949 C -0.01656 0.48303 0.43281
 C950 C 0.01660 0.56571 0.51780
 C951 C 0.01775 0.51758 0.56527
 C952 C 0.06553 0.51751 0.51689
 H953 H -0.01060 0.48924 0.54757
 H954 H 0.04765 0.48948 0.48887
 H955 H -0.03033 0.46983 0.46950
 H956 H -0.01113 0.54780 0.48956
 H957 H -0.04955 0.54372 0.51938
 H958 H -0.04807 0.54620 0.48266
 H959 H 0.05843 0.46445 0.51266
 H960 H 0.03542 0.44284 0.48870
 H961 H -0.03625 0.53333 0.55960
 H962 H -0.06032 0.46586 0.53573
 H963 H 0.05731 0.51328 0.46333
 H964 H 0.03602 0.48846 0.44313
 H965 H -0.01037 0.44313 0.53509
 H966 H 0.01307 0.46396 0.55777
 H967 H -0.01055 0.53490 0.44210
 H968 H 0.01278 0.55903 0.46479
 O969 O 0.55769 0.02803 0.50130
 O970 O 0.55065 0.02492 0.46424
 O971 O 0.50116 0.05767 0.52753
 O972 O 0.46545 0.05127 0.52828
 O973 O 0.52809 0.00090 0.55782
 O974 O 0.52637 -0.03693 0.54979
 O975 O 0.44354 -0.00131 0.47157
 O976 O 0.44949 0.03565 0.47609
 O977 O 0.49813 -0.02808 0.44345
 O978 O 0.53725 -0.02660 0.45088
 O979 O 0.47201 -0.05679 0.49844
 O980 O 0.47330 -0.04940 0.53724
 O981 O 0.44351 -0.02747 0.49763
 O982 O 0.45142 -0.02514 0.53792
 O983 O 0.49803 -0.05695 0.47242
 O984 O 0.53790 -0.04891 0.47476
 O985 O 0.47184 -0.00227 0.44364
 O986 O 0.47908 0.03695 0.45072
 O987 O 0.55798 0.00148 0.52702
 O988 O 0.54988 -0.03707 0.52516
 O989 O 0.50205 0.02699 0.55800
 O990 O 0.46288 0.02348 0.54931
 O991 O 0.52754 0.05757 0.50180
 O992 O 0.52258 0.04904 0.46279
 Zr993 Zr 0.52627 0.02625 0.48829
 O994 O 0.50734 0.00687 0.46755
 Zr995 Zr 0.48848 0.02600 0.52668
 O996 O 0.46768 0.00722 0.50720
 Zr997 Zr 0.52658 -0.01202 0.52628
 O998 O 0.50719 -0.03282 0.50735
 Zr999 Zr 0.47453 0.01231 0.47430
 O1000 O 0.49336 0.03343 0.49371
 Zr1001 Zr 0.51235 -0.02606 0.47440
 O1002 O 0.53343 -0.00678 0.49335
 Zr1003 Zr 0.47428 -0.02576 0.51240
 O1004 O 0.49369 -0.00699 0.53367
 O1005 O 0.52113 0.02074 0.52111
 O1006 O 0.47954 -0.02067 0.47954
 C1007 C 0.56700 0.01695 0.51629
 C1008 C 0.51646 0.06682 0.51679
 C1009 C 0.51726 0.01606 0.56710
 C1010 C 0.43459 -0.01696 0.48198
 C1011 C 0.48240 -0.01772 0.43459
 C1012 C 0.48243 -0.06584 0.48290
 H1013 H 0.51072 0.01044 0.45230
 H1014 H 0.51062 -0.04805 0.51094
 H1015 H 0.53038 0.03002 0.53035
 H1016 H 0.45245 0.01088 0.51043
 H1017 H 0.45636 0.04940 0.48072
 H1018 H 0.45417 0.04794 0.51742
 H1019 H 0.53545 -0.05887 0.48708
 H1020 H 0.55719 -0.03584 0.51096
 H1021 H 0.46669 0.03636 0.44050
 H1022 H 0.53413 0.06015 0.46407
 H1023 H 0.48692 -0.05777 0.53652
 H1024 H 0.51188 -0.03658 0.55662
 H1025 H 0.55681 0.01012 0.46471
 H1026 H 0.53593 -0.01329 0.44205
 H1027 H 0.46548 0.01014 0.55784
 H1028 H 0.44116 -0.01319 0.53503
 O1029 O 0.49850 0.47114 -0.05771
 O1030 O 0.53553 0.47410 -0.05053
 O1031 O 0.47208 0.44146 -0.00115
 O1032 O 0.47183 0.44778 0.03470
 O1033 O 0.44193 0.49802 -0.02803
 O1034 O 0.44985 0.53590 -0.02634
 O1035 O 0.52803 0.50064 0.05657
 O1036 O 0.52372 0.46366 0.05065
 O1037 O 0.55613 0.52739 0.00170
 O1038 O 0.54867 0.52568 -0.03747
 O1039 O 0.50132 0.55598 0.02782
 O1040 O 0.46238 0.54847 0.02642
 O1041 O 0.50193 0.52672 0.05647
 O1042 O 0.46188 0.52452 0.04862
 O1043 O 0.52724 0.55612 0.00170
 O1044 O 0.52481 0.54797 -0.03817
 O1045 O 0.55602 0.50174 0.02819
 O1046 O 0.54909 0.46245 0.02109
 O1047 O 0.47275 0.49763 -0.05800
 O1048 O 0.47435 0.53610 -0.04994
 O1049 O 0.44180 0.47200 -0.00186
 O1050 O 0.45050 0.47551 0.03725
 O1051 O 0.49777 0.44155 -0.02757
 O1052 O 0.53679 0.45000 -0.02238
 Zr1053 Zr 0.51140 0.47284 -0.02621
 O1054 O 0.53212 0.49231 -0.00734
 Zr1055 Zr 0.47311 0.47308 0.01163
 O1056 O 0.49254 0.49200 0.03237
 Zr1057 Zr 0.47339 0.51107 -0.02657
 O1058 O 0.49232 0.53196 -0.00731
 Zr1059 Zr 0.52543 0.48698 0.02554
 O1060 O 0.50606 0.46574 0.00677
 Zr1061 Zr 0.52523 0.52521 -0.01249
 O1062 O 0.50629 0.50584 -0.03349
 Zr1063 Zr 0.48730 0.52496 0.02565
 O1064 O 0.46606 0.50605 0.00635
 O1065 O 0.47863 0.47833 -0.02106
 O1066 O 0.52013 0.51992 0.02038
 C1067 C 0.48353 0.48225 -0.06704
 C1068 C 0.48272 0.43233 -0.01654
 C1069 C 0.43269 0.48286 -0.01713
 C1070 C 0.51753 0.51625 0.06548
 C1071 C 0.56500 0.51719 0.01752
 C1072 C 0.51684 0.56502 0.01733
 H1073 H 0.54736 0.48877 -0.01072
 H1074 H 0.48873 0.54717 -0.01079
 H1075 H 0.46939 0.46907 -0.03034
 H1076 H 0.48931 0.48837 0.04763
 H1077 H 0.51910 0.44989 0.04380
 H1078 H 0.48241 0.45140 0.04617
 H1079 H 0.51257 0.55799 -0.03568
 H1080 H 0.48857 0.53502 -0.05721
 H1081 H 0.55930 0.46314 0.03348
 H1082 H 0.53551 0.43888 -0.03392
 H1083 H 0.46336 0.55707 0.01294
 H1084 H 0.44307 0.53555 -0.01182
 H1085 H 0.53510 0.48889 -0.05674
 H1086 H 0.55765 0.51249 -0.03598
 H1087 H 0.44205 0.48891 0.03473
 H1088 H 0.46453 0.51232 0.05868
 O1089 O 0.80780 0.25117 0.47233
 O1090 O 0.80072 0.21405 0.47540
 O1091 O 0.75126 0.27754 0.44274
 O1092 O 0.71549 0.27791 0.44906
 O1093 O 0.77818 0.30775 0.49935
 O1094 O 0.77655 0.29973 0.53721
 O1095 O 0.69361 0.22164 0.50160
 O1096 O 0.69964 0.22585 0.46473
 O1097 O 0.74840 0.19330 0.52850
 O1098 O 0.78750 0.20070 0.52690
 O1099 O 0.72241 0.24834 0.55715
 O1100 O 0.72369 0.28719 0.54972
 O1101 O 0.69370 0.24772 0.52775
 O1102 O 0.70169 0.28786 0.52564
 O1103 O 0.74851 0.22237 0.55731
 O1104 O 0.78830 0.22463 0.54912
 O1105 O 0.72196 0.19348 0.50282
 O1106 O 0.72913 0.20042 0.46361
 O1107 O 0.80811 0.27696 0.49883
 O1108 O 0.80015 0.27515 0.53731
 O1109 O 0.75204 0.30789 0.47333
 O1110 O 0.71295 0.29919 0.47679
 O1111 O 0.77763 0.25176 0.44281
 O1112 O 0.77259 0.21268 0.45128
 Zr1113 Zr 0.77637 0.23816 0.47409
 O1114 O 0.75750 0.21740 0.49349
 Zr1115 Zr 0.73855 0.27654 0.47435
 O1116 O 0.71784 0.25707 0.49318
 Zr1117 Zr 0.77675 0.27620 0.51232
 O1118 O 0.75747 0.25724 0.53314
 Zr1119 Zr 0.72466 0.22413 0.48812
 O1120 O 0.74343 0.24354 0.46696
 Zr1121 Zr 0.76262 0.22427 0.52639
 O1122 O 0.78362 0.24324 0.50709
 Zr1123 Zr 0.72455 0.26230 0.52613
 O1124 O 0.74385 0.28358 0.50731
 O1125 O 0.77122 0.27099 0.47960
 O1126 O 0.72977 0.22939 0.52107
 C1127 C 0.81711 0.26622 0.48339
 C1128 C 0.76660 0.26684 0.43360
 C1129 C 0.76728 0.31702 0.48421
 C1130 C 0.68467 0.23218 0.51715
 C1131 C 0.73260 0.18443 0.51824
 C1132 C 0.73294 0.23286 0.56623
 H1133 H 0.76087 0.20214 0.48994
 H1134 H 0.76096 0.26085 0.54834
 H1135 H 0.78045 0.28026 0.47034
 H1136 H 0.70261 0.26033 0.48952
 H1137 H 0.70651 0.23048 0.45100
 H1138 H 0.70410 0.26722 0.45258
 H1139 H 0.78593 0.23698 0.55905
 H1140 H 0.80746 0.26093 0.53611
 H1141 H 0.71675 0.19020 0.46425
 H1142 H 0.78412 0.21397 0.44018
 H1143 H 0.73730 0.28641 0.55812
 H1144 H 0.76208 0.30660 0.53681
 H1145 H 0.80694 0.21452 0.49017
 H1146 H 0.78613 0.19185 0.51361
 H1147 H 0.71552 0.30770 0.49015
 H1148 H 0.69158 0.28518 0.51349
 O1149 O 0.80736 0.75130 -0.02851
 O1150 O 0.80019 0.71423 -0.02548
 O1151 O 0.75086 0.77787 -0.05806
 O1152 O 0.71512 0.77851 -0.05169
 O1153 O 0.77807 0.80792 -0.00151
 O1154 O 0.77630 0.80005 0.03634
 O1155 O 0.69321 0.72193 0.00088
 O1156 O 0.69912 0.72630 -0.03604
 O1157 O 0.74785 0.69368 0.02773
 O1158 O 0.78691 0.70094 0.02622
 O1159 O 0.72193 0.74882 0.05632
 O1160 O 0.72320 0.78756 0.04891
 O1161 O 0.69332 0.74801 0.02702
 O1162 O 0.70134 0.78833 0.02460
 O1163 O 0.74790 0.72272 0.05650
 O1164 O 0.78781 0.72500 0.04833
 O1165 O 0.72145 0.69387 0.00201
 O1166 O 0.72862 0.70084 -0.03725
 O1167 O 0.80777 0.77702 -0.00195
 O1168 O 0.79971 0.77528 0.03659
 O1169 O 0.75191 0.80822 -0.02750
 O1170 O 0.71267 0.79964 -0.02389
 O1171 O 0.77717 0.75204 -0.05801
 O1172 O 0.77200 0.71293 -0.04952
 Zr1173 Zr 0.77589 0.73841 -0.02672
 O1174 O 0.75700 0.71771 -0.00729
 Zr1175 Zr 0.73820 0.77693 -0.02644
 O1176 O 0.71742 0.75747 -0.00766
 Zr1177 Zr 0.77640 0.77644 0.01153
 O1178 O 0.75703 0.75758 0.03234
 Zr1179 Zr 0.72419 0.72451 -0.01270
 O1180 O 0.74297 0.74391 -0.03385
 Zr1181 Zr 0.76212 0.72460 0.02561
 O1182 O 0.78318 0.74346 0.00628
 Zr1183 Zr 0.72412 0.76271 0.02529
 O1184 O 0.74353 0.78394 0.00652
 O1185 O 0.77085 0.77124 -0.02119
 O1186 O 0.72930 0.72981 0.02024
 C1187 C 0.81672 0.76628 -0.01742
 C1188 C 0.76617 0.76715 -0.06720
 C1189 C 0.76727 0.81723 -0.01668
 C1190 C 0.68432 0.73239 0.01652
 C1191 C 0.73204 0.68483 0.01747
 C1192 C 0.73236 0.73327 0.06539
 H1193 H 0.76034 0.70243 -0.01084
 H1194 H 0.76051 0.76119 0.04755
 H1195 H 0.78012 0.78045 -0.03046
 H1196 H 0.70218 0.76074 -0.01131
 H1197 H 0.70597 0.73093 -0.04978
 H1198 H 0.70381 0.76769 -0.04832
 H1199 H 0.78531 0.73722 0.05840
 H1200 H 0.80706 0.76108 0.03534
 H1201 H 0.71624 0.69062 -0.03658
 H1202 H 0.78349 0.71422 -0.06067
 H1203 H 0.73694 0.78697 0.05711
 H1204 H 0.76186 0.80697 0.03592
 H1205 H 0.80636 0.71463 -0.01068
 H1206 H 0.78561 0.69217 0.01287
 H1207 H 0.71539 0.80825 -0.01063
 H1208 H 0.69100 0.78541 0.01271
 O1209 O 1.05747 0.22166 0.24866
 O1210 O 1.05055 0.22465 0.28570
 O1211 O 1.00064 0.19208 0.22248
 O1212 O 0.96495 0.19855 0.22198
 O1213 O 1.02764 0.24871 0.19214
 O1214 O 1.02613 0.28656 0.20010
 O1215 O 0.94349 0.25125 0.27846
 O1216 O 0.94935 0.21430 0.27418
 O1217 O 0.99844 0.27800 0.30654
 O1218 O 1.03748 0.27636 0.29902
 O1219 O 0.97215 0.30664 0.25158
 O1220 O 0.97330 0.29919 0.21274
 O1221 O 0.94350 0.27736 0.25234
 O1222 O 0.95126 0.27509 0.21216
 O1223 O 0.99832 0.30678 0.27752
 O1224 O 1.03817 0.29857 0.27504
 O1225 O 0.97198 0.25233 0.30646
 O1226 O 0.97900 0.21305 0.29949
 O1227 O 1.05772 0.24818 0.22291
 O1228 O 1.04977 0.28669 0.22462
 O1229 O 1.00147 0.22272 0.19205
 O1230 O 0.96239 0.22631 0.20086
 O1231 O 1.02715 0.19209 0.24814
 O1232 O 1.02236 0.20068 0.28720
 Zr1233 Zr 1.02608 0.22344 0.26168
 O1234 O 1.00735 0.24293 0.28245
 Zr1235 Zr 0.98810 0.22377 0.22341
 O1236 O 0.96750 0.24265 0.24292
 Zr1237 Zr 1.02636 0.26169 0.22365
 O1238 O 1.00719 0.28258 0.24261
 Zr1239 Zr 0.97447 0.23761 0.27582
 O1240 O 0.99309 0.21639 0.25638
 Zr1241 Zr 1.01247 0.27584 0.27555
 O1242 O 1.03336 0.25645 0.25657
 Zr1243 Zr 0.97424 0.27560 0.23763
 O1244 O 0.99343 0.25673 0.21635
 O1245 O 1.02081 0.22894 0.22887
 O1246 O 0.97961 0.27056 0.27050
 C1247 C 1.06676 0.23276 0.23367
 C1248 C 1.01596 0.18288 0.23317
 C1249 C 1.01667 0.23360 0.18289
 C1250 C 0.93455 0.26686 0.26796
 C1251 C 0.98268 0.26776 0.31546
 C1252 C 0.98270 0.31569 0.26708
 H1253 H 1.01078 0.23938 0.29770
 H1254 H 1.01068 0.29779 0.23899
 H1255 H 1.02999 0.21964 0.21962
 H1256 H 0.95224 0.23902 0.23971
 H1257 H 0.95615 0.20053 0.26955
 H1258 H 0.95373 0.20196 0.23285
 H1259 H 1.03563 0.30862 0.26282
 H1260 H 1.05711 0.28553 0.23884
 H1261 H 0.96668 0.21374 0.30974
 H1262 H 1.03381 0.18949 0.28587
 H1263 H 0.98690 0.30761 0.21352
 H1264 H 1.01160 0.28625 0.19333
 H1265 H 1.05671 0.23947 0.28530
 H1266 H 1.03614 0.26306 0.30787
 H1267 H 0.96498 0.23963 0.19230
 H1268 H 0.94107 0.26304 0.21496
 O1269 O 0.74908 1.05764 0.72188
 O1270 O 0.78615 1.05077 0.72507
 O1271 O 0.72311 1.00088 0.69212
 O1272 O 0.72289 0.96503 0.69842
 O1273 O 0.69263 1.02748 0.74868
 O1274 O 0.70057 1.02590 0.78655
 O1275 O 0.77905 0.94341 0.75128
 O1276 O 0.77481 0.94944 0.71431
 O1277 O 0.80691 0.99832 0.77828
 O1278 O 0.79938 1.03754 0.77653
 O1279 O 0.75213 0.97194 0.80662
 O1280 O 0.71321 0.97312 0.79900
 O1281 O 0.75293 0.94329 0.77730
 O1282 O 0.71286 0.95093 0.77505
 O1283 O 0.77794 0.99825 0.80688
 O1284 O 0.77545 1.03812 0.79874
 O1285 O 0.80691 0.97189 0.75258
 O1286 O 0.80012 0.97914 0.71331
 O1287 O 0.72325 1.05772 0.74827
 O1288 O 0.72495 1.04970 0.78673
 O1289 O 0.69268 1.00137 0.72261
 O1290 O 0.70155 0.96231 0.72605
 O1291 O 0.74871 1.02747 0.69232
 O1292 O 0.78771 1.02264 0.70095
 Zr1293 Zr 0.76219 1.02623 0.72366
 O1294 O 0.78296 1.00741 0.74312
 Zr1295 Zr 0.72406 0.98810 0.72373
 O1296 O 0.74352 0.96743 0.74264
 Zr1297 Zr 0.72411 1.02628 0.76173
 O1298 O 0.74308 1.00707 0.78263
 Zr1299 Zr 0.77638 0.97449 0.73771
 O1300 O 0.75699 0.99320 0.71648
 Zr1301 Zr 0.77599 1.01245 0.77598
 O1302 O 0.75699 1.03340 0.75663
 Zr1303 Zr 0.73818 0.97407 0.77558
 O1304 O 0.71692 0.99329 0.75667
 O1305 O 0.72942 1.02085 0.72903
 O1306 O 0.77100 0.97954 0.77063
 C1307 C 0.73399 1.06685 0.73290
 C1308 C 0.73376 1.01633 0.68304
 C1309 C 0.68346 1.01652 0.73351
 C1310 C 0.76857 0.93439 0.76683
 C1311 C 0.81582 0.98251 0.76810
 C1312 C 0.76756 0.98254 0.81573
 H1313 H 0.79819 1.01087 0.73963
 H1314 H 0.73944 1.01052 0.79782
 H1315 H 0.72015 1.03005 0.71974
 H1316 H 0.74035 0.95215 0.73898
 H1317 H 0.77024 0.95632 0.70055
 H1318 H 0.73356 0.95365 0.70201
 H1319 H 0.76313 1.03563 0.80865
 H1320 H 0.73914 1.05708 0.78564
 H1321 H 0.81036 0.96679 0.71400
 H1322 H 0.78641 1.03421 0.68985
 H1323 H 0.71414 0.98659 0.80764
 H1324 H 0.69385 1.01133 0.78618
 H1325 H 0.78565 1.05692 0.73987
 H1326 H 0.80839 1.03610 0.76338
 H1327 H 0.69308 0.96474 0.73943
 H1328 H 0.71556 0.94091 0.76285
 O1329 O 0.74861 0.55796 0.22227
 O1330 O 0.78569 0.55098 0.22534
 O1331 O 0.72237 0.50123 0.19270
 O1332 O 0.72195 0.46540 0.19906
 O1333 O 0.69224 0.52816 0.24924
 O1334 O 0.70023 0.52641 0.28714
 O1335 O 0.77839 0.44368 0.25160
 O1336 O 0.77397 0.44967 0.21469
 O1337 O 0.80652 0.49853 0.27844
 O1338 O 0.79910 0.53771 0.27682
 O1339 O 0.75163 0.47236 0.30712
 O1340 O 0.71290 0.47343 0.29969
 O1341 O 0.75240 0.44365 0.27777
 O1342 O 0.71222 0.45147 0.27554
 O1343 O 0.77755 0.49856 0.30726
 O1344 O 0.77525 0.53841 0.29906
 O1345 O 0.80634 0.47212 0.25271
 O1346 O 0.79932 0.47933 0.21350
 O1347 O 0.72291 0.55816 0.24878
 O1348 O 0.72477 0.55012 0.28728
 O1349 O 0.69208 0.50198 0.22325
 O1350 O 0.70078 0.46281 0.22681
 O1351 O 0.74803 0.52776 0.19276
 O1352 O 0.78706 0.52284 0.20123
 Zr1353 Zr 0.76165 0.52651 0.22404
 O1354 O 0.78242 0.50765 0.24343
 Zr1355 Zr 0.72338 0.48851 0.22431
 O1356 O 0.74287 0.46779 0.24313
 Zr1357 Zr 0.72372 0.52673 0.26227
 O1358 O 0.74270 0.50745 0.28308
 Zr1359 Zr 0.77573 0.47475 0.23805
 O1360 O 0.75630 0.49350 0.21691
 Zr1361 Zr 0.77560 0.51272 0.27633
 O1362 O 0.75661 0.53372 0.25703
 Zr1363 Zr 0.73769 0.47445 0.27608
 O1364 O 0.71639 0.49375 0.25727
 O1365 O 0.72890 0.52124 0.22955
 O1366 O 0.77051 0.47981 0.27101
 C1367 C 0.73359 0.56722 0.23333
 C1368 C 0.73300 0.51665 0.18356
 C1369 C 0.68300 0.51726 0.23408
 C1370 C 0.76796 0.43469 0.26721
 C1371 C 0.81537 0.48275 0.26816
 C1372 C 0.76709 0.48295 0.31619
 H1373 H 0.79765 0.51107 0.23987
 H1374 H 0.73911 0.51092 0.29829
 H1375 H 0.71964 0.53047 0.22028
 H1376 H 0.73964 0.45251 0.23949
 H1377 H 0.76933 0.45655 0.20095
 H1378 H 0.73265 0.45403 0.20255
 H1379 H 0.76292 0.53601 0.30898
 H1380 H 0.73895 0.55752 0.28606
 H1381 H 0.80953 0.46695 0.21413
 H1382 H 0.78574 0.53439 0.19012
 H1383 H 0.71353 0.48716 0.30795
 H1384 H 0.69334 0.51192 0.28666
 H1385 H 0.78524 0.55718 0.24012
 H1386 H 0.80795 0.53634 0.26355
 H1387 H 0.69229 0.46538 0.24015
 H1388 H 0.71500 0.44127 0.26350
 O1389 O 0.50152 0.19167 0.72193
 O1390 O 0.46455 0.19861 0.72481
 O1391 O 0.52775 0.24859 0.69245
 O1392 O 0.52838 0.28432 0.69894
 O1393 O 0.55795 0.22147 0.74909
 O1394 O 0.54998 0.22310 0.78689
 O1395 O 0.47181 0.30595 0.75116
 O1396 O 0.47605 0.29989 0.71433
 O1397 O 0.44368 0.25094 0.77806
 O1398 O 0.45116 0.21182 0.77646
 O1399 O 0.49847 0.27732 0.80678
 O1400 O 0.53712 0.27626 0.79964
 O1401 O 0.49784 0.30600 0.77735
 O1402 O 0.53807 0.29800 0.77527
 O1403 O 0.47258 0.25110 0.80687
 O1404 O 0.47508 0.21115 0.79872
 O1405 O 0.44381 0.27744 0.75241
 O1406 O 0.45076 0.27022 0.71317
 O1407 O 0.52719 0.19142 0.74852
 O1408 O 0.52541 0.19949 0.78703
 O1409 O 0.55810 0.24767 0.72311
 O1410 O 0.54933 0.28689 0.72674
 O1411 O 0.50212 0.22203 0.69239
 O1412 O 0.46308 0.22684 0.70086
 Zr1413 Zr 0.48854 0.22313 0.72367
 O1414 O 0.46775 0.24192 0.74307
 Zr1415 Zr 0.52680 0.26114 0.72411
 O1416 O 0.50726 0.28182 0.74286
 Zr1417 Zr 0.52647 0.22286 0.76200
 O1418 O 0.50751 0.24214 0.78280
 Zr1419 Zr 0.47440 0.27484 0.73772
 O1420 O 0.49387 0.25615 0.71661
 Zr1421 Zr 0.47461 0.23685 0.77598
 O1422 O 0.49358 0.21588 0.75668
 Zr1423 Zr 0.51248 0.27515 0.77582
 O1424 O 0.53379 0.25585 0.75708
 O1425 O 0.52130 0.22839 0.72927
 O1426 O 0.47966 0.26977 0.77068
 C1427 C 0.51647 0.18236 0.73307
 C1428 C 0.51709 0.23324 0.68323
 C1429 C 0.56721 0.23241 0.73398
 C1430 C 0.48231 0.31497 0.76672
 C1431 C 0.43480 0.26675 0.76782
 C1432 C 0.48298 0.26677 0.81579
 H1433 H 0.45253 0.23848 0.73949
 H1434 H 0.51109 0.23868 0.79802
 H1435 H 0.53055 0.21917 0.72000
 H1436 H 0.51050 0.29709 0.73921
 H1437 H 0.48070 0.29301 0.70061
 H1438 H 0.51737 0.29546 0.70218
 H1439 H 0.48727 0.21372 0.80880
 H1440 H 0.51123 0.19210 0.78579
 H1441 H 0.44050 0.28256 0.71383
 H1442 H 0.46444 0.21537 0.68967
 H1443 H 0.53664 0.26244 0.80774
 H1444 H 0.55677 0.23764 0.78657
 H1445 H 0.46487 0.19251 0.73963
 H1446 H 0.44231 0.21315 0.76317
 H1447 H 0.55797 0.28420 0.73998
 H1448 H 0.53523 0.30829 0.76331
 O1449 O 0.19244 0.72230 0.50113
 O1450 O 0.19945 0.72547 0.46405
 O1451 O 0.24902 0.69261 0.52735
 O1452 O 0.28478 0.69895 0.52783
 O1453 O 0.22225 0.74919 0.55774
 O1454 O 0.22390 0.78706 0.54988
 O1455 O 0.30659 0.75180 0.47160
 O1456 O 0.30057 0.71483 0.47577
 O1457 O 0.25178 0.77873 0.44350
 O1458 O 0.21272 0.77714 0.45092
 O1459 O 0.27813 0.80713 0.49852
 O1460 O 0.27680 0.79962 0.53738
 O1461 O 0.30662 0.77783 0.49780
 O1462 O 0.29876 0.77546 0.53796
 O1463 O 0.25200 0.80739 0.47254
 O1464 O 0.21207 0.79929 0.47498
 O1465 O 0.27818 0.75304 0.44356
 O1466 O 0.27098 0.71374 0.45038
 O1467 O 0.19224 0.74875 0.52695
 O1468 O 0.20031 0.78729 0.52528
 O1469 O 0.24832 0.72314 0.55781
 O1470 O 0.28743 0.72665 0.54909
 O1471 O 0.22257 0.69275 0.50163
 O1472 O 0.22755 0.70137 0.46260
 Zr1473 Zr 0.22385 0.72411 0.48813
 O1474 O 0.24270 0.74361 0.46745
 Zr1475 Zr 0.26176 0.72425 0.52648
 O1476 O 0.28248 0.74314 0.50707
 Zr1477 Zr 0.22364 0.76225 0.52626
 O1478 O 0.24293 0.78316 0.50741
 Zr1479 Zr 0.27555 0.73820 0.47413
 O1480 O 0.25680 0.71696 0.49348
 Zr1481 Zr 0.23768 0.77650 0.47444
 O1482 O 0.21668 0.75711 0.49332
 Zr1483 Zr 0.27585 0.77609 0.51244
 O1484 O 0.25654 0.75720 0.53362
 O1485 O 0.22909 0.72952 0.52096
 O1486 O 0.27051 0.77114 0.47955
 C1487 C 0.18318 0.73334 0.51617
 C1488 C 0.23364 0.68350 0.51665
 C1489 C 0.23312 0.73401 0.56695
 C1490 C 0.31556 0.76737 0.48216
 C1491 C 0.26755 0.76852 0.43460
 C1492 C 0.26767 0.81622 0.48300
 H1493 H 0.23929 0.74011 0.45219
 H1494 H 0.23950 0.79837 0.51105
 H1495 H 0.21986 0.72022 0.53018
 H1496 H 0.29771 0.73947 0.51030
 H1497 H 0.29370 0.70106 0.48034
 H1498 H 0.29609 0.70242 0.51706
 H1499 H 0.21466 0.80933 0.48720
 H1500 H 0.19297 0.78615 0.51107
 H1501 H 0.28333 0.71444 0.44015
 H1502 H 0.21601 0.69024 0.46385
 H1503 H 0.26326 0.80813 0.53653
 H1504 H 0.23843 0.78673 0.55665
 H1505 H 0.19327 0.74026 0.46456
 H1506 H 0.21401 0.76385 0.44205
 H1507 H 0.28488 0.73995 0.55768
 H1508 H 0.30891 0.76340 0.53515
 O1509 O 0.24842 0.19176 1.02810
 O1510 O 0.28543 0.19876 1.02517
 O1511 O 0.22229 0.24859 1.05769
 O1512 O 0.22181 0.28436 1.05124
 O1513 O 0.19198 0.22162 1.00100
 O1514 O 0.19997 0.22323 0.96319
 O1515 O 0.27821 0.30609 0.99879
 O1516 O 0.27396 0.30006 1.03568
 O1517 O 0.30629 0.25112 0.97198
 O1518 O 0.29878 0.21195 0.97366
 O1519 O 0.25151 0.27736 0.94327
 O1520 O 0.21267 0.27615 0.95063
 O1521 O 0.25217 0.30608 0.97262
 O1522 O 0.21208 0.29822 0.97467
 O1523 O 0.27736 0.25115 0.94319
 O1524 O 0.27489 0.21126 0.95137
 O1525 O 0.30619 0.27762 0.99762
 O1526 O 0.29926 0.27043 1.03686
 O1527 O 0.22270 0.19154 1.00155
 O1528 O 0.22443 0.19958 0.96310
 O1529 O 0.19189 0.24779 1.02700
 O1530 O 0.20070 0.28694 1.02350
 O1531 O 0.24791 0.22207 1.05767
 O1532 O 0.28691 0.22694 1.04919
 Zr1533 Zr 0.26144 0.22323 1.02638
 O1534 O 0.28223 0.24208 1.00699
 Zr1535 Zr 0.22323 0.26122 1.02603
 O1536 O 0.24274 0.28192 1.00721
 Zr1537 Zr 0.22347 0.22298 0.98810
 O1538 O 0.24246 0.24224 0.96728
 Zr1539 Zr 0.27560 0.27499 1.01232
 O1540 O 0.25616 0.25625 1.03346
 Zr1541 Zr 0.27535 0.23697 0.97410
 O1542 O 0.25635 0.21599 0.99339
 Zr1543 Zr 0.23750 0.27523 0.97425
 O1544 O 0.21621 0.25595 0.99306
 O1545 O 0.22867 0.22847 1.02083
 O1546 O 0.27033 0.26989 0.97937
 C1547 C 0.23344 0.18246 1.01697
 C1548 C 0.23297 0.23324 1.06688
 C1549 C 0.18274 0.23257 1.01609
 C1550 C 0.26773 0.31507 0.98320
 C1551 C 0.31518 0.26694 0.98221
 C1552 C 0.26697 0.26679 0.93425
 H1553 H 0.29745 0.23866 1.01057
 H1554 H 0.23886 0.23876 0.95207
 H1555 H 0.21941 0.21925 1.03010
 H1556 H 0.23953 0.29719 1.01085
 H1557 H 0.26933 0.29319 1.04941
 H1558 H 0.23267 0.29564 1.04785
 H1559 H 0.26264 0.21375 0.94135
 H1560 H 0.23863 0.19223 0.96427
 H1561 H 0.30950 0.28280 1.03620
 H1562 H 0.28559 0.21542 1.06033
 H1563 H 0.21347 0.26256 0.94218
 H1564 H 0.19322 0.23778 0.96351
 H1565 H 0.28503 0.19261 1.01037
 H1566 H 0.30769 0.21337 0.98690
 H1567 H 0.19219 0.28438 1.01014
 H1568 H 0.21477 0.30832 0.98682
 N1569 N 0.29700 0.38134 0.76955
 C1570 C 0.28722 0.37131 0.78653
 N1571 N 0.27005 0.38122 0.79604
 N1572 N 0.26317 0.40047 0.78910
 C1573 C 0.27316 0.41057 0.77233
 N1574 N 0.29013 0.40059 0.76260
 N1575 N 0.29793 -0.11656 0.27093
 C1576 C 0.28849 -0.12641 0.28824
 N1577 N 0.27152 -0.11629 0.29793
 N1578 N 0.26451 -0.09714 0.29085
 C1579 C 0.27415 -0.08729 0.27375
 N1580 N 0.29094 -0.09740 0.26385
 N1581 N 0.77199 0.88318 0.79722
 C1582 C 0.78928 0.87326 0.78789
 N1583 N 0.79921 0.88340 0.77103
 N1584 N 0.79236 0.90265 0.76403
 C1585 C 0.77526 0.91256 0.77357
 N1586 N 0.76514 0.90242 0.79024
 N1587 N 0.45263 0.86873 0.26918
 C1588 C 0.46252 0.87879 0.28610
 N1589 N 0.47976 0.86890 0.29555
 N1590 N 0.48661 0.84965 0.28862
 C1591 C 0.47651 0.83952 0.27191
 N1592 N 0.45947 0.84948 0.26223
 N1593 N -0.04824 0.86700 0.77230
 C1594 C -0.03868 0.87687 0.78954
 N1595 N -0.02141 0.86695 0.79895
 N1596 N -0.01426 0.84793 0.79169
 C1597 C -0.02403 0.83804 0.77465
 N1598 N -0.04110 0.84797 0.76502
 N1599 N -0.02104 -0.11672 -0.04730
 C1600 C -0.03804 -0.12690 -0.03776
 N1601 N -0.04787 -0.11707 -0.02070
 N1602 N -0.04116 -0.09780 -0.01364
 C1603 C -0.02430 -0.08759 -0.02336
 N1604 N -0.01431 -0.09745 -0.04026
 N1605 N -0.04688 0.38141 0.48006
 C1606 C -0.03727 0.37155 0.46286
 N1607 N -0.02031 0.38175 0.45321
 N1608 N -0.01354 0.40105 0.46014
 C1609 C -0.02341 0.41096 0.47707
 N1610 N -0.04013 0.40073 0.48699
 N1611 N 0.47863 -0.11700 0.45248
 C1612 C 0.46133 -0.12688 0.46188
 N1613 N 0.45155 -0.11675 0.47882
 N1614 N 0.45854 -0.09754 0.48582
 C1615 C 0.47564 -0.08767 0.47620
 N1616 N 0.48562 -0.09780 0.45946
 N1617 N 0.47930 0.38108 -0.04681
 C1618 C 0.46210 0.37110 -0.03735
 N1619 N 0.45250 0.38104 -0.02019
 N1620 N 0.45946 0.40022 -0.01312
 C1621 C 0.47640 0.41026 -0.02287
 N1622 N 0.48627 0.40027 -0.03976
 N1623 N 0.76998 0.36866 0.45455
 C1624 C 0.78705 0.37872 0.46417
 N1625 N 0.79696 0.36868 0.48108
 N1626 N 0.79030 0.34929 0.48788
 C1627 C 0.77342 0.33918 0.47806
 N1628 N 0.76331 0.34929 0.46134
 N1629 N 0.79804 0.86819 -0.02040
 C1630 C 0.78841 0.87828 -0.03747
 N1631 N 0.77102 0.86851 -0.04686
 N1632 N 0.76388 0.84939 -0.03982
 C1633 C 0.77378 0.83924 -0.02301
 N1634 N 0.79091 0.84906 -0.01334
 N1635 N 0.76992 0.29687 0.38220
 C1636 C 0.78697 0.28716 0.37227
 N1637 N 0.79657 0.27005 0.38227
 N1638 N 0.78966 0.26317 0.40151
 C1639 C 0.77281 0.27309 0.41151
 N1640 N 0.76299 0.29000 0.40144
 N1641 N 0.79619 0.77041 -0.11850
 C1642 C 0.78667 0.78759 -0.12845
 N1643 N 0.76963 0.79732 -0.11851
 N1644 N 0.76265 0.79040 -0.09930
 C1645 C 0.77241 0.77343 -0.08928
 N1646 N 0.78923 0.76349 -0.09929
 N1647 N 0.29618 0.47978 0.86830
 C1648 C 0.28645 0.46276 0.87834
 N1649 N 0.26945 0.45299 0.86831
 N1650 N 0.26267 0.45975 0.84895
 C1651 C 0.27261 0.47657 0.83887
 N1652 N 0.28941 0.48654 0.84896
 N1653 N 0.27203 -0.04809 0.36596
 C1654 C 0.28931 -0.03850 0.37567
 N1655 N 0.29895 -0.02150 0.36552
 N1656 N 0.29176 -0.01453 0.34640
 C1657 C 0.27461 -0.02427 0.33666
 N1658 N 0.26482 -0.04113 0.34684
 N1659 N -0.04800 -0.02207 -0.11623
 C1660 C -0.03854 -0.03935 -0.12612
 N1661 N -0.02137 -0.04889 -0.11614
 N1662 N -0.01421 -0.04173 -0.09707
 C1663 C -0.02390 -0.02465 -0.08719
 N1664 N -0.04086 -0.01490 -0.09717
 N1665 N -0.02008 0.45285 0.38153
 C1666 C -0.03725 0.46243 0.37159
 N1667 N -0.04677 0.47961 0.38157
 N1668 N -0.03976 0.48659 0.40075
 C1669 C -0.02287 0.47672 0.41075
 N1670 N -0.01307 0.45981 0.40073
 N1671 N 0.45176 -0.02109 0.38357
 C1672 C 0.46152 -0.03794 0.37331
 N1673 N 0.47862 -0.04771 0.38316
 N1674 N 0.48553 -0.04105 0.40250
 C1675 C 0.47562 -0.02433 0.41276
 N1676 N 0.45866 -0.01442 0.40290
 N1677 N 0.48065 0.45265 -0.11869
 C1678 C 0.46398 0.46273 -0.12893
 N1679 N 0.45443 0.47989 -0.11899
 N1680 N 0.46105 0.48648 -0.09953
 C1681 C 0.47752 0.47619 -0.08924
 N1682 N 0.48728 0.45923 -0.09923
 N1683 N 0.48002 0.79772 0.36780
 C1684 C 0.46306 0.78790 0.37781
 N1685 N 0.45353 0.77069 0.36788
 N1686 N 0.46044 0.76382 0.34864
 C1687 C 0.47719 0.77385 0.33856
 N1688 N 0.48693 0.79086 0.34855
 N1689 N -0.02141 0.79900 0.86681
 C1690 C -0.03840 0.78918 0.87681
 N1691 N -0.04791 0.77201 0.86676
 N1692 N -0.04096 0.76516 0.84753
 C1693 C -0.02414 0.77515 0.83754
 N1694 N -0.01443 0.79215 0.84758
 N1695 N 0.38187 0.79736 0.26976
 C1696 C 0.37190 0.78776 0.28687
 N1697 N 0.38174 0.77056 0.29648
 N1698 N 0.40088 0.76350 0.28953
 C1699 C 0.41093 0.77332 0.27263
 N1700 N 0.40101 0.79031 0.26280
 N1701 N -0.11623 0.79807 0.77127
 C1702 C -0.12641 0.78840 0.78822
 N1703 N -0.11656 0.77133 0.79806
 N1704 N -0.09728 0.76438 0.79140
 C1705 C -0.08708 0.77421 0.77460
 N1706 N -0.09695 0.79112 0.76460
 N1707 N 0.86866 0.29596 0.48049
 C1708 C 0.87851 0.28649 0.46325
 N1709 N 0.86837 0.26963 0.45331
 N1710 N 0.84910 0.26275 0.46011
 C1711 C 0.83919 0.27244 0.47716
 N1712 N 0.84939 0.28909 0.48730
 N1713 N 0.86787 0.76976 -0.04767
 C1714 C 0.87805 0.78656 -0.03769
 N1715 N 0.86829 0.79593 -0.02034
 N1716 N 0.84905 0.78904 -0.01347
 C1717 C 0.83880 0.77246 -0.02367
 N1718 N 0.84862 0.76285 -0.04082
 N1719 N -0.11627 -0.04860 -0.02188
 C1720 C -0.12623 -0.03905 -0.03907
 N1721 N -0.11619 -0.02198 -0.04876
 N1722 N -0.09702 -0.01496 -0.04177
 C1723 C -0.08707 -0.02470 -0.02475
 N1724 N -0.09710 -0.04160 -0.01489
 N1725 N -0.11856 0.48063 0.45323
 C1726 C -0.12866 0.46367 0.46305
 N1727 N -0.11866 0.45410 0.48020
 N1728 N -0.09931 0.46087 0.48694
 C1729 C -0.08917 0.47757 0.47685
 N1730 N -0.09922 0.48742 0.45996
 N1731 N 0.38394 -0.02136 0.45084
 C1732 C 0.37395 -0.03849 0.46047
 N1733 N 0.38382 -0.04791 0.47779
 N1734 N 0.40288 -0.04076 0.48493
 C1735 C 0.41287 -0.02383 0.47509
 N1736 N 0.40300 -0.01419 0.45797
 N1737 N 0.38109 0.47971 -0.04681
 C1738 C 0.37117 0.46255 -0.03715
 N1739 N 0.38131 0.45287 -0.02015
 N1740 N 0.40061 0.45973 -0.01339
 C1741 C 0.41058 0.47663 -0.02332
 N1742 N 0.40041 0.48658 -0.04007
 N1743 N 0.36862 0.48021 0.79604
 C1744 C 0.37859 0.46332 0.78605
 N1745 N 0.36845 0.45372 0.76902
 N1746 N 0.34906 0.46050 0.76247
 C1747 C 0.33903 0.47719 0.77267
 N1748 N 0.34923 0.48700 0.78951
 N1749 N 0.36637 -0.04653 0.27076
 C1750 C 0.37634 -0.03695 0.28790
 N1751 N 0.36629 -0.02004 0.29779
 N1752 N 0.34702 -0.01316 0.29097
 C1753 C 0.33703 -0.02291 0.27397
 N1754 N 0.34711 -0.03967 0.26393
 N1755 N 0.13340 0.54826 0.72926
 C1756 C 0.12346 0.53850 0.71218
 N1757 N 0.13351 0.52146 0.70254
 N1758 N 0.15273 0.51462 0.70951
 C1759 C 0.16269 0.52454 0.72643
 N1760 N 0.15263 0.54144 0.73624
 N1761 N 0.13066 0.04590 0.23070
 C1762 C 0.12050 0.03582 0.21395
 N1763 N 0.13057 0.01880 0.20428
 N1764 N 0.15006 0.01234 0.21088
 C1765 C 0.16027 0.02262 0.22743
 N1766 N 0.15015 0.03945 0.23730
 N1767 N 0.61653 0.70264 0.22891
 C1768 C 0.62652 0.71245 0.21192
 N1769 N 0.61649 0.72951 0.20225
 N1770 N 0.59724 0.73631 0.20911
 C1771 C 0.58722 0.72635 0.22595
 N1772 N 0.59726 0.70944 0.23578
 N1773 N 0.11840 0.70350 0.73088
 C1774 C 0.12856 0.71351 0.71412
 N1775 N 0.11871 0.73078 0.70465
 N1776 N 0.09941 0.73755 0.71144
 C1777 C 0.08919 0.72734 0.72800
 N1778 N 0.09910 0.71026 0.73768
 N1779 N 0.63308 0.20247 0.52036
 C1780 C 0.62306 0.21241 0.53724
 N1781 N 0.63326 0.22930 0.54705
 N1782 N 0.65270 0.23584 0.54041
 C1783 C 0.66273 0.22575 0.52366
 N1784 N 0.65252 0.20900 0.51370
 N1785 N 0.63349 0.70154 0.02073
 C1786 C 0.62363 0.71119 0.03787
 N1787 N 0.63359 0.72837 0.04742
 N1788 N 0.65269 0.73542 0.04032
 C1789 C 0.66259 0.72560 0.02334
 N1790 N 0.65259 0.70858 0.01362
 N1791 N 0.11873 0.04621 0.01956
 C1792 C 0.12877 0.03633 0.03653
 N1793 N 0.11857 0.01937 0.04622
 N1794 N 0.09912 0.01285 0.03954
 C1795 C 0.08906 0.02298 0.02283
 N1796 N 0.09928 0.03970 0.01287
 N1797 N 0.11675 0.54782 0.52055
 C1798 C 0.12678 0.53796 0.53750
 N1799 N 0.11675 0.52090 0.54715
 N1800 N 0.09745 0.51411 0.54030
 C1801 C 0.08740 0.52412 0.52350
 N1802 N 0.09744 0.54105 0.51369
 N1803 N 0.61872 0.01984 0.54577
 C1804 C 0.62853 0.03713 0.53628
 N1805 N 0.61831 0.04710 0.51952
 N1806 N 0.59899 0.04028 0.51274
 C1807 C 0.58912 0.02319 0.52245
 N1808 N 0.59940 0.01302 0.53901
 N1809 N 0.61602 0.52122 0.04806
 C1810 C 0.62599 0.53825 0.03828
 N1811 N 0.61596 0.54789 0.02121
 N1812 N 0.59673 0.54093 0.01433
 C1813 C 0.58675 0.52403 0.02426
 N1814 N 0.59679 0.51425 0.04120
 N1815 N 0.01912 0.04583 0.11899
 C1816 C 0.03604 0.03606 0.12918
 N1817 N 0.04580 0.01905 0.11913
 N1818 N 0.03923 0.01239 0.09967
 C1819 C 0.02256 0.02242 0.08946
 N1820 N 0.01254 0.03918 0.09954
 N1821 N 0.02160 0.54810 0.61635
 C1822 C 0.03863 0.53840 0.62637
 N1823 N 0.04834 0.52138 0.61635
 N1824 N 0.04146 0.51448 0.59708
 C1825 C 0.02456 0.52433 0.58706
 N1826 N 0.01471 0.54123 0.59709
 N1827 N 0.54690 0.01888 0.61879
 C1828 C 0.53707 0.03579 0.62895
 N1829 N 0.52001 0.04544 0.61890
 N1830 N 0.51335 0.03878 0.59947
 C1831 C 0.52343 0.02213 0.58929
 N1832 N 0.54025 0.01221 0.59936
 N1833 N 0.54784 0.52047 0.11671
 C1834 C 0.53802 0.53755 0.12655
 N1835 N 0.52098 0.54709 0.11639
 N1836 N 0.51419 0.54001 0.09717
 C1837 C 0.52416 0.52308 0.08731
 N1838 N 0.54106 0.51339 0.09747
 N1839 N 0.22906 0.54716 0.63289
 C1840 C 0.21191 0.53757 0.62294
 N1841 N 0.20201 0.52069 0.63305
 N1842 N 0.20881 0.51384 0.65236
 C1843 C 0.22581 0.52359 0.66232
 N1844 N 0.23587 0.54032 0.65219
 N1845 N 0.22966 0.04525 0.13065
 C1846 C 0.21256 0.03563 0.12062
 N1847 N 0.20264 0.01877 0.13081
 N1848 N 0.20925 0.01213 0.15026
 C1849 C 0.22611 0.02202 0.16032
 N1850 N 0.23628 0.03862 0.15009
 N1851 N 0.72984 0.20280 0.61762
 C1852 C 0.71282 0.21245 0.62766
 N1853 N 0.70289 0.22933 0.61757
 N1854 N 0.70955 0.23612 0.59820
 C1855 C 0.72642 0.22630 0.58815
 N1856 N 0.73650 0.20958 0.59826
 N1857 N 0.72877 0.70313 0.11671
 C1858 C 0.71165 0.71276 0.12659
 N1859 N 0.70184 0.72966 0.11644
 N1860 N 0.70870 0.73649 0.09716
 C1861 C 0.72568 0.72670 0.08725
 N1862 N 0.73564 0.70994 0.09743
 N1863 N 0.54842 0.72853 0.13338
 C1864 C 0.53882 0.71133 0.12351
 N1865 N 0.52177 0.70166 0.13350
 N1866 N 0.51475 0.70874 0.15262
 C1867 C 0.52449 0.72580 0.16252
 N1868 N 0.54141 0.73563 0.15251
 N1869 N 0.04682 0.73102 0.63173
 C1870 C 0.03687 0.71408 0.62175
 N1871 N 0.01979 0.70454 0.63181
 N1872 N 0.01315 0.71142 0.65114
 C1873 C 0.02330 0.72815 0.66119
 N1874 N 0.04019 0.73791 0.65108
 N1875 N 0.54687 0.63363 0.22837
 C1876 C 0.53737 0.62361 0.21120
 N1877 N 0.52047 0.63362 0.20126
 N1878 N 0.51351 0.65290 0.20805
 C1879 C 0.52318 0.66294 0.22507
 N1880 N 0.53993 0.65290 0.23516
 N1881 N 0.01986 0.63238 0.70326
 C1882 C 0.03693 0.62242 0.71296
 N1883 N 0.04654 0.63238 0.73009
 N1884 N 0.03962 0.65161 0.73701
 C1885 C 0.02276 0.66164 0.72710
 N1886 N 0.01292 0.65161 0.71017
 N1887 N 0.01901 0.11884 0.04662
 C1888 C 0.03589 0.12895 0.03671
 N1889 N 0.04548 0.11882 0.01967
 N1890 N 0.03880 0.09936 0.01312
 C1891 C 0.02219 0.08921 0.02329
 N1892 N 0.01232 0.09936 0.04009
 N1893 N 0.02031 0.61711 0.54793
 C1894 C 0.03718 0.62717 0.53799
 N1895 N 0.04679 0.61707 0.52097
 N1896 N 0.03997 0.59770 0.51430
 C1897 C 0.02324 0.58762 0.52437
 N1898 N 0.01348 0.59773 0.54126
 N1899 N 0.51925 0.11876 0.54597
 C1900 C 0.53627 0.12871 0.53618
 N1901 N 0.54606 0.11850 0.51933
 N1902 N 0.53935 0.09905 0.51277
 C1903 C 0.52254 0.08904 0.52277
 N1904 N 0.51253 0.09931 0.53942
 N1905 N 0.54761 0.61597 0.02111
 C1906 C 0.53817 0.62591 0.03831
 N1907 N 0.52114 0.61596 0.04809
 N1908 N 0.51402 0.59680 0.04112
 C1909 C 0.52363 0.58682 0.02407
 N1910 N 0.54050 0.59681 0.01413
 N1911 N 0.72901 0.13303 0.54837
 C1912 C 0.71194 0.12302 0.53865
 N1913 N 0.70217 0.13323 0.52173
 N1914 N 0.70896 0.15259 0.51502
 C1915 C 0.72587 0.16258 0.52492
 N1916 N 0.73583 0.15240 0.54167
 N1917 N 0.72833 0.63364 0.04788
 C1918 C 0.71112 0.62376 0.03834
 N1919 N 0.70124 0.63391 0.02147
 N1920 N 0.70815 0.65317 0.01457
 C1921 C 0.72523 0.66306 0.02426
 N1922 N 0.73525 0.65290 0.04100
 N1923 N 0.20253 0.61671 0.72903
 C1924 C 0.21235 0.62690 0.71218
 N1925 N 0.22929 0.61687 0.70235
 N1926 N 0.23599 0.59745 0.70897
 C1927 C 0.22602 0.58726 0.72570
 N1928 N 0.20921 0.59729 0.73566
 N1929 N 0.23022 0.11884 0.20336
 C1930 C 0.21325 0.12889 0.21315
 N1931 N 0.20351 0.11868 0.23007
 N1932 N 0.21014 0.09922 0.23663
 C1933 C 0.22686 0.08914 0.22659
 N1934 N 0.23687 0.09937 0.20991
 N1935 N 0.73058 1.11835 0.70302
 C1936 C 0.71370 1.12844 0.71291
 N1937 N 0.70427 1.11843 0.73013
 N1938 N 0.71112 1.09910 0.73687
 C1939 C 0.72775 1.08898 0.72672
 N1940 N 0.73744 1.09902 0.70975
 N1941 N 0.70363 0.61863 0.23019
 C1942 C 0.71309 0.62855 0.21296
 N1943 N 0.73003 0.61853 0.20315
 N1944 N 0.73699 0.59929 0.21003
 C1945 C 0.72731 0.58930 0.22705
 N1946 N 0.71058 0.59939 0.23708
 N1947 N 0.51929 0.13065 0.70349
 C1948 C 0.53600 0.12044 0.71354
 N1949 N 0.54562 0.13043 0.73065
 N1950 N 0.53903 0.14990 0.73724
 C1951 C 0.52251 0.16016 0.72699
 N1952 N 0.51268 0.15012 0.71007
 N1953 N 1.04508 0.13095 0.23058
 C1954 C 1.03520 0.12085 0.21369
 N1955 N 1.01831 0.13097 0.20384
 N1956 N 1.01178 0.15047 0.21042
 C1957 C 1.02188 0.16063 0.22712
 N1958 N 1.03857 0.15045 0.23716
 N1959 N 0.20365 0.63206 0.51973
 C1960 C 0.21335 0.62199 0.53674
 N1961 N 0.23045 0.63192 0.54643
 N1962 N 0.23735 0.65122 0.53963
 C1963 C 0.22743 0.66135 0.52282
 N1964 N 0.21053 0.65136 0.51292
 N1965 N 0.23052 0.13065 1.04639
 C1966 C 0.21378 0.12049 1.03630
 N1967 N 0.20418 0.13054 1.01922
 N1968 N 0.21082 0.15002 1.01270
 C1969 C 0.22736 0.16024 1.02299
 N1970 N 0.23717 0.15014 1.03988
 N1971 N 0.23034 0.70418 0.61847
 C1972 C 0.21337 0.71386 0.62856
 N1973 N 0.20355 0.73086 0.61858
 N1974 N 0.21022 0.73769 0.59922
 C1975 C 0.22700 0.72780 0.58908
 N1976 N 0.23702 0.71100 0.59912
 N1977 N 0.23048 0.20395 1.11872
 C1978 C 0.21364 0.21381 1.12885
 N1979 N 0.20379 0.23074 1.11877
 N1980 N 0.21031 0.23733 1.09929
 C1981 C 0.22696 0.22726 1.08911
 N1982 N 0.23700 0.21053 1.09924
 N1983 N 0.70296 0.51985 0.13217
 C1984 C 0.71254 0.53703 0.12224
 N1985 N 0.72958 0.54675 0.13225
 N1986 N 0.73652 0.53984 0.15147
 C1987 C 0.72672 0.52287 0.16147
 N1988 N 0.70989 0.51292 0.15140
 N1989 N 0.70422 1.01940 0.63132
 C1990 C 0.71386 1.03660 0.62148
 N1991 N 0.73075 1.04639 0.63167
 N1992 N 0.73748 1.03952 0.65099
 C1993 C 0.72763 1.02253 0.66089
 N1994 N 0.71095 1.01252 0.65064
 N1995 N 0.51983 0.20410 0.63133
 C1996 C 0.53681 0.21392 0.62138
 N1997 N 0.54665 0.23080 0.63158
 N1998 N 0.53999 0.23736 0.65101
 C1999 C 0.52320 0.22732 0.66103
 N2000 N 0.51316 0.21065 0.65077
 N2001 N 1.04593 0.23076 0.13107
 C2002 C 1.03592 0.21392 0.12097
 N2003 N 1.01894 0.20423 0.13108
 N2004 N 1.01245 0.21088 0.15054
 C2005 C 1.02266 0.22752 0.16069
 N2006 N 1.03945 0.23742 0.15054
 N2007 N 0.61877 0.20274 0.73089
 C2008 C 0.62880 0.21268 0.71400
 N2009 N 0.61877 0.22977 0.70440
 N2010 N 0.59943 0.23643 0.71116
 C2011 C 0.58933 0.22629 0.72785
 N2012 N 0.59942 0.20939 0.73767
 N2013 N 1.11842 0.20324 0.23086
 C2014 C 1.12860 0.21332 0.21414
 N2015 N 1.11860 0.23041 0.20450
 N2016 N 1.09916 0.23696 0.21109
 C2017 C 1.08893 0.22669 0.22762
 N2018 N 1.09897 0.20978 0.23746
 N2019 N 0.13179 0.70333 0.51944
 C2020 C 0.12165 0.71335 0.53620
 N2021 N 0.13156 0.73060 0.54567
 N2022 N 0.15088 0.73735 0.53889
 C2023 C 0.16107 0.72713 0.52233
 N2024 N 0.15111 0.71006 0.51265
 N2025 N 0.13092 0.20322 1.01878
 C2026 C 0.12080 0.21327 1.03555
 N2027 N 0.13089 0.23029 1.04524
 N2028 N 0.15036 0.23679 1.03866
 C2029 C 0.16053 0.22655 1.02209
 N2030 N 0.15040 0.20972 1.01219
 N2031 N 0.63176 0.54742 0.23034
 C2032 C 0.62176 0.53751 0.21339
 N2033 N 0.63167 0.52025 0.20400
 N2034 N 0.65087 0.51340 0.21102
 C2035 C 0.66094 0.52352 0.22776
 N2036 N 0.65097 0.54059 0.23737
 N2037 N 0.63173 1.01876 0.70402
 C2038 C 0.62154 1.03565 0.71377
 N2039 N 0.63156 1.04561 0.73069
 N2040 N 0.65103 1.03916 0.73736
 C2041 C 0.66126 1.02246 0.72740
 N2042 N 0.65120 1.01231 0.71068
 N2043 N 0.86628 0.45206 0.27181
 C2044 C 0.87648 0.46186 0.28869
 N2045 N 0.86663 0.47900 0.29839
 N2046 N 0.84736 0.48592 0.29162
 C2047 C 0.83716 0.47597 0.27486
 N2048 N 0.84702 0.45897 0.26503
 N2049 N 0.86654 0.97834 0.79918
 C2050 C 0.87644 0.96117 0.78960
 N2051 N 0.86650 0.95154 0.77246
 N2052 N 0.84741 0.95862 0.76535
 C2053 C 0.83749 0.97564 0.77508
 N2054 N 0.84745 0.98543 0.79208
 N2055 N 0.38373 0.27038 0.79824
 C2056 C 0.37372 0.28741 0.78850
 N2057 N 0.38374 0.29717 0.77151
 N2058 N 0.40301 0.29035 0.76469
 C2059 C 0.41303 0.27345 0.77456
 N2060 N 0.40300 0.26354 0.79142
 N2061 N 0.88362 0.29752 0.27146
 C2062 C 0.87352 0.28787 0.28847
 N2063 N 0.88341 0.27080 0.29826
 N2064 N 0.90265 0.26382 0.29148
 C2065 C 0.91275 0.27362 0.27460
 N2066 N 0.90284 0.29055 0.26466
 N2067 N 0.36655 0.79803 0.47875
 C2068 C 0.37663 0.78842 0.46171
 N2069 N 0.36671 0.77137 0.45189
 N2070 N 0.34747 0.76436 0.45866
 C2071 C 0.33738 0.77413 0.47556
 N2072 N 0.34732 0.79104 0.48553
 N2073 N 0.36622 0.27066 0.95174
 C2074 C 0.37623 0.28773 0.96145
 N2075 N 0.36621 0.29749 0.97844
 N2076 N 0.34696 0.29062 0.98529
 C2077 C 0.33695 0.27368 0.97545
 N2078 N 0.34697 0.26377 0.95859
 N2079 N 0.77060 0.45289 0.36760
 C2080 C 0.78746 0.46285 0.37769
 N2081 N 0.79712 0.47989 0.36761
 N2082 N 0.79036 0.48654 0.34823
 C2083 C 0.77364 0.47643 0.33812
 N2084 N 0.76383 0.45953 0.34821
 N2085 N 0.77158 0.95197 0.86680
 C2086 C 0.78861 0.96176 0.87676
 N2087 N 0.79817 0.97890 0.86676
 N2088 N 0.79115 0.98580 0.84756
 C2089 C 0.77428 0.97586 0.83756
 N2090 N 0.76455 0.95886 0.84758
 N2091 N 0.27125 0.79922 0.38358
 C2092 C 0.28825 0.78952 0.37354
 N2093 N 0.29797 0.77246 0.38353
 N2094 N 0.29113 0.76554 0.40278
 C2095 C 0.27427 0.77537 0.41283
 N2096 N 0.26440 0.79230 0.40284
 N2097 N 0.27088 0.29713 0.88305
 C2098 C 0.28790 0.28733 0.87314
 N2099 N 0.29750 0.27027 0.88324
 N2100 N 0.29054 0.26346 0.90248
 C2101 C 0.27367 0.27341 0.91241
 N2102 N 0.26391 0.29033 0.90230
 N2103 N 0.47903 0.29736 0.86684
 C2104 C 0.46198 0.28761 0.87677
 N2105 N 0.45238 0.27050 0.86676
 N2106 N 0.45936 0.26357 0.84756
 C2107 C 0.47626 0.27348 0.83760
 N2108 N 0.48602 0.29046 0.84764
 N2109 N 0.97934 0.29803 0.36676
 C2110 C 0.96237 0.28826 0.37680
 N2111 N 0.95252 0.27133 0.36670
 N2112 N 0.95923 0.26457 0.34735
 C2113 C 0.97608 0.27447 0.33730
 N2114 N 0.98607 0.29128 0.34740
 N2115 N 0.45243 0.36647 0.76988
 C2116 C 0.46236 0.37661 0.78673
 N2117 N 0.47930 0.36653 0.79652
 N2118 N 0.48589 0.34708 0.78990
 C2119 C 0.47582 0.33693 0.77319
 N2120 N 0.45902 0.34702 0.76324
 N2121 N 0.95208 0.36670 0.27098
 C2122 C 0.96193 0.37679 0.28791
 N2123 N 0.97912 0.36690 0.29744
 N2124 N 0.98603 0.34766 0.29051
 C2125 C 0.97602 0.33754 0.27374
 N2126 N 0.95898 0.34746 0.26404
 N2127 N 0.29883 0.86693 0.47876
 C2128 C 0.28913 0.87694 0.46170
 N2129 N 0.27183 0.86714 0.45225
 N2130 N 0.26469 0.84805 0.45936
 C2131 C 0.27454 0.83799 0.47625
 N2132 N 0.29169 0.84783 0.48588
 N2133 N 0.27091 0.36647 0.95308
 C2134 C 0.28789 0.37658 0.96280
 N2135 N 0.29778 0.36652 0.97972
 N2136 N 0.29112 0.34712 0.98649
 C2137 C 0.27428 0.33700 0.97661
 N2138 N 0.26424 0.34707 0.95983
 N2139 N 0.79844 0.38358 0.27105
 C2140 C 0.78861 0.37350 0.28798
 N2141 N 0.77151 0.38346 0.29756
 N2142 N 0.76467 0.40274 0.29067
 C2143 C 0.77464 0.41284 0.27389
 N2144 N 0.79161 0.40286 0.26415
   
