data_POSCAR
  _audit_creation_date              2014-09-24
  _audit_creation_method            'ToBaCCo'
  _symmetry_space_group_name_H-M    'P1'
  _symmetry_Int_Tables_number       1
  _symmetry_cell_setting            triclinic
  loop_
  _symmetry_equiv_pos_as_xyz
 x,y,z
_cell_length_a 35.8496
_cell_length_b 35.8848
_cell_length_c 35.8646
_cell_angle_alpha 89.997200
_cell_angle_beta 89.990700
_cell_angle_gamma 89.982900
loop_
  _atom_site_label
  _atom_site_type_symbol
  _atom_site_fract_x
  _atom_site_fract_y
  _atom_site_fract_z
C1 C 0.12591 -0.00032 0.25098
 C2 C 0.37457 0.00022 0.74943
 C3 C 0.87510 0.50086 0.24937
 C4 C 0.62507 0.49905 0.75100
 C5 C 0.25001 0.12499 1.00043
 C6 C 0.74941 0.37497 0.99888
 C7 C 0.25011 0.87424 0.49999
 C8 C 0.74980 0.62563 0.50005
 C9 C 0.00036 0.25018 0.12519
 C10 C -0.00027 0.75015 0.37441
 C11 C 0.50001 0.25029 0.87519
 C12 C 0.50035 0.75008 0.62459
 C13 C 0.87545 0.99889 0.75089
 C14 C 0.37480 0.49960 0.25082
 C15 C 0.62502 1.00086 0.24927
 C16 C 0.12499 0.50024 0.74928
 C17 C 0.75009 0.87532 -0.00001
 C18 C 0.24975 0.37509 0.50034
 C19 C 0.24955 0.62443 -0.00003
 C20 C 0.74980 0.12581 0.49905
 C21 C 1.00038 0.75024 0.87592
 C22 C 0.50050 0.25032 0.37563
 C23 C 1.00019 0.25015 0.62412
 C24 C 0.49989 0.74995 0.12457
 O25 O -0.01731 0.97790 0.89499
 O26 O 0.04644 0.99248 0.89584
 O27 O -0.02017 0.89341 0.98496
 O28 O -0.01238 0.89139 1.04466
 O29 O -0.10628 0.98389 0.97969
 O30 O -0.10508 1.04716 0.99327
 O31 O 0.06982 0.99303 1.08494
 O32 O 0.07539 0.93372 1.05608
 O33 O 0.08411 1.06916 0.99513
 O34 O 0.05596 1.08100 0.93818
 O35 O -0.00596 1.08343 1.07104
 O36 O -0.06645 1.05136 1.07972
 O37 O 0.01781 1.02179 1.10714
 O38 O -0.04692 1.00839 1.10693
 O39 O 0.02221 1.10563 1.01877
 O40 O 0.00682 1.10190 0.95062
 O41 O 0.10623 1.01697 1.02353
 O42 O 0.10732 0.95504 1.00955
 O43 O -0.06803 1.00918 0.91665
 O44 O -0.07751 1.06661 0.94836
 O45 O -0.08449 0.93138 1.00771
 O46 O -0.05357 0.92586 1.06833
 O47 O 0.00828 0.91548 0.93279
 O48 O 0.06573 0.94655 0.92287
 Zr49 Zr 0.01656 0.97253 0.94260
 O50 O 0.05196 1.00604 0.97484
 Zr51 Zr -0.02760 0.94153 1.01761
 O52 O 0.00652 0.97334 1.05309
 Zr53 Zr -0.05826 1.01702 0.97383
 O54 O -0.02598 1.05212 1.00779
 Zr55 Zr 0.05867 0.98298 1.02828
 O56 O 0.02629 0.94699 0.99454
 Zr57 Zr 0.02746 1.05827 0.98459
 O58 O -0.00622 1.02628 0.94828
 Zr59 Zr -0.01654 1.02684 1.05980
 O60 O -0.05284 0.99354 1.02731
 O61 O -0.03652 0.96388 0.96471
 O62 O 0.03682 1.03631 1.03795
 C63 C -0.04851 0.99474 0.89036
 C64 C -0.00467 0.88899 0.95304
 C65 C -0.11083 0.95179 0.99468
 C66 C 0.05003 1.00687 1.11139
 C67 C 0.11054 1.04919 1.00871
 C68 C 0.00751 1.10988 1.05104
 H69 H 0.07590 1.00831 0.96140
 H70 H -0.03936 1.07610 1.00995
 H71 H -0.05240 0.94796 0.94865
 H72 H 0.00904 0.95984 1.07699
 H73 H 0.06613 0.91244 1.04111
 H74 H 0.00916 0.89712 1.06089
 H75 H -0.01551 1.11238 0.96300
 H76 H -0.05782 1.07479 0.93084
 H77 H 0.11072 0.96095 0.98285
 H78 H 0.07400 0.92906 0.94257
 H79 H -0.07277 1.07248 1.06314
 H80 H -0.10862 1.04000 1.01969
 H81 H 0.03819 1.01850 0.89176
 H82 H 0.07083 1.06075 0.92683
 H83 H -0.07328 0.94449 1.07355
 H84 H -0.03837 0.98286 1.11288
 O85 O 0.48298 0.47895 0.39455
 O86 O 0.54702 0.49054 0.39553
 O87 O 0.48137 0.39317 0.48585
 O88 O 0.48762 0.39145 0.54542
 O89 O 0.39351 0.48242 0.47939
 O90 O 0.39442 0.54599 0.49353
 O91 O 0.57014 0.49340 0.58441
 O92 O 0.57624 0.43419 0.55517
 O93 O 0.58374 0.56880 0.49251
 O94 O 0.54848 0.57617 0.43155
 O95 O 0.49416 0.58376 0.56988
 O96 O 0.43682 0.55514 0.58173
 O97 O 0.51807 0.52212 0.60647
 O98 O 0.45029 0.50676 0.60341
 O99 O 0.52205 0.60569 0.51733
 O100 O 0.50978 0.60694 0.45506
 O101 O 0.60608 0.51821 0.52345
 O102 O 0.60815 0.45655 0.50880
 O103 O 0.43055 0.50702 0.41657
 O104 O 0.42177 0.56519 0.44721
 O105 O 0.41588 0.43122 0.50924
 O106 O 0.44844 0.42582 0.56944
 O107 O 0.50666 0.41533 0.43209
 O108 O 0.56520 0.44518 0.42330
 Zr109 Zr 0.51630 0.47213 0.44237
 O110 O 0.55186 0.50607 0.47412
 Zr111 Zr 0.47293 0.44150 0.51799
 O112 O 0.50713 0.47375 0.55298
 Zr113 Zr 0.44110 0.51605 0.47346
 O114 O 0.47348 0.55153 0.50679
 Zr115 Zr 0.55902 0.48349 0.52772
 O116 O 0.52659 0.44710 0.49447
 Zr117 Zr 0.52678 0.55810 0.48341
 O118 O 0.49287 0.52573 0.44768
 Zr119 Zr 0.48361 0.52711 0.55913
 O120 O 0.44716 0.49338 0.52720
 O121 O 0.46342 0.46308 0.46487
 O122 O 0.53681 0.53671 0.53692
 C123 C 0.45091 0.49412 0.39013
 C124 C 0.49513 0.38879 0.45313
 C125 C 0.38928 0.45091 0.49561
 C126 C 0.55026 0.50717 0.61083
 C127 C 0.61025 0.54973 0.50717
 C128 C 0.50755 0.61011 0.54970
 H129 H 0.57567 0.50836 0.46043
 H130 H 0.46013 0.57553 0.50892
 H131 H 0.44752 0.44692 0.44906
 H132 H 0.50976 0.46030 0.57689
 H133 H 0.56766 0.41292 0.53980
 H134 H 0.51089 0.39648 0.55932
 H135 H 0.48284 0.61029 0.45999
 H136 H 0.44146 0.57304 0.42950
 H137 H 0.61060 0.46147 0.48180
 H138 H 0.57292 0.42762 0.44316
 H139 H 0.42610 0.57085 0.56178
 H140 H 0.39071 0.53814 0.51974
 H141 H 0.53996 0.51686 0.39131
 H142 H 0.57159 0.56193 0.42653
 H143 H 0.42787 0.44353 0.57451
 H144 H 0.46254 0.48417 0.61345
 O145 O 0.50705 -0.08479 0.56808
 O146 O 0.56442 -0.05403 0.57834
 O147 O 0.43225 0.01172 0.58368
 O148 O 0.41574 0.06168 0.55404
 O149 O 0.41566 -0.06841 0.48950
 O150 O 0.44732 -0.07816 0.43292
 O151 O 0.52231 0.10609 0.48342
 O152 O 0.50450 0.10410 0.54645
 O153 O 0.60585 0.01796 0.47732
 O154 O 0.60786 -0.04442 0.48990
 O155 O 0.51876 0.02357 0.39401
 O156 O 0.45427 0.01010 0.39311
 O157 O 0.49463 0.08431 0.43068
 O158 O 0.43388 0.05225 0.42145
 O159 O 0.56949 -0.00738 0.41602
 O160 O 0.57710 -0.06834 0.45108
 O161 O 0.58379 0.06921 0.50739
 O162 O 0.55592 0.07891 0.56433
 O163 O 0.47874 -0.10649 0.51567
 O164 O 0.49295 -0.10482 0.45165
 O165 O 0.39394 -0.01826 0.52155
 O166 O 0.39676 0.04692 0.50155
 O167 O 0.48094 -0.02264 0.60530
 O168 O 0.54499 -0.00778 0.60531
 Zr169 Zr 0.51561 -0.02772 0.55823
 O170 O 0.55147 0.00581 0.52645
 Zr171 Zr 0.44105 0.01641 0.52601
 O172 O 0.47393 0.05225 0.49336
 Zr173 Zr 0.47295 -0.05858 0.48228
 O174 O 0.50676 -0.02596 0.44731
 Zr175 Zr 0.52711 0.05824 0.51701
 O176 O 0.49272 0.02601 0.55239
 Zr177 Zr 0.55863 -0.01670 0.47288
 O178 O 0.52624 -0.05293 0.50635
 Zr179 Zr 0.48385 0.02762 0.44107
 O180 O 0.44749 -0.00672 0.47247
 O181 O 0.46296 -0.03663 0.53520
 O182 O 0.53698 0.03678 0.46353
 C183 C 0.49401 -0.11110 0.54767
 C184 C 0.45070 -0.00413 0.60994
 C185 C 0.38933 -0.04921 0.50432
 C186 C 0.50799 0.11059 0.45096
 C187 C 0.61019 0.04980 0.49299
 C188 C 0.55036 0.00742 0.38965
 H189 H 0.57548 0.00766 0.53984
 H190 H 0.50905 -0.03926 0.42329
 H191 H 0.44686 -0.05253 0.55108
 H192 H 0.46084 0.07642 0.49153
 H193 H 0.49043 0.09389 0.56793
 H194 H 0.43167 0.08373 0.54964
 H195 H 0.56271 -0.07347 0.42810
 H196 H 0.51868 -0.10966 0.46040
 H197 H 0.57049 0.05821 0.57520
 H198 H 0.53583 0.01782 0.61009
 H199 H 0.46241 -0.01558 0.38726
 H200 H 0.43122 -0.05773 0.42368
 H201 H 0.57340 -0.07059 0.55815
 H202 H 0.61092 -0.03983 0.51692
 H203 H 0.39019 0.03422 0.47793
 H204 H 0.42765 0.07332 0.43811
 O205 O 0.00709 0.41512 1.06819
 O206 O 0.06501 0.44545 1.07728
 O207 O -0.06866 0.50884 1.08362
 O208 O -0.08246 0.56109 1.05598
 O209 O -0.08445 0.43014 0.99112
 O210 O -0.05383 0.42146 0.93334
 O211 O 0.02244 0.60541 0.98218
 O212 O 0.00515 0.60433 1.04488
 O213 O 0.10576 0.51650 0.97745
 O214 O 0.10656 0.45341 0.98861
 O215 O 0.01701 0.52210 0.89336
 O216 O -0.04645 0.50979 0.89259
 O217 O -0.00717 0.58357 0.93056
 O218 O -0.06796 0.55029 0.92211
 O219 O 0.06922 0.49366 0.91537
 O220 O 0.07646 0.43175 0.94830
 O221 O 0.08358 0.56906 1.00511
 O222 O 0.05586 0.57798 1.06372
 O223 O -0.02073 0.39295 1.01571
 O224 O -0.00784 0.39441 0.95173
 O225 O -0.10639 0.48197 1.02024
 O226 O -0.10351 0.54710 1.00320
 O227 O -0.01736 0.47859 1.10543
 O228 O 0.04651 0.49174 1.10423
 Zr229 Zr 0.01610 0.47202 1.05773
 O230 O 0.05162 0.50539 1.02545
 Zr231 Zr -0.05894 0.51589 1.02629
 O232 O -0.02639 0.55163 0.99318
 Zr233 Zr -0.02747 0.44074 0.98244
 O234 O 0.00593 0.47327 0.94701
 Zr235 Zr 0.02715 0.55779 1.01607
 O236 O -0.00693 0.52570 1.05196
 Zr237 Zr 0.05811 0.48266 0.97190
 O238 O 0.02609 0.44656 1.00583
 Zr239 Zr -0.01715 0.52676 0.94090
 O240 O -0.05311 0.49253 0.97278
 O241 O -0.03683 0.46293 1.03539
 O242 O 0.03630 0.53607 0.96257
 C243 C -0.00564 0.38862 1.04781
 C244 C -0.04880 0.49498 1.10998
 C245 C -0.11087 0.45027 1.00444
 C246 C 0.00696 0.60989 0.95026
 C247 C 0.11003 0.54890 0.99189
 C248 C 0.04932 0.50741 0.88900
 H249 H 0.07573 0.50715 1.03866
 H250 H 0.00803 0.46005 0.92293
 H251 H -0.05280 0.44708 1.05144
 H252 H -0.03953 0.57579 0.99139
 H253 H -0.00903 0.59457 1.06649
 H254 H -0.06767 0.58347 1.04968
 H255 H 0.06166 0.42709 0.92548
 H256 H 0.01840 0.39042 0.95932
 H257 H 0.07311 0.55836 1.07250
 H258 H 0.03869 0.51790 1.10823
 H259 H -0.04031 0.48329 0.88817
 H260 H -0.07096 0.44147 0.92508
 H261 H 0.07325 0.42822 1.05734
 H262 H 0.11025 0.45840 1.01548
 H263 H -0.10997 0.53547 0.97902
 H264 H -0.07351 0.57226 0.93784
 O265 O 0.02120 0.39406 0.51674
 O266 O 0.00647 0.39523 0.45305
 O267 O 0.10621 0.48337 0.52002
 O268 O 0.10863 0.54300 0.51185
 O269 O 0.01572 0.47888 0.60603
 O270 O -0.04786 0.49211 0.60472
 O271 O 0.00674 0.58426 0.43030
 O272 O 0.06615 0.55526 0.42465
 O273 O -0.06950 0.49467 0.41549
 O274 O -0.08077 0.43652 0.44523
 O275 O -0.08371 0.56989 0.50718
 O276 O -0.04963 0.57804 0.56762
 O277 O -0.02222 0.60625 0.48227
 O278 O -0.00900 0.60701 0.54569
 O279 O -0.10589 0.51904 0.47660
 O280 O -0.10422 0.45207 0.49211
 O281 O -0.01725 0.52318 0.39359
 O282 O 0.04459 0.50899 0.39247
 O283 O -0.00971 0.41577 0.56765
 O284 O -0.06703 0.44729 0.57703
 O285 O 0.06842 0.50654 0.58419
 O286 O 0.07439 0.56689 0.55335
 O287 O 0.08389 0.43157 0.49117
 O288 O 0.05266 0.42194 0.43382
 Zr289 Zr 0.02679 0.44173 0.48301
 O290 O -0.00659 0.47427 0.44770
 Zr291 Zr 0.05832 0.51637 0.52733
 O292 O 0.02657 0.55210 0.49342
 Zr293 Zr -0.01743 0.47294 0.55798
 O294 O -0.05247 0.50706 0.52579
 Zr295 Zr 0.01674 0.52757 0.44121
 O296 O 0.05263 0.49352 0.47340
 Zr297 Zr -0.05884 0.48419 0.47223
 O298 O -0.02696 0.44770 0.50589
 Zr299 Zr -0.02689 0.55892 0.51659
 O300 O 0.00639 0.52626 0.55270
 O301 O 0.03567 0.46359 0.53614
 O302 O -0.03657 0.53742 0.46314
 C303 C 0.00449 0.38946 0.54801
 C304 C 0.11048 0.45156 0.50433
 C305 C 0.04789 0.49378 0.61057
 C306 C -0.00725 0.61060 0.45011
 C307 C -0.04948 0.50837 0.38915
 C308 C -0.11016 0.55066 0.49265
 H309 H -0.00885 0.46093 0.42371
 H310 H -0.07643 0.50932 0.53922
 H311 H 0.05154 0.44746 0.55200
 H312 H 0.04010 0.57598 0.49097
 H313 H 0.08739 0.54009 0.43372
 H314 H 0.10281 0.55969 0.49069
 H315 H -0.11322 0.46367 0.51547
 H316 H -0.07559 0.43053 0.55685
 H317 H 0.03872 0.48230 0.38905
 H318 H 0.07022 0.44157 0.42554
 H319 H -0.07180 0.56264 0.57337
 H320 H -0.04030 0.51832 0.60885
 H321 H -0.01962 0.39136 0.46125
 H322 H -0.06149 0.42705 0.42792
 H323 H 0.05560 0.57239 0.57284
 H324 H 0.01726 0.61169 0.53863
 O325 O 0.60615 0.98328 0.02009
 O326 O 0.60497 1.04693 0.00747
 O327 O 0.51613 0.98005 0.10609
 O328 O 0.45648 0.98798 0.10818
 O329 O 0.52072 0.89328 0.01607
 O330 O 0.50843 0.89439 -0.04760
 O331 O 0.41571 1.06896 0.00608
 O332 O 0.44450 1.07550 0.06494
 O333 O 0.50712 1.08360 -0.06958
 O334 O 0.56763 1.04887 -0.07822
 O335 O 0.43059 0.99201 -0.08420
 O336 O 0.42177 0.93213 -0.05079
 O337 O 0.39386 1.01689 -0.02273
 O338 O 0.39378 0.95285 -0.00907
 O339 O 0.48154 1.02257 -0.10628
 O340 O 0.54452 1.00925 -0.10804
 O341 O 0.47620 1.10548 -0.01876
 O342 O 0.49145 1.10689 0.04368
 O343 O 0.58432 0.93082 -0.00799
 O344 O 0.55392 0.92234 -0.06631
 O345 O 0.49311 0.91553 0.06862
 O346 O 0.43265 0.94661 0.07403
 O347 O 0.56831 1.00822 0.08367
 O348 O 0.57746 1.06578 0.05257
 Zr349 Zr 0.55822 1.01649 0.02657
 O350 O 0.52591 1.05169 -0.00718
 Zr351 Zr 0.48341 0.97234 0.05809
 O352 O 0.44789 1.00612 0.02598
 Zr353 Zr 0.52738 0.94112 -0.01709
 O354 O 0.49349 0.97316 -0.05244
 Zr355 Zr 0.47246 1.05828 0.01591
 O356 O 0.50627 1.02621 0.05213
 Zr357 Zr 0.51634 1.02663 -0.05919
 O358 O 0.55261 0.99306 -0.02699
 Zr359 Zr 0.44135 0.98264 -0.02734
 O360 O 0.47383 0.94665 0.00629
 O361 O 0.53639 0.96342 0.03585
 O362 O 0.46294 1.03601 -0.03727
 C363 C 0.61069 0.95126 0.00492
 C364 C 0.54809 0.99549 0.11033
 C365 C 0.50575 0.88899 0.04822
 C366 C 0.38940 1.04903 -0.00775
 C367 C 0.49243 1.10994 -0.05031
 C368 C 0.44987 1.00657 -0.11061
 H369 H 0.53944 1.07555 -0.00954
 H370 H 0.49130 0.95972 -0.07639
 H371 H 0.55246 0.94769 0.05192
 H372 H 0.42396 1.00862 0.03945
 H373 H 0.45931 1.06626 0.08635
 H374 H 0.44014 1.00939 0.10228
 H375 H 0.53857 0.98263 -0.11194
 H376 H 0.57114 0.94240 -0.07425
 H377 H 0.51777 1.11104 0.03659
 H378 H 0.55752 1.07401 0.06983
 H379 H 0.43803 0.92581 -0.07217
 H380 H 0.48202 0.89055 -0.04053
 H381 H 0.60894 1.03963 -0.01885
 H382 H 0.57328 1.07127 -0.06316
 H383 H 0.42733 0.92686 0.05550
 H384 H 0.38820 0.96099 0.01668
 O385 O 0.48317 0.52014 0.10710
 O386 O 0.54706 0.50825 0.10549
 O387 O 0.48083 0.60637 0.01613
 O388 O 0.48550 0.60829 -0.04352
 O389 O 0.39286 0.51560 0.02149
 O390 O 0.39439 0.45199 0.00982
 O391 O 0.56850 0.50662 -0.08355
 O392 O 0.57409 0.56619 -0.05465
 O393 O 0.58363 0.43090 0.00637
 O394 O 0.55154 0.42201 0.06716
 O395 O 0.49220 0.41611 -0.06839
 O396 O 0.43190 0.44909 -0.07711
 O397 O 0.51648 0.47755 -0.10528
 O398 O 0.45230 0.49082 -0.10524
 O399 O 0.52259 0.39420 -0.01728
 O400 O 0.50905 0.39397 0.04718
 O401 O 0.60546 0.48296 -0.02246
 O402 O 0.60676 0.54442 -0.00864
 O403 O 0.43062 0.49218 0.08526
 O404 O 0.42277 0.43360 0.05506
 O405 O 0.41491 0.56857 -0.00540
 O406 O 0.44563 0.57356 -0.06657
 O407 O 0.50645 0.58404 0.06966
 O408 O 0.56510 0.55405 0.07804
 Zr409 Zr 0.51610 0.52724 0.05905
 O410 O 0.55149 0.49376 0.02663
 Zr411 Zr 0.47164 0.55816 -0.01580
 O412 O 0.50552 0.52633 -0.05140
 Zr413 Zr 0.44103 0.48291 0.02838
 O414 O 0.47324 0.44777 -0.00557
 Zr415 Zr 0.55778 0.51678 -0.02686
 O416 O 0.52560 0.55274 0.00704
 Zr417 Zr 0.52691 0.44150 0.01714
 O418 O 0.49319 0.47350 0.05351
 Zr419 Zr 0.48236 0.47287 -0.05773
 O420 O 0.44621 0.50624 -0.02519
 O421 O 0.46289 0.53603 0.03724
 O422 O 0.53592 0.46344 -0.03628
 C423 C 0.45110 0.50503 0.11163
 C424 C 0.49486 0.61064 0.04872
 C425 C 0.38844 0.54788 0.00687
 C426 C 0.54860 0.49259 -0.10980
 C427 C 0.60992 0.45082 -0.00754
 C428 C 0.50671 0.38978 -0.04899
 H429 H 0.57553 0.49162 0.03994
 H430 H 0.45990 0.42377 -0.00767
 H431 H 0.44705 0.55200 0.05330
 H432 H 0.50788 0.53980 -0.07533
 H433 H 0.56525 0.58739 -0.03931
 H434 H 0.50815 0.60324 -0.05842
 H435 H 0.48322 0.38835 0.03929
 H436 H 0.44287 0.42601 0.07241
 H437 H 0.60942 0.53979 0.01838
 H438 H 0.57247 0.57207 0.05846
 H439 H 0.42588 0.42756 -0.06096
 H440 H 0.39057 0.45865 -0.01668
 H441 H 0.54038 0.48173 0.10906
 H442 H 0.57297 0.43833 0.07308
 H443 H 0.42555 0.55523 -0.07137
 H444 H 0.46017 0.51665 -0.11080
 O445 O -0.10651 0.01824 0.52219
 O446 O -0.10624 -0.04545 0.50723
 O447 O -0.01676 0.02016 0.60680
 O448 O 0.04282 0.01144 0.60907
 O449 O -0.02167 0.10605 0.51680
 O450 O -0.00642 0.10469 0.45344
 O451 O 0.08304 -0.07030 0.50913
 O452 O 0.05233 -0.07616 0.56762
 O453 O -0.00671 -0.08434 0.43109
 O454 O -0.06396 -0.05541 0.41945
 O455 O 0.06977 0.00499 0.41690
 O456 O 0.07985 0.06439 0.44828
 O457 O 0.10531 -0.01982 0.47794
 O458 O 0.10531 0.04587 0.49291
 O459 O 0.01738 -0.02283 0.39457
 O460 O -0.05037 -0.00702 0.39784
 O461 O 0.02180 -0.10654 0.48321
 O462 O 0.00706 -0.10831 0.54435
 O463 O -0.08431 0.06843 0.49052
 O464 O -0.05210 0.07799 0.43362
 O465 O 0.00800 0.08418 0.56834
 O466 O 0.06734 0.05190 0.57503
 O467 O -0.06900 -0.00816 0.58473
 O468 O -0.07979 -0.06507 0.55337
 Zr469 Zr -0.05926 -0.01620 0.52756
 O470 O -0.02718 -0.05197 0.49422
 Zr471 Zr 0.01626 0.02703 0.55878
 O472 O 0.05151 -0.00742 0.52708
 Zr473 Zr -0.02708 0.05823 0.48325
 O474 O 0.00665 0.02554 0.44821
 Zr475 Zr 0.02610 -0.05921 0.51753
 O476 O -0.00750 -0.02649 0.55328
 Zr477 Zr -0.01699 -0.02765 0.44195
 O478 O -0.05307 0.00649 0.47381
 Zr479 Zr 0.05856 0.01547 0.47353
 O480 O 0.02633 0.05213 0.50676
 O481 O -0.03655 0.03658 0.53639
 O482 O 0.03620 -0.03761 0.46414
 C483 C -0.11083 0.04932 0.50507
 C484 C -0.04869 0.00466 0.61125
 C485 C -0.00553 0.11059 0.54837
 C486 C 0.10953 -0.05133 0.49427
 C487 C 0.00701 -0.11078 0.45095
 C488 C 0.04980 -0.00837 0.39038
 H489 H -0.04075 -0.07581 0.49188
 H490 H 0.00900 0.03884 0.42420
 H491 H -0.05244 0.05263 0.55232
 H492 H 0.07531 -0.01007 0.54073
 H493 H 0.03656 -0.06728 0.58851
 H494 H 0.05821 -0.01075 0.60356
 H495 H -0.03801 0.01548 0.38775
 H496 H -0.06936 0.05829 0.42495
 H497 H -0.01990 -0.11081 0.53921
 H498 H -0.06012 -0.07384 0.57066
 H499 H 0.06215 0.07213 0.42859
 H500 H 0.01970 0.10831 0.46161
 H501 H -0.11007 -0.03708 0.48120
 H502 H -0.07491 -0.07086 0.43949
 H503 H 0.07355 0.07093 0.55603
 H504 H 0.11262 0.03544 0.51738
 O505 O 0.73225 0.14472 0.27089
 O506 O 0.79598 0.14556 0.25643
 O507 O 0.72944 0.23445 0.35574
 O508 O 0.73741 0.29413 0.35791
 O509 O 0.64329 0.22971 0.26534
 O510 O 0.64464 0.24341 0.20194
 O511 O 0.81967 0.33446 0.25654
 O512 O 0.82502 0.30536 0.31579
 O513 O 0.83395 0.24481 0.18011
 O514 O 0.80554 0.18787 0.16813
 O515 O 0.74384 0.32079 0.16576
 O516 O 0.68339 0.32960 0.19801
 O517 O 0.76780 0.35675 0.22760
 O518 O 0.70316 0.35683 0.24082
 O519 O 0.77199 0.26855 0.14349
 O520 O 0.75668 0.20059 0.14705
 O521 O 0.85599 0.27311 0.23240
 O522 O 0.85702 0.25897 0.29419
 O523 O 0.68154 0.16656 0.23972
 O524 O 0.67191 0.19843 0.18251
 O525 O 0.66521 0.25747 0.31793
 O526 O 0.69617 0.31792 0.32354
 O527 O 0.75767 0.18224 0.33352
 O528 O 0.81517 0.17237 0.30257
 Zr529 Zr 0.76610 0.19225 0.27651
 O530 O 0.80161 0.22448 0.24313
 Zr531 Zr 0.72208 0.26725 0.30771
 O532 O 0.75627 0.30271 0.27596
 Zr533 Zr 0.69133 0.22375 0.23211
 O534 O 0.72378 0.25763 0.19705
 Zr535 Zr 0.80838 0.27782 0.26633
 O536 O 0.77592 0.24407 0.30222
 Zr537 Zr 0.77721 0.23438 0.19086
 O538 O 0.74335 0.19814 0.22276
 Zr539 Zr 0.73331 0.30956 0.22241
 O540 O 0.69689 0.27713 0.25569
 O541 O 0.71305 0.21443 0.28524
 O542 O 0.78665 0.28765 0.21294
 C543 C 0.70107 0.14019 0.25401
 C544 C 0.74480 0.20247 0.36007
 C545 C 0.63879 0.24462 0.29752
 C546 C 0.79996 0.36094 0.24267
 C547 C 0.86036 0.25831 0.20018
 C548 C 0.75724 0.30080 0.13925
 H549 H 0.82554 0.21101 0.24086
 H550 H 0.71041 0.25985 0.17306
 H551 H 0.69711 0.19837 0.30111
 H552 H 0.75880 0.32656 0.28951
 H553 H 0.81581 0.29024 0.33699
 H554 H 0.75889 0.31042 0.35217
 H555 H 0.73421 0.21287 0.13674
 H556 H 0.69166 0.18108 0.17410
 H557 H 0.86026 0.23224 0.28839
 H558 H 0.82342 0.19199 0.32014
 H559 H 0.67704 0.31309 0.17684
 H560 H 0.64105 0.26976 0.20929
 H561 H 0.78780 0.14160 0.23036
 H562 H 0.82067 0.17669 0.18829
 H563 H 0.67656 0.32328 0.30484
 H564 H 0.71147 0.36254 0.26649
 O565 O 0.75873 0.68093 0.66624
 O566 O 0.81539 0.67038 0.69757
 O567 O 0.68152 0.66479 0.76025
 O568 O 0.66775 0.69271 0.81260
 O569 O 0.66590 0.75768 0.68152
 O570 O 0.69685 0.81503 0.67274
 O571 O 0.77214 0.76576 0.85699
 O572 O 0.75488 0.70290 0.85548
 O573 O 0.85579 0.77199 0.76892
 O574 O 0.85726 0.75870 0.70558
 O575 O 0.76810 0.85478 0.77385
 O576 O 0.70301 0.85461 0.75995
 O577 O 0.74435 0.81826 0.83480
 O578 O 0.68386 0.82737 0.80329
 O579 O 0.81921 0.83285 0.74347
 O580 O 0.82751 0.79862 0.68296
 O581 O 0.83385 0.74209 0.82033
 O582 O 0.80601 0.68471 0.83003
 O583 O 0.72852 0.73220 0.64444
 O584 O 0.74321 0.79612 0.64576
 O585 O 0.64383 0.72816 0.73308
 O586 O 0.64650 0.74548 0.79796
 O587 O 0.73245 0.64304 0.72928
 O588 O 0.79625 0.64376 0.74348
 Zr589 Zr 0.76637 0.69049 0.72349
 O590 O 0.80187 0.72261 0.75697
 Zr591 Zr 0.69123 0.72214 0.76720
 O592 O 0.72384 0.75523 0.80296
 Zr593 Zr 0.72295 0.76584 0.69213
 O594 O 0.75652 0.80117 0.72463
 Zr595 Zr 0.77722 0.73204 0.80928
 O596 O 0.74315 0.69629 0.77709
 Zr597 Zr 0.80859 0.77605 0.73413
 O598 O 0.77646 0.74230 0.69802
 Zr599 Zr 0.73349 0.80749 0.77818
 O600 O 0.69737 0.77564 0.74397
 O601 O 0.71348 0.71295 0.71428
 O602 O 0.78677 0.78545 0.78756
 C603 C 0.74493 0.70080 0.63987
 C604 C 0.70117 0.63847 0.74598
 C605 C 0.63942 0.74414 0.70142
 C606 C 0.75774 0.79820 0.86125
 C607 C 0.86020 0.75645 0.80082
 C608 C 0.79985 0.85919 0.75797
 H609 H 0.82595 0.70937 0.75893
 H610 H 0.75867 0.82515 0.71126
 H611 H 0.69754 0.69697 0.69835
 H612 H 0.71072 0.75717 0.82712
 H613 H 0.74081 0.68135 0.84548
 H614 H 0.68223 0.69948 0.83505
 H615 H 0.81203 0.82073 0.67720
 H616 H 0.76894 0.78726 0.64109
 H617 H 0.82175 0.67461 0.80979
 H618 H 0.78764 0.63933 0.76934
 H619 H 0.71183 0.86094 0.73459
 H620 H 0.68020 0.82371 0.69298
 H621 H 0.82477 0.69073 0.68147
 H622 H 0.86182 0.73234 0.71221
 H623 H 0.64093 0.77008 0.78677
 H624 H 0.67744 0.81043 0.82410
 O625 O 0.31780 0.16560 0.74193
 O626 O 0.32931 0.19730 0.68578
 O627 O 0.33391 0.26212 0.81803
 O628 O 0.30436 0.31228 0.83423
 O629 O 0.24105 0.18125 0.83481
 O630 O 0.18365 0.17230 0.80380
 O631 O 0.23301 0.35622 0.72791
 O632 O 0.29622 0.35447 0.74561
 O633 O 0.22731 0.26779 0.64458
 O634 O 0.24096 0.20426 0.64367
 O635 O 0.14404 0.27317 0.73164
 O636 O 0.14282 0.26012 0.79567
 O637 O 0.18043 0.33421 0.75574
 O638 O 0.17161 0.30172 0.81677
 O639 O 0.16631 0.24246 0.68090
 O640 O 0.20047 0.18212 0.67295
 O641 O 0.25708 0.31928 0.66643
 O642 O 0.31371 0.32958 0.69384
 O643 O 0.26662 0.14385 0.77234
 O644 O 0.20264 0.14518 0.75760
 O645 O 0.27095 0.23271 0.85655
 O646 O 0.25205 0.29797 0.85332
 O647 O 0.35550 0.22760 0.76946
 O648 O 0.35566 0.24321 0.70562
 Zr649 Zr 0.30851 0.22289 0.73467
 O650 O 0.27653 0.25616 0.69882
 Zr651 Zr 0.27619 0.26697 0.80920
 O652 O 0.24326 0.30254 0.77631
 Zr653 Zr 0.23293 0.19158 0.77774
 O654 O 0.19772 0.22392 0.74387
 Zr655 Zr 0.26681 0.30855 0.72310
 O656 O 0.30244 0.27660 0.75748
 Zr657 Zr 0.22310 0.23323 0.69190
 O658 O 0.25677 0.19730 0.72435
 Zr659 Zr 0.19110 0.27755 0.76655
 O660 O 0.22277 0.24349 0.80298
 O661 O 0.28574 0.21393 0.78742
 O662 O 0.21344 0.28673 0.71338
 C663 C 0.29797 0.13925 0.75578
 C664 C 0.36017 0.24620 0.79960
 C665 C 0.25488 0.20114 0.86113
 C666 C 0.20056 0.36058 0.74232
 C667 C 0.24284 0.29967 0.64012
 C668 C 0.13983 0.25711 0.69998
 H669 H 0.28993 0.25807 0.67483
 H670 H 0.17373 0.21055 0.74163
 H671 H 0.30174 0.19811 0.80347
 H672 H 0.24131 0.32672 0.78937
 H673 H 0.31804 0.34436 0.75921
 H674 H 0.30015 0.33421 0.81807
 H675 H 0.17844 0.17629 0.68851
 H676 H 0.21153 0.14046 0.73190
 H677 H 0.32534 0.30865 0.68023
 H678 H 0.36043 0.26869 0.71508
 H679 H 0.13791 0.23394 0.78858
 H680 H 0.17494 0.19258 0.82038
 H681 H 0.30901 0.18139 0.67595
 H682 H 0.26712 0.21150 0.63878
 H683 H 0.22825 0.28564 0.85990
 H684 H 0.18761 0.32343 0.82253
 O685 O 0.18167 0.83433 0.24262
 O686 O 0.17233 0.80395 0.18457
 O687 O 0.16545 0.74061 0.31821
 O688 O 0.19310 0.68794 0.33176
 O689 O 0.25986 0.81789 0.33406
 O690 O 0.31677 0.82740 0.30252
 O691 O 0.26596 0.64318 0.22837
 O692 O 0.20291 0.64534 0.24492
 O693 O 0.27136 0.73194 0.14388
 O694 O 0.26073 0.79465 0.14255
 O695 O 0.35587 0.72670 0.23244
 O696 O 0.35360 0.74073 0.29923
 O697 O 0.31890 0.66515 0.25555
 O698 O 0.32931 0.69459 0.31457
 O699 O 0.33376 0.75489 0.18016
 O700 O 0.30056 0.81693 0.17297
 O701 O 0.24349 0.67960 0.16628
 O702 O 0.18532 0.67078 0.19367
 O703 O 0.23418 0.85588 0.27092
 O704 O 0.29803 0.85417 0.25699
 O705 O 0.22798 0.76766 0.35583
 O706 O 0.24608 0.70299 0.35358
 O707 O 0.14392 0.77144 0.26714
 O708 O 0.14480 0.75802 0.20334
 Zr709 Zr 0.19161 0.77735 0.23355
 O710 O 0.22354 0.74357 0.19811
 Zr711 Zr 0.22277 0.73334 0.30858
 O712 O 0.25577 0.69741 0.27612
 Zr713 Zr 0.26736 0.80791 0.27686
 O714 O 0.30250 0.77520 0.24333
 Zr715 Zr 0.23267 0.69117 0.22270
 O716 O 0.19697 0.72367 0.25664
 Zr717 Zr 0.27723 0.76591 0.19134
 O718 O 0.24371 0.80234 0.22340
 Zr719 Zr 0.30828 0.72173 0.26654
 O720 O 0.27654 0.75605 0.30257
 O721 O 0.21420 0.78632 0.28636
 O722 O 0.28631 0.71249 0.21322
 C723 C 0.20215 0.86056 0.25574
 C724 C 0.13923 0.75495 0.29849
 C725 C 0.24518 0.79862 0.36039
 C726 C 0.29850 0.63877 0.24258
 C727 C 0.25672 0.69962 0.13974
 C728 C 0.36020 0.74138 0.20014
 H729 H 0.21024 0.74178 0.17406
 H730 H 0.32659 0.78841 0.24117
 H731 H 0.19834 0.80233 0.30236
 H732 H 0.25754 0.67328 0.28929
 H733 H 0.18146 0.65559 0.25902
 H734 H 0.20037 0.66541 0.31766
 H735 H 0.32355 0.82152 0.18752
 H736 H 0.28995 0.85843 0.23095
 H737 H 0.17578 0.69090 0.17743
 H738 H 0.14054 0.73194 0.21128
 H739 H 0.36231 0.76457 0.28844
 H740 H 0.32556 0.80727 0.31923
 H741 H 0.19230 0.82122 0.17649
 H742 H 0.23365 0.79047 0.13939
 H743 H 0.27074 0.71417 0.35900
 H744 H 0.31032 0.67649 0.32306
 O745 O 0.14406 0.72844 0.76806
 O746 O 0.14493 0.74214 0.70417
 O747 O 0.23471 0.64318 0.76917
 O748 O 0.29441 0.64123 0.76366
 O749 O 0.22932 0.73364 0.85685
 O750 O 0.24279 0.79699 0.85566
 O751 O 0.33407 0.74266 0.68060
 O752 O 0.30481 0.68363 0.67482
 O753 O 0.24275 0.81851 0.66628
 O754 O 0.18614 0.83070 0.69648
 O755 O 0.31985 0.83336 0.75732
 O756 O 0.32877 0.79985 0.81750
 O757 O 0.35625 0.77189 0.73232
 O758 O 0.35708 0.75855 0.79617
 O759 O 0.26867 0.85526 0.72700
 O760 O 0.20127 0.85301 0.74392
 O761 O 0.27331 0.76747 0.64441
 O762 O 0.25824 0.70553 0.64301
 O763 O 0.16606 0.75924 0.81888
 O764 O 0.19783 0.81641 0.82825
 O765 O 0.25687 0.68100 0.83477
 O766 O 0.31785 0.67583 0.80352
 O767 O 0.18123 0.66557 0.74348
 O768 O 0.17225 0.69592 0.68529
 Zr769 Zr 0.19168 0.72244 0.73425
 O770 O 0.22384 0.75601 0.69874
 Zr771 Zr 0.26690 0.69137 0.77794
 O772 O 0.30227 0.72318 0.74377
 Zr773 Zr 0.22326 0.76684 0.80893
 O774 O 0.25711 0.80195 0.77656
 Zr775 Zr 0.27732 0.73300 0.69175
 O776 O 0.24365 0.69697 0.72419
 Zr777 Zr 0.23371 0.80822 0.72324
 O778 O 0.19753 0.77618 0.75704
 Zr779 Zr 0.30906 0.77659 0.76694
 O780 O 0.27671 0.74325 0.80329
 O781 O 0.21400 0.71370 0.78721
 O782 O 0.28707 0.78627 0.71368
 C783 C 0.13960 0.74518 0.79933
 C784 C 0.20209 0.63895 0.75515
 C785 C 0.24416 0.70145 0.86124
 C786 C 0.36051 0.75673 0.70022
 C787 C 0.25729 0.79910 0.63995
 C788 C 0.30045 0.85969 0.74279
 H789 H 0.21026 0.75829 0.67488
 H790 H 0.25939 0.82592 0.78992
 H791 H 0.19796 0.69782 0.80314
 H792 H 0.32615 0.70964 0.74115
 H793 H 0.28965 0.66242 0.68393
 H794 H 0.30905 0.64631 0.74086
 H795 H 0.21384 0.86290 0.76639
 H796 H 0.18085 0.82501 0.80826
 H797 H 0.23151 0.71146 0.63985
 H798 H 0.19204 0.67839 0.67733
 H799 H 0.31280 0.82148 0.82369
 H800 H 0.26909 0.78952 0.85945
 H801 H 0.14071 0.76816 0.71232
 H802 H 0.17545 0.81093 0.68050
 H803 H 0.32285 0.69413 0.82358
 H804 H 0.36214 0.73253 0.78859
 O805 O 0.25805 0.18067 0.16638
 O806 O 0.31589 0.17178 0.19699
 O807 O 0.18189 0.16531 0.25986
 O808 O 0.16821 0.19277 0.31226
 O809 O 0.16615 0.25746 0.18111
 O810 O 0.19667 0.31529 0.17232
 O811 O 0.27257 0.26711 0.35671
 O812 O 0.25548 0.20427 0.35565
 O813 O 0.35610 0.27201 0.26808
 O814 O 0.35724 0.26070 0.20508
 O815 O 0.26681 0.35569 0.27306
 O816 O 0.20342 0.35608 0.26062
 O817 O 0.24291 0.31857 0.33456
 O818 O 0.18208 0.32663 0.30128
 O819 O 0.31922 0.33381 0.24484
 O820 O 0.32691 0.30062 0.18300
 O821 O 0.33396 0.24427 0.32062
 O822 O 0.30650 0.18573 0.32959
 O823 O 0.22989 0.23294 0.14414
 O824 O 0.24276 0.29689 0.14542
 O825 O 0.14414 0.22848 0.23301
 O826 O 0.14688 0.24552 0.29816
 O827 O 0.23335 0.14357 0.22980
 O828 O 0.29726 0.14489 0.24336
 Zr829 Zr 0.26683 0.19126 0.22336
 O830 O 0.30217 0.22371 0.25680
 Zr831 Zr 0.19157 0.22255 0.26703
 O832 O 0.22393 0.25580 0.30281
 Zr833 Zr 0.22308 0.26631 0.19182
 O834 O 0.25626 0.30188 0.22437
 Zr835 Zr 0.27756 0.23312 0.30916
 O836 O 0.24367 0.19708 0.27701
 Zr837 Zr 0.30853 0.27720 0.23400
 O838 O 0.27672 0.24312 0.19784
 Zr839 Zr 0.23299 0.30801 0.27780
 O840 O 0.19723 0.27599 0.24353
 O841 O 0.21386 0.21343 0.21411
 O842 O 0.28651 0.28658 0.28734
 C843 C 0.24514 0.20093 0.13984
 C844 C 0.20182 0.13901 0.24602
 C845 C 0.13971 0.24418 0.20123
 C846 C 0.25702 0.29901 0.36101
 C847 C 0.36040 0.25763 0.30054
 C848 C 0.29912 0.36013 0.25842
 H849 H 0.32634 0.21061 0.25867
 H850 H 0.25829 0.32591 0.21108
 H851 H 0.19797 0.19735 0.19823
 H852 H 0.21073 0.25761 0.32694
 H853 H 0.24155 0.18253 0.34584
 H854 H 0.18284 0.19929 0.33469
 H855 H 0.31206 0.32337 0.17822
 H856 H 0.26900 0.28930 0.14147
 H857 H 0.32353 0.17674 0.30987
 H858 H 0.28921 0.14086 0.26946
 H859 H 0.20963 0.36050 0.23412
 H860 H 0.17936 0.32349 0.19221
 H861 H 0.32415 0.19172 0.17980
 H862 H 0.36090 0.23381 0.20995
 H863 H 0.14036 0.26966 0.28650
 H864 H 0.17662 0.31098 0.32333
 O865 O 0.81824 0.66593 0.24224
 O866 O 0.82742 0.69651 0.18442
 O867 O 0.83400 0.75956 0.31815
 O868 O 0.80625 0.81171 0.33224
 O869 O 0.74002 0.68162 0.33402
 O870 O 0.68342 0.67163 0.30274
 O871 O 0.73237 0.85646 0.22743
 O872 O 0.79510 0.85531 0.24475
 O873 O 0.72751 0.76778 0.14403
 O874 O 0.73830 0.70518 0.14271
 O875 O 0.64347 0.77318 0.23309
 O876 O 0.64335 0.76058 0.29706
 O877 O 0.68074 0.83461 0.25705
 O878 O 0.67226 0.80180 0.31758
 O879 O 0.66540 0.74482 0.18081
 O880 O 0.69867 0.68281 0.17337
 O881 O 0.75545 0.82016 0.16621
 O882 O 0.81409 0.82900 0.19414
 O883 O 0.76598 0.64393 0.27069
 O884 O 0.70189 0.64551 0.25669
 O885 O 0.77149 0.73208 0.35582
 O886 O 0.75326 0.79717 0.35341
 O887 O 0.85564 0.72903 0.26696
 O888 O 0.85446 0.74271 0.20312
 Zr889 Zr 0.80792 0.72290 0.23343
 O890 O 0.77562 0.75646 0.19808
 Zr891 Zr 0.77663 0.76654 0.30862
 O892 O 0.74354 0.80249 0.27624
 Zr893 Zr 0.73250 0.69167 0.27687
 O894 O 0.69709 0.72440 0.24373
 Zr895 Zr 0.76632 0.80882 0.22267
 O896 O 0.80224 0.77652 0.25661
 Zr897 Zr 0.72201 0.73387 0.19159
 O898 O 0.75595 0.69759 0.22337
 Zr899 Zr 0.69115 0.77782 0.26703
 O900 O 0.72302 0.74336 0.30275
 O901 O 0.78553 0.71364 0.28629
 O902 O 0.71275 0.78723 0.21356
 C903 C 0.79796 0.63951 0.25533
 C904 C 0.86028 0.74544 0.29836
 C905 C 0.75444 0.70103 0.36037
 C906 C 0.70041 0.86094 0.24288
 C907 C 0.74211 0.80010 0.13976
 C908 C 0.63905 0.75843 0.20085
 H909 H 0.78881 0.75826 0.17397
 H910 H 0.67300 0.71118 0.24167
 H911 H 0.80152 0.69769 0.30222
 H912 H 0.74178 0.82663 0.28939
 H913 H 0.81654 0.84549 0.25915
 H914 H 0.79959 0.83422 0.31780
 H915 H 0.67573 0.67820 0.18801
 H916 H 0.71032 0.64111 0.23078
 H917 H 0.82286 0.80940 0.17687
 H918 H 0.85860 0.76877 0.21119
 H919 H 0.63793 0.73457 0.28974
 H920 H 0.67426 0.69183 0.31918
 H921 H 0.80749 0.67929 0.17618
 H922 H 0.76538 0.70933 0.13948
 H923 H 0.72926 0.78516 0.35989
 H924 H 0.68865 0.82316 0.32351
 O925 O 0.76809 0.14291 0.72748
 O926 O 0.70411 0.14367 0.74190
 O927 O 0.77051 0.23328 0.64325
 O928 O 0.76165 0.29276 0.64134
 O929 O 0.85679 0.22708 0.73231
 O930 O 0.85587 0.24219 0.79591
 O931 O 0.68028 0.33261 0.74326
 O932 O 0.67414 0.30337 0.68411
 O933 O 0.66639 0.24071 0.81878
 O934 O 0.70135 0.18013 0.82657
 O935 O 0.75607 0.31810 0.83369
 O936 O 0.81427 0.32922 0.80429
 O937 O 0.73223 0.35457 0.77224
 O938 O 0.79926 0.35232 0.75717
 O939 O 0.72792 0.26576 0.85572
 O940 O 0.74056 0.20305 0.85684
 O941 O 0.64429 0.27184 0.76819
 O942 O 0.64240 0.25695 0.70617
 O943 O 0.81895 0.16460 0.75846
 O944 O 0.82919 0.19608 0.81541
 O945 O 0.83460 0.25758 0.68140
 O946 O 0.80224 0.31715 0.67539
 O947 O 0.74214 0.18102 0.66512
 O948 O 0.68510 0.17064 0.69611
 Zr949 Zr 0.73408 0.19050 0.72230
 O950 O 0.69846 0.22235 0.75610
 Zr951 Zr 0.77749 0.26597 0.69143
 O952 O 0.74330 0.30104 0.72365
 Zr953 Zr 0.80921 0.22175 0.76622
 O954 O 0.77673 0.25505 0.80167
 Zr955 Zr 0.69136 0.27590 0.73341
 O956 O 0.72381 0.24251 0.69712
 Zr957 Zr 0.72341 0.23169 0.80819
 O958 O 0.75746 0.19598 0.77592
 Zr959 Zr 0.76671 0.30729 0.77706
 O960 O 0.80315 0.27535 0.74332
 O961 O 0.78696 0.21294 0.71323
 O962 O 0.71348 0.28514 0.78667
 C963 C 0.79935 0.13829 0.74423
 C964 C 0.75505 0.20138 0.63870
 C965 C 0.86114 0.24362 0.70093
 C966 C 0.70009 0.35896 0.75721
 C967 C 0.63997 0.25552 0.79968
 C968 C 0.74250 0.29807 0.86006
 H969 H 0.67463 0.20871 0.75837
 H970 H 0.79003 0.25720 0.82570
 H971 H 0.80284 0.19709 0.69709
 H972 H 0.74069 0.32496 0.71023
 H973 H 0.68293 0.28812 0.66281
 H974 H 0.73962 0.30830 0.64710
 H975 H 0.76718 0.20901 0.86095
 H976 H 0.80923 0.17918 0.82424
 H977 H 0.63904 0.23031 0.71230
 H978 H 0.67623 0.19077 0.67944
 H979 H 0.82391 0.30980 0.82132
 H980 H 0.85968 0.26823 0.78760
 H981 H 0.71268 0.13900 0.76772
 H982 H 0.67895 0.17457 0.81144
 H983 H 0.82210 0.32277 0.69373
 H984 H 0.78765 0.36146 0.73387
 C985 C 0.04760 1.01282 1.18773
 C986 C 0.06635 0.97749 1.20439
 C987 C 0.10114 1.00071 1.21489
 C988 C 0.08219 1.03605 1.19867
 C989 C 0.11847 0.99225 1.17625
 C990 C 0.08387 0.96912 1.16573
 C991 C 0.06588 1.00461 1.14980
 C992 C 0.10004 1.02768 1.16033
 H993 H 0.01817 1.02138 1.19212
 H994 H 0.05176 0.95709 1.22249
 H995 H 0.07918 1.06421 1.21086
 H996 H 0.14720 0.98326 1.16938
 H997 H 0.08451 0.94145 1.15190
 H998 H 0.11398 1.04851 1.14217
 C999 C 0.54732 0.51275 0.68713
 C1000 C 0.56570 0.47724 0.70384
 C1001 C 0.60055 0.50020 0.71472
 C1002 C 0.58195 0.53571 0.69844
 C1003 C 0.61815 0.49175 0.67621
 C1004 C 0.58348 0.46890 0.66529
 C1005 C 0.56587 0.50458 0.64934
 C1006 C 0.60009 0.52736 0.66024
 H1007 H 0.51792 0.52149 0.69131
 H1008 H 0.55079 0.45689 0.72175
 H1009 H 0.57888 0.56386 0.71063
 H1010 H 0.64688 0.48255 0.66965
 H1011 H 0.58406 0.44128 0.65136
 H1012 H 0.61432 0.54817 0.64228
 C1013 C 0.41573 -0.03471 0.66681
 C1014 C 0.43360 -0.02382 0.70465
 C1015 C 0.39933 0.00094 0.71336
 C1016 C 0.38186 -0.00965 0.67527
 C1017 C 0.41907 0.03454 0.69485
 C1018 C 0.45321 0.00961 0.68554
 C1019 C 0.43481 -0.00143 0.64833
 C1020 C 0.40134 0.02378 0.65701
 H1021 H 0.41425 -0.06337 0.65525
 H1022 H 0.44825 -0.04273 0.72426
 H1023 H 0.35296 -0.01700 0.66753
 H1024 H 0.42136 0.06336 0.70568
 H1025 H 0.48290 0.01751 0.68931
 H1026 H 0.38782 0.04359 0.63745
 C1027 C -0.04613 0.48919 1.18636
 C1028 C -0.06525 0.52422 1.20327
 C1029 C -0.09987 0.50058 1.21345
 C1030 C -0.08053 0.46558 1.19700
 C1031 C -0.11714 0.50926 1.17484
 C1032 C -0.08272 0.53279 1.16460
 C1033 C -0.06435 0.49761 1.14847
 C1034 C -0.09834 0.47414 1.15872
 H1035 H -0.01663 0.48089 1.19076
 H1036 H -0.05090 0.54457 1.22160
 H1037 H -0.07728 0.43733 1.20890
 H1038 H -0.14593 0.51802 1.16796
 H1039 H -0.08354 0.56057 1.15101
 H1040 H -0.11204 0.45334 1.14034
 C1041 C -0.04687 0.51451 0.31282
 C1042 C -0.06514 0.47901 0.29600
 C1043 C -0.10020 0.50187 0.28550
 C1044 C -0.08170 0.53736 0.30189
 C1045 C -0.11751 0.49306 0.32406
 C1046 C -0.08264 0.47033 0.33460
 C1047 C -0.06513 0.50599 0.35067
 C1048 C -0.09956 0.52866 0.34014
 H1049 H -0.01754 0.52344 0.30853
 H1050 H -0.05028 0.45883 0.27787
 H1051 H -0.07892 0.56561 0.28987
 H1052 H -0.14614 0.48364 0.33073
 H1053 H -0.08296 0.44261 0.34836
 H1054 H -0.11380 0.54928 0.35832
 C1055 C 0.41421 1.03670 -0.16777
 C1056 C 0.43258 1.02600 -0.20546
 C1057 C 0.39899 1.00035 -0.21425
 C1058 C 0.38103 1.01075 -0.17632
 C1059 C 0.41943 0.96736 -0.19543
 C1060 C 0.45287 0.99314 -0.18606
 C1061 C 0.43400 1.00401 -0.14903
 C1062 C 0.40123 0.97792 -0.15776
 H1063 H 0.41196 1.06538 -0.15639
 H1064 H 0.44694 1.04511 -0.22508
 H1065 H 0.35189 1.01734 -0.16876
 H1066 H 0.42243 0.93854 -0.20615
 H1067 H 0.48278 0.98597 -0.18964
 H1068 H 0.38809 0.95791 -0.13813
 C1069 C 0.59839 0.47145 -0.15857
 C1070 C 0.58067 0.46308 -0.19695
 C1071 C 0.59989 0.49827 -0.21317
 C1072 C 0.61705 0.50674 -0.17448
 C1073 C 0.56515 0.52170 -0.20290
 C1074 C 0.54615 0.48651 -0.18621
 C1075 C 0.56431 0.49471 -0.14825
 C1076 C 0.58252 0.53007 -0.16418
 H1077 H 0.61215 0.45059 -0.14030
 H1078 H 0.57747 0.43490 -0.20902
 H1079 H 0.64578 0.51561 -0.16748
 H1080 H 0.55071 0.54211 -0.22112
 H1081 H 0.51670 0.47810 -0.19069
 H1082 H 0.58322 0.55778 -0.15042
 C1083 C 0.09993 -0.02880 0.34141
 C1084 C 0.08219 -0.03703 0.30300
 C1085 C 0.10102 -0.00155 0.28699
 C1086 C 0.11823 0.00679 0.32570
 C1087 C 0.06611 0.02150 0.29754
 C1088 C 0.04748 -0.01399 0.31399
 C1089 C 0.06565 -0.00593 0.35199
 C1090 C 0.08351 0.02972 0.33628
 H1091 H 0.11393 -0.04967 0.35948
 H1092 H 0.07927 -0.06515 0.29071
 H1093 H 0.14690 0.01590 0.33264
 H1094 H 0.05149 0.04194 0.27951
 H1095 H 0.01810 -0.02264 0.30951
 H1096 H 0.08400 0.05732 0.35026
 C1097 C 0.15962 1.09909 1.02908
 C1098 C 0.19804 1.08129 1.03717
 C1099 C 0.21397 1.10019 1.00167
 C1100 C 0.17525 1.11745 0.99347
 C1101 C 0.20335 1.06538 0.97856
 C1102 C 0.18697 1.04669 1.01408
 C1103 C 0.14896 1.06490 1.00616
 C1104 C 0.16458 1.08282 0.97048
 H1105 H 0.14161 1.11303 1.05006
 H1106 H 0.21039 1.07825 1.06528
 H1107 H 0.16834 1.14612 0.98442
 H1108 H 0.22131 1.05081 0.95802
 H1109 H 0.19146 1.01731 1.02266
 H1110 H 0.15052 1.08338 0.94291
 C1111 C 0.65690 0.59884 0.47869
 C1112 C 0.67578 0.61863 0.51159
 C1113 C 0.71366 0.60098 0.50045
 C1114 C 0.69450 0.58094 0.46741
 C1115 C 0.70533 0.56705 0.52578
 C1116 C 0.66768 0.58509 0.53720
 C1117 C 0.64860 0.56571 0.50445
 C1118 C 0.68559 0.54715 0.49287
 H1119 H 0.63698 0.61218 0.45909
 H1120 H 0.66816 0.64760 0.51869
 H1121 H 0.70483 0.57833 0.43841
 H1122 H 0.72528 0.55255 0.54446
 H1123 H 0.65663 0.58689 0.56606
 H1124 H 0.68918 0.51738 0.48525
 C1125 C 0.66464 0.41756 0.03014
 C1126 C 0.67487 0.38270 0.00729
 C1127 C 0.71342 0.39985 -0.00184
 C1128 C 0.70324 0.43489 0.02112
 C1129 C 0.69682 0.41840 -0.03721
 C1130 C 0.65857 0.40071 -0.02819
 C1131 C 0.64835 0.43512 -0.00541
 C1132 C 0.68619 0.45323 -0.01426
 H1133 H 0.65110 0.41729 0.05798
 H1134 H 0.66818 0.35411 0.01676
 H1135 H 0.72160 0.44970 0.04113
 H1136 H 0.70860 0.42119 -0.06558
 H1137 H 0.64015 0.38657 -0.04867
 H1138 H 0.69050 0.48252 -0.02321
 C1139 C 0.15693 -0.10025 0.52249
 C1140 C 0.17575 -0.11985 0.48940
 C1141 C 0.21352 -0.10172 0.50009
 C1142 C 0.19445 -0.08190 0.53334
 C1143 C 0.20447 -0.06791 0.47484
 C1144 C 0.16694 -0.08642 0.46386
 C1145 C 0.14796 -0.06724 0.49681
 C1146 C 0.18485 -0.04823 0.50795
 H1147 H 0.13736 -0.11380 0.54229
 H1148 H 0.16852 -0.14893 0.48239
 H1149 H 0.20512 -0.07916 0.56221
 H1150 H 0.22400 -0.05318 0.45591
 H1151 H 0.15560 -0.08838 0.43512
 H1152 H 0.18815 -0.01843 0.51552
 C1153 C 0.31357 -0.04672 0.49127
 C1154 C 0.30431 -0.08063 0.46608
 C1155 C 0.28599 -0.10073 0.49958
 C1156 C 0.29464 -0.06669 0.52463
 C1157 C 0.32421 -0.11811 0.50991
 C1158 C 0.34226 -0.09829 0.47656
 C1159 C 0.35091 -0.06506 0.50202
 C1160 C 0.33263 -0.08447 0.53524
 H1161 H 0.30964 -0.01700 0.48364
 H1162 H 0.29339 -0.07806 0.43729
 H1163 H 0.27500 -0.05231 0.54374
 H1164 H 0.33215 -0.14699 0.51701
 H1165 H 0.36181 -0.11155 0.45654
 H1166 H 0.34431 -0.08615 0.56386
 C1167 C -0.15979 0.40100 1.02535
 C1168 C -0.19796 0.41908 1.03388
 C1169 C -0.21455 0.39979 0.99892
 C1170 C -0.17604 0.38228 0.99024
 C1171 C -0.20418 0.43426 0.97518
 C1172 C -0.18714 0.45331 1.01018
 C1173 C -0.14935 0.43484 1.00183
 C1174 C -0.16559 0.41657 0.96664
 H1175 H -0.14148 0.38724 1.04619
 H1176 H -0.20974 0.42264 1.06216
 H1177 H -0.16938 0.35347 0.98144
 H1178 H -0.22244 0.44871 0.95481
 H1179 H -0.19135 0.48282 1.01844
 H1180 H -0.15197 0.41562 0.93886
 C1181 C -0.15707 0.59944 0.52128
 C1182 C -0.17615 0.61916 0.48845
 C1183 C -0.21389 0.60123 0.49962
 C1184 C -0.19453 0.58127 0.53259
 C1185 C -0.20535 0.56740 0.47423
 C1186 C -0.16785 0.58572 0.46277
 C1187 C -0.14858 0.56643 0.49545
 C1188 C -0.18541 0.54759 0.50706
 H1189 H -0.13721 0.61288 0.54086
 H1190 H -0.16871 0.64818 0.48140
 H1191 H -0.20480 0.57855 0.56161
 H1192 H -0.22522 0.55278 0.45557
 H1193 H -0.15686 0.58765 0.43389
 H1194 H -0.18875 0.51779 0.51464
 C1195 C 0.31293 1.04655 -0.01331
 C1196 C 0.29652 1.06521 0.02222
 C1197 C 0.28599 1.10009 -0.00084
 C1198 C 0.30194 1.08123 -0.03635
 C1199 C 0.32472 1.11725 0.00745
 C1200 C 0.33529 1.08257 0.03040
 C1201 C 0.35095 1.06468 -0.00528
 C1202 C 0.34037 1.09893 -0.02816
 H1203 H 0.30843 1.01720 -0.02195
 H1204 H 0.27850 1.05064 0.04271
 H1205 H 0.28961 1.07830 -0.06447
 H1206 H 0.33168 1.14589 0.01655
 H1207 H 0.34929 1.08304 0.05800
 H1208 H 0.35844 1.11288 -0.04908
 C1209 C 0.01339 1.18592 1.04787
 C1210 C -0.02202 1.20294 1.06618
 C1211 C 0.00109 1.21380 1.10094
 C1212 C 0.03649 1.19718 1.08240
 C1213 C -0.00765 1.17547 1.11873
 C1214 C -0.03063 1.16456 1.08414
 C1215 C 0.00497 1.14831 1.06661
 C1216 C 0.02788 1.15917 1.10073
 H1217 H 0.02214 1.18987 1.01845
 H1218 H -0.04227 1.22092 1.05121
 H1219 H 0.06476 1.20909 1.07919
 H1220 H -0.01694 1.16916 1.14749
 H1221 H -0.05836 1.15081 1.08478
 H1222 H 0.04859 1.14112 1.11502
 C1223 C 0.52806 0.65922 0.59956
 C1224 C 0.53670 0.69737 0.58152
 C1225 C 0.50126 0.71383 0.60010
 C1226 C 0.49251 0.67538 0.61760
 C1227 C 0.47823 0.70322 0.56521
 C1228 C 0.51368 0.68632 0.54685
 C1229 C 0.50522 0.64857 0.56529
 C1230 C 0.46960 0.66471 0.58290
 H1231 H 0.54876 0.64109 0.61376
 H1232 H 0.56497 0.70936 0.57856
 H1233 H 0.48319 0.66884 0.64630
 H1234 H 0.45797 0.72128 0.55037
 H1235 H 0.52249 0.69049 0.51747
 H1236 H 0.44186 0.65098 0.58339
 C1237 C -0.02819 0.65947 0.40012
 C1238 C -0.03671 0.69776 0.41797
 C1239 C -0.00134 0.71406 0.39912
 C1240 C 0.00726 0.67549 0.38178
 C1241 C 0.02186 0.70360 0.43393
 C1242 C -0.01350 0.68685 0.45258
 C1243 C -0.00513 0.64899 0.43430
 C1244 C 0.03038 0.66500 0.41640
 H1245 H -0.04897 0.64128 0.38613
 H1246 H -0.06493 0.70989 0.42090
 H1247 H 0.01630 0.66868 0.35306
 H1248 H 0.04220 0.72172 0.44859
 H1249 H -0.02213 0.69119 0.48199
 H1250 H 0.05812 0.65125 0.41582
 C1251 C 0.46258 1.16784 -0.08524
 C1252 C 0.47406 1.20522 -0.06675
 C1253 C 0.49951 1.21386 -0.10055
 C1254 C 0.48831 1.17624 -0.11865
 C1255 C 0.53245 1.19438 -0.08063
 C1256 C 0.50687 1.18516 -0.04698
 C1257 C 0.49522 1.14844 -0.06597
 C1258 C 0.52111 1.15704 -0.09897
 H1259 H 0.43367 1.15692 -0.08725
 H1260 H 0.45540 1.22503 -0.05205
 H1261 H 0.48130 1.16899 -0.14774
 H1262 H 0.56148 1.20463 -0.07789
 H1263 H 0.51443 1.18840 -0.01715
 H1264 H 0.54069 1.13724 -0.11250
 C1265 C 0.49273 0.31439 -0.04613
 C1266 C 0.46725 0.30538 -0.07991
 C1267 C 0.50034 0.28631 -0.10000
 C1268 C 0.52568 0.29472 -0.06608
 C1269 C 0.51135 0.32419 -0.11767
 C1270 C 0.47840 0.34295 -0.09785
 C1271 C 0.50418 0.35136 -0.06475
 C1272 C 0.53698 0.33237 -0.08416
 H1273 H 0.48514 0.31081 -0.01634
 H1274 H 0.43826 0.29500 -0.07724
 H1275 H 0.54443 0.27484 -0.05158
 H1276 H 0.51841 0.33186 -0.14665
 H1277 H 0.45871 0.36277 -0.11121
 H1278 H 0.56582 0.34348 -0.08600
 C1279 C 0.01302 -0.18712 0.45303
 C1280 C -0.02238 -0.20363 0.43424
 C1281 C 0.00083 -0.21394 0.39937
 C1282 C 0.03623 -0.19788 0.41836
 C1283 C -0.00763 -0.17522 0.38228
 C1284 C -0.03074 -0.16489 0.41696
 C1285 C 0.00481 -0.14911 0.43499
 C1286 C 0.02786 -0.15945 0.40075
 H1287 H 0.02161 -0.19168 0.48241
 H1288 H -0.04280 -0.22178 0.44874
 H1289 H 0.06441 -0.21010 0.42124
 H1290 H -0.01664 -0.16823 0.35360
 H1291 H -0.05843 -0.15103 0.41645
 H1292 H 0.04872 -0.14124 0.38690
 C1293 C 0.48815 -0.18761 0.54540
 C1294 C 0.52334 -0.20424 0.56453
 C1295 C 0.49984 -0.21422 0.59931
 C1296 C 0.46467 -0.19806 0.57997
 C1297 C 0.50842 -0.17548 0.61623
 C1298 C 0.53180 -0.16543 0.58166
 C1299 C 0.49646 -0.14957 0.56329
 C1300 C 0.47314 -0.15963 0.59745
 H1301 H 0.47975 -0.19227 0.51598
 H1302 H 0.54377 -0.22259 0.55027
 H1303 H 0.43642 -0.21008 0.57694
 H1304 H 0.51730 -0.16843 0.64494
 H1305 H 0.55956 -0.15174 0.58226
 H1306 H 0.45227 -0.14125 0.61108
 C1307 C -0.01156 0.31223 1.04573
 C1308 C 0.02357 0.29553 1.06491
 C1309 C 0.00001 0.28573 1.09970
 C1310 C -0.03509 0.30195 1.08030
 C1311 C 0.00873 0.32449 1.11652
 C1312 C 0.03216 0.33435 1.08193
 C1313 C -0.00313 0.35027 1.06354
 C1314 C -0.02650 0.34038 1.09769
 H1315 H -0.01996 0.30753 1.01632
 H1316 H 0.04389 0.27706 1.05066
 H1317 H -0.06339 0.29007 1.07719
 H1318 H 0.01764 0.33164 1.14518
 H1319 H 0.05996 0.34797 1.08250
 H1320 H -0.04730 0.35887 1.11126
 C1321 C 0.71887 0.33399 0.08479
 C1322 C 0.74194 0.36843 0.07368
 C1323 C 0.75028 0.35061 0.03524
 C1324 C 0.72708 0.31600 0.04631
 C1325 C 0.78572 0.33189 0.05158
 C1326 C 0.77750 0.35027 0.08969
 C1327 C 0.75451 0.31629 0.10077
 C1328 C 0.76252 0.29751 0.06307
 H1329 H 0.69125 0.33479 0.09877
 H1330 H 0.73284 0.39720 0.08013
 H1331 H 0.70661 0.30116 0.02849
 H1332 H 0.81387 0.32850 0.03944
 H1333 H 0.79843 0.36444 0.10757
 H1334 H 0.77109 0.26806 0.05905
 C1335 C 0.28729 0.83452 0.58249
 C1336 C 0.27627 0.81619 0.54488
 C1337 C 0.25059 0.84981 0.53627
 C1338 C 0.26133 0.86774 0.57410
 C1339 C 0.21767 0.82948 0.55534
 C1340 C 0.24347 0.79600 0.56453
 C1341 C 0.25465 0.81484 0.60148
 C1342 C 0.22855 0.84766 0.59290
 H1343 H 0.31608 0.83668 0.59366
 H1344 H 0.29524 0.80181 0.52512
 H1345 H 0.26806 0.89685 0.58151
 H1346 H 0.18875 0.82655 0.54484
 H1347 H 0.23621 0.76614 0.56103
 H1348 H 0.20868 0.86087 0.61264
 C1349 C 0.77333 0.65231 0.59245
 C1350 C 0.74011 0.63239 0.57426
 C1351 C 0.75028 0.65018 0.53621
 C1352 C 0.78366 0.67036 0.55465
 C1353 C 0.72498 0.68398 0.54517
 C1354 C 0.71451 0.66577 0.58297
 C1355 C 0.74758 0.68529 0.60137
 C1356 C 0.75821 0.70402 0.56422
 H1357 H 0.79345 0.63908 0.61190
 H1358 H 0.73331 0.60337 0.58192
 H1359 H 0.81243 0.67312 0.54367
 H1360 H 0.70576 0.69841 0.52570
 H1361 H 0.68590 0.66380 0.59465
 H1362 H 0.76561 0.73382 0.56054
 C1363 C 0.28272 0.16717 0.08492
 C1364 C 0.25933 0.13260 0.07490
 C1365 C 0.25007 0.14983 0.03643
 C1366 C 0.27358 0.18458 0.04636
 C1367 C 0.21507 0.16886 0.05329
 C1368 C 0.22420 0.15109 0.09144
 C1369 C 0.24752 0.18522 0.10144
 C1370 C 0.23856 0.20339 0.06366
 H1371 H 0.31066 0.16657 0.09823
 H1372 H 0.26846 0.10387 0.08152
 H1373 H 0.29363 0.19911 0.02782
 H1374 H 0.18663 0.17195 0.04176
 H1375 H 0.20369 0.13723 0.11004
 H1376 H 0.22996 0.23280 0.05937
 C1377 C 0.27585 0.15119 0.90944
 C1378 C 0.28507 0.16884 0.94763
 C1379 C 0.25003 0.14990 0.96449
 C1380 C 0.24068 0.13279 0.92599
 C1381 C 0.22662 0.18477 0.95466
 C1382 C 0.26169 0.20349 0.93735
 C1383 C 0.25263 0.18544 0.89955
 C1384 C 0.21740 0.16748 0.91608
 H1385 H 0.29629 0.13729 0.89079
 H1386 H 0.31354 0.17179 0.95914
 H1387 H 0.23147 0.10412 0.91933
 H1388 H 0.20663 0.19932 0.97325
 H1389 H 0.27039 0.23285 0.94169
 H1390 H 0.18943 0.16702 0.90281
 C1391 C 0.74093 0.70401 0.43594
 C1392 C 0.71568 0.67019 0.44542
 C1393 C 0.74915 0.65021 0.46391
 C1394 C 0.77424 0.68417 0.45504
 C1395 C 0.75952 0.63252 0.42587
 C1396 C 0.72622 0.65225 0.40762
 C1397 C 0.75178 0.68538 0.39879
 C1398 C 0.78493 0.66606 0.41726
 H1399 H 0.73333 0.73377 0.43961
 H1400 H 0.68688 0.67276 0.45635
 H1401 H 0.79331 0.69872 0.47457
 H1402 H 0.76651 0.60355 0.41814
 H1403 H 0.70624 0.63891 0.38811
 H1404 H 0.81358 0.66427 0.40564
 C1405 C 0.27295 0.84774 0.40744
 C1406 C 0.23957 0.86713 0.42595
 C1407 C 0.25043 0.84956 0.46391
 C1408 C 0.28396 0.82990 0.44513
 C1409 C 0.22561 0.81535 0.45526
 C1410 C 0.21446 0.83332 0.41752
 C1411 C 0.24770 0.81434 0.39881
 C1412 C 0.25898 0.79583 0.43588
 H1413 H 0.29265 0.86132 0.38780
 H1414 H 0.23213 0.89601 0.41833
 H1415 H 0.31288 0.82751 0.45575
 H1416 H 0.20682 0.80066 0.47496
 H1417 H 0.18571 0.83481 0.40612
 H1418 H 0.26693 0.76616 0.43950
 C1419 C 0.73639 0.29596 0.93649
 C1420 C 0.77175 0.31478 0.95307
 C1421 C 0.74853 0.34968 0.96318
 C1422 C 0.71317 0.33065 0.94707
 C1423 C 0.75711 0.36660 0.92441
 C1424 C 0.78023 0.33190 0.91426
 C1425 C 0.74470 0.31387 0.89844
 C1426 C 0.72165 0.34813 0.90861
 H1427 H 0.72777 0.26661 0.94111
 H1428 H 0.79210 0.30032 0.97134
 H1429 H 0.68494 0.32771 0.95918
 H1430 H 0.76622 0.39521 0.91731
 H1431 H 0.80795 0.33235 0.90047
 H1432 H 0.70085 0.36193 0.89029
 C1433 C 0.83353 0.41554 0.28054
 C1434 C 0.86821 0.42613 0.25750
 C1435 C 0.85068 0.46456 0.24867
 C1436 C 0.81583 0.45403 0.27182
 C1437 C 0.83200 0.44800 0.21334
 C1438 C 0.85005 0.40985 0.22206
 C1439 C 0.81582 0.39931 0.24503
 C1440 C 0.79738 0.43705 0.23649
 H1441 H 0.83408 0.40189 0.30831
 H1442 H 0.89696 0.41967 0.26671
 H1443 H 0.80101 0.47216 0.29203
 H1444 H 0.82898 0.45990 0.18505
 H1445 H 0.86420 0.39165 0.20140
 H1446 H 0.76797 0.44122 0.22775
 C1447 C 0.34912 0.90700 0.77112
 C1448 C 0.36879 0.92603 0.73821
 C1449 C 0.35055 0.96366 0.74913
 C1450 C 0.33065 0.94438 0.78219
 C1451 C 0.31680 0.95476 0.72373
 C1452 C 0.33541 0.91735 0.71253
 C1453 C 0.31615 0.89816 0.74529
 C1454 C 0.29704 0.93491 0.75666
 H1455 H 0.36267 0.88736 0.79084
 H1456 H 0.39794 0.91886 0.73124
 H1457 H 0.32784 0.95482 0.81113
 H1458 H 0.30207 0.97439 0.70490
 H1459 H 0.33747 0.90622 0.68372
 H1460 H 0.26718 0.93813 0.76417
 C1461 C 0.15237 0.90887 0.27693
 C1462 C 0.17000 0.94705 0.28610
 C1463 C 0.15095 0.96384 0.25109
 C1464 C 0.13386 0.92534 0.24181
 C1465 C 0.18583 0.95405 0.22764
 C1466 C 0.20466 0.93679 0.26267
 C1467 C 0.18661 0.89900 0.25365
 C1468 C 0.16854 0.91548 0.21847
 H1469 H 0.13853 0.89023 0.29741
 H1470 H 0.17297 0.95858 0.31455
 H1471 H 0.10515 0.91859 0.23268
 H1472 H 0.20035 0.97263 0.20763
 H1473 H 0.23406 0.94116 0.27130
 H1474 H 0.16804 0.90220 0.19052
 C1475 C 0.70290 0.43510 0.76374
 C1476 C 0.68457 0.45232 0.72844
 C1477 C 0.64967 0.46282 0.75155
 C1478 C 0.66823 0.44603 0.78684
 C1479 C 0.63213 0.42445 0.74248
 C1480 C 0.66684 0.41390 0.71949
 C1481 C 0.68441 0.39744 0.75497
 C1482 C 0.65015 0.40797 0.77789
 H1483 H 0.73229 0.43916 0.77258
 H1484 H 0.69948 0.47054 0.70838
 H1485 H 0.67125 0.45778 0.81520
 H1486 H 0.60341 0.41802 0.73315
 H1487 H 0.66632 0.40039 0.69165
 H1488 H 0.63591 0.38969 0.79842
 C1489 C 0.65156 0.58988 0.72497
 C1490 C 0.66940 0.55170 0.71607
 C1491 C 0.65016 0.53494 0.75099
 C1492 C 0.63287 0.57346 0.76002
 C1493 C 0.68482 0.54498 0.77466
 C1494 C 0.70383 0.56219 0.73970
 C1495 C 0.68558 0.59999 0.74845
 C1496 C 0.66732 0.58356 0.78357
 H1497 H 0.63777 0.60838 0.70433
 H1498 H 0.67268 0.54006 0.68770
 H1499 H 0.60408 0.58024 0.76890
 H1500 H 0.69928 0.52651 0.79482
 H1501 H 0.73332 0.55788 0.73130
 H1502 H 0.66653 0.59692 0.81147
 C1503 C 0.16810 0.08411 0.28357
 C1504 C 0.13348 0.07412 0.26019
 C1505 C 0.15072 0.03566 0.25094
 C1506 C 0.18552 0.04557 0.27444
 C1507 C 0.16977 0.05249 0.21595
 C1508 C 0.15200 0.09063 0.22508
 C1509 C 0.18619 0.10060 0.24840
 C1510 C 0.20435 0.06284 0.23942
 H1511 H 0.16751 0.09740 0.31152
 H1512 H 0.10470 0.08073 0.26924
 H1513 H 0.20007 0.02703 0.29448
 H1514 H 0.17278 0.04093 0.18752
 H1515 H 0.13814 0.10923 0.20458
 H1516 H 0.23378 0.05853 0.23083
 C1517 C 0.33315 0.08210 0.78577
 C1518 C 0.31538 0.04427 0.77468
 C1519 C 0.34943 0.03601 0.74943
 C1520 C 0.36676 0.07408 0.76022
 C1521 C 0.32917 0.05472 0.71624
 C1522 C 0.29526 0.06360 0.74164
 C1523 C 0.31357 0.10077 0.75289
 C1524 C 0.34679 0.09250 0.72719
 H1525 H 0.33488 0.09336 0.81455
 H1526 H 0.30106 0.02438 0.79355
 H1527 H 0.39568 0.08202 0.76727
 H1528 H 0.32666 0.04415 0.68731
 H1529 H 0.26550 0.05972 0.73407
 H1530 H 0.35998 0.11230 0.70738
 C1531 C 0.83199 0.58513 0.21763
 C1532 C 0.86663 0.57522 0.24099
 C1533 C 0.84975 0.53650 0.24980
 C1534 C 0.81490 0.54635 0.22633
 C1535 C 0.83045 0.55281 0.28491
 C1536 C 0.84789 0.59120 0.27622
 C1537 C 0.81369 0.60113 0.25292
 C1538 C 0.79583 0.56313 0.26146
 H1539 H 0.83253 0.59870 0.18982
 H1540 H 0.89531 0.58230 0.23202
 H1541 H 0.80058 0.52790 0.20607
 H1542 H 0.82742 0.54095 0.31322
 H1543 H 0.86155 0.60970 0.29694
 H1544 H 0.76641 0.55850 0.26994
 C1545 C 0.90956 0.27825 0.15017
 C1546 C 0.94778 0.28692 0.16812
 C1547 C 0.96417 0.25133 0.14980
 C1548 C 0.92564 0.24254 0.13241
 C1549 C 0.95350 0.22862 0.18488
 C1550 C 0.93667 0.26422 0.20298
 C1551 C 0.89886 0.25573 0.18462
 C1552 C 0.91492 0.21995 0.16730
 H1553 H 0.89146 0.29885 0.13582
 H1554 H 0.95982 0.31516 0.17090
 H1555 H 0.91903 0.23301 0.10381
 H1556 H 0.97155 0.20847 0.19988
 H1557 H 0.94088 0.27324 0.23228
 H1558 H 0.90110 0.19228 0.16704
 C1559 C 0.40926 0.77727 0.64989
 C1560 C 0.44748 0.78624 0.66771
 C1561 C 0.46413 0.75087 0.64920
 C1562 C 0.42561 0.74180 0.63191
 C1563 C 0.45381 0.72793 0.68422
 C1564 C 0.43674 0.76330 0.70252
 C1565 C 0.39892 0.75450 0.68431
 C1566 C 0.41524 0.71896 0.66676
 H1567 H 0.39090 0.79776 0.63569
 H1568 H 0.45930 0.81457 0.67048
 H1569 H 0.41903 0.73238 0.60326
 H1570 H 0.47209 0.70788 0.69908
 H1571 H 0.44099 0.77223 0.73184
 H1572 H 0.40170 0.69115 0.66644
 C1573 C 0.43582 0.25961 0.79675
 C1574 C 0.44541 0.28469 0.83067
 C1575 C 0.46385 0.25111 0.85054
 C1576 C 0.45486 0.22620 0.81649
 C1577 C 0.42575 0.24084 0.86823
 C1578 C 0.40756 0.27425 0.84862
 C1579 C 0.39862 0.24888 0.81538
 C1580 C 0.41702 0.21562 0.83458
 H1581 H 0.43952 0.26731 0.76701
 H1582 H 0.45640 0.31344 0.82813
 H1583 H 0.47432 0.20712 0.80185
 H1584 H 0.41803 0.23374 0.89718
 H1585 H 0.38813 0.29424 0.86208
 H1586 H 0.40532 0.18703 0.83631
 C1587 C 0.93657 0.73873 0.29587
 C1588 C 0.95387 0.77368 0.31476
 C1589 C 0.96374 0.75013 0.34953
 C1590 C 0.94690 0.71521 0.33043
 C1591 C 0.92523 0.75938 0.36673
 C1592 C 0.91528 0.78282 0.33215
 C1593 C 0.89876 0.74772 0.31400
 C1594 C 0.90869 0.72434 0.34815
 H1595 H 0.94091 0.73019 0.26645
 H1596 H 0.97246 0.79371 0.30028
 H1597 H 0.95847 0.68679 0.32742
 H1598 H 0.91854 0.76836 0.39549
 H1599 H 0.90201 0.81076 0.33277
 H1600 H 0.89005 0.70385 0.36196
 C1601 C 0.06299 0.76199 0.29599
 C1602 C 0.04558 0.72697 0.31463
 C1603 C 0.03573 0.75031 0.34954
 C1604 C 0.05269 0.78531 0.33069
 C1605 C 0.07420 0.74084 0.36671
 C1606 C 0.08411 0.71760 0.33200
 C1607 C 0.10076 0.75277 0.31409
 C1608 C 0.09085 0.77595 0.34838
 H1609 H 0.05872 0.77073 0.26661
 H1610 H 0.02695 0.70709 0.29999
 H1611 H 0.04119 0.81378 0.32785
 H1612 H 0.08088 0.73166 0.39541
 H1613 H 0.09731 0.68961 0.33245
 H1614 H 0.10955 0.79629 0.36234
 C1615 C 0.59272 0.22721 0.84855
 C1616 C 0.57432 0.26027 0.86855
 C1617 C 0.53631 0.24997 0.85070
 C1618 C 0.55496 0.21674 0.83047
 C1619 C 0.54521 0.27535 0.81694
 C1620 C 0.58298 0.28596 0.83520
 C1621 C 0.60156 0.25305 0.81562
 C1622 C 0.56444 0.24227 0.79686
 H1623 H 0.61227 0.20719 0.86179
 H1624 H 0.58195 0.26698 0.89762
 H1625 H 0.54408 0.18797 0.82766
 H1626 H 0.52567 0.29447 0.80247
 H1627 H 0.59451 0.31460 0.83725
 H1628 H 0.56082 0.23493 0.76702
 C1629 C 0.59094 0.72332 0.65152
 C1630 C 0.55254 0.71476 0.66911
 C1631 C 0.53620 0.74981 0.64975
 C1632 C 0.57491 0.75848 0.63271
 C1633 C 0.54620 0.77339 0.68445
 C1634 C 0.56299 0.73831 0.70360
 C1635 C 0.60101 0.74669 0.68561
 C1636 C 0.58499 0.78193 0.66722
 H1637 H 0.60938 0.70251 0.63788
 H1638 H 0.54066 0.68650 0.67231
 H1639 H 0.58187 0.76734 0.60397
 H1640 H 0.52780 0.79375 0.69873
 H1641 H 0.55841 0.72995 0.73304
 H1642 H 0.59861 0.80970 0.66653
 C1643 C 0.09087 0.22321 0.15184
 C1644 C 0.05256 0.21493 0.16974
 C1645 C 0.03624 0.24992 0.15025
 C1646 C 0.07490 0.25833 0.13292
 C1647 C 0.04655 0.27368 0.18473
 C1648 C 0.06333 0.23866 0.20399
 C1649 C 0.10125 0.24676 0.18568
 C1650 C 0.08527 0.28196 0.16721
 H1651 H 0.10915 0.20225 0.13822
 H1652 H 0.04058 0.18675 0.17325
 H1653 H 0.08181 0.26699 0.10412
 H1654 H 0.02832 0.29419 0.19901
 H1655 H 0.05892 0.23051 0.23352
 H1656 H 0.09902 0.30966 0.16625
 C1657 C -0.09761 1.02252 0.84320
 C1658 C -0.07984 1.03299 0.80531
 C1659 C -0.09988 0.99948 0.78698
 C1660 C -0.11738 0.98917 0.82513
 C1661 C -0.06579 0.97448 0.79574
 C1662 C -0.04589 1.00785 0.81466
 C1663 C -0.06431 0.99709 0.85194
 C1664 C -0.08370 0.96388 0.83366
 H1665 H -0.11093 1.04253 0.86270
 H1666 H -0.07737 1.06176 0.79435
 H1667 H -0.14634 0.98208 0.83290
 H1668 H -0.05135 0.95534 0.77620
 H1669 H -0.01614 1.01548 0.81080
 H1670 H -0.08536 0.93528 0.84535
 C1671 C 0.41710 0.53184 0.33544
 C1672 C 0.43446 0.52297 0.29680
 C1673 C 0.39967 0.49952 0.28680
 C1674 C 0.38249 0.50852 0.32534
 C1675 C 0.41880 0.46447 0.30341
 C1676 C 0.45336 0.48790 0.31385
 C1677 C 0.43525 0.49659 0.35171
 C1678 C 0.40106 0.47334 0.34164
 H1679 H 0.41651 0.55968 0.34892
 H1680 H 0.44893 0.54315 0.27836
 H1681 H 0.35373 0.51760 0.33202
 H1682 H 0.42190 0.43611 0.29172
 H1683 H 0.48280 0.47936 0.30945
 H1684 H 0.38724 0.45272 0.36014
 C1685 C 0.54728 -0.00648 0.31436
 C1686 C 0.56711 0.02643 0.29462
 C1687 C 0.60092 0.00105 0.28581
 C1688 C 0.58094 -0.03200 0.30499
 C1689 C 0.61899 0.01191 0.32354
 C1690 C 0.58557 0.03759 0.33212
 C1691 C 0.56623 0.00483 0.35121
 C1692 C 0.59924 -0.02099 0.34247
 H1693 H 0.51743 -0.01398 0.31101
 H1694 H 0.55247 0.04529 0.27495
 H1695 H 0.57820 -0.06092 0.29449
 H1696 H 0.64811 0.01886 0.33082
 H1697 H 0.58757 0.06637 0.34329
 H1698 H 0.61270 -0.04072 0.36216
 C1699 C 0.04702 0.51373 0.81273
 C1700 C 0.08184 0.53664 0.80190
 C1701 C 0.10043 0.50120 0.78551
 C1702 C 0.06540 0.47828 0.79591
 C1703 C 0.11769 0.49236 0.82406
 C1704 C 0.09963 0.52791 0.84018
 C1705 C 0.06520 0.50518 0.85060
 C1706 C 0.08284 0.46956 0.83452
 H1707 H 0.01768 0.52262 0.80838
 H1708 H 0.07905 0.56492 0.78994
 H1709 H 0.05063 0.45808 0.77775
 H1710 H 0.14636 0.48296 0.83068
 H1711 H 0.11378 0.54853 0.85841
 H1712 H 0.08317 0.44183 0.84823
 C1713 C 0.04571 0.48803 0.68710
 C1714 C 0.08030 0.46458 0.69753
 C1715 C 0.09969 0.49973 0.71359
 C1716 C 0.06489 0.52321 0.70362
 C1717 C 0.11656 0.50823 0.67478
 C1718 C 0.09774 0.47296 0.65904
 C1719 C 0.06355 0.49624 0.64900
 C1720 C 0.08195 0.53158 0.66475
 H1721 H 0.01629 0.47965 0.69184
 H1722 H 0.07724 0.43637 0.70958
 H1723 H 0.05068 0.54367 0.72197
 H1724 H 0.14525 0.51713 0.66765
 H1725 H 0.11134 0.45207 0.64067
 H1726 H 0.08253 0.55928 0.65099
 C1727 C 0.54572 1.00922 0.18607
 C1728 C 0.56582 0.97601 0.20512
 C1729 C 0.59992 1.00110 0.21345
 C1730 C 0.57970 1.03446 0.19500
 C1731 C 0.61716 0.99053 0.17525
 C1732 C 0.58346 0.96516 0.16715
 C1733 C 0.56390 0.99821 0.14874
 C1734 C 0.59722 1.02373 0.15707
 H1735 H 0.51599 1.01686 0.19010
 H1736 H 0.55154 0.95702 0.22492
 H1737 H 0.57725 1.06331 0.20575
 H1738 H 0.64606 0.98338 0.16731
 H1739 H 0.58510 0.93647 0.15567
 H1740 H 0.61037 1.04361 0.13732
 C1741 C 0.41751 0.46737 0.16643
 C1742 C 0.43475 0.47645 0.20507
 C1743 C 0.39981 0.49977 0.21493
 C1744 C 0.38276 0.49057 0.17638
 C1745 C 0.41879 0.53486 0.19826
 C1746 C 0.45351 0.51156 0.18794
 C1747 C 0.43551 0.50265 0.15008
 C1748 C 0.40119 0.52578 0.16002
 H1749 H 0.41710 0.43949 0.15305
 H1750 H 0.44929 0.45640 0.22360
 H1751 H 0.35408 0.48135 0.16962
 H1752 H 0.42170 0.56326 0.20987
 H1753 H 0.48289 0.52024 0.19237
 H1754 H 0.38730 0.54629 0.14144
 C1755 C -0.04582 -0.00906 0.68697
 C1756 C -0.06608 0.02399 0.70611
 C1757 C -0.09992 -0.00139 0.71473
 C1758 C -0.07954 -0.03459 0.69619
 C1759 C -0.11752 0.00898 0.67665
 C1760 C -0.08409 0.03465 0.66827
 C1761 C -0.06433 0.00178 0.64976
 C1762 C -0.09738 -0.02405 0.65835
 H1763 H -0.01600 -0.01643 0.69082
 H1764 H -0.05179 0.04313 0.72574
 H1765 H -0.07689 -0.06339 0.70705
 H1766 H -0.14657 0.01579 0.66896
 H1767 H -0.08606 0.06332 0.65679
 H1768 H -0.11048 -0.04406 0.63870
 C1769 C -0.18715 0.95394 0.98769
 C1770 C -0.19733 0.91912 0.96451
 C1771 C -0.21403 0.90029 0.99968
 C1772 C -0.20432 0.93532 1.02287
 C1773 C -0.17545 0.88337 1.00904
 C1774 C -0.15903 0.90167 0.97376
 C1775 C -0.14925 0.93608 0.99678
 C1776 C -0.16565 0.91821 1.03211
 H1777 H -0.19163 0.98324 0.97884
 H1778 H -0.20893 0.92180 0.93606
 H1779 H -0.22293 0.94989 1.04282
 H1780 H -0.16867 0.85476 1.01839
 H1781 H -0.14035 0.88775 0.95336
 H1782 H -0.15233 0.91795 1.06005
 C1783 C 0.34220 0.40195 0.52390
 C1784 C 0.30430 0.41981 0.53428
 C1785 C 0.28593 0.39960 0.50088
 C1786 C 0.32407 0.38199 0.49067
 C1787 C 0.29472 0.43348 0.47565
 C1788 C 0.31367 0.45355 0.50890
 C1789 C 0.35093 0.43502 0.49822
 C1790 C 0.33262 0.41546 0.46514
 H1791 H 0.36175 0.38879 0.54397
 H1792 H 0.29331 0.42245 0.56304
 H1793 H 0.33182 0.35300 0.48378
 H1794 H 0.27519 0.44783 0.45643
 H1795 H 0.30985 0.48332 0.51634
 H1796 H 0.34431 0.41360 0.43653
 C1797 C 0.33975 0.59745 0.02749
 C1798 C 0.32407 0.61626 -0.00784
 C1799 C 0.28530 0.59925 0.00051
 C1800 C 0.30129 0.57987 0.03571
 C1801 C 0.29548 0.56456 -0.02300
 C1802 C 0.33433 0.58177 -0.03121
 C1803 C 0.35001 0.56340 0.00419
 C1804 C 0.31195 0.54541 0.01223
 H1805 H 0.35799 0.61106 0.04848
 H1806 H 0.33114 0.64495 -0.01671
 H1807 H 0.28918 0.57664 0.06389
 H1808 H 0.27727 0.55033 -0.04355
 H1809 H 0.34823 0.58244 -0.05887
 H1810 H 0.30732 0.51598 0.02055
 C1811 C -0.15749 0.09874 0.47687
 C1812 C -0.19528 0.08111 0.46581
 C1813 C -0.21408 0.10113 0.49909
 C1814 C -0.17604 0.11851 0.51000
 C1815 C -0.20575 0.06703 0.52419
 C1816 C -0.18638 0.04713 0.49105
 C1817 C -0.14919 0.06541 0.50237
 C1818 C -0.16792 0.08479 0.53537
 H1819 H -0.13767 0.11204 0.45715
 H1820 H -0.20585 0.07874 0.43687
 H1821 H -0.16837 0.14742 0.51728
 H1822 H -0.22561 0.05266 0.54307
 H1823 H -0.19022 0.01744 0.48331
 H1824 H -0.15665 0.08640 0.56416
 C1825 C 0.66732 0.08539 0.46237
 C1826 C 0.67559 0.11889 0.48799
 C1827 C 0.71358 0.10129 0.49876
 C1828 C 0.70511 0.06742 0.47339
 C1829 C 0.69475 0.08109 0.53189
 C1830 C 0.65703 0.09895 0.52100
 C1831 C 0.64858 0.06584 0.49524
 C1832 C 0.68572 0.04735 0.50642
 H1833 H 0.65602 0.08724 0.43361
 H1834 H 0.66799 0.14789 0.48096
 H1835 H 0.72491 0.05310 0.45441
 H1836 H 0.70533 0.07846 0.56081
 H1837 H 0.63727 0.11219 0.54083
 H1838 H 0.68947 0.01758 0.51392
 C1839 C 0.16423 0.58222 1.03020
 C1840 C 0.20293 0.56482 1.02174
 C1841 C 0.21343 0.59982 0.99887
 C1842 C 0.17480 0.61705 1.00746
 C1843 C 0.19730 0.58123 0.96330
 C1844 C 0.18636 0.54645 0.98616
 C1845 C 0.14842 0.56461 0.99445
 C1846 C 0.15895 0.59900 0.97178
 H1847 H 0.15031 0.58252 1.05785
 H1848 H 0.22099 0.55007 1.04207
 H1849 H 0.16809 0.64567 1.01685
 H1850 H 0.20944 0.57842 0.93509
 H1851 H 0.19078 0.51714 0.97730
 H1852 H 0.14083 0.61313 0.95103
 C1853 C 0.18625 0.45388 0.49119
 C1854 C 0.20501 0.43390 0.52461
 C1855 C 0.21370 0.39982 0.49962
 C1856 C 0.19553 0.41992 0.46604
 C1857 C 0.17546 0.38248 0.50984
 C1858 C 0.16700 0.41616 0.53512
 C1859 C 0.14887 0.43564 0.50186
 C1860 C 0.15752 0.40234 0.47644
 H1861 H 0.19027 0.48358 0.48356
 H1862 H 0.22457 0.44824 0.54382
 H1863 H 0.20659 0.42232 0.43729
 H1864 H 0.16764 0.35356 0.51692
 H1865 H 0.15523 0.41455 0.56371
 H1866 H 0.13797 0.38916 0.45638
 C1867 C 0.65921 0.90166 0.02601
 C1868 C 0.67557 0.88296 -0.00907
 C1869 C 0.71411 0.90018 -0.00008
 C1870 C 0.69742 0.91943 0.03487
 C1871 C 0.70412 0.93483 -0.02373
 C1872 C 0.66550 0.91743 -0.03259
 C1873 C 0.64915 0.93570 0.00257
 C1874 C 0.68699 0.95386 0.01126
 H1875 H 0.64068 0.88793 0.04668
 H1876 H 0.66889 0.85420 -0.01803
 H1877 H 0.70906 0.92265 0.06325
 H1878 H 0.72260 0.94920 -0.04395
 H1879 H 0.65206 0.91672 -0.06046
 H1880 H 0.69134 0.98330 0.01967
 C1881 C 0.02336 0.84230 0.90382
 C1882 C 0.03416 0.80435 0.92120
 C1883 C 0.00070 0.78599 0.90106
 C1884 C -0.00993 0.82420 0.88396
 C1885 C -0.02431 0.79425 0.93527
 C1886 C 0.00900 0.81322 0.95529
 C1887 C -0.00207 0.85057 0.93725
 C1888 C -0.03522 0.83224 0.91775
 H1889 H 0.04324 0.86203 0.89064
 H1890 H 0.06304 0.79358 0.92349
 H1891 H -0.01716 0.83217 0.85510
 H1892 H -0.04328 0.77444 0.94955
 H1893 H 0.01674 0.80911 0.98497
 H1894 H -0.06394 0.84373 0.91626
 C1895 C 0.48928 0.31228 0.45515
 C1896 C 0.46545 0.30207 0.42076
 C1897 C 0.50038 0.28595 0.40098
 C1898 C 0.52425 0.29568 0.43558
 C1899 C 0.50890 0.32474 0.38417
 C1900 C 0.47384 0.34055 0.40340
 C1901 C 0.49751 0.35039 0.43739
 C1902 C 0.53264 0.33456 0.41857
 H1903 H 0.48116 0.30747 0.48463
 H1904 H 0.43719 0.29010 0.42394
 H1905 H 0.54478 0.27722 0.44954
 H1906 H 0.51755 0.33188 0.35541
 H1907 H 0.45288 0.35904 0.39006
 H1908 H 0.56042 0.34819 0.41778
 C1909 C -0.00877 0.31380 0.54542
 C1910 C 0.02463 0.29486 0.56532
 C1911 C -0.00038 0.28619 0.59942
 C1912 C -0.03392 0.30453 0.57940
 C1913 C 0.01001 0.32431 0.61686
 C1914 C 0.03530 0.33276 0.58316
 C1915 C 0.00206 0.35105 0.56378
 C1916 C -0.02337 0.34240 0.59710
 H1917 H -0.01644 0.30991 0.51570
 H1918 H 0.04376 0.27528 0.55092
 H1919 H -0.06273 0.29359 0.57701
 H1920 H 0.01714 0.33210 0.64579
 H1921 H 0.06394 0.34439 0.58479
 H1922 H -0.04337 0.36194 0.61040
 C1923 C 0.51198 0.81277 0.04594
 C1924 C 0.53522 0.80239 0.08065
 C1925 C 0.50003 0.78582 0.09959
 C1926 C 0.47676 0.79575 0.06464
 C1927 C 0.49089 0.82437 0.11663
 C1928 C 0.52622 0.84063 0.09826
 C1929 C 0.50317 0.85063 0.06393
 C1930 C 0.46776 0.83441 0.08187
 H1931 H 0.52071 0.80832 0.01658
 H1932 H 0.56363 0.79074 0.07769
 H1933 H 0.45666 0.77730 0.05009
 H1934 H 0.48157 0.83108 0.14529
 H1935 H 0.54677 0.85913 0.11217
 H1936 H 0.43989 0.84789 0.08225
 C1937 C 0.47399 0.65916 0.09829
 C1938 C 0.50909 0.67552 0.11696
 C1939 C 0.50006 0.71401 0.09969
 C1940 C 0.46510 0.69732 0.08046
 C1941 C 0.52372 0.70399 0.06502
 C1942 C 0.53261 0.66540 0.08248
 C1943 C 0.49744 0.64906 0.06424
 C1944 C 0.48873 0.68685 0.04602
 H1945 H 0.45332 0.64068 0.11206
 H1946 H 0.51810 0.66890 0.14573
 H1947 H 0.43671 0.70894 0.07722
 H1948 H 0.54392 0.72243 0.05058
 H1949 H 0.56050 0.65197 0.08319
 H1950 H 0.48031 0.69118 0.01656
 C1951 C 0.02307 0.15766 0.59706
 C1952 C 0.03359 0.19546 0.57917
 C1953 C 0.00037 0.21399 0.59956
 C1954 C -0.00998 0.17595 0.61720
 C1955 C -0.02507 0.20536 0.56577
 C1956 C 0.00800 0.18624 0.54551
 C1957 C -0.00282 0.14906 0.56406
 C1958 C -0.03572 0.16755 0.58382
 H1959 H 0.04312 0.13804 0.61015
 H1960 H 0.06240 0.20632 0.57650
 H1961 H -0.01677 0.16828 0.64625
 H1962 H -0.04427 0.22499 0.55152
 H1963 H 0.01533 0.19005 0.51569
 H1964 H -0.06440 0.15607 0.58582
 C1965 C 0.46995 0.16515 0.41789
 C1966 C 0.47879 0.20372 0.43529
 C1967 C 0.50152 0.21411 0.40014
 C1968 C 0.49256 0.17560 0.38291
 C1969 C 0.53711 0.19769 0.41849
 C1970 C 0.51437 0.18687 0.45344
 C1971 C 0.50570 0.14905 0.43529
 C1972 C 0.52825 0.15946 0.40074
 H1973 H 0.44218 0.15147 0.41773
 H1974 H 0.45865 0.22188 0.45018
 H1975 H 0.48297 0.16903 0.35432
 H1976 H 0.56543 0.20964 0.42107
 H1977 H 0.52345 0.19120 0.48270
 H1978 H 0.54880 0.14123 0.38645
 C1979 C 0.03714 0.66737 0.91516
 C1980 C 0.01132 0.67602 0.88188
 C1981 C 0.00061 0.71375 0.90001
 C1982 C 0.02614 0.70488 0.93368
 C1983 C -0.03243 0.69467 0.92014
 C1984 C -0.02157 0.65719 0.90177
 C1985 C 0.00439 0.64838 0.93464
 C1986 C -0.00677 0.68523 0.95366
 H1987 H 0.06592 0.65613 0.91303
 H1988 H 0.01815 0.66873 0.85274
 H1989 H 0.04513 0.72448 0.94823
 H1990 H -0.06135 0.70523 0.92301
 H1991 H -0.04143 0.63757 0.88840
 H1992 H -0.01414 0.68859 0.98353
 C1993 C 0.23783 0.70356 0.93762
 C1994 C 0.21429 0.66901 0.94787
 C1995 C 0.24935 0.64967 0.96426
 C1996 C 0.27291 0.68444 0.95447
 C1997 C 0.25824 0.63279 0.92556
 C1998 C 0.22306 0.65156 0.90948
 C1999 C 0.24642 0.68570 0.89962
 C2000 C 0.28167 0.66736 0.91570
 H2001 H 0.22938 0.73296 0.94224
 H2002 H 0.18595 0.67207 0.95967
 H2003 H 0.29319 0.69869 0.97298
 H2004 H 0.26724 0.60412 0.91853
 H2005 H 0.20234 0.63795 0.89093
 H2006 H 0.30952 0.66678 0.90217
 C2007 C 0.77294 0.15335 0.40684
 C2008 C 0.78354 0.17086 0.44479
 C2009 C 0.75013 0.15062 0.46311
 C2010 C 0.73969 0.13337 0.42492
 C2011 C 0.72498 0.18467 0.45471
 C2012 C 0.75825 0.20479 0.43579
 C2013 C 0.74737 0.18663 0.39845
 C2014 C 0.71426 0.16702 0.41672
 H2015 H 0.79293 0.14025 0.38714
 H2016 H 0.81238 0.17327 0.45566
 H2017 H 0.73261 0.10445 0.41709
 H2018 H 0.70584 0.19890 0.47442
 H2019 H 0.76583 0.23450 0.43985
 H2020 H 0.68558 0.16539 0.40515
 C2021 C 0.28707 0.33433 0.41844
 C2022 C 0.26146 0.36792 0.42639
 C2023 C 0.25023 0.35041 0.46427
 C2024 C 0.27557 0.31642 0.45612
 C2025 C 0.21721 0.33032 0.44515
 C2026 C 0.22858 0.34809 0.40754
 C2027 C 0.25434 0.31489 0.39939
 C2028 C 0.24267 0.29647 0.43639
 H2029 H 0.31597 0.33605 0.40745
 H2030 H 0.26862 0.39686 0.41874
 H2031 H 0.29425 0.30202 0.47613
 H2032 H 0.18817 0.32784 0.45545
 H2033 H 0.20900 0.36138 0.38757
 H2034 H 0.23503 0.26673 0.44008
 C2035 C 0.71982 0.83220 0.91522
 C2036 C 0.72818 0.81519 0.95410
 C2037 C 0.75125 0.85018 0.96421
 C2038 C 0.74279 0.86699 0.92537
 C2039 C 0.78674 0.83119 0.94830
 C2040 C 0.76366 0.79640 0.93773
 C2041 C 0.75547 0.81417 0.89959
 C2042 C 0.77837 0.84854 0.90975
 H2043 H 0.69215 0.83253 0.90133
 H2044 H 0.70774 0.80079 0.97232
 H2045 H 0.73364 0.89558 0.91822
 H2046 H 0.81492 0.82846 0.96055
 H2047 H 0.77235 0.76710 0.94250
 H2048 H 0.79922 0.86233 0.89148
 C2049 C 0.72171 0.84990 0.09057
 C2050 C 0.75730 0.86819 0.07479
 C2051 C 0.74902 0.85075 0.03618
 C2052 C 0.71354 0.83192 0.05227
 C2053 C 0.77217 0.81600 0.04692
 C2054 C 0.78033 0.83361 0.08557
 C2055 C 0.74467 0.81576 0.10133
 C2056 C 0.73669 0.79738 0.06344
 H2057 H 0.70076 0.86391 0.10856
 H2058 H 0.76638 0.89689 0.08153
 H2059 H 0.68540 0.82882 0.04002
 H2060 H 0.79271 0.80136 0.02899
 H2061 H 0.80794 0.83423 0.09957
 H2062 H 0.72811 0.76798 0.05912
 C2063 C 0.25669 0.29684 0.56472
 C2064 C 0.22377 0.31679 0.54502
 C2065 C 0.24918 0.35064 0.53658
 C2066 C 0.28221 0.33055 0.55570
 C2067 C 0.23813 0.36840 0.57440
 C2068 C 0.21246 0.33493 0.58264
 C2069 C 0.24523 0.31548 0.60168
 C2070 C 0.27104 0.34856 0.59325
 H2071 H 0.26424 0.26705 0.56117
 H2072 H 0.20496 0.30237 0.52515
 H2073 H 0.31122 0.32788 0.54534
 H2074 H 0.23104 0.39743 0.58183
 H2075 H 0.18361 0.33681 0.59374
 H2076 H 0.29073 0.36191 0.61305
 C2077 C 0.78548 0.16623 0.58174
 C2078 C 0.75997 0.13272 0.57329
 C2079 C 0.74955 0.15031 0.53524
 C2080 C 0.77480 0.18421 0.54390
 C2081 C 0.71620 0.17051 0.55374
 C2082 C 0.72677 0.15266 0.59155
 C2083 C 0.75243 0.18580 0.60020
 C2084 C 0.74159 0.20428 0.56299
 H2085 H 0.81416 0.16440 0.59328
 H2086 H 0.76698 0.10371 0.58088
 H2087 H 0.79396 0.19854 0.52430
 H2088 H 0.68737 0.17309 0.54290
 H2089 H 0.70676 0.13947 0.61115
 H2090 H 0.73408 0.23405 0.55917
 C2091 C 0.21848 0.66631 0.08526
 C2092 C 0.22716 0.68386 0.04668
 C2093 C 0.25019 0.64895 0.03618
 C2094 C 0.24136 0.63156 0.07468
 C2095 C 0.28562 0.66754 0.05263
 C2096 C 0.26261 0.70222 0.06356
 C2097 C 0.25412 0.68389 0.10136
 C2098 C 0.27693 0.64959 0.09083
 H2099 H 0.19074 0.66590 0.09901
 H2100 H 0.20692 0.69865 0.02855
 H2101 H 0.23195 0.60291 0.08122
 H2102 H 0.31393 0.67053 0.04074
 H2103 H 0.27144 0.73156 0.05932
 H2104 H 0.29759 0.63542 0.10901
 C2105 C 0.15225 0.59058 0.77602
 C2106 C 0.13330 0.57470 0.74087
 C2107 C 0.15022 0.53596 0.74949
 C2108 C 0.16972 0.55216 0.78452
 C2109 C 0.18494 0.54584 0.72582
 C2110 C 0.16782 0.58466 0.71733
 C2111 C 0.18635 0.60055 0.75255
 C2112 C 0.20423 0.56250 0.76089
 H2113 H 0.13871 0.60902 0.79689
 H2114 H 0.10455 0.58172 0.73205
 H2115 H 0.17282 0.54021 0.81278
 H2116 H 0.19911 0.52743 0.70540
 H2117 H 0.16713 0.59831 0.68956
 H2118 H 0.23368 0.55780 0.76918
 C2119 C 0.65189 0.09323 0.22614
 C2120 C 0.66961 0.05545 0.21525
 C2121 C 0.64981 0.03686 0.24878
 C2122 C 0.63235 0.07491 0.25950
 C2123 C 0.68405 0.04544 0.27362
 C2124 C 0.70372 0.06464 0.24025
 C2125 C 0.68532 0.10179 0.25142
 C2126 C 0.66619 0.08325 0.28464
 H2127 H 0.63841 0.11287 0.20636
 H2128 H 0.67193 0.04472 0.18637
 H2129 H 0.60346 0.08267 0.26685
 H2130 H 0.69864 0.02575 0.29250
 H2131 H 0.73342 0.06086 0.23237
 H2132 H 0.66468 0.09471 0.31335
 C2133 C 0.83460 0.08100 0.71416
 C2134 C 0.86816 0.07288 0.73975
 C2135 C 0.85065 0.03492 0.75064
 C2136 C 0.81668 0.04326 0.72533
 C2137 C 0.83044 0.05380 0.78376
 C2138 C 0.84823 0.09148 0.77273
 C2139 C 0.81505 0.09982 0.74699
 C2140 C 0.79660 0.06274 0.75831
 H2141 H 0.83640 0.09219 0.68536
 H2142 H 0.89714 0.08060 0.73266
 H2143 H 0.80233 0.02340 0.70646
 H2144 H 0.82786 0.04332 0.81272
 H2145 H 0.86148 0.11127 0.79249
 H2146 H 0.76682 0.05898 0.76588
 C2147 C 0.29612 0.56228 0.23717
 C2148 C 0.33086 0.55136 0.21413
 C2149 C 0.34979 0.53550 0.24965
 C2150 C 0.31485 0.54596 0.27271
 C2151 C 0.36687 0.57425 0.25791
 C2152 C 0.34849 0.58980 0.22228
 C2153 C 0.31417 0.60032 0.24514
 C2154 C 0.33212 0.58476 0.28084
 H2155 H 0.26676 0.55767 0.22854
 H2156 H 0.32795 0.53905 0.18601
 H2157 H 0.30034 0.52795 0.29324
 H2158 H 0.39552 0.58123 0.26705
 H2159 H 0.36241 0.60785 0.20133
 H2160 H 0.33256 0.59878 0.30843
 C2161 C 0.34897 0.40913 0.27902
 C2162 C 0.36734 0.42493 0.24349
 C2163 C 0.35002 0.46355 0.25188
 C2164 C 0.33111 0.44746 0.28731
 C2165 C 0.31519 0.45301 0.22872
 C2166 C 0.33269 0.41435 0.22045
 C2167 C 0.31477 0.39855 0.25606
 C2168 C 0.29649 0.43647 0.26416
 H2169 H 0.36295 0.39105 0.29991
 H2170 H 0.39604 0.41808 0.23439
 H2171 H 0.32807 0.45966 0.31546
 H2172 H 0.30060 0.47103 0.20825
 H2173 H 0.33327 0.40043 0.19281
 H2174 H 0.26708 0.44088 0.27276
 C2175 C 0.83521 0.91667 0.78808
 C2176 C 0.86876 0.92483 0.76243
 C2177 C 0.85102 0.96263 0.75131
 C2178 C 0.81709 0.95426 0.77668
 C2179 C 0.83094 0.94347 0.71830
 C2180 C 0.84891 0.90593 0.72956
 C2181 C 0.81576 0.89759 0.75537
 C2182 C 0.79715 0.93453 0.74380
 H2183 H 0.83705 0.90565 0.81695
 H2184 H 0.89781 0.91737 0.76949
 H2185 H 0.80261 0.97415 0.79543
 H2186 H 0.82838 0.95382 0.68930
 H2187 H 0.86228 0.88607 0.70993
 H2188 H 0.76734 0.93811 0.73623
 C2189 C 0.65173 0.90809 0.27135
 C2190 C 0.66986 0.94573 0.28200
 C2191 C 0.64945 0.96456 0.24899
 C2192 C 0.63156 0.92666 0.23848
 C2193 C 0.68310 0.95586 0.22336
 C2194 C 0.70337 0.93645 0.25625
 C2195 C 0.68461 0.89941 0.24530
 C2196 C 0.66483 0.91817 0.21258
 H2197 H 0.63857 0.88846 0.29134
 H2198 H 0.67275 0.95640 0.31085
 H2199 H 0.60243 0.91919 0.23180
 H2200 H 0.69743 0.97551 0.20425
 H2201 H 0.73325 0.94008 0.26348
 H2202 H 0.66268 0.90684 0.18386
 C2203 C 0.20300 0.43681 0.73598
 C2204 C 0.16818 0.44761 0.71305
 C2205 C 0.14961 0.46407 0.74849
 C2206 C 0.18464 0.45371 0.77143
 C2207 C 0.13234 0.42556 0.75741
 C2208 C 0.15037 0.40939 0.72186
 C2209 C 0.18480 0.39900 0.74460
 C2210 C 0.16720 0.41513 0.78023
 H2211 H 0.23233 0.44113 0.72707
 H2212 H 0.17099 0.45950 0.68473
 H2213 H 0.19942 0.47190 0.79160
 H2214 H 0.10369 0.41897 0.76687
 H2215 H 0.13620 0.39114 0.70127
 H2216 H 0.16688 0.40147 0.80800
 C2217 C 0.06393 0.75916 0.79697
 C2218 C 0.04472 0.72584 0.81671
 C2219 C 0.03634 0.75068 0.85100
 C2220 C 0.05494 0.78415 0.83113
 C2221 C 0.07447 0.73985 0.86825
 C2222 C 0.08261 0.71472 0.83438
 C2223 C 0.10118 0.74787 0.81517
 C2224 C 0.09281 0.77315 0.84865
 H2225 H 0.06003 0.76705 0.76731
 H2226 H 0.02492 0.70703 0.80221
 H2227 H 0.04424 0.81304 0.82892
 H2228 H 0.08235 0.73248 0.89710
 H2229 H 0.09401 0.68598 0.83580
 H2230 H 0.11256 0.79286 0.86204
 C2231 C 0.59073 0.22344 0.34763
 C2232 C 0.57496 0.25859 0.36666
 C2233 C 0.53605 0.24996 0.35009
 C2234 C 0.55213 0.21491 0.33050
 C2235 C 0.54564 0.27355 0.31527
 C2236 C 0.58461 0.28206 0.33205
 C2237 C 0.60041 0.24684 0.31342
 C2238 C 0.56219 0.23848 0.29589
 H2239 H 0.60931 0.20260 0.36103
 H2240 H 0.58227 0.26743 0.39531
 H2241 H 0.54017 0.18666 0.32754
 H2242 H 0.52710 0.29397 0.30127
 H2243 H 0.59824 0.30983 0.33258
 H2244 H 0.55726 0.23014 0.26650
 C2245 C 0.56253 0.76381 0.20324
 C2246 C 0.55157 0.78677 0.16850
 C2247 C 0.53576 0.75122 0.14962
 C2248 C 0.54626 0.72824 0.18457
 C2249 C 0.57457 0.74298 0.13256
 C2250 C 0.59007 0.77865 0.15087
 C2251 C 0.60062 0.75587 0.18519
 C2252 C 0.58510 0.72014 0.16732
 H2253 H 0.55792 0.77247 0.23259
 H2254 H 0.53923 0.81487 0.17144
 H2255 H 0.52825 0.70773 0.19912
 H2256 H 0.58166 0.73380 0.10396
 H2257 H 0.60811 0.79958 0.13692
 H2258 H 0.59918 0.69259 0.16691
 C2259 C 0.09324 0.22875 0.65070
 C2260 C 0.05563 0.21751 0.66859
 C2261 C 0.03650 0.25052 0.64850
 C2262 C 0.07437 0.26162 0.63083
 C2263 C 0.04482 0.27586 0.68243
 C2264 C 0.06452 0.24297 0.70239
 C2265 C 0.10152 0.25451 0.68386
 C2266 C 0.08248 0.28724 0.66439
 H2267 H 0.11316 0.20914 0.63738
 H2268 H 0.04527 0.18852 0.67113
 H2269 H 0.08184 0.26870 0.60180
 H2270 H 0.02490 0.29461 0.69688
 H2271 H 0.06088 0.23539 0.73217
 H2272 H 0.09353 0.31608 0.66259
 C2273 C 0.90762 0.27204 0.65168
 C2274 C 0.94543 0.28312 0.66923
 C2275 C 0.96422 0.24998 0.64900
 C2276 C 0.92615 0.23905 0.63171
 C2277 C 0.95609 0.22474 0.68305
 C2278 C 0.93670 0.25774 0.70316
 C2279 C 0.89949 0.24638 0.68495
 C2280 C 0.91823 0.21354 0.66536
 H2281 H 0.88770 0.29176 0.63852
 H2282 H 0.95590 0.31206 0.67169
 H2283 H 0.91832 0.23192 0.60279
 H2284 H 0.97605 0.20590 0.69732
 H2285 H 0.94062 0.26535 0.73289
 H2286 H 0.90702 0.18475 0.66369
 C2287 C 0.43663 0.73623 0.20275
 C2288 C 0.44786 0.71319 0.16815
 C2289 C 0.46375 0.74872 0.14927
 C2290 C 0.45296 0.77177 0.18409
 C2291 C 0.42505 0.75683 0.13193
 C2292 C 0.40946 0.72119 0.15024
 C2293 C 0.39865 0.74404 0.18444
 C2294 C 0.41422 0.77976 0.16656
 H2295 H 0.44108 0.72765 0.23214
 H2296 H 0.46022 0.68512 0.17126
 H2297 H 0.47082 0.79237 0.19869
 H2298 H 0.41823 0.76594 0.10323
 H2299 H 0.39156 0.70018 0.13624
 H2300 H 0.40008 0.80728 0.16598
 C2301 C 0.43666 0.26393 0.29807
 C2302 C 0.44761 0.28678 0.33288
 C2303 C 0.46410 0.25129 0.35131
 C2304 C 0.45357 0.22845 0.31629
 C2305 C 0.42561 0.24242 0.36872
 C2306 C 0.40939 0.27801 0.35080
 C2307 C 0.39884 0.25535 0.31637
 C2308 C 0.41501 0.21969 0.33386
 H2309 H 0.44091 0.27289 0.26875
 H2310 H 0.45956 0.31506 0.33014
 H2311 H 0.47168 0.20827 0.30141
 H2312 H 0.41913 0.23295 0.39738
 H2313 H 0.39119 0.29860 0.36508
 H2314 H 0.40130 0.19196 0.33418
 C2315 C 0.93570 0.74327 0.79785
 C2316 C 0.95514 0.77616 0.81805
 C2317 C 0.96396 0.75056 0.85166
 C2318 C 0.94509 0.71755 0.83132
 C2319 C 0.92606 0.76105 0.86965
 C2320 C 0.91744 0.78692 0.83641
 C2321 C 0.89867 0.75418 0.81671
 C2322 C 0.90745 0.72817 0.84955
 H2323 H 0.93926 0.73604 0.76797
 H2324 H 0.97476 0.79528 0.80369
 H2325 H 0.95577 0.68871 0.82837
 H2326 H 0.91866 0.76775 0.89879
 H2327 H 0.90606 0.81561 0.83860
 H2328 H 0.88785 0.70819 0.86277
   
