data_POSCAR
  _audit_creation_date              2014-09-24
  _audit_creation_method            'ToBaCCo'
  _symmetry_space_group_name_H-M    'P1'
  _symmetry_Int_Tables_number       1
  _symmetry_cell_setting            triclinic
  loop_
  _symmetry_equiv_pos_as_xyz
 x,y,z
_cell_length_a 77.3181
_cell_length_b 77.0766
_cell_length_c 77.4131
_cell_angle_alpha 90.041900
_cell_angle_beta 89.990900
_cell_angle_gamma 90.035700
loop_
  _atom_site_label
  _atom_site_type_symbol
  _atom_site_fract_x
  _atom_site_fract_y
  _atom_site_fract_z
C1 C 0.31293 0.31172 -0.01067
 C2 C 0.31270 0.31124 0.00694
 C3 C 0.30037 0.32190 0.01715
 C4 C 0.32504 0.30037 0.01691
 C5 C 0.32406 0.29983 -0.02092
 C6 C 0.30237 0.32442 -0.02053
 C7 C 0.30662 0.33289 0.03018
 C8 C 0.29526 0.34329 0.03962
 C9 C 0.27739 0.34282 0.03630
 C10 C 0.27111 0.33154 0.02346
 C11 C 0.28249 0.32109 0.01405
 C12 C 0.34296 0.30196 0.01443
 C13 C 0.35444 0.29177 0.02396
 C14 C 0.34823 0.27993 0.03632
 C15 C 0.33028 0.27854 0.03892
 C16 C 0.31881 0.28871 0.02935
 C17 C 0.32334 0.28186 -0.01851
 C18 C 0.33429 0.27084 -0.02777
 C19 C 0.34631 0.27743 -0.04000
 C20 C 0.34640 0.29568 -0.04255
 C21 C 0.33545 0.30659 -0.03320
 C22 C 0.29117 0.31861 -0.03356
 C23 C 0.28108 0.33041 -0.04282
 C24 C 0.28208 0.34829 -0.03929
 C25 C 0.29353 0.35409 -0.02640
 C26 C 0.30365 0.34228 -0.01719
 H27 H 0.32036 0.33368 0.03279
 H28 H 0.30051 0.35198 0.04929
 H29 H 0.25739 0.33070 0.02080
 H30 H 0.27738 0.31241 0.00430
 H31 H 0.34805 0.31118 0.00518
 H32 H 0.36820 0.29336 0.02189
 H33 H 0.30503 0.28736 0.03151
 H34 H 0.31421 0.27631 -0.00944
 H35 H 0.33251 0.25711 -0.02566
 H36 H 0.35556 0.30203 -0.05096
 H37 H 0.33625 0.32048 -0.03520
 H38 H 0.29007 0.30489 -0.03638
 H39 H 0.27227 0.32552 -0.05254
 H40 H 0.29483 0.36780 -0.02361
 H41 H 0.31252 0.34707 -0.00746
 H42 H 0.32509 0.26943 0.04821
 C43 C 0.68719 0.68780 -0.00649
 C44 C 0.68721 0.68814 0.01112
 C45 C 0.69962 0.67762 0.02136
 C46 C 0.67454 0.69871 0.02102
 C47 C 0.67594 0.69953 -0.01675
 C48 C 0.69812 0.67542 -0.01638
 C49 C 0.69344 0.66628 0.03411
 C50 C 0.70488 0.65579 0.04335
 C51 C 0.72276 0.65651 0.04008
 C52 C 0.72896 0.66821 0.02759
 C53 C 0.71750 0.67875 0.01840
 C54 C 0.65668 0.69677 0.01831
 C55 C 0.64489 0.70688 0.02757
 C56 C 0.65071 0.71901 0.03985
 C57 C 0.66859 0.72069 0.04274
 C58 C 0.68038 0.71058 0.03346
 C59 C 0.67645 0.71758 -0.01431
 C60 C 0.66542 0.72841 -0.02370
 C61 C 0.65378 0.72139 -0.03580
 C62 C 0.65362 0.70335 -0.03849
 C63 C 0.66464 0.69254 -0.02910
 C64 C 0.70929 0.68160 -0.02926
 C65 C 0.71965 0.67010 -0.03861
 C66 C 0.71896 0.65217 -0.03534
 C67 C 0.70756 0.64599 -0.02258
 C68 C 0.69716 0.65750 -0.01327
 H69 H 0.67969 0.66525 0.03661
 H70 H 0.69969 0.64680 0.05275
 H71 H 0.74268 0.66926 0.02501
 H72 H 0.72256 0.68769 0.00887
 H73 H 0.65190 0.68746 0.00898
 H74 H 0.63121 0.70536 0.02496
 H75 H 0.69409 0.71213 0.03586
 H76 H 0.68528 0.72326 -0.00504
 H77 H 0.66578 0.74224 -0.02128
 H78 H 0.64503 0.69759 -0.04793
 H79 H 0.66416 0.67867 -0.03128
 H80 H 0.71014 0.69537 -0.03190
 H81 H 0.72841 0.67527 -0.04823
 H82 H 0.70649 0.63223 -0.01998
 H83 H 0.68832 0.65243 -0.00366
 H84 H 0.67346 0.72970 0.05231
 C85 C 0.68770 0.31306 1.00910
 C86 C 0.68790 0.31292 0.99148
 C87 C 0.69868 0.32529 0.98148
 C88 C 0.67700 0.30071 0.98132
 C89 C 0.67523 0.30236 1.01907
 C90 C 0.69965 0.32422 1.01929
 C91 C 0.69719 0.34326 0.98408
 C92 C 0.70754 0.35477 0.97473
 C93 C 0.71941 0.34853 0.96245
 C94 C 0.72062 0.33055 0.95964
 C95 C 0.71030 0.31905 0.96903
 C96 C 0.66586 0.30717 0.96855
 C97 C 0.65523 0.29594 0.95918
 C98 C 0.65558 0.27798 0.96231
 C99 C 0.66698 0.27149 0.97490
 C100 C 0.67767 0.28274 0.98424
 C101 C 0.68127 0.29094 1.03179
 C102 C 0.66968 0.28068 1.04113
 C103 C 0.65180 0.28176 1.03799
 C104 C 0.64576 0.29344 1.02542
 C105 C 0.65737 0.30372 1.01612
 C106 C 0.71757 0.32361 1.01669
 C107 C 0.72860 0.33451 1.02604
 C108 C 0.72202 0.34624 1.03849
 C109 C 0.70392 0.34638 1.04121
 C110 C 0.69297 0.33552 1.03178
 H111 H 0.68801 0.34835 0.99334
 H112 H 0.70609 0.36856 0.97694
 H113 H 0.72975 0.32535 0.95039
 H114 H 0.71156 0.30523 0.96679
 H115 H 0.66517 0.32098 0.96608
 H116 H 0.64646 0.30137 0.94972
 H117 H 0.68643 0.27744 0.99379
 H118 H 0.69500 0.28978 1.03430
 H119 H 0.67472 0.27169 1.05062
 H120 H 0.63205 0.29479 1.02294
 H121 H 0.65243 0.31276 1.00662
 H122 H 0.72305 0.31462 1.00743
 H123 H 0.74233 0.33313 1.02382
 H124 H 0.69788 0.35541 1.05002
 H125 H 0.67914 0.33623 1.03395
 H126 H 0.66775 0.25769 0.97741
 C127 C 0.31138 0.68764 1.00862
 C128 C 0.31176 0.68822 0.99102
 C129 C 0.29979 0.67762 0.98033
 C130 C 0.32440 0.69922 0.98154
 C131 C 0.32212 0.69948 1.01931
 C132 C 0.30045 0.67490 1.01808
 C133 C 0.30647 0.66667 0.96750
 C134 C 0.29543 0.65630 0.95764
 C135 C 0.27746 0.65677 0.96036
 C136 C 0.27076 0.66803 0.97299
 C137 C 0.28182 0.67844 0.98282
 C138 C 0.34223 0.69774 0.98463
 C139 C 0.35399 0.70809 0.97557
 C140 C 0.34815 0.71999 0.96310
 C141 C 0.33029 0.72127 0.95989
 C142 C 0.31855 0.71094 0.96898
 C143 C 0.32140 0.71750 1.01703
 C144 C 0.33196 0.72847 1.02680
 C145 C 0.34344 0.72173 1.03935
 C146 C 0.34364 0.70354 1.04179
 C147 C 0.33312 0.69264 1.03193
 C148 C 0.28900 0.68064 1.03086
 C149 C 0.27874 0.66884 1.03994
 C150 C 0.27971 0.65081 1.03659
 C151 C 0.29149 0.64522 1.02375
 C152 C 0.30176 0.65708 1.01474
 H153 H 0.32030 0.66589 0.96535
 H154 H 0.30099 0.64763 0.94813
 H155 H 0.25695 0.66887 0.97518
 H156 H 0.27638 0.68709 0.99242
 H157 H 0.34705 0.68849 0.99398
 H158 H 0.36767 0.70658 0.97811
 H159 H 0.30485 0.71222 0.96635
 H160 H 0.31262 0.72309 1.00766
 H161 H 0.33053 0.74227 1.02481
 H162 H 0.35249 0.69740 1.05068
 H163 H 0.33389 0.67874 1.03386
 H164 H 0.28779 0.69437 1.03361
 H165 H 0.26960 0.67414 1.04908
 H166 H 0.29350 0.63161 1.02101
 H167 H 0.31091 0.65232 1.00526
 H168 H 0.32537 0.73042 0.95050
 C169 C -0.00938 0.31259 0.31280
 C170 C 0.00825 0.31216 0.31310
 C171 C 0.01783 0.30145 0.32585
 C172 C 0.01884 0.32272 0.30099
 C173 C -0.01896 0.32502 0.30170
 C174 C -0.01997 0.30096 0.32390
 C175 C 0.01488 0.30337 0.34365
 C176 C 0.02386 0.29313 0.35552
 C177 C 0.03609 0.28089 0.34983
 C178 C 0.03922 0.27923 0.33201
 C179 C 0.03023 0.28948 0.32015
 C180 C 0.03155 0.33393 0.30752
 C181 C 0.04119 0.34439 0.29637
 C182 C 0.03838 0.34377 0.27844
 C183 C 0.02590 0.33223 0.27189
 C184 C 0.01629 0.32172 0.28305
 C185 C -0.03156 0.31893 0.29022
 C186 C -0.04056 0.33045 0.27960
 C187 C -0.03729 0.34851 0.28021
 C188 C -0.02470 0.35445 0.29210
 C189 C -0.01579 0.34288 0.30274
 C190 C -0.01771 0.28293 0.32353
 C191 C -0.02739 0.27219 0.33441
 C192 C -0.03976 0.27920 0.34596
 C193 C -0.04219 0.29739 0.34578
 C194 C -0.03248 0.30805 0.33489
 H195 H 0.00559 0.31277 0.34833
 H196 H 0.02108 0.29463 0.36915
 H197 H 0.04877 0.27014 0.32724
 H198 H 0.03281 0.28795 0.30648
 H199 H 0.03374 0.33487 0.32131
 H200 H 0.05058 0.35327 0.30183
 H201 H 0.00680 0.31288 0.27772
 H202 H -0.03419 0.30516 0.28923
 H203 H -0.04953 0.32489 0.27043
 H204 H -0.02209 0.36812 0.29387
 H205 H -0.00645 0.34789 0.31190
 H206 H -0.00825 0.27716 0.31496
 H207 H -0.02446 0.25849 0.33416
 H208 H -0.05198 0.30359 0.35360
 H209 H -0.03463 0.32193 0.33516
 H210 H 0.02364 0.33125 0.25812
 C211 C -0.01025 0.68890 0.68785
 C212 C 0.00739 0.68870 0.68802
 C213 C 0.01772 0.70074 0.67716
 C214 C 0.01722 0.67613 0.69875
 C215 C -0.02058 0.67804 0.69989
 C216 C -0.02009 0.69967 0.67533
 C217 C 0.03036 0.69410 0.66597
 C218 C 0.03984 0.70520 0.65532
 C219 C 0.03693 0.72320 0.65572
 C220 C 0.02450 0.72987 0.66720
 C221 C 0.01506 0.71875 0.67790
 C222 C 0.01423 0.65822 0.69732
 C223 C 0.02352 0.64652 0.70751
 C224 C 0.03612 0.65251 0.71918
 C225 C 0.03927 0.67044 0.72037
 C226 C 0.02995 0.68212 0.71020
 C227 C -0.01788 0.67879 0.71778
 C228 C -0.02732 0.66811 0.72891
 C229 C -0.03994 0.65648 0.72248
 C230 C -0.04280 0.65625 0.70443
 C231 C -0.03328 0.66689 0.69336
 C232 C -0.03281 0.71112 0.68125
 C233 C -0.04221 0.72127 0.66963
 C234 C -0.03922 0.72019 0.65162
 C235 C -0.02647 0.70837 0.64585
 C236 C -0.01715 0.69821 0.65753
 H237 H 0.03264 0.68025 0.66523
 H238 H 0.04918 0.69965 0.64648
 H239 H 0.02218 0.74370 0.66800
 H240 H 0.00562 0.72417 0.68672
 H241 H 0.00475 0.65330 0.68826
 H242 H 0.02103 0.63277 0.70607
 H243 H 0.03250 0.69589 0.71142
 H244 H -0.00845 0.68769 0.72313
 H245 H -0.02500 0.66956 0.74260
 H246 H -0.05177 0.64728 0.69851
 H247 H -0.03554 0.66609 0.67957
 H248 H -0.03526 0.71244 0.69497
 H249 H -0.05128 0.73045 0.67504
 H250 H -0.02403 0.70626 0.63226
 H251 H -0.00773 0.68904 0.65265
 H252 H 0.04878 0.67546 0.72935
 C253 C 1.01180 0.68637 0.31245
 C254 C 0.99416 0.68646 0.31239
 C255 C 0.98411 0.69721 0.32476
 C256 C 0.98400 0.67551 0.30024
 C257 C 1.02182 0.67389 0.30178
 C258 C 1.02195 0.69844 0.32352
 C259 C 0.98678 0.69573 0.34264
 C260 C 0.97732 0.70598 0.35415
 C261 C 0.96487 0.71775 0.34800
 C262 C 0.96204 0.71897 0.33010
 C263 C 0.97153 0.70875 0.31860
 C264 C 0.97124 0.66431 0.30669
 C265 C 0.96180 0.65370 0.29550
 C266 C 0.96486 0.65415 0.27760
 C267 C 0.97746 0.66560 0.27113
 C268 C 0.98687 0.67626 0.28234
 C269 C 1.03455 0.67996 0.29044
 C270 C 1.04393 0.66840 0.28018
 C271 C 1.04090 0.65031 0.28103
 C272 C 1.02821 0.64438 0.29281
 C273 C 1.01891 0.65600 0.30308
 C274 C 1.01921 0.71640 0.32289
 C275 C 1.02842 0.72754 0.33379
 C276 C 1.04087 0.72105 0.34553
 C277 C 1.04378 0.70292 0.34564
 C278 C 1.03448 0.69185 0.33478
 H279 H 0.99615 0.68660 0.34767
 H280 H 0.97956 0.70452 0.36788
 H281 H 0.95267 0.72803 0.32496
 H282 H 0.96924 0.71000 0.30486
 H283 H 0.96881 0.66355 0.32045
 H284 H 0.95234 0.64488 0.30090
 H285 H 0.99640 0.68509 0.27707
 H286 H 1.03698 0.69376 0.28927
 H287 H 1.05298 0.67393 0.27108
 H288 H 1.02577 0.63071 0.29475
 H289 H 1.00948 0.65101 0.31215
 H290 H 1.00992 0.72181 0.31393
 H291 H 1.02608 0.74129 0.33242
 H292 H 1.05261 0.69694 0.35466
 H293 H 1.03677 0.67800 0.33550
 H294 H 0.97991 0.66645 0.25739
 C295 C 1.00786 0.31304 0.68766
 C296 C 0.99023 0.31310 0.68739
 C297 C 0.98033 0.30252 0.67476
 C298 C 0.97996 0.32409 0.69940
 C299 C 1.01782 0.32530 0.69864
 C300 C 1.01814 0.30104 0.67666
 C301 C 0.98337 0.30409 0.65695
 C302 C 0.97416 0.29389 0.64519
 C303 C 0.96159 0.28207 0.65102
 C304 C 0.95835 0.28079 0.66885
 C305 C 0.96759 0.29097 0.68059
 C306 C 0.96751 0.33552 0.69278
 C307 C 0.95812 0.34631 0.70383
 C308 C 0.96091 0.34580 0.72177
 C309 C 0.97315 0.33408 0.72842
 C310 C 0.98250 0.32324 0.71735
 C311 C 1.03033 0.31893 0.71011
 C312 C 1.03987 0.33033 0.72041
 C313 C 1.03716 0.34833 0.71935
 C314 C 1.02474 0.35469 0.70769
 C315 C 1.01523 0.34328 0.69736
 C316 C 1.01534 0.28308 0.67708
 C317 C 1.02491 0.27200 0.66644
 C318 C 1.03778 0.27856 0.65519
 C319 C 1.04064 0.29669 0.65521
 C320 C 1.03100 0.30770 0.66580
 H321 H 0.99288 0.31323 0.65216
 H322 H 0.97672 0.29540 0.63153
 H323 H 0.94886 0.27170 0.67375
 H324 H 0.96501 0.28964 0.69428
 H325 H 0.96533 0.33635 0.67898
 H326 H 0.94894 0.35532 0.69830
 H327 H 0.99179 0.31425 0.72276
 H328 H 1.03256 0.30511 0.71121
 H329 H 1.04922 0.32503 0.72938
 H330 H 1.02258 0.36850 0.70635
 H331 H 1.00592 0.34847 0.68829
 H332 H 1.00577 0.27761 0.68574
 H333 H 1.02253 0.25824 0.66767
 H334 H 1.04977 0.30272 0.64651
 H335 H 1.03332 0.32155 0.66524
 H336 H 0.97537 0.33318 0.74220
 C337 C 0.31146 -0.00749 0.31356
 C338 C 0.31166 0.01020 0.31332
 C339 C 0.32421 0.02000 0.30256
 C340 C 0.29964 0.02064 0.32412
 C341 C 0.30062 -0.01730 0.32604
 C342 C 0.32239 -0.01794 0.30165
 C343 C 0.34206 0.01706 0.30408
 C344 C 0.35374 0.02624 0.29379
 C345 C 0.34779 0.03869 0.28192
 C346 C 0.32992 0.04181 0.28066
 C347 C 0.31825 0.03259 0.29093
 C348 C 0.30626 0.03341 0.33521
 C349 C 0.29519 0.04304 0.34576
 C350 C 0.27724 0.04016 0.34536
 C351 C 0.27059 0.02758 0.33398
 C352 C 0.28168 0.01798 0.32338
 C353 C 0.28911 -0.03001 0.32005
 C354 C 0.27881 -0.03928 0.33165
 C355 C 0.27994 -0.03609 0.34950
 C356 C 0.29168 -0.02351 0.35549
 C357 C 0.30200 -0.01428 0.34388
 C358 C 0.32180 -0.01536 0.28375
 C359 C 0.33253 -0.02490 0.27275
 C360 C 0.34406 -0.03752 0.27935
 C361 C 0.34415 -0.04024 0.29742
 C362 C 0.33346 -0.03062 0.30835
 H363 H 0.34694 0.00768 0.31327
 H364 H 0.36744 0.02379 0.29528
 H365 H 0.32493 0.05119 0.27153
 H366 H 0.30453 0.03508 0.28963
 H367 H 0.32007 0.03569 0.33595
 H368 H 0.30073 0.05249 0.35452
 H369 H 0.27627 0.00844 0.31464
 H370 H 0.28793 -0.03257 0.30634
 H371 H 0.26978 -0.04876 0.32663
 H372 H 0.29307 -0.02100 0.36919
 H373 H 0.31111 -0.00481 0.34879
 H374 H 0.31298 -0.00595 0.27826
 H375 H 0.33119 -0.02268 0.25904
 H376 H 0.35304 -0.04919 0.30347
 H377 H 0.33415 -0.03277 0.32216
 H378 H 0.25680 0.02526 0.33318
 C379 C 0.68758 -0.00986 0.68617
 C380 C 0.68751 0.00783 0.68659
 C381 C 0.67516 0.01761 0.69760
 C382 C 0.69952 0.01830 0.67579
 C383 C 0.69822 -0.01963 0.67349
 C384 C 0.67668 -0.02032 0.69809
 C385 C 0.65727 0.01482 0.69625
 C386 C 0.64579 0.02393 0.70682
 C387 C 0.65197 0.03617 0.71881
 C388 C 0.66988 0.03917 0.71989
 C389 C 0.68135 0.03002 0.70934
 C390 C 0.69289 0.03125 0.66493
 C391 C 0.70394 0.04094 0.65441
 C392 C 0.72187 0.03794 0.65461
 C393 C 0.72853 0.02517 0.66574
 C394 C 0.71746 0.01552 0.67631
 C395 C 0.70966 -0.03249 0.67925
 C396 C 0.71978 -0.04173 0.66747
 C397 C 0.71855 -0.03836 0.64966
 C398 C 0.70688 -0.02563 0.64390
 C399 C 0.69673 -0.01643 0.65570
 C400 C 0.67750 -0.01790 0.71601
 C401 C 0.66676 -0.02742 0.72703
 C402 C 0.65500 -0.03985 0.72044
 C403 C 0.65470 -0.04243 0.70234
 C404 C 0.66540 -0.03283 0.69139
 H405 H 0.65221 0.00558 0.68698
 H406 H 0.63205 0.02157 0.70546
 H407 H 0.67505 0.04839 0.72910
 H408 H 0.69511 0.03241 0.71051
 H409 H 0.67910 0.03363 0.66435
 H410 H 0.69839 0.05053 0.64584
 H411 H 0.72288 0.00584 0.68488
 H412 H 0.71092 -0.03520 0.69292
 H413 H 0.72876 -0.05133 0.67231
 H414 H 0.70541 -0.02297 0.63025
 H415 H 0.68768 -0.00683 0.65096
 H416 H 0.68649 -0.00863 0.72149
 H417 H 0.66827 -0.02532 0.74075
 H418 H 0.64564 -0.05123 0.69630
 H419 H 0.66454 -0.03487 0.67757
 H420 H 0.74230 0.02276 0.66639
 C421 C 0.31373 1.00872 0.68734
 C422 C 0.31385 0.99103 0.68736
 C423 C 0.32626 0.98102 0.69808
 C424 C 0.30187 0.98080 0.67630
 C425 C 0.30303 1.01869 0.67488
 C426 C 0.32458 1.01899 0.69948
 C427 C 0.34414 0.98396 0.69681
 C428 C 0.35568 0.97458 0.70707
 C429 C 0.34958 0.96193 0.71864
 C430 C 0.33169 0.95879 0.71964
 C431 C 0.32016 0.96821 0.70940
 C432 C 0.30853 0.96838 0.66486
 C433 C 0.29750 0.95913 0.65392
 C434 C 0.27956 0.96204 0.65430
 C435 C 0.27286 0.97418 0.66611
 C436 C 0.28391 0.98342 0.67705
 C437 C 0.29131 1.03116 0.68093
 C438 C 0.28099 1.04042 0.66934
 C439 C 0.28232 1.03748 0.65146
 C440 C 0.29434 1.02520 0.64542
 C441 C 0.30465 1.01595 0.65702
 C442 C 0.32384 1.01613 0.71738
 C443 C 0.33452 1.02552 0.72857
 C444 C 0.34600 1.03810 0.72208
 C445 C 0.34640 1.04119 0.70419
 C446 C 0.33576 1.03177 0.69302
 H447 H 0.34915 0.99351 0.68784
 H448 H 0.36941 0.97706 0.70577
 H449 H 0.32658 0.94925 0.72854
 H450 H 0.30641 0.96569 0.71049
 H451 H 0.32233 0.96606 0.66418
 H452 H 0.30302 0.94965 0.64520
 H453 H 0.27848 0.99276 0.68600
 H454 H 0.29001 1.03358 0.69465
 H455 H 0.27207 1.05001 0.67436
 H456 H 0.29559 1.02255 0.63174
 H457 H 0.31385 1.00659 0.65208
 H458 H 0.31503 1.00659 0.72267
 H459 H 0.33371 1.02305 0.74231
 H460 H 0.35523 1.05065 0.69877
 H461 H 0.33651 1.03420 0.67926
 H462 H 0.25911 0.97678 0.66664
 C463 C 0.68777 1.00840 0.31159
 C464 C 0.68756 0.99072 0.31112
 C465 C 0.67496 0.98103 0.30031
 C466 C 0.69960 0.98015 0.32176
 C467 C 0.69862 1.01805 0.32420
 C468 C 0.67684 1.01899 0.29984
 C469 C 0.65711 0.98397 0.30193
 C470 C 0.64538 0.97479 0.29169
 C471 C 0.65126 0.96233 0.27978
 C472 C 0.66913 0.95924 0.27838
 C473 C 0.68085 0.96846 0.28860
 C474 C 0.69300 0.96729 0.33273
 C475 C 0.70409 0.95755 0.34314
 C476 C 0.72205 0.96043 0.34270
 C477 C 0.72867 0.97310 0.33144
 C478 C 0.71756 0.98280 0.32098
 C479 C 0.71012 1.03079 0.31839
 C480 C 0.72045 1.03991 0.33009
 C481 C 0.71951 1.03661 0.34804
 C482 C 0.70762 1.02385 0.35370
 C483 C 0.69728 1.01482 0.34195
 C484 C 0.67743 1.01659 0.28186
 C485 C 0.66673 1.02632 0.27101
 C486 C 0.65538 1.03877 0.27793
 C487 C 0.65511 1.04139 0.29590
 C488 C 0.66577 1.03163 0.30673
 H489 H 0.65228 0.99333 0.31119
 H490 H 0.63168 0.97723 0.29328
 H491 H 0.67406 0.94985 0.26921
 H492 H 0.69456 0.96596 0.28723
 H493 H 0.67919 0.96502 0.33350
 H494 H 0.69858 0.94803 0.35182
 H495 H 0.72295 0.99242 0.31232
 H496 H 0.71135 1.03345 0.30471
 H497 H 0.72966 1.04900 0.32476
 H498 H 0.70562 1.02120 0.36726
 H499 H 0.68809 1.00536 0.34674
 H500 H 0.68615 1.00715 0.27624
 H501 H 0.66743 1.02421 0.25720
 H502 H 0.64638 1.05074 0.30164
 H503 H 0.66514 1.03371 0.32056
 H504 H 0.74246 0.97541 0.33061
 O505 O 0.86629 0.84109 0.48152
 O506 O 0.84165 0.86544 0.51425
 O507 O 0.86544 0.84147 0.51508
 O508 O 0.84259 0.86510 0.48064
 O509 O 0.82235 0.84492 0.48031
 O510 O 0.84520 0.82129 0.51474
 O511 O 0.82143 0.84525 0.51391
 O512 O 0.84603 0.82093 0.48120
 Cu513 Cu 0.85601 0.85531 0.49792
 Cu514 Cu 0.83172 0.83109 0.49752
 C515 C 0.86040 0.82680 0.47580
 C516 C 0.82728 0.85953 0.51965
 C517 C 0.85929 0.82727 0.52074
 C518 C 0.82854 0.85907 0.47459
 O519 O 0.15694 0.13292 0.51767
 O520 O 0.13203 0.15738 0.48521
 O521 O 0.15598 0.13361 0.48407
 O522 O 0.13279 0.15651 0.51881
 O523 O 0.15277 0.17694 0.51878
 O524 O 0.17598 0.15402 0.48404
 O525 O 0.15206 0.17777 0.48521
 O526 O 0.17689 0.15338 0.51761
 Cu527 Cu 0.14243 0.14305 0.50145
 Cu528 Cu 0.16643 0.16757 0.50141
 C529 C 0.17122 0.13896 0.52317
 C530 C 0.13778 0.17180 0.47969
 C531 C 0.16997 0.13986 0.47813
 C532 C 0.13877 0.17068 0.52470
 O533 O 0.13126 0.84468 0.51751
 O534 O 0.15585 0.86839 0.48430
 O535 O 0.13180 0.84463 0.48384
 O536 O 0.15531 0.86837 0.51790
 O537 O 0.17527 0.84794 0.51818
 O538 O 0.15182 0.82427 0.48417
 O539 O 0.17583 0.84799 0.48463
 O540 O 0.15126 0.82429 0.51779
 Cu541 Cu 0.14154 0.85855 0.50084
 Cu542 Cu 0.16553 0.83407 0.50121
 C543 C 0.13707 0.83043 0.52336
 C544 C 0.17010 0.86229 0.47884
 C545 C 0.13778 0.83036 0.47818
 C546 C 0.16935 0.86223 0.52384
 O547 O 0.86646 0.15754 0.51594
 O548 O 0.84214 0.13268 0.48332
 O549 O 0.86583 0.15675 0.48233
 O550 O 0.84290 0.13335 0.51693
 O551 O 0.82255 0.15339 0.51693
 O552 O 0.84548 0.17679 0.48235
 O553 O 0.82182 0.15275 0.48335
 O554 O 0.84609 0.17756 0.51592
 Cu555 Cu 0.85637 0.14307 0.49963
 Cu556 Cu 0.83195 0.16713 0.49963
 C557 C 0.86045 0.17184 0.52148
 C558 C 0.82778 0.13845 0.47778
 C559 C 0.85961 0.17081 0.47645
 C560 C 0.82877 0.13933 0.52282
 O561 O 0.48422 0.86654 0.84283
 O562 O 0.51790 0.84333 0.86723
 O563 O 0.51788 0.86688 0.84313
 O564 O 0.48425 0.84290 0.86700
 O565 O 0.48464 0.82242 0.84710
 O566 O 0.51824 0.84635 0.82327
 O567 O 0.51826 0.82283 0.84734
 O568 O 0.48461 0.84603 0.82296
 Cu569 Cu 0.50100 0.85697 0.85704
 Cu570 Cu 0.50145 0.83236 0.83318
 C571 C 0.47871 0.86031 0.82866
 C572 C 0.52384 0.82909 0.86147
 C573 C 0.52382 0.86071 0.82911
 C574 C 0.47875 0.82850 0.86118
 O575 O 0.51661 0.15841 0.13435
 O576 O 0.48340 0.13429 0.15859
 O577 O 0.48300 0.15819 0.13473
 O578 O 0.51706 0.13443 0.15804
 O579 O 0.51723 0.15465 0.17822
 O580 O 0.48318 0.17842 0.15489
 O581 O 0.48359 0.15455 0.17873
 O582 O 0.51677 0.17861 0.15455
 Cu583 Cu 0.49999 0.14429 0.14441
 Cu584 Cu 0.50020 0.16857 0.16863
 C585 C 0.52234 0.17268 0.14028
 C586 C 0.47785 0.14027 0.17285
 C587 C 0.47734 0.17243 0.14075
 C588 C 0.52298 0.14046 0.17213
 O589 O 0.48444 0.15492 0.86870
 O590 O 0.51777 0.13101 0.84437
 O591 O 0.51816 0.15473 0.86845
 O592 O 0.48412 0.13115 0.84477
 O593 O 0.48406 0.15154 0.82479
 O594 O 0.51807 0.17510 0.84846
 O595 O 0.51767 0.15142 0.82442
 O596 O 0.48441 0.17527 0.84868
 Cu597 Cu 0.50115 0.14092 0.85859
 Cu598 Cu 0.50106 0.16538 0.83460
 C599 C 0.47870 0.16919 0.86283
 C600 C 0.52336 0.13709 0.83017
 C601 C 0.52392 0.16898 0.86253
 C602 C 0.47827 0.13730 0.83071
 O603 O 0.48057 0.84321 0.13398
 O604 O 0.51444 0.86672 0.15789
 O605 O 0.51423 0.84259 0.13422
 O606 O 0.48078 0.86723 0.15764
 O607 O 0.48032 0.84711 0.17788
 O608 O 0.51373 0.82252 0.15450
 O609 O 0.51394 0.84662 0.17814
 O610 O 0.48010 0.82312 0.15425
 Cu611 Cu 0.49758 0.85695 0.14390
 Cu612 Cu 0.49699 0.83283 0.16822
 C613 C 0.47453 0.82913 0.14003
 C614 C 0.51993 0.86074 0.17216
 C615 C 0.51966 0.82829 0.14032
 C616 C 0.47482 0.86138 0.17179
 O617 O 0.84321 0.48413 0.86742
 O618 O 0.86715 0.51825 0.84423
 O619 O 0.84303 0.51784 0.86778
 O620 O 0.86732 0.48442 0.84388
 O621 O 0.84736 0.48452 0.82353
 O622 O 0.82309 0.51790 0.84740
 O623 O 0.84718 0.51831 0.82389
 O624 O 0.82328 0.48423 0.84704
 Cu625 Cu 0.85720 0.50115 0.85785
 Cu626 Cu 0.83325 0.50125 0.83340
 C627 C 0.82909 0.47840 0.86124
 C628 C 0.86126 0.52412 0.83008
 C629 C 0.82884 0.52351 0.86173
 C630 C 0.86149 0.47873 0.82961
 O631 O 0.15639 0.48083 0.13174
 O632 O 0.13379 0.51490 0.15632
 O633 O 0.15727 0.51459 0.13205
 O634 O 0.13298 0.48114 0.15592
 O635 O 0.15349 0.48048 0.17571
 O636 O 0.17775 0.51389 0.15187
 O637 O 0.15431 0.51420 0.17610
 O638 O 0.17687 0.48017 0.15156
 Cu639 Cu 0.14305 0.49796 0.14202
 Cu640 Cu 0.16766 0.49714 0.16579
 C641 C 0.17051 0.47466 0.13745
 C642 C 0.14014 0.52032 0.17047
 C643 C 0.17172 0.51991 0.13783
 C644 C 0.13909 0.47508 0.16991
 O645 O 0.86944 0.48351 0.15515
 O646 O 0.84584 0.51722 0.13100
 O647 O 0.86971 0.51726 0.15476
 O648 O 0.84564 0.48340 0.13123
 O649 O 0.82546 0.48374 0.15137
 O650 O 0.84952 0.51758 0.17489
 O651 O 0.82569 0.51751 0.15116
 O652 O 0.84922 0.48387 0.17524
 Cu653 Cu 0.85967 0.50030 0.14100
 Cu654 Cu 0.83545 0.50069 0.16517
 C655 C 0.86340 0.47799 0.16939
 C656 C 0.83173 0.52315 0.13698
 C657 C 0.86375 0.52320 0.16888
 C658 C 0.83141 0.47779 0.13725
 O659 O 0.15761 0.51797 0.86506
 O660 O 0.13472 0.48336 0.84157
 O661 O 0.15863 0.48420 0.86535
 O662 O 0.13386 0.51706 0.84121
 O663 O 0.15406 0.51740 0.82109
 O664 O 0.17877 0.48459 0.84519
 O665 O 0.15489 0.48373 0.82142
 O666 O 0.17778 0.51833 0.84492
 Cu667 Cu 0.14419 0.50060 0.85533
 Cu668 Cu 0.16841 0.50103 0.83115
 C669 C 0.17162 0.52408 0.85902
 C670 C 0.14082 0.47770 0.82741
 C671 C 0.17298 0.47881 0.85942
 C672 C 0.13970 0.52281 0.82698
 C673 C 0.24111 0.37430 0.04664
 C674 C 0.24365 0.37700 0.06434
 C675 C 0.25690 0.36820 0.07296
 C676 C 0.26773 0.35689 0.06389
 C677 C 0.26543 0.35425 0.04606
 C678 C 0.25192 0.36297 0.03754
 C679 C 0.23304 0.38919 0.07359
 C680 C 0.22444 0.39957 0.08146
 C681 C 0.21472 0.41189 0.09080
 C682 C 0.20668 0.42254 0.09889
 C683 C 0.19739 0.43539 0.10866
 C684 C 0.20411 0.44138 0.12435
 C685 C 0.19533 0.45410 0.13376
 C686 C 0.17968 0.46102 0.12758
 C687 C 0.17297 0.45486 0.11182
 C688 C 0.18179 0.44213 0.10242
 H689 H 0.23093 0.38111 0.03983
 H690 H 0.25897 0.37019 0.08666
 H691 H 0.27787 0.35019 0.07084
 H692 H 0.24997 0.36136 0.02378
 H693 H 0.21619 0.43626 0.12928
 H694 H 0.20084 0.45855 0.14584
 H695 H 0.16096 0.45992 0.10670
 H696 H 0.17649 0.43760 0.09028
 C697 C 0.74342 0.62999 0.07581
 C698 C 0.75674 0.62159 0.06687
 C699 C 0.75926 0.62495 0.04928
 C700 C 0.74837 0.63651 0.04061
 C701 C 0.73479 0.64484 0.04944
 C702 C 0.73251 0.64154 0.06716
 C703 C 0.76748 0.60918 0.07567
 C704 C 0.77621 0.59864 0.08315
 C705 C 0.78613 0.58614 0.09203
 C706 C 0.79436 0.57536 0.09973
 C707 C 0.80389 0.56239 0.10910
 C708 C 0.81944 0.55587 0.10250
 C709 C 0.82855 0.54312 0.11157
 C710 C 0.82219 0.53672 0.12736
 C711 C 0.80656 0.54339 0.13390
 C712 C 0.79749 0.55613 0.12481
 H713 H 0.74137 0.62750 0.08943
 H714 H 0.76949 0.61846 0.04223
 H715 H 0.75031 0.63862 0.02692
 H716 H 0.72231 0.64791 0.07435
 H717 H 0.82449 0.56062 0.09033
 H718 H 0.84054 0.53826 0.10619
 H719 H 0.80131 0.53876 0.14601
 H720 H 0.78545 0.56107 0.13003
 C721 C 0.74404 0.36965 0.92562
 C722 C 0.75154 0.38390 0.93395
 C723 C 0.74858 0.38661 0.95158
 C724 C 0.73812 0.37511 0.96086
 C725 C 0.73050 0.36075 0.95260
 C726 C 0.73359 0.35813 0.93488
 C727 C 0.76218 0.39582 0.92438
 C728 C 0.77101 0.40586 0.91635
 C729 C 0.78123 0.41769 0.90693
 C730 C 0.78984 0.42790 0.89886
 C731 C 0.79995 0.44022 0.88923
 C732 C 0.81566 0.44632 0.89585
 C733 C 0.82526 0.45862 0.88667
 C734 C 0.81923 0.46499 0.87074
 C735 C 0.80349 0.45866 0.86413
 C736 C 0.79392 0.44636 0.87333
 H737 H 0.74620 0.36748 0.91196
 H738 H 0.75436 0.39758 0.95816
 H739 H 0.73617 0.37734 0.97453
 H740 H 0.72773 0.34732 0.92812
 H741 H 0.82043 0.44165 0.90816
 H742 H 0.83731 0.46323 0.89212
 H743 H 0.79848 0.46330 0.85192
 H744 H 0.78176 0.44174 0.86810
 C745 C 0.25816 0.63131 0.92308
 C746 C 0.24461 0.62254 0.93129
 C747 C 0.24150 0.62529 0.94889
 C748 C 0.25202 0.63663 0.95831
 C749 C 0.26582 0.64533 0.95022
 C750 C 0.26870 0.64264 0.93247
 C751 C 0.23426 0.61035 0.92175
 C752 C 0.22581 0.59994 0.91375
 C753 C 0.21618 0.58757 0.90438
 C754 C 0.20814 0.57685 0.89638
 C755 C 0.19876 0.56388 0.88683
 C756 C 0.20533 0.55767 0.87117
 C757 C 0.19646 0.54478 0.86205
 C758 C 0.18087 0.53793 0.86852
 C759 C 0.17432 0.54435 0.88424
 C760 C 0.18322 0.55724 0.89333
 H761 H 0.26067 0.62929 0.90946
 H762 H 0.23109 0.61850 0.95538
 H763 H 0.24962 0.63826 0.97199
 H764 H 0.27909 0.64932 0.92585
 H765 H 0.21736 0.56271 0.86604
 H766 H 0.20185 0.54013 0.85000
 H767 H 0.16236 0.53936 0.88956
 H768 H 0.17804 0.56195 0.90546
 C769 C 0.06071 0.26667 0.38980
 C770 C 0.06369 0.24913 0.38619
 C771 C 0.05761 0.24195 0.37073
 C772 C 0.04861 0.25226 0.35892
 C773 C 0.04557 0.26991 0.36242
 C774 C 0.05170 0.27700 0.37801
 C775 C 0.07311 0.23857 0.39827
 C776 C 0.08108 0.22980 0.40840
 C777 C 0.09052 0.21965 0.42027
 C778 C 0.09867 0.21111 0.43045
 C779 C 0.10854 0.20110 0.44265
 C780 C 0.10225 0.18516 0.44863
 C781 C 0.11179 0.17555 0.46063
 C782 C 0.12775 0.18179 0.46680
 C783 C 0.13397 0.19780 0.46065
 C784 C 0.12442 0.20737 0.44866
 H785 H 0.06541 0.27238 0.40170
 H786 H 0.05982 0.22838 0.36782
 H787 H 0.04385 0.24637 0.34713
 H788 H 0.04976 0.29059 0.38098
 H789 H 0.08997 0.18019 0.44406
 H790 H 0.10664 0.16329 0.46511
 H791 H 0.14619 0.20298 0.46513
 H792 H 0.12940 0.21970 0.44412
 C793 C 0.04724 0.75919 0.62390
 C794 C 0.06483 0.75626 0.62077
 C795 C 0.07339 0.74280 0.62935
 C796 C 0.06438 0.73218 0.64088
 C797 C 0.04665 0.73489 0.64398
 C798 C 0.03820 0.74859 0.63546
 C799 C 0.07402 0.76675 0.60844
 C800 C 0.08180 0.77530 0.59798
 C801 C 0.09100 0.78506 0.58561
 C802 C 0.09896 0.79318 0.57494
 C803 C 0.10856 0.80265 0.56211
 C804 C 0.12424 0.79606 0.55594
 C805 C 0.13354 0.80511 0.54335
 C806 C 0.12725 0.82089 0.53675
 C807 C 0.11147 0.82744 0.54306
 C808 C 0.10219 0.81835 0.55566
 H809 H 0.04047 0.76953 0.61727
 H810 H 0.08700 0.74043 0.62703
 H811 H 0.07128 0.72188 0.64742
 H812 H 0.02452 0.75086 0.63741
 H813 H 0.12928 0.78391 0.56084
 H814 H 0.14563 0.79972 0.53878
 H815 H 0.10627 0.83955 0.53825
 H816 H 0.09005 0.82356 0.56034
 C817 C 0.95351 0.74669 0.38603
 C818 C 0.93582 0.74943 0.38331
 C819 C 0.92763 0.74183 0.36908
 C820 C 0.93706 0.73152 0.35759
 C821 C 0.95484 0.72868 0.36020
 C822 C 0.96297 0.73638 0.37456
 C823 C 0.92606 0.75995 0.39517
 C824 C 0.91782 0.76869 0.40512
 C825 C 0.90811 0.77882 0.41679
 C826 C 0.89977 0.78738 0.42682
 C827 C 0.88977 0.79746 0.43886
 C828 C 0.87375 0.79131 0.44462
 C829 C 0.86413 0.80091 0.45654
 C830 C 0.87042 0.81683 0.46288
 C831 C 0.88650 0.82296 0.45692
 C832 C 0.89610 0.81332 0.44499
 H833 H 0.95998 0.75255 0.39699
 H834 H 0.91393 0.74381 0.36690
 H835 H 0.93040 0.72559 0.34679
 H836 H 0.97668 0.73461 0.37679
 H837 H 0.86873 0.77904 0.43996
 H838 H 0.85181 0.79582 0.46086
 H839 H 0.89172 0.83515 0.46155
 H840 H 0.90850 0.81820 0.44062
 C841 C 0.92501 0.25776 0.62903
 C842 C 0.93361 0.25020 0.61501
 C843 C 0.95134 0.25306 0.61273
 C844 C 0.96045 0.26345 0.62442
 C845 C 0.95192 0.27110 0.63856
 C846 C 0.93409 0.26814 0.64074
 C847 C 0.92421 0.23957 0.60295
 C848 C 0.91628 0.23073 0.59283
 C849 C 0.90693 0.22047 0.58097
 C850 C 0.89886 0.21182 0.57080
 C851 C 0.88915 0.20163 0.55860
 C852 C 0.87318 0.20763 0.55259
 C853 C 0.86379 0.19790 0.54058
 C854 C 0.87028 0.18200 0.53441
 C855 C 0.88632 0.17603 0.54060
 C856 C 0.89569 0.18581 0.55262
 H857 H 0.91127 0.25567 0.63088
 H858 H 0.95812 0.24724 0.60194
 H859 H 0.97420 0.26531 0.62253
 H860 H 0.92713 0.27403 0.65137
 H861 H 0.86800 0.21987 0.55714
 H862 H 0.85149 0.20286 0.53608
 H863 H 0.89168 0.16386 0.53611
 H864 H 0.90805 0.18105 0.55719
 C865 C 0.38606 0.04908 0.25300
 C866 C 0.38366 0.06683 0.25006
 C867 C 0.36955 0.07539 0.25752
 C868 C 0.35788 0.06625 0.26787
 C869 C 0.36018 0.04840 0.27092
 C870 C 0.37440 0.03991 0.26336
 C871 C 0.39573 0.07630 0.23951
 C872 C 0.40585 0.08430 0.23076
 C873 C 0.41775 0.09373 0.22063
 C874 C 0.42796 0.10185 0.21209
 C875 C 0.44024 0.11161 0.20205
 C876 C 0.44620 0.10514 0.18624
 C877 C 0.45836 0.11451 0.17665
 C878 C 0.46471 0.13049 0.18278
 C879 C 0.45854 0.13692 0.19865
 C880 C 0.44639 0.12753 0.20820
 H881 H 0.39692 0.04232 0.24726
 H882 H 0.36761 0.08914 0.25538
 H883 H 0.34718 0.07319 0.27369
 H884 H 0.37639 0.02614 0.26529
 H885 H 0.44153 0.09282 0.18137
 H886 H 0.46284 0.10920 0.16450
 H887 H 0.46316 0.14916 0.20373
 H888 H 0.44187 0.13265 0.22043
 C889 C 0.61414 0.04634 0.74838
 C890 C 0.61669 0.06403 0.75156
 C891 C 0.63077 0.07262 0.74408
 C892 C 0.64226 0.06357 0.73343
 C893 C 0.63979 0.04579 0.73012
 C894 C 0.62561 0.03726 0.73773
 C895 C 0.60480 0.07342 0.76239
 C896 C 0.59481 0.08135 0.77135
 C897 C 0.58306 0.09073 0.78171
 C898 C 0.57295 0.09880 0.79042
 C899 C 0.56078 0.10854 0.80062
 C900 C 0.55480 0.10194 0.81636
 C901 C 0.54272 0.11128 0.82608
 C902 C 0.53647 0.12735 0.82015
 C903 C 0.54267 0.13392 0.80435
 C904 C 0.55474 0.12456 0.79467
 H905 H 0.60330 0.03956 0.75414
 H906 H 0.63283 0.08633 0.74640
 H907 H 0.65292 0.07054 0.72760
 H908 H 0.62350 0.02353 0.73561
 H909 H 0.55939 0.08954 0.82108
 H910 H 0.53820 0.10587 0.83817
 H911 H 0.53813 0.14624 0.79941
 H912 H 0.55928 0.12978 0.78249
 C913 C 0.37099 0.92482 0.74272
 C914 C 0.38501 0.93326 0.75050
 C915 C 0.38746 0.95105 0.74787
 C916 C 0.37596 0.96039 0.73750
 C917 C 0.36182 0.95202 0.72963
 C918 C 0.35946 0.93413 0.73236
 C919 C 0.39691 0.92364 0.76109
 C920 C 0.40690 0.91557 0.76992
 C921 C 0.41867 0.90610 0.78016
 C922 C 0.42880 0.89801 0.78883
 C923 C 0.44100 0.88837 0.79905
 C924 C 0.44685 0.89502 0.81483
 C925 C 0.45900 0.88582 0.82456
 C926 C 0.46548 0.86983 0.81862
 C927 C 0.45940 0.86320 0.80280
 C928 C 0.44725 0.87242 0.79309
 H929 H 0.36901 0.91104 0.74462
 H930 H 0.39825 0.95772 0.75385
 H931 H 0.37799 0.97419 0.73582
 H932 H 0.34884 0.92729 0.72630
 H933 H 0.44209 0.90736 0.81955
 H934 H 0.46341 0.89129 0.83668
 H935 H 0.46412 0.85094 0.79785
 H936 H 0.44282 0.86715 0.78089
 C937 C 0.62937 0.92546 0.25572
 C938 C 0.61516 0.93393 0.24839
 C939 C 0.61275 0.95170 0.25127
 C940 C 0.62448 0.96095 0.26148
 C941 C 0.63880 0.95254 0.26892
 C942 C 0.64113 0.93468 0.26591
 C943 C 0.60301 0.92437 0.23801
 C944 C 0.59280 0.91632 0.22940
 C945 C 0.58081 0.90684 0.21941
 C946 C 0.57050 0.89872 0.21097
 C947 C 0.55809 0.88903 0.20104
 C948 C 0.55169 0.87327 0.20734
 C949 C 0.53937 0.86398 0.19788
 C950 C 0.53329 0.87036 0.18197
 C951 C 0.53990 0.88616 0.17568
 C952 C 0.55222 0.89542 0.18518
 H953 H 0.63132 0.91170 0.25362
 H954 H 0.60180 0.95839 0.24563
 H955 H 0.62247 0.97472 0.26337
 H956 H 0.65190 0.92780 0.27164
 H957 H 0.55614 0.86821 0.21961
 H958 H 0.53455 0.85187 0.20308
 H959 H 0.53549 0.89142 0.16349
 H960 H 0.55709 0.90761 0.18019
 C961 C 0.37731 0.26134 0.92696
 C962 C 0.38109 0.24487 0.93332
 C963 C 0.37307 0.23906 0.94838
 C964 C 0.36139 0.24973 0.95717
 C965 C 0.35743 0.26670 0.95116
 C966 C 0.36568 0.27211 0.93566
 C967 C 0.39342 0.23406 0.92448
 C968 C 0.40389 0.22527 0.91697
 C969 C 0.41629 0.21527 0.90805
 C970 C 0.42698 0.20696 0.90030
 C971 C 0.43984 0.19734 0.89088
 C972 C 0.44615 0.18162 0.89737
 C973 C 0.45878 0.17241 0.88824
 C974 C 0.46527 0.17884 0.87250
 C975 C 0.45880 0.19464 0.86609
 C976 C 0.44618 0.20381 0.87523
 H977 H 0.38331 0.26590 0.91514
 H978 H 0.37604 0.22633 0.95352
 H979 H 0.35642 0.24473 0.96921
 H980 H 0.36279 0.28433 0.92951
 H981 H 0.44134 0.17651 0.90948
 H982 H 0.46348 0.16030 0.89352
 H983 H 0.46351 0.19995 0.85403
 H984 H 0.44140 0.21597 0.87011
 C985 C 0.61314 0.73819 0.94250
 C986 C 0.61882 0.75411 0.93593
 C987 C 0.63591 0.75944 0.93869
 C988 C 0.64730 0.74885 0.94795
 C989 C 0.64172 0.73277 0.95452
 C990 C 0.62449 0.72759 0.95174
 C991 C 0.60710 0.76482 0.92622
 C992 C 0.59710 0.77355 0.91805
 C993 C 0.58520 0.78349 0.90843
 C994 C 0.57488 0.79176 0.90019
 C995 C 0.56237 0.80137 0.89031
 C996 C 0.55638 0.79477 0.87457
 C997 C 0.54393 0.80384 0.86512
 C998 C 0.53728 0.81966 0.87132
 C999 C 0.54348 0.82625 0.88711
 C1000 C 0.55594 0.81714 0.89654
 H1001 H 0.59992 0.73396 0.94047
 H1002 H 0.64045 0.77172 0.93361
 H1003 H 0.66053 0.75310 0.94973
 H1004 H 0.61974 0.71541 0.95685
 H1005 H 0.56126 0.78255 0.86964
 H1006 H 0.53944 0.79841 0.85301
 H1007 H 0.53863 0.83838 0.89224
 H1008 H 0.56047 0.82235 0.90873
 C1009 C 0.37112 0.75974 0.05190
 C1010 C 0.37744 0.75434 0.06791
 C1011 C 0.37226 0.73839 0.07468
 C1012 C 0.36096 0.72773 0.06542
 C1013 C 0.35454 0.73280 0.04905
 C1014 C 0.35977 0.74916 0.04257
 C1015 C 0.38954 0.76497 0.07727
 C1016 C 0.39984 0.77363 0.08515
 C1017 C 0.41208 0.78350 0.09443
 C1018 C 0.42267 0.79172 0.10240
 C1019 C 0.43546 0.80130 0.11195
 C1020 C 0.44152 0.79491 0.12775
 C1021 C 0.45418 0.80400 0.13693
 C1022 C 0.46096 0.81963 0.13041
 C1023 C 0.45473 0.82599 0.11455
 C1024 C 0.44206 0.81687 0.10539
 H1025 H 0.37517 0.77205 0.04647
 H1026 H 0.37696 0.73415 0.08717
 H1027 H 0.35692 0.71579 0.07152
 H1028 H 0.35589 0.75362 0.02992
 H1029 H 0.43650 0.78286 0.13293
 H1030 H 0.45869 0.79875 0.14909
 H1031 H 0.45968 0.83797 0.10918
 H1032 H 0.43748 0.82191 0.09316
 C1033 C 0.61378 0.25250 0.04866
 C1034 C 0.61618 0.24983 0.06637
 C1035 C 0.63019 0.25758 0.07482
 C1036 C 0.64179 0.26796 0.06561
 C1037 C 0.63949 0.27074 0.04779
 C1038 C 0.62536 0.26289 0.03941
 C1039 C 0.60419 0.23926 0.07592
 C1040 C 0.59412 0.23048 0.08397
 C1041 C 0.58229 0.22033 0.09346
 C1042 C 0.57212 0.21179 0.10163
 C1043 C 0.55989 0.20177 0.11145
 C1044 C 0.55395 0.20796 0.12738
 C1045 C 0.54183 0.19843 0.13683
 C1046 C 0.53547 0.18256 0.13045
 C1047 C 0.54161 0.17639 0.11447
 C1048 C 0.55374 0.18595 0.10504
 H1049 H 0.60299 0.24653 0.04198
 H1050 H 0.63212 0.25565 0.08855
 H1051 H 0.65241 0.27401 0.07246
 H1052 H 0.62338 0.26461 0.02567
 H1053 H 0.55863 0.22020 0.13245
 H1054 H 0.53737 0.20355 0.14907
 H1055 H 0.53697 0.16423 0.10920
 H1056 H 0.55825 0.18105 0.09272
 C1057 C 0.26752 0.06253 0.61193
 C1058 C 0.25011 0.06552 0.61586
 C1059 C 0.24321 0.05935 0.63140
 C1060 C 0.25368 0.05023 0.64298
 C1061 C 0.27121 0.04717 0.63916
 C1062 C 0.27801 0.05341 0.62349
 C1063 C 0.23935 0.07497 0.60397
 C1064 C 0.23042 0.08293 0.59398
 C1065 C 0.22006 0.09231 0.58225
 C1066 C 0.21134 0.10040 0.57218
 C1067 C 0.20110 0.11015 0.56008
 C1068 C 0.18530 0.10357 0.55415
 C1069 C 0.17550 0.11297 0.54221
 C1070 C 0.18140 0.12909 0.53604
 C1071 C 0.19726 0.13563 0.54215
 C1072 C 0.20703 0.12621 0.55408
 H1073 H 0.27301 0.06730 0.59996
 H1074 H 0.22973 0.06155 0.63455
 H1075 H 0.24801 0.04539 0.65483
 H1076 H 0.29150 0.05144 0.62028
 H1077 H 0.18060 0.09114 0.55871
 H1078 H 0.16335 0.10758 0.53776
 H1079 H 0.20218 0.14799 0.53766
 H1080 H 0.21925 0.13142 0.55858
 C1081 C 0.74704 0.07151 0.36781
 C1082 C 0.75107 0.06418 0.38379
 C1083 C 0.74475 0.04774 0.38798
 C1084 C 0.73439 0.03865 0.37627
 C1085 C 0.73010 0.04581 0.35999
 C1086 C 0.73672 0.06248 0.35602
 C1087 C 0.76155 0.07362 0.39595
 C1088 C 0.77024 0.08161 0.40613
 C1089 C 0.78029 0.09108 0.41807
 C1090 C 0.78875 0.09927 0.42830
 C1091 C 0.79869 0.10916 0.44056
 C1092 C 0.81456 0.10287 0.44656
 C1093 C 0.82410 0.11243 0.45862
 C1094 C 0.81785 0.12841 0.46483
 C1095 C 0.80190 0.13463 0.45866
 C1096 C 0.79240 0.12505 0.44661
 H1097 H 0.75174 0.08433 0.36450
 H1098 H 0.74791 0.04188 0.40030
 H1099 H 0.73040 0.02571 0.37991
 H1100 H 0.73343 0.06906 0.34415
 H1101 H 0.81955 0.09057 0.44196
 H1102 H 0.83633 0.10728 0.46311
 H1103 H 0.79672 0.14687 0.46317
 H1104 H 0.78012 0.13003 0.44205
 C1105 C 0.74728 0.95119 0.61127
 C1106 C 0.74993 0.93337 0.61347
 C1107 C 0.74234 0.92478 0.62746
 C1108 C 0.73213 0.93396 0.63924
 C1109 C 0.72937 0.95188 0.63715
 C1110 C 0.73706 0.96040 0.62302
 C1111 C 0.76039 0.92387 0.60134
 C1112 C 0.76909 0.91584 0.59118
 C1113 C 0.77919 0.90637 0.57928
 C1114 C 0.78772 0.89822 0.56909
 C1115 C 0.79779 0.88843 0.55686
 C1116 C 0.79160 0.87254 0.55066
 C1117 C 0.80124 0.86308 0.53863
 C1118 C 0.81722 0.86941 0.53262
 C1119 C 0.82337 0.88537 0.53899
 C1120 C 0.81370 0.89481 0.55103
 H1121 H 0.75313 0.95798 0.60050
 H1122 H 0.74426 0.91097 0.62925
 H1123 H 0.72620 0.92700 0.64984
 H1124 H 0.73536 0.97422 0.62120
 H1125 H 0.77929 0.86748 0.55508
 H1126 H 0.79613 0.85085 0.53398
 H1127 H 0.83561 0.89061 0.53463
 H1128 H 0.81860 0.90710 0.55575
 C1129 C 0.25571 0.92702 0.37115
 C1130 C 0.24809 0.93554 0.38519
 C1131 C 0.25085 0.95333 0.38757
 C1132 C 0.26122 0.96257 0.37598
 C1133 C 0.26894 0.95412 0.36183
 C1134 C 0.26606 0.93624 0.35954
 C1135 C 0.23752 0.92601 0.39718
 C1136 C 0.22873 0.91797 0.40724
 C1137 C 0.21853 0.90852 0.41906
 C1138 C 0.20991 0.90041 0.42921
 C1139 C 0.19974 0.89071 0.44142
 C1140 C 0.18392 0.89726 0.44728
 C1141 C 0.17418 0.88797 0.45936
 C1142 C 0.18018 0.87197 0.46575
 C1143 C 0.19607 0.86545 0.45969
 C1144 C 0.20577 0.87477 0.44761
 H1145 H 0.25370 0.91324 0.36922
 H1146 H 0.24498 0.96006 0.39837
 H1147 H 0.26301 0.97637 0.37796
 H1148 H 0.27201 0.92933 0.34890
 H1149 H 0.17914 0.90960 0.44257
 H1150 H 0.16202 0.89335 0.46376
 H1151 H 0.20105 0.85319 0.46435
 H1152 H 0.21801 0.86959 0.44316
 C1153 C 0.07468 0.36910 0.74324
 C1154 C 0.06663 0.38341 0.75093
 C1155 C 0.04895 0.38626 0.74833
 C1156 C 0.03934 0.37485 0.73807
 C1157 C 0.04732 0.36043 0.73028
 C1158 C 0.06510 0.35767 0.73299
 C1159 C 0.07655 0.39524 0.76135
 C1160 C 0.08486 0.40520 0.77002
 C1161 C 0.09459 0.41695 0.78007
 C1162 C 0.10286 0.42709 0.78857
 C1163 C 0.11266 0.43936 0.79859
 C1164 C 0.12843 0.44567 0.79233
 C1165 C 0.13772 0.45799 0.80181
 C1166 C 0.13132 0.46417 0.81768
 C1167 C 0.11554 0.45760 0.82395
 C1168 C 0.10628 0.44528 0.81444
 H1169 H 0.08838 0.36682 0.74512
 H1170 H 0.04259 0.39728 0.75425
 H1171 H 0.02564 0.37719 0.73640
 H1172 H 0.07165 0.34682 0.72698
 H1173 H 0.13348 0.44118 0.78006
 H1174 H 0.14982 0.46279 0.79662
 H1175 H 0.11026 0.46209 0.83611
 H1176 H 0.09407 0.44048 0.81940
 C1177 C 0.05255 0.61052 0.25555
 C1178 C 0.06887 0.61502 0.24925
 C1179 C 0.07598 0.63114 0.25341
 C1180 C 0.06683 0.64276 0.26384
 C1181 C 0.05027 0.63850 0.27042
 C1182 C 0.04335 0.62207 0.26601
 C1183 C 0.07834 0.60306 0.23856
 C1184 C 0.08626 0.59298 0.22966
 C1185 C 0.09553 0.58111 0.21933
 C1186 C 0.10342 0.57087 0.21059
 C1187 C 0.11283 0.55852 0.20029
 C1188 C 0.10605 0.55276 0.18454
 C1189 C 0.11500 0.54045 0.17473
 C1190 C 0.13087 0.53373 0.18058
 C1191 C 0.13765 0.53971 0.19638
 C1192 C 0.12867 0.55202 0.20615
 H1193 H 0.04686 0.59810 0.25228
 H1194 H 0.08870 0.63470 0.24872
 H1195 H 0.07324 0.65477 0.26721
 H1196 H 0.03051 0.61819 0.26996
 H1197 H 0.09378 0.55770 0.17990
 H1198 H 0.10942 0.53611 0.16265
 H1199 H 0.14982 0.53480 0.20125
 H1200 H 0.13403 0.55638 0.21834
 C1201 C 0.95192 0.38807 0.25407
 C1202 C 0.93561 0.38370 0.24765
 C1203 C 0.92826 0.36772 0.25190
 C1204 C 0.93713 0.35612 0.26256
 C1205 C 0.95366 0.36026 0.26929
 C1206 C 0.96085 0.37654 0.26476
 C1207 C 0.92633 0.39569 0.23684
 C1208 C 0.91849 0.40577 0.22789
 C1209 C 0.90923 0.41764 0.21756
 C1210 C 0.90124 0.42784 0.20889
 C1211 C 0.89161 0.44014 0.19874
 C1212 C 0.87573 0.44638 0.20479
 C1213 C 0.86649 0.45858 0.19517
 C1214 C 0.87301 0.46472 0.17934
 C1215 C 0.88893 0.45827 0.17330
 C1216 C 0.89816 0.44606 0.18296
 H1217 H 0.95780 0.40039 0.25074
 H1218 H 0.91554 0.36427 0.24712
 H1219 H 0.93053 0.34425 0.26599
 H1220 H 0.97369 0.38030 0.26883
 H1221 H 0.87055 0.44189 0.21700
 H1222 H 0.85428 0.46328 0.20019
 H1223 H 0.89431 0.46273 0.16117
 H1224 H 0.91044 0.44131 0.17816
 C1225 C 0.92530 0.62727 0.73981
 C1226 C 0.93247 0.62212 0.75553
 C1227 C 0.94857 0.62860 0.76056
 C1228 C 0.95758 0.64007 0.74984
 C1229 C 0.95069 0.64527 0.73370
 C1230 C 0.93424 0.63869 0.72901
 C1231 C 0.92342 0.60989 0.76627
 C1232 C 0.91574 0.59948 0.77499
 C1233 C 0.90664 0.58711 0.78487
 C1234 C 0.89877 0.57642 0.79306
 C1235 C 0.88926 0.56351 0.80255
 C1236 C 0.89571 0.55708 0.81818
 C1237 C 0.88657 0.54431 0.82720
 C1238 C 0.87086 0.53780 0.82068
 C1239 C 0.86447 0.54441 0.80499
 C1240 C 0.87362 0.55717 0.79600
 H1241 H 0.91274 0.62244 0.73585
 H1242 H 0.95432 0.62458 0.77268
 H1243 H 0.97031 0.64408 0.75401
 H1244 H 0.92782 0.64269 0.71727
 H1245 H 0.90782 0.56189 0.82334
 H1246 H 0.89184 0.53950 0.83924
 H1247 H 0.85242 0.53968 0.79962
 H1248 H 0.86853 0.56205 0.78390
 C1249 C 0.74294 0.63071 0.92757
 C1250 C 0.75096 0.61679 0.93595
 C1251 C 0.74855 0.61442 0.95371
 C1252 C 0.73814 0.62591 0.96307
 C1253 C 0.73002 0.63995 0.95476
 C1254 C 0.73255 0.64222 0.93690
 C1255 C 0.76156 0.60488 0.92629
 C1256 C 0.77036 0.59488 0.91815
 C1257 C 0.78057 0.58314 0.90856
 C1258 C 0.78919 0.57305 0.90034
 C1259 C 0.79934 0.56090 0.89050
 C1260 C 0.81512 0.55484 0.89698
 C1261 C 0.82481 0.54279 0.88756
 C1262 C 0.81883 0.53663 0.87152
 C1263 C 0.80301 0.54290 0.86506
 C1264 C 0.79335 0.55495 0.87450
 H1265 H 0.74467 0.63262 0.91381
 H1266 H 0.75472 0.60371 0.96034
 H1267 H 0.73663 0.62395 0.97683
 H1268 H 0.72629 0.65276 0.93009
 H1269 H 0.81988 0.55935 0.90936
 H1270 H 0.83692 0.53821 0.89290
 H1271 H 0.79803 0.53843 0.85277
 H1272 H 0.78115 0.55955 0.86937
 C1273 C 0.25308 0.38664 0.95035
 C1274 C 0.25062 0.38456 0.93256
 C1275 C 0.25844 0.37064 0.92396
 C1276 C 0.26866 0.35884 0.93310
 C1277 C 0.27123 0.36082 0.95099
 C1278 C 0.26332 0.37487 0.95951
 C1279 C 0.24015 0.39673 0.92310
 C1280 C 0.23143 0.40692 0.91514
 C1281 C 0.22129 0.41888 0.90576
 C1282 C 0.21272 0.42913 0.89769
 C1283 C 0.20261 0.44142 0.88801
 C1284 C 0.18672 0.44726 0.89443
 C1285 C 0.17701 0.45935 0.88510
 C1286 C 0.18309 0.46578 0.86920
 C1287 C 0.19905 0.45977 0.86283
 C1288 C 0.20873 0.44768 0.87218
 H1289 H 0.24706 0.39735 0.95715
 H1290 H 0.25667 0.36894 0.91018
 H1291 H 0.27475 0.34830 0.92613
 H1292 H 0.26486 0.37661 0.97331
 H1293 H 0.18186 0.44250 0.90667
 H1294 H 0.16479 0.46371 0.89037
 H1295 H 0.20411 0.46446 0.85065
 H1296 H 0.22102 0.44326 0.86709
 C1297 C 0.25258 0.63081 0.07160
 C1298 C 0.24858 0.61471 0.06435
 C1299 C 0.25480 0.61051 0.04794
 C1300 C 0.26502 0.62233 0.03878
 C1301 C 0.26926 0.63874 0.04586
 C1302 C 0.26276 0.64270 0.06251
 C1303 C 0.23819 0.60247 0.07384
 C1304 C 0.22955 0.59223 0.08185
 C1305 C 0.21950 0.58022 0.09131
 C1306 C 0.21102 0.56994 0.09944
 C1307 C 0.20100 0.55760 0.10919
 C1308 C 0.18496 0.55190 0.10300
 C1309 C 0.17536 0.53973 0.11236
 C1310 C 0.18168 0.53308 0.12807
 C1311 C 0.19778 0.53898 0.13423
 C1312 C 0.20735 0.55114 0.12484
 H1313 H 0.24796 0.63415 0.08439
 H1314 H 0.25167 0.59810 0.04214
 H1315 H 0.26893 0.61867 0.02588
 H1316 H 0.26603 0.65466 0.06903
 H1317 H 0.17991 0.55681 0.09090
 H1318 H 0.16303 0.53546 0.10725
 H1319 H 0.20303 0.53412 0.14626
 H1320 H 0.21975 0.55546 0.12976
 C1321 C 0.73902 0.37586 0.07311
 C1322 C 0.75488 0.38090 0.06611
 C1323 C 0.76007 0.37427 0.05013
 C1324 C 0.74940 0.36275 0.04110
 C1325 C 0.73315 0.35761 0.04784
 C1326 C 0.72828 0.36438 0.06415
 C1327 C 0.76566 0.39309 0.07524
 C1328 C 0.77446 0.40343 0.08297
 C1329 C 0.78452 0.41568 0.09210
 C1330 C 0.79293 0.42624 0.09997
 C1331 C 0.80275 0.43897 0.10943
 C1332 C 0.79646 0.44543 0.12511
 C1333 C 0.80581 0.45800 0.13421
 C1334 C 0.82162 0.46429 0.12773
 C1335 C 0.82789 0.45765 0.11198
 C1336 C 0.81850 0.44508 0.10290
 H1337 H 0.73493 0.38079 0.08557
 H1338 H 0.77230 0.37820 0.04451
 H1339 H 0.75372 0.35861 0.02848
 H1340 H 0.71644 0.36046 0.07046
 H1341 H 0.78428 0.44081 0.13028
 H1342 H 0.80062 0.46282 0.14629
 H1343 H 0.84001 0.46221 0.10663
 H1344 H 0.82349 0.44019 0.09077
 C1345 C 0.92530 0.74718 0.63226
 C1346 C 0.93226 0.75113 0.61609
 C1347 C 0.94863 0.74493 0.61164
 C1348 C 0.95803 0.73477 0.62328
 C1349 C 0.95125 0.73057 0.63975
 C1350 C 0.93464 0.73705 0.64397
 C1351 C 0.92256 0.76147 0.60402
 C1352 C 0.91443 0.77006 0.59387
 C1353 C 0.90490 0.78005 0.58192
 C1354 C 0.89680 0.78849 0.57163
 C1355 C 0.88716 0.79847 0.55921
 C1356 C 0.89366 0.81431 0.55323
 C1357 C 0.88451 0.82379 0.54084
 C1358 C 0.86872 0.81752 0.53426
 C1359 C 0.86223 0.80165 0.54048
 C1360 C 0.87140 0.79220 0.55287
 H1361 H 0.91255 0.75180 0.63578
 H1362 H 0.95422 0.74803 0.59918
 H1363 H 0.97089 0.73087 0.61942
 H1364 H 0.92834 0.73382 0.65600
 H1365 H 0.90585 0.81928 0.55804
 H1366 H 0.88987 0.83595 0.53632
 H1367 H 0.85013 0.79646 0.53569
 H1368 H 0.86626 0.77994 0.55741
 C1369 C 0.93844 0.24007 0.36512
 C1370 C 0.93172 0.24696 0.38040
 C1371 C 0.93439 0.26444 0.38430
 C1372 C 0.94371 0.27504 0.37301
 C1373 C 0.95066 0.26839 0.35743
 C1374 C 0.94781 0.25061 0.35376
 C1375 C 0.92215 0.23615 0.39217
 C1376 C 0.91412 0.22733 0.40223
 C1377 C 0.90473 0.21725 0.41423
 C1378 C 0.89672 0.20884 0.42464
 C1379 C 0.88718 0.19903 0.43728
 C1380 C 0.87141 0.20531 0.44357
 C1381 C 0.86236 0.19606 0.45620
 C1382 C 0.86898 0.18038 0.46274
 C1383 C 0.88478 0.17410 0.45623
 C1384 C 0.89381 0.18337 0.44359
 H1385 H 0.93634 0.22655 0.36190
 H1386 H 0.92938 0.26989 0.39620
 H1387 H 0.94597 0.28828 0.37705
 H1388 H 0.95216 0.24477 0.34183
 H1389 H 0.86617 0.21743 0.43879
 H1390 H 0.85024 0.20126 0.46093
 H1391 H 0.89024 0.16208 0.46098
 H1392 H 0.90603 0.17840 0.43884
 C1393 C 0.05005 0.24046 0.62748
 C1394 C 0.06629 0.24560 0.62145
 C1395 C 0.07327 0.26142 0.62682
 C1396 C 0.06401 0.27218 0.63801
 C1397 C 0.04743 0.26738 0.64415
 C1398 C 0.04072 0.25116 0.63872
 C1399 C 0.07571 0.23486 0.60949
 C1400 C 0.08368 0.22614 0.59930
 C1401 C 0.09309 0.21621 0.58719
 C1402 C 0.10116 0.20796 0.57670
 C1403 C 0.11081 0.19834 0.56399
 C1404 C 0.12645 0.20493 0.55768
 C1405 C 0.13564 0.19586 0.54501
 C1406 C 0.12927 0.18006 0.53846
 C1407 C 0.11360 0.17348 0.54499
 C1408 C 0.10443 0.18257 0.55766
 H1409 H 0.04446 0.22827 0.62329
 H1410 H 0.08592 0.26546 0.62234
 H1411 H 0.07029 0.28399 0.64220
 H1412 H 0.02792 0.24690 0.64239
 H1413 H 0.13149 0.21714 0.56248
 H1414 H 0.14765 0.20129 0.54027
 H1415 H 0.10834 0.16136 0.54022
 H1416 H 0.09232 0.17737 0.56244
 C1417 C 0.05182 0.75924 0.37369
 C1418 C 0.06781 0.75421 0.38039
 C1419 C 0.07506 0.73841 0.37536
 C1420 C 0.06633 0.72758 0.36380
 C1421 C 0.05001 0.73229 0.35695
 C1422 C 0.04301 0.74848 0.36208
 C1423 C 0.07669 0.76506 0.39268
 C1424 C 0.08422 0.77390 0.40312
 C1425 C 0.09315 0.78397 0.41548
 C1426 C 0.10088 0.79235 0.42615
 C1427 C 0.11022 0.80208 0.43901
 C1428 C 0.12582 0.79565 0.44554
 C1429 C 0.13483 0.80489 0.45823
 C1430 C 0.12833 0.82071 0.46457
 C1431 C 0.11266 0.82711 0.45787
 C1432 C 0.10367 0.81784 0.44517
 H1433 H 0.04600 0.77141 0.37761
 H1434 H 0.08754 0.73445 0.38036
 H1435 H 0.07283 0.71580 0.35990
 H1436 H 0.03036 0.75266 0.35788
 H1437 H 0.13100 0.78346 0.44088
 H1438 H 0.14684 0.79959 0.46310
 H1439 H 0.10730 0.83924 0.46247
 H1440 H 0.09159 0.82293 0.44022
 C1441 C 0.62552 0.92535 0.73735
 C1442 C 0.62060 0.93231 0.75325
 C1443 C 0.62728 0.94830 0.75852
 C1444 C 0.63874 0.95739 0.74786
 C1445 C 0.64374 0.95070 0.73156
 C1446 C 0.63693 0.93438 0.72662
 C1447 C 0.60844 0.92314 0.76399
 C1448 C 0.59812 0.91540 0.77276
 C1449 C 0.58588 0.90623 0.78276
 C1450 C 0.57532 0.89833 0.79110
 C1451 C 0.56260 0.88881 0.80082
 C1452 C 0.55611 0.89552 0.81632
 C1453 C 0.54354 0.88636 0.82559
 C1454 C 0.53729 0.87035 0.81944
 C1455 C 0.54396 0.86368 0.80388
 C1456 C 0.55652 0.87286 0.79464
 H1457 H 0.62054 0.91287 0.73320
 H1458 H 0.62344 0.95388 0.77078
 H1459 H 0.64292 0.97004 0.75223
 H1460 H 0.64075 0.92810 0.71473
 H1461 H 0.56071 0.90786 0.82121
 H1462 H 0.53868 0.89185 0.83752
 H1463 H 0.53943 0.85140 0.79879
 H1464 H 0.56144 0.86755 0.78265
 C1465 C 0.37320 0.92741 0.26243
 C1466 C 0.37839 0.93442 0.24664
 C1467 C 0.37199 0.95054 0.24145
 C1468 C 0.36056 0.95971 0.25207
 C1469 C 0.35530 0.95297 0.26826
 C1470 C 0.36181 0.93651 0.27312
 C1471 C 0.39051 0.92516 0.23595
 C1472 C 0.40081 0.91730 0.22726
 C1473 C 0.41302 0.90798 0.21737
 C1474 C 0.42355 0.89992 0.20915
 C1475 C 0.43623 0.89018 0.19960
 C1476 C 0.44275 0.89657 0.18398
 C1477 C 0.45526 0.88719 0.17487
 C1478 C 0.46143 0.87127 0.18129
 C1479 C 0.45474 0.86493 0.19698
 C1480 C 0.44223 0.87434 0.20605
 H1481 H 0.37795 0.91484 0.26651
 H1482 H 0.37604 0.95616 0.22927
 H1483 H 0.35661 0.97244 0.24777
 H1484 H 0.35778 0.93020 0.28491
 H1485 H 0.43820 0.90884 0.17888
 H1486 H 0.46014 0.89243 0.16284
 H1487 H 0.45920 0.85274 0.20228
 H1488 H 0.43729 0.86928 0.21814
 C1489 C 0.62928 0.07596 0.25920
 C1490 C 0.62058 0.06771 0.24563
 C1491 C 0.62354 0.05010 0.24236
 C1492 C 0.63503 0.04072 0.25272
 C1493 C 0.64368 0.04885 0.26652
 C1494 C 0.64075 0.06661 0.26958
 C1495 C 0.60833 0.07724 0.23535
 C1496 C 0.59793 0.08526 0.22694
 C1497 C 0.58561 0.09468 0.21731
 C1498 C 0.57498 0.10273 0.20923
 C1499 C 0.56215 0.11234 0.19976
 C1500 C 0.55571 0.10586 0.18414
 C1501 C 0.54302 0.11504 0.17509
 C1502 C 0.53660 0.13085 0.18157
 C1503 C 0.54323 0.13729 0.19725
 C1504 C 0.55592 0.12808 0.20627
 H1505 H 0.62710 0.08959 0.26183
 H1506 H 0.61682 0.04357 0.23193
 H1507 H 0.63684 0.02702 0.25018
 H1508 H 0.64738 0.07328 0.27996
 H1509 H 0.56043 0.09367 0.17899
 H1510 H 0.53820 0.10973 0.16307
 H1511 H 0.53858 0.14940 0.20259
 H1512 H 0.56080 0.13320 0.21836
 C1513 C 0.37768 0.04830 0.75817
 C1514 C 0.38079 0.06597 0.75540
 C1515 C 0.37225 0.07462 0.74201
 C1516 C 0.36077 0.06562 0.73130
 C1517 C 0.35769 0.04781 0.73385
 C1518 C 0.36619 0.03926 0.74748
 C1519 C 0.39305 0.07517 0.76601
 C1520 C 0.40344 0.08294 0.77468
 C1521 C 0.41576 0.09211 0.78459
 C1522 C 0.42639 0.09999 0.79287
 C1523 C 0.43920 0.10946 0.80254
 C1524 C 0.44549 0.12528 0.79627
 C1525 C 0.45814 0.13438 0.80547
 C1526 C 0.46469 0.12777 0.82109
 C1527 C 0.45823 0.11188 0.82734
 C1528 C 0.44557 0.10280 0.81811
 H1529 H 0.38428 0.04146 0.76846
 H1530 H 0.37453 0.08831 0.73976
 H1531 H 0.35426 0.07260 0.72106
 H1532 H 0.36426 0.02552 0.74964
 H1533 H 0.44066 0.13054 0.78423
 H1534 H 0.46283 0.14656 0.80030
 H1535 H 0.46299 0.10643 0.83931
 H1536 H 0.44081 0.09056 0.82307
 C1537 C 0.62990 0.75771 0.06199
 C1538 C 0.61447 0.75045 0.06810
 C1539 C 0.61087 0.73293 0.06498
 C1540 C 0.62263 0.72269 0.05579
 C1541 C 0.63819 0.72986 0.04960
 C1542 C 0.64169 0.74749 0.05281
 C1543 C 0.60234 0.76096 0.07757
 C1544 C 0.59216 0.76972 0.08552
 C1545 C 0.58018 0.77989 0.09484
 C1546 C 0.56990 0.78850 0.10281
 C1547 C 0.55752 0.79866 0.11235
 C1548 C 0.55114 0.79259 0.12815
 C1549 C 0.53891 0.80228 0.13731
 C1550 C 0.53289 0.81821 0.13078
 C1551 C 0.53946 0.82425 0.11492
 C1552 C 0.55169 0.81453 0.10579
 H1553 H 0.63279 0.77127 0.06428
 H1554 H 0.59899 0.72716 0.06969
 H1555 H 0.61967 0.70912 0.05373
 H1556 H 0.65343 0.75345 0.04802
 H1557 H 0.55556 0.78032 0.13335
 H1558 H 0.53412 0.79725 0.14946
 H1559 H 0.53509 0.83644 0.10953
 H1560 H 0.55654 0.81935 0.09356
 C1561 C 0.36906 0.25620 0.07389
 C1562 C 0.38354 0.24879 0.06594
 C1563 C 0.38649 0.25153 0.04831
 C1564 C 0.37502 0.26165 0.03866
 C1565 C 0.36042 0.26916 0.04653
 C1566 C 0.35757 0.26631 0.06426
 C1567 C 0.39542 0.23846 0.07589
 C1568 C 0.40539 0.22986 0.08424
 C1569 C 0.41713 0.21987 0.09402
 C1570 C 0.42724 0.21140 0.10234
 C1571 C 0.43945 0.20139 0.11221
 C1572 C 0.44541 0.18546 0.10590
 C1573 C 0.45760 0.17593 0.11527
 C1574 C 0.46400 0.18223 0.13110
 C1575 C 0.45779 0.19819 0.13741
 C1576 C 0.44560 0.20769 0.12802
 H1577 H 0.36669 0.25421 0.08754
 H1578 H 0.39764 0.24583 0.04202
 H1579 H 0.37745 0.26343 0.02500
 H1580 H 0.34658 0.27210 0.07074
 H1581 H 0.44074 0.18047 0.09368
 H1582 H 0.46211 0.16371 0.11004
 H1583 H 0.46246 0.20341 0.14954
 H1584 H 0.44108 0.22001 0.13302
 C1585 C 0.62393 0.24171 0.95202
 C1586 C 0.62093 0.24446 0.93441
 C1587 C 0.62954 0.25791 0.92583
 C1588 C 0.64097 0.26867 0.93485
 C1589 C 0.64393 0.26614 0.95260
 C1590 C 0.63537 0.25245 0.96107
 C1591 C 0.60874 0.23379 0.92518
 C1592 C 0.59839 0.22508 0.91737
 C1593 C 0.58615 0.21512 0.90813
 C1594 C 0.57559 0.20682 0.90018
 C1595 C 0.56285 0.19713 0.89061
 C1596 C 0.55652 0.20361 0.87495
 C1597 C 0.54393 0.19441 0.86577
 C1598 C 0.53748 0.17858 0.87213
 C1599 C 0.54399 0.17212 0.88784
 C1600 C 0.55659 0.18136 0.89701
 H1601 H 0.61728 0.23138 0.95881
 H1602 H 0.62735 0.26014 0.91219
 H1603 H 0.64753 0.27894 0.92791
 H1604 H 0.63722 0.25031 0.97477
 H1605 H 0.56127 0.21581 0.86988
 H1606 H 0.53921 0.19974 0.85372
 H1607 H 0.53930 0.15998 0.89310
 H1608 H 0.56138 0.17623 0.90913
 C1609 C 0.37009 0.74422 0.92645
 C1610 C 0.38428 0.75164 0.93492
 C1611 C 0.38666 0.74874 0.95261
 C1612 C 0.37493 0.73845 0.96179
 C1613 C 0.36062 0.73093 0.95338
 C1614 C 0.35834 0.73395 0.93560
 C1615 C 0.39642 0.76212 0.92542
 C1616 C 0.40658 0.77081 0.91737
 C1617 C 0.41850 0.78089 0.90787
 C1618 C 0.42873 0.78939 0.89970
 C1619 C 0.44103 0.79940 0.88989
 C1620 C 0.44730 0.79304 0.87416
 C1621 C 0.45946 0.80256 0.86474
 C1622 C 0.46554 0.81862 0.87095
 C1623 C 0.45906 0.82496 0.88673
 C1624 C 0.44689 0.81540 0.89613
 H1625 H 0.36815 0.74632 0.91275
 H1626 H 0.39758 0.75444 0.95930
 H1627 H 0.37692 0.73656 0.97550
 H1628 H 0.34760 0.72815 0.92871
 H1629 H 0.44285 0.78066 0.86921
 H1630 H 0.46418 0.79730 0.85266
 H1631 H 0.46347 0.83726 0.89188
 H1632 H 0.44213 0.82045 0.90830
 C1633 C 0.74154 0.92327 0.36826
 C1634 C 0.75506 0.93163 0.37694
 C1635 C 0.75807 0.94931 0.37411
 C1636 C 0.74750 0.95864 0.36278
 C1637 C 0.73373 0.95039 0.35417
 C1638 C 0.73095 0.93257 0.35695
 C1639 C 0.76550 0.92216 0.38909
 C1640 C 0.77401 0.91418 0.39943
 C1641 C 0.78371 0.90479 0.41171
 C1642 C 0.79181 0.89675 0.42233
 C1643 C 0.80125 0.88713 0.43517
 C1644 C 0.79470 0.87138 0.44133
 C1645 C 0.80362 0.86219 0.45408
 C1646 C 0.81925 0.86865 0.46085
 C1647 C 0.82579 0.88445 0.45448
 C1648 C 0.81683 0.89362 0.44173
 H1649 H 0.73910 0.90958 0.37034
 H1650 H 0.76846 0.95593 0.38082
 H1651 H 0.74984 0.97239 0.36107
 H1652 H 0.72060 0.92581 0.35034
 H1653 H 0.78263 0.86625 0.43636
 H1654 H 0.79824 0.85007 0.45869
 H1655 H 0.83777 0.88978 0.45941
 H1656 H 0.82200 0.90581 0.43706
 C1657 C 0.24100 0.93723 0.63645
 C1658 C 0.24611 0.93455 0.61931
 C1659 C 0.26206 0.94092 0.61359
 C1660 C 0.27290 0.94988 0.62496
 C1661 C 0.26794 0.95259 0.64224
 C1662 C 0.25183 0.94621 0.64785
 C1663 C 0.23512 0.92515 0.60755
 C1664 C 0.22617 0.91725 0.59751
 C1665 C 0.21597 0.90794 0.58554
 C1666 C 0.20749 0.89994 0.57517
 C1667 C 0.19766 0.89032 0.56260
 C1668 C 0.18211 0.89700 0.55617
 C1669 C 0.17281 0.88782 0.54364
 C1670 C 0.17896 0.87182 0.53737
 C1671 C 0.19455 0.86517 0.54402
 C1672 C 0.20382 0.87437 0.55654
 H1673 H 0.22870 0.93231 0.64102
 H1674 H 0.26613 0.93897 0.60034
 H1675 H 0.28509 0.95486 0.62018
 H1676 H 0.24773 0.94793 0.66112
 H1677 H 0.17724 0.90935 0.56075
 H1678 H 0.16086 0.89329 0.53880
 H1679 H 0.19965 0.85291 0.53948
 H1680 H 0.21585 0.86909 0.56141
 C1681 C 0.24125 0.05099 0.37695
 C1682 C 0.24426 0.06865 0.37994
 C1683 C 0.25777 0.07709 0.37133
 C1684 C 0.26836 0.06789 0.35992
 C1685 C 0.26558 0.05008 0.35696
 C1686 C 0.25182 0.04176 0.36552
 C1687 C 0.23379 0.07802 0.39217
 C1688 C 0.22524 0.08590 0.40257
 C1689 C 0.21546 0.09515 0.41491
 C1690 C 0.20728 0.10305 0.42559
 C1691 C 0.19770 0.11247 0.43849
 C1692 C 0.20406 0.12822 0.44485
 C1693 C 0.19499 0.13721 0.45766
 C1694 C 0.17941 0.13053 0.46430
 C1695 C 0.17305 0.11473 0.45774
 C1696 C 0.18215 0.10576 0.44492
 H1697 H 0.23088 0.04431 0.38360
 H1698 H 0.26020 0.09076 0.37353
 H1699 H 0.27869 0.07470 0.35336
 H1700 H 0.24949 0.02803 0.36368
 H1701 H 0.21610 0.13352 0.43998
 H1702 H 0.20024 0.14933 0.46243
 H1703 H 0.16110 0.10923 0.46257
 H1704 H 0.17712 0.09356 0.44011
 C1705 C 0.74140 0.07512 0.62906
 C1706 C 0.75481 0.06674 0.62023
 C1707 C 0.75771 0.04902 0.62294
 C1708 C 0.74716 0.03969 0.63429
 C1709 C 0.73351 0.04796 0.64306
 C1710 C 0.73083 0.06582 0.64039
 C1711 C 0.76527 0.07624 0.60810
 C1712 C 0.77381 0.08424 0.59779
 C1713 C 0.78357 0.09365 0.58555
 C1714 C 0.79172 0.10170 0.57496
 C1715 C 0.80125 0.11133 0.56217
 C1716 C 0.79467 0.12700 0.55585
 C1717 C 0.80368 0.13618 0.54314
 C1718 C 0.81941 0.12980 0.53656
 C1719 C 0.82598 0.11409 0.54310
 C1720 C 0.81694 0.10492 0.55581
 H1721 H 0.73905 0.08884 0.62708
 H1722 H 0.76801 0.04238 0.61612
 H1723 H 0.74941 0.02592 0.63590
 H1724 H 0.72058 0.07260 0.64713
 H1725 H 0.78252 0.13206 0.56067
 H1726 H 0.79827 0.14823 0.53839
 H1727 H 0.83804 0.10881 0.53832
 H1728 H 0.82214 0.09279 0.56060
 C1729 C 0.95427 0.62266 0.24135
 C1730 C 0.93663 0.61969 0.24417
 C1731 C 0.92815 0.62826 0.25767
 C1732 C 0.93727 0.63962 0.26841
 C1733 C 0.95504 0.64256 0.26580
 C1734 C 0.96343 0.63403 0.25207
 C1735 C 0.92730 0.60755 0.23352
 C1736 C 0.91939 0.59726 0.22483
 C1737 C 0.91003 0.58508 0.21491
 C1738 C 0.90197 0.57457 0.20663
 C1739 C 0.89227 0.56190 0.19697
 C1740 C 0.87644 0.55583 0.20332
 C1741 C 0.86711 0.54331 0.19415
 C1742 C 0.87351 0.53667 0.17845
 C1743 C 0.88940 0.54293 0.17212
 C1744 C 0.89870 0.55546 0.18133
 H1745 H 0.96099 0.61603 0.23098
 H1746 H 0.91449 0.62609 0.25996
 H1747 H 0.93040 0.64616 0.27872
 H1748 H 0.97714 0.63586 0.24987
 H1749 H 0.87134 0.56071 0.21542
 H1750 H 0.85494 0.53877 0.19939
 H1751 H 0.89468 0.53809 0.16009
 H1752 H 0.91095 0.56005 0.17630
 C1753 C 0.95072 0.37764 0.75782
 C1754 C 0.93320 0.38106 0.75478
 C1755 C 0.92465 0.37267 0.74120
 C1756 C 0.93360 0.36105 0.73060
 C1757 C 0.95125 0.35766 0.73343
 C1758 C 0.95969 0.36600 0.74724
 C1759 C 0.92407 0.39345 0.76530
 C1760 C 0.91634 0.40395 0.77389
 C1761 C 0.90719 0.41636 0.78371
 C1762 C 0.89929 0.42705 0.79191
 C1763 C 0.88976 0.43990 0.80150
 C1764 C 0.87413 0.44629 0.79499
 C1765 C 0.86491 0.45889 0.80414
 C1766 C 0.87121 0.46529 0.81997
 C1767 C 0.88693 0.45875 0.82643
 C1768 C 0.89613 0.44614 0.81724
 H1769 H 0.95748 0.38412 0.76825
 H1770 H 0.91109 0.37519 0.73874
 H1771 H 0.92669 0.35466 0.72022
 H1772 H 0.97332 0.36384 0.74961
 H1773 H 0.86909 0.44156 0.78280
 H1774 H 0.85287 0.46364 0.79880
 H1775 H 0.89213 0.46340 0.83857
 H1776 H 0.90822 0.44130 0.82240
 C1777 C 0.04701 0.61411 0.74788
 C1778 C 0.06475 0.61655 0.75055
 C1779 C 0.07313 0.63074 0.74299
 C1780 C 0.06384 0.64244 0.73280
 C1781 C 0.04600 0.64009 0.73002
 C1782 C 0.03769 0.62579 0.73768
 C1783 C 0.07438 0.60447 0.76094
 C1784 C 0.08252 0.59434 0.76957
 C1785 C 0.09213 0.58246 0.77958
 C1786 C 0.10040 0.57228 0.78802
 C1787 C 0.11035 0.56006 0.79795
 C1788 C 0.12633 0.55424 0.79177
 C1789 C 0.13594 0.54221 0.80126
 C1790 C 0.12967 0.53581 0.81710
 C1791 C 0.11362 0.54181 0.82325
 C1792 C 0.10403 0.55386 0.81373
 H1793 H 0.04039 0.60318 0.75370
 H1794 H 0.08687 0.63272 0.74492
 H1795 H 0.07065 0.65319 0.72690
 H1796 H 0.02394 0.62375 0.73596
 H1797 H 0.13135 0.55896 0.77957
 H1798 H 0.14823 0.53786 0.79615
 H1799 H 0.10842 0.53715 0.83538
 H1800 H 0.09167 0.55828 0.81863
 C1801 C 0.07510 0.36987 0.25880
 C1802 C 0.06667 0.37832 0.24520
 C1803 C 0.04909 0.37517 0.24220
 C1804 C 0.03993 0.36375 0.25285
 C1805 C 0.04825 0.35536 0.26669
 C1806 C 0.06596 0.35847 0.26947
 C1807 C 0.07598 0.39052 0.23462
 C1808 C 0.08384 0.40087 0.22597
 C1809 C 0.09311 0.41312 0.21607
 C1810 C 0.10109 0.42369 0.20780
 C1811 C 0.11070 0.43642 0.19814
 C1812 C 0.10405 0.44305 0.18268
 C1813 C 0.11329 0.45559 0.17344
 C1814 C 0.12934 0.46167 0.17957
 C1815 C 0.13593 0.45487 0.19510
 C1816 C 0.12666 0.44234 0.20430
 H1817 H 0.08870 0.37219 0.26122
 H1818 H 0.04242 0.38169 0.23175
 H1819 H 0.02626 0.36180 0.25052
 H1820 H 0.07278 0.35204 0.27987
 H1821 H 0.09169 0.43858 0.17780
 H1822 H 0.10786 0.46056 0.16154
 H1823 H 0.14823 0.45926 0.20017
 H1824 H 0.13192 0.43731 0.21626
   
