data_POSCAR
  _audit_creation_date              2014-09-24
  _audit_creation_method            'ToBaCCo'
  _symmetry_space_group_name_H-M    'P1'
  _symmetry_Int_Tables_number       1
  _symmetry_cell_setting            triclinic
  loop_
  _symmetry_equiv_pos_as_xyz
 x,y,z
_cell_length_a 57.7321
_cell_length_b 57.7456
_cell_length_c 57.6698
_cell_angle_alpha 89.977100
_cell_angle_beta 89.931400
_cell_angle_gamma 89.911600
loop_
  _atom_site_label
  _atom_site_type_symbol
  _atom_site_fract_x
  _atom_site_fract_y
  _atom_site_fract_z
C1 C 0.35665 1.35663 0.32668
 C2 C 0.36619 1.33630 0.33637
 C3 C 0.35529 1.32486 0.35482
 C4 C 0.33486 1.33410 0.36415
 C5 C 0.32481 1.35448 0.35522
 C6 C 0.33605 1.36558 0.33651
 H7 H 0.38127 1.32826 0.32862
 H8 H 0.32744 1.32572 0.37920
 H9 H 0.32859 1.38119 0.32938
 C10 C 0.35611 0.85617 0.82702
 C11 C 0.36539 0.83560 0.83608
 C12 C 0.35471 0.82434 0.85475
 C13 C 0.33463 0.83397 0.86453
 C14 C 0.32478 0.85461 0.85582
 C15 C 0.33605 0.86568 0.83710
 H16 H 0.38080 0.82814 0.82835
 H17 H 0.32734 0.82567 0.87968
 H18 H 0.32844 0.88086 0.82915
 C19 C 0.85964 1.35974 0.83038
 C20 C 0.83991 1.36963 0.84067
 C21 C 0.82913 1.35933 0.86011
 C22 C 0.83900 1.33883 0.86918
 C23 C 0.85898 1.32895 0.85932
 C24 C 0.86912 1.33951 0.83991
 H25 H 0.83256 1.38495 0.83276
 H26 H 0.83197 1.33104 0.88473
 H27 H 0.88403 1.33154 0.83172
 C28 C 0.85920 0.85817 0.32915
 C29 C 0.86922 0.83857 0.33953
 C30 C 0.85886 0.82803 0.35891
 C31 C 0.83824 0.83741 0.36792
 C32 C 0.82791 0.85692 0.35767
 C33 C 0.83860 0.86725 0.33839
 H34 H 0.88499 0.83135 0.33232
 H35 H 0.83005 0.82933 0.38276
 H36 H 0.83069 0.88226 0.33035
 C37 C 0.64523 0.64564 0.32457
 C38 C 0.63408 0.66418 0.33601
 C39 C 0.64353 0.67409 0.35616
 C40 C 0.66414 0.66504 0.36534
 C41 C 0.67546 0.64649 0.35450
 C42 C 0.66588 0.63691 0.33433
 H43 H 0.61851 0.67177 0.32884
 H44 H 0.67186 0.67302 0.38047
 H45 H 0.67423 0.62184 0.32690
 C46 C 0.64342 0.14411 0.82693
 C47 C 0.66326 0.13355 0.83624
 C48 C 0.67390 0.14212 0.85655
 C49 C 0.66383 0.16160 0.86743
 C50 C 0.64421 0.17259 0.85809
 C51 C 0.63402 0.16361 0.83797
 H52 H 0.67009 0.11836 0.82765
 H53 H 0.67180 0.16913 0.88262
 H54 H 0.61895 0.17206 0.83064
 C55 C 1.14351 0.64452 0.82649
 C56 C 1.13431 0.66431 0.83729
 C57 C 1.14480 0.67371 0.85712
 C58 C 1.16459 0.66291 0.86630
 C59 C 1.17405 0.64312 0.85576
 C60 C 1.16331 0.63397 0.83593
 H61 H 1.11918 0.67267 0.82998
 H62 H 1.17291 0.67021 0.88145
 H63 H 1.17064 0.61885 0.82757
 C64 C 1.14239 0.14260 0.32739
 C65 C 1.13286 0.16250 0.33785
 C66 C 1.14279 0.17226 0.35778
 C67 C 1.16284 0.16224 0.36725
 C68 C 1.17339 0.14279 0.35686
 C69 C 1.16266 0.13302 0.33717
 H70 H 1.11721 0.17021 0.33099
 H71 H 1.17064 0.17036 0.38222
 H72 H 1.17030 0.11790 0.32922
 C73 C 0.64431 1.35529 0.67366
 C74 C 0.63517 1.33483 0.66428
 C75 C 0.64603 1.32383 0.64554
 C76 C 0.66618 1.33358 0.63607
 C77 C 0.67587 1.35412 0.64510
 C78 C 0.66441 1.36493 0.66385
 H79 H 0.61973 1.32728 0.67179
 H80 H 0.67364 1.32547 0.62088
 H81 H 0.67189 1.38003 0.67204
 C82 C 0.64189 0.85791 1.17122
 C83 C 0.63208 0.83812 1.16106
 C84 C 0.64196 0.82807 1.14118
 C85 C 0.66188 0.83810 1.13143
 C86 C 0.67196 0.85789 1.14134
 C87 C 0.66180 0.86769 1.16121
 H88 H 0.61677 0.83044 1.16872
 H89 H 0.66964 0.83041 1.11615
 H90 H 0.66949 0.88292 1.16897
 C91 C 1.14255 1.35683 1.17274
 C92 C 1.13320 1.33673 1.16244
 C93 C 1.14355 1.32652 1.14286
 C94 C 1.16386 1.33624 1.13368
 C95 C 1.17374 1.35599 1.14376
 C96 C 1.16282 1.36633 1.16291
 H97 H 1.11743 1.32919 1.16919
 H98 H 1.17212 1.32831 1.11879
 H99 H 1.17092 1.38131 1.17070
 C100 C 1.14428 0.85512 0.67365
 C101 C 1.13517 0.83466 0.66427
 C102 C 1.14606 0.82363 0.64556
 C103 C 1.16624 0.83337 0.63613
 C104 C 1.17592 0.85391 0.64517
 C105 C 1.16442 0.86475 0.66388
 H106 H 1.11969 0.82712 0.67175
 H107 H 1.17374 0.82525 0.62097
 H108 H 1.17188 0.87985 0.67207
 C109 C 0.35697 0.64269 0.67287
 C110 C 0.36721 0.66236 0.66286
 C111 C 0.35733 0.67305 0.64334
 C112 C 0.33702 0.66372 0.63377
 C113 C 0.32647 0.64411 0.64357
 C114 C 0.33664 0.63364 0.66306
 H115 H 0.38280 0.66951 0.67042
 H116 H 0.32958 0.67157 0.61842
 H117 H 0.32825 0.61892 0.67113
 C118 C 0.35555 0.14527 1.17531
 C119 C 0.33577 0.13532 1.16492
 C120 C 0.32593 0.14495 1.14481
 C121 C 0.33645 0.16426 1.13446
 C122 C 0.35630 0.17423 1.14414
 C123 C 0.36564 0.16475 1.16448
 H124 H 0.32688 0.12108 1.17327
 H125 H 0.32929 0.17141 1.11864
 H126 H 0.38117 0.17249 1.17150
 C127 C 0.85544 0.64433 1.17466
 C128 C 0.83566 0.63461 1.16402
 C129 C 0.82497 0.64540 1.14499
 C130 C 0.83452 0.66583 1.13603
 C131 C 0.85415 0.67586 1.14612
 C132 C 0.86446 0.66508 1.16534
 H133 H 0.82742 0.61950 1.17144
 H134 H 0.82673 0.67389 1.12096
 H135 H 0.87985 0.67284 1.17265
 C136 C 0.85276 0.14784 0.67747
 C137 C 0.83338 0.13746 0.66668
 C138 C 0.82251 0.14773 0.64726
 C139 C 0.83223 0.16816 0.63808
 C140 C 0.85171 0.17848 0.64809
 C141 C 0.86178 0.16833 0.66767
 H142 H 0.82532 0.12265 0.67483
 H143 H 0.82533 0.17574 0.62237
 H144 H 0.87704 0.17639 0.67492
 C145 C 1.35661 0.35582 0.67400
 C146 C 1.33592 0.36505 0.66517
 C147 C 1.32453 0.35435 0.64661
 C148 C 1.33412 0.33429 0.63678
 C149 C 1.35486 0.32450 0.64526
 C150 C 1.36608 0.33579 0.66383
 H151 H 1.32821 0.38010 0.67333
 H152 H 1.32571 0.32697 0.62171
 H153 H 1.38171 0.32858 0.67123
 C154 C 1.35741 0.85737 1.17400
 C155 C 1.36747 0.83758 1.16368
 C156 C 1.35695 0.82641 1.14481
 C157 C 1.33642 0.83550 1.13559
 C158 C 1.32606 0.85524 1.14531
 C159 C 1.33655 0.86596 1.16448
 H160 H 1.38302 0.82999 1.17088
 H161 H 1.32828 0.82696 1.12101
 H162 H 1.32851 0.88133 1.17159
 C163 C 0.85727 0.35651 1.17409
 C164 C 0.83649 0.36535 1.16470
 C165 C 0.82577 0.35484 1.14556
 C166 C 0.83590 0.33513 1.13558
 C167 C 0.85643 0.32583 1.14465
 C168 C 0.86714 0.33677 1.16355
 H169 H 0.82897 0.38110 1.17156
 H170 H 0.82728 0.32646 1.12134
 H171 H 0.88267 0.32901 1.17063
 C172 C 0.85831 0.85780 0.67217
 C173 C 0.83865 0.86807 0.66209
 C174 C 0.82792 0.85807 0.64269
 C175 C 0.83719 0.83763 0.63329
 C176 C 0.85674 0.82702 0.64316
 C177 C 0.86727 0.83730 0.66253
 H178 H 0.83119 0.88343 0.66989
 H179 H 0.82932 0.83008 0.61801
 H180 H 0.88231 0.82918 0.67028
 C181 C 0.64088 0.64107 0.67092
 C182 C 0.63094 0.66090 0.66088
 C183 C 0.64068 0.67106 0.64100
 C184 C 0.66057 0.66107 0.63111
 C185 C 0.67078 0.64126 0.64089
 C186 C 0.66079 0.63136 0.66077
 H187 H 0.61565 0.66855 0.66866
 H188 H 0.66857 0.66920 0.61618
 H189 H 0.66827 0.61579 0.66811
 C190 C 0.64263 1.14290 1.17213
 C191 C 0.66246 1.13307 1.16209
 C192 C 0.67217 1.14257 1.14191
 C193 C 0.66184 1.16219 1.13181
 C194 C 0.64168 1.17228 1.14136
 C195 C 0.63218 1.16213 1.16150
 H196 H 0.67051 1.11816 1.17017
 H197 H 0.66939 1.16916 1.11612
 H198 H 0.61716 1.16975 1.16977
 C199 C 0.14171 0.64143 1.17188
 C200 C 0.13204 0.66171 1.16217
 C201 C 0.14191 0.67264 1.14259
 C202 C 0.16205 0.66278 1.13282
 C203 C 0.17184 0.64249 1.14194
 C204 C 0.16152 0.63188 1.16122
 H205 H 0.11675 0.66913 1.17001
 H206 H 0.16996 0.67041 1.11762
 H207 H 0.16969 0.61659 1.16835
 C208 C 0.14132 1.14170 0.67117
 C209 C 0.13113 1.16145 0.66123
 C210 C 0.14112 1.17253 0.64180
 C211 C 0.16157 1.16291 0.63235
 C212 C 0.17174 1.14292 0.64184
 C213 C 0.16152 1.13249 0.66127
 H214 H 0.11584 1.16859 0.66941
 H215 H 0.16947 1.17051 0.61713
 H216 H 0.16940 1.11721 0.66882
 C217 C 1.35559 0.64652 0.32576
 C218 C 1.33517 0.63680 0.33466
 C219 C 1.32419 0.64656 0.35402
 C220 C 1.33395 0.66613 0.36462
 C221 C 1.35449 0.67632 0.35612
 C222 C 1.36528 0.66597 0.33674
 H223 H 1.32728 0.62221 0.32591
 H224 H 1.32581 0.67275 0.38017
 H225 H 1.38069 0.67357 0.32928
 C226 C 1.35569 1.14609 0.82627
 C227 C 1.33522 1.13642 0.83512
 C228 C 1.32423 1.14622 0.85446
 C229 C 1.33401 1.16576 0.86507
 C230 C 1.35459 1.17589 0.85662
 C231 C 1.36540 1.16551 0.83727
 H232 H 1.32730 1.12187 0.82635
 H233 H 1.32586 1.17241 0.88061
 H234 H 1.38085 1.17308 0.82984
 C235 C 0.85680 0.64449 0.82729
 C236 C 0.83744 0.63370 0.83736
 C237 C 0.82718 0.64274 0.85752
 C238 C 0.83665 0.66267 0.86773
 C239 C 0.85597 0.67370 0.85791
 C240 C 0.86602 0.66440 0.83778
 H241 H 0.82977 0.61880 0.82896
 H242 H 0.82907 0.66950 0.88350
 H243 H 0.88084 0.67292 0.83003
 C244 C 0.85648 1.14498 0.32690
 C245 C 0.83627 1.13535 0.33644
 C246 C 0.82629 1.14477 0.35657
 C247 C 0.83697 1.16377 0.36735
 C248 C 0.85723 1.17355 0.35812
 C249 C 0.86691 1.16397 0.33794
 H250 H 0.82775 1.12116 0.32764
 H251 H 0.82960 1.17084 0.38313
 H252 H 0.88241 1.17156 0.33058
 C253 C 0.64260 0.35736 0.32826
 C254 C 0.63400 0.33642 0.33763
 C255 C 0.64466 0.32550 0.35680
 C256 C 0.66429 0.33615 0.36663
 C257 C 0.67300 0.35703 0.35788
 C258 C 0.66208 0.36753 0.33891
 H259 H 0.61900 0.32847 0.32982
 H260 H 0.67269 0.32863 0.38161
 H261 H 0.66955 0.38326 0.33199
 C262 C 0.64465 0.85571 0.82676
 C263 C 0.63519 0.83540 0.83628
 C264 C 0.64580 0.82438 0.85521
 C265 C 0.66591 0.83409 0.86479
 C266 C 0.67572 0.85428 0.85546
 C267 C 0.66490 0.86506 0.83651
 H268 H 0.62008 0.82765 0.82835
 H269 H 0.67386 0.82598 0.87975
 H270 H 0.67242 0.88057 0.82912
 C271 C 0.14533 0.35526 0.82549
 C272 C 0.13629 0.33448 0.83478
 C273 C 0.14658 0.32367 0.85399
 C274 C 0.16621 0.33368 0.86411
 C275 C 0.17579 0.35411 0.85518
 C276 C 0.16512 0.36493 0.83615
 H277 H 0.12089 0.32675 0.82746
 H278 H 0.17396 0.32561 0.87919
 H279 H 0.17338 0.38004 0.82876
 C280 C 0.14809 0.85256 0.32318
 C281 C 0.13783 0.83308 0.33388
 C282 C 0.14786 0.82276 0.35356
 C283 C 0.16796 0.83247 0.36315
 C284 C 0.17836 0.85190 0.35305
 C285 C 0.16832 0.86182 0.33328
 H286 H 0.12299 0.82477 0.32604
 H287 H 0.17580 0.82461 0.37830
 H288 H 0.17598 0.87749 0.32641
 O289 O 0.97764 0.91557 0.88499
 O290 O 0.97760 0.88843 0.85810
 C291 C 0.96975 0.90736 0.86617
 C292 C 0.95090 0.91975 0.85389
 C293 C 0.94299 0.91199 0.83223
 H294 H 0.95136 0.89736 0.82396
 O295 O 1.02263 1.08298 0.88408
 O296 O 1.02263 1.10983 0.85687
 C297 C 1.03050 1.09099 0.86513
 C298 C 1.04942 1.07857 0.85296
 C299 C 1.05745 1.08629 0.83130
 H300 H 1.04905 1.10084 0.82292
 O301 O 0.88513 0.97686 0.91623
 O302 O 0.85808 0.97658 0.88926
 C303 C 0.86635 0.96878 0.90813
 C304 C 0.85444 0.94970 0.92047
 C305 C 0.83351 0.94064 0.91198
 H306 H 0.82568 0.94804 0.89660
 O307 O 1.11529 1.02187 0.91574
 O308 O 1.14234 1.02172 0.88871
 C309 C 1.13412 1.02975 0.90751
 C310 C 1.14612 1.04893 0.91960
 C311 C 1.16689 1.05803 0.91073
 H312 H 1.17456 1.05058 0.89528
 O313 O 0.91705 0.88491 0.97866
 O314 O 0.89010 0.85789 0.97894
 C315 C 0.90890 0.86602 0.97090
 C316 C 0.92097 0.85378 0.95181
 C317 C 0.91236 0.83269 0.94339
 H318 H 0.89759 0.82472 0.95178
 O319 O 1.08387 1.11448 0.97707
 O320 O 1.11087 1.14146 0.97682
 C321 C 1.09206 1.13322 0.96895
 C322 C 1.08003 1.14516 0.94965
 C323 C 1.08886 1.16593 0.94063
 H324 H 1.10385 1.17387 0.94863
 O325 O 0.91643 1.02222 0.88433
 O326 O 0.88938 1.02218 0.85737
 C327 C 0.90812 1.03023 0.86557
 C328 C 0.92007 1.04955 0.85361
 C329 C 0.91112 1.05885 0.83293
 H330 H 0.89557 1.05154 0.82546
 O331 O 1.08356 0.97659 0.88427
 O332 O 1.11049 0.97638 0.85712
 C333 C 1.09166 0.96857 0.86541
 C334 C 1.07934 0.94956 0.85340
 C335 C 1.08711 0.94142 0.83179
 H336 H 1.10196 0.94945 0.82359
 O337 O 1.02286 0.88411 0.91691
 O338 O 1.02294 0.85680 0.89019
 C339 C 1.03088 0.86523 0.90892
 C340 C 1.05008 0.85342 0.92122
 C341 C 1.05907 0.83234 0.91294
 H342 H 1.05153 0.82431 0.89775
 O343 O 0.97759 1.11500 0.91590
 O344 O 0.97770 1.14209 0.88894
 C345 C 0.96975 1.13391 0.90780
 C346 C 0.95080 1.14613 0.92014
 C347 C 0.94281 1.16776 0.91235
 H348 H 0.95092 1.17585 0.89746
 O349 O 0.88472 1.08358 0.97703
 O350 O 0.85766 1.11057 0.97682
 C351 C 0.86593 1.09172 0.96897
 C352 C 0.85396 1.07939 0.94990
 C353 C 0.83286 1.08772 0.94100
 H354 H 0.82511 1.10314 0.94838
 O355 O 1.11538 0.91667 0.97834
 O356 O 1.14246 0.88970 0.97843
 C357 C 1.13422 0.90848 0.97040
 C358 C 1.14621 0.92043 0.95107
 C359 C 1.16729 0.91184 0.94247
 H360 H 1.17550 0.89728 0.95102
 O361 O 0.97744 1.08309 0.88433
 O362 O 0.97740 1.11007 0.85726
 C363 C 0.96945 1.09127 0.86552
 C364 C 0.95019 1.07926 0.85357
 C365 C 0.94123 1.08806 0.83274
 H366 H 0.94944 1.10286 0.82467
 O367 O 1.02276 0.91548 0.88486
 O368 O 1.02280 0.88833 0.85797
 C369 C 1.03066 0.90724 0.86602
 C370 C 1.04956 0.91951 0.85372
 C371 C 1.05758 0.91161 0.83212
 H372 H 1.04922 0.89698 0.82389
 O373 O 1.11518 0.97669 0.91607
 O374 O 1.14225 0.97642 0.88906
 C375 C 1.13401 0.96864 0.90796
 C376 C 1.14605 0.94965 0.92037
 C377 C 1.16700 0.94059 0.91185
 H378 H 1.17459 0.94782 0.89627
 O379 O 0.88510 1.02201 0.91645
 O380 O 0.85795 1.02179 0.88958
 C381 C 0.86617 1.02980 0.90837
 C382 C 0.85404 1.04891 0.92049
 C383 C 0.83280 1.05725 0.91211
 H384 H 0.82460 1.04861 0.89762
 O385 O 0.91646 1.11522 0.97701
 O386 O 0.88954 1.14235 0.97697
 C387 C 0.90838 1.13409 0.96907
 C388 C 0.92075 1.14618 0.95006
 C389 C 0.91301 1.16781 0.94201
 H390 H 0.89847 1.17621 0.95044
 O391 O 1.08368 0.88495 0.97832
 O392 O 1.11073 0.85793 0.97839
 C393 C 1.09191 0.86612 0.97041
 C394 C 1.07988 0.85395 0.95130
 C395 C 1.08855 0.83287 0.94281
 H396 H 1.10341 0.82492 0.95108
 O397 O 1.08353 1.02176 0.88407
 O398 O 1.11045 1.02159 0.85691
 C399 C 1.09163 1.02957 0.86514
 C400 C 1.07930 1.04851 0.85294
 C401 C 1.08709 1.05649 0.83128
 H402 H 1.10198 1.04840 0.82318
 O403 O 0.91695 0.97697 0.88452
 O404 O 0.89003 0.97687 0.85743
 C405 C 0.90888 0.96902 0.86566
 C406 C 0.92123 0.95001 0.85358
 C407 C 0.91358 0.94202 0.83190
 H408 H 0.89883 0.95020 0.82367
 O409 O 1.02284 1.11472 0.91581
 O410 O 1.02299 1.14167 0.88871
 C411 C 1.03091 1.13344 0.90754
 C412 C 1.05017 1.14533 0.91961
 C413 C 1.05929 1.16614 0.91084
 H414 H 1.05179 1.17391 0.89549
 O415 O 0.97766 0.88407 0.91698
 O416 O 0.97757 0.85678 0.89025
 C417 C 0.96968 0.86519 0.90904
 C418 C 0.95060 0.85333 0.92147
 C419 C 0.94164 0.83226 0.91323
 H420 H 0.94910 0.82429 0.89794
 O421 O 1.11550 1.08266 0.97717
 O422 O 1.14254 1.10960 0.97690
 C423 C 1.13427 1.09079 0.96905
 C424 C 1.14615 1.07871 0.94973
 C425 C 1.16691 1.08751 0.94064
 H426 H 1.17491 1.10246 0.94863
 O427 O 0.88531 0.91666 0.97823
 O428 O 0.85834 0.88967 0.97842
 C429 C 0.86656 0.90838 0.97028
 C430 C 0.85459 0.92019 0.95088
 C431 C 0.83370 0.91139 0.94214
 H432 H 0.82571 0.89655 0.95038
 Cu433 Cu 1.00022 0.90251 0.90363
 Cu434 Cu 1.00022 0.86982 0.87145
 Cu435 Cu 1.00012 1.09627 0.90275
 Cu436 Cu 1.00018 1.12862 0.87023
 Cu437 Cu 0.90363 0.99951 0.90306
 Cu438 Cu 0.87115 0.99933 0.87070
 Cu439 Cu 1.09669 0.99925 0.90274
 Cu440 Cu 1.12911 0.99901 0.87024
 C441 C 0.94005 0.93890 0.86431
 H442 H 0.94584 0.94477 0.88117
 C443 C 0.92435 0.92303 0.82109
 C444 C 1.06032 1.05953 0.86351
 H445 H 1.05443 1.05369 0.88037
 C446 C 1.07629 1.07538 0.82033
 C447 C 0.86472 0.93948 0.94006
 H448 H 0.88103 0.94612 0.94648
 C449 C 0.82311 0.92141 0.92264
 C450 C 1.13601 1.05927 0.93923
 H451 H 1.11978 1.05263 0.94591
 C452 C 1.17731 1.07742 0.92106
 C453 C 0.94025 0.86384 0.94089
 H454 H 0.94676 0.88029 0.94709
 C455 C 0.92244 0.82188 0.92402
 C456 C 1.06054 1.13511 0.93915
 H457 H 1.05387 1.11887 0.94578
 C458 C 1.07873 1.17647 0.92117
 C459 C 0.93968 1.05982 0.86370
 H460 H 0.94636 1.05309 0.87991
 C461 C 0.92152 1.07819 0.82240
 C462 C 1.06041 0.93863 0.86410
 H463 H 1.05454 0.94461 0.88091
 C464 C 1.07635 0.92245 0.82103
 C465 C 1.06050 0.86397 0.94053
 H466 H 1.05395 0.88041 0.94678
 C467 C 1.07838 0.82201 0.92357
 C468 C 0.93978 1.13560 0.93915
 H469 H 0.94564 1.11877 0.94505
 C470 C 0.92393 1.17874 0.92317
 C471 C 0.86433 1.05991 0.93958
 H472 H 0.88084 1.05370 0.94598
 C473 C 0.82216 1.07678 0.92205
 C474 C 1.13588 0.93953 0.94008
 H475 H 1.11947 0.94608 0.94645
 C476 C 1.17773 0.92162 0.92274
 O477 O 1.02327 0.91682 1.11662
 O478 O 1.02334 0.88992 1.14376
 C479 C 1.03131 0.90865 1.13542
 C480 C 1.05055 0.92075 1.14730
 C481 C 1.05983 0.91190 1.16802
 H482 H 1.05258 0.89631 1.17550
 O483 O 0.97766 1.08399 1.11537
 O484 O 0.97760 1.11121 1.14218
 C485 C 0.96967 1.09235 1.13412
 C486 C 0.95049 1.08039 1.14628
 C487 C 0.94186 1.08907 1.16732
 H488 H 0.95011 1.10390 1.17530
 O489 O 0.88491 1.02307 1.08415
 O490 O 0.85777 1.02326 1.11109
 C491 C 0.86602 1.03103 1.09218
 C492 C 0.85386 1.04988 1.07966
 C493 C 0.83225 1.05799 1.08743
 H494 H 0.82394 1.04974 1.10211
 O495 O 1.11584 0.97770 1.08470
 O496 O 1.14291 0.97777 1.11164
 C497 C 1.13464 0.96971 1.09290
 C498 C 1.14650 0.95038 1.08084
 C499 C 1.16741 0.94129 1.08943
 H500 H 1.17530 0.94888 1.10467
 O501 O 1.08367 0.88481 1.02359
 O502 O 1.11062 0.85770 1.02358
 C503 C 1.09176 0.86591 1.03147
 C504 C 1.07945 0.85377 1.05047
 C505 C 1.08716 0.83208 1.05841
 H506 H 1.10144 0.82360 1.04966
 O507 O 0.91635 1.11529 1.02225
 O508 O 0.88933 1.14232 1.02230
 C509 C 0.90816 1.13411 1.03022
 C510 C 0.92036 1.14613 1.04934
 C511 C 0.91180 1.16713 1.05826
 H512 H 0.89645 1.17489 1.05075
 O513 O 0.91667 0.97813 1.11626
 O514 O 0.88973 0.97828 1.14340
 C515 C 0.90860 0.97035 1.13522
 C516 C 0.92103 0.95151 1.14750
 C517 C 0.91325 0.94353 1.16917
 H518 H 0.89827 0.95151 1.17720
 O519 O 1.08421 1.02326 1.11602
 O520 O 1.11109 1.02341 1.14317
 C521 C 1.09229 1.03131 1.13484
 C522 C 1.07989 1.05035 1.14683
 C523 C 1.08757 1.05857 1.16841
 H524 H 1.10264 1.05075 1.17640
 O525 O 0.97782 0.88523 1.08525
 O526 O 0.97767 0.85834 1.11241
 C527 C 0.96974 0.86653 1.09356
 C528 C 0.95048 0.85463 1.08151
 C529 C 0.94137 0.83382 1.09027
 H530 H 0.94887 0.82603 1.10562
 O531 O 1.02300 1.11542 1.08346
 O532 O 1.02295 1.14270 1.11020
 C533 C 1.03091 1.13432 1.09144
 C534 C 1.04995 1.14630 1.07907
 C535 C 1.05817 1.16782 1.08687
 H536 H 1.05016 1.17600 1.10176
 O537 O 0.88500 0.91701 1.02355
 O538 O 0.85793 0.89012 1.02366
 C539 C 0.86610 0.90897 1.03147
 C540 C 0.85387 0.92136 1.05036
 C541 C 0.83220 0.91364 1.05829
 H542 H 0.82411 0.89882 1.05014
 O543 O 1.11579 1.08305 1.02250
 O544 O 1.14280 1.11001 1.02220
 C545 C 1.13462 1.09127 1.03033
 C546 C 1.14672 1.07934 1.04960
 C547 C 1.16771 1.08801 1.05823
 H548 H 1.17574 1.10279 1.04990
 O549 O 1.02287 1.08392 1.11551
 O550 O 1.02278 1.11110 1.14236
 C551 C 1.03069 1.09218 1.13436
 C552 C 1.04962 1.07997 1.14668
 C553 C 1.05731 1.08773 1.16843
 H554 H 1.04841 1.10197 1.17681
 O555 O 0.97806 0.91727 1.11664
 O556 O 0.97806 0.89050 1.14393
 C557 C 0.97017 0.90931 1.13560
 C558 C 0.95119 0.92172 1.14768
 C559 C 0.94320 0.91404 1.16936
 H560 H 0.95175 0.89963 1.17782
 O561 O 1.11599 1.02288 1.08431
 O562 O 1.14301 1.02307 1.11131
 C563 C 1.13482 1.03085 1.09240
 C564 C 1.14685 1.04983 1.08000
 C565 C 1.16783 1.05882 1.08844
 H566 H 1.17562 1.05141 1.10384
 O567 O 0.88481 0.97793 1.08466
 O568 O 0.85770 0.97803 1.11163
 C569 C 0.86594 0.97007 1.09281
 C570 C 0.85383 0.95113 1.08048
 C571 C 0.83216 0.94315 1.08819
 H572 H 0.82376 0.95154 1.10274
 O573 O 1.08404 1.11484 1.02238
 O574 O 1.11099 1.14186 1.02209
 C575 C 1.09219 1.13373 1.03015
 C576 C 1.07998 1.14597 1.04915
 C577 C 1.08799 1.16747 1.05723
 H578 H 1.10265 1.17566 1.04886
 O579 O 0.91692 0.88541 1.02398
 O580 O 0.88989 0.85846 1.02421
 C581 C 0.90868 0.86670 1.03212
 C582 C 0.92064 0.85480 1.05147
 C583 C 0.91182 0.83402 1.06046
 H584 H 0.89685 0.82607 1.05244
 O585 O 1.08401 0.97807 1.11634
 O586 O 1.11097 0.97814 1.14339
 C587 C 1.09215 0.97020 1.13522
 C588 C 1.08010 0.95103 1.14730
 C589 C 1.08885 0.94217 1.16820
 H590 H 1.10358 0.95048 1.17627
 O591 O 0.91640 1.02332 1.11606
 O592 O 0.88941 1.02358 1.14314
 C593 C 0.90821 1.03144 1.13483
 C594 C 0.92039 1.05065 1.14667
 C595 C 0.91194 1.05967 1.16768
 H596 H 0.89667 1.05217 1.17560
 O597 O 0.97774 1.11529 1.08320
 O598 O 0.97770 1.14257 1.10996
 C599 C 0.96977 1.13418 1.09121
 C600 C 0.95056 1.14613 1.07905
 C601 C 0.94182 1.16715 1.08760
 H602 H 0.95003 1.17527 1.10239
 O603 O 1.02302 0.88509 1.08495
 O604 O 1.02295 0.85806 1.11198
 C605 C 1.03087 0.86621 1.09310
 C606 C 1.04977 0.85398 1.08072
 C607 C 1.05791 0.83244 1.08861
 H608 H 1.05005 0.82459 1.10374
 O609 O 1.11533 0.91662 1.02370
 O610 O 1.14233 0.88956 1.02375
 C611 C 1.13411 0.90838 1.03170
 C612 C 1.14615 0.92039 1.05092
 C613 C 1.16703 0.91158 1.05975
 H614 H 1.17496 0.89658 1.05171
 O615 O 0.88470 1.08357 1.02231
 O616 O 0.85754 1.11046 1.02218
 C617 C 0.86580 1.09168 1.03019
 C618 C 0.85370 1.07946 1.04929
 C619 C 0.83208 1.08728 1.05729
 H620 H 0.82391 1.10206 1.04908
 Cu621 Cu 1.00055 0.90379 1.09815
 Cu622 Cu 1.00049 0.87151 1.13076
 Cu623 Cu 1.00036 1.09693 1.09670
 Cu624 Cu 1.00026 1.12964 1.12885
 Cu625 Cu 0.90377 0.90371 1.00110
 Cu626 Cu 0.87137 0.87132 1.00134
 Cu627 Cu 1.09682 0.90348 1.00101
 Cu628 Cu 1.12926 0.87104 1.00104
 Cu629 Cu 0.90325 1.09671 0.99965
 Cu630 Cu 0.87080 1.12914 0.99956
 Cu631 Cu 1.09710 1.09605 0.99984
 Cu632 Cu 1.12952 1.12842 0.99948
 Cu633 Cu 0.90341 1.00058 1.09759
 Cu634 Cu 0.87094 1.00079 1.13005
 Cu635 Cu 1.09733 1.00049 1.09764
 Cu636 Cu 1.12971 1.00062 1.13010
 C637 C 1.06074 0.94039 1.13715
 H638 H 1.05405 0.94697 1.12089
 C639 C 1.07904 0.92244 1.17858
 C640 C 0.93979 1.06102 1.13622
 H641 H 0.94615 1.05444 1.11982
 C642 C 0.92252 1.07894 1.17809
 C643 C 0.86434 1.06060 1.06045
 H644 H 0.88116 1.05467 1.05458
 C645 C 0.82123 1.07667 1.07635
 C646 C 1.13614 0.93992 1.06145
 H647 H 1.11984 0.94657 1.05495
 C648 C 1.17773 0.92182 1.07906
 C649 C 1.06057 0.86441 1.06156
 H650 H 1.05469 0.88123 1.05566
 C651 C 1.07656 0.82127 1.07753
 C652 C 0.93986 1.13587 1.05976
 H653 H 0.94630 1.11947 1.05328
 C654 C 0.92235 1.17768 1.07747
 C655 C 0.94014 0.94061 1.13701
 H656 H 0.94601 0.94642 1.12014
 C657 C 0.92422 0.92479 1.18022
 C658 C 1.06083 1.06109 1.13619
 H659 H 1.05509 1.05514 1.11933
 C660 C 1.07634 1.07720 1.17945
 C661 C 0.94012 0.86486 1.06198
 H662 H 0.94678 0.88110 1.05535
 C663 C 0.92195 0.82348 1.07992
 C664 C 1.06083 1.13565 1.06006
 H665 H 1.05479 1.11892 1.05414
 C666 C 1.07718 1.17853 1.07607
 C667 C 0.86442 0.94025 1.06142
 H668 H 0.88127 0.94608 1.05560
 C669 C 0.82120 0.92443 1.07717
 C670 C 1.13657 1.06009 1.06045
 H671 H 1.12019 1.05354 1.05410
 C672 C 1.17833 1.07799 1.07772
 O673 O 1.08387 0.52300 0.61586
 O674 O 1.11080 0.52320 0.64295
 C675 C 1.09199 0.53110 0.63464
 C676 C 1.07973 0.55033 0.64648
 C677 C 1.08802 0.55928 0.66756
 H678 H 1.10321 0.55170 0.67557
 O679 O 0.91625 0.47839 0.61649
 O680 O 0.88935 0.47866 0.64367
 C681 C 0.90820 0.47069 0.63549
 C682 C 0.92062 0.45189 0.64779
 C683 C 0.91301 0.44411 0.66959
 H684 H 0.89851 0.45262 0.67798
 O685 O 1.02265 0.61543 0.58307
 O686 O 1.02277 0.64271 0.60982
 C687 C 1.03070 0.63426 0.59108
 C688 C 1.04998 0.64599 0.57886
 C689 C 1.05909 0.66687 0.58738
 H690 H 1.05153 0.67484 0.60263
 O691 O 0.97724 0.38584 0.58506
 O692 O 0.97703 0.35887 0.61214
 C693 C 0.96913 0.36713 0.59330
 C694 C 0.94985 0.35529 0.58120
 C695 C 0.94056 0.33459 0.59005
 H696 H 0.94793 0.32687 0.60550
 O697 O 1.11571 0.58260 0.52219
 O698 O 1.14273 0.60955 0.52192
 C699 C 1.13452 0.59083 0.53005
 C700 C 1.14657 0.57896 0.54938
 C701 C 1.16755 0.58766 0.55800
 H702 H 1.17559 0.60240 0.54964
 O703 O 0.88456 0.41759 0.52311
 O704 O 0.85757 0.39060 0.52323
 C705 C 0.86575 0.40943 0.53112
 C706 C 0.85375 0.42145 0.55040
 C707 C 0.83284 0.41273 0.55923
 H708 H 0.82474 0.39806 0.55084
 O709 O 0.97734 0.58416 0.61511
 O710 O 0.97741 0.61138 0.64193
 C711 C 0.96942 0.59253 0.63389
 C712 C 0.95024 0.58061 0.64609
 C713 C 0.94172 0.58929 0.66717
 H714 H 0.94999 0.60411 0.67513
 O715 O 1.02260 0.41731 0.61672
 O716 O 1.02257 0.39037 0.64384
 C717 C 1.03050 0.40918 0.63560
 C718 C 1.04955 0.42139 0.64767
 C719 C 1.05767 0.41350 0.66922
 H720 H 1.04903 0.39915 0.67766
 O721 O 1.11541 0.47748 0.58439
 O722 O 1.14247 0.47748 0.61135
 C723 C 1.13418 0.46945 0.59259
 C724 C 1.14604 0.45011 0.58054
 C725 C 1.16689 0.44102 0.58923
 H726 H 1.17472 0.44862 0.60449
 O727 O 0.88449 0.52315 0.58418
 O728 O 0.85731 0.52337 0.61108
 C729 C 0.86557 0.53110 0.59216
 C730 C 0.85343 0.54991 0.57957
 C731 C 0.83174 0.55795 0.58718
 H732 H 0.82333 0.54962 0.60176
 O733 O 0.91630 0.61519 0.52227
 O734 O 0.88936 0.64230 0.52216
 C735 C 0.90816 0.63407 0.53013
 C736 C 0.92030 0.64621 0.54919
 C737 C 0.91172 0.66729 0.55779
 H738 H 0.89681 0.67528 0.54966
 O739 O 1.08310 0.38474 0.52326
 O740 O 1.10992 0.35750 0.52344
 C741 C 1.09109 0.36585 0.53126
 C742 C 1.07871 0.35386 0.55031
 C743 C 1.08629 0.33214 0.55825
 H744 H 1.10047 0.32353 0.54944
 O745 O 0.91605 0.52354 0.61602
 O746 O 0.88904 0.52392 0.64309
 C747 C 0.90787 0.53172 0.63477
 C748 C 0.92010 0.55092 0.64658
 C749 C 0.91181 0.55988 0.66767
 H750 H 0.89661 0.55235 0.67570
 O751 O 1.08393 0.47781 0.61633
 O752 O 1.11084 0.47790 0.64344
 C753 C 1.09203 0.46996 0.63524
 C754 C 1.07972 0.45103 0.64745
 C755 C 1.08781 0.44269 0.66885
 H756 H 1.10302 0.45041 0.67661
 O757 O 1.02248 0.38553 0.58501
 O758 O 1.02235 0.35845 0.61198
 C759 C 1.03030 0.36662 0.59311
 C760 C 1.04915 0.35431 0.58069
 C761 C 1.05718 0.33272 0.58857
 H762 H 1.04933 0.32493 0.60374
 O763 O 0.97740 0.61573 0.58322
 O764 O 0.97749 0.64302 0.60995
 C765 C 0.96949 0.63465 0.59124
 C766 C 0.95031 0.64658 0.57905
 C767 C 0.94144 0.66766 0.58744
 H768 H 0.94909 0.67561 0.60262
 O769 O 0.88454 0.58353 0.52238
 O770 O 0.85750 0.61054 0.52217
 C771 C 0.86566 0.59173 0.53021
 C772 C 0.85346 0.57955 0.54926
 C773 C 0.83178 0.58736 0.55715
 H774 H 0.82368 0.60216 0.54892
 O775 O 1.11503 0.41625 0.52336
 O776 O 1.14193 0.38910 0.52359
 C777 C 1.13376 0.40797 0.53145
 C778 C 1.14575 0.42003 0.55068
 C779 C 1.16657 0.41121 0.55965
 H780 H 1.17449 0.39614 0.55172
 O781 O 0.97743 0.41753 0.61680
 O782 O 0.97737 0.39068 0.64401
 C783 C 0.96954 0.40953 0.63575
 C784 C 0.95066 0.42200 0.64792
 C785 C 0.94281 0.41446 0.66971
 H786 H 0.95095 0.39967 0.67791
 O787 O 1.02257 0.58395 0.61506
 O788 O 1.02263 0.61116 0.64188
 C789 C 1.03052 0.59224 0.63383
 C790 C 1.04963 0.58017 0.64601
 C791 C 1.05813 0.58880 0.66709
 H792 H 1.04986 0.60366 0.67505
 O793 O 0.88454 0.47800 0.58478
 O794 O 0.85749 0.47808 0.61181
 C795 C 0.86576 0.47004 0.59303
 C796 C 0.85382 0.45085 0.58089
 C797 C 0.83304 0.44165 0.58967
 H798 H 0.82550 0.44890 0.60527
 O799 O 1.11578 0.52264 0.58426
 O800 O 1.14285 0.52279 0.61120
 C801 C 1.13464 0.53059 0.59231
 C802 C 1.14667 0.54954 0.57988
 C803 C 1.16767 0.55854 0.58828
 H804 H 1.17548 0.55116 0.60368
 O805 O 0.91641 0.38601 0.52346
 O806 O 0.88946 0.35899 0.52363
 C807 C 0.90821 0.36729 0.53159
 C808 C 0.92013 0.35544 0.55101
 C809 C 0.91116 0.33477 0.56010
 H810 H 0.89618 0.32685 0.55208
 O811 O 1.08389 0.61432 0.52201
 O812 O 1.11090 0.64128 0.52181
 C813 C 1.09208 0.63316 0.52983
 C814 C 1.08002 0.64537 0.54895
 C815 C 1.08887 0.66623 0.55774
 H816 H 1.10395 0.67402 0.54972
 Cu817 Cu 1.09705 0.50024 0.59752
 Cu818 Cu 1.12946 0.50036 0.62995
 Cu819 Cu 0.90303 0.50074 0.59767
 Cu820 Cu 0.87057 0.50104 0.63012
 Cu821 Cu 0.99998 0.59710 0.59642
 Cu822 Cu 1.00009 0.62980 0.62859
 Cu823 Cu 0.99996 0.40424 0.59818
 Cu824 Cu 0.99984 0.37187 0.63069
 C825 C 1.06039 0.56079 0.63596
 H826 H 1.05414 0.55426 0.61952
 C827 C 1.07738 0.57859 0.67792
 C828 C 0.93960 0.44086 0.63723
 H829 H 0.94536 0.44654 0.62028
 C830 C 0.92401 0.42541 0.68069
 C831 C 1.06043 0.63551 0.55949
 H832 H 1.05375 0.61921 0.55306
 C833 C 1.07862 0.67703 0.57701
 C834 C 0.93962 0.36547 0.56155
 H835 H 0.94640 0.38163 0.55486
 C836 C 0.92112 0.32432 0.57969
 C837 C 1.13640 0.55975 0.56029
 H838 H 1.12002 0.55319 0.55395
 C839 C 1.17817 0.57768 0.57751
 C840 C 0.86394 0.44069 0.56117
 H841 H 0.88022 0.44734 0.55461
 C842 C 0.82246 0.42251 0.57901
 C843 C 0.93946 0.56129 0.63605
 H844 H 0.94573 0.55473 0.61960
 C845 C 0.92246 0.57912 0.67804
 C846 C 1.06050 0.44035 0.63709
 H847 H 1.05447 0.44639 0.62036
 C848 C 1.07689 0.42393 0.67993
 C849 C 1.13573 0.43962 0.56112
 H850 H 1.11946 0.44629 0.55455
 C851 C 1.17719 0.42150 0.57897
 C852 C 0.86402 0.56068 0.56046
 H853 H 0.88089 0.55478 0.55469
 C854 C 0.82078 0.57668 0.57610
 C855 C 0.93973 0.63612 0.55978
 H856 H 0.94621 0.61967 0.55345
 C857 C 0.92207 0.67808 0.57698
 C858 C 1.05995 0.36466 0.56147
 H859 H 1.05415 0.38151 0.55557
 C860 C 1.07572 0.32143 0.57744
 O861 O 1.08387 0.47630 0.38409
 O862 O 1.11079 0.47601 0.35694
 C863 C 1.09195 0.46824 0.36524
 C864 C 1.07950 0.44932 0.35320
 C865 C 1.08718 0.44115 0.33157
 H866 H 1.10225 0.44894 0.32358
 O867 O 0.91641 0.52245 0.38420
 O868 O 0.88954 0.52236 0.35706
 C869 C 0.90832 0.53030 0.36529
 C870 C 0.92063 0.54922 0.35310
 C871 C 0.91261 0.55749 0.33165
 H872 H 0.89743 0.54974 0.32386
 O873 O 0.97780 0.61452 0.41573
 O874 O 0.97786 0.64161 0.38877
 C875 C 0.96995 0.63342 0.40764
 C876 C 0.95104 0.64564 0.42005
 C877 C 0.94313 0.66734 0.41233
 H878 H 0.95126 0.67546 0.39747
 O879 O 1.02281 0.38434 0.41663
 O880 O 1.02271 0.35705 0.38989
 C881 C 1.03069 0.36541 0.40863
 C882 C 1.04968 0.35333 0.42101
 C883 C 1.05782 0.33174 0.41325
 H884 H 1.04984 0.32361 0.39834
 O885 O 1.11519 0.41621 0.47801
 O886 O 1.14214 0.38911 0.47823
 C887 C 1.13401 0.40791 0.47015
 C888 C 1.14610 0.41980 0.45083
 C889 C 1.16715 0.41111 0.44224
 H890 H 1.17527 0.39648 0.45076
 O891 O 0.88451 0.58353 0.47709
 O892 O 0.85761 0.61068 0.47686
 C893 C 0.86577 0.59180 0.46902
 C894 C 0.85382 0.57971 0.44982
 C895 C 0.83295 0.58842 0.44079
 H896 H 0.82514 0.60373 0.44837
 O897 O 1.02287 0.58257 0.38388
 O898 O 1.02290 0.60945 0.35670
 C899 C 1.03075 0.59059 0.36494
 C900 C 1.04967 0.57816 0.35277
 C901 C 1.05759 0.58578 0.33104
 H902 H 1.04887 0.60008 0.32256
 O903 O 0.97742 0.41584 0.38492
 O904 O 0.97723 0.38867 0.35806
 C905 C 0.96940 0.40759 0.36617
 C906 C 0.95048 0.41994 0.35397
 C907 C 0.94238 0.41205 0.33242
 H908 H 0.95021 0.39689 0.32459
 O909 O 1.11571 0.52146 0.41557
 O910 O 1.14278 0.52128 0.38856
 C911 C 1.13455 0.52933 0.40735
 C912 C 1.14651 0.54853 0.41942
 C913 C 1.16725 0.55772 0.41054
 H914 H 1.17495 0.55027 0.39511
 O915 O 0.88469 0.47745 0.41612
 O916 O 0.85766 0.47732 0.38914
 C917 C 0.86584 0.46952 0.40804
 C918 C 0.85371 0.45065 0.42048
 C919 C 0.83216 0.44252 0.41270
 H920 H 0.82383 0.45084 0.39808
 O921 O 1.08389 0.61408 0.47671
 O922 O 1.11088 0.64107 0.47658
 C923 C 1.09208 0.63286 0.46867
 C924 C 1.08006 0.64488 0.44943
 C925 C 1.08886 0.66571 0.44053
 H926 H 1.10382 0.67363 0.44860
 O927 O 0.91646 0.38540 0.47817
 O928 O 0.88955 0.35833 0.47838
 C929 C 0.90841 0.36644 0.47045
 C930 C 0.92079 0.35406 0.45165
 C931 C 0.91301 0.33237 0.44390
 H932 H 0.89845 0.32415 0.45243
 O933 O 0.91664 0.47728 0.38454
 O934 O 0.88975 0.47716 0.35741
 C935 C 0.90858 0.46930 0.36568
 C936 C 0.92090 0.45026 0.35366
 C937 C 0.91327 0.44234 0.33196
 H938 H 0.89907 0.45113 0.32341
 O939 O 1.08391 0.52150 0.38399
 O940 O 1.11084 0.52128 0.35683
 C941 C 1.09205 0.52933 0.36507
 C942 C 1.07976 0.54832 0.35290
 C943 C 1.08765 0.55642 0.33132
 H944 H 1.10274 0.54850 0.32342
 O945 O 0.97763 0.38447 0.41699
 O946 O 0.97746 0.35715 0.39028
 C947 C 0.96967 0.36556 0.40911
 C948 C 0.95077 0.35360 0.42168
 C949 C 0.94273 0.33192 0.41417
 H950 H 0.95076 0.32364 0.39934
 O951 O 1.02302 0.61450 0.41541
 O952 O 1.02316 0.64150 0.38836
 C953 C 1.03106 0.63325 0.40719
 C954 C 1.05027 0.64514 0.41933
 C955 C 1.05938 0.66600 0.41066
 H956 H 1.05192 0.67381 0.39530
 O957 O 0.88461 0.41713 0.47778
 O958 O 0.85762 0.39015 0.47795
 C959 C 0.86580 0.40891 0.46989
 C960 C 0.85368 0.42102 0.45075
 C961 C 0.83215 0.41308 0.44269
 H962 H 0.82411 0.39822 0.45085
 O963 O 1.11561 0.58227 0.47683
 O964 O 1.14261 0.60925 0.47663
 C965 C 1.13439 0.59043 0.46876
 C966 C 1.14637 0.57838 0.44948
 C967 C 1.16710 0.58725 0.44039
 H968 H 1.17502 0.60226 0.44836
 O969 O 1.02258 0.41581 0.38458
 O970 O 1.02245 0.38866 0.35769
 C971 C 1.03036 0.40756 0.36569
 C972 C 1.04925 0.41978 0.35333
 C973 C 1.05691 0.41209 0.33153
 H974 H 1.04801 0.39790 0.32313
 O975 O 0.97772 0.58294 0.38382
 O976 O 0.97771 0.60988 0.35672
 C977 C 0.96981 0.59107 0.36495
 C978 C 0.95080 0.57884 0.35287
 C979 C 0.94275 0.58667 0.33127
 H980 H 0.95142 0.60099 0.32281
 O981 O 0.88482 0.52261 0.41604
 O982 O 0.85784 0.52256 0.38900
 C983 C 0.86603 0.53056 0.40781
 C984 C 0.85401 0.54979 0.41984
 C985 C 0.83317 0.55876 0.41106
 H986 H 0.82523 0.55081 0.39604
 O987 O 1.11541 0.47629 0.41594
 O988 O 1.14249 0.47596 0.38895
 C989 C 1.13420 0.46818 0.40784
 C990 C 1.14614 0.44911 0.42022
 C991 C 1.16706 0.43997 0.41172
 H992 H 1.17471 0.44722 0.39618
 O993 O 1.08356 0.38445 0.47796
 O994 O 1.11043 0.35726 0.47818
 C995 C 1.09169 0.36554 0.47012
 C996 C 1.07953 0.35342 0.45105
 C997 C 1.08746 0.33184 0.44300
 H998 H 1.10201 0.32352 0.45145
 O999 O 0.91657 0.61484 0.47702
 O1000 O 0.88977 0.64209 0.47689
 C1001 C 0.90858 0.63373 0.46903
 C1002 C 0.92101 0.64574 0.45001
 C1003 C 0.91335 0.66740 0.44201
 H1004 H 0.89883 0.67584 0.45044
 Cu1005 Cu 1.09703 0.49891 0.40260
 Cu1006 Cu 1.12945 0.49860 0.37011
 Cu1007 Cu 0.90334 0.49994 0.40294
 Cu1008 Cu 0.87098 0.49982 0.37043
 Cu1009 Cu 1.09708 0.59560 0.49946
 Cu1010 Cu 1.12949 0.62798 0.49921
 Cu1011 Cu 1.09653 0.40313 0.50063
 Cu1012 Cu 1.12882 0.37055 0.50089
 Cu1013 Cu 0.90316 0.59654 0.49971
 Cu1014 Cu 0.87086 0.62913 0.49951
 Cu1015 Cu 0.90320 0.40425 0.50056
 Cu1016 Cu 0.87085 0.37181 0.50080
 Cu1017 Cu 1.00034 0.59595 0.40243
 Cu1018 Cu 1.00040 0.62833 0.36993
 Cu1019 Cu 1.00014 0.40284 0.40346
 Cu1020 Cu 0.99995 0.37014 0.37129
 C1021 C 1.06045 0.43859 0.36386
 H1022 H 1.05474 0.44449 0.38075
 C1023 C 1.07595 0.42259 0.32050
 C1024 C 0.93981 0.55992 0.36348
 H1025 H 0.94580 0.55393 0.38024
 C1026 C 0.92357 0.57620 0.32054
 C1027 C 0.93999 0.63510 0.43905
 H1028 H 0.94578 0.61824 0.44491
 C1029 C 0.92429 0.67833 0.42319
 C1030 C 1.06052 0.36391 0.44005
 H1031 H 1.05452 0.38069 0.44595
 C1032 C 1.07671 0.32086 0.42413
 C1033 C 1.13589 0.43898 0.43988
 H1034 H 1.11951 0.44560 0.44624
 C1035 C 1.17769 0.42093 0.42257
 C1036 C 0.86407 0.56025 0.43936
 H1037 H 0.88035 0.55368 0.44598
 C1038 C 0.82258 0.57813 0.42134
 C1039 C 1.06069 0.55923 0.36341
 H1040 H 1.05480 0.55339 0.38026
 C1041 C 1.07666 0.57512 0.32018
 C1042 C 0.93970 0.43913 0.36437
 H1043 H 0.94555 0.44503 0.38120
 C1044 C 0.92381 0.42316 0.32121
 C1045 C 1.13634 0.55887 0.43902
 H1046 H 1.12014 0.55217 0.44571
 C1047 C 1.17757 0.57718 0.42084
 C1048 C 0.86420 0.43993 0.43966
 H1049 H 0.88096 0.44591 0.44556
 C1050 C 0.82124 0.42373 0.42368
 C1051 C 1.06061 0.63485 0.43885
 H1052 H 1.05396 0.61857 0.44539
 C1053 C 1.07878 0.67631 0.42107
 C1054 C 0.93983 0.36441 0.44058
 H1055 H 0.94571 0.38129 0.44624
 C1056 C 0.92385 0.32117 0.42516
 O1057 O 0.47756 0.91648 0.38485
 O1058 O 0.47744 0.88941 0.35788
 C1059 C 0.46962 0.90833 0.36601
 C1060 C 0.45076 0.92078 0.35380
 C1061 C 0.44265 0.91298 0.33222
 H1062 H 0.45046 0.89785 0.32433
 O1063 O 0.52310 1.08313 0.38446
 O1064 O 0.52310 1.11008 0.35736
 C1065 C 0.53099 1.09123 0.36557
 C1066 C 0.55005 1.07900 0.35343
 C1067 C 0.55868 1.08749 0.33233
 H1068 H 0.55054 1.10238 0.32428
 O1069 O 0.38534 0.97747 0.41680
 O1070 O 0.35835 0.97724 0.38977
 C1071 C 0.36663 0.96935 0.40861
 C1072 C 0.35475 0.95009 0.42071
 C1073 C 0.33410 0.94093 0.41180
 H1074 H 0.32623 0.94876 0.39665
 O1075 O 0.61574 1.02193 0.41571
 O1076 O 0.64283 1.02179 0.38872
 C1077 C 0.63459 1.02980 0.40753
 C1078 C 0.64658 1.04894 0.41969
 C1079 C 0.66750 1.05796 0.41104
 H1080 H 0.67526 1.05050 0.39565
 O1081 O 0.41701 0.88517 0.47864
 O1082 O 0.39005 0.85816 0.47876
 C1083 C 0.40887 0.86632 0.47078
 C1084 C 0.42091 0.85420 0.45158
 C1085 C 0.41232 0.83312 0.44312
 H1086 H 0.39776 0.82501 0.45172
 O1087 O 0.58415 1.11456 0.47716
 O1088 O 0.61116 1.14152 0.47715
 C1089 C 0.59234 1.13338 0.46922
 C1090 C 0.58031 1.14549 0.45003
 C1091 C 0.58894 1.16651 0.44136
 H1092 H 0.60361 1.17457 0.44978
 O1093 O 0.41640 1.02309 0.38502
 O1094 O 0.38938 1.02306 0.35803
 C1095 C 0.40813 1.03109 0.36624
 C1096 C 0.42017 1.05031 0.35422
 C1097 C 0.41135 1.05946 0.33343
 H1098 H 0.39574 1.05219 0.32603
 O1099 O 0.58389 0.97677 0.38421
 O1100 O 0.61080 0.97659 0.35704
 C1101 C 0.59197 0.96878 0.36534
 C1102 C 0.57958 0.94983 0.35329
 C1103 C 0.58726 0.94176 0.33163
 H1104 H 0.60211 0.94978 0.32343
 O1105 O 0.52258 0.88483 0.41689
 O1106 O 0.52251 0.85757 0.39013
 C1107 C 0.53044 0.86588 0.40892
 C1108 C 0.54938 0.85377 0.42132
 C1109 C 0.55745 0.83218 0.41352
 H1110 H 0.54904 0.82385 0.39897
 O1111 O 0.47809 1.11513 0.41634
 O1112 O 0.47808 1.14218 0.38934
 C1113 C 0.47013 1.13397 0.40818
 C1114 C 0.45092 1.14596 0.42032
 C1115 C 0.44199 1.16692 0.41169
 H1116 H 0.44968 1.17478 0.39646
 O1117 O 0.38439 1.08375 0.47744
 O1118 O 0.35744 1.11085 0.47732
 C1119 C 0.36560 1.09199 0.46944
 C1120 C 0.35354 1.07979 0.45037
 C1121 C 0.33253 1.08831 0.44144
 H1122 H 0.32491 1.10378 0.44886
 O1123 O 0.61564 0.91620 0.47781
 O1124 O 0.64260 0.88911 0.47787
 C1125 C 0.63441 0.90790 0.46982
 C1126 C 0.64640 0.91988 0.45050
 C1127 C 0.66747 0.91134 0.44170
 H1128 H 0.67536 0.89618 0.44949
 O1129 O 0.47790 1.08345 0.38458
 O1130 O 0.47788 1.11042 0.35750
 C1131 C 0.46991 1.09165 0.36577
 C1132 C 0.45058 1.07969 0.35389
 C1133 C 0.44179 1.08831 0.33291
 H1134 H 0.45024 1.10288 0.32466
 O1135 O 0.52274 0.91603 0.38462
 O1136 O 0.52269 0.88892 0.35770
 C1137 C 0.53064 0.90776 0.36578
 C1138 C 0.54964 0.91993 0.35353
 C1139 C 0.55758 0.91209 0.33186
 H1140 H 0.54909 0.89758 0.32356
 O1141 O 0.61541 0.97675 0.41612
 O1142 O 0.64246 0.97651 0.38910
 C1143 C 0.63422 0.96870 0.40799
 C1144 C 0.64623 0.94961 0.42027
 C1145 C 0.66729 0.94085 0.41180
 H1146 H 0.67536 0.94889 0.39687
 O1147 O 0.38465 1.02265 0.41677
 O1148 O 0.35756 1.02245 0.38985
 C1149 C 0.36571 1.03041 0.40867
 C1150 C 0.35353 1.04947 0.42083
 C1151 C 0.33237 1.05799 0.41240
 H1152 H 0.32420 1.04950 0.39781
 O1153 O 0.41659 1.11493 0.47729
 O1154 O 0.38971 1.14211 0.47721
 C1155 C 0.40852 1.13377 0.46929
 C1156 C 0.42074 1.14574 0.45012
 C1157 C 0.41208 1.16666 0.44121
 H1158 H 0.39703 1.17463 0.44913
 O1159 O 0.58367 0.88480 0.47810
 O1160 O 0.61051 0.85758 0.47817
 C1161 C 0.59170 0.86586 0.47024
 C1162 C 0.57932 0.85372 0.45130
 C1163 C 0.58716 0.83214 0.44320
 H1164 H 0.60211 0.82406 0.45119
 O1165 O 0.58397 1.02196 0.38408
 O1166 O 0.61094 1.02184 0.35697
 C1167 C 0.59215 1.02985 0.36521
 C1168 C 0.57999 1.04901 0.35319
 C1169 C 0.58842 1.05781 0.33207
 H1170 H 0.60363 1.05014 0.32416
 O1171 O 0.41685 0.97787 0.38477
 O1172 O 0.38995 0.97785 0.35765
 C1173 C 0.40882 0.97003 0.36583
 C1174 C 0.42120 0.95111 0.35364
 C1175 C 0.41354 0.94329 0.33191
 H1176 H 0.39932 0.95211 0.32343
 O1177 O 0.52336 1.11505 0.41597
 O1178 O 0.52341 1.14209 0.38896
 C1179 C 0.53140 1.13380 0.40774
 C1180 C 0.55067 1.14567 0.41982
 C1181 C 0.55979 1.16653 0.41116
 H1182 H 0.55239 1.17417 0.39570
 O1183 O 0.47738 0.88479 0.41663
 O1184 O 0.47722 0.85759 0.38980
 C1185 C 0.46933 0.86597 0.40860
 C1186 C 0.45023 0.85409 0.42098
 C1187 C 0.44114 0.83315 0.41254
 H1188 H 0.44840 0.82548 0.39701
 O1189 O 0.61566 1.08253 0.47715
 O1190 O 0.64270 1.10947 0.47708
 C1191 C 0.63447 1.09068 0.46915
 C1192 C 0.64647 1.07863 0.44989
 C1193 C 0.66739 1.08731 0.44108
 H1194 H 0.67542 1.10214 0.44928
 O1195 O 0.38509 0.91670 0.47839
 O1196 O 0.35808 0.88974 0.47843
 C1197 C 0.36635 0.90846 0.47036
 C1198 C 0.35452 0.92037 0.45092
 C1199 C 0.33386 0.91144 0.44169
 H1200 H 0.32615 0.89610 0.44927
 Cu1201 Cu 0.50007 0.90325 0.40342
 Cu1202 Cu 0.49997 0.87063 0.37119
 Cu1203 Cu 0.50062 1.09651 0.40307
 Cu1204 Cu 0.50062 1.12891 0.37058
 Cu1205 Cu 0.40352 1.00029 0.40353
 Cu1206 Cu 0.37108 1.00012 0.37112
 Cu1207 Cu 0.59705 0.99938 0.40273
 Cu1208 Cu 0.62949 0.99914 0.37025
 C1209 C 0.44001 0.93994 0.36428
 H1210 H 0.44586 0.94576 0.38114
 C1211 C 0.42406 0.92415 0.32107
 C1212 C 0.56066 1.05961 0.36360
 H1213 H 0.55431 1.05319 0.38007
 C1214 C 0.57794 1.07713 0.32159
 C1215 C 0.36472 0.93983 0.44042
 H1216 H 0.38086 0.94657 0.44717
 C1217 C 0.32362 0.92152 0.42204
 C1218 C 0.63633 1.05929 0.43924
 H1219 H 0.62000 1.05273 0.44574
 C1220 C 0.67795 1.07724 0.42157
 C1221 C 0.44006 0.86440 0.44059
 H1222 H 0.44661 0.88080 0.44689
 C1223 C 0.42211 0.82256 0.42345
 C1224 C 0.56099 1.13538 0.43933
 H1225 H 0.55440 1.11905 0.44579
 C1226 C 0.57897 1.17709 0.42179
 C1227 C 0.43984 1.06049 0.36424
 H1228 H 0.44642 1.05388 0.38054
 C1229 C 0.42201 1.07851 0.32263
 C1230 C 0.56063 0.93894 0.36398
 H1231 H 0.55481 0.94487 0.38083
 C1232 C 0.57636 0.92292 0.32076
 C1233 C 0.56029 0.86428 0.44037
 H1234 H 0.55437 0.88109 0.44628
 C1235 C 0.57636 0.82126 0.42429
 C1236 C 0.44030 1.13564 0.43969
 H1237 H 0.44682 1.11929 0.44621
 C1238 C 0.42249 1.17729 0.42194
 C1239 C 0.36379 1.06028 0.44002
 H1240 H 0.38024 1.05394 0.44646
 C1241 C 0.32180 1.07756 0.42240
 C1242 C 0.63604 0.93915 0.43977
 H1243 H 0.61961 0.94560 0.44618
 C1244 C 0.67797 0.92166 0.42229
 O1245 O 0.52280 0.91688 0.61657
 O1246 O 0.52280 0.88999 0.64374
 C1247 C 0.53071 0.90878 0.63546
 C1248 C 0.54968 0.92107 0.64755
 C1249 C 0.55785 0.91317 0.66909
 H1250 H 0.54988 0.89824 0.67717
 O1251 O 0.47740 1.08396 0.61546
 O1252 O 0.47748 1.11112 0.64233
 C1253 C 0.46951 1.09228 0.63427
 C1254 C 0.45036 1.08033 0.64647
 C1255 C 0.44183 1.08901 0.66754
 H1256 H 0.45013 1.10382 0.67550
 O1257 O 0.38453 1.02315 0.58440
 O1258 O 0.35741 1.02328 0.61135
 C1259 C 0.36564 1.03109 0.59245
 C1260 C 0.35354 1.05001 0.57998
 C1261 C 0.33196 1.05821 0.58774
 H1262 H 0.32358 1.04994 0.60238
 O1263 O 0.61543 0.97760 0.58438
 O1264 O 0.64253 0.97759 0.61129
 C1265 C 0.63430 0.96969 0.59245
 C1266 C 0.64645 0.95074 0.58005
 C1267 C 0.66809 0.94274 0.58778
 H1268 H 0.67619 0.95080 0.60266
 O1269 O 0.58380 0.88493 0.52335
 O1270 O 0.61065 0.85773 0.52345
 C1271 C 0.59185 0.86606 0.53135
 C1272 C 0.57947 0.85402 0.55037
 C1273 C 0.58705 0.83228 0.55827
 H1274 H 0.60183 0.82406 0.55009
 O1275 O 0.41640 1.11530 0.52253
 O1276 O 0.38948 1.14244 0.52247
 C1277 C 0.40830 1.13420 0.53040
 C1278 C 0.42045 1.14628 0.54948
 C1279 C 0.41186 1.16733 0.55815
 H1280 H 0.39710 1.17541 0.54984
 O1281 O 0.41645 0.97827 0.61640
 O1282 O 0.38959 0.97842 0.64361
 C1283 C 0.40842 0.97048 0.63537
 C1284 C 0.42081 0.95157 0.64755
 C1285 C 0.41294 0.94347 0.66913
 H1286 H 0.39800 0.95148 0.67721
 O1287 O 0.58383 1.02291 0.61611
 O1288 O 0.61073 1.02298 0.64322
 C1289 C 0.59194 1.03093 0.63492
 C1290 C 0.57970 1.05015 0.64680
 C1291 C 0.58803 1.05910 0.66787
 H1292 H 0.60321 1.05150 0.67587
 O1293 O 0.47759 0.88518 0.58498
 O1294 O 0.47757 0.85816 0.61201
 C1295 C 0.46968 0.86634 0.59315
 C1296 C 0.45072 0.85422 0.58087
 C1297 C 0.44265 0.83267 0.58876
 H1298 H 0.45068 0.82458 0.60368
 O1299 O 0.52265 1.11537 0.58345
 O1300 O 0.52273 1.14261 0.61024
 C1301 C 0.53067 1.13420 0.59149
 C1302 C 0.54996 1.14595 0.57931
 C1303 C 0.55905 1.16683 0.58788
 H1304 H 0.55146 1.17478 0.60311
 O1305 O 0.38504 0.91712 0.52372
 O1306 O 0.35805 0.89013 0.52376
 C1307 C 0.36620 0.90897 0.53167
 C1308 C 0.35410 0.92104 0.55086
 C1309 C 0.33318 0.91232 0.55965
 H1310 H 0.32516 0.89757 0.55132
 O1311 O 0.61589 1.08277 0.52250
 O1312 O 0.64294 1.10968 0.52235
 C1313 C 0.63472 1.09093 0.53040
 C1314 C 0.64670 1.07901 0.54974
 C1315 C 0.66759 1.08778 0.55854
 H1316 H 0.67571 1.10242 0.55008
 O1317 O 0.52261 1.08384 0.61539
 O1318 O 0.52266 1.11101 0.64225
 C1319 C 0.53056 1.09212 0.63416
 C1320 C 0.54966 1.08004 0.64633
 C1321 C 0.55819 1.08868 0.66739
 H1322 H 0.54996 1.10356 0.67534
 O1323 O 0.47761 0.91716 0.61646
 O1324 O 0.47756 0.89028 0.64363
 C1325 C 0.46968 0.90912 0.63536
 C1326 C 0.45071 0.92151 0.64749
 C1327 C 0.44257 0.91367 0.66907
 H1328 H 0.45090 0.89905 0.67739
 O1329 O 0.61569 1.02276 0.58452
 O1330 O 0.64270 1.02284 0.61152
 C1331 C 0.63450 1.03072 0.59266
 C1332 C 0.64653 1.04977 0.58038
 C1333 C 0.66726 1.05901 0.58915
 H1334 H 0.67469 1.05187 0.60483
 O1335 O 0.38455 0.97795 0.58493
 O1336 O 0.35754 0.97796 0.61199
 C1337 C 0.36580 0.96993 0.59320
 C1338 C 0.35394 0.95066 0.58113
 C1339 C 0.33316 0.94146 0.58989
 H1340 H 0.32553 0.94880 0.60540
 O1341 O 0.58397 1.11440 0.52245
 O1342 O 0.61101 1.14134 0.52238
 C1343 C 0.59217 1.13320 0.53035
 C1344 C 0.58007 1.14537 0.54947
 C1345 C 0.58889 1.16622 0.55829
 H1346 H 0.60398 1.17402 0.55031
 O1347 O 0.41663 0.88516 0.52392
 O1348 O 0.38971 0.85811 0.52399
 C1349 C 0.40851 0.86633 0.53190
 C1350 C 0.42076 0.85425 0.55096
 C1351 C 0.41291 0.83271 0.55910
 H1352 H 0.39835 0.82438 0.55073
 O1353 O 0.58387 0.97773 0.61635
 O1354 O 0.61081 0.97771 0.64343
 C1355 C 0.59197 0.96984 0.63524
 C1356 C 0.57967 0.95091 0.64742
 C1357 C 0.58757 0.94279 0.66897
 H1358 H 0.60217 0.95114 0.67725
 O1359 O 0.41608 1.02342 0.61626
 O1360 O 0.38912 1.02369 0.64338
 C1361 C 0.40793 1.03153 0.63506
 C1362 C 0.42017 1.05069 0.64691
 C1363 C 0.41180 1.05971 0.66796
 H1364 H 0.39653 1.05226 0.67591
 O1365 O 0.47738 1.11558 0.58362
 O1366 O 0.47744 1.14281 0.61042
 C1367 C 0.46943 1.13446 0.59171
 C1368 C 0.45023 1.14641 0.57956
 C1369 C 0.44118 1.16732 0.58818
 H1370 H 0.44862 1.17499 0.60359
 O1371 O 0.52278 0.88525 0.58474
 O1372 O 0.52281 0.85822 0.61177
 C1373 C 0.53069 0.86639 0.59288
 C1374 C 0.54961 0.85419 0.58048
 C1375 C 0.55745 0.83244 0.58813
 H1376 H 0.54895 0.82407 0.60263
 O1377 O 0.61554 0.91660 0.52313
 O1378 O 0.64254 0.88955 0.52325
 C1379 C 0.63436 0.90844 0.53110
 C1380 C 0.64647 0.92077 0.55008
 C1381 C 0.66809 0.91300 0.55810
 H1382 H 0.67648 0.89845 0.54969
 O1383 O 0.38463 1.08363 0.52274
 O1384 O 0.35762 1.11068 0.52262
 C1385 C 0.36579 1.09186 0.53064
 C1386 C 0.35361 1.07970 0.54972
 C1387 C 0.33203 1.08765 0.55774
 H1388 H 0.32399 1.10252 0.54958
 Cu1389 Cu 0.50019 0.90381 0.59798
 Cu1390 Cu 0.50018 0.87146 0.63052
 Cu1391 Cu 0.50000 1.09698 0.59677
 Cu1392 Cu 0.50009 1.12963 0.62900
 Cu1393 Cu 0.40364 0.90375 0.50118
 Cu1394 Cu 0.37125 0.87134 0.50126
 Cu1395 Cu 0.59699 0.90335 0.50059
 Cu1396 Cu 0.62929 0.87078 0.50071
 Cu1397 Cu 0.40318 1.09667 0.50001
 Cu1398 Cu 0.37087 1.12925 0.49991
 Cu1399 Cu 0.59721 1.09585 0.49982
 Cu1400 Cu 0.62967 1.12819 0.49973
 Cu1401 Cu 0.40309 1.00069 0.59779
 Cu1402 Cu 0.37069 1.00086 0.63030
 Cu1403 Cu 0.59700 1.00024 0.59765
 Cu1404 Cu 0.62940 1.00024 0.63009
 C1405 C 0.56057 0.94008 0.63698
 H1406 H 0.55459 0.94605 0.62021
 C1407 C 0.57680 0.92391 0.67991
 C1408 C 0.43958 1.06101 0.63642
 H1409 H 0.44588 1.05443 0.62000
 C1410 C 0.42247 1.07895 0.67833
 C1411 C 0.36410 1.06074 0.56082
 H1412 H 0.38089 1.05473 0.55494
 C1413 C 0.32106 1.07702 0.57673
 C1414 C 0.63590 0.93979 0.56105
 H1415 H 0.61907 0.94566 0.55519
 C1416 C 0.67904 0.92388 0.57693
 C1417 C 0.56060 0.86472 0.56146
 H1418 H 0.55486 0.88162 0.55566
 C1419 C 0.57615 0.82134 0.57711
 C1420 C 0.43982 1.13612 0.56011
 H1421 H 0.44637 1.11974 0.55369
 C1422 C 0.42192 1.17788 0.57764
 C1423 C 0.43985 0.94061 0.63699
 H1424 H 0.44580 0.94653 0.62019
 C1425 C 0.42368 0.92451 0.67999
 C1426 C 0.56038 1.06063 0.63629
 H1427 H 0.55409 1.05410 0.61986
 C1428 C 0.57743 1.07844 0.67821
 C1429 C 0.43980 0.86474 0.56183
 H1430 H 0.44573 0.88151 0.55585
 C1431 C 0.42375 0.82179 0.57799
 C1432 C 0.56047 1.13548 0.55996
 H1433 H 0.55381 1.11919 0.55350
 C1434 C 0.57860 1.17699 0.57755
 C1435 C 0.36419 0.94040 0.56153
 H1436 H 0.38047 0.94705 0.55500
 C1437 C 0.32268 0.92220 0.57931
 C1438 C 0.63648 1.05981 0.56059
 H1439 H 0.62023 1.05313 0.55405
 C1440 C 0.67789 1.07811 0.57841
 O1441 O 0.58365 0.52269 1.11585
 O1442 O 0.61065 0.52292 1.14286
 C1443 C 0.59184 0.53081 1.13458
 C1444 C 0.57982 0.55019 1.14637
 C1445 C 0.58839 0.55905 1.16733
 H1446 H 0.60302 0.55069 1.17558
 O1447 O 0.41697 0.47849 1.11664
 O1448 O 0.39013 0.47875 1.14389
 C1449 C 0.40895 0.47077 1.13565
 C1450 C 0.42128 0.45184 1.14787
 C1451 C 0.41358 0.44404 1.16962
 H1452 H 0.39935 0.45288 1.17810
 O1453 O 0.52307 0.61585 1.08300
 O1454 O 0.52307 0.64320 1.10967
 C1455 C 0.53094 0.63480 1.09088
 C1456 C 0.54987 0.64681 1.07839
 C1457 C 0.55790 0.66847 1.08596
 H1458 H 0.54982 0.67672 1.10078
 O1459 O 0.47791 0.38519 1.08520
 O1460 O 0.47783 0.35815 1.11221
 C1461 C 0.46999 0.36635 1.09334
 C1462 C 0.45107 0.35424 1.08098
 C1463 C 0.44294 0.33270 1.08884
 H1464 H 0.45091 0.32461 1.10380
 O1465 O 0.61541 0.58283 1.02250
 O1466 O 0.64249 0.60972 1.02227
 C1467 C 0.63421 0.59102 1.03042
 C1468 C 0.64620 0.57910 1.04974
 C1469 C 0.66712 0.58783 1.05846
 H1470 H 0.67510 0.60271 1.05027
 O1471 O 0.38506 0.41693 1.02399
 O1472 O 0.35808 0.38994 1.02426
 C1473 C 0.36629 0.40878 1.03209
 C1474 C 0.35430 0.42097 1.05128
 C1475 C 0.33324 0.41255 1.06014
 H1476 H 0.32539 0.39734 1.05249
 O1477 O 0.47803 0.58432 1.11520
 O1478 O 0.47813 0.61153 1.14203
 C1479 C 0.47016 0.59266 1.13401
 C1480 C 0.45104 0.58070 1.14626
 C1481 C 0.44249 0.58944 1.16731
 H1482 H 0.45077 0.60427 1.17524
 O1483 O 0.52291 0.41693 1.11703
 O1484 O 0.52286 0.39004 1.14419
 C1485 C 0.53075 0.40886 1.13595
 C1486 C 0.54968 0.42117 1.14809
 C1487 C 0.55761 0.41348 1.16978
 H1488 H 0.54891 0.39920 1.17827
 O1489 O 0.61537 0.47718 1.08447
 O1490 O 0.64242 0.47733 1.11145
 C1491 C 0.63419 0.46927 1.09268
 C1492 C 0.64619 0.45000 1.08069
 C1493 C 0.66710 0.44115 1.08941
 H1494 H 0.67510 0.44927 1.10431
 O1495 O 0.38495 0.52326 1.08455
 O1496 O 0.35788 0.52346 1.11156
 C1497 C 0.36605 0.53119 1.09261
 C1498 C 0.35382 0.54998 1.08007
 C1499 C 0.33219 0.55807 1.08779
 H1500 H 0.32386 0.54981 1.10246
 O1501 O 0.41624 0.61537 1.02252
 O1502 O 0.38924 0.64242 1.02241
 C1503 C 0.40806 0.63424 1.03039
 C1504 C 0.42026 0.64634 1.04947
 C1505 C 0.41168 0.66734 1.05840
 H1506 H 0.39630 0.67508 1.05093
 O1507 O 0.58369 0.38473 1.02344
 O1508 O 0.61053 0.35750 1.02353
 C1509 C 0.59169 0.36582 1.03138
 C1510 C 0.57933 0.35379 1.05041
 C1511 C 0.58681 0.33198 1.05814
 H1512 H 0.60087 0.32335 1.04917
 O1513 O 0.41676 0.52367 1.11619
 O1514 O 0.38983 0.52401 1.14334
 C1515 C 0.40863 0.53183 1.13497
 C1516 C 0.42087 0.55104 1.14676
 C1517 C 0.41250 0.56011 1.16779
 H1518 H 0.39722 0.55266 1.17575
 O1519 O 0.58401 0.47748 1.11661
 O1520 O 0.61095 0.47768 1.14369
 C1521 C 0.59214 0.46971 1.13556
 C1522 C 0.57982 0.45084 1.14785
 C1523 C 0.58770 0.44273 1.16943
 H1524 H 0.60279 0.45059 1.17730
 O1525 O 0.52310 0.38528 1.08521
 O1526 O 0.52308 0.35824 1.11221
 C1527 C 0.53101 0.36642 1.09334
 C1528 C 0.54988 0.35418 1.08090
 C1529 C 0.55787 0.33252 1.08863
 H1530 H 0.55005 0.32468 1.10379
 O1531 O 0.47783 0.61566 1.08309
 O1532 O 0.47785 0.64293 1.10985
 C1533 C 0.46984 0.63453 1.09114
 C1534 C 0.45054 0.64642 1.07909
 C1535 C 0.44179 0.66742 1.08766
 H1536 H 0.45005 0.67556 1.10241
 O1537 O 0.38472 0.58349 1.02273
 O1538 O 0.35759 0.61041 1.02248
 C1539 C 0.36583 0.59165 1.03056
 C1540 C 0.35370 0.57951 1.04967
 C1541 C 0.33207 0.58736 1.05765
 H1542 H 0.32395 0.60215 1.04942
 O1543 O 0.61568 0.41612 1.02354
 O1544 O 0.64261 0.38900 1.02377
 C1545 C 0.63440 0.40785 1.03164
 C1546 C 0.64634 0.41994 1.05086
 C1547 C 0.66723 0.41128 1.05990
 H1548 H 0.67500 0.39594 1.05237
 O1549 O 0.47775 0.41707 1.11676
 O1550 O 0.47763 0.39018 1.14392
 C1551 C 0.46976 0.40901 1.13563
 C1552 C 0.45083 0.42147 1.14775
 C1553 C 0.44265 0.41370 1.16934
 H1554 H 0.45042 0.39855 1.17723
 O1555 O 0.52326 0.58442 1.11509
 O1556 O 0.52338 0.61169 1.14185
 C1557 C 0.53127 0.59277 1.13380
 C1558 C 0.55037 0.58065 1.14595
 C1559 C 0.55940 0.58944 1.16679
 H1560 H 0.55205 0.60503 1.17425
 O1561 O 0.38522 0.47809 1.08495
 O1562 O 0.35825 0.47821 1.11206
 C1563 C 0.36645 0.47015 1.09325
 C1564 C 0.35444 0.45094 1.08123
 C1565 C 0.33339 0.44228 1.08980
 H1566 H 0.32532 0.45044 1.10468
 O1567 O 0.61564 0.52238 1.08435
 O1568 O 0.64273 0.52259 1.11127
 C1569 C 0.63447 0.53038 1.09240
 C1570 C 0.64643 0.54944 1.08003
 C1571 C 0.66739 0.55845 1.08848
 H1572 H 0.67526 0.55099 1.10382
 O1573 O 0.41691 0.38526 1.02402
 O1574 O 0.39001 0.35819 1.02424
 C1575 C 0.40884 0.36643 1.03203
 C1576 C 0.42117 0.35433 1.05101
 C1577 C 0.41332 0.33279 1.05909
 H1578 H 0.39878 0.32447 1.05067
 O1579 O 0.58411 0.61504 1.02202
 O1580 O 0.61111 0.64201 1.02170
 C1581 C 0.59225 0.63398 1.02969
 C1582 C 0.57992 0.64639 1.04851
 C1583 C 0.58774 0.66805 1.05634
 H1584 H 0.60233 0.67627 1.04786
 Cu1585 Cu 0.59696 0.49990 1.09762
 Cu1586 Cu 0.62941 0.50014 1.13002
 Cu1587 Cu 0.40367 0.50087 1.09788
 Cu1588 Cu 0.37132 0.50112 1.13044
 Cu1589 Cu 0.50057 0.59733 1.09641
 Cu1590 Cu 0.50061 0.63007 1.12854
 Cu1591 Cu 0.50043 0.40381 1.09834
 Cu1592 Cu 0.50035 0.37144 1.13086
 C1593 C 0.56062 0.56093 1.13597
 H1594 H 0.55409 0.55435 1.11966
 C1595 C 0.57847 0.57881 1.17758
 C1596 C 0.44011 0.44063 1.13724
 H1597 H 0.44601 0.44643 1.12037
 C1598 C 0.42405 0.42489 1.18048
 C1599 C 0.56084 0.63604 1.05951
 H1600 H 0.55494 0.61919 1.05379
 C1601 C 0.57682 0.67924 1.07505
 C1602 C 0.44020 0.36480 1.06192
 H1603 H 0.44613 0.38158 1.05598
 C1604 C 0.42405 0.32186 1.07802
 C1605 C 0.63610 0.55976 1.06051
 H1606 H 0.61975 0.55317 1.05412
 C1607 C 0.67777 0.57774 1.07789
 C1608 C 0.36463 0.44030 1.06182
 H1609 H 0.38105 0.44666 1.05533
 C1610 C 0.32270 0.42304 1.07945
 C1611 C 0.44027 0.56135 1.13626
 H1612 H 0.44657 0.55474 1.11984
 C1613 C 0.42314 0.57938 1.17813
 C1614 C 0.56071 0.44003 1.13743
 H1615 H 0.55482 0.44590 1.12059
 C1616 C 0.57669 0.42406 1.18059
 C1617 C 0.63608 0.43943 1.06126
 H1618 H 0.61977 0.44595 1.05465
 C1619 C 0.67767 0.42172 1.07924
 C1620 C 0.36431 0.56067 1.06086
 H1621 H 0.38114 0.55474 1.05501
 C1622 C 0.32117 0.57676 1.07669
 C1623 C 0.43981 0.63614 1.05983
 H1624 H 0.44628 0.61975 1.05334
 C1625 C 0.42228 0.67792 1.07760
 C1626 C 0.56066 0.36461 1.06170
 H1627 H 0.55491 0.38151 1.05592
 C1628 C 0.57630 0.32121 1.07734
 O1629 O 0.58381 0.47628 0.88452
 O1630 O 0.61077 0.47606 0.85740
 C1631 C 0.59192 0.46827 0.86567
 C1632 C 0.57958 0.44929 0.85364
 C1633 C 0.58730 0.44119 0.83201
 H1634 H 0.60215 0.44923 0.82380
 O1635 O 0.41670 0.52173 0.88456
 O1636 O 0.38974 0.52163 0.85750
 C1637 C 0.40856 0.52957 0.86566
 C1638 C 0.42081 0.54851 0.85342
 C1639 C 0.41283 0.55663 0.83189
 H1640 H 0.39785 0.54865 0.82394
 O1641 O 0.47767 0.61450 0.91584
 O1642 O 0.47763 0.64145 0.88874
 C1643 C 0.46970 0.63329 0.90762
 C1644 C 0.45052 0.64534 0.91977
 C1645 C 0.44153 0.66624 0.91107
 H1646 H 0.44909 0.67399 0.89572
 O1647 O 0.52297 0.38377 0.91703
 O1648 O 0.52295 0.35647 0.89030
 C1649 C 0.53092 0.36487 0.90903
 C1650 C 0.55010 0.35299 0.92131
 C1651 C 0.55897 0.33183 0.91309
 H1652 H 0.55134 0.32378 0.89796
 O1653 O 0.61576 0.41618 0.97824
 O1654 O 0.64285 0.38922 0.97846
 C1655 C 0.63467 0.40802 0.97043
 C1656 C 0.64683 0.42020 0.95136
 C1657 C 0.66869 0.41265 0.94372
 H1658 H 0.67725 0.39858 0.95271
 O1659 O 0.38465 0.58336 0.97745
 O1660 O 0.35757 0.61033 0.97716
 C1661 C 0.36585 0.59147 0.96936
 C1662 C 0.35394 0.57916 0.95023
 C1663 C 0.33287 0.58751 0.94130
 H1664 H 0.32490 0.60276 0.94884
 O1665 O 0.52284 0.58256 0.88414
 O1666 O 0.52283 0.60936 0.85689
 C1667 C 0.53074 0.59056 0.86520
 C1668 C 0.54969 0.57815 0.85307
 C1669 C 0.55765 0.58579 0.83136
 H1670 H 0.54954 0.60062 0.82319
 O1671 O 0.47786 0.41542 0.88512
 O1672 O 0.47776 0.38829 0.85821
 C1673 C 0.46993 0.40722 0.86630
 C1674 C 0.45103 0.41956 0.85409
 C1675 C 0.44306 0.41176 0.83246
 H1676 H 0.45152 0.39720 0.82415
 O1677 O 0.61557 0.52143 0.91610
 O1678 O 0.64268 0.52128 0.88912
 C1679 C 0.63446 0.52924 0.90796
 C1680 C 0.64665 0.54814 0.92028
 C1681 C 0.66820 0.55619 0.91234
 H1682 H 0.67620 0.54819 0.89734
 O1683 O 0.38499 0.47675 0.91661
 O1684 O 0.35794 0.47654 0.88964
 C1685 C 0.36616 0.46876 0.90854
 C1686 C 0.35413 0.44978 0.92095
 C1687 C 0.33316 0.44077 0.91250
 H1688 H 0.32535 0.44816 0.89710
 O1689 O 0.58391 0.61421 0.97678
 O1690 O 0.61103 0.64106 0.97647
 C1691 C 0.59219 0.63288 0.96861
 C1692 C 0.58014 0.64485 0.94935
 C1693 C 0.58887 0.66571 0.94044
 H1694 H 0.60385 0.67366 0.94845
 O1695 O 0.41691 0.38506 0.97878
 O1696 O 0.38997 0.35803 0.97905
 C1697 C 0.40877 0.36617 0.97100
 C1698 C 0.42084 0.35394 0.95189
 C1699 C 0.41224 0.33284 0.94348
 H1700 H 0.39758 0.32484 0.95202
 O1701 O 0.41685 0.47654 0.88491
 O1702 O 0.38992 0.47642 0.85783
 C1703 C 0.40876 0.46856 0.86606
 C1704 C 0.42112 0.44958 0.85396
 C1705 C 0.41338 0.44151 0.83234
 H1706 H 0.39849 0.44955 0.82422
 O1707 O 0.58393 0.52146 0.88429
 O1708 O 0.61088 0.52131 0.85717
 C1709 C 0.59206 0.52929 0.86538
 C1710 C 0.57973 0.54825 0.85318
 C1711 C 0.58745 0.55615 0.83146
 H1712 H 0.60197 0.54768 0.82308
 O1713 O 0.47772 0.38405 0.91718
 O1714 O 0.47756 0.35678 0.89042
 C1715 C 0.46964 0.36524 0.90918
 C1716 C 0.45042 0.35350 0.92152
 C1717 C 0.44130 0.33256 0.91313
 H1718 H 0.44864 0.32477 0.89770
 O1719 O 0.52291 0.61448 0.91564
 O1720 O 0.52297 0.64141 0.88853
 C1721 C 0.53092 0.63322 0.90737
 C1722 C 0.55016 0.64513 0.91943
 C1723 C 0.55918 0.66602 0.91077
 H1724 H 0.55158 0.67388 0.89550
 O1725 O 0.38505 0.41671 0.97862
 O1726 O 0.35806 0.38973 0.97891
 C1727 C 0.36625 0.40845 0.97076
 C1728 C 0.35423 0.42031 0.95141
 C1729 C 0.33330 0.41156 0.94270
 H1730 H 0.32529 0.39674 0.95096
 O1731 O 0.61576 0.58255 0.97719
 O1732 O 0.64295 0.60933 0.97698
 C1733 C 0.63467 0.59050 0.96922
 C1734 C 0.64675 0.57805 0.95027
 C1735 C 0.66831 0.58582 0.94210
 H1736 H 0.67669 0.60034 0.95049
 O1737 O 0.52297 0.41527 0.88508
 O1738 O 0.52296 0.38813 0.85819
 C1739 C 0.53085 0.40702 0.86624
 C1740 C 0.54976 0.41927 0.85395
 C1741 C 0.55775 0.41140 0.83232
 H1742 H 0.54936 0.39680 0.82408
 O1743 O 0.47766 0.58273 0.88416
 O1744 O 0.47761 0.60955 0.85693
 C1745 C 0.46972 0.59077 0.86526
 C1746 C 0.45070 0.57846 0.85324
 C1747 C 0.44249 0.58630 0.83170
 H1748 H 0.45085 0.60085 0.82329
 O1749 O 0.38524 0.52193 0.91660
 O1750 O 0.35818 0.52179 0.88964
 C1751 C 0.36640 0.52982 0.90842
 C1752 C 0.35430 0.54901 0.92047
 C1753 C 0.33324 0.55756 0.91186
 H1754 H 0.32524 0.54930 0.89704
 O1755 O 0.61551 0.47629 0.91624
 O1756 O 0.64263 0.47607 0.88928
 C1757 C 0.63439 0.46830 0.90819
 C1758 C 0.64659 0.44952 0.92078
 C1759 C 0.66831 0.44154 0.91320
 H1760 H 0.67626 0.44934 0.89808
 O1761 O 0.58395 0.38457 0.97820
 O1762 O 0.61094 0.35751 0.97830
 C1763 C 0.59213 0.36571 0.97033
 C1764 C 0.58002 0.35352 0.95128
 C1765 C 0.58856 0.33237 0.94287
 H1766 H 0.60340 0.32439 0.95114
 O1767 O 0.41664 0.61473 0.97725
 O1768 O 0.38966 0.64181 0.97704
 C1769 C 0.40848 0.63349 0.96914
 C1770 C 0.42059 0.64535 0.94984
 C1771 C 0.41188 0.66621 0.94086
 H1772 H 0.39691 0.67425 0.94886
 Cu1773 Cu 0.59700 0.49889 0.90298
 Cu1774 Cu 0.62945 0.49866 0.87052
 Cu1775 Cu 0.40365 0.49923 0.90337
 Cu1776 Cu 0.37122 0.49908 0.87095
 Cu1777 Cu 0.59709 0.59596 0.99966
 Cu1778 Cu 0.62963 0.62821 0.99933
 Cu1779 Cu 0.59709 0.40313 1.00084
 Cu1780 Cu 0.62944 0.37059 1.00102
 Cu1781 Cu 0.40326 0.59653 1.00003
 Cu1782 Cu 0.37082 0.62897 0.99976
 Cu1783 Cu 0.40366 0.40372 1.00134
 Cu1784 Cu 0.37131 0.37128 1.00164
 Cu1785 Cu 0.50027 0.59589 0.90267
 Cu1786 Cu 0.50026 0.62816 0.87006
 Cu1787 Cu 0.50040 0.40232 0.90380
 Cu1788 Cu 0.50030 0.36965 0.87161
 C1789 C 0.56065 0.43836 0.86434
 H1790 H 0.55481 0.44431 0.88118
 C1791 C 0.57651 0.42226 0.82122
 C1792 C 0.43988 0.55941 0.86384
 H1793 H 0.44591 0.55347 0.88060
 C1794 C 0.42354 0.57552 0.82090
 C1795 C 0.44005 0.63516 0.93930
 H1796 H 0.44662 0.61885 0.94588
 C1797 C 0.42213 0.67669 0.92142
 C1798 C 0.56064 0.36358 0.94054
 H1799 H 0.55418 0.38008 0.94674
 C1800 C 0.57828 0.32147 0.92371
 C1801 C 0.63608 0.43883 0.93996
 H1802 H 0.61914 0.44460 0.94564
 C1803 C 0.67959 0.42317 0.92460
 C1804 C 0.36440 0.55977 0.93980
 H1805 H 0.38084 0.55348 0.94631
 C1806 C 0.32247 0.57688 0.92203
 C1807 C 0.56071 0.55923 0.86372
 H1808 H 0.55487 0.55344 0.88061
 C1809 C 0.57650 0.57490 0.82040
 C1810 C 0.44009 0.43862 0.86458
 H1811 H 0.44593 0.44453 0.88140
 C1812 C 0.42424 0.42261 0.82146
 C1813 C 0.63618 0.55905 0.93939
 H1814 H 0.61940 0.55318 0.94538
 C1815 C 0.67915 0.57504 0.92312
 C1816 C 0.36438 0.43957 0.94055
 H1817 H 0.38073 0.44616 0.94694
 C1818 C 0.32271 0.42158 0.92320
 C1819 C 0.56065 0.63481 0.93886
 H1820 H 0.55406 0.61851 0.94541
 C1821 C 0.57861 0.67635 0.92110
 C1822 C 0.44013 0.36398 0.94099
 H1823 H 0.44671 0.38038 0.94724
 C1824 C 0.42214 0.32212 0.92395
 C1825 C 1.11274 1.11238 1.26674
 C1826 C 1.11127 1.13653 1.27054
 C1827 C 1.12048 1.14631 1.29085
 C1828 C 1.13211 1.13256 1.30740
 C1829 C 1.13364 1.10854 1.30322
 C1830 C 1.12406 1.09863 1.28338
 C1831 C 1.10276 1.10264 1.24481
 C1832 C 1.10221 1.07872 1.23996
 C1833 C 1.09336 1.07058 1.21899
 C1834 C 1.08490 1.08598 1.20216
 C1835 C 1.08492 1.10983 1.20707
 C1836 C 1.09348 1.11818 1.22826
 C1837 C 1.10121 1.15091 1.25375
 C1838 C 1.09280 1.14197 1.23295
 H1839 H 1.10018 1.16944 1.25655
 H1840 H 1.08553 1.15389 1.22037
 H1841 H 1.11971 1.16494 1.29292
 H1842 H 1.14155 1.09698 1.31569
 H1843 H 1.09301 1.05207 1.21601
 H1844 H 1.07863 1.12201 1.19424
 H1845 H 1.12591 1.08015 1.28137
 H1846 H 1.10840 1.06599 1.25215
 C1847 C 1.11445 0.61863 0.76263
 C1848 C 1.12133 0.60308 0.78033
 C1849 C 1.13057 0.61160 0.80117
 C1850 C 1.13312 0.63551 0.80476
 C1851 C 1.12617 0.65085 0.78724
 C1852 C 1.11695 0.64259 0.76648
 C1853 C 1.10487 0.60884 0.74054
 C1854 C 1.09775 0.62283 0.72184
 C1855 C 1.08892 0.61293 0.70166
 C1856 C 1.08691 0.58882 0.69950
 C1857 C 1.09408 0.57469 0.71796
 C1858 C 1.10300 0.58448 0.73839
 C1859 C 1.11899 0.57915 0.77712
 C1860 C 1.11000 0.57006 0.75662
 H1861 H 1.12422 0.56724 0.79067
 H1862 H 1.10857 0.55142 0.75501
 H1863 H 1.13566 0.59959 0.81471
 H1864 H 1.12826 0.66936 0.78940
 H1865 H 1.08390 0.62422 0.68752
 H1866 H 1.09244 0.55604 0.71653
 H1867 H 1.11205 0.65531 0.75371
 H1868 H 1.09888 0.64145 0.72233
 C1869 C 0.61439 1.11840 0.76299
 C1870 C 0.62110 1.10283 0.78073
 C1871 C 0.63030 1.11130 0.80160
 C1872 C 0.63301 1.13519 0.80517
 C1873 C 0.62619 1.15057 0.78764
 C1874 C 0.61699 1.14236 0.76685
 C1875 C 0.60485 1.10864 0.74087
 C1876 C 0.59788 1.12265 0.72213
 C1877 C 0.58908 1.11276 0.70192
 C1878 C 0.58697 1.08866 0.69979
 C1879 C 0.59400 1.07451 0.71828
 C1880 C 0.60287 1.08428 0.73874
 C1881 C 0.61865 1.07891 0.77754
 C1882 C 0.60972 1.06984 0.75701
 H1883 H 0.62375 1.06698 0.79113
 H1884 H 0.60819 1.05121 0.75541
 H1885 H 0.63524 1.09927 0.81517
 H1886 H 0.62837 1.16907 0.78982
 H1887 H 0.58416 1.12405 0.68775
 H1888 H 0.59227 1.05587 0.71686
 H1889 H 0.61220 1.15509 0.75405
 H1890 H 0.59910 1.14126 0.72261
 C1891 C 0.61896 0.61742 1.26143
 C1892 C 0.60366 0.62708 1.27797
 C1893 C 0.61236 0.63661 1.29864
 C1894 C 0.63630 0.63624 1.30362
 C1895 C 0.65125 0.62624 1.28704
 C1896 C 0.64280 0.61708 1.26638
 C1897 C 0.60906 0.60765 1.23949
 C1898 C 0.62297 0.59870 1.22151
 C1899 C 0.61296 0.58953 1.20155
 C1900 C 0.58882 0.58887 1.19891
 C1901 C 0.57478 0.59809 1.21658
 C1902 C 0.58471 0.60759 1.23668
 C1903 C 0.57971 0.62683 1.27397
 C1904 C 0.57044 0.61711 1.25389
 H1905 H 0.56792 0.63410 1.28668
 H1906 H 0.55179 0.61718 1.25173
 H1907 H 0.60015 0.64327 1.31126
 H1908 H 0.66984 0.62624 1.28938
 H1909 H 0.62426 0.58319 1.18796
 H1910 H 0.55610 0.59766 1.21480
 H1911 H 0.65532 0.60982 1.25456
 H1912 H 0.64162 0.59877 1.22235
 C1913 C 0.88832 0.88909 1.26752
 C1914 C 0.88696 0.86470 1.26975
 C1915 C 0.87781 0.85477 1.29001
 C1916 C 0.86977 0.86876 1.30821
 C1917 C 0.87129 0.89290 1.30605
 C1918 C 0.88047 0.90297 1.28604
 C1919 C 0.89783 0.89897 1.24539
 C1920 C 0.89979 0.92297 1.24131
 C1921 C 0.90842 0.93127 1.22025
 C1922 C 0.91537 0.91592 1.20273
 C1923 C 0.91360 0.89200 1.20667
 C1924 C 0.90494 0.88346 1.22775
 C1925 C 0.89447 0.85034 1.25169
 C1926 C 0.90325 0.85951 1.23114
 H1927 H 0.89343 0.83167 1.25340
 H1928 H 0.90873 0.84764 1.21764
 H1929 H 0.87641 0.83610 1.29137
 H1930 H 0.86544 0.90406 1.31997
 H1931 H 0.90986 0.94980 1.21775
 H1932 H 0.91858 0.87997 1.19312
 H1933 H 0.88113 0.92162 1.28542
 H1934 H 0.89475 0.93564 1.25408
 C1935 C 0.88958 0.38908 0.76832
 C1936 C 0.86525 0.38707 0.77068
 C1937 C 0.85565 0.37770 0.79099
 C1938 C 0.86991 0.37014 0.80918
 C1939 C 0.89401 0.37219 0.80685
 C1940 C 0.90375 0.38155 0.78675
 C1941 C 0.89911 0.39889 0.74616
 C1942 C 0.92303 0.40150 0.74197
 C1943 C 0.93101 0.41029 0.72086
 C1944 C 0.91541 0.41677 0.70338
 C1945 C 0.89156 0.41448 0.70748
 C1946 C 0.88333 0.40562 0.72861
 C1947 C 0.85060 0.39422 0.75270
 C1948 C 0.85945 0.40328 0.73212
 H1949 H 0.83198 0.39270 0.75451
 H1950 H 0.84737 0.40845 0.71870
 H1951 H 0.83702 0.37584 0.79244
 H1952 H 0.90537 0.36667 0.82074
 H1953 H 0.94949 0.41215 0.71824
 H1954 H 0.87935 0.41913 0.69398
 H1955 H 0.92237 0.38265 0.78602
 H1956 H 0.93588 0.39683 0.75469
 C1957 C 0.38600 0.88790 0.76612
 C1958 C 0.38373 0.86353 0.76766
 C1959 C 0.37415 0.85339 0.78758
 C1960 C 0.36670 0.86710 0.80625
 C1961 C 0.36906 0.89123 0.80477
 C1962 C 0.37859 0.90153 0.78502
 C1963 C 0.39603 0.89802 0.74433
 C1964 C 0.39878 0.92203 0.74086
 C1965 C 0.40787 0.93056 0.72008
 C1966 C 0.41453 0.91541 0.70227
 C1967 C 0.41201 0.89149 0.70561
 C1968 C 0.40282 0.88272 0.72637
 C1969 C 0.39087 0.84939 0.74926
 C1970 C 0.40022 0.85878 0.72908
 H1971 H 0.38915 0.83074 0.75046
 H1972 H 0.40543 0.84708 0.71533
 H1973 H 0.37206 0.83475 0.78835
 H1974 H 0.36365 0.90218 0.81903
 H1975 H 0.40985 0.94909 0.71799
 H1976 H 0.41675 0.87964 0.69181
 H1977 H 0.37996 0.92015 0.78493
 H1978 H 0.39397 0.93454 0.75388
 C1979 C 0.38788 0.38719 1.26691
 C1980 C 0.36366 0.38846 1.27032
 C1981 C 0.35356 0.37893 1.29032
 C1982 C 0.36708 0.36725 1.30703
 C1983 C 0.39118 0.36585 1.30325
 C1984 C 0.40141 0.37575 1.28366
 C1985 C 0.39792 0.39751 1.24522
 C1986 C 0.42190 0.39816 1.24066
 C1987 C 0.43031 0.40734 1.21989
 C1988 C 0.41508 0.41602 1.20301
 C1989 C 0.39119 0.41585 1.20764
 C1990 C 0.38257 0.40695 1.22859
 C1991 C 0.34949 0.39867 1.25345
 C1992 C 0.35871 0.40745 1.23292
 H1993 H 0.33090 0.39955 1.25597
 H1994 H 0.34696 0.41483 1.22026
 H1995 H 0.33488 0.37945 1.29194
 H1996 H 0.40250 0.35774 1.31580
 H1997 H 0.44885 0.40774 1.21709
 H1998 H 0.37915 0.42227 1.19473
 H1999 H 0.41992 0.37402 1.28191
 H2000 H 0.43448 0.39180 1.25292
 C2001 C 0.88189 1.12025 0.73967
 C2002 C 0.87164 1.10534 0.72319
 C2003 C 0.86176 1.11448 0.70284
 C2004 C 0.86247 1.13846 0.69809
 C2005 C 0.87315 1.15299 0.71456
 C2006 C 0.88259 1.14411 0.73492
 C2007 C 0.89191 1.10992 0.76131
 C2008 C 0.90117 1.12348 0.77935
 C2009 C 0.91057 1.11310 0.79903
 C2010 C 0.91120 1.08891 0.80132
 C2011 C 0.90164 1.07523 0.78360
 C2012 C 0.89183 1.08554 0.76381
 C2013 C 0.87169 1.08134 0.72690
 C2014 C 0.88181 1.07165 0.74663
 H2015 H 0.86400 1.06983 0.71424
 H2016 H 0.88160 1.05298 0.74855
 H2017 H 0.85452 1.10260 0.69026
 H2018 H 0.87345 1.17160 0.71241
 H2019 H 0.91710 1.12416 0.81269
 H2020 H 0.90199 1.05652 0.78510
 H2021 H 0.89039 1.15633 0.74667
 H2022 H 0.90111 1.14213 0.77880
 C2023 C 0.88520 0.61288 0.23469
 C2024 C 0.88629 0.63712 0.23149
 C2025 C 0.87687 0.64730 0.21150
 C2026 C 0.86555 0.63385 0.19453
 C2027 C 0.86423 0.60973 0.19816
 C2028 C 0.87396 0.59942 0.21777
 C2029 C 0.89556 0.60272 0.25629
 C2030 C 0.89645 0.57871 0.26061
 C2031 C 0.90580 0.57018 0.28124
 C2032 C 0.91443 0.58531 0.29820
 C2033 C 0.91396 0.60924 0.29385
 C2034 C 0.90488 0.61798 0.27304
 C2035 C 0.89629 0.65121 0.24852
 C2036 C 0.90513 0.64188 0.26895
 H2037 H 0.89701 0.66982 0.24616
 H2038 H 0.91240 0.65356 0.28171
 H2039 H 0.87731 0.66599 0.21000
 H2040 H 0.85638 0.59844 0.18544
 H2041 H 0.90641 0.55162 0.28386
 H2042 H 0.92032 0.62119 0.30684
 H2043 H 0.87236 0.58089 0.21937
 H2044 H 0.89017 0.56620 0.24826
 C2045 C 0.38351 1.11906 0.23860
 C2046 C 0.37264 1.10395 0.22271
 C2047 C 0.36303 1.11269 0.20207
 C2048 C 0.36477 1.13640 0.19636
 C2049 C 0.37610 1.15112 0.21220
 C2050 C 0.38520 1.14267 0.23291
 C2051 C 0.39321 1.10917 0.26058
 C2052 C 0.40283 1.12303 0.27819
 C2053 C 0.41195 1.11302 0.29820
 C2054 C 0.41197 1.08890 0.30123
 C2055 C 0.40202 1.07494 0.28394
 C2056 C 0.39242 1.08490 0.26387
 C2057 C 0.37189 1.08011 0.22726
 C2058 C 0.38186 1.07076 0.24722
 H2059 H 0.36374 1.06844 0.21504
 H2060 H 0.38107 1.05218 0.24977
 H2061 H 0.35527 1.10064 0.18998
 H2062 H 0.37723 1.16959 0.20924
 H2063 H 0.41874 1.12433 0.31152
 H2064 H 0.40189 1.05629 0.28597
 H2065 H 0.39358 1.15499 0.24414
 H2066 H 0.40323 1.14166 0.27706
 C2067 C 0.38602 0.61151 0.73443
 C2068 C 0.38445 0.63590 0.73234
 C2069 C 0.37511 0.64589 0.71221
 C2070 C 0.36713 0.63198 0.69396
 C2071 C 0.36868 0.60783 0.69605
 C2072 C 0.37801 0.59769 0.71596
 C2073 C 0.39597 0.60157 0.75633
 C2074 C 0.39835 0.57757 0.76018
 C2075 C 0.40742 0.56921 0.78102
 C2076 C 0.41441 0.58449 0.79855
 C2077 C 0.41227 0.60842 0.79481
 C2078 C 0.40317 0.61702 0.77395
 C2079 C 0.39202 0.65021 0.75039
 C2080 C 0.40115 0.64098 0.77075
 H2081 H 0.39080 0.66887 0.74879
 H2082 H 0.40668 0.65281 0.78424
 H2083 H 0.37365 0.66457 0.71094
 H2084 H 0.36284 0.59672 0.68211
 H2085 H 0.40914 0.55067 0.78335
 H2086 H 0.41730 0.62040 0.80837
 H2087 H 0.37874 0.57904 0.71651
 H2088 H 0.39332 0.56494 0.74739
 C2089 C 1.11382 0.88635 0.73456
 C2090 C 1.11615 0.86199 0.73286
 C2091 C 1.12587 0.85200 0.71291
 C2092 C 1.13342 0.86586 0.69440
 C2093 C 1.13098 0.88997 0.69604
 C2094 C 1.12129 0.90012 0.71579
 C2095 C 1.10373 0.89631 0.75640
 C2096 C 1.10090 0.92030 0.76001
 C2097 C 1.09185 0.92870 0.78086
 C2098 C 1.08531 0.91345 0.79862
 C2099 C 1.08784 0.88954 0.79512
 C2100 C 1.09699 0.88090 0.77428
 C2101 C 1.10900 0.84772 0.75114
 C2102 C 1.09962 0.85697 0.77139
 H2103 H 1.11076 0.82908 0.74983
 H2104 H 1.09444 0.84518 0.78507
 H2105 H 1.12801 0.83336 0.71201
 H2106 H 1.13645 0.90104 0.68189
 H2107 H 1.08984 0.94722 0.78304
 H2108 H 1.08316 0.87761 0.80887
 H2109 H 1.11989 0.91874 0.71601
 H2110 H 1.10562 0.93290 0.74704
 C2111 C 1.11269 0.38728 0.23327
 C2112 C 1.11109 0.36316 0.22943
 C2113 C 1.12036 0.35332 0.20915
 C2114 C 1.13220 0.36698 0.19267
 C2115 C 1.13392 0.39096 0.19691
 C2116 C 1.12425 0.40095 0.21672
 C2117 C 1.10260 0.39708 0.25517
 C2118 C 1.10211 0.42099 0.26003
 C2119 C 1.09316 0.42918 0.28099
 C2120 C 1.08456 0.41380 0.29778
 C2121 C 1.08452 0.38997 0.29283
 C2122 C 1.09316 0.38158 0.27166
 C2123 C 1.10085 0.34884 0.24616
 C2124 C 1.09237 0.35781 0.26695
 H2125 H 1.09972 0.33032 0.24332
 H2126 H 1.08498 0.34594 0.27948
 H2127 H 1.11949 0.33470 0.20709
 H2128 H 1.14209 0.40244 0.18453
 H2129 H 1.09286 0.44768 0.28398
 H2130 H 1.07814 0.37780 0.30564
 H2131 H 1.12626 0.41939 0.21880
 H2132 H 1.10840 0.43369 0.24786
 C2133 C 0.61267 0.88804 0.23328
 C2134 C 0.61471 0.86370 0.23103
 C2135 C 0.62405 0.85402 0.21072
 C2136 C 0.63155 0.86822 0.19244
 C2137 C 0.62941 0.89232 0.19466
 C2138 C 0.62009 0.90213 0.21474
 C2139 C 0.60291 0.89766 0.25542
 C2140 C 0.60032 0.92160 0.25950
 C2141 C 0.59155 0.92968 0.28058
 C2142 C 0.58507 0.91418 0.29814
 C2143 C 0.58735 0.89031 0.29417
 C2144 C 0.59621 0.88198 0.27307
 C2145 C 0.60761 0.84914 0.24911
 C2146 C 0.59857 0.85808 0.26967
 H2147 H 0.60915 0.83051 0.24739
 H2148 H 0.59343 0.84606 0.28316
 H2149 H 0.62590 0.83539 0.20932
 H2150 H 0.63479 0.90365 0.18069
 H2151 H 0.58968 0.94818 0.28310
 H2152 H 0.58269 0.87817 0.30774
 H2153 H 0.61892 0.92075 0.21536
 H2154 H 0.60499 0.93440 0.24672
 C2155 C 0.61391 0.38636 0.73466
 C2156 C 0.61628 0.36202 0.73292
 C2157 C 0.62599 0.35207 0.71295
 C2158 C 0.63349 0.36598 0.69445
 C2159 C 0.63102 0.39009 0.69613
 C2160 C 0.62134 0.40018 0.71591
 C2161 C 0.60382 0.39628 0.75652
 C2162 C 0.60096 0.42025 0.76017
 C2163 C 0.59192 0.42860 0.78104
 C2164 C 0.58543 0.41331 0.79879
 C2165 C 0.58798 0.38940 0.79524
 C2166 C 0.59712 0.38082 0.77438
 C2167 C 0.60916 0.34770 0.75119
 C2168 C 0.59978 0.35690 0.77145
 H2169 H 0.61096 0.32907 0.74983
 H2170 H 0.59464 0.34507 0.78512
 H2171 H 0.62816 0.33344 0.71201
 H2172 H 0.63646 0.40118 0.68199
 H2173 H 0.58988 0.44711 0.78327
 H2174 H 0.58333 0.37745 0.80898
 H2175 H 0.61991 0.41880 0.71616
 H2176 H 0.60564 0.43288 0.74723
 C2177 C 1.26209 1.11845 1.11636
 C2178 C 1.27962 1.10300 1.12388
 C2179 C 1.30036 1.11166 1.13324
 C2180 C 1.30401 1.13562 1.13512
 C2181 C 1.28655 1.15083 1.12774
 C2182 C 1.26591 1.14244 1.11850
 C2183 C 1.24025 1.10854 1.10638
 C2184 C 1.22180 1.12246 1.09848
 C2185 C 1.20188 1.11246 1.08924
 C2186 C 1.19973 1.08833 1.08754
 C2187 C 1.21795 1.07427 1.09548
 C2188 C 1.23812 1.08417 1.10484
 C2189 C 1.27640 1.07904 1.12192
 C2190 C 1.25611 1.06983 1.11260
 H2191 H 1.28979 1.06719 1.12766
 H2192 H 1.25450 1.05117 1.11144
 H2193 H 1.31382 1.09976 1.13873
 H2194 H 1.28876 1.16939 1.12936
 H2195 H 1.18793 1.12370 1.08367
 H2196 H 1.21654 1.05560 1.09410
 H2197 H 1.25323 1.15508 1.11318
 H2198 H 1.22229 1.14109 1.09931
 C2199 C 1.26236 0.61798 0.61532
 C2200 C 1.28001 0.60248 0.62243
 C2201 C 1.30084 0.61106 0.63159
 C2202 C 1.30449 0.63499 0.63381
 C2203 C 1.28695 0.65028 0.62678
 C2204 C 1.26620 0.64196 0.61767
 C2205 C 1.24039 0.60813 0.60558
 C2206 C 1.22183 0.62208 0.59801
 C2207 C 1.20178 0.61212 0.58899
 C2208 C 1.19962 0.58799 0.58721
 C2209 C 1.21794 0.57390 0.59481
 C2210 C 1.23824 0.58376 0.60391
 C2211 C 1.27678 0.57853 0.62032
 C2212 C 1.25636 0.56938 0.61127
 H2213 H 1.29028 0.56665 0.62575
 H2214 H 1.25474 0.55073 0.61000
 H2215 H 1.31438 0.59908 0.63675
 H2216 H 1.28915 0.66881 0.62864
 H2217 H 1.18776 0.62338 0.58362
 H2218 H 1.21651 0.55524 0.59335
 H2219 H 1.25343 0.65464 0.61266
 H2220 H 1.22234 0.64071 0.59893
 C2221 C 0.76048 1.12013 0.61803
 C2222 C 0.77684 1.10523 0.62856
 C2223 C 0.79713 1.11436 0.63849
 C2224 C 0.80193 1.13832 0.63756
 C2225 C 0.78555 1.15284 0.62667
 C2226 C 0.76526 1.14397 0.61716
 C2227 C 0.73891 1.10981 0.60792
 C2228 C 0.72103 1.12336 0.59831
 C2229 C 0.70139 1.11300 0.58890
 C2230 C 0.69900 1.08882 0.58860
 C2231 C 0.71659 1.07514 0.59846
 C2232 C 0.73634 1.08545 0.60828
 C2233 C 0.77306 1.08125 0.62874
 C2234 C 0.75339 1.07157 0.61859
 H2235 H 0.78562 1.06975 0.63665
 H2236 H 0.75140 1.05291 0.61900
 H2237 H 0.80962 1.10249 0.64593
 H2238 H 0.78774 1.17144 0.62620
 H2239 H 0.68784 1.12406 0.58212
 H2240 H 0.71501 1.05644 0.59835
 H2241 H 0.75359 1.15618 0.60919
 H2242 H 0.72166 1.14201 0.59810
 C2243 C 0.76129 0.61858 1.11642
 C2244 C 0.77939 0.60328 1.12280
 C2245 C 0.80013 0.61206 1.13203
 C2246 C 0.80317 0.63598 1.13510
 C2247 C 0.78511 0.65104 1.12893
 C2248 C 0.76450 0.64254 1.11971
 C2249 C 0.73950 0.60856 1.10649
 C2250 C 0.72066 0.62236 1.09933
 C2251 C 0.70079 0.61226 1.09011
 C2252 C 0.69907 0.58816 1.08775
 C2253 C 0.71767 0.57421 1.09491
 C2254 C 0.73784 0.58421 1.10413
 C2255 C 0.77668 0.57934 1.11995
 C2256 C 0.75635 0.57002 1.11088
 H2257 H 0.79051 0.56761 1.12486
 H2258 H 0.75512 0.55138 1.10906
 H2259 H 0.81402 0.60026 1.13660
 H2260 H 0.78678 0.66954 1.13154
 H2261 H 0.68654 0.62338 1.08505
 H2262 H 0.71656 0.55557 1.09296
 H2263 H 0.75132 0.65505 1.11541
 H2264 H 0.72084 0.64097 1.10066
 C2265 C 1.26177 0.88098 0.88438
 C2266 C 1.27818 0.89623 0.87450
 C2267 C 1.29881 0.88749 0.86486
 C2268 C 1.30388 0.86356 0.86534
 C2269 C 1.28744 0.84866 0.87557
 C2270 C 1.26681 0.85716 0.88484
 C2271 C 1.23984 0.89092 0.89420
 C2272 C 1.22196 0.87705 0.90332
 C2273 C 1.20196 0.88709 0.91243
 C2274 C 1.19919 0.91123 0.91289
 C2275 C 1.21679 0.92521 0.90358
 C2276 C 1.23692 0.91526 0.89410
 C2277 C 1.27409 0.92016 0.87462
 C2278 C 1.25403 0.92948 0.88441
 H2279 H 1.28670 0.93192 0.86719
 H2280 H 1.25179 0.94812 0.88422
 H2281 H 1.31133 0.89965 0.85799
 H2282 H 1.28984 0.83008 0.87568
 H2283 H 1.18842 0.87581 0.91886
 H2284 H 1.21493 0.94389 0.90386
 H2285 H 1.25510 0.84468 0.89228
 H2286 H 1.22288 0.85841 0.90338
 C2287 C 1.26174 0.38053 0.38395
 C2288 C 1.27817 0.39588 0.37428
 C2289 C 1.29880 0.38725 0.36457
 C2290 C 1.30385 0.36331 0.36472
 C2291 C 1.28739 0.34830 0.37474
 C2292 C 1.26675 0.35669 0.38409
 C2293 C 1.23983 0.39038 0.39392
 C2294 C 1.22195 0.37645 0.40296
 C2295 C 1.20195 0.38643 0.41217
 C2296 C 1.19918 0.41057 0.41277
 C2297 C 1.21681 0.42461 0.40360
 C2298 C 1.23693 0.41473 0.39405
 C2299 C 1.27411 0.41981 0.37467
 C2300 C 1.25404 0.42904 0.38452
 H2301 H 1.28674 0.43164 0.36739
 H2302 H 1.25182 0.44768 0.38452
 H2303 H 1.31136 0.39951 0.35796
 H2304 H 1.28982 0.32972 0.37461
 H2305 H 1.18842 0.37512 0.41852
 H2306 H 1.21496 0.44329 0.40404
 H2307 H 1.25500 0.34413 0.39134
 H2308 H 1.22289 0.35781 0.40291
 C2309 C 0.76292 0.88397 0.38310
 C2310 C 0.78055 0.87734 0.39882
 C2311 C 0.80165 0.86844 0.39049
 C2312 C 0.80559 0.86613 0.36657
 C2313 C 0.78806 0.87264 0.35106
 C2314 C 0.76704 0.88143 0.35914
 C2315 C 0.74071 0.89353 0.39267
 C2316 C 0.72215 0.90059 0.37847
 C2317 C 0.70192 0.90959 0.38818
 C2318 C 0.69957 0.91185 0.41228
 C2319 C 0.71785 0.90467 0.42662
 C2320 C 0.73834 0.89559 0.41703
 C2321 C 0.77706 0.87973 0.42275
 C2322 C 0.75643 0.88867 0.43165
 H2323 H 0.79054 0.87466 0.43481
 H2324 H 0.75463 0.89022 0.45029
 H2325 H 0.81517 0.86366 0.40261
 H2326 H 0.79052 0.87068 0.33254
 H2327 H 0.68792 0.91459 0.37673
 H2328 H 0.71627 0.90649 0.44527
 H2329 H 0.75432 0.88609 0.34629
 H2330 H 0.72280 0.89931 0.35984
 C2331 C 0.76761 0.38893 0.88884
 C2332 C 0.77154 0.36478 0.89005
 C2333 C 0.79206 0.35521 0.88107
 C2334 C 0.80883 0.36919 0.87004
 C2335 C 0.80454 0.39321 0.86878
 C2336 C 0.78442 0.40290 0.87808
 C2337 C 0.74543 0.39844 0.89858
 C2338 C 0.74030 0.42230 0.89917
 C2339 C 0.71914 0.43023 0.90786
 C2340 C 0.70243 0.41463 0.91613
 C2341 C 0.70758 0.39084 0.91601
 C2342 C 0.72892 0.38270 0.90755
 C2343 C 0.75471 0.35021 0.89970
 C2344 C 0.73377 0.35894 0.90803
 H2345 H 0.75762 0.33168 0.90055
 H2346 H 0.72120 0.34688 0.91503
 H2347 H 0.79417 0.33657 0.88158
 H2348 H 0.81710 0.40494 0.86132
 H2349 H 0.71593 0.44870 0.90824
 H2350 H 0.69481 0.37853 0.92214
 H2351 H 0.78235 0.42139 0.87649
 H2352 H 0.75239 0.43518 0.89312
 C2353 C 0.73398 0.88733 1.11154
 C2354 C 0.73165 0.88510 1.13588
 C2355 C 0.71139 0.87561 1.14544
 C2356 C 0.69323 0.86817 1.13112
 C2357 C 0.69554 0.87043 1.10702
 C2358 C 0.71559 0.87988 1.09732
 C2359 C 0.75604 0.89732 1.10204
 C2360 C 0.76018 0.90016 1.07811
 C2361 C 0.78118 0.90915 1.07016
 C2362 C 0.79861 0.91560 1.08578
 C2363 C 0.79457 0.91309 1.10965
 C2364 C 0.77354 0.90402 1.11786
 C2365 C 0.74959 0.89220 1.15057
 C2366 C 0.77007 0.90144 1.14176
 H2367 H 0.74780 0.89051 1.16920
 H2368 H 0.78345 0.90657 1.15386
 H2369 H 0.70993 0.87365 1.16408
 H2370 H 0.68167 0.86508 1.09560
 H2371 H 0.78376 0.91117 1.05166
 H2372 H 0.80803 0.91773 1.12188
 H2373 H 0.71629 0.88117 1.07868
 H2374 H 0.74750 0.89552 1.06522
 C2375 C 0.73889 0.38107 0.61728
 C2376 C 0.72228 0.39614 0.62716
 C2377 C 0.70166 0.38720 0.63658
 C2378 C 0.69679 0.36325 0.63584
 C2379 C 0.71340 0.34854 0.62557
 C2380 C 0.73403 0.35723 0.61655
 C2381 C 0.76079 0.39122 0.60767
 C2382 C 0.77889 0.37752 0.59866
 C2383 C 0.79878 0.38776 0.58958
 C2384 C 0.80123 0.41193 0.58907
 C2385 C 0.78346 0.42574 0.59841
 C2386 C 0.76343 0.41558 0.60784
 C2387 C 0.72614 0.42010 0.62721
 C2388 C 0.74614 0.42962 0.61754
 H2389 H 0.71338 0.43172 0.63463
 H2390 H 0.74818 0.44827 0.61781
 H2391 H 0.68900 0.39923 0.64347
 H2392 H 0.71112 0.32995 0.62525
 H2393 H 0.81246 0.37661 0.58318
 H2394 H 0.78509 0.44443 0.59812
 H2395 H 0.74589 0.34489 0.60905
 H2396 H 0.77820 0.35887 0.59862
 C2397 C 0.23901 0.88082 0.61746
 C2398 C 0.22236 0.89591 0.62725
 C2399 C 0.20173 0.88698 0.63665
 C2400 C 0.19686 0.86303 0.63594
 C2401 C 0.21350 0.84830 0.62575
 C2402 C 0.23416 0.85698 0.61676
 C2403 C 0.26093 0.89095 0.60789
 C2404 C 0.27908 0.87724 0.59900
 C2405 C 0.29899 0.88746 0.58996
 C2406 C 0.30142 0.91164 0.58935
 C2407 C 0.28360 0.92546 0.59856
 C2408 C 0.26355 0.91532 0.60798
 C2409 C 0.22621 0.91987 0.62723
 C2410 C 0.24622 0.92938 0.61757
 H2411 H 0.21341 0.93151 0.63459
 H2412 H 0.24824 0.94803 0.61779
 H2413 H 0.18904 0.89902 0.64348
 H2414 H 0.21122 0.82971 0.62545
 H2415 H 0.31271 0.87630 0.58366
 H2416 H 0.28521 0.94416 0.59821
 H2417 H 0.24604 0.84463 0.60931
 H2418 H 0.27841 0.85859 0.59904
 C2419 C 0.23823 0.38424 1.11847
 C2420 C 0.22076 0.37736 1.10269
 C2421 C 0.19984 0.36803 1.11097
 C2422 C 0.19594 0.36549 1.13486
 C2423 C 0.21337 0.37213 1.15041
 C2424 C 0.23420 0.38136 1.14240
 C2425 C 0.26023 0.39431 1.10897
 C2426 C 0.27856 0.40180 1.12322
 C2427 C 0.29866 0.41111 1.11357
 C2428 C 0.30109 0.41328 1.08947
 C2429 C 0.28296 0.40584 1.07509
 C2430 C 0.26262 0.39644 1.08462
 C2431 C 0.22423 0.37993 1.07878
 C2432 C 0.24470 0.38924 1.06995
 H2433 H 0.21089 0.37467 1.06669
 H2434 H 0.24651 0.39086 1.05131
 H2435 H 0.18641 0.36309 1.09882
 H2436 H 0.21097 0.36996 1.16891
 H2437 H 0.31252 0.41635 1.12505
 H2438 H 0.28458 0.40763 1.05644
 H2439 H 0.24685 0.38609 1.15527
 H2440 H 0.27783 0.40059 1.14186
 C2441 C 0.73684 1.11305 0.88234
 C2442 C 0.72068 1.12318 0.89773
 C2443 C 0.69997 1.13272 0.88918
 C2444 C 0.69456 1.13196 0.86531
 C2445 C 0.71052 1.12105 0.85033
 C2446 C 0.73125 1.11186 0.85864
 C2447 C 0.75909 1.10377 0.89203
 C2448 C 0.77698 1.09497 0.87794
 C2449 C 0.79733 1.08643 0.88775
 C2450 C 0.80043 1.08624 0.91189
 C2451 C 0.78284 1.09532 0.92608
 C2452 C 0.76239 1.10429 0.91634
 C2453 C 0.72513 1.12348 0.92161
 C2454 C 0.74539 1.11397 0.93074
 H2455 H 0.71267 1.13104 0.93348
 H2456 H 0.74792 1.11449 0.94935
 H2457 H 0.68770 1.13989 0.90146
 H2458 H 0.70775 1.12050 0.83179
 H2459 H 0.81085 1.08023 0.87629
 H2460 H 0.78496 1.09528 0.94475
 H2461 H 0.74267 1.10395 0.84612
 H2462 H 0.77580 1.09477 0.85928
 C2463 C 0.73952 0.61840 0.38100
 C2464 C 0.72145 0.62465 0.39642
 C2465 C 0.70070 0.63401 0.38775
 C2466 C 0.69760 0.63728 0.36383
 C2467 C 0.71571 0.63145 0.34868
 C2468 C 0.73636 0.62215 0.35707
 C2469 C 0.76120 0.60801 0.39087
 C2470 C 0.77991 0.60071 0.37694
 C2471 C 0.79965 0.59100 0.38691
 C2472 C 0.80136 0.58830 0.41101
 C2473 C 0.78287 0.59554 0.42508
 C2474 C 0.76283 0.60524 0.41521
 C2475 C 0.72414 0.62143 0.42034
 C2476 C 0.74441 0.61201 0.42954
 H2477 H 0.71035 0.62625 0.43216
 H2478 H 0.74563 0.60989 0.44817
 H2479 H 0.68676 0.63833 0.39961
 H2480 H 0.71396 0.63423 0.33019
 H2481 H 0.81382 0.58586 0.37570
 H2482 H 0.78395 0.59331 0.44372
 H2483 H 0.74956 0.61807 0.34449
 H2484 H 0.77971 0.60229 0.35832
 C2485 C 0.23699 1.11505 0.38258
 C2486 C 0.22085 1.12526 0.39795
 C2487 C 0.20005 1.13468 0.38940
 C2488 C 0.19448 1.13352 0.36560
 C2489 C 0.21060 1.12286 0.35060
 C2490 C 0.23143 1.11388 0.35888
 C2491 C 0.25915 1.10555 0.39229
 C2492 C 0.27691 1.09643 0.37823
 C2493 C 0.29711 1.08755 0.38807
 C2494 C 0.30019 1.08731 0.41221
 C2495 C 0.28273 1.09673 0.42637
 C2496 C 0.26243 1.10603 0.41660
 C2497 C 0.22535 1.12563 0.42183
 C2498 C 0.24555 1.11597 0.43097
 H2499 H 0.21295 1.13329 0.43369
 H2500 H 0.24808 1.11649 0.44958
 H2501 H 0.18777 1.14189 0.40165
 H2502 H 0.20780 1.12223 0.33207
 H2503 H 0.31053 1.08112 0.37662
 H2504 H 0.28481 1.09666 0.44505
 H2505 H 0.24289 1.10607 0.34635
 H2506 H 0.27575 1.09620 0.35958
 C2507 C 0.23786 0.61402 0.88181
 C2508 C 0.22014 0.62091 0.89734
 C2509 C 0.19930 0.63015 0.88877
 C2510 C 0.19575 0.63268 0.86482
 C2511 C 0.21329 0.62570 0.84949
 C2512 C 0.23403 0.61649 0.85780
 C2513 C 0.25993 0.60446 0.89165
 C2514 C 0.27865 0.59732 0.87767
 C2515 C 0.29881 0.58849 0.88762
 C2516 C 0.30093 0.58649 0.91177
 C2517 C 0.28247 0.59370 0.92590
 C2518 C 0.26206 0.60261 0.91605
 C2519 C 0.22332 0.61860 0.92131
 C2520 C 0.24381 0.60963 0.93046
 H2521 H 0.20975 0.62384 0.93321
 H2522 H 0.24540 0.60822 0.94913
 H2523 H 0.18575 0.63525 0.90077
 H2524 H 0.21116 0.62779 0.83095
 H2525 H 0.31295 0.58344 0.87634
 H2526 H 0.28389 0.59207 0.94457
 H2527 H 0.24683 0.61157 0.84509
 H2528 H 0.27819 0.59843 0.85902
 C2529 C 1.11298 1.26520 1.11287
 C2530 C 1.13730 1.26689 1.11555
 C2531 C 1.14715 1.28695 1.12513
 C2532 C 1.13314 1.30556 1.13216
 C2533 C 1.10908 1.30396 1.12921
 C2534 C 1.09910 1.28411 1.11971
 C2535 C 1.10312 1.24326 1.10302
 C2536 C 1.07915 1.23962 1.10010
 C2537 C 1.07085 1.21872 1.09124
 C2538 C 1.08616 1.20092 1.08496
 C2539 C 1.11006 1.20442 1.08762
 C2540 C 1.11861 1.22532 1.09663
 C2541 C 1.15165 1.24850 1.10881
 C2542 C 1.14252 1.22820 1.09952
 H2543 H 1.17027 1.24980 1.11081
 H2544 H 1.15438 1.21447 1.09464
 H2545 H 1.16574 1.28790 1.12753
 H2546 H 1.09790 1.31822 1.13412
 H2547 H 1.05234 1.21653 1.08915
 H2548 H 1.12203 1.19064 1.08314
 H2549 H 1.08052 1.28398 1.11791
 H2550 H 1.06650 1.25260 1.10464
 C2551 C 1.11937 0.75999 0.61685
 C2552 C 1.10406 0.77810 0.62318
 C2553 C 1.11279 0.79875 0.63263
 C2554 C 1.13669 0.80170 0.63595
 C2555 C 1.15177 0.78360 0.62994
 C2556 C 1.14330 0.76305 0.62053
 C2557 C 1.10941 0.73836 0.60651
 C2558 C 1.12322 0.71956 0.59927
 C2559 C 1.11315 0.69983 0.58968
 C2560 C 1.08907 0.69825 0.58702
 C2561 C 1.07512 0.71685 0.59419
 C2562 C 1.08508 0.73686 0.60379
 C2563 C 1.08015 0.77554 0.61997
 C2564 C 1.07087 0.75534 0.61056
 H2565 H 1.06840 0.78937 0.62484
 H2566 H 1.05225 0.75422 0.60846
 H2567 H 1.10099 0.81269 0.63705
 H2568 H 1.17024 0.78526 0.63271
 H2569 H 1.12428 0.68558 0.58462
 H2570 H 1.05650 0.71587 0.59199
 H2571 H 1.15582 0.74984 0.61632
 H2572 H 1.14182 0.71964 0.60085
 C2573 C 0.61934 1.26008 0.61711
 C2574 C 0.60402 1.27821 0.62338
 C2575 C 0.61276 1.29890 0.63273
 C2576 C 0.63667 1.30188 0.63599
 C2577 C 0.65174 1.28378 0.63000
 C2578 C 0.64328 1.26318 0.62070
 C2579 C 0.60937 1.23840 0.60690
 C2580 C 0.62318 1.21955 0.59977
 C2581 C 0.61311 1.19979 0.59026
 C2582 C 0.58903 1.19821 0.58757
 C2583 C 0.57508 1.21683 0.59467
 C2584 C 0.58504 1.23688 0.60419
 C2585 C 0.58011 1.27562 0.62022
 C2586 C 0.57083 1.25539 0.61089
 H2587 H 0.56837 1.28947 0.62504
 H2588 H 0.55221 1.25425 0.60881
 H2589 H 0.60096 1.31285 0.63712
 H2590 H 0.67023 1.28546 0.63273
 H2591 H 0.62423 1.18551 0.58526
 H2592 H 0.55646 1.21584 0.59247
 H2593 H 0.65580 1.24997 0.61651
 H2594 H 0.64178 1.21963 0.60136
 C2595 C 0.61179 0.76633 1.11168
 C2596 C 0.63612 0.76845 1.11384
 C2597 C 0.64581 0.78864 1.12329
 C2598 C 0.63163 0.80693 1.13079
 C2599 C 0.60754 0.80484 1.12855
 C2600 C 0.59771 0.78488 1.11912
 C2601 C 0.60214 0.74432 1.10178
 C2602 C 0.57820 0.74038 1.09905
 C2603 C 0.57010 0.71940 1.09019
 C2604 C 0.58558 0.70180 1.08374
 C2605 C 0.60946 0.70564 1.08614
 C2606 C 0.61781 0.72664 1.09510
 C2607 C 0.65066 0.75035 1.10673
 C2608 C 0.64171 0.72991 1.09758
 H2609 H 0.66929 0.75197 1.10837
 H2610 H 0.65371 0.71639 1.09245
 H2611 H 0.66444 0.78993 1.12523
 H2612 H 0.59622 0.81883 1.13393
 H2613 H 0.55160 0.71698 1.08824
 H2614 H 0.62158 0.69204 1.08152
 H2615 H 0.57909 0.78435 1.11787
 H2616 H 0.56542 0.75319 1.10369
 C2617 C 0.88908 1.26639 0.88740
 C2618 C 0.86474 1.26870 0.88541
 C2619 C 0.85506 1.28914 0.87641
 C2620 C 0.86926 1.30751 0.86924
 C2621 C 0.89336 1.30524 0.87137
 C2622 C 0.90317 1.28501 0.88032
 C2623 C 0.89871 1.24414 0.89684
 C2624 C 0.92266 1.23997 0.89931
 C2625 C 0.93074 1.21885 0.90793
 C2626 C 0.91523 1.20132 0.91437
 C2627 C 0.89135 1.20533 0.91209
 C2628 C 0.88302 1.22648 0.90339
 C2629 C 0.85018 1.25056 0.89228
 C2630 C 0.85912 1.22993 0.90108
 H2631 H 0.83155 1.25233 0.89077
 H2632 H 0.84710 1.21641 0.90610
 H2633 H 0.83642 1.29059 0.87459
 H2634 H 0.90470 1.31927 0.86627
 H2635 H 0.94924 1.21628 0.90975
 H2636 H 0.87920 1.19178 0.91670
 H2637 H 0.92179 1.28437 0.88152
 H2638 H 0.93547 1.25273 0.89468
 C2639 C 0.88921 0.76591 0.38763
 C2640 C 0.86489 0.76791 0.38511
 C2641 C 0.85515 0.78824 0.37598
 C2642 C 0.86924 0.80686 0.36925
 C2643 C 0.89331 0.80496 0.37202
 C2644 C 0.90319 0.78481 0.38108
 C2645 C 0.89892 0.74368 0.39701
 C2646 C 0.92288 0.73968 0.39971
 C2647 C 0.93103 0.71855 0.40824
 C2648 C 0.91557 0.70088 0.41441
 C2649 C 0.89169 0.70470 0.41186
 C2650 C 0.88330 0.72582 0.40319
 C2651 C 0.85041 0.74957 0.39158
 C2652 C 0.85941 0.72901 0.40047
 H2653 H 0.83179 0.75111 0.38970
 H2654 H 0.84746 0.71533 0.40519
 H2655 H 0.83655 0.78938 0.37364
 H2656 H 0.90455 0.81919 0.36728
 H2657 H 0.94952 0.71608 0.41023
 H2658 H 0.87961 0.69101 0.41622
 H2659 H 0.92178 0.78444 0.38277
 H2660 H 0.93563 0.75257 0.39527
 C2661 C 0.38204 1.26066 0.38242
 C2662 C 0.39735 1.27890 0.37659
 C2663 C 0.38861 1.29974 0.36748
 C2664 C 0.36473 1.30274 0.36401
 C2665 C 0.34969 1.28446 0.36944
 C2666 C 0.35815 1.26374 0.37851
 C2667 C 0.39197 1.23887 0.39252
 C2668 C 0.37812 1.22000 0.39941
 C2669 C 0.38812 1.20018 0.40891
 C2670 C 0.41217 1.19854 0.41182
 C2671 C 0.42618 1.21717 0.40493
 C2672 C 0.41627 1.23731 0.39546
 C2673 C 0.42123 1.27627 0.37996
 C2674 C 0.43049 1.25590 0.38911
 H2675 H 0.43298 1.29019 0.37546
 H2676 H 0.44910 1.25473 0.39136
 H2677 H 0.40039 1.31379 0.36344
 H2678 H 0.33124 1.28613 0.36648
 H2679 H 0.37698 1.18590 0.41377
 H2680 H 0.44478 1.21612 0.40731
 H2681 H 0.34565 1.25042 0.38228
 H2682 H 0.35954 1.22013 0.39768
 C2683 C 0.38149 0.76008 0.88215
 C2684 C 0.39681 0.77820 0.87599
 C2685 C 0.38806 0.79906 0.86694
 C2686 C 0.36414 0.80220 0.86389
 C2687 C 0.34906 0.78408 0.86971
 C2688 C 0.35755 0.76333 0.87870
 C2689 C 0.39146 0.73827 0.89214
 C2690 C 0.37763 0.71946 0.89924
 C2691 C 0.38768 0.69963 0.90867
 C2692 C 0.41176 0.69792 0.91129
 C2693 C 0.42575 0.71645 0.90415
 C2694 C 0.41580 0.73659 0.89473
 C2695 C 0.42074 0.77545 0.87898
 C2696 C 0.43002 0.75508 0.88808
 H2697 H 0.43249 0.78929 0.87423
 H2698 H 0.44865 0.75383 0.89006
 H2699 H 0.39986 0.81301 0.86265
 H2700 H 0.33057 0.78589 0.86711
 H2701 H 0.37654 0.68541 0.91372
 H2702 H 0.44437 0.71534 0.90629
 H2703 H 0.34502 0.75013 0.88279
 H2704 H 0.35903 0.71965 0.89773
 C2705 C 1.11870 0.73745 0.88635
 C2706 C 1.10320 0.71976 0.87947
 C2707 C 1.11179 0.69895 0.87017
 C2708 C 1.13571 0.69540 0.86758
 C2709 C 1.15101 0.71290 0.87454
 C2710 C 1.14268 0.73361 0.88381
 C2711 C 1.10884 0.75949 0.89598
 C2712 C 1.12278 0.77818 0.90310
 C2713 C 1.11280 0.79832 0.91196
 C2714 C 1.08869 0.80046 0.91402
 C2715 C 1.07460 0.78201 0.90686
 C2716 C 1.08447 0.76162 0.89790
 C2717 C 1.07926 0.72294 0.88186
 C2718 C 1.07010 0.74340 0.89089
 H2719 H 1.06739 0.70940 0.87662
 H2720 H 1.05145 0.74500 0.89236
 H2721 H 1.09982 0.68543 0.86508
 H2722 H 1.16953 0.71076 0.87241
 H2723 H 1.12405 0.81246 0.91697
 H2724 H 1.05595 0.78343 0.90853
 H2725 H 1.15536 0.74638 0.88872
 H2726 H 1.14140 0.77771 0.90193
 C2727 C 1.11226 0.23382 0.38760
 C2728 C 1.13660 0.23190 0.38511
 C2729 C 1.14642 0.21175 0.37560
 C2730 C 1.13237 0.19327 0.36846
 C2731 C 1.10829 0.19510 0.37119
 C2732 C 1.09833 0.21504 0.38063
 C2733 C 1.10246 0.25585 0.39738
 C2734 C 1.07849 0.25972 0.40013
 C2735 C 1.07024 0.28071 0.40893
 C2736 C 1.08560 0.29838 0.41530
 C2737 C 1.10950 0.29464 0.41280
 C2738 C 1.11800 0.27366 0.40386
 C2739 C 1.15100 0.25015 0.39194
 C2740 C 1.14191 0.27055 0.40115
 H2741 H 1.16963 0.24868 0.39008
 H2742 H 1.15381 0.28417 0.40610
 H2743 H 1.16503 0.21065 0.37332
 H2744 H 1.09709 0.18095 0.36614
 H2745 H 1.05173 0.28308 0.41091
 H2746 H 1.12152 0.30831 0.41735
 H2747 H 1.07973 0.21536 0.38226
 H2748 H 1.06579 0.24686 0.39553
 C2749 C 0.61330 0.73483 0.38774
 C2750 C 0.61515 0.73305 0.36332
 C2751 C 0.62467 0.71309 0.35319
 C2752 C 0.63254 0.69469 0.36700
 C2753 C 0.63054 0.69639 0.39117
 C2754 C 0.62101 0.71613 0.40145
 C2755 C 0.60346 0.75670 0.39785
 C2756 C 0.60109 0.76038 0.42191
 C2757 C 0.59221 0.78124 0.43042
 C2758 C 0.58539 0.79893 0.41522
 C2759 C 0.58754 0.79538 0.39124
 C2760 C 0.59648 0.77453 0.38249
 C2761 C 0.60776 0.75129 0.34911
 C2762 C 0.59864 0.77157 0.35849
 H2763 H 0.60917 0.74991 0.33042
 H2764 H 0.59327 0.78521 0.34674
 H2765 H 0.62649 0.71213 0.33450
 H2766 H 0.63630 0.68232 0.40219
 H2767 H 0.59049 0.78346 0.44899
 H2768 H 0.58267 0.80908 0.37934
 H2769 H 0.61998 0.71640 0.42011
 H2770 H 0.60602 0.74746 0.43447
 C2771 C 0.61827 0.23649 0.88708
 C2772 C 0.60272 0.21883 0.88026
 C2773 C 0.61124 0.19794 0.87108
 C2774 C 0.63516 0.19428 0.86858
 C2775 C 0.65050 0.21175 0.87552
 C2776 C 0.64224 0.23253 0.88467
 C2777 C 0.60848 0.25865 0.89652
 C2778 C 0.62249 0.27735 0.90349
 C2779 C 0.61259 0.29759 0.91219
 C2780 C 0.58848 0.29983 0.91424
 C2781 C 0.57432 0.28139 0.90719
 C2782 C 0.58411 0.26089 0.89839
 C2783 C 0.57878 0.22213 0.88257
 C2784 C 0.56969 0.24268 0.89147
 H2785 H 0.56686 0.20861 0.87739
 H2786 H 0.55104 0.24437 0.89289
 H2787 H 0.59925 0.18445 0.86597
 H2788 H 0.66902 0.20953 0.87343
 H2789 H 0.62389 0.31172 0.91709
 H2790 H 0.55567 0.28289 0.90885
 H2791 H 0.65496 0.24526 0.88956
 H2792 H 0.64111 0.27680 0.90232
 C2793 C 0.88099 0.74000 1.11860
 C2794 C 0.89630 0.72194 1.12505
 C2795 C 0.88751 0.70111 1.13406
 C2796 C 0.86355 0.69791 1.13679
 C2797 C 0.84847 0.71591 1.13054
 C2798 C 0.85699 0.73665 1.12158
 C2799 C 0.89104 0.76186 1.10880
 C2800 C 0.87726 0.78072 1.10165
 C2801 C 0.88739 0.80058 1.09240
 C2802 C 0.91150 0.80228 1.09000
 C2803 C 0.92543 0.78370 1.09725
 C2804 C 0.91540 0.76355 1.10652
 C2805 C 0.92025 0.72472 1.12238
 C2806 C 0.92960 0.74508 1.11335
 H2807 H 0.93199 0.71091 1.12733
 H2808 H 0.94825 0.74634 1.11161
 H2809 H 0.89931 0.68722 1.13862
 H2810 H 0.82994 0.71403 1.13282
 H2811 H 0.87627 0.81483 1.08730
 H2812 H 0.94408 0.78479 1.09530
 H2813 H 0.84446 0.74977 1.11716
 H2814 H 0.85864 0.78055 1.10301
 C2815 C 0.87920 0.24173 0.61921
 C2816 C 0.89432 0.22369 0.62614
 C2817 C 0.88531 0.20314 0.63554
 C2818 C 0.86131 0.20019 0.63818
 C2819 C 0.84640 0.21812 0.63137
 C2820 C 0.85515 0.23859 0.62202
 C2821 C 0.88949 0.26334 0.60913
 C2822 C 0.87592 0.28221 0.60164
 C2823 C 0.88628 0.30186 0.59219
 C2824 C 0.91042 0.30332 0.58992
 C2825 C 0.92414 0.28472 0.59750
 C2826 C 0.91389 0.26480 0.60700
 C2827 C 0.91831 0.22623 0.62359
 C2828 C 0.92788 0.24634 0.61424
 H2829 H 0.92990 0.21243 0.62890
 H2830 H 0.94656 0.24742 0.61262
 H2831 H 0.89697 0.18927 0.64051
 H2832 H 0.82784 0.21640 0.63352
 H2833 H 0.87532 0.31614 0.58685
 H2834 H 0.94281 0.28563 0.59567
 H2835 H 0.84274 0.25169 0.61717
 H2836 H 0.85729 0.28223 0.60290
 C2837 C 0.38817 0.73490 0.61464
 C2838 C 0.36381 0.73300 0.61687
 C2839 C 0.35394 0.71279 0.62611
 C2840 C 0.36793 0.69421 0.63323
 C2841 C 0.39204 0.69607 0.63089
 C2842 C 0.40206 0.71608 0.62172
 C2843 C 0.39800 0.75693 0.60495
 C2844 C 0.42198 0.76074 0.60227
 C2845 C 0.43024 0.78169 0.59343
 C2846 C 0.41488 0.79937 0.58696
 C2847 C 0.39098 0.79572 0.58944
 C2848 C 0.38247 0.77477 0.59839
 C2849 C 0.34943 0.75130 0.61001
 C2850 C 0.35855 0.77171 0.60094
 H2851 H 0.33079 0.74983 0.61170
 H2852 H 0.34666 0.78536 0.59593
 H2853 H 0.33530 0.71169 0.62813
 H2854 H 0.40322 0.68187 0.63597
 H2855 H 0.44876 0.78400 0.59148
 H2856 H 0.37896 0.80941 0.58483
 H2857 H 0.42068 0.71642 0.62034
 H2858 H 0.43466 0.74784 0.60692
 C2859 C 0.38763 0.23525 1.11441
 C2860 C 0.36324 0.23347 1.11635
 C2861 C 0.35318 0.21342 1.12571
 C2862 C 0.36703 0.19496 1.13336
 C2863 C 0.39117 0.19663 1.13118
 C2864 C 0.40137 0.21645 1.12182
 C2865 C 0.39769 0.25719 1.10476
 C2866 C 0.42173 0.26089 1.10241
 C2867 C 0.43020 0.28179 1.09367
 C2868 C 0.41500 0.29952 1.08698
 C2869 C 0.39105 0.29598 1.08915
 C2870 C 0.38233 0.27507 1.09796
 C2871 C 0.34902 0.25177 1.10916
 C2872 C 0.35836 0.27211 1.10016
 H2873 H 0.33036 0.25039 1.11062
 H2874 H 0.34660 0.28580 1.09493
 H2875 H 0.33451 0.21240 1.12756
 H2876 H 0.40222 0.18248 1.13666
 H2877 H 0.44875 0.28401 1.09194
 H2878 H 0.37914 0.30971 1.08438
 H2879 H 0.42001 0.21669 1.12065
 H2880 H 0.43429 0.24794 1.10725
 C2881 C 1.11275 1.11086 0.73316
 C2882 C 1.11462 1.13522 0.73108
 C2883 C 1.12378 1.14509 0.71081
 C2884 C 1.13122 1.13109 0.69236
 C2885 C 1.12931 1.10697 0.69440
 C2886 C 1.12018 1.09695 0.71448
 C2887 C 1.10310 1.10104 0.75526
 C2888 C 1.10063 1.07707 0.75920
 C2889 C 1.09183 1.06882 0.78021
 C2890 C 1.08520 1.08421 0.79783
 C2891 C 1.08747 1.10810 0.79403
 C2892 C 1.09633 1.11659 0.77301
 C2893 C 1.10751 1.14963 0.74929
 C2894 C 1.09857 1.14051 0.76979
 H2895 H 1.10895 1.16827 0.74769
 H2896 H 1.09338 1.15241 0.78337
 H2897 H 1.12553 1.16375 0.70957
 H2898 H 1.13472 1.09580 0.68032
 H2899 H 1.09003 1.05031 0.78262
 H2900 H 1.08273 1.12015 0.80766
 H2901 H 1.11914 1.07832 0.71498
 H2902 H 1.10539 1.06437 0.74634
 C2903 C 1.11346 0.61073 0.23309
 C2904 C 1.11214 0.63492 0.22956
 C2905 C 1.12104 0.64485 0.20919
 C2906 C 1.13207 0.63118 0.19213
 C2907 C 1.13365 0.60713 0.19609
 C2908 C 1.12442 0.59707 0.21609
 C2909 C 1.10362 0.60085 0.25507
 C2910 C 1.10295 0.57690 0.25975
 C2911 C 1.09400 0.56863 0.28069
 C2912 C 1.08556 0.58396 0.29761
 C2913 C 1.08587 0.60784 0.29293
 C2914 C 1.09453 0.61631 0.27181
 C2915 C 1.10242 0.64922 0.24663
 C2916 C 1.09407 0.64015 0.26740
 H2917 H 1.10153 0.66779 0.24402
 H2918 H 1.08699 0.65200 0.28015
 H2919 H 1.12046 0.66351 0.20743
 H2920 H 1.14128 0.59568 0.18335
 H2921 H 1.09351 0.55010 0.28354
 H2922 H 1.07968 0.61996 0.30588
 H2923 H 1.12618 0.57857 0.21792
 H2924 H 1.10909 0.56423 0.24745
 C2925 C 0.61548 1.11690 0.23686
 C2926 C 0.62216 1.10134 0.21909
 C2927 C 0.63105 1.10985 0.19804
 C2928 C 0.63331 1.13377 0.19433
 C2929 C 0.62679 1.14910 0.21202
 C2930 C 0.61799 1.14086 0.23297
 C2931 C 0.60595 1.10716 0.25901
 C2932 C 0.59882 1.12120 0.27769
 C2933 C 0.58985 1.11136 0.29785
 C2934 C 0.58769 1.08727 0.30003
 C2935 C 0.59493 1.07308 0.28164
 C2936 C 0.60397 1.08281 0.26120
 C2937 C 0.61984 1.07742 0.22238
 C2938 C 0.61093 1.06836 0.24296
 H2939 H 0.62494 1.06548 0.20879
 H2940 H 0.60945 1.04972 0.24462
 H2941 H 0.63590 1.09787 0.18440
 H2942 H 0.62876 1.16761 0.20976
 H2943 H 0.58481 1.12269 0.31195
 H2944 H 0.59319 1.05444 0.28310
 H2945 H 0.61333 1.15358 0.24582
 H2946 H 0.60002 1.13982 0.27717
 C2947 C 0.61100 0.61155 0.73294
 C2948 C 0.63533 0.61363 0.73060
 C2949 C 0.64491 0.62308 0.71031
 C2950 C 0.63064 0.63066 0.69213
 C2951 C 0.60655 0.62848 0.69443
 C2952 C 0.59683 0.61905 0.71450
 C2953 C 0.60147 0.60166 0.75505
 C2954 C 0.57755 0.59898 0.75920
 C2955 C 0.56956 0.59012 0.78027
 C2956 C 0.58514 0.58362 0.79776
 C2957 C 0.60900 0.58596 0.79370
 C2958 C 0.61724 0.59491 0.77261
 C2959 C 0.64997 0.60647 0.74858
 C2960 C 0.64112 0.59733 0.76912
 H2961 H 0.66859 0.60805 0.74679
 H2962 H 0.65319 0.59215 0.78255
 H2963 H 0.66354 0.62496 0.70885
 H2964 H 0.59516 0.63391 0.68054
 H2965 H 0.55108 0.58821 0.78286
 H2966 H 0.62119 0.58129 0.80721
 H2967 H 0.57821 0.61785 0.71519
 H2968 H 0.56470 0.60367 0.74649
 C2969 C 0.88806 0.88801 0.73382
 C2970 C 0.88555 0.86369 0.73186
 C2971 C 0.87609 0.85399 0.71166
 C2972 C 0.86897 0.86813 0.69319
 C2973 C 0.87167 0.89219 0.69507
 C2974 C 0.88109 0.90203 0.71505
 C2975 C 0.89781 0.89768 0.75590
 C2976 C 0.90069 0.92161 0.75978
 C2977 C 0.90943 0.92974 0.78082
 C2978 C 0.91561 0.91428 0.79853
 C2979 C 0.91301 0.89041 0.79478
 C2980 C 0.90415 0.88205 0.77373
 C2981 C 0.89229 0.84919 0.75012
 C2982 C 0.90140 0.85816 0.77058
 H2983 H 0.89040 0.83058 0.74861
 H2984 H 0.90627 0.84620 0.78423
 H2985 H 0.87380 0.83539 0.71054
 H2986 H 0.86658 0.90346 0.68094
 H2987 H 0.91151 0.94822 0.78321
 H2988 H 0.91741 0.87833 0.80848
 H2989 H 0.88269 0.92062 0.71543
 H2990 H 0.89623 0.93437 0.74688
 C2991 C 0.88813 0.38609 0.23445
 C2992 C 0.86391 0.38725 0.23104
 C2993 C 0.85395 0.37802 0.21087
 C2994 C 0.86760 0.36678 0.19394
 C2995 C 0.89170 0.36554 0.19770
 C2996 C 0.90179 0.37511 0.21747
 C2997 C 0.89803 0.39610 0.25630
 C2998 C 0.92199 0.39677 0.26092
 C2999 C 0.93028 0.40577 0.28179
 C3000 C 0.91496 0.41427 0.29869
 C3001 C 0.89107 0.41400 0.29406
 C3002 C 0.88258 0.40526 0.27302
 C3003 C 0.84962 0.39709 0.24805
 C3004 C 0.85872 0.40566 0.26869
 H3005 H 0.83103 0.39788 0.24552
 H3006 H 0.84689 0.41280 0.28143
 H3007 H 0.83527 0.37848 0.20921
 H3008 H 0.90316 0.35785 0.18498
 H3009 H 0.94881 0.40623 0.28462
 H3010 H 0.87897 0.42025 0.30701
 H3011 H 0.92032 0.37354 0.21917
 H3012 H 0.93465 0.39056 0.24864
 C3013 C 0.38826 0.88735 0.23419
 C3014 C 0.36403 0.88841 0.23084
 C3015 C 0.35404 0.87910 0.21070
 C3016 C 0.36770 0.86787 0.19377
 C3017 C 0.39183 0.86684 0.19743
 C3018 C 0.40193 0.87648 0.21716
 C3019 C 0.39819 0.89733 0.25606
 C3020 C 0.42216 0.89798 0.26066
 C3021 C 0.43047 0.90691 0.28156
 C3022 C 0.41517 0.91535 0.29851
 C3023 C 0.39128 0.91511 0.29389
 C3024 C 0.38275 0.90643 0.27283
 C3025 C 0.34976 0.89821 0.24789
 C3026 C 0.35889 0.90679 0.26853
 H3027 H 0.33116 0.89895 0.24541
 H3028 H 0.34706 0.91389 0.28130
 H3029 H 0.33536 0.87946 0.20910
 H3030 H 0.40330 0.85923 0.18468
 H3031 H 0.44900 0.90734 0.28438
 H3032 H 0.37919 0.92132 0.30687
 H3033 H 0.42048 0.87503 0.21878
 H3034 H 0.43481 0.89180 0.24836
 C3035 C 0.38721 0.38680 0.73480
 C3036 C 0.38533 0.36243 0.73285
 C3037 C 0.37568 0.35250 0.71287
 C3038 C 0.36768 0.36645 0.69463
 C3039 C 0.36968 0.39058 0.69650
 C3040 C 0.37934 0.40066 0.71626
 C3041 C 0.39719 0.39670 0.75668
 C3042 C 0.39965 0.42069 0.76050
 C3043 C 0.40858 0.42901 0.78139
 C3044 C 0.41535 0.41369 0.79902
 C3045 C 0.41320 0.38978 0.79529
 C3046 C 0.40421 0.38121 0.77439
 C3047 C 0.39281 0.34809 0.75094
 C3048 C 0.40203 0.35727 0.77126
 H3049 H 0.39139 0.32943 0.74944
 H3050 H 0.40744 0.34542 0.78480
 H3051 H 0.37387 0.33384 0.71177
 H3052 H 0.36381 0.40170 0.68257
 H3053 H 0.41033 0.44753 0.78372
 H3054 H 0.41806 0.37778 0.80891
 H3055 H 0.38036 0.41929 0.71668
 H3056 H 0.39474 0.43333 0.74765
 C3057 C 1.12081 0.88215 1.26112
 C3058 C 1.10585 0.87147 1.27733
 C3059 C 1.11491 0.86133 1.29758
 C3060 C 1.13883 0.86229 1.30255
 C3061 C 1.15341 0.87336 1.28635
 C3062 C 1.14463 0.88301 1.26605
 C3063 C 1.11057 0.89246 1.23958
 C3064 C 1.12419 0.90212 1.22177
 C3065 C 1.11389 0.91171 1.20214
 C3066 C 1.08971 0.91216 1.19970
 C3067 C 1.07597 0.90227 1.21724
 C3068 C 1.08621 0.89223 1.23694
 C3069 C 1.08188 0.87137 1.27346
 C3070 C 1.07226 0.88179 1.25386
 H3071 H 1.07034 0.86335 1.28592
 H3072 H 1.05360 0.88146 1.25181
 H3073 H 1.10300 0.85375 1.30995
 H3074 H 1.17200 0.87386 1.28870
 H3075 H 1.12501 0.91848 1.18862
 H3076 H 1.05727 0.90250 1.21564
 H3077 H 1.15687 0.89114 1.25452
 H3078 H 1.14285 0.90220 1.22243
 C3079 C 1.11550 0.38693 0.76557
 C3080 C 1.11437 0.36268 0.76872
 C3081 C 1.12381 0.35242 0.78867
 C3082 C 1.13520 0.36580 0.80565
 C3083 C 1.13657 0.38993 0.80207
 C3084 C 1.12681 0.40031 0.78251
 C3085 C 1.10510 0.39717 0.74403
 C3086 C 1.10425 0.42119 0.73977
 C3087 C 1.09484 0.42980 0.71919
 C3088 C 1.08611 0.41474 0.70222
 C3089 C 1.08655 0.39079 0.70651
 C3090 C 1.09568 0.38198 0.72727
 C3091 C 1.10428 0.34866 0.75168
 C3092 C 1.09540 0.35807 0.73130
 H3093 H 1.10352 0.33005 0.75400
 H3094 H 1.08806 0.34643 0.71853
 H3095 H 1.12332 0.33373 0.79012
 H3096 H 1.14447 0.40117 0.81480
 H3097 H 1.09427 0.44837 0.71663
 H3098 H 1.08012 0.37889 0.69351
 H3099 H 1.12845 0.41884 0.78095
 H3100 H 1.11061 0.43365 0.75213
 C3101 C 0.61325 0.88621 0.76606
 C3102 C 0.63764 0.88418 0.76778
 C3103 C 0.64771 0.87449 0.78769
 C3104 C 0.63389 0.86661 0.80609
 C3105 C 0.60974 0.86873 0.80442
 C3106 C 0.59952 0.87842 0.78474
 C3107 C 0.60319 0.89631 0.74430
 C3108 C 0.57917 0.89892 0.74071
 C3109 C 0.57069 0.90802 0.71994
 C3110 C 0.58588 0.91482 0.70222
 C3111 C 0.60983 0.91249 0.70569
 C3112 C 0.61855 0.90332 0.72647
 C3113 C 0.65185 0.89162 0.74956
 C3114 C 0.64251 0.90097 0.72936
 H3115 H 0.67051 0.89008 0.75089
 H3116 H 0.65426 0.90636 0.71572
 H3117 H 0.66638 0.87260 0.78863
 H3118 H 0.59871 0.86300 0.81849
 H3119 H 0.55215 0.90989 0.71779
 H3120 H 0.62172 0.91736 0.69198
 H3121 H 0.58088 0.87956 0.78450
 H3122 H 0.56661 0.89401 0.75365
 C3123 C 0.61329 0.38822 1.26763
 C3124 C 0.61255 0.36395 1.27086
 C3125 C 0.62171 0.35396 1.29109
 C3126 C 0.63237 0.36764 1.30832
 C3127 C 0.63310 0.39180 1.30477
 C3128 C 0.62366 0.40190 1.28491
 C3129 C 0.60347 0.39816 1.24567
 C3130 C 0.60263 0.42213 1.24109
 C3131 C 0.59376 0.43045 1.22015
 C3132 C 0.58556 0.41516 1.20313
 C3133 C 0.58607 0.39126 1.20769
 C3134 C 0.59472 0.38272 1.22877
 C3135 C 0.60318 0.34968 1.25363
 C3136 C 0.59466 0.35883 1.23297
 H3137 H 0.60269 0.33107 1.25602
 H3138 H 0.58785 0.34700 1.22009
 H3139 H 0.62165 0.33526 1.29256
 H3140 H 0.64028 0.40328 1.31771
 H3141 H 0.59316 0.44899 1.21735
 H3142 H 0.58008 0.37918 1.19463
 H3143 H 0.62482 0.42048 1.28341
 H3144 H 0.60861 0.43477 1.25345
 C3145 C 0.88466 1.11898 1.26260
 C3146 C 0.87721 1.10343 1.28007
 C3147 C 0.86798 1.11196 1.30096
 C3148 C 0.86619 1.13589 1.30486
 C3149 C 0.87361 1.15123 1.28754
 C3150 C 0.88271 1.14296 1.26671
 C3151 C 0.89439 1.10920 1.24055
 C3152 C 0.90201 1.12321 1.22205
 C3153 C 0.91105 1.11331 1.20193
 C3154 C 0.91281 1.08919 1.19963
 C3155 C 0.90511 1.07505 1.21788
 C3156 C 0.89593 1.08484 1.23823
 C3157 C 0.87910 1.07949 1.27664
 C3158 C 0.88831 1.07040 1.25620
 H3159 H 0.87343 1.06757 1.29000
 H3160 H 0.88945 1.05174 1.25443
 H3161 H 0.86248 1.09997 1.31434
 H3162 H 0.87209 1.16977 1.28998
 H3163 H 0.91643 1.12463 1.18795
 H3164 H 0.90653 1.05638 1.21635
 H3165 H 0.88807 1.15568 1.25413
 H3166 H 0.90110 1.14184 1.22266
 C3167 C 0.88521 0.61884 0.76293
 C3168 C 0.87864 0.60324 0.78069
 C3169 C 0.86951 0.61167 0.80165
 C3170 C 0.86677 0.63556 0.80529
 C3171 C 0.87328 0.65095 0.78764
 C3172 C 0.88238 0.64278 0.76678
 C3173 C 0.89485 0.60915 0.74080
 C3174 C 0.90190 0.62322 0.72211
 C3175 C 0.91080 0.61339 0.70189
 C3176 C 0.91294 0.58930 0.69968
 C3177 C 0.90588 0.57509 0.71812
 C3178 C 0.89693 0.58481 0.73860
 C3179 C 0.88119 0.57933 0.77744
 C3180 C 0.89012 0.57032 0.75685
 H3181 H 0.87617 0.56737 0.79103
 H3182 H 0.89172 0.55169 0.75520
 H3183 H 0.86473 0.59963 0.81526
 H3184 H 0.87098 0.66944 0.78982
 H3185 H 0.91577 0.62472 0.68777
 H3186 H 0.90766 0.55646 0.71664
 H3187 H 0.88696 0.65553 0.75392
 H3188 H 0.90068 0.64183 0.72267
 C3189 C 0.38494 1.11958 0.76268
 C3190 C 0.37757 1.10417 0.78030
 C3191 C 0.36820 1.11287 0.80105
 C3192 C 0.36612 1.13682 0.80464
 C3193 C 0.37356 1.15202 0.78720
 C3194 C 0.38286 1.14359 0.76654
 C3195 C 0.39463 1.10963 0.74069
 C3196 C 0.40212 1.12350 0.72204
 C3197 C 0.41104 1.11345 0.70195
 C3198 C 0.41282 1.08932 0.69984
 C3199 C 0.40526 1.07530 0.71823
 C3200 C 0.39620 1.08524 0.73857
 C3201 C 0.37957 1.08020 0.77710
 C3202 C 0.38873 1.07095 0.75671
 H3203 H 0.37396 1.06839 0.79059
 H3204 H 0.38992 1.05228 0.75511
 H3205 H 0.36266 1.10099 0.81452
 H3206 H 0.37179 1.17057 0.78936
 H3207 H 0.41632 1.12466 0.68785
 H3208 H 0.40670 1.05663 0.71683
 H3209 H 0.38817 1.15621 0.75384
 H3210 H 0.40118 1.14213 0.72249
 C3211 C 0.38514 0.62003 1.26228
 C3212 C 0.37773 0.60461 1.27988
 C3213 C 0.36824 0.61331 1.30059
 C3214 C 0.36606 0.63726 1.30413
 C3215 C 0.37349 0.65246 1.28669
 C3216 C 0.38291 0.64403 1.26608
 C3217 C 0.39500 0.61008 1.24036
 C3218 C 0.40259 0.62395 1.22174
 C3219 C 0.41164 0.61390 1.20171
 C3220 C 0.41346 0.58976 1.19962
 C3221 C 0.40584 0.57575 1.21800
 C3222 C 0.39665 0.58569 1.23827
 C3223 C 0.37984 0.58065 1.27673
 C3224 C 0.38913 0.57140 1.25640
 H3225 H 0.37420 0.56883 1.29020
 H3226 H 0.39038 0.55274 1.25482
 H3227 H 0.36270 0.60142 1.31405
 H3228 H 0.37164 0.67101 1.28881
 H3229 H 0.41697 0.62510 1.18762
 H3230 H 0.40731 0.55708 1.21662
 H3231 H 0.38822 0.65665 1.25337
 H3232 H 0.40162 0.64258 1.22218
 C3233 C 1.11971 1.25967 0.88185
 C3234 C 1.10441 1.27771 0.87531
 C3235 C 1.11320 1.29847 0.86613
 C3236 C 1.13715 1.30163 0.86335
 C3237 C 1.15223 1.28364 0.86964
 C3238 C 1.14370 1.26296 0.87875
 C3239 C 1.10966 1.23790 0.89186
 C3240 C 1.12344 1.21910 0.89917
 C3241 C 1.11331 1.19931 0.90859
 C3242 C 1.08920 1.19764 0.91102
 C3243 C 1.07527 1.21618 0.90365
 C3244 C 1.08530 1.23626 0.89421
 C3245 C 1.08045 1.27497 0.87805
 C3246 C 1.07111 1.25469 0.88726
 H3247 H 1.06872 1.28875 0.87302
 H3248 H 1.05246 1.25345 0.88904
 H3249 H 1.10140 1.31235 0.86153
 H3250 H 1.17075 1.28548 0.86731
 H3251 H 1.12442 1.18510 0.91378
 H3252 H 1.05662 1.21512 0.90563
 H3253 H 1.15622 1.24985 0.88322
 H3254 H 1.14205 1.21926 0.89780
 C3255 C 1.12036 0.75931 0.38202
 C3256 C 1.10521 0.77739 0.37524
 C3257 C 1.11420 0.79803 0.36596
 C3258 C 1.13819 0.80103 0.36336
 C3259 C 1.15310 0.78300 0.36994
 C3260 C 1.14439 0.76246 0.37915
 C3261 C 1.11014 0.73761 0.39198
 C3262 C 1.12377 0.71874 0.39936
 C3263 C 1.11349 0.69900 0.40869
 C3264 C 1.08936 0.69744 0.41098
 C3265 C 1.07556 0.71604 0.40352
 C3266 C 1.08575 0.73608 0.39414
 C3267 C 1.08122 0.77477 0.37780
 C3268 C 1.07170 0.75456 0.38702
 H3269 H 1.06960 0.78858 0.37260
 H3270 H 1.05304 0.75342 0.38866
 H3271 H 1.10253 0.81192 0.36104
 H3272 H 1.17166 0.78465 0.36769
 H3273 H 1.12451 0.68473 0.41392
 H3274 H 1.05690 0.71506 0.40536
 H3275 H 1.15681 0.74932 0.38381
 H3276 H 1.14239 0.71878 0.39810
 C3277 C 0.61903 1.26174 0.38425
 C3278 C 0.60367 1.27799 0.37424
 C3279 C 0.61220 1.29880 0.36490
 C3280 C 0.63601 1.30429 0.36588
 C3281 C 0.65102 1.28810 0.37637
 C3282 C 0.64274 1.26722 0.38528
 C3283 C 0.60929 1.23960 0.39373
 C3284 C 0.62329 1.22174 0.40274
 C3285 C 0.61339 1.20158 0.41162
 C3286 C 0.58926 1.19862 0.41198
 C3287 C 0.57517 1.21618 0.40269
 C3288 C 0.58498 1.23643 0.39339
 C3289 C 0.57980 1.27360 0.37401
 C3290 C 0.57064 1.25341 0.38362
 H3291 H 0.56796 1.28609 0.36650
 H3292 H 0.55204 1.25097 0.38321
 H3293 H 0.59991 1.31118 0.35797
 H3294 H 0.66953 1.29093 0.37696
 H3295 H 0.62479 1.18809 0.41798
 H3296 H 0.55650 1.21421 0.40287
 H3297 H 0.65527 1.25568 0.39295
 H3298 H 0.64192 1.22284 0.40287
 C3299 C 0.61918 0.76010 0.88261
 C3300 C 0.60381 0.77817 0.87632
 C3301 C 0.61252 0.79906 0.86734
 C3302 C 0.63646 0.80230 0.86452
 C3303 C 0.65159 0.78427 0.87057
 C3304 C 0.64314 0.76349 0.87949
 C3305 C 0.60923 0.73819 0.89238
 C3306 C 0.62309 0.71934 0.89939
 C3307 C 0.61305 0.69941 0.90860
 C3308 C 0.58896 0.69765 0.91110
 C3309 C 0.57494 0.71622 0.90401
 C3310 C 0.58488 0.73644 0.89478
 C3311 C 0.57987 0.77533 0.87910
 C3312 C 0.57061 0.75491 0.88809
 H3313 H 0.56808 0.78914 0.87427
 H3314 H 0.55197 0.75360 0.88992
 H3315 H 0.60068 0.81294 0.86287
 H3316 H 0.67010 0.78614 0.86816
 H3317 H 0.62422 0.68517 0.91358
 H3318 H 0.55631 0.71507 0.90604
 H3319 H 0.65572 0.75036 0.88376
 H3320 H 0.64170 0.71956 0.89795
 C3321 C 0.88428 1.26173 1.11803
 C3322 C 0.87682 1.27930 1.10259
 C3323 C 0.86769 1.30014 1.11131
 C3324 C 0.86604 1.30388 1.13530
 C3325 C 0.87341 1.28644 1.15052
 C3326 C 0.88241 1.26567 1.14208
 C3327 C 0.89394 1.23976 1.10808
 C3328 C 0.90158 1.22121 1.12200
 C3329 C 0.91066 1.20120 1.11196
 C3330 C 0.91244 1.19907 1.08780
 C3331 C 0.90464 1.21733 1.07373
 C3332 C 0.89544 1.23758 1.08367
 C3333 C 0.87863 1.27601 1.07859
 C3334 C 0.88779 1.25563 1.06934
 H3335 H 0.87296 1.28944 1.06675
 H3336 H 0.88889 1.25399 1.05065
 H3337 H 0.86216 1.31361 1.09943
 H3338 H 0.87195 1.28874 1.16910
 H3339 H 0.91609 1.18719 1.12321
 H3340 H 0.90605 1.21590 1.05504
 H3341 H 0.88775 1.25301 1.15472
 H3342 H 0.90068 1.22168 1.14065
 C3343 C 0.88244 0.76261 0.61506
 C3344 C 0.89806 0.78025 0.62178
 C3345 C 0.88964 0.80118 0.63096
 C3346 C 0.86573 0.80492 0.63352
 C3347 C 0.85033 0.78739 0.62690
 C3348 C 0.85849 0.76654 0.61780
 C3349 C 0.89212 0.74056 0.60526
 C3350 C 0.87803 0.72200 0.59807
 C3351 C 0.88784 0.70188 0.58896
 C3352 C 0.91193 0.69963 0.58671
 C3353 C 0.92615 0.71795 0.59394
 C3354 C 0.91646 0.73833 0.60313
 C3355 C 0.92198 0.77693 0.61925
 C3356 C 0.93097 0.75644 0.61012
 H3357 H 0.93395 0.79042 0.62438
 H3358 H 0.94960 0.75475 0.60850
 H3359 H 0.90169 0.81471 0.63580
 H3360 H 0.83182 0.78968 0.62903
 H3361 H 0.87648 0.68785 0.58391
 H3362 H 0.94479 0.71646 0.59211
 H3363 H 0.84573 0.75379 0.61309
 H3364 H 0.85941 0.72257 0.59935
 C3365 C 0.38127 1.26168 0.61639
 C3366 C 0.39655 1.27820 0.62598
 C3367 C 0.38781 1.29877 0.63570
 C3368 C 0.36384 1.30368 0.63560
 C3369 C 0.34890 1.28715 0.62561
 C3370 C 0.35741 1.26658 0.61626
 C3371 C 0.39121 1.23980 0.60650
 C3372 C 0.37733 1.22179 0.59771
 C3373 C 0.38738 1.20185 0.58850
 C3374 C 0.41153 1.19927 0.58761
 C3375 C 0.42554 1.21699 0.59661
 C3376 C 0.41558 1.23706 0.60619
 C3377 C 0.42051 1.27428 0.62547
 C3378 C 0.42983 1.25428 0.61558
 H3379 H 0.43229 1.28698 0.63267
 H3380 H 0.44849 1.25217 0.61547
 H3381 H 0.39999 1.31137 0.64233
 H3382 H 0.33030 1.28945 0.62578
 H3383 H 0.37610 1.18822 0.58233
 H3384 H 0.44423 1.21527 0.59600
 H3385 H 0.34490 1.25478 0.60903
 H3386 H 0.35868 1.22258 0.59798
 C3387 C 0.38495 0.76232 1.11823
 C3388 C 0.37747 0.77987 1.10279
 C3389 C 0.36843 0.80076 1.11151
 C3390 C 0.36684 0.80455 1.13550
 C3391 C 0.37436 0.78717 1.15072
 C3392 C 0.38330 0.76637 1.14228
 C3393 C 0.39438 0.74024 1.10826
 C3394 C 0.40193 0.72164 1.12216
 C3395 C 0.41079 0.70154 1.11211
 C3396 C 0.41243 0.69935 1.08794
 C3397 C 0.40468 0.71764 1.07389
 C3398 C 0.39570 0.73799 1.08384
 C3399 C 0.37912 0.77651 1.07879
 C3400 C 0.38809 0.75606 1.06953
 H3401 H 0.37343 0.78995 1.06695
 H3402 H 0.38906 0.75437 1.05083
 H3403 H 0.36285 0.81419 1.09961
 H3404 H 0.37298 0.78951 1.16930
 H3405 H 0.41618 0.68751 1.12335
 H3406 H 0.40597 0.71617 1.05519
 H3407 H 0.38873 0.75373 1.15492
 H3408 H 0.40113 0.72216 1.14083
 C3409 C 0.88213 0.73742 0.88688
 C3410 C 0.89764 0.71990 0.87946
 C3411 C 0.88905 0.69912 0.87017
 C3412 C 0.86510 0.69541 0.86820
 C3413 C 0.84980 0.71272 0.87574
 C3414 C 0.85813 0.73342 0.88496
 C3415 C 0.89199 0.75944 0.89648
 C3416 C 0.87803 0.77802 0.90399
 C3417 C 0.88801 0.79814 0.91282
 C3418 C 0.91214 0.80034 0.91449
 C3419 C 0.92623 0.78201 0.90691
 C3420 C 0.91637 0.76166 0.89794
 C3421 C 0.92160 0.72320 0.88134
 C3422 C 0.93076 0.74360 0.89043
 H3423 H 0.93348 0.70978 0.87570
 H3424 H 0.94942 0.74528 0.89153
 H3425 H 0.90102 0.68573 0.86465
 H3426 H 0.83126 0.71042 0.87413
 H3427 H 0.87673 0.81219 0.91812
 H3428 H 0.94490 0.78348 0.90825
 H3429 H 0.84545 0.74603 0.89035
 H3430 H 0.85940 0.77749 0.90312
 C3431 C 0.88810 0.23444 0.38854
 C3432 C 0.86374 0.23257 0.38644
 C3433 C 0.85385 0.21258 0.37682
 C3434 C 0.86783 0.19424 0.36907
 C3435 C 0.89195 0.19603 0.37133
 C3436 C 0.90199 0.21580 0.38096
 C3437 C 0.89797 0.25633 0.39847
 C3438 C 0.92196 0.26008 0.40107
 C3439 C 0.93026 0.28099 0.40991
 C3440 C 0.91493 0.29869 0.41646
 C3441 C 0.89102 0.29502 0.41420
 C3442 C 0.88247 0.27411 0.40527
 C3443 C 0.84938 0.25073 0.39370
 C3444 C 0.85854 0.27105 0.40290
 H3445 H 0.83073 0.24929 0.39212
 H3446 H 0.84667 0.28465 0.40814
 H3447 H 0.83520 0.21152 0.37486
 H3448 H 0.90310 0.18201 0.36574
 H3449 H 0.94879 0.28329 0.41175
 H3450 H 0.87902 0.30870 0.41889
 H3451 H 0.92061 0.21614 0.38218
 H3452 H 0.93462 0.24719 0.39632
 C3453 C 0.38120 0.73850 0.38583
 C3454 C 0.39635 0.72223 0.37552
 C3455 C 0.38751 0.70179 0.36570
 C3456 C 0.36358 0.69676 0.36638
 C3457 C 0.34883 0.71289 0.37735
 C3458 C 0.35743 0.73334 0.38682
 C3459 C 0.39121 0.76041 0.39550
 C3460 C 0.37740 0.77835 0.40463
 C3461 C 0.38750 0.79838 0.41352
 C3462 C 0.41165 0.80110 0.41375
 C3463 C 0.42558 0.78345 0.40438
 C3464 C 0.41555 0.76332 0.39507
 C3465 C 0.42028 0.72629 0.37534
 C3466 C 0.42969 0.74625 0.38515
 H3467 H 0.43196 0.71376 0.36762
 H3468 H 0.44832 0.74848 0.38470
 H3469 H 0.39960 0.68941 0.35842
 H3470 H 0.33026 0.71044 0.37780
 H3471 H 0.37625 0.81196 0.41994
 H3472 H 0.44426 0.78527 0.40445
 H3473 H 0.34507 0.74488 0.39478
 H3474 H 0.35875 0.77746 0.40483
 C3475 C 0.38128 0.23806 0.88634
 C3476 C 0.39644 0.22174 0.87614
 C3477 C 0.38761 0.20131 0.86630
 C3478 C 0.36368 0.19634 0.86687
 C3479 C 0.34890 0.21250 0.87774
 C3480 C 0.35749 0.23296 0.88722
 C3481 C 0.39128 0.25996 0.89603
 C3482 C 0.37745 0.27796 0.90501
 C3483 C 0.38754 0.29799 0.91391
 C3484 C 0.41169 0.30065 0.91430
 C3485 C 0.42564 0.28292 0.90509
 C3486 C 0.41562 0.26280 0.89576
 C3487 C 0.42039 0.22574 0.87610
 C3488 C 0.42978 0.24568 0.88596
 H3489 H 0.43209 0.21317 0.86848
 H3490 H 0.44842 0.24786 0.88563
 H3491 H 0.39971 0.18889 0.85909
 H3492 H 0.33032 0.21009 0.87810
 H3493 H 0.37627 0.31162 0.92020
 H3494 H 0.44432 0.28469 0.90529
 H3495 H 0.34511 0.24453 0.89511
 H3496 H 0.35880 0.27713 0.90507
 C3497 C 1.11176 0.73413 1.11441
 C3498 C 1.13595 0.73044 1.11319
 C3499 C 1.14573 0.71001 1.12213
 C3500 C 1.13190 0.69307 1.13308
 C3501 C 1.10785 0.69718 1.13450
 C3502 C 1.09796 0.71723 1.12526
 C3503 C 1.10202 0.75612 1.10450
 C3504 C 1.07808 0.76092 1.10375
 C3505 C 1.06993 0.78186 1.09477
 C3506 C 1.08534 0.79867 1.08638
 C3507 C 1.10921 0.79386 1.08673
 C3508 C 1.11758 0.77274 1.09545
 C3509 C 1.15037 0.74740 1.10352
 C3510 C 1.14141 0.76819 1.09509
 H3511 H 1.16893 0.74468 1.10270
 H3512 H 1.15335 0.78084 1.08804
 H3513 H 1.16438 0.70805 1.12156
 H3514 H 1.09623 0.68450 1.14193
 H3515 H 1.05141 0.78480 1.09424
 H3516 H 1.12139 0.80673 1.08054
 H3517 H 1.07945 0.71915 1.12691
 H3518 H 1.06534 0.74871 1.10985
 C3519 C 1.11086 0.23408 0.61389
 C3520 C 1.13504 0.23038 0.61257
 C3521 C 1.14483 0.20990 0.62138
 C3522 C 1.13105 0.19292 0.63229
 C3523 C 1.10700 0.19702 0.63379
 C3524 C 1.09708 0.21712 0.62468
 C3525 C 1.10111 0.25615 0.60417
 C3526 C 1.07718 0.26104 0.60360
 C3527 C 1.06903 0.28203 0.59474
 C3528 C 1.08446 0.29882 0.58629
 C3529 C 1.10831 0.29395 0.58652
 C3530 C 1.11667 0.27278 0.59511
 C3531 C 1.14944 0.24736 0.60292
 C3532 C 1.14049 0.26819 0.59462
 H3533 H 1.16800 0.24462 0.60201
 H3534 H 1.15241 0.28086 0.58757
 H3535 H 1.16349 0.20799 0.62077
 H3536 H 1.09542 0.18432 0.64124
 H3537 H 1.05052 0.28504 0.59432
 H3538 H 1.12049 0.30680 0.58031
 H3539 H 1.07858 0.21904 0.62639
 H3540 H 1.06445 0.24885 0.60974
 C3541 C 0.61187 0.73345 0.61133
 C3542 C 0.61384 0.73099 0.63568
 C3543 C 0.62302 0.71056 0.64521
 C3544 C 0.63044 0.69238 0.63085
 C3545 C 0.62837 0.69480 0.60674
 C3546 C 0.61920 0.71500 0.59707
 C3547 C 0.60228 0.75571 0.60186
 C3548 C 0.59974 0.76000 0.57792
 C3549 C 0.59112 0.78117 0.57000
 C3550 C 0.58474 0.79863 0.58567
 C3551 C 0.58699 0.79446 0.60954
 C3552 C 0.59569 0.77325 0.61771
 C3553 C 0.60684 0.74897 0.65039
 C3554 C 0.59798 0.76964 0.64161
 H3555 H 0.60834 0.74709 0.66903
 H3556 H 0.59291 0.78306 0.65374
 H3557 H 0.62484 0.70902 0.66385
 H3558 H 0.63372 0.68092 0.59530
 H3559 H 0.58928 0.78385 0.55150
 H3560 H 0.58241 0.80794 0.62180
 H3561 H 0.61808 0.71579 0.57843
 H3562 H 0.60434 0.74730 0.56501
 C3563 C 0.61132 0.23347 1.11292
 C3564 C 0.63543 0.22952 1.11109
 C3565 C 0.64522 0.20904 1.11988
 C3566 C 0.63154 0.19240 1.13142
 C3567 C 0.60756 0.19671 1.13334
 C3568 C 0.59761 0.21676 1.12417
 C3569 C 0.60158 0.25561 1.10336
 C3570 C 0.57769 0.26070 1.10323
 C3571 C 0.56957 0.28179 1.09459
 C3572 C 0.58499 0.29849 1.08596
 C3573 C 0.60880 0.29340 1.08572
 C3574 C 0.61712 0.27210 1.09403
 C3575 C 0.64979 0.24632 1.10106
 C3576 C 0.64087 0.26726 1.09300
 H3577 H 0.66829 0.24340 1.09976
 H3578 H 0.65277 0.27982 1.08570
 H3579 H 0.66384 0.20693 1.11888
 H3580 H 0.59606 0.18422 1.14128
 H3581 H 0.55107 0.28495 1.09450
 H3582 H 0.62100 0.30616 1.07937
 H3583 H 0.57917 0.21887 1.12628
 H3584 H 0.56496 0.24859 1.10954
 C3585 C 1.26011 1.11883 0.88142
 C3586 C 1.27816 1.10365 0.87461
 C3587 C 1.29893 1.11260 0.86557
 C3588 C 1.30210 1.13659 0.86331
 C3589 C 1.28406 1.15154 0.86979
 C3590 C 1.26337 1.14286 0.87870
 C3591 C 1.23841 1.10865 0.89141
 C3592 C 1.21962 1.12232 0.89895
 C3593 C 1.19993 1.11209 0.90846
 C3594 C 1.19835 1.08797 0.91074
 C3595 C 1.21685 1.07413 0.90308
 C3596 C 1.23683 1.08427 0.89353
 C3597 C 1.27545 1.07966 0.87703
 C3598 C 1.25523 1.07019 0.88627
 H3599 H 1.28923 1.06801 0.87179
 H3600 H 1.25404 1.05152 0.88786
 H3601 H 1.31283 1.10091 0.86073
 H3602 H 1.28591 1.17010 0.86783
 H3603 H 1.18573 1.12313 0.91384
 H3604 H 1.21584 1.05547 0.90491
 H3605 H 1.25025 1.15531 0.88337
 H3606 H 1.21970 1.14094 0.89772
 C3607 C 1.26022 0.61893 0.38114
 C3608 C 1.27830 0.60381 0.37426
 C3609 C 1.29901 0.61284 0.36517
 C3610 C 1.30211 0.63685 0.36294
 C3611 C 1.28404 0.65173 0.36950
 C3612 C 1.26340 0.64297 0.37845
 C3613 C 1.23855 0.60866 0.39115
 C3614 C 1.21972 0.62226 0.39873
 C3615 C 1.20008 0.61194 0.40825
 C3616 C 1.19858 0.58781 0.41051
 C3617 C 1.21712 0.57406 0.40281
 C3618 C 1.23706 0.58428 0.39324
 C3619 C 1.27567 0.57982 0.37666
 C3620 C 1.25550 0.57026 0.38593
 H3621 H 1.28947 0.56822 0.37137
 H3622 H 1.25437 0.55160 0.38750
 H3623 H 1.31294 0.60120 0.36028
 H3624 H 1.28583 0.67031 0.36756
 H3625 H 1.18584 0.62293 0.41365
 H3626 H 1.21619 0.55539 0.40462
 H3627 H 1.25025 0.65537 0.38319
 H3628 H 1.21974 0.64088 0.39751
 C3629 C 0.76197 1.11806 0.38378
 C3630 C 0.77960 1.10269 0.37631
 C3631 C 0.80048 1.11145 0.36736
 C3632 C 0.80423 1.13542 0.36589
 C3633 C 0.78673 1.15057 0.37332
 C3634 C 0.76591 1.14208 0.38212
 C3635 C 0.73996 1.10805 0.39329
 C3636 C 0.72133 1.12188 0.40091
 C3637 C 0.70133 1.11178 0.40991
 C3638 C 0.69928 1.08764 0.41163
 C3639 C 0.71760 1.07366 0.40380
 C3640 C 0.73785 1.08365 0.39467
 C3641 C 0.77635 1.07871 0.37797
 C3642 C 0.75596 1.06940 0.38701
 H3643 H 0.78983 1.06693 0.37228
 H3644 H 0.75436 1.05073 0.38801
 H3645 H 0.81400 1.09960 0.36187
 H3646 H 0.78905 1.16914 0.37205
 H3647 H 0.68726 1.12297 0.41535
 H3648 H 0.71624 1.05499 0.40514
 H3649 H 0.75321 1.15467 0.38753
 H3650 H 0.72174 1.14051 0.40006
 C3651 C 0.76558 0.61125 0.88598
 C3652 C 0.76751 0.63564 0.88438
 C3653 C 0.78764 0.64571 0.87522
 C3654 C 0.80610 0.63188 0.86748
 C3655 C 0.80418 0.60772 0.86904
 C3656 C 0.78424 0.59750 0.87818
 C3657 C 0.74366 0.60122 0.89575
 C3658 C 0.73992 0.57721 0.89809
 C3659 C 0.71909 0.56878 0.90706
 C3660 C 0.70145 0.58403 0.91398
 C3661 C 0.70505 0.60796 0.91183
 C3662 C 0.72590 0.61662 0.90282
 C3663 C 0.74930 0.64989 0.89178
 C3664 C 0.72895 0.64059 0.90078
 H3665 H 0.75078 0.66856 0.89054
 H3666 H 0.71535 0.65236 0.90621
 H3667 H 0.78878 0.66439 0.87374
 H3668 H 0.81827 0.59668 0.86337
 H3669 H 0.71683 0.55025 0.90878
 H3670 H 0.69140 0.61989 0.91678
 H3671 H 0.78382 0.57885 0.87895
 H3672 H 0.75281 0.56462 0.89311
 C3673 C 1.26178 0.88142 1.11733
 C3674 C 1.27973 0.89686 1.12363
 C3675 C 1.30061 0.88826 1.13272
 C3676 C 1.30399 0.86436 1.13571
 C3677 C 1.28613 0.84913 1.12956
 C3678 C 1.26533 0.85747 1.12049
 C3679 C 1.23981 0.89130 1.10753
 C3680 C 1.22103 0.87740 1.10055
 C3681 C 1.20102 0.88739 1.09139
 C3682 C 1.19911 0.91148 1.08893
 C3683 C 1.21764 0.92552 1.09596
 C3684 C 1.23792 0.91564 1.10514
 C3685 C 1.27676 0.92078 1.12080
 C3686 C 1.25631 0.92996 1.11179
 H3687 H 1.29048 0.93261 1.12563
 H3688 H 1.25489 0.94859 1.10995
 H3689 H 1.31439 0.90018 1.13718
 H3690 H 1.28813 0.83064 1.13203
 H3691 H 1.18683 0.87619 1.08644
 H3692 H 1.21640 0.94415 1.09395
 H3693 H 1.25230 0.84485 1.11617
 H3694 H 1.22137 0.85879 1.10198
 C3695 C 1.26032 0.38100 0.61899
 C3696 C 1.27840 0.39635 0.62518
 C3697 C 1.29919 0.38765 0.63442
 C3698 C 1.30232 0.36374 0.63761
 C3699 C 1.28421 0.34865 0.63184
 C3700 C 1.26352 0.35709 0.62268
 C3701 C 1.23861 0.39091 0.60870
 C3702 C 1.21989 0.37705 0.60149
 C3703 C 1.20013 0.38705 0.59184
 C3704 C 1.19842 0.41112 0.58911
 C3705 C 1.21693 0.42513 0.59629
 C3706 C 1.23697 0.41522 0.60593
 C3707 C 1.27568 0.42025 0.62199
 C3708 C 1.25539 0.42948 0.61265
 H3709 H 1.28947 0.43202 0.62677
 H3710 H 1.25416 0.44810 0.61052
 H3711 H 1.31312 0.39945 0.63870
 H3712 H 1.28601 0.33017 0.63456
 H3713 H 1.18595 0.37589 0.58677
 H3714 H 1.21584 0.44374 0.59404
 H3715 H 1.25033 0.34455 0.61862
 H3716 H 1.22008 0.35845 0.60309
 C3717 C 0.76601 0.88866 0.61378
 C3718 C 0.76799 0.86434 0.61617
 C3719 C 0.78819 0.85455 0.62553
 C3720 C 0.80671 0.86860 0.63260
 C3721 C 0.80475 0.89269 0.63015
 C3722 C 0.78473 0.90263 0.62087
 C3723 C 0.74398 0.89840 0.60395
 C3724 C 0.74010 0.92235 0.60109
 C3725 C 0.71914 0.93052 0.59218
 C3726 C 0.70152 0.91509 0.58581
 C3727 C 0.70527 0.89122 0.58841
 C3728 C 0.72623 0.88281 0.59743
 C3729 C 0.74979 0.84988 0.60934
 C3730 C 0.72938 0.85891 0.60015
 H3731 H 0.75132 0.83126 0.61115
 H3732 H 0.71579 0.84698 0.59517
 H3733 H 0.78935 0.83593 0.62766
 H3734 H 0.81889 0.90391 0.63521
 H3735 H 0.71674 0.94901 0.59012
 H3736 H 0.69164 0.87916 0.58386
 H3737 H 0.78431 0.92123 0.61939
 H3738 H 0.75294 0.93507 0.60567
 C3739 C 0.76151 0.38280 1.11944
 C3740 C 0.77907 0.37553 1.10389
 C3741 C 0.79990 0.36627 1.11246
 C3742 C 0.80364 0.36424 1.13642
 C3743 C 0.78616 0.37137 1.15176
 C3744 C 0.76540 0.38050 1.14345
 C3745 C 0.73961 0.39277 1.10962
 C3746 C 0.72111 0.40046 1.12362
 C3747 C 0.70117 0.40978 1.11368
 C3748 C 0.69904 0.41174 1.08953
 C3749 C 0.71727 0.40398 1.07539
 C3750 C 0.73747 0.39456 1.08522
 C3751 C 0.77582 0.37767 1.07992
 C3752 C 0.75549 0.38700 1.07079
 H3753 H 0.78926 0.37211 1.06801
 H3754 H 0.75386 0.38834 1.05212
 H3755 H 0.81340 0.36100 1.10048
 H3756 H 0.78848 0.36967 1.17032
 H3757 H 0.68718 0.41522 1.12498
 H3758 H 0.71588 0.40557 1.05671
 H3759 H 0.75270 0.38565 1.15617
 H3760 H 0.72160 0.39942 1.14227
 C3761 C 0.73410 1.11336 1.11155
 C3762 C 0.73216 1.11598 1.13590
 C3763 C 0.71192 1.12535 1.14565
 C3764 C 0.69337 1.13225 1.13153
 C3765 C 0.69524 1.12947 1.10744
 C3766 C 0.71528 1.12016 1.09754
 C3767 C 0.75619 1.10361 1.10183
 C3768 C 0.76004 1.10062 1.07786
 C3769 C 0.78104 1.09178 1.06969
 C3770 C 0.79875 1.08561 1.08514
 C3771 C 0.79504 1.08837 1.10904
 C3772 C 0.77403 1.09733 1.11745
 C3773 C 0.75047 1.10936 1.15038
 C3774 C 0.77093 1.10022 1.14136
 H3775 H 0.74898 1.11134 1.16901
 H3776 H 0.78459 1.09542 1.15332
 H3777 H 0.71077 1.12768 1.16427
 H3778 H 0.68104 1.13433 1.09618
 H3779 H 0.78340 1.08960 1.05119
 H3780 H 0.80875 1.08399 1.12112
 H3781 H 0.71563 1.11846 1.07894
 H3782 H 0.74713 1.10505 1.06511
 C3783 C 0.73317 0.61280 0.61077
 C3784 C 0.73078 0.61466 0.63514
 C3785 C 0.71037 0.62374 0.64480
 C3786 C 0.69212 0.63118 0.63056
 C3787 C 0.69447 0.62926 0.60643
 C3788 C 0.71467 0.62018 0.59663
 C3789 C 0.75539 0.60324 0.60117
 C3790 C 0.75960 0.60074 0.57720
 C3791 C 0.78071 0.59204 0.56916
 C3792 C 0.79819 0.58554 0.58474
 C3793 C 0.79413 0.58782 0.60863
 C3794 C 0.77299 0.59657 0.61692
 C3795 C 0.74883 0.60762 0.64975
 C3796 C 0.76947 0.59880 0.64084
 H3797 H 0.74700 0.60904 0.66841
 H3798 H 0.78293 0.59368 0.65290
 H3799 H 0.70886 0.62545 0.66347
 H3800 H 0.68054 0.63462 0.59507
 H3801 H 0.78330 0.59019 0.55065
 H3802 H 0.80764 0.58317 0.62083
 H3803 H 0.71540 0.61915 0.57798
 H3804 H 0.74686 0.60541 0.56436
 C3805 C 0.23399 1.11423 0.61163
 C3806 C 0.23171 1.11624 0.63600
 C3807 C 0.21140 1.12553 0.64569
 C3808 C 0.19313 1.13299 0.63148
 C3809 C 0.19540 1.13096 0.60735
 C3810 C 0.21550 1.12171 0.59752
 C3811 C 0.25606 1.10435 0.60198
 C3812 C 0.26011 1.10165 0.57802
 C3813 C 0.28108 1.09266 0.56993
 C3814 C 0.29857 1.08605 0.58546
 C3815 C 0.29465 1.08850 0.60936
 C3816 C 0.27364 1.09756 0.61769
 C3817 C 0.24975 1.10910 0.65057
 C3818 C 0.27025 1.09999 0.64162
 H3819 H 0.24802 1.11064 0.66922
 H3820 H 0.28371 1.09478 0.65365
 H3821 H 0.20994 1.12729 0.66435
 H3822 H 0.18143 1.13631 0.59602
 H3823 H 0.28357 1.09069 0.55142
 H3824 H 0.30816 1.08376 0.62151
 H3825 H 0.21615 1.12059 0.57887
 H3826 H 0.24738 1.10639 0.56521
 C3827 C 0.23403 0.61381 1.11160
 C3828 C 0.23179 0.61584 1.13597
 C3829 C 0.21148 0.62510 1.14569
 C3830 C 0.19318 0.63253 1.13151
 C3831 C 0.19542 0.63054 1.10738
 C3832 C 0.21552 0.62130 1.09751
 C3833 C 0.25610 0.60395 1.10195
 C3834 C 0.26013 0.60120 1.07799
 C3835 C 0.28112 0.59224 1.06989
 C3836 C 0.29865 0.58573 1.08541
 C3837 C 0.29474 0.58822 1.10931
 C3838 C 0.27372 0.59723 1.11765
 C3839 C 0.24985 0.60874 1.15053
 C3840 C 0.27036 0.59967 1.14157
 H3841 H 0.24813 0.61030 1.16919
 H3842 H 0.28384 0.59452 1.15359
 H3843 H 0.21005 0.62688 1.16435
 H3844 H 0.18144 0.63593 1.09608
 H3845 H 0.28358 0.59023 1.05138
 H3846 H 0.30829 0.58355 1.12146
 H3847 H 0.21617 0.62020 1.07886
 H3848 H 0.24736 0.60586 1.06518
 C3849 C 0.73957 0.88083 0.88386
 C3850 C 0.72158 0.89620 0.87736
 C3851 C 0.70082 0.88751 0.86811
 C3852 C 0.69765 0.86360 0.86513
 C3853 C 0.71562 0.84846 0.87137
 C3854 C 0.73626 0.85688 0.88060
 C3855 C 0.76136 0.89075 0.89389
 C3856 C 0.78008 0.87689 0.90122
 C3857 C 0.79995 0.88692 0.91053
 C3858 C 0.80178 0.91102 0.91279
 C3859 C 0.78329 0.92503 0.90550
 C3860 C 0.76312 0.91510 0.89619
 C3861 C 0.72439 0.92013 0.88016
 C3862 C 0.74473 0.92938 0.88930
 H3863 H 0.71065 0.93192 0.87517
 H3864 H 0.74605 0.94801 0.89108
 H3865 H 0.68699 0.89937 0.86352
 H3866 H 0.71382 0.82996 0.86884
 H3867 H 0.81412 0.87575 0.91571
 H3868 H 0.78447 0.94368 0.90738
 H3869 H 0.74936 0.84431 0.88497
 H3870 H 0.77980 0.85827 0.89996
 C3871 C 0.73442 0.38672 0.38840
 C3872 C 0.73218 0.38507 0.36400
 C3873 C 0.71203 0.37566 0.35421
 C3874 C 0.69395 0.36763 0.36834
 C3875 C 0.69615 0.36934 0.39249
 C3876 C 0.71606 0.37878 0.40243
 C3877 C 0.75639 0.39660 0.39815
 C3878 C 0.76039 0.39901 0.42214
 C3879 C 0.78131 0.40794 0.43032
 C3880 C 0.79881 0.41475 0.41487
 C3881 C 0.79491 0.41261 0.39094
 C3882 C 0.77395 0.40366 0.38251
 C3883 C 0.75015 0.39257 0.34950
 C3884 C 0.77059 0.40161 0.35856
 H3885 H 0.74843 0.39130 0.33083
 H3886 H 0.78401 0.40705 0.34659
 H3887 H 0.71061 0.37411 0.33552
 H3888 H 0.68232 0.36347 0.40375
 H3889 H 0.78374 0.40970 0.44886
 H3890 H 0.80842 0.41750 0.37883
 H3891 H 0.71671 0.37958 0.42109
 H3892 H 0.74765 0.39411 0.43490
 C3893 C 0.24151 0.88086 0.38047
 C3894 C 0.22349 0.87396 0.39565
 C3895 C 0.20301 0.86438 0.38669
 C3896 C 0.20009 0.86162 0.36269
 C3897 C 0.21805 0.86829 0.34774
 C3898 C 0.23846 0.87777 0.35643
 C3899 C 0.26298 0.89127 0.39067
 C3900 C 0.28177 0.89881 0.37702
 C3901 C 0.30129 0.90857 0.38729
 C3902 C 0.30269 0.91111 0.41143
 C3903 C 0.28415 0.90352 0.42524
 C3904 C 0.26436 0.89370 0.41507
 C3905 C 0.22597 0.87678 0.41964
 C3906 C 0.24596 0.88642 0.42914
 H3907 H 0.21221 0.87149 0.43128
 H3908 H 0.24700 0.88827 0.44781
 H3909 H 0.18915 0.85944 0.39838
 H3910 H 0.21639 0.86599 0.32917
 H3911 H 0.31553 0.91389 0.37627
 H3912 H 0.28501 0.90557 0.44390
 H3913 H 0.25156 0.88253 0.34399
 H3914 H 0.28183 0.89735 0.35839
 C3915 C 0.23933 0.38084 0.88418
 C3916 C 0.22132 0.39617 0.87764
 C3917 C 0.20063 0.38743 0.86825
 C3918 C 0.19758 0.36350 0.86515
 C3919 C 0.21558 0.34842 0.87143
 C3920 C 0.23613 0.35689 0.88082
 C3921 C 0.26106 0.39082 0.89431
 C3922 C 0.27978 0.37699 0.90171
 C3923 C 0.29961 0.38706 0.91107
 C3924 C 0.30140 0.41117 0.91333
 C3925 C 0.28289 0.42514 0.90598
 C3926 C 0.26276 0.41517 0.89663
 C3927 C 0.22405 0.42010 0.88050
 C3928 C 0.24434 0.42939 0.88971
 H3929 H 0.21029 0.43186 0.87547
 H3930 H 0.24560 0.44803 0.89150
 H3931 H 0.18679 0.39925 0.86359
 H3932 H 0.21391 0.32993 0.86878
 H3933 H 0.31379 0.37591 0.91628
 H3934 H 0.28404 0.44379 0.90786
 H3935 H 0.24927 0.34436 0.88519
 H3936 H 0.27954 0.35837 0.90046
   
