data_POSCAR
  _audit_creation_date              2014-09-24
  _audit_creation_method            'ToBaCCo'
  _symmetry_space_group_name_H-M    'P1'
  _symmetry_Int_Tables_number       1
  _symmetry_cell_setting            triclinic
  loop_
  _symmetry_equiv_pos_as_xyz
 x,y,z
_cell_length_a 74.5218
_cell_length_b 74.5361
_cell_length_c 74.5667
_cell_angle_alpha 90.002300
_cell_angle_beta 90.008100
_cell_angle_gamma 90.008800
loop_
  _atom_site_label
  _atom_site_type_symbol
  _atom_site_fract_x
  _atom_site_fract_y
  _atom_site_fract_z
C1 C 0.19408 0.21142 0.22046
 C2 C 0.20583 0.19692 0.22322
 C3 C 0.22041 0.19390 0.21165
 C4 C 0.22315 0.20563 0.19714
 C5 C 0.21158 0.22020 0.19412
 C6 C 0.19709 0.22297 0.20587
 H7 H 0.20361 0.18796 0.23443
 H8 H 0.23435 0.20339 0.18816
 H9 H 0.18810 0.23416 0.20364
 C10 C 0.69389 0.71185 0.72052
 C11 C 0.69692 0.72344 0.70596
 C12 C 0.71141 0.72069 0.69421
 C13 C 0.72296 0.70608 0.69719
 C14 C 0.72019 0.69431 0.71166
 C15 C 0.70561 0.69733 0.72324
 H16 H 0.68795 0.73466 0.70376
 H17 H 0.73415 0.70386 0.68821
 H18 H 0.70338 0.68833 0.73442
 C19 C 0.30497 0.78851 0.72076
 C20 C 0.30199 0.77696 0.70618
 C21 C 0.28753 0.77971 0.69441
 C22 C 0.27594 0.79428 0.69739
 C23 C 0.27860 0.80609 0.71192
 C24 C 0.29322 0.80300 0.72351
 H25 H 0.31098 0.76577 0.70397
 H26 H 0.26480 0.79641 0.68830
 H27 H 0.29550 0.81190 0.73476
 C28 C 0.80600 0.28799 0.22083
 C29 C 0.80290 0.27640 0.20622
 C30 C 0.78840 0.27915 0.19448
 C31 C 0.77684 0.29373 0.19747
 C32 C 0.77959 0.30549 0.21193
 C33 C 0.79419 0.30251 0.22351
 H34 H 0.81180 0.26515 0.20392
 H35 H 0.76564 0.29594 0.18850
 H36 H 0.79632 0.31159 0.23464
 C37 C 0.80573 0.71177 0.27951
 C38 C 0.79399 0.69726 0.27679
 C39 C 0.77942 0.69425 0.28837
 C40 C 0.77666 0.70602 0.30284
 C41 C 0.78823 0.72062 0.30582
 C42 C 0.80271 0.72337 0.29407
 H43 H 0.79622 0.68826 0.26561
 H44 H 0.76547 0.70380 0.31183
 H45 H 0.81169 0.73458 0.29627
 C46 C 0.30601 0.21156 -0.22098
 C47 C 0.29420 0.19702 -0.22366
 C48 C 0.27961 0.19403 -0.21210
 C49 C 0.27684 0.20580 -0.19764
 C50 C 0.28839 0.22039 -0.19465
 C51 C 0.30290 0.22315 -0.20637
 H52 H 0.29635 0.18793 -0.23479
 H53 H 0.26563 0.20359 -0.18867
 H54 H 0.31179 0.23441 -0.20407
 C55 C 0.69358 0.28787 -0.22082
 C56 C 0.69669 0.27629 -0.20619
 C57 C 0.71119 0.27907 -0.19446
 C58 C 0.72274 0.29366 -0.19747
 C59 C 0.71998 0.30541 -0.21194
 C60 C 0.70538 0.30240 -0.22351
 H61 H 0.68779 0.26504 -0.20388
 H62 H 0.73395 0.29589 -0.18850
 H63 H 0.70324 0.31147 -0.23465
 C64 C 0.19445 0.78846 0.27944
 C65 C 0.20622 0.80294 0.27669
 C66 C 0.22083 0.80603 0.28830
 C67 C 0.22346 0.79424 0.30284
 C68 C 0.21185 0.77967 0.30582
 C69 C 0.19740 0.77692 0.29404
 H70 H 0.20395 0.81182 0.26542
 H71 H 0.23459 0.79637 0.31194
 H72 H 0.18839 0.76573 0.29624
 C73 C 0.46144 0.44410 0.47083
 C74 C 0.44695 0.45585 0.47358
 C75 C 0.44393 0.47042 0.46200
 C76 C 0.45568 0.47316 0.44750
 C77 C 0.47026 0.46158 0.44450
 C78 C 0.47301 0.44709 0.45625
 H79 H 0.43797 0.45364 0.48477
 H80 H 0.45346 0.48435 0.43852
 H81 H 0.48421 0.43811 0.45404
 C82 C -0.03868 -0.05535 0.97056
 C83 C -0.02715 -0.05238 0.95596
 C84 C -0.02993 -0.03793 0.94418
 C85 C -0.04451 -0.02635 0.94717
 C86 C -0.05629 -0.02901 0.96172
 C87 C -0.05317 -0.04361 0.97332
 H88 H -0.01595 -0.06136 0.95374
 H89 H -0.04666 -0.01523 0.93808
 H90 H -0.06205 -0.04590 0.98459
 C91 C 1.03802 0.55576 0.97041
 C92 C 1.02642 0.55275 0.95584
 C93 C 1.02915 0.53824 0.94411
 C94 C 1.04372 0.52665 0.94712
 C95 C 1.05549 0.52940 0.96159
 C96 C 1.05251 0.54400 0.97315
 H97 H 1.01523 0.56174 0.95362
 H98 H 1.04592 0.51545 0.93814
 H99 H 1.06150 0.54622 0.98434
 C100 C 0.53837 0.05539 0.47079
 C101 C 0.55288 0.04366 0.47355
 C102 C 0.55600 0.02906 0.46196
 C103 C 0.54420 0.02638 0.44742
 C104 C 0.52960 0.03794 0.44444
 C105 C 0.52682 0.05240 0.45620
 H106 H 0.56177 0.04596 0.48481
 H107 H 0.54636 0.01525 0.43834
 H108 H 0.51562 0.06137 0.45399
 C109 C -0.03881 0.05565 0.52924
 C110 C -0.05331 0.04391 0.52648
 C111 C -0.05641 0.02929 0.53806
 C112 C -0.04460 0.02661 0.55259
 C113 C -0.03001 0.03819 0.55558
 C114 C -0.02725 0.05266 0.54383
 H115 H -0.06221 0.04621 0.51523
 H116 H -0.04674 0.01547 0.56166
 H117 H -0.01605 0.06164 0.54604
 C118 C 0.46158 0.55580 0.02953
 C119 C 0.44710 0.54403 0.02676
 C120 C 0.44410 0.52943 0.03831
 C121 C 0.45586 0.52668 0.05280
 C122 C 0.47043 0.53827 0.05582
 C123 C 0.47316 0.55278 0.04410
 H124 H 0.43811 0.54625 0.01557
 H125 H 0.45365 0.51547 0.06176
 H126 H 0.48435 0.56178 0.04633
 C127 C 0.53806 -0.05629 0.02921
 C128 C 0.52649 -0.05322 0.04384
 C129 C 0.52928 -0.03875 0.05561
 C130 C 0.54389 -0.02721 0.05263
 C131 C 0.55563 -0.02995 0.03816
 C132 C 0.55261 -0.04451 0.02655
 H133 H 0.51522 -0.06210 0.04612
 H134 H 0.54613 -0.01604 0.06164
 H135 H 0.56168 -0.04663 0.01541
 C136 C 1.03823 0.44456 0.52920
 C137 C 1.02668 0.44752 0.54379
 C138 C 1.02944 0.46198 0.55557
 C139 C 1.04402 0.47357 0.55259
 C140 C 1.05581 0.47092 0.53805
 C141 C 1.05272 0.45632 0.52644
 H142 H 1.01549 0.43853 0.54600
 H143 H 1.04616 0.48470 0.56168
 H144 H 1.06160 0.45404 0.51518
 C145 C 0.40269 0.00781 0.22620
 H146 H 0.40367 0.01981 0.23431
 C147 C 0.41438 0.00530 0.21179
 H148 H 0.42429 0.01551 0.20888
 C149 C 0.38865 -0.02012 0.22042
 H150 H 0.37880 -0.03012 0.22397
 C151 C 0.40005 -0.02317 0.20587
 H152 H 0.39867 -0.03549 0.19831
 N153 N 0.39003 -0.00472 0.23012
 C154 C 0.34728 0.02349 0.25839
 H155 H 0.34632 0.01539 0.27039
 C156 C 0.33557 0.03790 0.25586
 H157 H 0.32567 0.04081 0.26608
 C158 C 0.36127 0.02925 0.23045
 H159 H 0.37111 0.02569 0.22044
 C160 C 0.34986 0.04379 0.22739
 H161 H 0.35121 0.05133 0.21505
 Zn162 Zn 0.37499 -0.00044 0.25013
 N163 N 0.35993 0.01957 0.24585
 C164 C 0.38870 0.01926 0.27981
 N165 N 0.39005 0.00385 0.27013
 C166 C 0.40272 -0.00868 0.27404
 C167 C 0.41444 -0.00615 0.28843
 C168 C 0.40012 0.02232 0.29434
 C169 C 0.34723 -0.02433 0.24191
 C170 C 0.33552 -0.03873 0.24443
 C171 C 0.34992 -0.04474 0.27283
 C172 C 0.36133 -0.03019 0.26978
 N173 N 0.35993 -0.02046 0.25442
 H174 H 0.37885 0.02926 0.27626
 H175 H 0.40369 -0.02068 0.26593
 H176 H 0.42435 -0.01636 0.29133
 H177 H 0.39876 0.03466 0.30189
 H178 H 0.34624 -0.01619 0.22994
 H179 H 0.32557 -0.04161 0.23424
 H180 H 0.35131 -0.05233 0.28513
 H181 H 0.37121 -0.02667 0.27976
 C182 C 0.33680 0.04831 0.24020
 C183 C 0.41312 -0.01035 0.20135
 C184 C 0.33680 -0.04920 0.26004
 C185 C 0.41320 0.00951 0.29885
 C186 C 0.09696 -0.00841 0.72590
 H187 H 0.09597 -0.02039 0.73403
 C188 C 0.08524 -0.00589 0.71151
 H189 H 0.07531 -0.01609 0.70862
 C190 C 0.11102 0.01950 0.72008
 H191 H 0.12089 0.02949 0.72362
 C192 C 0.09960 0.02256 0.70555
 H193 H 0.10098 0.03488 0.69798
 N194 N 0.10964 0.00411 0.72979
 C195 C 0.15239 -0.02409 0.75808
 H196 H 0.15340 -0.01592 0.77004
 C197 C 0.16409 -0.03850 0.75560
 H198 H 0.17402 -0.04137 0.76580
 C199 C 0.13830 -0.02998 0.73022
 H200 H 0.12843 -0.02646 0.72022
 C201 C 0.14970 -0.04454 0.72720
 H202 H 0.14830 -0.05215 0.71491
 Zn203 Zn 0.12469 -0.00017 0.74981
 N204 N 0.13971 -0.02021 0.74556
 C205 C 0.11097 -0.01977 0.77954
 N206 N 0.10963 -0.00439 0.76982
 C207 C 0.09700 0.00818 0.77370
 C208 C 0.08528 0.00571 0.78810
 C209 C 0.09954 -0.02278 0.79408
 C210 C 0.15245 0.02370 0.74151
 C211 C 0.16419 0.03809 0.74401
 C212 C 0.14991 0.04407 0.77247
 C213 C 0.13846 0.02954 0.76944
 N214 N 0.13979 0.01983 0.75405
 H215 H 0.12080 -0.02979 0.77601
 H216 H 0.09605 0.02016 0.76557
 H217 H 0.07539 0.01594 0.79098
 H218 H 0.10088 -0.03510 0.80165
 H219 H 0.15339 0.01558 0.72953
 H220 H 0.17410 0.04096 0.73379
 H221 H 0.14857 0.05164 0.78479
 H222 H 0.12861 0.02602 0.77945
 C223 C 0.16280 -0.04900 0.74000
 C224 C 0.08650 0.00975 0.70107
 C225 C 0.16298 0.04854 0.75965
 C226 C 0.08649 -0.00993 0.79856
 C227 C 0.59720 0.49152 0.22625
 H228 H 0.59623 0.47951 0.23435
 C229 C 0.58550 0.49405 0.21184
 H230 H 0.57560 0.48384 0.20891
 C231 C 0.61120 0.51948 0.22053
 H232 H 0.62104 0.52949 0.22410
 C233 C 0.59980 0.52255 0.20598
 H234 H 0.60116 0.53489 0.19845
 N235 N 0.60985 0.50407 0.23020
 C236 C 0.65256 0.47581 0.25849
 H237 H 0.65351 0.48391 0.27049
 C238 C 0.66427 0.46141 0.25597
 H239 H 0.67417 0.45849 0.26620
 C240 C 0.63860 0.47007 0.23053
 H241 H 0.62877 0.47363 0.22051
 C242 C 0.65001 0.45553 0.22748
 H243 H 0.64867 0.44799 0.21514
 Zn244 Zn 0.62488 0.49977 0.25021
 N245 N 0.63993 0.47974 0.24593
 C246 C 0.61114 0.48008 0.27989
 N247 N 0.60981 0.49549 0.27021
 C248 C 0.59718 0.50805 0.27412
 C249 C 0.58546 0.50554 0.28851
 C250 C 0.59971 0.47704 0.29442
 C251 C 0.65261 0.52368 0.24197
 C252 C 0.66433 0.53808 0.24448
 C253 C 0.65004 0.54400 0.27295
 C254 C 0.63862 0.52946 0.26990
 N255 N 0.63996 0.51977 0.25450
 H256 H 0.62097 0.47006 0.27633
 H257 H 0.59624 0.52006 0.26602
 H258 H 0.57557 0.51578 0.29142
 H259 H 0.60105 0.46470 0.30196
 H260 H 0.65357 0.51557 0.22997
 H261 H 0.67423 0.54098 0.23426
 H262 H 0.64869 0.55155 0.28528
 H263 H 0.62877 0.52591 0.27991
 C264 C 0.66306 0.45100 0.24031
 C265 C 0.58674 0.50972 0.20144
 C266 C 0.66310 0.54851 0.26013
 C267 C 0.58667 0.48988 0.29893
 C268 C 0.90233 0.50810 0.72589
 H269 H 0.90326 0.52010 0.73400
 C270 C 0.91407 0.50562 0.71151
 H271 H 0.92396 0.51586 0.70862
 C272 C 0.88839 0.48013 0.72008
 H273 H 0.87856 0.47010 0.72361
 C274 C 0.89983 0.47711 0.70556
 H275 H 0.89851 0.46478 0.69800
 N276 N 0.88970 0.49553 0.72978
 C277 C 0.84688 0.52368 0.75802
 H278 H 0.84592 0.51556 0.77001
 C279 C 0.83516 0.53808 0.75551
 H280 H 0.82526 0.54098 0.76572
 C281 C 0.86088 0.52948 0.73009
 H282 H 0.87073 0.52593 0.72008
 C283 C 0.84946 0.54402 0.72704
 H284 H 0.85082 0.55158 0.71472
 Zn285 Zn 0.87461 0.49978 0.74976
 N286 N 0.85954 0.51978 0.74548
 C287 C 0.88828 0.51948 0.77947
 N288 N 0.88964 0.50407 0.76979
 C289 C 0.90230 0.49154 0.77372
 C290 C 0.91399 0.49406 0.78813
 C291 C 0.89968 0.52254 0.79402
 C292 C 0.84695 0.47580 0.74146
 C293 C 0.83524 0.46139 0.74397
 C294 C 0.84949 0.45552 0.77247
 C295 C 0.86090 0.47007 0.76943
 N296 N 0.85957 0.47974 0.75402
 H297 H 0.87844 0.52948 0.77591
 H298 H 0.90327 0.47954 0.76561
 H299 H 0.92390 0.48385 0.79105
 H300 H 0.89832 0.53487 0.80157
 H301 H 0.84600 0.48390 0.72946
 H302 H 0.82536 0.45846 0.73373
 H303 H 0.85083 0.44798 0.78481
 H304 H 0.87072 0.47364 0.77945
 C305 C 0.83640 0.54852 0.73986
 C306 C 0.91288 0.48996 0.70108
 C307 C 0.83645 0.45098 0.75963
 C308 C 0.91275 0.50972 0.79855
 C309 C 0.22588 0.40241 0.00808
 H310 H 0.23399 0.40335 0.02008
 C311 C 0.21147 0.41412 0.00558
 H312 H 0.20856 0.42401 0.01581
 C313 C 0.22011 0.38846 -0.01988
 H314 H 0.22366 0.37863 -0.02990
 C315 C 0.20556 0.39988 -0.02292
 H316 H 0.19801 0.39854 -0.03525
 N317 N 0.22980 0.38978 -0.00448
 C318 C 0.25809 0.34701 0.02368
 H319 H 0.27010 0.34607 0.01558
 C320 C 0.25558 0.33529 0.03807
 H321 H 0.26581 0.32540 0.04098
 C322 C 0.23013 0.36098 0.02945
 H323 H 0.22011 0.37081 0.02590
 C324 C 0.22708 0.34955 0.04398
 H325 H 0.21474 0.35089 0.05152
 Zn326 Zn 0.24982 0.37473 -0.00022
 N327 N 0.24554 0.35965 0.01977
 C328 C 0.27952 0.38843 0.01949
 N329 N 0.26983 0.38979 0.00409
 C330 C 0.27374 0.40245 -0.00844
 C331 C 0.28814 0.41417 -0.00591
 C332 C 0.29406 0.39986 0.02255
 C333 C 0.24156 0.34707 -0.02419
 C334 C 0.24409 0.33538 -0.03861
 C335 C 0.27258 0.34968 -0.04447
 C336 C 0.26952 0.36107 -0.02991
 N337 N 0.25411 0.35971 -0.02024
 H338 H 0.27596 0.37858 0.02948
 H339 H 0.26563 0.40342 -0.02044
 H340 H 0.29105 0.42408 -0.01611
 H341 H 0.30161 0.39850 0.03488
 H342 H 0.22955 0.34609 -0.01610
 H343 H 0.23386 0.32549 -0.04154
 H344 H 0.28493 0.35105 -0.05200
 H345 H 0.27954 0.37090 -0.02633
 C346 C 0.23992 0.33650 0.04849
 C347 C 0.20105 0.41292 -0.01008
 C348 C 0.25976 0.33663 -0.04901
 C349 C 0.29856 0.41293 0.00975
 C350 C 0.72606 0.09706 -0.00826
 H351 H 0.73416 0.09612 -0.02026
 C352 C 0.71167 0.08533 -0.00574
 H353 H 0.70877 0.07543 -0.01596
 C354 C 0.72028 0.11104 0.01969
 H355 H 0.72382 0.12088 0.02970
 C356 C 0.70575 0.09960 0.02274
 H357 H 0.69820 0.10094 0.03507
 N358 N 0.72996 0.10972 0.00429
 C359 C 0.73022 0.13848 -0.02967
 H360 H 0.72022 0.12862 -0.02611
 C361 C 0.72713 0.14988 -0.04421
 H362 H 0.71479 0.14849 -0.05175
 C363 C 0.75814 0.15254 -0.02392
 H364 H 0.77015 0.15353 -0.01583
 C365 C 0.75559 0.16423 -0.03833
 H366 H 0.76580 0.17416 -0.04125
 Zn367 Zn 0.74995 0.12481 -0.00000
 N368 N 0.74563 0.13986 -0.01999
 C369 C 0.77972 0.11120 -0.01967
 N370 N 0.76999 0.10979 -0.00430
 C371 C 0.77389 0.09709 0.00820
 C372 C 0.78830 0.08540 0.00567
 C373 C 0.79428 0.09981 -0.02273
 C374 C 0.74169 0.15248 0.02396
 C375 C 0.74420 0.16417 0.03838
 C376 C 0.77271 0.14989 0.04425
 C377 C 0.76965 0.13849 0.02970
 N378 N 0.75424 0.13984 0.02002
 H379 H 0.77618 0.12107 -0.02965
 H380 H 0.76575 0.09609 0.02017
 H381 H 0.79119 0.07546 0.01586
 H382 H 0.80186 0.10121 -0.03503
 H383 H 0.72968 0.15344 0.01586
 H384 H 0.73398 0.17406 0.04130
 H385 H 0.78505 0.14853 0.05179
 H386 H 0.77966 0.12866 0.02612
 C387 C 0.73993 0.16296 -0.04874
 C388 C 0.70125 0.08654 0.00992
 C389 C 0.75987 0.16293 0.04879
 C390 C 0.79877 0.08670 -0.00995
 C391 C 0.22560 0.59726 0.49186
 H392 H 0.23376 0.59627 0.47990
 C393 C 0.21119 0.58554 0.49434
 H394 H 0.20832 0.57562 0.48414
 C395 C 0.21971 0.61132 0.51973
 H396 H 0.22322 0.62119 0.52973
 C397 C 0.20515 0.59991 0.52275
 H398 H 0.19754 0.60130 0.53504
 N399 N 0.22947 0.60994 0.50438
 C400 C 0.22990 0.63869 0.47040
 H401 H 0.21988 0.62884 0.47391
 C402 C 0.22689 0.65012 0.45587
 H403 H 0.21458 0.64876 0.44828
 C404 C 0.25783 0.65269 0.47628
 H405 H 0.26981 0.65365 0.48442
 C406 C 0.25536 0.66441 0.46188
 H407 H 0.26559 0.67432 0.45902
 Zn408 Zn 0.24950 0.62498 0.50015
 N409 N 0.24528 0.64004 0.48014
 C410 C 0.27924 0.61127 0.48053
 N411 N 0.26952 0.60992 0.49591
 C412 C 0.27343 0.59727 0.50846
 C413 C 0.28784 0.58556 0.50596
 C414 C 0.29379 0.59986 0.47750
 C415 C 0.24121 0.65270 0.52405
 C416 C 0.24371 0.66441 0.53844
 C417 C 0.27217 0.65010 0.54443
 C418 C 0.26913 0.63868 0.52990
 N419 N 0.25375 0.64003 0.52017
 H420 H 0.27570 0.62111 0.47052
 H421 H 0.26530 0.59631 0.52044
 H422 H 0.29073 0.57566 0.51618
 H423 H 0.30135 0.60121 0.46518
 H424 H 0.22923 0.65366 0.51591
 H425 H 0.23349 0.67433 0.54132
 H426 H 0.28449 0.64874 0.55201
 H427 H 0.27915 0.62883 0.52637
 C428 C 0.23973 0.66319 0.45141
 C429 C 0.20069 0.58681 0.50995
 C430 C 0.25935 0.66318 0.54890
 C431 C 0.29828 0.58680 0.49032
 C432 C 0.72598 0.90306 0.50823
 H433 H 0.73414 0.90408 0.52019
 C434 C 0.71156 0.91476 0.50573
 H435 H 0.70870 0.92471 0.51591
 C436 C 0.72008 0.88894 0.48039
 H437 H 0.72359 0.87906 0.47041
 C438 C 0.70552 0.90034 0.47735
 H439 H 0.69791 0.89893 0.46506
 N440 N 0.72984 0.89036 0.49573
 C441 C 0.75812 0.84760 0.52390
 H442 H 0.77011 0.84661 0.51578
 C443 C 0.75561 0.83589 0.53831
 H444 H 0.76581 0.82596 0.54119
 C445 C 0.73022 0.86166 0.52973
 H446 H 0.72022 0.87152 0.52620
 C447 C 0.72716 0.85025 0.54427
 H448 H 0.71485 0.85163 0.55184
 Zn449 Zn 0.74986 0.87532 0.50000
 N450 N 0.74560 0.86027 0.52001
 C451 C 0.77965 0.88897 0.51961
 N452 N 0.76989 0.89037 0.50426
 C453 C 0.77375 0.90307 0.49175
 C454 C 0.78815 0.91479 0.49425
 C455 C 0.79420 0.90038 0.52264
 C456 C 0.74161 0.84757 0.47612
 C457 C 0.74412 0.83586 0.46172
 C458 C 0.77256 0.85023 0.45574
 C459 C 0.76951 0.86164 0.47027
 N460 N 0.75413 0.86026 0.48000
 H461 H 0.77614 0.87909 0.52959
 H462 H 0.76559 0.90407 0.47979
 H463 H 0.79101 0.92473 0.48406
 H464 H 0.80181 0.89899 0.53493
 H465 H 0.72963 0.84658 0.48425
 H466 H 0.73392 0.82593 0.45885
 H467 H 0.78488 0.85161 0.44816
 H468 H 0.77950 0.87152 0.47380
 C469 C 0.73997 0.83716 0.54875
 C470 C 0.70106 0.91346 0.49013
 C471 C 0.75976 0.83713 0.45127
 C472 C 0.79865 0.91350 0.50986
 C473 C 0.00790 0.22618 0.40257
 H474 H 0.01990 0.23430 0.40355
 C475 C 0.00537 0.21178 0.41427
 H476 H 0.01558 0.20888 0.42419
 C477 C -0.02003 0.22038 0.38853
 H478 H -0.03003 0.22393 0.37867
 C479 C -0.02309 0.20584 0.39994
 H480 H -0.03542 0.19828 0.39857
 N481 N -0.00463 0.23009 0.38990
 C482 C 0.02362 0.25830 0.34715
 H483 H 0.01551 0.27030 0.34616
 C484 C 0.03803 0.25576 0.33546
 H485 H 0.04095 0.26596 0.32554
 C486 C 0.02938 0.23037 0.36119
 H487 H 0.02581 0.22038 0.37104
 C488 C 0.04392 0.22730 0.34979
 H489 H 0.05147 0.21496 0.35117
 Zn490 Zn -0.00033 0.25008 0.37484
 N491 N 0.01969 0.24578 0.35981
 C492 C 0.01936 0.27981 0.38850
 N493 N 0.00396 0.27012 0.38987
 C494 C -0.00858 0.27405 0.40251
 C495 C -0.00606 0.28847 0.41419
 C496 C 0.02242 0.29436 0.39989
 C497 C -0.02421 0.24181 0.34710
 C498 C -0.03861 0.24431 0.33538
 C499 C -0.04463 0.27274 0.34973
 C500 C -0.03009 0.26971 0.36115
 N501 N -0.02034 0.25435 0.35978
 H502 H 0.02937 0.27624 0.37867
 H503 H -0.02059 0.26594 0.40349
 H504 H -0.01628 0.29140 0.42409
 H505 H 0.03476 0.30191 0.39852
 H506 H -0.01606 0.22984 0.34613
 H507 H -0.04147 0.23410 0.32546
 H508 H -0.05223 0.28504 0.35110
 H509 H -0.02658 0.27971 0.37101
 C510 C 0.04845 0.24010 0.33672
 C511 C -0.01028 0.20134 0.41302
 C512 C -0.04909 0.25993 0.33664
 C513 C 0.00960 0.29890 0.41294
 C514 C -0.00829 0.72630 0.09719
 H515 H -0.02029 0.73441 0.09626
 C516 C -0.00579 0.71190 0.08548
 H517 H -0.01603 0.70899 0.07560
 C518 C 0.01969 0.72052 0.11114
 H519 H 0.02972 0.72407 0.12096
 C520 C 0.02272 0.70599 0.09972
 H521 H 0.03506 0.69844 0.10105
 N522 N 0.00428 0.73021 0.10982
 C523 C -0.02389 0.75844 0.15261
 H524 H -0.01578 0.77045 0.15358
 C525 C -0.03829 0.75592 0.16433
 H526 H -0.04119 0.76613 0.17423
 C527 C -0.02968 0.73050 0.13861
 H528 H -0.02613 0.72050 0.12876
 C529 C -0.04421 0.72744 0.15003
 H530 H -0.05176 0.71510 0.14867
 Zn531 Zn 0.00002 0.75021 0.12490
 N532 N -0.01998 0.74591 0.13996
 C533 C -0.01970 0.77992 0.11125
 N534 N -0.00429 0.77024 0.10988
 C535 C 0.00825 0.77419 0.09724
 C536 C 0.00572 0.78861 0.08556
 C537 C -0.02277 0.79447 0.09986
 C538 C 0.02398 0.74191 0.15255
 C539 C 0.03840 0.74441 0.16425
 C540 C 0.04430 0.77291 0.15000
 C541 C 0.02974 0.76988 0.13860
 N542 N 0.02005 0.75447 0.13993
 H543 H -0.02970 0.77634 0.12108
 H544 H 0.02026 0.76609 0.09626
 H545 H 0.01594 0.79154 0.07566
 H546 H -0.03511 0.80201 0.10123
 H547 H 0.01587 0.72990 0.15350
 H548 H 0.04132 0.73417 0.17412
 H549 H 0.05185 0.78525 0.14866
 H550 H 0.02618 0.77990 0.12878
 C551 C -0.04871 0.74026 0.16310
 C552 C 0.00987 0.70148 0.08668
 C553 C 0.04882 0.76007 0.16303
 C554 C -0.00995 0.79902 0.08681
 C555 C 0.49159 0.22582 0.59758
 H556 H 0.47960 0.23395 0.59659
 C557 C 0.49411 0.21141 0.58588
 H558 H 0.48391 0.20853 0.57595
 C559 C 0.51949 0.21999 0.61165
 H560 H 0.52948 0.22352 0.62152
 C561 C 0.52255 0.20545 0.60024
 H562 H 0.53487 0.19787 0.60163
 N563 N 0.50411 0.22971 0.61026
 C564 C 0.47594 0.25794 0.65305
 H565 H 0.48409 0.26991 0.65406
 C566 C 0.46152 0.25543 0.66474
 H567 H 0.45865 0.26561 0.67468
 C568 C 0.47005 0.23008 0.63893
 H569 H 0.47357 0.22010 0.62905
 C570 C 0.45549 0.22703 0.65032
 H571 H 0.44789 0.21473 0.64891
 Zn572 Zn 0.49983 0.24972 0.62531
 N573 N 0.47981 0.24544 0.64035
 C574 C 0.48018 0.27946 0.61166
 N575 N 0.49556 0.26974 0.61028
 C576 C 0.50808 0.27364 0.59761
 C577 C 0.50557 0.28805 0.58591
 C578 C 0.47712 0.29400 0.60026
 C579 C 0.52371 0.24147 0.65306
 C580 C 0.53812 0.24398 0.66477
 C581 C 0.54416 0.27238 0.65037
 C582 C 0.52961 0.26934 0.63897
 N583 N 0.51985 0.25398 0.64037
 H584 H 0.47018 0.27592 0.62152
 H585 H 0.52007 0.26551 0.59662
 H586 H 0.51577 0.29094 0.57599
 H587 H 0.46480 0.30158 0.60164
 H588 H 0.51556 0.22950 0.65406
 H589 H 0.54098 0.23379 0.67471
 H590 H 0.55177 0.28468 0.64898
 H591 H 0.52610 0.27933 0.62909
 C592 C 0.45103 0.23981 0.66344
 C593 C 0.50975 0.20096 0.58715
 C594 C 0.54861 0.25959 0.66348
 C595 C 0.48992 0.29850 0.58717
 C596 C 0.50788 0.72638 0.90278
 H597 H 0.51988 0.73450 0.90373
 C598 C 0.50539 0.71197 0.91449
 H599 H 0.51563 0.70908 0.92438
 C600 C 0.47992 0.72057 0.88882
 H601 H 0.46990 0.72411 0.87899
 C602 C 0.47689 0.70603 0.90023
 H603 H 0.46456 0.69846 0.89889
 N604 N 0.49532 0.73028 0.89015
 C605 C 0.52347 0.75853 0.84735
 H606 H 0.51535 0.77053 0.84638
 C607 C 0.53786 0.75601 0.83563
 H608 H 0.54076 0.76622 0.82572
 C609 C 0.52927 0.73060 0.86137
 H610 H 0.52572 0.72060 0.87122
 C611 C 0.54380 0.72754 0.84995
 H612 H 0.55136 0.71521 0.85131
 Zn613 Zn 0.49957 0.75028 0.87508
 N614 N 0.51957 0.74600 0.86001
 C615 C 0.51923 0.78005 0.88871
 N616 N 0.50386 0.77031 0.89011
 C617 C 0.49136 0.77418 0.90281
 C618 C 0.49389 0.78858 0.91452
 C619 C 0.52229 0.79460 0.90011
 C620 C 0.47560 0.74200 0.84742
 C621 C 0.46117 0.74450 0.83574
 C622 C 0.45525 0.77297 0.85005
 C623 C 0.46981 0.76993 0.86144
 N624 N 0.47953 0.75454 0.86007
 H625 H 0.52921 0.77653 0.87882
 H626 H 0.47939 0.76603 0.90382
 H627 H 0.48371 0.79145 0.92447
 H628 H 0.53460 0.80219 0.89871
 H629 H 0.48373 0.73001 0.84644
 H630 H 0.45826 0.73428 0.82584
 H631 H 0.44768 0.78529 0.85142
 H632 H 0.47337 0.77994 0.87128
 C633 C 0.54830 0.74036 0.83687
 C634 C 0.48974 0.70153 0.91328
 C635 C 0.45073 0.76014 0.83699
 C636 C 0.50952 0.79905 0.91323
 C637 C 0.15058 0.22005 0.25528
 N638 N 0.16144 0.20560 0.25743
 N639 N 0.17523 0.20287 0.24640
 C640 C 0.17872 0.21447 0.23277
 N641 N 0.16780 0.22892 0.23066
 N642 N 0.15401 0.23167 0.24169
 C643 C 0.13536 0.22305 0.26743
 N644 N 0.12471 0.23770 0.26549
 N645 N 0.11090 0.24043 0.27652
 C646 C 0.10724 0.22860 0.28987
 N647 N 0.11789 0.21395 0.29180
 N648 N 0.13171 0.21123 0.28079
 C649 C 0.09202 0.23158 0.30201
 N650 N 0.08813 0.21957 0.31512
 N651 N 0.07431 0.22227 0.32612
 C652 C 0.06383 0.23710 0.32447
 N653 N 0.06777 0.24911 0.31133
 N654 N 0.08158 0.24640 0.30031
 C655 C 0.65039 0.72044 0.75535
 N656 N 0.66124 0.70598 0.75747
 N657 N 0.67503 0.70327 0.74643
 C658 C 0.67853 0.71489 0.73283
 N659 N 0.66762 0.72936 0.73075
 N660 N 0.65383 0.73209 0.74179
 C661 C 0.63518 0.72343 0.76751
 N662 N 0.62452 0.73808 0.76560
 N663 N 0.61072 0.74079 0.77664
 C664 C 0.60706 0.72893 0.78997
 N665 N 0.61771 0.71428 0.79187
 N666 N 0.63152 0.71158 0.78085
 C667 C 0.59184 0.73190 0.80212
 N668 N 0.58797 0.71987 0.81521
 N669 N 0.57416 0.72255 0.82623
 C670 C 0.56367 0.73738 0.82460
 N671 N 0.56759 0.74941 0.81148
 N672 N 0.58140 0.74672 0.80045
 C673 C 0.34849 0.77993 0.75560
 N674 N 0.34505 0.76829 0.74203
 N675 N 0.33126 0.77101 0.73099
 C676 C 0.32034 0.78547 0.73308
 N677 N 0.32383 0.79709 0.74669
 N678 N 0.33763 0.79438 0.75772
 C679 C 0.36371 0.77695 0.76775
 N680 N 0.36737 0.78881 0.78108
 N681 N 0.38120 0.78612 0.79209
 C682 C 0.39186 0.77148 0.79018
 N683 N 0.38820 0.75962 0.77685
 N684 N 0.37438 0.76231 0.76583
 C685 C 0.40711 0.76853 0.80231
 N686 N 0.41756 0.75372 0.80063
 N687 N 0.43139 0.75106 0.81164
 C688 C 0.43533 0.76310 0.82475
 N689 N 0.42482 0.77791 0.82639
 N690 N 0.41099 0.78058 0.81540
 C691 C -0.15121 0.27962 0.25507
 N692 N -0.15429 0.26830 0.24116
 N693 N -0.16808 0.27101 0.23012
 C694 C -0.17940 0.28513 0.23252
 N695 N -0.17623 0.29641 0.24651
 N696 N -0.16243 0.29373 0.25754
 C697 C -0.13599 0.27666 0.26723
 N698 N -0.13263 0.28828 0.28085
 N699 N -0.11881 0.28562 0.29187
 C700 C -0.10787 0.27122 0.28970
 N701 N -0.11124 0.25959 0.27609
 N702 N -0.12504 0.26227 0.26506
 C703 C -0.09264 0.26828 0.30186
 N704 N -0.08198 0.25364 0.30001
 N705 N -0.06818 0.25098 0.31104
 C706 C -0.06446 0.26287 0.32436
 N707 N -0.07516 0.27753 0.32616
 N708 N -0.08898 0.28018 0.31514
 C709 C -0.15078 0.72035 0.24466
 N710 N -0.16164 0.70589 0.24255
 N711 N -0.17543 0.70318 0.25359
 C712 C -0.17891 0.71481 0.26719
 N713 N -0.16799 0.72927 0.26926
 N714 N -0.15421 0.73200 0.25822
 C715 C -0.13557 0.72333 0.23249
 N716 N -0.12491 0.73799 0.23439
 N717 N -0.11112 0.74069 0.22335
 C718 C -0.10747 0.72883 0.21002
 N719 N -0.11812 0.71418 0.20813
 N720 N -0.13192 0.71148 0.21916
 C721 C -0.09225 0.73180 0.19786
 N722 N -0.08838 0.71976 0.18477
 N723 N -0.07457 0.72244 0.17375
 C724 C -0.06408 0.73727 0.17537
 N725 N -0.06800 0.74931 0.18849
 N726 N -0.08180 0.74662 0.19952
 C727 C 0.34882 0.21997 0.74483
 N728 N 0.34572 0.23128 0.75874
 N729 N 0.33192 0.22856 0.76976
 C730 C 0.32062 0.21443 0.76734
 N731 N 0.32380 0.20315 0.75336
 N732 N 0.33761 0.20584 0.74234
 C733 C 0.36405 0.22294 0.73269
 N734 N 0.36743 0.21134 0.71907
 N735 N 0.38126 0.21402 0.70806
 C736 C 0.39220 0.22843 0.71026
 N737 N 0.38880 0.24004 0.72387
 N738 N 0.37499 0.23734 0.73489
 C739 C 0.40743 0.23139 0.69813
 N740 N 0.41809 0.24604 0.70002
 N741 N 0.43191 0.24871 0.68901
 C742 C 0.43564 0.23684 0.67568
 N743 N 0.42495 0.22219 0.67384
 N744 N 0.41111 0.21951 0.68483
 C745 C 0.65078 0.27943 0.74497
 N746 N 0.66199 0.29355 0.74248
 N747 N 0.67580 0.29625 0.75350
 C748 C 0.67897 0.28498 0.76750
 N749 N 0.66766 0.27085 0.76992
 N750 N 0.65387 0.26812 0.75889
 C751 C 0.63555 0.27644 0.73282
 N752 N 0.62461 0.26205 0.73502
 N753 N 0.61080 0.25935 0.72399
 C754 C 0.60742 0.27096 0.71037
 N755 N 0.61836 0.28536 0.70818
 N756 N 0.63218 0.28805 0.71919
 C757 C 0.59219 0.26800 0.69822
 N758 N 0.58852 0.27988 0.68493
 N759 N 0.57469 0.27721 0.67392
 C760 C 0.56399 0.26256 0.67575
 N761 N 0.56772 0.25069 0.68908
 N762 N 0.58153 0.25336 0.70010
 C763 C 0.15097 0.77986 0.24455
 N764 N 0.16183 0.79432 0.24244
 N765 N 0.17562 0.79703 0.25349
 C766 C 0.17909 0.78541 0.26710
 N767 N 0.16817 0.77095 0.26917
 N768 N 0.15439 0.76822 0.25812
 C769 C 0.13576 0.77688 0.23238
 N770 N 0.12509 0.76224 0.23428
 N771 N 0.11129 0.75954 0.22324
 C772 C 0.10764 0.77141 0.20992
 N773 N 0.11830 0.78606 0.20803
 N774 N 0.13211 0.78874 0.21905
 C775 C 0.09241 0.76846 0.19777
 N776 N 0.08853 0.78051 0.18469
 N777 N 0.07471 0.77785 0.17368
 C778 C 0.06421 0.76302 0.17529
 N779 N 0.06814 0.75097 0.18840
 N780 N 0.08196 0.75364 0.19942
 C781 C 0.25525 0.15039 0.22026
 N782 N 0.24168 0.15384 0.23189
 N783 N 0.23064 0.16763 0.22916
 C784 C 0.23272 0.17853 0.21470
 N785 N 0.24634 0.17504 0.20308
 N786 N 0.25737 0.16124 0.20580
 C787 C 0.26741 0.13518 0.22325
 N788 N 0.28075 0.13152 0.21141
 N789 N 0.29178 0.11772 0.21411
 C790 C 0.28988 0.10707 0.22877
 N791 N 0.27654 0.11074 0.24062
 N792 N 0.26550 0.12454 0.23791
 C793 C 0.30203 0.09185 0.23174
 N794 N 0.30037 0.08142 0.24656
 N795 N 0.31140 0.06762 0.24925
 C796 C 0.32452 0.06368 0.23722
 N797 N 0.32614 0.07416 0.22239
 N798 N 0.31513 0.08797 0.21971
 C799 C 0.75495 0.65073 0.72015
 N800 N 0.75710 0.66161 0.70572
 N801 N 0.74608 0.67543 0.70304
 C802 C 0.73247 0.67892 0.71467
 N803 N 0.73037 0.66798 0.72910
 N804 N 0.74139 0.65416 0.73179
 C805 C 0.76709 0.63549 0.72310
 N806 N 0.76517 0.62481 0.73772
 N807 N 0.77619 0.61099 0.74040
 C808 C 0.78952 0.60733 0.72854
 N809 N 0.79144 0.61801 0.71391
 N810 N 0.78043 0.63184 0.71125
 C811 C 0.80166 0.59209 0.73148
 N812 N 0.81475 0.58823 0.71944
 N813 N 0.82576 0.57440 0.72210
 C814 C 0.82413 0.56390 0.73690
 N815 N 0.81101 0.56781 0.74894
 N816 N 0.79998 0.58163 0.74628
 C817 C 0.75483 0.34892 0.77950
 N818 N 0.75694 0.33807 0.79396
 N819 N 0.74590 0.32427 0.79666
 C820 C 0.73229 0.32078 0.78503
 N821 N 0.73022 0.33169 0.77057
 N822 N 0.74127 0.34548 0.76785
 C823 C 0.76701 0.36413 0.77652
 N824 N 0.76512 0.37477 0.76187
 N825 N 0.77617 0.38856 0.75916
 C826 C 0.78950 0.39223 0.77103
 N827 N 0.79138 0.38159 0.78569
 N828 N 0.78034 0.36778 0.78838
 C829 C 0.80167 0.40744 0.76806
 N830 N 0.81475 0.41133 0.78011
 N831 N 0.82578 0.42514 0.77744
 C832 C 0.82417 0.43561 0.76260
 N833 N 0.81106 0.43167 0.75056
 N834 N 0.80002 0.41787 0.75323
 C835 C 0.25515 -0.15125 0.27990
 N836 N 0.25759 -0.16244 0.29403
 N837 N 0.24653 -0.17623 0.29672
 C838 C 0.23255 -0.17939 0.28543
 N839 N 0.23017 -0.16810 0.27129
 N840 N 0.24124 -0.15433 0.26857
 C841 C 0.26734 -0.13605 0.27692
 N842 N 0.26517 -0.12512 0.26251
 N843 N 0.27622 -0.11134 0.25981
 C844 C 0.28984 -0.10795 0.27144
 N845 N 0.29200 -0.11887 0.28585
 N846 N 0.28096 -0.13267 0.28854
 C847 C 0.30201 -0.09274 0.26848
 N848 N 0.31531 -0.08906 0.28036
 N849 N 0.32633 -0.07525 0.27768
 C850 C 0.32452 -0.06457 0.26302
 N851 N 0.31119 -0.06831 0.25114
 N852 N 0.30015 -0.08211 0.25382
 C853 C 0.24433 -0.15115 0.72029
 N854 N 0.25824 -0.15422 0.73161
 N855 N 0.26929 -0.16801 0.72890
 C856 C 0.26689 -0.17932 0.71478
 N857 N 0.25290 -0.17616 0.70349
 N858 N 0.24186 -0.16236 0.70618
 C859 C 0.23216 -0.13594 0.72326
 N860 N 0.21854 -0.13257 0.71164
 N861 N 0.20751 -0.11876 0.71431
 C862 C 0.20969 -0.10782 0.72871
 N863 N 0.22330 -0.11119 0.74033
 N864 N 0.23434 -0.12499 0.73765
 C865 C 0.19753 -0.09259 0.73164
 N866 N 0.19941 -0.08193 0.74628
 N867 N 0.18838 -0.06811 0.74894
 C868 C 0.17506 -0.06439 0.73705
 N869 N 0.17323 -0.07509 0.72241
 N870 N 0.18424 -0.08892 0.71976
 C871 C 0.74471 0.34898 0.22045
 N872 N 0.74261 0.33812 0.20600
 N873 N 0.75366 0.32433 0.20331
 C874 C 0.76727 0.32086 0.21494
 N875 N 0.76933 0.33178 0.22940
 N876 N 0.75827 0.34556 0.23210
 C877 C 0.73253 0.36418 0.22342
 N878 N 0.73441 0.37483 0.23807
 N879 N 0.72336 0.38862 0.24077
 C880 C 0.71003 0.39227 0.22891
 N881 N 0.70815 0.38162 0.21425
 N882 N 0.71919 0.36783 0.21157
 C883 C 0.69786 0.40748 0.23187
 N884 N 0.68477 0.41135 0.21982
 N885 N 0.67374 0.42516 0.22250
 C886 C 0.67534 0.43564 0.23733
 N887 N 0.68846 0.43171 0.24937
 N888 N 0.69950 0.41791 0.24670
 C889 C 0.74462 0.65068 0.27988
 N890 N 0.74249 0.66157 0.29431
 N891 N 0.75351 0.67538 0.29699
 C892 C 0.76712 0.67886 0.28536
 N893 N 0.76921 0.66792 0.27093
 N894 N 0.75818 0.65412 0.26823
 C895 C 0.73246 0.63545 0.27692
 N896 N 0.73437 0.62478 0.26229
 N897 N 0.72334 0.61096 0.25961
 C898 C 0.71001 0.60731 0.27147
 N899 N 0.70811 0.61798 0.28611
 N900 N 0.71913 0.63181 0.28878
 C901 C 0.69786 0.59208 0.26853
 N902 N 0.68477 0.58821 0.28057
 N903 N 0.67375 0.57438 0.27791
 C904 C 0.67538 0.56389 0.26309
 N905 N 0.68850 0.56781 0.25106
 N906 N 0.69953 0.58162 0.25372
 C907 C 0.24474 0.15052 0.77941
 N908 N 0.25831 0.15393 0.76776
 N909 N 0.26936 0.16772 0.77046
 C910 C 0.26729 0.17866 0.78490
 N911 N 0.25367 0.17519 0.79652
 N912 N 0.24262 0.16140 0.79384
 C913 C 0.23255 0.13532 0.77644
 N914 N 0.21920 0.13170 0.78829
 N915 N 0.20815 0.11790 0.78562
 C916 C 0.21003 0.10723 0.77099
 N917 N 0.22337 0.11085 0.75913
 N918 N 0.23444 0.12464 0.76181
 C919 C 0.19784 0.09203 0.76804
 N920 N 0.19949 0.08156 0.75324
 N921 N 0.18842 0.06778 0.75057
 C922 C 0.17529 0.06389 0.76261
 N923 N 0.17369 0.07440 0.77742
 N924 N 0.18474 0.08819 0.78008
 C925 C 0.22012 0.25499 0.15058
 N926 N 0.20567 0.25712 0.16145
 N927 N 0.20297 0.24610 0.17525
 C928 C 0.21460 0.23250 0.17874
 N929 N 0.22905 0.23040 0.16782
 N930 N 0.23177 0.24143 0.15403
 C931 C 0.22309 0.26714 0.13536
 N932 N 0.23773 0.26523 0.12470
 N933 N 0.24042 0.27626 0.11090
 C934 C 0.22856 0.28959 0.10724
 N935 N 0.21391 0.29149 0.11790
 N936 N 0.21123 0.28047 0.13171
 C937 C 0.23151 0.30174 0.09202
 N938 N 0.21946 0.31482 0.08815
 N939 N 0.22212 0.32584 0.07434
 C940 C 0.23695 0.32422 0.06385
 N941 N 0.24900 0.31111 0.06778
 N942 N 0.24633 0.30008 0.08158
 C943 C 0.72003 0.75557 0.65076
 N944 N 0.70559 0.75771 0.66164
 N945 N 0.70287 0.74666 0.67541
 C946 C 0.71446 0.73302 0.67887
 N947 N 0.72890 0.73092 0.66794
 N948 N 0.73164 0.74197 0.65417
 C949 C 0.72303 0.76775 0.63557
 N950 N 0.73766 0.76582 0.62490
 N951 N 0.74037 0.77686 0.61111
 C952 C 0.72854 0.79023 0.60749
 N953 N 0.71391 0.79215 0.61815
 N954 N 0.71120 0.78112 0.63195
 C955 C 0.73151 0.80239 0.59228
 N956 N 0.71950 0.81551 0.58843
 N957 N 0.72218 0.82653 0.57463
 C958 C 0.73699 0.82488 0.56412
 N959 N 0.74900 0.81173 0.56802
 N960 N 0.74632 0.80070 0.58182
 C961 C 0.77964 0.75550 0.34927
 N962 N 0.79408 0.75764 0.33840
 N963 N 0.79679 0.74659 0.32462
 C964 C 0.78519 0.73295 0.32117
 N965 N 0.77075 0.73085 0.33210
 N966 N 0.76802 0.74191 0.34587
 C967 C 0.77666 0.76768 0.36447
 N968 N 0.76203 0.76576 0.37514
 N969 N 0.75932 0.77680 0.38893
 C970 C 0.77116 0.79017 0.39255
 N971 N 0.78579 0.79209 0.38188
 N972 N 0.78849 0.78106 0.36808
 C973 C 0.76820 0.80234 0.40776
 N974 N 0.78022 0.81547 0.41159
 N975 N 0.77754 0.82649 0.42540
 C976 C 0.76273 0.82485 0.43591
 N977 N 0.75072 0.81169 0.43202
 N978 N 0.75340 0.80065 0.41822
 C979 C 0.27973 0.25523 -0.15117
 N980 N 0.29420 0.25736 -0.16200
 N981 N 0.29693 0.24633 -0.17578
 C982 C 0.28532 0.23271 -0.17929
 N983 N 0.27084 0.23062 -0.16841
 N984 N 0.26809 0.24166 -0.15463
 C985 C 0.27672 0.26738 -0.13596
 N986 N 0.26206 0.26546 -0.12532
 N987 N 0.25934 0.27648 -0.11152
 C988 C 0.27120 0.28981 -0.10783
 N989 N 0.28586 0.29173 -0.11846
 N990 N 0.28857 0.28072 -0.13227
 C991 C 0.26822 0.30195 -0.09260
 N992 N 0.28027 0.31503 -0.08869
 N993 N 0.27758 0.32602 -0.07487
 C994 C 0.26274 0.32439 -0.06440
 N995 N 0.25070 0.31127 -0.06836
 N996 N 0.25339 0.30026 -0.08218
 C997 C 0.71986 0.24429 -0.15093
 N998 N 0.70539 0.24213 -0.16177
 N999 N 0.70266 0.25315 -0.17557
 C1000 C 0.71426 0.26677 -0.17909
 N1001 N 0.72874 0.26889 -0.16820
 N1002 N 0.73149 0.25787 -0.15440
 C1003 C 0.72287 0.23216 -0.13571
 N1004 N 0.73753 0.23411 -0.12507
 N1005 N 0.74026 0.22310 -0.11125
 C1006 C 0.72842 0.20976 -0.10756
 N1007 N 0.71376 0.20782 -0.11820
 N1008 N 0.71104 0.21881 -0.13202
 C1009 C 0.73141 0.19764 -0.09232
 N1010 N 0.71938 0.18453 -0.08842
 N1011 N 0.72209 0.17355 -0.07459
 C1012 C 0.73692 0.17521 -0.06412
 N1013 N 0.74894 0.18834 -0.06808
 N1014 N 0.74624 0.19935 -0.08190
 C1015 C 0.22022 0.74483 0.34936
 N1016 N 0.20579 0.74273 0.33845
 N1017 N 0.20315 0.75377 0.32465
 C1018 C 0.21481 0.76736 0.32120
 N1019 N 0.22924 0.76942 0.33217
 N1020 N 0.23190 0.75838 0.34596
 C1021 C 0.22314 0.73266 0.36457
 N1022 N 0.23776 0.73454 0.37527
 N1023 N 0.24041 0.72349 0.38907
 C1024 C 0.22852 0.71017 0.39267
 N1025 N 0.21389 0.70829 0.38198
 N1026 N 0.21125 0.71933 0.36817
 C1027 C 0.23143 0.69799 0.40789
 N1028 N 0.21936 0.68490 0.41171
 N1029 N 0.22200 0.67387 0.42552
 C1030 C 0.23680 0.67547 0.43605
 N1031 N 0.24886 0.68860 0.43217
 N1032 N 0.24623 0.69964 0.41837
 C1033 C 0.27906 0.74484 0.65091
 N1034 N 0.29350 0.74273 0.66180
 N1035 N 0.29618 0.75378 0.67558
 C1036 C 0.28454 0.76739 0.67904
 N1037 N 0.27009 0.76945 0.66809
 N1038 N 0.26740 0.75840 0.65431
 C1039 C 0.27611 0.73266 0.63571
 N1040 N 0.26148 0.73455 0.62503
 N1041 N 0.25880 0.72350 0.61124
 C1042 C 0.27067 0.71016 0.60762
 N1043 N 0.28530 0.70827 0.61830
 N1044 N 0.28797 0.71932 0.63209
 C1045 C 0.26772 0.69799 0.59241
 N1046 N 0.27977 0.68489 0.58858
 N1047 N 0.27711 0.67385 0.57477
 C1048 C 0.26230 0.67547 0.56426
 N1049 N 0.25026 0.68860 0.56815
 N1050 N 0.25292 0.69964 0.58194
 C1051 C 0.77978 0.24432 0.15098
 N1052 N 0.79425 0.24220 0.16182
 N1053 N 0.79697 0.25322 0.17561
 C1054 C 0.78534 0.26683 0.17912
 N1055 N 0.77087 0.26892 0.16822
 N1056 N 0.76813 0.25788 0.15443
 C1057 C 0.77678 0.23218 0.13576
 N1058 N 0.76212 0.23409 0.12511
 N1059 N 0.75942 0.22307 0.11130
 C1060 C 0.77128 0.20975 0.10762
 N1061 N 0.78594 0.20784 0.11826
 N1062 N 0.78864 0.21885 0.13208
 C1063 C 0.76831 0.19762 0.09238
 N1064 N 0.78036 0.18454 0.08848
 N1065 N 0.77768 0.17355 0.07465
 C1066 C 0.76285 0.17518 0.06418
 N1067 N 0.75080 0.18828 0.06813
 N1068 N 0.75348 0.19929 0.08195
 C1069 C 0.47002 0.40060 0.50567
 N1070 N 0.48165 0.40402 0.49209
 N1071 N 0.47892 0.41780 0.48105
 C1072 C 0.46448 0.42873 0.48315
 N1073 N 0.45287 0.42527 0.49677
 N1074 N 0.45558 0.41148 0.50781
 C1075 C 0.47301 0.38539 0.51783
 N1076 N 0.46117 0.38176 0.53119
 N1077 N 0.46387 0.36795 0.54221
 C1078 C 0.47851 0.35728 0.54029
 N1079 N 0.49035 0.36092 0.52694
 N1080 N 0.48764 0.37472 0.51591
 C1081 C 0.48148 0.34206 0.55244
 N1082 N 0.49628 0.33160 0.55075
 N1083 N 0.49897 0.31779 0.56177
 C1084 C 0.48695 0.31388 0.57491
 N1085 N 0.47213 0.32438 0.57656
 N1086 N 0.46945 0.33820 0.56555
 C1087 C -0.02998 0.90117 0.00541
 N1088 N -0.04445 0.91202 0.00755
 N1089 N -0.04719 0.92580 -0.00349
 C1090 C -0.03560 0.92930 -0.01712
 N1091 N -0.02112 0.91840 -0.01921
 N1092 N -0.01836 0.90462 -0.00817
 C1093 C -0.02697 0.88597 0.01756
 N1094 N -0.01231 0.87532 0.01564
 N1095 N -0.00958 0.86152 0.02666
 C1096 C -0.02142 0.85784 0.04000
 N1097 N -0.03609 0.86848 0.04192
 N1098 N -0.03880 0.88230 0.03091
 C1099 C -0.01844 0.84261 0.05213
 N1100 N -0.03047 0.83871 0.06522
 N1101 N -0.02777 0.82488 0.07621
 C1102 C -0.01294 0.81441 0.07457
 N1103 N -0.00091 0.81836 0.06145
 N1104 N -0.00361 0.83218 0.05044
 C1105 C 0.02954 0.59931 0.00519
 N1106 N 0.01787 0.59588 -0.00835
 N1107 N 0.02057 0.58208 -0.01938
 C1108 C 0.03502 0.57114 -0.01730
 N1109 N 0.04666 0.57463 -0.00370
 N1110 N 0.04398 0.58844 0.00732
 C1111 C 0.02659 0.61454 0.01734
 N1112 N 0.03846 0.61819 0.03066
 N1113 N 0.03580 0.63201 0.04168
 C1114 C 0.02116 0.64268 0.03979
 N1115 N 0.00928 0.63903 0.02647
 N1116 N 0.01195 0.62521 0.01545
 C1117 C 0.01823 0.65791 0.05193
 N1118 N 0.00341 0.66837 0.05028
 N1119 N 0.00076 0.68218 0.06131
 C1120 C 0.01282 0.68610 0.07441
 N1121 N 0.02764 0.67560 0.07601
 N1122 N 0.03029 0.66178 0.06500
 C1123 C 0.52970 0.09886 0.50565
 N1124 N 0.51807 0.09543 0.49206
 N1125 N 0.52083 0.08165 0.48102
 C1126 C 0.53529 0.07074 0.48312
 N1127 N 0.54689 0.07423 0.49675
 N1128 N 0.54416 0.08802 0.50779
 C1129 C 0.52669 0.11407 0.51781
 N1130 N 0.53852 0.11772 0.53117
 N1131 N 0.53582 0.13152 0.54219
 C1132 C 0.52117 0.14218 0.54026
 N1133 N 0.50933 0.13853 0.52691
 N1134 N 0.51204 0.12473 0.51588
 C1135 C 0.51820 0.15740 0.55241
 N1136 N 0.50339 0.16786 0.55072
 N1137 N 0.50070 0.18167 0.56174
 C1138 C 0.51272 0.18558 0.57488
 N1139 N 0.52754 0.17508 0.57653
 N1140 N 0.53022 0.16126 0.56552
 C1141 C -0.03019 0.09918 0.49444
 N1142 N -0.04465 0.08832 0.49230
 N1143 N -0.04737 0.07452 0.50332
 C1144 C -0.03575 0.07102 0.51694
 N1145 N -0.02129 0.08194 0.51904
 N1146 N -0.01855 0.09573 0.50801
 C1147 C -0.02719 0.11440 0.48229
 N1148 N -0.01255 0.12506 0.48422
 N1149 N -0.00984 0.13887 0.47320
 C1150 C -0.02169 0.14253 0.45987
 N1151 N -0.03634 0.13188 0.45795
 N1152 N -0.03904 0.11806 0.46895
 C1153 C -0.01873 0.15777 0.44773
 N1154 N -0.03076 0.16164 0.43463
 N1155 N -0.02808 0.17547 0.42363
 C1156 C -0.01326 0.18596 0.42528
 N1157 N -0.00123 0.18203 0.43840
 N1158 N -0.00391 0.16822 0.44942
 C1159 C 0.47007 0.59936 0.99475
 N1160 N 0.48173 0.59593 1.00831
 N1161 N 0.47903 0.58213 1.01933
 C1162 C 0.46459 0.57118 1.01724
 N1163 N 0.45295 0.57466 1.00364
 N1164 N 0.45563 0.58848 0.99262
 C1165 C 0.47303 0.61459 0.98261
 N1166 N 0.46116 0.61823 0.96928
 N1167 N 0.46382 0.63205 0.95827
 C1168 C 0.47846 0.64273 0.96017
 N1169 N 0.49034 0.63908 0.97349
 N1170 N 0.48766 0.62527 0.98451
 C1171 C 0.48139 0.65796 0.94802
 N1172 N 0.49620 0.66843 0.94968
 N1173 N 0.49885 0.68224 0.93866
 C1174 C 0.48680 0.68615 0.92555
 N1175 N 0.47198 0.67564 0.92393
 N1176 N 0.46933 0.66182 0.93494
 C1177 C 0.52955 0.90102 0.99489
 N1178 N 0.51825 0.90409 1.00881
 N1179 N 0.52101 0.91784 1.01988
 C1180 C 0.53515 0.92914 1.01749
 N1181 N 0.54642 0.92598 1.00348
 N1182 N 0.54369 0.91221 0.99242
 C1183 C 0.52654 0.88583 0.98270
 N1184 N 0.53813 0.88247 0.96906
 N1185 N 0.53541 0.86868 0.95802
 C1186 C 0.52099 0.85776 0.96019
 N1187 N 0.50939 0.86113 0.97382
 N1188 N 0.51212 0.87491 0.98488
 C1189 C 0.51801 0.84256 0.94802
 N1190 N 0.50335 0.83193 0.94989
 N1191 N 0.50065 0.81814 0.93884
 C1192 C 0.51251 0.81442 0.92551
 N1193 N 0.52718 0.82510 0.92368
 N1194 N 0.52987 0.83890 0.93471
 C1195 C 0.02958 0.40108 0.49435
 N1196 N 0.01795 0.40451 0.50792
 N1197 N 0.02070 0.41830 0.51896
 C1198 C 0.03516 0.42921 0.51687
 N1199 N 0.04677 0.42572 0.50325
 N1200 N 0.04404 0.41193 0.49221
 C1201 C 0.02657 0.38586 0.48219
 N1202 N 0.03841 0.38220 0.46885
 N1203 N 0.03571 0.36838 0.45784
 C1204 C 0.02105 0.35773 0.45976
 N1205 N 0.00920 0.36140 0.47309
 N1206 N 0.01192 0.37521 0.48411
 C1207 C 0.01807 0.34250 0.44762
 N1208 N 0.00325 0.33206 0.44931
 N1209 N 0.00056 0.31823 0.43830
 C1210 C 0.01259 0.31429 0.42519
 N1211 N 0.02742 0.32478 0.42354
 N1212 N 0.03011 0.33861 0.43453
 C1213 C 0.40042 0.50526 0.47055
 N1214 N 0.41129 0.50739 0.45610
 N1215 N 0.42509 0.49635 0.45341
 C1216 C 0.42857 0.48274 0.46502
 N1217 N 0.41764 0.48065 0.47947
 N1218 N 0.40385 0.49170 0.48219
 C1219 C 0.38520 0.51743 0.47352
 N1220 N 0.37453 0.51552 0.48815
 N1221 N 0.36073 0.52655 0.49084
 C1222 C 0.35708 0.53989 0.47899
 N1223 N 0.36774 0.54179 0.46435
 N1224 N 0.38156 0.53077 0.46167
 C1225 C 0.34185 0.55204 0.48194
 N1226 N 0.33799 0.56514 0.46989
 N1227 N 0.32417 0.57615 0.47256
 C1228 C 0.31366 0.57453 0.48737
 N1229 N 0.31758 0.56140 0.49940
 N1230 N 0.33139 0.55038 0.49674
 C1231 C 0.90093 0.00523 -0.02985
 N1232 N 0.91212 0.00770 -0.04399
 N1233 N 0.92592 -0.00334 -0.04669
 C1234 C 0.92911 -0.01732 -0.03540
 N1235 N 0.91782 -0.01971 -0.02126
 N1236 N 0.90403 -0.00867 -0.01853
 C1237 C 0.88571 0.01739 -0.02687
 N1238 N 0.87479 0.01520 -0.01246
 N1239 N 0.86099 0.02623 -0.00975
 C1240 C 0.85758 0.03984 -0.02137
 N1241 N 0.86849 0.04202 -0.03579
 N1242 N 0.88231 0.03100 -0.03848
 C1243 C 0.84235 0.05198 -0.01840
 N1244 N 0.83865 0.06527 -0.03028
 N1245 N 0.82482 0.07627 -0.02760
 C1246 C 0.81415 0.07444 -0.01293
 N1247 N 0.81791 0.06112 -0.00106
 N1248 N 0.83172 0.05010 -0.00374
 C1249 C 0.59919 0.00488 0.02970
 N1250 N 0.59575 -0.00866 0.01802
 N1251 N 0.58195 -0.01970 0.02071
 C1252 C 0.57103 -0.01765 0.03517
 N1253 N 0.57452 -0.00406 0.04682
 N1254 N 0.58833 0.00697 0.04415
 C1255 C 0.61441 0.01705 0.02674
 N1256 N 0.61806 0.03037 0.03861
 N1257 N 0.63187 0.04141 0.03594
 C1258 C 0.64252 0.03954 0.02129
 N1259 N 0.63886 0.02622 0.00941
 N1260 N 0.62506 0.01517 0.01209
 C1261 C 0.65774 0.05171 0.01834
 N1262 N 0.66817 0.05008 0.00351
 N1263 N 0.68197 0.06113 0.00084
 C1264 C 0.68589 0.07424 0.01289
 N1265 N 0.67541 0.07583 0.02772
 N1266 N 0.66160 0.06480 0.03039
 C1267 C 0.09858 0.50521 0.52966
 N1268 N 0.09549 0.49131 0.51833
 N1269 N 0.08171 0.48025 0.52105
 C1270 C 0.07041 0.48263 0.53518
 N1271 N 0.07358 0.49662 0.54647
 N1272 N 0.08737 0.50767 0.54379
 C1273 C 0.11379 0.51739 0.52670
 N1274 N 0.11716 0.53100 0.53832
 N1275 N 0.13097 0.54204 0.53564
 C1276 C 0.14190 0.53988 0.52124
 N1277 N 0.13852 0.52627 0.50961
 N1278 N 0.12472 0.51522 0.51230
 C1279 C 0.15712 0.55204 0.51830
 N1280 N 0.16777 0.55019 0.50366
 N1281 N 0.18158 0.56123 0.50100
 C1282 C 0.18531 0.57454 0.51289
 N1283 N 0.17462 0.57635 0.52754
 N1284 N 0.16079 0.56533 0.53019
 C1285 C 0.09898 0.49453 -0.02986
 N1286 N 0.08810 0.49241 -0.04430
 N1287 N 0.07431 0.50346 -0.04700
 C1288 C 0.07085 0.51708 -0.03538
 N1289 N 0.08178 0.51916 -0.02093
 N1290 N 0.09556 0.50810 -0.01822
 C1291 C 0.11418 0.48236 -0.02689
 N1292 N 0.12485 0.48425 -0.01225
 N1293 N 0.13865 0.47320 -0.00956
 C1294 C 0.14229 0.45987 -0.02142
 N1295 N 0.13162 0.45798 -0.03606
 N1296 N 0.11782 0.46901 -0.03874
 C1297 C 0.15751 0.44770 -0.01847
 N1298 N 0.16137 0.43462 -0.03052
 N1299 N 0.17518 0.42359 -0.02785
 C1300 C 0.18568 0.42520 -0.01303
 N1301 N 0.18176 0.43831 -0.00099
 N1302 N 0.16796 0.44935 -0.00365
 C1303 C 0.59883 0.99486 0.47035
 N1304 N 0.58762 0.99238 0.45623
 N1305 N 0.57380 1.00340 0.45354
 C1306 C 0.57061 1.01738 0.46483
 N1307 N 0.58192 1.01979 0.47896
 N1308 N 0.59572 1.00877 0.48167
 C1309 C 0.61406 0.98272 0.47332
 N1310 N 0.62500 0.98492 0.48772
 N1311 N 0.63882 0.97390 0.49041
 C1312 C 0.64221 0.96029 0.47879
 N1313 N 0.63128 0.95810 0.46439
 N1314 N 0.61744 0.96910 0.46171
 C1315 C 0.65746 0.94816 0.48174
 N1316 N 0.66113 0.93486 0.46986
 N1317 N 0.67497 0.92387 0.47252
 C1318 C 0.68567 0.92571 0.48717
 N1319 N 0.68194 0.93903 0.49904
 N1320 N 0.66811 0.95005 0.49637
 C1321 C 0.90080 0.99505 0.52965
 N1322 N 0.91201 0.99256 0.54376
 N1323 N 0.92582 1.00360 0.54646
 C1324 C 0.92899 1.01760 0.53519
 N1325 N 0.91767 1.02001 0.52107
 N1326 N 0.90388 1.00897 0.51834
 C1327 C 0.88558 0.98288 0.52668
 N1328 N 0.87463 0.98507 0.51229
 N1329 N 0.86083 0.97404 0.50959
 C1330 C 0.85745 0.96042 0.52120
 N1331 N 0.86839 0.95823 0.53560
 N1332 N 0.88221 0.96925 0.53828
 C1333 C 0.84222 0.94826 0.51825
 N1334 N 0.83856 0.93496 0.53012
 N1335 N 0.82473 0.92394 0.52746
 C1336 C 0.81403 0.92577 0.51281
 N1337 N 0.81775 0.93910 0.50095
 N1338 N 0.83156 0.95014 0.50361
 C1339 C 0.40062 0.49455 0.02971
 N1340 N 0.40404 0.50814 0.01809
 N1341 N 0.41782 0.51919 0.02082
 C1342 C 0.42875 0.51710 0.03527
 N1343 N 0.42528 0.50347 0.04687
 N1344 N 0.41149 0.49242 0.04415
 C1345 C 0.38542 0.48237 0.02671
 N1346 N 0.38178 0.46901 0.03854
 N1347 N 0.36798 0.45798 0.03584
 C1348 C 0.35732 0.45989 0.02120
 N1349 N 0.36096 0.47324 0.00936
 N1350 N 0.37475 0.48429 0.01207
 C1351 C 0.34210 0.44772 0.01822
 N1352 N 0.33165 0.44939 0.00341
 N1353 N 0.31785 0.43835 0.00072
 C1354 C 0.31393 0.42521 0.01273
 N1355 N 0.32443 0.42358 0.02755
 N1356 N 0.33824 0.43461 0.03024
 C1357 C 0.50509 0.47011 0.40099
 N1358 N 0.49153 0.48176 0.40442
 N1359 N 0.48049 0.47905 0.41821
 C1360 C 0.48257 0.46460 0.42913
 N1361 N 0.49618 0.45297 0.42565
 N1362 N 0.50721 0.45566 0.41186
 C1363 C 0.51726 0.47307 0.38578
 N1364 N 0.53059 0.46121 0.38214
 N1365 N 0.54162 0.46389 0.36833
 C1366 C 0.53973 0.47854 0.35767
 N1367 N 0.52640 0.49040 0.36132
 N1368 N 0.51536 0.48772 0.37512
 C1369 C 0.55189 0.48148 0.34245
 N1370 N 0.55024 0.49630 0.33201
 N1371 N 0.56127 0.49897 0.31821
 C1372 C 0.57439 0.48692 0.31429
 N1373 N 0.57599 0.47209 0.32478
 N1374 N 0.56497 0.46943 0.33859
 C1375 C 0.00489 -0.02951 0.90063
 N1376 N -0.00867 -0.01784 0.90404
 N1377 N -0.01970 -0.02052 0.91784
 C1378 C -0.01763 -0.03495 0.92879
 N1379 N -0.00403 -0.04660 0.92532
 N1380 N 0.00700 -0.04394 0.91152
 C1381 C 0.01705 -0.02657 0.88542
 N1382 N 0.03038 -0.03844 0.88179
 N1383 N 0.04142 -0.03579 0.86799
 C1384 C 0.03953 -0.02116 0.85730
 N1385 N 0.02620 -0.00929 0.86093
 N1386 N 0.01516 -0.01195 0.87473
 C1387 C 0.05170 -0.01825 0.84209
 N1388 N 0.05005 -0.00345 0.83162
 N1389 N 0.06109 -0.00081 0.81782
 C1390 C 0.07421 -0.01286 0.81392
 N1391 N 0.07581 -0.02767 0.82444
 N1392 N 0.06478 -0.03031 0.83825
 C1393 C 0.00486 0.02966 0.59907
 N1394 N -0.00872 0.01802 0.59565
 N1395 N -0.01977 0.02073 0.58187
 C1396 C -0.01769 0.03517 0.57095
 N1397 N -0.00407 0.04680 0.57441
 N1398 N 0.00698 0.04410 0.58820
 C1399 C 0.01704 0.02668 0.61427
 N1400 N 0.03040 0.03852 0.61790
 N1401 N 0.04144 0.03582 0.63169
 C1402 C 0.03953 0.02118 0.64235
 N1403 N 0.02617 0.00934 0.63872
 N1404 N 0.01512 0.01204 0.62493
 C1405 C 0.05170 0.01821 0.65756
 N1406 N 0.05002 0.00340 0.66801
 N1407 N 0.06107 0.00072 0.68180
 C1408 C 0.07422 0.01274 0.68571
 N1409 N 0.07585 0.02755 0.67521
 N1410 N 0.06482 0.03024 0.66141
 C1411 C 0.50527 0.52968 0.09932
 N1412 N 0.49171 0.51803 0.09587
 N1413 N 0.48067 0.52076 0.08208
 C1414 C 0.48275 0.53523 0.07118
 N1415 N 0.49636 0.54686 0.07469
 N1416 N 0.50739 0.54415 0.08848
 C1417 C 0.51743 0.52669 0.11453
 N1418 N 0.53077 0.53854 0.11821
 N1419 N 0.54178 0.53584 0.13202
 C1420 C 0.53988 0.52117 0.14265
 N1421 N 0.52654 0.50932 0.13897
 N1422 N 0.51552 0.51203 0.12517
 C1423 C 0.55202 0.51820 0.15788
 N1424 N 0.55034 0.50337 0.16830
 N1425 N 0.56136 0.50068 0.18211
 C1426 C 0.57448 0.51271 0.18606
 N1427 N 0.57612 0.52755 0.17560
 N1428 N 0.56511 0.53024 0.16178
 C1429 C 0.49449 -0.03017 0.09915
 N1430 N 0.50807 -0.01854 0.09571
 N1431 N 0.51910 -0.02127 0.08191
 C1432 C 0.51698 -0.03571 0.07098
 N1433 N 0.50335 -0.04732 0.07447
 N1434 N 0.49233 -0.04461 0.08828
 C1435 C 0.48235 -0.02720 0.11437
 N1436 N 0.46900 -0.03904 0.11803
 N1437 N 0.45800 -0.03635 0.13185
 C1438 C 0.45994 -0.02172 0.14252
 N1439 N 0.47328 -0.00987 0.13886
 N1440 N 0.48429 -0.01256 0.12504
 C1441 C 0.44781 -0.01877 0.15776
 N1442 N 0.44951 -0.00396 0.16821
 N1443 N 0.43850 -0.00129 0.18204
 C1444 C 0.42537 -0.01332 0.18596
 N1445 N 0.42371 -0.02813 0.17546
 N1446 N 0.43470 -0.03080 0.16163
 C1447 C 0.99460 0.47038 0.59909
 N1448 N 0.99250 0.45594 0.58821
 N1449 N 1.00354 0.45329 0.57441
 C1450 C 1.01713 0.46495 0.57095
 N1451 N 1.01919 0.47939 0.58190
 N1452 N 1.00814 0.48206 0.59568
 C1453 C 0.98242 0.47331 0.61430
 N1454 N 0.98429 0.48795 0.62498
 N1455 N 0.97323 0.49060 0.63876
 C1456 C 0.95991 0.47871 0.64239
 N1457 N 0.95805 0.46407 0.63172
 N1458 N 0.96909 0.46142 0.61792
 C1459 C 0.94773 0.48163 0.65759
 N1460 N 0.93465 0.46956 0.66143
 N1461 N 0.92361 0.47220 0.67523
 C1462 C 0.92518 0.48703 0.68573
 N1463 N 0.93829 0.49909 0.68183
 N1464 N 0.94935 0.49645 0.66805
 C1465 C 0.99427 0.52965 0.90064
 N1466 N 1.00784 0.51801 0.90407
 N1467 N 1.01889 0.52074 0.91785
 C1468 C 1.01682 0.53520 0.92876
 N1469 N 1.00320 0.54682 0.92527
 N1470 N 0.99216 0.54411 0.91149
 C1471 C 0.98210 0.52666 0.88543
 N1472 N 0.96876 0.53851 0.88178
 N1473 N 0.95773 0.53581 0.86797
 C1474 C 0.95964 0.52116 0.85733
 N1475 N 0.97297 0.50930 0.86099
 N1476 N 0.98401 0.51201 0.87478
 C1477 C 0.94748 0.51818 0.84210
 N1478 N 0.94916 0.50336 0.83167
 N1479 N 0.93813 0.50067 0.81786
 C1480 C 0.92501 0.51270 0.81393
 N1481 N 0.92338 0.52753 0.82440
 N1482 N 0.93439 0.53022 0.83822
 C1483 C 0.49477 0.02942 0.40091
 N1484 N 0.49264 0.04386 0.41178
 N1485 N 0.50368 0.04655 0.42558
 C1486 C 0.51730 0.03493 0.42906
 N1487 N 0.51938 0.02049 0.41812
 N1488 N 0.50835 0.01777 0.40433
 C1489 C 0.48261 0.02644 0.38570
 N1490 N 0.48452 0.01180 0.37504
 N1491 N 0.47348 0.00910 0.36124
 C1492 C 0.46014 0.02094 0.35759
 N1493 N 0.45823 0.03559 0.36825
 N1494 N 0.46926 0.03828 0.38206
 C1495 C 0.44798 0.01798 0.34238
 N1496 N 0.43487 0.03001 0.33851
 N1497 N 0.42385 0.02732 0.32470
 C1498 C 0.42548 0.01250 0.31422
 N1499 N 0.43861 0.00047 0.31814
 N1500 N 0.44965 0.00316 0.33193
   
