data_POSCAR
  _audit_creation_date              2014-09-24
  _audit_creation_method            'ToBaCCo'
  _symmetry_space_group_name_H-M    'P1'
  _symmetry_Int_Tables_number       1
  _symmetry_cell_setting            triclinic
  loop_
  _symmetry_equiv_pos_as_xyz
 x,y,z
_cell_length_a 68.0202
_cell_length_b 68.0502
_cell_length_c 68.0591
_cell_angle_alpha 89.941700
_cell_angle_beta 90.005900
_cell_angle_gamma 89.946900
loop_
  _atom_site_label
  _atom_site_type_symbol
  _atom_site_fract_x
  _atom_site_fract_y
  _atom_site_fract_z
N1 N 0.35964 1.34686 0.30552
 N2 N 0.34521 1.35975 0.30497
 C3 C 0.34747 1.37132 0.28903
 C4 C 0.36418 1.36524 0.27928
 C5 C 0.37162 1.34978 0.29005
 H6 H 0.33791 1.38337 0.28497
 H7 H 0.38486 1.34149 0.28706
 Cu8 Cu 0.32530 1.36010 0.32551
 Cu9 Cu 0.36238 1.32783 0.32677
 Cu10 Cu 0.32391 1.32523 0.36027
 N11 N 0.30519 1.36041 0.34584
 N12 N 0.30461 1.34645 0.35924
 C13 C 0.28934 1.34974 0.37139
 C14 C 0.27995 1.36659 0.36520
 C15 C 0.29025 1.37306 0.34899
 H16 H 0.28544 1.34063 0.38383
 H17 H 0.28709 1.38594 0.34021
 N18 N 0.34512 1.30547 0.35891
 N19 N 0.35990 1.30662 0.34635
 C20 C 0.37219 1.29138 0.34943
 C21 C 0.36477 1.28028 0.36464
 C22 C 0.34768 1.28950 0.37037
 H23 H 0.38560 1.28862 0.34136
 H24 H 0.33803 1.28505 0.38218
 H25 H 0.33252 1.32557 0.33092
 H26 H 0.34593 1.34173 0.34850
 N27 N 0.35936 0.84595 0.80528
 N28 N 0.34536 0.85931 0.80527
 C29 C 0.34829 0.87176 0.79015
 C30 C 0.36495 0.86579 0.78031
 C31 C 0.37167 0.84943 0.79019
 H32 H 0.33912 0.88425 0.78659
 H33 H 0.38455 0.84079 0.78669
 Cu34 Cu 0.32486 0.85929 0.82516
 Cu35 Cu 0.36062 0.82512 0.82483
 Cu36 Cu 0.32455 0.82516 0.86088
 N37 N 0.30497 0.85938 0.84568
 N38 N 0.30498 0.84602 0.85967
 C39 C 0.28991 0.84954 0.87200
 C40 C 0.28004 0.86592 0.86532
 C41 C 0.28987 0.87186 0.84864
 H42 H 0.28643 0.84090 0.88488
 H43 H 0.28632 0.88436 0.83947
 N44 N 0.34559 0.80526 0.85960
 N45 N 0.35933 0.80525 0.84588
 C46 C 0.37153 0.78995 0.84899
 C47 C 0.36510 0.77999 0.86538
 C48 C 0.34869 0.78995 0.87180
 H49 H 0.38417 0.78631 0.84007
 H50 H 0.33977 0.78633 0.88444
 H51 H 0.33095 0.82441 0.83116
 H52 H 0.34658 0.84062 0.84677
 N53 N 0.85921 1.34526 0.80434
 N54 N 0.84592 1.35931 0.80489
 C55 C 0.84973 1.37238 0.79050
 C56 C 0.86621 1.36604 0.78055
 C57 C 0.87190 1.34883 0.78959
 H58 H 0.84111 1.38537 0.78736
 H59 H 0.88417 1.33952 0.78563
 Cu60 Cu 0.82466 1.35896 0.82405
 Cu61 Cu 0.85858 1.32301 0.82224
 Cu62 Cu 0.82524 1.32550 0.86065
 N63 N 0.80488 1.35892 0.84471
 N64 N 0.80540 1.34606 0.85915
 C65 C 0.79037 1.34961 0.87154
 C66 C 0.78000 1.36550 0.86444
 C67 C 0.78950 1.37112 0.84745
 H68 H 0.78722 1.34128 0.88471
 H69 H 0.78556 1.38323 0.83794
 N70 N 0.84632 1.30567 0.85928
 N71 N 0.85881 1.30453 0.84446
 C72 C 0.87110 1.28930 0.84754
 C73 C 0.86599 1.28053 0.86504
 C74 C 0.85029 1.29114 0.87215
 H75 H 0.88288 1.28489 0.83781
 H76 H 0.84232 1.28837 0.88561
 H77 H 0.82910 1.32387 0.83097
 H78 H 0.84684 1.33980 0.84455
 N79 N 0.85978 0.84595 0.30479
 N80 N 0.84588 0.85942 0.30485
 C81 C 0.84885 0.87187 0.28972
 C82 C 0.86541 0.86572 0.27980
 C83 C 0.87205 0.84931 0.28963
 H84 H 0.83977 0.88446 0.28622
 H85 H 0.88484 0.84055 0.28610
 Cu86 Cu 0.82563 0.85945 0.32505
 Cu87 Cu 0.86110 0.82515 0.32441
 Cu88 Cu 0.82493 0.82517 0.36045
 N89 N 0.80537 0.85945 0.34524
 N90 N 0.80525 0.84599 0.35912
 C91 C 0.79007 0.84940 0.37135
 C92 C 0.78025 0.86585 0.36473
 C93 C 0.79024 0.87193 0.34818
 H94 H 0.78650 0.84067 0.38414
 H95 H 0.78679 0.88453 0.33911
 N96 N 0.84610 0.80535 0.35925
 N97 N 0.85986 0.80536 0.34554
 C98 C 0.87212 0.79012 0.34871
 C99 C 0.86572 0.78019 0.36513
 C100 C 0.84927 0.79010 0.37150
 H101 H 0.88479 0.78651 0.33981
 H102 H 0.84036 0.78647 0.38415
 H103 H 0.83143 0.82449 0.33074
 H104 H 0.84715 0.84044 0.34650
 N105 N 0.64044 0.65426 0.30547
 N106 N 0.65441 0.64088 0.30548
 C107 C 0.65146 0.62846 0.29037
 C108 C 0.63482 0.63447 0.28051
 C109 C 0.62812 0.65081 0.29037
 H110 H 0.66064 0.61598 0.28680
 H111 H 0.61528 0.65951 0.28685
 Cu112 Cu 0.67498 0.64093 0.32533
 Cu113 Cu 0.63929 0.67514 0.32492
 Cu114 Cu 0.67536 0.67512 0.36097
 N115 N 0.69486 0.64087 0.34587
 N116 N 0.69486 0.65423 0.35982
 C117 C 0.71000 0.65079 0.37210
 C118 C 0.71991 0.63447 0.36541
 C119 C 0.71003 0.62846 0.34880
 H120 H 0.71352 0.65947 0.38493
 H121 H 0.71363 0.61600 0.33963
 N122 N 0.65438 0.69504 0.35959
 N123 N 0.64065 0.69505 0.34586
 C124 C 0.62843 0.71033 0.34895
 C125 C 0.63484 0.72026 0.36534
 C126 C 0.65125 0.71031 0.37178
 H127 H 0.61575 0.71393 0.34006
 H128 H 0.66013 0.71390 0.38445
 H129 H 0.66899 0.67579 0.33130
 H130 H 0.65334 0.65962 0.34696
 N131 N 0.64019 0.15436 0.80463
 N132 N 0.65419 0.14099 0.80460
 C133 C 0.65123 0.12859 0.78945
 C134 C 0.63455 0.13462 0.77963
 C135 C 0.62785 0.15094 0.78954
 H136 H 0.66041 0.11611 0.78587
 H137 H 0.61497 0.15962 0.78609
 Cu138 Cu 0.67475 0.14105 0.82450
 Cu139 Cu 0.63892 0.17509 0.82428
 Cu140 Cu 0.67505 0.17510 0.86028
 N141 N 0.69475 0.14102 0.84497
 N142 N 0.69475 0.15436 0.85894
 C143 C 0.70990 0.15092 0.87121
 C144 C 0.71984 0.13460 0.86451
 C145 C 0.70994 0.12862 0.84789
 H146 H 0.71338 0.15956 0.88408
 H147 H 0.71351 0.11614 0.83872
 N148 N 0.65387 0.19485 0.85910
 N149 N 0.64012 0.19486 0.84538
 C150 C 0.62782 0.21007 0.84856
 C151 C 0.63421 0.21997 0.86498
 C152 C 0.65067 0.21006 0.87136
 H153 H 0.61515 0.21368 0.83966
 H154 H 0.65959 0.21368 0.88400
 H155 H 0.66868 0.17590 0.83059
 H156 H 0.65312 0.15961 0.84623
 N157 N 1.14000 0.65395 0.80560
 N158 N 1.15438 0.64099 0.80518
 C159 C 1.15185 0.62909 0.78956
 C160 C 1.13505 0.63498 0.77987
 C161 C 1.12784 0.65072 0.79034
 H162 H 1.16135 0.61696 0.78562
 H163 H 1.11461 0.65901 0.78725
 Cu164 Cu 1.17481 0.64105 0.82526
 Cu165 Cu 1.13768 0.67347 0.82637
 Cu166 Cu 1.17360 0.67351 0.86227
 N167 N 1.19491 0.64104 0.84567
 N168 N 1.19445 0.65400 0.86001
 C169 C 1.20972 0.65078 0.87218
 C170 C 1.22024 0.63503 0.86501
 C171 C 1.21056 0.62914 0.84822
 H172 H 1.21278 0.65906 0.88538
 H173 H 1.21453 0.61701 0.83876
 N174 N 1.15346 0.69426 0.86015
 N175 N 1.13973 0.69425 0.84641
 C176 C 1.12816 0.71015 0.84882
 C177 C 1.13501 0.72051 0.86477
 C178 C 1.15100 0.71017 0.87166
 H179 H 1.11561 0.71384 0.83978
 H180 H 1.16001 0.71388 0.88421
 H181 H 1.16746 0.67505 0.83254
 H182 H 1.15241 0.65770 0.84764
 N183 N 1.14049 0.15395 0.30563
 N184 N 1.15487 0.14102 0.30515
 C185 C 1.15209 0.12885 0.28979
 C186 C 1.13513 0.13458 0.28027
 C187 C 1.12810 0.15049 0.29060
 H188 H 1.16155 0.11670 0.28586
 H189 H 1.11499 0.15891 0.28742
 Cu190 Cu 1.17549 0.14094 0.32496
 Cu191 Cu 1.13906 0.17452 0.32537
 Cu192 Cu 1.17758 0.17704 0.35860
 N193 N 1.19471 0.14060 0.34613
 N194 N 1.19540 0.15471 0.35930
 C195 C 1.21019 0.15107 0.37195
 C196 C 1.21908 0.13375 0.36637
 C197 C 1.20901 0.12744 0.34999
 H198 H 1.21427 0.16039 0.38415
 H199 H 1.21201 0.11437 0.34147
 N200 N 1.15537 0.19560 0.35874
 N201 N 1.14051 0.19440 0.34630
 C202 C 1.12769 0.20901 0.35013
 C203 C 1.13486 0.21974 0.36568
 C204 C 1.15236 0.21096 0.37086
 H205 H 1.11422 0.21176 0.34213
 H206 H 1.16214 0.21545 0.38255
 H207 H 1.16880 0.17606 0.32926
 H208 H 1.15521 0.16028 0.34714
 N209 N 0.64071 1.34586 0.69468
 N210 N 0.65462 1.35929 0.69461
 C211 C 0.65167 1.37169 0.70974
 C212 C 0.63511 1.36562 0.71969
 C213 C 0.62847 1.34924 0.70985
 H214 H 0.66078 1.38422 0.71326
 H215 H 0.61568 1.34051 0.71342
 Cu216 Cu 0.67509 1.35925 0.67465
 Cu217 Cu 0.63945 1.32508 0.67511
 Cu218 Cu 0.67548 1.32504 0.63905
 N219 N 0.69500 1.35928 0.65415
 N220 N 0.69507 1.34583 0.64027
 C221 C 0.71022 1.34922 0.62800
 C222 C 0.72006 1.36561 0.63460
 C223 C 0.71014 1.37170 0.65116
 H224 H 0.71378 1.34047 0.61523
 H225 H 0.71366 1.38424 0.66024
 N226 N 0.65441 1.30522 0.64034
 N227 N 0.64068 1.30526 0.65407
 C228 C 0.62844 1.29001 0.65098
 C229 C 0.63484 1.28003 0.63461
 C230 C 0.65126 1.28994 0.62815
 H231 H 0.61579 1.28642 0.65990
 H232 H 0.66016 1.28631 0.61550
 H233 H 0.66919 1.32435 0.66876
 H234 H 0.65350 1.34052 0.65308
 N235 N 0.64057 0.84571 1.19482
 N236 N 0.65456 0.85905 1.19489
 C237 C 0.65161 0.87139 1.21009
 C238 C 0.63496 0.86534 1.21991
 C239 C 0.62826 0.84908 1.20993
 H240 H 0.66078 0.88384 1.21373
 H241 H 0.61538 0.84042 1.21336
 Cu242 Cu 0.67509 0.85903 1.17499
 Cu243 Cu 0.63927 0.82504 1.17516
 Cu244 Cu 0.67536 0.82505 1.13915
 N245 N 0.69502 0.85911 1.15450
 N246 N 0.69502 0.84578 1.14050
 C247 C 0.71015 0.84925 1.12822
 C248 C 0.72005 0.86556 1.13495
 C249 C 0.71017 0.87152 1.15159
 H250 H 0.71364 0.84063 1.11534
 H251 H 0.71373 0.88398 1.16077
 N252 N 0.65420 0.80530 1.14033
 N253 N 0.64046 0.80533 1.15405
 C254 C 0.62816 0.79015 1.15090
 C255 C 0.63453 0.78022 1.13448
 C256 C 0.65100 0.79009 1.12808
 H257 H 0.61550 0.78656 1.15981
 H258 H 0.65990 0.78644 1.11544
 H259 H 0.66903 0.82421 1.16884
 H260 H 0.65345 0.84057 1.15324
 N261 N 1.14074 1.34587 1.19479
 N262 N 1.15473 1.35921 1.19485
 C263 C 1.15177 1.37159 1.21000
 C264 C 1.13510 1.36559 1.21981
 C265 C 1.12841 1.34930 1.20987
 H266 H 1.16094 1.38405 1.21362
 H267 H 1.11552 1.34066 1.21332
 Cu268 Cu 1.17527 1.35917 1.17497
 Cu269 Cu 1.13947 1.32513 1.17520
 Cu270 Cu 1.17548 1.32512 1.13916
 N271 N 1.19510 1.35925 1.15439
 N272 N 1.19506 1.34592 1.14041
 C273 C 1.21014 1.34939 1.12807
 C274 C 1.22004 1.36571 1.13474
 C275 C 1.21023 1.37168 1.15141
 H276 H 1.21360 1.34074 1.11520
 H277 H 1.21383 1.38414 1.16057
 N278 N 1.15442 1.30532 1.14044
 N279 N 1.14068 1.30534 1.15417
 C280 C 1.12849 1.29005 1.15110
 C281 C 1.13493 1.28007 1.13474
 C282 C 1.15132 1.29002 1.12828
 H283 H 1.11586 1.28643 1.16004
 H284 H 1.16025 1.28636 1.11566
 H285 H 1.16925 1.32435 1.16888
 H286 H 1.15364 1.34069 1.15328
 N287 N 1.14060 0.84550 0.69466
 N288 N 1.15459 0.85884 0.69471
 C289 C 1.15166 0.87118 0.70990
 C290 C 1.13502 0.86516 0.71975
 C291 C 1.12831 0.84888 0.70979
 H292 H 1.16083 0.88364 0.71351
 H293 H 1.11543 0.84023 0.71324
 Cu294 Cu 1.17509 0.85882 0.67478
 Cu295 Cu 1.13929 0.82482 0.67499
 Cu296 Cu 1.17536 0.82483 0.63895
 N297 N 1.19501 0.85889 0.65428
 N298 N 1.19501 0.84557 0.64029
 C299 C 1.21015 0.84901 0.62802
 C300 C 1.22007 0.86532 0.63475
 C301 C 1.21018 0.87129 0.65138
 H302 H 1.21365 0.84038 0.61515
 H303 H 1.21375 0.88375 0.66056
 N304 N 1.15422 0.80508 0.64014
 N305 N 1.14048 0.80510 0.65386
 C306 C 1.12821 0.78989 0.65072
 C307 C 1.13459 0.77997 0.63431
 C308 C 1.15104 0.78986 0.62790
 H309 H 1.11556 0.78628 0.65964
 H310 H 1.15995 0.78622 0.61526
 H311 H 1.16904 0.82400 0.66863
 H312 H 1.15345 0.84035 0.65304
 N313 N 0.35899 0.65443 0.69485
 N314 N 0.34535 0.64073 0.69453
 C315 C 0.34850 0.62813 0.70950
 C316 C 0.36494 0.63435 0.71956
 C317 C 0.37129 0.65101 0.70998
 H318 H 0.33958 0.61541 0.71284
 H319 H 0.38394 0.65989 0.71365
 Cu320 Cu 0.32479 0.64105 0.67467
 Cu321 Cu 0.36012 0.67543 0.67541
 Cu322 Cu 0.32659 0.67281 0.63704
 N323 N 0.30452 0.64132 0.65450
 N324 N 0.30527 0.65392 0.63984
 C325 C 0.28995 0.65072 0.62772
 C326 C 0.27910 0.63539 0.63531
 C327 C 0.28864 0.62971 0.65225
 H328 H 0.28712 0.65872 0.61427
 H329 H 0.28449 0.61783 0.66196
 N330 N 0.34629 0.69392 0.63937
 N331 N 0.35888 0.69504 0.65413
 C332 C 0.37036 0.71096 0.65157
 C333 C 0.36464 0.72019 0.63450
 C334 C 0.34940 0.70914 0.62708
 H335 H 0.38216 0.71541 0.66123
 H336 H 0.34128 0.71195 0.61371
 H337 H 0.33064 0.67540 0.66688
 H338 H 0.34798 0.65869 0.65372
 N339 N 0.35903 0.15409 1.19461
 N340 N 0.34535 0.14044 1.19433
 C341 C 0.34824 0.12806 1.20954
 C342 C 0.36456 0.13440 1.21973
 C343 C 0.37110 0.15088 1.20996
 H344 H 0.33926 0.11541 1.21295
 H345 H 0.38369 0.15981 1.21372
 Cu346 Cu 0.32520 0.14043 1.17406
 Cu347 Cu 0.36028 0.17496 1.17505
 Cu348 Cu 0.32422 0.17499 1.13890
 N349 N 0.30500 0.14042 1.15384
 N350 N 0.30470 0.15408 1.14014
 C351 C 0.28939 0.15084 1.12804
 C352 C 0.27968 0.13434 1.13458
 C353 C 0.28985 0.12802 1.15092
 H354 H 0.28563 0.15978 1.11543
 H355 H 0.28646 0.11536 1.15992
 N356 N 0.34528 0.19485 1.14022
 N357 N 0.35901 0.19482 1.15397
 C358 C 0.37131 0.21000 1.15079
 C359 C 0.36496 0.21992 1.13433
 C360 C 0.34850 0.21006 1.12794
 H361 H 0.38400 0.21356 1.15966
 H362 H 0.33965 0.21366 1.11523
 H363 H 0.33055 0.17544 1.16858
 H364 H 0.34647 0.15976 1.15271
 N365 N 0.85937 0.65410 1.19458
 N366 N 0.84542 0.64073 1.19458
 C367 C 0.84837 0.62831 1.20974
 C368 C 0.86500 0.63433 1.21960
 C369 C 0.87167 0.65067 1.20970
 H370 H 0.83922 0.61583 1.21333
 H371 H 0.88451 0.65936 1.21319
 Cu372 Cu 0.82490 0.64081 1.17467
 Cu373 Cu 0.86061 0.67492 1.17500
 Cu374 Cu 0.82460 0.67499 1.13894
 N375 N 0.80501 0.64080 1.15413
 N376 N 0.80503 0.65420 1.14018
 C377 C 0.78993 0.65079 1.12785
 C378 C 0.78003 0.63445 1.13451
 C379 C 0.78987 0.62840 1.15115
 H380 H 0.78645 0.65949 1.11500
 H381 H 0.78628 0.61590 1.16029
 N382 N 0.84565 0.69479 1.14021
 N383 N 0.85937 0.69476 1.15396
 C384 C 0.87157 0.71004 1.15087
 C385 C 0.86514 0.72002 1.13449
 C386 C 0.84876 0.71009 1.12803
 H387 H 0.88420 0.71365 1.15981
 H388 H 0.83984 0.71375 1.11539
 H389 H 0.83084 0.67566 1.16865
 H390 H 0.84650 0.65942 1.15302
 N391 N 0.85962 0.15354 0.69408
 N392 N 0.84505 0.14086 0.69479
 C393 C 0.84735 0.12929 0.71070
 C394 C 0.86414 0.13519 0.72035
 C395 C 0.87166 0.15052 0.70949
 H396 H 0.83772 0.11735 0.71486
 H397 H 0.88502 0.15863 0.71237
 Cu398 Cu 0.82495 0.14033 0.67446
 Cu399 Cu 0.86239 0.17240 0.67282
 Cu400 Cu 0.82402 0.17518 0.63938
 N401 N 0.80512 0.14029 0.65388
 N402 N 0.80471 0.15412 0.64036
 C403 C 0.78955 0.15080 0.62809
 C404 C 0.78005 0.13406 0.63433
 C405 C 0.79022 0.12766 0.65064
 H406 H 0.78578 0.15981 0.61554
 H407 H 0.78694 0.11486 0.65947
 N408 N 0.84521 0.19485 0.64073
 N409 N 0.85997 0.19362 0.65329
 C410 C 0.87226 0.20885 0.65029
 C411 C 0.86485 0.22002 0.63513
 C412 C 0.84778 0.21085 0.62933
 H413 H 0.88566 0.21154 0.65839
 H414 H 0.83814 0.21537 0.61751
 H415 H 0.83245 0.17478 0.66880
 H416 H 0.84571 0.15828 0.65132
 N417 N 1.34592 0.35871 0.69453
 N418 N 1.35971 0.34514 0.69417
 C419 C 1.37201 0.34801 0.70943
 C420 C 1.36551 0.36420 0.71972
 C421 C 1.34899 0.37068 0.70997
 H422 H 1.38477 0.33912 0.71277
 H423 H 1.33998 0.38322 0.71375
 Cu424 Cu 1.36034 0.32517 0.67371
 Cu425 Cu 1.32518 0.36000 0.67489
 Cu426 Cu 1.32517 0.32402 0.63890
 N427 N 1.35975 0.30476 0.65370
 N428 N 1.34595 0.30439 0.64014
 C429 C 1.34903 0.28896 0.62816
 C430 C 1.36557 0.27923 0.63465
 C431 C 1.37208 0.28951 0.65082
 H432 H 1.33999 0.28517 0.61564
 H433 H 1.38484 0.28617 0.65971
 N434 N 1.30538 0.34514 0.64007
 N435 N 1.30540 0.35886 0.65379
 C436 C 1.29023 0.37120 0.65057
 C437 C 1.28032 0.36487 0.63413
 C438 C 1.29019 0.34838 0.62777
 H439 H 1.28667 0.38389 0.65944
 H440 H 1.28659 0.33951 0.61510
 H441 H 1.32522 0.33024 0.66864
 H442 H 1.34055 0.34634 0.65252
 N443 N 1.34637 0.85891 1.19513
 N444 N 1.35984 0.84501 1.19513
 C445 C 1.37218 0.84795 1.21036
 C446 C 1.36597 0.86450 1.22025
 C447 C 1.34964 0.87116 1.21031
 H448 H 1.38470 0.83883 1.21397
 H449 H 1.34084 0.88394 1.21380
 Cu450 Cu 1.35983 0.82450 1.17519
 Cu451 Cu 1.32564 0.86021 1.17546
 Cu452 Cu 1.32565 0.82423 1.13946
 N453 N 1.35989 0.80457 1.15466
 N454 N 1.34643 0.80456 1.14076
 C455 C 1.34977 0.78940 1.12850
 C456 C 1.36614 0.77949 1.13515
 C457 C 1.37228 0.78938 1.15171
 H458 H 1.34100 0.78591 1.11571
 H459 H 1.38481 0.78580 1.16083
 N460 N 1.30585 0.84538 1.14062
 N461 N 1.30586 0.85910 1.15435
 C462 C 1.29068 0.87144 1.15115
 C463 C 1.28076 0.86513 1.13469
 C464 C 1.29065 0.84865 1.12832
 H465 H 1.28711 0.88411 1.16004
 H466 H 1.28705 0.83979 1.11565
 H467 H 1.32498 0.83046 1.16915
 H468 H 1.34121 0.84610 1.15350
 N469 N 0.84563 0.35909 1.19593
 N470 N 0.85969 0.34581 1.19534
 C471 C 0.87279 0.34959 1.20972
 C472 C 0.86645 0.36603 1.21970
 C473 C 0.84922 0.37173 1.21070
 H474 H 0.88579 0.34096 1.21282
 H475 H 0.83989 0.38398 1.21470
 Cu476 Cu 0.85936 0.32459 1.17619
 Cu477 Cu 0.82337 0.35849 1.17805
 Cu478 Cu 0.82587 0.32522 1.13964
 N479 N 0.85933 0.30486 1.15552
 N480 N 0.84643 0.30539 1.14112
 C481 C 0.84995 0.29038 1.12872
 C482 C 0.86585 0.28001 1.13577
 C483 C 0.87152 0.28948 1.15274
 H484 H 0.84159 0.28724 1.11558
 H485 H 0.88366 0.28553 1.16222
 N486 N 0.80602 0.34628 1.14100
 N487 N 0.80487 0.35876 1.15581
 C488 C 0.78965 0.37106 1.15272
 C489 C 0.78088 0.36598 1.13521
 C490 C 0.79151 0.35028 1.12812
 H491 H 0.78524 0.38283 1.16245
 H492 H 0.78876 0.34232 1.11465
 H493 H 0.82424 0.32904 1.16935
 H494 H 0.84016 0.34680 1.15576
 N495 N 0.84584 0.85947 0.69473
 N496 N 0.85954 0.84580 0.69445
 C497 C 0.87191 0.84870 0.70964
 C498 C 0.86553 0.86501 0.71981
 C499 C 0.84903 0.87153 0.71006
 H500 H 0.88458 0.83973 0.71305
 H501 H 0.84007 0.88412 0.71381
 Cu502 Cu 0.85954 0.82560 0.67425
 Cu503 Cu 0.82496 0.86073 0.67518
 Cu504 Cu 0.82494 0.82463 0.63915
 N505 N 0.85953 0.80536 0.65409
 N506 N 0.84584 0.80506 0.64043
 C507 C 0.84902 0.78968 0.62841
 C508 C 0.86553 0.77992 0.63495
 C509 C 0.87190 0.79014 0.65122
 H510 H 0.84006 0.78590 0.61584
 H511 H 0.88456 0.78673 0.66021
 N512 N 0.80508 0.84574 0.64041
 N513 N 0.80510 0.85947 0.65413
 C514 C 0.78988 0.87176 0.65095
 C515 C 0.77995 0.86540 0.63452
 C516 C 0.78985 0.84895 0.62815
 H517 H 0.78630 0.88444 0.65982
 H518 H 0.78625 0.84008 0.61548
 H519 H 0.82452 0.83103 0.66881
 H520 H 0.84019 0.84691 0.65288
 N521 N 0.65452 0.64050 0.69454
 N522 N 0.64106 0.65441 0.69447
 C523 C 0.62898 0.65178 0.70994
 C524 C 0.63529 0.63541 0.72009
 C525 C 0.65147 0.62856 0.71003
 H526 H 0.61644 0.66090 0.71347
 H527 H 0.66028 0.61582 0.71364
 Cu528 Cu 0.64033 0.67417 0.67380
 Cu529 Cu 0.67509 0.63893 0.67470
 Cu530 Cu 0.67731 0.67730 0.64129
 N531 N 0.64066 0.69432 0.65350
 N532 N 0.65517 0.69542 0.64076
 C533 C 0.65199 0.71069 0.62857
 C534 C 0.63457 0.71950 0.63401
 C535 C 0.62771 0.70885 0.64981
 H536 H 0.66165 0.71511 0.61674
 H537 H 0.61436 0.71159 0.65801
 N538 N 0.69593 0.65511 0.64105
 N539 N 0.69487 0.64033 0.65360
 C540 C 0.70938 0.62744 0.64962
 C541 C 0.71992 0.63450 0.63384
 C542 C 0.71110 0.65199 0.62871
 H543 H 0.71218 0.61399 0.65762
 H544 H 0.71542 0.66168 0.61686
 H545 H 0.67564 0.66867 0.67079
 H546 H 0.66096 0.65437 0.65249
 N547 N 0.65481 1.14087 1.19594
 N548 N 0.64084 1.15427 1.19536
 C549 C 0.62813 1.15100 1.21020
 C550 C 0.63456 1.13472 1.22043
 C551 C 0.65148 1.12860 1.21113
 H552 H 0.61522 1.15975 1.21335
 H553 H 0.66071 1.11628 1.21513
 Cu554 Cu 0.64086 1.17470 1.17526
 Cu555 Cu 0.67656 1.14079 1.17730
 Cu556 Cu 0.67658 1.17673 1.14139
 N557 N 0.64086 1.19483 1.15487
 N558 N 0.65483 1.19540 1.14149
 C559 C 0.65147 1.21058 1.12922
 C560 C 0.63454 1.21991 1.13529
 C561 C 0.62814 1.20967 1.15156
 H562 H 0.66068 1.21458 1.11689
 H563 H 0.61521 1.21282 1.16026
 N564 N 0.69551 1.15473 1.14159
 N565 N 0.69549 1.14098 1.15533
 C566 C 0.71010 1.12812 1.15161
 C567 C 0.71965 1.13414 1.13481
 C568 C 0.71013 1.15097 1.12876
 H569 H 0.71362 1.11540 1.16047
 H570 H 0.71369 1.15983 1.11606
 H571 H 0.67624 1.17044 1.17101
 H572 H 0.66138 1.15415 1.15469
 N573 N 0.15453 0.64112 1.19544
 N574 N 0.14059 0.65455 1.19493
 C575 C 0.12777 0.65112 1.20965
 C576 C 0.13419 0.63477 1.21979
 C577 C 0.15115 0.62874 1.21051
 H578 H 0.11481 0.65979 1.21278
 H579 H 0.16037 0.61640 1.21447
 Cu580 Cu 0.14058 0.67485 1.17470
 Cu581 Cu 0.17634 0.64112 1.17686
 Cu582 Cu 0.17634 0.67710 1.14096
 N583 N 0.14057 0.69514 1.15446
 N584 N 0.15450 0.69570 1.14103
 C585 C 0.15109 0.71084 1.12872
 C586 C 0.13412 0.72009 1.13479
 C587 C 0.12774 0.70988 1.15109
 H588 H 0.16030 0.71485 1.11640
 H589 H 0.11478 0.71296 1.15977
 N590 N 0.19536 0.65516 1.14123
 N591 N 0.19535 0.64141 1.15496
 C592 C 0.20999 0.62859 1.15127
 C593 C 0.21956 0.63464 1.13450
 C594 C 0.21002 0.65145 1.12844
 H595 H 0.21351 0.61586 1.16012
 H596 H 0.21357 0.66031 1.11573
 H597 H 0.17601 0.67079 1.17052
 H598 H 0.16121 0.65449 1.15417
 N599 N 0.15370 1.14086 0.69512
 N600 N 0.14024 1.15477 0.69501
 C601 C 0.12780 1.15185 0.71017
 C602 C 0.13391 1.13529 0.72012
 C603 C 0.15031 1.12862 0.71030
 H604 H 0.11521 1.16094 0.71363
 H605 H 0.15905 1.11581 0.71386
 Cu606 Cu 0.14018 1.17500 0.67479
 Cu607 Cu 0.17449 1.13951 0.67545
 Cu608 Cu 0.17448 1.17559 0.63931
 N609 N 0.14021 1.19518 0.65451
 N610 N 0.15367 1.19526 0.64062
 C611 C 0.15030 1.21046 0.62838
 C612 C 0.13390 1.22031 0.63504
 C613 C 0.12779 1.21036 0.65159
 H614 H 0.15905 1.21401 0.61559
 H615 H 0.11521 1.21386 0.66067
 N616 N 0.19429 1.15442 0.64054
 N617 N 0.19429 1.14069 0.65429
 C618 C 0.20955 1.12844 0.65115
 C619 C 0.21951 1.13483 0.63474
 C620 C 0.20956 1.15126 0.62832
 H621 H 0.21318 1.11580 0.66009
 H622 H 0.21319 1.16018 0.61567
 H623 H 0.17515 1.16921 0.66898
 H624 H 0.15916 1.15348 0.65327
 N625 N 1.34592 0.64134 0.30558
 N626 N 1.35969 0.65490 0.30590
 C627 C 1.37198 0.65198 0.29064
 C628 C 1.36546 0.63580 0.28039
 C629 C 1.34896 0.62934 0.29016
 H630 H 1.38474 0.66084 0.28728
 H631 H 1.33995 0.61681 0.28641
 Cu632 Cu 1.36036 0.67486 0.32636
 Cu633 Cu 1.32522 0.64006 0.32522
 Cu634 Cu 1.32517 0.67602 0.36118
 N635 N 1.35966 0.69530 0.34634
 N636 N 1.34588 0.69566 0.35990
 C637 C 1.34892 0.71110 0.37188
 C638 C 1.36543 0.72083 0.36538
 C639 C 1.37196 0.71056 0.34921
 H640 H 1.33989 0.71486 0.38442
 H641 H 1.38472 0.71389 0.34033
 N642 N 1.30543 0.65490 0.36003
 N643 N 1.30547 0.64118 0.34631
 C644 C 1.29031 0.62885 0.34950
 C645 C 1.28039 0.63517 0.36595
 C646 C 1.29024 0.65165 0.37232
 H647 H 1.28675 0.61618 0.34062
 H648 H 1.28662 0.66052 0.38499
 H649 H 1.32525 0.66986 0.33143
 H650 H 1.34062 0.65375 0.34756
 N651 N 1.34513 1.14134 0.80452
 N652 N 1.35907 1.15475 0.80501
 C653 C 1.37182 1.15136 0.79024
 C654 C 1.36538 1.13507 0.78008
 C655 C 1.34848 1.12904 0.78942
 H656 H 1.38478 1.16001 0.78709
 H657 H 1.33928 1.11669 0.78549
 Cu658 Cu 1.35909 1.17496 0.82527
 Cu659 Cu 1.32343 1.14119 0.82318
 Cu660 Cu 1.32343 1.17706 0.85908
 N661 N 1.35912 1.19517 0.84554
 N662 N 1.34519 1.19570 0.85896
 C663 C 1.34855 1.21083 0.87124
 C664 C 1.36547 1.22014 0.86517
 C665 C 1.37188 1.20994 0.84889
 H666 H 1.33934 1.21481 0.88357
 H667 H 1.38482 1.21307 0.84021
 N668 N 1.30452 1.15508 0.85889
 N669 N 1.30453 1.14135 0.84516
 C670 C 1.28997 1.12848 0.84892
 C671 C 1.28045 1.13448 0.86573
 C672 C 1.28993 1.15130 0.87174
 H673 H 1.28646 1.11577 0.84007
 H674 H 1.28639 1.16014 0.88446
 H675 H 1.32370 1.17078 0.82943
 H676 H 1.33862 1.15446 0.84575
 N677 N 0.84562 0.64074 0.80513
 N678 N 0.85906 0.65464 0.80519
 C679 C 0.87146 0.65172 0.79001
 C680 C 0.86534 0.63519 0.78005
 C681 C 0.84898 0.62853 0.78994
 H682 H 0.88402 0.66079 0.78651
 H683 H 0.84025 0.61573 0.78641
 Cu684 Cu 0.85901 0.67485 0.82539
 Cu685 Cu 0.82488 0.63937 0.82484
 Cu686 Cu 0.82485 0.67543 0.86092
 N687 N 0.85905 0.69503 0.84562
 N688 N 0.84561 0.69511 0.85953
 C689 C 0.84898 0.71029 0.87174
 C690 C 0.86536 0.72014 0.86508
 C691 C 0.87147 0.71018 0.84855
 H692 H 0.84025 0.71383 0.88454
 H693 H 0.88404 0.71366 0.83948
 N694 N 0.80512 0.65425 0.85975
 N695 N 0.80514 0.64052 0.84602
 C696 C 0.78998 0.62820 0.84925
 C697 C 0.78008 0.63455 0.86570
 C698 C 0.78994 0.65101 0.87205
 H699 H 0.78640 0.61553 0.84037
 H700 H 0.78633 0.65989 0.88472
 H701 H 0.82415 0.66905 0.83131
 H702 H 0.84025 0.65335 0.84701
 N703 N 0.84534 1.14045 0.30512
 N704 N 0.85879 1.15434 0.30520
 C705 C 0.87118 1.15144 0.29002
 C706 C 0.86508 1.13492 0.28006
 C707 C 0.84871 1.12826 0.28992
 H708 H 0.88375 1.16052 0.28653
 H709 H 0.83999 1.11546 0.28637
 Cu710 Cu 0.85880 1.17456 0.32537
 Cu711 Cu 0.82461 1.13906 0.32483
 Cu712 Cu 0.82464 1.17516 0.36089
 N713 N 0.85882 1.19473 0.34560
 N714 N 0.84538 1.19484 0.35949
 C715 C 0.84874 1.21006 0.37167
 C716 C 0.86513 1.21990 0.36499
 C717 C 0.87122 1.20990 0.34847
 H718 H 0.84001 1.21362 0.38447
 H719 H 0.88379 1.21338 0.33938
 N720 N 0.80491 1.15399 0.35975
 N721 N 0.80490 1.14024 0.34604
 C722 C 0.78972 1.12795 0.34929
 C723 C 0.77985 1.13434 0.36575
 C724 C 0.78974 1.15079 0.37208
 H725 H 0.78610 1.11528 0.34043
 H726 H 0.78614 1.15969 0.38473
 H727 H 0.82391 1.16870 0.33120
 H728 H 0.83997 1.15298 0.34691
 N729 N 0.65453 0.35879 0.30435
 N730 N 0.64005 0.34602 0.30542
 C731 C 0.62711 0.34969 0.29087
 C732 C 0.63396 0.36555 0.28030
 C733 C 0.65135 0.37102 0.28911
 H734 H 0.61381 0.34144 0.28810
 H735 H 0.66099 0.38288 0.28473
 Cu736 Cu 0.63975 0.32570 0.32555
 Cu737 Cu 0.67668 0.35824 0.32244
 Cu738 Cu 0.67442 0.32476 0.36079
 N739 N 0.64033 0.30507 0.34535
 N740 N 0.65377 0.30497 0.35927
 C741 C 0.65065 0.28952 0.37124
 C742 C 0.63445 0.27951 0.36437
 C743 C 0.62819 0.28965 0.34798
 H744 H 0.65943 0.28589 0.38399
 H745 H 0.61568 0.28614 0.33881
 N746 N 0.69425 0.34585 0.35939
 N747 N 0.69528 0.35843 0.34462
 C748 C 0.71046 0.37076 0.34772
 C749 C 0.71930 0.36559 0.36519
 C750 C 0.70877 0.34982 0.37225
 H751 H 0.71477 0.38261 0.33804
 H752 H 0.71158 0.34181 0.38569
 H753 H 0.67506 0.32882 0.33105
 H754 H 0.66034 0.34707 0.34536
 N755 N 0.65433 0.85965 0.80541
 N756 N 0.64068 0.84596 0.80571
 C757 C 0.62831 0.84885 0.79050
 C758 C 0.63464 0.86516 0.78030
 C759 C 0.65112 0.87171 0.79005
 H760 H 0.61567 0.83986 0.78710
 H761 H 0.66005 0.88431 0.78628
 Cu762 Cu 0.64068 0.82578 0.82596
 Cu763 Cu 0.67520 0.86088 0.82497
 Cu764 Cu 0.67526 0.82478 0.86110
 N765 N 0.64069 0.80556 0.84617
 N766 N 0.65437 0.80524 0.85986
 C767 C 0.65115 0.78990 0.87193
 C768 C 0.63465 0.78017 0.86540
 C769 C 0.62831 0.79038 0.84908
 H770 H 0.66009 0.78612 0.88453
 H771 H 0.61566 0.78698 0.84009
 N772 N 0.69510 0.84587 0.85978
 N773 N 0.69506 0.85961 0.84604
 C774 C 0.71026 0.87189 0.84919
 C775 C 0.72021 0.86552 0.86562
 C776 C 0.71033 0.84907 0.87203
 H777 H 0.71383 0.88457 0.84030
 H778 H 0.71396 0.84019 0.88472
 H779 H 0.67569 0.83116 0.83144
 H780 H 0.65999 0.84704 0.84732
 N781 N 0.15412 0.35889 0.80558
 N782 N 0.14079 0.34489 0.80558
 C783 C 0.12836 0.34782 0.79043
 C784 C 0.13431 0.36448 0.78057
 C785 C 0.15064 0.37119 0.79047
 H786 H 0.11589 0.33865 0.78687
 H787 H 0.15925 0.38408 0.78698
 Cu788 Cu 0.14085 0.32442 0.82553
 Cu789 Cu 0.17489 0.36019 0.82522
 Cu790 Cu 0.17494 0.32418 0.86132
 N791 N 0.14081 0.30454 0.84607
 N792 N 0.15416 0.30455 0.86006
 C793 C 0.15070 0.28945 0.87239
 C794 C 0.13436 0.27958 0.86568
 C795 C 0.12837 0.28941 0.84901
 H796 H 0.15935 0.28597 0.88528
 H797 H 0.11589 0.28585 0.83983
 N798 N 0.19473 0.34527 0.86005
 N799 N 0.19469 0.35900 0.84630
 C800 C 0.20995 0.37122 0.84938
 C801 C 0.21993 0.36483 0.86578
 C802 C 0.21002 0.34842 0.87224
 H803 H 0.21356 0.38385 0.84043
 H804 H 0.21369 0.33949 0.88487
 H805 H 0.17568 0.33047 0.83163
 H806 H 0.15936 0.34607 0.84721
 N807 N 0.15376 0.85927 0.30627
 N808 N 0.14120 0.84460 0.30543
 C809 C 0.13023 0.84644 0.28904
 C810 C 0.13630 0.86313 0.27927
 C811 C 0.15117 0.87099 0.29054
 H812 H 0.11832 0.83678 0.28486
 H813 H 0.15909 0.88450 0.28784
 Cu814 Cu 0.13931 0.82562 0.32675
 Cu815 Cu 0.17131 0.86291 0.32856
 Cu816 Cu 0.17746 0.82148 0.35774
 N817 N 0.13966 0.80578 0.34735
 N818 N 0.15468 0.80420 0.35945
 C819 C 0.15163 0.78893 0.37168
 C820 C 0.13373 0.78068 0.36696
 C821 C 0.12648 0.79160 0.35149
 H822 H 0.16177 0.78408 0.38294
 H823 H 0.11284 0.78920 0.34369
 N824 N 0.19555 0.84410 0.35837
 N825 N 0.19297 0.86000 0.34751
 C826 C 0.20740 0.87294 0.35148
 C827 C 0.21949 0.86478 0.36552
 C828 C 0.21165 0.84656 0.36965
 H829 H 0.20901 0.88720 0.34465
 H830 H 0.21715 0.83599 0.38019
 H831 H 0.17426 0.83329 0.32939
 H832 H 0.15962 0.84402 0.34994
 O833 O 1.07094 1.01897 1.09825
 O834 O 1.09397 1.01905 1.12105
 C835 C 1.07801 1.02583 1.11410
 C836 C 1.06797 1.04235 1.12414
 C837 C 1.07569 1.05019 1.14158
 H838 H 1.08846 1.04343 1.14831
 O839 O 0.92947 0.98080 1.09858
 O840 O 0.90652 0.98088 1.12146
 C841 C 0.92245 0.97404 1.11450
 C842 C 0.93248 0.95755 1.12462
 C843 C 0.92468 0.94969 1.14203
 H844 H 0.91191 0.95647 1.14871
 O845 O 1.01950 1.09809 1.07104
 O846 O 1.01951 1.12106 1.09386
 C847 C 1.02627 1.11404 1.07795
 C848 C 1.04264 1.12414 1.06772
 C849 C 1.05070 1.14151 1.07542
 H850 H 1.04453 1.14789 1.08863
 O851 O 0.98101 0.90204 1.07159
 O852 O 0.98090 0.87900 1.09440
 C853 C 0.97419 0.88608 1.07846
 C854 C 0.95785 0.87605 1.06813
 C855 C 0.94979 0.85863 1.07574
 H856 H 0.95592 0.85217 1.08895
 O857 O 1.09747 1.07084 1.01892
 O858 O 1.12051 1.09362 1.01895
 C859 C 1.11343 1.07772 1.02573
 C860 C 1.12347 1.06755 1.04219
 C861 C 1.14088 1.07529 1.05013
 H862 H 1.14756 1.08811 1.04347
 O863 O 0.90260 0.92916 1.01944
 O864 O 0.87963 0.90632 1.01944
 C865 C 0.88668 0.92220 1.02627
 C866 C 0.87665 0.93226 1.04279
 C867 C 0.85919 0.92456 1.05068
 H868 H 0.85247 0.91179 1.04397
 O869 O 0.98115 1.07116 1.09799
 O870 O 0.98113 1.09410 1.12085
 C871 C 0.97436 1.07815 1.11390
 C872 C 0.95796 1.06804 1.12404
 C873 C 0.95009 1.07581 1.14145
 H874 H 0.95676 1.08864 1.14807
 O875 O 1.01935 0.92874 1.09867
 O876 O 1.01937 0.90578 1.12156
 C877 C 1.02615 0.92173 1.11459
 C878 C 1.04257 0.93189 1.12466
 C879 C 1.05058 0.92422 1.14209
 H880 H 1.04434 0.91107 1.14853
 O881 O 1.09780 0.98048 1.07138
 O882 O 1.12087 0.98057 1.09414
 C883 C 1.11381 0.97374 1.07827
 C884 C 1.12393 0.95736 1.06808
 C885 C 1.14137 0.94935 1.07578
 H886 H 1.14778 0.95558 1.08895
 O887 O 0.90254 1.01916 1.07151
 O888 O 0.87954 1.01918 1.09435
 C889 C 0.88655 1.02593 1.07841
 C890 C 0.87639 1.04227 1.06817
 C891 C 0.85885 1.05012 1.07577
 H892 H 0.85243 1.04382 1.08890
 O893 O 0.92899 1.09785 1.01928
 O894 O 0.90602 1.12074 1.01931
 C895 C 0.92199 1.11378 1.02608
 C896 C 0.93217 1.12390 1.04248
 C897 C 0.92440 1.14128 1.05054
 H898 H 0.91117 1.14765 1.04436
 O899 O 1.07086 0.90199 1.01970
 O900 O 1.09384 0.87911 1.01959
 C901 C 1.07793 0.88607 1.02647
 C902 C 1.06791 0.87595 1.04297
 C903 C 1.07565 0.85847 1.05082
 H904 H 1.08846 0.85178 1.04411
 O905 O 0.92946 1.01925 1.09840
 O906 O 0.90651 1.01935 1.12128
 C907 C 0.92244 1.02613 1.11427
 C908 C 0.93257 1.04262 1.12426
 C909 C 0.92487 1.05067 1.14165
 H910 H 0.91174 1.04442 1.14812
 O911 O 1.07094 0.98052 1.09838
 O912 O 1.09398 0.98059 1.12117
 C913 C 1.07801 0.97377 1.11430
 C914 C 1.06794 0.95735 1.12449
 C915 C 1.07569 0.94948 1.14194
 H916 H 1.08853 0.95615 1.14858
 O917 O 1.01940 0.90189 1.07179
 O918 O 1.01938 0.87885 1.09459
 C919 C 1.02619 0.88592 1.07870
 C920 C 1.04259 0.87585 1.06848
 C921 C 1.05056 0.85837 1.07610
 H922 H 1.04430 0.85191 1.08924
 O923 O 0.98107 1.09794 1.07095
 O924 O 0.98105 1.12092 1.09377
 C925 C 0.97425 1.11388 1.07788
 C926 C 0.95775 1.12392 1.06775
 C927 C 0.94980 1.14131 1.07552
 H928 H 0.95650 1.14799 1.08830
 O929 O 0.90227 1.07074 1.01934
 O930 O 0.87927 1.09360 1.01935
 C931 C 0.88633 1.07769 1.02616
 C932 C 0.87630 1.06757 1.04263
 C933 C 0.85876 1.07518 1.05045
 H934 H 0.85198 1.08793 1.04372
 O935 O 1.09777 0.92890 1.01947
 O936 O 1.12077 0.90604 1.01936
 C937 C 1.11377 0.92195 1.02619
 C938 C 1.12391 0.93204 1.04261
 C939 C 1.14134 0.92427 1.05052
 H940 H 1.14801 0.91145 1.04387
 O941 O 0.98093 0.92868 1.09871
 O942 O 0.98085 0.90572 1.12160
 C943 C 0.97409 0.92168 1.11462
 C944 C 0.95768 0.93190 1.12468
 C945 C 0.94960 0.92421 1.14207
 H946 H 0.95576 0.91099 1.14848
 O947 O 1.01957 1.07121 1.09802
 O948 O 1.01958 1.09414 1.12089
 C949 C 1.02636 1.07819 1.11394
 C950 C 1.04274 1.06797 1.12408
 C951 C 1.05070 1.07560 1.14154
 H952 H 1.04446 1.08877 1.14795
 O953 O 0.90268 0.98074 1.07156
 O954 O 0.87969 0.98075 1.09441
 C955 C 0.88673 0.97394 1.07851
 C956 C 0.87666 0.95754 1.06833
 C957 C 0.85920 0.94958 1.07599
 H958 H 0.85278 0.95583 1.08915
 O959 O 1.09753 1.01892 1.07107
 O960 O 1.12060 1.01901 1.09383
 C961 C 1.11349 1.02576 1.07792
 C962 C 1.12351 1.04218 1.06768
 C963 C 1.14090 1.05020 1.07540
 H964 H 1.14729 1.04397 1.08860
 O965 O 0.92959 0.90229 1.01926
 O966 O 0.90663 0.87943 1.01925
 C967 C 0.92259 0.88636 1.02603
 C968 C 0.93267 0.87619 1.04247
 C969 C 0.92488 0.85875 1.05028
 H970 H 0.91209 0.85210 1.04353
 O971 O 1.07087 1.09809 1.01892
 O972 O 1.09389 1.12089 1.01892
 C973 C 1.07793 1.11397 1.02571
 C974 C 1.06788 1.12409 1.04215
 C975 C 1.07569 1.14147 1.05005
 H976 H 1.08851 1.14813 1.04335
 Cu977 Cu 1.08199 0.99969 1.08250
 Cu978 Cu 1.10967 0.99981 1.10983
 Cu979 Cu 0.91834 0.99999 1.08273
 Cu980 Cu 0.89077 1.00004 1.11017
 Cu981 Cu 1.00034 1.08230 1.08222
 Cu982 Cu 1.00031 1.10986 1.10963
 Cu983 Cu 1.00017 0.91764 1.08292
 Cu984 Cu 1.00012 0.89003 1.11033
 C985 C 1.05139 1.05124 1.11560
 H986 H 1.04559 1.04551 1.10194
 C987 C 1.06725 1.06687 1.15032
 C988 C 0.94910 0.94866 1.11616
 H989 H 0.95498 0.95444 1.10255
 C990 C 0.93303 0.93295 1.15078
 C991 C 1.05122 1.11566 1.05097
 H992 H 1.04531 1.10208 1.04515
 C993 C 1.06728 1.15022 1.06674
 C994 C 0.94929 0.88461 1.05137
 H995 H 0.95518 0.89824 1.04563
 C996 C 0.93325 0.84994 1.06698
 C997 C 1.11501 1.05085 1.05094
 H998 H 1.10142 1.04497 1.04510
 C999 C 1.14963 1.06679 1.06678
 C1000 C 0.88516 0.94887 1.05161
 H1001 H 0.89879 0.95470 1.04581
 C1002 C 0.85041 0.93305 1.06732
 C1003 C 0.94921 1.05133 1.11566
 H1004 H 0.95500 1.04547 1.10205
 C1005 C 0.93347 1.06733 1.15027
 C1006 C 1.05127 0.94856 1.11608
 H1007 H 1.04543 0.95431 1.10243
 C1008 C 1.06721 0.93285 1.15077
 C1009 C 1.11544 0.94871 1.05137
 H1010 H 1.10184 0.95460 1.04554
 C1011 C 1.15014 0.93276 1.06715
 C1012 C 0.88490 1.05100 1.05149
 H1013 H 0.89861 1.04527 1.04577
 C1014 C 0.84999 1.06662 1.06707
 C1015 C 0.94897 1.11546 1.05110
 H1016 H 0.95486 1.10190 1.04521
 C1017 C 0.93307 1.15002 1.06711
 C1018 C 1.05126 0.88441 1.05180
 H1019 H 1.04540 0.89805 1.04604
 C1020 C 1.06712 0.84961 1.06742
 O1021 O 1.07070 0.98105 0.90159
 O1022 O 1.09374 0.98098 0.87880
 C1023 C 1.07777 0.97423 0.88572
 C1024 C 1.06772 0.95778 0.87564
 C1025 C 1.07546 0.94993 0.85821
 H1026 H 1.08823 0.95667 0.85150
 O1027 O 0.92930 1.01935 0.90166
 O1028 O 0.90634 1.01937 0.87879
 C1029 C 0.92230 1.02614 0.88573
 C1030 C 0.93247 1.04252 0.87560
 C1031 C 0.92477 1.05049 0.85817
 H1032 H 0.91160 1.04424 0.85177
 O1033 O 0.98077 1.09789 0.92869
 O1034 O 0.98060 1.12093 0.90589
 C1035 C 0.97386 1.11381 0.92179
 C1036 C 0.95739 1.12379 0.93200
 C1037 C 0.94939 1.14126 0.92441
 H1038 H 0.95563 1.14774 0.91127
 O1039 O 1.01929 0.90219 0.92890
 O1040 O 1.01934 0.87920 0.90610
 C1041 C 1.02606 0.88620 0.92204
 C1042 C 1.04235 0.87604 0.93235
 C1043 C 1.05043 0.85869 0.92461
 H1044 H 1.04433 0.85238 0.91134
 O1045 O 1.09735 0.92902 0.98100
 O1046 O 1.12035 0.90616 0.98090
 C1047 C 1.11326 0.92207 0.97411
 C1048 C 1.12325 0.93217 0.95759
 C1049 C 1.14068 0.92443 0.94967
 H1050 H 1.14738 0.91160 0.95634
 O1051 O 0.90210 1.07084 0.98087
 O1052 O 0.87911 1.09370 0.98088
 C1053 C 0.88615 1.07780 0.97406
 C1054 C 0.87611 1.06773 0.95754
 C1055 C 0.85865 1.07544 0.94962
 H1056 H 0.85188 1.08820 0.95633
 O1057 O 1.01943 1.07143 0.90168
 O1058 O 1.01933 1.09443 0.87882
 C1059 C 1.02620 1.07850 0.88577
 C1060 C 1.04266 1.06841 0.87567
 C1061 C 1.05068 1.07619 0.85830
 H1062 H 1.04444 1.08940 0.85194
 O1063 O 0.98100 0.92912 0.90182
 O1064 O 0.98101 0.90618 0.87897
 C1065 C 0.97423 0.92213 0.88591
 C1066 C 0.95782 0.93228 0.87578
 C1067 C 0.94996 0.92456 0.85836
 H1068 H 0.95666 0.91175 0.85169
 O1069 O 1.09754 1.01935 0.92865
 O1070 O 1.12063 1.01923 0.90590
 C1071 C 1.11355 1.02606 0.92176
 C1072 C 1.12363 1.04246 0.93189
 C1073 C 1.14111 1.05030 0.92421
 H1074 H 1.14781 1.04362 0.91141
 O1075 O 0.90252 0.98100 0.92875
 O1076 O 0.87951 0.98095 0.90593
 C1077 C 0.88656 0.97421 0.92187
 C1078 C 0.87649 0.95785 0.93214
 C1079 C 0.85904 0.94988 0.92451
 H1080 H 0.85262 0.95608 0.91132
 O1081 O 1.07078 1.09807 0.98051
 O1082 O 1.09380 1.12086 0.98052
 C1083 C 1.07782 1.11397 0.97374
 C1084 C 1.06771 1.12415 0.95734
 C1085 C 1.07543 1.14160 0.94946
 H1086 H 1.08827 1.14824 0.95612
 O1087 O 0.92932 0.90228 0.98080
 O1088 O 0.90635 0.87944 0.98082
 C1089 C 0.92227 0.88640 0.97398
 C1090 C 0.93230 0.87633 0.95747
 C1091 C 0.92450 0.85896 0.94952
 H1092 H 0.91165 0.85231 0.95616
 O1093 O 0.92921 0.98093 0.90165
 O1094 O 0.90625 0.98090 0.87877
 C1095 C 0.92220 0.97411 0.88575
 C1096 C 0.93236 0.95767 0.87568
 C1097 C 0.92466 0.94967 0.85827
 H1098 H 0.91150 0.95593 0.85183
 O1099 O 1.07086 1.01949 0.90154
 O1100 O 1.09392 1.01944 0.87876
 C1101 C 1.07798 1.02631 0.88568
 C1102 C 1.06799 1.04287 0.87561
 C1103 C 1.07578 1.05087 0.85824
 H1104 H 1.08860 1.04420 0.85155
 O1105 O 0.98089 0.90224 0.92872
 O1106 O 0.98089 0.87924 0.90592
 C1107 C 0.97408 0.88630 0.92180
 C1108 C 0.95765 0.87627 0.93198
 C1109 C 0.94962 0.85890 0.92427
 H1110 H 0.95586 0.85250 0.91110
 O1111 O 1.01922 1.09820 0.92865
 O1112 O 1.01909 1.12125 0.90585
 C1113 C 1.02592 1.11420 0.92175
 C1114 C 1.04230 1.12429 0.93193
 C1115 C 1.05025 1.14174 0.92426
 H1116 H 1.04396 1.14818 0.91112
 O1117 O 0.90258 0.92941 0.98096
 O1118 O 0.87961 0.90657 0.98100
 C1119 C 0.88662 0.92249 0.97420
 C1120 C 0.87652 0.93261 0.95775
 C1121 C 0.85906 0.92490 0.94991
 H1122 H 0.85235 0.91212 0.95664
 O1123 O 1.09767 1.07112 0.98047
 O1124 O 1.12072 1.09388 0.98051
 C1125 C 1.11365 1.07802 0.97369
 C1126 C 1.12371 1.06786 0.95727
 C1127 C 1.14118 1.07550 0.94934
 H1128 H 1.14764 1.08861 0.95563
 O1129 O 1.01940 0.92893 0.90177
 O1130 O 1.01945 0.90599 0.87891
 C1131 C 1.02620 0.92194 0.88585
 C1132 C 1.04254 0.93216 0.87570
 C1133 C 1.05053 0.92451 0.85827
 H1134 H 1.04434 0.91132 0.85188
 O1135 O 0.98103 1.07112 0.90170
 O1136 O 0.98089 1.09410 0.87884
 C1137 C 0.97422 1.07810 0.88577
 C1138 C 0.95789 1.06790 0.87564
 C1139 C 0.95001 1.07560 0.85818
 H1140 H 0.95667 1.08842 0.85149
 O1141 O 0.90240 1.01941 0.92859
 O1142 O 0.87939 1.01940 0.90578
 C1143 C 0.88641 1.02618 0.92169
 C1144 C 0.87626 1.04253 0.93192
 C1145 C 0.85880 1.05050 0.92423
 H1146 H 0.85245 1.04431 0.91102
 O1147 O 1.09735 0.98091 0.92874
 O1148 O 1.12043 0.98079 0.90599
 C1149 C 1.11331 0.97403 0.92188
 C1150 C 1.12331 0.95756 0.93210
 C1151 C 1.14075 0.94956 0.92444
 H1152 H 1.14720 0.95584 0.91131
 O1153 O 1.07063 0.90193 0.98126
 O1154 O 1.09361 0.87906 0.98117
 C1155 C 1.07762 0.88602 0.97445
 C1156 C 1.06751 0.87594 0.95802
 C1157 C 1.07532 0.85855 0.95009
 H1158 H 1.08811 0.85183 0.95680
 O1159 O 0.92906 1.09767 0.98082
 O1160 O 0.90610 1.12056 0.98085
 C1161 C 0.92203 1.11358 0.97402
 C1162 C 0.93208 1.12367 0.95754
 C1163 C 0.92434 1.14116 0.94972
 H1164 H 0.91156 1.14785 0.95646
 Cu1165 Cu 1.08180 1.00021 0.91740
 Cu1166 Cu 1.10949 1.00009 0.89008
 Cu1167 Cu 0.91817 1.00018 0.91744
 Cu1168 Cu 0.89057 1.00016 0.89003
 Cu1169 Cu 1.08189 1.08225 0.99969
 Cu1170 Cu 1.10955 1.10959 0.99973
 Cu1171 Cu 1.08185 0.91775 1.00038
 Cu1172 Cu 1.10945 0.89031 1.00024
 Cu1173 Cu 0.91790 1.08199 1.00009
 Cu1174 Cu 0.89032 1.10943 1.00010
 Cu1175 Cu 0.91832 0.91807 1.00011
 Cu1176 Cu 0.89076 0.89066 1.00013
 Cu1177 Cu 1.00014 1.08237 0.91747
 Cu1178 Cu 0.99995 1.10999 0.89006
 Cu1179 Cu 1.00016 0.91792 0.91758
 Cu1180 Cu 1.00018 0.89034 0.89018
 C1181 C 1.05114 0.94891 0.88416
 H1182 H 1.04530 0.95468 0.89780
 C1183 C 1.06706 0.93323 0.84948
 C1184 C 0.94914 1.05123 0.88412
 H1185 H 0.95493 1.04543 0.89778
 C1186 C 0.93338 1.06709 0.84942
 C1187 C 0.94871 1.11520 0.94868
 H1188 H 0.95456 1.10154 0.95441
 C1189 C 0.93283 1.15000 0.93311
 C1190 C 1.05088 0.88444 0.94917
 H1191 H 1.04498 0.89803 0.95499
 C1192 C 1.06699 0.84992 0.93331
 C1193 C 1.11477 0.94886 0.94880
 H1194 H 1.10116 0.95474 0.95461
 C1195 C 1.14949 0.93296 0.93307
 C1196 C 0.88469 1.05115 0.94869
 H1197 H 0.89832 1.04530 0.95451
 C1198 C 0.84994 1.06699 0.93292
 C1199 C 1.05131 1.05164 0.88409
 H1200 H 1.04541 1.04575 0.89765
 C1201 C 1.06727 1.06756 0.84952
 C1202 C 0.94903 0.94894 0.88423
 H1203 H 0.95480 0.95475 0.89787
 C1204 C 0.93329 0.93303 0.84959
 C1205 C 1.11515 1.05122 0.94855
 H1206 H 1.10150 1.04545 0.95436
 C1207 C 1.14995 1.06686 0.93277
 C1208 C 0.88501 0.94922 0.94888
 H1209 H 0.89866 0.95505 0.95464
 C1210 C 0.85028 0.93334 0.93323
 C1211 C 1.05102 1.11572 0.94858
 H1212 H 1.04520 1.10208 0.95436
 C1213 C 1.06687 1.15044 0.93286
 C1214 C 0.94901 0.88475 0.94871
 H1215 H 0.95493 0.89831 0.95456
 C1216 C 0.93302 0.85017 0.93289
 O1217 O 0.98079 0.42892 0.40148
 O1218 O 0.98087 0.40604 0.37856
 C1219 C 0.97402 0.42194 0.38555
 C1220 C 0.95755 0.43206 0.37549
 C1221 C 0.94947 0.42430 0.35816
 H1222 H 0.95570 0.41111 0.35179
 O1223 O 1.01966 0.57084 0.40140
 O1224 O 1.01953 0.59379 0.37850
 C1225 C 1.02639 0.57788 0.38547
 C1226 C 1.04287 0.56784 0.37538
 C1227 C 1.05076 0.57560 0.35796
 H1228 H 1.04401 0.58838 0.35126
 O1229 O 0.90230 0.48044 0.42862
 O1230 O 0.87930 0.48056 0.40579
 C1231 C 0.88635 0.47367 0.42165
 C1232 C 0.87630 0.45718 0.43172
 C1233 C 0.85890 0.44925 0.42396
 H1234 H 0.85223 0.45592 0.41113
 O1235 O 1.09808 0.51924 0.42874
 O1236 O 1.12113 0.51918 0.40597
 C1237 C 1.11407 0.52597 0.42187
 C1238 C 1.12415 0.54233 0.43210
 C1239 C 1.14153 0.55041 0.42439
 H1240 H 1.14793 0.54426 0.41118
 O1241 O 0.92936 0.40186 0.48047
 O1242 O 0.90644 0.37896 0.48051
 C1243 C 0.92237 0.38595 0.47369
 C1244 C 0.93247 0.37588 0.45723
 C1245 C 0.92484 0.35839 0.44942
 H1246 H 0.91208 0.35165 0.45614
 O1247 O 1.07107 0.59771 0.48048
 O1248 O 1.09403 0.62056 0.48056
 C1249 C 1.07814 0.61359 0.47366
 C1250 C 1.06817 0.62363 0.45707
 C1251 C 1.07598 0.64100 0.44907
 H1252 H 1.08880 0.64766 0.45574
 O1253 O 0.92908 0.51905 0.40185
 O1254 O 0.90611 0.51919 0.37898
 C1255 C 0.92208 0.52592 0.38596
 C1256 C 0.93226 0.54231 0.37585
 C1257 C 0.92452 0.55031 0.35844
 H1258 H 0.91130 0.54413 0.35210
 O1259 O 1.07106 0.48099 0.40182
 O1260 O 1.09406 0.48088 0.37900
 C1261 C 1.07807 0.47417 0.38594
 C1262 C 1.06793 0.45777 0.37584
 C1263 C 1.07570 0.44989 0.35845
 H1264 H 1.08855 0.45654 0.35180
 O1265 O 1.01920 0.40212 0.42849
 O1266 O 1.01935 0.37918 0.40563
 C1267 C 1.02604 0.38618 0.42159
 C1268 C 1.04235 0.37606 0.43191
 C1269 C 1.05025 0.35852 0.42439
 H1270 H 1.04402 0.35207 0.41125
 O1271 O 0.98120 0.59753 0.42848
 O1272 O 0.98109 0.62051 0.40562
 C1273 C 0.97434 0.61345 0.42154
 C1274 C 0.95787 0.62347 0.43167
 C1275 C 0.94990 0.64088 0.42393
 H1276 H 0.95653 0.64757 0.41110
 O1277 O 0.90248 0.57065 0.48068
 O1278 O 0.87947 0.59350 0.48069
 C1279 C 0.88647 0.57757 0.47394
 C1280 C 0.87630 0.56738 0.45762
 C1281 C 0.85881 0.57509 0.44979
 H1282 H 0.85217 0.58794 0.45643
 O1283 O 1.09776 0.42881 0.48061
 O1284 O 1.12069 0.40589 0.48062
 C1285 C 1.11369 0.42180 0.47379
 C1286 C 1.12377 0.43188 0.45728
 C1287 C 1.14106 0.42395 0.44915
 H1288 H 1.14736 0.41070 0.45535
 O1289 O 0.98122 0.57065 0.40161
 O1290 O 0.98107 0.59359 0.37871
 C1291 C 0.97434 0.57765 0.38572
 C1292 C 0.95784 0.56755 0.37571
 C1293 C 0.94991 0.57527 0.35828
 H1294 H 0.95661 0.58803 0.35151
 O1295 O 1.01923 0.42908 0.40164
 O1296 O 1.01937 0.40621 0.37871
 C1297 C 1.02610 0.42214 0.38574
 C1298 C 1.04254 0.43234 0.37572
 C1299 C 1.05059 0.42466 0.35833
 H1300 H 1.04436 0.41151 0.35189
 O1301 O 1.09797 0.48080 0.42870
 O1302 O 1.12102 0.48070 0.40591
 C1303 C 1.11391 0.47392 0.42179
 C1304 C 1.12386 0.45736 0.43191
 C1305 C 1.14115 0.44925 0.42407
 H1306 H 1.14783 0.45586 0.41122
 O1307 O 0.90223 0.51885 0.42883
 O1308 O 0.87922 0.51899 0.40601
 C1309 C 0.88626 0.52567 0.42196
 C1310 C 0.87615 0.54199 0.43223
 C1311 C 0.85867 0.54994 0.42461
 H1312 H 0.85220 0.54368 0.41149
 O1313 O 0.92941 0.59753 0.48045
 O1314 O 0.90643 0.62041 0.48039
 C1315 C 0.92237 0.61342 0.47358
 C1316 C 0.93246 0.62348 0.45709
 C1317 C 0.92468 0.64087 0.44908
 H1318 H 0.91152 0.64727 0.45536
 O1319 O 1.07066 0.40208 0.48073
 O1320 O 1.09358 0.37915 0.48076
 C1321 C 1.07764 0.38614 0.47396
 C1322 C 1.06754 0.37604 0.45754
 C1323 C 1.07519 0.35850 0.44982
 H1324 H 1.08790 0.35174 0.45663
 O1325 O 1.07151 0.51939 0.40148
 O1326 O 1.09452 0.51931 0.37866
 C1327 C 1.07857 0.52615 0.38556
 C1328 C 1.06844 0.54257 0.37541
 C1329 C 1.07615 0.55058 0.35798
 H1330 H 1.08933 0.54434 0.35159
 O1331 O 0.92909 0.48064 0.40163
 O1332 O 0.90612 0.48076 0.37876
 C1333 C 0.92207 0.47393 0.38570
 C1334 C 0.93216 0.45751 0.37556
 C1335 C 0.92434 0.44957 0.35820
 H1336 H 0.91149 0.45624 0.35155
 O1337 O 1.01966 0.59763 0.42837
 O1338 O 1.01956 0.62061 0.40551
 C1339 C 1.02641 0.61358 0.42140
 C1340 C 1.04285 0.62366 0.43154
 C1341 C 1.05088 0.64104 0.42378
 H1342 H 1.04463 0.64743 0.41061
 O1343 O 0.98082 0.40206 0.42841
 O1344 O 0.98091 0.37911 0.40555
 C1345 C 0.97409 0.38610 0.42147
 C1346 C 0.95775 0.37594 0.43168
 C1347 C 0.94989 0.35844 0.42408
 H1348 H 0.95616 0.35202 0.41094
 O1349 O 1.09792 0.57071 0.48075
 O1350 O 1.12089 0.59356 0.48087
 C1351 C 1.11391 0.57765 0.47405
 C1352 C 1.12405 0.56757 0.45764
 C1353 C 1.14144 0.57539 0.44974
 H1354 H 1.14808 0.58821 0.45642
 O1355 O 0.90226 0.42860 0.48043
 O1356 O 0.87931 0.40573 0.48047
 C1357 C 0.88632 0.42163 0.47363
 C1358 C 0.87624 0.43174 0.45714
 C1359 C 0.85883 0.42402 0.44912
 H1360 H 0.85241 0.41088 0.45540
 Cu1361 Cu 1.00000 0.41784 0.41728
 Cu1362 Cu 1.00015 0.39035 0.38980
 Cu1363 Cu 1.00046 0.58186 0.41725
 Cu1364 Cu 1.00029 0.60943 0.38979
 Cu1365 Cu 0.91798 0.49974 0.41752
 Cu1366 Cu 0.89038 0.49990 0.39009
 Cu1367 Cu 1.08235 0.50014 0.41746
 Cu1368 Cu 1.11000 0.50000 0.39011
 C1369 C 0.94889 0.44879 0.38396
 H1370 H 0.95482 0.45465 0.39751
 C1371 C 0.93284 0.43292 0.34944
 C1372 C 1.05171 0.55122 0.38388
 H1373 H 1.04591 0.54538 0.39750
 C1374 C 1.06746 0.56717 0.34922
 C1375 C 0.88474 0.44843 0.44843
 H1376 H 0.89833 0.45428 0.45432
 C1377 C 0.85009 0.43264 0.43249
 C1378 C 1.11565 0.55090 0.44885
 H1379 H 1.10207 0.54497 0.45468
 C1380 C 1.15022 0.56699 0.43307
 C1381 C 0.94903 0.38445 0.44836
 H1382 H 0.95477 0.39814 0.45407
 C1383 C 0.93336 0.34962 0.43278
 C1384 C 1.05148 0.61520 0.44831
 H1385 H 1.04555 0.60165 0.45420
 C1386 C 1.06747 0.64979 0.43241
 C1387 C 0.94904 0.55094 0.38427
 H1388 H 0.95488 0.54508 0.39788
 C1389 C 0.93321 0.56682 0.34961
 C1390 C 1.05122 0.44902 0.38426
 H1391 H 1.04534 0.45481 0.39787
 C1392 C 1.06722 0.43327 0.34966
 C1393 C 1.05101 0.38461 0.44858
 H1394 H 1.04525 0.39834 0.45423
 C1395 C 1.06674 0.34971 0.43317
 C1396 C 0.94916 0.61499 0.44837
 H1397 H 0.95504 0.60139 0.45423
 C1398 C 0.93325 0.64962 0.43245
 C1399 C 0.88474 0.55069 0.44887
 H1400 H 0.89840 0.54486 0.45462
 C1401 C 0.84995 0.56655 0.43323
 C1402 C 1.11540 0.44871 0.44866
 H1403 H 1.10193 0.45472 0.45463
 C1404 C 1.14981 0.43250 0.43251
 O1405 O 1.01912 0.42846 0.59822
 O1406 O 1.01920 0.40547 0.62108
 C1407 C 1.02593 0.42145 0.61414
 C1408 C 1.04229 0.43164 0.62426
 C1409 C 1.05021 0.42399 0.64174
 H1410 H 1.04393 0.41084 0.64816
 O1411 O 0.98075 0.57099 0.59802
 O1412 O 0.98069 0.59394 0.62087
 C1413 C 0.97392 0.57799 0.61392
 C1414 C 0.95755 0.56779 0.62404
 C1415 C 0.94953 0.57551 0.64142
 H1416 H 0.95568 0.58876 0.64775
 O1417 O 0.90282 0.51882 0.57116
 O1418 O 0.87973 0.51885 0.59390
 C1419 C 0.88685 0.52564 0.57803
 C1420 C 0.87683 0.54211 0.56787
 C1421 C 0.85939 0.55004 0.57558
 H1422 H 0.85270 0.54339 0.58840
 O1423 O 1.09753 0.48047 0.57129
 O1424 O 1.12054 0.48039 0.59412
 C1425 C 1.11349 0.47365 0.57821
 C1426 C 1.12358 0.45727 0.56797
 C1427 C 1.14103 0.44924 0.57564
 H1428 H 1.14743 0.45542 0.58883
 O1429 O 1.07089 0.40190 0.51918
 O1430 O 1.09384 0.37899 0.51917
 C1431 C 1.07792 0.38597 0.52599
 C1432 C 1.06786 0.37585 0.54247
 C1433 C 1.07566 0.35842 0.55039
 H1434 H 1.08850 0.35176 0.54373
 O1435 O 0.92943 0.59779 0.51890
 O1436 O 0.90646 0.62068 0.51883
 C1437 C 0.92242 0.61374 0.52562
 C1438 C 0.93252 0.62390 0.54201
 C1439 C 0.92477 0.64137 0.54982
 H1440 H 0.91196 0.64804 0.54311
 O1441 O 0.92937 0.48029 0.59834
 O1442 O 0.90630 0.48032 0.62111
 C1443 C 0.92225 0.47348 0.61421
 C1444 C 0.93224 0.45696 0.62431
 C1445 C 0.92448 0.44909 0.64174
 H1446 H 0.91170 0.45583 0.64843
 O1447 O 1.07066 0.51886 0.59829
 O1448 O 1.09363 0.51883 0.62114
 C1449 C 1.07768 0.52564 0.61418
 C1450 C 1.06760 0.54212 0.62425
 C1451 C 1.07540 0.55007 0.64161
 H1452 H 1.08823 0.54340 0.64829
 O1453 O 0.98079 0.40167 0.57116
 O1454 O 0.98081 0.37861 0.59395
 C1455 C 0.97402 0.38569 0.57804
 C1456 C 0.95764 0.37564 0.56780
 C1457 C 0.94955 0.35828 0.57554
 H1458 H 0.95570 0.35190 0.58877
 O1459 O 1.01927 0.59771 0.57110
 O1460 O 1.01927 0.62071 0.59391
 C1461 C 1.02606 0.61366 0.57801
 C1462 C 1.04245 0.62373 0.56778
 C1463 C 1.05046 0.64113 0.57546
 H1464 H 1.04428 0.64751 0.58867
 O1465 O 0.90255 0.42885 0.51890
 O1466 O 0.87959 0.40600 0.51895
 C1467 C 0.88663 0.42191 0.52573
 C1468 C 0.87659 0.43203 0.54220
 C1469 C 0.85914 0.42433 0.55010
 H1470 H 0.85242 0.41155 0.54341
 O1471 O 1.09764 0.57070 0.51918
 O1472 O 1.12061 0.59354 0.51928
 C1473 C 1.11355 0.57763 0.52606
 C1474 C 1.12356 0.56749 0.54256
 C1475 C 1.14097 0.57520 0.55053
 H1476 H 1.14766 0.58803 0.54389
 O1477 O 1.01916 0.57092 0.59813
 O1478 O 1.01916 0.59386 0.62099
 C1479 C 1.02594 0.57790 0.61406
 C1480 C 1.04231 0.56769 0.62420
 C1481 C 1.05035 0.57543 0.64156
 H1482 H 1.04415 0.58864 0.64791
 O1483 O 0.98071 0.42828 0.59832
 O1484 O 0.98073 0.40528 0.62117
 C1485 C 0.97392 0.42123 0.61423
 C1486 C 0.95751 0.43139 0.62434
 C1487 C 0.94953 0.42371 0.64177
 H1488 H 0.95577 0.41054 0.64819
 O1489 O 1.09749 0.51891 0.57130
 O1490 O 1.12050 0.51886 0.59412
 C1491 C 1.11345 0.52568 0.57822
 C1492 C 1.12354 0.54210 0.56805
 C1493 C 1.14094 0.55009 0.57579
 H1494 H 1.14732 0.54383 0.58898
 O1495 O 0.90273 0.48040 0.57116
 O1496 O 0.87963 0.48042 0.59389
 C1497 C 0.88672 0.47364 0.57800
 C1498 C 0.87663 0.45730 0.56774
 C1499 C 0.85917 0.44935 0.57541
 H1500 H 0.85277 0.45558 0.58858
 O1501 O 1.07082 0.59774 0.51896
 O1502 O 1.09377 0.62061 0.51903
 C1503 C 1.07780 0.61365 0.52576
 C1504 C 1.06769 0.62374 0.54220
 C1505 C 1.07543 0.64117 0.55007
 H1506 H 1.08821 0.64788 0.54335
 O1507 O 0.92928 0.40172 0.51891
 O1508 O 0.90634 0.37884 0.51895
 C1509 C 0.92228 0.38581 0.52573
 C1510 C 0.93237 0.37571 0.54222
 C1511 C 0.92455 0.35834 0.55017
 H1512 H 0.91172 0.35169 0.54350
 O1513 O 1.07069 0.48042 0.59827
 O1514 O 1.09365 0.48037 0.62114
 C1515 C 1.07771 0.47360 0.61418
 C1516 C 1.06761 0.45714 0.62427
 C1517 C 1.07529 0.44926 0.64175
 H1518 H 1.08808 0.45594 0.64847
 O1519 O 0.92949 0.51876 0.59829
 O1520 O 0.90642 0.51880 0.62106
 C1521 C 0.92239 0.52560 0.61414
 C1522 C 0.93239 0.54213 0.62418
 C1523 C 0.92462 0.55006 0.64158
 H1524 H 0.91186 0.54334 0.64832
 O1525 O 0.98087 0.59784 0.57102
 O1526 O 0.98083 0.62085 0.59381
 C1527 C 0.97410 0.61383 0.57788
 C1528 C 0.95779 0.62396 0.56757
 C1529 C 0.94981 0.64143 0.57516
 H1530 H 0.95603 0.64786 0.58832
 O1531 O 1.01922 0.40169 0.57126
 O1532 O 1.01929 0.37863 0.59405
 C1533 C 1.02607 0.38574 0.57816
 C1534 C 1.04252 0.37573 0.56796
 C1535 C 1.05056 0.35833 0.57565
 H1536 H 1.04434 0.35191 0.58883
 O1537 O 1.09759 0.42900 0.51910
 O1538 O 1.12055 0.40611 0.51909
 C1539 C 1.11353 0.42202 0.52590
 C1540 C 1.12359 0.43207 0.54238
 C1541 C 1.14104 0.42430 0.55025
 H1542 H 1.14775 0.41153 0.54352
 O1543 O 0.90273 0.57069 0.51911
 O1544 O 0.87973 0.59355 0.51911
 C1545 C 0.88680 0.57765 0.52594
 C1546 C 0.87678 0.56752 0.54243
 C1547 C 0.85934 0.57524 0.55040
 H1548 H 0.85290 0.58837 0.54409
 Cu1549 Cu 0.99995 0.41733 0.58247
 Cu1550 Cu 1.00001 0.38968 0.60984
 Cu1551 Cu 1.00001 0.58207 0.58229
 Cu1552 Cu 0.99998 0.60964 0.60969
 Cu1553 Cu 0.91815 0.41755 0.49967
 Cu1554 Cu 0.89062 0.39009 0.49973
 Cu1555 Cu 1.08193 0.41775 0.49990
 Cu1556 Cu 1.10946 0.39025 0.49991
 Cu1557 Cu 0.91832 0.58188 0.49978
 Cu1558 Cu 0.89072 0.60933 0.49975
 Cu1559 Cu 1.08205 0.58194 0.49983
 Cu1560 Cu 1.10962 0.60936 0.49995
 Cu1561 Cu 0.91843 0.49955 0.58248
 Cu1562 Cu 0.89071 0.49960 0.60977
 Cu1563 Cu 1.08179 0.49966 0.58251
 Cu1564 Cu 1.10938 0.49961 0.60992
 C1565 C 1.05100 0.44833 0.61575
 H1566 H 1.04521 0.45409 0.60208
 C1567 C 1.06676 0.43263 0.65052
 C1568 C 0.94899 0.55098 0.61565
 H1569 H 0.95487 0.54515 0.60206
 C1570 C 0.93304 0.56679 0.65026
 C1571 C 0.88531 0.55084 0.55118
 H1572 H 0.89892 0.54500 0.54534
 C1573 C 0.85059 0.56665 0.56701
 C1574 C 1.11509 0.44868 0.55123
 H1575 H 1.10146 0.45455 0.54544
 C1576 C 1.14980 0.43271 0.56692
 C1577 C 1.05117 0.38427 0.55125
 H1578 H 1.04525 0.39787 0.54544
 C1579 C 1.06716 0.34960 0.56701
 C1580 C 0.94915 0.61542 0.55088
 H1581 H 0.95499 0.60177 0.54515
 C1582 C 0.93324 0.65018 0.56646
 C1583 C 0.94887 0.44812 0.61584
 H1584 H 0.95472 0.45391 0.60221
 C1585 C 0.93297 0.43242 0.65054
 C1586 C 1.05094 0.55092 0.61577
 H1587 H 1.04506 0.54509 0.60218
 C1588 C 1.06696 0.56679 0.65030
 C1589 C 0.94905 0.38413 0.55101
 H1590 H 0.95498 0.39769 0.54516
 C1591 C 0.93296 0.34960 0.56688
 C1592 C 1.05107 0.61525 0.55103
 H1593 H 1.04521 0.60164 0.54525
 C1594 C 1.06699 0.64989 0.56676
 C1595 C 0.88511 0.44864 0.55101
 H1596 H 0.89874 0.45448 0.54521
 C1597 C 0.85038 0.43281 0.56675
 C1598 C 1.11507 0.55081 0.55131
 H1599 H 1.10148 0.54496 0.54545
 C1600 C 1.14970 0.56669 0.56720
 O1601 O 0.48040 0.92870 0.40132
 O1602 O 0.48049 0.90575 0.37847
 C1603 C 0.47367 0.92170 0.38539
 C1604 C 0.45732 0.93189 0.37521
 C1605 C 0.44934 0.92422 0.35780
 H1606 H 0.45556 0.91101 0.35144
 O1607 O 0.51934 1.07161 0.40181
 O1608 O 0.51925 1.09449 0.37885
 C1609 C 0.52610 1.07858 0.38586
 C1610 C 0.54249 1.06839 0.37576
 C1611 C 0.55054 1.07612 0.35837
 H1612 H 0.54438 1.08937 0.35202
 O1613 O 0.40233 0.98054 0.42828
 O1614 O 0.37933 0.98072 0.40545
 C1615 C 0.38636 0.97382 0.42132
 C1616 C 0.37627 0.95737 0.43146
 C1617 C 0.35887 0.94934 0.42372
 H1618 H 0.35249 0.95557 0.41052
 O1619 O 0.59710 1.01917 0.42888
 O1620 O 0.62014 1.01920 0.40608
 C1621 C 0.61307 1.02596 0.42198
 C1622 C 0.62313 1.04237 0.43214
 C1623 C 0.64060 1.05022 0.42446
 H1624 H 0.64730 1.04354 0.41166
 O1625 O 0.42905 0.90206 0.48056
 O1626 O 0.40611 0.87919 0.48067
 C1627 C 0.42204 0.88612 0.47384
 C1628 C 0.43209 0.87598 0.45739
 C1629 C 0.42430 0.85857 0.44952
 H1630 H 0.41149 0.85191 0.45623
 O1631 O 0.57062 1.09860 0.48053
 O1632 O 0.59366 1.12137 0.48056
 C1633 C 0.57771 1.11449 0.47374
 C1634 C 0.56765 1.12465 0.45727
 C1635 C 0.57543 1.14204 0.44931
 H1636 H 0.58829 1.14868 0.45594
 O1637 O 0.42935 1.01906 0.40158
 O1638 O 0.40637 1.01929 0.37872
 C1639 C 0.42234 1.02599 0.38572
 C1640 C 0.43248 1.04248 0.37571
 C1641 C 0.42473 1.05048 0.35832
 H1642 H 0.41161 1.04418 0.35188
 O1643 O 0.57032 0.98086 0.40175
 O1644 O 0.59333 0.98088 0.37893
 C1645 C 0.57736 0.97410 0.38584
 C1646 C 0.56728 0.95769 0.37570
 C1647 C 0.57505 0.94987 0.35827
 H1648 H 0.58785 0.95660 0.35160
 O1649 O 0.51880 0.90206 0.42850
 O1650 O 0.51896 0.87903 0.40572
 C1651 C 0.52566 0.88611 0.42164
 C1652 C 0.54205 0.87609 0.43195
 C1653 C 0.55010 0.85865 0.42437
 H1654 H 0.54393 0.85218 0.41120
 O1655 O 0.48082 1.09828 0.42877
 O1656 O 0.48065 1.12119 0.40583
 C1657 C 0.47393 1.11418 0.42179
 C1658 C 0.45748 1.12421 0.43193
 C1659 C 0.44944 1.14157 0.42415
 H1660 H 0.45605 1.14824 0.41129
 O1661 O 0.40254 1.07083 0.48058
 O1662 O 0.37950 1.09365 0.48049
 C1663 C 0.38659 1.07774 0.47374
 C1664 C 0.37653 1.06758 0.45733
 C1665 C 0.35896 1.07519 0.44959
 H1666 H 0.35221 1.08793 0.45633
 O1667 O 0.59746 0.92912 0.48059
 O1668 O 0.62042 0.90622 0.48065
 C1669 C 0.61340 0.92213 0.47381
 C1670 C 0.62348 0.93221 0.45733
 C1671 C 0.64092 0.92446 0.44941
 H1672 H 0.64763 0.91165 0.45609
 O1673 O 0.48093 1.07136 0.40190
 O1674 O 0.48080 1.09423 0.37893
 C1675 C 0.47410 1.07827 0.38595
 C1676 C 0.45775 1.06803 0.37585
 C1677 C 0.44980 1.07575 0.35843
 H1678 H 0.45637 1.08864 0.35177
 O1679 O 0.51877 0.92889 0.40154
 O1680 O 0.51895 0.90594 0.37869
 C1681 C 0.52564 0.92191 0.38565
 C1682 C 0.54202 0.93215 0.37559
 C1683 C 0.55005 0.92452 0.35818
 H1684 H 0.54387 0.91134 0.35175
 O1685 O 0.59736 0.98074 0.42856
 O1686 O 0.62039 0.98078 0.40576
 C1687 C 0.61334 0.97396 0.42165
 C1688 C 0.62346 0.95755 0.43184
 C1689 C 0.64090 0.94957 0.42414
 H1690 H 0.64729 0.95584 0.41098
 O1691 O 0.40244 1.01899 0.42846
 O1692 O 0.37941 1.01919 0.40566
 C1693 C 0.38649 1.02587 0.42158
 C1694 C 0.37645 1.04225 0.43186
 C1695 C 0.35888 1.05012 0.42433
 H1696 H 0.35237 1.04384 0.41125
 O1697 O 0.42903 1.09816 0.48064
 O1698 O 0.40601 1.12099 0.48056
 C1699 C 0.42198 1.11406 0.47380
 C1700 C 0.43208 1.12419 0.45736
 C1701 C 0.42422 1.14153 0.44929
 H1702 H 0.41100 1.14787 0.45552
 O1703 O 0.57039 0.90235 0.48066
 O1704 O 0.59334 0.87944 0.48072
 C1705 C 0.57739 0.88641 0.47392
 C1706 C 0.56731 0.87626 0.45752
 C1707 C 0.57509 0.85880 0.44974
 H1708 H 0.58790 0.85214 0.45649
 O1709 O 0.57057 1.01931 0.40162
 O1710 O 0.59358 1.01932 0.37879
 C1711 C 0.57765 1.02615 0.38574
 C1712 C 0.56766 1.04271 0.37569
 C1713 C 0.57545 1.05064 0.35829
 H1714 H 0.58822 1.04389 0.35157
 O1715 O 0.42908 0.98063 0.40122
 O1716 O 0.40611 0.98084 0.37835
 C1717 C 0.42203 0.97394 0.38528
 C1718 C 0.43207 0.95748 0.37516
 C1719 C 0.42432 0.94961 0.35772
 H1720 H 0.41153 0.95634 0.35102
 O1721 O 0.51923 1.09857 0.42863
 O1722 O 0.51910 1.12150 0.40571
 C1723 C 0.52592 1.11454 0.42165
 C1724 C 0.54229 1.12470 0.43181
 C1725 C 0.55027 1.14211 0.42407
 H1726 H 0.54400 1.14850 0.41090
 O1727 O 0.48040 0.90200 0.42843
 O1728 O 0.48049 0.87898 0.40566
 C1729 C 0.47367 0.88603 0.42155
 C1730 C 0.45731 0.87594 0.43179
 C1731 C 0.44928 0.85855 0.42413
 H1732 H 0.45544 0.85217 0.41091
 O1733 O 0.59711 1.07122 0.48063
 O1734 O 0.62019 1.09396 0.48064
 C1735 C 0.61310 1.07807 0.47386
 C1736 C 0.62317 1.06783 0.45749
 C1737 C 0.64064 1.07546 0.44954
 H1738 H 0.64708 1.08860 0.45579
 O1739 O 0.40220 0.92906 0.48039
 O1740 O 0.37925 0.90619 0.48047
 C1741 C 0.38629 0.92206 0.47358
 C1742 C 0.37626 0.93208 0.45702
 C1743 C 0.35887 0.92430 0.44907
 H1744 H 0.35220 0.91149 0.45576
 Cu1745 Cu 0.49957 0.91771 0.41722
 Cu1746 Cu 0.49974 0.89011 0.38985
 Cu1747 Cu 0.50010 1.08267 0.41758
 Cu1748 Cu 0.49992 1.11015 0.39003
 Cu1749 Cu 0.41810 0.99977 0.41717
 Cu1750 Cu 0.39050 1.00005 0.38976
 Cu1751 Cu 0.58153 1.00000 0.41748
 Cu1752 Cu 0.60916 1.00004 0.39010
 C1753 C 0.44868 0.94863 0.38366
 H1754 H 0.45452 0.95441 0.39728
 C1755 C 0.43280 0.93293 0.34899
 C1756 C 0.55105 1.05158 0.38419
 H1757 H 0.54515 1.04573 0.39777
 C1758 C 0.56705 1.06738 0.34958
 C1759 C 0.38473 0.94873 0.44822
 H1760 H 0.39831 0.95461 0.45408
 C1761 C 0.35011 0.93276 0.43238
 C1762 C 0.61463 1.05116 0.44879
 H1763 H 0.60098 1.04539 0.45461
 C1764 C 0.64940 1.06682 0.43297
 C1765 C 0.44874 0.88441 0.44856
 H1766 H 0.45465 0.89800 0.45436
 C1767 C 0.43274 0.84979 0.43285
 C1768 C 0.55096 1.11622 0.44853
 H1769 H 0.54509 1.10263 0.45438
 C1770 C 0.56691 1.15082 0.43265
 C1771 C 0.44911 1.05126 0.38427
 H1772 H 0.45495 1.04541 0.39788
 C1773 C 0.43323 1.06716 0.34963
 C1774 C 0.55064 0.94885 0.38414
 H1775 H 0.54477 0.95459 0.39777
 C1776 C 0.56662 0.93322 0.34947
 C1777 C 0.55065 0.88468 0.44864
 H1778 H 0.54477 0.89832 0.45435
 C1779 C 0.56669 0.84997 0.43310
 C1780 C 0.44882 1.11576 0.44867
 H1781 H 0.45476 1.10221 0.45458
 C1782 C 0.43274 1.15026 0.43263
 C1783 C 0.38507 1.05099 0.44846
 H1784 H 0.39881 1.04524 0.45413
 C1785 C 0.35010 1.06664 0.43305
 C1786 C 0.61499 0.94888 0.44856
 H1787 H 0.60138 0.95474 0.45439
 C1788 C 0.64970 0.93299 0.43278
 O1789 O 0.51896 0.92913 0.59819
 O1790 O 0.51899 0.90620 0.62111
 C1791 C 0.52574 0.92215 0.61414
 C1792 C 0.54210 0.93234 0.62426
 C1793 C 0.55008 0.92466 0.64169
 H1794 H 0.54382 0.91150 0.64812
 O1795 O 0.48079 1.07099 0.59814
 O1796 O 0.48068 1.09391 0.62102
 C1797 C 0.47397 1.07794 0.61405
 C1798 C 0.45758 1.06776 0.62413
 C1799 C 0.44979 1.07534 0.64165
 H1800 H 0.45654 1.08806 0.64842
 O1801 O 0.40200 1.01941 0.57102
 O1802 O 0.37897 1.01941 0.59382
 C1803 C 0.38602 1.02620 0.57792
 C1804 C 0.37595 1.04261 0.56771
 C1805 C 0.35855 1.05066 0.57543
 H1806 H 0.35216 1.04446 0.58862
 O1807 O 0.59732 0.98094 0.57117
 O1808 O 0.62040 0.98087 0.59393
 C1809 C 0.61330 0.97410 0.57805
 C1810 C 0.62334 0.95767 0.56785
 C1811 C 0.64073 0.94960 0.57558
 H1812 H 0.64714 0.95580 0.58876
 O1813 O 0.57055 0.90226 0.51910
 O1814 O 0.59350 0.87935 0.51912
 C1815 C 0.57757 0.88634 0.52591
 C1816 C 0.56752 0.87627 0.54240
 C1817 C 0.57528 0.85882 0.55028
 H1818 H 0.58806 0.85211 0.54357
 O1819 O 0.42909 1.09792 0.51911
 O1820 O 0.40607 1.12076 0.51902
 C1821 C 0.42200 1.11380 0.52590
 C1822 C 0.43198 1.12386 0.54243
 C1823 C 0.42414 1.14124 0.55036
 H1824 H 0.41131 1.14791 0.54367
 O1825 O 0.42879 0.98096 0.59804
 O1826 O 0.40581 0.98093 0.62090
 C1827 C 0.42177 0.97416 0.61395
 C1828 C 0.43194 0.95775 0.62407
 C1829 C 0.42431 0.94988 0.64157
 H1830 H 0.41120 0.95622 0.64802
 O1831 O 0.57071 1.01948 0.59826
 O1832 O 0.59378 1.01941 0.62103
 C1833 C 0.57784 1.02627 0.61412
 C1834 C 0.56787 1.04281 0.62420
 C1835 C 0.57578 1.05082 0.64149
 H1836 H 0.58864 1.04415 0.64811
 O1837 O 0.48065 0.90228 0.57116
 O1838 O 0.48062 0.87930 0.59403
 C1839 C 0.47386 0.88633 0.57809
 C1840 C 0.45746 0.87627 0.56790
 C1841 C 0.44936 0.85894 0.57569
 H1842 H 0.45554 0.85257 0.58891
 O1843 O 0.51899 1.09806 0.57115
 O1844 O 0.51889 1.12106 0.59395
 C1845 C 0.52568 1.11406 0.57803
 C1846 C 0.54198 1.12423 0.56778
 C1847 C 0.54995 1.14165 0.57545
 H1848 H 0.54374 1.14803 0.58865
 O1849 O 0.40218 0.92923 0.51887
 O1850 O 0.37921 0.90639 0.51893
 C1851 C 0.38624 0.92231 0.52569
 C1852 C 0.37615 0.93244 0.54212
 C1853 C 0.35872 0.92470 0.55003
 H1854 H 0.35203 0.91190 0.54336
 O1855 O 0.59721 1.07140 0.51908
 O1856 O 0.62028 1.09415 0.51909
 C1857 C 0.61318 1.07827 0.52589
 C1858 C 0.62325 1.06807 0.54233
 C1859 C 0.64069 1.07574 0.55030
 H1860 H 0.64711 1.08890 0.54404
 O1861 O 0.51923 1.07138 0.59829
 O1862 O 0.51917 1.09432 0.62114
 C1863 C 0.52603 1.07842 0.61418
 C1864 C 0.54254 1.06834 0.62425
 C1865 C 0.55069 1.07615 0.64154
 H1866 H 0.54450 1.08937 0.64790
 O1867 O 0.48057 0.92915 0.59804
 O1868 O 0.48055 0.90622 0.62097
 C1869 C 0.47377 0.92217 0.61397
 C1870 C 0.45736 0.93233 0.62405
 C1871 C 0.44955 0.92471 0.64156
 H1872 H 0.45625 0.91193 0.64830
 O1873 O 0.59723 1.01938 0.57100
 O1874 O 0.62033 1.01931 0.59374
 C1875 C 0.61323 1.02613 0.57786
 C1876 C 0.62326 1.04257 0.56769
 C1877 C 0.64072 1.05044 0.57537
 H1878 H 0.64745 1.04375 0.58816
 O1879 O 0.40210 0.98098 0.57094
 O1880 O 0.37907 0.98094 0.59373
 C1881 C 0.38615 0.97416 0.57783
 C1882 C 0.37610 0.95775 0.56763
 C1883 C 0.35870 0.94973 0.57533
 H1884 H 0.35229 0.95594 0.58851
 O1885 O 0.57029 1.09832 0.51895
 O1886 O 0.59332 1.12111 0.51901
 C1887 C 0.57733 1.11420 0.52576
 C1888 C 0.56724 1.12428 0.54221
 C1889 C 0.57496 1.14170 0.55009
 H1890 H 0.58775 1.14841 0.54339
 O1891 O 0.42910 0.90227 0.51900
 O1892 O 0.40614 0.87941 0.51909
 C1893 C 0.42208 0.88639 0.52586
 C1894 C 0.43215 0.87633 0.54237
 C1895 C 0.42429 0.85901 0.55038
 H1896 H 0.41144 0.85238 0.54375
 O1897 O 0.57048 0.98104 0.59816
 O1898 O 0.59353 0.98096 0.62095
 C1899 C 0.57754 0.97422 0.61405
 C1900 C 0.56744 0.95780 0.62418
 C1901 C 0.57519 0.94990 0.64162
 H1902 H 0.58803 0.95655 0.64827
 O1903 O 0.42885 1.01936 0.59800
 O1904 O 0.40587 1.01937 0.62085
 C1905 C 0.42184 1.02614 0.61392
 C1906 C 0.43205 1.04247 0.62408
 C1907 C 0.42444 1.05033 0.64159
 H1908 H 0.41129 1.04406 0.64802
 O1909 O 0.48058 1.09793 0.57128
 O1910 O 0.48045 1.12090 0.59411
 C1911 C 0.47370 1.11385 0.57820
 C1912 C 0.45725 1.12388 0.56800
 C1913 C 0.44916 1.14124 0.57571
 H1914 H 0.45535 1.14761 0.58891
 O1915 O 0.51908 0.90231 0.57124
 O1916 O 0.51910 0.87933 0.59410
 C1917 C 0.52589 0.88636 0.57819
 C1918 C 0.54228 0.87628 0.56799
 C1919 C 0.55030 0.85885 0.57568
 H1920 H 0.54413 0.85246 0.58889
 O1921 O 0.59731 0.92929 0.51906
 O1922 O 0.62026 0.90639 0.51909
 C1923 C 0.61323 0.92230 0.52588
 C1924 C 0.62329 0.93236 0.54237
 C1925 C 0.64067 0.92453 0.55033
 H1926 H 0.64732 0.91168 0.54369
 O1927 O 0.40211 1.07108 0.51902
 O1928 O 0.37909 1.09391 0.51890
 C1929 C 0.38612 1.07802 0.52574
 C1930 C 0.37600 1.06793 0.54219
 C1931 C 0.35859 1.07573 0.55011
 H1932 H 0.35192 1.08857 0.54344
 Cu1933 Cu 0.49982 0.91801 0.58237
 Cu1934 Cu 0.49981 0.89045 0.60985
 Cu1935 Cu 0.49992 1.08228 0.58244
 Cu1936 Cu 0.49978 1.10985 0.60985
 Cu1937 Cu 0.41793 0.91795 0.49969
 Cu1938 Cu 0.39038 0.89051 0.49981
 Cu1939 Cu 0.58163 0.91806 0.49984
 Cu1940 Cu 0.60918 0.89056 0.49989
 Cu1941 Cu 0.41801 1.08222 0.49985
 Cu1942 Cu 0.39036 1.10961 0.49972
 Cu1943 Cu 0.58149 1.08262 0.49978
 Cu1944 Cu 0.60918 1.10992 0.49983
 Cu1945 Cu 0.41774 1.00018 0.58222
 Cu1946 Cu 0.39012 1.00017 0.60961
 Cu1947 Cu 0.58162 1.00021 0.58238
 Cu1948 Cu 0.60933 1.00012 0.60969
 C1949 C 0.55078 0.94903 0.61573
 H1950 H 0.54494 0.95482 0.60209
 C1951 C 0.56669 0.93327 0.65041
 C1952 C 0.44872 1.05121 0.61555
 H1953 H 0.45442 1.04551 0.60184
 C1954 C 0.43313 1.06685 0.65039
 C1955 C 0.38444 1.05124 0.55097
 H1956 H 0.39803 1.04533 0.54514
 C1957 C 0.34981 1.06726 0.56678
 C1958 C 0.61485 0.94906 0.55112
 H1959 H 0.60128 0.95500 0.54525
 C1960 C 0.64946 0.93299 0.56697
 C1961 C 0.55089 0.88476 0.55123
 H1962 H 0.54500 0.89836 0.54541
 C1963 C 0.56682 0.85006 0.56695
 C1964 C 0.44866 1.11541 0.55124
 H1965 H 0.45461 1.10185 0.54540
 C1966 C 0.43258 1.14999 0.56704
 C1967 C 0.44856 0.94896 0.61551
 H1968 H 0.45429 0.95470 0.60181
 C1969 C 0.43296 0.93330 0.65035
 C1970 C 0.55113 1.05156 0.61582
 H1971 H 0.54513 1.04564 0.60232
 C1972 C 0.56735 1.06753 0.65023
 C1973 C 0.44886 0.88474 0.55111
 H1974 H 0.45481 0.89827 0.54522
 C1975 C 0.43272 0.85027 0.56709
 C1976 C 0.55063 1.11577 0.55104
 H1977 H 0.54481 1.10213 0.54527
 C1978 C 0.56651 1.15041 0.56679
 C1979 C 0.38462 0.94910 0.55091
 H1980 H 0.39823 0.95496 0.54510
 C1981 C 0.34996 0.93317 0.56668
 C1982 C 0.61474 1.05137 0.55104
 H1983 H 0.60110 1.04558 0.54522
 C1984 C 0.64947 1.06708 0.56687
 O1985 O 0.48077 0.42910 0.90158
 O1986 O 0.48081 0.40615 0.87873
 C1987 C 0.47401 0.42210 0.88565
 C1988 C 0.45760 0.43226 0.87551
 C1989 C 0.44965 0.42459 0.85808
 H1990 H 0.45598 0.41146 0.85166
 O1991 O 0.51929 0.57103 0.90183
 O1992 O 0.51922 0.59401 0.87897
 C1993 C 0.52600 0.57803 0.88587
 C1994 C 0.54234 0.56782 0.87568
 C1995 C 0.55023 0.57546 0.85819
 H1996 H 0.54392 0.58859 0.85174
 O1997 O 0.40231 0.48065 0.92875
 O1998 O 0.37928 0.48075 0.90595
 C1999 C 0.38634 0.47390 0.92183
 C2000 C 0.37630 0.45746 0.93199
 C2001 C 0.35895 0.44937 0.92423
 H2002 H 0.35256 0.45557 0.91103
 O2003 O 0.59761 0.51923 0.92894
 O2004 O 0.62066 0.51931 0.90616
 C2005 C 0.61356 0.52607 0.92205
 C2006 C 0.62357 0.54249 0.93226
 C2007 C 0.64096 0.55056 0.92456
 H2008 H 0.64738 0.54436 0.91138
 O2009 O 0.42939 0.40229 0.98084
 O2010 O 0.40648 0.37939 0.98093
 C2011 C 0.42239 0.38636 0.97408
 C2012 C 0.43246 0.37625 0.95762
 C2013 C 0.42477 0.35876 0.94983
 H2014 H 0.41202 0.35203 0.95660
 O2015 O 0.57078 0.59790 0.98115
 O2016 O 0.59374 0.62076 0.98118
 C2017 C 0.57781 0.61381 0.97436
 C2018 C 0.56779 0.62388 0.95784
 C2019 C 0.57559 0.64127 0.94991
 H2020 H 0.58836 0.64799 0.95663
 O2021 O 0.42910 0.51922 0.90196
 O2022 O 0.40609 0.51939 0.87913
 C2023 C 0.42204 0.52614 0.88612
 C2024 C 0.43212 0.54266 0.87612
 C2025 C 0.42437 0.55070 0.85874
 H2026 H 0.41125 0.54440 0.85229
 O2027 O 0.57097 0.48080 0.90186
 O2028 O 0.59398 0.48082 0.87903
 C2029 C 0.57801 0.47403 0.88595
 C2030 C 0.56788 0.45766 0.87580
 C2031 C 0.57556 0.44978 0.85834
 H2032 H 0.58869 0.45610 0.85192
 O2033 O 0.51919 0.40236 0.92874
 O2034 O 0.51927 0.37935 0.90595
 C2035 C 0.52603 0.38641 0.92186
 C2036 C 0.54245 0.37636 0.93209
 C2037 C 0.55048 0.35895 0.92441
 H2038 H 0.54423 0.35253 0.91126
 O2039 O 0.48109 0.59782 0.92919
 O2040 O 0.48103 0.62087 0.90639
 C2041 C 0.47431 0.61382 0.92232
 C2042 C 0.45793 0.62392 0.93255
 C2043 C 0.45001 0.64136 0.92485
 H2044 H 0.45668 0.64809 0.91204
 O2045 O 0.40230 0.57091 0.98107
 O2046 O 0.37931 0.59377 0.98098
 C2047 C 0.38634 0.57784 0.97424
 C2048 C 0.37625 0.56764 0.95783
 C2049 C 0.35876 0.57532 0.94989
 H2050 H 0.35231 0.58844 0.95618
 O2051 O 0.59789 0.42915 0.98100
 O2052 O 0.62080 0.40620 0.98101
 C2053 C 0.61383 0.42216 0.97422
 C2054 C 0.62394 0.43229 0.95776
 C2055 C 0.64141 0.42459 0.94986
 H2056 H 0.64814 0.41179 0.95653
 O2057 O 0.48084 0.57109 0.90216
 O2058 O 0.48075 0.59410 0.87932
 C2059 C 0.47396 0.57817 0.88630
 C2060 C 0.45747 0.56812 0.87626
 C2061 C 0.44950 0.57593 0.85888
 H2062 H 0.45610 0.58881 0.85225
 O2063 O 0.51918 0.42915 0.90173
 O2064 O 0.51928 0.40619 0.87888
 C2065 C 0.52602 0.42214 0.88584
 C2066 C 0.54246 0.43227 0.87578
 C2067 C 0.55036 0.42462 0.85833
 H2068 H 0.54370 0.41182 0.85162
 O2069 O 0.59776 0.48078 0.92890
 O2070 O 0.62082 0.48084 0.90612
 C2071 C 0.61376 0.47402 0.92201
 C2072 C 0.62389 0.45763 0.93223
 C2073 C 0.64134 0.44968 0.92455
 H2074 H 0.64772 0.45592 0.91136
 O2075 O 0.40239 0.51906 0.92904
 O2076 O 0.37933 0.51918 0.90626
 C2077 C 0.38640 0.52588 0.92219
 C2078 C 0.37631 0.54225 0.93242
 C2079 C 0.35884 0.55014 0.92475
 H2080 H 0.35215 0.54349 0.91193
 O2081 O 0.42923 0.59784 0.98111
 O2082 O 0.40627 0.62074 0.98101
 C2083 C 0.42225 0.61377 0.97428
 C2084 C 0.43245 0.62390 0.95790
 C2085 C 0.42471 0.64132 0.94991
 H2086 H 0.41151 0.64770 0.95613
 O2087 O 0.57090 0.40233 0.98091
 O2088 O 0.59377 0.37935 0.98093
 C2089 C 0.57787 0.38640 0.97409
 C2090 C 0.56780 0.37638 0.95759
 C2091 C 0.57558 0.35898 0.94967
 H2092 H 0.58842 0.35230 0.95634
 O2093 O 0.57090 0.51920 0.90183
 O2094 O 0.59390 0.51925 0.87900
 C2095 C 0.57792 0.52599 0.88592
 C2096 C 0.56776 0.54238 0.87575
 C2097 C 0.57542 0.55023 0.85827
 H2098 H 0.58825 0.54357 0.85160
 O2099 O 0.42907 0.48077 0.90169
 O2100 O 0.40607 0.48091 0.87885
 C2101 C 0.42203 0.47407 0.88576
 C2102 C 0.43214 0.45766 0.87559
 C2103 C 0.42441 0.44976 0.85816
 H2104 H 0.41154 0.45640 0.85151
 O2105 O 0.51949 0.59777 0.92890
 O2106 O 0.51946 0.62079 0.90608
 C2107 C 0.52627 0.61372 0.92197
 C2108 C 0.54265 0.62380 0.93217
 C2109 C 0.55070 0.64117 0.92442
 H2110 H 0.54457 0.64751 0.91116
 O2111 O 0.48076 0.40231 0.92862
 O2112 O 0.48080 0.37930 0.90583
 C2113 C 0.47400 0.38635 0.92173
 C2114 C 0.45765 0.37625 0.93199
 C2115 C 0.44970 0.35879 0.92440
 H2116 H 0.45589 0.35237 0.91121
 O2117 O 0.59752 0.57084 0.98110
 O2118 O 0.62050 0.59368 0.98113
 C2119 C 0.61345 0.57781 0.97430
 C2120 C 0.62350 0.56776 0.95779
 C2121 C 0.64089 0.57557 0.94987
 H2122 H 0.64754 0.58838 0.95656
 O2123 O 0.40239 0.42915 0.98080
 O2124 O 0.37947 0.40625 0.98088
 C2125 C 0.38646 0.42214 0.97403
 C2126 C 0.37638 0.43217 0.95752
 C2127 C 0.35904 0.42431 0.94955
 H2128 H 0.35242 0.41145 0.95621
 Cu2129 Cu 0.49996 0.41803 0.91744
 Cu2130 Cu 0.50005 0.39044 0.89006
 Cu2131 Cu 0.50020 0.58211 0.91779
 Cu2132 Cu 0.50010 0.60975 0.89040
 Cu2133 Cu 0.41803 0.49989 0.91763
 Cu2134 Cu 0.39039 0.50008 0.89026
 Cu2135 Cu 0.58201 0.49999 0.91766
 Cu2136 Cu 0.60965 0.50006 0.89031
 C2137 C 0.44885 0.44891 0.88403
 H2138 H 0.45467 0.45469 0.89766
 C2139 C 0.43299 0.43316 0.84935
 C2140 C 0.55110 0.55117 0.88423
 H2141 H 0.54534 0.54543 0.89791
 C2142 C 0.56685 0.56684 0.84945
 C2143 C 0.38477 0.44886 0.94876
 H2144 H 0.39832 0.45481 0.95464
 C2145 C 0.35027 0.43274 0.93286
 C2146 C 0.61506 0.55110 0.94900
 H2147 H 0.60147 0.54519 0.95483
 C2148 C 0.64967 0.56714 0.93321
 C2149 C 0.44902 0.38477 0.94871
 H2150 H 0.45484 0.39842 0.95443
 C2151 C 0.43323 0.34998 0.93318
 C2152 C 0.55119 0.61539 0.94900
 H2153 H 0.54527 0.60182 0.95486
 C2154 C 0.56719 0.64997 0.93316
 C2155 C 0.44879 0.55137 0.88465
 H2156 H 0.45466 0.54545 0.89822
 C2157 C 0.43293 0.56737 0.85005
 C2158 C 0.55122 0.44890 0.88430
 H2159 H 0.54543 0.45465 0.89797
 C2160 C 0.56698 0.43319 0.84957
 C2161 C 0.55112 0.38486 0.94880
 H2162 H 0.54524 0.39846 0.95461
 C2163 C 0.56709 0.35021 0.93304
 C2164 C 0.44918 0.61542 0.94922
 H2165 H 0.45501 0.60179 0.95505
 C2166 C 0.43332 0.65008 0.93331
 C2167 C 0.38481 0.55099 0.94908
 H2168 H 0.39848 0.54521 0.95487
 C2169 C 0.35004 0.56676 0.93326
 C2170 C 0.61541 0.44894 0.94895
 H2171 H 0.60178 0.45477 0.95475
 C2172 C 0.65016 0.43312 0.93320
 O2173 O 0.51910 0.42902 1.09874
 O2174 O 0.51915 0.40597 1.12154
 C2175 C 0.52593 0.42193 1.11461
 C2176 C 0.54239 0.43199 1.12468
 C2177 C 0.55039 0.42421 1.14206
 H2178 H 0.54407 0.41108 1.14847
 O2179 O 0.48077 0.57098 1.09859
 O2180 O 0.48081 0.59389 1.12148
 C2181 C 0.47403 0.57795 1.11453
 C2182 C 0.45762 0.56783 1.12465
 C2183 C 0.44965 0.57563 1.14200
 H2184 H 0.45630 0.58847 1.14864
 O2185 O 0.40232 0.51931 1.07172
 O2186 O 0.37922 0.51928 1.09445
 C2187 C 0.38632 0.52609 1.07858
 C2188 C 0.37625 0.54249 1.06833
 C2189 C 0.35874 0.55043 1.07590
 H2190 H 0.35228 0.54419 1.08905
 O2191 O 0.59775 0.48050 1.07155
 O2192 O 0.62078 0.48051 1.09435
 C2193 C 0.61374 0.47373 1.07845
 C2194 C 0.62386 0.45735 1.06825
 C2195 C 0.64136 0.44942 1.07587
 H2196 H 0.64782 0.45572 1.08896
 O2197 O 0.57081 0.40224 1.01938
 O2198 O 0.59367 0.37925 1.01941
 C2199 C 0.57775 0.38629 1.02620
 C2200 C 0.56759 0.37623 1.04267
 C2201 C 0.57528 0.35876 1.05063
 H2202 H 0.58836 0.35227 1.04428
 O2203 O 0.42906 0.59791 1.01957
 O2204 O 0.40610 0.62081 1.01947
 C2205 C 0.42202 0.61382 1.02634
 C2206 C 0.43205 0.62390 1.04285
 C2207 C 0.42432 0.64136 1.05072
 H2208 H 0.41154 0.64808 1.04400
 O2209 O 0.42912 0.48088 1.09880
 O2210 O 0.40608 0.48085 1.12159
 C2211 C 0.42206 0.47408 1.11470
 C2212 C 0.43216 0.45765 1.12484
 C2213 C 0.42437 0.44971 1.14222
 H2214 H 0.41155 0.45641 1.14888
 O2215 O 0.57085 0.51894 1.09845
 O2216 O 0.59383 0.51895 1.12130
 C2217 C 0.57788 0.52575 1.11434
 C2218 C 0.56780 0.54223 1.12440
 C2219 C 0.57567 0.55027 1.14171
 H2220 H 0.58883 0.54395 1.14808
 O2221 O 0.48068 0.40236 1.07170
 O2222 O 0.48068 0.37926 1.09445
 C2223 C 0.47391 0.38636 1.07855
 C2224 C 0.45758 0.37630 1.06827
 C2225 C 0.44957 0.35886 1.07591
 H2226 H 0.45575 0.35242 1.08910
 O2227 O 0.51903 0.59790 1.07153
 O2228 O 0.51907 0.62088 1.09435
 C2229 C 0.52582 0.61385 1.07843
 C2230 C 0.54219 0.62393 1.06820
 C2231 C 0.55013 0.64139 1.07581
 H2232 H 0.54384 0.64786 1.08892
 O2233 O 0.40254 0.42934 1.01926
 O2234 O 0.37961 0.40646 1.01931
 C2235 C 0.38662 0.42238 1.02608
 C2236 C 0.37654 0.43247 1.04255
 C2237 C 0.35910 0.42472 1.05042
 H2238 H 0.35240 0.41196 1.04370
 O2239 O 0.59763 0.57084 1.01954
 O2240 O 0.62062 0.59366 1.01957
 C2241 C 0.61359 0.57774 1.02634
 C2242 C 0.62367 0.56753 1.04274
 C2243 C 0.64114 0.57517 1.05067
 H2244 H 0.64759 0.58828 1.04436
 O2245 O 0.51917 0.57097 1.09841
 O2246 O 0.51927 0.59390 1.12129
 C2247 C 0.52603 0.57795 1.11429
 C2248 C 0.54250 0.56780 1.12433
 C2249 C 0.55060 0.57561 1.14161
 H2250 H 0.54409 0.58855 1.14821
 O2251 O 0.48066 0.42902 1.09882
 O2252 O 0.48067 0.40598 1.12163
 C2253 C 0.47388 0.42196 1.11473
 C2254 C 0.45748 0.43211 1.12487
 C2255 C 0.44940 0.42433 1.14223
 H2256 H 0.45559 0.41110 1.14859
 O2257 O 0.59759 0.51891 1.07142
 O2258 O 0.62061 0.51893 1.09423
 C2259 C 0.61354 0.52570 1.07832
 C2260 C 0.62360 0.54211 1.06815
 C2261 C 0.64106 0.54996 1.07584
 H2262 H 0.64775 0.54327 1.08865
 O2263 O 0.40251 0.48088 1.07158
 O2264 O 0.37942 0.48081 1.09432
 C2265 C 0.38654 0.47406 1.07842
 C2266 C 0.37651 0.45769 1.06815
 C2267 C 0.35909 0.44966 1.07581
 H2268 H 0.35268 0.45582 1.08901
 O2269 O 0.57070 0.59777 1.01957
 O2270 O 0.59366 0.62063 1.01960
 C2271 C 0.57771 0.61368 1.02637
 C2272 C 0.56758 0.62380 1.04277
 C2273 C 0.57528 0.64126 1.05060
 H2274 H 0.58810 0.64792 1.04391
 O2275 O 0.42937 0.40232 1.01930
 O2276 O 0.40644 0.37943 1.01934
 C2277 C 0.42236 0.38642 1.02613
 C2278 C 0.43240 0.37635 1.04263
 C2279 C 0.42463 0.35892 1.05049
 H2280 H 0.41185 0.35224 1.04375
 O2281 O 0.57092 0.48051 1.09854
 O2282 O 0.59392 0.48051 1.12138
 C2283 C 0.57796 0.47372 1.11445
 C2284 C 0.56787 0.45730 1.12457
 C2285 C 0.57565 0.44932 1.14196
 H2286 H 0.58853 0.45591 1.14859
 O2287 O 0.42912 0.51927 1.09872
 O2288 O 0.40607 0.51930 1.12150
 C2289 C 0.42205 0.52607 1.11460
 C2290 C 0.43216 0.54249 1.12470
 C2291 C 0.42435 0.55057 1.14203
 H2292 H 0.41115 0.54437 1.14840
 O2293 O 0.48059 0.59785 1.07164
 O2294 O 0.48060 0.62080 1.09449
 C2295 C 0.47378 0.61378 1.07859
 C2296 C 0.45734 0.62387 1.06841
 C2297 C 0.44935 0.64130 1.07607
 H2298 H 0.45558 0.64768 1.08925
 O2299 O 0.51908 0.40244 1.07158
 O2300 O 0.51912 0.37934 1.09433
 C2301 C 0.52588 0.38645 1.07843
 C2302 C 0.54228 0.37637 1.06821
 C2303 C 0.55018 0.35892 1.07590
 H2304 H 0.54356 0.35226 1.08875
 O2305 O 0.59782 0.42904 1.01947
 O2306 O 0.62071 0.40607 1.01948
 C2307 C 0.61373 0.42199 1.02629
 C2308 C 0.62381 0.43203 1.04278
 C2309 C 0.64128 0.42429 1.05065
 H2310 H 0.64797 0.41149 1.04396
 O2311 O 0.40232 0.57088 1.01952
 O2312 O 0.37933 0.59375 1.01943
 C2313 C 0.38636 0.57785 1.02628
 C2314 C 0.37628 0.56776 1.04275
 C2315 C 0.35876 0.57544 1.05053
 H2316 H 0.35202 0.58818 1.04375
 Cu2317 Cu 0.49986 0.41803 1.08294
 Cu2318 Cu 0.49991 0.39032 1.11027
 Cu2319 Cu 0.49988 0.58214 1.08275
 Cu2320 Cu 0.49994 0.60967 1.11020
 Cu2321 Cu 0.41822 0.41807 1.00003
 Cu2322 Cu 0.39070 0.39059 1.00013
 Cu2323 Cu 0.58207 0.41799 1.00019
 Cu2324 Cu 0.60952 0.39041 1.00021
 Cu2325 Cu 0.41803 0.58210 1.00031
 Cu2326 Cu 0.39045 0.60955 1.00020
 Cu2327 Cu 0.58185 0.58205 1.00035
 Cu2328 Cu 0.60944 0.60947 1.00038
 Cu2329 Cu 0.41807 0.50009 1.08293
 Cu2330 Cu 0.39038 0.50005 1.11024
 Cu2331 Cu 0.58197 0.49970 1.08271
 Cu2332 Cu 0.60959 0.49973 1.11011
 C2333 C 0.55113 0.44865 1.11617
 H2334 H 0.54525 0.45452 1.10258
 C2335 C 0.56707 0.43272 1.15076
 C2336 C 0.44890 0.55113 1.11624
 H2337 H 0.45478 0.54523 1.10268
 C2338 C 0.43294 0.56721 1.15070
 C2339 C 0.38481 0.55117 1.05165
 H2340 H 0.39850 0.54537 1.04594
 C2341 C 0.34994 0.56694 1.06714
 C2342 C 0.61531 0.44866 1.05158
 H2343 H 0.60166 0.45449 1.04582
 C2344 C 0.65013 0.43283 1.06723
 C2345 C 0.55097 0.38482 1.05147
 H2346 H 0.54517 0.39847 1.04566
 C2347 C 0.56674 0.35007 1.06731
 C2348 C 0.44868 0.61539 1.05170
 H2349 H 0.45454 0.60177 1.04591
 C2350 C 0.43282 0.65014 1.06736
 C2351 C 0.44884 0.44887 1.11641
 H2352 H 0.45473 0.45471 1.10282
 C2353 C 0.43277 0.43296 1.15094
 C2354 C 0.55108 0.55098 1.11595
 H2355 H 0.54510 0.54505 1.10246
 C2356 C 0.56722 0.56700 1.15037
 C2357 C 0.44900 0.38482 1.05151
 H2358 H 0.45486 0.39845 1.04574
 C2359 C 0.43304 0.35013 1.06717
 C2360 C 0.55092 0.61535 1.05157
 H2361 H 0.54512 0.60169 1.04584
 C2362 C 0.56674 0.65010 1.06718
 C2363 C 0.38501 0.44910 1.05139
 H2364 H 0.39861 0.45499 1.04559
 C2365 C 0.35032 0.43315 1.06709
 C2366 C 0.61511 0.55089 1.05149
 H2367 H 0.60145 0.54513 1.04570
 C2368 C 0.64987 0.56655 1.06730
 C2369 C 1.10541 1.08639 1.18594
 C2370 C 1.09358 1.09321 1.20131
 C2371 C 1.07313 1.09129 1.20012
 C2372 C 1.06452 1.08264 1.18358
 C2373 C 1.12636 1.12567 1.26329
 C2374 C 1.09685 1.07769 1.16944
 C2375 C 1.10248 1.10213 1.21828
 C2376 C 1.11002 1.10956 1.23247
 C2377 C 1.11887 1.11824 1.24908
 C2378 C 1.07630 1.07575 1.16806
 H2379 H 1.12126 1.08788 1.18667
 H2380 H 1.06383 1.09647 1.21196
 H2381 H 1.04868 1.08117 1.18300
 H2382 H 1.10630 1.07278 1.15761
 C2383 C 1.07303 0.59165 0.69985
 C2384 C 1.09349 0.59353 0.70096
 C2385 C 1.10526 0.58657 0.68562
 C2386 C 1.09664 0.57775 0.66922
 C2387 C 1.12636 0.62613 0.76282
 C2388 C 1.06436 0.58287 0.68343
 C2389 C 1.10245 0.60254 0.71785
 C2390 C 1.11003 0.61002 0.73199
 C2391 C 1.11889 0.61872 0.74858
 C2392 C 1.07608 0.57581 0.66793
 H2393 H 1.06378 0.59696 0.71167
 H2394 H 1.12111 0.58802 0.68630
 H2395 H 1.10603 0.57274 0.65739
 H2396 H 1.04851 0.58142 0.68291
 C2397 C 0.57326 1.09190 0.70008
 C2398 C 0.59373 1.09363 0.70138
 C2399 C 0.60556 1.08677 0.68603
 C2400 C 0.59700 1.07822 0.66945
 C2401 C 0.62627 1.12612 0.76355
 C2402 C 0.56465 1.08338 0.68348
 C2403 C 0.60261 1.10250 0.71842
 C2404 C 0.61009 1.10993 0.73265
 C2405 C 0.61885 1.11864 0.74931
 C2406 C 0.57643 1.07642 0.66798
 H2407 H 0.56396 1.09711 0.71190
 H2408 H 0.62142 1.08810 0.68684
 H2409 H 0.60645 1.07328 0.65763
 H2410 H 0.54881 1.08202 0.68285
 C2411 C 0.58694 0.60499 1.18602
 C2412 C 0.59378 0.59309 1.20134
 C2413 C 0.59189 0.57265 1.20008
 C2414 C 0.58321 0.56413 1.18353
 C2415 C 0.62617 0.62551 1.26350
 C2416 C 0.57824 0.59651 1.16948
 C2417 C 0.60274 0.60187 1.21834
 C2418 C 0.61020 0.60929 1.23257
 C2419 C 0.61885 0.61802 1.24924
 C2420 C 0.57625 0.57598 1.16806
 H2421 H 0.58839 0.62083 1.18682
 H2422 H 0.59710 0.56332 1.21189
 H2423 H 0.58174 0.54830 1.18292
 H2424 H 0.57334 0.60600 1.15767
 C2425 C 0.92692 0.90842 1.20053
 C2426 C 0.90645 0.90674 1.20174
 C2427 C 0.89467 0.91371 1.18639
 C2428 C 0.90331 0.92233 1.16987
 C2429 C 0.87371 0.87423 1.26375
 C2430 C 0.93561 0.91701 1.18400
 C2431 C 0.89751 0.89786 1.21872
 C2432 C 0.88998 0.89044 1.23292
 C2433 C 0.88117 0.88172 1.24954
 C2434 C 0.92389 0.92407 1.16849
 H2435 H 0.93617 0.90309 1.21235
 H2436 H 0.87882 0.91240 1.18714
 H2437 H 0.89391 0.92735 1.15804
 H2438 H 0.95146 0.91831 1.18341
 C2439 C 0.92749 0.40821 0.70054
 C2440 C 0.90704 0.40649 0.70201
 C2441 C 0.89507 0.41331 0.68673
 C2442 C 0.90349 0.42184 0.67005
 C2443 C 0.87466 0.37453 0.76455
 C2444 C 0.93595 0.41671 0.68384
 C2445 C 0.89830 0.39776 0.71919
 C2446 C 0.89089 0.39047 0.73354
 C2447 C 0.88215 0.38192 0.75029
 C2448 C 0.92403 0.42363 0.66841
 H2449 H 0.93689 0.40300 0.71229
 H2450 H 0.87922 0.41197 0.68768
 H2451 H 0.89393 0.42675 0.65830
 H2452 H 0.95179 0.41806 0.68307
 C2453 C 0.40847 0.92770 0.70015
 C2454 C 0.40651 0.90727 0.70144
 C2455 C 0.41336 0.89535 0.68616
 C2456 C 0.42209 0.90382 0.66962
 C2457 C 0.37365 0.87484 0.76337
 C2458 C 0.41717 0.93621 0.68359
 C2459 C 0.39742 0.89852 0.71839
 C2460 C 0.38985 0.89112 0.73257
 C2461 C 0.38106 0.88237 0.74917
 C2462 C 0.42407 0.92435 0.66814
 H2463 H 0.40326 0.93705 0.71194
 H2464 H 0.41186 0.87952 0.68699
 H2465 H 0.42697 0.89432 0.65783
 H2466 H 0.41865 0.95204 0.68293
 C2467 C 0.39409 0.41329 1.18596
 C2468 C 0.40570 0.40616 1.20137
 C2469 C 0.42619 0.40790 1.20040
 C2470 C 0.43505 0.41668 1.18405
 C2471 C 0.37237 0.37353 1.26305
 C2472 C 0.40290 0.42209 1.16963
 C2473 C 0.39654 0.39712 1.21816
 C2474 C 0.38882 0.38962 1.23223
 C2475 C 0.37985 0.38091 1.24879
 C2476 C 0.42349 0.42389 1.16849
 H2477 H 0.37823 0.41197 1.18652
 H2478 H 0.43530 0.40248 1.21229
 H2479 H 0.45090 0.41801 1.18366
 H2480 H 0.39362 0.42722 1.15776
 C2481 C 0.90835 1.07318 0.79993
 C2482 C 0.90627 1.09362 0.79892
 C2483 C 0.91332 1.10539 0.81421
 C2484 C 0.92231 1.09676 0.83053
 C2485 C 0.87275 1.12638 0.73747
 C2486 C 0.91731 1.06451 0.81629
 C2487 C 0.89687 1.10256 0.78222
 C2488 C 0.88909 1.11009 0.76821
 C2489 C 0.88018 1.11889 0.75170
 C2490 C 0.92435 1.07622 0.83178
 H2491 H 0.90304 1.06395 0.78811
 H2492 H 0.91177 1.12122 0.81356
 H2493 H 0.92734 1.10615 0.84234
 H2494 H 0.91886 1.04868 0.81676
 C2495 C 0.91334 0.60479 0.31392
 C2496 C 0.90661 0.59289 0.29858
 C2497 C 0.90872 0.57246 0.29981
 C2498 C 0.91746 0.56395 0.31636
 C2499 C 0.87374 0.62532 0.23657
 C2500 C 0.92213 0.59632 0.33044
 C2501 C 0.89753 0.60165 0.28162
 C2502 C 0.88996 0.60907 0.26742
 C2503 C 0.88117 0.61781 0.25079
 C2504 C 0.92426 0.57580 0.33185
 H2505 H 0.91170 0.62061 0.31316
 H2506 H 0.90361 0.56312 0.28799
 H2507 H 0.91906 0.54812 0.31699
 H2508 H 0.92696 0.60579 0.34227
 C2509 C 0.41310 1.10522 0.31416
 C2510 C 0.40627 1.09335 0.29884
 C2511 C 0.40844 1.07292 0.29999
 C2512 C 0.41732 1.06438 0.31644
 C2513 C 0.37318 1.12554 0.23683
 C2514 C 0.42202 1.09671 0.33060
 C2515 C 0.39706 1.10213 0.28195
 C2516 C 0.38940 1.10950 0.26778
 C2517 C 0.38058 1.11814 0.25112
 C2518 C 0.42420 1.07619 0.33193
 H2519 H 0.41145 1.12104 0.31344
 H2520 H 0.40326 1.06361 0.28818
 H2521 H 0.41895 1.04855 0.31699
 H2522 H 0.42689 1.10617 0.34242
 C2523 C 0.40867 0.57279 0.80009
 C2524 C 0.40669 0.59322 0.79868
 C2525 C 0.41345 0.60521 0.81394
 C2526 C 0.42209 0.59681 0.83059
 C2527 C 0.37374 0.62533 0.73650
 C2528 C 0.41727 0.56436 0.81675
 C2529 C 0.39764 0.60189 0.78163
 C2530 C 0.39006 0.60921 0.76738
 C2531 C 0.38122 0.61786 0.75072
 C2532 C 0.42407 0.57628 0.83219
 H2533 H 0.40354 0.56338 0.78832
 H2534 H 0.41194 0.62103 0.81302
 H2535 H 0.42691 0.60637 0.84235
 H2536 H 0.41878 0.54853 0.81749
 C2537 C 1.07304 0.90873 0.79975
 C2538 C 1.09351 0.90689 0.79856
 C2539 C 1.10531 0.91378 0.81390
 C2540 C 1.09671 0.92246 0.83039
 C2541 C 1.12626 0.87413 0.73671
 C2542 C 1.06439 0.91738 0.81626
 C2543 C 1.10243 0.89790 0.78163
 C2544 C 1.10997 0.89039 0.76748
 C2545 C 1.11880 0.88162 0.75090
 C2546 C 1.07615 0.92434 0.83177
 H2547 H 1.06377 0.90349 0.78791
 H2548 H 1.12116 0.91236 0.81317
 H2549 H 1.10613 0.92742 0.84222
 H2550 H 1.04855 0.91880 0.81684
 C2551 C 1.07318 0.40890 0.29990
 C2552 C 1.09364 0.40693 0.29877
 C2553 C 1.10545 0.41364 0.31419
 C2554 C 1.09686 0.42232 0.33068
 C2555 C 1.12633 0.37453 0.23676
 C2556 C 1.06455 0.41755 0.31641
 C2557 C 1.10254 0.39805 0.28180
 C2558 C 1.11006 0.39063 0.26760
 C2559 C 1.11887 0.38197 0.25098
 C2560 C 1.07631 0.42436 0.33197
 H2561 H 1.06392 0.40378 0.28801
 H2562 H 1.12129 0.41211 0.31349
 H2563 H 1.10627 0.42715 0.34256
 H2564 H 1.04871 0.41909 0.31694
 C2565 C 0.60494 0.91365 0.31406
 C2566 C 0.59318 0.90678 0.29868
 C2567 C 0.57271 0.90868 0.29978
 C2568 C 0.56403 0.91738 0.31625
 C2569 C 0.62617 0.87425 0.23687
 C2570 C 0.59631 0.92238 0.33050
 C2571 C 0.60215 0.89782 0.28178
 C2572 C 0.60975 0.89036 0.26764
 C2573 C 0.61865 0.88168 0.25107
 C2574 C 0.57575 0.92433 0.33179
 H2575 H 0.62079 0.91218 0.31338
 H2576 H 0.56347 0.90345 0.28792
 H2577 H 0.54818 0.91884 0.31676
 H2578 H 0.60569 0.92731 0.34236
 C2579 C 0.58669 0.39518 0.81389
 C2580 C 0.59359 0.40708 0.79861
 C2581 C 0.59166 0.42752 0.79987
 C2582 C 0.58292 0.43605 0.81639
 C2583 C 0.62640 0.37461 0.73666
 C2584 C 0.57792 0.40367 0.83040
 C2585 C 0.60265 0.39830 0.78166
 C2586 C 0.61021 0.39087 0.76748
 C2587 C 0.61899 0.38212 0.75087
 C2588 C 0.57595 0.42421 0.83184
 H2589 H 0.58817 0.37935 0.81310
 H2590 H 0.59692 0.43686 0.78809
 H2591 H 0.58146 0.45189 0.81702
 H2592 H 0.57300 0.39419 0.84219
 C2593 C 1.19929 1.07254 1.09156
 C2594 C 1.20053 1.09298 1.09343
 C2595 C 1.18524 1.10486 1.08646
 C2596 C 1.16876 1.09635 1.07767
 C2597 C 1.26261 1.12543 1.12599
 C2598 C 1.18280 1.06399 1.08280
 C2599 C 1.21747 1.10180 1.10248
 C2600 C 1.23167 1.10923 1.10999
 C2601 C 1.24833 1.11797 1.11867
 C2602 C 1.16735 1.07581 1.07575
 H2603 H 1.21108 1.06322 1.09686
 H2604 H 1.18602 1.12070 1.08790
 H2605 H 1.15697 1.10582 1.07267
 H2606 H 1.18219 1.04815 1.08138
 C2607 C 1.18512 0.60487 0.58702
 C2608 C 1.20048 0.59308 0.59396
 C2609 C 1.19938 0.57263 0.59200
 C2610 C 1.18291 0.56400 0.58322
 C2611 C 1.26207 0.62638 0.62669
 C2612 C 1.16869 0.59629 0.57819
 C2613 C 1.21733 0.60203 0.60307
 C2614 C 1.23140 0.60968 0.61063
 C2615 C 1.24790 0.61871 0.61936
 C2616 C 1.16738 0.57575 0.57621
 H2617 H 1.18579 0.62071 0.58851
 H2618 H 1.21123 0.56337 0.59725
 H2619 H 1.18239 0.54816 0.58175
 H2620 H 1.15685 0.60571 0.57322
 C2621 C 0.69945 1.09123 0.57264
 C2622 C 0.70073 1.09303 0.59309
 C2623 C 0.68532 1.08635 0.60494
 C2624 C 0.66870 1.07785 0.59641
 C2625 C 0.76308 1.12512 0.62556
 C2626 C 0.68279 1.08278 0.56406
 C2627 C 0.71782 1.10178 0.60194
 C2628 C 0.73211 1.10910 0.60940
 C2629 C 0.74882 1.11770 0.61813
 C2630 C 0.66726 1.07595 0.57587
 H2631 H 0.71132 1.09634 0.56334
 H2632 H 0.68612 1.08777 0.62078
 H2633 H 0.65684 1.07303 0.60587
 H2634 H 0.68215 1.08139 0.54823
 C2635 C 0.68576 0.58577 1.10537
 C2636 C 0.70102 0.59272 1.09348
 C2637 C 0.69967 0.59103 1.07303
 C2638 C 0.68308 0.58245 1.06448
 C2639 C 0.76308 0.62547 1.12576
 C2640 C 0.66918 0.57717 1.09685
 C2641 C 0.71802 0.60166 1.10228
 C2642 C 0.73224 0.60916 1.10969
 C2643 C 0.74887 0.61795 1.11837
 C2644 C 0.66765 0.57541 1.07630
 H2645 H 0.68663 0.58707 1.12121
 H2646 H 0.71143 0.59635 1.06371
 H2647 H 0.68239 0.58115 1.04864
 H2648 H 0.65741 0.57219 1.10634
 C2649 C 1.19948 0.92748 0.90887
 C2650 C 1.20085 0.90705 0.90689
 C2651 C 1.18554 0.89508 0.91363
 C2652 C 1.16890 0.90350 0.92226
 C2653 C 1.26307 0.87496 0.87405
 C2654 C 1.18282 0.93593 0.91745
 C2655 C 1.21790 0.89837 0.89786
 C2656 C 1.23216 0.89107 0.89029
 C2657 C 1.24884 0.88243 0.88148
 C2658 C 1.16734 0.92403 0.92424
 H2659 H 1.21128 0.93686 0.90377
 H2660 H 1.18642 0.87926 0.91212
 H2661 H 1.15710 0.89397 0.92707
 H2662 H 1.18211 0.95175 0.91894
 C2663 C 1.19974 0.40810 0.42658
 C2664 C 1.20113 0.40659 0.40611
 C2665 C 1.18576 0.41348 0.39430
 C2666 C 1.16909 0.42189 0.40288
 C2667 C 1.26380 0.37502 0.37344
 C2668 C 1.18305 0.41648 0.43521
 C2669 C 1.21832 0.39801 0.39719
 C2670 C 1.23267 0.39082 0.38967
 C2671 C 1.24946 0.38235 0.38087
 C2672 C 1.16756 0.42353 0.42344
 H2673 H 1.21157 0.40284 0.43586
 H2674 H 1.18664 0.41232 0.37844
 H2675 H 1.15729 0.42689 0.39343
 H2676 H 1.18237 0.41768 0.45105
 C2677 C 0.68582 0.89518 0.41323
 C2678 C 0.70104 0.90717 0.40633
 C2679 C 0.69958 0.92760 0.40823
 C2680 C 0.68295 0.93602 0.41692
 C2681 C 0.76327 0.87491 0.37347
 C2682 C 0.66921 0.90356 0.42197
 C2683 C 0.71811 0.89849 0.39727
 C2684 C 0.73236 0.89114 0.38971
 C2685 C 0.74904 0.88243 0.38091
 C2686 C 0.66757 0.92409 0.42389
 H2687 H 0.68675 0.87935 0.41177
 H2688 H 0.71129 0.93702 0.40298
 H2689 H 0.68219 0.95185 0.41835
 H2690 H 0.65748 0.89399 0.42690
 C2691 C 0.68578 0.39518 0.91309
 C2692 C 0.70111 0.40708 0.90629
 C2693 C 0.69991 0.42751 0.90847
 C2694 C 0.68341 0.43601 0.91733
 C2695 C 0.76300 0.37453 0.87315
 C2696 C 0.66931 0.40364 0.92202
 C2697 C 0.71804 0.39831 0.89707
 C2698 C 0.73219 0.39087 0.88943
 C2699 C 0.74879 0.38208 0.88058
 C2700 C 0.66792 0.42415 0.92421
 H2701 H 0.68651 0.37937 0.91140
 H2702 H 0.71172 0.43686 0.90331
 H2703 H 0.68281 0.45182 0.91894
 H2704 H 0.65750 0.39415 0.92688
 C2705 C 0.80047 0.92756 1.09166
 C2706 C 0.79910 0.90712 1.09357
 C2707 C 0.81438 0.89517 1.08674
 C2708 C 0.83100 0.90359 1.07809
 C2709 C 0.73701 0.87463 1.12624
 C2710 C 0.81711 0.93603 1.08305
 C2711 C 0.78207 0.89839 1.10258
 C2712 C 0.76785 0.89097 1.11011
 C2713 C 0.75122 0.88219 1.11885
 C2714 C 0.83256 0.92412 1.07616
 H2715 H 0.78869 0.93694 1.09684
 H2716 H 0.81351 0.87933 1.08820
 H2717 H 0.84278 0.89406 1.07321
 H2718 H 0.81782 0.95186 1.08161
 C2719 C 0.81444 0.39488 0.58620
 C2720 C 0.79920 0.40682 0.59313
 C2721 C 0.80058 0.42727 0.59131
 C2722 C 0.81717 0.43575 0.58264
 C2723 C 0.73705 0.37458 0.62587
 C2724 C 0.83102 0.40332 0.57751
 C2725 C 0.78219 0.39809 0.60215
 C2726 C 0.76795 0.39073 0.60969
 C2727 C 0.75130 0.38204 0.61846
 C2728 C 0.83258 0.42386 0.57564
 H2729 H 0.81356 0.37904 0.58761
 H2730 H 0.78883 0.43664 0.59659
 H2731 H 0.81789 0.45159 0.58127
 H2732 H 0.84278 0.39380 0.57256
 C2733 C 0.31436 0.89510 0.58650
 C2734 C 0.29900 0.90697 0.59328
 C2735 C 0.30016 0.92740 0.59122
 C2736 C 0.31668 0.93595 0.58247
 C2737 C 0.23704 0.87435 0.62606
 C2738 C 0.33086 0.90361 0.57770
 C2739 C 0.28205 0.89816 0.60237
 C2740 C 0.26787 0.89070 0.60993
 C2741 C 0.25126 0.88191 0.61868
 C2742 C 0.33222 0.92414 0.57562
 H2743 H 0.31364 0.87927 0.58809
 H2744 H 0.28831 0.93672 0.59636
 H2745 H 0.31725 0.95178 0.58091
 H2746 H 0.34271 0.89415 0.57284
 C2747 C 0.30043 0.42756 1.09144
 C2748 C 0.29911 0.40712 1.09334
 C2749 C 0.31442 0.39519 1.08653
 C2750 C 0.33101 0.40365 1.07787
 C2751 C 0.23700 0.37473 1.12599
 C2752 C 0.31704 0.43606 1.08281
 C2753 C 0.28209 0.39837 1.10233
 C2754 C 0.26786 0.39097 1.10984
 C2755 C 0.25121 0.38224 1.11858
 C2756 C 0.33251 0.42418 1.07592
 H2757 H 0.28864 0.43692 1.09662
 H2758 H 0.31358 0.37936 1.08801
 H2759 H 0.34282 0.39414 1.07299
 H2760 H 0.31772 0.45189 1.08137
 C2761 C 0.80012 1.07260 0.90832
 C2762 C 0.79887 1.09303 0.90620
 C2763 C 0.81418 1.10494 0.91300
 C2764 C 0.83070 1.09648 0.92185
 C2765 C 0.73683 1.12555 0.87323
 C2766 C 0.81667 1.06410 0.91710
 C2767 C 0.78189 1.10180 0.89705
 C2768 C 0.76769 1.10922 0.88945
 C2769 C 0.75106 1.11800 0.88065
 C2770 C 0.83215 1.07596 0.92397
 H2771 H 0.78832 1.06325 0.90317
 H2772 H 0.81341 1.12076 0.91136
 H2773 H 0.84250 1.10597 0.92672
 H2774 H 0.81731 1.04828 0.91868
 C2775 C 0.81430 0.60471 0.41362
 C2776 C 0.79899 0.59288 0.40669
 C2777 C 0.80021 0.57243 0.40858
 C2778 C 0.81672 0.56382 0.41731
 C2779 C 0.73695 0.62550 0.37405
 C2780 C 0.83079 0.59615 0.42237
 C2781 C 0.78205 0.60174 0.39764
 C2782 C 0.76786 0.60921 0.39011
 C2783 C 0.75121 0.61799 0.38140
 C2784 C 0.83220 0.57560 0.42432
 H2785 H 0.81353 0.62055 0.41217
 H2786 H 0.78841 0.56315 0.40331
 H2787 H 0.81732 0.54798 0.41874
 H2788 H 0.84260 0.60558 0.42732
 C2789 C 0.31382 1.10438 0.41378
 C2790 C 0.29849 1.09237 0.40723
 C2791 C 0.29994 1.07195 0.40918
 C2792 C 0.31669 1.06355 0.41766
 C2793 C 0.23591 1.12463 0.37526
 C2794 C 0.33054 1.09603 0.42231
 C2795 C 0.28127 1.10102 0.39849
 C2796 C 0.26689 1.10836 0.39119
 C2797 C 0.25014 1.11708 0.38263
 C2798 C 0.33216 1.07550 0.42433
 H2799 H 0.31289 1.12021 0.41223
 H2800 H 0.28814 1.06252 0.40417
 H2801 H 0.31746 1.04772 0.41918
 H2802 H 0.34234 1.10559 0.42704
 C2803 C 0.31462 0.58649 0.89492
 C2804 C 0.29924 0.59343 0.90666
 C2805 C 0.30036 0.59157 0.92712
 C2806 C 0.31683 0.58282 0.93581
 C2807 C 0.23731 0.62615 0.87373
 C2808 C 0.33106 0.57770 0.90357
 C2809 C 0.28232 0.60245 0.89767
 C2810 C 0.26816 0.60996 0.89008
 C2811 C 0.25155 0.61870 0.88121
 C2812 C 0.33236 0.57577 0.92412
 H2813 H 0.31395 0.58793 0.87907
 H2814 H 0.28850 0.59686 0.93634
 H2815 H 0.31733 0.58138 0.95165
 H2816 H 0.34291 0.57270 0.89419
 C2817 C 1.10554 1.18562 1.08645
 C2818 C 1.09373 1.20101 1.09329
 C2819 C 1.07328 1.19991 1.09130
 C2820 C 1.06464 1.18345 1.08259
 C2821 C 1.12617 1.26299 1.12602
 C2822 C 1.09694 1.16918 1.07768
 C2823 C 1.10262 1.21791 1.10235
 C2824 C 1.11007 1.23207 1.10989
 C2825 C 1.11878 1.24871 1.11863
 C2826 C 1.07639 1.16790 1.07567
 H2827 H 1.12138 1.18629 1.08797
 H2828 H 1.06402 1.21179 1.09649
 H2829 H 1.04880 1.18294 1.08109
 H2830 H 1.10635 1.15732 1.07276
 C2831 C 1.10510 0.68542 0.58649
 C2832 C 1.09324 0.70078 0.59328
 C2833 C 1.07279 0.69962 0.59128
 C2834 C 1.06422 0.68312 0.58256
 C2835 C 1.12578 0.76292 0.62559
 C2836 C 1.09657 0.66895 0.57772
 C2837 C 1.10208 0.71776 0.60223
 C2838 C 1.10955 0.73197 0.60966
 C2839 C 1.11831 0.74865 0.61827
 C2840 C 1.07603 0.66761 0.57568
 H2841 H 1.12094 0.68614 0.58805
 H2842 H 1.06348 0.71146 0.59645
 H2843 H 1.04838 0.68255 0.58104
 H2844 H 1.10602 0.65711 0.57283
 C2845 C 0.57263 1.20004 0.59150
 C2846 C 0.59309 1.20108 0.59347
 C2847 C 0.60484 1.18566 0.58662
 C2848 C 0.59619 1.16926 0.57782
 C2849 C 0.62601 1.26298 0.62590
 C2850 C 0.56393 1.18361 0.58275
 C2851 C 0.60206 1.21797 0.60246
 C2852 C 0.60964 1.23212 0.60992
 C2853 C 0.61850 1.24873 0.61857
 C2854 C 0.57564 1.16805 0.57579
 H2855 H 0.56340 1.21194 0.59670
 H2856 H 0.62068 1.18627 0.58814
 H2857 H 0.60556 1.15737 0.57290
 H2858 H 0.54809 1.18314 0.58125
 C2859 C 0.57249 0.69987 1.09168
 C2860 C 0.59294 0.70111 1.09356
 C2861 C 0.60481 0.68578 1.08672
 C2862 C 0.59630 0.66927 1.07802
 C2863 C 0.62565 0.76321 1.12575
 C2864 C 0.56392 0.68333 1.08301
 C2865 C 0.60179 0.71810 1.10246
 C2866 C 0.60929 0.73232 1.10985
 C2867 C 0.61813 0.74897 1.11844
 C2868 C 0.57575 0.66785 1.07607
 H2869 H 0.56317 0.71168 1.09690
 H2870 H 0.62066 0.68656 1.08819
 H2871 H 0.60577 0.65746 1.07311
 H2872 H 0.54808 0.68273 1.08157
 C2873 C 0.92745 1.19996 0.90881
 C2874 C 0.90701 1.20140 0.90689
 C2875 C 0.89500 1.18618 0.91371
 C2876 C 0.90338 1.16954 0.92241
 C2877 C 0.87498 1.26362 0.87394
 C2878 C 0.93586 1.18331 0.91746
 C2879 C 0.89836 1.21847 0.89785
 C2880 C 0.89106 1.23273 0.89028
 C2881 C 0.88243 1.24940 0.88145
 C2882 C 0.92392 1.16790 0.92434
 H2883 H 0.93687 1.21169 0.90361
 H2884 H 0.87917 1.18711 0.91222
 H2885 H 0.89381 1.15781 0.92730
 H2886 H 0.95170 1.18254 0.91891
 C2887 C 0.91392 0.68560 0.39442
 C2888 C 0.90705 0.70089 0.40632
 C2889 C 0.90881 0.69950 0.42677
 C2890 C 0.91736 0.68285 0.43530
 C2891 C 0.87454 0.76314 0.37393
 C2892 C 0.92250 0.66897 0.40292
 C2893 C 0.89815 0.71794 0.39752
 C2894 C 0.89069 0.73219 0.39009
 C2895 C 0.88197 0.74887 0.38136
 C2896 C 0.92433 0.66741 0.42346
 H2897 H 0.91257 0.68649 0.37858
 H2898 H 0.90357 0.71128 0.43611
 H2899 H 0.91871 0.68214 0.45114
 H2900 H 0.92743 0.65720 0.39342
 C2901 C 0.40794 1.19992 0.42655
 C2902 C 0.40614 1.20112 0.40610
 C2903 C 0.41309 1.18577 0.39433
 C2904 C 0.42182 1.16929 0.40296
 C2905 C 0.37352 1.26316 0.37337
 C2906 C 0.41663 1.18342 0.43523
 C2907 C 0.39716 1.21806 0.39715
 C2908 C 0.38966 1.23225 0.38962
 C2909 C 0.38093 1.24888 0.38081
 C2910 C 0.42369 1.16792 0.42351
 H2911 H 0.40265 1.21176 0.43579
 H2912 H 0.41171 1.18651 0.37848
 H2913 H 0.42683 1.15747 0.39356
 H2914 H 0.41801 1.18286 0.45107
 C2915 C 0.41346 0.68549 0.89505
 C2916 C 0.40667 0.70091 0.90682
 C2917 C 0.40866 0.69980 0.92727
 C2918 C 0.41738 0.68331 0.93593
 C2919 C 0.37392 0.76294 0.87420
 C2920 C 0.42224 0.66903 0.90367
 C2921 C 0.39766 0.71786 0.89791
 C2922 C 0.39014 0.73206 0.89042
 C2923 C 0.38137 0.74870 0.88165
 C2924 C 0.42430 0.66775 0.92421
 H2925 H 0.41189 0.68615 0.87922
 H2926 H 0.40348 0.71168 0.93651
 H2927 H 0.41890 0.68279 0.95176
 H2928 H 0.42713 0.65715 0.89428
 C2929 C 1.07350 0.80064 0.90805
 C2930 C 1.09396 0.79977 0.90603
 C2931 C 1.10560 0.81516 0.91309
 C2932 C 1.09683 0.83138 0.92213
 C2933 C 1.12652 0.73788 0.87321
 C2934 C 1.06469 0.81689 0.91703
 C2935 C 1.10301 0.78305 0.89682
 C2936 C 1.11054 0.76894 0.88921
 C2937 C 1.11923 0.75228 0.88048
 C2938 C 1.07627 0.83243 0.92418
 H2939 H 1.06437 0.78876 0.90270
 H2940 H 1.12145 0.81466 0.91155
 H2941 H 1.10610 0.84326 0.92721
 H2942 H 1.04884 0.81723 0.91854
 C2943 C 1.10482 0.31391 0.41378
 C2944 C 1.09296 0.29859 0.40695
 C2945 C 1.07250 0.29989 0.40878
 C2946 C 1.06393 0.31646 0.41741
 C2947 C 1.12590 0.23664 0.37458
 C2948 C 1.09630 0.33045 0.42245
 C2949 C 1.10182 0.28158 0.39806
 C2950 C 1.10938 0.26739 0.39065
 C2951 C 1.11830 0.25081 0.38199
 C2952 C 1.07575 0.33192 0.42436
 H2953 H 1.12067 0.31311 0.41231
 H2954 H 1.06318 0.28810 0.40355
 H2955 H 1.04808 0.31713 0.41880
 H2956 H 1.10577 0.34226 0.42735
 C2957 C 0.60502 0.81459 0.41344
 C2958 C 0.59325 0.79915 0.40670
 C2959 C 0.57280 0.80021 0.40872
 C2960 C 0.56412 0.81668 0.41741
 C2961 C 0.62598 0.73724 0.37414
 C2962 C 0.59638 0.83104 0.42219
 C2963 C 0.60218 0.78223 0.39773
 C2964 C 0.60969 0.76806 0.39025
 C2965 C 0.61849 0.75146 0.38154
 C2966 C 0.57583 0.83227 0.42425
 H2967 H 0.62085 0.81396 0.41185
 H2968 H 0.56357 0.78831 0.40358
 H2969 H 0.54828 0.81717 0.41896
 H2970 H 0.60576 0.84294 0.42703
 C2971 C 0.57278 0.30051 0.90838
 C2972 C 0.59322 0.29918 0.90650
 C2973 C 0.60514 0.31443 0.91343
 C2974 C 0.59665 0.33095 0.92219
 C2975 C 0.62541 0.23701 0.87377
 C2976 C 0.56425 0.31704 0.91711
 C2977 C 0.60199 0.28220 0.89747
 C2978 C 0.60936 0.26796 0.88994
 C2979 C 0.61801 0.25128 0.88119
 C2980 C 0.57610 0.33245 0.92412
 H2981 H 0.56343 0.28876 0.90310
 H2982 H 0.62098 0.31358 0.91197
 H2983 H 0.60615 0.34270 0.92717
 H2984 H 0.54841 0.31771 0.91854
 C2985 C 0.92711 0.80014 1.09135
 C2986 C 0.90665 0.79911 1.09332
 C2987 C 0.89490 0.81457 1.08656
 C2988 C 0.90354 0.83103 1.07785
 C2989 C 0.87393 0.73709 1.12576
 C2990 C 0.93580 0.81663 1.08270
 C2991 C 0.89770 0.78218 1.10228
 C2992 C 0.89018 0.76800 1.10974
 C2993 C 0.88138 0.75136 1.11841
 C2994 C 0.92410 0.83225 1.07585
 H2995 H 0.93633 0.78821 1.09650
 H2996 H 0.87905 0.81395 1.08809
 H2997 H 0.89418 0.84296 1.07299
 H2998 H 0.95164 0.81710 1.08120
 C2999 C 0.92675 0.29999 0.59165
 C3000 C 0.90630 0.29903 0.59372
 C3001 C 0.89456 0.31446 0.58683
 C3002 C 0.90323 0.33083 0.57796
 C3003 C 0.87360 0.23719 0.62655
 C3004 C 0.93546 0.31638 0.58284
 C3005 C 0.89733 0.28222 0.60287
 C3006 C 0.88981 0.26810 0.61046
 C3007 C 0.88103 0.25149 0.61921
 C3008 C 0.92379 0.33198 0.57590
 H3009 H 0.93595 0.28806 0.59685
 H3010 H 0.87872 0.31389 0.58838
 H3011 H 0.89389 0.34274 0.57301
 H3012 H 0.95130 0.31679 0.58129
 C3013 C 0.42658 0.80066 0.59191
 C3014 C 0.40611 0.79953 0.59371
 C3015 C 0.39435 0.81491 0.58675
 C3016 C 0.40300 0.83135 0.57800
 C3017 C 0.37332 0.73737 0.62586
 C3018 C 0.43527 0.81712 0.58320
 C3019 C 0.39715 0.78259 0.60263
 C3020 C 0.38959 0.76838 0.61002
 C3021 C 0.38077 0.75170 0.61859
 C3022 C 0.42357 0.83264 0.57612
 H3023 H 0.43582 0.78880 0.59721
 H3024 H 0.37850 0.81422 0.58814
 H3025 H 0.39361 0.84320 0.57299
 H3026 H 0.45112 0.81763 0.58180
 C3027 C 0.39488 0.31439 1.08650
 C3028 C 0.40672 0.29899 1.09327
 C3029 C 0.42718 0.30022 1.09144
 C3030 C 0.43578 0.31682 1.08289
 C3031 C 0.37389 0.23688 1.12550
 C3032 C 0.40343 0.33096 1.07791
 C3033 C 0.39784 0.28195 1.10211
 C3034 C 0.39031 0.26773 1.10949
 C3035 C 0.38144 0.25109 1.11812
 C3036 C 0.42398 0.33236 1.07601
 H3037 H 0.37903 0.31362 1.08794
 H3038 H 0.43648 0.28836 1.09660
 H3039 H 0.45162 0.31743 1.08147
 H3040 H 0.39398 0.34282 1.07303
 C3041 C 1.10506 1.08730 0.81354
 C3042 C 1.09305 1.09409 0.79828
 C3043 C 1.07262 1.09208 0.79966
 C3044 C 1.06422 1.08336 0.81627
 C3045 C 1.12534 1.12699 0.73616
 C3046 C 1.09669 1.07854 0.83014
 C3047 C 1.10172 1.10316 0.78124
 C3048 C 1.10908 1.11074 0.76701
 C3049 C 1.11780 1.11955 0.75037
 C3050 C 1.07617 1.07648 0.83170
 H3051 H 1.12089 1.08887 0.81267
 H3052 H 1.06319 1.09724 0.78791
 H3053 H 1.04839 1.08183 0.81699
 H3054 H 1.10626 1.07367 0.84190
 C3055 C 1.08651 0.60536 0.31329
 C3056 C 1.09338 0.59353 0.29795
 C3057 C 1.09177 0.57307 0.29932
 C3058 C 1.08331 0.56445 0.31596
 C3059 C 1.12565 0.62635 0.23578
 C3060 C 1.07803 0.59679 0.32992
 C3061 C 1.10215 0.60243 0.28087
 C3062 C 1.10951 0.60996 0.26662
 C3063 C 1.11818 0.61882 0.24998
 C3064 C 1.07631 0.57623 0.33144
 H3065 H 1.08778 0.62121 0.31243
 H3066 H 1.09703 0.56377 0.28751
 H3067 H 1.08204 0.54861 0.31665
 H3068 H 1.07308 0.60624 0.34172
 C3069 C 0.57272 1.09177 0.29969
 C3070 C 0.59317 1.09365 0.29838
 C3071 C 0.60507 1.08683 0.31371
 C3072 C 0.59659 1.07817 0.33029
 C3073 C 0.62597 1.12638 0.23643
 C3074 C 0.56419 1.08316 0.31630
 C3075 C 0.60198 1.10263 0.28136
 C3076 C 0.60948 1.11015 0.26717
 C3077 C 0.61835 1.11893 0.25059
 C3078 C 0.57605 1.07625 0.33178
 H3079 H 0.56337 1.09696 0.28789
 H3080 H 0.62092 1.08829 0.31289
 H3081 H 0.60608 1.07328 0.34210
 H3082 H 0.54835 1.08173 0.31697
 C3083 C 0.57283 0.59184 0.79987
 C3084 C 0.59328 0.59386 0.79880
 C3085 C 0.60507 0.58684 0.81411
 C3086 C 0.59648 0.57787 0.83047
 C3087 C 0.62636 0.62681 0.73717
 C3088 C 0.56419 0.58290 0.81625
 C3089 C 0.60222 0.60308 0.78199
 C3090 C 0.60983 0.61069 0.76792
 C3091 C 0.61878 0.61946 0.75139
 C3092 C 0.57593 0.57585 0.83175
 H3093 H 0.56356 0.59716 0.78805
 H3094 H 0.62091 0.58838 0.81346
 H3095 H 0.60591 0.57284 0.84227
 H3096 H 0.54835 0.58137 0.81674
 C3097 C 0.90865 0.92682 0.79993
 C3098 C 0.90686 0.90636 0.79885
 C3099 C 0.91379 0.89463 0.81425
 C3100 C 0.92247 0.90331 0.83069
 C3101 C 0.87438 0.87365 0.73688
 C3102 C 0.91730 0.93555 0.81639
 C3103 C 0.89792 0.89738 0.78194
 C3104 C 0.89047 0.88983 0.76778
 C3105 C 0.88179 0.88104 0.75115
 C3106 C 0.92432 0.92388 0.83195
 H3107 H 0.90337 0.93603 0.78804
 H3108 H 0.91243 0.87879 0.81360
 H3109 H 0.92746 0.89395 0.84257
 H3110 H 0.91868 0.95139 0.81687
 C3111 C 0.89494 0.41355 0.31343
 C3112 C 0.90691 0.40682 0.29813
 C3113 C 0.92735 0.40867 0.29955
 C3114 C 0.93581 0.41721 0.31620
 C3115 C 0.87496 0.37442 0.23569
 C3116 C 0.90335 0.42213 0.33008
 C3117 C 0.89824 0.39796 0.28101
 C3118 C 0.89097 0.39054 0.26668
 C3119 C 0.88239 0.38185 0.24994
 C3120 C 0.92389 0.42406 0.33164
 H3121 H 0.87910 0.41210 0.31254
 H3122 H 0.93675 0.40353 0.28778
 H3123 H 0.95164 0.41864 0.31693
 H3124 H 0.89382 0.42696 0.34187
 C3125 C 0.42717 0.90793 0.29945
 C3126 C 0.40672 0.90603 0.29816
 C3127 C 0.39480 0.91315 0.31331
 C3128 C 0.40326 0.92209 0.32974
 C3129 C 0.37439 0.87277 0.23635
 C3130 C 0.43568 0.91684 0.31589
 C3131 C 0.39795 0.89678 0.28129
 C3132 C 0.39054 0.88911 0.26716
 C3133 C 0.38183 0.88024 0.25057
 C3134 C 0.42381 0.92399 0.33124
 H3135 H 0.43653 0.90252 0.28776
 H3136 H 0.37896 0.91170 0.31249
 H3137 H 0.39375 0.92718 0.34144
 H3138 H 0.45152 0.91827 0.31655
 C3139 C 0.39492 0.41331 0.81373
 C3140 C 0.40682 0.40622 0.79853
 C3141 C 0.42727 0.40812 0.79981
 C3142 C 0.43581 0.41701 0.81625
 C3143 C 0.37442 0.37291 0.73676
 C3144 C 0.40342 0.42222 0.83016
 C3145 C 0.39802 0.39697 0.78167
 C3146 C 0.39060 0.38928 0.76755
 C3147 C 0.38188 0.38037 0.75098
 C3148 C 0.42397 0.42416 0.83162
 H3149 H 0.37908 0.41186 0.81294
 H3150 H 0.43661 0.40272 0.78810
 H3151 H 0.45165 0.41842 0.81687
 H3152 H 0.39393 0.42727 0.84190
 C3153 C 1.10561 0.91277 1.18589
 C3154 C 1.09390 0.90575 1.20126
 C3155 C 1.07344 0.90782 1.20031
 C3156 C 1.06471 0.91676 1.18396
 C3157 C 1.12739 0.87183 1.26220
 C3158 C 1.09693 0.92174 1.16958
 C3159 C 1.10295 0.89631 1.21791
 C3160 C 1.11067 0.88845 1.23180
 C3161 C 1.11974 0.87938 1.24812
 C3162 C 1.07637 0.92381 1.16841
 H3163 H 1.12145 0.91118 1.18645
 H3164 H 1.06424 0.90250 1.21217
 H3165 H 1.04887 0.91828 1.18353
 H3166 H 1.10627 0.92672 1.15770
 C3167 C 1.10467 0.41279 0.68630
 C3168 C 1.09272 0.40599 0.70160
 C3169 C 1.07229 0.40806 0.70032
 C3170 C 1.06381 0.41684 0.68377
 C3171 C 1.12523 0.37320 0.76363
 C3172 C 1.09624 0.42160 0.66977
 C3173 C 1.10146 0.39692 0.71859
 C3174 C 1.10888 0.38937 0.73280
 C3175 C 1.11766 0.38061 0.74942
 C3176 C 1.07570 0.42371 0.66831
 H3177 H 1.12050 0.41118 0.68710
 H3178 H 1.06291 0.40288 0.71210
 H3179 H 1.04798 0.41840 0.68312
 H3180 H 1.10575 0.42646 0.65797
 C3181 C 0.60485 0.91339 0.68591
 C3182 C 0.59301 0.90643 0.70121
 C3183 C 0.57256 0.90841 0.70004
 C3184 C 0.56396 0.91726 0.68359
 C3185 C 0.62571 0.87376 0.76321
 C3186 C 0.59630 0.92227 0.66948
 C3187 C 0.60188 0.89733 0.71812
 C3188 C 0.60938 0.88979 0.73230
 C3189 C 0.61819 0.88109 0.74894
 C3190 C 0.57575 0.92427 0.66812
 H3191 H 0.62069 0.91187 0.68665
 H3192 H 0.56326 0.90312 0.71183
 H3193 H 0.54812 0.91876 0.68302
 H3194 H 0.60574 0.92725 0.65768
 C3195 C 0.60500 0.41316 1.18672
 C3196 C 0.59304 0.40624 1.20195
 C3197 C 0.57259 0.40802 1.20052
 C3198 C 0.56411 0.41670 1.18392
 C3199 C 0.62546 0.37388 1.26425
 C3200 C 0.59656 0.42185 1.17013
 C3201 C 0.60178 0.39733 1.21903
 C3202 C 0.60920 0.38991 1.23331
 C3203 C 0.61795 0.38126 1.25000
 C3204 C 0.57602 0.42375 1.16854
 H3205 H 0.62084 0.41176 1.18764
 H3206 H 0.56320 0.40272 1.21223
 H3207 H 0.54827 0.41808 1.18318
 H3208 H 0.60611 0.42680 1.15839
 C3209 C 0.90921 1.07339 1.20014
 C3210 C 0.90726 1.09384 1.20125
 C3211 C 0.91398 1.10562 1.18579
 C3212 C 0.92260 1.09700 1.16927
 C3213 C 0.87413 1.12622 1.26310
 C3214 C 0.91778 1.06473 1.18359
 C3215 C 0.89824 1.10273 1.21817
 C3216 C 0.89065 1.11017 1.23233
 C3217 C 0.88174 1.11885 1.24891
 C3218 C 0.92457 1.07645 1.16798
 H3219 H 0.90410 1.06414 1.21205
 H3220 H 0.91247 1.12146 1.18646
 H3221 H 0.92741 1.10639 1.15735
 H3222 H 0.91925 1.04889 1.18307
 C3223 C 0.89504 0.58667 0.68590
 C3224 C 0.90695 0.59352 0.70119
 C3225 C 0.92739 0.59145 0.69996
 C3226 C 0.93591 0.58265 0.68346
 C3227 C 0.87436 0.62646 0.76308
 C3228 C 0.90351 0.57781 0.66943
 C3229 C 0.89815 0.60265 0.71812
 C3230 C 0.89070 0.61024 0.73228
 C3231 C 0.88190 0.61904 0.74888
 C3232 C 0.92405 0.57573 0.66801
 H3233 H 0.87921 0.58827 0.68666
 H3234 H 0.93674 0.59665 0.71175
 H3235 H 0.95174 0.58110 0.68284
 H3236 H 0.89403 0.57290 0.65764
 C3237 C 0.41376 1.10497 0.68610
 C3238 C 0.40692 1.09314 0.70145
 C3239 C 0.40872 1.07268 0.70021
 C3240 C 0.41729 1.06408 0.68364
 C3241 C 0.37439 1.12614 0.76324
 C3242 C 0.42238 1.09642 0.66956
 C3243 C 0.39802 1.10204 0.71842
 C3244 C 0.39058 1.10961 0.73258
 C3245 C 0.38187 1.11854 0.74912
 C3246 C 0.42424 1.07587 0.66814
 H3247 H 0.41235 1.12082 0.68687
 H3248 H 0.40350 1.06339 0.71205
 H3249 H 0.41867 1.04824 0.68302
 H3250 H 0.42729 1.10586 0.65773
 C3251 C 0.41340 0.60571 1.18593
 C3252 C 0.40654 0.59403 1.20140
 C3253 C 0.40833 0.57356 1.20036
 C3254 C 0.41693 0.56478 1.18389
 C3255 C 0.37429 0.62707 1.26334
 C3256 C 0.42203 0.59698 1.16949
 C3257 C 0.39768 0.60309 1.21832
 C3258 C 0.39029 0.61070 1.23248
 C3259 C 0.38166 0.61958 1.24910
 C3260 C 0.42391 0.57641 1.16829
 H3261 H 0.41202 0.62156 1.18655
 H3262 H 0.40310 0.56440 1.21229
 H3263 H 0.41831 0.54894 1.18344
 H3264 H 0.42697 0.60630 1.15757
 C3265 C 1.07253 1.20021 0.90823
 C3266 C 1.09297 1.20147 0.90629
 C3267 C 1.10488 1.18615 0.91314
 C3268 C 1.09640 1.16963 0.92191
 C3269 C 1.12576 1.26354 0.87392
 C3270 C 1.06400 1.18368 0.91698
 C3271 C 1.10178 1.21848 0.89733
 C3272 C 1.10928 1.23270 0.88989
 C3273 C 1.11815 1.24933 0.88125
 C3274 C 1.07586 1.16820 0.92393
 H3275 H 1.06318 1.21201 0.90300
 H3276 H 1.12071 1.18693 0.91163
 H3277 H 1.10589 1.15782 0.92681
 H3278 H 1.04817 1.18306 0.91846
 C3279 C 1.07273 0.69996 0.40841
 C3280 C 1.09318 0.70156 0.40673
 C3281 C 1.10521 0.68625 0.41341
 C3282 C 1.09686 0.66945 0.42180
 C3283 C 1.12533 0.76454 0.37525
 C3284 C 1.06434 0.68314 0.41676
 C3285 C 1.10184 0.71886 0.39814
 C3286 C 1.10920 0.73331 0.39095
 C3287 C 1.11788 0.75017 0.38251
 C3288 C 1.07633 0.66772 0.42361
 H3289 H 1.06326 0.71172 0.40331
 H3290 H 1.12105 0.68728 0.41209
 H3291 H 1.10647 0.65769 0.42661
 H3292 H 1.04850 0.68229 0.41808
 C3293 C 0.60510 1.18627 0.41270
 C3294 C 0.59327 1.20158 0.40569
 C3295 C 0.57282 1.20043 0.40766
 C3296 C 0.56421 1.18399 0.41652
 C3297 C 0.62598 1.26335 0.37253
 C3298 C 0.59654 1.16985 0.42160
 C3299 C 0.60215 1.21843 0.39646
 C3300 C 0.60964 1.23254 0.38879
 C3301 C 0.61845 1.24912 0.37994
 C3302 C 0.57598 1.16851 0.42360
 H3303 H 0.62094 1.18697 0.41120
 H3304 H 0.56353 1.21223 0.40233
 H3305 H 0.54837 1.18345 0.41798
 H3306 H 0.60597 1.15804 0.42660
 C3307 C 0.60521 0.68559 0.91336
 C3308 C 0.59331 0.70094 0.90655
 C3309 C 0.57287 0.69975 0.90861
 C3310 C 0.56434 0.68322 0.91737
 C3311 C 0.62575 0.76308 0.87399
 C3312 C 0.59673 0.66910 0.92217
 C3313 C 0.60210 0.71790 0.89750
 C3314 C 0.60953 0.73212 0.88999
 C3315 C 0.61827 0.74879 0.88131
 C3316 C 0.57619 0.66771 0.92423
 H3317 H 0.62104 0.68634 0.91177
 H3318 H 0.56352 0.71158 0.90346
 H3319 H 0.54851 0.68262 0.91893
 H3320 H 0.60620 0.65727 0.92706
 C3321 C 0.91385 1.18558 1.10552
 C3322 C 0.90698 1.20103 1.09381
 C3323 C 0.90866 1.19988 1.07333
 C3324 C 0.91715 1.18331 1.06460
 C3325 C 0.87480 1.26302 1.12699
 C3326 C 0.92237 1.16904 1.09683
 C3327 C 0.89820 1.21802 1.10285
 C3328 C 0.89085 1.23221 1.11051
 C3329 C 0.88223 1.24881 1.11946
 C3330 C 0.92413 1.16771 1.07627
 H3331 H 0.91255 1.18628 1.12137
 H3332 H 0.90344 1.21179 1.06413
 H3333 H 0.91846 1.18278 1.04875
 H3334 H 0.92734 1.15716 1.10620
 C3335 C 0.89504 0.68565 0.58630
 C3336 C 0.90687 0.70091 0.59332
 C3337 C 0.92732 0.69976 0.59133
 C3338 C 0.93593 0.68335 0.58245
 C3339 C 0.87441 0.76281 0.62636
 C3340 C 0.90360 0.66926 0.57737
 C3341 C 0.89801 0.71776 0.60254
 C3342 C 0.89057 0.73190 0.61018
 C3343 C 0.88185 0.74853 0.61899
 C3344 C 0.92416 0.66789 0.57539
 H3345 H 0.87920 0.68636 0.58782
 H3346 H 0.93660 0.71153 0.59666
 H3347 H 0.95177 0.68279 0.58097
 H3348 H 0.89417 0.65747 0.57236
 C3349 C 0.39452 1.18580 0.58663
 C3350 C 0.40643 1.20100 0.59366
 C3351 C 0.42688 1.19965 0.59184
 C3352 C 0.43541 1.18314 0.58307
 C3353 C 0.37399 1.26307 0.62646
 C3354 C 0.40301 1.16929 0.57783
 C3355 C 0.39763 1.21795 0.60276
 C3356 C 0.39020 1.23214 0.61033
 C3357 C 0.38147 1.24880 0.61908
 C3358 C 0.42356 1.16776 0.57597
 H3359 H 0.37868 1.18665 0.58803
 H3360 H 0.43624 1.21136 0.59719
 H3361 H 0.45126 1.18245 0.58169
 H3362 H 0.39351 1.15756 0.57280
 C3363 C 0.39503 0.68621 1.08697
 C3364 C 0.40703 0.70136 1.09395
 C3365 C 0.42747 0.69992 1.09202
 C3366 C 0.43588 0.68334 1.08324
 C3367 C 0.37463 0.76340 1.12688
 C3368 C 0.40339 0.66966 1.07814
 C3369 C 0.39833 0.71835 1.10308
 C3370 C 0.39092 0.73255 1.11067
 C3371 C 0.38215 0.74918 1.11946
 C3372 C 0.42393 0.66801 1.07622
 H3373 H 0.37919 0.68715 1.08844
 H3374 H 0.43690 0.71159 1.09732
 H3375 H 0.45172 0.68258 1.08180
 H3376 H 0.39381 0.65799 1.07314
 C3377 C 0.89511 0.81441 0.91311
 C3378 C 0.90705 0.79913 0.90627
 C3379 C 0.92749 0.80042 0.90826
 C3380 C 0.93597 0.81695 0.91703
 C3381 C 0.87439 0.73711 0.87377
 C3382 C 0.90354 0.83092 0.92192
 C3383 C 0.89828 0.78215 0.89725
 C3384 C 0.89081 0.76795 0.88978
 C3385 C 0.88197 0.75132 0.88111
 C3386 C 0.92407 0.83239 0.92397
 H3387 H 0.87928 0.81360 0.91156
 H3388 H 0.93687 0.78865 0.90305
 H3389 H 0.95180 0.81760 0.91855
 H3390 H 0.89401 0.84270 0.92683
 C3391 C 0.92766 0.29987 0.40821
 C3392 C 0.90721 0.29865 0.40624
 C3393 C 0.89533 0.31397 0.41310
 C3394 C 0.90383 0.33045 0.42187
 C3395 C 0.87421 0.23684 0.37367
 C3396 C 0.93621 0.31638 0.41694
 C3397 C 0.89835 0.28171 0.39721
 C3398 C 0.89079 0.26757 0.38971
 C3399 C 0.88185 0.25102 0.38102
 C3400 C 0.92438 0.33186 0.42387
 H3401 H 0.93699 0.28806 0.40299
 H3402 H 0.87949 0.31322 0.41158
 H3403 H 0.89436 0.34226 0.42678
 H3404 H 0.95205 0.31699 0.41843
 C3405 C 0.42696 0.80012 0.40816
 C3406 C 0.40651 0.79892 0.40619
 C3407 C 0.39464 0.81421 0.41313
 C3408 C 0.40315 0.83066 0.42197
 C3409 C 0.37385 0.73698 0.37355
 C3410 C 0.43552 0.81659 0.41696
 C3411 C 0.39767 0.78201 0.39710
 C3412 C 0.39017 0.76785 0.38958
 C3413 C 0.38136 0.75123 0.38088
 C3414 C 0.42370 0.83206 0.42394
 H3415 H 0.43628 0.78833 0.40290
 H3416 H 0.37880 0.81346 0.41162
 H3417 H 0.39368 0.84245 0.42694
 H3418 H 0.45136 0.81717 0.41845
 C3419 C 0.42764 0.30009 0.90890
 C3420 C 0.40720 0.29887 0.90680
 C3421 C 0.39528 0.31423 0.91351
 C3422 C 0.40374 0.33076 0.92226
 C3423 C 0.37452 0.23703 0.87397
 C3424 C 0.43614 0.31665 0.91758
 C3425 C 0.39841 0.28192 0.89774
 C3426 C 0.39094 0.26776 0.89019
 C3427 C 0.38210 0.25119 0.88141
 C3428 C 0.42427 0.33217 0.92435
 H3429 H 0.43699 0.28825 0.90380
 H3430 H 0.37945 0.31348 0.91188
 H3431 H 0.39425 0.34260 0.92706
 H3432 H 0.45197 0.31727 0.91915
 C3433 C 1.07250 0.79968 1.09185
 C3434 C 1.09294 0.79826 1.09382
 C3435 C 1.10493 0.81351 1.08702
 C3436 C 1.09656 0.83013 1.07828
 C3437 C 1.12550 0.73610 1.12647
 C3438 C 1.06408 0.81631 1.08314
 C3439 C 1.10165 0.78119 1.10282
 C3440 C 1.10908 0.76694 1.11032
 C3441 C 1.11790 0.75030 1.11905
 C3442 C 1.07603 0.83173 1.07626
 H3443 H 1.06308 0.78795 1.09704
 H3444 H 1.12076 0.81261 1.08856
 H3445 H 1.10612 0.84188 1.07342
 H3446 H 1.04825 0.81706 1.08165
 C3447 C 1.10500 0.31371 0.58693
 C3448 C 1.09301 0.29847 0.59377
 C3449 C 1.07258 0.29981 0.59168
 C3450 C 1.06416 0.31636 0.58283
 C3451 C 1.12536 0.23638 0.62676
 C3452 C 1.09662 0.33024 0.57804
 C3453 C 1.10171 0.28147 0.60292
 C3454 C 1.10909 0.26726 0.61053
 C3455 C 1.11783 0.25061 0.61934
 C3456 C 1.07609 0.33177 0.57592
 H3457 H 1.12083 0.31286 0.58855
 H3458 H 1.06317 0.28808 0.59689
 H3459 H 1.04833 0.31705 0.58126
 H3460 H 1.10617 0.34200 0.57315
 C3461 C 0.57241 0.80010 0.59119
 C3462 C 0.59285 0.79882 0.59324
 C3463 C 0.60477 0.81418 0.58656
 C3464 C 0.59632 0.83076 0.57786
 C3465 C 0.62558 0.73649 0.62527
 C3466 C 0.56391 0.81672 0.58255
 C3467 C 0.60165 0.78174 0.60210
 C3468 C 0.60915 0.76746 0.60945
 C3469 C 0.61801 0.75075 0.61798
 C3470 C 0.57579 0.83223 0.57579
 H3471 H 0.56305 0.78826 0.59626
 H3472 H 0.62060 0.81336 0.58814
 H3473 H 0.60582 0.84258 0.57304
 H3474 H 0.54808 0.81737 0.58097
 C3475 C 0.59101 0.30010 1.07315
 C3476 C 0.59274 0.29876 1.09360
 C3477 C 0.58595 0.31412 1.10544
 C3478 C 0.57745 0.33077 1.09689
 C3479 C 0.62546 0.23678 1.12640
 C3480 C 0.58254 0.31676 1.06455
 C3481 C 0.60160 0.28170 1.10247
 C3482 C 0.60907 0.26749 1.11000
 C3483 C 0.61788 0.25092 1.11887
 C3484 C 0.57563 0.33227 1.07634
 H3485 H 0.59621 0.28828 1.06385
 H3486 H 0.58729 0.31328 1.12129
 H3487 H 0.57259 0.34260 1.10635
 H3488 H 0.58120 0.31743 1.04871
 C3489 C 1.18630 1.08596 0.89504
 C3490 C 1.20161 1.09258 0.90706
 C3491 C 1.20011 1.09071 0.92749
 C3492 C 1.18333 1.08231 0.93588
 C3493 C 1.26373 1.12535 0.87481
 C3494 C 1.16955 1.07752 0.90339
 C3495 C 1.21875 1.10144 0.89841
 C3496 C 1.23301 1.10892 0.89106
 C3497 C 1.24962 1.11775 0.88234
 C3498 C 1.16787 1.07560 0.92392
 H3499 H 1.18727 1.08742 0.87921
 H3500 H 1.21189 1.09577 0.93693
 H3501 H 1.18252 1.08088 0.95171
 H3502 H 1.15776 1.07278 0.89381
 C3503 C 1.20007 0.57301 0.40874
 C3504 C 1.20119 0.59347 0.40682
 C3505 C 1.18574 0.60525 0.41354
 C3506 C 1.16922 0.59664 0.42218
 C3507 C 1.26338 0.62629 0.37472
 C3508 C 1.18352 0.56436 0.41733
 C3509 C 1.21821 0.60239 0.39799
 C3510 C 1.23245 0.60992 0.39064
 C3511 C 1.24913 0.61876 0.38205
 C3512 C 1.16792 0.57610 0.42416
 H3513 H 1.21198 0.56376 0.40363
 H3514 H 1.18642 0.62109 0.41204
 H3515 H 1.15731 0.60604 0.42703
 H3516 H 1.18300 0.54853 0.41883
 C3517 C 0.68528 1.08623 0.39497
 C3518 C 0.70058 1.09307 0.40688
 C3519 C 0.69926 1.09120 0.42732
 C3520 C 0.68266 1.08258 0.43584
 C3521 C 0.76281 1.12557 0.37458
 C3522 C 0.66870 1.07759 0.40345
 C3523 C 0.71760 1.10202 0.39810
 C3524 C 0.73185 1.10948 0.39070
 C3525 C 0.74854 1.11818 0.38200
 C3526 C 0.66720 1.07568 0.42399
 H3527 H 0.68613 1.08767 0.37914
 H3528 H 0.71106 1.09639 0.43666
 H3529 H 0.68199 1.08116 0.45167
 H3530 H 0.65691 1.07269 0.39396
 C3531 C 0.69950 0.57291 0.90875
 C3532 C 0.70082 0.59336 0.90697
 C3533 C 0.68552 0.60524 0.91389
 C3534 C 0.66895 0.59672 0.92253
 C3535 C 0.76305 0.62572 0.87449
 C3536 C 0.68292 0.56435 0.91736
 C3537 C 0.71783 0.60217 0.89803
 C3538 C 0.73208 0.60959 0.89057
 C3539 C 0.74877 0.61830 0.88188
 C3540 C 0.66745 0.57617 0.92434
 H3541 H 0.71130 0.56359 0.90350
 H3542 H 0.68635 0.62108 0.91252
 H3543 H 0.65716 0.60620 0.92750
 H3544 H 0.68227 0.54851 0.91873
 C3545 C 1.18601 0.89472 1.08675
 C3546 C 1.20136 0.90660 1.09354
 C3547 C 1.20005 0.92704 1.09159
 C3548 C 1.18344 0.93559 1.08294
 C3549 C 1.26370 0.87402 1.12592
 C3550 C 1.16944 0.90322 1.07805
 C3551 C 1.21842 0.89778 1.10249
 C3552 C 1.23268 0.89031 1.10992
 C3553 C 1.24940 0.88151 1.11857
 C3554 C 1.16795 0.92376 1.07606
 H3555 H 1.18683 0.87889 1.08824
 H3556 H 1.21187 0.93638 1.09674
 H3557 H 1.18279 0.95142 1.08146
 H3558 H 1.15763 0.89374 1.07317
 C3559 C 1.19974 0.42691 0.59123
 C3560 C 1.20107 0.40645 0.59302
 C3561 C 1.18574 0.39460 0.58619
 C3562 C 1.16913 0.40313 0.57759
 C3563 C 1.26331 0.37377 0.62532
 C3564 C 1.18310 0.43548 0.58268
 C3565 C 1.21812 0.39760 0.60189
 C3566 C 1.23238 0.39010 0.60930
 C3567 C 1.24906 0.38128 0.61794
 C3568 C 1.16762 0.42368 0.57576
 H3569 H 1.21155 0.43622 0.59643
 H3570 H 1.18658 0.37875 0.58758
 H3571 H 1.15733 0.39366 0.57267
 H3572 H 1.18243 0.45132 0.58131
 C3573 C 0.68535 0.89492 0.58643
 C3574 C 0.70067 0.90680 0.59327
 C3575 C 0.69933 0.92725 0.59141
 C3576 C 0.68272 0.93579 0.58279
 C3577 C 0.76293 0.87428 0.62571
 C3578 C 0.66876 0.90342 0.57777
 C3579 C 0.71772 0.89799 0.60218
 C3580 C 0.73198 0.89053 0.60963
 C3581 C 0.74867 0.88176 0.61831
 C3582 C 0.66725 0.92397 0.57587
 H3583 H 0.68620 0.87908 0.58787
 H3584 H 0.71113 0.93658 0.59661
 H3585 H 0.68205 0.95163 0.58137
 H3586 H 0.65697 0.89394 0.57286
 C3587 C 0.68642 0.39501 1.08652
 C3588 C 0.70163 0.40701 1.09340
 C3589 C 0.70011 0.42744 1.09158
 C3590 C 0.68342 0.43586 1.08299
 C3591 C 0.76396 0.37497 1.12629
 C3592 C 0.66974 0.40339 1.07790
 C3593 C 0.71874 0.39835 1.10239
 C3594 C 0.73303 0.39104 1.10994
 C3595 C 0.74973 0.38242 1.11878
 C3596 C 0.66804 0.42393 1.07605
 H3597 H 0.68740 0.37917 1.08793
 H3598 H 0.71182 0.43687 1.09682
 H3599 H 0.68261 0.45170 1.08163
 H3600 H 0.65803 0.39382 1.07299
 C3601 C 0.79996 1.07189 1.09128
 C3602 C 0.79848 1.09232 1.09317
 C3603 C 0.81375 1.10433 1.08644
 C3604 C 0.83042 1.09598 1.07783
 C3605 C 0.73639 1.12499 1.12576
 C3606 C 0.81667 1.06350 1.08272
 C3607 C 0.78136 1.10102 1.10207
 C3608 C 0.76711 1.10847 1.10951
 C3609 C 0.75050 1.11734 1.11825
 C3610 C 0.83208 1.07546 1.07588
 H3611 H 0.78821 1.06246 1.09643
 H3612 H 0.81280 1.12016 1.08793
 H3613 H 0.84218 1.10556 1.07300
 H3614 H 0.81747 1.04767 1.08128
 C3615 C 0.80059 0.59091 0.57236
 C3616 C 0.79909 0.59274 0.59278
 C3617 C 0.81435 0.58594 0.60480
 C3618 C 0.83105 0.57735 0.59643
 C3619 C 0.73679 0.62555 0.62482
 C3620 C 0.81729 0.58237 0.56395
 C3621 C 0.78197 0.60168 0.60143
 C3622 C 0.76767 0.60920 0.60873
 C3623 C 0.75099 0.61802 0.61736
 C3624 C 0.83271 0.57548 0.57590
 H3625 H 0.78884 0.59610 0.56292
 H3626 H 0.81340 0.58735 0.62062
 H3627 H 0.84279 0.57247 0.60601
 H3628 H 0.81808 0.58097 0.54813
 C3629 C 0.31419 1.10536 0.58658
 C3630 C 0.29880 1.09352 0.59335
 C3631 C 0.29999 1.07309 0.59130
 C3632 C 0.31653 1.06451 0.58258
 C3633 C 0.23661 1.12603 0.62599
 C3634 C 0.33070 1.09684 0.57780
 C3635 C 0.28181 1.10237 0.60238
 C3636 C 0.26759 1.10984 0.60989
 C3637 C 0.25091 1.11859 0.61860
 C3638 C 0.33206 1.07631 0.57572
 H3639 H 0.31347 1.12119 0.58817
 H3640 H 0.28813 1.06378 0.59643
 H3641 H 0.31710 1.04869 0.58103
 H3642 H 0.34255 1.10628 0.57294
 C3643 C 0.29977 0.57233 1.09102
 C3644 C 0.29833 0.59276 1.09289
 C3645 C 0.31366 0.60474 1.08624
 C3646 C 0.33037 0.59635 1.07775
 C3647 C 0.23630 0.62550 1.12545
 C3648 C 0.31652 0.56389 1.08258
 C3649 C 0.28121 0.60149 1.10175
 C3650 C 0.26698 0.60897 1.10918
 C3651 C 0.25040 0.61786 1.11793
 C3652 C 0.33200 0.57583 1.07585
 H3653 H 0.28797 0.56292 1.09608
 H3654 H 0.31273 0.62057 1.08771
 H3655 H 0.34217 0.60591 1.07299
 H3656 H 0.31730 0.54806 1.08115
 C3657 C 0.80045 0.92755 0.90879
 C3658 C 0.79927 0.90710 0.90684
 C3659 C 0.81466 0.89525 0.91363
 C3660 C 0.83117 0.90378 0.92235
 C3661 C 0.73721 0.87440 0.87440
 C3662 C 0.81700 0.93612 0.91745
 C3663 C 0.78228 0.89825 0.89789
 C3664 C 0.76808 0.89075 0.89045
 C3665 C 0.75144 0.88192 0.88178
 C3666 C 0.83253 0.92432 0.92434
 H3667 H 0.78860 0.93685 0.90362
 H3668 H 0.81393 0.87942 0.91211
 H3669 H 0.84303 0.89433 0.92723
 H3670 H 0.81758 0.95195 0.91894
 C3671 C 0.81385 0.41360 0.39459
 C3672 C 0.79854 0.40686 0.40654
 C3673 C 0.80001 0.40859 0.42698
 C3674 C 0.81674 0.41699 0.43546
 C3675 C 0.73619 0.37460 0.37409
 C3676 C 0.83057 0.42205 0.40302
 C3677 C 0.78138 0.39809 0.39779
 C3678 C 0.76709 0.39073 0.39035
 C3679 C 0.75040 0.38206 0.38159
 C3680 C 0.83221 0.42384 0.42356
 H3681 H 0.81291 0.41225 0.37876
 H3682 H 0.78822 0.40345 0.43637
 H3683 H 0.81751 0.41834 0.45129
 H3684 H 0.84234 0.42691 0.39348
 C3685 C 0.31410 0.89470 0.41326
 C3686 C 0.29875 0.90657 0.40640
 C3687 C 0.30010 0.92703 0.40813
 C3688 C 0.31678 0.93559 0.41660
 C3689 C 0.23656 0.87365 0.37426
 C3690 C 0.33074 0.90321 0.42177
 C3691 C 0.28169 0.89770 0.39756
 C3692 C 0.26746 0.89013 0.39018
 C3693 C 0.25081 0.88121 0.38158
 C3694 C 0.33228 0.92376 0.42353
 H3695 H 0.31324 0.87886 0.41195
 H3696 H 0.28827 0.93636 0.40295
 H3697 H 0.31746 0.95143 0.41792
 H3698 H 0.34254 0.89372 0.42670
 C3699 C 0.30045 0.42683 0.90840
 C3700 C 0.29920 0.40638 0.90665
 C3701 C 0.31457 0.39455 0.91351
 C3702 C 0.33113 0.40311 0.92211
 C3703 C 0.23699 0.37366 0.87451
 C3704 C 0.31703 0.43544 0.91696
 C3705 C 0.28217 0.39749 0.89782
 C3706 C 0.26793 0.38997 0.89045
 C3707 C 0.25126 0.38115 0.88184
 C3708 C 0.33255 0.42366 0.92394
 H3709 H 0.28860 0.43612 0.90317
 H3710 H 0.31380 0.37870 0.91214
 H3711 H 0.34297 0.39367 0.92704
 H3712 H 0.31763 0.45128 0.91830
   
