data_POSCAR
  _audit_creation_date              2014-09-24
  _audit_creation_method            'ToBaCCo'
  _symmetry_space_group_name_H-M    'P1'
  _symmetry_Int_Tables_number       1
  _symmetry_cell_setting            triclinic
  loop_
  _symmetry_equiv_pos_as_xyz
 x,y,z
_cell_length_a 56.5843
_cell_length_b 55.3179
_cell_length_c 55.4055
_cell_angle_alpha 88.993600
_cell_angle_beta 90.022200
_cell_angle_gamma 89.136100
loop_
  _atom_site_label
  _atom_site_type_symbol
  _atom_site_fract_x
  _atom_site_fract_y
  _atom_site_fract_z
N1 N 0.20378 0.20437 0.20086
 N2 N 0.71408 0.68938 0.72294
 N3 N 0.29847 0.78037 0.69685
 N4 N 0.79189 0.29210 0.22868
 N5 N 0.78258 0.71592 0.29831
 N6 N 0.28275 0.21213 -0.22420
 N7 N 0.69989 0.28002 -0.20935
 N8 N 0.20322 0.78377 0.27396
 N9 N 0.46575 0.46223 0.42966
 N10 N -0.04917 -0.03342 0.95093
 N11 N 1.04422 0.54314 0.95989
 N12 N 0.53989 0.04526 0.46863
 N13 N -0.03877 0.02676 0.54770
 N14 N 0.45256 0.55754 0.01980
 N15 N 0.52997 -0.02801 0.05103
 N16 N 1.05775 0.43586 0.55754
 C17 C 0.39725 0.01799 0.23164
 H18 H 0.39220 0.03421 0.24106
 C19 C 0.41249 0.01961 0.21190
 H20 H 0.41939 0.03705 0.20654
 C21 C 0.39368 -0.02419 0.22650
 H22 H 0.38602 -0.04118 0.23182
 C23 C 0.40893 -0.02341 0.20669
 H24 H 0.41245 -0.03990 0.19706
 N25 N 0.38855 -0.00375 0.23890
 C26 C 0.34416 0.03759 0.28265
 H27 H 0.35311 0.03400 0.29960
 C28 C 0.32886 0.05753 0.28030
 H29 H 0.32619 0.06929 0.29552
 C30 C 0.33650 0.02654 0.24228
 H31 H 0.33951 0.01419 0.22763
 C32 C 0.32111 0.04629 0.23913
 H33 H 0.31205 0.04859 0.22204
 Zn34 Zn 0.36860 -0.00419 0.26653
 N35 N 0.34768 0.02262 0.26374
 C36 C 0.38590 -0.01727 0.31346
 N37 N 0.38747 -0.00117 0.29472
 C38 C 0.40274 0.01753 0.29550
 C39 C 0.41762 0.02031 0.31530
 C40 C 0.40045 -0.01518 0.33369
 C41 C 0.32693 -0.03188 0.26640
 C42 C 0.31352 -0.05288 0.26673
 C43 C 0.34963 -0.07634 0.27118
 C44 C 0.36230 -0.05487 0.27086
 N45 N 0.35090 -0.03319 0.26809
 H46 H 0.37336 -0.03176 0.31282
 H47 H 0.40349 0.03038 0.28067
 H48 H 0.42964 0.03525 0.31463
 H49 H 0.39897 -0.02837 0.34829
 H50 H 0.31807 -0.01451 0.26470
 H51 H 0.29459 -0.05075 0.26533
 H52 H 0.35924 -0.09336 0.27314
 H53 H 0.38134 -0.05550 0.27268
 C54 C 0.31732 0.06225 0.25827
 C55 C 0.41889 -0.00131 0.19945
 C56 C 0.32487 -0.07570 0.26886
 C57 C 0.41676 0.00371 0.33488
 C58 C 0.10116 -0.01965 0.71795
 H59 H 0.10019 -0.03703 0.72714
 C60 C 0.08699 -0.01473 0.69772
 H61 H 0.07562 -0.02877 0.69133
 C62 C 0.11756 0.01944 0.71531
 H63 H 0.12911 0.03293 0.72243
 C64 C 0.10377 0.02510 0.69505
 H65 H 0.10509 0.04287 0.68665
 N66 N 0.11613 -0.00269 0.72626
 C67 C 0.17089 -0.04125 0.76787
 H68 H 0.17009 -0.03117 0.78442
 C69 C 0.18746 -0.05998 0.76543
 H70 H 0.19934 -0.06431 0.78027
 C71 C 0.15650 -0.04755 0.72836
 H72 H 0.14471 -0.04235 0.71379
 C73 C 0.17282 -0.06644 0.72514
 H74 H 0.17328 -0.07528 0.70791
 Zn75 Zn 0.13387 -0.00983 0.75461
 N76 N 0.15560 -0.03563 0.74962
 C77 C 0.11418 -0.03933 0.79187
 N78 N 0.11220 -0.01804 0.77937
 C79 C 0.09429 -0.00212 0.78385
 C80 C 0.07780 -0.00699 0.80198
 C81 C 0.09814 -0.04495 0.81019
 C82 C 0.16922 0.02437 0.74826
 C83 C 0.18259 0.04471 0.75318
 C84 C 0.15977 0.05015 0.78958
 C85 C 0.14690 0.02966 0.78394
 N86 N 0.15155 0.01748 0.76335
 H87 H 0.12820 -0.05204 0.78773
 H88 H 0.09297 0.01458 0.77343
 H89 H 0.06426 0.00652 0.80516
 H90 H 0.10026 -0.06196 0.82003
 H91 H 0.17266 0.01421 0.73209
 H92 H 0.19595 0.04977 0.74024
 H93 H 0.15551 0.05973 0.80595
 H94 H 0.13312 0.02365 0.79600
 C95 C 0.18843 -0.07307 0.74400
 C96 C 0.08806 0.00806 0.68612
 C97 C 0.17787 0.05812 0.77412
 C98 C 0.07959 -0.02874 0.81561
 C99 C 0.59445 0.50622 0.18576
 H100 H 0.59225 0.48903 0.19504
 C101 C 0.57923 0.51299 0.16688
 H102 H 0.56528 0.50086 0.16196
 C103 C 0.61436 0.54349 0.18231
 H104 H 0.62756 0.55566 0.18881
 C105 C 0.59946 0.55103 0.16347
 H106 H 0.60163 0.56883 0.15538
 N107 N 0.61171 0.52135 0.19296
 C108 C 0.66124 0.47481 0.23338
 H109 H 0.66226 0.48516 0.24973
 C110 C 0.67432 0.45338 0.23136
 H111 H 0.68489 0.44727 0.24660
 C112 C 0.64528 0.47019 0.19422
 H113 H 0.63412 0.47694 0.17971
 C114 C 0.65815 0.44864 0.19140
 H115 H 0.65662 0.43884 0.17473
 Zn116 Zn 0.63014 0.51199 0.22021
 N117 N 0.64689 0.48265 0.21510
 C118 C 0.60671 0.48701 0.25850
 N119 N 0.60897 0.50849 0.24649
 C120 C 0.59544 0.52802 0.25231
 C121 C 0.57921 0.52658 0.27122
 C122 C 0.59067 0.48470 0.27753
 C123 C 0.66899 0.54108 0.20945
 C124 C 0.68605 0.55858 0.21330
 C125 C 0.67039 0.56405 0.25342
 C126 C 0.65346 0.54664 0.24866
 N127 N 0.65288 0.53578 0.22686
 H128 H 0.61722 0.47151 0.25327
 H129 H 0.59734 0.54481 0.24222
 H130 H 0.56875 0.54249 0.27555
 H131 H 0.58981 0.46736 0.28668
 H132 H 0.66838 0.53187 0.19240
 H133 H 0.69846 0.56273 0.19898
 H134 H 0.66973 0.57260 0.27078
 H135 H 0.64084 0.54181 0.26247
 C136 C 0.67302 0.44005 0.21003
 C137 C 0.58169 0.53571 0.15546
 C138 C 0.68706 0.57036 0.23554
 C139 C 0.57650 0.50472 0.28420
 C140 C 0.92570 0.46732 0.73448
 H141 H 0.93310 0.47012 0.75217
 C142 C 0.94080 0.46332 0.71498
 H143 H 0.95970 0.46367 0.71791
 C144 C 0.89217 0.46410 0.70917
 H145 H 0.87315 0.46458 0.70710
 C146 C 0.90661 0.46032 0.68913
 H147 H 0.89863 0.45790 0.67158
 N148 N 0.90188 0.46823 0.73115
 C149 C 0.84844 0.51315 0.76614
 H150 H 0.84620 0.50337 0.78305
 C151 C 0.83541 0.53439 0.76155
 H152 H 0.82340 0.54087 0.77525
 C153 C 0.86787 0.51702 0.72844
 H154 H 0.88091 0.51061 0.71579
 C155 C 0.85528 0.53834 0.72315
 H156 H 0.85851 0.54787 0.70625
 Zn157 Zn 0.88120 0.47579 0.75689
 N158 N 0.86394 0.50463 0.74945
 C159 C 0.89658 0.46708 0.80535
 N160 N 0.89869 0.48140 0.78531
 C161 C 0.91324 0.50072 0.78500
 C162 C 0.92700 0.50590 0.80512
 C163 C 0.91001 0.47156 0.82590
 C164 C 0.83681 0.45228 0.75967
 C165 C 0.82194 0.43256 0.76292
 C166 C 0.85645 0.40694 0.76892
 C167 C 0.87062 0.42717 0.76559
 N168 N 0.86065 0.44934 0.76137
 H169 H 0.88454 0.45212 0.80546
 H170 H 0.91436 0.51197 0.76888
 H171 H 0.93868 0.52109 0.80367
 H172 H 0.90820 0.45971 0.84156
 H173 H 0.82921 0.46992 0.75571
 H174 H 0.80315 0.43598 0.76169
 H175 H 0.86488 0.38951 0.77244
 H176 H 0.88965 0.42525 0.76648
 C177 C 0.83854 0.54708 0.73959
 C178 C 0.93123 0.46008 0.69188
 C179 C 0.83169 0.40933 0.76768
 C180 C 0.92563 0.49111 0.82608
 C181 C 0.22775 0.41293 0.01134
 H182 H 0.23977 0.41164 0.02651
 C183 C 0.20913 0.42974 0.01145
 H184 H 0.20682 0.44131 0.02688
 C185 C 0.21654 0.39971 -0.02741
 H186 H 0.21982 0.38829 -0.04271
 C187 C 0.19761 0.41625 -0.02802
 H188 H 0.18672 0.41739 -0.04405
 N189 N 0.23101 0.39823 -0.00781
 C190 C 0.27015 0.33553 0.02071
 H191 H 0.28547 0.33551 0.00902
 C192 C 0.26787 0.31763 0.03861
 H193 H 0.28159 0.30389 0.04070
 C194 C 0.23355 0.35333 0.03196
 H195 H 0.21997 0.36699 0.02902
 C196 C 0.23054 0.33578 0.05007
 H197 H 0.21445 0.33624 0.06056
 Zn198 Zn 0.25752 0.37701 -0.00650
 N199 N 0.25331 0.35315 0.01800
 C200 C 0.29831 0.39118 0.01964
 N201 N 0.28409 0.39616 0.00036
 C202 C 0.28770 0.41585 -0.01409
 C203 C 0.30658 0.43116 -0.00982
 C204 C 0.31743 0.40597 0.02460
 C205 C 0.24545 0.34432 -0.04215
 C206 C 0.24767 0.33081 -0.06303
 C207 C 0.28509 0.35331 -0.07145
 C208 C 0.28107 0.36541 -0.05000
 N209 N 0.26174 0.36094 -0.03620
 H210 H 0.29482 0.37584 0.03135
 H211 H 0.27576 0.41970 -0.02897
 H212 H 0.30847 0.44665 -0.02172
 H213 H 0.32855 0.40154 0.04003
 H214 H 0.23055 0.34134 -0.03029
 H215 H 0.23431 0.31768 -0.06702
 H216 H 0.30071 0.35745 -0.08193
 H217 H 0.29380 0.37844 -0.04425
 C218 C 0.24806 0.31780 0.05383
 C219 C 0.19364 0.43146 -0.00828
 C220 C 0.26855 0.33421 -0.08017
 C221 C 0.32199 0.42624 0.00975
 C222 C 0.71269 0.09707 -0.00059
 H223 H 0.72554 0.09669 -0.01504
 C224 C 0.69311 0.08206 -0.00132
 H225 H 0.69090 0.07017 -0.01645
 C226 C 0.70005 0.11301 0.03675
 H227 H 0.70287 0.12503 0.05159
 C228 C 0.68029 0.09814 0.03685
 H229 H 0.66785 0.09939 0.05161
 N230 N 0.71562 0.11240 0.01806
 C231 C 0.75791 0.17143 -0.01090
 H232 H 0.77171 0.17196 0.00259
 C233 C 0.75756 0.18830 -0.02996
 H234 H 0.77119 0.20181 -0.03114
 C235 C 0.72309 0.15345 -0.02553
 H236 H 0.70934 0.14027 -0.02349
 C237 C 0.72218 0.16982 -0.04498
 H238 H 0.70760 0.16901 -0.05756
 Zn239 Zn 0.74266 0.13214 0.01732
 N240 N 0.74102 0.15424 -0.00921
 C241 C 0.78425 0.11407 -0.00464
 N242 N 0.76934 0.11130 0.01434
 C243 C 0.77175 0.09298 0.03082
 C244 C 0.78986 0.07577 0.02911
 C245 C 0.80310 0.09813 -0.00824
 C246 C 0.72771 0.16793 0.04898
 C247 C 0.72913 0.18358 0.06839
 C248 C 0.76557 0.16355 0.08054
 C249 C 0.76342 0.14830 0.06083
 N250 N 0.74470 0.15073 0.04556
 H251 H 0.78131 0.12865 -0.01754
 H252 H 0.75910 0.09154 0.04539
 H253 H 0.79104 0.06131 0.04251
 H254 H 0.81436 0.10102 -0.02375
 H255 H 0.71322 0.16976 0.03630
 H256 H 0.71544 0.19729 0.07053
 H257 H 0.78103 0.16125 0.09181
 H258 H 0.77706 0.13490 0.05746
 C259 C 0.73977 0.18735 -0.04751
 C260 C 0.67669 0.08238 0.01760
 C261 C 0.74829 0.18172 0.08452
 C262 C 0.80761 0.07655 0.00873
 C263 C 0.22413 0.57120 0.48243
 H264 H 0.23499 0.57104 0.46637
 C265 C 0.20731 0.55336 0.48615
 H266 H 0.20526 0.53946 0.47280
 C267 C 0.21378 0.58951 0.51938
 H268 H 0.21666 0.60339 0.53248
 C269 C 0.19667 0.57201 0.52380
 H270 H 0.18680 0.57270 0.54047
 N271 N 0.22680 0.58901 0.49876
 C272 C 0.25566 0.64820 0.45593
 H273 H 0.27212 0.65088 0.46539
 C274 C 0.25000 0.66283 0.43600
 H275 H 0.26224 0.67662 0.43026
 C276 C 0.21968 0.62672 0.45317
 H277 H 0.20818 0.61302 0.46046
 C278 C 0.21212 0.64042 0.43326
 H279 H 0.19506 0.63686 0.42534
 Zn280 Zn 0.24992 0.61238 0.49158
 N281 N 0.24091 0.63060 0.46374
 C282 C 0.29029 0.59661 0.46500
 N283 N 0.27872 0.59533 0.48647
 C284 C 0.28673 0.58070 0.50474
 C285 C 0.30738 0.56694 0.50199
 C286 C 0.31102 0.58310 0.46139
 C287 C 0.23391 0.64876 0.52217
 C288 C 0.23519 0.66589 0.54031
 C289 C 0.27572 0.65345 0.54756
 C290 C 0.27362 0.63658 0.52924
 N291 N 0.25289 0.63440 0.51713
 H292 H 0.28338 0.60790 0.45047
 H293 H 0.27695 0.57968 0.52150
 H294 H 0.31337 0.55546 0.51689
 H295 H 0.31970 0.58497 0.44414
 H296 H 0.21774 0.64693 0.51198
 H297 H 0.21975 0.67706 0.54397
 H298 H 0.29248 0.65423 0.55676
 H299 H 0.28870 0.62540 0.52462
 C300 C 0.22698 0.66001 0.42267
 C301 C 0.19307 0.55378 0.50684
 C302 C 0.25629 0.66858 0.55335
 C303 C 0.31986 0.56780 0.48005
 C304 C 0.71673 0.91172 0.53411
 H305 H 0.72666 0.90968 0.55072
 C306 C 0.69900 0.92942 0.53205
 H307 H 0.69529 0.94095 0.54724
 C308 C 0.70979 0.89932 0.49405
 H309 H 0.71441 0.88794 0.47908
 C310 C 0.69180 0.91676 0.49124
 H311 H 0.68297 0.91854 0.47398
 N312 N 0.72155 0.89686 0.51540
 C313 C 0.75304 0.83310 0.55090
 H314 H 0.76977 0.83183 0.54152
 C315 C 0.74800 0.81681 0.56970
 H316 H 0.76127 0.80340 0.57470
 C317 C 0.71609 0.85302 0.55606
 H318 H 0.70363 0.86706 0.55066
 C319 C 0.71029 0.83709 0.57488
 H320 H 0.69343 0.83920 0.58391
 Zn321 Zn 0.74611 0.87366 0.52045
 N322 N 0.73739 0.85109 0.54484
 C323 C 0.78433 0.88613 0.55137
 N324 N 0.77311 0.89088 0.53008
 C325 C 0.78065 0.90859 0.51478
 C326 C 0.80094 0.92154 0.52000
 C327 C 0.80467 0.89868 0.55740
 C328 C 0.73550 0.84331 0.48182
 C329 C 0.73937 0.83028 0.46086
 C330 C 0.78133 0.84438 0.46210
 C331 C 0.77524 0.85677 0.48286
 N332 N 0.75294 0.85637 0.49190
 H333 H 0.77766 0.87254 0.56370
 H334 H 0.77102 0.91240 0.49824
 H335 H 0.80609 0.93545 0.50725
 H336 H 0.81352 0.89430 0.57431
 H337 H 0.71822 0.84316 0.49015
 H338 H 0.72493 0.82031 0.45325
 H339 H 0.79931 0.84529 0.45549
 H340 H 0.78875 0.86669 0.49199
 C341 C 0.72637 0.81881 0.58208
 C342 C 0.68603 0.93190 0.51058
 C343 C 0.76360 0.82975 0.44863
 C344 C 0.81365 0.91633 0.54144
 C345 C 0.02716 0.20524 0.41522
 H346 H 0.04174 0.21765 0.41427
 C347 C 0.02817 0.18542 0.43116
 H348 H 0.04368 0.18251 0.44238
 C349 C -0.01108 0.19434 0.40222
 H350 H -0.02650 0.19809 0.39121
 C351 C -0.01090 0.17443 0.41808
 H352 H -0.02601 0.16268 0.41852
 N353 N 0.00778 0.20927 0.40110
 C354 C 0.03340 0.25757 0.34410
 H355 H 0.02061 0.27220 0.34564
 C356 C 0.05107 0.25880 0.32658
 H357 H 0.05187 0.27451 0.31468
 C358 C 0.04765 0.21916 0.35759
 H359 H 0.04609 0.20362 0.36952
 C360 C 0.06558 0.21961 0.34026
 H361 H 0.07800 0.20458 0.33967
 Zn362 Zn 0.00695 0.23776 0.38172
 N363 N 0.03211 0.23805 0.35927
 C364 C 0.02826 0.27871 0.40247
 N365 N 0.00932 0.26389 0.40308
 C366 C -0.00770 0.26620 0.42018
 C367 C -0.00632 0.28427 0.43735
 C368 C 0.03051 0.29692 0.41945
 C369 C -0.02518 0.22246 0.34720
 C370 C -0.04512 0.22351 0.33237
 C371 C -0.05682 0.26087 0.35124
 C372 C -0.03662 0.25905 0.36572
 N373 N -0.02139 0.23996 0.36359
 H374 H 0.04196 0.27614 0.38915
 H375 H -0.02233 0.25382 0.42056
 H376 H -0.02017 0.28568 0.45078
 H377 H 0.04595 0.30807 0.41824
 H378 H -0.01254 0.20771 0.34555
 H379 H -0.04767 0.20932 0.31943
 H380 H -0.06811 0.27658 0.35334
 H381 H -0.03292 0.27320 0.37830
 C382 C 0.06729 0.23958 0.32432
 C383 C 0.00882 0.17000 0.43304
 C384 C -0.06138 0.24287 0.33417
 C385 C 0.01303 0.29992 0.43738
 C386 C -0.02822 0.72216 0.08543
 H387 H -0.04488 0.73197 0.08637
 C388 C -0.02537 0.70352 0.06900
 H389 H -0.03998 0.69901 0.05735
 C390 C 0.01109 0.71641 0.09931
 H391 H 0.02543 0.72182 0.11079
 C392 C 0.01470 0.69757 0.08316
 H393 H 0.03194 0.68894 0.08247
 N394 N -0.01025 0.72801 0.10042
 C395 C -0.04669 0.76100 0.16145
 H396 H -0.03850 0.77853 0.16192
 C397 C -0.06411 0.75501 0.17835
 H398 H -0.06896 0.76804 0.19186
 C399 C -0.04930 0.72240 0.14388
 H400 H -0.04323 0.70954 0.13074
 C401 C -0.06662 0.71562 0.16049
 H402 H -0.07391 0.69765 0.15975
 Zn403 Zn -0.01612 0.75372 0.12192
 N404 N -0.03994 0.74490 0.14440
 C405 C -0.04636 0.79312 0.10652
 N406 N -0.02573 0.78085 0.10276
 C407 C -0.01088 0.78739 0.08460
 C408 C -0.01617 0.80735 0.06972
 C409 C -0.05235 0.81329 0.09211
 C410 C 0.02138 0.74395 0.15430
 C411 C 0.04190 0.74870 0.16735
 C412 C 0.04138 0.78918 0.15028
 C413 C 0.02097 0.78359 0.13753
 N414 N 0.01158 0.76117 0.13946
 H415 H -0.05819 0.78739 0.12072
 H416 H 0.00535 0.77719 0.08192
 H417 H -0.00340 0.81210 0.05605
 H418 H -0.06877 0.82293 0.09563
 H419 H 0.01332 0.72638 0.15582
 H420 H 0.04916 0.73429 0.17858
 H421 H 0.04853 0.80717 0.14827
 H422 H 0.01264 0.79729 0.12617
 C423 C -0.07448 0.73208 0.17779
 C424 C -0.00383 0.69073 0.06790
 C425 C 0.05233 0.77169 0.16542
 C426 C -0.03722 0.82079 0.07336
 C427 C 0.47866 0.23350 0.58561
 H428 H 0.46372 0.24585 0.58396
 C429 C 0.47949 0.21258 0.57191
 H430 H 0.46506 0.20889 0.55973
 C431 C 0.51568 0.22347 0.60341
 H432 H 0.52983 0.22786 0.61559
 C433 C 0.51725 0.20232 0.59002
 H434 H 0.53244 0.19048 0.59264
 N435 N 0.49648 0.23844 0.60114
 C436 C 0.46333 0.28508 0.65462
 H437 H 0.47439 0.30085 0.65337
 C438 C 0.44482 0.28433 0.67131
 H439 H 0.44159 0.29967 0.68281
 C440 C 0.45452 0.24567 0.64161
 H441 H 0.45874 0.23034 0.63051
 C442 C 0.43588 0.24414 0.65802
 H443 H 0.42619 0.22747 0.65929
 Zn444 Zn 0.49371 0.26751 0.61857
 N445 N 0.46765 0.26602 0.64000
 C446 C 0.47037 0.30783 0.59559
 N447 N 0.48968 0.29291 0.59554
 C448 C 0.50658 0.29504 0.57826
 C449 C 0.50495 0.31325 0.56057
 C450 C 0.46792 0.32625 0.57814
 C451 C 0.52600 0.25644 0.65561
 C452 C 0.54572 0.25942 0.67039
 C453 C 0.55487 0.29569 0.64756
 C454 C 0.53495 0.29202 0.63332
 N455 N 0.52112 0.27249 0.63738
 H456 H 0.45678 0.30545 0.60906
 H457 H 0.52146 0.28251 0.57831
 H458 H 0.51874 0.31397 0.54714
 H459 H 0.45243 0.33800 0.57863
 H460 H 0.51453 0.24121 0.65862
 H461 H 0.54905 0.24592 0.68431
 H462 H 0.56564 0.31137 0.64387
 H463 H 0.53052 0.30495 0.61915
 C464 C 0.43066 0.26378 0.67299
 C465 C 0.49900 0.19674 0.57388
 C466 C 0.56057 0.27940 0.66651
 C467 C 0.48547 0.32946 0.56044
 C468 C 0.51953 0.74827 0.90540
 H469 H 0.53546 0.75877 0.90396
 C470 C 0.51846 0.72894 0.92186
 H471 H 0.53368 0.72463 0.93310
 C472 C 0.48049 0.74098 0.89220
 H473 H 0.46571 0.74574 0.88065
 C474 C 0.47864 0.72150 0.90846
 H475 H 0.46254 0.71123 0.90864
 N476 N 0.50090 0.75361 0.89065
 C477 C 0.53551 0.78756 0.82878
 H478 H 0.52650 0.80495 0.82790
 C479 C 0.55339 0.78218 0.81226
 H480 H 0.55821 0.79558 0.79871
 C481 C 0.53989 0.74882 0.84726
 H482 H 0.53416 0.73559 0.86048
 C483 C 0.55775 0.74264 0.83106
 H484 H 0.56530 0.72459 0.83212
 Zn485 Zn 0.50490 0.77918 0.86789
 N486 N 0.52944 0.77110 0.84613
 C487 C 0.53402 0.81755 0.88319
 N488 N 0.51258 0.80699 0.88549
 C489 C 0.49641 0.81508 0.90168
 C490 C 0.50119 0.83499 0.91592
 C491 C 0.53969 0.83736 0.89726
 C492 C 0.46970 0.76599 0.83562
 C493 C 0.44954 0.76863 0.82124
 C494 C 0.44547 0.80981 0.83461
 C495 C 0.46565 0.80628 0.84886
 N496 N 0.47711 0.78451 0.84937
 H497 H 0.54696 0.81038 0.87080
 H498 H 0.47976 0.80588 0.90364
 H499 H 0.48794 0.84042 0.92883
 H500 H 0.55694 0.84539 0.89519
 H501 H 0.47956 0.74907 0.83584
 H502 H 0.44460 0.75347 0.81044
 H503 H 0.43662 0.82732 0.83456
 H504 H 0.47222 0.82107 0.85927
 C505 C 0.56502 0.75961 0.81349
 C506 C 0.49790 0.71520 0.92350
 C507 C 0.43689 0.79082 0.82070
 C508 C 0.52316 0.84657 0.91379
 C509 C 0.18384 0.20308 0.21695
 C510 C 0.17132 0.22370 0.22406
 C511 C 0.15194 0.22291 0.24200
 C512 C 0.14679 0.24362 0.25539
 C513 C 0.12905 0.24334 0.27296
 C514 C 0.11582 0.22235 0.27721
 C515 C 0.12079 0.20175 0.26358
 C516 C 0.13852 0.20203 0.24605
 C517 C 0.09730 0.22094 0.29605
 C518 C 0.08586 0.24120 0.30556
 H519 H 0.17717 0.24124 0.21770
 H520 H 0.15686 0.25993 0.25260
 H521 H 0.12622 0.25942 0.28345
 H522 H 0.11082 0.18537 0.26644
 H523 H 0.14144 0.18593 0.23560
 H524 H 0.09162 0.20310 0.30163
 H525 H 0.17975 0.18578 0.22523
 H526 H 0.08945 0.25892 0.29798
 C527 C 0.69726 0.69788 0.74044
 C528 C 0.67551 0.70822 0.73367
 C529 C 0.65694 0.71564 0.75106
 C530 C 0.63813 0.73041 0.74276
 C531 C 0.61995 0.73743 0.75836
 C532 C 0.62026 0.72983 0.78274
 C533 C 0.63892 0.71485 0.79094
 C534 C 0.65701 0.70777 0.77535
 C535 C 0.60124 0.73615 0.80002
 C536 C 0.58402 0.75416 0.79592
 H537 H 0.67186 0.71097 0.71462
 H538 H 0.63744 0.73646 0.72406
 H539 H 0.60562 0.74840 0.75103
 H540 H 0.63943 0.70841 0.80952
 H541 H 0.67061 0.69575 0.78250
 H542 H 0.60151 0.72666 0.81725
 H543 H 0.70131 0.69464 0.75929
 H544 H 0.58504 0.76560 0.77995
 C545 C 0.31570 0.77571 0.71556
 C546 C 0.32648 0.79429 0.72809
 C547 C 0.34580 0.78991 0.74578
 C548 C 0.36133 0.80873 0.75076
 C549 C 0.38035 0.80499 0.76660
 C550 C 0.38402 0.78232 0.77802
 C551 C 0.36823 0.76366 0.77339
 C552 C 0.34920 0.76742 0.75764
 C553 C 0.40465 0.77711 0.79385
 C554 C 0.41649 0.79497 0.80653
 H555 H 0.32183 0.81284 0.72340
 H556 H 0.35907 0.82624 0.74192
 H557 H 0.39245 0.81965 0.76924
 H558 H 0.37062 0.74607 0.78202
 H559 H 0.33720 0.75268 0.75497
 H560 H 0.40960 0.75830 0.79630
 H561 H 0.32224 0.75735 0.71802
 H562 H 0.40906 0.81313 0.80599
 C563 C -0.19077 0.28894 0.24754
 C564 C -0.17392 0.27018 0.24764
 C565 C -0.15520 0.26755 0.26624
 C566 C -0.13424 0.25506 0.26053
 C567 C -0.11592 0.25268 0.27739
 C568 C -0.11839 0.26244 0.30056
 C569 C -0.13949 0.27466 0.30636
 C570 C -0.15778 0.27706 0.28949
 C571 C -0.09910 0.26121 0.31867
 C572 C -0.08096 0.24368 0.31842
 H573 H -0.17329 0.25798 0.23258
 H574 H -0.13181 0.24756 0.24275
 H575 H -0.09972 0.24374 0.27190
 H576 H -0.14187 0.28233 0.32407
 H577 H -0.17394 0.28617 0.29487
 H578 H -0.10005 0.27417 0.33299
 H579 H -0.18979 0.30266 0.26118
 H580 H -0.08217 0.22945 0.30532
 C581 C -0.19986 0.72511 0.28180
 C582 C -0.18230 0.71006 0.27224
 C583 C -0.16332 0.71846 0.25577
 C584 C -0.14369 0.70317 0.25200
 C585 C -0.12546 0.71013 0.23646
 C586 C -0.12659 0.73254 0.22409
 C587 C -0.14611 0.74793 0.22797
 C588 C -0.16439 0.74094 0.24346
 C589 C -0.10767 0.74054 0.20738
 C590 C -0.09286 0.72439 0.19523
 H591 H -0.18194 0.69121 0.27792
 H592 H -0.14236 0.68579 0.26127
 H593 H -0.11041 0.69804 0.23451
 H594 H -0.14740 0.76529 0.21867
 H595 H -0.17938 0.75310 0.24533
 H596 H -0.10661 0.75968 0.20325
 H597 H -0.19940 0.74438 0.27836
 H598 H -0.09587 0.70518 0.19719
 C599 C 0.29738 0.22155 0.75673
 C600 C 0.31983 0.23063 0.76127
 C601 C 0.33744 0.23621 0.74215
 C602 C 0.35802 0.24852 0.74846
 C603 C 0.37577 0.25285 0.73140
 C604 C 0.37327 0.24496 0.70754
 C605 C 0.35267 0.23278 0.70122
 C606 C 0.33498 0.22840 0.71824
 C607 C 0.39206 0.24765 0.68907
 C608 C 0.41139 0.26294 0.69110
 H609 H 0.32510 0.23285 0.77989
 H610 H 0.36055 0.25448 0.76679
 H611 H 0.39159 0.26175 0.73727
 H612 H 0.35039 0.22624 0.68306
 H613 H 0.31989 0.21829 0.71249
 H614 H 0.39017 0.23737 0.67276
 H615 H 0.29160 0.21888 0.73841
 H616 H 0.41213 0.27544 0.70585
 C617 C 0.67838 0.27575 0.77759
 C618 C 0.67242 0.28814 0.75617
 C619 C 0.65051 0.28358 0.74241
 C620 C 0.64953 0.29025 0.71787
 C621 C 0.62924 0.28613 0.70422
 C622 C 0.60933 0.27549 0.71499
 C623 C 0.61027 0.26890 0.73953
 C624 C 0.63052 0.27309 0.75319
 C625 C 0.58765 0.27036 0.70111
 C626 C 0.58080 0.28375 0.68052
 H627 H 0.68488 0.30073 0.74839
 H628 H 0.66467 0.29837 0.70913
 H629 H 0.62946 0.29084 0.68520
 H630 H 0.59516 0.26072 0.74826
 H631 H 0.63019 0.26837 0.77220
 H632 H 0.57631 0.25658 0.70851
 H633 H 0.66711 0.26139 0.78402
 H634 H 0.59147 0.29909 0.67535
 C635 C 0.18331 0.77601 0.25984
 C636 C 0.17065 0.79128 0.24394
 C637 C 0.14923 0.78347 0.23096
 C638 C 0.14252 0.79561 0.20954
 C639 C 0.12213 0.78906 0.19711
 C640 C 0.10774 0.77044 0.20614
 C641 C 0.11451 0.75826 0.22753
 C642 C 0.13490 0.76477 0.23993
 C643 C 0.08590 0.76287 0.19368
 C644 C 0.07309 0.77804 0.17773
 H645 H 0.17666 0.80945 0.24037
 H646 H 0.15324 0.81007 0.20226
 H647 H 0.11802 0.79842 0.18030
 H648 H 0.10377 0.74386 0.23491
 H649 H 0.13901 0.75545 0.25676
 H650 H 0.07946 0.74515 0.19841
 H651 H 0.17833 0.75726 0.26097
 H652 H 0.07934 0.79626 0.17490
 C653 C 0.22141 0.18532 0.20180
 C654 C 0.22810 0.17428 0.22366
 C655 C 0.24565 0.15424 0.22578
 C656 C 0.25621 0.14942 0.24829
 C657 C 0.27237 0.13026 0.25133
 C658 C 0.27805 0.11523 0.23187
 C659 C 0.26761 0.12018 0.20930
 C660 C 0.25148 0.13937 0.20626
 C661 C 0.29481 0.09446 0.23419
 C662 C 0.30104 0.08339 0.25623
 H663 H 0.22068 0.18129 0.24020
 H664 H 0.25205 0.16064 0.26360
 H665 H 0.28047 0.12763 0.26885
 H666 H 0.27168 0.10890 0.19401
 H667 H 0.24330 0.14207 0.18876
 H668 H 0.30207 0.08739 0.21766
 H669 H 0.23033 0.18036 0.18531
 H670 H 0.29407 0.09048 0.27287
 C671 C 0.72708 0.66757 0.72905
 C672 C 0.74836 0.66126 0.71785
 C673 C 0.76222 0.63924 0.72458
 C674 C 0.78660 0.63864 0.72000
 C675 C 0.80028 0.61822 0.72621
 C676 C 0.78972 0.59775 0.73681
 C677 C 0.76533 0.59835 0.74132
 C678 C 0.75166 0.61877 0.73514
 C679 C 0.80348 0.57571 0.74372
 C680 C 0.82526 0.56961 0.73344
 H681 H 0.75596 0.67365 0.70476
 H682 H 0.79515 0.65419 0.71190
 H683 H 0.81912 0.61878 0.72303
 H684 H 0.75675 0.58282 0.74942
 H685 H 0.73282 0.61823 0.73832
 H686 H 0.79530 0.56308 0.75615
 H687 H 0.72084 0.65655 0.74401
 H688 H 0.83216 0.58083 0.71897
 C689 C 0.71276 0.30206 0.78686
 C690 C 0.73743 0.30242 0.78766
 C691 C 0.75139 0.32447 0.78309
 C692 C 0.77445 0.32544 0.79229
 C693 C 0.78828 0.34587 0.78830
 C694 C 0.77941 0.36567 0.77459
 C695 C 0.75635 0.36464 0.76536
 C696 C 0.74252 0.34425 0.76940
 C697 C 0.79323 0.38788 0.77010
 C698 C 0.81797 0.38851 0.77137
 H699 H 0.74692 0.28586 0.79241
 H700 H 0.78170 0.31046 0.80291
 H701 H 0.80566 0.34615 0.79639
 H702 H 0.74906 0.37961 0.75474
 H703 H 0.72511 0.34398 0.76137
 H704 H 0.78322 0.40381 0.76464
 H705 H 0.70289 0.31843 0.78248
 H706 H 0.82738 0.37167 0.77504
 C707 C 0.21406 -0.19320 0.26937
 C708 C 0.23863 -0.19104 0.26865
 C709 C 0.25099 -0.16766 0.26752
 C710 C 0.27415 -0.16674 0.27645
 C711 C 0.28646 -0.14503 0.27623
 C712 C 0.27599 -0.12374 0.26654
 C713 C 0.25283 -0.12474 0.25748
 C714 C 0.24045 -0.14645 0.25788
 C715 C 0.28821 -0.10015 0.26612
 C716 C 0.31273 -0.09779 0.26885
 H717 H 0.24941 -0.20731 0.27052
 H718 H 0.28262 -0.18282 0.28409
 H719 H 0.30391 -0.14511 0.28413
 H720 H 0.24429 -0.10865 0.24993
 H721 H 0.22282 -0.14653 0.25033
 H722 H 0.27718 -0.08438 0.26269
 H723 H 0.20289 -0.17726 0.26761
 H724 H 0.32337 -0.11412 0.27057
 C725 C 0.28256 -0.19904 0.69708
 C726 C 0.27244 -0.19078 0.71846
 C727 C 0.25545 -0.17018 0.71953
 C728 C 0.25222 -0.15848 0.74158
 C729 C 0.23619 -0.13914 0.74352
 C730 C 0.22294 -0.13109 0.72335
 C731 C 0.22578 -0.14315 0.70144
 C732 C 0.24187 -0.16245 0.69948
 C733 C 0.20542 -0.11095 0.72463
 C734 C 0.20616 -0.09297 0.74205
 H735 H 0.27761 -0.19955 0.73532
 H736 H 0.26216 -0.16435 0.75740
 H737 H 0.23393 -0.13100 0.76097
 H738 H 0.21550 -0.13760 0.68574
 H739 H 0.24315 -0.17148 0.68238
 H740 H 0.19173 -0.11031 0.71103
 H741 H 0.27775 -0.19057 0.68001
 H742 H 0.22020 -0.09355 0.75531
 C743 C 0.78109 0.31573 0.22602
 C744 C 0.75728 0.31900 0.21987
 C745 C 0.74492 0.34288 0.21936
 C746 C 0.72278 0.34499 0.20798
 C747 C 0.71012 0.36693 0.20783
 C748 C 0.71941 0.38733 0.21909
 C749 C 0.74148 0.38516 0.23055
 C750 C 0.75407 0.36326 0.23077
 C751 C 0.70644 0.41077 0.22049
 C752 C 0.68628 0.41696 0.20698
 H753 H 0.74711 0.30325 0.21544
 H754 H 0.71515 0.32952 0.19933
 H755 H 0.69293 0.36752 0.19933
 H756 H 0.74893 0.40044 0.23967
 H757 H 0.77062 0.36245 0.24048
 H758 H 0.71366 0.42405 0.23243
 H759 H 0.79162 0.33112 0.23060
 H760 H 0.68036 0.40507 0.19301
 C761 C 0.77205 0.69258 0.29557
 C762 C 0.76846 0.68232 0.27302
 C763 C 0.75461 0.66006 0.26972
 C764 C 0.74427 0.65594 0.24716
 C765 C 0.72984 0.63596 0.24378
 C766 C 0.72565 0.61956 0.26293
 C767 C 0.73649 0.62332 0.28529
 C768 C 0.75103 0.64317 0.28862
 C769 C 0.70904 0.59930 0.26069
 C770 C 0.70420 0.58824 0.23873
 H771 H 0.77408 0.69217 0.25701
 H772 H 0.74680 0.66860 0.23228
 H773 H 0.72137 0.63394 0.22644
 H774 H 0.73363 0.61087 0.30028
 H775 H 0.75933 0.64513 0.30604
 H776 H 0.70139 0.59243 0.27726
 H777 H 0.76416 0.68423 0.31137
 H778 H 0.71478 0.59339 0.22323
 C779 C 0.27228 0.18899 0.77175
 C780 C 0.25317 0.18033 0.78518
 C781 C 0.24236 0.15654 0.78091
 C782 C 0.21898 0.15273 0.78833
 C783 C 0.20805 0.13066 0.78423
 C784 C 0.22047 0.11180 0.77287
 C785 C 0.24393 0.11552 0.76572
 C786 C 0.25486 0.13754 0.76987
 C787 C 0.20931 0.08852 0.76718
 C788 C 0.19000 0.07930 0.77999
 H789 H 0.24485 0.19194 0.79832
 H790 H 0.20898 0.16704 0.79693
 H791 H 0.18975 0.12875 0.78942
 H792 H 0.25390 0.10128 0.75698
 H793 H 0.27315 0.13941 0.76460
 H794 H 0.21751 0.07815 0.75305
 H795 H 0.27877 0.17851 0.75676
 H796 H 0.18414 0.08894 0.79580
 C797 C 0.20398 0.22221 0.18159
 C798 C 0.22493 0.22923 0.17027
 C799 C 0.22604 0.24747 0.15041
 C800 C 0.24621 0.24789 0.13568
 C801 C 0.24821 0.26493 0.11689
 C802 C 0.22999 0.28203 0.11246
 C803 C 0.21005 0.28194 0.12751
 C804 C 0.20802 0.26486 0.14627
 C805 C 0.23148 0.30077 0.09309
 C806 C 0.24619 0.29878 0.07291
 H807 H 0.24138 0.22061 0.17588
 H808 H 0.26052 0.23496 0.13873
 H809 H 0.26427 0.26487 0.10634
 H810 H 0.19595 0.29517 0.12476
 H811 H 0.19256 0.26577 0.15767
 H812 H 0.22026 0.31662 0.09492
 H813 H 0.18736 0.23049 0.17608
 H814 H 0.25732 0.28286 0.07104
 C815 C 0.71722 0.70133 0.69987
 C816 C 0.71617 0.72650 0.69750
 C817 C 0.72002 0.74003 0.67454
 C818 C 0.71293 0.76443 0.67314
 C819 C 0.71664 0.77817 0.65212
 C820 C 0.72754 0.76774 0.63191
 C821 C 0.73495 0.74344 0.63341
 C822 C 0.73123 0.72968 0.65444
 C823 C 0.73253 0.78190 0.60957
 C824 C 0.72036 0.80325 0.60320
 H825 H 0.71201 0.73689 0.71338
 H826 H 0.70457 0.77297 0.68845
 H827 H 0.71144 0.79706 0.65210
 H828 H 0.74376 0.73508 0.61826
 H829 H 0.73767 0.71119 0.65491
 H830 H 0.74574 0.77467 0.59748
 H831 H 0.72143 0.69037 0.68446
 H832 H 0.70532 0.80879 0.61392
 C833 C 0.77374 0.73043 0.31776
 C834 C 0.78615 0.74986 0.32704
 C835 C 0.77780 0.76380 0.34809
 C836 C 0.79434 0.77646 0.36166
 C837 C 0.78728 0.78928 0.38202
 C838 C 0.76341 0.78981 0.38916
 C839 C 0.74679 0.77762 0.37529
 C840 C 0.75383 0.76486 0.35490
 C841 C 0.75544 0.80269 0.41096
 C842 C 0.77094 0.81591 0.42478
 H843 H 0.80346 0.75389 0.31985
 H844 H 0.81285 0.77614 0.35670
 H845 H 0.80058 0.79856 0.39223
 H846 H 0.72827 0.77799 0.38024
 H847 H 0.74038 0.75611 0.34446
 H848 H 0.73700 0.80169 0.41617
 H849 H 0.75762 0.72486 0.32661
 H850 H 0.76576 0.82244 0.43681
 C851 C 0.27972 0.22425 -0.20154
 C852 C 0.28078 0.24936 -0.19975
 C853 C 0.27565 0.26213 -0.17706
 C854 C 0.28646 0.28432 -0.17286
 C855 C 0.28171 0.29698 -0.15173
 C856 C 0.26567 0.28784 -0.13457
 C857 C 0.25452 0.26588 -0.13901
 C858 C 0.25947 0.25309 -0.16000
 C859 C 0.26011 0.30083 -0.11211
 C860 C 0.27360 0.32001 -0.10442
 H861 H 0.28581 0.26007 -0.21540
 H862 H 0.29877 0.29177 -0.18587
 H863 H 0.29044 0.31399 -0.14897
 H864 H 0.24193 0.25857 -0.12620
 H865 H 0.25022 0.23644 -0.16303
 H866 H 0.24561 0.29451 -0.10100
 H867 H 0.27566 0.21354 -0.18558
 H868 H 0.26997 0.32658 -0.09185
 C869 C 0.70680 0.26213 -0.19141
 C870 C 0.71774 0.26824 -0.16978
 C871 C 0.72219 0.25058 -0.14979
 C872 C 0.72496 0.25913 -0.12627
 C873 C 0.72791 0.24299 -0.10675
 C874 C 0.72837 0.21790 -0.11045
 C875 C 0.72616 0.20938 -0.13402
 C876 C 0.72335 0.22550 -0.15353
 C877 C 0.72982 0.20013 -0.09021
 C878 C 0.73950 0.20520 -0.06770
 H879 H 0.72130 0.28709 -0.16654
 H880 H 0.72422 0.27836 -0.12289
 H881 H 0.72907 0.25024 -0.08879
 H882 H 0.72658 0.19013 -0.13736
 H883 H 0.72214 0.21814 -0.17143
 H884 H 0.72384 0.18199 -0.09356
 H885 H 0.70073 0.24386 -0.19367
 H886 H 0.74835 0.22217 -0.06513
 C887 C 0.21251 0.76872 0.29347
 C888 C 0.19938 0.75060 0.30493
 C889 C 0.20842 0.73557 0.32545
 C890 C 0.19216 0.72281 0.33972
 C891 C 0.19981 0.70849 0.35931
 C892 C 0.22399 0.70660 0.36503
 C893 C 0.24030 0.71909 0.35064
 C894 C 0.23267 0.73328 0.33093
 C895 C 0.23262 0.69192 0.38586
 C896 C 0.21784 0.67664 0.39876
 H897 H 0.18114 0.74821 0.29980
 H898 H 0.17341 0.72406 0.33581
 H899 H 0.18673 0.69908 0.37003
 H900 H 0.25904 0.71773 0.35454
 H901 H 0.24593 0.74206 0.31998
 H902 H 0.25110 0.69287 0.39088
 H903 H 0.22946 0.77311 0.30103
 H904 H 0.22333 0.66878 0.41082
 C905 C 0.29856 0.76412 0.67685
 C906 C 0.27891 0.76131 0.66192
 C907 C 0.27858 0.74382 0.64200
 C908 C 0.25690 0.73440 0.63466
 C909 C 0.25599 0.71748 0.61623
 C910 C 0.27680 0.70997 0.60443
 C911 C 0.29844 0.71962 0.61165
 C912 C 0.29935 0.73646 0.63011
 C913 C 0.27690 0.69165 0.58520
 C914 C 0.25694 0.68615 0.57146
 H915 H 0.26265 0.77096 0.66601
 H916 H 0.24066 0.73979 0.64355
 H917 H 0.23902 0.71003 0.61178
 H918 H 0.31473 0.71419 0.60286
 H919 H 0.31631 0.74384 0.63476
 H920 H 0.29376 0.68319 0.58138
 H921 H 0.31387 0.75245 0.67443
 H922 H 0.24088 0.69650 0.57454
 C923 C 0.78549 0.27214 0.21376
 C924 C 0.78044 0.27539 0.18923
 C925 C 0.77625 0.25522 0.17258
 C926 C 0.76457 0.26016 0.15067
 C927 C 0.76114 0.24189 0.13396
 C928 C 0.76941 0.21818 0.13885
 C929 C 0.78134 0.21330 0.16064
 C930 C 0.78471 0.23156 0.17738
 C931 C 0.76722 0.19859 0.12110
 C932 C 0.74972 0.19860 0.10321
 H933 H 0.77963 0.29363 0.18181
 H934 H 0.75825 0.27831 0.14635
 H935 H 0.75264 0.24662 0.11701
 H936 H 0.78827 0.19531 0.16465
 H937 H 0.79454 0.22712 0.19363
 H938 H 0.77949 0.18354 0.12301
 H939 H 0.78606 0.25412 0.22163
 H940 H 0.73615 0.21259 0.10382
 C941 C 0.46670 0.44332 0.44790
 C942 C 0.48790 0.43156 0.45426
 C943 C 0.48996 0.41213 0.47297
 C944 C 0.47028 0.39954 0.48196
 C945 C 0.47320 0.38119 0.49945
 C946 C 0.49584 0.37498 0.50826
 C947 C 0.51546 0.38717 0.49891
 C948 C 0.51255 0.40557 0.48153
 C949 C 0.49974 0.35528 0.52633
 C950 C 0.48261 0.34839 0.54327
 H951 H 0.50405 0.43761 0.44576
 H952 H 0.45264 0.40331 0.47528
 H953 H 0.45776 0.37154 0.50553
 H954 H 0.53312 0.38253 0.50517
 H955 H 0.52804 0.41474 0.47475
 H956 H 0.51726 0.34730 0.52699
 H957 H 0.45070 0.43912 0.45766
 H958 H 0.46633 0.35891 0.54380
 C959 C -0.04854 0.94303 -0.03755
 C960 C -0.04884 0.94019 -0.01246
 C961 C -0.04523 0.91657 0.00013
 C962 C -0.05312 0.91375 0.02401
 C963 C -0.04910 0.89205 0.03682
 C964 C -0.03697 0.87270 0.02595
 C965 C -0.02889 0.87563 0.00216
 C966 C -0.03296 0.89726 -0.01065
 C967 C -0.03107 0.84987 0.03918
 C968 C -0.04350 0.84153 0.05949
 H969 H -0.05168 0.95602 -0.00154
 H970 H -0.06227 0.92849 0.03286
 H971 H -0.05492 0.89085 0.05539
 H972 H -0.01914 0.86118 -0.00650
 H973 H -0.02579 0.89893 -0.02868
 H974 H -0.01693 0.83905 0.03170
 H975 H -0.04616 0.92739 -0.04877
 H976 H -0.05930 0.85143 0.06467
 C977 C 0.04424 0.56226 -0.02276
 C978 C 0.02325 0.57319 -0.01485
 C979 C 0.02196 0.59344 0.00236
 C980 C 0.00034 0.60591 0.00487
 C981 C -0.00192 0.62514 0.02075
 C982 C 0.01752 0.63244 0.03454
 C983 C 0.03901 0.61965 0.03245
 C984 C 0.04129 0.60039 0.01654
 C985 C 0.01587 0.65262 0.05178
 C986 C -0.00142 0.67093 0.05031
 H987 H 0.00671 0.56682 -0.02203
 H988 H -0.01494 0.60074 -0.00553
 H989 H -0.01907 0.63382 0.02243
 H990 H 0.05416 0.62463 0.04314
 H991 H 0.05811 0.59096 0.01579
 H992 H 0.02901 0.65298 0.06594
 H993 H 0.06102 0.56792 -0.01569
 H994 H -0.01431 0.67067 0.03591
 C995 C 0.54114 0.06502 0.48519
 C996 C 0.52090 0.07752 0.49275
 C997 C 0.52127 0.09850 0.50901
 C998 C 0.50033 0.10527 0.52083
 C999 C 0.49964 0.12540 0.53572
 C1000 C 0.51989 0.13946 0.53883
 C1001 C 0.54091 0.13254 0.52724
 C1002 C 0.54161 0.11240 0.51234
 C1003 C 0.51982 0.16119 0.55413
 C1004 C 0.49932 0.17456 0.55925
 H1005 H 0.50381 0.07109 0.48708
 H1006 H 0.48444 0.09486 0.51861
 H1007 H 0.48329 0.12964 0.54491
 H1008 H 0.55677 0.14304 0.52937
 H1009 H 0.55796 0.10821 0.50313
 H1010 H 0.53675 0.16771 0.56004
 H1011 H 0.55816 0.06950 0.49264
 H1012 H 0.48284 0.16952 0.55095
 C1013 C -0.03684 0.04976 0.53540
 C1014 C -0.01513 0.05905 0.52805
 C1015 C -0.01340 0.08085 0.51227
 C1016 C 0.00631 0.08343 0.49712
 C1017 C 0.00770 0.10300 0.48085
 C1018 C -0.01056 0.12055 0.47968
 C1019 C -0.02991 0.11830 0.49532
 C1020 C -0.03125 0.09882 0.51160
 C1021 C -0.01065 0.14075 0.46180
 C1022 C 0.00966 0.14959 0.45065
 H1023 H 0.00084 0.04869 0.53200
 H1024 H 0.02033 0.06987 0.49735
 H1025 H 0.02269 0.10384 0.46879
 H1026 H -0.04411 0.13166 0.49489
 H1027 H -0.04631 0.09797 0.52358
 H1028 H -0.02740 0.14985 0.45823
 H1029 H -0.05296 0.05844 0.52895
 H1030 H 0.02684 0.14275 0.45630
 C1031 C 0.45296 0.58146 1.00915
 C1032 C 0.47403 0.59281 1.00288
 C1033 C 0.47481 0.61633 0.98970
 C1034 C 0.49517 0.62211 0.97650
 C1035 C 0.49630 0.64371 0.96309
 C1036 C 0.47710 0.66019 0.96289
 C1037 C 0.45689 0.65459 0.97641
 C1038 C 0.45578 0.63301 0.98984
 C1039 C 0.47708 0.68269 0.94797
 C1040 C 0.49772 0.69385 0.94003
 H1041 H 0.49058 0.58318 1.00603
 H1042 H 0.51008 0.60960 0.97610
 H1043 H 0.51196 0.64701 0.95243
 H1044 H 0.44189 0.66698 0.97660
 H1045 H 0.44006 0.62963 1.00037
 H1046 H 0.46013 0.69109 0.94386
 H1047 H 0.43632 0.58962 1.00350
 H1048 H 0.51461 0.68714 0.94668
 C1049 C 0.52354 0.95897 1.02980
 C1050 C 0.54031 0.94806 1.01485
 C1051 C 0.53384 0.93168 0.99509
 C1052 C 0.55051 0.91449 0.98727
 C1053 C 0.54451 0.89761 0.96989
 C1054 C 0.52169 0.89778 0.95981
 C1055 C 0.50527 0.91542 0.96707
 C1056 C 0.51130 0.93238 0.98432
 C1057 C 0.51396 0.87895 0.94302
 C1058 C 0.52955 0.86626 0.92807
 H1059 H 0.55886 0.94968 1.01925
 H1060 H 0.56802 0.91363 0.99520
 H1061 H 0.55749 0.88396 0.96511
 H1062 H 0.48762 0.91600 0.95947
 H1063 H 0.49820 0.94588 0.98913
 H1064 H 0.49517 0.87593 0.94197
 H1065 H 0.50503 0.95512 1.02719
 H1066 H 0.54763 0.87235 0.92699
 C1067 C 0.05786 0.41741 0.53950
 C1068 C 0.03803 0.40344 0.53495
 C1069 C 0.03716 0.38552 0.51548
 C1070 C 0.02155 0.36617 0.51771
 C1071 C 0.01993 0.34908 0.49952
 C1072 C 0.03361 0.35132 0.47838
 C1073 C 0.04920 0.37074 0.47620
 C1074 C 0.05093 0.38773 0.49446
 C1075 C 0.03267 0.33367 0.45854
 C1076 C 0.01413 0.31746 0.45549
 H1077 H 0.02254 0.40546 0.54623
 H1078 H 0.01077 0.36410 0.53375
 H1079 H 0.00824 0.33406 0.50245
 H1080 H 0.05996 0.37294 0.46015
 H1081 H 0.06266 0.40279 0.49176
 H1082 H 0.04706 0.33422 0.44580
 H1083 H 0.07364 0.41475 0.52880
 H1084 H -0.00058 0.31836 0.46790
 C1085 C 0.44635 0.47942 0.42944
 C1086 C 0.43536 0.48681 0.45073
 C1087 C 0.41481 0.50372 0.45155
 C1088 C 0.40888 0.51422 0.47366
 C1089 C 0.38921 0.52966 0.47554
 C1090 C 0.37484 0.53471 0.45531
 C1091 C 0.38093 0.52451 0.43311
 C1092 C 0.40057 0.50901 0.43124
 C1093 C 0.35364 0.55067 0.45663
 C1094 C 0.34042 0.55332 0.47783
 H1095 H 0.44264 0.48038 0.46779
 H1096 H 0.41956 0.51052 0.48957
 H1097 H 0.38554 0.53778 0.49278
 H1098 H 0.37017 0.52816 0.41725
 H1099 H 0.40409 0.50091 0.41398
 H1100 H 0.34764 0.55891 0.43987
 H1101 H 0.44096 0.48749 0.41236
 H1102 H 0.34592 0.54275 0.49354
 C1103 C 0.93567 -0.01406 -0.04100
 C1104 C 0.91383 -0.01809 -0.02999
 C1105 C 0.89674 0.00174 -0.02501
 C1106 C 0.88008 -0.00124 -0.00648
 C1107 C 0.86324 0.01690 -0.00190
 C1108 C 0.86260 0.03827 -0.01606
 C1109 C 0.87916 0.04115 -0.03467
 C1110 C 0.89601 0.02310 -0.03917
 C1111 C 0.84459 0.05752 -0.01252
 C1112 C 0.82794 0.05655 0.00590
 H1113 H 0.90891 -0.03636 -0.02506
 H1114 H 0.88012 -0.01765 0.00450
 H1115 H 0.85060 0.01405 0.01250
 H1116 H 0.87888 0.05731 -0.04601
 H1117 H 0.90794 0.02573 -0.05419
 H1118 H 0.84432 0.07271 -0.02512
 H1119 H 0.94072 0.00429 -0.04538
 H1120 H 0.81782 0.06716 0.00667
 C1121 C 0.55175 -0.01499 0.05293
 C1122 C 0.56111 -0.00208 0.03334
 C1123 C 0.58260 0.01295 0.03457
 C1124 C 0.58792 0.02814 0.01480
 C1125 C 0.60775 0.04291 0.01517
 C1126 C 0.62281 0.04269 0.03537
 C1127 C 0.61755 0.02754 0.05513
 C1128 C 0.59783 0.01264 0.05470
 C1129 C 0.64363 0.05848 0.03671
 C1130 C 0.65581 0.06666 0.01631
 H1131 H 0.55153 -0.00217 0.01641
 H1132 H 0.57653 0.02881 -0.00092
 H1133 H 0.61089 0.05481 -0.00015
 H1134 H 0.62889 0.02706 0.07089
 H1135 H 0.59490 0.00094 0.07017
 H1136 H 0.65044 0.06247 0.05444
 H1137 H 0.55975 -0.01376 0.07054
 H1138 H 0.65084 0.06011 -0.00125
 C1139 C 0.07477 0.45496 0.55651
 C1140 C 0.08396 0.46359 0.53465
 C1141 C 0.10210 0.48256 0.53276
 C1142 C 0.11525 0.48447 0.51137
 C1143 C 0.13271 0.50190 0.50876
 C1144 C 0.13740 0.51789 0.52758
 C1145 C 0.12377 0.51648 0.54869
 C1146 C 0.10633 0.49899 0.55134
 C1147 C 0.15569 0.53669 0.52549
 C1148 C 0.17513 0.53477 0.51004
 H1149 H 0.07815 0.45554 0.51804
 H1150 H 0.11207 0.47233 0.49662
 H1151 H 0.14210 0.50300 0.49180
 H1152 H 0.12672 0.52889 0.56326
 H1153 H 0.09606 0.49877 0.56778
 H1154 H 0.15373 0.55230 0.53683
 H1155 H 0.08021 0.46288 0.57329
 H1156 H 0.17715 0.51883 0.49915
 C1157 C 0.06420 0.52678 -0.04164
 C1158 C 0.07696 0.51911 -0.02125
 C1159 C 0.09672 0.50120 -0.02194
 C1160 C 0.11249 0.49975 -0.00241
 C1161 C 0.13119 0.48294 -0.00214
 C1162 C 0.13454 0.46712 -0.02153
 C1163 C 0.11845 0.46822 -0.04081
 C1164 C 0.09975 0.48502 -0.04106
 C1165 C 0.15398 0.44882 -0.02210
 C1166 C 0.17429 0.44980 -0.00779
 H1167 H 0.07237 0.52667 -0.00394
 H1168 H 0.11032 0.51168 0.01276
 H1169 H 0.14258 0.48221 0.01352
 H1170 H 0.12035 0.45600 -0.05578
 H1171 H 0.08755 0.48480 -0.05606
 H1172 H 0.15215 0.43418 -0.03460
 H1173 H 0.06879 0.51974 -0.05913
 H1174 H 0.17619 0.46438 0.00475
 C1175 C 0.55883 1.02757 0.46792
 C1176 C 0.57109 1.02020 0.48875
 C1177 C 0.59082 1.00220 0.48920
 C1178 C 0.60487 1.00022 0.51004
 C1179 C 0.62359 0.98350 0.51151
 C1180 C 0.62876 0.96832 0.49202
 C1181 C 0.61444 0.96996 0.47135
 C1182 C 0.59568 0.98668 0.46989
 C1183 C 0.64824 0.95005 0.49282
 C1184 C 0.66717 0.95073 0.50901
 H1185 H 0.56618 1.02833 0.50570
 H1186 H 0.60132 1.01167 0.52533
 H1187 H 0.63353 0.98232 0.52815
 H1188 H 0.61777 0.95823 0.45623
 H1189 H 0.58498 0.98696 0.45375
 H1190 H 0.64748 0.93555 0.48001
 H1191 H 0.56321 1.01970 0.45076
 H1192 H 0.66805 0.96524 0.52178
 C1193 C 0.94154 1.01213 0.54110
 C1194 C 0.93232 0.99431 0.55643
 C1195 C 0.91101 0.98057 0.55014
 C1196 C 0.89648 0.97166 0.56867
 C1197 C 0.87569 0.95950 0.56324
 C1198 C 0.86927 0.95568 0.53907
 C1199 C 0.88409 0.96419 0.52059
 C1200 C 0.90481 0.97634 0.52602
 C1201 C 0.84703 0.94377 0.53226
 C1202 C 0.83475 0.92795 0.54760
 H1203 H 0.93970 0.99178 0.57435
 H1204 H 0.90091 0.97466 0.58739
 H1205 H 0.86450 0.95375 0.57800
 H1206 H 0.87964 0.96140 0.50184
 H1207 H 0.91596 0.98224 0.51126
 H1208 H 0.84123 0.94671 0.51386
 H1209 H 0.93238 1.01654 0.52439
 H1210 H 0.84252 0.92346 0.56499
 C1211 C 0.43335 0.54231 0.01298
 C1212 C 0.42660 0.52220 0.02681
 C1213 C 0.40681 0.50648 0.02004
 C1214 C 0.39549 0.49288 0.03812
 C1215 C 0.37668 0.47789 0.03242
 C1216 C 0.36906 0.47592 0.00836
 C1217 C 0.38048 0.48943 -0.00971
 C1218 C 0.39926 0.50442 -0.00402
 C1219 C 0.34891 0.46068 0.00149
 C1220 C 0.34142 0.44078 0.01534
 H1221 H 0.43522 0.51861 0.04398
 H1222 H 0.40097 0.49414 0.05678
 H1223 H 0.36792 0.46836 0.04700
 H1224 H 0.37499 0.48823 -0.02838
 H1225 H 0.40797 0.51403 -0.01858
 H1226 H 0.34075 0.46489 -0.01572
 H1227 H 0.42295 0.54757 -0.00271
 H1228 H 0.35162 0.43579 0.03124
 C1229 C 0.48167 0.46132 0.40938
 C1230 C 0.48787 0.48211 0.39633
 C1231 C 0.50474 0.48203 0.37587
 C1232 C 0.51583 0.50368 0.36926
 C1233 C 0.53193 0.50439 0.35013
 C1234 C 0.53702 0.48345 0.33694
 C1235 C 0.52588 0.46182 0.34351
 C1236 C 0.50978 0.46110 0.36263
 C1237 C 0.55426 0.48324 0.31679
 C1238 C 0.55993 0.50396 0.30319
 H1239 H 0.48112 0.49944 0.40228
 H1240 H 0.51229 0.52005 0.37917
 H1241 H 0.54065 0.52126 0.34615
 H1242 H 0.52947 0.44543 0.33365
 H1243 H 0.50114 0.44421 0.36665
 H1244 H 0.56152 0.46581 0.31207
 H1245 H 0.49011 0.44422 0.40522
 H1246 H 0.55047 0.52058 0.30713
 C1247 C -0.03532 -0.02868 0.92960
 C1248 C -0.01557 -0.04275 0.92338
 C1249 C -0.00072 -0.03747 0.90196
 C1250 C 0.02272 -0.04612 0.90164
 C1251 C 0.03742 -0.04115 0.88195
 C1252 C 0.02882 -0.02768 0.86195
 C1253 C 0.00532 -0.01923 0.86218
 C1254 C -0.00938 -0.02422 0.88184
 C1255 C 0.04399 -0.02126 0.84107
 C1256 C 0.06402 -0.03483 0.83453
 H1257 H -0.00981 -0.05725 0.93548
 H1258 H 0.02982 -0.05637 0.91690
 H1259 H 0.05561 -0.04741 0.88279
 H1260 H -0.00175 -0.00885 0.84699
 H1261 H -0.02753 -0.01787 0.88101
 H1262 H 0.03823 -0.00593 0.83014
 H1263 H -0.03958 -0.01266 0.91888
 H1264 H 0.06761 -0.05151 0.84447
 C1265 C -0.02158 0.01797 0.56506
 C1266 C -0.01018 0.03349 0.58074
 C1267 C 0.00625 0.02512 0.60010
 C1268 C 0.02180 0.04178 0.61000
 C1269 C 0.03715 0.03489 0.62876
 C1270 C 0.03724 0.01104 0.63806
 C1271 C 0.02141 -0.00552 0.62841
 C1272 C 0.00609 0.00137 0.60964
 C1273 C 0.05264 0.00308 0.65846
 C1274 C 0.07333 0.01489 0.66485
 H1275 H -0.01339 0.05276 0.57870
 H1276 H 0.02200 0.06029 0.60328
 H1277 H 0.04839 0.04851 0.63621
 H1278 H 0.02081 -0.02387 0.63552
 H1279 H -0.00617 -0.01185 0.60318
 H1280 H 0.04726 -0.01273 0.66866
 H1281 H -0.01849 -0.00133 0.56659
 H1282 H 0.07883 0.03045 0.65431
 C1283 C 0.47120 0.54826 0.03530
 C1284 C 0.48240 0.56290 0.05196
 C1285 C 0.50063 0.55402 0.06937
 C1286 C 0.50642 0.56869 0.08886
 C1287 C 0.52321 0.56100 0.10595
 C1288 C 0.53475 0.53845 0.10379
 C1289 C 0.52907 0.52380 0.08429
 C1290 C 0.51237 0.53154 0.06711
 C1291 C 0.55203 0.52933 0.12198
 C1292 C 0.56529 0.54459 0.13634
 H1293 H 0.47660 0.58159 0.05312
 H1294 H 0.49767 0.58607 0.09108
 H1295 H 0.52665 0.57252 0.12109
 H1296 H 0.53772 0.50635 0.08223
 H1297 H 0.50901 0.51988 0.05210
 H1298 H 0.55515 0.50999 0.12322
 H1299 H 0.47503 0.52907 0.03522
 H1300 H 0.56438 0.56390 0.13287
 C1301 C 0.51433 -0.03000 0.07143
 C1302 C 0.51380 -0.01309 0.08987
 C1303 C 0.49740 -0.01477 0.11062
 C1304 C 0.49113 0.00634 0.12288
 C1305 C 0.47546 0.00546 0.14237
 C1306 C 0.46581 -0.01668 0.15004
 C1307 C 0.47271 -0.03789 0.13825
 C1308 C 0.48831 -0.03699 0.11874
 C1309 C 0.44913 -0.01861 0.17056
 C1310 C 0.43542 0.00076 0.17884
 H1311 H 0.52470 0.00279 0.08830
 H1312 H 0.49826 0.02361 0.11726
 H1313 H 0.47135 0.02211 0.15151
 H1314 H 0.46590 -0.05523 0.14409
 H1315 H 0.49344 -0.05379 0.11037
 H1316 H 0.44740 -0.03622 0.17910
 H1317 H 0.50148 -0.04430 0.07158
 H1318 H 0.43714 0.01843 0.17042
 C1319 C 1.04297 0.43352 0.57854
 C1320 C 1.03257 0.45376 0.58906
 C1321 C 1.01638 0.45210 0.60990
 C1322 C 0.99866 0.46986 0.61248
 C1323 C 0.98313 0.46897 0.63205
 C1324 C 0.98528 0.45042 0.64963
 C1325 C 1.00337 0.43299 0.64739
 C1326 C 1.01869 0.43368 0.62759
 C1327 C 0.96968 0.44966 0.67100
 C1328 C 0.94634 0.45817 0.67023
 H1329 H 1.03509 0.47132 0.58056
 H1330 H 0.99678 0.48442 0.59925
 H1331 H 0.96984 0.48312 0.63367
 H1332 H 1.00560 0.41879 0.66094
 H1333 H 1.03262 0.42012 0.62647
 H1334 H 0.97652 0.44138 0.68747
 H1335 H 1.03845 0.41561 0.58508
 H1336 H 0.93862 0.46328 0.65295
 C1337 C 1.02641 0.54291 0.94128
 C1338 C 1.02030 0.52153 0.92991
 C1339 C 1.00284 0.52020 0.91005
 C1340 C 0.99395 0.49751 0.90411
 C1341 C 0.97815 0.49518 0.88493
 C1342 C 0.97084 0.51561 0.87123
 C1343 C 0.97991 0.53826 0.87701
 C1344 C 0.99572 0.54060 0.89620
 C1345 C 0.95500 0.51380 0.85004
 C1346 C 0.93946 0.49461 0.84685
 H1347 H 1.02831 0.50472 0.93636
 H1348 H 0.99944 0.48145 0.91422
 H1349 H 0.97231 0.47726 0.88056
 H1350 H 0.97489 0.55422 0.86650
 H1351 H 1.00268 0.55830 0.89962
 H1352 H 0.95539 0.52864 0.83715
 H1353 H 1.01700 0.55955 0.93684
 H1354 H 0.93774 0.48157 0.86152
 C1355 C 0.52231 0.04594 0.44978
 C1356 C 0.51522 0.02504 0.43811
 C1357 C 0.49759 0.02502 0.41831
 C1358 C 0.48696 0.00315 0.41234
 C1359 C 0.47066 0.00221 0.39340
 C1360 C 0.46462 0.02325 0.37999
 C1361 C 0.47551 0.04504 0.38577
 C1362 C 0.49181 0.04597 0.40465
 C1363 C 0.44814 0.02313 0.35916
 C1364 C 0.43163 0.00493 0.35527
 H1365 H 0.52232 0.00775 0.44437
 H1366 H 0.49139 -0.01333 0.42228
 H1367 H 0.46339 -0.01513 0.38906
 H1368 H 0.47151 0.06144 0.37548
 H1369 H 0.50015 0.06303 0.40801
 H1370 H 0.44893 0.03858 0.34706
 H1371 H 0.51366 0.06302 0.44543
 H1372 H 0.42991 -0.00911 0.36897
   
