data_POSCAR
  _audit_creation_date              2014-09-24
  _audit_creation_method            'ToBaCCo'
  _symmetry_space_group_name_H-M    'P1'
  _symmetry_Int_Tables_number       1
  _symmetry_cell_setting            triclinic
  loop_
  _symmetry_equiv_pos_as_xyz
 x,y,z
_cell_length_a 55.7377
_cell_length_b 55.8008
_cell_length_c 55.6502
_cell_angle_alpha 90.004700
_cell_angle_beta 90.020800
_cell_angle_gamma 89.941200
loop_
  _atom_site_label
  _atom_site_type_symbol
  _atom_site_fract_x
  _atom_site_fract_y
  _atom_site_fract_z
N1 N 0.36840 1.35157 0.30109
 N2 N 0.35155 1.36806 0.30120
 C3 C 0.35604 1.38401 0.28358
 C4 C 0.37684 1.37700 0.27180
 C5 C 0.38411 1.35634 0.28338
 H6 H 0.34497 1.39943 0.27968
 H7 H 0.39979 1.34566 0.27926
 Cu8 Cu 0.32539 1.36711 0.32441
 Cu9 Cu 0.36909 1.32542 0.32413
 Cu10 Cu 0.32394 1.32405 0.36685
 N11 N 0.30054 1.36634 0.34902
 N12 N 0.30017 1.34957 0.36561
 C13 C 0.28145 1.35340 0.38040
 C14 C 0.26935 1.37360 0.37267
 C15 C 0.28199 1.38141 0.35266
 H16 H 0.27690 1.34230 0.39566
 H17 H 0.27814 1.39688 0.34165
 N18 N 0.34959 1.29983 0.36515
 N19 N 0.36682 1.30038 0.34890
 C20 C 0.38171 1.28172 0.35260
 C21 C 0.37346 1.26882 0.37204
 C22 C 0.35305 1.28077 0.37960
 H23 H 0.39750 1.27776 0.34204
 H24 H 0.34165 1.27610 0.39457
 H25 H 0.33255 1.32442 0.33080
 H26 H 0.35104 1.34372 0.35105
 N27 N 0.36834 0.85134 0.80298
 N28 N 0.35095 0.86727 0.80242
 C29 C 0.35512 0.88276 0.78431
 C30 C 0.37625 0.87606 0.77299
 C31 C 0.38405 0.85605 0.78527
 H32 H 0.34367 0.89772 0.77974
 H33 H 0.40013 0.84581 0.78165
 Cu34 Cu 0.32467 0.86625 0.82556
 Cu35 Cu 0.36984 0.82609 0.82695
 Cu36 Cu 0.32466 0.82466 0.86953
 N37 N 0.29988 0.86553 0.85028
 N38 N 0.30004 0.84922 0.86733
 C39 C 0.28133 0.85295 0.88213
 C40 C 0.26870 0.87260 0.87398
 C41 C 0.28096 0.88022 0.85369
 H42 H 0.27721 0.84225 0.89779
 H43 H 0.27662 0.89538 0.84242
 N44 N 0.35112 0.80133 0.86881
 N45 N 0.36838 0.80191 0.85260
 C46 C 0.38401 0.78406 0.85712
 C47 C 0.37618 0.77170 0.87718
 C48 C 0.35530 0.78306 0.88406
 H49 H 0.39989 0.78040 0.84662
 H50 H 0.34412 0.77838 0.89922
 H51 H 0.33334 0.82410 0.83350
 H52 H 0.35106 0.84478 0.85308
 N53 N 0.86605 1.34914 0.79849
 N54 N 0.84997 1.36639 0.79904
 C55 C 0.85388 1.38136 0.78044
 C56 C 0.87344 1.37305 0.76759
 C57 C 0.88072 1.35251 0.77960
 H58 H 0.84337 1.39718 0.77648
 H59 H 0.89557 1.34088 0.77514
 Cu60 Cu 0.82558 1.36751 0.82412
 Cu61 Cu 0.86710 1.32369 0.82238
 Cu62 Cu 0.82333 1.32454 0.86650
 N63 N 0.80071 1.36732 0.84875
 N64 N 0.79997 1.35035 0.86511
 C65 C 0.78115 1.35415 0.87973
 C66 C 0.76938 1.37464 0.87214
 C67 C 0.78229 1.38257 0.85248
 H68 H 0.77648 1.34279 0.89473
 H69 H 0.77842 1.39822 0.84168
 N70 N 0.84852 1.29989 0.86497
 N71 N 0.86519 1.29953 0.84814
 C72 C 0.87989 1.28076 0.85210
 C73 C 0.87203 1.26877 0.87240
 C74 C 0.85219 1.28140 0.88008
 H75 H 0.89528 1.27635 0.84116
 H76 H 0.84132 1.27737 0.89565
 H77 H 0.83090 1.32461 0.83018
 H78 H 0.85100 1.34275 0.84989
 N79 N 0.86833 0.85107 0.30226
 N80 N 0.85101 0.86706 0.30180
 C81 C 0.85498 0.88245 0.28354
 C82 C 0.87597 0.87563 0.27195
 C83 C 0.88386 0.85564 0.28431
 H84 H 0.84347 0.89740 0.27912
 H85 H 0.89986 0.84530 0.28058
 Cu86 Cu 0.82497 0.86632 0.32521
 Cu87 Cu 0.86984 0.82582 0.32641
 Cu88 Cu 0.82457 0.82478 0.36904
 N89 N 0.80002 0.86576 0.34979
 N90 N 0.80005 0.84945 0.36683
 C91 C 0.78128 0.85323 0.38155
 C92 C 0.76876 0.87294 0.37336
 C93 C 0.78112 0.88051 0.35312
 H94 H 0.77705 0.84253 0.39718
 H95 H 0.77686 0.89567 0.34183
 N96 N 0.85090 0.80130 0.36843
 N97 N 0.86824 0.80171 0.35229
 C98 C 0.88370 0.78371 0.35697
 C99 C 0.87563 0.77145 0.37703
 C100 C 0.85482 0.78302 0.38374
 H101 H 0.89958 0.77984 0.34654
 H102 H 0.84350 0.77846 0.39883
 H103 H 0.83340 0.82406 0.33294
 H104 H 0.85130 0.84452 0.35253
 N105 N 0.63261 0.64807 0.30214
 N106 N 0.65000 0.63214 0.30182
 C107 C 0.64613 0.61666 0.28364
 C108 C 0.62514 0.62315 0.27216
 C109 C 0.61702 0.64321 0.28434
 H110 H 0.65752 0.60162 0.27917
 H111 H 0.60101 0.65353 0.28064
 Cu112 Cu 0.67553 0.63328 0.32555
 Cu113 Cu 0.63102 0.67358 0.32598
 Cu114 Cu 0.67640 0.67511 0.36878
 N115 N 0.70088 0.63388 0.34947
 N116 N 0.70118 0.65043 0.36631
 C117 C 0.72021 0.64671 0.38075
 C118 C 0.73251 0.62677 0.37244
 C119 C 0.71977 0.61912 0.35260
 H120 H 0.72453 0.65756 0.39625
 H121 H 0.72390 0.60376 0.34150
 N122 N 0.64967 0.69840 0.36803
 N123 N 0.63259 0.69790 0.35158
 C124 C 0.61702 0.71585 0.35587
 C125 C 0.62449 0.72814 0.37600
 C126 C 0.64532 0.71668 0.38326
 H127 H 0.60119 0.71965 0.34529
 H128 H 0.65646 0.72126 0.39847
 H129 H 0.66740 0.67550 0.33288
 H130 H 0.64941 0.65546 0.35273
 N131 N 0.63262 0.14871 0.80199
 N132 N 0.65102 0.13406 0.80031
 C133 C 0.64712 0.11848 0.78224
 C134 C 0.62509 0.12366 0.77199
 C135 C 0.61635 0.14300 0.78504
 H136 H 0.65943 0.10448 0.77686
 H137 H 0.59968 0.15252 0.78228
 Cu138 Cu 0.67840 0.13671 0.82180
 Cu139 Cu 0.63166 0.17489 0.82519
 Cu140 Cu 0.68088 0.18055 0.86296
 N141 N 0.69987 0.13479 0.84935
 N142 N 0.70081 0.15212 0.86531
 C143 C 0.71783 0.14705 0.88166
 C144 C 0.72806 0.12530 0.87577
 C145 C 0.71622 0.11794 0.85511
 H146 H 0.72270 0.15854 0.89653
 H147 H 0.71953 0.10189 0.84473
 N148 N 0.65338 0.20257 0.86380
 N149 N 0.63446 0.20028 0.84973
 C150 C 0.61872 0.21787 0.85490
 C151 C 0.62823 0.23178 0.87318
 C152 C 0.65013 0.22153 0.87841
 H153 H 0.60164 0.22031 0.84604
 H154 H 0.66275 0.22744 0.89193
 H155 H 0.66780 0.17915 0.82781
 H156 H 0.65399 0.15882 0.85048
 N157 N 1.13436 0.65122 0.79966
 N158 N 1.15210 0.63569 0.79906
 C159 C 1.14893 0.62094 0.78014
 C160 C 1.12808 0.62770 0.76834
 C161 C 1.11936 0.64693 0.78122
 H162 H 1.16076 0.60630 0.77549
 H163 H 1.10315 0.65693 0.77751
 Cu164 Cu 1.17731 0.63598 0.82335
 Cu165 Cu 1.13154 0.67539 0.82458
 Cu166 Cu 1.17479 0.67543 0.86921
 N167 N 1.20100 0.63588 0.84912
 N168 N 1.19988 0.65132 0.86692
 C169 C 1.21813 0.64721 0.88222
 C170 C 1.23142 0.62819 0.87361
 C171 C 1.22005 0.62137 0.85253
 H172 H 1.22150 0.65725 0.89850
 H173 H 1.22512 0.60690 0.84067
 N174 N 1.14798 0.69842 0.86837
 N175 N 1.13159 0.69847 0.85125
 C176 C 1.11572 0.71614 0.85562
 C177 C 1.12237 0.72768 0.87649
 C178 C 1.14294 0.71604 0.88412
 H179 H 1.10036 0.72036 0.84453
 H180 H 1.15352 0.72014 0.89987
 H181 H 1.16773 0.67759 0.83290
 H182 H 1.14948 0.65578 0.85066
 N183 N 1.13178 0.14647 0.30248
 N184 N 1.15089 0.13292 0.29980
 C185 C 1.14712 0.11747 0.28161
 C186 C 1.12445 0.12162 0.27242
 C187 C 1.11521 0.14018 0.28609
 H188 H 1.15993 0.10429 0.27539
 H189 H 1.09796 0.14880 0.28408
 Cu190 Cu 1.17885 0.13681 0.32020
 Cu191 Cu 1.13018 0.17195 0.32622
 Cu192 Cu 1.17972 0.17911 0.36318
 N193 N 1.20169 0.13564 0.34653
 N194 N 1.20212 0.15232 0.36320
 C195 C 1.22010 0.14767 0.37865
 C196 C 1.23146 0.12681 0.37129
 C197 C 1.21926 0.11965 0.35091
 H198 H 1.22449 0.15872 0.39399
 H199 H 1.22310 0.10412 0.33992
 N200 N 1.15100 0.19966 0.36519
 N201 N 1.13209 0.19682 0.35120
 C202 C 1.11559 0.21354 0.35679
 C203 C 1.12441 0.22742 0.37528
 C204 C 1.14694 0.21815 0.38021
 H205 H 1.09840 0.21564 0.34802
 H206 H 1.15954 0.22446 0.39356
 H207 H 1.16634 0.17835 0.32825
 H208 H 1.15413 0.15636 0.35033
 N209 N 0.63327 1.35267 0.69700
 N210 N 0.65238 1.36615 0.69992
 C211 C 0.64853 1.38141 0.71826
 C212 C 0.62585 1.37721 0.72735
 C213 C 0.61664 1.35882 0.71342
 H214 H 0.66135 1.39445 0.72471
 H215 H 0.59939 1.35021 0.71528
 Cu216 Cu 0.68054 1.36231 0.67972
 Cu217 Cu 0.63181 1.32731 0.67303
 Cu218 Cu 0.68249 1.31919 0.63777
 N219 N 0.70376 1.36321 0.65365
 N220 N 0.70455 1.34616 0.63738
 C221 C 0.72265 1.35058 0.62203
 C222 C 0.73377 1.37167 0.62901
 C223 C 0.72127 1.37920 0.64911
 H224 H 0.72729 1.33918 0.60702
 H225 H 0.72487 1.39500 0.65978
 N226 N 0.65365 1.29905 0.63498
 N227 N 0.63413 1.30249 0.64796
 C228 C 0.61754 1.28613 0.64160
 C229 C 0.62711 1.27178 0.62372
 C230 C 0.64998 1.28048 0.61999
 H231 H 0.59997 1.28461 0.64965
 H232 H 0.66298 1.27374 0.60724
 H233 H 0.66779 1.32073 0.67227
 H234 H 0.65646 1.34234 0.64936
 N235 N 0.63316 0.84852 1.20051
 N236 N 0.64909 0.86585 1.19947
 C237 C 0.64534 0.88103 1.21794
 C238 C 0.62597 0.87269 1.23113
 C239 C 0.61872 0.85209 1.21954
 H240 H 0.65579 0.89696 1.22140
 H241 H 0.60398 0.84057 1.22463
 Cu242 Cu 0.67291 0.86692 1.17385
 Cu243 Cu 0.63202 0.82267 1.17717
 Cu244 Cu 0.67510 0.82318 1.13235
 N245 N 0.69725 0.86672 1.14867
 N246 N 0.69803 0.84940 1.13267
 C247 C 0.71621 0.85348 1.11733
 C248 C 0.72742 0.87449 1.12393
 C249 C 0.71498 0.88247 1.14398
 H250 H 0.72087 0.84211 1.10229
 H251 H 0.71852 0.89846 1.15433
 N252 N 0.65036 0.79821 1.13494
 N253 N 0.63384 0.79809 1.15192
 C254 C 0.61922 0.77920 1.14846
 C255 C 0.62692 0.76688 1.12842
 C256 C 0.64671 0.77940 1.12025
 H257 H 0.60394 0.77476 1.15955
 H258 H 0.65744 0.77537 1.10460
 H259 H 0.66807 0.82383 1.16890
 H260 H 0.64738 0.84138 1.14916
 N261 N 1.13378 1.34927 1.19895
 N262 N 1.15107 1.36526 1.19919
 C263 C 1.14782 1.38005 1.21804
 C264 C 1.12739 1.37286 1.23022
 C265 C 1.11897 1.35331 1.21761
 H266 H 1.15932 1.39502 1.22238
 H267 H 1.10313 1.34290 1.22168
 Cu268 Cu 1.17587 1.36563 1.17456
 Cu269 Cu 1.13143 1.32470 1.17429
 Cu270 Cu 1.17455 1.32531 1.12953
 N271 N 1.19917 1.36632 1.14852
 N272 N 1.19870 1.35037 1.13114
 C273 C 1.21651 1.35507 1.11552
 C274 C 1.22871 1.37508 1.12342
 C275 C 1.21728 1.38178 1.14448
 H276 H 1.22019 1.34487 1.09941
 H277 H 1.22172 1.39677 1.15593
 N278 N 1.14865 1.30141 1.13089
 N279 N 1.13209 1.30131 1.14783
 C280 C 1.11661 1.28329 1.14353
 C281 C 1.12381 1.27154 1.12286
 C282 C 1.14418 1.28342 1.11540
 H283 H 1.10128 1.27908 1.15462
 H284 H 1.15479 1.27930 1.09967
 H285 H 1.16751 1.32355 1.16600
 H286 H 1.14848 1.34441 1.14789
 N287 N 1.13148 0.85302 0.69649
 N288 N 1.14931 0.86840 0.69736
 C289 C 1.14557 0.88369 0.71572
 C290 C 1.12430 0.87759 0.72688
 C291 C 1.11583 0.85798 0.71422
 H292 H 1.15734 0.89828 0.72064
 H293 H 1.09958 0.84799 0.71761
 Cu294 Cu 1.17554 0.86729 0.67426
 Cu295 Cu 1.12977 0.82784 0.67239
 Cu296 Cu 1.17517 0.82609 0.62997
 N297 N 1.20025 0.86656 0.64952
 N298 N 1.20006 0.85039 0.63235
 C299 C 1.21891 0.85407 0.61771
 C300 C 1.23159 0.87360 0.62608
 C301 C 1.21924 0.88115 0.64632
 H302 H 1.22308 0.84343 0.60201
 H303 H 1.22360 0.89617 0.65777
 N304 N 1.14846 0.80302 0.63046
 N305 N 1.13115 0.80370 0.64662
 C306 C 1.11555 0.78582 0.64214
 C307 C 1.12347 0.77332 0.62217
 C308 C 1.14434 0.78467 0.61529
 H309 H 1.09969 0.78218 0.65267
 H310 H 1.15563 0.77985 0.60025
 H311 H 1.16616 0.82535 0.66602
 H312 H 1.14881 0.84646 0.64655
 N313 N 0.36640 0.65170 0.70104
 N314 N 0.34903 0.63580 0.70153
 C315 C 0.35250 0.62100 0.72034
 C316 C 0.37316 0.62812 0.73220
 C317 C 0.38147 0.64761 0.71947
 H318 H 0.34101 0.60608 0.72488
 H319 H 0.39745 0.65792 0.72328
 Cu320 Cu 0.32386 0.63570 0.67729
 Cu321 Cu 0.36857 0.67613 0.67634
 Cu322 Cu 0.32495 0.67581 0.63199
 N323 N 0.29993 0.63533 0.65182
 N324 N 0.30032 0.65112 0.63430
 C325 C 0.28182 0.64687 0.61933
 C326 C 0.26919 0.62730 0.62795
 C327 C 0.28121 0.62042 0.64852
 H328 H 0.27801 0.65718 0.60334
 H329 H 0.27656 0.60565 0.66019
 N330 N 0.35140 0.69931 0.63288
 N331 N 0.36788 0.69944 0.64992
 C332 C 0.38341 0.71740 0.64569
 C333 C 0.37651 0.72909 0.62501
 C334 C 0.35608 0.71721 0.61731
 H335 H 0.39877 0.72170 0.65676
 H336 H 0.34541 0.72131 0.60162
 H337 H 0.33232 0.67764 0.66823
 H338 H 0.35096 0.65654 0.65003
 N339 N 0.36767 0.14712 1.19692
 N340 N 0.35001 0.13154 1.19732
 C341 C 0.35369 0.11604 1.21551
 C342 C 0.37477 0.12222 1.22700
 C343 C 0.38315 0.14210 1.21476
 H344 H 0.34208 0.10118 1.22000
 H345 H 0.39928 0.15219 1.21845
 Cu346 Cu 0.32424 0.13239 1.17373
 Cu347 Cu 0.36957 0.17243 1.17314
 Cu348 Cu 0.32595 0.17331 1.12896
 N349 N 0.30098 0.13239 1.14765
 N350 N 0.30161 0.14839 1.13033
 C351 C 0.28366 0.14396 1.11474
 C352 C 0.27123 0.12407 1.12262
 C353 C 0.28267 0.11717 1.14360
 H354 H 0.28001 0.15430 1.09872
 H355 H 0.27811 0.10221 1.15504
 N356 N 0.35208 0.19701 1.13064
 N357 N 0.36861 0.19671 1.14762
 C358 C 0.38402 0.21489 1.14391
 C359 C 0.37699 0.22714 1.12359
 C360 C 0.35661 0.21539 1.11560
 H361 H 0.39942 0.21890 1.15502
 H362 H 0.34587 0.21985 1.10007
 H363 H 0.33328 0.17441 1.16532
 H364 H 0.35160 0.15325 1.14676
 N365 N 0.86646 0.65100 1.20031
 N366 N 0.84948 0.63468 1.20068
 C367 C 0.85298 0.62017 1.21970
 C368 C 0.87330 0.62787 1.23178
 C369 C 0.88135 0.64743 1.21900
 H370 H 0.84177 0.60505 1.22421
 H371 H 0.89704 0.65814 1.22294
 Cu372 Cu 0.82486 0.63370 1.17591
 Cu373 Cu 0.86844 0.67529 1.17540
 Cu374 Cu 0.82427 0.67466 1.13156
 N375 N 0.79989 0.63384 1.15147
 N376 N 0.79972 0.65001 1.13428
 C377 C 0.78080 0.64604 1.11979
 C378 C 0.76846 0.62628 1.12836
 C379 C 0.78108 0.61900 1.14844
 H380 H 0.77657 0.65663 1.10408
 H381 H 0.77682 0.60395 1.15990
 N382 N 0.85069 0.69813 1.13196
 N383 N 0.86743 0.69837 1.14874
 C384 C 0.88294 0.71624 1.14409
 C385 C 0.87571 0.72774 1.12341
 C386 C 0.85515 0.71586 1.11615
 H387 H 0.89848 0.72061 1.15487
 H388 H 0.84424 0.71982 1.10060
 H389 H 0.83210 0.67600 1.16783
 H390 H 0.85112 0.65592 1.14890
 N391 N 0.86827 0.14794 0.69667
 N392 N 0.84945 0.13389 0.69855
 C393 C 0.85314 0.11814 0.71650
 C394 C 0.87545 0.12257 0.72640
 C395 C 0.88457 0.14165 0.71337
 H396 H 0.84046 0.10459 0.72211
 H397 H 0.90150 0.15067 0.71610
 Cu398 Cu 0.82187 0.13761 0.67754
 Cu399 Cu 0.86972 0.17419 0.67373
 Cu400 Cu 0.82027 0.18163 0.63655
 N401 N 0.80011 0.13640 0.65023
 N402 N 0.79942 0.15378 0.63431
 C403 C 0.78217 0.14907 0.61807
 C404 C 0.77157 0.12749 0.62400
 C405 C 0.78342 0.11989 0.64456
 H406 H 0.77749 0.16063 0.60318
 H407 H 0.77994 0.10389 0.65493
 N408 N 0.84842 0.20291 0.63569
 N409 N 0.86745 0.19981 0.64948
 C410 C 0.88367 0.21694 0.64438
 C411 C 0.87448 0.23142 0.62652
 C412 C 0.85208 0.22201 0.62137
 H413 H 0.90090 0.21891 0.65308
 H414 H 0.83939 0.22840 0.60815
 H415 H 0.83369 0.17968 0.67153
 H416 H 0.84662 0.15898 0.64864
 N417 N 1.35005 0.36419 0.70139
 N418 N 1.36695 0.34776 0.70079
 C419 C 1.38215 0.35143 0.71926
 C420 C 1.37431 0.37116 0.73206
 C421 C 1.35388 0.37884 0.72020
 H422 H 1.39777 0.34061 0.72321
 H423 H 1.34268 0.39399 0.72472
 Cu424 Cu 1.36737 0.32324 0.67588
 Cu425 Cu 1.32448 0.36572 0.67769
 Cu426 Cu 1.32389 0.32167 0.63387
 N427 N 1.36639 0.29824 0.65148
 N428 N 1.34927 0.29767 0.63523
 C429 C 1.35279 0.27878 0.62061
 C430 C 1.37332 0.26684 0.62809
 C431 C 1.38144 0.27969 0.64772
 H432 H 1.34130 0.27431 0.60562
 H433 H 1.39717 0.27576 0.65840
 N434 N 1.29979 0.34752 0.63550
 N435 N 1.30007 0.36432 0.65219
 C436 C 1.28163 0.37948 0.64836
 C437 C 1.26915 0.37188 0.62837
 C438 C 1.28114 0.35155 0.62061
 H439 H 1.27753 0.39500 0.65924
 H440 H 1.27678 0.34061 0.60521
 H441 H 1.32441 0.32938 0.67019
 H442 H 1.34288 0.34891 0.65019
 N443 N 1.34952 0.86624 1.19983
 N444 N 1.36491 0.84839 1.20090
 C445 C 1.37943 0.85166 1.22002
 C446 C 1.37270 0.87273 1.23149
 C447 C 1.35369 0.88143 1.21815
 H448 H 1.39382 0.83967 1.22504
 H449 H 1.34366 0.89769 1.22155
 Cu450 Cu 1.36467 0.82279 1.17696
 Cu451 Cu 1.32528 0.86863 1.17477
 Cu452 Cu 1.32501 0.82430 1.13127
 N453 N 1.36480 0.79857 1.15160
 N454 N 1.34921 0.79933 1.13388
 C455 C 1.35332 0.78092 1.11881
 C456 C 1.37252 0.76785 1.12744
 C457 C 1.37942 0.77956 1.14837
 H458 H 1.34317 0.77732 1.10263
 H459 H 1.39401 0.77480 1.16024
 N460 N 1.30193 0.85100 1.13155
 N461 N 1.30210 0.86801 1.14803
 C462 C 1.28440 0.88376 1.14318
 C463 C 1.27257 0.87625 1.12264
 C464 C 1.28411 0.85546 1.11581
 H465 H 1.28037 0.89942 1.15387
 H466 H 1.27976 0.84445 1.10043
 H467 H 1.32298 0.83238 1.16749
 H468 H 1.34475 0.85010 1.14917
 N469 N 0.85236 0.36740 1.19781
 N470 N 0.86688 0.34891 1.19957
 C471 C 0.88261 0.35284 1.21752
 C472 C 0.87767 0.37499 1.22759
 C473 C 0.85831 0.38375 1.21457
 H474 H 0.89656 0.34049 1.22295
 H475 H 0.84891 0.40049 1.21723
 Cu476 Cu 0.86391 0.32147 1.17823
 Cu477 Cu 0.82601 0.36840 1.17479
 Cu478 Cu 0.81970 0.31910 1.13736
 N479 N 0.86534 0.29968 1.15093
 N480 N 0.84789 0.29882 1.13507
 C481 C 0.85277 0.28175 1.11873
 C482 C 0.87452 0.27142 1.12453
 C483 C 0.88206 0.28322 1.14512
 H484 H 0.84119 0.27699 1.10387
 H485 H 0.89820 0.27990 1.15537
 N486 N 0.79782 0.34670 1.13655
 N487 N 0.80039 0.36568 1.15047
 C488 C 0.78282 0.38147 1.14539
 C489 C 0.76862 0.37194 1.12733
 C490 C 0.77870 0.34997 1.12213
 H491 H 0.78055 0.39858 1.15419
 H492 H 0.77252 0.33730 1.10879
 H493 H 0.82143 0.33223 1.17249
 H494 H 0.84171 0.34577 1.14959
 N495 N 0.84941 0.86477 0.70112
 N496 N 0.86601 0.84803 0.70083
 C497 C 0.88118 0.85166 0.71933
 C498 C 0.87362 0.87168 0.73183
 C499 C 0.85338 0.87959 0.71975
 H500 H 0.89656 0.84061 0.72347
 H501 H 0.84238 0.89498 0.72405
 Cu502 Cu 0.86602 0.82326 0.67626
 Cu503 Cu 0.82391 0.86631 0.67730
 Cu504 Cu 0.82335 0.82214 0.63345
 N505 N 0.86569 0.79867 0.65155
 N506 N 0.84888 0.79816 0.63497
 C507 C 0.85282 0.77937 0.62028
 C508 C 0.87325 0.76752 0.62813
 C509 C 0.88093 0.78027 0.64793
 H510 H 0.84173 0.77483 0.60499
 H511 H 0.89645 0.77635 0.65889
 N512 N 0.79920 0.84807 0.63508
 N513 N 0.79956 0.86491 0.65174
 C514 C 0.78116 0.88011 0.64796
 C515 C 0.76857 0.87251 0.62804
 C516 C 0.78048 0.85212 0.62027
 H517 H 0.77711 0.89565 0.65884
 H518 H 0.77599 0.84116 0.60491
 H519 H 0.82322 0.82999 0.66962
 H520 H 0.84239 0.84914 0.64996
 N521 N 0.65111 0.63426 0.69910
 N522 N 0.63529 0.65175 0.69955
 C523 C 0.62043 0.64842 0.71836
 C524 C 0.62737 0.62785 0.73034
 C525 C 0.64693 0.61931 0.71760
 H526 H 0.60561 0.66003 0.72307
 H527 H 0.65725 0.60333 0.72129
 Cu528 Cu 0.63570 0.67708 0.67542
 Cu529 Cu 0.67566 0.63182 0.67434
 Cu530 Cu 0.67610 0.67584 0.63045
 N531 N 0.63586 0.70132 0.65020
 N532 N 0.65171 0.70071 0.63271
 C533 C 0.64772 0.71920 0.61771
 C534 C 0.62837 0.73213 0.62619
 C535 C 0.62123 0.72029 0.64688
 H536 H 0.65806 0.72298 0.60172
 H537 H 0.60644 0.72496 0.65852
 N538 N 0.69932 0.64922 0.63118
 N539 N 0.69909 0.63238 0.64784
 C540 C 0.71691 0.61668 0.64333
 C541 C 0.72890 0.62403 0.62285
 C542 C 0.71732 0.64470 0.61568
 H543 H 0.72090 0.60114 0.65421
 H544 H 0.72175 0.65557 0.60023
 H545 H 0.67768 0.66802 0.66670
 H546 H 0.65647 0.64988 0.64816
 N547 N 0.64873 1.13111 1.19892
 N548 N 0.63301 1.14867 1.19964
 C549 C 0.61687 1.14416 1.21706
 C550 C 0.62294 1.12257 1.22787
 C551 C 0.64324 1.11487 1.21591
 H552 H 0.60203 1.15582 1.22149
 H553 H 0.65323 1.09858 1.21932
 Cu554 Cu 0.63521 1.17600 1.17806
 Cu555 Cu 0.67494 1.13047 1.17591
 Cu556 Cu 0.67488 1.17469 1.13237
 N557 N 0.63309 1.19825 1.15125
 N558 N 0.64856 1.19768 1.13344
 C559 C 0.64302 1.21503 1.11756
 C560 C 0.62296 1.22713 1.12591
 C561 C 0.61719 1.21602 1.14733
 H562 H 0.65301 1.21864 1.10131
 H563 H 0.60253 1.22061 1.15920
 N564 N 0.69992 1.14979 1.13444
 N565 N 0.69989 1.13291 1.15105
 C566 C 0.71889 1.11840 1.14752
 C567 C 0.73147 1.12652 1.12782
 C568 C 0.71898 1.14649 1.11993
 H569 H 0.72325 1.10291 1.15836
 H570 H 0.72326 1.15764 1.10465
 H571 H 0.67700 1.16676 1.16861
 H572 H 0.65524 1.14888 1.15035
 N573 N 0.14846 0.63332 1.19833
 N574 N 0.13364 0.65159 1.19976
 C575 C 0.11798 0.64769 1.21778
 C576 C 0.12328 0.62578 1.22816
 C577 C 0.14278 0.61714 1.21532
 H578 H 0.10379 0.65987 1.22298
 H579 H 0.15233 0.60051 1.21811
 Cu580 Cu 0.13620 0.67880 1.17804
 Cu581 Cu 0.17429 0.63196 1.17491
 Cu582 Cu 0.17483 0.67619 1.13146
 N583 N 0.13407 0.70096 1.15112
 N584 N 0.14908 0.69981 1.13294
 C585 C 0.14350 0.71702 1.11692
 C586 C 0.12387 0.72968 1.12558
 C587 C 0.11841 0.71898 1.14732
 H588 H 0.15313 0.72002 1.10035
 H589 H 0.10404 0.72391 1.15942
 N590 N 0.19929 0.65066 1.13316
 N591 N 0.19899 0.63373 1.14972
 C592 C 0.21773 0.61891 1.14616
 C593 C 0.23046 0.62686 1.12647
 C594 C 0.21829 0.64706 1.11862
 H595 H 0.22193 0.60343 1.15707
 H596 H 0.22281 0.65826 1.10345
 H597 H 0.17742 0.66823 1.16766
 H598 H 0.15464 0.65113 1.14985
 N599 N 0.14985 1.13493 0.70084
 N600 N 0.13321 1.15165 0.70046
 C601 C 0.11792 1.14792 0.71886
 C602 C 0.12548 1.12789 0.73145
 C603 C 0.14583 1.12010 0.71944
 H604 H 0.10252 1.15899 0.72297
 H605 H 0.15695 1.10482 0.72375
 Cu606 Cu 0.13362 1.17675 0.67606
 Cu607 Cu 0.17558 1.13336 0.67730
 Cu608 Cu 0.17626 1.17718 0.63327
 N609 N 0.13392 1.20098 0.65078
 N610 N 0.15082 1.20109 0.63430
 C611 C 0.14721 1.21965 0.61929
 C612 C 0.12686 1.23188 0.62673
 C613 C 0.11889 1.21949 0.64673
 H614 H 0.15860 1.22377 0.60414
 H615 H 0.10336 1.22380 0.65756
 N616 N 0.20045 1.15146 0.63518
 N617 N 0.20015 1.13472 0.65194
 C618 C 0.21872 1.11967 0.64830
 C619 C 0.23130 1.12730 0.62839
 C620 C 0.21923 1.14751 0.62047
 H621 H 0.22286 1.10422 0.65928
 H622 H 0.22365 1.15843 0.60508
 H623 H 0.17632 1.16953 0.66958
 H624 H 0.15694 1.15037 0.65008
 N625 N 1.34887 0.63516 0.29974
 N626 N 1.36521 0.65213 0.29956
 C627 C 1.38008 0.64847 0.28083
 C628 C 1.37254 0.62812 0.26871
 C629 C 1.35274 0.62019 0.28121
 H630 H 1.39531 0.65964 0.27651
 H631 H 1.34200 0.60458 0.27710
 Cu632 Cu 1.36580 0.67711 0.32405
 Cu633 Cu 1.32392 0.63353 0.32394
 Cu634 Cu 1.32523 0.67618 0.36902
 N635 N 1.36685 0.70012 0.35039
 N636 N 1.35108 0.69956 0.36794
 C637 C 1.35612 0.71707 0.38380
 C638 C 1.37621 0.72932 0.37573
 C639 C 1.38249 0.71807 0.35449
 H640 H 1.34585 0.72053 0.39989
 H641 H 1.39745 0.72261 0.34298
 N642 N 1.30049 0.65106 0.36705
 N643 N 1.30013 0.63472 0.34991
 C644 C 1.28139 0.61996 0.35354
 C645 C 1.26935 0.62737 0.37385
 C646 C 1.28191 0.64715 0.38202
 H647 H 1.27672 0.60489 0.34226
 H648 H 1.27795 0.65782 0.39773
 H649 H 1.32350 0.66959 0.33251
 H650 H 1.34399 0.65002 0.35052
 N651 N 1.34897 1.13401 0.80062
 N652 N 1.36458 1.15164 0.80010
 C653 C 1.37936 1.14848 0.78119
 C654 C 1.37252 1.12775 0.76930
 C655 C 1.35322 1.11909 0.78212
 H656 H 1.39404 1.16024 0.77659
 H657 H 1.34313 1.10299 0.77830
 Cu658 Cu 1.36432 1.17681 0.82440
 Cu659 Cu 1.32465 1.13129 0.82544
 Cu660 Cu 1.32478 1.17438 0.87017
 N661 N 1.36446 1.20044 0.85021
 N662 N 1.34902 1.19934 0.86802
 C663 C 1.35318 1.21755 0.88333
 C664 C 1.37222 1.23079 0.87471
 C665 C 1.37900 1.21942 0.85362
 H666 H 1.34312 1.22095 0.89959
 H667 H 1.39347 1.22446 0.84173
 N668 N 1.30161 1.14776 0.86924
 N669 N 1.30147 1.13147 0.85205
 C670 C 1.28360 1.11582 0.85625
 C671 C 1.27201 1.12248 0.87709
 C672 C 1.28384 1.14285 0.88488
 H673 H 1.27926 1.10060 0.84504
 H674 H 1.27976 1.15340 0.90064
 H675 H 1.32261 1.16733 0.83376
 H676 H 1.34435 1.14891 0.85150
 N677 N 0.84898 0.63286 0.79973
 N678 N 0.86498 0.65014 0.79930
 C679 C 0.88015 0.64629 0.78082
 C680 C 0.87312 0.62548 0.76916
 C681 C 0.85336 0.61748 0.78166
 H682 H 0.89513 0.65770 0.77630
 H683 H 0.84292 0.60162 0.77779
 Cu684 Cu 0.86445 0.67586 0.82305
 Cu685 Cu 0.82365 0.63139 0.82353
 Cu686 Cu 0.82285 0.67570 0.86700
 N687 N 0.86422 0.70009 0.84833
 N688 N 0.84793 0.69985 0.86541
 C689 C 0.85190 0.71828 0.88049
 C690 C 0.87168 0.73079 0.87250
 C691 C 0.87912 0.71875 0.85201
 H692 H 0.84118 0.72236 0.89617
 H693 H 0.89425 0.72313 0.84070
 N694 N 0.79900 0.64973 0.86558
 N695 N 0.79938 0.63281 0.84902
 C696 C 0.78101 0.61766 0.85287
 C697 C 0.76846 0.62541 0.87273
 C698 C 0.78033 0.64580 0.88041
 H699 H 0.77695 0.60209 0.84205
 H700 H 0.77582 0.65688 0.89568
 H701 H 0.82215 0.66775 0.83077
 H702 H 0.84258 0.64933 0.85001
 N703 N 0.85206 1.13170 0.30325
 N704 N 0.86734 1.14958 0.30207
 C705 C 0.88252 1.14573 0.28363
 C706 C 0.87644 1.12433 0.27275
 C707 C 0.85696 1.11590 0.28565
 H708 H 0.89703 1.15752 0.27848
 H709 H 0.84703 1.09957 0.28251
 Cu710 Cu 0.86627 1.17601 0.32490
 Cu711 Cu 0.82707 1.13010 0.32751
 Cu712 Cu 0.82549 1.17567 0.36966
 N713 N 0.86568 1.20075 0.34957
 N714 N 0.84975 1.20051 0.36697
 C715 C 0.85370 1.21927 0.38165
 C716 C 0.87312 1.23194 0.37303
 C717 C 0.88034 1.21969 0.35262
 H718 H 0.84334 1.22335 0.39756
 H719 H 0.89526 1.22402 0.34101
 N720 N 0.80244 1.14897 0.36944
 N721 N 0.80310 1.13156 0.35340
 C722 C 0.78528 1.11595 0.35808
 C723 C 0.77286 1.12396 0.37804
 C724 C 0.78417 1.14491 0.38473
 H725 H 0.78162 1.10003 0.34766
 H726 H 0.77937 1.15629 0.39970
 H727 H 0.82441 1.16656 0.33368
 H728 H 0.84588 1.14949 0.35304
 N729 N 0.65084 0.36460 0.29958
 N730 N 0.63329 0.34892 0.30077
 C731 C 0.61806 0.35272 0.28234
 C732 C 0.62644 0.37184 0.26896
 C733 C 0.64733 0.37901 0.28047
 H734 H 0.60195 0.34247 0.27889
 H735 H 0.65907 0.39361 0.27559
 Cu736 Cu 0.63254 0.32511 0.32634
 Cu737 Cu 0.67665 0.36582 0.32325
 Cu738 Cu 0.67502 0.32347 0.36897
 N739 N 0.63156 0.30139 0.35200
 N740 N 0.64845 0.30081 0.36847
 C741 C 0.64380 0.28297 0.38407
 C742 C 0.62294 0.27165 0.37694
 C743 C 0.61564 0.28379 0.35644
 H744 H 0.65476 0.27855 0.39950
 H745 H 0.59994 0.28021 0.34561
 N746 N 0.70039 0.34793 0.36634
 N747 N 0.70103 0.36403 0.34895
 C748 C 0.72019 0.37835 0.35231
 C749 C 0.73215 0.37088 0.37281
 C750 C 0.71912 0.35161 0.38120
 H751 H 0.72490 0.39322 0.34083
 H752 H 0.72300 0.34117 0.39711
 H753 H 0.67560 0.33008 0.33250
 H754 H 0.65736 0.35098 0.35127
 N755 N 0.65131 0.86445 0.79826
 N756 N 0.63482 0.84763 0.79825
 C757 C 0.61953 0.85161 0.77991
 C758 C 0.62692 0.87191 0.76779
 C759 C 0.64717 0.87962 0.77994
 H760 H 0.60414 0.84064 0.77561
 H761 H 0.65801 0.89516 0.77596
 Cu762 Cu 0.63495 0.82236 0.82233
 Cu763 Cu 0.67670 0.86580 0.82218
 Cu764 Cu 0.67674 0.82174 0.86603
 N765 N 0.63494 0.79802 0.84735
 N766 N 0.65137 0.79787 0.86431
 C767 C 0.64727 0.77936 0.87922
 C768 C 0.62714 0.76726 0.87118
 C769 C 0.61976 0.77960 0.85098
 H770 H 0.65810 0.77518 0.89478
 H771 H 0.60445 0.77539 0.83982
 N772 N 0.70088 0.84745 0.86467
 N773 N 0.70089 0.86417 0.84789
 C774 C 0.71943 0.87912 0.85177
 C775 C 0.73167 0.87141 0.87198
 C776 C 0.71943 0.85136 0.87969
 H777 H 0.72358 0.89452 0.84078
 H778 H 0.72380 0.84046 0.89515
 H779 H 0.67751 0.82946 0.82976
 H780 H 0.65767 0.84850 0.84897
 N781 N 0.15120 0.36594 0.80172
 N782 N 0.13453 0.34929 0.80165
 C783 C 0.11903 0.35379 0.78358
 C784 C 0.12650 0.37437 0.77178
 C785 C 0.14696 0.38150 0.78374
 H786 H 0.10355 0.34293 0.77935
 H787 H 0.15785 0.39701 0.77971
 Cu788 Cu 0.13482 0.32343 0.82531
 Cu789 Cu 0.17684 0.36671 0.82536
 Cu790 Cu 0.17682 0.32244 0.86893
 N791 N 0.13491 0.29889 0.85032
 N792 N 0.15128 0.29877 0.86735
 C793 C 0.14723 0.28021 0.88223
 C794 C 0.12730 0.26793 0.87415
 C795 C 0.11987 0.28031 0.85381
 H796 H 0.15805 0.27584 0.89777
 H797 H 0.10471 0.27622 0.84242
 N798 N 0.20121 0.34791 0.86751
 N799 N 0.20130 0.36464 0.85076
 C800 C 0.22001 0.37940 0.85457
 C801 C 0.23227 0.37155 0.87471
 C802 C 0.21987 0.35160 0.88245
 H803 H 0.22422 0.39482 0.84363
 H804 H 0.22418 0.34066 0.89790
 H805 H 0.17742 0.33030 0.83275
 H806 H 0.15770 0.34933 0.85210
 N807 N 0.14999 0.86580 0.29993
 N808 N 0.13307 0.84941 0.30055
 C809 C 0.11826 0.85271 0.28167
 C810 C 0.12642 0.87225 0.26863
 C811 C 0.14654 0.88006 0.28075
 H812 H 0.10263 0.84191 0.27789
 H813 H 0.15770 0.89518 0.27601
 Cu814 Cu 0.13189 0.82583 0.32641
 Cu815 Cu 0.17485 0.86803 0.32436
 Cu816 Cu 0.17380 0.82571 0.36992
 N817 N 0.13175 0.80187 0.35194
 N818 N 0.14840 0.80180 0.36869
 C819 C 0.14422 0.78366 0.38405
 C820 C 0.12379 0.77174 0.37670
 C821 C 0.11631 0.78376 0.35616
 H822 H 0.15510 0.77955 0.39962
 H823 H 0.10088 0.77973 0.34513
 N824 N 0.19802 0.85136 0.36809
 N825 N 0.19845 0.86741 0.35067
 C826 C 0.21673 0.88268 0.35459
 C827 C 0.22826 0.87603 0.37548
 C828 C 0.21599 0.85606 0.38359
 H829 H 0.22126 0.89775 0.34326
 H830 H 0.21977 0.84576 0.39959
 H831 H 0.17459 0.83209 0.33337
 H832 H 0.15547 0.85245 0.35190
 O833 O 0.97654 0.91355 0.88041
 O834 O 0.97653 0.88574 0.85224
 C835 C 0.96832 0.90520 0.86083
 C836 C 0.94850 0.91786 0.84842
 C837 C 0.93925 0.90908 0.82666
 H838 H 0.94722 0.89339 0.81837
 O839 O 1.02337 1.08680 0.87976
 O840 O 1.02344 1.11469 0.85168
 C841 C 1.03166 1.09524 0.86026
 C842 C 1.05156 1.08269 0.84790
 C843 C 1.06080 1.09147 0.82612
 H844 H 1.05275 1.10709 0.81780
 O845 O 0.88007 0.97710 0.91277
 O846 O 0.85225 0.97724 0.88458
 C847 C 0.86063 0.96893 0.90411
 C848 C 0.84807 0.94903 0.91639
 C849 C 0.82637 0.94009 0.90721
 H850 H 0.81813 0.94899 0.89204
 O851 O 1.11880 1.02347 0.91338
 O852 O 1.14697 1.02352 0.88556
 C853 C 1.13832 1.03173 0.90502
 C854 C 1.15064 1.05159 0.91768
 C855 C 1.17214 1.06112 0.90865
 H856 H 1.18032 1.05327 0.89282
 O857 O 0.91184 0.88042 0.97536
 O858 O 0.88384 0.85253 0.97505
 C859 C 0.90336 0.86103 0.96691
 C860 C 0.91603 0.84872 0.94697
 C861 C 0.90730 0.82702 0.93755
 H862 H 0.89154 0.81877 0.94539
 O863 O 1.08599 1.11970 0.97659
 O864 O 1.11400 1.14758 0.97686
 C865 C 1.09462 1.13912 0.96836
 C866 C 1.08233 1.15146 0.94819
 C867 C 1.09123 1.17315 0.93889
 H868 H 1.10682 1.18143 0.94703
 O869 O 0.91313 1.02395 0.88011
 O870 O 0.88531 1.02394 0.85192
 C871 C 0.90473 1.03216 0.86054
 C872 C 0.91725 1.05196 0.84806
 C873 C 0.90813 1.06123 0.82644
 H874 H 0.89234 1.05324 0.81837
 O875 O 1.08620 0.97664 0.88030
 O876 O 1.11434 0.97654 0.85246
 C877 C 1.09484 0.96830 0.86090
 C878 C 1.08248 0.94829 0.84853
 C879 C 1.09171 0.93883 0.82703
 H880 H 1.10745 0.94685 0.81891
 O881 O 1.02296 0.88042 0.91353
 O882 O 1.02315 0.85254 0.88545
 C883 C 1.03126 0.86098 0.90505
 C884 C 1.05109 0.84856 0.91770
 C885 C 1.06059 0.82708 0.90860
 H886 H 1.05270 0.81896 0.89277
 O887 O 0.97653 1.11956 0.91270
 O888 O 0.97661 1.14752 0.88470
 C889 C 0.96836 1.13905 0.90421
 C890 C 0.94851 1.15155 0.91669
 C891 C 0.93953 1.17327 0.90769
 H892 H 0.94844 1.18156 0.89258
 O893 O 0.88044 1.08750 0.97593
 O894 O 0.85243 1.11543 0.97586
 C895 C 0.86095 1.09596 0.96763
 C896 C 0.84853 1.08339 0.94773
 C897 C 0.82705 1.09250 0.93813
 H898 H 0.81898 1.10837 0.94593
 O899 O 1.11902 0.91319 0.97677
 O900 O 1.14708 0.88530 0.97672
 C901 C 1.13848 0.90472 0.96842
 C902 C 1.15078 0.91723 0.94838
 C903 C 1.17252 0.90842 0.93903
 H904 H 1.18081 0.89274 0.94699
 O905 O 0.97649 1.08680 0.87976
 O906 O 0.97654 1.11470 0.85170
 C907 C 0.96824 1.09528 0.86024
 C908 C 0.94831 1.08282 0.84782
 C909 C 0.93891 1.09185 0.82618
 H910 H 0.94669 1.10784 0.81847
 O911 O 1.02339 0.91314 0.88050
 O912 O 1.02341 0.88533 0.85235
 C913 C 1.03169 0.90471 0.86098
 C914 C 1.05162 0.91719 0.84857
 C915 C 1.06114 0.90799 0.82707
 H916 H 1.05348 0.89186 0.81954
 O917 O 1.11874 0.97666 0.91348
 O918 O 1.14694 0.97671 0.88569
 C919 C 1.13829 0.96844 0.90512
 C920 C 1.15067 0.94849 0.91760
 C921 C 1.17248 0.93957 0.90869
 H922 H 1.18092 0.94860 0.89374
 O923 O 0.88043 1.02394 0.91318
 O924 O 0.85261 1.02400 0.88499
 C925 C 0.86102 1.03222 0.90455
 C926 C 0.84854 1.05214 0.91696
 C927 C 0.82706 1.06151 0.90763
 H928 H 0.81959 1.05365 0.89153
 O929 O 0.91340 1.12017 0.97597
 O930 O 0.88548 1.14820 0.97593
 C931 C 0.90493 1.13963 0.96767
 C932 C 0.91745 1.15189 0.94767
 C933 C 0.90860 1.17356 0.93828
 H934 H 0.89294 1.18188 0.94627
 O935 O 1.08603 0.88056 0.97700
 O936 O 1.11400 0.85258 0.97700
 C937 C 1.09451 0.86109 0.96876
 C938 C 1.08199 0.84863 0.94887
 C939 C 1.09125 0.82717 0.93948
 H940 H 1.10739 0.81972 0.94725
 O941 O 1.08622 1.02349 0.88014
 O942 O 1.11433 1.02339 0.85227
 C943 C 1.09482 1.03168 0.86066
 C944 C 1.08243 1.05158 0.84811
 C945 C 1.09135 1.06053 0.82628
 H946 H 1.10641 1.05161 0.81791
 O947 O 0.91355 0.97714 0.88050
 O948 O 0.88575 0.97720 0.85229
 C949 C 0.90518 0.96895 0.86093
 C950 C 0.91769 0.94906 0.84853
 C951 C 0.90880 0.94009 0.82670
 H952 H 0.89376 0.94899 0.81828
 O953 O 1.02332 1.11939 0.91287
 O954 O 1.02342 1.14735 0.88487
 C955 C 1.03158 1.13885 0.90442
 C956 C 1.05142 1.15127 0.91702
 C957 C 1.06041 1.17304 0.90816
 H958 H 1.05149 1.18139 0.89308
 O959 O 0.97605 0.88048 0.91299
 O960 O 0.97622 0.85259 0.88491
 C961 C 0.96779 0.86109 0.90433
 C962 C 0.94762 0.84875 0.91649
 C963 C 0.93871 0.82701 0.90744
 H964 H 0.94784 0.81861 0.89252
 O965 O 1.11838 1.08640 0.97691
 O966 O 1.14645 1.11420 0.97721
 C967 C 1.13793 1.09481 0.96883
 C968 C 1.15047 1.08237 0.94893
 C969 C 1.17195 1.09165 0.93960
 H970 H 1.17937 1.10775 0.94743
 O971 O 0.87928 0.91349 0.97552
 O972 O 0.85115 0.88573 0.97523
 C973 C 0.85981 0.90517 0.96712
 C974 C 0.84762 0.91784 0.94718
 C975 C 0.82597 0.90910 0.93769
 H976 H 0.81761 0.89344 0.94559
 Cu977 Cu 0.99974 0.89967 0.89967
 Cu978 Cu 0.99985 0.86624 0.86593
 Cu979 Cu 0.99992 1.10031 0.89906
 Cu980 Cu 1.00001 1.13387 0.86542
 Cu981 Cu 0.89958 1.00053 0.89949
 Cu982 Cu 0.86619 1.00060 0.86562
 Cu983 Cu 1.09966 1.00010 0.89960
 Cu984 Cu 1.13347 1.00004 0.86620
 C985 C 0.93768 0.93794 0.85915
 H986 H 0.94439 0.94456 0.87617
 C987 C 0.91918 0.91980 0.81587
 C988 C 1.06243 1.06267 0.85867
 H989 H 1.05570 1.05609 0.87569
 C990 C 1.08089 1.08078 0.81534
 C991 C 0.85845 0.93790 0.93648
 H992 H 0.87537 0.94447 0.94340
 C993 C 0.81540 0.91985 0.91751
 C994 C 1.14012 1.06215 0.93804
 H995 H 1.12335 1.05515 0.94490
 C996 C 1.18305 1.08101 0.91955
 C997 C 0.93626 0.85936 0.93636
 H998 H 0.94284 0.87630 0.94319
 C999 C 0.91827 0.81619 0.91758
 C1000 C 1.06236 1.14074 0.93714
 H1001 H 1.05569 1.12379 0.94385
 C1002 C 1.08063 1.18392 0.91866
 C1003 C 0.93752 1.06270 0.85845
 H1004 H 0.94440 1.05588 0.87532
 C1005 C 0.91889 1.08100 0.81525
 C1006 C 1.06225 0.93751 0.85899
 H1007 H 1.05526 0.94445 0.87576
 C1008 C 1.08110 0.91883 0.81604
 C1009 C 1.06171 0.85901 0.93806
 H1010 H 1.05474 0.87578 0.94496
 C1011 C 1.08053 0.81614 0.91944
 C1012 C 0.93749 1.14111 0.93681
 H1013 H 0.94416 1.12419 0.94364
 C1014 C 0.91928 1.18420 0.91809
 C1015 C 0.85894 1.06300 0.93720
 H1016 H 0.87568 1.05607 0.94425
 C1017 C 0.81605 1.08160 0.91822
 C1018 C 1.14005 0.93733 0.93755
 H1019 H 1.12306 0.94394 0.94429
 C1020 C 1.18332 0.91923 0.91897
 O1021 O 1.02145 0.91283 1.11915
 O1022 O 1.02128 0.88481 1.14709
 C1023 C 1.02960 0.90427 1.13866
 C1024 C 1.04959 0.91655 1.15119
 C1025 C 1.05857 0.90741 1.17291
 H1026 H 1.04956 0.89240 1.18120
 O1027 O 0.97524 1.08602 1.11968
 O1028 O 0.97520 1.11380 1.14786
 C1029 C 0.96691 1.09444 1.13918
 C1030 C 0.94690 1.08201 1.15144
 C1031 C 0.93736 1.09120 1.17290
 H1032 H 0.94533 1.10695 1.18104
 O1033 O 0.87971 1.02324 1.08597
 O1034 O 0.85143 1.02344 1.11367
 C1035 C 0.86024 1.03169 1.09430
 C1036 C 0.84818 1.05183 1.08176
 C1037 C 0.82650 1.06126 1.09058
 H1038 H 0.81805 1.05320 1.10614
 O1039 O 1.11844 0.97602 1.08715
 O1040 O 1.14627 0.97602 1.11533
 C1041 C 1.13796 0.96788 1.09571
 C1042 C 1.15067 0.94823 1.08311
 C1043 C 1.17222 0.93892 1.09236
 H1044 H 1.17962 0.94662 1.10856
 O1045 O 1.08619 0.88060 1.02395
 O1046 O 1.11418 0.85265 1.02399
 C1047 C 1.09470 0.86116 1.03228
 C1048 C 1.08219 0.84873 1.05225
 C1049 C 1.09175 0.82758 1.06211
 H1050 H 1.10818 0.82039 1.05471
 O1051 O 0.91325 1.12023 1.02298
 O1052 O 0.88531 1.14823 1.02301
 C1053 C 0.90473 1.13965 1.03133
 C1054 C 0.91712 1.15184 1.05150
 C1055 C 0.90799 1.17330 1.06109
 H1056 H 0.89234 1.18158 1.05302
 O1057 O 0.91187 0.97600 1.11910
 O1058 O 0.88368 0.97617 1.14688
 C1059 C 0.90313 0.96773 1.13848
 C1060 C 0.91530 0.94756 1.15089
 C1061 C 0.90572 0.93795 1.17218
 H1062 H 0.88959 0.94580 1.17952
 O1063 O 1.08492 1.02234 1.12011
 O1064 O 1.11270 1.02223 1.14834
 C1065 C 1.09326 1.03047 1.13973
 C1066 C 1.08074 1.05029 1.15220
 C1067 C 1.08996 1.05956 1.17375
 H1068 H 1.10570 1.05146 1.18183
 O1069 O 0.97496 0.87996 1.08578
 O1070 O 0.97480 0.85186 1.11364
 C1071 C 0.96667 0.86046 1.09412
 C1072 C 0.94677 0.84819 1.08146
 C1073 C 0.93711 0.82681 1.09061
 H1074 H 0.94497 0.81866 1.10645
 O1075 O 1.02242 1.11873 1.08723
 O1076 O 1.02243 1.14656 1.11537
 C1077 C 1.03070 1.13812 1.09585
 C1078 C 1.05061 1.15057 1.08341
 C1079 C 1.06021 1.17185 1.09288
 H1080 H 1.05264 1.17915 1.10920
 O1081 O 0.87905 0.91318 1.02245
 O1082 O 0.85095 0.88540 1.02227
 C1083 C 0.85954 0.90476 1.03068
 C1084 C 0.84723 0.91719 1.05077
 C1085 C 0.82595 0.90784 1.06057
 H1086 H 0.81792 0.89199 1.05273
 O1087 O 1.11807 1.08645 1.02390
 O1088 O 1.14616 1.11424 1.02421
 C1089 C 1.13748 1.09483 1.03240
 C1090 C 1.14964 1.08234 1.05256
 C1091 C 1.17100 1.09155 1.06227
 H1092 H 1.17914 1.10731 1.05434
 O1093 O 1.02209 1.08592 1.12015
 O1094 O 1.02207 1.11368 1.14835
 C1095 C 1.03026 1.09423 1.13977
 C1096 C 1.04999 1.08152 1.15227
 C1097 C 1.05952 1.09057 1.17384
 H1098 H 1.05197 1.10674 1.18145
 O1099 O 0.97453 0.91237 1.11918
 O1100 O 0.97434 0.88433 1.14708
 C1101 C 0.96611 0.90381 1.13859
 C1102 C 0.94604 0.91626 1.15093
 C1103 C 0.93624 0.90698 1.17227
 H1104 H 0.94401 0.89107 1.18030
 O1105 O 1.11778 1.02287 1.08728
 O1106 O 1.14561 1.02287 1.11545
 C1107 C 1.13712 1.03123 1.09596
 C1108 C 1.14946 1.05134 1.08364
 C1109 C 1.17078 1.06092 1.09312
 H1110 H 1.17816 1.05323 1.10935
 O1111 O 0.87931 0.97632 1.08591
 O1112 O 0.85108 0.97654 1.11365
 C1113 C 0.85973 0.96818 1.09426
 C1114 C 0.84734 0.94822 1.08180
 C1115 C 0.82612 0.93855 1.09136
 H1116 H 0.81884 0.94617 1.10765
 O1117 O 1.08528 1.11931 1.02361
 O1118 O 1.11332 1.14717 1.02392
 C1119 C 1.09380 1.13866 1.03205
 C1120 C 1.08138 1.15088 1.05215
 C1121 C 1.09067 1.17217 1.06185
 H1122 H 1.10643 1.18030 1.05388
 O1123 O 0.91197 0.88043 1.02228
 O1124 O 0.88395 0.85256 1.02206
 C1125 C 0.90342 0.86098 1.03043
 C1126 C 0.91583 0.84846 1.05035
 C1127 C 0.90638 0.82714 1.05982
 H1128 H 0.89016 0.81986 1.05209
 O1129 O 1.08520 0.97551 1.11973
 O1130 O 1.11296 0.97539 1.14797
 C1131 C 1.09358 0.96713 1.13924
 C1132 C 1.08098 0.94713 1.15145
 C1133 C 1.08979 0.93761 1.17313
 H1134 H 1.10552 0.94544 1.18146
 O1135 O 0.91208 1.02289 1.11935
 O1136 O 0.88386 1.02307 1.14711
 C1137 C 0.90344 1.03121 1.13878
 C1138 C 0.91589 1.05108 1.15132
 C1139 C 0.90656 1.06059 1.17278
 H1140 H 0.89040 1.05293 1.18026
 O1141 O 0.97560 1.11912 1.08705
 O1142 O 0.97559 1.14695 1.11519
 C1143 C 0.96743 1.13861 1.09558
 C1144 C 0.94775 1.15129 1.08294
 C1145 C 0.93834 1.17272 1.09227
 H1146 H 0.94591 1.17996 1.10862
 O1147 O 1.02195 0.87986 1.08646
 O1148 O 1.02181 0.85179 1.11434
 C1149 C 1.03031 0.86045 1.09502
 C1150 C 1.05069 0.84834 1.08286
 C1151 C 1.06052 0.82715 1.09239
 H1152 H 1.05251 0.81903 1.10815
 O1153 O 1.11912 0.91334 1.02375
 O1154 O 1.14718 0.88545 1.02375
 C1155 C 1.13863 0.90489 1.03200
 C1156 C 1.15099 0.91739 1.05196
 C1157 C 1.17254 0.90834 1.06144
 H1158 H 1.18075 0.89264 1.05344
 O1159 O 0.88077 1.08709 1.02282
 O1160 O 0.85274 1.11501 1.02280
 C1161 C 0.86126 1.09552 1.03103
 C1162 C 0.84875 1.08299 1.05087
 C1163 C 0.82702 1.09203 1.05987
 H1164 H 0.81879 1.10723 1.05107
 Cu1165 Cu 0.99820 0.89904 1.09985
 Cu1166 Cu 0.99803 0.86538 1.13332
 Cu1167 Cu 0.99885 1.09966 1.10072
 Cu1168 Cu 0.99882 1.13304 1.13453
 Cu1169 Cu 0.89833 0.89966 0.99891
 Cu1170 Cu 0.86465 0.86626 0.99863
 Cu1171 Cu 1.09981 0.89973 1.00037
 Cu1172 Cu 1.13341 0.86619 1.00037
 Cu1173 Cu 0.89979 1.10099 0.99940
 Cu1174 Cu 0.86619 1.13453 0.99942
 Cu1175 Cu 1.09910 1.10021 1.00020
 Cu1176 Cu 1.13280 1.13358 1.00058
 Cu1177 Cu 0.89857 0.99961 1.09981
 Cu1178 Cu 0.86468 0.99982 1.13309
 Cu1179 Cu 1.09880 0.99915 1.10075
 Cu1180 Cu 1.13217 0.99912 1.13459
 C1181 C 1.06079 0.93652 1.14070
 H1182 H 1.05414 0.94343 1.12377
 C1183 C 1.07896 0.91754 1.18382
 C1184 C 0.93622 1.06176 1.14096
 H1185 H 0.94325 1.05480 1.12421
 C1186 C 0.91733 1.08059 1.18381
 C1187 C 0.85911 1.06278 1.06182
 H1188 H 0.87605 1.05593 1.05519
 C1189 C 0.81599 1.08156 1.08002
 C1190 C 1.14040 0.93755 1.06272
 H1191 H 1.12359 0.94439 1.05575
 C1192 C 1.18341 0.91904 1.08150
 C1193 C 1.06150 0.85880 1.06259
 H1194 H 1.05425 0.87530 1.05534
 C1195 C 1.08091 0.81650 1.08209
 C1196 C 0.93721 1.14117 1.06238
 H1197 H 0.94413 1.12444 1.05534
 C1198 C 0.91855 1.18399 1.08134
 C1199 C 0.93561 0.93675 1.14059
 H1200 H 0.94284 0.94382 1.12398
 C1201 C 0.91620 0.91773 1.18318
 C1202 C 1.06055 1.06118 1.14178
 H1203 H 1.05358 1.05434 1.12495
 C1204 C 1.07945 1.07956 1.18479
 C1205 C 0.93619 0.85869 1.06111
 H1206 H 0.94328 0.87538 1.05417
 C1207 C 0.91704 0.81606 1.07987
 C1208 C 1.06114 1.14039 1.06287
 H1209 H 1.05410 1.12377 1.05572
 C1210 C 1.08018 1.18289 1.08208
 C1211 C 0.85759 0.93759 1.06134
 H1212 H 0.87417 0.94470 1.05415
 C1213 C 0.81516 0.91844 1.08076
 C1214 C 1.13917 1.06204 1.06321
 H1215 H 1.12252 1.05504 1.05605
 C1216 C 1.18181 1.08095 1.08242
 O1217 O 0.97821 0.41369 0.37877
 O1218 O 0.97841 0.38589 0.35062
 C1219 C 0.96994 0.40520 0.35927
 C1220 C 0.94968 0.41742 0.34703
 C1221 C 0.94010 0.40810 0.32562
 H1222 H 0.94822 0.39245 0.31744
 O1223 O 1.02407 0.58677 0.37978
 O1224 O 1.02368 0.61478 0.35182
 C1225 C 1.03219 0.59541 0.36029
 C1226 C 1.05230 0.58326 0.34787
 C1227 C 1.06177 0.59272 0.32649
 H1228 H 1.05363 0.60843 0.31843
 O1229 O 0.88125 0.47589 0.41261
 O1230 O 0.85319 0.47618 0.38467
 C1231 C 0.86172 0.46781 0.40411
 C1232 C 0.84929 0.44791 0.41650
 C1233 C 0.82763 0.43879 0.40745
 H1234 H 0.81925 0.44762 0.39233
 O1235 O 1.12042 0.52454 0.41311
 O1236 O 1.14859 0.52499 0.38530
 C1237 C 1.13988 0.53299 0.40482
 C1238 C 1.15205 0.55277 0.41771
 C1239 C 1.17393 0.56206 0.40929
 H1240 H 1.18243 0.55419 0.39365
 O1241 O 0.91479 0.38075 0.47505
 O1242 O 0.88713 0.35252 0.47494
 C1243 C 0.90649 0.36127 0.46666
 C1244 C 0.91910 0.34909 0.44662
 C1245 C 0.91039 0.32737 0.43730
 H1246 H 0.89478 0.31901 0.44532
 O1247 O 1.08653 0.62017 0.47666
 O1248 O 1.11439 0.64819 0.47677
 C1249 C 1.09504 0.63960 0.46834
 C1250 C 1.08274 0.65180 0.44809
 C1251 C 1.09204 0.67310 0.43831
 H1252 H 1.10779 0.68126 0.44629
 O1253 O 0.91438 0.52265 0.38010
 O1254 O 0.88639 0.52284 0.35208
 C1255 C 0.90589 0.53098 0.36064
 C1256 C 0.91828 0.55091 0.34828
 C1257 C 0.90925 0.55988 0.32653
 H1258 H 0.89428 0.55089 0.31810
 O1259 O 1.08799 0.47776 0.37991
 O1260 O 1.11603 0.47810 0.35197
 C1261 C 1.09659 0.46969 0.36039
 C1262 C 1.08427 0.44978 0.34782
 C1263 C 1.09322 0.44099 0.32594
 H1264 H 1.10825 0.44996 0.31761
 O1265 O 1.02532 0.38091 0.41155
 O1266 O 1.02557 0.35306 0.38344
 C1267 C 1.03373 0.36152 0.40300
 C1268 C 1.05372 0.34919 0.41554
 C1269 C 1.06333 0.32772 0.40644
 H1270 H 1.05541 0.31953 0.39066
 O1271 O 0.97709 0.61896 0.41312
 O1272 O 0.97670 0.64701 0.38522
 C1273 C 0.96863 0.63838 0.40473
 C1274 C 0.94870 0.65063 0.41736
 C1275 C 0.93899 0.67195 0.40810
 H1276 H 0.94652 0.67940 0.39184
 O1277 O 0.88184 0.58540 0.47682
 O1278 O 0.85370 0.61321 0.47706
 C1279 C 0.86230 0.59385 0.46864
 C1280 C 0.84989 0.58160 0.44855
 C1281 C 0.82821 0.59075 0.43954
 H1282 H 0.81987 0.60574 0.44860
 O1283 O 1.12138 0.41386 0.47526
 O1284 O 1.14952 0.38605 0.47504
 C1285 C 1.14090 0.40552 0.46690
 C1286 C 1.15321 0.41823 0.44703
 C1287 C 1.17495 0.40952 0.43762
 H1288 H 1.18325 0.39378 0.44546
 O1289 O 0.97719 0.58641 0.37997
 O1290 O 0.97678 0.61440 0.35199
 C1291 C 0.96874 0.59487 0.36052
 C1292 C 0.94888 0.58223 0.34819
 C1293 C 0.93944 0.59107 0.32649
 H1294 H 0.94727 0.60681 0.31822
 O1295 O 1.02517 0.41424 0.37914
 O1296 O 1.02543 0.38648 0.35094
 C1297 C 1.03356 0.40592 0.35963
 C1298 C 1.05347 0.41861 0.34741
 C1299 C 1.06277 0.41001 0.32558
 H1300 H 1.05479 0.39444 0.31713
 O1301 O 1.12095 0.47774 0.41268
 O1302 O 1.14906 0.47817 0.38481
 C1303 C 1.14053 0.46970 0.40419
 C1304 C 1.15303 0.44971 0.41649
 C1305 C 1.17484 0.44086 0.40748
 H1306 H 1.18321 0.44999 0.39255
 O1307 O 0.88136 0.52270 0.41276
 O1308 O 0.85330 0.52302 0.38482
 C1309 C 0.86191 0.53114 0.40434
 C1310 C 0.84968 0.55109 0.41702
 C1311 C 0.82805 0.56064 0.40817
 H1312 H 0.81976 0.55287 0.39237
 O1313 O 0.91426 0.61865 0.47688
 O1314 O 0.88613 0.64647 0.47699
 C1315 C 0.90561 0.63807 0.46865
 C1316 C 0.91790 0.65052 0.44860
 C1317 C 0.90850 0.67191 0.43910
 H1318 H 0.89271 0.67993 0.44715
 O1319 O 1.08845 0.38118 0.47505
 O1320 O 1.11653 0.35332 0.47491
 C1321 C 1.09704 0.36182 0.46667
 C1322 C 1.08465 0.34943 0.44666
 C1323 C 1.09407 0.32806 0.43721
 H1324 H 1.11028 0.32080 0.44500
 O1325 O 1.08793 0.52455 0.37981
 O1326 O 1.11601 0.52493 0.35192
 C1327 C 1.09643 0.53296 0.36038
 C1328 C 1.08377 0.55275 0.34792
 C1329 C 1.09300 0.56248 0.32655
 H1330 H 1.10932 0.55508 0.31910
 O1331 O 0.91404 0.47586 0.37959
 O1332 O 0.88604 0.47602 0.35159
 C1333 C 0.90554 0.46772 0.36003
 C1334 C 0.91814 0.44793 0.34741
 C1335 C 0.90883 0.43832 0.32598
 H1336 H 0.89251 0.44580 0.31861
 O1337 O 1.02396 0.61938 0.41284
 O1338 O 1.02359 0.64743 0.38493
 C1339 C 1.03203 0.63891 0.40436
 C1340 C 1.05195 0.65141 0.41680
 C1341 C 1.06157 0.67264 0.40725
 H1342 H 1.05398 0.67980 0.39089
 O1343 O 0.97845 0.38118 0.41190
 O1344 O 0.97863 0.35329 0.38383
 C1345 C 0.97028 0.36174 0.40333
 C1346 C 0.95030 0.34931 0.41572
 C1347 C 0.94136 0.32756 0.40674
 H1348 H 0.95026 0.31921 0.39164
 O1349 O 1.11928 0.58721 0.47700
 O1350 O 1.14719 0.61519 0.47721
 C1351 C 1.13881 0.59570 0.46894
 C1352 C 1.15150 0.58329 0.44917
 C1353 C 1.17346 0.59215 0.44067
 H1354 H 1.18178 0.60700 0.44993
 O1355 O 0.88128 0.41294 0.47548
 O1356 O 0.85355 0.38478 0.47539
 C1357 C 0.86185 0.40434 0.46722
 C1358 C 0.84932 0.41681 0.44736
 C1359 C 0.82769 0.40783 0.43800
 H1360 H 0.81952 0.39211 0.44597
 Cu1361 Cu 1.00180 0.40029 0.39813
 Cu1362 Cu 1.00204 0.36690 0.36438
 Cu1363 Cu 1.00061 0.60006 0.39921
 Cu1364 Cu 1.00013 0.63373 0.36569
 Cu1365 Cu 0.90055 0.49922 0.39908
 Cu1366 Cu 0.86692 0.49954 0.36548
 Cu1367 Cu 1.10151 0.50114 0.39917
 Cu1368 Cu 1.13524 0.50158 0.36570
 C1369 C 0.93874 0.43752 0.35760
 H1370 H 0.94580 0.44457 0.37430
 C1371 C 0.91983 0.41847 0.31483
 C1372 C 1.06323 0.56308 0.35825
 H1373 H 1.05625 0.55593 0.37493
 C1374 C 1.08196 0.58239 0.31557
 C1375 C 0.85987 0.43694 0.43656
 H1376 H 0.87676 0.44369 0.44338
 C1377 C 0.81689 0.41845 0.41783
 C1378 C 1.14104 0.56347 0.43774
 H1379 H 1.12393 0.55676 0.44404
 C1380 C 1.18459 0.58196 0.42042
 C1381 C 0.93915 0.35985 0.43576
 H1382 H 0.94572 0.37681 0.44255
 C1383 C 0.92113 0.31665 0.41718
 C1384 C 1.06249 0.64130 0.43737
 H1385 H 1.05542 0.62472 0.44456
 C1386 C 1.08153 0.68378 0.41801
 C1387 C 0.93820 0.56208 0.35889
 H1388 H 0.94500 0.55547 0.37589
 C1389 C 0.91939 0.58027 0.31576
 C1390 C 1.06430 0.43857 0.35832
 H1391 H 1.05755 0.44503 0.37539
 C1392 C 1.08283 0.42083 0.31489
 C1393 C 1.06432 0.35970 0.43588
 H1394 H 1.05725 0.37640 0.44283
 C1395 C 1.08339 0.31689 0.41723
 C1396 C 0.93821 0.64022 0.43779
 H1397 H 0.94535 0.62354 0.44476
 C1398 C 0.91900 0.68288 0.41899
 C1399 C 0.86039 0.56166 0.43729
 H1400 H 0.87728 0.55473 0.44396
 C1401 C 0.81737 0.58070 0.41905
 C1402 C 1.14247 0.43840 0.43638
 H1403 H 1.12548 0.44495 0.44320
 C1404 C 1.18574 0.42047 0.41764
 O1405 O 1.02533 0.41241 0.61874
 O1406 O 1.02550 0.38414 0.64642
 C1407 C 1.03373 0.40367 0.63808
 C1408 C 1.05379 0.41594 0.65056
 C1409 C 1.06341 0.40636 0.67184
 H1410 H 1.05572 0.39013 0.67907
 O1411 O 0.97773 0.58509 0.62010
 O1412 O 0.97763 0.61276 0.64839
 C1413 C 0.96951 0.59333 0.63971
 C1414 C 0.94971 0.58074 0.65212
 C1415 C 0.94077 0.58960 0.67394
 H1416 H 0.94979 0.60452 0.68240
 O1417 O 0.88183 0.52208 0.58709
 O1418 O 0.85383 0.52189 0.61507
 C1419 C 0.86236 0.53029 0.59564
 C1420 C 0.84998 0.55034 0.58327
 C1421 C 0.82868 0.55999 0.59273
 H1422 H 0.82127 0.55233 0.60894
 O1423 O 1.12129 0.47614 0.58617
 O1424 O 1.14943 0.47614 0.61403
 C1425 C 1.14088 0.46796 0.59452
 C1426 C 1.15330 0.44817 0.58183
 C1427 C 1.17487 0.43862 0.59083
 H1428 H 1.18305 0.44640 0.60669
 O1429 O 1.08856 0.38076 0.52204
 O1430 O 1.11660 0.35286 0.52186
 C1431 C 1.09710 0.36126 0.53019
 C1432 C 1.08462 0.34866 0.55006
 C1433 C 1.09353 0.32682 0.55895
 H1434 H 1.10868 0.31855 0.55007
 O1435 O 0.91459 0.61825 0.52391
 O1436 O 0.88651 0.64611 0.52394
 C1437 C 0.90599 0.63764 0.53222
 C1438 C 0.91826 0.65001 0.55231
 C1439 C 0.90918 0.67172 0.56130
 H1440 H 0.89422 0.68012 0.55224
 O1441 O 0.91477 0.47512 0.61975
 O1442 O 0.88687 0.47482 0.64783
 C1443 C 0.90636 0.46670 0.63921
 C1444 C 0.91901 0.44674 0.65144
 C1445 C 0.91026 0.43736 0.67316
 H1446 H 0.89461 0.44532 0.68153
 O1447 O 1.08783 0.52230 0.61943
 O1448 O 1.11589 0.52230 0.64738
 C1449 C 1.09633 0.53048 0.63895
 C1450 C 1.08385 0.55032 0.65150
 C1451 C 1.09294 0.55930 0.67323
 H1452 H 1.10807 0.55042 0.68152
 O1453 O 0.97830 0.37991 0.58569
 O1454 O 0.97839 0.35160 0.61333
 C1455 C 0.97006 0.36036 0.59397
 C1456 C 0.95009 0.34815 0.58133
 C1457 C 0.94071 0.32648 0.59016
 H1458 H 0.94863 0.31817 0.60588
 O1459 O 1.02406 0.61886 0.58752
 O1460 O 1.02388 0.64658 0.61576
 C1461 C 1.03210 0.63834 0.59614
 C1462 C 1.05169 0.65111 0.58358
 C1463 C 1.06105 0.67255 0.59294
 H1464 H 1.05346 0.67980 0.60927
 O1465 O 0.88190 0.41298 0.52246
 O1466 O 0.85415 0.38484 0.52239
 C1467 C 0.86256 0.40429 0.53079
 C1468 C 0.85020 0.41646 0.55101
 C1469 C 0.82850 0.40740 0.56006
 H1470 H 0.82012 0.39241 0.55106
 O1471 O 1.11910 0.58720 0.52387
 O1472 O 1.14697 0.61523 0.52401
 C1473 C 1.13855 0.59570 0.53218
 C1474 C 1.15115 0.58317 0.55204
 C1475 C 1.17288 0.59222 0.56102
 H1476 H 1.18102 0.60740 0.55217
 O1477 O 1.02460 0.58573 0.62011
 O1478 O 1.02454 0.61336 0.64844
 C1479 C 1.03291 0.59405 0.63967
 C1480 C 1.05297 0.58149 0.65186
 C1481 C 1.06244 0.59029 0.67355
 H1482 H 1.05451 0.60594 0.68192
 O1483 O 0.97839 0.41235 0.61901
 O1484 O 0.97854 0.38411 0.64672
 C1485 C 0.97021 0.40365 0.63845
 C1486 C 0.95024 0.41594 0.65106
 C1487 C 0.94126 0.40686 0.67283
 H1488 H 0.95016 0.39174 0.68109
 O1489 O 1.12067 0.52304 0.58664
 O1490 O 1.14883 0.52312 0.61447
 C1491 C 1.14004 0.53153 0.59514
 C1492 C 1.15196 0.55189 0.58282
 C1493 C 1.17360 0.56138 0.59168
 H1494 H 1.18211 0.55327 0.60719
 O1495 O 0.88188 0.47523 0.58689
 O1496 O 0.85384 0.47494 0.61483
 C1497 C 0.86242 0.46685 0.59528
 C1498 C 0.85012 0.44701 0.58254
 C1499 C 0.82845 0.43762 0.59135
 H1500 H 0.82019 0.44548 0.60713
 O1501 O 1.08626 0.62010 0.52373
 O1502 O 1.11410 0.64815 0.52384
 C1503 C 1.09469 0.63954 0.53208
 C1504 C 1.08227 0.65172 0.55217
 C1505 C 1.09135 0.67316 0.56175
 H1506 H 1.10697 0.68145 0.55367
 O1507 O 0.91499 0.38040 0.52202
 O1508 O 0.88730 0.35220 0.52191
 C1509 C 0.90671 0.36082 0.53018
 C1510 C 0.91924 0.34840 0.55009
 C1511 C 0.91026 0.32670 0.55909
 H1512 H 0.89517 0.31834 0.55019
 O1513 O 1.08854 0.47546 0.61921
 O1514 O 1.11660 0.47539 0.64716
 C1515 C 1.09717 0.46705 0.63861
 C1516 C 1.08483 0.44688 0.65084
 C1517 C 1.09413 0.43707 0.67219
 H1518 H 1.10996 0.44491 0.68033
 O1519 O 0.91444 0.52195 0.62019
 O1520 O 0.88655 0.52176 0.64828
 C1521 C 0.90596 0.53012 0.63974
 C1522 C 0.91847 0.55003 0.65216
 C1523 C 0.90958 0.55940 0.67388
 H1524 H 0.89382 0.55152 0.68210
 O1525 O 0.97725 0.61847 0.58780
 O1526 O 0.97700 0.64624 0.61599
 C1527 C 0.96880 0.63780 0.59643
 C1528 C 0.94880 0.65011 0.58386
 C1529 C 0.93936 0.67176 0.59268
 H1530 H 0.94719 0.68003 0.60847
 O1531 O 1.02524 0.37994 0.58552
 O1532 O 1.02534 0.35159 0.61313
 C1533 C 1.03356 0.36038 0.59374
 C1534 C 1.05354 0.34820 0.58106
 C1535 C 1.06277 0.32638 0.58970
 H1536 H 1.05463 0.31793 0.60522
 O1537 O 1.12125 0.41376 0.52221
 O1538 O 1.14934 0.38590 0.52199
 C1539 C 1.14077 0.40528 0.53038
 C1540 C 1.15318 0.41756 0.55044
 C1541 C 1.17479 0.40837 0.55959
 H1542 H 1.18312 0.39330 0.55066
 O1543 O 0.88172 0.58546 0.52385
 O1544 O 0.85362 0.61330 0.52401
 C1545 C 0.86225 0.59387 0.53223
 C1546 C 0.84996 0.58139 0.55227
 C1547 C 0.82863 0.59071 0.56196
 H1548 H 0.82059 0.60657 0.55408
 Cu1549 Cu 1.00179 0.39898 0.59947
 Cu1550 Cu 1.00195 0.36504 0.63268
 Cu1551 Cu 1.00094 0.59927 0.60105
 Cu1552 Cu 1.00074 0.63249 0.63501
 Cu1553 Cu 0.90100 0.39961 0.49873
 Cu1554 Cu 0.86777 0.36575 0.49866
 Cu1555 Cu 1.10210 0.40019 0.49866
 Cu1556 Cu 1.13580 0.36673 0.49844
 Cu1557 Cu 0.90092 0.59915 0.50035
 Cu1558 Cu 0.86717 0.63255 0.50052
 Cu1559 Cu 1.09995 0.60091 0.50030
 Cu1560 Cu 1.13344 0.63452 0.50048
 Cu1561 Cu 0.90102 0.49861 0.60070
 Cu1562 Cu 0.86745 0.49831 0.63430
 Cu1563 Cu 1.10180 0.49920 0.60006
 Cu1564 Cu 1.13550 0.49924 0.63355
 C1565 C 1.06445 0.43636 0.64038
 H1566 H 1.05736 0.44358 0.62376
 C1567 C 1.08349 0.41693 0.68295
 C1568 C 0.93860 0.56082 0.64148
 H1569 H 0.94525 0.55410 0.62447
 C1570 C 0.92037 0.57942 0.68470
 C1571 C 0.86031 0.56100 0.56286
 H1572 H 0.87694 0.55392 0.55571
 C1573 C 0.81775 0.58012 0.58205
 C1574 C 1.14270 0.43758 0.56154
 H1575 H 1.12584 0.44451 0.55476
 C1576 C 1.18555 0.41850 0.58009
 C1577 C 1.06452 0.35911 0.56115
 H1578 H 1.05779 0.37613 0.55465
 C1579 C 1.08294 0.31572 0.57905
 C1580 C 0.93817 0.63945 0.56361
 H1581 H 0.94502 0.62254 0.55695
 C1582 C 0.91932 0.68252 0.58177
 C1583 C 0.93909 0.43599 0.64063
 H1584 H 0.94569 0.44285 0.62367
 C1585 C 0.92100 0.41724 0.68384
 C1586 C 1.06375 0.56141 0.64105
 H1587 H 1.05689 0.55478 0.62410
 C1588 C 1.08264 0.57957 0.68417
 C1589 C 0.93927 0.35891 0.56121
 H1590 H 0.94605 0.37585 0.55458
 C1591 C 0.92057 0.31585 0.57942
 C1592 C 1.06223 0.64103 0.56302
 H1593 H 1.05537 0.62429 0.55597
 C1594 C 1.08081 0.68383 0.58200
 C1595 C 0.86077 0.43636 0.56228
 H1596 H 0.87770 0.44320 0.55564
 C1597 C 0.81768 0.41762 0.58051
 C1598 C 1.14093 0.56290 0.56293
 H1599 H 1.12403 0.55602 0.55627
 C1600 C 1.18404 0.58174 0.58115
 O1601 O 0.47641 0.91291 0.38055
 O1602 O 0.47662 0.88495 0.35254
 C1603 C 0.46822 0.90437 0.36104
 C1604 C 0.44819 0.91667 0.34853
 C1605 C 0.43918 0.90755 0.32680
 H1606 H 0.44813 0.89246 0.31854
 O1607 O 0.52267 1.08693 0.38000
 O1608 O 0.52245 1.11481 0.35192
 C1609 C 0.53082 1.09542 0.36046
 C1610 C 0.55075 1.08303 0.34800
 C1611 C 0.56019 1.09238 0.32657
 H1612 H 0.55241 1.10853 0.31922
 O1613 O 0.38037 0.97628 0.41296
 O1614 O 0.35230 0.97611 0.38502
 C1615 C 0.36087 0.96800 0.40457
 C1616 C 0.34855 0.94820 0.41727
 C1617 C 0.32728 0.93835 0.40800
 H1618 H 0.31926 0.94597 0.39198
 O1619 O 0.61880 1.02413 0.41297
 O1620 O 0.64670 1.02400 0.38489
 C1621 C 0.63828 1.03228 0.40441
 C1622 C 0.65085 1.05208 0.41688
 C1623 C 0.67235 1.06140 0.40759
 H1624 H 0.67979 1.05364 0.39142
 O1625 O 0.41345 0.88099 0.47672
 O1626 O 0.38539 0.85317 0.47708
 C1627 C 0.40481 0.86155 0.46857
 C1628 C 0.41707 0.84899 0.44849
 C1629 C 0.40743 0.82781 0.43880
 H1630 H 0.39111 0.82064 0.44642
 O1631 O 0.58656 1.12010 0.47603
 O1632 O 0.61448 1.14807 0.47563
 C1633 C 0.59498 1.13947 0.46752
 C1634 C 0.58236 1.15167 0.44748
 C1635 C 0.59154 1.17299 0.43765
 H1636 H 0.60742 1.18109 0.44540
 O1637 O 0.41317 1.02289 0.37990
 O1638 O 0.38516 1.02288 0.35191
 C1639 C 0.40460 1.03118 0.36046
 C1640 C 0.41693 1.05124 0.34817
 C1641 C 0.40770 1.06066 0.32667
 H1642 H 0.39201 1.05259 0.31850
 O1643 O 0.58566 0.97727 0.38042
 O1644 O 0.61351 0.97725 0.35229
 C1645 C 0.59410 0.96900 0.36092
 C1646 C 0.58174 0.94900 0.34856
 C1647 C 0.59061 0.94022 0.32666
 H1648 H 0.60538 0.94944 0.31813
 O1649 O 0.52350 0.88019 0.41341
 O1650 O 0.52367 0.85214 0.38550
 C1651 C 0.53189 0.86076 0.40496
 C1652 C 0.55197 0.84857 0.41749
 C1653 C 0.56180 0.82724 0.40830
 H1654 H 0.55400 0.81908 0.39244
 O1655 O 0.47595 1.11982 0.41292
 O1656 O 0.47569 1.14778 0.38492
 C1657 C 0.46760 1.13926 0.40446
 C1658 C 0.44777 1.15159 0.41713
 C1659 C 0.43849 1.17335 0.40843
 H1660 H 0.44644 1.18169 0.39275
 O1661 O 0.38064 1.08608 0.47620
 O1662 O 0.35261 1.11399 0.47620
 C1663 C 0.36115 1.09454 0.46793
 C1664 C 0.34868 1.08210 0.44798
 C1665 C 0.32681 1.09095 0.43914
 H1666 H 0.31841 1.10592 0.44817
 O1667 O 0.61942 0.91394 0.47631
 O1668 O 0.64754 0.88611 0.47631
 C1669 C 0.63888 0.90548 0.46795
 C1670 C 0.65108 0.91796 0.44783
 C1671 C 0.67281 0.90919 0.43844
 H1672 H 0.68119 0.89359 0.44645
 O1673 O 0.47582 1.08670 0.38029
 O1674 O 0.47559 1.11460 0.35223
 C1675 C 0.46746 1.09512 0.36079
 C1676 C 0.44762 1.08251 0.34834
 C1677 C 0.43811 1.09165 0.32682
 H1678 H 0.44570 1.10783 0.31931
 O1679 O 0.52330 0.91304 0.38053
 O1680 O 0.52356 0.88510 0.35251
 C1681 C 0.53164 0.90463 0.36103
 C1682 C 0.55141 0.91738 0.34861
 C1683 C 0.56072 0.90872 0.32678
 H1684 H 0.55293 0.89295 0.31851
 O1685 O 0.61879 0.97730 0.41304
 O1686 O 0.64669 0.97723 0.38495
 C1687 C 0.63824 0.96902 0.40449
 C1688 C 0.65073 0.94910 0.41692
 C1689 C 0.67252 0.94018 0.40793
 H1690 H 0.68084 0.94916 0.39288
 O1691 O 0.38020 1.02304 0.41255
 O1692 O 0.35205 1.02300 0.38469
 C1693 C 0.36068 1.03131 0.40412
 C1694 C 0.34840 1.05128 0.41673
 C1695 C 0.32659 1.06055 0.40803
 H1696 H 0.31821 1.05255 0.39239
 O1697 O 0.41313 1.11930 0.47640
 O1698 O 0.38510 1.14723 0.47644
 C1699 C 0.40461 1.13879 0.46822
 C1700 C 0.41704 1.15133 0.44839
 C1701 C 0.40811 1.17315 0.43956
 H1702 H 0.39311 1.18153 0.44858
 O1703 O 0.58671 0.88104 0.47668
 O1704 O 0.61476 0.85316 0.47683
 C1705 C 0.59527 0.86156 0.46852
 C1706 C 0.58291 0.84899 0.44861
 C1707 C 0.59251 0.82771 0.43911
 H1708 H 0.60877 0.82052 0.44685
 O1709 O 0.58600 1.02412 0.37993
 O1710 O 0.61388 1.02405 0.35183
 C1711 C 0.59443 1.03232 0.36038
 C1712 C 0.58189 1.05220 0.34793
 C1713 C 0.59102 1.06175 0.32642
 H1714 H 0.60685 1.05388 0.31831
 O1715 O 0.41293 0.97600 0.37977
 O1716 O 0.38499 0.97586 0.35172
 C1717 C 0.40444 0.96760 0.36032
 C1718 C 0.41698 0.94751 0.34810
 C1719 C 0.40816 0.93801 0.32641
 H1720 H 0.39251 0.94596 0.31801
 O1721 O 0.52283 1.11960 0.41297
 O1722 O 0.52258 1.14753 0.38494
 C1723 C 0.53102 1.13904 0.40438
 C1724 C 0.55107 1.15148 0.41667
 C1725 C 0.56054 1.17274 0.40712
 H1726 H 0.55271 1.18007 0.39093
 O1727 O 0.47657 0.88017 0.41349
 O1728 O 0.47662 0.85213 0.38558
 C1729 C 0.46828 0.86073 0.40502
 C1730 C 0.44815 0.84855 0.41747
 C1731 C 0.43830 0.82732 0.40813
 H1732 H 0.44616 0.81918 0.39229
 O1733 O 0.61938 1.08723 0.47624
 O1734 O 0.64737 1.11513 0.47591
 C1735 C 0.63881 1.09563 0.46784
 C1736 C 0.65110 1.08304 0.44791
 C1737 C 0.67260 1.09207 0.43840
 H1738 H 0.68079 1.10779 0.44636
 O1739 O 0.38071 0.91399 0.47691
 O1740 O 0.35264 0.88618 0.47735
 C1741 C 0.36116 0.90550 0.46884
 C1742 C 0.34866 0.91771 0.44877
 C1743 C 0.32741 0.90809 0.43921
 H1744 H 0.32008 0.89197 0.44706
 Cu1745 Cu 0.49996 0.89935 0.39980
 Cu1746 Cu 0.50013 0.86576 0.36624
 Cu1747 Cu 0.49931 1.10047 0.39936
 Cu1748 Cu 0.49905 1.13398 0.36569
 Cu1749 Cu 0.39947 0.99954 0.39906
 Cu1750 Cu 0.36583 0.99944 0.36550
 Cu1751 Cu 0.59951 1.00075 0.39941
 Cu1752 Cu 0.63299 1.00061 0.36567
 C1753 C 0.43706 0.93674 0.35894
 H1754 H 0.44370 0.94362 0.37589
 C1755 C 0.41888 0.91781 0.31580
 C1756 C 0.56154 1.06277 0.35837
 H1757 H 0.55460 1.05576 0.37513
 C1758 C 0.58024 1.08173 0.31549
 C1759 C 0.35891 0.93794 0.43786
 H1760 H 0.37551 0.94519 0.44490
 C1761 C 0.31647 0.91842 0.41889
 C1762 C 0.64054 1.06283 0.43723
 H1763 H 0.62376 1.05600 0.44424
 C1764 C 0.68347 1.08132 0.41838
 C1765 C 0.43759 0.85904 0.43785
 H1766 H 0.44488 0.87557 0.44497
 C1767 C 0.41806 0.81669 0.41870
 C1768 C 0.56192 1.14124 0.43703
 H1769 H 0.55495 1.12462 0.44425
 C1770 C 0.58069 1.18378 0.41761
 C1771 C 0.43706 1.06214 0.35873
 H1772 H 0.44400 1.05526 0.37555
 C1773 C 0.41822 1.08072 0.31576
 C1774 C 0.56202 0.93760 0.35929
 H1775 H 0.55531 0.94411 0.37635
 C1776 C 0.58055 0.91978 0.31586
 C1777 C 0.56248 0.85911 0.43786
 H1778 H 0.55528 0.87575 0.44483
 C1779 C 0.58196 0.81657 0.41903
 C1780 C 0.43698 1.14080 0.43720
 H1781 H 0.44372 1.12379 0.44372
 C1782 C 0.41845 1.18408 0.41928
 C1783 C 0.35924 1.06216 0.43676
 H1784 H 0.37629 1.05546 0.44329
 C1785 C 0.31585 1.08061 0.41885
 C1786 C 0.64025 0.93798 0.43697
 H1787 H 0.62327 0.94457 0.44376
 C1788 C 0.68350 0.91994 0.41828
 O1789 O 0.52340 0.91485 0.62009
 O1790 O 0.52368 0.88706 0.64825
 C1791 C 0.53182 0.90649 0.63957
 C1792 C 0.55184 0.91906 0.65176
 C1793 C 0.56112 0.91035 0.67356
 H1794 H 0.55301 0.89485 0.68202
 O1795 O 0.47759 1.08776 0.61982
 O1796 O 0.47756 1.11589 0.64766
 C1797 C 0.46936 1.09636 0.63929
 C1798 C 0.44945 1.08403 0.65183
 C1799 C 0.44049 1.09309 0.67359
 H1800 H 0.44946 1.10812 0.68192
 O1801 O 0.38090 1.02473 0.58768
 O1802 O 0.35288 1.02488 0.61565
 C1803 C 0.36135 1.03295 0.59608
 C1804 C 0.34876 1.05254 0.58328
 C1805 C 0.32710 1.06193 0.59220
 H1806 H 0.31907 1.05425 0.60817
 O1807 O 0.62039 0.97762 0.58670
 O1808 O 0.64846 0.97749 0.61463
 C1809 C 0.63984 0.96922 0.59518
 C1810 C 0.65204 0.94914 0.58267
 C1811 C 0.67361 0.93950 0.59166
 H1812 H 0.68190 0.94734 0.60742
 O1813 O 0.58683 0.88151 0.52369
 O1814 O 0.61482 0.85355 0.52385
 C1815 C 0.59536 0.86213 0.53213
 C1816 C 0.58289 0.84993 0.55226
 C1817 C 0.59171 0.82820 0.56155
 H1818 H 0.60729 0.81984 0.55344
 O1819 O 0.41338 1.11890 0.52335
 O1820 O 0.38534 1.14681 0.52330
 C1821 C 0.40483 1.13835 0.53160
 C1822 C 0.41725 1.15087 0.55155
 C1823 C 0.40815 1.17257 0.56054
 H1824 H 0.39293 1.18075 0.55170
 O1825 O 0.41395 0.97813 0.62071
 O1826 O 0.38596 0.97826 0.64870
 C1827 C 0.40538 0.96990 0.64019
 C1828 C 0.41765 0.94983 0.65257
 C1829 C 0.40803 0.94013 0.67377
 H1830 H 0.39184 0.94790 0.68109
 O1831 O 0.58769 1.02475 0.61949
 O1832 O 0.61569 1.02468 0.64750
 C1833 C 0.59624 1.03302 0.63897
 C1834 C 0.58385 1.05307 0.65137
 C1835 C 0.59312 1.06259 0.67283
 H1836 H 0.60892 1.05462 0.68091
 O1837 O 0.47661 0.88165 0.58753
 O1838 O 0.47677 0.85374 0.61558
 C1839 C 0.46847 0.86216 0.59606
 C1840 C 0.44861 0.84969 0.58350
 C1841 C 0.43893 0.82836 0.59281
 H1842 H 0.44668 0.82040 0.60879
 O1843 O 0.52406 1.12074 0.58657
 O1844 O 0.52399 1.14893 0.61433
 C1845 C 0.53222 1.14032 0.59488
 C1846 C 0.55201 1.15272 0.58218
 C1847 C 0.56159 1.17419 0.59128
 H1848 H 0.55402 1.18178 0.60746
 O1849 O 0.38118 0.91421 0.52396
 O1850 O 0.35306 0.88645 0.52435
 C1851 C 0.36175 0.90588 0.53249
 C1852 C 0.34957 0.91853 0.55253
 C1853 C 0.32773 0.90993 0.56176
 H1854 H 0.31935 0.89437 0.55371
 O1855 O 0.61973 1.08772 0.52318
 O1856 O 0.64768 1.11566 0.52290
 C1857 C 0.63923 1.09627 0.53134
 C1858 C 0.65173 1.08391 0.55137
 C1859 C 0.67304 1.09332 0.56102
 H1860 H 0.68094 1.10923 0.55315
 O1861 O 0.52448 1.08790 0.61951
 O1862 O 0.52449 1.11602 0.64735
 C1863 C 0.53281 1.09653 0.63893
 C1864 C 0.55284 1.08412 0.65137
 C1865 C 0.56240 1.09337 0.67284
 H1866 H 0.55469 1.10949 0.68037
 O1867 O 0.47649 0.91450 0.62049
 O1868 O 0.47670 0.88666 0.64861
 C1869 C 0.46832 0.90605 0.64006
 C1870 C 0.44836 0.91853 0.65249
 C1871 C 0.43851 0.90914 0.67376
 H1872 H 0.44620 0.89315 0.68170
 O1873 O 0.62022 1.02454 0.58628
 O1874 O 0.64827 1.02446 0.61422
 C1875 C 0.63970 1.03278 0.59476
 C1876 C 0.65202 1.05280 0.58232
 C1877 C 0.67331 1.06252 0.59172
 H1878 H 0.68079 1.05485 0.60791
 O1879 O 0.38161 0.97795 0.58741
 O1880 O 0.35353 0.97808 0.61532
 C1881 C 0.36214 0.96972 0.59588
 C1882 C 0.34977 0.94973 0.58344
 C1883 C 0.32789 0.94091 0.59228
 H1884 H 0.31945 0.94988 0.60728
 O1885 O 0.58669 1.12042 0.52298
 O1886 O 0.61458 1.14842 0.52262
 C1887 C 0.59517 1.13995 0.53103
 C1888 C 0.58278 1.15249 0.55093
 C1889 C 0.59205 1.17396 0.56023
 H1890 H 0.60781 1.18194 0.55210
 O1891 O 0.41398 0.88131 0.52373
 O1892 O 0.38591 0.85350 0.52406
 C1893 C 0.40546 0.86195 0.53216
 C1894 C 0.41790 0.84959 0.55216
 C1895 C 0.40847 0.82831 0.56174
 H1896 H 0.39233 0.82094 0.55395
 O1897 O 0.58711 0.97791 0.61919
 O1898 O 0.61509 0.97782 0.64721
 C1899 C 0.59555 0.96968 0.63872
 C1900 C 0.58297 0.94991 0.65128
 C1901 C 0.59190 0.94097 0.67311
 H1902 H 0.60707 0.94975 0.68141
 O1903 O 0.41407 1.02501 0.62035
 O1904 O 0.38613 1.02518 0.64839
 C1905 C 0.40560 1.03338 0.63981
 C1906 C 0.41818 1.05334 0.65210
 C1907 C 0.40939 1.06277 0.67381
 H1908 H 0.39370 1.05488 0.68215
 O1909 O 0.47713 1.12013 0.58658
 O1910 O 0.47700 1.14835 0.61433
 C1911 C 0.46867 1.13956 0.59497
 C1912 C 0.44842 1.15154 0.58249
 C1913 C 0.43894 1.17320 0.59128
 H1914 H 0.44701 1.18169 0.60682
 O1915 O 0.52348 0.88196 0.58731
 O1916 O 0.52370 0.85406 0.61537
 C1917 C 0.53187 0.86256 0.59582
 C1918 C 0.55184 0.85017 0.58332
 C1919 C 0.56087 0.82841 0.59224
 H1920 H 0.55200 0.82005 0.60734
 O1921 O 0.61965 0.91435 0.52329
 O1922 O 0.64770 0.88645 0.52329
 C1923 C 0.63919 0.90593 0.53150
 C1924 C 0.65169 0.91835 0.55142
 C1925 C 0.67332 0.90917 0.56051
 H1926 H 0.68158 0.89408 0.55155
 O1927 O 0.38022 1.08641 0.52318
 O1928 O 0.35218 1.11432 0.52309
 C1929 C 0.36072 1.09492 0.53140
 C1930 C 0.34839 1.08268 0.55148
 C1931 C 0.32666 1.09169 0.56051
 H1932 H 0.31810 1.10650 0.55136
 Cu1933 Cu 0.49993 0.90103 0.60107
 Cu1934 Cu 0.50025 0.86759 0.63477
 Cu1935 Cu 0.50085 1.10133 0.60033
 Cu1936 Cu 0.50076 1.13512 0.63370
 Cu1937 Cu 0.40013 0.90042 0.50028
 Cu1938 Cu 0.36644 0.86704 0.50076
 Cu1939 Cu 0.60035 0.90049 0.49998
 Cu1940 Cu 0.63401 0.86702 0.50009
 Cu1941 Cu 0.39965 1.09986 0.49977
 Cu1942 Cu 0.36599 1.13338 0.49974
 Cu1943 Cu 0.60030 1.10107 0.49965
 Cu1944 Cu 0.63383 1.13462 0.49923
 Cu1945 Cu 0.40046 1.00150 0.60126
 Cu1946 Cu 0.36683 1.00161 0.63483
 Cu1947 Cu 0.60108 1.00121 0.60010
 Cu1948 Cu 0.63469 1.00109 0.63369
 C1949 C 0.56283 0.93893 0.64082
 H1950 H 0.55610 0.94547 0.62377
 C1951 C 0.58136 0.92089 0.68416
 C1952 C 0.43830 1.06404 0.64134
 H1953 H 0.44491 1.05720 0.62437
 C1954 C 0.42019 1.08284 0.68452
 C1955 C 0.35917 1.06296 0.56283
 H1956 H 0.37609 1.05615 0.55612
 C1957 C 0.31609 1.08171 0.58117
 C1958 C 0.64130 0.93845 0.56248
 H1959 H 0.62444 0.94540 0.55574
 C1960 C 0.68419 0.91929 0.58095
 C1961 C 0.56288 0.86070 0.56322
 H1962 H 0.55623 0.87766 0.55648
 C1963 C 0.58108 0.81748 0.58174
 C1964 C 0.43747 1.14057 0.56256
 H1965 H 0.44434 1.12364 0.55595
 C1966 C 0.41859 1.18365 0.58072
 C1967 C 0.43798 0.93908 0.64225
 H1968 H 0.44522 0.94622 0.62567
 C1969 C 0.41845 0.91986 0.68465
 C1970 C 0.56352 1.06379 0.64097
 H1971 H 0.55649 1.05677 0.62424
 C1972 C 0.58246 1.08257 0.68385
 C1973 C 0.43817 0.85995 0.56294
 H1974 H 0.44527 0.87657 0.55586
 C1975 C 0.41899 0.81741 0.58197
 C1976 C 0.56256 1.14219 0.56184
 H1977 H 0.55554 1.12543 0.55499
 C1978 C 0.58157 1.18504 0.58027
 C1979 C 0.36040 0.93850 0.56347
 H1980 H 0.37745 0.94497 0.55677
 C1981 C 0.31693 0.92075 0.58182
 C1982 C 0.64156 1.06345 0.56197
 H1983 H 0.62496 1.05629 0.55486
 C1984 C 0.68409 1.08270 0.58106
 O1985 O 0.47700 0.41339 0.88082
 O1986 O 0.47682 0.38541 0.85283
 C1987 C 0.46865 0.40490 0.86137
 C1988 C 0.44870 0.41742 0.84906
 C1989 C 0.43944 0.40860 0.82730
 H1990 H 0.44753 0.39302 0.81894
 O1991 O 0.52430 0.58591 0.87940
 O1992 O 0.52429 0.61374 0.85127
 C1993 C 0.53258 0.59433 0.85989
 C1994 C 0.55259 0.58182 0.84760
 C1995 C 0.56198 0.59065 0.82590
 H1996 H 0.55394 0.60627 0.81755
 O1997 O 0.38099 0.47692 0.91431
 O1998 O 0.35296 0.47686 0.88633
 C1999 C 0.36147 0.46872 0.90587
 C2000 C 0.34901 0.44893 0.91841
 C2001 C 0.32721 0.44000 0.90950
 H2002 H 0.31879 0.44889 0.89443
 O2003 O 0.61975 0.52247 0.91319
 O2004 O 0.64801 0.52233 0.88547
 C2005 C 0.63934 0.53060 0.90489
 C2006 C 0.65168 0.55037 0.91759
 C2007 C 0.67344 0.55967 0.90887
 H2008 H 0.68175 0.55180 0.89312
 O2009 O 0.41358 0.38053 0.97711
 O2010 O 0.38552 0.35270 0.97707
 C2011 C 0.40500 0.36114 0.96877
 C2012 C 0.41743 0.34878 0.94872
 C2013 C 0.40854 0.32710 0.93943
 H2014 H 0.39289 0.31886 0.94750
 O2015 O 0.58673 0.61834 0.97618
 O2016 O 0.61481 0.64616 0.97620
 C2017 C 0.59535 0.63771 0.96788
 C2018 C 0.58307 0.65014 0.94783
 C2019 C 0.59201 0.67192 0.93895
 H2020 H 0.60697 0.68029 0.94802
 O2021 O 0.41400 0.52327 0.88102
 O2022 O 0.38596 0.52312 0.85304
 C2023 C 0.40550 0.53132 0.86143
 C2024 C 0.41798 0.55096 0.84870
 C2025 C 0.40886 0.55981 0.82693
 H2026 H 0.39367 0.55095 0.81875
 O2027 O 0.58687 0.47585 0.88028
 O2028 O 0.61507 0.47556 0.85249
 C2029 C 0.59550 0.46747 0.86091
 C2030 C 0.58304 0.44758 0.84850
 C2031 C 0.59224 0.43816 0.82701
 H2032 H 0.60803 0.44612 0.81895
 O2033 O 0.52364 0.38058 0.91398
 O2034 O 0.52349 0.35251 0.88608
 C2035 C 0.53173 0.36101 0.90560
 C2036 C 0.55145 0.34842 0.91822
 C2037 C 0.56015 0.32651 0.90942
 H2038 H 0.55101 0.31819 0.89447
 O2039 O 0.47747 0.61869 0.91245
 O2040 O 0.47743 0.64661 0.88441
 C2041 C 0.46922 0.63816 0.90395
 C2042 C 0.44940 0.65068 0.91653
 C2043 C 0.43986 0.67205 0.90715
 H2044 H 0.44743 0.67938 0.89085
 O2045 O 0.38102 0.58765 0.97649
 O2046 O 0.35310 0.61568 0.97616
 C2047 C 0.36160 0.59615 0.96806
 C2048 C 0.34925 0.58352 0.94816
 C2049 C 0.32755 0.59233 0.93874
 H2050 H 0.31929 0.60808 0.94660
 O2051 O 0.61928 0.41266 0.97731
 O2052 O 0.64730 0.38474 0.97736
 C2053 C 0.63874 0.40416 0.96903
 C2054 C 0.65113 0.41657 0.94900
 C2055 C 0.67297 0.40773 0.94000
 H2056 H 0.68138 0.39263 0.94882
 O2057 O 0.47742 0.58595 0.87955
 O2058 O 0.47729 0.61375 0.85139
 C2059 C 0.46905 0.59437 0.86007
 C2060 C 0.44899 0.58186 0.84796
 C2061 C 0.43948 0.59060 0.82627
 H2062 H 0.44742 0.60617 0.81779
 O2063 O 0.52389 0.41284 0.88045
 O2064 O 0.52373 0.38484 0.85249
 C2065 C 0.53209 0.40426 0.86094
 C2066 C 0.55202 0.41665 0.84843
 C2067 C 0.56148 0.40748 0.82687
 H2068 H 0.55375 0.39144 0.81921
 O2069 O 0.61944 0.47571 0.91343
 O2070 O 0.64772 0.47552 0.88572
 C2071 C 0.63898 0.46737 0.90516
 C2072 C 0.65127 0.44750 0.91786
 C2073 C 0.67312 0.43840 0.90918
 H2074 H 0.68150 0.44652 0.89361
 O2075 O 0.38112 0.52377 0.91390
 O2076 O 0.35309 0.52361 0.88593
 C2077 C 0.36166 0.53201 0.90533
 C2078 C 0.34931 0.55210 0.91757
 C2079 C 0.32756 0.56107 0.90851
 H2080 H 0.31915 0.55205 0.89353
 O2081 O 0.41457 0.61966 0.97649
 O2082 O 0.38675 0.64778 0.97619
 C2083 C 0.40618 0.63905 0.96801
 C2084 C 0.41865 0.65112 0.94787
 C2085 C 0.40944 0.67247 0.93822
 H2086 H 0.39373 0.68070 0.94622
 O2087 O 0.58668 0.37969 0.97750
 O2088 O 0.61458 0.35165 0.97746
 C2089 C 0.59514 0.36023 0.96918
 C2090 C 0.58257 0.34800 0.94916
 C2091 C 0.59125 0.32622 0.93985
 H2092 H 0.60687 0.31784 0.94786
 O2093 O 0.58718 0.52266 0.88002
 O2094 O 0.61535 0.52242 0.85221
 C2095 C 0.59585 0.53081 0.86055
 C2096 C 0.58355 0.55076 0.84796
 C2097 C 0.59262 0.55979 0.82622
 H2098 H 0.60777 0.55093 0.81796
 O2099 O 0.41374 0.47652 0.88130
 O2100 O 0.38572 0.47646 0.85331
 C2101 C 0.40521 0.46824 0.86182
 C2102 C 0.41765 0.44835 0.84936
 C2103 C 0.40870 0.43934 0.82756
 H2104 H 0.39355 0.44812 0.81921
 O2105 O 0.52425 0.61867 0.91227
 O2106 O 0.52434 0.64664 0.88428
 C2107 C 0.53254 0.63809 0.90379
 C2108 C 0.55241 0.65037 0.91644
 C2109 C 0.56171 0.67209 0.90771
 H2110 H 0.55378 0.68040 0.89199
 O2111 O 0.47682 0.38057 0.91366
 O2112 O 0.47669 0.35253 0.88574
 C2113 C 0.46848 0.36113 0.90522
 C2114 C 0.44851 0.34881 0.91773
 C2115 C 0.43946 0.32707 0.90883
 H2116 H 0.44834 0.31864 0.89377
 O2117 O 0.61932 0.58522 0.97678
 O2118 O 0.64740 0.61304 0.97678
 C2119 C 0.63889 0.59356 0.96865
 C2120 C 0.65144 0.58100 0.94892
 C2121 C 0.67328 0.58986 0.94013
 H2122 H 0.68167 0.60479 0.94922
 O2123 O 0.38088 0.41352 0.97730
 O2124 O 0.35274 0.38577 0.97732
 C2125 C 0.36133 0.40518 0.96909
 C2126 C 0.34893 0.41780 0.94925
 C2127 C 0.32718 0.40903 0.94000
 H2128 H 0.31892 0.39336 0.94799
 Cu2129 Cu 0.50037 0.39968 0.90000
 Cu2130 Cu 0.50019 0.36601 0.86648
 Cu2131 Cu 0.50087 0.59950 0.89870
 Cu2132 Cu 0.50082 0.63298 0.86501
 Cu2133 Cu 0.40027 0.50012 0.90047
 Cu2134 Cu 0.36660 0.50000 0.86686
 Cu2135 Cu 0.60048 0.49922 0.89951
 Cu2136 Cu 0.63436 0.49893 0.86617
 C2137 C 0.43776 0.43738 0.85986
 H2138 H 0.44451 0.44400 0.87687
 C2139 C 0.41924 0.41918 0.81661
 C2140 C 0.56344 0.56179 0.85839
 H2141 H 0.55658 0.55515 0.87534
 C2142 C 0.58219 0.58002 0.81522
 C2143 C 0.35962 0.43785 0.93841
 H2144 H 0.37663 0.44443 0.94512
 C2145 C 0.31638 0.41974 0.91992
 C2146 C 0.64090 0.56111 0.93770
 H2147 H 0.62388 0.55440 0.94424
 C2148 C 0.68416 0.57964 0.91978
 C2149 C 0.43750 0.35942 0.93778
 H2150 H 0.44420 0.37635 0.94452
 C2151 C 0.41918 0.31627 0.91929
 C2152 C 0.56316 0.63961 0.93658
 H2153 H 0.55641 0.62263 0.94314
 C2154 C 0.58172 0.68281 0.91859
 C2155 C 0.43816 0.56196 0.85897
 H2156 H 0.44504 0.55541 0.87595
 C2157 C 0.41920 0.57994 0.81582
 C2158 C 0.56276 0.43688 0.85891
 H2159 H 0.55582 0.44381 0.87571
 C2160 C 0.58155 0.41827 0.81594
 C2161 C 0.56262 0.35891 0.93823
 H2162 H 0.55616 0.37596 0.94491
 C2163 C 0.58040 0.31550 0.91976
 C2164 C 0.43883 0.64050 0.93707
 H2165 H 0.44580 0.62381 0.94416
 C2166 C 0.41995 0.68316 0.91800
 C2167 C 0.35990 0.56332 0.93750
 H2168 H 0.37684 0.55668 0.94434
 C2169 C 0.31675 0.58147 0.91871
 C2170 C 0.64050 0.43656 0.93788
 H2171 H 0.62347 0.44324 0.94446
 C2172 C 0.68393 0.41835 0.91985
 O2173 O 0.52342 0.41321 1.12090
 O2174 O 0.52323 0.38547 1.14911
 C2175 C 0.53163 0.40480 1.14047
 C2176 C 0.55171 0.41720 1.15276
 C2177 C 0.56117 0.40822 1.17437
 H2178 H 0.55315 0.39261 1.18271
 O2179 O 0.47690 0.58697 1.11952
 O2180 O 0.47719 0.61494 1.14752
 C2181 C 0.46882 0.59552 1.13906
 C2182 C 0.44890 0.58325 1.15158
 C2183 C 0.44004 0.59231 1.17336
 H2184 H 0.44914 0.60724 1.18172
 O2185 O 0.38061 0.52446 1.08694
 O2186 O 0.35251 0.52467 1.11482
 C2187 C 0.36112 0.53282 1.09532
 C2188 C 0.34883 0.55273 1.08263
 C2189 C 0.32700 0.56202 1.09123
 H2190 H 0.31857 0.55404 1.10684
 O2191 O 0.61918 0.47619 1.08708
 O2192 O 0.64726 0.47634 1.11500
 C2193 C 0.63874 0.46807 1.09551
 C2194 C 0.65127 0.44825 1.08301
 C2195 C 0.67328 0.43966 1.09174
 H2196 H 0.68170 0.44892 1.10655
 O2197 O 0.58655 0.37998 1.02450
 O2198 O 0.61449 0.35198 1.02456
 C2199 C 0.59505 0.36056 1.03287
 C2200 C 0.58259 0.34828 1.05296
 C2201 C 0.59177 0.32683 1.06253
 H2202 H 0.60784 0.31922 1.05477
 O2203 O 0.41367 0.62055 1.02351
 O2204 O 0.38585 0.64868 1.02329
 C2205 C 0.40519 0.64005 1.03175
 C2206 C 0.41759 0.65227 1.05191
 C2207 C 0.40859 0.67378 1.06155
 H2208 H 0.39288 0.68209 1.05363
 O2209 O 0.41356 0.47765 1.11992
 O2210 O 0.38556 0.47786 1.14790
 C2211 C 0.40500 0.46946 1.13941
 C2212 C 0.41730 0.44941 1.15188
 C2213 C 0.40773 0.43993 1.17321
 H2214 H 0.39158 0.44777 1.18052
 O2215 O 0.58640 0.52302 1.11998
 O2216 O 0.61442 0.52314 1.14798
 C2217 C 0.59496 0.53139 1.13940
 C2218 C 0.58264 0.55149 1.15162
 C2219 C 0.59197 0.56109 1.17300
 H2220 H 0.60768 0.55305 1.18117
 O2221 O 0.47659 0.38048 1.08789
 O2222 O 0.47633 0.35261 1.11598
 C2223 C 0.46823 0.36108 1.09639
 C2224 C 0.44836 0.34872 1.08373
 C2225 C 0.43879 0.32725 1.09280
 H2226 H 0.44663 0.31911 1.10865
 O2227 O 0.52357 0.61960 1.08648
 O2228 O 0.52388 0.64767 1.11438
 C2229 C 0.53193 0.63905 1.09486
 C2230 C 0.55175 0.65126 1.08216
 C2231 C 0.56114 0.67293 1.09091
 H2232 H 0.55327 0.68129 1.10662
 O2233 O 0.38109 0.41362 1.02420
 O2234 O 0.35299 0.38584 1.02428
 C2235 C 0.36161 0.40525 1.03253
 C2236 C 0.34929 0.41779 1.05254
 C2237 C 0.32807 0.40842 1.06236
 H2238 H 0.32014 0.39244 1.05465
 O2239 O 0.61914 0.58575 1.02367
 O2240 O 0.64722 0.61358 1.02357
 C2241 C 0.63862 0.59423 1.03194
 C2242 C 0.65099 0.58194 1.05202
 C2243 C 0.67266 0.59100 1.06111
 H2244 H 0.68100 0.60603 1.05217
 O2245 O 0.52373 0.58682 1.11938
 O2246 O 0.52398 0.61484 1.14733
 C2247 C 0.53210 0.59532 1.13883
 C2248 C 0.55197 0.58279 1.15129
 C2249 C 0.56160 0.59217 1.17264
 H2250 H 0.55409 0.60847 1.17997
 O2251 O 0.47649 0.41373 1.12041
 O2252 O 0.47620 0.38597 1.14859
 C2253 C 0.46805 0.40542 1.13990
 C2254 C 0.44803 0.41807 1.15210
 C2255 C 0.43819 0.40892 1.17346
 H2256 H 0.44589 0.39302 1.18158
 O2257 O 0.61944 0.52297 1.08738
 O2258 O 0.64750 0.52310 1.11533
 C2259 C 0.63891 0.53129 1.09584
 C2260 C 0.65119 0.55122 1.08329
 C2261 C 0.67281 0.56064 1.09223
 H2262 H 0.68108 0.55274 1.10798
 O2263 O 0.38078 0.47756 1.08702
 O2264 O 0.35271 0.47772 1.11493
 C2265 C 0.36134 0.46930 1.09555
 C2266 C 0.34911 0.44912 1.08327
 C2267 C 0.32792 0.43940 1.09286
 H2268 H 0.32051 0.44715 1.10903
 O2269 O 0.58637 0.61868 1.02309
 O2270 O 0.61446 0.64649 1.02299
 C2271 C 0.59491 0.63817 1.03118
 C2272 C 0.58247 0.65081 1.05093
 C2273 C 0.59152 0.67254 1.05980
 H2274 H 0.60661 0.68079 1.05083
 O2275 O 0.41381 0.38066 1.02412
 O2276 O 0.38577 0.35282 1.02411
 C2277 C 0.40524 0.36127 1.03240
 C2278 C 0.41762 0.34884 1.05241
 C2279 C 0.40826 0.32745 1.06180
 H2280 H 0.39214 0.32008 1.05395
 O2281 O 0.58664 0.47618 1.12035
 O2282 O 0.61465 0.47628 1.14834
 C2283 C 0.59518 0.46800 1.13987
 C2284 C 0.58277 0.44810 1.15239
 C2285 C 0.59192 0.43891 1.17406
 H2286 H 0.60713 0.44765 1.18232
 O2287 O 0.41335 0.52449 1.12001
 O2288 O 0.38534 0.52476 1.14799
 C2289 C 0.40485 0.53288 1.13947
 C2290 C 0.41748 0.55276 1.15179
 C2291 C 0.40871 0.56223 1.17351
 H2292 H 0.39297 0.55444 1.18183
 O2293 O 0.47676 0.61980 1.08667
 O2294 O 0.47708 0.64781 1.11463
 C2295 C 0.46866 0.63932 1.09520
 C2296 C 0.44869 0.65183 1.08287
 C2297 C 0.43956 0.67340 1.09213
 H2298 H 0.44844 0.68158 1.10732
 O2299 O 0.52346 0.38048 1.08794
 O2300 O 0.52330 0.35263 1.11605
 C2301 C 0.53167 0.36103 1.09654
 C2302 C 0.55164 0.34854 1.08412
 C2303 C 0.56109 0.32708 1.09339
 H2304 H 0.55312 0.31909 1.10924
 O2305 O 0.61959 0.41257 1.02425
 O2306 O 0.64764 0.38468 1.02438
 C2307 C 0.63910 0.40417 1.03255
 C2308 C 0.65147 0.41688 1.05238
 C2309 C 0.67337 0.40835 1.06157
 H2310 H 0.68174 0.39270 1.05361
 O2311 O 0.38131 0.58730 1.02339
 O2312 O 0.35339 0.61533 1.02310
 C2313 C 0.36180 0.59586 1.03147
 C2314 C 0.34921 0.58349 1.05135
 C2315 C 0.32732 0.59240 1.06010
 H2316 H 0.31899 0.60736 1.05101
 Cu2317 Cu 0.50001 0.39975 1.10149
 Cu2318 Cu 0.49973 0.36640 1.13527
 Cu2319 Cu 0.50023 0.60049 1.10019
 Cu2320 Cu 0.50055 0.63412 1.13378
 Cu2321 Cu 0.40016 0.39985 1.00066
 Cu2322 Cu 0.36644 0.36648 1.00071
 Cu2323 Cu 0.60022 0.39900 1.00090
 Cu2324 Cu 0.63379 0.36545 1.00095
 Cu2325 Cu 0.40045 0.60101 1.00001
 Cu2326 Cu 0.36701 0.63471 0.99966
 Cu2327 Cu 0.60005 0.59920 0.99994
 Cu2328 Cu 0.63380 0.63261 0.99987
 Cu2329 Cu 0.39987 0.50108 1.10068
 Cu2330 Cu 0.36621 0.50127 1.13420
 Cu2331 Cu 0.60010 0.49957 1.10090
 Cu2332 Cu 0.63376 0.49968 1.13449
 C2333 C 0.56257 0.43722 1.14201
 H2334 H 0.55566 0.44399 1.12511
 C2335 C 0.58149 0.41869 1.18499
 C2336 C 0.43765 0.56336 1.14105
 H2337 H 0.44422 0.55652 1.12406
 C2338 C 0.41964 0.58222 1.18423
 C2339 C 0.35971 0.56355 1.06261
 H2340 H 0.37677 0.55681 1.05615
 C2341 C 0.31627 0.58206 1.08033
 C2342 C 0.64062 0.43690 1.06320
 H2343 H 0.62349 0.44328 1.05658
 C2344 C 0.68427 0.41938 1.08146
 C2345 C 0.56236 0.35882 1.06372
 H2346 H 0.55542 0.37555 1.05669
 C2347 C 0.58100 0.31595 1.08266
 C2348 C 0.43772 0.64152 1.06267
 H2349 H 0.44449 0.62472 1.05567
 C2350 C 0.41920 0.68431 1.08189
 C2351 C 0.43762 0.43852 1.14162
 H2352 H 0.44483 0.44548 1.12495
 C2353 C 0.41816 0.41975 1.18426
 C2354 C 0.56244 0.56229 1.14107
 H2355 H 0.55537 0.55523 1.12438
 C2356 C 0.58152 0.58129 1.18375
 C2357 C 0.43784 0.35918 1.06331
 H2358 H 0.44488 0.37590 1.05641
 C2359 C 0.41888 0.31635 1.08187
 C2360 C 0.56246 0.64043 1.06207
 H2361 H 0.55563 0.62347 1.05553
 C2362 C 0.58125 0.68349 1.08009
 C2363 C 0.35951 0.43834 1.06295
 H2364 H 0.37607 0.44547 1.05572
 C2365 C 0.31715 0.41911 1.08240
 C2366 C 0.64049 0.56194 1.06311
 H2367 H 0.62360 0.55509 1.05638
 C2368 C 0.68349 0.58075 1.08152
 C2369 C 1.11352 1.10923 1.25176
 C2370 C 1.09126 1.11421 1.24402
 C2371 C 1.07970 1.10319 1.22276
 C2372 C 1.09109 1.08944 1.20659
 H2373 H 1.08050 1.12717 1.25366
 H2374 H 1.06086 1.10720 1.22040
 H2375 H 1.12441 1.09583 1.24301
 H2376 H 1.10976 1.08492 1.20912
 C2377 C 1.11665 0.61709 0.74695
 C2378 C 1.12634 0.59873 0.73485
 C2379 C 1.11572 0.58796 0.71301
 C2380 C 1.09258 0.59017 0.70652
 H2381 H 1.14353 0.59163 0.74041
 H2382 H 1.12794 0.57765 0.70203
 H2383 H 1.10008 0.62521 0.74097
 H2384 H 1.08042 0.60066 0.71741
 C2385 C 0.61488 1.11185 0.75227
 C2386 C 0.59334 1.11775 0.74312
 C2387 C 0.58216 1.10637 0.72180
 C2388 C 0.59385 1.09262 0.70581
 H2389 H 0.58272 1.13158 0.75165
 H2390 H 0.56336 1.11032 0.71914
 H2391 H 0.62513 1.09735 0.74448
 H2392 H 0.61256 1.08836 0.70859
 C2393 C 0.61440 0.61087 1.25135
 C2394 C 0.59306 0.61722 1.24223
 C2395 C 0.58160 0.60581 1.22116
 C2396 C 0.59303 0.59151 1.20549
 H2397 H 0.58285 0.63133 1.25080
 H2398 H 0.56287 0.61010 1.21847
 H2399 H 0.62436 0.59597 1.24394
 H2400 H 0.61166 0.58693 1.20836
 C2401 C 0.88738 0.88604 1.25211
 C2402 C 0.87931 0.90602 1.24130
 C2403 C 0.89085 0.91751 1.22026
 C2404 C 0.90584 0.90632 1.20502
 H2405 H 0.86380 0.91526 1.24844
 H2406 H 0.88586 0.93596 1.21716
 H2407 H 0.90362 0.87752 1.24578
 H2408 H 0.91076 0.88786 1.20832
 C2409 C 0.88324 0.38365 0.74701
 C2410 C 0.90201 0.37424 0.73514
 C2411 C 0.91267 0.38456 0.71310
 C2412 C 0.91042 0.40755 0.70632
 H2413 H 0.90967 0.35739 0.74094
 H2414 H 0.92308 0.37226 0.70230
 H2415 H 0.87477 0.39983 0.74047
 H2416 H 0.89986 0.41976 0.71711
 C2417 C 0.38851 0.88711 0.75230
 C2418 C 0.38120 0.90776 0.74240
 C2419 C 0.39292 0.91943 0.72158
 C2420 C 0.40788 0.90828 0.70626
 H2421 H 0.36616 0.91724 0.75019
 H2422 H 0.38822 0.93800 0.71878
 H2423 H 0.40428 0.87800 0.74563
 H2424 H 0.41261 0.88973 0.70925
 C2425 C 0.38858 0.38770 1.25237
 C2426 C 0.38114 0.40821 1.24218
 C2427 C 0.39294 0.41974 1.22135
 C2428 C 0.40763 0.40835 1.20596
 H2429 H 0.36594 0.41774 1.24961
 H2430 H 0.38845 0.43836 1.21850
 H2431 H 0.40454 0.37883 1.24580
 H2432 H 0.41212 0.38974 1.20896
 C2433 C 0.88609 1.11006 0.74719
 C2434 C 0.90808 1.11524 0.75554
 C2435 C 0.91929 1.10416 0.77697
 C2436 C 0.90754 1.09081 0.79321
 H2437 H 0.91891 1.12836 0.74623
 H2438 H 0.93815 1.10790 0.77947
 H2439 H 0.87526 1.09635 0.75553
 H2440 H 0.88880 1.08664 0.79057
 C2441 C 0.88484 0.61768 0.25329
 C2442 C 0.87542 0.59922 0.26541
 C2443 C 0.88616 0.58868 0.28725
 C2444 C 0.90934 0.59088 0.29350
 H2445 H 0.85834 0.59186 0.25986
 H2446 H 0.87402 0.57847 0.29839
 H2447 H 0.90120 0.62612 0.25936
 H2448 H 0.92142 0.60129 0.28246
 C2449 C 0.38543 1.10988 0.24784
 C2450 C 0.40691 1.11599 0.25683
 C2451 C 0.41830 1.10468 0.27800
 C2452 C 0.40676 1.09074 0.29388
 H2453 H 0.41725 1.12991 0.24815
 H2454 H 0.43707 1.10878 0.28061
 H2455 H 0.37527 1.09527 0.25546
 H2456 H 0.38809 1.08633 0.29110
 C2457 C 0.38472 0.61759 0.75352
 C2458 C 0.37513 0.59923 0.76565
 C2459 C 0.38588 0.58851 0.78741
 C2460 C 0.40912 0.59047 0.79353
 H2461 H 0.35790 0.59215 0.76022
 H2462 H 0.37370 0.57845 0.79864
 H2463 H 0.40127 0.62576 0.75947
 H2464 H 0.42125 0.60071 0.78239
 C2465 C 1.11371 0.88971 0.74792
 C2466 C 1.09223 0.88364 0.75691
 C2467 C 1.08094 0.89486 0.77822
 C2468 C 1.09251 0.90880 0.79412
 H2469 H 1.08181 0.86985 0.74810
 H2470 H 1.06219 0.89074 0.78087
 H2471 H 1.12400 0.90415 0.75571
 H2472 H 1.11116 0.91323 0.79130
 C2473 C 1.11618 0.38339 0.25177
 C2474 C 1.12589 0.40187 0.26367
 C2475 C 1.11557 0.41258 0.28566
 C2476 C 1.09251 0.41043 0.29235
 H2477 H 1.14293 0.40907 0.25785
 H2478 H 1.12791 0.42281 0.29657
 H2479 H 1.09982 0.37513 0.25808
 H2480 H 1.08023 0.40006 0.28149
 C2481 C 0.61470 0.88294 0.25276
 C2482 C 0.62362 0.90210 0.26414
 C2483 C 0.61323 0.91243 0.28628
 C2484 C 0.59036 0.90943 0.29332
 H2485 H 0.64010 0.91014 0.25782
 H2486 H 0.62537 0.92316 0.29692
 H2487 H 0.59904 0.87383 0.25967
 H2488 H 0.57834 0.89854 0.28268
 C2489 C 0.61493 0.38940 0.74819
 C2490 C 0.59293 0.38399 0.75633
 C2491 C 0.58149 0.39490 0.77775
 C2492 C 0.59306 0.40834 0.79406
 H2493 H 0.58227 0.37083 0.74686
 H2494 H 0.56263 0.39106 0.78012
 H2495 H 0.62563 0.40306 0.75677
 H2496 H 0.61180 0.41257 0.79157
 C2497 C 1.25028 1.11315 1.11068
 C2498 C 1.24031 1.09267 1.11837
 C2499 C 1.21917 1.08112 1.10719
 C2500 C 1.20359 1.09241 1.09264
 H2501 H 1.24826 1.08322 1.13336
 H2502 H 1.21631 1.06257 1.11195
 H2503 H 1.24345 1.12219 1.09492
 H2504 H 1.20662 1.11094 1.08788
 C2505 C 1.24758 0.61571 0.61795
 C2506 C 1.23555 0.62488 0.59922
 C2507 C 1.21338 0.61449 0.58900
 C2508 C 1.20650 0.59156 0.59168
 H2509 H 1.24138 0.64165 0.59142
 H2510 H 1.20259 0.62672 0.57851
 H2511 H 1.24123 0.59972 0.62687
 H2512 H 1.21728 0.57948 0.60239
 C2513 C 0.75123 1.11629 0.61127
 C2514 C 0.74236 1.09483 0.61746
 C2515 C 0.72148 1.08315 0.60584
 C2516 C 0.70576 1.09436 0.59136
 H2517 H 0.75091 1.08478 0.63171
 H2518 H 0.71894 1.06446 0.61022
 H2519 H 0.74373 1.12621 0.59638
 H2520 H 0.70849 1.11296 0.58674
 C2521 C 0.74678 0.61475 1.11852
 C2522 C 0.73451 0.62412 1.10005
 C2523 C 0.71245 0.61363 1.08973
 C2524 C 0.70583 0.59062 1.09219
 H2525 H 0.74010 0.64106 1.09247
 H2526 H 0.70152 0.62582 1.07933
 H2527 H 0.74068 0.59855 1.12724
 H2528 H 0.71666 0.57852 1.10282
 C2529 C 1.24706 0.88275 0.88534
 C2530 C 1.23483 0.90109 0.87576
 C2531 C 1.21271 0.91142 0.88620
 C2532 C 1.20582 0.90877 0.90921
 H2533 H 1.24052 0.90851 0.85874
 H2534 H 1.20188 0.92184 0.87394
 H2535 H 1.24095 0.87428 0.90169
 H2536 H 1.21654 0.89812 0.92139
 C2537 C 1.24883 0.38335 0.38335
 C2538 C 1.23738 0.40261 0.37449
 C2539 C 1.21529 0.41298 0.38492
 C2540 C 1.20821 0.41000 0.40781
 H2541 H 1.24355 0.41082 0.35801
 H2542 H 1.20472 0.42380 0.37277
 H2543 H 1.24190 0.37435 0.39909
 H2544 H 1.21880 0.39903 0.41983
 C2545 C 0.74711 0.88319 0.38466
 C2546 C 0.73511 0.90173 0.37516
 C2547 C 0.71300 0.91217 0.38555
 C2548 C 0.70601 0.90948 0.40851
 H2549 H 0.74097 0.90924 0.35823
 H2550 H 0.70230 0.92272 0.37328
 H2551 H 0.74082 0.87466 0.40091
 H2552 H 0.71666 0.89874 0.42068
 C2553 C 0.74768 0.38591 0.88233
 C2554 C 0.73545 0.37596 0.90052
 C2555 C 0.71326 0.38597 0.91108
 C2556 C 0.70655 0.40900 0.90936
 H2557 H 0.74114 0.35884 0.90765
 H2558 H 0.70227 0.37340 0.92094
 H2559 H 0.74150 0.40234 0.87408
 H2560 H 0.71748 0.42150 0.89932
 C2561 C 0.74816 0.88529 1.11157
 C2562 C 0.75727 0.90662 1.11781
 C2563 C 0.77814 0.91813 1.10604
 C2564 C 0.79358 0.90686 1.09129
 H2565 H 0.74886 0.91675 1.13208
 H2566 H 0.78083 0.93680 1.11043
 H2567 H 0.75555 0.87531 1.09668
 H2568 H 0.79069 0.88829 1.08665
 C2569 C 0.75472 0.38371 0.61820
 C2570 C 0.76693 0.37418 0.59976
 C2571 C 0.78867 0.38480 0.58885
 C2572 C 0.79533 0.40781 0.59121
 H2573 H 0.76162 0.35692 0.59270
 H2574 H 0.79949 0.37262 0.57834
 H2575 H 0.76043 0.40036 0.62630
 H2576 H 0.78464 0.41992 0.60197
 C2577 C 0.25341 0.88375 0.61505
 C2578 C 0.26506 0.90252 0.62447
 C2579 C 0.28728 0.91287 0.61435
 C2580 C 0.29430 0.91042 0.59137
 H2581 H 0.25885 0.91030 0.64116
 H2582 H 0.29799 0.92315 0.62682
 H2583 H 0.26014 0.87499 0.59908
 H2584 H 0.28357 0.89998 0.57902
 C2585 C 0.24940 0.38627 1.11134
 C2586 C 0.25917 0.40687 1.11892
 C2587 C 0.28000 0.41866 1.10744
 C2588 C 0.29562 0.40746 1.09288
 H2589 H 0.25126 0.41624 1.13399
 H2590 H 0.28258 0.43730 1.11198
 H2591 H 0.25617 0.37734 1.09550
 H2592 H 0.29288 0.38882 1.08837
 C2593 C 0.74826 1.11394 0.88855
 C2594 C 0.75755 1.09277 0.88200
 C2595 C 0.77855 1.08134 0.89364
 C2596 C 0.79419 1.09288 0.90794
 H2597 H 0.74934 1.08288 0.86744
 H2598 H 0.78131 1.06265 0.88938
 H2599 H 0.75541 1.12360 0.90378
 H2600 H 0.79129 1.11152 0.91234
 C2601 C 0.75421 0.61525 0.38229
 C2602 C 0.76644 0.62447 0.40083
 C2603 C 0.78846 0.61378 0.41110
 C2604 C 0.79504 0.59074 0.40848
 H2605 H 0.76077 0.64134 0.40857
 H2606 H 0.79944 0.62584 0.42157
 H2607 H 0.76027 0.59901 0.37358
 H2608 H 0.78417 0.57874 0.39779
 C2609 C 0.25241 1.11464 0.38196
 C2610 C 0.26496 1.12422 0.40012
 C2611 C 0.28676 1.11348 0.41077
 C2612 C 0.29341 1.09044 0.40832
 H2613 H 0.25992 1.14164 0.40705
 H2614 H 0.29771 1.12566 0.42114
 H2615 H 0.25786 1.09786 0.37392
 H2616 H 0.28263 1.07835 0.39765
 C2617 C 0.25292 0.61792 0.88515
 C2618 C 0.26554 0.59999 0.87528
 C2619 C 0.28754 0.58949 0.88584
 C2620 C 0.29430 0.59197 0.90890
 H2621 H 0.26023 0.59298 0.85796
 H2622 H 0.29845 0.57913 0.87359
 H2623 H 0.25854 0.62593 0.90191
 H2624 H 0.28357 0.60258 0.92109
 C2625 C 1.11279 1.25076 1.11082
 C2626 C 1.09198 1.24118 1.11811
 C2627 C 1.08038 1.22016 1.10681
 C2628 C 1.09171 1.20454 1.09237
 H2629 H 1.08233 1.24932 1.13286
 H2630 H 1.06173 1.21745 1.11133
 H2631 H 1.12209 1.24372 1.09531
 H2632 H 1.11033 1.20739 1.08775
 C2633 C 1.11273 0.75226 0.61035
 C2634 C 1.09192 0.74259 0.61756
 C2635 C 1.08062 0.72126 0.60651
 C2636 C 1.09209 0.70571 0.59211
 H2637 H 1.08206 0.75085 0.63211
 H2638 H 1.06204 0.71829 0.61116
 H2639 H 1.12234 0.74499 0.59514
 H2640 H 1.11062 0.70880 0.58734
 C2641 C 0.61627 1.25105 0.61138
 C2642 C 0.59367 1.24389 0.61555
 C2643 C 0.58209 1.22268 0.60449
 C2644 C 0.59325 1.20681 0.59018
 H2645 H 0.58264 1.25396 0.62796
 H2646 H 0.56335 1.22023 0.60879
 H2647 H 0.62756 1.24173 0.59870
 H2648 H 0.61174 1.20958 0.58514
 C2649 C 0.61556 0.74540 1.11812
 C2650 C 0.62496 0.73366 1.09935
 C2651 C 0.61440 0.71189 1.08866
 C2652 C 0.59121 0.70571 1.09068
 H2653 H 0.64190 0.73943 1.09186
 H2654 H 0.62662 0.70080 1.07846
 H2655 H 0.59940 0.73901 1.12673
 H2656 H 0.57907 0.71678 1.10102
 C2657 C 0.88223 1.24735 0.88407
 C2658 C 0.90053 1.23503 0.87450
 C2659 C 0.91106 1.21314 0.88512
 C2660 C 0.90868 1.20655 0.90822
 H2661 H 0.90776 1.24044 0.85730
 H2662 H 0.92141 1.20222 0.87288
 H2663 H 0.87388 1.24146 0.90057
 H2664 H 0.89809 1.21736 0.92037
 C2665 C 0.88623 0.75052 0.38923
 C2666 C 0.90763 0.74143 0.38308
 C2667 C 0.91898 0.72035 0.39459
 C2668 C 0.90749 0.70465 0.40882
 H2669 H 0.91797 0.75004 0.36908
 H2670 H 0.93773 0.71771 0.39044
 H2671 H 0.87608 0.74296 0.40392
 H2672 H 0.88884 0.70748 0.41331
 C2673 C 0.38480 1.24721 0.38219
 C2674 C 0.37513 1.23502 0.40052
 C2675 C 0.38558 1.21303 0.41101
 C2676 C 0.40868 1.20650 0.40881
 H2677 H 0.35804 1.24062 0.40783
 H2678 H 0.37329 1.20202 0.42117
 H2679 H 0.40121 1.24113 0.37382
 H2680 H 0.42090 1.21742 0.39845
 C2681 C 0.38715 0.75088 0.88920
 C2682 C 0.40830 0.74167 0.88235
 C2683 C 0.41985 0.72058 0.89358
 C2684 C 0.40843 0.70483 0.90776
 H2685 H 0.41824 0.75015 0.86800
 H2686 H 0.43857 0.71793 0.88927
 H2687 H 0.37746 0.74347 0.90427
 H2688 H 0.38976 0.70759 0.91223
 C2689 C 1.10983 0.74822 0.88739
 C2690 C 1.11637 0.75761 0.90857
 C2691 C 1.10474 0.77859 0.91990
 C2692 C 1.09075 0.79432 0.90816
 H2693 H 1.13080 0.74940 0.91865
 H2694 H 1.10872 0.78124 0.93872
 H2695 H 1.09464 0.75532 0.87762
 H2696 H 1.08660 0.79153 0.88939
 C2697 C 1.11205 0.24802 0.38631
 C2698 C 1.12041 0.25905 0.40597
 C2699 C 1.10876 0.27995 0.41742
 C2700 C 1.09365 0.29495 0.40606
 H2701 H 1.13625 0.25214 0.41484
 H2702 H 1.11383 0.28322 0.43586
 H2703 H 1.09538 0.25368 0.37813
 H2704 H 1.08868 0.29143 0.38761
 C2705 C 0.61219 0.74894 0.38676
 C2706 C 0.61908 0.75872 0.40765
 C2707 C 0.60735 0.77966 0.41905
 C2708 C 0.59249 0.79488 0.40765
 H2709 H 0.63380 0.75078 0.41752
 H2710 H 0.61192 0.78262 0.43768
 H2711 H 0.59677 0.75578 0.37720
 H2712 H 0.58777 0.79172 0.38908
 C2713 C 0.61787 0.25309 0.88494
 C2714 C 0.59796 0.26377 0.87675
 C2715 C 0.58752 0.28578 0.88715
 C2716 C 0.59087 0.29305 0.90993
 H2717 H 0.58940 0.25708 0.86064
 H2718 H 0.57638 0.29607 0.87507
 H2719 H 0.62753 0.26049 0.90008
 H2720 H 0.60216 0.28262 0.92181
 C2721 C 0.88785 0.74838 1.11231
 C2722 C 0.88072 0.75794 1.09140
 C2723 C 0.89216 0.77891 1.07986
 C2724 C 0.90669 0.79437 1.09128
 H2725 H 0.86600 0.74986 1.08168
 H2726 H 0.88764 0.78173 1.06119
 H2727 H 0.90328 0.75538 1.12171
 H2728 H 0.91130 0.79142 1.10991
 C2729 C 0.88659 0.25239 0.61592
 C2730 C 0.87628 0.26606 0.59903
 C2731 C 0.88728 0.28769 0.58834
 C2732 C 0.91059 0.29360 0.59003
 H2733 H 0.85828 0.26195 0.59305
 H2734 H 0.87507 0.29924 0.57863
 H2735 H 0.90419 0.25668 0.62283
 H2736 H 0.92283 0.28242 0.60011
 C2737 C 0.38886 0.74985 0.61431
 C2738 C 0.38238 0.75932 0.59316
 C2739 C 0.39413 0.78024 0.58181
 C2740 C 0.40857 0.79571 0.59337
 H2741 H 0.36797 0.75115 0.58304
 H2742 H 0.38993 0.78297 0.56306
 H2743 H 0.40396 0.75695 0.62417
 H2744 H 0.41297 0.79278 0.61205
 C2745 C 0.38920 0.24819 1.11334
 C2746 C 0.38292 0.25774 1.09216
 C2747 C 0.39447 0.27893 1.08116
 C2748 C 0.40864 0.29444 1.09299
 H2749 H 0.36883 0.24941 1.08173
 H2750 H 0.39037 0.28185 1.06241
 H2751 H 0.40404 0.25542 1.12351
 H2752 H 0.41301 0.29134 1.11165
 C2753 C 1.11461 1.11824 0.75196
 C2754 C 1.12375 1.09933 0.76380
 C2755 C 1.11346 1.08895 0.78595
 C2756 C 1.09051 1.09137 0.79283
 H2757 H 1.14047 1.09139 0.75797
 H2758 H 1.12578 1.07853 0.79672
 H2759 H 1.09859 1.12699 0.75855
 H2760 H 1.07830 1.10199 0.78209
 C2761 C 1.11136 0.61542 0.24769
 C2762 C 1.11732 0.59386 0.25668
 C2763 C 1.10585 0.58246 0.27777
 C2764 C 1.09201 0.59399 0.29378
 H2765 H 1.13125 0.58336 0.24816
 H2766 H 1.10981 0.56366 0.28026
 H2767 H 1.09673 0.62552 0.25543
 H2768 H 1.08772 0.61270 0.29118
 C2769 C 0.61188 1.11064 0.24696
 C2770 C 0.59180 1.11863 0.25760
 C2771 C 0.58017 1.10679 0.27833
 C2772 C 0.59155 1.09202 0.29364
 H2773 H 0.58277 1.13435 0.25069
 H2774 H 0.56161 1.11151 0.28130
 H2775 H 0.62008 1.09411 0.25294
 H2776 H 0.61014 1.08740 0.29049
 C2777 C 0.61583 0.61759 0.75190
 C2778 C 0.62514 0.59880 0.76371
 C2779 C 0.61482 0.58816 0.78575
 C2780 C 0.59189 0.59069 0.79276
 H2781 H 0.64200 0.59122 0.75778
 H2782 H 0.62710 0.57754 0.79637
 H2783 H 0.59974 0.62630 0.75835
 H2784 H 0.57974 0.60149 0.78215
 C2785 C 0.88517 0.88195 0.75330
 C2786 C 0.87573 0.90057 0.76521
 C2787 C 0.88622 0.91120 0.78712
 C2788 C 0.90936 0.90915 0.79352
 H2789 H 0.85874 0.90801 0.75946
 H2790 H 0.87395 0.92139 0.79816
 H2791 H 0.90143 0.87342 0.75960
 H2792 H 0.92157 0.89876 0.78256
 C2793 C 0.88969 0.38532 0.24712
 C2794 C 0.88403 0.40701 0.25601
 C2795 C 0.89558 0.41837 0.27714
 C2796 C 0.90968 0.40692 0.29301
 H2797 H 0.87024 0.41762 0.24740
 H2798 H 0.89148 0.43713 0.27977
 H2799 H 0.90413 0.37503 0.25499
 H2800 H 0.91417 0.38828 0.29024
 C2801 C 0.38236 0.88362 0.25200
 C2802 C 0.40052 0.87410 0.26467
 C2803 C 0.41079 0.88480 0.28676
 C2804 C 0.40837 0.90787 0.29334
 H2805 H 0.40791 0.85693 0.25948
 H2806 H 0.42103 0.87264 0.29787
 H2807 H 0.37420 0.90023 0.25780
 H2808 H 0.39789 0.91999 0.28239
 C2809 C 0.38582 0.38144 0.75358
 C2810 C 0.37595 0.39958 0.76592
 C2811 C 0.38636 0.41026 0.78786
 C2812 C 0.40954 0.40854 0.79420
 H2813 H 0.35867 0.40657 0.76051
 H2814 H 0.37397 0.42018 0.79902
 H2815 H 0.40241 0.37332 0.75951
 H2816 H 0.42188 0.39841 0.78316
 C2817 C 1.11621 0.88340 1.24687
 C2818 C 1.09718 0.87433 1.23533
 C2819 C 1.08669 0.88474 1.21324
 C2820 C 1.08951 0.90763 1.20626
 H2821 H 1.08929 0.85775 1.24156
 H2822 H 1.07593 0.87262 1.20261
 H2823 H 1.12515 0.89921 1.24011
 H2824 H 1.10041 0.91964 1.21691
 C2825 C 1.11580 0.38669 0.75089
 C2826 C 1.09489 0.37997 0.74109
 C2827 C 1.08353 0.39170 0.72006
 C2828 C 1.09490 0.40647 0.70474
 H2829 H 1.08496 0.36537 0.74910
 H2830 H 1.06492 0.38719 0.71711
 H2831 H 1.12546 0.40197 0.74395
 H2832 H 1.11344 0.41117 0.70791
 C2833 C 0.61522 0.88261 0.74659
 C2834 C 0.62486 0.90108 0.73461
 C2835 C 0.61435 0.91198 0.71282
 C2836 C 0.59116 0.91025 0.70653
 H2837 H 0.64210 0.90809 0.74012
 H2838 H 0.62668 0.92201 0.70173
 H2839 H 0.59874 0.87442 0.74049
 H2840 H 0.57891 0.90004 0.71758
 C2841 C 0.61552 0.38142 1.24844
 C2842 C 0.62510 0.39960 1.23586
 C2843 C 0.61449 0.40998 1.21381
 C2844 C 0.59136 0.40797 1.20735
 H2845 H 0.64229 0.40691 1.24106
 H2846 H 0.62678 0.42003 1.20267
 H2847 H 0.59891 0.37330 1.24259
 H2848 H 0.57914 0.39764 1.21832
 C2849 C 0.88844 1.11357 1.25174
 C2850 C 0.88219 1.09209 1.24288
 C2851 C 0.89326 1.08065 1.22157
 C2852 C 0.90724 1.09209 1.20563
 H2853 H 0.86838 1.08180 1.25179
 H2854 H 0.88903 1.06193 1.21896
 H2855 H 0.90289 1.12374 1.24384
 H2856 H 0.91173 1.11072 1.20838
 C2857 C 0.88366 0.61367 0.74796
 C2858 C 0.90192 0.62316 0.73560
 C2859 C 0.91244 0.61240 0.71373
 C2860 C 0.90978 0.58938 0.70706
 H2861 H 0.90910 0.64036 0.74095
 H2862 H 0.92293 0.62449 0.70281
 H2863 H 0.87544 0.59710 0.74222
 H2864 H 0.89901 0.57737 0.71780
 C2865 C 0.38304 1.11645 0.74779
 C2866 C 0.40141 1.12613 0.73570
 C2867 C 0.41206 1.11567 0.71372
 C2868 C 0.40968 1.09266 0.70698
 H2869 H 0.40860 1.14321 0.74140
 H2870 H 0.42244 1.12791 0.70285
 H2871 H 0.37483 1.10000 0.74169
 H2872 H 0.39914 1.08049 0.71777
 C2873 C 0.38282 0.61658 1.24724
 C2874 C 0.40137 0.62590 1.23517
 C2875 C 0.41178 0.61525 1.21320
 C2876 C 0.40920 0.59221 1.20663
 H2877 H 0.40888 0.64286 1.24083
 H2878 H 0.42218 0.62736 1.20220
 H2879 H 0.37426 0.60032 1.24109
 H2880 H 0.39861 0.58017 1.21753
 C2881 C 1.11756 1.24741 0.88481
 C2882 C 1.09865 1.23566 0.87567
 C2883 C 1.08840 1.21349 0.88603
 C2884 C 1.09117 1.20640 0.90896
 H2885 H 1.09066 1.24162 0.85899
 H2886 H 1.07784 1.20285 0.87374
 H2887 H 1.12633 1.24072 0.90081
 H2888 H 1.10192 1.21702 0.92114
 C2889 C 1.11355 0.75196 0.38825
 C2890 C 1.09306 0.74165 0.38089
 C2891 C 1.08168 0.72069 0.39259
 C2892 C 1.09295 0.70553 0.40761
 H2893 H 1.08334 0.74913 0.36582
 H2894 H 1.06316 0.71763 0.38778
 H2895 H 1.12267 0.74529 0.40405
 H2896 H 1.11142 0.70879 0.41254
 C2897 C 0.61235 1.25211 0.38854
 C2898 C 0.59175 1.24206 0.38119
 C2899 C 0.58040 1.22105 0.39279
 C2900 C 0.59199 1.20553 0.40718
 H2901 H 0.58202 1.24968 0.36619
 H2902 H 0.56172 1.21820 0.38846
 H2903 H 0.62139 1.24535 0.40434
 H2904 H 0.61066 1.20849 0.41153
 C2905 C 0.61551 0.74587 0.88145
 C2906 C 0.62497 0.73381 0.90001
 C2907 C 0.61450 0.71189 0.91054
 C2908 C 0.59149 0.70521 0.90808
 H2909 H 0.64200 0.73943 0.90742
 H2910 H 0.62674 0.70104 0.92098
 H2911 H 0.59922 0.73974 0.87289
 H2912 H 0.57934 0.71598 0.89744
 C2913 C 0.88584 1.25132 1.11160
 C2914 C 0.90710 1.24208 1.11800
 C2915 C 0.91861 1.22122 1.10621
 C2916 C 0.90718 1.20577 1.09164
 H2917 H 0.91702 1.25018 1.13260
 H2918 H 0.93729 1.21839 1.11060
 H2919 H 0.87611 1.24425 1.09639
 H2920 H 0.88858 1.20875 1.08703
 C2921 C 0.88500 0.74604 0.61812
 C2922 C 0.87545 0.73333 0.60008
 C2923 C 0.88619 0.71131 0.58988
 C2924 C 0.90934 0.70490 0.59225
 H2925 H 0.85819 0.73852 0.59281
 H2926 H 0.87403 0.70011 0.57975
 H2927 H 0.90160 0.74040 0.62647
 H2928 H 0.92146 0.71591 0.60265
 C2929 C 0.38414 1.24635 0.61841
 C2930 C 0.37491 1.23435 0.59965
 C2931 C 0.38550 1.21237 0.58923
 C2932 C 0.40866 1.20599 0.59132
 H2933 H 0.35802 1.23994 0.59190
 H2934 H 0.37326 1.20128 0.57908
 H2935 H 0.40036 1.23998 0.62698
 H2936 H 0.42083 1.21704 0.60164
 C2937 C 0.38224 0.74742 1.11656
 C2938 C 0.40068 0.73506 1.12592
 C2939 C 0.41106 0.71312 1.11512
 C2940 C 0.40853 0.70657 1.09199
 H2941 H 0.40824 0.74042 1.14300
 H2942 H 0.42149 0.70214 1.12724
 H2943 H 0.37392 0.74142 1.10007
 H2944 H 0.39787 0.71742 1.07993
 C2945 C 0.88197 0.75229 0.88401
 C2946 C 0.90042 0.76442 0.87452
 C2947 C 0.91083 0.78650 0.88495
 C2948 C 0.90787 0.79367 0.90783
 H2949 H 0.90790 0.75868 0.85753
 H2950 H 0.92154 0.79709 0.87275
 H2951 H 0.87347 0.75840 0.90035
 H2952 H 0.89694 0.78317 0.91993
 C2953 C 0.88358 0.25355 0.38410
 C2954 C 0.90201 0.26543 0.37425
 C2955 C 0.91273 0.28742 0.38448
 C2956 C 0.91063 0.29418 0.40755
 H2957 H 0.90919 0.25956 0.35719
 H2958 H 0.92295 0.29825 0.37205
 H2959 H 0.87534 0.25988 0.40050
 H2960 H 0.90027 0.28341 0.41991
 C2961 C 0.38806 0.74889 0.38608
 C2962 C 0.38140 0.75864 0.40714
 C2963 C 0.39311 0.77957 0.41858
 C2964 C 0.40762 0.79505 0.40716
 H2965 H 0.36680 0.75080 0.41723
 H2966 H 0.38876 0.78238 0.43729
 H2967 H 0.40336 0.75593 0.37648
 H2968 H 0.41215 0.79208 0.38851
 C2969 C 0.38255 0.25227 0.88621
 C2970 C 0.40036 0.26492 0.87619
 C2971 C 0.41093 0.28692 0.88661
 C2972 C 0.40857 0.29382 0.90964
 H2973 H 0.40721 0.25964 0.85879
 H2974 H 0.42124 0.29772 0.87426
 H2975 H 0.37467 0.25785 0.90305
 H2976 H 0.39798 0.28320 0.92193
 C2977 C 1.11180 0.74921 1.11534
 C2978 C 1.11771 0.75847 1.09384
 C2979 C 1.10587 0.77936 1.08242
 C2980 C 1.09133 0.79489 1.09378
 H2981 H 1.13187 0.75027 1.08338
 H2982 H 1.11010 0.78206 1.06366
 H2983 H 1.09701 0.75666 1.12544
 H2984 H 1.08675 0.79201 1.11242
 C2985 C 1.11624 0.25238 0.61680
 C2986 C 1.12559 0.26406 0.59788
 C2987 C 1.11543 0.28618 0.58730
 C2988 C 1.09247 0.29315 0.58956
 H2989 H 1.14235 0.25810 0.59013
 H2990 H 1.12784 0.29688 0.57695
 H2991 H 1.10016 0.25908 0.62537
 H2992 H 1.08017 0.28244 0.60006
 C2993 C 0.61803 0.75370 0.61484
 C2994 C 0.59994 0.76608 0.62475
 C2995 C 0.58937 0.78814 0.61442
 C2996 C 0.59163 0.79498 0.59137
 H2997 H 0.59289 0.76055 0.64199
 H2998 H 0.57913 0.79898 0.62681
 H2999 H 0.62612 0.75962 0.59823
 H3000 H 0.60210 0.78426 0.57904
 C3001 C 0.61040 0.24788 1.11525
 C3002 C 0.61638 0.25696 1.09376
 C3003 C 0.60496 0.27814 1.08245
 C3004 C 0.59102 0.29402 1.09407
 H3005 H 0.63031 0.24835 1.08332
 H3006 H 0.60904 0.28079 1.06365
 H3007 H 0.59579 0.25545 1.12551
 H3008 H 0.58665 0.29120 1.11277
 C3009 C 1.25122 1.11017 0.88778
 C3010 C 1.24180 1.11664 0.90897
 C3011 C 1.22065 1.10515 0.92016
 C3012 C 1.20493 1.09122 0.90835
 H3013 H 1.25013 1.13087 0.91919
 H3014 H 1.21791 1.10915 0.93896
 H3015 H 1.24398 1.09520 0.87784
 H3016 H 1.20782 1.08703 0.88962
 C3017 C 1.24781 0.61595 0.38402
 C3018 C 1.23599 0.62514 0.40283
 C3019 C 1.21391 0.61469 0.41308
 C3020 C 1.20715 0.59175 0.41027
 H3021 H 1.24189 0.64189 0.41062
 H3022 H 1.20303 0.62686 0.42355
 H3023 H 1.24136 0.59997 0.37514
 H3024 H 1.21800 0.57968 0.39964
 C3025 C 0.75186 1.11325 0.39000
 C3026 C 0.74245 1.09222 0.38314
 C3027 C 0.72114 1.08095 0.39425
 C3028 C 0.70536 1.09256 0.40828
 H3029 H 0.75090 1.08218 0.36883
 H3030 H 0.71836 1.06227 0.38994
 H3031 H 0.74444 1.12305 0.40501
 H3032 H 0.70827 1.11119 0.41273
 C3033 C 0.74706 0.61379 0.88294
 C3034 C 0.73485 0.62323 0.90136
 C3035 C 0.71295 0.61261 0.91176
 C3036 C 0.70651 0.58954 0.90932
 H3037 H 0.74034 0.64029 0.90878
 H3038 H 0.70189 0.62478 0.92205
 H3039 H 0.74109 0.59743 0.87443
 H3040 H 0.71745 0.57745 0.89880
 C3041 C 1.25183 0.88716 1.11031
 C3042 C 1.24222 0.90810 1.11719
 C3043 C 1.22106 0.91942 1.10575
 C3044 C 1.20533 0.90779 1.09166
 H3045 H 1.25038 0.91801 1.13176
 H3046 H 1.21826 0.93812 1.10996
 H3047 H 1.24475 0.87758 1.09500
 H3048 H 1.20826 0.88914 1.08730
 C3049 C 1.24783 0.38365 0.61798
 C3050 C 1.23584 0.37446 0.59926
 C3051 C 1.21407 0.38526 0.58860
 C3052 C 1.20772 0.40838 0.59090
 H3053 H 1.24142 0.35746 0.59176
 H3054 H 1.20306 0.37319 0.57816
 H3055 H 1.24173 0.39995 0.62655
 H3056 H 1.21863 0.42038 0.60155
 C3057 C 0.74718 0.88437 0.61787
 C3058 C 0.73487 0.87520 0.59936
 C3059 C 0.71296 0.88606 0.58899
 C3060 C 0.70644 0.90912 0.59163
 H3061 H 0.74029 0.85816 0.59182
 H3062 H 0.70198 0.87404 0.57847
 H3063 H 0.74129 0.90072 0.62648
 H3064 H 0.71730 0.92105 0.60241
 C3065 C 0.74715 0.38228 1.11581
 C3066 C 0.73675 0.40237 1.12387
 C3067 C 0.71456 0.41272 1.11372
 C3068 C 0.70690 0.40908 1.09111
 H3069 H 0.74381 0.41115 1.13969
 H3070 H 0.70449 0.42403 1.12581
 H3071 H 0.73938 0.37243 1.10099
 H3072 H 0.71717 0.39766 1.07922
 C3073 C 0.75318 1.11534 1.11764
 C3074 C 0.76516 1.12492 1.09913
 C3075 C 0.78715 1.11451 1.08856
 C3076 C 0.79363 1.09140 1.09062
 H3077 H 0.75937 1.14189 1.09173
 H3078 H 0.79815 1.12682 1.07840
 H3079 H 0.75951 1.09910 1.12614
 H3080 H 0.78267 1.07919 1.10095
 C3081 C 0.74978 0.61303 0.61085
 C3082 C 0.75920 0.59205 0.61791
 C3083 C 0.78032 0.58044 0.60669
 C3084 C 0.79603 0.59170 0.59230
 H3085 H 0.75085 0.58227 0.63245
 H3086 H 0.78301 0.56180 0.61123
 H3087 H 0.75707 0.62253 0.59560
 H3088 H 0.79320 0.61030 0.58765
 C3089 C 0.25280 1.11568 0.61820
 C3090 C 0.26494 1.12507 0.59968
 C3091 C 0.28688 1.11450 0.58912
 C3092 C 0.29375 1.09157 0.59185
 H3093 H 0.25932 1.14206 0.59221
 H3094 H 0.29759 1.12660 0.57841
 H3095 H 0.25886 1.09936 0.62674
 H3096 H 0.28319 1.07956 0.60280
 C3097 C 0.25223 0.61553 1.11652
 C3098 C 0.26451 0.62504 1.09817
 C3099 C 0.28675 0.61469 1.08799
 C3100 C 0.29366 0.59175 1.09062
 H3101 H 0.25879 0.64197 1.09061
 H3102 H 0.29763 0.62696 1.07767
 H3103 H 0.25839 0.59929 1.12514
 H3104 H 0.28287 0.57957 1.10116
 C3105 C 0.75308 0.88190 0.88343
 C3106 C 0.76478 0.90063 0.87397
 C3107 C 0.78662 0.91140 0.88445
 C3108 C 0.79308 0.90928 0.90760
 H3109 H 0.75894 0.90803 0.85698
 H3110 H 0.79754 0.92169 0.87218
 H3111 H 0.75947 0.87343 0.89969
 H3112 H 0.78217 0.89884 0.91979
 C3113 C 0.75380 0.38102 0.38415
 C3114 C 0.76602 0.39928 0.37443
 C3115 C 0.78799 0.40985 0.38489
 C3116 C 0.79458 0.40772 0.40802
 H3117 H 0.76041 0.40651 0.35730
 H3118 H 0.79892 0.42009 0.37258
 H3119 H 0.75986 0.37272 0.40063
 H3120 H 0.78377 0.39727 0.42027
 C3121 C 0.24908 0.88829 0.38620
 C3122 C 0.25829 0.88201 0.40755
 C3123 C 0.27924 0.89365 0.41898
 C3124 C 0.29489 0.90786 0.40741
 H3125 H 0.24986 0.86785 0.41779
 H3126 H 0.28184 0.88964 0.43779
 H3127 H 0.25644 0.90315 0.37619
 H3128 H 0.29214 0.91205 0.38865
 C3129 C 0.25374 0.38191 0.88616
 C3130 C 0.26563 0.40045 0.87658
 C3131 C 0.28751 0.41116 0.88702
 C3132 C 0.29402 0.40912 0.91016
 H3133 H 0.25990 0.40776 0.85952
 H3134 H 0.29844 0.42137 0.87468
 H3135 H 0.26003 0.37350 0.90250
 H3136 H 0.28316 0.39873 0.92242
   
