data_POSCAR
  _audit_creation_date              2014-09-24
  _audit_creation_method            'ToBaCCo'
  _symmetry_space_group_name_H-M    'P1'
  _symmetry_Int_Tables_number       1
  _symmetry_cell_setting            triclinic
  loop_
  _symmetry_equiv_pos_as_xyz
 x,y,z
_cell_length_a 85.0677
_cell_length_b 83.7328
_cell_length_c 84.1113
_cell_angle_alpha 89.968000
_cell_angle_beta 90.029300
_cell_angle_gamma 89.960600
loop_
  _atom_site_label
  _atom_site_type_symbol
  _atom_site_fract_x
  _atom_site_fract_y
  _atom_site_fract_z
N1 N 0.36337 0.31823 0.32946
 N2 N 0.36288 0.32954 0.31865
 C3 C 0.37507 0.32769 0.30864
 C4 C 0.38375 0.31451 0.31338
 C5 C 0.37591 0.30881 0.32669
 H6 H 0.37752 0.33549 0.29874
 H7 H 0.37908 0.29858 0.33383
 Cu8 Cu 0.34651 0.34575 0.31886
 Cu9 Cu 0.34777 0.31681 0.34638
 Cu10 Cu 0.31842 0.34574 0.34698
 N11 N 0.33008 0.36186 0.31924
 N12 N 0.31911 0.36192 0.33023
 C13 C 0.30947 0.37447 0.32773
 C14 C 0.31468 0.38272 0.31442
 C15 C 0.32780 0.37431 0.30941
 H16 H 0.29942 0.37734 0.33503
 H17 H 0.33528 0.37716 0.29945
 N18 N 0.31986 0.32834 0.36284
 N19 N 0.33100 0.31737 0.36253
 C20 C 0.32893 0.30731 0.37483
 C21 C 0.31585 0.31211 0.38337
 C22 C 0.31041 0.32552 0.37540
 H23 H 0.33653 0.29732 0.37748
 H24 H 0.30027 0.33266 0.37847
 H25 H 0.32962 0.32804 0.33427
 H26 H 0.34219 0.34093 0.34713
 N27 N 0.36284 0.81787 -0.17247
 N28 N 0.36252 0.82951 -0.18291
 C29 C 0.37564 0.82899 -0.19180
 C30 C 0.38472 0.81609 -0.18686
 C31 C 0.37611 0.80934 -0.17449
 H32 H 0.37802 0.83712 -0.20148
 H33 H 0.37909 0.79894 -0.16750
 Cu34 Cu 0.34438 0.84340 -0.18485
 Cu35 Cu 0.34557 0.81447 -0.15763
 Cu36 Cu 0.31959 0.84646 -0.15390
 N37 N 0.32995 0.86114 -0.18294
 N38 N 0.32035 0.86255 -0.17080
 C39 C 0.31172 0.87593 -0.17267
 C40 C 0.31617 0.88334 -0.18682
 C41 C 0.32785 0.87349 -0.19291
 H42 H 0.30277 0.87980 -0.16441
 H43 H 0.33442 0.87504 -0.20378
 N44 N 0.32075 0.82871 -0.13834
 N45 N 0.33046 0.81652 -0.13999
 C46 C 0.32840 0.80635 -0.12779
 C47 C 0.31676 0.81229 -0.11790
 C48 C 0.31219 0.82653 -0.12502
 H49 H 0.33500 0.79544 -0.12624
 H50 H 0.30321 0.83466 -0.12090
 H51 H 0.32711 0.82781 -0.16731
 H52 H 0.34272 0.83884 -0.15638
 N53 N 0.86226 0.31842 -0.17041
 N54 N 0.86235 0.33003 -0.18091
 C55 C 0.87469 0.32808 -0.19072
 C56 C 0.88286 0.31451 -0.18612
 C57 C 0.87458 0.30870 -0.17315
 H58 H 0.87763 0.33607 -0.20035
 H59 H 0.87730 0.29821 -0.16618
 Cu60 Cu 0.84637 0.34662 -0.18079
 Cu61 Cu 0.84649 0.31715 -0.15369
 Cu62 Cu 0.82013 0.34874 -0.15103
 N63 N 0.82960 0.36238 -0.18077
 N64 N 0.81943 0.36332 -0.16907
 C65 C 0.80968 0.37573 -0.17173
 C66 C 0.81395 0.38299 -0.18597
 C67 C 0.82663 0.37403 -0.19134
 H68 H 0.80032 0.37919 -0.16377
 H69 H 0.83348 0.37599 -0.20195
 N70 N 0.81992 0.33039 -0.13631
 N71 N 0.82976 0.31827 -0.13755
 C72 C 0.82672 0.30772 -0.12590
 C73 C 0.81433 0.31339 -0.11683
 C74 C 0.81031 0.32781 -0.12384
 H75 H 0.83328 0.29683 -0.12401
 H76 H 0.80106 0.33586 -0.12017
 H77 H 0.82881 0.33047 -0.16474
 H78 H 0.84351 0.34137 -0.15232
 N79 N 0.86338 0.81773 0.32912
 N80 N 0.86343 0.82928 0.31856
 C81 C 0.87577 0.82729 0.30876
 C82 C 0.88396 0.81376 0.31342
 C83 C 0.87571 0.80801 0.32643
 H84 H 0.87868 0.83524 0.29908
 H85 H 0.87846 0.79758 0.33347
 Cu86 Cu 0.84743 0.84584 0.31863
 Cu87 Cu 0.84768 0.81655 0.34590
 Cu88 Cu 0.82118 0.84801 0.34839
 N89 N 0.83066 0.86160 0.31860
 N90 N 0.82048 0.86259 0.33029
 C91 C 0.81078 0.87502 0.32759
 C92 C 0.81507 0.88225 0.31333
 C93 C 0.82772 0.87323 0.30799
 H94 H 0.80142 0.87854 0.33554
 H95 H 0.83459 0.87516 0.29738
 N96 N 0.82111 0.82976 0.36328
 N97 N 0.83103 0.81770 0.36210
 C98 C 0.82815 0.80723 0.37386
 C99 C 0.81578 0.81287 0.38296
 C100 C 0.81160 0.82721 0.37585
 H101 H 0.83480 0.79641 0.37580
 H102 H 0.80232 0.83522 0.37951
 H103 H 0.82993 0.82971 0.33478
 H104 H 0.84456 0.84077 0.34713
 N105 N 0.63889 0.68319 0.33010
 N106 N 0.63773 0.67169 0.31954
 C107 C 0.62462 0.67395 0.31085
 C108 C 0.61715 0.68766 0.31619
 C109 C 0.62662 0.69319 0.32845
 H110 H 0.62086 0.66623 0.30130
 H111 H 0.62477 0.70366 0.33572
 Cu112 Cu 0.65354 0.65494 0.31852
 Cu113 Cu 0.65639 0.68453 0.34507
 Cu114 Cu 0.68199 0.65219 0.34589
 N115 N 0.66918 0.63804 0.31752
 N116 N 0.68015 0.63695 0.32847
 C117 C 0.68921 0.62414 0.32543
 C118 C 0.68363 0.61672 0.31182
 C119 C 0.67088 0.62593 0.30714
 H120 H 0.69917 0.62060 0.33258
 H121 H 0.66330 0.62388 0.29704
 N122 N 0.68193 0.66904 0.36224
 N123 N 0.67233 0.68142 0.36186
 C124 C 0.67523 0.69077 0.37456
 C125 C 0.68732 0.68401 0.38333
 C126 C 0.69125 0.67024 0.37513
 H127 H 0.66906 0.70174 0.37715
 H128 H 0.70018 0.66165 0.37834
 H129 H 0.67292 0.67070 0.33308
 H130 H 0.65878 0.66013 0.34637
 N131 N 0.63806 0.18342 -0.17046
 N132 N 0.63703 0.17195 -0.18106
 C133 C 0.62396 0.17416 -0.18983
 C134 C 0.61638 0.18781 -0.18450
 C135 C 0.62575 0.19336 -0.17216
 H136 H 0.62030 0.16644 -0.19942
 H137 H 0.62379 0.20379 -0.16487
 Cu138 Cu 0.65288 0.15524 -0.18203
 Cu139 Cu 0.65547 0.18474 -0.15537
 Cu140 Cu 0.68096 0.15228 -0.15433
 N141 N 0.66851 0.13833 -0.18295
 N142 N 0.67924 0.13707 -0.17179
 C143 C 0.68827 0.12423 -0.17474
 C144 C 0.68296 0.11692 -0.18857
 C145 C 0.67035 0.12632 -0.19343
 H146 H 0.69803 0.12063 -0.16734
 H147 H 0.66294 0.12452 -0.20369
 N148 N 0.68081 0.16915 -0.13799
 N149 N 0.67128 0.18159 -0.13845
 C150 C 0.67420 0.19097 -0.12578
 C151 C 0.68623 0.18417 -0.11695
 C152 C 0.69009 0.17034 -0.12508
 H153 H 0.66811 0.20201 -0.12326
 H154 H 0.69898 0.16172 -0.12183
 H155 H 0.67214 0.17089 -0.16718
 H156 H 0.65780 0.16034 -0.15409
 N157 N 0.13631 0.68253 -0.17015
 N158 N 0.13644 0.67176 -0.18148
 C159 C 0.12400 0.67422 -0.19111
 C160 C 0.11566 0.68729 -0.18551
 C161 C 0.12387 0.69222 -0.17218
 H162 H 0.12127 0.66708 -0.20145
 H163 H 0.12094 0.70201 -0.16436
 Cu164 Cu 0.15275 0.65549 -0.18240
 Cu165 Cu 0.15210 0.68311 -0.15352
 Cu166 Cu 0.18082 0.65376 -0.15391
 N167 N 0.16859 0.63876 -0.18207
 N168 N 0.17951 0.63804 -0.17103
 C169 C 0.18865 0.62517 -0.17373
 C170 C 0.18316 0.61737 -0.18720
 C171 C 0.17040 0.62640 -0.19211
 H172 H 0.19855 0.62178 -0.16641
 H173 H 0.16284 0.62409 -0.20217
 N174 N 0.17995 0.67083 -0.13763
 N175 N 0.16894 0.68192 -0.13762
 C176 C 0.17126 0.69176 -0.12522
 C177 C 0.18439 0.68673 -0.11689
 C178 C 0.18961 0.67337 -0.12514
 H179 H 0.16380 0.70180 -0.12242
 H180 H 0.19971 0.66607 -0.12230
 H181 H 0.17011 0.67196 -0.16612
 H182 H 0.15718 0.65872 -0.15394
 N183 N 0.13730 0.18229 0.33048
 N184 N 0.13740 0.17176 0.31891
 C185 C 0.12492 0.17440 0.30939
 C186 C 0.11652 0.18726 0.31536
 C187 C 0.12480 0.19196 0.32875
 H188 H 0.12196 0.16728 0.29910
 H189 H 0.12199 0.20171 0.33667
 Cu190 Cu 0.15351 0.15529 0.31830
 Cu191 Cu 0.15310 0.18251 0.34726
 Cu192 Cu 0.18360 0.15503 0.34394
 N193 N 0.16917 0.13838 0.31780
 N194 N 0.18090 0.13824 0.32797
 C195 C 0.18999 0.12538 0.32511
 C196 C 0.18357 0.11692 0.31249
 C197 C 0.17034 0.12558 0.30820
 H198 H 0.20047 0.12245 0.33178
 H199 H 0.16221 0.12288 0.29871
 N200 N 0.18202 0.17057 0.36163
 N201 N 0.17027 0.18080 0.36289
 C202 C 0.17213 0.18943 0.37623
 C203 C 0.18570 0.18446 0.38382
 C204 C 0.19171 0.17249 0.37419
 H205 H 0.16427 0.19881 0.38005
 H206 H 0.20222 0.16553 0.37631
 H207 H 0.17060 0.17314 0.33343
 H208 H 0.15985 0.15860 0.34620
 N209 N 0.63645 0.31752 0.66889
 N210 N 0.63613 0.32823 0.68029
 C211 C 0.62369 0.32533 0.68977
 C212 C 0.61579 0.31206 0.68400
 C213 C 0.62429 0.30744 0.67072
 H214 H 0.62066 0.33232 0.70012
 H215 H 0.62178 0.29756 0.66286
 Cu216 Cu 0.65184 0.34509 0.68118
 Cu217 Cu 0.65260 0.31728 0.65248
 Cu218 Cu 0.68307 0.34446 0.65688
 N219 N 0.66783 0.36166 0.68211
 N220 N 0.67997 0.36138 0.67246
 C221 C 0.68926 0.37400 0.67554
 C222 C 0.68259 0.38277 0.68778
 C223 C 0.66897 0.37453 0.69164
 H224 H 0.70013 0.37646 0.66936
 H225 H 0.66049 0.37766 0.70067
 N226 N 0.68189 0.32911 0.63915
 N227 N 0.67018 0.31896 0.63735
 C228 C 0.67257 0.31039 0.62404
 C229 C 0.68646 0.31539 0.61703
 C230 C 0.69201 0.32732 0.62699
 H231 H 0.66478 0.30115 0.61981
 H232 H 0.70256 0.33432 0.62545
 H233 H 0.66927 0.32668 0.66720
 H234 H 0.65932 0.34119 0.65363
 N235 N 0.63707 0.81785 1.16966
 N236 N 0.63677 0.82898 1.18067
 C237 C 0.62439 0.82635 1.19032
 C238 C 0.61651 0.81283 1.18506
 C239 C 0.62496 0.80780 1.17192
 H240 H 0.62138 0.83367 1.20045
 H241 H 0.62242 0.79768 1.16438
 Cu242 Cu 0.65260 0.84583 1.18116
 Cu243 Cu 0.65290 0.81712 1.15301
 Cu244 Cu 0.68169 0.84620 1.15409
 N245 N 0.66925 0.86186 1.18178
 N246 N 0.68056 0.86175 1.17116
 C247 C 0.69045 0.87390 1.17403
 C248 C 0.68514 0.88221 1.18719
 C249 C 0.67160 0.87421 1.19182
 H250 H 0.70062 0.87661 1.16684
 H251 H 0.66405 0.87713 1.20173
 N252 N 0.68091 0.82951 1.13770
 N253 N 0.66993 0.81842 1.13722
 C254 C 0.67256 0.80890 1.12457
 C255 C 0.68586 0.81426 1.11671
 C256 C 0.69080 0.82736 1.12541
 H257 H 0.66535 0.79878 1.12138
 H258 H 0.70078 0.83492 1.12290
 H259 H 0.67006 0.82825 1.16628
 H260 H 0.65787 0.84121 1.15301
 N261 N 0.13867 0.31580 1.17092
 N262 N 0.13669 0.32775 1.18084
 C263 C 0.12325 0.32552 1.18898
 C264 C 0.11641 0.31135 1.18395
 C265 C 0.12662 0.30551 1.17247
 H266 H 0.11889 0.33359 1.19798
 H267 H 0.12550 0.29460 1.16571
 Cu268 Cu 0.15214 0.34479 1.18242
 Cu269 Cu 0.15700 0.31435 1.15709
 Cu270 Cu 0.17667 0.35029 1.15185
 N271 N 0.16814 0.36138 1.18294
 N272 N 0.17764 0.36355 1.17083
 C273 C 0.18685 0.37627 1.17369
 C274 C 0.18299 0.38246 1.18848
 C275 C 0.17105 0.37262 1.19400
 H276 H 0.19556 0.38071 1.16545
 H277 H 0.16468 0.37373 1.20505
 N278 N 0.17887 0.33206 1.13725
 N279 N 0.17177 0.31825 1.13947
 C280 C 0.17589 0.30820 1.12770
 C281 C 0.18616 0.31604 1.11755
 C282 C 0.18777 0.33116 1.12406
 H283 H 0.17158 0.29611 1.12661
 H284 H 0.19494 0.34084 1.11965
 H285 H 0.17233 0.33164 1.16646
 H286 H 0.15515 0.33824 1.15430
 N287 N 0.13707 0.81758 0.66951
 N288 N 0.13647 0.82871 0.68048
 C289 C 0.12388 0.82605 0.68985
 C290 C 0.11619 0.81249 0.68443
 C291 C 0.12496 0.80747 0.67149
 H292 H 0.12060 0.83339 0.69987
 H293 H 0.12262 0.79735 0.66390
 Cu294 Cu 0.15217 0.84560 0.68114
 Cu295 Cu 0.15325 0.81711 0.65324
 Cu296 Cu 0.18159 0.84685 0.65429
 N297 N 0.16828 0.86205 0.68186
 N298 N 0.17972 0.86251 0.67138
 C299 C 0.18904 0.87510 0.67455
 C300 C 0.18313 0.88302 0.68775
 C301 C 0.16994 0.87432 0.69204
 H302 H 0.19933 0.87823 0.66770
 H303 H 0.16205 0.87677 0.70179
 N304 N 0.18128 0.82984 0.63801
 N305 N 0.17047 0.81855 0.63776
 C306 C 0.17318 0.80882 0.62537
 C307 C 0.18636 0.81412 0.61734
 C308 C 0.19119 0.82754 0.62569
 H309 H 0.16591 0.79872 0.62230
 H310 H 0.20118 0.83503 0.62303
 H311 H 0.17046 0.82880 0.66639
 H312 H 0.15806 0.84146 0.65307
 N313 N 0.36315 0.68129 0.67101
 N314 N 0.36287 0.67036 0.68222
 C315 C 0.37537 0.67233 0.69180
 C316 C 0.38403 0.68521 0.68643
 C317 C 0.37586 0.69068 0.67320
 H318 H 0.37794 0.66494 0.70201
 H319 H 0.37905 0.70056 0.66558
 Cu320 Cu 0.34659 0.65418 0.68339
 Cu321 Cu 0.34719 0.68200 0.65428
 Cu322 Cu 0.31862 0.65246 0.65522
 N323 N 0.33080 0.63746 0.68322
 N324 N 0.31987 0.63681 0.67221
 C325 C 0.31067 0.62401 0.67487
 C326 C 0.31618 0.61614 0.68826
 C327 C 0.32897 0.62506 0.69322
 H328 H 0.30085 0.62060 0.66747
 H329 H 0.33638 0.62274 0.70340
 N330 N 0.31920 0.66927 0.63893
 N331 N 0.33000 0.68055 0.63846
 C332 C 0.32713 0.69006 0.62582
 C333 C 0.31386 0.68447 0.61799
 C334 C 0.30922 0.67127 0.62670
 H335 H 0.33415 0.70031 0.62261
 H336 H 0.29936 0.66355 0.62423
 H337 H 0.32960 0.67110 0.66711
 H338 H 0.34250 0.65783 0.65492
 N339 N 0.36310 0.18074 1.17098
 N340 N 0.36275 0.16948 1.18184
 C341 C 0.37511 0.17127 1.19165
 C342 C 0.38371 0.18442 1.18675
 C343 C 0.37570 0.19013 1.17355
 H344 H 0.37771 0.16347 1.20152
 H345 H 0.37874 0.20036 1.16634
 Cu346 Cu 0.34636 0.15341 1.18219
 Cu347 Cu 0.34731 0.18212 1.15428
 Cu348 Cu 0.31820 0.15305 1.15404
 N349 N 0.33026 0.13705 1.18162
 N350 N 0.31921 0.13692 1.17072
 C351 C 0.30978 0.12423 1.17318
 C352 C 0.31530 0.11592 1.18632
 C353 C 0.32830 0.12446 1.19134
 H354 H 0.29979 0.12120 1.16584
 H355 H 0.33575 0.12178 1.20139
 N356 N 0.31927 0.17041 1.13822
 N357 N 0.33032 0.18145 1.13838
 C358 C 0.32803 0.19145 1.12607
 C359 C 0.31490 0.18650 1.11768
 C360 C 0.30966 0.17310 1.12576
 H361 H 0.33554 0.20146 1.12329
 H362 H 0.29958 0.16584 1.12280
 H363 H 0.32936 0.17092 1.16660
 H364 H 0.34203 0.15794 1.15388
 N365 N 0.86333 0.68281 1.16896
 N366 N 0.86332 0.67222 1.18049
 C367 C 0.87575 0.67494 1.19005
 C368 C 0.88400 0.68798 1.18419
 C369 C 0.87568 0.69263 1.17079
 H370 H 0.87863 0.66788 1.20041
 H371 H 0.87836 0.70240 1.16286
 Cu372 Cu 0.84724 0.65571 1.18108
 Cu373 Cu 0.84742 0.68322 1.15232
 Cu374 Cu 0.81681 0.65600 1.15575
 N375 N 0.83135 0.63903 1.18164
 N376 N 0.81952 0.63912 1.17158
 C377 C 0.81031 0.62637 1.17443
 C378 C 0.81673 0.61773 1.18693
 C379 C 0.83010 0.62618 1.19117
 H380 H 0.79974 0.62366 1.16783
 H381 H 0.83831 0.62326 1.20053
 N382 N 0.81835 0.67157 1.13812
 N383 N 0.83011 0.68177 1.13685
 C384 C 0.82797 0.69078 1.12381
 C385 C 0.81421 0.68611 1.11641
 C386 C 0.80844 0.67382 1.12580
 H387 H 0.83592 0.70006 1.11995
 H388 H 0.79772 0.66715 1.12391
 H389 H 0.83009 0.67386 1.16636
 H390 H 0.84055 0.65933 1.15329
 N391 N 0.86326 0.18191 0.66891
 N392 N 0.86217 0.17245 0.68130
 C393 C 0.87449 0.17520 0.69103
 C394 C 0.88377 0.18709 0.68433
 C395 C 0.87619 0.19098 0.67028
 H396 H 0.87644 0.16909 0.70218
 H397 H 0.87965 0.19990 0.66169
 Cu398 Cu 0.84464 0.15763 0.68341
 Cu399 Cu 0.84755 0.18259 0.65226
 Cu400 Cu 0.81593 0.15685 0.65568
 N401 N 0.82985 0.13996 0.68186
 N402 N 0.81867 0.13968 0.67107
 C403 C 0.80985 0.12650 0.67317
 C404 C 0.81582 0.11798 0.68597
 C405 C 0.82857 0.12693 0.69114
 H406 H 0.79965 0.12357 0.66607
 H407 H 0.83630 0.12428 0.70099
 N408 N 0.81823 0.17214 0.63795
 N409 N 0.83047 0.18170 0.63662
 C410 C 0.82888 0.19062 0.62345
 C411 C 0.81498 0.18654 0.61596
 C412 C 0.80851 0.17474 0.62554
 H413 H 0.83715 0.19966 0.61976
 H414 H 0.79757 0.16846 0.62363
 H415 H 0.82899 0.17508 0.66597
 H416 H 0.83976 0.15911 0.65498
 N417 N 0.32028 0.36252 0.67123
 N418 N 0.33005 0.36076 0.68319
 C419 C 0.32822 0.37299 0.69338
 C420 C 0.31658 0.38303 0.68756
 C421 C 0.31182 0.37594 0.67344
 H422 H 0.33479 0.37433 0.70429
 H423 H 0.30280 0.38012 0.66539
 Cu424 Cu 0.34410 0.34258 0.68449
 Cu425 Cu 0.31894 0.34691 0.65407
 Cu426 Cu 0.34466 0.31464 0.65599
 N427 N 0.36172 0.32806 0.68212
 N428 N 0.36196 0.31701 0.67105
 C429 C 0.37507 0.30813 0.67275
 C430 C 0.38355 0.31397 0.68561
 C431 C 0.37468 0.32669 0.69117
 H432 H 0.37796 0.29796 0.66540
 H433 H 0.37727 0.33432 0.70118
 N434 N 0.32908 0.31740 0.63880
 N435 N 0.31943 0.32973 0.63802
 C436 C 0.31020 0.32814 0.62513
 C437 C 0.31422 0.31416 0.61732
 C438 C 0.32629 0.30769 0.62633
 H439 H 0.30120 0.33656 0.62168
 H440 H 0.33246 0.29663 0.62413
 H441 H 0.32661 0.32756 0.66670
 H442 H 0.34207 0.33898 0.65591
 N443 N 0.31915 0.86103 0.17093
 N444 N 0.33035 0.86106 0.18168
 C445 C 0.32890 0.87414 0.19084
 C446 C 0.31598 0.88281 0.18569
 C447 C 0.31006 0.87407 0.17299
 H448 H 0.33647 0.87688 0.20079
 H449 H 0.29986 0.87685 0.16584
 Cu450 Cu 0.34512 0.84347 0.18343
 Cu451 Cu 0.31702 0.84362 0.15559
 Cu452 Cu 0.34839 0.81691 0.15386
 N453 N 0.36246 0.82843 0.18267
 N454 N 0.36368 0.81797 0.17111
 C455 C 0.37661 0.80900 0.17350
 C456 C 0.38396 0.81415 0.18730
 C457 C 0.37459 0.82655 0.19275
 H458 H 0.38030 0.79939 0.16577
 H459 H 0.37648 0.83378 0.20321
 N460 N 0.33164 0.81778 0.13766
 N461 N 0.31965 0.82778 0.13833
 C462 C 0.31031 0.82529 0.12562
 C463 C 0.31672 0.81312 0.11650
 C464 C 0.33023 0.80868 0.12455
 H465 H 0.29970 0.83194 0.12313
 H466 H 0.33834 0.79934 0.12124
 H467 H 0.32965 0.82541 0.16655
 H468 H 0.34092 0.84056 0.15505
 N469 N 0.81946 0.36123 0.17144
 N470 N 0.83134 0.36136 0.18143
 C471 C 0.83007 0.37422 0.19095
 C472 C 0.81665 0.38262 0.18675
 C473 C 0.81020 0.37395 0.17430
 H474 H 0.83827 0.37715 0.20032
 H475 H 0.79961 0.37666 0.16773
 Cu476 Cu 0.84743 0.34482 0.18101
 Cu477 Cu 0.81670 0.34438 0.15568
 Cu478 Cu 0.84716 0.31715 0.15221
 N479 N 0.86329 0.32805 0.18016
 N480 N 0.86317 0.31746 0.16865
 C481 C 0.87542 0.30749 0.17044
 C482 C 0.88380 0.31201 0.18382
 C483 C 0.87572 0.32516 0.18969
 H484 H 0.87803 0.29773 0.16248
 H485 H 0.87865 0.33210 0.20010
 N486 N 0.82985 0.31860 0.13684
 N487 N 0.81808 0.32879 0.13812
 C488 C 0.80807 0.32644 0.12588
 C489 C 0.81381 0.31409 0.11656
 C490 C 0.82764 0.30951 0.12389
 H491 H 0.79732 0.33308 0.12402
 H492 H 0.83559 0.30022 0.12005
 H493 H 0.83003 0.32670 0.16658
 H494 H 0.84041 0.34113 0.15327
 N495 N 0.81889 0.86237 0.67174
 N496 N 0.83047 0.86213 0.68205
 C497 C 0.82967 0.87528 0.69119
 C498 C 0.81678 0.88425 0.68644
 C499 C 0.81023 0.87562 0.67402
 H500 H 0.83765 0.87783 0.70086
 H501 H 0.79979 0.87851 0.66728
 Cu502 Cu 0.84465 0.84405 0.68345
 Cu503 Cu 0.81545 0.84494 0.65690
 Cu504 Cu 0.84659 0.81829 0.65278
 N505 N 0.86168 0.82885 0.68144
 N506 N 0.86257 0.81881 0.66948
 C507 C 0.87548 0.80964 0.67131
 C508 C 0.88309 0.81422 0.68520
 C509 C 0.87395 0.82650 0.69122
 H510 H 0.87892 0.80023 0.66324
 H511 H 0.87602 0.83333 0.70190
 N512 N 0.82904 0.81972 0.63741
 N513 N 0.81715 0.82969 0.63922
 C514 C 0.80705 0.82782 0.62707
 C515 C 0.81274 0.81603 0.61705
 C516 C 0.82674 0.81117 0.62404
 H517 H 0.79639 0.83468 0.62561
 H518 H 0.83463 0.80202 0.61978
 H519 H 0.82872 0.82630 0.66667
 H520 H 0.83941 0.84191 0.65516
 N521 N 0.68136 0.63828 0.66973
 N522 N 0.67065 0.63785 0.68097
 C523 C 0.67345 0.62521 0.69048
 C524 C 0.68665 0.61727 0.68490
 C525 C 0.69134 0.62597 0.67170
 H526 H 0.66641 0.62203 0.70068
 H527 H 0.70114 0.62346 0.66394
 Cu528 Cu 0.65400 0.65376 0.68171
 Cu529 Cu 0.68146 0.65453 0.65314
 Cu530 Cu 0.65166 0.68289 0.65446
 N531 N 0.63728 0.66959 0.68244
 N532 N 0.63643 0.68098 0.67172
 C533 C 0.62377 0.69014 0.67472
 C534 C 0.61619 0.68420 0.68808
 C535 C 0.62516 0.67113 0.69264
 H536 H 0.62037 0.70036 0.66766
 H537 H 0.62296 0.66321 0.70253
 N538 N 0.66819 0.68274 0.63797
 N539 N 0.67948 0.67194 0.63747
 C540 C 0.68873 0.67489 0.62482
 C541 C 0.68303 0.68821 0.61692
 C542 C 0.66999 0.69286 0.62564
 H543 H 0.69892 0.66788 0.62165
 H544 H 0.66225 0.70277 0.62312
 H545 H 0.67016 0.67198 0.66613
 H546 H 0.65758 0.65895 0.65343
 N547 N 0.67905 0.13644 0.17162
 N548 N 0.66891 0.13816 0.18326
 C549 C 0.67069 0.12603 0.19362
 C550 C 0.68265 0.11616 0.18822
 C551 C 0.68766 0.12320 0.17419
 H552 H 0.66377 0.12456 0.20429
 H553 H 0.69705 0.11920 0.16651
 Cu554 Cu 0.65440 0.15610 0.18393
 Cu555 Cu 0.68082 0.15180 0.15436
 Cu556 Cu 0.65587 0.18452 0.15572
 N557 N 0.63759 0.17165 0.18135
 N558 N 0.63826 0.18277 0.17035
 C559 C 0.62562 0.19233 0.17166
 C560 C 0.61642 0.18693 0.18417
 C561 C 0.62443 0.17372 0.19001
 H562 H 0.62344 0.20253 0.16410
 H563 H 0.62115 0.16635 0.20001
 N564 N 0.67149 0.18132 0.13876
 N565 N 0.68085 0.16877 0.13813
 C566 C 0.69010 0.17001 0.12521
 C567 C 0.68637 0.18399 0.11724
 C568 C 0.67447 0.19083 0.12619
 H569 H 0.69890 0.16134 0.12184
 H570 H 0.66851 0.20198 0.12384
 H571 H 0.67309 0.17091 0.16719
 H572 H 0.65779 0.16007 0.15550
 N573 N 0.18238 0.63942 0.17065
 N574 N 0.17111 0.63875 0.18129
 C575 C 0.17311 0.62555 0.19025
 C576 C 0.18641 0.61753 0.18496
 C577 C 0.19193 0.62676 0.17247
 H578 H 0.16555 0.62217 0.20001
 H579 H 0.20217 0.62456 0.16520
 Cu580 Cu 0.15517 0.65546 0.18277
 Cu581 Cu 0.18433 0.65687 0.15556
 Cu582 Cu 0.15221 0.68198 0.15265
 N583 N 0.13786 0.67071 0.18146
 N584 N 0.13675 0.68082 0.16957
 C585 C 0.12395 0.69000 0.17157
 C586 C 0.11650 0.68545 0.18547
 C587 C 0.12565 0.67309 0.19143
 H588 H 0.12037 0.69933 0.16346
 H589 H 0.12371 0.66649 0.20230
 N590 N 0.16915 0.68153 0.13677
 N591 N 0.18158 0.67223 0.13805
 C592 C 0.19123 0.67501 0.12565
 C593 C 0.18456 0.68670 0.11610
 C594 C 0.17056 0.69052 0.12358
 H595 H 0.20226 0.66890 0.12373
 H596 H 0.16210 0.69940 0.11987
 H597 H 0.17044 0.67425 0.16648
 H598 H 0.16031 0.65854 0.15448
 N599 N 0.17902 0.13708 0.67108
 N600 N 0.16804 0.13767 0.68206
 C601 C 0.17008 0.12547 0.69227
 C602 C 0.18305 0.11667 0.68749
 C603 C 0.18841 0.12443 0.67394
 H604 H 0.16259 0.12312 0.70237
 H605 H 0.19850 0.12128 0.66679
 Cu606 Cu 0.15195 0.15415 0.68180
 Cu607 Cu 0.18050 0.15298 0.65410
 Cu608 Cu 0.15509 0.18533 0.65713
 N609 N 0.13626 0.17106 0.68164
 N610 N 0.13761 0.18322 0.67188
 C611 C 0.12550 0.19328 0.67413
 C612 C 0.11591 0.18712 0.68597
 C613 C 0.12317 0.17296 0.69046
 H614 H 0.12387 0.20424 0.66754
 H615 H 0.11927 0.16468 0.69949
 N616 N 0.17055 0.18301 0.63990
 N617 N 0.18005 0.17063 0.63846
 C618 C 0.18880 0.17253 0.62522
 C619 C 0.18455 0.18679 0.61794
 C620 C 0.17292 0.19303 0.62764
 H621 H 0.19763 0.16417 0.62123
 H622 H 0.16644 0.20398 0.62587
 H623 H 0.17163 0.17038 0.66826
 H624 H 0.15733 0.16088 0.65429
 N625 N 0.32065 0.63733 0.32847
 N626 N 0.33208 0.63795 0.31799
 C627 C 0.33043 0.62575 0.30768
 C628 C 0.31727 0.61697 0.31195
 C629 C 0.31137 0.62475 0.32521
 H630 H 0.33833 0.62335 0.29791
 H631 H 0.30108 0.62156 0.33203
 Cu632 Cu 0.34811 0.65453 0.31907
 Cu633 Cu 0.31868 0.65269 0.34573
 Cu634 Cu 0.34667 0.68268 0.34750
 N635 N 0.36361 0.67163 0.32007
 N636 N 0.36287 0.68260 0.33120
 C637 C 0.37491 0.69284 0.32940
 C638 C 0.38377 0.68807 0.31642
 C639 C 0.37620 0.67453 0.31079
 H640 H 0.37714 0.70287 0.33714
 H641 H 0.37958 0.66734 0.30069
 N642 N 0.32940 0.68076 0.36294
 N643 N 0.31874 0.66935 0.36228
 C644 C 0.30871 0.67113 0.37454
 C645 C 0.31328 0.68429 0.38339
 C646 C 0.32645 0.69008 0.37563
 H647 H 0.29893 0.66327 0.37697
 H648 H 0.33337 0.70036 0.37896
 H649 H 0.32979 0.67114 0.33400
 H650 H 0.34223 0.65838 0.34719
 N651 N 0.31983 0.13761 0.82956
 N652 N 0.33123 0.13801 0.81903
 C653 C 0.32950 0.12569 0.80891
 C654 C 0.31630 0.11704 0.81330
 C655 C 0.31047 0.12503 0.82649
 H656 H 0.33734 0.12319 0.79913
 H657 H 0.30021 0.12195 0.83341
 Cu658 Cu 0.34739 0.15443 0.81962
 Cu659 Cu 0.31806 0.15333 0.84660
 Cu660 Cu 0.34646 0.18299 0.84745
 N661 N 0.36310 0.17133 0.82014
 N662 N 0.36258 0.18246 0.83111
 C663 C 0.37467 0.19257 0.82904
 C664 C 0.38335 0.18757 0.81604
 C665 C 0.37562 0.17400 0.81068
 H666 H 0.37703 0.20271 0.83661
 H667 H 0.37882 0.16666 0.80063
 N668 N 0.32931 0.18163 0.86301
 N669 N 0.31846 0.17039 0.86282
 C670 C 0.30857 0.17278 0.87514
 C671 C 0.31345 0.18621 0.88343
 C672 C 0.32664 0.19143 0.87536
 H673 H 0.29854 0.16535 0.87784
 H674 H 0.33395 0.20152 0.87838
 H675 H 0.32917 0.17129 0.83438
 H676 H 0.34158 0.15864 0.84769
 N677 N 0.82017 0.63714 0.82859
 N678 N 0.83155 0.63757 0.81804
 C679 C 0.82979 0.62528 0.80788
 C680 C 0.81660 0.61663 0.81229
 C681 C 0.81080 0.62457 0.82552
 H682 H 0.83763 0.62272 0.79811
 H683 H 0.80050 0.62151 0.83238
 Cu684 Cu 0.84771 0.65399 0.81870
 Cu685 Cu 0.81838 0.65281 0.84566
 Cu686 Cu 0.84670 0.68253 0.84661
 N687 N 0.86337 0.67093 0.81929
 N688 N 0.86282 0.68206 0.83026
 C689 C 0.87487 0.69222 0.82817
 C690 C 0.88356 0.68723 0.81517
 C691 C 0.87587 0.67364 0.80982
 H692 H 0.87720 0.70238 0.83572
 H693 H 0.87909 0.66630 0.79977
 N694 N 0.82954 0.68108 0.86216
 N695 N 0.81873 0.66980 0.86193
 C696 C 0.80883 0.67209 0.87424
 C697 C 0.81364 0.68550 0.88259
 C698 C 0.82682 0.69082 0.87455
 H699 H 0.79882 0.66460 0.87689
 H700 H 0.83406 0.70094 0.87762
 H701 H 0.82949 0.67085 0.83348
 H702 H 0.84192 0.65820 0.84679
 N703 N 0.81990 0.13735 0.32953
 N704 N 0.83097 0.13781 0.31865
 C705 C 0.82909 0.12534 0.30872
 C706 C 0.81612 0.11658 0.31362
 C707 C 0.81062 0.12462 0.32689
 H708 H 0.83668 0.12278 0.29875
 H709 H 0.80056 0.12152 0.33410
 Cu710 Cu 0.84682 0.15461 0.31850
 Cu711 Cu 0.81834 0.15312 0.34645
 Cu712 Cu 0.84677 0.18266 0.34703
 N713 N 0.86303 0.17107 0.31943
 N714 N 0.86278 0.18204 0.33059
 C715 C 0.87505 0.19195 0.32860
 C716 C 0.88357 0.18698 0.31548
 C717 C 0.87557 0.17364 0.30997
 H718 H 0.87765 0.20193 0.33630
 H719 H 0.87859 0.16641 0.29977
 N720 N 0.82970 0.18141 0.36271
 N721 N 0.81884 0.17018 0.36259
 C722 C 0.80898 0.17260 0.37490
 C723 C 0.81386 0.18604 0.38314
 C724 C 0.82704 0.19125 0.37504
 H725 H 0.79893 0.16519 0.37761
 H726 H 0.83432 0.20138 0.37801
 H727 H 0.82915 0.17127 0.33422
 H728 H 0.84198 0.15829 0.34682
 N729 N 0.68057 0.36255 0.32833
 N730 N 0.66989 0.36203 0.31705
 C731 C 0.67198 0.37442 0.30712
 C732 C 0.68474 0.38323 0.31233
 C733 C 0.68990 0.37532 0.32588
 H734 H 0.66460 0.37693 0.29698
 H735 H 0.69970 0.37856 0.33341
 Cu736 Cu 0.65412 0.34539 0.31674
 Cu737 Cu 0.68121 0.34669 0.34549
 Cu738 Cu 0.65175 0.31771 0.34507
 N739 N 0.63725 0.32989 0.31668
 N740 N 0.63636 0.31898 0.32786
 C741 C 0.62357 0.30987 0.32529
 C742 C 0.61601 0.31541 0.31175
 C743 C 0.62505 0.32817 0.30665
 H744 H 0.62009 0.29996 0.33274
 H745 H 0.62283 0.33578 0.29653
 N746 N 0.66841 0.31857 0.36139
 N747 N 0.67957 0.32953 0.36163
 C748 C 0.68897 0.32681 0.37426
 C749 C 0.68349 0.31349 0.38233
 C750 C 0.67044 0.30863 0.37379
 H751 H 0.69914 0.33392 0.37727
 H752 H 0.66285 0.29865 0.37647
 H753 H 0.67043 0.32835 0.33343
 H754 H 0.65746 0.34178 0.34522
 N755 N 0.68017 0.86325 0.82953
 N756 N 0.67056 0.86221 0.81736
 C757 C 0.67324 0.87457 0.80744
 C758 C 0.68529 0.88378 0.81374
 C759 C 0.68933 0.87619 0.82778
 H760 H 0.66709 0.87654 0.79636
 H761 H 0.69832 0.87975 0.83613
 Cu762 Cu 0.65576 0.84457 0.81561
 Cu763 Cu 0.68077 0.84741 0.84638
 Cu764 Cu 0.65462 0.81580 0.84360
 N765 N 0.63798 0.83007 0.81749
 N766 N 0.63762 0.81874 0.82830
 C767 C 0.62449 0.80998 0.82630
 C768 C 0.61608 0.81622 0.81358
 C769 C 0.62504 0.82900 0.80834
 H770 H 0.62140 0.79978 0.83353
 H771 H 0.62259 0.83671 0.79832
 N772 N 0.66997 0.81795 0.86111
 N773 N 0.67972 0.83015 0.86219
 C774 C 0.68881 0.82828 0.87513
 C775 C 0.68464 0.81423 0.88268
 C776 C 0.67257 0.80802 0.87348
 H777 H 0.69785 0.83655 0.87877
 H778 H 0.66632 0.79696 0.87547
 H779 H 0.67282 0.82855 0.83309
 H780 H 0.65748 0.83999 0.84410
 N781 N 0.17880 0.36226 0.82891
 N782 N 0.16780 0.36112 0.81801
 C783 C 0.16939 0.37325 0.80761
 C784 C 0.18210 0.38252 0.81226
 C785 C 0.18777 0.37511 0.82584
 H786 H 0.16176 0.37527 0.79755
 H787 H 0.19772 0.37870 0.83297
 Cu788 Cu 0.15228 0.34413 0.81910
 Cu789 Cu 0.18082 0.34705 0.84636
 Cu790 Cu 0.15547 0.31454 0.84563
 N791 N 0.13661 0.32728 0.82023
 N792 N 0.13791 0.31578 0.83078
 C793 C 0.12569 0.30570 0.82920
 C794 C 0.11612 0.31119 0.81701
 C795 C 0.12347 0.32495 0.81161
 H796 H 0.12396 0.29522 0.83648
 H797 H 0.11961 0.33266 0.80208
 N798 N 0.17143 0.31773 0.86235
 N799 N 0.18092 0.33019 0.86271
 C800 C 0.19026 0.32906 0.87557
 C801 C 0.18648 0.31526 0.88379
 C802 C 0.17444 0.30840 0.87504
 H803 H 0.19911 0.33773 0.87877
 H804 H 0.16836 0.29738 0.87765
 H805 H 0.17186 0.32853 0.83357
 H806 H 0.15769 0.33898 0.84693
 N807 N 0.17905 0.86237 0.32872
 N808 N 0.16787 0.86123 0.31800
 C809 C 0.16936 0.87328 0.30751
 C810 C 0.18218 0.88251 0.31188
 C811 C 0.18803 0.87515 0.32541
 H812 H 0.16162 0.87520 0.29751
 H813 H 0.19807 0.87877 0.33241
 Cu814 Cu 0.15225 0.84436 0.31931
 Cu815 Cu 0.18126 0.84722 0.34615
 Cu816 Cu 0.15608 0.81460 0.34569
 N817 N 0.13683 0.82731 0.32059
 N818 N 0.13835 0.81574 0.33103
 C819 C 0.12626 0.80552 0.32944
 C820 C 0.11652 0.81100 0.31738
 C821 C 0.12366 0.82489 0.31205
 H822 H 0.12470 0.79493 0.33662
 H823 H 0.11966 0.83261 0.30259
 N824 N 0.17220 0.81787 0.36224
 N825 N 0.18158 0.83040 0.36253
 C826 C 0.19101 0.82938 0.37533
 C827 C 0.18742 0.81554 0.38360
 C828 C 0.17538 0.80857 0.37491
 H829 H 0.19984 0.83812 0.37838
 H830 H 0.16935 0.79755 0.37759
 H831 H 0.17215 0.82875 0.33333
 H832 H 0.15815 0.83905 0.34702
 O833 O 0.24480 1.01483 0.26873
 O834 O 0.26831 0.98359 0.24914
 O835 O 0.26831 1.01478 0.24918
 O836 O 0.24452 0.98362 0.26842
 O837 O 0.22811 0.98392 0.24810
 O838 O 0.25202 1.01489 0.22876
 O839 O 0.25194 0.98368 0.22880
 O840 O 0.22850 1.01514 0.24833
 Cu841 Cu 0.25812 0.99917 0.26091
 Cu842 Cu 0.23850 0.99942 0.23646
 C843 C 0.23275 1.02051 0.26180
 C844 C 0.26408 0.97816 0.23570
 C845 C 0.26413 1.02030 0.23575
 C846 C 0.23231 0.97833 0.26148
 O847 O 0.25278 0.51516 0.73051
 O848 O 0.22867 0.48417 0.74961
 O849 O 0.22899 0.51534 0.74985
 O850 O 0.25260 0.48393 0.73048
 O851 O 0.26886 0.48392 0.75091
 O852 O 0.24521 0.51513 0.77032
 O853 O 0.24495 0.48386 0.77003
 O854 O 0.26891 0.51504 0.75105
 Cu855 Cu 0.23914 0.49968 0.73805
 Cu856 Cu 0.25858 0.49945 0.76265
 C857 C 0.26486 0.52055 0.73758
 C858 C 0.23280 0.47857 0.76301
 C859 C 0.23317 0.52074 0.76332
 C860 C 0.26472 0.47847 0.73746
 O861 O 0.75236 -0.01649 0.27136
 O862 O 0.72914 0.01474 0.25145
 O863 O 0.72983 -0.01649 0.25060
 O864 O 0.75245 0.01486 0.27148
 O865 O 0.76974 0.01492 0.25194
 O866 O 0.74683 -0.01544 0.23084
 O867 O 0.74651 0.01568 0.23201
 O868 O 0.76938 -0.01612 0.25159
 Cu869 Cu 0.73923 -0.00088 0.26321
 Cu870 Cu 0.75982 -0.00019 0.23963
 C871 C 0.76471 -0.02183 0.26477
 C872 C 0.73392 0.02070 0.23844
 C873 C 0.73459 -0.02137 0.23713
 C874 C 0.76496 0.02028 0.26518
 O875 O 0.74680 0.48317 0.73063
 O876 O 0.77032 0.51466 0.74985
 O877 O 0.76956 0.48365 0.75112
 O878 O 0.74791 0.51426 0.72898
 O879 O 0.73065 0.51612 0.74846
 O880 O 0.75199 0.48458 0.77038
 O881 O 0.75304 0.51587 0.76937
 O882 O 0.72921 0.48494 0.74982
 Cu883 Cu 0.76038 0.49879 0.73820
 Cu884 Cu 0.73948 0.50051 0.76146
 C885 C 0.73402 0.47860 0.73699
 C886 C 0.76563 0.52074 0.76286
 C887 C 0.76443 0.47869 0.76439
 C888 C 0.73575 0.52064 0.73498
 O889 O 0.25249 0.48502 0.27043
 O890 O 0.23067 0.51624 0.24850
 O891 O 0.22961 0.48500 0.25003
 O892 O 0.25339 0.51633 0.26912
 O893 O 0.27048 0.51511 0.24943
 O894 O 0.24709 0.48324 0.23074
 O895 O 0.24774 0.51439 0.22885
 O896 O 0.26997 0.48409 0.25108
 Cu897 Cu 0.23981 0.50080 0.26148
 Cu898 Cu 0.26052 0.49907 0.23806
 C899 C 0.26494 0.47918 0.26443
 C900 C 0.23557 0.52071 0.23493
 C901 C 0.23442 0.47856 0.23725
 C902 C 0.26589 0.52123 0.26245
 O903 O 0.75264 1.01620 0.72901
 O904 O 0.73056 0.98465 0.75022
 O905 O 0.72942 1.01589 0.74912
 O906 O 0.75332 0.98492 0.72967
 O907 O 0.77015 0.98566 0.74961
 O908 O 0.74679 1.01736 0.76855
 O909 O 0.74742 0.98624 0.77010
 O910 O 0.76996 1.01667 0.74854
 Cu911 Cu 0.73976 1.00032 0.73752
 Cu912 Cu 0.76026 1.00159 0.76118
 C913 C 0.76511 1.02181 0.73521
 C914 C 0.73533 0.98001 0.76380
 C915 C 0.73413 1.02210 0.76204
 C916 C 0.76571 0.97983 0.73641
 O917 O 0.75451 0.51565 0.22943
 O918 O 0.73099 0.48452 0.24927
 O919 O 0.73072 0.51560 0.24871
 O920 O 0.75441 0.48437 0.22945
 O921 O 0.77084 0.48450 0.24975
 O922 O 0.74719 0.51587 0.26898
 O923 O 0.74752 0.48467 0.26950
 O924 O 0.77095 0.51571 0.24971
 Cu925 Cu 0.74103 0.50001 0.23716
 Cu926 Cu 0.76078 0.50021 0.26151
 C927 C 0.76666 0.52116 0.23630
 C928 C 0.73532 0.47918 0.26273
 C929 C 0.73497 0.52119 0.26207
 C930 C 0.76656 0.47892 0.23638
 O931 O 0.24606 -0.01590 0.73118
 O932 O 0.26970 0.01530 0.75055
 O933 O 0.26955 -0.01582 0.75092
 O934 O 0.24620 0.01538 0.73097
 O935 O 0.22961 0.01553 0.75112
 O936 O 0.25295 -0.01570 0.77106
 O937 O 0.25317 0.01561 0.77075
 O938 O 0.22950 -0.01561 0.75135
 Cu939 Cu 0.25952 -0.00030 0.73887
 Cu940 Cu 0.23967 -0.00002 0.76311
 C941 C 0.23382 -0.02122 0.73802
 C942 C 0.26540 0.02093 0.76387
 C943 C 0.26517 -0.02121 0.76433
 C944 C 0.23401 0.02093 0.73772
 O945 O 0.24930 0.27145 0.98548
 O946 O 0.27089 0.24905 1.01592
 O947 O 0.27029 0.24900 0.98513
 O948 O 0.24985 0.27130 1.01643
 O949 O 0.23097 0.25325 1.01667
 O950 O 0.25169 0.23064 0.98531
 O951 O 0.25215 0.23086 1.01652
 O952 O 0.23066 0.25314 0.98544
 Cu953 Cu 0.26193 0.26202 1.00069
 Cu954 Cu 0.23946 0.24014 1.00102
 C955 C 0.23642 0.26606 0.98006
 C956 C 0.26519 0.23626 1.02159
 C957 C 0.26452 0.23609 0.97978
 C958 C 0.23702 0.26603 1.02207
 O959 O 0.25032 0.77029 0.48539
 O960 O 0.27030 0.74696 0.51646
 O961 O 0.27046 0.74701 0.48524
 O962 O 0.24953 0.76965 0.51646
 O963 O 0.23023 0.75210 0.51545
 O964 O 0.25134 0.72923 0.48509
 O965 O 0.25100 0.72938 0.51607
 O966 O 0.23126 0.75247 0.48450
 Cu967 Cu 0.26210 0.76024 0.50094
 Cu968 Cu 0.23904 0.73903 0.50024
 C969 C 0.23750 0.76530 0.47947
 C970 C 0.26397 0.73431 0.52176
 C971 C 0.26436 0.73430 0.47973
 C972 C 0.23627 0.76463 0.52132
 O973 O 0.27140 0.74982 -0.01576
 O974 O 0.24790 0.72968 0.01514
 O975 O 0.24820 0.72966 -0.01602
 O976 O 0.27116 0.74966 0.01533
 O977 O 0.25457 0.76991 0.01500
 O978 O 0.23121 0.74957 -0.01581
 O979 O 0.23133 0.74995 0.01523
 O980 O 0.25440 0.76972 -0.01615
 Cu981 Cu 0.26134 0.73769 -0.00033
 Cu982 Cu 0.24121 0.76180 -0.00046
 C983 C 0.26680 0.76310 -0.02141
 C984 C 0.23573 0.73651 0.02067
 C985 C 0.23581 0.73625 -0.02134
 C986 C 0.26672 0.76312 0.02065
 O987 O 0.27064 0.24967 0.48548
 O988 O 0.24754 0.22919 0.51642
 O989 O 0.24807 0.22873 0.48521
 O990 O 0.26973 0.25044 0.51660
 O991 O 0.25219 0.26982 0.51536
 O992 O 0.23044 0.24805 0.48457
 O993 O 0.22996 0.24855 0.51557
 O994 O 0.25287 0.26884 0.48436
 Cu995 Cu 0.26075 0.23756 0.50101
 Cu996 Cu 0.23961 0.26074 0.49991
 C997 C 0.26561 0.26263 0.47946
 C998 C 0.23488 0.23547 0.52143
 C999 C 0.23561 0.23481 0.47941
 C1000 C 0.26455 0.26385 0.52140
 O1001 O 0.74713 0.76952 0.98398
 O1002 O 0.76892 0.74757 1.01469
 O1003 O 0.76866 0.74760 0.98389
 O1004 O 0.74754 0.76959 1.01485
 O1005 O 0.72905 0.75113 1.01517
 O1006 O 0.75039 0.72891 0.98394
 O1007 O 0.75049 0.72904 1.01516
 O1008 O 0.72881 0.75089 0.98392
 Cu1009 Cu 0.75989 0.76043 0.99932
 Cu1010 Cu 0.73781 0.73812 0.99956
 C1011 C 0.73435 0.76391 0.97855
 C1012 C 0.76340 0.73467 1.02031
 C1013 C 0.76317 0.73458 0.97852
 C1014 C 0.73480 0.76410 1.02046
 O1015 O 0.76920 0.25009 0.51477
 O1016 O 0.74671 0.27010 0.48312
 O1017 O 0.74745 0.27168 0.51410
 O1018 O 0.76891 0.24894 0.48390
 O1019 O 0.75083 0.23006 0.48445
 O1020 O 0.72977 0.25249 0.51573
 O1021 O 0.72857 0.25134 0.48464
 O1022 O 0.75157 0.23080 0.51559
 Cu1023 Cu 0.75984 0.26211 0.49885
 Cu1024 Cu 0.73837 0.23926 0.50021
 C1025 C 0.76421 0.23707 0.52066
 C1026 C 0.73382 0.26408 0.47839
 C1027 C 0.73513 0.26588 0.52034
 C1028 C 0.76351 0.23576 0.47882
 O1029 O 0.77004 0.25044 -0.01534
 O1030 O 0.74887 0.22857 0.01573
 O1031 O 0.74872 0.22841 -0.01517
 O1032 O 0.76981 0.25109 0.01547
 O1033 O 0.75116 0.26941 0.01543
 O1034 O 0.73008 0.24674 -0.01556
 O1035 O 0.73018 0.24685 0.01570
 O1036 O 0.75147 0.26885 -0.01577
 Cu1037 Cu 0.76121 0.23780 0.00022
 Cu1038 Cu 0.73883 0.25980 -0.00007
 C1039 C 0.76438 0.26326 -0.02101
 C1040 C 0.73601 0.23398 0.02116
 C1041 C 0.73591 0.23378 -0.02078
 C1042 C 0.76409 0.26404 0.02079
 O1043 O 0.77014 0.75134 0.48547
 O1044 O 0.74705 0.73136 0.51674
 O1045 O 0.74860 0.72939 0.48576
 O1046 O 0.76888 0.75291 0.51648
 O1047 O 0.75072 0.77163 0.51453
 O1048 O 0.73049 0.74815 0.48365
 O1049 O 0.72883 0.75001 0.51463
 O1050 O 0.75195 0.77003 0.48350
 Cu1051 Cu 0.76049 0.73938 0.50130
 Cu1052 Cu 0.73868 0.76183 0.49890
 C1053 C 0.76490 0.76399 0.47900
 C1054 C 0.73405 0.73738 0.52115
 C1055 C 0.73620 0.73483 0.47929
 C1056 C 0.76318 0.76620 0.52091
 O1057 O 0.98461 0.24908 0.22939
 O1058 O 1.01541 0.22910 0.25291
 O1059 O 0.98459 0.22894 0.25281
 O1060 O 1.01526 0.24890 0.22917
 O1061 O 1.01531 0.26907 0.24603
 O1062 O 0.98477 0.24897 0.26983
 O1063 O 1.01548 0.24932 0.26970
 O1064 O 0.98449 0.26912 0.24640
 Cu1065 Cu 0.99996 0.23697 0.23940
 Cu1066 Cu 1.00001 0.26114 0.25968
 C1067 C 0.97913 0.26242 0.23399
 C1068 C 1.02090 0.23593 0.26520
 C1069 C 0.97928 0.23562 0.26526
 C1070 C 1.02066 0.26230 0.23364
 O1071 O 0.51569 0.26942 0.74739
 O1072 O 0.48435 0.24980 0.77042
 O1073 O 0.51493 0.24913 0.77059
 O1074 O 0.48505 0.27063 0.74756
 O1075 O 0.48392 0.25087 0.73026
 O1076 O 0.51477 0.22962 0.75299
 O1077 O 0.48389 0.23003 0.75309
 O1078 O 0.51468 0.25001 0.72970
 Cu1079 Cu 0.50005 0.26171 0.76072
 Cu1080 Cu 0.49926 0.23814 0.73976
 C1081 C 0.52063 0.26300 0.73465
 C1082 C 0.47868 0.23661 0.76563
 C1083 C 0.52019 0.23585 0.76564
 C1084 C 0.47917 0.26442 0.73514
 O1085 O 0.01421 0.25011 0.77180
 O1086 O -0.01631 0.23012 0.74805
 O1087 O 0.01451 0.22958 0.74859
 O1088 O -0.01656 0.25133 0.77046
 O1089 O -0.01496 0.27097 0.75305
 O1090 O 0.01501 0.24892 0.73077
 O1091 O -0.01553 0.24981 0.73064
 O1092 O 0.01568 0.26932 0.75391
 Cu1093 Cu -0.00112 0.23833 0.76151
 Cu1094 Cu 0.00017 0.26171 0.74035
 C1095 C 0.02035 0.26299 0.76681
 C1096 C -0.02134 0.23668 0.73541
 C1097 C 0.02008 0.23562 0.73591
 C1098 C -0.02115 0.26485 0.76534
 O1099 O 0.48528 0.22968 0.24798
 O1100 O 0.51563 0.25314 0.26845
 O1101 O 0.48481 0.25252 0.26883
 O1102 O 0.51601 0.23091 0.24701
 O1103 O 0.51455 0.24878 0.22778
 O1104 O 0.48433 0.27078 0.24991
 O1105 O 0.51489 0.27105 0.24922
 O1106 O 0.48388 0.24797 0.22914
 Cu1107 Cu 0.50052 0.23975 0.25999
 Cu1108 Cu 0.49933 0.26143 0.23709
 C1109 C 0.47919 0.23492 0.23522
 C1110 C 0.52063 0.26598 0.26223
 C1111 C 0.47920 0.26534 0.26300
 C1112 C 0.52067 0.23627 0.23366
 O1113 O 0.98369 0.75132 0.72930
 O1114 O 1.01456 0.72976 0.75157
 O1115 O 0.98372 0.73030 0.75197
 O1116 O 1.01445 0.75068 0.72878
 O1117 O 1.01545 0.76982 0.74676
 O1118 O 0.98424 0.74982 0.76957
 O1119 O 1.01477 0.74901 0.76948
 O1120 O 0.98477 0.77082 0.74688
 Cu1121 Cu 0.99904 0.73856 0.73862
 Cu1122 Cu 0.99986 0.76182 0.75993
 C1123 C 0.97889 0.76475 0.73439
 C1124 C 1.02000 0.73579 0.76431
 C1125 C 0.97858 0.73669 0.76464
 C1126 C 1.02040 0.76359 0.73394
 O1127 O 0.48529 0.75071 0.27222
 O1128 O 0.51657 0.77050 0.24920
 O1129 O 0.48589 0.77181 0.24966
 O1130 O 0.51589 0.74996 0.27224
 O1131 O 0.51556 0.73062 0.25444
 O1132 O 0.48468 0.75224 0.23216
 O1133 O 0.51542 0.75125 0.23134
 O1134 O 0.48470 0.73113 0.25469
 Cu1135 Cu 0.50099 0.76269 0.26258
 Cu1136 Cu 0.50003 0.73935 0.24139
 C1137 C 0.47954 0.73760 0.26731
 C1138 C 0.52142 0.76418 0.23637
 C1139 C 0.47993 0.76571 0.23724
 C1140 C 0.52106 0.73670 0.26713
 O1141 O 0.01629 0.74774 0.23080
 O1142 O -0.01377 0.77002 0.25282
 O1143 O 0.01683 0.76841 0.25375
 O1144 O -0.01426 0.74901 0.23031
 O1145 O -0.01531 0.72936 0.24775
 O1146 O 0.01520 0.74924 0.27168
 O1147 O -0.01553 0.75044 0.27030
 O1148 O 0.01555 0.72849 0.24870
 Cu1149 Cu 0.00142 0.76074 0.24016
 Cu1150 Cu -0.00013 0.73742 0.26138
 C1151 C 0.02125 0.73445 0.23604
 C1152 C -0.02004 0.76396 0.26512
 C1153 C 0.02139 0.76211 0.26671
 C1154 C -0.02022 0.73595 0.23508
 O1155 O 0.51537 0.75364 0.77036
 O1156 O 0.48423 0.73049 0.75033
 O1157 O 0.51502 0.72986 0.75057
 O1158 O 0.48459 0.75403 0.77039
 O1159 O 0.48473 0.77090 0.75024
 O1160 O 0.51548 0.74695 0.73061
 O1161 O 0.48469 0.74736 0.73019
 O1162 O 0.51552 0.77067 0.75036
 Cu1163 Cu 0.49977 0.74030 0.76241
 Cu1164 Cu 0.50013 0.76067 0.73835
 C1165 C 0.52090 0.76604 0.76368
 C1166 C 0.47901 0.73507 0.73691
 C1167 C 0.52065 0.73440 0.73733
 C1168 C 0.47928 0.76648 0.76361
 C1169 C 0.42579 0.29603 0.29193
 C1170 C 0.41738 0.30835 0.28439
 C1171 C 0.40376 0.31435 0.29140
 C1172 C 0.39828 0.30811 0.30587
 C1173 C 0.40691 0.29566 0.31293
 N1174 N 0.42020 0.29002 0.30588
 C1175 C 0.44018 0.28894 0.28485
 N1176 N 0.44488 0.27415 0.28970
 C1177 C 0.45758 0.26660 0.28334
 C1178 C 0.46629 0.27389 0.27117
 C1179 C 0.46194 0.28930 0.26632
 C1180 C 0.44904 0.29690 0.27319
 H1181 H 0.39749 0.32376 0.28530
 H1182 H 0.40320 0.29041 0.32404
 H1183 H 0.46056 0.25474 0.28749
 H1184 H 0.46847 0.29548 0.25714
 H1185 H 0.42094 0.31317 0.27303
 H1186 H 0.44620 0.30888 0.26934
 C1187 C 0.42657 0.79880 0.79230
 C1188 C 0.42034 0.81353 0.78736
 C1189 C 0.40661 0.81933 0.79437
 C1190 C 0.39901 0.81067 0.80649
 C1191 C 0.40603 0.79629 0.81149
 N1192 N 0.41930 0.79080 0.80432
 C1193 C 0.44067 0.79150 0.78481
 N1194 N 0.44786 0.77909 0.79236
 C1195 C 0.46038 0.77122 0.78605
 C1196 C 0.46635 0.77563 0.77112
 C1197 C 0.45921 0.78844 0.76314
 C1198 C 0.44639 0.79635 0.76987
 H1199 H 0.40211 0.83066 0.79022
 H1200 H 0.40090 0.78911 0.82082
 H1201 H 0.46548 0.76137 0.79261
 H1202 H 0.46331 0.79215 0.75152
 H1203 H 0.42592 0.82067 0.77829
 H1204 H 0.44086 0.80578 0.76312
 C1205 C -0.07505 0.29553 0.79318
 C1206 C -0.08353 0.30747 0.78515
 C1207 C -0.09722 0.31362 0.79190
 C1208 C -0.10264 0.30789 0.80659
 C1209 C -0.09396 0.29576 0.81412
 N1210 N -0.08062 0.28997 0.80732
 C1211 C -0.06056 0.28840 0.78643
 N1212 N -0.05610 0.27352 0.79122
 C1213 C -0.04329 0.26597 0.78511
 C1214 C -0.03418 0.27340 0.77332
 C1215 C -0.03828 0.28892 0.76858
 C1216 C -0.05135 0.29648 0.77515
 H1217 H -0.10360 0.32271 0.78543
 H1218 H -0.09764 0.29093 0.82543
 H1219 H -0.04051 0.25403 0.78916
 H1220 H -0.03147 0.29519 0.75967
 H1221 H -0.07994 0.31183 0.77362
 H1222 H -0.05407 0.30851 0.77139
 C1223 C -0.07391 0.79479 0.29284
 C1224 C -0.08244 0.80663 0.28473
 C1225 C -0.09614 0.81278 0.29144
 C1226 C -0.10153 0.80715 0.30618
 C1227 C -0.09279 0.79512 0.31379
 N1228 N -0.07944 0.78932 0.30703
 C1229 C -0.05941 0.78764 0.28612
 N1230 N -0.05488 0.77284 0.29106
 C1231 C -0.04208 0.76526 0.28498
 C1232 C -0.03305 0.77257 0.27305
 C1233 C -0.03721 0.78803 0.26816
 C1234 C -0.05027 0.79562 0.27471
 H1235 H -0.10257 0.82179 0.28491
 H1236 H -0.09645 0.79036 0.32515
 H1237 H -0.03924 0.75338 0.28916
 H1238 H -0.03047 0.79422 0.25915
 H1239 H -0.07888 0.81092 0.27316
 H1240 H -0.05305 0.80761 0.27083
 C1241 C 0.57459 0.70846 0.29818
 C1242 C 0.58342 0.71663 0.30972
 C1243 C 0.59719 0.70981 0.31565
 C1244 C 0.60237 0.69491 0.31008
 C1245 C 0.59326 0.68717 0.29846
 N1246 N 0.57986 0.69406 0.29287
 C1247 C 0.56013 0.71534 0.29106
 N1248 N 0.55516 0.70984 0.27666
 C1249 C 0.54242 0.71603 0.26904
 C1250 C 0.53394 0.72867 0.27586
 C1251 C 0.53853 0.73415 0.29092
 C1252 C 0.55149 0.72748 0.29859
 H1253 H 0.60384 0.71640 0.32442
 H1254 H 0.59669 0.67569 0.29376
 H1255 H 0.53923 0.71137 0.25749
 H1256 H 0.53219 0.74372 0.29674
 H1257 H 0.58008 0.72834 0.31392
 H1258 H 0.55458 0.73184 0.31027
 C1259 C 0.57378 0.20826 0.79721
 C1260 C 0.58246 0.21651 0.80882
 C1261 C 0.59625 0.20980 0.81484
 C1262 C 0.60158 0.19494 0.80932
 C1263 C 0.59260 0.18713 0.79764
 N1264 N 0.57920 0.19390 0.79195
 C1265 C 0.55930 0.21499 0.78997
 N1266 N 0.55445 0.20935 0.77558
 C1267 C 0.54170 0.21537 0.76785
 C1268 C 0.53308 0.22798 0.77452
 C1269 C 0.53755 0.23363 0.78956
 C1270 C 0.55053 0.22712 0.79735
 H1271 H 0.60279 0.21644 0.82366
 H1272 H 0.59616 0.17567 0.79296
 H1273 H 0.53861 0.21059 0.75630
 H1274 H 0.53110 0.24319 0.79526
 H1275 H 0.57899 0.22819 0.81300
 H1276 H 0.55353 0.23161 0.80901
 C1277 C 1.07349 0.70776 0.79543
 C1278 C 1.08218 0.71614 0.80692
 C1279 C 1.09587 0.70945 0.81310
 C1280 C 1.10111 0.69446 0.80785
 C1281 C 1.09224 0.68656 0.79616
 N1282 N 1.07888 0.69332 0.79032
 C1283 C 1.05903 0.71449 0.78824
 N1284 N 1.05443 0.70934 0.77360
 C1285 C 1.04170 0.71550 0.76596
 C1286 C 1.03286 0.72775 0.77302
 C1287 C 1.03707 0.73285 0.78831
 C1288 C 1.05002 0.72620 0.79600
 H1289 H 1.10243 0.71620 0.82182
 H1290 H 1.09579 0.67500 0.79171
 H1291 H 1.03880 0.71116 0.75419
 H1292 H 1.03042 0.74209 0.79431
 H1293 H 1.07874 0.72791 0.81089
 H1294 H 1.05283 0.73022 0.80787
 C1295 C 1.07430 0.20801 0.29678
 C1296 C 1.07909 0.21163 0.31235
 C1297 C 1.09281 0.20484 0.31839
 C1298 C 1.10178 0.19433 0.30909
 C1299 C 1.09638 0.19071 0.29372
 N1300 N 1.08300 0.19756 0.28805
 C1301 C 1.06008 0.21520 0.28954
 N1302 N 1.05316 0.20769 0.27700
 C1303 C 1.04044 0.21383 0.26933
 C1304 C 1.03403 0.22852 0.27409
 C1305 C 1.04095 0.23646 0.28701
 C1306 C 1.05396 0.22989 0.29471
 H1307 H 1.09626 0.20774 0.33043
 H1308 H 1.10285 0.18266 0.28610
 H1309 H 1.03553 0.20733 0.25939
 H1310 H 1.03654 0.24792 0.29096
 H1311 H 1.07227 0.21943 0.31993
 H1312 H 1.05937 0.23657 0.30425
 C1313 C 0.57410 0.29044 0.70283
 C1314 C 0.58298 0.28232 0.69130
 C1315 C 0.59652 0.28939 0.68514
 C1316 C 0.60139 0.30448 0.69047
 C1317 C 0.59228 0.31212 0.70212
 N1318 N 0.57911 0.30501 0.70792
 C1319 C 0.55984 0.28342 0.71018
 N1320 N 0.55474 0.28942 0.72431
 C1321 C 0.54206 0.28340 0.73211
 C1322 C 0.53371 0.27044 0.72574
 C1323 C 0.53851 0.26431 0.71100
 C1324 C 0.55146 0.27080 0.70315
 H1325 H 0.60326 0.28286 0.67639
 H1326 H 0.59549 0.32377 0.70660
 H1327 H 0.53875 0.28856 0.74342
 H1328 H 0.53230 0.25443 0.70556
 H1329 H 0.57985 0.27049 0.68725
 H1330 H 0.55468 0.26597 0.69169
 C1331 C 0.57487 0.79154 0.20441
 C1332 C 0.58377 0.78320 0.19307
 C1333 C 0.59730 0.79014 0.18679
 C1334 C 0.60216 0.80536 0.19180
 C1335 C 0.59304 0.81322 0.20331
 N1336 N 0.57987 0.80621 0.20924
 C1337 C 0.56058 0.78462 0.21181
 N1338 N 0.55558 0.79057 0.22600
 C1339 C 0.54290 0.78456 0.23382
 C1340 C 0.53447 0.77167 0.22743
 C1341 C 0.53914 0.76562 0.21261
 C1342 C 0.55208 0.77210 0.20473
 H1343 H 0.60404 0.78342 0.17819
 H1344 H 0.59627 0.82495 0.20756
 H1345 H 0.53967 0.78965 0.24518
 H1346 H 0.53286 0.75581 0.20714
 H1347 H 0.58065 0.77129 0.18927
 H1348 H 0.55522 0.76734 0.19322
 C1349 C 1.07403 0.28991 0.20165
 C1350 C 1.08285 0.28202 0.18990
 C1351 C 1.09654 0.28907 0.18402
 C1352 C 1.10163 0.30392 0.18983
 C1353 C 1.09246 0.31140 0.20155
 N1354 N 1.07918 0.30429 0.20709
 C1355 C 1.05973 0.28285 0.20894
 N1356 N 1.05438 0.28909 0.22289
 C1357 C 1.04171 0.28308 0.23071
 C1358 C 1.03364 0.26982 0.22460
 C1359 C 1.03867 0.26341 0.21005
 C1360 C 1.05159 0.26993 0.20215
 H1361 H 1.10318 0.28272 0.17507
 H1362 H 1.09580 0.32282 0.20646
 H1363 H 1.03823 0.28844 0.24187
 H1364 H 1.03267 0.25329 0.20481
 H1365 H 1.07959 0.27039 0.18546
 H1366 H 1.05499 0.26483 0.19087
 C1367 C 1.07419 0.79116 0.70287
 C1368 C 1.08326 0.78288 0.69163
 C1369 C 1.09691 0.78984 0.68564
 C1370 C 1.10170 0.80501 0.69082
 C1371 C 1.09239 0.81283 0.70221
 N1372 N 1.07912 0.80580 0.70787
 C1373 C 1.05981 0.78421 0.71001
 N1374 N 1.05468 0.79000 0.72422
 C1375 C 1.04192 0.78394 0.73183
 C1376 C 1.03351 0.77115 0.72519
 C1377 C 1.03830 0.76528 0.71035
 C1378 C 1.05134 0.77181 0.70268
 H1379 H 1.10378 0.78316 0.67711
 H1380 H 1.09555 0.82452 0.70659
 H1381 H 1.03860 0.78889 0.74322
 H1382 H 1.03204 0.75556 0.70469
 H1383 H 1.08019 0.77099 0.68771
 H1384 H 1.05460 0.76719 0.69115
 C1385 C 0.42599 0.70380 0.70772
 C1386 C 0.42108 0.68820 0.71128
 C1387 C 0.40751 0.68215 0.70421
 C1388 C 0.39879 0.69148 0.69348
 C1389 C 0.40435 0.70684 0.68985
 N1390 N 0.41758 0.71253 0.69699
 C1391 C 0.44004 0.71104 0.71531
 N1392 N 0.44735 0.72347 0.70795
 C1393 C 0.45998 0.73103 0.71439
 C1394 C 0.46591 0.72628 0.72926
 C1395 C 0.45858 0.71348 0.73705
 C1396 C 0.44566 0.70588 0.73018
 H1397 H 0.40397 0.67009 0.70710
 H1398 H 0.39806 0.71445 0.68163
 H1399 H 0.46523 0.74088 0.70798
 H1400 H 0.46260 0.70953 0.74862
 H1401 H 0.42766 0.68060 0.71926
 H1402 H 0.43993 0.69642 0.73673
 C1403 C 0.42574 0.20309 0.20783
 C1404 C 0.41736 0.19091 0.21559
 C1405 C 0.40374 0.18482 0.20868
 C1406 C 0.39825 0.19084 0.19411
 C1407 C 0.40688 0.20310 0.18681
 N1408 N 0.42016 0.20883 0.19377
 C1409 C 0.44006 0.21041 0.21474
 N1410 N 0.44485 0.22486 0.20912
 C1411 C 0.45753 0.23267 0.21512
 C1412 C 0.46619 0.22599 0.22768
 C1413 C 0.46174 0.21092 0.23340
 C1414 C 0.44879 0.20305 0.22692
 H1415 H 0.39744 0.17556 0.21496
 H1416 H 0.40317 0.20817 0.17560
 H1417 H 0.46058 0.24425 0.21031
 H1418 H 0.46819 0.20525 0.24296
 H1419 H 0.42094 0.18629 0.22703
 H1420 H 0.44584 0.19136 0.23145
 C1421 C -0.07388 0.70912 0.20286
 C1422 C -0.08081 0.71536 0.18899
 C1423 C -0.09447 0.70845 0.18297
 C1424 C -0.10141 0.69532 0.19060
 C1425 C -0.09413 0.68940 0.20438
 N1426 N -0.08081 0.69635 0.21005
 C1427 C -0.05951 0.71604 0.21022
 N1428 N -0.05403 0.70943 0.22396
 C1429 C -0.04130 0.71524 0.23184
 C1430 C -0.03330 0.72868 0.22604
 C1431 C -0.03853 0.73555 0.21178
 C1432 C -0.05153 0.72930 0.20384
 H1433 H -0.09952 0.71354 0.17232
 H1434 H -0.09895 0.67931 0.21074
 H1435 H -0.03768 0.70954 0.24280
 H1436 H -0.03269 0.74592 0.20684
 H1437 H -0.07601 0.72547 0.18272
 H1438 H -0.05515 0.73508 0.19298
 C1439 C -0.07446 0.20880 0.70314
 C1440 C -0.08100 0.21443 0.68885
 C1441 C -0.09452 0.20732 0.68278
 C1442 C -0.10169 0.19451 0.69075
 C1443 C -0.09473 0.18910 0.70490
 N1444 N -0.08155 0.19628 0.71063
 C1445 C -0.06028 0.21605 0.71056
 N1446 N -0.05457 0.20944 0.72420
 C1447 C -0.04199 0.21553 0.73210
 C1448 C -0.03435 0.22924 0.72640
 C1449 C -0.03985 0.23616 0.71228
 C1450 C -0.05273 0.22966 0.70434
 H1451 H -0.09932 0.21204 0.67185
 H1452 H -0.09972 0.17924 0.71148
 H1453 H -0.03816 0.20980 0.74297
 H1454 H -0.03432 0.24675 0.70745
 H1455 H -0.07599 0.22421 0.68223
 H1456 H -0.05664 0.23556 0.69364
 C1457 C 0.29563 0.42527 0.29343
 C1458 C 0.30723 0.41652 0.28535
 C1459 C 0.31336 0.40271 0.29219
 C1460 C 0.30799 0.39738 0.30706
 C1461 C 0.29619 0.40633 0.31465
 N1462 N 0.29039 0.41981 0.30774
 C1463 C 0.28852 0.43987 0.28648
 N1464 N 0.27386 0.44441 0.29119
 C1465 C 0.26631 0.45722 0.28477
 C1466 C 0.27349 0.46622 0.27270
 C1467 C 0.28878 0.46207 0.26803
 C1468 C 0.29637 0.44905 0.27496
 H1469 H 0.32218 0.39615 0.28564
 H1470 H 0.29163 0.40272 0.32610
 H1471 H 0.25454 0.46005 0.28875
 H1472 H 0.29487 0.46885 0.25896
 H1473 H 0.31134 0.42000 0.27369
 H1474 H 0.30825 0.44632 0.27129
 C1475 C 0.29757 -0.07476 0.79236
 C1476 C 0.30946 -0.08331 0.78453
 C1477 C 0.31570 -0.09702 0.79150
 C1478 C 0.31011 -0.10255 0.80627
 C1479 C 0.29816 -0.09361 0.81369
 N1480 N 0.29229 -0.08024 0.80663
 C1481 C 0.29007 -0.06038 0.78527
 N1482 N 0.27595 -0.05542 0.79110
 C1483 C 0.26801 -0.04274 0.78492
 C1484 C 0.27417 -0.03428 0.77193
 C1485 C 0.28887 -0.03892 0.76595
 C1486 C 0.29689 -0.05182 0.77263
 H1487 H 0.32476 -0.10329 0.78503
 H1488 H 0.29334 -0.09717 0.82503
 H1489 H 0.25673 -0.03954 0.78994
 H1490 H 0.29415 -0.03261 0.75607
 H1491 H 0.31376 -0.07984 0.77295
 H1492 H 0.30830 -0.05487 0.76788
 C1493 C 0.79484 0.42447 0.79301
 C1494 C 0.80677 0.41598 0.78518
 C1495 C 0.81300 0.40227 0.79211
 C1496 C 0.80737 0.39668 0.80682
 C1497 C 0.79509 0.40533 0.81405
 N1498 N 0.78927 0.41877 0.80708
 C1499 C 0.78778 0.43912 0.78610
 N1500 N 0.77327 0.44387 0.79109
 C1501 C 0.76580 0.45680 0.78481
 C1502 C 0.77289 0.46565 0.77258
 C1503 C 0.78803 0.46128 0.76764
 C1504 C 0.79555 0.44818 0.77444
 H1505 H 0.82217 0.39610 0.78569
 H1506 H 0.79013 0.40162 0.82528
 H1507 H 0.75416 0.45983 0.78903
 H1508 H 0.79404 0.46793 0.75843
 H1509 H 0.81115 0.41958 0.77367
 H1510 H 0.80732 0.44532 0.77052
 C1511 C 0.79600 -0.07632 0.29211
 C1512 C 0.80785 -0.08491 0.28426
 C1513 C 0.81408 -0.09861 0.29125
 C1514 C 0.80854 -0.10406 0.30607
 C1515 C 0.79640 -0.09526 0.31335
 N1516 N 0.79059 -0.08187 0.30631
 C1517 C 0.78878 -0.06174 0.28520
 N1518 N 0.77472 -0.05662 0.29103
 C1519 C 0.76707 -0.04369 0.28505
 C1520 C 0.77348 -0.03511 0.27225
 C1521 C 0.78815 -0.03988 0.26632
 C1522 C 0.79588 -0.05305 0.27281
 H1523 H 0.82315 -0.10489 0.28480
 H1524 H 0.79155 -0.09883 0.32467
 H1525 H 0.75582 -0.04037 0.29005
 H1526 H 0.79363 -0.03347 0.25660
 H1527 H 0.81217 -0.08143 0.27270
 H1528 H 0.80729 -0.05621 0.26811
 C1529 C 0.29738 0.57393 0.70984
 C1530 C 0.31236 0.57939 0.71431
 C1531 C 0.31848 0.59313 0.70727
 C1532 C 0.30985 0.60142 0.69567
 C1533 C 0.29507 0.59538 0.69131
 N1534 N 0.28931 0.58204 0.69841
 C1535 C 0.28998 0.55967 0.71708
 N1536 N 0.27761 0.55277 0.70944
 C1537 C 0.26970 0.54008 0.71553
 C1538 C 0.27403 0.53364 0.73030
 C1539 C 0.28681 0.54045 0.73835
 C1540 C 0.29477 0.55346 0.73185
 H1541 H 0.33005 0.59710 0.71084
 H1542 H 0.28795 0.60132 0.68244
 H1543 H 0.25989 0.53523 0.70892
 H1544 H 0.29047 0.53596 0.74985
 H1545 H 0.31946 0.57313 0.72296
 H1546 H 0.30421 0.55878 0.73862
 C1547 C 0.29629 1.07375 0.20774
 C1548 C 0.31147 1.07886 0.21186
 C1549 C 0.31766 1.09255 0.20482
 C1550 C 0.30888 1.10117 0.19357
 C1551 C 0.29391 1.09545 0.18948
 N1552 N 0.28809 1.08212 0.19658
 C1553 C 0.28890 1.05953 0.21505
 N1554 N 0.27649 1.05261 0.20752
 C1555 C 0.26868 1.03988 0.21368
 C1556 C 0.27317 1.03344 0.22841
 C1557 C 0.28597 1.04033 0.23637
 C1558 C 0.29382 1.05337 0.22980
 H1559 H 0.32938 1.09624 0.20816
 H1560 H 0.28671 1.10164 0.18086
 H1561 H 0.25883 1.03499 0.20715
 H1562 H 0.28973 1.03587 0.24785
 H1563 H 0.31868 1.07235 0.22024
 H1564 H 0.30327 1.05875 0.23650
 C1565 C 0.79856 0.57508 0.20851
 C1566 C 0.81312 0.58125 0.21350
 C1567 C 0.81902 0.59508 0.20646
 C1568 C 0.81061 0.60285 0.19433
 C1569 C 0.79626 0.59614 0.18948
 N1570 N 0.79071 0.58270 0.19660
 C1571 C 0.79131 0.56066 0.21574
 N1572 N 0.77851 0.55411 0.20850
 C1573 C 0.77073 0.54130 0.21456
 C1574 C 0.77565 0.53435 0.22891
 C1575 C 0.78889 0.54076 0.23652
 C1576 C 0.79671 0.55388 0.23005
 H1577 H 0.83021 0.59960 0.21057
 H1578 H 0.78934 0.60156 0.18016
 H1579 H 0.76055 0.53679 0.20830
 H1580 H 0.79306 0.53583 0.24766
 H1581 H 0.82009 0.57555 0.22262
 H1582 H 0.80655 0.55873 0.23655
 C1583 C 0.79708 1.07517 0.70663
 C1584 C 0.80885 1.08374 0.71465
 C1585 C 0.81506 1.09755 0.70784
 C1586 C 0.80955 1.10303 0.69308
 C1587 C 0.79773 1.09415 0.68545
 N1588 N 0.79186 1.08071 0.69234
 C1589 C 0.78965 1.06073 0.71359
 N1590 N 0.77511 1.05626 0.70843
 C1591 C 0.76725 1.04360 0.71474
 C1592 C 0.77396 1.03470 0.72716
 C1593 C 0.78911 1.03878 0.73231
 C1594 C 0.79703 1.05165 0.72551
 H1595 H 0.82395 1.10405 0.71436
 H1596 H 0.79311 1.09783 0.67406
 H1597 H 0.75561 1.04080 0.71035
 H1598 H 0.79485 1.03207 0.74168
 H1599 H 0.81300 1.08020 0.72628
 H1600 H 0.80878 1.05432 0.72959
 C1601 C 0.70226 0.57466 0.28964
 C1602 C 0.69041 0.58346 0.28194
 C1603 C 0.68426 0.59709 0.28921
 C1604 C 0.68991 0.60212 0.30407
 C1605 C 0.70176 0.59300 0.31134
 N1606 N 0.70754 0.57977 0.30404
 C1607 C 0.70979 0.56038 0.28246
 N1608 N 0.72345 0.55493 0.28895
 C1609 C 0.73144 0.54225 0.28293
 C1610 C 0.72582 0.53427 0.26942
 C1611 C 0.71158 0.53941 0.26272
 C1612 C 0.70349 0.55235 0.26922
 H1613 H 0.67526 0.60376 0.28301
 H1614 H 0.70650 0.59628 0.32280
 H1615 H 0.74234 0.53866 0.28854
 H1616 H 0.70672 0.53348 0.25239
 H1617 H 0.68605 0.58023 0.27032
 H1618 H 0.69247 0.55584 0.26388
 C1619 C 0.70145 1.07560 0.78957
 C1620 C 0.68894 1.08382 0.78234
 C1621 C 0.68275 1.09742 0.78960
 C1622 C 0.68899 1.10309 0.80404
 C1623 C 0.70156 1.09449 0.81081
 N1624 N 0.70733 1.08127 0.80351
 C1625 C 0.70900 1.06135 0.78238
 N1626 N 0.72311 1.05648 0.78831
 C1627 C 0.73112 1.04382 0.78228
 C1628 C 0.72503 1.03524 0.76936
 C1629 C 0.71036 1.03980 0.76323
 C1630 C 0.70226 1.05274 0.76974
 H1631 H 0.67320 1.10351 0.78367
 H1632 H 0.70691 1.09812 0.82188
 H1633 H 0.74238 1.04070 0.78743
 H1634 H 0.70515 1.03340 0.75336
 H1635 H 0.68409 1.08015 0.77106
 H1636 H 0.69090 1.05577 0.76487
 C1637 C 0.20138 0.57484 0.79098
 C1638 C 0.18917 0.58338 0.78356
 C1639 C 0.18323 0.59714 0.79071
 C1640 C 0.18938 0.60262 0.80522
 C1641 C 0.20160 0.59379 0.81222
 N1642 N 0.20719 0.58039 0.80503
 C1643 C 0.20863 0.56037 0.78382
 N1644 N 0.22230 0.55477 0.79018
 C1645 C 0.23007 0.54195 0.78414
 C1646 C 0.22422 0.53396 0.77072
 C1647 C 0.20998 0.53925 0.76414
 C1648 C 0.20211 0.55232 0.77068
 H1649 H 0.17393 0.60353 0.78467
 H1650 H 0.20677 0.59746 0.82337
 H1651 H 0.24099 0.53825 0.78963
 H1652 H 0.20496 0.53334 0.75388
 H1653 H 0.18434 0.57985 0.77223
 H1654 H 0.19109 0.55589 0.76539
 C1655 C 0.20146 1.07443 0.29036
 C1656 C 0.18657 1.08029 0.28604
 C1657 C 0.18074 1.09406 0.29330
 C1658 C 0.18957 1.10205 0.30496
 C1659 C 0.20424 1.09561 0.30917
 N1660 N 0.20971 1.08222 0.30186
 C1661 C 0.20857 1.06007 0.28288
 N1662 N 0.22107 1.05302 0.29017
 C1663 C 0.22868 1.04021 0.28390
 C1664 C 0.22389 1.03377 0.26927
 C1665 C 0.21097 1.04075 0.26156
 C1666 C 0.20332 1.05388 0.26825
 H1667 H 0.16926 1.09832 0.28976
 H1668 H 0.21150 1.10124 0.31810
 H1669 H 0.23862 1.03525 0.29025
 H1670 H 0.20695 1.03627 0.25018
 H1671 H 0.17931 1.07433 0.27733
 H1672 H 0.19375 1.05927 0.26172
 C1673 C 0.70117 0.42511 0.70952
 C1674 C 0.68802 0.41750 0.71625
 C1675 C 0.68190 0.40381 0.70910
 C1676 C 0.68881 0.39753 0.69530
 C1677 C 0.70189 0.40550 0.68893
 N1678 N 0.70763 0.41881 0.69611
 C1679 C 0.70872 0.43942 0.71667
 N1680 N 0.72265 0.44449 0.71049
 C1681 C 0.73071 0.45714 0.71648
 C1682 C 0.72487 0.46551 0.72966
 C1683 C 0.71040 0.46074 0.73608
 C1684 C 0.70226 0.44781 0.72962
 H1685 H 0.67189 0.39808 0.71458
 H1686 H 0.70763 0.40123 0.67830
 H1687 H 0.74180 0.46042 0.71110
 H1688 H 0.70540 0.46692 0.74619
 H1689 H 0.68252 0.42171 0.72702
 H1690 H 0.69112 0.44461 0.73486
 C1691 C 0.70574 -0.07559 0.20706
 C1692 C 0.71421 -0.08475 0.19604
 C1693 C 0.70753 -0.09852 0.18972
 C1694 C 0.69240 -0.10335 0.19433
 C1695 C 0.68444 -0.09406 0.20568
 N1696 N 0.69122 -0.08062 0.21169
 C1697 C 0.71251 -0.06091 0.21408
 N1698 N 0.70813 -0.05636 0.22899
 C1699 C 0.71456 -0.04347 0.23640
 C1700 C 0.72624 -0.03441 0.22879
 C1701 C 0.73047 -0.03856 0.21321
 C1702 C 0.72360 -0.05168 0.20581
 H1703 H 0.71437 -0.10541 0.18134
 H1704 H 0.67279 -0.09731 0.20966
 H1705 H 0.71088 -0.04062 0.24838
 H1706 H 0.73924 -0.03176 0.20678
 H1707 H 0.72603 -0.08156 0.19251
 H1708 H 0.72699 -0.05452 0.19374
 C1709 C 0.20236 0.42423 0.21061
 C1710 C 0.19109 0.41510 0.21876
 C1711 C 0.18479 0.40149 0.21159
 C1712 C 0.18970 0.39683 0.19633
 C1713 C 0.20111 0.40621 0.18869
 N1714 N 0.20705 0.41940 0.19591
 C1715 C 0.20981 0.43861 0.21761
 N1716 N 0.22358 0.44389 0.21124
 C1717 C 0.23141 0.45677 0.21705
 C1718 C 0.22546 0.46520 0.23015
 C1719 C 0.21111 0.46021 0.23671
 C1720 C 0.20322 0.44701 0.23045
 H1721 H 0.17618 0.39463 0.21810
 H1722 H 0.20537 0.40317 0.17698
 H1723 H 0.24241 0.46021 0.21158
 H1724 H 0.20600 0.46646 0.24673
 H1725 H 0.18732 0.41811 0.23066
 H1726 H 0.19208 0.44363 0.23561
 C1727 C 0.20156 -0.07490 0.71017
 C1728 C 0.18843 -0.08267 0.71674
 C1729 C 0.18244 -0.09631 0.70942
 C1730 C 0.18941 -0.10239 0.69555
 C1731 C 0.20248 -0.09428 0.68935
 N1732 N 0.20811 -0.08101 0.69670
 C1733 C 0.20892 -0.06055 0.71746
 N1734 N 0.22233 -0.05471 0.71078
 C1735 C 0.23022 -0.04199 0.71685
 C1736 C 0.22476 -0.03435 0.73062
 C1737 C 0.21083 -0.03992 0.73758
 C1738 C 0.20286 -0.05292 0.73105
 H1739 H 0.17239 -0.10209 0.71477
 H1740 H 0.20830 -0.09840 0.67870
 H1741 H 0.24090 -0.03808 0.71105
 H1742 H 0.20615 -0.03433 0.74818
 H1743 H 0.18277 -0.07857 0.72746
 H1744 H 0.19219 -0.05679 0.73681
 C1745 C 0.29703 0.29057 0.42555
 C1746 C 0.30836 0.28238 0.41656
 C1747 C 0.31448 0.28941 0.40286
 C1748 C 0.30932 0.30456 0.39793
 C1749 C 0.29785 0.31228 0.40716
 N1750 N 0.29207 0.30518 0.42049
 C1751 C 0.28978 0.28353 0.43999
 N1752 N 0.27560 0.28921 0.44496
 C1753 C 0.26791 0.28306 0.45773
 C1754 C 0.27442 0.27028 0.46633
 C1755 C 0.28922 0.26451 0.46170
 C1756 C 0.29696 0.27114 0.44865
 H1757 H 0.32306 0.28279 0.39604
 H1758 H 0.29349 0.32396 0.40390
 H1759 H 0.25656 0.28793 0.46092
 H1760 H 0.29478 0.25481 0.46811
 H1761 H 0.31227 0.27051 0.41973
 H1762 H 0.30845 0.26660 0.44554
 C1763 C 0.29846 0.79094 -0.07529
 C1764 C 0.30997 0.78289 -0.08419
 C1765 C 0.31597 0.78989 -0.09796
 C1766 C 0.31054 0.80488 -0.10309
 C1767 C 0.29897 0.81251 -0.09389
 N1768 N 0.29330 0.80543 -0.08051
 C1769 C 0.29119 0.78389 -0.06084
 N1770 N 0.27721 0.78987 -0.05565
 C1771 C 0.26947 0.78376 -0.04288
 C1772 C 0.27569 0.77068 -0.03454
 C1773 C 0.29027 0.76456 -0.03940
 C1774 C 0.29810 0.77117 -0.05242
 H1775 H 0.32474 0.78337 -0.10462
 H1776 H 0.29433 0.82403 -0.09729
 H1777 H 0.25828 0.78891 -0.03952
 H1778 H 0.29561 0.75460 -0.03318
 H1779 H 0.31413 0.77114 -0.08091
 H1780 H 0.30942 0.76631 -0.05567
 C1781 C 0.79468 0.29193 -0.07505
 C1782 C 0.80559 0.28341 -0.08425
 C1783 C 0.81189 0.29037 -0.09787
 C1784 C 0.80734 0.30580 -0.10251
 C1785 C 0.79613 0.31380 -0.09316
 N1786 N 0.79016 0.30675 -0.07989
 C1787 C 0.78759 0.28497 -0.06053
 N1788 N 0.77318 0.29013 -0.05567
 C1789 C 0.76573 0.28379 -0.04281
 C1790 C 0.77278 0.27139 -0.03411
 C1791 C 0.78784 0.26628 -0.03861
 C1792 C 0.79531 0.27308 -0.05169
 H1793 H 0.82023 0.28352 -0.10476
 H1794 H 0.79216 0.32566 -0.09625
 H1795 H 0.75417 0.28816 -0.03968
 H1796 H 0.79384 0.25693 -0.03209
 H1797 H 0.80907 0.27136 -0.08123
 H1798 H 0.80700 0.26904 -0.05474
 C1799 C 0.79633 0.79141 0.42488
 C1800 C 0.80728 0.78292 0.41570
 C1801 C 0.81354 0.78989 0.40205
 C1802 C 0.80894 0.80531 0.39737
 C1803 C 0.79778 0.81331 0.40676
 N1804 N 0.79184 0.80625 0.42003
 C1805 C 0.78904 0.78448 0.43933
 N1806 N 0.77497 0.79034 0.44436
 C1807 C 0.76728 0.78431 0.45719
 C1808 C 0.77371 0.77149 0.46578
 C1809 C 0.78840 0.76553 0.46108
 C1810 C 0.79613 0.77202 0.44796
 H1811 H 0.82188 0.78305 0.39515
 H1812 H 0.79379 0.82517 0.40368
 H1813 H 0.75601 0.78933 0.46043
 H1814 H 0.79389 0.75577 0.46748
 H1815 H 0.81078 0.77088 0.41871
 H1816 H 0.80755 0.76733 0.44477
 C1817 C 0.70742 0.29721 0.57435
 C1818 C 0.71542 0.30875 0.58337
 C1819 C 0.70856 0.31475 0.59720
 C1820 C 0.69377 0.30927 0.60220
 C1821 C 0.68620 0.29767 0.59286
 N1822 N 0.69314 0.29200 0.57945
 C1823 C 0.71430 0.28998 0.55986
 N1824 N 0.70891 0.27549 0.55492
 C1825 C 0.71499 0.26779 0.54209
 C1826 C 0.72736 0.27465 0.53343
 C1827 C 0.73278 0.28979 0.53801
 C1828 C 0.72625 0.29752 0.55112
 H1829 H 0.71501 0.32352 0.60401
 H1830 H 0.67482 0.29301 0.59614
 H1831 H 0.71040 0.25617 0.53893
 H1832 H 0.74218 0.29563 0.53157
 H1833 H 0.72702 0.31288 0.58014
 H1834 H 0.73056 0.30925 0.55423
 C1835 C 0.70690 0.79511 1.07454
 C1836 C 0.71500 0.80661 1.08353
 C1837 C 0.70812 0.81283 1.09722
 C1838 C 0.69324 0.80760 1.10217
 C1839 C 0.68563 0.79590 1.09299
 N1840 N 0.69256 0.79004 1.07964
 C1841 C 0.71376 0.78792 1.06002
 N1842 N 0.70837 0.77347 1.05497
 C1843 C 0.71450 0.76585 1.04210
 C1844 C 0.72695 0.77274 1.03356
 C1845 C 0.73235 0.78784 1.03827
 C1846 C 0.72575 0.79550 1.05136
 H1847 H 0.71464 0.82157 1.10399
 H1848 H 0.67417 0.79145 1.09631
 H1849 H 0.70990 0.75426 1.03881
 H1850 H 0.74178 0.79372 1.03190
 H1851 H 0.72666 0.81058 1.08035
 H1852 H 0.73004 0.80723 1.05451
 C1853 C 0.20817 0.29733 1.07560
 C1854 C 0.21129 0.31309 1.08037
 C1855 C 0.20414 0.31916 1.09401
 C1856 C 0.19376 0.30970 1.10293
 C1857 C 0.19075 0.29409 1.09759
 N1858 N 0.19791 0.28842 1.08429
 C1859 C 0.21562 0.29006 1.06141
 N1860 N 0.20885 0.27694 1.05471
 C1861 C 0.21522 0.26929 1.04198
 C1862 C 0.22937 0.27470 1.03531
 C1863 C 0.23654 0.28821 1.04200
 C1864 C 0.22978 0.29586 1.05503
 H1865 H 0.20679 0.33130 1.09746
 H1866 H 0.18277 0.28633 1.10391
 H1867 H 0.20932 0.25887 1.03725
 H1868 H 0.24756 0.29270 1.03738
 H1869 H 0.21897 0.32082 1.07362
 H1870 H 0.23591 0.30588 1.06023
 C1871 C 0.20605 0.79365 0.57513
 C1872 C 0.19482 0.78513 0.58392
 C1873 C 0.18854 0.79179 0.59767
 C1874 C 0.19339 0.80693 0.60287
 C1875 C 0.20492 0.81494 0.59394
 N1876 N 0.21089 0.80819 0.58051
 C1877 C 0.21310 0.78688 0.56053
 N1878 N 0.22791 0.79130 0.55622
 C1879 C 0.23536 0.78484 0.54342
 C1880 C 0.22790 0.77306 0.53424
 C1881 C 0.21244 0.76879 0.53814
 C1882 C 0.20498 0.77572 0.55115
 H1883 H 0.18001 0.78489 0.60426
 H1884 H 0.20909 0.82660 0.59749
 H1885 H 0.24725 0.78856 0.54075
 H1886 H 0.20613 0.75996 0.53124
 H1887 H 0.19111 0.77327 0.58048
 H1888 H 0.19300 0.77232 0.55378
 C1889 C 0.29197 0.70306 0.57587
 C1890 C 0.28430 0.69128 0.58488
 C1891 C 0.29144 0.68527 0.59855
 C1892 C 0.30620 0.69095 0.60346
 C1893 C 0.31340 0.70286 0.59424
 N1894 N 0.30621 0.70852 0.58092
 C1895 C 0.28482 0.71022 0.56141
 N1896 N 0.29059 0.72437 0.55597
 C1897 C 0.28443 0.73202 0.54314
 C1898 C 0.27153 0.72551 0.53499
 C1899 C 0.26562 0.71075 0.54012
 C1900 C 0.27227 0.70303 0.55320
 H1901 H 0.28522 0.67631 0.60533
 H1902 H 0.32475 0.70766 0.59750
 H1903 H 0.28942 0.74335 0.53955
 H1904 H 0.25580 0.70520 0.53407
 H1905 H 0.27276 0.68691 0.58177
 H1906 H 0.26758 0.69155 0.55666
 C1907 C 0.29578 0.20745 1.07539
 C1908 C 0.30718 0.21574 1.08420
 C1909 C 0.31336 0.20891 1.09795
 C1910 C 0.30820 0.19387 1.10312
 C1911 C 0.29658 0.18608 1.09413
 N1912 N 0.29074 0.19298 1.08071
 C1913 C 0.28867 0.21433 1.06084
 N1914 N 0.27407 0.20947 1.05627
 C1915 C 0.26654 0.21583 1.04347
 C1916 C 0.27370 0.22798 1.03453
 C1917 C 0.28895 0.23275 1.03869
 C1918 C 0.29650 0.22591 1.05171
 H1919 H 0.32203 0.21559 1.10459
 H1920 H 0.29218 0.17449 1.09762
 H1921 H 0.25483 0.21172 1.04059
 H1922 H 0.29502 0.24190 1.03197
 H1923 H 0.31110 0.22754 1.08081
 H1924 H 0.30833 0.22971 1.05450
 C1925 C 0.79444 0.70620 1.07403
 C1926 C 0.80611 0.71454 1.08240
 C1927 C 0.81248 0.70797 1.09617
 C1928 C 0.80725 0.69312 1.10181
 C1929 C 0.79534 0.68527 1.09329
 N1930 N 0.78930 0.69193 1.07982
 C1931 C 0.78717 0.71290 1.05947
 N1932 N 0.77227 0.70850 1.05547
 C1933 C 0.76462 0.71483 1.04272
 C1934 C 0.77196 0.72646 1.03326
 C1935 C 0.78749 0.73075 1.03685
 C1936 C 0.79516 0.72393 1.04982
 H1937 H 0.82133 0.71472 1.10249
 H1938 H 0.79091 0.67382 1.09719
 H1939 H 0.75267 0.71114 1.04030
 H1940 H 0.79369 0.73946 1.02970
 H1941 H 0.81009 0.72622 1.07865
 H1942 H 0.80720 0.72731 1.05218
 C1943 C 0.79595 0.20795 0.57381
 C1944 C 0.81144 0.21139 0.57845
 C1945 C 0.81761 0.20431 0.59208
 C1946 C 0.80854 0.19367 0.60115
 C1947 C 0.79325 0.19019 0.59587
 N1948 N 0.78744 0.19734 0.58257
 C1949 C 0.78855 0.21550 0.55970
 N1950 N 0.77539 0.20874 0.55341
 C1951 C 0.76763 0.21517 0.54080
 C1952 C 0.77299 0.22939 0.53380
 C1953 C 0.78654 0.23656 0.54005
 C1954 C 0.79429 0.22974 0.55299
 H1955 H 0.82955 0.20722 0.59538
 H1956 H 0.78582 0.18200 0.60236
 H1957 H 0.75718 0.20928 0.53641
 H1958 H 0.79102 0.24762 0.53514
 H1959 H 0.81890 0.21928 0.57165
 H1960 H 0.80438 0.23590 0.55782
 C1961 C 0.70848 0.70247 0.42579
 C1962 C 0.71592 0.69008 0.41740
 C1963 C 0.70896 0.68398 0.40367
 C1964 C 0.69465 0.69021 0.39811
 C1965 C 0.68762 0.70261 0.40680
 N1966 N 0.69462 0.70835 0.42016
 C1967 C 0.71550 0.70993 0.44013
 N1968 N 0.71018 0.72454 0.44476
 C1969 C 0.71628 0.73249 0.45742
 C1970 C 0.72863 0.72578 0.46626
 C1971 C 0.73406 0.71056 0.46197
 C1972 C 0.72750 0.70256 0.44902
 H1973 H 0.71500 0.67460 0.39728
 H1974 H 0.67656 0.70777 0.40307
 H1975 H 0.71168 0.74418 0.46034
 H1976 H 0.74346 0.70486 0.46856
 H1977 H 0.72718 0.68533 0.42102
 H1978 H 0.73181 0.69076 0.44619
 C1979 C 0.70750 0.20246 -0.07449
 C1980 C 0.71488 0.19007 -0.08294
 C1981 C 0.70789 0.18406 -0.09668
 C1982 C 0.69361 0.19038 -0.10221
 C1983 C 0.68667 0.20284 -0.09351
 N1984 N 0.69370 0.20848 -0.08011
 C1985 C 0.71457 0.20968 -0.06005
 N1986 N 0.70953 0.22438 -0.05531
 C1987 C 0.71579 0.23208 -0.04256
 C1988 C 0.72802 0.22504 -0.03381
 C1989 C 0.73311 0.20974 -0.03820
 C1990 C 0.72637 0.20198 -0.05119
 H1991 H 0.71388 0.17466 -0.10308
 H1992 H 0.67566 0.20809 -0.09725
 H1993 H 0.71146 0.24386 -0.03955
 H1994 H 0.74237 0.20377 -0.03166
 H1995 H 0.72612 0.18524 -0.07935
 H1996 H 0.73041 0.19010 -0.05408
 C1997 C 0.20375 0.70818 -0.07485
 C1998 C 0.19146 0.71580 -0.08306
 C1999 C 0.18520 0.70877 -0.09667
 C2000 C 0.19113 0.69420 -0.10236
 C2001 C 0.20353 0.68704 -0.09394
 N2002 N 0.20943 0.69411 -0.08064
 C2003 C 0.21117 0.71526 -0.06049
 N2004 N 0.22539 0.70958 -0.05564
 C2005 C 0.23325 0.71574 -0.04297
 C2006 C 0.22689 0.72859 -0.03439
 C2007 C 0.21208 0.73441 -0.03890
 C2008 C 0.20414 0.72773 -0.05179
 H2009 H 0.17583 0.71498 -0.10276
 H2010 H 0.20855 0.67584 -0.09782
 H2011 H 0.24462 0.71084 -0.03986
 H2012 H 0.20664 0.74417 -0.03249
 H2013 H 0.18682 0.72722 -0.07938
 H2014 H 0.19265 0.73236 -0.05473
 C2015 C 0.20483 0.20448 0.42645
 C2016 C 0.18877 0.20633 0.42305
 C2017 C 0.18255 0.19958 0.40929
 C2018 C 0.19218 0.19086 0.39889
 C2019 C 0.20804 0.18875 0.40302
 N2020 N 0.21390 0.19558 0.41647
 C2021 C 0.21213 0.21219 0.44046
 N2022 N 0.22527 0.20564 0.44706
 C2023 C 0.23277 0.21239 0.45968
 C2024 C 0.22719 0.22672 0.46627
 C2025 C 0.21371 0.23369 0.45959
 C2026 C 0.20620 0.22652 0.44673
 H2027 H 0.17015 0.20117 0.40688
 H2028 H 0.21589 0.18208 0.39539
 H2029 H 0.24319 0.20666 0.46439
 H2030 H 0.20910 0.24486 0.46411
 H2031 H 0.18102 0.21281 0.43094
 H2032 H 0.19614 0.23245 0.44151
 C2033 C 0.29779 0.42521 0.70957
 C2034 C 0.31108 0.41767 0.71614
 C2035 C 0.31725 0.40407 0.70888
 C2036 C 0.31031 0.39778 0.69509
 C2037 C 0.29715 0.40573 0.68882
 N2038 N 0.29132 0.41895 0.69613
 C2039 C 0.29017 0.43944 0.71687
 N2040 N 0.27666 0.44509 0.71020
 C2041 C 0.26857 0.45770 0.71628
 C2042 C 0.27390 0.46540 0.73007
 C2043 C 0.28791 0.46000 0.73704
 C2044 C 0.29609 0.44713 0.73050
 H2045 H 0.32746 0.39850 0.71418
 H2046 H 0.29131 0.40140 0.67826
 H2047 H 0.25783 0.46147 0.71048
 H2048 H 0.29252 0.46564 0.74765
 H2049 H 0.31673 0.42191 0.72681
 H2050 H 0.30681 0.44341 0.73627
 C2051 C 0.29683 0.92508 0.20714
 C2052 C 0.31197 0.91986 0.21137
 C2053 C 0.31823 0.90620 0.20428
 C2054 C 0.30959 0.89770 0.19284
 C2055 C 0.29468 0.90356 0.18862
 N2056 N 0.28878 0.91684 0.19579
 C2057 C 0.28925 0.93921 0.21460
 N2058 N 0.27646 0.94581 0.20737
 C2059 C 0.26848 0.95839 0.21366
 C2060 C 0.27318 0.96506 0.22822
 C2061 C 0.28636 0.95852 0.23587
 C2062 C 0.29438 0.94562 0.22916
 H2063 H 0.32988 0.90240 0.20777
 H2064 H 0.28756 0.89750 0.17986
 H2065 H 0.25835 0.96300 0.20737
 H2066 H 0.29034 0.96318 0.24718
 H2067 H 0.31910 0.92621 0.21992
 H2068 H 0.30416 0.94059 0.23565
 C2069 C 0.79830 0.42510 0.20836
 C2070 C 0.81342 0.41973 0.21245
 C2071 C 0.81941 0.40594 0.20537
 C2072 C 0.81049 0.39747 0.19414
 C2073 C 0.79556 0.40344 0.19015
 N2074 N 0.78995 0.41686 0.19726
 C2075 C 0.79107 0.43944 0.21567
 N2076 N 0.77871 0.44651 0.20814
 C2077 C 0.77099 0.45931 0.21430
 C2078 C 0.77552 0.46569 0.22904
 C2079 C 0.78827 0.45867 0.23699
 C2080 C 0.79604 0.44556 0.23040
 H2081 H 0.83108 0.40205 0.20868
 H2082 H 0.78821 0.39741 0.18156
 H2083 H 0.76119 0.46430 0.20777
 H2084 H 0.79206 0.46308 0.24847
 H2085 H 0.82072 0.42612 0.22082
 H2086 H 0.80546 0.44009 0.23709
 C2087 C 0.79849 0.92670 0.70821
 C2088 C 0.81298 0.92044 0.71332
 C2089 C 0.81900 0.90673 0.70613
 C2090 C 0.81076 0.89919 0.69376
 C2091 C 0.79652 0.90604 0.68876
 N2092 N 0.79085 0.91933 0.69603
 C2093 C 0.79100 0.94089 0.71562
 N2094 N 0.77787 0.94705 0.70863
 C2095 C 0.76983 0.95962 0.71482
 C2096 C 0.77484 0.96675 0.72904
 C2097 C 0.78840 0.96074 0.73641
 C2098 C 0.79648 0.94784 0.72981
 H2099 H 0.83010 0.90208 0.71035
 H2100 H 0.78973 0.90080 0.67924
 H2101 H 0.75941 0.96383 0.70874
 H2102 H 0.79265 0.96584 0.74743
 H2103 H 0.81978 0.92590 0.72270
 H2104 H 0.80663 0.94335 0.73608
 C2105 C 0.70770 0.57480 0.70384
 C2106 C 0.71552 0.58348 0.69194
 C2107 C 0.70865 0.59728 0.68577
 C2108 C 0.69405 0.60261 0.69144
 C2109 C 0.68671 0.59369 0.70349
 N2110 N 0.69363 0.58026 0.70931
 C2111 C 0.71460 0.56026 0.71109
 N2112 N 0.70975 0.55572 0.72585
 C2113 C 0.71593 0.54286 0.73352
 C2114 C 0.72784 0.53377 0.72634
 C2115 C 0.73266 0.53794 0.71093
 C2116 C 0.72603 0.55106 0.70325
 H2117 H 0.71495 0.60382 0.67670
 H2118 H 0.67546 0.59726 0.70828
 H2119 H 0.71180 0.54001 0.74535
 H2120 H 0.74166 0.53114 0.70485
 H2121 H 0.72698 0.57998 0.68762
 H2122 H 0.72984 0.55383 0.69130
 C2123 C 0.70155 0.07416 0.21039
 C2124 C 0.69011 0.08323 0.21837
 C2125 C 0.68386 0.09682 0.21110
 C2126 C 0.68899 0.10153 0.19594
 C2127 C 0.70047 0.09214 0.18841
 N2128 N 0.70638 0.07897 0.19573
 C2129 C 0.70909 0.05994 0.21764
 N2130 N 0.72315 0.05491 0.21173
 C2131 C 0.73109 0.04225 0.21791
 C2132 C 0.72495 0.03384 0.23094
 C2133 C 0.71031 0.03857 0.23700
 C2134 C 0.70231 0.05151 0.23036
 H2135 H 0.67518 0.10370 0.21753
 H2136 H 0.70484 0.09520 0.17674
 H2137 H 0.74232 0.03899 0.21282
 H2138 H 0.70504 0.03229 0.24692
 H2139 H 0.68623 0.08024 0.23023
 H2140 H 0.69093 0.05468 0.23513
 C2141 C 0.20690 0.57461 0.20375
 C2142 C 0.21479 0.58325 0.19187
 C2143 C 0.20807 0.59712 0.18573
 C2144 C 0.19351 0.60261 0.19139
 C2145 C 0.18605 0.59370 0.20338
 N2146 N 0.19285 0.58019 0.20919
 C2147 C 0.21379 0.56004 0.21099
 N2148 N 0.20928 0.55567 0.22592
 C2149 C 0.21564 0.54289 0.23359
 C2150 C 0.22742 0.53372 0.22627
 C2151 C 0.23187 0.53770 0.21071
 C2152 C 0.22504 0.55072 0.20301
 H2153 H 0.21448 0.60360 0.17671
 H2154 H 0.17484 0.59741 0.20817
 H2155 H 0.21178 0.54019 0.24555
 H2156 H 0.24074 0.53083 0.20451
 H2157 H 0.22624 0.57967 0.18758
 H2158 H 0.22858 0.55335 0.19095
 C2159 C 0.20213 0.07475 0.70964
 C2160 C 0.19059 0.08374 0.71755
 C2161 C 0.18437 0.09734 0.71031
 C2162 C 0.18964 0.10219 0.69525
 C2163 C 0.20130 0.09297 0.68781
 N2164 N 0.20716 0.07973 0.69508
 C2165 C 0.20951 0.06038 0.71684
 N2166 N 0.22349 0.05515 0.71090
 C2167 C 0.23128 0.04239 0.71706
 C2168 C 0.22510 0.03409 0.73015
 C2169 C 0.21052 0.03899 0.73624
 C2170 C 0.20265 0.05201 0.72957
 H2171 H 0.17560 0.10413 0.71671
 H2172 H 0.20576 0.09618 0.67620
 H2173 H 0.24247 0.03899 0.71195
 H2174 H 0.20522 0.03280 0.74619
 H2175 H 0.18657 0.08065 0.72934
 H2176 H 0.19132 0.05529 0.73438
 C2177 C 0.29847 0.57497 0.28975
 C2178 C 0.31070 0.58343 0.28229
 C2179 C 0.31689 0.59704 0.28955
 C2180 C 0.31092 0.60240 0.30417
 C2181 C 0.29868 0.59363 0.31118
 N2182 N 0.29287 0.58041 0.30390
 C2183 C 0.29094 0.56067 0.28259
 N2184 N 0.27710 0.55547 0.28886
 C2185 C 0.26913 0.54276 0.28290
 C2186 C 0.27497 0.53444 0.26969
 C2187 C 0.28937 0.53934 0.26319
 C2188 C 0.29743 0.55234 0.26963
 H2189 H 0.32619 0.60345 0.28355
 H2190 H 0.29367 0.59717 0.32245
 H2191 H 0.25809 0.53937 0.28834
 H2192 H 0.29440 0.53316 0.25309
 H2193 H 0.31534 0.57993 0.27087
 H2194 H 0.30858 0.55563 0.26445
 C2195 C 0.29769 0.07486 0.79122
 C2196 C 0.31093 0.08245 0.78465
 C2197 C 0.31697 0.09614 0.79186
 C2198 C 0.30995 0.10243 0.80560
 C2199 C 0.29677 0.09449 0.81180
 N2200 N 0.29109 0.08117 0.80456
 C2201 C 0.29031 0.06044 0.78407
 N2202 N 0.27697 0.05459 0.79088
 C2203 C 0.26908 0.04180 0.78495
 C2204 C 0.27446 0.03411 0.77118
 C2205 C 0.28832 0.03970 0.76407
 C2206 C 0.29629 0.05277 0.77046
 H2207 H 0.32711 0.10176 0.78652
 H2208 H 0.29091 0.09878 0.82236
 H2209 H 0.25845 0.03788 0.79085
 H2210 H 0.29293 0.03409 0.75346
 H2211 H 0.31666 0.07818 0.77404
 H2212 H 0.30686 0.05666 0.76456
 C2213 C 0.79785 0.57452 0.79037
 C2214 C 0.80969 0.58325 0.78261
 C2215 C 0.81584 0.59692 0.78978
 C2216 C 0.81021 0.60206 0.80461
 C2217 C 0.79831 0.59305 0.81191
 N2218 N 0.79253 0.57977 0.80471
 C2219 C 0.79042 0.56017 0.78325
 N2220 N 0.77643 0.55510 0.78927
 C2221 C 0.76854 0.54236 0.78324
 C2222 C 0.77465 0.53389 0.77024
 C2223 C 0.78923 0.53864 0.76405
 C2224 C 0.79719 0.55167 0.77056
 H2225 H 0.82482 0.60354 0.78353
 H2226 H 0.79359 0.59645 0.82335
 H2227 H 0.75736 0.53908 0.78844
 H2228 H 0.79446 0.53234 0.75413
 H2229 H 0.81401 0.57993 0.77100
 H2230 H 0.80850 0.55485 0.76567
 C2231 C 0.79702 0.07406 0.29277
 C2232 C 0.80887 0.08256 0.28477
 C2233 C 0.81514 0.09634 0.29159
 C2234 C 0.80960 0.10185 0.30631
 C2235 C 0.79764 0.09310 0.31385
 N2236 N 0.79174 0.07969 0.30698
 C2237 C 0.78959 0.05957 0.28596
 N2238 N 0.77525 0.05493 0.29150
 C2239 C 0.76739 0.04214 0.28548
 C2240 C 0.77389 0.03325 0.27297
 C2241 C 0.78887 0.03751 0.26741
 C2242 C 0.79679 0.05052 0.27392
 H2243 H 0.82415 0.10275 0.28515
 H2244 H 0.79294 0.09682 0.32519
 H2245 H 0.75590 0.03923 0.29018
 H2246 H 0.79444 0.03083 0.25794
 H2247 H 0.81310 0.07895 0.27320
 H2248 H 0.80839 0.05331 0.26951
 C2249 C 0.70341 0.42565 0.29093
 C2250 C 0.69207 0.41662 0.28281
 C2251 C 0.68600 0.40286 0.28981
 C2252 C 0.69120 0.39791 0.30488
 C2253 C 0.70265 0.40719 0.31256
 N2254 N 0.70840 0.42058 0.30548
 C2255 C 0.71071 0.44006 0.28384
 N2256 N 0.72477 0.44515 0.28967
 C2257 C 0.73259 0.45785 0.28344
 C2258 C 0.72635 0.46617 0.27039
 C2259 C 0.71167 0.46144 0.26445
 C2260 C 0.70377 0.44851 0.27119
 H2261 H 0.67742 0.39603 0.28321
 H2262 H 0.70705 0.40389 0.32417
 H2263 H 0.74384 0.46114 0.28846
 H2264 H 0.70632 0.46769 0.25455
 H2265 H 0.68812 0.41976 0.27100
 H2266 H 0.69236 0.44533 0.26650
 C2267 C 0.70641 0.92597 0.79436
 C2268 C 0.71416 0.91737 0.80637
 C2269 C 0.70726 0.90367 0.81263
 C2270 C 0.69268 0.89831 0.80694
 C2271 C 0.68543 0.90705 0.79470
 N2272 N 0.69238 0.92045 0.78880
 C2273 C 0.71338 0.94053 0.78721
 N2274 N 0.70904 0.94494 0.77224
 C2275 C 0.71546 0.95777 0.76470
 C2276 C 0.72711 0.96693 0.77224
 C2277 C 0.73137 0.96290 0.78785
 C2278 C 0.72449 0.94984 0.79539
 H2279 H 0.71353 0.89717 0.82176
 H2280 H 0.67420 0.90338 0.78991
 H2281 H 0.71175 0.96052 0.75270
 H2282 H 0.74013 0.96976 0.79422
 H2283 H 0.72562 0.92087 0.81071
 H2284 H 0.72788 0.94718 0.80749
 C2285 C 0.20034 0.42480 0.79019
 C2286 C 0.18853 0.41596 0.78248
 C2287 C 0.18251 0.40225 0.78970
 C2288 C 0.18823 0.39719 0.80453
 C2289 C 0.20004 0.40634 0.81180
 N2290 N 0.20569 0.41964 0.80455
 C2291 C 0.20775 0.43916 0.78308
 N2292 N 0.22128 0.44473 0.78973
 C2293 C 0.22920 0.45749 0.78383
 C2294 C 0.22365 0.46545 0.77026
 C2295 C 0.20955 0.46018 0.76338
 C2296 C 0.20152 0.44714 0.76977
 H2297 H 0.17354 0.39556 0.78350
 H2298 H 0.20483 0.40304 0.82324
 H2299 H 0.24000 0.46117 0.78956
 H2300 H 0.20476 0.46608 0.75299
 H2301 H 0.18411 0.41923 0.77088
 H2302 H 0.19061 0.44355 0.76428
 C2303 C 0.20010 0.92465 0.28920
 C2304 C 0.18668 0.91707 0.28299
 C2305 C 0.18085 0.90337 0.29037
 C2306 C 0.18824 0.89712 0.30395
 C2307 C 0.20155 0.90508 0.30980
 N2308 N 0.20703 0.91837 0.30239
 C2309 C 0.20736 0.93902 0.28191
 N2310 N 0.22050 0.94515 0.28887
 C2311 C 0.22837 0.95789 0.28285
 C2312 C 0.22319 0.96524 0.26881
 C2313 C 0.20954 0.95936 0.26152
 C2314 C 0.20159 0.94631 0.26799
 H2315 H 0.17055 0.89773 0.28535
 H2316 H 0.20771 0.90083 0.32021
 H2317 H 0.23883 0.96203 0.28890
 H2318 H 0.20511 0.96470 0.25068
 H2319 H 0.18064 0.92142 0.27258
 H2320 H 0.19123 0.94209 0.26191
 C2321 C 0.42604 0.29523 0.70586
 C2322 C 0.41760 0.30718 0.71389
 C2323 C 0.40390 0.31333 0.70721
 C2324 C 0.39836 0.30760 0.69256
 C2325 C 0.40705 0.29553 0.68495
 N2326 N 0.42043 0.28971 0.69172
 C2327 C 0.44046 0.28805 0.71276
 N2328 N 0.44469 0.27295 0.70847
 C2329 C 0.45730 0.26535 0.71498
 C2330 C 0.46639 0.27293 0.72669
 C2331 C 0.46256 0.28867 0.73086
 C2332 C 0.44973 0.29629 0.72388
 H2333 H 0.39756 0.32238 0.71375
 H2334 H 0.40328 0.29070 0.67367
 H2335 H 0.45992 0.25324 0.71133
 H2336 H 0.46938 0.29508 0.73966
 H2337 H 0.42122 0.31150 0.72543
 H2338 H 0.44720 0.30848 0.72722
 C2339 C 0.42627 0.79595 0.20840
 C2340 C 0.41732 0.80746 0.21650
 C2341 C 0.40359 0.81337 0.20962
 C2342 C 0.39859 0.80786 0.19469
 C2343 C 0.40778 0.79620 0.18706
 N2344 N 0.42114 0.79060 0.19402
 C2345 C 0.44074 0.78899 0.21537
 N2346 N 0.44553 0.77424 0.21053
 C2347 C 0.45829 0.76680 0.21690
 C2348 C 0.46700 0.77419 0.22902
 C2349 C 0.46258 0.78960 0.23380
 C2350 C 0.44957 0.79706 0.22697
 H2351 H 0.39686 0.82212 0.21617
 H2352 H 0.40445 0.79151 0.17558
 H2353 H 0.46134 0.75495 0.21278
 H2354 H 0.46907 0.79585 0.24296
 H2355 H 0.42057 0.81164 0.22821
 H2356 H 0.44657 0.80901 0.23079
 C2357 C 0.92567 0.29023 0.20230
 C2358 C 0.91740 0.28284 0.18985
 C2359 C 0.90382 0.28997 0.18385
 C2360 C 0.89827 0.30441 0.19020
 C2361 C 0.90678 0.31135 0.20272
 N2362 N 0.92002 0.30419 0.20835
 C2363 C 0.93999 0.28312 0.20954
 N2364 N 0.94529 0.28921 0.22357
 C2365 C 0.95798 0.28313 0.23133
 C2366 C 0.96610 0.26996 0.22508
 C2367 C 0.96111 0.26370 0.21047
 C2368 C 0.94819 0.27028 0.20262
 H2369 H 0.89764 0.28396 0.17435
 H2370 H 0.90301 0.32245 0.20805
 H2371 H 0.96146 0.28839 0.24254
 H2372 H 0.96713 0.25365 0.20513
 H2373 H 0.92101 0.27155 0.18486
 H2374 H 0.94485 0.26525 0.19129
 C2375 C 0.92531 0.79515 0.70564
 C2376 C 0.91636 0.80634 0.71413
 C2377 C 0.90266 0.81249 0.70745
 C2378 C 0.89767 0.80753 0.69233
 C2379 C 0.90681 0.79607 0.68433
 N2380 N 0.92017 0.79023 0.69111
 C2381 C 0.93983 0.78812 0.71244
 N2382 N 0.94452 0.77333 0.70764
 C2383 C 0.95726 0.76585 0.71402
 C2384 C 0.96601 0.77325 0.72612
 C2385 C 0.96171 0.78871 0.73081
 C2386 C 0.94875 0.79621 0.72396
 H2387 H 0.89597 0.82101 0.71432
 H2388 H 0.90343 0.79178 0.67271
 H2389 H 0.96024 0.75397 0.70996
 H2390 H 0.96826 0.79498 0.73992
 H2391 H 0.91961 0.81011 0.72598
 H2392 H 0.94582 0.80820 0.72771
 C2393 C 0.57391 0.29735 0.29037
 C2394 C 0.58311 0.30856 0.28216
 C2395 C 0.59677 0.31446 0.28916
 C2396 C 0.60143 0.30922 0.30430
 C2397 C 0.59198 0.29790 0.31206
 N2398 N 0.57870 0.29232 0.30499
 C2399 C 0.55960 0.29019 0.28331
 N2400 N 0.55443 0.27594 0.28906
 C2401 C 0.54178 0.26825 0.28286
 C2402 C 0.53357 0.27485 0.26994
 C2403 C 0.53841 0.28975 0.26410
 C2404 C 0.55131 0.29750 0.27080
 H2405 H 0.60375 0.32294 0.28252
 H2406 H 0.59504 0.29349 0.32374
 H2407 H 0.53840 0.25681 0.28779
 H2408 H 0.53228 0.29537 0.25429
 H2409 H 0.58014 0.31250 0.27029
 H2410 H 0.55462 0.30907 0.26619
 C2411 C 0.57397 0.79778 0.79235
 C2412 C 0.57908 0.81327 0.78853
 C2413 C 0.59270 0.81932 0.79556
 C2414 C 0.60125 0.81010 0.80652
 C2415 C 0.59550 0.79485 0.81034
 N2416 N 0.58226 0.78917 0.80325
 C2417 C 0.55988 0.79046 0.78489
 N2418 N 0.55290 0.77779 0.79221
 C2419 C 0.54029 0.77007 0.78590
 C2420 C 0.53401 0.77491 0.77122
 C2421 C 0.54100 0.78795 0.76346
 C2422 C 0.55391 0.79570 0.77020
 H2423 H 0.59644 0.83127 0.79246
 H2424 H 0.60164 0.78727 0.81871
 H2425 H 0.53534 0.76003 0.79226
 H2426 H 0.53669 0.79198 0.75202
 H2427 H 0.57264 0.82080 0.78036
 H2428 H 0.55933 0.80533 0.76364
 C2429 C 0.07375 0.29018 0.79894
 C2430 C 0.08252 0.28208 0.81059
 C2431 C 0.09623 0.28897 0.81657
 C2432 C 0.10138 0.30388 0.81096
 C2433 C 0.09227 0.31156 0.79930
 N2434 N 0.07897 0.30460 0.79365
 C2435 C 0.05946 0.28327 0.79157
 N2436 N 0.05459 0.28913 0.77729
 C2437 C 0.04194 0.28318 0.76941
 C2438 C 0.03337 0.27040 0.77584
 C2439 C 0.03789 0.26442 0.79074
 C2440 C 0.05084 0.27085 0.79868
 H2441 H 0.10287 0.28245 0.82540
 H2442 H 0.09565 0.32306 0.79457
 H2443 H 0.03884 0.28821 0.75798
 H2444 H 0.03149 0.25470 0.79623
 H2445 H 0.07918 0.27038 0.81483
 H2446 H 0.05389 0.26614 0.81024
 C2447 C 0.07440 0.78962 0.29919
 C2448 C 0.08350 0.78134 0.31044
 C2449 C 0.09714 0.78835 0.31648
 C2450 C 0.10185 0.80356 0.31132
 C2451 C 0.09241 0.81142 0.30005
 N2452 N 0.07921 0.80434 0.29434
 C2453 C 0.06021 0.78261 0.29174
 N2454 N 0.05514 0.78873 0.27764
 C2455 C 0.04258 0.78269 0.26968
 C2456 C 0.03431 0.76957 0.27584
 C2457 C 0.03904 0.76332 0.29057
 C2458 C 0.05190 0.76983 0.29859
 H2459 H 0.10407 0.78168 0.32498
 H2460 H 0.09545 0.82316 0.29570
 H2461 H 0.03929 0.78796 0.25841
 H2462 H 0.03288 0.75333 0.29585
 H2463 H 0.08049 0.76942 0.31430
 H2464 H 0.05513 0.76490 0.31000
 C2465 C 0.57420 0.70232 0.70997
 C2466 C 0.58270 0.68997 0.71738
 C2467 C 0.59631 0.68404 0.71023
 C2468 C 0.60165 0.69035 0.69574
 C2469 C 0.59286 0.70271 0.68875
 N2470 N 0.57963 0.70827 0.69594
 C2471 C 0.55988 0.70961 0.71706
 N2472 N 0.55425 0.72339 0.71057
 C2473 C 0.54153 0.73122 0.71651
 C2474 C 0.53368 0.72530 0.72995
 C2475 C 0.53901 0.71093 0.73664
 C2476 C 0.55199 0.70301 0.73022
 H2477 H 0.60269 0.67462 0.71622
 H2478 H 0.59640 0.70800 0.67759
 H2479 H 0.53782 0.74223 0.71091
 H2480 H 0.53323 0.70586 0.74694
 H2481 H 0.57923 0.68502 0.72870
 H2482 H 0.55562 0.69191 0.73563
 C2483 C 0.57407 0.20779 0.20257
 C2484 C 0.58260 0.21577 0.19067
 C2485 C 0.59628 0.20891 0.18460
 C2486 C 0.60166 0.19414 0.19036
 C2487 C 0.59284 0.18659 0.20232
 N2488 N 0.57953 0.19352 0.20806
 C2489 C 0.55972 0.21476 0.20980
 N2490 N 0.55528 0.20989 0.22460
 C2491 C 0.54262 0.21618 0.23225
 C2492 C 0.53363 0.22824 0.22504
 C2493 C 0.53771 0.23309 0.20961
 C2494 C 0.55062 0.22634 0.20193
 H2495 H 0.60272 0.21538 0.17559
 H2496 H 0.59645 0.17521 0.20717
 H2497 H 0.53986 0.21202 0.24411
 H2498 H 0.53098 0.24220 0.20349
 H2499 H 0.57909 0.22739 0.18632
 H2500 H 0.55332 0.23018 0.18997
 C2501 C 0.07457 0.70587 0.20510
 C2502 C 0.08298 0.71414 0.19334
 C2503 C 0.09661 0.70747 0.18702
 C2504 C 0.10207 0.69260 0.19239
 C2505 C 0.09351 0.68483 0.20439
 N2506 N 0.08019 0.69157 0.21037
 C2507 C 0.06012 0.71262 0.21231
 N2508 N 0.05589 0.70805 0.22726
 C2509 C 0.04321 0.71438 0.23488
 C2510 C 0.03406 0.72619 0.22746
 C2511 C 0.03789 0.73067 0.21187
 C2512 C 0.05077 0.72385 0.20423
 H2513 H 0.10296 0.71416 0.17809
 H2514 H 0.09727 0.67336 0.20894
 H2515 H 0.04062 0.71055 0.24688
 H2516 H 0.03098 0.73953 0.20560
 H2517 H 0.07938 0.72583 0.18925
 H2518 H 0.05329 0.72737 0.19213
 C2519 C 0.07346 0.20745 0.70468
 C2520 C 0.08206 0.21574 0.69306
 C2521 C 0.09581 0.20909 0.68696
 C2522 C 0.10121 0.19422 0.69241
 C2523 C 0.09234 0.18637 0.70416
 N2524 N 0.07894 0.19310 0.70992
 C2525 C 0.05898 0.21418 0.71187
 N2526 N 0.05431 0.20891 0.72646
 C2527 C 0.04160 0.21510 0.73413
 C2528 C 0.03288 0.22751 0.72718
 C2529 C 0.03714 0.23270 0.71192
 C2530 C 0.05005 0.22602 0.70420
 H2531 H 0.10223 0.21578 0.67809
 H2532 H 0.09599 0.17493 0.70883
 H2533 H 0.03864 0.21065 0.74584
 H2534 H 0.03058 0.24206 0.70598
 H2535 H 0.07854 0.22743 0.68893
 H2536 H 0.05288 0.23016 0.69237
 C2537 C 0.42574 0.70986 0.29833
 C2538 C 0.41676 0.71783 0.30990
 C2539 C 0.40314 0.71071 0.31579
 C2540 C 0.39826 0.69572 0.31018
 C2541 C 0.40748 0.68822 0.29851
 N2542 N 0.42073 0.69539 0.29297
 C2543 C 0.44010 0.71695 0.29123
 N2544 N 0.44542 0.71101 0.27716
 C2545 C 0.45819 0.71709 0.26956
 C2546 C 0.46640 0.73007 0.27607
 C2547 C 0.46140 0.73614 0.29076
 C2548 C 0.44836 0.72958 0.29842
 H2549 H 0.39635 0.71713 0.32458
 H2550 H 0.40427 0.67667 0.29380
 H2551 H 0.46166 0.71198 0.25828
 H2552 H 0.46750 0.74603 0.29630
 H2553 H 0.41989 0.72957 0.31418
 H2554 H 0.44497 0.73438 0.30984
 C2555 C 0.42515 0.20903 0.79723
 C2556 C 0.41630 0.21716 0.80876
 C2557 C 0.40272 0.21015 0.81488
 C2558 C 0.39778 0.19509 0.80952
 C2559 C 0.40686 0.18743 0.79785
 N2560 N 0.42007 0.19450 0.79208
 C2561 C 0.43946 0.21603 0.78995
 N2562 N 0.44456 0.21013 0.77578
 C2563 C 0.45726 0.21619 0.76804
 C2564 C 0.46561 0.22910 0.77450
 C2565 C 0.46083 0.23512 0.78928
 C2566 C 0.44788 0.22858 0.79709
 H2567 H 0.39604 0.21671 0.82364
 H2568 H 0.40358 0.17583 0.79331
 H2569 H 0.46057 0.21112 0.75669
 H2570 H 0.46707 0.24494 0.79480
 H2571 H 0.41947 0.22896 0.81285
 H2572 H 0.44468 0.23332 0.80859
 C2573 C 0.92526 0.70877 0.79626
 C2574 C 0.91629 0.71699 0.80764
 C2575 C 0.90274 0.70996 0.81379
 C2576 C 0.89795 0.69478 0.80861
 C2577 C 0.90714 0.68704 0.79708
 N2578 N 0.92032 0.69413 0.79128
 C2579 C 0.93954 0.71580 0.78897
 N2580 N 0.94458 0.71002 0.77473
 C2581 C 0.95723 0.71616 0.76698
 C2582 C 0.96559 0.72904 0.77351
 C2583 C 0.96089 0.73491 0.78838
 C2584 C 0.94799 0.72828 0.79619
 H2585 H 0.89595 0.71658 0.82242
 H2586 H 0.90397 0.67534 0.79270
 H2587 H 0.96049 0.71121 0.75557
 H2588 H 0.96714 0.74468 0.79396
 H2589 H 0.91937 0.72887 0.81157
 H2590 H 0.94482 0.73290 0.80775
 C2591 C 0.92557 0.20820 0.29678
 C2592 C 0.91643 0.21661 0.30789
 C2593 C 0.90279 0.20967 0.31396
 C2594 C 0.89805 0.19442 0.30897
 C2595 C 0.90739 0.18649 0.29769
 N2596 N 0.92067 0.19349 0.29197
 C2597 C 0.93999 0.21511 0.28958
 N2598 N 0.94540 0.20889 0.27567
 C2599 C 0.95816 0.21488 0.26798
 C2600 C 0.96626 0.22808 0.27421
 C2601 C 0.96119 0.23441 0.28877
 C2602 C 0.94818 0.22792 0.29653
 H2603 H 0.89587 0.21644 0.32237
 H2604 H 0.90426 0.17473 0.29346
 H2605 H 0.96171 0.20955 0.25683
 H2606 H 0.96721 0.24446 0.29411
 H2607 H 0.91943 0.22855 0.31167
 H2608 H 0.94472 0.23294 0.30784
 C2609 C 0.29319 0.29498 0.57511
 C2610 C 0.28557 0.30725 0.58351
 C2611 C 0.29247 0.31350 0.59719
 C2612 C 0.30688 0.30753 0.60273
 C2613 C 0.31401 0.29509 0.59415
 N2614 N 0.30708 0.28922 0.58078
 C2615 C 0.28622 0.28772 0.56065
 N2616 N 0.29080 0.27277 0.55623
 C2617 C 0.28446 0.26510 0.54349
 C2618 C 0.27262 0.27245 0.53442
 C2619 C 0.26809 0.28804 0.53846
 C2620 C 0.27490 0.29573 0.55143
 H2621 H 0.28630 0.32281 0.60354
 H2622 H 0.32512 0.29007 0.59793
 H2623 H 0.28839 0.25312 0.54072
 H2624 H 0.25918 0.29427 0.53166
 H2625 H 0.27423 0.31181 0.57990
 H2626 H 0.27130 0.30783 0.55406
 C2627 C 0.29810 0.79201 0.07406
 C2628 C 0.31370 0.78887 0.07855
 C2629 C 0.31979 0.79586 0.09227
 C2630 C 0.31047 0.80608 0.10158
 C2631 C 0.29506 0.80925 0.09643
 N2632 N 0.28937 0.80223 0.08304
 C2633 C 0.29085 0.78454 0.05987
 N2634 N 0.27833 0.79185 0.05286
 C2635 C 0.27072 0.78547 0.04014
 C2636 C 0.27551 0.77072 0.03383
 C2637 C 0.28839 0.76298 0.04087
 C2638 C 0.29606 0.76980 0.05386
 H2639 H 0.33184 0.79330 0.09548
 H2640 H 0.28742 0.81705 0.10314
 H2641 H 0.26080 0.79183 0.03514
 H2642 H 0.29236 0.75148 0.03654
 H2643 H 0.32125 0.78127 0.07149
 H2644 H 0.30560 0.76330 0.05937
 C2645 C 0.79429 0.29356 0.07434
 C2646 C 0.80587 0.28528 0.08292
 C2647 C 0.81210 0.29199 0.09666
 C2648 C 0.80684 0.30690 0.10208
 C2649 C 0.79495 0.31465 0.09340
 N2650 N 0.78905 0.30787 0.07994
 C2651 C 0.78726 0.28671 0.05974
 N2652 N 0.77240 0.29098 0.05546
 C2653 C 0.76495 0.28440 0.04273
 C2654 C 0.77245 0.27259 0.03361
 C2655 C 0.78797 0.26847 0.03746
 C2656 C 0.79544 0.27557 0.05037
 H2657 H 0.82090 0.28528 0.10313
 H2658 H 0.79047 0.32613 0.09716
 H2659 H 0.75302 0.28802 0.04007
 H2660 H 0.79431 0.25965 0.03056
 H2661 H 0.80989 0.27357 0.07936
 H2662 H 0.80748 0.27230 0.05292
 C2663 C 0.79133 0.79800 0.57449
 C2664 C 0.78340 0.80946 0.58367
 C2665 C 0.79042 0.81539 0.59744
 C2666 C 0.80531 0.80994 0.60225
 C2667 C 0.81282 0.79844 0.59275
 N2668 N 0.80572 0.79282 0.57939
 C2669 C 0.78422 0.79073 0.56011
 N2670 N 0.78980 0.77638 0.55500
 C2671 C 0.78359 0.76859 0.54230
 C2672 C 0.77084 0.77517 0.53394
 C2673 C 0.76516 0.79015 0.53871
 C2674 C 0.77184 0.79800 0.55169
 H2675 H 0.78400 0.82409 0.60436
 H2676 H 0.82427 0.79382 0.59589
 H2677 H 0.78841 0.75710 0.53899
 H2678 H 0.75546 0.79576 0.53249
 H2679 H 0.77174 0.81357 0.58062
 H2680 H 0.76733 0.80962 0.55495
 C2681 C 0.29200 0.70295 0.42568
 C2682 C 0.28402 0.69139 0.41664
 C2683 C 0.29098 0.68528 0.40292
 C2684 C 0.30581 0.69068 0.39801
 C2685 C 0.31333 0.70236 0.40728
 N2686 N 0.30633 0.70811 0.42063
 C2687 C 0.28510 0.71019 0.44017
 N2688 N 0.29078 0.72448 0.44537
 C2689 C 0.28474 0.73216 0.45824
 C2690 C 0.27209 0.72551 0.46664
 C2691 C 0.26635 0.71059 0.46178
 C2692 C 0.27285 0.70285 0.44867
 H2693 H 0.28456 0.67650 0.39607
 H2694 H 0.32477 0.70691 0.40405
 H2695 H 0.28957 0.74362 0.46161
 H2696 H 0.25673 0.70492 0.46804
 H2697 H 0.27239 0.68730 0.41979
 H2698 H 0.26830 0.69127 0.44540
 C2699 C 0.29402 0.20700 0.92559
 C2700 C 0.30497 0.21557 0.91649
 C2701 C 0.31115 0.20881 0.90275
 C2702 C 0.30646 0.19352 0.89785
 C2703 C 0.29517 0.18547 0.90705
 N2704 N 0.28931 0.19232 0.92048
 C2705 C 0.28716 0.21384 0.94026
 N2706 N 0.27259 0.20911 0.94504
 C2707 C 0.26532 0.21558 0.95794
 C2708 C 0.27271 0.22770 0.96673
 C2709 C 0.28794 0.23231 0.96233
 C2710 C 0.29523 0.22535 0.94924
 H2711 H 0.31948 0.21573 0.89592
 H2712 H 0.29113 0.17370 0.90371
 H2713 H 0.25361 0.21159 0.96101
 H2714 H 0.29420 0.24141 0.96893
 H2715 H 0.30855 0.22754 0.91969
 H2716 H 0.30705 0.22902 0.94626
 C2717 C 0.79376 0.70598 0.92468
 C2718 C 0.80477 0.71464 0.91575
 C2719 C 0.81114 0.70797 0.90205
 C2720 C 0.80655 0.69269 0.89702
 C2721 C 0.79523 0.68453 0.90608
 N2722 N 0.78920 0.69129 0.91948
 C2723 C 0.78664 0.71272 0.93928
 N2724 N 0.77211 0.70771 0.94393
 C2725 C 0.76459 0.71405 0.95674
 C2726 C 0.77166 0.72633 0.96557
 C2727 C 0.78684 0.73124 0.96132
 C2728 C 0.79439 0.72441 0.94832
 H2729 H 0.81951 0.71496 0.89533
 H2730 H 0.79127 0.67276 0.90266
 H2731 H 0.75293 0.70982 0.95971
 H2732 H 0.79285 0.74048 0.96796
 H2733 H 0.80827 0.72661 0.91903
 H2734 H 0.80617 0.72831 0.94547
 C2735 C 0.79397 0.20686 0.42507
 C2736 C 0.80502 0.21544 0.41610
 C2737 C 0.81140 0.20865 0.40245
 C2738 C 0.80678 0.19335 0.39752
 C2739 C 0.79540 0.18530 0.40660
 N2740 N 0.78937 0.19216 0.41995
 C2741 C 0.78687 0.21369 0.43964
 N2742 N 0.77236 0.20869 0.44436
 C2743 C 0.76488 0.21508 0.45717
 C2744 C 0.77197 0.22740 0.46593
 C2745 C 0.78714 0.23229 0.46161
 C2746 C 0.79465 0.22541 0.44861
 H2747 H 0.81981 0.21556 0.39571
 H2748 H 0.79141 0.17351 0.40325
 H2749 H 0.75322 0.21088 0.46019
 H2750 H 0.79317 0.24156 0.46819
 H2751 H 0.80855 0.22741 0.41930
 H2752 H 0.80643 0.22930 0.44570
 C2753 C 0.70246 0.29198 0.42444
 C2754 C 0.69111 0.28378 0.41548
 C2755 C 0.68494 0.29081 0.40181
 C2756 C 0.69005 0.30596 0.39688
 C2757 C 0.70155 0.31369 0.40606
 N2758 N 0.70739 0.30659 0.41937
 C2759 C 0.70974 0.28494 0.43885
 N2760 N 0.72404 0.29043 0.44366
 C2761 C 0.73173 0.28427 0.45644
 C2762 C 0.72507 0.27171 0.46520
 C2763 C 0.71016 0.26614 0.46073
 C2764 C 0.70243 0.27276 0.44766
 H2765 H 0.67634 0.28418 0.39501
 H2766 H 0.70587 0.32537 0.40279
 H2767 H 0.74318 0.28897 0.45950
 H2768 H 0.70450 0.25660 0.46727
 H2769 H 0.68724 0.27191 0.41867
 H2770 H 0.69085 0.26839 0.44466
 C2771 C 0.70553 0.79480 0.92483
 C2772 C 0.71335 0.80680 0.91629
 C2773 C 0.70652 0.81307 0.90259
 C2774 C 0.69195 0.80740 0.89719
 C2775 C 0.68463 0.79516 0.90589
 N2776 N 0.69151 0.78924 0.91928
 C2777 C 0.71246 0.78759 0.93934
 N2778 N 0.70818 0.77252 0.94362
 C2779 C 0.71459 0.76491 0.95637
 C2780 C 0.72618 0.77246 0.96556
 C2781 C 0.73040 0.78817 0.96167
 C2782 C 0.72351 0.79580 0.94869
 H2783 H 0.71287 0.82218 0.89613
 H2784 H 0.67340 0.79038 0.90218
 H2785 H 0.71095 0.75281 0.95901
 H2786 H 0.73909 0.79454 0.96861
 H2787 H 0.72480 0.81113 0.91984
 H2788 H 0.72683 0.80800 0.94614
 C2789 C 0.20777 0.29721 0.92636
 C2790 C 0.21501 0.30972 0.91797
 C2791 C 0.20800 0.31565 0.90419
 C2792 C 0.19386 0.30913 0.89857
 C2793 C 0.18706 0.29657 0.90723
 N2794 N 0.19409 0.29101 0.92066
 C2795 C 0.21485 0.29004 0.94083
 N2796 N 0.20991 0.27532 0.94559
 C2797 C 0.21622 0.26765 0.95835
 C2798 C 0.22841 0.27476 0.96707
 C2799 C 0.23339 0.29010 0.96267
 C2800 C 0.22659 0.29782 0.94969
 H2801 H 0.21389 0.32515 0.89783
 H2802 H 0.17615 0.29116 0.90342
 H2803 H 0.21197 0.25586 0.96138
 H2804 H 0.24262 0.29611 0.96920
 H2805 H 0.22614 0.31471 0.92162
 H2806 H 0.23056 0.30972 0.94679
 C2807 C 0.20943 0.79752 0.42591
 C2808 C 0.21513 0.81155 0.41875
 C2809 C 0.20792 0.81743 0.40505
 C2810 C 0.19498 0.80949 0.39835
 C2811 C 0.18954 0.79562 0.40594
 N2812 N 0.19680 0.79009 0.41925
 C2813 C 0.21674 0.79017 0.44023
 N2814 N 0.21033 0.77648 0.44610
 C2815 C 0.21647 0.76857 0.45878
 C2816 C 0.23003 0.77431 0.46635
 C2817 C 0.23674 0.78852 0.46070
 C2818 C 0.23018 0.79648 0.44772
 H2819 H 0.21264 0.82814 0.39972
 H2820 H 0.17957 0.78908 0.40136
 H2821 H 0.21088 0.75766 0.46274
 H2822 H 0.24721 0.79340 0.46618
 H2823 H 0.22506 0.81805 0.42340
 H2824 H 0.23585 0.80726 0.44371
 C2825 C 0.70193 0.70981 0.57482
 C2826 C 0.69019 0.71778 0.58349
 C2827 C 0.68398 0.71072 0.59714
 C2828 C 0.68944 0.69577 0.60232
 C2829 C 0.70125 0.68824 0.59335
 N2830 N 0.70711 0.69536 0.58009
 C2831 C 0.70939 0.71685 0.56050
 N2832 N 0.72362 0.71113 0.55575
 C2833 C 0.73150 0.71718 0.54305
 C2834 C 0.72510 0.72989 0.53428
 C2835 C 0.71027 0.73573 0.53869
 C2836 C 0.70235 0.72921 0.55169
 H2837 H 0.67509 0.71714 0.60373
 H2838 H 0.70584 0.67671 0.59677
 H2839 H 0.74287 0.71224 0.54004
 H2840 H 0.70481 0.74540 0.53215
 H2841 H 0.68604 0.72951 0.58013
 H2842 H 0.69084 0.73382 0.55462
 C2843 C 0.70760 0.20265 0.07491
 C2844 C 0.71498 0.19018 0.08327
 C2845 C 0.70800 0.18405 0.09697
 C2846 C 0.69375 0.19034 0.10255
 C2847 C 0.68681 0.20289 0.09395
 N2848 N 0.69382 0.20864 0.08059
 C2849 C 0.71464 0.20993 0.06047
 N2850 N 0.70969 0.22469 0.05580
 C2851 C 0.71594 0.23241 0.04304
 C2852 C 0.72808 0.22531 0.03423
 C2853 C 0.73306 0.20994 0.03855
 C2854 C 0.72632 0.20217 0.05153
 H2855 H 0.71399 0.17459 0.10330
 H2856 H 0.67581 0.20812 0.09774
 H2857 H 0.71170 0.24423 0.04008
 H2858 H 0.74223 0.20391 0.03194
 H2859 H 0.72621 0.18538 0.07965
 H2860 H 0.73027 0.19024 0.05434
 C2861 C 0.20379 0.70800 0.07398
 C2862 C 0.18825 0.71143 0.07845
 C2863 C 0.18197 0.70441 0.09208
 C2864 C 0.19105 0.69389 0.10132
 C2865 C 0.20643 0.69050 0.09623
 N2866 N 0.21230 0.69754 0.08292
 C2867 C 0.21122 0.71540 0.05984
 N2868 N 0.22377 0.70801 0.05300
 C2869 C 0.23152 0.71429 0.04031
 C2870 C 0.22684 0.72901 0.03384
 C2871 C 0.21392 0.73684 0.04070
 C2872 C 0.20613 0.73013 0.05368
 H2873 H 0.16998 0.70722 0.09526
 H2874 H 0.21390 0.68245 0.10286
 H2875 H 0.24146 0.70787 0.03545
 H2876 H 0.21001 0.74831 0.03625
 H2877 H 0.18086 0.71925 0.07145
 H2878 H 0.19656 0.73671 0.05903
 C2879 C 0.20325 0.20754 0.57524
 C2880 C 0.19194 0.21587 0.58413
 C2881 C 0.18583 0.20906 0.59793
 C2882 C 0.19094 0.19397 0.60310
 C2883 C 0.20235 0.18606 0.59392
 N2884 N 0.20815 0.19296 0.58049
 C2885 C 0.21055 0.21447 0.56076
 N2886 N 0.22478 0.20883 0.55589
 C2887 C 0.23253 0.21500 0.54315
 C2888 C 0.22603 0.22777 0.53452
 C2889 C 0.21119 0.23347 0.53903
 C2890 C 0.20337 0.22681 0.55202
 H2891 H 0.17723 0.21582 0.60457
 H2892 H 0.20673 0.17445 0.59736
 H2893 H 0.24392 0.21017 0.54004
 H2894 H 0.20564 0.24315 0.53258
 H2895 H 0.18806 0.22771 0.58082
 H2896 H 0.19185 0.23132 0.55504
   
