data_POSCAR
  _audit_creation_date              2014-09-24
  _audit_creation_method            'ToBaCCo'
  _symmetry_space_group_name_H-M    'P1'
  _symmetry_Int_Tables_number       1
  _symmetry_cell_setting            triclinic
  loop_
  _symmetry_equiv_pos_as_xyz
 x,y,z
_cell_length_a 53.4367
_cell_length_b 56.0319
_cell_length_c 55.4758
_cell_angle_alpha 91.183100
_cell_angle_beta 88.245900
_cell_angle_gamma 87.267100
loop_
  _atom_site_label
  _atom_site_type_symbol
  _atom_site_fract_x
  _atom_site_fract_y
  _atom_site_fract_z
C1 C 0.75311 0.62579 1.02314
 C2 C 0.74409 0.36945 0.50799
 C3 C 0.24361 -0.13638 -0.00514
 C4 C 0.23995 0.10828 0.50530
 C5 C 0.15175 0.50325 0.24713
 C6 C -0.11098 0.02161 0.24230
 C7 C 0.37705 0.50502 0.74924
 C8 C 0.62384 0.99681 0.74834
 C9 C 0.01000 0.25862 -0.13803
 C10 C 0.50559 0.23847 0.13861
 C11 C 0.97742 0.74743 0.62911
 C12 C 0.50006 0.75525 0.37448
 C13 C 0.40520 -0.02258 0.26965
 H14 H 0.40729 -0.00414 0.27475
 C15 C 0.41975 -0.04038 0.28065
 H16 H 0.43315 -0.03532 0.29385
 C17 C 0.38458 -0.05175 0.24721
 H18 H 0.37011 -0.05626 0.23497
 C19 C 0.39879 -0.07009 0.25770
 H20 H 0.39517 -0.08849 0.25322
 N21 N 0.38780 -0.02848 0.25343
 C22 C 0.38133 0.03025 0.20945
 H23 H 0.37317 0.01928 0.19588
 C24 C 0.39095 0.05192 0.20276
 H25 H 0.39054 0.05694 0.18402
 C26 C 0.39076 0.03780 0.25024
 H27 H 0.38952 0.03281 0.26893
 C28 C 0.40066 0.05969 0.24429
 H29 H 0.40739 0.07113 0.25841
 Zn30 Zn 0.36478 -0.00459 0.24195
 N31 N 0.38135 0.02351 0.23287
 C32 C 0.32994 0.02630 0.26737
 N33 N 0.34175 0.00427 0.26753
 C34 C 0.34076 -0.00953 0.28741
 C35 C 0.32881 -0.00065 0.30873
 C36 C 0.31802 0.03595 0.28837
 C37 C 0.36421 -0.02638 0.19667
 C38 C 0.35463 -0.03726 0.17640
 C39 C 0.31283 -0.02952 0.19346
 C40 C 0.32330 -0.01866 0.21358
 N41 N 0.34863 -0.01748 0.21484
 H42 H 0.33124 0.03699 0.25141
 H43 H 0.35045 -0.02691 0.28719
 H44 H 0.32947 -0.01132 0.32477
 H45 H 0.30980 0.05400 0.28833
 H46 H 0.38427 -0.02526 0.19813
 H47 H 0.36750 -0.04421 0.16221
 H48 H 0.29271 -0.03090 0.19290
 H49 H 0.31127 -0.01154 0.22830
 C50 C 0.40044 0.06713 0.22031
 C51 C 0.41629 -0.06453 0.27503
 C52 C 0.32867 -0.03934 0.17472
 C53 C 0.31815 0.02273 0.30962
 C54 C 0.07139 1.01849 0.77721
 H55 H 0.06760 1.00259 0.78717
 C56 C 0.05858 1.04026 0.78351
 H57 H 0.04506 1.04109 0.79848
 C58 C 0.09463 1.03718 0.74647
 H59 H 0.10910 1.03624 0.73244
 C60 C 0.08242 1.05914 0.75218
 H61 H 0.08743 1.07472 0.74220
 N62 N 0.08918 1.01740 0.75906
 C63 C 0.10257 0.94351 0.73481
 H64 H 0.12278 0.94298 0.73583
 C65 C 0.09090 0.92439 0.72441
 H66 H 0.10222 0.90901 0.71761
 C67 C 0.06345 0.96479 0.74149
 H68 H 0.05300 0.98092 0.74751
 C69 C 0.05089 0.94583 0.73124
 H70 H 0.03076 0.94741 0.72944
 Zn71 Zn 0.10878 0.98885 0.75185
 N72 N 0.08889 0.96334 0.74273
 C73 C 0.12129 0.95978 0.79071
 N74 N 0.12733 0.98013 0.77942
 C75 C 0.14523 0.99416 0.78822
 C76 C 0.15862 0.98723 0.80850
 C77 C 0.13396 0.95234 0.81101
 C78 C 0.11645 0.99626 0.70361
 C79 C 0.12845 1.00193 0.68201
 C80 C 0.16763 1.00199 0.70258
 C81 C 0.15480 0.99611 0.72394
 N82 N 0.12952 0.99402 0.72415
 H83 H 0.10634 0.94932 0.78418
 H84 H 0.14924 1.01065 0.77941
 H85 H 0.17324 0.99827 0.81484
 H86 H 0.12847 0.93620 0.81973
 H87 H 0.09641 0.99426 0.70419
 H88 H 0.11749 1.00388 0.66601
 H89 H 0.18756 1.00459 0.70287
 H90 H 0.16495 0.99390 0.74034
 C91 C 0.06485 0.92564 0.72198
 C92 C 0.06451 1.06100 0.77118
 C93 C 0.15426 1.00552 0.68137
 C94 C 0.15324 0.96584 0.82001
 C95 C 0.57656 0.52141 0.27105
 H96 H 0.56443 0.50734 0.26614
 C97 C 0.56620 0.54300 0.28111
 H98 H 0.54612 0.54527 0.28420
 C99 C 0.61749 0.53562 0.27356
 H100 H 0.63751 0.53253 0.27071
 C101 C 0.60803 0.55726 0.28360
 H102 H 0.62091 0.57086 0.28821
 N103 N 0.60188 0.51797 0.26814
 C104 C 0.60477 0.45393 0.22531
 H105 H 0.62048 0.45977 0.21466
 C106 C 0.59298 0.43352 0.21801
 H107 H 0.60015 0.42416 0.20181
 C108 C 0.57895 0.45748 0.26076
 H109 H 0.57437 0.46634 0.27795
 C110 C 0.56610 0.43735 0.25378
 H111 H 0.55104 0.43150 0.26536
 Zn112 Zn 0.61908 0.48924 0.25716
 N113 N 0.59780 0.46541 0.24643
 C114 C 0.65054 0.45490 0.27869
 N115 N 0.63730 0.47601 0.28273
 C116 C 0.63523 0.48642 0.30511
 C117 C 0.64675 0.47556 0.32454
 C118 C 0.66234 0.44339 0.29765
 C119 C 0.62922 0.50998 0.21357
 C120 C 0.64322 0.51822 0.19414
 C121 C 0.68055 0.49999 0.21088
 C122 C 0.66583 0.49240 0.23032
 N123 N 0.64064 0.49755 0.23127
 H124 H 0.65146 0.44677 0.26081
 H125 H 0.62397 0.50276 0.30820
 H126 H 0.64425 0.48378 0.34234
 H127 H 0.67271 0.42654 0.29415
 H128 H 0.60919 0.51384 0.21484
 H129 H 0.63390 0.52848 0.18040
 H130 H 0.70063 0.49619 0.21040
 H131 H 0.67458 0.48273 0.24471
 C132 C 0.57329 0.42482 0.23222
 C133 C 0.58215 0.56098 0.28807
 C134 C 0.66920 0.51338 0.19275
 C135 C 0.66030 0.45363 0.32100
 C136 C 0.89366 0.48502 0.78627
 H137 H 0.89354 0.50294 0.79391
 C138 C 0.90928 0.46699 0.79561
 H139 H 0.92160 0.47141 0.81000
 C140 C 0.87706 0.45734 0.75894
 H141 H 0.86392 0.45330 0.74524
 C142 C 0.89216 0.43880 0.76785
 H143 H 0.89032 0.42084 0.76078
 N144 N 0.87807 0.47999 0.76810
 C145 C 0.85887 0.54429 0.72892
 H146 H 0.83974 0.54023 0.72531
 C147 C 0.86961 0.56328 0.71736
 H148 H 0.85848 0.57399 0.70523
 C149 C 0.89680 0.53472 0.74835
 H150 H 0.90757 0.52325 0.75994
 C151 C 0.90826 0.55382 0.73730
 H152 H 0.92774 0.55690 0.74056
 Zn153 Zn 0.85540 0.50409 0.75661
 N154 N 0.87243 0.53040 0.74408
 C155 C 0.82013 0.53620 0.78067
 N156 N 0.83307 0.51482 0.78230
 C157 C 0.83259 0.50240 0.80314
 C158 C 0.82031 0.51225 0.82389
 C159 C 0.80781 0.54679 0.80101
 C160 C 0.85324 0.48491 0.71096
 C161 C 0.84363 0.47290 0.69140
 C162 C 0.80294 0.47490 0.71187
 C163 C 0.81348 0.48666 0.73136
 N164 N 0.83835 0.49091 0.73066
 H165 H 0.82051 0.54574 0.76398
 H166 H 0.84277 0.48532 0.80404
 H167 H 0.82144 0.50282 0.84069
 H168 H 0.79879 0.56442 0.79975
 H169 H 0.87291 0.48869 0.71091
 H170 H 0.85593 0.46755 0.67615
 H171 H 0.78332 0.47087 0.71273
 H172 H 0.80206 0.49175 0.74724
 C173 C 0.89465 0.56813 0.72135
 C174 C 0.90850 0.44343 0.78651
 C175 C 0.81834 0.46740 0.69192
 C176 C 0.80862 0.53516 0.82316
 C177 C 0.28311 0.40422 -0.02798
 H178 H 0.28190 0.41217 -0.01008
 C179 C 0.29201 0.41744 -0.04720
 H180 H 0.29780 0.43544 -0.04388
 C181 C 0.27706 0.37123 -0.05426
 H182 H 0.27127 0.35313 -0.05676
 C183 C 0.28549 0.38396 -0.07407
 H184 H 0.28649 0.37551 -0.09183
 N185 N 0.27631 0.38139 -0.03174
 C186 C 0.23519 0.38547 0.03181
 H187 H 0.21984 0.37745 0.02301
 C188 C 0.23045 0.39874 0.05307
 H189 H 0.21140 0.40078 0.06031
 C190 C 0.27867 0.39151 0.03386
 H191 H 0.29747 0.38827 0.02632
 C192 C 0.27476 0.40496 0.05529
 H193 H 0.29057 0.41241 0.06401
 Zn194 Zn 0.26480 0.36306 -0.00576
 N195 N 0.25894 0.38235 0.02245
 C196 C 0.28569 0.32817 0.02309
 N197 N 0.28905 0.33911 0.00168
 C198 C 0.31048 0.33523 -0.01202
 C199 C 0.33010 0.32053 -0.00371
 C200 C 0.30489 0.31364 0.03219
 C201 C 0.21735 0.36483 -0.02452
 C202 C 0.19467 0.35646 -0.03199
 C203 C 0.20783 0.31704 -0.01894
 C204 C 0.23042 0.32616 -0.01184
 N205 N 0.23467 0.34970 -0.01472
 H206 H 0.26858 0.33185 0.03372
 H207 H 0.31290 0.34443 -0.02879
 H208 H 0.34756 0.31849 -0.01415
 H209 H 0.30247 0.30599 0.04984
 H210 H 0.22127 0.38346 -0.02657
 H211 H 0.18109 0.36876 -0.03981
 H212 H 0.20478 0.29820 -0.01693
 H213 H 0.24456 0.31443 -0.00418
 C214 C 0.25031 0.40888 0.06500
 C215 C 0.29344 0.40723 -0.07053
 C216 C 0.18976 0.33226 -0.02937
 C217 C 0.32764 0.31025 0.01901
 C218 C 0.79767 0.10377 1.01794
 H219 H 0.81138 0.11060 1.00557
 C220 C 0.80557 0.09413 1.03954
 H221 H 0.82532 0.09364 1.04345
 C222 C 0.75530 0.09741 1.02878
 H223 H 0.73564 0.09942 1.02477
 C224 C 0.76238 0.08789 1.05076
 H225 H 0.74814 0.08209 1.06334
 N226 N 0.77288 0.10536 1.01299
 C227 C 0.75613 0.10615 0.93784
 H228 H 0.76699 0.12128 0.93321
 C229 C 0.74559 0.09282 0.91956
 H230 H 0.74856 0.09779 0.90097
 C231 C 0.73715 0.08270 0.96772
 H232 H 0.73344 0.07918 0.98651
 C233 C 0.72621 0.06894 0.95002
 H234 H 0.71443 0.05466 0.95541
 Zn235 Zn 0.76178 0.12230 0.98576
 N236 N 0.75152 0.10110 0.96140
 C237 C 0.80817 0.12951 0.96237
 N238 N 0.78783 0.14088 0.97360
 C239 C 0.78619 0.16506 0.97647
 C240 C 0.80567 0.17877 0.96811
 C241 C 0.82807 0.14250 0.95376
 C242 C 0.71265 0.14276 0.98282
 C243 C 0.69056 0.15433 0.99202
 C244 C 0.71234 0.16478 1.02801
 C245 C 0.73409 0.15332 1.01799
 N246 N 0.73368 0.14208 0.99606
 H247 H 0.80890 0.11025 0.96016
 H248 H 0.76987 0.17375 0.98543
 H249 H 0.80417 0.19798 0.97083
 H250 H 0.84395 0.13315 0.94461
 H251 H 0.71274 0.13363 0.96546
 H252 H 0.67371 0.15398 0.98168
 H253 H 0.71269 0.17295 1.04585
 H254 H 0.75105 0.15241 1.02817
 C255 C 0.72994 0.07428 0.92560
 C256 C 0.78779 0.08642 1.05642
 C257 C 0.69012 0.16493 1.01516
 C258 C 0.82698 0.16748 0.95660
 C259 C 0.28923 0.60565 0.52549
 H260 H 0.30050 0.61016 0.50986
 C261 C 0.30035 0.59376 0.54458
 H262 H 0.32031 0.58943 0.54351
 C263 C 0.24969 0.60685 0.54613
 H264 H 0.22995 0.61210 0.54663
 C265 C 0.26000 0.59478 0.56555
 H266 H 0.24789 0.59052 0.58070
 N267 N 0.26439 0.61213 0.52670
 C268 C 0.22955 0.61971 0.45709
 H269 H 0.22443 0.63863 0.45773
 C270 C 0.22409 0.60593 0.43691
 H271 H 0.21454 0.61425 0.42208
 C272 C 0.24810 0.58582 0.47574
 H273 H 0.25765 0.57817 0.49087
 C274 C 0.24246 0.57123 0.45607
 H275 H 0.24760 0.55230 0.45613
 Zn276 Zn 0.25044 0.63015 0.50156
 N277 N 0.24185 0.60966 0.47575
 C278 C 0.27986 0.65272 0.46616
 N279 N 0.27470 0.65156 0.49027
 C280 C 0.28783 0.66424 0.50641
 C281 C 0.30675 0.67891 0.49841
 C282 C 0.29816 0.66743 0.45742
 C283 C 0.19824 0.63878 0.50860
 C284 C 0.17634 0.64942 0.51923
 C285 C 0.20159 0.67701 0.54055
 C286 C 0.22301 0.66586 0.52950
 N287 N 0.22102 0.64704 0.51392
 H288 H 0.27020 0.64201 0.45347
 H289 H 0.28411 0.66246 0.52554
 H290 H 0.31721 0.68874 0.51139
 H291 H 0.30206 0.66793 0.43816
 H292 H 0.19701 0.62332 0.49682
 H293 H 0.15849 0.64206 0.51536
 H294 H 0.20358 0.69188 0.55302
 H295 H 0.24125 0.67194 0.53379
 C296 C 0.23067 0.58143 0.43624
 C297 C 0.28573 0.58824 0.56506
 C298 C 0.17788 0.66860 0.53570
 C299 C 0.31188 0.68070 0.47358
 C300 C 0.76352 0.94173 0.46075
 H301 H 0.75767 0.94898 0.47835
 C302 C 0.77328 0.95673 0.44337
 H303 H 0.77496 0.97552 0.44763
 C304 C 0.76891 0.90841 0.43370
 H305 H 0.76732 0.88949 0.43018
 C306 C 0.77828 0.92279 0.41571
 H307 H 0.78416 0.91484 0.39837
 N308 N 0.76170 0.91803 0.45568
 C309 C 0.70821 0.91748 0.50635
 H310 H 0.69745 0.91055 0.49181
 C311 C 0.69581 0.92769 0.52675
 H312 H 0.67552 0.92864 0.52766
 C313 C 0.74767 0.92428 0.52294
 H314 H 0.76790 0.92240 0.52144
 C315 C 0.73600 0.93453 0.54382
 H316 H 0.74738 0.94031 0.55846
 Zn317 Zn 0.74910 0.89740 0.47915
 N318 N 0.73365 0.91538 0.50510
 C319 C 0.77266 0.86815 0.51314
 N320 N 0.77578 0.87786 0.49105
 C321 C 0.79802 0.87505 0.47847
 C322 C 0.81825 0.86225 0.48813
 C323 C 0.79251 0.85551 0.52364
 C324 C 0.71383 0.88536 0.44468
 C325 C 0.69514 0.87218 0.43462
 C326 C 0.69829 0.84500 0.46775
 C327 C 0.71718 0.85859 0.47708
 N328 N 0.72469 0.87825 0.46537
 H329 H 0.75493 0.87089 0.52298
 H330 H 0.80031 0.88295 0.46103
 H331 H 0.83567 0.86010 0.47766
 H332 H 0.78980 0.84880 0.54164
 H333 H 0.71919 0.90160 0.43621
 H334 H 0.68657 0.87825 0.41825
 H335 H 0.69255 0.82934 0.47718
 H336 H 0.72569 0.85356 0.49376
 C337 C 0.70972 0.93562 0.54617
 C338 C 0.78069 0.94720 0.42054
 C339 C 0.68717 0.85173 0.44617
 C340 C 0.81582 0.85255 0.51119
 C341 C -0.01026 0.29687 0.39912
 H342 H 0.00799 0.30443 0.39939
 C343 C -0.02989 0.30669 0.41398
 H344 H -0.02661 0.32174 0.42583
 C345 C -0.03702 0.26862 0.38271
 H346 H -0.04011 0.25438 0.36993
 C347 C -0.05703 0.27768 0.39741
 H348 H -0.07523 0.27018 0.39581
 N349 N -0.01416 0.27825 0.38379
 C350 C 0.05895 0.24446 0.36420
 H351 H 0.05805 0.24585 0.34482
 C352 C 0.07913 0.23201 0.37421
 H353 H 0.09393 0.22416 0.36239
 C354 C 0.04029 0.25262 0.40299
 H355 H 0.02475 0.26016 0.41403
 C356 C 0.06021 0.24022 0.41382
 H357 H 0.05982 0.23830 0.43321
 Zn358 Zn 0.01218 0.26732 0.36206
 N359 N 0.03995 0.25426 0.37856
 C360 C 0.04506 0.30184 0.34644
 N361 N 0.02179 0.29365 0.34357
 C362 C 0.00519 0.30491 0.32895
 C363 C 0.01216 0.32477 0.31582
 C364 C 0.05271 0.32160 0.33386
 C365 C -0.00447 0.22219 0.35486
 C366 C -0.01474 0.20298 0.34312
 C367 C -0.01126 0.22393 0.30559
 C368 C -0.00126 0.24302 0.31819
 N369 N 0.00118 0.24204 0.34253
 H370 H 0.05766 0.29333 0.35885
 H371 H -0.01346 0.29842 0.32745
 H372 H -0.00107 0.33323 0.30389
 H373 H 0.07122 0.32794 0.33681
 H374 H -0.00190 0.22175 0.37412
 H375 H -0.02024 0.18774 0.35339
 H376 H -0.01414 0.22513 0.28641
 H377 H 0.00395 0.25872 0.30863
 C378 C 0.07971 0.22931 0.39930
 C379 C -0.05369 0.29714 0.41307
 C380 C -0.01869 0.20396 0.31833
 C381 C 0.03635 0.33320 0.31802
 C382 C 1.02421 0.76112 0.10878
 H383 H 1.00758 0.75497 0.10060
 C384 C 1.04336 0.76956 0.09406
 H385 H 1.04103 0.76996 0.07475
 C386 C 1.04796 0.76718 0.14350
 H387 H 1.04993 0.76575 0.16272
 C388 C 1.06765 0.77569 0.12941
 H389 H 1.08427 0.78143 0.13810
 N390 N 1.02644 0.76071 0.13315
 C391 C 0.96490 0.71756 0.13682
 H392 H 0.97410 0.70560 0.14914
 C393 C 0.94442 0.70990 0.12423
 H394 H 0.93812 0.69206 0.12706
 C395 C 0.96113 0.75555 0.11896
 H396 H 0.96755 0.77348 0.11726
 C397 C 0.94044 0.74866 0.10613
 H398 H 0.93133 0.76123 0.09427
 Zn399 Zn 0.99951 0.75055 0.15334
 N400 N 0.97282 0.74010 0.13412
 C401 C 0.96255 0.78341 0.17298
 N402 N 0.98715 0.77631 0.17414
 C403 C 1.00253 0.78776 0.18921
 C404 C 0.99358 0.80791 0.20282
 C405 C 0.95298 0.80352 0.18587
 C406 C 1.02612 0.70761 0.15953
 C407 C 1.03630 0.68807 0.17160
 C408 C 1.01618 0.70370 0.20863
 C409 C 1.00649 0.72318 0.19581
 N410 N 1.01177 0.72477 0.17174
 H411 H 0.95020 0.77378 0.16176
 H412 H 1.02180 0.78145 0.19063
 H413 H 1.00617 0.81680 0.21456
 H414 H 0.93365 0.80932 0.18338
 H415 H 1.02979 0.70924 0.14036
 H416 H 1.04785 0.67466 0.16157
 H417 H 1.01224 0.70274 0.22784
 H418 H 0.99482 0.73699 0.20506
 C419 C 0.93178 0.72557 0.10876
 C420 C 1.06528 0.77739 0.10437
 C421 C 1.03160 0.68606 0.19650
 C422 C 0.96853 0.81632 0.20092
 C423 C 0.51057 0.26930 0.59142
 H424 H 0.49156 0.27668 0.59044
 C425 C 0.53006 0.28021 0.57929
 H426 H 0.52589 0.29584 0.56870
 C427 C 0.53927 0.24079 0.60760
 H428 H 0.54290 0.22602 0.61941
 C429 C 0.55933 0.25106 0.59563
 H430 H 0.57825 0.24402 0.59830
 N431 N 0.51551 0.25027 0.60561
 C432 C 0.44310 0.22034 0.62054
 H433 H 0.44343 0.22121 0.64003
 C434 C 0.42258 0.21127 0.60921
 H435 H 0.40703 0.20544 0.62021
 C436 C 0.46290 0.22761 0.58276
 H437 H 0.47878 0.23386 0.57260
 C438 C 0.44269 0.21852 0.57062
 H439 H 0.44327 0.21770 0.55110
 Zn440 Zn 0.48881 0.24040 0.62554
 N441 N 0.46262 0.22845 0.60730
 C442 C 0.45349 0.27742 0.63846
 N443 N 0.47647 0.26784 0.64367
 C444 C 0.49102 0.27870 0.65994
 C445 C 0.48202 0.29946 0.67252
 C446 C 0.44398 0.29822 0.65024
 C447 C 0.50779 0.19448 0.63432
 C448 C 0.51619 0.17499 0.64763
 C449 C 0.50747 0.19854 0.68416
 C450 C 0.49909 0.21757 0.67012
 N451 N 0.49986 0.21536 0.64564
 H452 H 0.44265 0.26931 0.62467
 H453 H 0.50961 0.27119 0.66319
 H454 H 0.49359 0.30744 0.68586
 H455 H 0.42586 0.30567 0.64524
 H456 H 0.50782 0.19310 0.61484
 H457 H 0.52308 0.15875 0.63823
 H458 H 0.50691 0.20062 0.70362
 H459 H 0.49194 0.23400 0.67885
 C460 C 0.42218 0.21014 0.58391
 C461 C 0.55488 0.27146 0.58184
 C462 C 0.51633 0.17696 0.67289
 C463 C 0.45805 0.30941 0.66785
 C464 C 0.48798 0.77516 0.89772
 H465 H 0.50577 0.78348 0.89891
 C466 C 0.46667 0.78574 0.90948
 H467 H 0.46841 0.80193 0.92016
 C468 C 0.46411 0.74438 0.88165
 H469 H 0.46302 0.72870 0.87015
 C470 C 0.44226 0.75446 0.89300
 H471 H 0.42461 0.74632 0.89008
 N472 N 0.48635 0.75496 0.88398
 C473 C 0.56348 0.72572 0.87294
 H474 H 0.56374 0.72312 0.85356
 C475 C 0.58485 0.71969 0.88580
 H476 H 0.60137 0.71205 0.87619
 C477 C 0.54135 0.73846 0.90895
 H478 H 0.52436 0.74572 0.91792
 C479 C 0.56231 0.73261 0.92253
 H480 H 0.56124 0.73569 0.94187
 Zn481 Zn 0.51508 0.74431 0.86506
 N482 N 0.54243 0.73527 0.88456
 C483 C 0.54658 0.77979 0.84852
 N484 N 0.52378 0.77045 0.84595
 C485 C 0.50614 0.78123 0.83210
 C486 C 0.51119 0.80235 0.82020
 C487 C 0.55243 0.80068 0.83692
 C488 C 0.50370 0.69710 0.85845
 C489 C 0.49640 0.67656 0.84657
 C490 C 0.49826 0.69744 0.80893
 C491 C 0.50566 0.71770 0.82161
 N492 N 0.50758 0.71729 0.84602
 H493 H 0.56006 0.77159 0.86026
 H494 H 0.48791 0.77378 0.83084
 H495 H 0.49694 0.81082 0.80936
 H496 H 0.57047 0.80810 0.83980
 H497 H 0.50571 0.69720 0.87780
 H498 H 0.49296 0.66081 0.85693
 H499 H 0.49574 0.69830 0.78967
 H500 H 0.50918 0.73386 0.81203
 C501 C 0.58451 0.72325 0.91093
 C502 C 0.44326 0.77570 0.90678
 C503 C 0.49292 0.67672 0.82158
 C504 C 0.53460 0.81235 0.82265
 C505 C 0.48817 -0.20482 0.31899
 C506 C 0.47663 -0.18384 0.32992
 C507 C 0.47430 -0.18292 0.35540
 C508 C 0.48178 -0.20264 0.36897
 C509 C 0.49177 -0.22403 0.35797
 C510 C 0.49587 -0.22434 0.33278
 C511 C 0.46440 -0.16236 0.36739
 C512 C 0.45659 -0.14248 0.35468
 C513 C 0.45793 -0.14250 0.32922
 C514 C 0.46761 -0.16370 0.31659
 C515 C 0.46724 -0.16428 0.29115
 C516 C 0.45767 -0.14494 0.27845
 C517 C 0.44854 -0.12406 0.29048
 C518 C 0.44913 -0.12227 0.31599
 C519 C 0.44066 -0.10029 0.32719
 C520 C 0.43077 -0.08154 0.31376
 C521 C 0.42909 -0.08382 0.28870
 C522 C 0.43843 -0.10503 0.27712
 H523 H 0.49210 -0.20652 0.29985
 H524 H 0.47960 -0.20150 0.38846
 H525 H 0.50550 -0.23940 0.32349
 H526 H 0.46262 -0.16161 0.38692
 H527 H 0.44886 -0.12758 0.36547
 H528 H 0.47351 -0.17982 0.28046
 H529 H 0.45731 -0.14642 0.25895
 H530 H 0.44136 -0.09690 0.34632
 H531 H 0.42368 -0.06537 0.32319
 H532 H 0.43766 -0.10679 0.25765
 C533 C 0.98556 0.30027 0.81150
 C534 C 0.97800 0.32140 0.82487
 C535 C 0.98100 0.32122 0.85010
 C536 C 0.99100 0.30093 0.86118
 C537 C 0.99819 0.27984 0.84797
 C538 C 0.99558 0.27997 0.82283
 C539 C 0.97405 0.34127 0.86441
 C540 C 0.96355 0.36163 0.85437
 C541 C 0.95954 0.36280 0.82940
 C542 C 0.96746 0.34260 0.81427
 C543 C 0.96458 0.34433 0.78915
 C544 C 0.95378 0.36475 0.77918
 C545 C 0.94508 0.38416 0.79377
 C546 C 0.94781 0.38352 0.81908
 C547 C 0.93813 0.40351 0.83308
 C548 C 0.92604 0.42298 0.82239
 C549 C 0.92323 0.42346 0.79741
 C550 C 0.93319 0.40406 0.78317
 H551 H 0.98397 0.29876 0.79223
 H552 H 0.99301 0.30131 0.88059
 H553 H 1.00139 0.26458 0.81163
 H554 H 0.97664 0.34120 0.88373
 H555 H 0.95896 0.37626 0.86684
 H556 H 0.97058 0.33016 0.77657
 H557 H 0.95185 0.36519 0.75979
 H558 H 0.93884 0.40451 0.85243
 H559 H 0.91809 0.43739 0.83395
 H560 H 0.93142 0.40430 0.76377
 C561 C 0.05397 1.20939 0.83066
 C562 C 0.03702 1.19414 0.82008
 C563 C 0.01115 1.20066 0.82243
 C564 C 0.00296 1.22249 0.83385
 C565 C 0.01998 1.23737 0.84515
 C566 C 0.04565 1.23005 0.84328
 C567 C -0.00637 1.18480 0.81439
 C568 C 0.00128 1.16209 0.80538
 C569 C 0.02695 1.15487 0.80290
 C570 C 0.04501 1.17191 0.80869
 C571 C 0.07052 1.16624 0.80294
 C572 C 0.07843 1.14393 0.79368
 C573 C 0.06134 1.12629 0.79017
 C574 C 0.03534 1.13132 0.79473
 C575 C 0.01907 1.11229 0.79167
 C576 C 0.02840 1.08940 0.78423
 C577 C 0.05407 1.08493 0.77928
 C578 C 0.07034 1.10351 0.78229
 H579 H 0.07381 1.20496 0.83107
 H580 H -0.01694 1.22721 0.83537
 H581 H 0.05994 1.23938 0.85233
 H582 H -0.02625 1.18960 0.81598
 H583 H -0.01333 1.15066 0.80002
 H584 H 0.08486 1.17899 0.80486
 H585 H 0.09825 1.14032 0.78968
 H586 H -0.00083 1.11439 0.79550
 H587 H 0.01551 1.07522 0.78214
 H588 H 0.09032 1.10003 0.77903
 C589 C 0.49874 0.69925 0.33262
 C590 C 0.52076 0.68577 0.33843
 C591 C 0.53570 0.69529 0.35659
 C592 C 0.52933 0.71756 0.36758
 C593 C 0.50822 0.73158 0.36079
 C594 C 0.49247 0.72142 0.34390
 C595 C 0.55695 0.68249 0.36402
 C596 C 0.56391 0.66032 0.35386
 C597 C 0.54990 0.64995 0.33555
 C598 C 0.52823 0.66306 0.32733
 C599 C 0.51513 0.65322 0.30806
 C600 C 0.52286 0.63139 0.29717
 C601 C 0.54371 0.61826 0.30521
 C602 C 0.55725 0.62713 0.32482
 C603 C 0.57769 0.61275 0.33287
 C604 C 0.58514 0.59129 0.32113
 C605 C 0.57249 0.58311 0.30109
 C606 C 0.55136 0.59641 0.29353
 H607 H 0.48563 0.69294 0.31987
 H608 H 0.54073 0.72350 0.38212
 H609 H 0.47506 0.73073 0.33944
 H610 H 0.56846 0.68973 0.37791
 H611 H 0.58082 0.65202 0.36053
 H612 H 0.49904 0.66227 0.30053
 H613 H 0.51241 0.62474 0.28221
 H614 H 0.58837 0.61739 0.34827
 H615 H 0.60101 0.58096 0.32783
 H616 H 0.54132 0.59009 0.27814
 C617 C 0.54411 0.29414 0.14636
 C618 C 0.53627 0.30336 0.16922
 C619 C 0.52234 0.28865 0.18446
 C620 C 0.51362 0.26688 0.17549
 C621 C 0.51974 0.25859 0.15158
 C622 C 0.53594 0.27253 0.13780
 C623 C 0.51648 0.29628 0.20822
 C624 C 0.52434 0.31812 0.21704
 C625 C 0.53699 0.33389 0.20188
 C626 C 0.54173 0.32680 0.17723
 C627 C 0.55053 0.34376 0.16097
 C628 C 0.55578 0.36656 0.16872
 C629 C 0.55349 0.37306 0.19307
 C630 C 0.54449 0.35679 0.21016
 C631 C 0.54404 0.36400 0.23479
 C632 C 0.55277 0.38618 0.24197
 C633 C 0.56153 0.40221 0.22485
 C634 C 0.56080 0.39568 0.20036
 H635 H 0.55661 0.30335 0.13451
 H636 H 0.50056 0.25761 0.18673
 H637 H 0.54159 0.26785 0.11953
 H638 H 0.50591 0.28517 0.22018
 H639 H 0.51916 0.32277 0.23554
 H640 H 0.55254 0.34023 0.14181
 H641 H 0.56233 0.37904 0.15553
 H642 H 0.53827 0.35238 0.24896
 H643 H 0.55343 0.39032 0.26107
 H644 H 0.56663 0.40799 0.18672
 C645 C -0.02280 0.80034 0.67528
 C646 C -0.00165 0.81291 0.66769
 C647 C 0.01190 0.80407 0.64682
 C648 C 0.00530 0.78313 0.63501
 C649 C -0.01460 0.76967 0.64357
 C650 C -0.02935 0.77945 0.66312
 C651 C 0.03208 0.81614 0.63753
 C652 C 0.03948 0.83683 0.64862
 C653 C 0.02706 0.84634 0.66975
 C654 C 0.00638 0.83403 0.67971
 C655 C -0.00507 0.84290 0.70159
 C656 C 0.00354 0.86289 0.71350
 C657 C 0.02361 0.87510 0.70396
 C658 C 0.03523 0.86735 0.68163
 C659 C 0.05484 0.88086 0.67220
 C660 C 0.06368 0.89998 0.68520
 C661 C 0.05316 0.90673 0.70783
 C662 C 0.03255 0.89474 0.71685
 H663 H -0.03500 0.80646 0.69019
 H664 H 0.01564 0.77771 0.61857
 H665 H -0.04611 0.77086 0.66906
 H666 H 0.04246 0.80941 0.62151
 H667 H 0.05559 0.84455 0.64036
 H668 H -0.02037 0.83432 0.71040
 H669 H -0.00550 0.86873 0.73051
 H670 H 0.06390 0.87720 0.65484
 H671 H 0.07911 0.90952 0.67757
 H672 H 0.02413 0.90014 0.73427
 C673 C 0.96785 0.70385 0.68200
 C674 C 0.95608 0.68475 0.67045
 C675 C 0.95240 0.68646 0.64538
 C676 C 0.95950 0.70658 0.63286
 C677 C 0.96976 0.72615 0.64463
 C678 C 0.97480 0.72397 0.66925
 C679 C 0.94159 0.66813 0.63270
 C680 C 0.93348 0.64824 0.64444
 C681 C 0.93579 0.64584 0.66956
 C682 C 0.94785 0.66408 0.68273
 C683 C 0.95106 0.66110 0.70769
 C684 C 0.94238 0.64130 0.71949
 C685 C 0.92981 0.62383 0.70708
 C686 C 0.92629 0.62584 0.68194
 C687 C 0.91285 0.60795 0.67032
 C688 C 0.90314 0.58923 0.68316
 C689 C 0.90650 0.58745 0.70796
 C690 C 0.92024 0.60459 0.71979
 H691 H 0.97211 0.70380 0.70084
 H692 H 0.95667 0.70729 0.61360
 H693 H 0.98459 0.73748 0.67882
 H694 H 0.93914 0.66925 0.61342
 H695 H 0.92549 0.63499 0.63309
 H696 H 0.96020 0.67384 0.71875
 H697 H 0.94518 0.63986 0.73869
 H698 H 0.90894 0.60802 0.65141
 H699 H 0.89278 0.57604 0.67361
 H700 H 0.92272 0.60339 0.73907
 C701 C 0.49232 0.19428 0.19033
 C702 C 0.46902 0.18521 0.18417
 C703 C 0.45595 0.19683 0.16565
 C704 C 0.46692 0.21477 0.15235
 C705 C 0.49146 0.22198 0.15654
 C706 C 0.50302 0.21241 0.17700
 C707 C 0.43213 0.19003 0.15973
 C708 C 0.42151 0.17085 0.17070
 C709 C 0.43457 0.15722 0.18782
 C710 C 0.45847 0.16483 0.19516
 C711 C 0.47142 0.15119 0.21236
 C712 C 0.46191 0.13033 0.22135
 C713 C 0.43914 0.12218 0.21365
 C714 C 0.42487 0.13576 0.19716
 C715 C 0.40180 0.12682 0.19006
 C716 C 0.39397 0.10493 0.19804
 C717 C 0.40855 0.09113 0.21354
 C718 C 0.43084 0.10016 0.22183
 H719 H 0.50298 0.18748 0.20509
 H720 H 0.45596 0.22231 0.13818
 H721 H 0.52128 0.21809 0.18202
 H722 H 0.42174 0.19931 0.14597
 H723 H 0.40320 0.16684 0.16471
 H724 H 0.48943 0.15581 0.21877
 H725 H 0.47283 0.12016 0.23410
 H726 H 0.38940 0.13599 0.17804
 H727 H 0.37632 0.09868 0.19191
 H728 H 0.44220 0.08962 0.23394
 C729 C 0.32422 0.47627 -0.21285
 C730 C 0.33678 0.47050 -0.19139
 C731 C 0.36197 0.47690 -0.18984
 C732 C 0.37402 0.48779 -0.20906
 C733 C 0.36143 0.49407 -0.23008
 C734 C 0.33638 0.48773 -0.23184
 C735 C 0.37536 0.47228 -0.16919
 C736 C 0.36418 0.46175 -0.14956
 C737 C 0.33913 0.45495 -0.14997
 C738 C 0.32545 0.45854 -0.17153
 C739 C 0.30127 0.44953 -0.17263
 C740 C 0.29083 0.43744 -0.15339
 C741 C 0.30361 0.43461 -0.13199
 C742 C 0.32761 0.44399 -0.12971
 C743 C 0.33907 0.44218 -0.10709
 C744 C 0.32768 0.43056 -0.08804
 C745 C 0.30458 0.42031 -0.09077
 C746 C 0.29251 0.42247 -0.11275
 H747 H 0.30498 0.47224 -0.21550
 H748 H 0.39364 0.49165 -0.20767
 H749 H 0.32621 0.49093 -0.24809
 H750 H 0.39475 0.47698 -0.16810
 H751 H 0.37609 0.45847 -0.13456
 H752 H 0.29015 0.45095 -0.18845
 H753 H 0.27241 0.43042 -0.15523
 H754 H 0.35662 0.44993 -0.10329
 H755 H 0.33722 0.42926 -0.07112
 H756 H 0.27434 0.41496 -0.11475
 C757 C 0.82949 1.00304 0.27762
 C758 C 0.83778 1.00241 0.30161
 C759 C 0.86207 1.01022 0.30588
 C760 C 0.87778 1.01670 0.28672
 C761 C 0.86959 1.01710 0.26285
 C762 C 0.84512 1.01007 0.25869
 C763 C 0.87097 1.01099 0.32920
 C764 C 0.85643 1.00376 0.34856
 C765 C 0.83255 0.99471 0.34524
 C766 C 0.82320 0.99367 0.32133
 C767 C 0.80020 0.98289 0.31778
 C768 C 0.78727 0.97265 0.33669
 C769 C 0.79621 0.97345 0.36001
 C770 C 0.81833 0.98545 0.36488
 C771 C 0.82556 0.98715 0.38920
 C772 C 0.81256 0.97563 0.40742
 C773 C 0.79203 0.96218 0.40201
 C774 C 0.78348 0.96172 0.37843
 H775 H 0.81108 0.99801 0.27276
 H776 H 0.89684 1.02121 0.29031
 H777 H 0.83817 1.00884 0.24064
 H778 H 0.88953 1.01710 0.33254
 H779 H 0.86502 1.00447 0.36585
 H780 H 0.79214 0.98109 0.30033
 H781 H 0.77019 0.96376 0.33294
 H782 H 0.84120 0.99711 0.39478
 H783 H 0.81920 0.97646 0.42566
 H784 H 0.76716 0.95175 0.37436
 C785 C 0.87961 0.02368 1.17373
 C786 C 0.85772 0.03860 1.17185
 C787 C 0.84655 0.04860 1.19350
 C788 C 0.85675 0.04331 1.21594
 C789 C 0.87748 0.02706 1.21769
 C790 C 0.88932 0.01831 1.19605
 C791 C 0.82527 0.06391 1.19269
 C792 C 0.81461 0.06944 1.17086
 C793 C 0.82489 0.05987 1.14876
 C794 C 0.84687 0.04424 1.14927
 C795 C 0.85734 0.03483 1.12718
 C796 C 0.84727 0.04097 1.10532
 C797 C 0.82612 0.05635 1.10447
 C798 C 0.81422 0.06568 1.12610
 C799 C 0.79224 0.08059 1.12401
 C800 C 0.78329 0.08666 1.10144
 C801 C 0.79584 0.07812 1.08025
 C802 C 0.81699 0.06264 1.08193
 H803 H 0.89000 0.01595 1.15834
 H804 H 0.84827 0.05163 1.23220
 H805 H 0.90653 0.00733 1.19614
 H806 H 0.81671 0.07172 1.20917
 H807 H 0.79835 0.08155 1.17198
 H808 H 0.87355 0.02268 1.12598
 H809 H 0.85624 0.03358 1.08883
 H810 H 0.78158 0.08804 1.13937
 H811 H 0.76689 0.09871 1.10057
 H812 H 0.82652 0.05562 1.06556
 C813 C 0.32800 0.54213 0.71384
 C814 C 0.33657 0.53853 0.68952
 C815 C 0.35846 0.52364 0.68523
 C816 C 0.37114 0.51327 0.70437
 C817 C 0.36189 0.51585 0.72840
 C818 C 0.34060 0.53121 0.73281
 C819 C 0.36794 0.51922 0.66182
 C820 C 0.35592 0.52884 0.64227
 C821 C 0.33396 0.54370 0.64533
 C822 C 0.32452 0.54926 0.66937
 C823 C 0.30372 0.56568 0.67239
 C824 C 0.29260 0.57634 0.65271
 C825 C 0.30118 0.57058 0.62919
 C826 C 0.32155 0.55372 0.62512
 C827 C 0.32858 0.54748 0.60090
 C828 C 0.31670 0.55840 0.58170
 C829 C 0.29739 0.57593 0.58577
 C830 C 0.28952 0.58170 0.60967
 H831 H 0.31156 0.55321 0.71885
 H832 H 0.38861 0.50322 0.70026
 H833 H 0.33362 0.53487 0.75109
 H834 H 0.38486 0.50801 0.65852
 H835 H 0.36482 0.52472 0.62491
 H836 H 0.29587 0.57112 0.68987
 H837 H 0.27695 0.58916 0.65595
 H838 H 0.34289 0.53390 0.59607
 H839 H 0.32259 0.55287 0.56351
 H840 H 0.27460 0.59522 0.61318
 C841 C 0.20209 0.53258 0.28495
 C842 C 0.19417 0.52787 0.30893
 C843 C 0.17401 0.51268 0.31208
 C844 C 0.16114 0.50442 0.29223
 C845 C 0.16874 0.50936 0.26834
 C846 C 0.18956 0.52357 0.26517
 C847 C 0.16608 0.50630 0.33511
 C848 C 0.17746 0.51499 0.35536
 C849 C 0.19677 0.53121 0.35341
 C850 C 0.20494 0.53816 0.32984
 C851 C 0.22258 0.55607 0.32804
 C852 C 0.23125 0.56738 0.34848
 C853 C 0.22351 0.56069 0.37151
 C854 C 0.20711 0.54173 0.37435
 C855 C 0.20138 0.53443 0.39813
 C856 C 0.20993 0.54676 0.41813
 C857 C 0.22438 0.56667 0.41512
 C858 C 0.23164 0.57322 0.39179
 H859 H 0.21787 0.54323 0.28086
 H860 H 0.14445 0.49468 0.29575
 H861 H 0.19584 0.52838 0.24728
 H862 H 0.15071 0.49453 0.33757
 H863 H 0.16973 0.50953 0.37242
 H864 H 0.22919 0.56259 0.31098
 H865 H 0.24403 0.58168 0.34622
 H866 H 0.19038 0.51926 0.40192
 H867 H 0.20450 0.54122 0.43606
 H868 H 0.24338 0.58833 0.38947
 C869 C 0.68245 0.01056 0.78519
 C870 C 0.67144 0.01891 0.80753
 C871 C 0.64507 0.01836 0.81038
 C872 C 0.63051 0.01123 0.79121
 C873 C 0.64139 0.00461 0.76848
 C874 C 0.66772 0.00328 0.76622
 C875 C 0.63316 0.02506 0.83232
 C876 C 0.64682 0.03256 0.85165
 C877 C 0.67310 0.03408 0.84970
 C878 C 0.68559 0.02752 0.82715
 C879 C 0.71165 0.03046 0.82476
 C880 C 0.72505 0.03958 0.84364
 C881 C 0.71321 0.04580 0.86577
 C882 C 0.68719 0.04264 0.86935
 C883 C 0.67633 0.04843 0.89247
 C884 C 0.69043 0.05804 0.91068
 C885 C 0.71585 0.06208 0.90670
 C886 C 0.72723 0.05556 0.88428
 H887 H 0.70243 0.00889 0.78193
 H888 H 0.61031 0.01114 0.79378
 H889 H 0.67731 -0.00386 0.75004
 H890 H 0.61296 0.02458 0.83457
 H891 H 0.63597 0.03768 0.86774
 H892 H 0.72220 0.02653 0.80819
 H893 H 0.74494 0.04193 0.84079
 H894 H 0.65698 0.04586 0.89717
 H895 H 0.68113 0.06300 0.92780
 H896 H 0.74702 0.05823 0.88118
 C897 C 0.66368 1.00466 0.68976
 C898 C 0.65905 0.98389 0.67591
 C899 C 0.64194 0.96797 0.68581
 C900 C 0.63118 0.97206 0.70887
 C901 C 0.63721 0.99177 0.72339
 C902 C 0.65255 1.00867 0.71278
 C903 C 0.63535 0.94792 0.67268
 C904 C 0.64540 0.94312 0.64975
 C905 C 0.66283 0.95813 0.63901
 C906 C 0.67027 0.97855 0.65250
 C907 C 0.68905 0.99251 0.64236
 C908 C 0.70013 0.98681 0.61982
 C909 C 0.69264 0.96730 0.60625
 C910 C 0.67349 0.95300 0.61543
 C911 C 0.66579 0.93405 0.60057
 C912 C 0.67738 0.92892 0.57817
 C913 C 0.69686 0.94253 0.56950
 C914 C 0.70432 0.96186 0.58357
 H915 H 0.67530 1.01843 0.68310
 H916 H 0.61742 0.95985 0.71510
 H917 H 0.65600 1.02512 0.72245
 H918 H 0.62225 0.93569 0.68024
 H919 H 0.63951 0.92701 0.64122
 H920 H 0.69612 1.00768 0.65174
 H921 H 0.71476 0.99782 0.61293
 H922 H 0.65077 0.92282 0.60553
 H923 H 0.67134 0.91377 0.56779
 H924 H 0.71916 0.97271 0.57683
 C925 C 0.16095 0.48574 0.18045
 C926 C 0.18638 0.47809 0.17784
 C927 C 0.20082 0.47701 0.19883
 C928 C 0.19045 0.48555 0.22128
 C929 C 0.16532 0.49443 0.22330
 C930 C 0.15068 0.49327 0.20267
 C931 C 0.22524 0.46689 0.19727
 C932 C 0.23520 0.45705 0.17552
 C933 C 0.22144 0.45803 0.15416
 C934 C 0.19736 0.47023 0.15517
 C935 C 0.18496 0.47443 0.13347
 C936 C 0.19449 0.46488 0.11173
 C937 C 0.21653 0.45059 0.11080
 C938 C 0.23065 0.44715 0.13181
 C939 C 0.25277 0.43216 0.12963
 C940 C 0.25975 0.42038 0.10775
 C941 C 0.24507 0.42334 0.08742
 C942 C 0.22403 0.43916 0.08895
 H943 H 0.14815 0.48511 0.16582
 H944 H 0.20171 0.48447 0.23714
 H945 H 0.13089 0.49851 0.20381
 H946 H 0.23652 0.46594 0.21316
 H947 H 0.25398 0.44918 0.17585
 H948 H 0.16793 0.48547 0.13269
 H949 H 0.18405 0.46814 0.09557
 H950 H 0.26441 0.42835 0.14473
 H951 H 0.27609 0.40816 0.10702
 H952 H 0.21290 0.44199 0.07314
 C953 C -0.20001 0.32265 0.49589
 C954 C -0.18360 0.33525 0.48088
 C955 C -0.19043 0.35937 0.47637
 C956 C -0.21352 0.36958 0.48493
 C957 C -0.23098 0.35649 0.49814
 C958 C -0.22280 0.33327 0.50476
 C959 C -0.17415 0.37344 0.46345
 C960 C -0.15107 0.36408 0.45477
 C961 C -0.14354 0.33994 0.45817
 C962 C -0.16039 0.32508 0.47081
 C963 C -0.15387 0.30045 0.47222
 C964 C -0.13170 0.29063 0.46164
 C965 C -0.11482 0.30499 0.44980
 C966 C -0.12009 0.32996 0.44855
 C967 C -0.10167 0.34390 0.43754
 C968 C -0.07983 0.33324 0.42688
 C969 C -0.07549 0.30843 0.42687
 C970 C -0.09285 0.29443 0.43879
 H971 H -0.19526 0.30491 0.50198
 H972 H -0.21740 0.38823 0.48156
 H973 H -0.23333 0.32342 0.51781
 H974 H -0.17929 0.39198 0.46000
 H975 H -0.13992 0.37613 0.44467
 H976 H -0.16607 0.28807 0.48062
 H977 H -0.12776 0.27152 0.46268
 H978 H -0.10348 0.36309 0.43687
 H979 H -0.06664 0.34445 0.41790
 H980 H -0.08933 0.27523 0.43929
 C981 C 0.28863 0.81076 0.97155
 C982 C 0.30972 0.82290 0.96299
 C983 C 0.30781 0.84818 0.96367
 C984 C 0.28634 0.86048 0.97348
 C985 C 0.26617 0.84837 0.98352
 C986 C 0.26723 0.82327 0.98139
 C987 C 0.32742 0.86129 0.95478
 C988 C 0.34921 0.84992 0.94530
 C989 C 0.35245 0.82476 0.94446
 C990 C 0.33248 0.81098 0.95366
 C991 C 0.33614 0.78585 0.95360
 C992 C 0.35837 0.77452 0.94475
 C993 C 0.37784 0.78765 0.93542
 C994 C 0.37514 0.81294 0.93499
 C995 C 0.39533 0.82535 0.92497
 C996 C 0.41717 0.81320 0.91613
 C997 C 0.41993 0.78825 0.91686
 C998 C 0.40006 0.77557 0.92651
 H999 H 0.28790 0.79159 0.97067
 H1000 H 0.28547 0.87987 0.97398
 H1001 H 0.25152 0.81306 0.98701
 H1002 H 0.32596 0.88066 0.95524
 H1003 H 0.36336 0.86158 0.93910
 H1004 H 0.32225 0.77433 0.96066
 H1005 H 0.36032 0.75519 0.94520
 H1006 H 0.39488 0.84446 0.92334
 H1007 H 0.43184 0.82348 0.90818
 H1008 H 0.40193 0.75626 0.92727
 C1009 C 1.21259 0.82134 0.03992
 C1010 C 1.18660 0.82566 0.03656
 C1011 C 1.17957 0.84229 0.01883
 C1012 C 1.19772 0.85390 0.00527
 C1013 C 1.22359 0.84897 0.00806
 C1014 C 1.23054 0.83298 0.02620
 C1015 C 1.15435 0.84772 0.01485
 C1016 C 1.13571 0.83708 0.02809
 C1017 C 1.14149 0.82047 0.04613
 C1018 C 1.16737 0.81459 0.05043
 C1019 C 1.17308 0.79802 0.06854
 C1020 C 1.15431 0.78780 0.08221
 C1021 C 1.12907 0.79346 0.07836
 C1022 C 1.12224 0.80970 0.06013
 C1023 C 1.09632 0.81455 0.05679
 C1024 C 1.07819 0.80393 0.07102
 C1025 C 1.08501 0.78809 0.08912
 C1026 C 1.11057 0.78292 0.09269
 H1027 H 1.21977 0.80935 0.05326
 H1028 H 1.19129 0.86746 -0.00701
 H1029 H 1.25013 0.82962 0.02998
 H1030 H 1.14888 0.86046 0.00129
 H1031 H 1.11684 0.84251 0.02373
 H1032 H 1.19200 0.79253 0.07272
 H1033 H 1.15967 0.77530 0.09601
 H1034 H 1.08923 0.82651 0.04341
 H1035 H 1.05862 0.80851 0.06806
 H1036 H 1.11608 0.77047 0.10649
 C1037 C 0.70047 0.31563 0.51482
 C1038 C 0.68104 0.32522 0.53053
 C1039 C 0.68231 0.34935 0.53807
 C1040 C 0.70276 0.36265 0.53121
 C1041 C 0.72299 0.35285 0.51669
 C1042 C 0.72057 0.32931 0.50769
 C1043 C 0.66293 0.36045 0.55219
 C1044 C 0.64192 0.34826 0.55868
 C1045 C 0.63961 0.32415 0.55164
 C1046 C 0.65994 0.31211 0.53823
 C1047 C 0.65871 0.28735 0.53345
 C1048 C 0.63816 0.27485 0.54119
 C1049 C 0.61772 0.28659 0.55333
 C1050 C 0.61787 0.31153 0.55817
 C1051 C 0.59610 0.32290 0.56919
 C1052 C 0.57569 0.30985 0.57620
 C1053 C 0.57608 0.28506 0.57246
 C1054 C 0.59711 0.27352 0.56082
 H1055 H 0.70006 0.29798 0.50678
 H1056 H 0.70212 0.38115 0.53682
 H1057 H 0.73342 0.32158 0.49395
 H1058 H 0.66390 0.37892 0.55817
 H1059 H 0.62807 0.35815 0.56988
 H1060 H 0.67381 0.27694 0.52439
 H1061 H 0.63822 0.25577 0.53747
 H1062 H 0.59404 0.34192 0.57243
 H1063 H 0.55968 0.31919 0.58517
 H1064 H 0.59736 0.25437 0.55751
 C1065 C 0.28857 0.12507 0.55334
 C1066 C 0.30206 0.14287 0.54189
 C1067 C 0.29286 0.15165 0.52000
 C1068 C 0.27233 0.14133 0.50923
 C1069 C 0.26066 0.12147 0.51927
 C1070 C 0.26843 0.11482 0.54242
 C1071 C 0.30442 0.17046 0.50876
 C1072 C 0.32521 0.18055 0.51862
 C1073 C 0.33566 0.17184 0.54001
 C1074 C 0.32408 0.15241 0.55161
 C1075 C 0.33529 0.14262 0.57214
 C1076 C 0.35660 0.15186 0.58153
 C1077 C 0.36765 0.17124 0.57098
 C1078 C 0.35747 0.18162 0.55010
 C1079 C 0.36962 0.20138 0.54034
 C1080 C 0.39072 0.21037 0.55103
 C1081 C 0.40048 0.20004 0.57175
 C1082 C 0.38894 0.18028 0.58137
 H1083 H 0.29284 0.11878 0.57104
 H1084 H 0.26587 0.14848 0.49239
 H1085 H 0.25927 0.10180 0.55299
 H1086 H 0.29739 0.17743 0.49205
 H1087 H 0.33298 0.19490 0.50869
 H1088 H 0.32838 0.12732 0.58117
 H1089 H 0.36450 0.14370 0.59732
 H1090 H 0.36309 0.21059 0.52471
 H1091 H 0.39907 0.22584 0.54335
 H1092 H 0.39659 0.17179 0.59711
 C1093 C 0.82086 0.63308 0.04119
 C1094 C 0.82217 0.65765 0.04680
 C1095 C 0.80001 0.67238 0.04487
 C1096 C 0.77777 0.66278 0.03659
 C1097 C 0.77703 0.63832 0.03040
 C1098 C 0.79883 0.62375 0.03346
 C1099 C 0.80006 0.69648 0.05176
 C1100 C 0.82136 0.70614 0.06112
 C1101 C 0.84384 0.69213 0.06345
 C1102 C 0.84448 0.66775 0.05520
 C1103 C 0.86744 0.65420 0.05553
 C1104 C 0.88861 0.66349 0.06514
 C1105 C 0.88791 0.68666 0.07475
 C1106 C 0.86572 0.70154 0.07381
 C1107 C 0.86636 0.72499 0.08379
 C1108 C 0.88789 0.73292 0.09459
 C1109 C 0.90948 0.71784 0.09587
 C1110 C 0.90940 0.69486 0.08552
 H1111 H 0.83625 0.62028 0.04340
 H1112 H 0.76095 0.67424 0.03585
 H1113 H 0.79871 0.60466 0.02995
 H1114 H 0.78327 0.70794 0.05033
 H1115 H 0.81965 0.72480 0.06621
 H1116 H 0.86986 0.63628 0.04817
 H1117 H 0.90569 0.65225 0.06531
 H1118 H 0.85038 0.73747 0.08409
 H1119 H 0.88739 0.75073 0.10262
 H1120 H 0.92615 0.68319 0.08603
 C1121 C 0.68528 0.64915 1.01306
 C1122 C 0.68814 0.66678 0.99559
 C1123 C 0.71283 0.67176 0.98787
 C1124 C 0.73373 0.66004 0.99821
 C1125 C 0.73070 0.64244 1.01575
 C1126 C 0.70593 0.63698 1.02236
 C1127 C 0.71644 0.68761 0.96912
 C1128 C 0.69613 0.69763 0.95707
 C1129 C 0.67120 0.69279 0.96389
 C1130 C 0.66721 0.67835 0.98445
 C1131 C 0.64240 0.67576 0.99316
 C1132 C 0.62205 0.68516 0.98102
 C1133 C 0.62551 0.69740 0.95968
 C1134 C 0.65007 0.70167 0.95084
 C1135 C 0.65234 0.71391 0.92885
 C1136 C 0.63114 0.72115 0.91618
 C1137 C 0.60699 0.71663 0.92497
 C1138 C 0.60439 0.70503 0.94695
 H1139 H 0.66725 0.64308 1.01876
 H1140 H 0.75242 0.66372 0.99165
 H1141 H 0.70204 0.62231 1.03403
 H1142 H 0.73523 0.69169 0.96314
 H1143 H 0.70056 0.70934 0.94255
 H1144 H 0.63807 0.66679 1.00966
 H1145 H 0.60333 0.68238 0.98820
 H1146 H 0.67022 0.71760 0.92062
 H1147 H 0.63370 0.73031 0.89935
 H1148 H 0.58584 0.70111 0.95378
 C1149 C 0.19747 0.16502 0.49466
 C1150 C 0.18639 0.15990 0.47239
 C1151 C 0.19395 0.13802 0.46052
 C1152 C 0.21142 0.12205 0.47067
 C1153 C 0.22241 0.12708 0.49288
 C1154 C 0.21489 0.14894 0.50466
 C1155 C 0.18376 0.13179 0.43859
 C1156 C 0.16576 0.14653 0.42825
 C1157 C 0.15700 0.16830 0.43949
 C1158 C 0.16779 0.17535 0.46173
 C1159 C 0.15948 0.19748 0.47255
 C1160 C 0.14105 0.21204 0.46232
 C1161 C 0.13000 0.20519 0.44096
 C1162 C 0.13780 0.18323 0.42921
 C1163 C 0.12577 0.17701 0.40773
 C1164 C 0.10716 0.19202 0.39832
 C1165 C 0.09968 0.21377 0.40982
 C1166 C 0.11111 0.22020 0.43128
 H1167 H 0.19271 0.18106 0.50516
 H1168 H 0.21580 0.10534 0.46111
 H1169 H 0.22192 0.15331 0.52222
 H1170 H 0.18966 0.11514 0.42932
 H1171 H 0.15913 0.14018 0.41128
 H1172 H 0.16692 0.20420 0.48904
 H1173 H 0.13527 0.22884 0.47134
 H1174 H 0.12999 0.16058 0.39775
 H1175 H 0.09826 0.18630 0.38204
 H1176 H 0.10549 0.23704 0.44031
 C1177 C 0.56865 0.03072 0.71894
 C1178 C 0.57204 0.05489 0.72551
 C1179 C 0.59106 0.05945 0.74195
 C1180 C 0.60672 0.04081 0.75024
 C1181 C 0.60371 0.01679 0.74325
 C1182 C 0.58429 0.01223 0.72746
 C1183 C 0.59516 0.08278 0.74946
 C1184 C 0.58142 0.10195 0.74038
 C1185 C 0.56309 0.09863 0.72299
 C1186 C 0.55803 0.07469 0.71567
 C1187 C 0.53978 0.07143 0.69818
 C1188 C 0.52771 0.09076 0.68740
 C1189 C 0.53303 0.11413 0.69377
 C1190 C 0.55027 0.11849 0.71210
 C1191 C 0.55440 0.14264 0.71828
 C1192 C 0.54284 0.16141 0.70599
 C1193 C 0.52670 0.15692 0.68722
 C1194 C 0.52150 0.13321 0.68153
 H1195 H 0.55452 0.02543 0.70676
 H1196 H 0.62220 0.04559 0.76116
 H1197 H 0.58175 -0.00580 0.72091
 H1198 H 0.60952 0.08634 0.76228
 H1199 H 0.58618 0.11927 0.74703
 H1200 H 0.53470 0.05405 0.69193
 H1201 H 0.51430 0.08733 0.67362
 H1202 H 0.56670 0.14778 0.73227
 H1203 H 0.54722 0.17955 0.71073
 H1204 H 0.50861 0.12959 0.66733
 C1205 C 1.13895 0.56583 0.22209
 C1206 C 1.11638 0.57424 0.23362
 C1207 C 1.10438 0.55890 0.24982
 C1208 C 1.11571 0.53628 0.25508
 C1209 C 1.13758 0.52747 0.24225
 C1210 C 1.14925 0.54333 0.22648
 C1211 C 1.08102 0.56618 0.26025
 C1212 C 1.06882 0.58764 0.25379
 C1213 C 1.08021 0.60333 0.23758
 C1214 C 1.10512 0.59715 0.22880
 C1215 C 1.11813 0.61407 0.21543
 C1216 C 1.10636 0.63519 0.20849
 C1217 C 1.08122 0.64032 0.21453
 C1218 C 1.06775 0.62488 0.22959
 C1219 C 1.04219 0.63136 0.23509
 C1220 C 1.03052 0.65170 0.22513
 C1221 C 1.04394 0.66611 0.20950
 C1222 C 1.06943 0.66066 0.20497
 H1223 H 1.14887 0.57584 0.20881
 H1224 H 1.10741 0.52569 0.26903
 H1225 H 1.16690 0.53847 0.21718
 H1226 H 1.07162 0.55475 0.27280
 H1227 H 1.05055 0.59170 0.26206
 H1228 H 1.13769 0.61168 0.21026
 H1229 H 1.11694 0.64737 0.19770
 H1230 H 1.03054 0.62059 0.24625
 H1231 H 1.01073 0.65566 0.22892
 H1232 H 1.08005 0.67205 0.19330
 C1233 C 0.94163 0.97096 0.24529
 C1234 C 0.92877 0.95084 0.23736
 C1235 C 0.90299 0.95430 0.23285
 C1236 C 0.89158 0.97719 0.23348
 C1237 C 0.90440 0.99741 0.24065
 C1238 C 0.92937 0.99369 0.24767
 C1239 C 0.88851 0.93494 0.22768
 C1240 C 0.89908 0.91192 0.22696
 C1241 C 0.92499 0.90756 0.22995
 C1242 C 0.94032 0.92740 0.23397
 C1243 C 0.96661 0.92327 0.23291
 C1244 C 0.97744 0.90064 0.22708
 C1245 C 0.96251 0.88106 0.22382
 C1246 C 0.93619 0.88409 0.22706
 C1247 C 0.92198 0.86351 0.22681
 C1248 C 0.93305 0.84128 0.22022
 C1249 C 0.95852 0.83882 0.21329
 C1250 C 0.97347 0.85861 0.21642
 H1251 H 0.96083 0.96934 0.25078
 H1252 H 0.87213 0.97930 0.22864
 H1253 H 0.93955 1.00803 0.25535
 H1254 H 0.86869 0.93757 0.22436
 H1255 H 0.88676 0.89793 0.22238
 H1256 H 0.97920 0.93763 0.23486
 H1257 H 0.99766 0.89848 0.22501
 H1258 H 0.90226 0.86411 0.23171
 H1259 H 0.92131 0.82607 0.21982
 H1260 H 0.99336 0.85700 0.21192
 C1261 C 0.43113 0.45680 0.73547
 C1262 C 0.41795 0.43854 0.72401
 C1263 C 0.39188 0.44270 0.72148
 C1264 C 0.38008 0.46449 0.72867
 C1265 C 0.39308 0.48279 0.73976
 C1266 C 0.41876 0.47832 0.74369
 C1267 C 0.37735 0.42503 0.71197
 C1268 C 0.38801 0.40283 0.70536
 C1269 C 0.41393 0.39767 0.70725
 C1270 C 0.42941 0.41616 0.71545
 C1271 C 0.45567 0.41185 0.71393
 C1272 C 0.46636 0.39031 0.70444
 C1273 C 0.45133 0.37178 0.69740
 C1274 C 0.42493 0.37489 0.69997
 C1275 C 0.41045 0.35499 0.69522
 C1276 C 0.42153 0.33368 0.68593
 C1277 C 0.44739 0.33134 0.68081
 C1278 C 0.46236 0.35027 0.68743
 H1279 H 0.45077 0.45446 0.73925
 H1280 H 0.36011 0.46714 0.72614
 H1281 H 0.42932 0.49095 0.75365
 H1282 H 0.35737 0.42830 0.70986
 H1283 H 0.37554 0.39034 0.69773
 H1284 H 0.46843 0.42533 0.71890
 H1285 H 0.48660 0.38807 0.70275
 H1286 H 0.39052 0.35520 0.69893
 H1287 H 0.40961 0.31896 0.68253
 H1288 H 0.48247 0.34864 0.68416
 C1289 C 0.39118 0.55972 0.78861
 C1290 C 0.41419 0.56711 0.77912
 C1291 C 0.42427 0.55531 0.75791
 C1292 C 0.41264 0.53524 0.74817
 C1293 C 0.39112 0.52636 0.75956
 C1294 C 0.37987 0.54018 0.77887
 C1295 C 0.44567 0.56383 0.74655
 C1296 C 0.45718 0.58378 0.75581
 C1297 C 0.44818 0.59555 0.77739
 C1298 C 0.42685 0.58642 0.78962
 C1299 C 0.41913 0.59640 0.81236
 C1300 C 0.43088 0.61552 0.82233
 C1301 C 0.45081 0.62552 0.81015
 C1302 C 0.45986 0.61589 0.78750
 C1303 C 0.48002 0.62727 0.77600
 C1304 C 0.49072 0.64705 0.78684
 C1305 C 0.48186 0.65598 0.80947
 C1306 C 0.46176 0.64514 0.82081
 H1307 H 0.38083 0.56921 0.80310
 H1308 H 0.42027 0.52663 0.73170
 H1309 H 0.36180 0.53611 0.78665
 H1310 H 0.45350 0.55512 0.73020
 H1311 H 0.47354 0.58924 0.74594
 H1312 H 0.40442 0.58934 0.82340
 H1313 H 0.42424 0.62256 0.83985
 H1314 H 0.48772 0.62148 0.75856
 H1315 H 0.50619 0.65521 0.77762
 H1316 H 0.45430 0.65228 0.83803
 C1317 C -0.06093 0.06958 0.24190
 C1318 C -0.07185 0.08754 0.25786
 C1319 C -0.09622 0.08397 0.26736
 C1320 C -0.10825 0.06297 0.26219
 C1321 C -0.09642 0.04414 0.24825
 C1322 C -0.07331 0.04861 0.23682
 C1323 C -0.10879 0.10139 0.28200
 C1324 C -0.09730 0.12202 0.28853
 C1325 C -0.07246 0.12601 0.28087
 C1326 C -0.05973 0.10888 0.26468
 C1327 C -0.03525 0.11350 0.25628
 C1328 C -0.02335 0.13378 0.26389
 C1329 C -0.03511 0.15007 0.28046
 C1330 C -0.05987 0.14645 0.28916
 C1331 C -0.07072 0.16305 0.30652
 C1332 C -0.05735 0.18192 0.31521
 C1333 C -0.03292 0.18520 0.30680
 C1334 C -0.02196 0.16958 0.28904
 H1335 H -0.04300 0.07126 0.23287
 H1336 H -0.12725 0.06151 0.26915
 H1337 H -0.06468 0.03580 0.22386
 H1338 H -0.12772 0.09894 0.28879
 H1339 H -0.10859 0.13447 0.29975
 H1340 H -0.02459 0.10158 0.24395
 H1341 H -0.00446 0.13643 0.25713
 H1342 H -0.08920 0.16169 0.31446
 H1343 H -0.06603 0.19387 0.32899
 H1344 H -0.00288 0.17205 0.28271
 C1345 C 0.13971 0.43926 0.26486
 C1346 C 0.11361 0.43744 0.26393
 C1347 C 0.09884 0.45816 0.25836
 C1348 C 0.11038 0.47946 0.25196
 C1349 C 0.13656 0.48118 0.25353
 C1350 C 0.15072 0.46051 0.25990
 C1351 C 0.07270 0.45743 0.25964
 C1352 C 0.06111 0.43705 0.26765
 C1353 C 0.07531 0.41605 0.27319
 C1354 C 0.10185 0.41584 0.26938
 C1355 C 0.11589 0.39398 0.27089
 C1356 C 0.10481 0.37349 0.27838
 C1357 C 0.07949 0.37407 0.28512
 C1358 C 0.06416 0.39519 0.28245
 C1359 C 0.03868 0.39470 0.29021
 C1360 C 0.02932 0.37439 0.30103
 C1361 C 0.04493 0.35390 0.30414
 C1362 C 0.06971 0.35370 0.29521
 H1363 H 0.15213 0.42483 0.27044
 H1364 H 0.09885 0.49426 0.24569
 H1365 H 0.17089 0.46086 0.26117
 H1366 H 0.06109 0.47305 0.25534
 H1367 H 0.04091 0.43802 0.26879
 H1368 H 0.13555 0.39206 0.26588
 H1369 H 0.11643 0.35719 0.27969
 H1370 H 0.02590 0.41011 0.28923
 H1371 H 0.01008 0.37510 0.30785
 H1372 H 0.08179 0.33775 0.29688
 C1373 C 0.62269 0.93180 0.76792
 C1374 C 0.59715 0.92815 0.77296
 C1375 C 0.58004 0.94825 0.77246
 C1376 C 0.58818 0.97067 0.76523
 C1377 C 0.61340 0.97346 0.75814
 C1378 C 0.63052 0.95390 0.76081
 C1379 C 0.55491 0.94579 0.77913
 C1380 C 0.54641 0.92387 0.78641
 C1381 C 0.56268 0.90323 0.78668
 C1382 C 0.58827 0.90532 0.77901
 C1383 C 0.60412 0.88443 0.77714
 C1384 C 0.59584 0.86249 0.78399
 C1385 C 0.57149 0.86037 0.79300
 C1386 C 0.55435 0.88053 0.79430
 C1387 C 0.52983 0.87708 0.80367
 C1388 C 0.52312 0.85480 0.81204
 C1389 C 0.54050 0.83525 0.81127
 C1390 C 0.56441 0.83810 0.80112
 H1391 H 0.63728 0.91805 0.76960
 H1392 H 0.57479 0.98576 0.76526
 H1393 H 0.65028 0.95562 0.75663
 H1394 H 0.54166 0.96104 0.77889
 H1395 H 0.52678 0.92359 0.79132
 H1396 H 0.62309 0.88430 0.76998
 H1397 H 0.60882 0.84701 0.78250
 H1398 H 0.51564 0.89136 0.80549
 H1399 H 0.50454 0.85310 0.81999
 H1400 H 0.57784 0.82295 0.80002
 C1401 C 0.72891 0.61662 0.08772
 C1402 C 0.72893 0.59160 0.08996
 C1403 C 0.74045 0.57725 0.07101
 C1404 C 0.74916 0.58776 0.04960
 C1405 C 0.74607 0.61262 0.04650
 C1406 C 0.73739 0.62676 0.06659
 C1407 C 0.74290 0.55251 0.07347
 C1408 C 0.73356 0.54166 0.09403
 C1409 C 0.72066 0.55514 0.11275
 C1410 C 0.71795 0.58050 0.11040
 C1411 C 0.70334 0.59395 0.12797
 C1412 C 0.69182 0.58312 0.14725
 C1413 C 0.69461 0.55855 0.15009
 C1414 C 0.70954 0.54414 0.13334
 C1415 C 0.71238 0.51935 0.13791
 C1416 C 0.69995 0.50938 0.15761
 C1417 C 0.68424 0.52373 0.17314
 C1418 C 0.68201 0.54830 0.16950
 H1419 H 0.72261 0.62896 0.10202
 H1420 H 0.75823 0.57647 0.03556
 H1421 H 0.73635 0.64607 0.06557
 H1422 H 0.75196 0.54136 0.05924
 H1423 H 0.73595 0.52247 0.09431
 H1424 H 0.69948 0.61292 0.12685
 H1425 H 0.68036 0.59416 0.15999
 H1426 H 0.72408 0.50721 0.12665
 H1427 H 0.70207 0.49031 0.16036
 H1428 H 0.67020 0.55949 0.18183
 C1429 C 0.18645 1.08931 0.54905
 C1430 C 0.19780 1.06988 0.56115
 C1431 C 0.22191 1.06137 0.55272
 C1432 C 0.23427 1.07263 0.53361
 C1433 C 0.22393 1.09362 0.52331
 C1434 C 0.19919 1.10086 0.53074
 C1435 C 0.23404 1.04224 0.56400
 C1436 C 0.22331 1.03207 0.58426
 C1437 C 0.19973 1.04053 0.59400
 C1438 C 0.18635 1.05915 0.58168
 C1439 C 0.16219 1.06677 0.59059
 C1440 C 0.15177 1.05728 0.61123
 C1441 C 0.16494 1.03992 0.62401
 C1442 C 0.18907 1.03115 0.61570
 C1443 C 0.20160 1.01376 0.62984
 C1444 C 0.19047 1.00551 0.65110
 C1445 C 0.16652 1.01417 0.65896
 C1446 C 0.15400 1.03147 0.64527
 H1447 H 0.16793 1.09669 0.55371
 H1448 H 0.25301 1.06614 0.52792
 H1449 H 0.18922 1.11587 0.52300
 H1450 H 0.25239 1.03542 0.55747
 H1451 H 0.23407 1.01755 0.59195
 H1452 H 0.15062 1.08015 0.58205
 H1453 H 0.13322 1.06386 0.61742
 H1454 H 0.22011 1.00634 0.62516
 H1455 H 0.20056 0.99210 0.66129
 H1456 H 0.13571 1.03878 0.65144
 C1457 C 0.21328 0.87020 0.93353
 C1458 C 0.21368 0.89479 0.92869
 C1459 C 0.22317 0.91007 0.94656
 C1460 C 0.23311 0.90060 0.96789
 C1461 C 0.23242 0.87598 0.97254
 C1462 C 0.22253 0.86114 0.95477
 C1463 C 0.22262 0.93470 0.94302
 C1464 C 0.21216 0.94455 0.92252
 C1465 C 0.20264 0.93000 0.90416
 C1466 C 0.20457 0.90464 0.90685
 C1467 C 0.19775 0.88987 0.88744
 C1468 C 0.18795 0.89941 0.86672
 C1469 C 0.18418 0.92401 0.86452
 C1470 C 0.19145 0.93979 0.88307
 C1471 C 0.18663 0.96461 0.87984
 C1472 C 0.17477 0.97313 0.85927
 C1473 C 0.16743 0.95729 0.84119
 C1474 C 0.17282 0.93278 0.84383
 H1475 H 0.20539 0.85741 0.92156
 H1476 H 0.24156 0.91253 0.98048
 H1477 H 0.22188 0.84209 0.95747
 H1478 H 0.22991 0.94658 0.95648
 H1479 H 0.21228 0.96371 0.92131
 H1480 H 0.20026 0.87069 0.88742
 H1481 H 0.18285 0.88729 0.85239
 H1482 H 0.19106 0.97785 0.89320
 H1483 H 0.17067 0.99215 0.85790
 H1484 H 0.16784 0.92031 0.82977
 C1485 C 0.73089 0.41978 0.46182
 C1486 C 0.71690 0.40818 0.44425
 C1487 C 0.71225 0.38385 0.44773
 C1488 C 0.72050 0.37214 0.46833
 C1489 C 0.73337 0.38397 0.48654
 C1490 C 0.73919 0.40785 0.48216
 C1491 C 0.69972 0.37102 0.43045
 C1492 C 0.69186 0.38171 0.40951
 C1493 C 0.69597 0.40595 0.40507
 C1494 C 0.70811 0.41959 0.42303
 C1495 C 0.71073 0.44421 0.41933
 C1496 C 0.70222 0.45510 0.39868
 C1497 C 0.69097 0.44194 0.38075
 C1498 C 0.68796 0.41712 0.38347
 C1499 C 0.67703 0.40455 0.36435
 C1500 C 0.66864 0.41634 0.34401
 C1501 C 0.67094 0.44098 0.34185
 C1502 C 0.68245 0.45361 0.36018
 H1503 H 0.73667 0.43782 0.45996
 H1504 H 0.71729 0.35337 0.46960
 H1505 H 0.75142 0.41731 0.49376
 H1506 H 0.69604 0.35236 0.43306
 H1507 H 0.68218 0.37046 0.39731
 H1508 H 0.71882 0.45581 0.43238
 H1509 H 0.70445 0.47410 0.39674
 H1510 H 0.67467 0.38558 0.36444
 H1511 H 0.65971 0.40616 0.33017
 H1512 H 0.68474 0.47262 0.35844
 C1513 C 0.74406 0.41980 0.55772
 C1514 C 0.76177 0.41064 0.57397
 C1515 C 0.77361 0.38804 0.56820
 C1516 C 0.76785 0.37541 0.54717
 C1517 C 0.75099 0.38493 0.53039
 C1518 C 0.73864 0.40713 0.53672
 C1519 C 0.79104 0.37783 0.58356
 C1520 C 0.79762 0.38982 0.60431
 C1521 C 0.78683 0.41265 0.61073
 C1522 C 0.76801 0.42293 0.59574
 C1523 C 0.75606 0.44504 0.60308
 C1524 C 0.76262 0.45698 0.62399
 C1525 C 0.78169 0.44772 0.63818
 C1526 C 0.79421 0.42549 0.63170
 C1527 C 0.81412 0.41735 0.64617
 C1528 C 0.82133 0.43083 0.66591
 C1529 C 0.80889 0.45268 0.67215
 C1530 C 0.78878 0.46090 0.65852
 H1531 H 0.73377 0.43665 0.56073
 H1532 H 0.77657 0.35779 0.54424
 H1533 H 0.72375 0.41454 0.52599
 H1534 H 0.79991 0.36035 0.57940
 H1535 H 0.81107 0.38043 0.61514
 H1536 H 0.74133 0.45364 0.59312
 H1537 H 0.75295 0.47392 0.62885
 H1538 H 0.82511 0.40103 0.64240
 H1539 H 0.83698 0.42426 0.67627
 H1540 H 0.77935 0.47802 0.66319
 C1541 C 0.24374 -0.08765 0.04556
 C1542 C 0.26653 -0.09308 0.05718
 C1543 C 0.28197 -0.11232 0.04741
 C1544 C 0.27507 -0.12510 0.02695
 C1545 C 0.25274 -0.11939 0.01494
 C1546 C 0.23687 -0.10085 0.02519
 C1547 C 0.30417 -0.11930 0.05834
 C1548 C 0.31130 -0.10801 0.07923
 C1549 C 0.29649 -0.08901 0.09014
 C1550 C 0.27424 -0.08076 0.07848
 C1551 C 0.26076 -0.06038 0.08839
 C1552 C 0.26865 -0.04858 0.10899
 C1553 C 0.28985 -0.05694 0.12097
 C1554 C 0.30367 -0.07766 0.11202
 C1555 C 0.32408 -0.08635 0.12550
 C1556 C 0.33147 -0.07410 0.14593
 C1557 C 0.31882 -0.05283 0.15396
 C1558 C 0.29754 -0.04463 0.14173
 H1559 H 0.23038 -0.07391 0.05229
 H1560 H 0.28694 -0.14049 0.02126
 H1561 H 0.21869 -0.09690 0.01772
 H1562 H 0.31619 -0.13387 0.05072
 H1563 H 0.32898 -0.11435 0.08608
 H1564 H 0.24428 -0.05273 0.08022
 H1565 H 0.25793 -0.03278 0.11569
 H1566 H 0.33462 -0.10278 0.12102
 H1567 H 0.34731 -0.08139 0.15558
 H1568 H 0.28737 -0.02836 0.14799
 C1569 C 0.24990 0.05687 0.45722
 C1570 C 0.26887 0.06524 0.44171
 C1571 C 0.28004 0.08657 0.44873
 C1572 C 0.27236 0.09886 0.47017
 C1573 C 0.25262 0.09127 0.48519
 C1574 C 0.24177 0.06973 0.47814
 C1575 C 0.29827 0.09625 0.43384
 C1576 C 0.30466 0.08603 0.41142
 C1577 C 0.29336 0.06530 0.40309
 C1578 C 0.27634 0.05389 0.41903
 C1579 C 0.26743 0.03162 0.41173
 C1580 C 0.27428 0.02125 0.38932
 C1581 C 0.28956 0.03296 0.37298
 C1582 C 0.29887 0.05541 0.37944
 C1583 C 0.31291 0.06733 0.36174
 C1584 C 0.31837 0.05688 0.33907
 C1585 C 0.31014 0.03423 0.33312
 C1586 C 0.29561 0.02236 0.35016
 H1587 H 0.23984 0.04119 0.45295
 H1588 H 0.28132 0.11515 0.47398
 H1589 H 0.22561 0.06338 0.48779
 H1590 H 0.30725 0.11236 0.43930
 H1591 H 0.31895 0.09463 0.40114
 H1592 H 0.25553 0.02145 0.42322
 H1593 H 0.26720 0.00401 0.38459
 H1594 H 0.31961 0.08496 0.36466
 H1595 H 0.32968 0.06640 0.32627
 H1596 H 0.28887 0.00495 0.34556
 C1597 C 0.74754 0.57867 0.97154
 C1598 C 0.76622 0.58520 0.95457
 C1599 C 0.78018 0.60520 0.96046
 C1600 C 0.77662 0.61700 0.98281
 C1601 C 0.75889 0.60987 1.00024
 C1602 C 0.74354 0.59123 0.99359
 C1603 C 0.79747 0.61379 0.94389
 C1604 C 0.80096 0.60326 0.92120
 C1605 C 0.78768 0.58319 0.91434
 C1606 C 0.77099 0.57324 0.93167
 C1607 C 0.76029 0.55139 0.92575
 C1608 C 0.76571 0.53973 0.90363
 C1609 C 0.78100 0.54989 0.88614
 C1610 C 0.79135 0.57226 0.89095
 C1611 C 0.80490 0.58293 0.87206
 C1612 C 0.80951 0.57108 0.84998
 C1613 C 0.80082 0.54825 0.84583
 C1614 C 0.78626 0.53780 0.86389
 H1615 H 0.73499 0.56464 0.96779
 H1616 H 0.78725 0.63265 0.98612
 H1617 H 0.72804 0.58658 1.00531
 H1618 H 0.80832 0.62904 0.94842
 H1619 H 0.81502 0.61077 0.90970
 H1620 H 0.74844 0.54238 0.93835
 H1621 H 0.75764 0.52267 0.90010
 H1622 H 0.81193 0.60058 0.87364
 H1623 H 0.82065 0.57957 0.83627
 H1624 H 0.77909 0.52030 0.86059
 C1625 C 0.01999 0.72123 0.57591
 C1626 C 0.04317 0.71690 0.58722
 C1627 C 0.04371 0.72145 0.61238
 C1628 C 0.02231 0.73056 0.62523
 C1629 C -0.00013 0.73644 0.61363
 C1630 C -0.00123 0.73061 0.58892
 C1631 C 0.06566 0.71712 0.62478
 C1632 C 0.08749 0.70873 0.61273
 C1633 C 0.08831 0.70431 0.58756
 C1634 C 0.06571 0.70816 0.57460
 C1635 C 0.06650 0.70328 0.54950
 C1636 C 0.08843 0.69481 0.53748
 C1637 C 0.11058 0.69111 0.54980
 C1638 C 0.11097 0.69602 0.57497
 C1639 C 0.13415 0.69248 0.58644
 C1640 C 0.15567 0.68398 0.57357
 C1641 C 0.15505 0.67873 0.54884
 C1642 C 0.13241 0.68248 0.53704
 H1643 H 0.01753 0.71754 0.55703
 H1644 H 0.02324 0.73388 0.64450
 H1645 H -0.01851 0.73300 0.57944
 H1646 H 0.06604 0.72041 0.64409
 H1647 H 0.10343 0.70585 0.62386
 H1648 H 0.05038 0.70580 0.53850
 H1649 H 0.08805 0.69120 0.51822
 H1650 H 0.13646 0.69604 0.60535
 H1651 H 0.17283 0.68103 0.58321
 H1652 H 0.13182 0.67878 0.51781
 C1653 C 0.56006 0.19263 1.11929
 C1654 C 0.56823 0.20090 1.09669
 C1655 C 0.55338 0.21923 1.08626
 C1656 C 0.53258 0.23002 1.09905
 C1657 C 0.52552 0.22313 1.12266
 C1658 C 0.53950 0.20355 1.13191
 C1659 C 0.55985 0.22738 1.06342
 C1660 C 0.58114 0.21810 1.05087
 C1661 C 0.59726 0.20054 1.06096
 C1662 C 0.59079 0.19195 1.08437
 C1663 C 0.60761 0.17548 1.09516
 C1664 C 0.62997 0.16768 1.08363
 C1665 C 0.63640 0.17561 1.06075
 C1666 C 0.62000 0.19176 1.04877
 C1667 C 0.62721 0.19842 1.02512
 C1668 C 0.64990 0.18976 1.01425
 C1669 C 0.66622 0.17445 1.02660
 C1670 C 0.65928 0.16738 1.04980
 H1671 H 0.56927 0.17777 1.12797
 H1672 H 0.52295 0.24511 1.09094
 H1673 H 0.53547 0.19626 1.14919
 H1674 H 0.54846 0.24134 1.05521
 H1675 H 0.58487 0.22570 1.03354
 H1676 H 0.60446 0.16872 1.11296
 H1677 H 0.64244 0.15531 1.09282
 H1678 H 0.61568 0.21004 1.01437
 H1679 H 0.65482 0.19523 0.99617
 H1680 H 0.67160 0.15503 1.05920
 C1681 C 0.97748 0.21608 0.90587
 C1682 C 0.95193 0.22414 0.90586
 C1683 C 0.94595 0.24486 0.89270
 C1684 C 0.96445 0.25629 0.87956
 C1685 C 0.98991 0.24823 0.87933
 C1686 C 0.99590 0.22780 0.89279
 C1687 C 0.92128 0.25396 0.89199
 C1688 C 0.90204 0.24256 0.90347
 C1689 C 0.90662 0.22125 0.91604
 C1690 C 0.93203 0.21209 0.91771
 C1691 C 0.93655 0.19103 0.93075
 C1692 C 0.91699 0.17892 0.94115
 C1693 C 0.89214 0.18722 0.93904
 C1694 C 0.88656 0.20862 0.92667
 C1695 C 0.86099 0.21622 0.92506
 C1696 C 0.84198 0.20299 0.93499
 C1697 C 0.84756 0.18175 0.94692
 C1698 C 0.87276 0.17405 0.94903
 H1699 H 0.98386 0.20046 0.91534
 H1700 H 0.95813 0.27093 0.86861
 H1701 H 1.01501 0.22040 0.89258
 H1702 H 0.91667 0.27003 0.88217
 H1703 H 0.88368 0.25097 0.90186
 H1704 H 0.95510 0.18325 0.93312
 H1705 H 0.92138 0.16267 0.95075
 H1706 H 0.85482 0.23211 0.91596
 H1707 H 0.82269 0.20920 0.93279
 H1708 H 0.87730 0.15775 0.95850
 C1709 C 0.46343 0.72450 0.42519
 C1710 C 0.43810 0.73118 0.42091
 C1711 C 0.43330 0.74612 0.40114
 C1712 C 0.45300 0.75408 0.38662
 C1713 C 0.47824 0.74817 0.39151
 C1714 C 0.48293 0.73261 0.41062
 C1715 C 0.40876 0.75283 0.39553
 C1716 C 0.38866 0.74447 0.40864
 C1717 C 0.39226 0.72893 0.42807
 C1718 C 0.41737 0.72286 0.43488
 C1719 C 0.42088 0.70854 0.45527
 C1720 C 0.40070 0.69931 0.46775
 C1721 C 0.37624 0.70380 0.46038
 C1722 C 0.37158 0.71891 0.44063
 C1723 C 0.34642 0.72259 0.43369
 C1724 C 0.32709 0.71092 0.44515
 C1725 C 0.33195 0.69552 0.46411
 C1726 C 0.35645 0.69257 0.47217
 H1727 H 0.46887 0.71254 0.43925
 H1728 H 0.44828 0.76433 0.37095
 H1729 H 0.50196 0.72652 0.41422
 H1730 H 0.40500 0.76451 0.38058
 H1731 H 0.37043 0.75064 0.40298
 H1732 H 0.43910 0.70407 0.46213
 H1733 H 0.40436 0.68805 0.48303
 H1734 H 0.34099 0.73365 0.41892
 H1735 H 0.30821 0.71352 0.43877
 H1736 H 0.36031 0.68046 0.48674
 C1737 C 0.54109 0.78363 0.42303
 C1738 C 0.56374 0.78694 0.40985
 C1739 C 0.56475 0.78019 0.38510
 C1740 C 0.54432 0.76988 0.37447
 C1741 C 0.52227 0.76562 0.38788
 C1742 C 0.52074 0.77344 0.41218
 C1743 C 0.58607 0.78389 0.37088
 C1744 C 0.60645 0.79464 0.38051
 C1745 C 0.60646 0.80193 0.40502
 C1746 C 0.58510 0.79729 0.42014
 C1747 C 0.58592 0.80295 0.44501
 C1748 C 0.60645 0.81356 0.45469
 C1749 C 0.62684 0.81927 0.44000
 C1750 C 0.62717 0.81364 0.41493
 C1751 C 0.64803 0.82048 0.40075
 C1752 C 0.66749 0.83242 0.41105
 C1753 C 0.66704 0.83786 0.43578
 C1754 C 0.64680 0.83097 0.45023
 H1755 H 0.53817 0.78937 0.44159
 H1756 H 0.54549 0.76504 0.35542
 H1757 H 0.50362 0.77241 0.42290
 H1758 H 0.58696 0.77859 0.35195
 H1759 H 0.62213 0.79663 0.36820
 H1760 H 0.57106 0.79906 0.45767
 H1761 H 0.60619 0.81762 0.47389
 H1762 H 0.64972 0.81743 0.38154
 H1763 H 0.68301 0.83752 0.39956
 H1764 H 0.64618 0.83545 0.46936
 C1765 C 0.06930 0.29324 -0.12816
 C1766 C 0.07355 0.29143 -0.10332
 C1767 C 0.05676 0.27819 -0.08925
 C1768 C 0.03586 0.26815 -0.09972
 C1769 C 0.03207 0.26965 -0.12470
 C1770 C 0.04916 0.28266 -0.13846
 C1771 C 0.06115 0.27478 -0.06485
 C1772 C 0.08236 0.28340 -0.05436
 C1773 C 0.09961 0.29664 -0.06772
 C1774 C 0.09431 0.30181 -0.09222
 C1775 C 0.10975 0.31744 -0.10480
 C1776 C 0.13052 0.32662 -0.09435
 C1777 C 0.13700 0.32037 -0.07113
 C1778 C 0.12184 0.30519 -0.05742
 C1779 C 0.12998 0.29882 -0.03423
 C1780 C 0.15202 0.30748 -0.02515
 C1781 C 0.16645 0.32288 -0.03871
 C1782 C 0.15878 0.32922 -0.06166
 H1783 H 0.08171 0.30193 -0.14046
 H1784 H 0.02294 0.25911 -0.08817
 H1785 H 0.04716 0.28417 -0.15775
 H1786 H 0.04836 0.26483 -0.05386
 H1787 H 0.08444 0.27985 -0.03549
 H1788 H 0.10596 0.32348 -0.12268
 H1789 H 0.14184 0.33853 -0.10473
 H1790 H 0.12006 0.28679 -0.02291
 H1791 H 0.15771 0.30227 -0.00735
 H1792 H 0.17018 0.34072 -0.07246
 C1793 C 0.45283 0.28293 0.11906
 C1794 C 0.44336 0.27168 0.09851
 C1795 C 0.45608 0.25044 0.08959
 C1796 C 0.47639 0.24020 0.10193
 C1797 C 0.48557 0.25130 0.12281
 C1798 C 0.47306 0.27282 0.13101
 C1799 C 0.44810 0.23918 0.06872
 C1800 C 0.42781 0.24866 0.05635
 C1801 C 0.41408 0.26945 0.06490
 C1802 C 0.42152 0.28065 0.08680
 C1803 C 0.40638 0.29995 0.09677
 C1804 C 0.38503 0.30837 0.08557
 C1805 C 0.37816 0.29836 0.06375
 C1806 C 0.39273 0.27907 0.05274
 C1807 C 0.38538 0.27050 0.02990
 C1808 C 0.36424 0.28050 0.01888
 C1809 C 0.34964 0.29896 0.03044
 C1810 C 0.35672 0.30778 0.05282
 H1811 H 0.44505 0.29965 0.12652
 H1812 H 0.48428 0.22287 0.09587
 H1813 H 0.47826 0.28196 0.14728
 H1814 H 0.45771 0.22288 0.06177
 H1815 H 0.42279 0.23877 0.04050
 H1816 H 0.41001 0.30857 0.11373
 H1817 H 0.37385 0.32305 0.09407
 H1818 H 0.39587 0.25651 0.01983
 H1819 H 0.35920 0.27374 0.00134
 H1820 H 0.34577 0.32254 0.06148
 C1821 C 0.91024 0.76281 0.60814
 C1822 C 0.91434 0.77791 0.58850
 C1823 C 0.93932 0.78374 0.58296
 C1824 C 0.95934 0.77342 0.59563
 C1825 C 0.95524 0.75717 0.61423
 C1826 C 0.93016 0.75309 0.62092
 C1827 C 0.94419 0.80011 0.56501
 C1828 C 0.92473 0.81127 0.55277
 C1829 C 0.89950 0.80592 0.55754
 C1830 C 0.89439 0.78811 0.57487
 C1831 C 0.86960 0.78075 0.57773
 C1832 C 0.85019 0.79126 0.56502
 C1833 C 0.85455 0.80981 0.54931
 C1834 C 0.87920 0.81756 0.54540
 C1835 C 0.88235 0.83702 0.52991
 C1836 C 0.86191 0.84810 0.51880
 C1837 C 0.83762 0.84014 0.52249
 C1838 C 0.83422 0.82077 0.53764
 H1839 H 0.89174 0.75896 0.61480
 H1840 H 0.97829 0.77822 0.59113
 H1841 H 0.92554 0.74276 0.63654
 H1842 H 0.96327 0.80463 0.56060
 H1843 H 0.93015 0.82365 0.53920
 H1844 H 0.86465 0.76636 0.58928
 H1845 H 0.83144 0.78501 0.56781
 H1846 H 0.90022 0.84464 0.52657
 H1847 H 0.86514 0.86340 0.50773
 H1848 H 0.81564 0.81417 0.54047
   
