data_POSCAR
  _audit_creation_date              2014-09-24
  _audit_creation_method            'ToBaCCo'
  _symmetry_space_group_name_H-M    'P1'
  _symmetry_Int_Tables_number       1
  _symmetry_cell_setting            triclinic
  loop_
  _symmetry_equiv_pos_as_xyz
 x,y,z
_cell_length_a 64.6768
_cell_length_b 64.6313
_cell_length_c 64.8250
_cell_angle_alpha 89.357000
_cell_angle_beta 89.796500
_cell_angle_gamma 89.910000
loop_
  _atom_site_label
  _atom_site_type_symbol
  _atom_site_fract_x
  _atom_site_fract_y
  _atom_site_fract_z
C1 C 0.11695 -0.00271 0.22436
 C2 C 0.13257 0.01495 0.22536
 C3 C 0.14349 0.01571 0.24316
 C4 C 0.13761 -0.00127 0.25887
 C5 C 0.12946 -0.02229 0.22920
 C6 C 0.14032 -0.02157 0.24710
 C7 C 0.10328 0.00020 0.24362
 C8 C 0.11399 0.00068 0.26176
 H9 H 0.13441 0.02629 0.21305
 H10 H 0.14667 -0.00086 0.27335
 H11 H 0.12968 -0.03560 0.21918
 H12 H 0.08667 0.00150 0.24325
 C13 C 0.37991 -0.00540 0.72529
 C14 C 0.36554 -0.02409 0.72767
 C15 C 0.35484 -0.02468 0.74576
 C16 C 0.35973 -0.00645 0.76013
 C17 C 0.36604 0.01338 0.72871
 C18 C 0.35545 0.01306 0.74688
 C19 C 0.39312 -0.00659 0.74339
 C20 C 0.38227 -0.00684 0.76280
 H21 H 0.36489 -0.03657 0.71668
 H22 H 0.35024 -0.00671 0.77435
 H23 H 0.36582 0.02650 0.71816
 H24 H 0.40943 -0.01000 0.74215
 C25 C 0.88255 0.50049 0.23180
 C26 C 0.86838 0.48184 0.23475
 C27 C 0.85551 0.48287 0.25131
 C28 C 0.85830 0.50271 0.26408
 C29 C 0.86807 0.51921 0.23165
 C30 C 0.85547 0.52062 0.24843
 C31 C 0.89412 0.50196 0.25242
 C32 C 0.88154 0.50339 0.26931
 H33 H 0.86881 0.46860 0.22464
 H34 H 0.84779 0.50369 0.27761
 H35 H 0.86909 0.53131 0.21999
 H36 H 0.91072 0.50149 0.25390
 C37 C 0.61431 0.49078 0.72990
 C38 C 0.62518 0.51150 0.73277
 C39 C 0.63560 0.51330 0.75082
 C40 C 0.63424 0.49388 0.76472
 C41 C 0.63121 0.47449 0.73301
 C42 C 0.64161 0.47596 0.75111
 C43 C 0.60047 0.48850 0.74920
 C44 C 0.61085 0.49016 0.76742
 H45 H 0.62467 0.52376 0.72124
 H46 H 0.64290 0.49511 0.77941
 H47 H 0.63355 0.46180 0.72246
 H48 H 0.58391 0.48673 0.74884
 C49 C 0.23317 0.12148 0.99711
 C50 C 0.23336 0.13282 1.01763
 C51 C 0.25050 0.14440 1.02100
 C52 C 0.26659 0.14318 1.00345
 C53 C 0.23723 0.13830 0.98078
 C54 C 0.25457 0.14963 0.98401
 C55 C 0.25320 0.10857 0.99744
 C56 C 0.27077 0.11985 1.00059
 H57 H 0.22083 0.13154 1.02872
 H58 H 0.28055 0.15277 1.00593
 H59 H 0.22766 0.14037 0.96723
 H60 H 0.25369 0.09202 0.99565
 C61 C 0.72793 0.38644 0.99518
 C62 C 0.73054 0.37450 0.97648
 C63 C 0.74741 0.36008 0.97696
 C64 C 0.75893 0.36084 0.99651
 C65 C 0.72662 0.37131 1.01186
 C66 C 0.74378 0.35726 1.01313
 C67 C 0.74792 0.39658 0.99776
 C68 C 0.76526 0.38259 0.99860
 H69 H 0.72002 0.37596 0.96361
 H70 H 0.77186 0.34978 0.99702
 H71 H 0.71529 0.37283 1.02411
 H72 H 0.75027 0.41287 0.99470
 C73 C 0.23597 0.88400 0.50688
 C74 C 0.23760 0.87142 0.48714
 C75 C 0.25499 0.85977 0.48555
 C76 C 0.26962 0.86179 0.50404
 C77 C 0.23879 0.86822 0.52443
 C78 C 0.25629 0.85668 0.52305
 C79 C 0.25607 0.89684 0.50721
 C80 C 0.27367 0.88520 0.50565
 H81 H 0.22569 0.87162 0.47543
 H82 H 0.28379 0.85214 0.50295
 H83 H 0.22867 0.86755 0.53778
 H84 H 0.25663 0.91346 0.50854
 C85 C 0.73097 0.62010 0.50363
 C86 C 0.73247 0.63545 0.52129
 C87 C 0.75028 0.64644 0.52178
 C88 C 0.76542 0.64120 0.50420
 C89 C 0.73501 0.63291 0.48406
 C90 C 0.75290 0.64389 0.48421
 C91 C 0.75056 0.60660 0.50590
 C92 C 0.76866 0.61757 0.50596
 H93 H 0.72089 0.63640 0.53339
 H94 H 0.77980 0.65053 0.50424
 H95 H 0.72526 0.63205 0.47053
 H96 H 0.75041 0.58995 0.50718
 C97 C -0.00736 0.22969 0.11486
 C98 C 0.01024 0.22932 0.13059
 C99 C 0.01088 0.24603 0.14314
 C100 C -0.00666 0.26175 0.13907
 C101 C -0.02681 0.23214 0.12828
 C102 C -0.02666 0.24898 0.14069
 C103 C -0.00508 0.25045 0.10348
 C104 C -0.00499 0.26736 0.11592
 H105 H 0.02165 0.21706 0.13129
 H106 H -0.00659 0.27516 0.14956
 H107 H -0.03934 0.22110 0.12885
 H108 H -0.00382 0.25142 0.08684
 C109 C 0.00051 0.73141 0.39033
 C110 C -0.01824 0.73445 0.37870
 C111 C -0.01935 0.75332 0.36708
 C112 C -0.00099 0.76628 0.36980
 C113 C 0.01815 0.73429 0.37479
 C114 C 0.01751 0.75241 0.36394
 C115 C 0.00204 0.75059 0.40409
 C116 C 0.00140 0.76895 0.39337
 H117 H -0.03132 0.72419 0.38079
 H118 H -0.00102 0.78096 0.36082
 H119 H 0.03099 0.72355 0.37377
 H120 H 0.00411 0.74993 0.42059
 C121 C 0.50879 0.23168 0.88923
 C122 C 0.49054 0.23486 0.87464
 C123 C 0.49168 0.25211 0.86258
 C124 C 0.51102 0.26531 0.86660
 C125 C 0.52797 0.23287 0.87539
 C126 C 0.52930 0.25035 0.86353
 C127 C 0.50941 0.25172 0.90176
 C128 C 0.51080 0.26935 0.89002
 H129 H 0.47752 0.22434 0.87418
 H130 H 0.51190 0.27939 0.85670
 H131 H 0.54010 0.22130 0.87600
 H132 H 0.50814 0.25226 0.91834
 C133 C 0.50340 0.73621 0.61478
 C134 C 0.51945 0.73685 0.63199
 C135 C 0.51741 0.75299 0.64505
 C136 C 0.49927 0.76745 0.63970
 C137 C 0.48247 0.73711 0.62582
 C138 C 0.48017 0.75340 0.63874
 C139 C 0.50542 0.75751 0.60403
 C140 C 0.50307 0.77380 0.61708
 H141 H 0.53245 0.72626 0.63268
 H142 H 0.49757 0.78070 0.65034
 H143 H 0.47017 0.72617 0.62290
 H144 H 0.50734 0.75988 0.58763
 C145 C 0.88609 0.99561 0.76170
 C146 C 0.87373 1.01428 0.76005
 C147 C 0.85891 1.01458 0.74357
 C148 C 0.85982 0.99562 0.73126
 C149 C 0.87052 0.97788 0.76264
 C150 C 0.85679 0.97777 0.74691
 C151 C 0.89633 0.99368 0.74035
 C152 C 0.88266 0.99363 0.72431
 H153 H 0.87740 1.02766 0.76920
 H154 H 0.84862 0.99457 0.71846
 H155 H 0.87070 0.96601 0.77460
 H156 H 0.91281 0.99402 0.73775
 C157 C 0.38513 0.49935 0.26805
 C158 C 0.36955 0.51709 0.26929
 C159 C 0.35524 0.51746 0.25400
 C160 C 0.35774 0.49980 0.23849
 C161 C 0.37200 0.47978 0.26701
 C162 C 0.35746 0.47997 0.25193
 C163 C 0.39454 0.50142 0.24633
 C164 C 0.38028 0.50183 0.23081
 H165 H 0.37060 0.52911 0.28077
 H166 H 0.34589 0.50008 0.22615
 H167 H 0.37426 0.46670 0.27736
 H168 H 0.41093 0.50163 0.24317
 C169 C 0.60926 0.99483 0.26257
 C170 C 0.62728 0.97963 0.26003
 C171 C 0.63926 0.98336 0.24311
 C172 C 0.63213 1.00222 0.23008
 C173 C 0.61850 1.01513 0.26212
 C174 C 0.63096 1.01963 0.24440
 C175 C 0.59752 0.99318 0.24209
 C176 C 0.60930 0.99729 0.22499
 H177 H 0.62890 0.96563 0.26924
 H178 H 0.64179 1.00512 0.21618
 H179 H 0.61702 1.02559 0.27500
 H180 H 0.58161 0.98816 0.24112
 C181 C 0.11163 0.49912 0.76784
 C182 C 0.12145 0.47766 0.76669
 C183 C 0.13257 0.47424 0.74920
 C184 C 0.13308 0.49291 0.73425
 C185 C 0.12955 0.51428 0.76466
 C186 C 0.14081 0.51106 0.74729
 C187 C 0.09906 0.50134 0.74788
 C188 C 0.11007 0.49770 0.73028
 H189 H 0.11956 0.46610 0.77877
 H190 H 0.14238 0.49020 0.72012
 H191 H 0.13192 0.52781 0.77406
 H192 H 0.08293 0.50579 0.74770
 C193 C 0.77216 0.88499 -0.00057
 C194 C 0.76880 0.87404 0.02019
 C195 C 0.75100 0.86295 0.02155
 C196 C 0.73793 0.86364 0.00180
 C197 C 0.77040 0.86799 -0.01664
 C198 C 0.75269 0.85682 -0.01553
 C199 C 0.75242 0.89800 -0.00373
 C200 C 0.73443 0.88697 -0.00216
 H201 H 0.77927 0.87572 0.03308
 H202 H 0.72364 0.85423 0.00301
 H203 H 0.78160 0.86602 -0.02895
 H204 H 0.75243 0.91429 -0.00752
 C205 C 0.26975 0.38343 0.50091
 C206 C 0.26964 0.36989 0.52037
 C207 C 0.25300 0.35722 0.52236
 C208 C 0.23745 0.35940 0.50456
 C209 C 0.26704 0.36833 0.48314
 C210 C 0.25037 0.35575 0.48498
 C211 C 0.24903 0.39520 0.50168
 C212 C 0.23203 0.38269 0.50364
 H213 H 0.28169 0.37071 0.53191
 H214 H 0.22410 0.34876 0.50617
 H215 H 0.27708 0.36820 0.46971
 H216 H 0.24766 0.41168 0.49920
 C217 C 0.26455 0.61940 0.00639
 C218 C 0.26177 0.63184 -0.01357
 C219 C 0.24377 0.64262 -0.01480
 C220 C 0.23002 0.64033 0.00445
 C221 C 0.26176 0.63508 0.02365
 C222 C 0.24388 0.64601 0.02271
 C223 C 0.24493 0.60581 0.00780
 C224 C 0.22681 0.61677 0.00664
 H225 H 0.27284 0.63129 -0.02614
 H226 H 0.21563 0.64963 0.00346
 H227 H 0.27243 0.63637 0.03642
 H228 H 0.24512 0.58922 0.00989
 C229 C 0.77209 0.11320 0.49877
 C230 C 0.77298 0.12743 0.48136
 C231 C 0.75602 0.14165 0.48001
 C232 C 0.74129 0.13908 0.49723
 C233 C 0.77028 0.12606 0.51684
 C234 C 0.75369 0.14071 0.51624
 C235 C 0.75193 0.10314 0.49742
 C236 C 0.73462 0.11727 0.49630
 H237 H 0.78389 0.12522 0.46883
 H238 H 0.72889 0.15079 0.49650
 H239 H 0.77889 0.12270 0.53080
 H240 H 0.74978 0.08693 0.50101
 C241 C 1.00122 0.77110 0.88165
 C242 C 1.01763 0.77027 0.86462
 C243 C 1.01813 0.75230 0.85393
 C244 C 1.00199 0.73640 0.86130
 C245 C 0.98089 0.76584 0.87098
 C246 C 0.98123 0.74794 0.86026
 C247 C 1.00574 0.75191 0.89522
 C248 C 1.00609 0.73370 0.88464
 H249 H 1.02876 0.78256 0.86212
 H250 H 1.00223 0.72183 0.85240
 H251 H 0.96728 0.77561 0.87181
 H252 H 1.00702 0.75221 0.91181
 C253 C 0.49417 0.27336 0.38792
 C254 C 0.51150 0.27416 0.37180
 C255 C 0.51195 0.25781 0.35875
 C256 C 0.49475 0.24189 0.36295
 C257 C 0.47436 0.27068 0.37552
 C258 C 0.47462 0.25461 0.36223
 C259 C 0.49715 0.25234 0.39887
 C260 C 0.49766 0.23586 0.38584
 H261 H 0.52334 0.28600 0.37180
 H262 H 0.49498 0.22872 0.35211
 H263 H 0.46114 0.28087 0.37714
 H264 H 0.49871 0.25034 0.41533
 C265 C 1.01305 0.26754 0.61837
 C266 C 0.99300 0.26519 0.63086
 C267 C 0.99212 0.24785 0.64285
 C268 C 1.01175 0.23453 0.64200
 C269 C 1.03004 0.26666 0.63478
 C270 C 1.02951 0.24947 0.64708
 C271 C 1.01515 0.24717 0.60669
 C272 C 1.01418 0.22984 0.61887
 H273 H 0.98000 0.27569 0.62938
 H274 H 1.01095 0.22065 0.65221
 H275 H 1.04169 0.27840 0.63674
 H276 H 1.01643 0.24666 0.59005
 C277 C 0.49703 0.76721 0.12158
 C278 C 0.47965 0.76524 0.13751
 C279 C 0.48065 0.74800 0.14968
 C280 C 0.49928 0.73405 0.14487
 C281 C 0.51697 0.76537 0.13397
 C282 C 0.51828 0.74821 0.14615
 C283 C 0.49595 0.74683 0.10950
 C284 C 0.49712 0.72945 0.12169
 H285 H 0.46653 0.77569 0.13766
 H286 H 0.50027 0.72012 0.15499
 H287 H 0.52914 0.77686 0.13308
 H288 H 0.49466 0.74591 0.09295
 O289 O 0.04932 1.04205 0.98655
 O290 O 0.03133 1.04691 0.95474
 O291 O 0.00022 1.05100 1.03078
 O292 O -0.03253 1.03470 1.03646
 O293 O 0.04192 0.99936 1.03804
 O294 O 0.04562 0.96695 1.02100
 O295 O -0.05642 0.99462 0.98107
 O296 O -0.05551 1.03172 0.99080
 O297 O -0.01079 0.99073 0.93534
 O298 O 0.02625 0.99987 0.93369
 O299 O -0.01275 0.94644 0.98343
 O300 O -0.00184 0.94626 1.01984
 O301 O -0.04438 0.96599 0.99773
 O302 O -0.02647 0.96104 1.03075
 O303 O 0.00323 0.95798 0.95428
 O304 O 0.03677 0.97462 0.94801
 O305 O -0.03847 1.00791 0.94830
 O306 O -0.04210 1.04153 0.96471
 O307 O 0.06112 1.01354 1.00366
 O308 O 0.06032 0.97798 0.99458
 O309 O 0.01428 1.01711 1.05046
 O310 O -0.02141 1.00855 1.05181
 O311 O 0.01651 1.06265 1.00180
 O312 O 0.00592 1.06274 0.96655
 Zr313 Zr 0.01753 1.03658 0.98261
 O314 O -0.00214 1.01903 0.96382
 Zr315 Zr -0.00581 1.01963 1.02520
 O316 O -0.02640 1.00123 1.00840
 Zr317 Zr 0.03493 0.99452 1.00676
 O318 O 0.01618 0.97510 0.98895
 Zr319 Zr -0.03056 1.01423 0.97890
 O320 O -0.01180 1.03405 0.99659
 Zr321 Zr 0.01011 0.98916 0.96020
 O322 O 0.03108 1.00752 0.97708
 Zr323 Zr -0.01300 0.97217 1.00296
 O324 O 0.00659 0.98969 1.02209
 O325 O 0.02307 1.02395 1.01169
 O326 O -0.01888 0.98460 0.97371
 C327 C 0.06384 1.03126 0.99489
 C328 C 0.00874 1.06537 1.01986
 C329 C 0.03189 1.00819 1.05269
 C330 C -0.05888 0.97655 0.98913
 C331 C -0.02888 0.99882 0.93360
 C332 C -0.00546 0.94372 0.96521
 H333 H -0.00388 1.02628 0.95043
 H334 H 0.02318 0.96159 0.98749
 H335 H 0.03234 1.03260 1.02013
 H336 H -0.03957 1.00007 1.01610
 H337 H -0.06021 1.02496 1.00375
 H338 H -0.03728 1.04415 1.02532
 H339 H 0.04110 0.96371 0.95791
 H340 H 0.06229 0.98307 0.98024
 H341 H -0.03235 1.04561 0.95361
 H342 H -0.00807 1.06540 0.97217
 H343 H 0.01087 0.94131 1.01294
 H344 H 0.03465 0.96244 1.03073
 H345 H 0.04014 1.03543 0.94984
 H346 H 0.01984 1.01306 0.92918
 H347 H -0.01663 0.99415 1.05410
 H348 H -0.03726 0.97102 1.03497
 O349 O 0.48716 0.49806 0.44073
 O350 O 0.52292 0.50760 0.44107
 O351 O 0.48474 0.44853 0.48495
 O352 O 0.49421 0.44514 0.52030
 O353 O 0.43933 0.49735 0.48694
 O354 O 0.43997 0.53213 0.49894
 O355 O 0.53740 0.49797 0.54494
 O356 O 0.54171 0.46606 0.52501
 O357 O 0.54463 0.54440 0.49918
 O358 O 0.52692 0.55223 0.46623
 O359 O 0.49583 0.54798 0.54231
 O360 O 0.46198 0.53088 0.54588
 O361 O 0.50925 0.51403 0.55835
 O362 O 0.47240 0.50458 0.55827
 O363 O 0.51259 0.56238 0.51490
 O364 O 0.50266 0.56642 0.47872
 O365 O 0.55629 0.51455 0.51384
 O366 O 0.55621 0.47880 0.50093
 O367 O 0.45897 0.51405 0.45427
 O368 O 0.45510 0.54514 0.47350
 O369 O 0.45120 0.46736 0.50123
 O370 O 0.46846 0.45953 0.53284
 O371 O 0.50162 0.46289 0.45754
 O372 O 0.53399 0.48004 0.45386
 Zr373 Zr 0.50693 0.49367 0.46609
 O374 O 0.52700 0.51039 0.48514
 Zr375 Zr 0.48283 0.47262 0.50642
 O376 O 0.50178 0.48840 0.52730
 Zr377 Zr 0.46554 0.51659 0.48586
 O378 O 0.48374 0.53437 0.50578
 Zr379 Zr 0.53054 0.49473 0.51349
 O380 O 0.51243 0.47668 0.49342
 Zr381 Zr 0.51329 0.53874 0.49290
 O382 O 0.49419 0.52306 0.47173
 Zr383 Zr 0.48912 0.51768 0.53322
 O384 O 0.46877 0.50085 0.51427
 O385 O 0.47781 0.48785 0.47852
 O386 O 0.51846 0.52364 0.52104
 C387 C 0.46925 0.50655 0.43907
 C388 C 0.49305 0.44753 0.46695
 C389 C 0.43666 0.47884 0.49390
 C390 C 0.52721 0.50571 0.56004
 C391 C 0.55894 0.53317 0.50724
 C392 C 0.50486 0.56320 0.53315
 H393 H 0.54034 0.51230 0.47790
 H394 H 0.47665 0.54765 0.50835
 H395 H 0.46882 0.47987 0.46919
 H396 H 0.50319 0.47994 0.54000
 H397 H 0.53203 0.46119 0.53586
 H398 H 0.50838 0.44312 0.51487
 H399 H 0.48926 0.57007 0.48513
 H400 H 0.46636 0.55048 0.46455
 H401 H 0.56082 0.48646 0.48844
 H402 H 0.53892 0.46994 0.46434
 H403 H 0.45820 0.54303 0.53728
 H404 H 0.43758 0.52571 0.51268
 H405 H 0.51750 0.52188 0.43969
 H406 H 0.53810 0.54292 0.46154
 H407 H 0.45942 0.47042 0.53863
 H408 H 0.47873 0.49103 0.56168
 O409 O 0.51107 -0.03661 0.54376
 O410 O 0.54209 -0.01702 0.54557
 O411 O 0.46520 0.01255 0.54429
 O412 O 0.45785 0.04039 0.52500
 O413 O 0.45951 -0.03766 0.50136
 O414 O 0.47672 -0.04576 0.46975
 O415 O 0.51506 0.06021 0.47888
 O416 O 0.50347 0.06532 0.51335
 O417 O 0.56151 0.01529 0.48277
 O418 O 0.56331 -0.02017 0.49867
 O419 O 0.51411 0.00882 0.43914
 O420 O 0.47773 -0.00200 0.44094
 O421 O 0.49926 0.04340 0.45273
 O422 O 0.46628 0.02455 0.45141
 O423 O 0.54340 -0.00425 0.45340
 O424 O 0.55014 -0.03426 0.47498
 O425 O 0.54816 0.04539 0.49471
 O426 O 0.53232 0.05371 0.52689
 O427 O 0.49402 -0.05320 0.51818
 O428 O 0.50367 -0.05798 0.48284
 O429 O 0.44626 -0.00756 0.51347
 O430 O 0.44521 0.02647 0.49716
 O431 O 0.49429 -0.00150 0.55819
 O432 O 0.52926 0.01023 0.55654
 Zr433 Zr 0.51405 -0.00597 0.53287
 O434 O 0.53287 0.01083 0.51218
 Zr435 Zr 0.47114 0.01339 0.51236
 O436 O 0.48815 0.03117 0.49075
 Zr437 Zr 0.49067 -0.03058 0.49484
 O438 O 0.50848 -0.01484 0.47244
 Zr439 Zr 0.51752 0.03790 0.50255
 O440 O 0.49960 0.02233 0.52529
 Zr441 Zr 0.53701 -0.00609 0.48508
 O442 O 0.52017 -0.02411 0.50679
 Zr443 Zr 0.49415 0.01333 0.46445
 O444 O 0.47500 -0.00366 0.48513
 O445 O 0.48516 -0.01412 0.52161
 O446 O 0.52321 0.02158 0.47551
 C447 C 0.50295 -0.05282 0.53585
 C448 C 0.47603 0.00619 0.55972
 C449 C 0.44449 -0.02660 0.50821
 C450 C 0.50738 0.05961 0.46065
 C451 C 0.56307 0.03452 0.48740
 C452 C 0.53258 0.00159 0.43784
 H453 H 0.54621 0.01383 0.51888
 H454 H 0.51025 -0.02391 0.46039
 H455 H 0.47680 -0.02206 0.53178
 H456 H 0.48046 0.04399 0.48739
 H457 H 0.49586 0.06158 0.52614
 H458 H 0.46367 0.05240 0.51740
 H459 H 0.54003 -0.04091 0.46576
 H460 H 0.51786 -0.05901 0.48844
 H461 H 0.54251 0.04422 0.53327
 H462 H 0.52301 0.02422 0.55689
 H463 H 0.48449 -0.01553 0.43870
 H464 H 0.46676 -0.03583 0.46362
 H465 H 0.54761 -0.02732 0.53579
 H466 H 0.56835 -0.01099 0.50966
 H467 H 0.44252 0.01791 0.48489
 H468 H 0.46197 0.03688 0.45925
 O469 O -0.00351 0.45547 1.04074
 O470 O 0.02851 0.47311 1.04633
 O471 O -0.04674 0.50656 1.04137
 O472 O -0.05252 0.53535 1.02353
 O473 O -0.04996 0.45955 0.99402
 O474 O -0.03063 0.45393 0.96312
 O475 O 0.01004 0.55720 0.98457
 O476 O -0.00443 0.55990 1.01826
 O477 O 0.05450 0.50997 0.98889
 O478 O 0.05413 0.47380 1.00090
 O479 O 0.01087 0.51027 0.94097
 O480 O -0.02557 0.49999 0.93827
 O481 O -0.00430 0.54317 0.95605
 O482 O -0.03781 0.52553 0.95058
 O483 O 0.03854 0.49496 0.95627
 O484 O 0.04164 0.46179 0.97559
 O485 O 0.04113 0.53953 1.00208
 O486 O 0.02233 0.54579 1.03357
 O487 O -0.01756 0.44167 1.01191
 O488 O -0.00497 0.43978 0.97710
 O489 O -0.06350 0.48882 1.00772
 O490 O -0.06220 0.52440 0.99364
 O491 O -0.01956 0.49011 1.05650
 O492 O 0.01589 0.50004 1.05872
 Zr493 Zr 0.00210 0.48665 1.03255
 O494 O 0.02312 0.50444 1.01502
 Zr495 Zr -0.03824 0.50925 1.01013
 O496 O -0.01890 0.52827 0.99180
 Zr497 Zr -0.01835 0.46632 0.99052
 O498 O 0.00167 0.48331 0.97110
 Zr499 Zr 0.00956 0.53286 1.00652
 O500 O -0.01078 0.51603 1.02618
 Zr501 Zr 0.02915 0.48977 0.98692
 O502 O 0.01007 0.47062 1.00558
 Zr503 Zr -0.01123 0.51251 0.96464
 O504 O -0.03250 0.49443 0.98196
 O505 O -0.02582 0.48062 1.01811
 O506 O 0.01699 0.51863 0.97877
 C507 C -0.01105 0.44025 1.03059
 C508 C -0.03752 0.49863 1.05712
 C509 C -0.06520 0.47030 1.00085
 C510 C 0.00388 0.55831 0.96574
 C511 C 0.05628 0.52862 0.99530
 C512 C 0.02937 0.50304 0.94060
 H513 H 0.03588 0.50630 1.02310
 H514 H 0.00426 0.47539 0.95840
 H515 H -0.03523 0.47226 1.02693
 H516 H -0.02588 0.54161 0.98895
 H517 H -0.01358 0.55544 1.02975
 H518 H -0.04518 0.54775 1.01827
 H519 H 0.03325 0.45753 0.96364
 H520 H 0.00868 0.43784 0.98370
 H521 H 0.03219 0.53570 1.03955
 H522 H 0.01031 0.51427 1.05967
 H523 H -0.01894 0.48652 0.93541
 H524 H -0.03962 0.46479 0.95704
 H525 H 0.03406 0.46306 1.03631
 H526 H 0.05733 0.48077 1.01401
 H527 H -0.06457 0.51641 0.98093
 H528 H -0.04214 0.53759 0.95881
 O529 O 0.05830 0.48747 0.50414
 O530 O 0.05598 0.52325 0.49420
 O531 O 0.01640 0.48319 0.55490
 O532 O -0.01932 0.49112 0.55956
 O533 O 0.01484 0.43812 0.50672
 O534 O 0.00088 0.43799 0.47272
 O535 O -0.04809 0.53416 0.50682
 O536 O -0.02746 0.53846 0.53849
 O537 O -0.00458 0.54271 0.45970
 O538 O 0.02792 0.52649 0.45003
 O539 O -0.04642 0.49216 0.45807
 O540 O -0.04805 0.45866 0.47524
 O541 O -0.06125 0.50538 0.49207
 O542 O -0.05855 0.46784 0.50271
 O543 O -0.02044 0.51016 0.44260
 O544 O 0.01643 0.50115 0.43731
 O545 O -0.01800 0.55393 0.49001
 O546 O -0.00407 0.55380 0.52523
 O547 O 0.04552 0.45859 0.48913
 O548 O 0.02491 0.45485 0.45827
 O549 O 0.00097 0.44906 0.53701
 O550 O -0.03133 0.46486 0.54577
 O551 O 0.04260 0.50098 0.53943
 O552 O 0.04365 0.53389 0.52200
 Zr553 Zr 0.03223 0.50627 0.50912
 O554 O 0.01147 0.52548 0.49299
 Zr555 Zr -0.00616 0.48046 0.53174
 O556 O -0.02868 0.49869 0.51674
 Zr557 Zr 0.01341 0.46423 0.48727
 O558 O -0.00845 0.48152 0.47030
 Zr559 Zr -0.01632 0.52795 0.50968
 O560 O 0.00539 0.51059 0.52705
 Zr561 Zr 0.00293 0.51153 0.46515
 O562 O 0.02590 0.49347 0.48010
 Zr563 Zr -0.03542 0.48588 0.48794
 O564 O -0.01456 0.46622 0.50395
 O565 O 0.02132 0.47672 0.51554
 O566 O -0.02471 0.51566 0.48128
 C567 C 0.06053 0.46947 0.49618
 C568 C 0.03425 0.49195 0.55513
 C569 C 0.00899 0.43510 0.52546
 C570 C -0.06319 0.52359 0.49965
 C571 C -0.01218 0.55684 0.47126
 C572 C -0.03846 0.50177 0.44254
 H573 H 0.01814 0.53907 0.49071
 H574 H -0.01137 0.47436 0.45725
 H575 H 0.03142 0.46814 0.52326
 H576 H -0.04111 0.49965 0.52558
 H577 H -0.03806 0.52857 0.54348
 H578 H -0.01473 0.50562 0.56109
 H579 H 0.00982 0.48790 0.43369
 H580 H 0.03368 0.46629 0.45300
 H581 H 0.00810 0.55874 0.51733
 H582 H 0.03379 0.53787 0.53297
 H583 H -0.03899 0.45442 0.46370
 H584 H -0.01248 0.43507 0.47966
 H585 H 0.05712 0.51777 0.48004
 H586 H 0.03360 0.53681 0.45963
 H587 H -0.03713 0.45562 0.53519
 H588 H -0.06275 0.47499 0.51547
 O589 O 0.45484 1.03599 -0.00150
 O590 O 0.47518 1.04037 0.02899
 O591 O 0.50087 1.03728 -0.04929
 O592 O 0.53093 1.01769 -0.05660
 O593 O 0.45386 0.98969 -0.04831
 O594 O 0.44945 0.95856 -0.02856
 O595 O 0.55646 0.97928 0.00097
 O596 O 0.55781 1.01567 -0.01213
 O597 O 0.51492 0.98196 0.04990
 O598 O 0.47929 0.99432 0.05408
 O599 O 0.50938 0.93522 0.00587
 O600 O 0.49562 0.93353 -0.02913
 O601 O 0.54101 0.95078 -0.01204
 O602 O 0.51993 0.94616 -0.04372
 O603 O 0.49659 0.94969 0.03502
 O604 O 0.46502 0.96983 0.04239
 O605 O 0.54270 0.99605 0.03356
 O606 O 0.54716 1.02845 0.01373
 O607 O 0.43940 1.00740 -0.01445
 O608 O 0.43825 0.97230 -0.00166
 O609 O 0.48170 1.00371 -0.06471
 O610 O 0.51659 0.99150 -0.06808
 O611 O 0.48841 1.05208 -0.02012
 O612 O 0.50109 1.05321 0.01435
 Zr613 Zr 0.48621 1.02743 0.00123
 O614 O 0.50599 1.00940 0.01994
 Zr615 Zr 0.50437 1.00584 -0.04153
 O616 O 0.52500 0.98696 -0.02473
 Zr617 Zr 0.46354 0.98578 -0.01758
 O618 O 0.48228 0.96586 0.00021
 Zr619 Zr 0.53258 1.00127 0.00316
 O620 O 0.51392 1.02138 -0.01481
 Zr621 Zr 0.49180 0.98099 0.02708
 O622 O 0.47091 1.00012 0.01044
 Zr623 Zr 0.50989 0.95958 -0.01576
 O624 O 0.48994 0.97744 -0.03469
 O625 O 0.47730 1.01362 -0.02611
 O626 O 0.51908 0.97317 0.01178
 C627 C 0.43888 1.02608 -0.00784
 C628 C 0.49490 1.05301 -0.03888
 C629 C 0.46308 0.99672 -0.06452
 C630 C 0.55688 0.96050 -0.00528
 C631 C 0.53371 0.98847 0.04963
 C632 C 0.50338 0.93420 0.02473
 H633 H 0.50944 1.01722 0.03247
 H634 H 0.47441 0.95312 0.00338
 H635 H 0.46822 1.02264 -0.03459
 H636 H 0.53738 0.98419 -0.03325
 H637 H 0.56106 1.00757 -0.02459
 H638 H 0.53800 1.02661 -0.04652
 H639 H 0.45916 0.95862 0.03397
 H640 H 0.43755 0.97902 0.01197
 H641 H 0.53923 1.03352 0.02574
 H642 H 0.51486 1.05421 0.00770
 H643 H 0.48276 0.93063 -0.02132
 H644 H 0.45916 0.95256 -0.03872
 H645 H 0.46574 1.03002 0.03528
 H646 H 0.48647 1.00760 0.05634
 H647 H 0.51010 0.97767 -0.06879
 H648 H 0.53175 0.95434 -0.04902
 O649 O 0.54115 0.46119 0.00409
 O650 O 0.52280 0.45472 0.03495
 O651 O 0.49309 0.45868 -0.04151
 O652 O 0.46165 0.47688 -0.04661
 O653 O 0.53812 0.50718 -0.04374
 O654 O 0.54250 0.53847 -0.02542
 O655 O 0.43826 0.51319 0.01267
 O656 O 0.43682 0.47790 0.00112
 O657 O 0.48342 0.51271 0.05820
 O658 O 0.51963 0.50156 0.05994
 O659 O 0.48356 0.55956 0.01369
 O660 O 0.49415 0.56292 -0.02152
 O661 O 0.45127 0.54242 -0.00210
 O662 O 0.47102 0.54809 -0.03558
 O663 O 0.49890 0.54540 0.04196
 O664 O 0.53220 0.52653 0.04655
 O665 O 0.45506 0.49754 0.04452
 O666 O 0.45141 0.46415 0.02492
 O667 O 0.55523 0.49027 -0.01007
 O668 O 0.55542 0.52578 0.00144
 O669 O 0.50974 0.49259 -0.05812
 O670 O 0.47400 0.50427 -0.05893
 O671 O 0.50795 0.44396 -0.01320
 O672 O 0.49614 0.44202 0.02231
 Zr673 Zr 0.50981 0.46830 0.00815
 O674 O 0.49111 0.48554 0.02828
 Zr675 Zr 0.48852 0.48972 -0.03344
 O676 O 0.46828 0.50742 -0.01519
 Zr677 Zr 0.53004 0.51097 -0.01258
 O678 O 0.51167 0.53016 0.00610
 Zr679 Zr 0.46320 0.49259 0.01343
 O680 O 0.48107 0.47347 -0.00603
 Zr681 Zr 0.50471 0.51448 0.03377
 O682 O 0.52488 0.49600 0.01596
 Zr683 Zr 0.48270 0.53540 -0.00770
 O684 O 0.50226 0.51858 -0.02782
 O685 O 0.51672 0.48277 -0.01978
 O686 O 0.47608 0.52119 0.02058
 C687 C 0.55655 0.47164 -0.00294
 C688 C 0.50072 0.44311 -0.03165
 C689 C 0.52825 0.49985 -0.05920
 C690 C 0.43641 0.53183 0.00597
 C691 C 0.46494 0.50563 0.05960
 C692 C 0.49061 0.56067 0.03215
 H693 H 0.48889 0.47755 0.04118
 H694 H 0.51914 0.54323 0.00852
 H695 H 0.52575 0.47418 -0.02861
 H696 H 0.45525 0.50969 -0.02281
 H697 H 0.43402 0.48426 -0.01253
 H698 H 0.45573 0.46738 -0.03607
 H699 H 0.53634 0.53874 0.03818
 H700 H 0.55740 0.51895 0.01504
 H701 H 0.45928 0.46035 0.03747
 H702 H 0.48260 0.44002 0.01556
 H703 H 0.50840 0.56494 -0.01647
 H704 H 0.53179 0.54428 -0.03471
 H705 H 0.53135 0.46556 0.04138
 H706 H 0.51286 0.48821 0.06326
 H707 H 0.48074 0.51791 -0.06081
 H708 H 0.45863 0.54007 -0.03942
 O709 O -0.00621 0.06122 0.51033
 O710 O 0.00579 0.06378 0.47558
 O711 O -0.05321 0.01431 0.50584
 O712 O -0.05302 -0.02065 0.49421
 O713 O -0.00887 0.01167 0.55513
 O714 O 0.02668 0.00129 0.55704
 O715 O 0.00518 -0.03922 0.45457
 O716 O -0.02751 -0.02101 0.44862
 O717 O 0.04890 0.00863 0.45434
 O718 O 0.05222 0.04130 0.47409
 O719 O 0.05105 -0.03684 0.50099
 O720 O 0.03047 -0.04372 0.53270
 O721 O 0.01958 -0.05387 0.48308
 O722 O 0.00709 -0.05739 0.51842
 O723 O 0.06472 -0.00755 0.48694
 O724 O 0.06504 0.02811 0.49896
 O725 O 0.02108 -0.00623 0.43929
 O726 O -0.01564 0.00514 0.43709
 O727 O 0.00776 0.04653 0.53909
 O728 O 0.03924 0.02837 0.54490
 O729 O -0.03682 -0.00292 0.53996
 O730 O -0.04018 -0.03403 0.52073
 O731 O -0.03917 0.04366 0.49222
 O732 O -0.01967 0.05035 0.46170
 Zr733 Zr -0.00756 0.03698 0.48901
 O734 O 0.01221 0.02026 0.46945
 Zr735 Zr -0.02792 -0.00601 0.50886
 O736 O -0.00896 -0.02470 0.49026
 Zr737 Zr 0.01275 0.01549 0.53102
 O738 O 0.03354 -0.00214 0.51337
 Zr739 Zr -0.00104 -0.00858 0.46304
 O740 O -0.02206 0.00922 0.48056
 Zr741 Zr 0.03966 0.01303 0.48515
 O742 O 0.02084 0.03193 0.50396
 Zr743 Zr 0.01947 -0.03007 0.50500
 O744 O -0.00055 -0.01346 0.52479
 O745 O -0.01516 0.02230 0.51670
 O746 O 0.02714 -0.01550 0.47713
 C747 C 0.00063 0.06213 0.52890
 C748 C -0.05462 0.03289 0.49869
 C749 C -0.02718 0.00395 0.55579
 C750 C 0.01313 -0.05463 0.46438
 C751 C 0.03958 0.00095 0.43871
 C752 C 0.06629 -0.02614 0.49393
 H753 H 0.01484 0.02846 0.45676
 H754 H 0.04624 -0.00445 0.52150
 H755 H -0.02448 0.03070 0.52541
 H756 H -0.01629 -0.03774 0.48734
 H757 H -0.03259 -0.03261 0.45732
 H758 H -0.05418 -0.01426 0.48031
 H759 H 0.06797 0.02097 0.51220
 H760 H 0.04519 0.03822 0.53470
 H761 H -0.00808 0.01797 0.43348
 H762 H -0.02849 0.03968 0.45534
 H763 H 0.04175 -0.03493 0.53794
 H764 H 0.02071 -0.01277 0.55825
 H765 H 0.01965 0.06525 0.48182
 H766 H 0.04412 0.04577 0.46192
 H767 H -0.02972 -0.03973 0.53037
 H768 H -0.00615 -0.06036 0.51147
 O769 O 0.78985 0.25326 0.21141
 O770 O 0.77617 0.21941 0.20590
 O771 O 0.73745 0.29216 0.20283
 O772 O 0.70667 0.29695 0.21672
 O773 O 0.77764 0.30015 0.25642
 O774 O 0.78165 0.28141 0.28790
 O775 O 0.68414 0.23361 0.25557
 O776 O 0.68418 0.24695 0.22167
 O777 O 0.73394 0.19214 0.25879
 O778 O 0.77033 0.19400 0.25297
 O779 O 0.72493 0.23806 0.30504
 O780 O 0.73251 0.27480 0.30710
 O781 O 0.69339 0.25039 0.28469
 O782 O 0.70851 0.28528 0.29076
 O783 O 0.74383 0.21085 0.29361
 O784 O 0.77940 0.20932 0.27781
 O785 O 0.70571 0.20355 0.24129
 O786 O 0.70230 0.22149 0.20864
 O787 O 0.79997 0.26858 0.24110
 O788 O 0.79861 0.25644 0.27638
 O789 O 0.74969 0.31125 0.23825
 O790 O 0.71288 0.30785 0.24733
 O791 O 0.75651 0.26523 0.19096
 O792 O 0.74968 0.22883 0.18989
 Zr793 Zr 0.75888 0.24499 0.21650
 O794 O 0.74065 0.22340 0.23282
 Zr795 Zr 0.73156 0.28456 0.23399
 O796 O 0.71171 0.26459 0.25067
 Zr797 Zr 0.77301 0.26799 0.25962
 O798 O 0.75488 0.24764 0.27783
 Zr799 Zr 0.71073 0.23538 0.23689
 O800 O 0.72835 0.25620 0.21851
 Zr801 Zr 0.75191 0.21908 0.26294
 O802 O 0.77196 0.23875 0.24563
 Zr803 Zr 0.72443 0.25885 0.27995
 O804 O 0.74328 0.28057 0.26402
 O805 O 0.76155 0.27379 0.23018
 O806 O 0.72167 0.22970 0.26669
 C807 C 0.80342 0.26216 0.22268
 C808 C 0.74721 0.28265 0.18842
 C809 C 0.76674 0.31450 0.24785
 C810 C 0.68022 0.24068 0.27361
 C811 C 0.71660 0.18909 0.24961
 C812 C 0.73342 0.22027 0.30765
 H813 H 0.74066 0.21032 0.22508
 H814 H 0.76130 0.24607 0.29156
 H815 H 0.77010 0.28365 0.22205
 H816 H 0.69774 0.27077 0.25145
 H817 H 0.68915 0.25636 0.21055
 H818 H 0.69424 0.28879 0.22037
 H819 H 0.78138 0.21807 0.29007
 H820 H 0.80219 0.24291 0.27032
 H821 H 0.71324 0.21153 0.20478
 H822 H 0.73557 0.23371 0.18647
 H823 H 0.74602 0.26938 0.31185
 H824 H 0.76957 0.28950 0.29266
 H825 H 0.78557 0.21532 0.21726
 H826 H 0.76735 0.19191 0.23819
 H827 H 0.71903 0.31117 0.26086
 H828 H 0.69691 0.28817 0.28124
 O829 O 0.74768 0.70724 0.70995
 O830 O 0.77979 0.70018 0.72605
 O831 O 0.70618 0.70201 0.76308
 O832 O 0.70443 0.71935 0.79537
 O833 O 0.69903 0.75288 0.72015
 O834 O 0.71800 0.78406 0.71401
 O835 O 0.76376 0.75592 0.81339
 O836 O 0.75188 0.71931 0.81403
 O837 O 0.80665 0.75619 0.76418
 O838 O 0.80449 0.74601 0.72749
 O839 O 0.76180 0.80368 0.76752
 O840 O 0.72472 0.80579 0.76038
 O841 O 0.74846 0.78546 0.80181
 O842 O 0.71490 0.79241 0.78613
 O843 O 0.78880 0.78989 0.74990
 O844 O 0.79138 0.77185 0.71723
 O845 O 0.79448 0.74114 0.79361
 O846 O 0.77674 0.70839 0.79945
 O847 O 0.73128 0.73638 0.69877
 O848 O 0.74230 0.77130 0.69771
 O849 O 0.68781 0.73694 0.74949
 O850 O 0.69000 0.74593 0.78459
 O851 O 0.73297 0.68796 0.74528
 O852 O 0.76892 0.68594 0.75257
 Zr853 Zr 0.75383 0.71281 0.74134
 O854 O 0.77545 0.72958 0.75878
 Zr855 Zr 0.71452 0.73302 0.76731
 O856 O 0.73424 0.75075 0.78574
 Zr857 Zr 0.73122 0.75591 0.72448
 O858 O 0.75197 0.77450 0.74096
 Zr859 Zr 0.76306 0.73600 0.78801
 O860 O 0.74251 0.71695 0.77151
 Zr861 Zr 0.78023 0.75887 0.74526
 O862 O 0.76028 0.74122 0.72648
 Zr863 Zr 0.74069 0.77913 0.77100
 O864 O 0.71872 0.76242 0.75370
 O865 O 0.72521 0.72707 0.73765
 O866 O 0.76948 0.76502 0.77499
 C867 C 0.73918 0.71841 0.69577
 C868 C 0.71542 0.68665 0.75465
 C869 C 0.68463 0.74551 0.73182
 C870 C 0.75700 0.77439 0.81600
 C871 C 0.80906 0.74893 0.78257
 C872 C 0.77939 0.80515 0.75835
 H873 H 0.78845 0.72159 0.75976
 H874 H 0.75376 0.78767 0.73328
 H875 H 0.71547 0.71876 0.72938
 H876 H 0.72763 0.75260 0.79937
 H877 H 0.73984 0.72691 0.81960
 H878 H 0.71508 0.70909 0.79943
 H879 H 0.78172 0.78298 0.71301
 H880 H 0.75615 0.76546 0.69478
 H881 H 0.78677 0.70351 0.78903
 H882 H 0.76473 0.68431 0.76720
 H883 H 0.73042 0.80963 0.74668
 H884 H 0.70940 0.78931 0.72548
 H885 H 0.78530 0.71127 0.71693
 H886 H 0.80895 0.73299 0.73432
 H887 H 0.68838 0.76039 0.77965
 H888 H 0.71052 0.78277 0.79725
 O889 O 0.29997 0.20459 0.75000
 O890 O 0.30022 0.21909 0.71614
 O891 O 0.31146 0.25878 0.78690
 O892 O 0.29406 0.29092 0.79103
 O893 O 0.26452 0.21497 0.80419
 O894 O 0.22961 0.20961 0.79277
 O895 O 0.24692 0.30732 0.73753
 O896 O 0.28444 0.30912 0.74270
 O897 O 0.23914 0.25708 0.69864
 O898 O 0.25034 0.22059 0.69980
 O899 O 0.20134 0.26225 0.75086
 O900 O 0.20577 0.25607 0.78764
 O901 O 0.22069 0.29615 0.75813
 O902 O 0.22132 0.28189 0.79414
 O903 O 0.21020 0.24379 0.72259
 O904 O 0.22804 0.21017 0.71860
 O905 O 0.25689 0.28636 0.70588
 O906 O 0.29267 0.29249 0.71827
 O907 O 0.27389 0.19339 0.77086
 O908 O 0.23731 0.19243 0.76662
 O909 O 0.28091 0.24498 0.81196
 O910 O 0.27023 0.28042 0.81010
 O911 O 0.32044 0.24019 0.75868
 O912 O 0.31564 0.24634 0.72261
 Zr913 Zr 0.29235 0.23560 0.74302
 O914 O 0.27166 0.25238 0.72417
 Zr915 Zr 0.27928 0.26262 0.78443
 O916 O 0.25811 0.28070 0.76739
 Zr917 Zr 0.25441 0.21928 0.77365
 O918 O 0.23202 0.23537 0.75625
 Zr919 Zr 0.26731 0.28206 0.73630
 O920 O 0.28990 0.26610 0.75384
 Zr921 Zr 0.24220 0.23876 0.72557
 O922 O 0.26357 0.22044 0.74246
 Zr923 Zr 0.22926 0.26584 0.76693
 O924 O 0.24984 0.24889 0.78609
 O925 O 0.28359 0.23270 0.77376
 O926 O 0.23789 0.26887 0.73601
 C927 C 0.29070 0.19047 0.76068
 C928 C 0.32490 0.24998 0.77525
 C929 C 0.27427 0.22677 0.81667
 C930 C 0.22954 0.30996 0.74675
 C931 C 0.24615 0.27508 0.69376
 C932 C 0.19688 0.25306 0.73399
 H933 H 0.27713 0.25294 0.70993
 H934 H 0.21880 0.22777 0.75722
 H935 H 0.29380 0.22471 0.78195
 H936 H 0.25718 0.29462 0.77348
 H937 H 0.27958 0.31452 0.75608
 H938 H 0.30146 0.29519 0.77829
 H939 H 0.21797 0.20697 0.72970
 H940 H 0.24069 0.18897 0.75216
 H941 H 0.29487 0.28249 0.70703
 H942 H 0.31819 0.26098 0.72612
 H943 H 0.20192 0.24178 0.78398
 H944 H 0.22645 0.22130 0.80202
 H945 H 0.28844 0.20980 0.71331
 H946 H 0.26259 0.22696 0.69315
 H947 H 0.25654 0.27516 0.81454
 H948 H 0.23047 0.29408 0.79514
 O949 O 0.20488 0.74789 0.29704
 O950 O 0.21932 0.71438 0.29986
 O951 O 0.25954 0.78617 0.30119
 O952 O 0.28986 0.79028 0.28168
 O953 O 0.21233 0.79839 0.25618
 O954 O 0.20521 0.78435 0.22296
 O955 O 0.30457 0.73203 0.23984
 O956 O 0.30818 0.73997 0.27636
 O957 O 0.25413 0.69194 0.23788
 O958 O 0.21923 0.69257 0.24998
 O959 O 0.25825 0.74070 0.19592
 O960 O 0.25169 0.77650 0.19573
 O961 O 0.29246 0.75127 0.21298
 O962 O 0.27626 0.78723 0.21139
 O963 O 0.23936 0.71341 0.20770
 O964 O 0.20615 0.71119 0.22867
 O965 O 0.28422 0.70084 0.25336
 O966 O 0.29185 0.71630 0.28772
 O967 O 0.19204 0.76592 0.26962
 O968 O 0.18933 0.75797 0.23346
 O969 O 0.24275 0.80827 0.27048
 O970 O 0.27773 0.80626 0.25644
 O971 O 0.24182 0.75873 0.31445
 O972 O 0.24782 0.72191 0.31226
 Zr973 Zr 0.23541 0.74048 0.28825
 O974 O 0.25097 0.72004 0.26833
 Zr975 Zr 0.26106 0.78117 0.26947
 O976 O 0.27836 0.76243 0.24946
 Zr977 Zr 0.21670 0.76729 0.24849
 O978 O 0.23193 0.74855 0.22689
 Zr979 Zr 0.28031 0.73208 0.26136
 O980 O 0.26554 0.75161 0.28285
 Zr981 Zr 0.23596 0.71883 0.23960
 O982 O 0.21874 0.73702 0.26058
 Zr983 Zr 0.26214 0.75945 0.22172
 O984 O 0.24572 0.78004 0.24099
 O985 O 0.23168 0.77025 0.27663
 O986 O 0.26576 0.72927 0.23287
 C987 C 0.19021 0.75752 0.28758
 C988 C 0.25194 0.77577 0.31637
 C989 C 0.22405 0.81181 0.26470
 C990 C 0.30667 0.74065 0.22204
 C991 C 0.27246 0.68780 0.24426
 C992 C 0.24870 0.72357 0.19327
 H993 H 0.25186 0.70623 0.27496
 H994 H 0.22376 0.74832 0.21403
 H995 H 0.22424 0.77909 0.28659
 H996 H 0.29214 0.76872 0.24736
 H997 H 0.31316 0.75316 0.27027
 H998 H 0.29537 0.77810 0.28927
 H999 H 0.20314 0.72025 0.21665
 H1000 H 0.18566 0.74420 0.23922
 H1001 H 0.28231 0.70477 0.29105
 H1002 H 0.26239 0.72623 0.31391
 H1003 H 0.23656 0.77454 0.19487
 H1004 H 0.21658 0.79347 0.21818
 H1005 H 0.20961 0.71019 0.28890
 H1006 H 0.22441 0.68882 0.26386
 H1007 H 0.27029 0.81057 0.24377
 H1008 H 0.28943 0.78879 0.21894
 O1009 O 0.22912 0.73123 0.80626
 O1010 O 0.23690 0.76740 0.80581
 O1011 O 0.19132 0.72423 0.75291
 O1012 O 0.19381 0.73154 0.71928
 O1013 O 0.24183 0.68168 0.76355
 O1014 O 0.27837 0.68404 0.76022
 O1015 O 0.25211 0.77813 0.70198
 O1016 O 0.21678 0.77969 0.71200
 O1017 O 0.28555 0.78916 0.75642
 O1018 O 0.28669 0.77272 0.79070
 O1019 O 0.30078 0.73983 0.71711
 O1020 O 0.28681 0.70405 0.71294
 O1021 O 0.27068 0.74950 0.69374
 O1022 O 0.26369 0.71249 0.69437
 O1023 O 0.30808 0.75789 0.74601
 O1024 O 0.30407 0.74843 0.78297
 O1025 O 0.25970 0.79863 0.73463
 O1026 O 0.22269 0.79783 0.73976
 O1027 O 0.24841 0.70306 0.79798
 O1028 O 0.28390 0.70093 0.78694
 O1029 O 0.21516 0.69139 0.74284
 O1030 O 0.21547 0.70763 0.70894
 O1031 O 0.19832 0.74306 0.78146
 O1032 O 0.21279 0.77667 0.78648
 Zr1033 Zr 0.23002 0.74983 0.77938
 O1034 O 0.25004 0.77001 0.76332
 Zr1035 Zr 0.21988 0.72319 0.73717
 O1036 O 0.23932 0.74240 0.71916
 Zr1037 Zr 0.25877 0.70907 0.76772
 O1038 O 0.27999 0.72742 0.75097
 Zr1039 Zr 0.24133 0.77195 0.73214
 O1040 O 0.21967 0.75358 0.74878
 Zr1041 Zr 0.28005 0.75759 0.76270
 O1042 O 0.26052 0.73853 0.78108
 Zr1043 Zr 0.26973 0.73094 0.72044
 O1044 O 0.24984 0.71041 0.73657
 O1045 O 0.22854 0.71999 0.76783
 O1046 O 0.27162 0.76094 0.73180
 C1047 C 0.23719 0.71352 0.81055
 C1048 C 0.18591 0.73307 0.76978
 C1049 C 0.22556 0.67772 0.75299
 C1050 C 0.26296 0.76731 0.68940
 C1051 C 0.27601 0.80255 0.74514
 C1052 C 0.31312 0.75023 0.72848
 H1053 H 0.24973 0.78363 0.77008
 H1054 H 0.29385 0.72100 0.75161
 H1055 H 0.21897 0.71084 0.77562
 H1056 H 0.23399 0.74317 0.70489
 H1057 H 0.20398 0.77409 0.71834
 H1058 H 0.19853 0.74153 0.70860
 H1059 H 0.31013 0.73544 0.77773
 H1060 H 0.28619 0.71280 0.79618
 H1061 H 0.22639 0.80231 0.75380
 H1062 H 0.20488 0.78036 0.77391
 H1063 H 0.29785 0.70224 0.72332
 H1064 H 0.27614 0.68125 0.74541
 H1065 H 0.25068 0.76277 0.81063
 H1066 H 0.27565 0.78304 0.79308
 H1067 H 0.22711 0.69779 0.70740
 H1068 H 0.25082 0.71768 0.68792
 O1069 O 0.24519 0.21329 0.20640
 O1070 O 0.27826 0.20911 0.22092
 O1071 O 0.20643 0.20194 0.26065
 O1072 O 0.20040 0.21613 0.29058
 O1073 O 0.19332 0.25340 0.21844
 O1074 O 0.20820 0.28661 0.21384
 O1075 O 0.26003 0.25918 0.31111
 O1076 O 0.25035 0.22413 0.31172
 O1077 O 0.30057 0.26574 0.26065
 O1078 O 0.29877 0.25832 0.22409
 O1079 O 0.25135 0.30817 0.26862
 O1080 O 0.21505 0.30794 0.26256
 O1081 O 0.24072 0.28704 0.30158
 O1082 O 0.20536 0.29037 0.28610
 O1083 O 0.27905 0.29825 0.24954
 O1084 O 0.28183 0.28224 0.21502
 O1085 O 0.29149 0.24759 0.28945
 O1086 O 0.27696 0.21355 0.29395
 O1087 O 0.22698 0.24166 0.19622
 O1088 O 0.23400 0.27795 0.19705
 O1089 O 0.18411 0.23511 0.24712
 O1090 O 0.18700 0.24561 0.28350
 O1091 O 0.23375 0.19170 0.24112
 O1092 O 0.27006 0.19316 0.24743
 Zr1093 Zr 0.25182 0.21859 0.23763
 O1094 O 0.27211 0.23676 0.25503
 Zr1095 Zr 0.21119 0.23365 0.26499
 O1096 O 0.22985 0.25198 0.28406
 Zr1097 Zr 0.22485 0.25985 0.22288
 O1098 O 0.24369 0.27977 0.24008
 Zr1099 Zr 0.26017 0.24038 0.28493
 O1100 O 0.24081 0.22030 0.26817
 Zr1101 Zr 0.27342 0.26698 0.24288
 O1102 O 0.25517 0.24802 0.22375
 Zr1103 Zr 0.23282 0.28156 0.27062
 O1104 O 0.21231 0.26381 0.25256
 O1105 O 0.22188 0.23005 0.23494
 O1106 O 0.26304 0.27046 0.27319
 C1107 C 0.23601 0.22434 0.19260
 C1108 C 0.21697 0.18808 0.25122
 C1109 C 0.17992 0.24391 0.22976
 C1110 C 0.25121 0.27655 0.31487
 C1111 C 0.30478 0.25719 0.27813
 C1112 C 0.26861 0.31186 0.25946
 H1113 H 0.28586 0.23010 0.25506
 H1114 H 0.24395 0.29349 0.23321
 H1115 H 0.21298 0.22100 0.22653
 H1116 H 0.22370 0.25240 0.29803
 H1117 H 0.24197 0.21228 0.30701
 H1118 H 0.20872 0.22019 0.30264
 H1119 H 0.27186 0.29364 0.21261
 H1120 H 0.24819 0.27349 0.19342
 H1121 H 0.28695 0.21023 0.28289
 H1122 H 0.26581 0.18989 0.26178
 H1123 H 0.21839 0.31161 0.24808
 H1124 H 0.19968 0.29063 0.22587
 H1125 H 0.28243 0.22106 0.21218
 H1126 H 0.30369 0.24463 0.22897
 H1127 H 0.18205 0.25847 0.27669
 H1128 H 0.20346 0.28092 0.29807
 O1129 O 0.73792 0.81056 0.23438
 O1130 O 0.77402 0.81292 0.24272
 O1131 O 0.73743 0.75750 0.19448
 O1132 O 0.74793 0.72461 0.19668
 O1133 O 0.69189 0.76176 0.24338
 O1134 O 0.69347 0.75766 0.28008
 O1135 O 0.79266 0.70950 0.25485
 O1136 O 0.79418 0.72231 0.21960
 O1137 O 0.79836 0.76435 0.29030
 O1138 O 0.77780 0.79761 0.29085
 O1139 O 0.75195 0.72004 0.30370
 O1140 O 0.71749 0.71257 0.28833
 O1141 O 0.76520 0.69859 0.27398
 O1142 O 0.72845 0.69555 0.26514
 O1143 O 0.76711 0.75046 0.31198
 O1144 O 0.75594 0.78551 0.30937
 O1145 O 0.81026 0.74442 0.26419
 O1146 O 0.81144 0.74978 0.22937
 O1147 O 0.70975 0.79881 0.25195
 O1148 O 0.70706 0.78605 0.28660
 O1149 O 0.70511 0.74346 0.21668
 O1150 O 0.72383 0.71139 0.21677
 O1151 O 0.75180 0.78828 0.20301
 O1152 O 0.78474 0.79594 0.21788
 Zr1153 Zr 0.75860 0.78537 0.23459
 O1154 O 0.77956 0.77047 0.25460
 Zr1155 Zr 0.73676 0.74084 0.22262
 O1156 O 0.75652 0.72394 0.24234
 Zr1157 Zr 0.71813 0.76859 0.26148
 O1158 O 0.73743 0.75317 0.28291
 Zr1159 Zr 0.78455 0.73978 0.24533
 O1160 O 0.76572 0.75563 0.22359
 Zr1161 Zr 0.76645 0.76772 0.28420
 O1162 O 0.74618 0.78477 0.26468
 Zr1163 Zr 0.74410 0.72327 0.27238
 O1164 O 0.72299 0.73791 0.25202
 O1165 O 0.73012 0.77084 0.23179
 O1166 O 0.77288 0.73743 0.27530
 C1167 C 0.71968 0.81299 0.24194
 C1168 C 0.74386 0.77582 0.18991
 C1169 C 0.68994 0.75141 0.22664
 C1170 C 0.78312 0.69583 0.26589
 C1171 C 0.81293 0.75483 0.28070
 C1172 C 0.76076 0.73213 0.31656
 H1173 H 0.79253 0.77852 0.25475
 H1174 H 0.73059 0.75282 0.29656
 H1175 H 0.72057 0.77809 0.22223
 H1176 H 0.75866 0.70993 0.23676
 H1177 H 0.78946 0.72985 0.20707
 H1178 H 0.75846 0.71464 0.20164
 H1179 H 0.74169 0.78100 0.31266
 H1180 H 0.71794 0.79629 0.28974
 H1181 H 0.81116 0.76506 0.22895
 H1182 H 0.78915 0.78443 0.20891
 H1183 H 0.71416 0.72263 0.29925
 H1184 H 0.69202 0.74273 0.27713
 H1185 H 0.76838 0.81709 0.25627
 H1186 H 0.78969 0.80038 0.28159
 H1187 H 0.71432 0.70817 0.22836
 H1188 H 0.73495 0.68981 0.25260
 O1189 O 0.72267 0.29860 0.74965
 O1190 O 0.71469 0.28424 0.71661
 O1191 O 0.71616 0.24640 0.79012
 O1192 O 0.73134 0.21315 0.79206
 O1193 O 0.76966 0.28593 0.79413
 O1194 O 0.80065 0.28932 0.77446
 O1195 O 0.76505 0.19195 0.72973
 O1196 O 0.72976 0.19271 0.74270
 O1197 O 0.76654 0.24200 0.68773
 O1198 O 0.75985 0.27855 0.68938
 O1199 O 0.81476 0.23307 0.73059
 O1200 O 0.81906 0.24084 0.76723
 O1201 O 0.79543 0.20171 0.74406
 O1202 O 0.80359 0.21635 0.77833
 O1203 O 0.80152 0.25192 0.70399
 O1204 O 0.78591 0.28755 0.70295
 O1205 O 0.74893 0.21392 0.69959
 O1206 O 0.71678 0.21043 0.72093
 O1207 O 0.75370 0.30817 0.76286
 O1208 O 0.78834 0.30640 0.75005
 O1209 O 0.75254 0.25794 0.80703
 O1210 O 0.75991 0.22138 0.80428
 O1211 O 0.70257 0.26520 0.76360
 O1212 O 0.69891 0.25815 0.72770
 Zr1213 Zr 0.72678 0.26726 0.74190
 O1214 O 0.74162 0.24877 0.71973
 Zr1215 Zr 0.74661 0.23984 0.78067
 O1216 O 0.76207 0.21994 0.76014
 Zr1217 Zr 0.77159 0.28098 0.76227
 O1218 O 0.78844 0.26296 0.74126
 Zr1219 Zr 0.74643 0.21879 0.73175
 O1220 O 0.72946 0.23670 0.75327
 Zr1221 Zr 0.77154 0.26011 0.71388
 O1222 O 0.75565 0.28022 0.73407
 Zr1223 Zr 0.79105 0.23256 0.75269
 O1224 O 0.77654 0.25130 0.77502
 O1225 O 0.74233 0.26985 0.76972
 O1226 O 0.77589 0.22982 0.72447
 C1227 C 0.73504 0.31208 0.75724
 C1228 C 0.70118 0.25611 0.78129
 C1229 C 0.76199 0.27532 0.80918
 C1230 C 0.78376 0.18833 0.73544
 C1231 C 0.75721 0.22475 0.68496
 C1232 C 0.81611 0.24146 0.71261
 H1233 H 0.73308 0.24865 0.70712
 H1234 H 0.80210 0.26940 0.73885
 H1235 H 0.73490 0.27864 0.77974
 H1236 H 0.76334 0.20607 0.76659
 H1237 H 0.73632 0.18793 0.75566
 H1238 H 0.72147 0.20900 0.78123
 H1239 H 0.79895 0.28935 0.71066
 H1240 H 0.78195 0.30994 0.73661
 H1241 H 0.71283 0.22045 0.71000
 H1242 H 0.69600 0.24390 0.73264
 H1243 H 0.82373 0.25414 0.76113
 H1244 H 0.80553 0.27730 0.78270
 H1245 H 0.72591 0.29346 0.71164
 H1246 H 0.74522 0.27467 0.68736
 H1247 H 0.77439 0.22607 0.80575
 H1248 H 0.79397 0.20504 0.78210
 C1249 C 0.11975 0.99394 1.18585
 C1250 C 0.11164 0.99384 1.16597
 C1251 C 0.09038 0.99627 1.16277
 C1252 C 0.07725 0.99809 1.18003
 C1253 C 0.08538 0.99822 1.20000
 C1254 C 0.10684 0.99638 1.20319
 C1255 C 0.08266 0.99647 1.14128
 C1256 C 0.06460 1.00497 1.13563
 C1257 C 0.05713 1.00583 1.11402
 C1258 C 0.04094 1.01949 1.10913
 C1259 C 0.03299 1.02054 1.08915
 C1260 C 0.04108 1.00792 1.07355
 C1261 C 0.05737 0.99433 1.07836
 C1262 C 0.06521 0.99314 1.09839
 H1263 H 0.13632 0.99235 1.18772
 H1264 H 0.12211 0.99217 1.15300
 H1265 H 0.06066 0.99920 1.17828
 H1266 H 0.07463 0.99982 1.21262
 H1267 H 0.09301 0.99046 1.12966
 H1268 H 0.05514 1.01255 1.14709
 H1269 H 0.03434 1.02937 1.12085
 H1270 H 0.02041 1.03118 1.08597
 H1271 H 0.06373 0.98417 1.06676
 H1272 H 0.07720 0.98190 1.10149
 C1273 C 0.61743 0.49146 0.69122
 C1274 C 0.60929 0.49181 0.67135
 C1275 C 0.58793 0.49044 0.66829
 C1276 C 0.57489 0.48778 0.68553
 C1277 C 0.58304 0.48740 0.70548
 C1278 C 0.60447 0.48956 0.70864
 C1279 C 0.57997 0.49167 0.64695
 C1280 C 0.56082 0.49818 0.64232
 C1281 C 0.55304 0.50030 0.62093
 C1282 C 0.53569 0.51286 0.61730
 C1283 C 0.52751 0.51496 0.59748
 C1284 C 0.53651 0.50447 0.58082
 C1285 C 0.55393 0.49195 0.58442
 C1286 C 0.56203 0.48974 0.60426
 H1287 H 0.63400 0.49306 0.69306
 H1288 H 0.61971 0.49361 0.65833
 H1289 H 0.55838 0.48587 0.68373
 H1290 H 0.57231 0.48560 0.71811
 H1291 H 0.59086 0.48847 0.63470
 H1292 H 0.55066 0.50323 0.65458
 H1293 H 0.52839 0.52107 0.62987
 H1294 H 0.51404 0.52470 0.59525
 H1295 H 0.56106 0.48341 0.57199
 H1296 H 0.57496 0.47935 0.60641
 C1297 C 0.38073 -0.00976 0.68639
 C1298 C 0.39009 -0.00720 0.66712
 C1299 C 0.40973 0.00176 0.66534
 C1300 C 0.41960 0.00875 0.68325
 C1301 C 0.41026 0.00615 0.70257
 C1302 C 0.39095 -0.00377 0.70453
 C1303 C 0.41895 0.00416 0.64452
 C1304 C 0.43931 0.00618 0.64114
 C1305 C 0.44847 0.00716 0.62021
 C1306 C 0.46895 0.00056 0.61754
 C1307 C 0.47796 0.00047 0.59795
 C1308 C 0.46672 0.00718 0.58058
 C1309 C 0.44641 0.01443 0.58335
 C1310 C 0.43739 0.01449 0.60296
 H1311 H 0.36529 -0.01616 0.68699
 H1312 H 0.38188 -0.01219 0.65351
 H1313 H 0.43427 0.01673 0.68245
 H1314 H 0.41802 0.01239 0.71587
 H1315 H 0.40861 0.00280 0.63151
 H1316 H 0.44990 0.00553 0.65402
 H1317 H 0.47788 -0.00495 0.63060
 H1318 H 0.49370 -0.00508 0.59643
 H1319 H 0.43739 0.01993 0.57035
 H1320 H 0.42182 0.02042 0.60452
 C1321 C -0.08333 0.50214 1.21101
 C1322 C -0.07282 0.50138 1.19214
 C1323 C -0.08355 0.49815 1.17370
 C1324 C -0.10507 0.49526 1.17452
 C1325 C -0.11558 0.49610 1.19330
 C1326 C -0.10492 0.49938 1.21188
 C1327 C -0.07178 0.49740 1.15406
 C1328 C -0.08039 0.50108 1.13557
 C1329 C -0.06886 0.50032 1.11580
 C1330 C -0.07731 0.51033 1.09846
 C1331 C -0.06718 0.50980 1.07941
 C1332 C -0.04836 0.49912 1.07727
 C1333 C -0.04001 0.48887 1.09459
 C1334 C -0.05018 0.48936 1.11362
 H1335 H -0.07432 0.50519 1.22458
 H1336 H -0.05621 0.50359 1.19193
 H1337 H -0.11391 0.49204 1.16080
 H1338 H -0.13220 0.49409 1.19335
 H1339 H -0.05532 0.49465 1.15514
 H1340 H -0.09644 0.50578 1.13474
 H1341 H -0.09178 0.51871 1.09966
 H1342 H -0.07409 0.51782 1.06640
 H1343 H -0.02566 0.48029 1.09344
 H1344 H -0.04349 0.48080 1.12637
 C1345 C -0.09218 0.51854 0.29308
 C1346 C -0.08379 0.52117 0.31267
 C1347 C -0.09303 0.51194 0.33006
 C1348 C -0.11148 0.50068 0.32751
 C1349 C -0.11997 0.49816 0.30783
 C1350 C -0.11017 0.50671 0.29036
 C1351 C -0.08279 0.51453 0.35034
 C1352 C -0.08534 0.50153 0.36644
 C1353 C -0.07351 0.50308 0.38597
 C1354 C -0.08151 0.49354 0.40382
 C1355 C -0.07037 0.49352 0.42226
 C1356 C -0.05077 0.50288 0.42325
 C1357 C -0.04279 0.51258 0.40542
 C1358 C -0.05397 0.51263 0.38697
 H1359 H -0.08458 0.52591 0.28004
 H1360 H -0.06978 0.53018 0.31418
 H1361 H -0.11950 0.49390 0.34058
 H1362 H -0.13396 0.48919 0.30631
 H1363 H -0.07197 0.52720 0.35156
 H1364 H -0.09626 0.48893 0.36537
 H1365 H -0.09642 0.48593 0.40347
 H1366 H -0.07702 0.48586 0.43565
 H1367 H -0.02770 0.51980 0.40556
 H1368 H -0.04687 0.51957 0.37346
 C1369 C 0.41378 0.99817 -0.21663
 C1370 C 0.42407 0.99835 -0.19776
 C1371 C 0.41367 0.99356 -0.17937
 C1372 C 0.39265 0.98814 -0.18030
 C1373 C 0.38226 0.98791 -0.19922
 C1374 C 0.39260 0.99296 -0.21786
 C1375 C 0.42556 0.99393 -0.15982
 C1376 C 0.41695 0.99576 -0.14106
 C1377 C 0.42918 0.99633 -0.12174
 C1378 C 0.41964 0.99029 -0.10317
 C1379 C 0.43060 0.99047 -0.08462
 C1380 C 0.45136 0.99691 -0.08417
 C1381 C 0.46079 1.00341 -0.10272
 C1382 C 0.44983 1.00319 -0.12127
 H1383 H 0.42258 1.00289 -0.23007
 H1384 H 0.44028 1.00259 -0.19753
 H1385 H 0.38419 0.98359 -0.16658
 H1386 H 0.36632 0.98303 -0.19892
 H1387 H 0.44221 0.99296 -0.16119
 H1388 H 0.40031 0.99654 -0.13953
 H1389 H 0.40369 0.98518 -0.10304
 H1390 H 0.42276 0.98549 -0.07064
 H1391 H 0.47668 1.00868 -0.10293
 H1392 H 0.45754 1.00872 -0.13509
 C1393 C 0.58293 0.47672 -0.20906
 C1394 C 0.57221 0.47696 -0.19032
 C1395 C 0.57857 0.48982 -0.17426
 C1396 C 0.59603 0.50252 -0.17739
 C1397 C 0.60677 0.50227 -0.19617
 C1398 C 0.60022 0.48951 -0.21227
 C1399 C 0.56601 0.49020 -0.15503
 C1400 C 0.57331 0.49643 -0.13676
 C1401 C 0.56094 0.49720 -0.11735
 C1402 C 0.56964 0.50707 -0.10027
 C1403 C 0.55897 0.50810 -0.08154
 C1404 C 0.53923 0.49923 -0.07934
 C1405 C 0.53044 0.48936 -0.09640
 C1406 C 0.54115 0.48827 -0.11517
 H1407 H 0.57765 0.46649 -0.22106
 H1408 H 0.55882 0.46706 -0.18838
 H1409 H 0.60109 0.51318 -0.16572
 H1410 H 0.61976 0.51263 -0.19832
 H1411 H 0.55027 0.48484 -0.15626
 H1412 H 0.58927 0.50130 -0.13574
 H1413 H 0.58483 0.51404 -0.10139
 H1414 H 0.56628 0.51582 -0.06875
 H1415 H 0.51534 0.48220 -0.09521
 H1416 H 0.53385 0.48014 -0.12763
 C1417 C 0.08399 -0.00787 0.28513
 C1418 C 0.07439 -0.00790 0.30446
 C1419 C 0.08427 0.00065 0.32159
 C1420 C 0.10392 0.00963 0.31887
 C1421 C 0.11350 0.00972 0.29947
 C1422 C 0.10366 0.00102 0.28233
 C1423 C 0.07324 0.00029 0.34170
 C1424 C 0.08267 0.00155 0.36007
 C1425 C 0.07138 0.00088 0.38007
 C1426 C 0.08070 0.00949 0.39750
 C1427 C 0.07051 0.00939 0.41657
 C1428 C 0.05076 0.00052 0.41868
 C1429 C 0.04165 -0.00858 0.40134
 C1430 C 0.05185 -0.00850 0.38230
 H1431 H 0.07606 -0.01522 0.27251
 H1432 H 0.05926 -0.01491 0.30609
 H1433 H 0.11182 0.01695 0.33150
 H1434 H 0.12850 0.01690 0.29794
 H1435 H 0.05663 -0.00145 0.34113
 H1436 H 0.09927 0.00343 0.36070
 H1437 H 0.09583 0.01658 0.39630
 H1438 H 0.07806 0.01644 0.42961
 H1439 H 0.02659 -0.01582 0.40244
 H1440 H 0.04443 -0.01607 0.36952
 C1441 C 0.19450 1.12289 0.99341
 C1442 C 0.17505 1.11393 0.99138
 C1443 C 0.17297 1.09245 0.98978
 C1444 C 0.19092 1.08012 0.98949
 C1445 C 0.21048 1.08910 0.99152
 C1446 C 0.21254 1.11066 0.99376
 C1447 C 0.15185 1.08375 0.98830
 C1448 C 0.14706 1.06419 0.99349
 C1449 C 0.12561 1.05608 0.99338
 C1450 C 0.12099 1.03850 1.00543
 C1451 C 0.10095 1.03047 1.00600
 C1452 C 0.08505 1.03984 0.99446
 C1453 C 0.08973 1.05727 0.98216
 C1454 C 0.10979 1.06522 0.98149
 H1455 H 0.19550 1.13952 0.99502
 H1456 H 0.16152 1.12384 0.99144
 H1457 H 0.19001 1.06355 0.98755
 H1458 H 0.22367 1.07890 0.99141
 H1459 H 0.13964 1.09447 0.98420
 H1460 H 0.15898 1.05399 0.99940
 H1461 H 0.13290 1.03106 1.01459
 H1462 H 0.09792 1.01698 1.01558
 H1463 H 0.07793 1.06465 0.97281
 H1464 H 0.11279 1.07829 0.97138
 C1465 C 0.69223 0.62251 0.50167
 C1466 C 0.67239 0.61414 0.50179
 C1467 C 0.66943 0.59272 0.50345
 C1468 C 0.68692 0.57976 0.50455
 C1469 C 0.70688 0.58816 0.50452
 C1470 C 0.70981 0.60974 0.50323
 C1471 C 0.64789 0.58483 0.50334
 C1472 C 0.64236 0.56563 0.50921
 C1473 C 0.62065 0.55813 0.50897
 C1474 C 0.61559 0.54025 0.52040
 C1475 C 0.59549 0.53229 0.52017
 C1476 C 0.57997 0.54209 0.50847
 C1477 C 0.58499 0.56002 0.49708
 C1478 C 0.60509 0.56785 0.49716
 H1479 H 0.69389 0.63916 0.50051
 H1480 H 0.65927 0.62453 0.50068
 H1481 H 0.68543 0.56311 0.50516
 H1482 H 0.71971 0.57754 0.50543
 H1483 H 0.63605 0.59586 0.49900
 H1484 H 0.65391 0.55507 0.51518
 H1485 H 0.62725 0.53235 0.52951
 H1486 H 0.59216 0.51841 0.52907
 H1487 H 0.57350 0.56775 0.48763
 H1488 H 0.60832 0.58118 0.48749
 C1489 C 0.70965 0.42047 0.00133
 C1490 C 0.69154 0.43234 0.00089
 C1491 C 0.67281 0.42372 -0.00554
 C1492 C 0.67255 0.40301 -0.01182
 C1493 C 0.69052 0.39112 -0.01131
 C1494 C 0.70966 0.39966 -0.00529
 C1495 C 0.65384 0.43663 -0.00554
 C1496 C 0.63495 0.42841 -0.00321
 C1497 C 0.61546 0.44047 -0.00297
 C1498 C 0.59778 0.43082 0.00512
 C1499 C 0.57880 0.44102 0.00518
 C1500 C 0.57695 0.46118 -0.00298
 C1501 C 0.59465 0.47093 -0.01115
 C1502 C 0.61374 0.46065 -0.01122
 H1503 H 0.72333 0.42775 0.00739
 H1504 H 0.69208 0.44822 0.00603
 H1505 H 0.65855 0.39586 -0.01736
 H1506 H 0.68944 0.37504 -0.01575
 H1507 H 0.65572 0.45325 -0.00641
 H1508 H 0.63354 0.41194 -0.00037
 H1509 H 0.59861 0.41525 0.01144
 H1510 H 0.56555 0.43297 0.01161
 H1511 H 0.59372 0.48640 -0.01768
 H1512 H 0.62688 0.46844 -0.01810
 C1513 C 0.19723 -0.11742 0.50884
 C1514 C 0.17762 -0.10854 0.50866
 C1515 C 0.17523 -0.08704 0.50747
 C1516 C 0.19301 -0.07449 0.50716
 C1517 C 0.21277 -0.08341 0.50736
 C1518 C 0.21514 -0.10507 0.50806
 C1519 C 0.15392 -0.07862 0.50678
 C1520 C 0.14910 -0.05975 0.49945
 C1521 C 0.12755 -0.05193 0.49790
 C1522 C 0.12357 -0.03479 0.48503
 C1523 C 0.10361 -0.02664 0.48337
 C1524 C 0.08714 -0.03553 0.49454
 C1525 C 0.09106 -0.05276 0.50733
 C1526 C 0.11104 -0.06075 0.50917
 H1527 H 0.19846 -0.13414 0.50926
 H1528 H 0.16423 -0.11860 0.50906
 H1529 H 0.19183 -0.05780 0.50687
 H1530 H 0.22591 -0.07317 0.50668
 H1531 H 0.14171 -0.08914 0.51128
 H1532 H 0.16120 -0.04989 0.49330
 H1533 H 0.13597 -0.02760 0.47627
 H1534 H 0.10110 -0.01331 0.47341
 H1535 H 0.07878 -0.05972 0.51644
 H1536 H 0.11337 -0.07348 0.51985
 C1537 C 0.31037 -0.11419 0.49329
 C1538 C 0.33033 -0.10593 0.49347
 C1539 C 0.33522 -0.08916 0.50617
 C1540 C 0.31959 -0.08103 0.51898
 C1541 C 0.29958 -0.08921 0.51865
 C1542 C 0.29476 -0.10585 0.50579
 C1543 C 0.35677 -0.08105 0.50570
 C1544 C 0.36250 -0.06282 0.51367
 C1545 C 0.38386 -0.05434 0.51250
 C1546 C 0.38673 -0.03321 0.51640
 C1547 C 0.40637 -0.02431 0.51525
 C1548 C 0.42377 -0.03633 0.51020
 C1549 C 0.42103 -0.05759 0.50670
 C1550 C 0.40135 -0.06653 0.50794
 H1551 H 0.30708 -0.12693 0.48310
 H1552 H 0.34199 -0.11262 0.48352
 H1553 H 0.32264 -0.06861 0.52954
 H1554 H 0.28796 -0.08278 0.52881
 H1555 H 0.36807 -0.09024 0.49756
 H1556 H 0.35094 -0.05294 0.52051
 H1557 H 0.37364 -0.02345 0.52013
 H1558 H 0.40785 -0.00790 0.51809
 H1559 H 0.43411 -0.06737 0.50301
 H1560 H 0.40009 -0.08299 0.50550
 C1561 C -0.19705 0.37760 0.99371
 C1562 C -0.17688 0.38542 0.99451
 C1563 C -0.17307 0.40546 1.00165
 C1564 C -0.18982 0.41724 1.00883
 C1565 C -0.20993 0.40956 1.00794
 C1566 C -0.21406 0.38971 1.00008
 C1567 C -0.15153 0.41343 1.00173
 C1568 C -0.14702 0.43372 1.00125
 C1569 C -0.12573 0.44228 1.00141
 C1570 C -0.12307 0.46296 1.00722
 C1571 C -0.10346 0.47200 1.00718
 C1572 C -0.08599 0.46060 1.00113
 C1573 C -0.08863 0.43989 0.99519
 C1574 C -0.10827 0.43082 0.99529
 H1575 H -0.19906 0.36246 0.98713
 H1576 H -0.16422 0.37591 0.98905
 H1577 H -0.18755 0.43231 1.01551
 H1578 H -0.22215 0.41917 1.01409
 H1579 H -0.13921 0.40211 1.00182
 H1580 H -0.15946 0.44492 1.00087
 H1581 H -0.13625 0.47220 1.01186
 H1582 H -0.10206 0.48799 1.01179
 H1583 H -0.07554 0.43067 0.99034
 H1584 H -0.10965 0.41504 0.99014
 C1585 C -0.19340 0.61767 0.51443
 C1586 C -0.17380 0.60851 0.51395
 C1587 C -0.17082 0.58901 0.50508
 C1588 C -0.18795 0.57895 0.49639
 C1589 C -0.20756 0.58811 0.49690
 C1590 C -0.21058 0.60756 0.50600
 C1591 C -0.14955 0.58022 0.50454
 C1592 C -0.14532 0.56005 0.50189
 C1593 C -0.12402 0.55131 0.50135
 C1594 C -0.12095 0.53181 0.49247
 C1595 C -0.10127 0.52281 0.49182
 C1596 C -0.08413 0.53308 0.50019
 C1597 C -0.08722 0.55253 0.50925
 C1598 C -0.10690 0.56150 0.50992
 H1599 H -0.19501 0.63263 0.52155
 H1600 H -0.16089 0.61671 0.52060
 H1601 H -0.18632 0.56430 0.48868
 H1602 H -0.22022 0.58013 0.48960
 H1603 H -0.13701 0.59103 0.50660
 H1604 H -0.15786 0.54924 0.49982
 H1605 H -0.13385 0.52351 0.48590
 H1606 H -0.09950 0.50781 0.48476
 H1607 H -0.07444 0.56082 0.51602
 H1608 H -0.10855 0.57619 0.51754
 C1609 C 0.30795 1.11889 0.01207
 C1610 C 0.32758 1.10971 0.01217
 C1611 C 0.33168 1.09197 0.00050
 C1612 C 0.31553 1.08360 -0.01129
 C1613 C 0.29598 1.09281 -0.01144
 C1614 C 0.29183 1.11045 0.00040
 C1615 C 0.35263 1.08240 0.00170
 C1616 C 0.35965 1.06813 -0.01153
 C1617 C 0.38009 1.05778 -0.00977
 C1618 C 0.38261 1.03836 -0.01891
 C1619 C 0.40157 1.02802 -0.01803
 C1620 C 0.41865 1.03698 -0.00820
 C1621 C 0.41622 1.05655 0.00082
 C1622 C 0.39715 1.06685 0.00007
 H1623 H 0.30541 1.13234 0.02147
 H1624 H 0.33961 1.11647 0.02152
 H1625 H 0.31758 1.06972 -0.02020
 H1626 H 0.28414 1.08606 -0.02100
 H1627 H 0.36246 1.08726 0.01421
 H1628 H 0.34995 1.06311 -0.02404
 H1629 H 0.36980 1.03108 -0.02671
 H1630 H 0.40286 1.01307 -0.02530
 H1631 H 0.42908 1.06397 0.00840
 H1632 H 0.39602 1.08204 0.00680
 C1633 C -0.02550 1.20146 1.09409
 C1634 C -0.02478 1.18365 1.08213
 C1635 C -0.00584 1.17554 1.07542
 C1636 C 0.01245 1.18620 1.08017
 C1637 C 0.01172 1.20405 1.09214
 C1638 C -0.00716 1.21134 1.10022
 C1639 C -0.00586 1.15526 1.06498
 C1640 C 0.00999 1.14776 1.05394
 C1641 C 0.00972 1.12660 1.04542
 C1642 C 0.02045 1.12244 1.02708
 C1643 C 0.02027 1.10255 1.01873
 C1644 C 0.00960 1.08637 1.02880
 C1645 C -0.00064 1.09048 1.04748
 C1646 C -0.00056 1.11032 1.05570
 H1647 H -0.04054 1.20724 1.09847
 H1648 H -0.03914 1.17598 1.07834
 H1649 H 0.02741 1.18051 1.07537
 H1650 H 0.02609 1.21184 1.09558
 H1651 H -0.01979 1.14607 1.06651
 H1652 H 0.02325 1.15738 1.05047
 H1653 H 0.02873 1.13467 1.01904
 H1654 H 0.02845 1.09989 1.00440
 H1655 H -0.00887 1.07839 1.05576
 H1656 H -0.00834 1.11278 1.07028
 C1657 C 0.50721 0.71677 0.58033
 C1658 C 0.50901 0.69816 0.56962
 C1659 C 0.50908 0.67910 0.58022
 C1660 C 0.50777 0.67905 0.60187
 C1661 C 0.50569 0.69753 0.61250
 C1662 C 0.50554 0.71670 0.60200
 C1663 C 0.51080 0.65970 0.56832
 C1664 C 0.50471 0.64127 0.57590
 C1665 C 0.50573 0.62150 0.56456
 C1666 C 0.49535 0.60436 0.57308
 C1667 C 0.49543 0.58539 0.56309
 C1668 C 0.50593 0.58305 0.54425
 C1669 C 0.51674 0.60005 0.53587
 C1670 C 0.51675 0.61907 0.54596
 H1671 H 0.50695 0.73094 0.57140
 H1672 H 0.51013 0.69865 0.55294
 H1673 H 0.50860 0.66489 0.61085
 H1674 H 0.50441 0.69687 0.62917
 H1675 H 0.51635 0.66102 0.55262
 H1676 H 0.49762 0.64050 0.59102
 H1677 H 0.48690 0.60569 0.58747
 H1678 H 0.48695 0.57264 0.57002
 H1679 H 0.52514 0.59870 0.52147
 H1680 H 0.52547 0.63162 0.53908
 C1681 C 0.00110 0.69278 0.38699
 C1682 C -0.00017 0.67272 0.39480
 C1683 C -0.00194 0.66911 0.41605
 C1684 C -0.00180 0.68609 0.42947
 C1685 C -0.00056 0.70632 0.42161
 C1686 C 0.00083 0.70993 0.40019
 C1687 C -0.00345 0.64737 0.42323
 C1688 C -0.01009 0.64147 0.44199
 C1689 C -0.01133 0.61945 0.44852
 C1690 C -0.02380 0.61404 0.46550
 C1691 C -0.02470 0.59355 0.47259
 C1692 C -0.01316 0.57807 0.46273
 C1693 C -0.00091 0.58344 0.44559
 C1694 C 0.00021 0.60388 0.43871
 H1695 H 0.00189 0.69498 0.37041
 H1696 H -0.00010 0.65996 0.38410
 H1697 H -0.00257 0.68394 0.44602
 H1698 H -0.00108 0.71885 0.43244
 H1699 H 0.00018 0.63574 0.41192
 H1700 H -0.01552 0.65292 0.45278
 H1701 H -0.03272 0.62573 0.47343
 H1702 H -0.03419 0.58988 0.48593
 H1703 H 0.00853 0.57196 0.43794
 H1704 H 0.01072 0.60732 0.42615
 C1705 C 0.50882 1.20897 -0.07771
 C1706 C 0.50676 1.18955 -0.06817
 C1707 C 0.50343 1.17174 -0.07989
 C1708 C 0.50222 1.17376 -0.10147
 C1709 C 0.50451 1.19304 -0.11099
 C1710 C 0.50741 1.21102 -0.09931
 C1711 C 0.50075 1.15158 -0.06904
 C1712 C 0.50249 1.13327 -0.07844
 C1713 C 0.49981 1.11299 -0.06791
 C1714 C 0.50738 1.09530 -0.07775
 C1715 C 0.50544 1.07581 -0.06850
 C1716 C 0.49580 1.07354 -0.04915
 C1717 C 0.48775 1.09118 -0.03947
 C1718 C 0.48961 1.11070 -0.04879
 H1719 H 0.51158 1.22206 -0.06795
 H1720 H 0.50779 1.18845 -0.05151
 H1721 H 0.49907 1.16070 -0.11121
 H1722 H 0.50358 1.19401 -0.12766
 H1723 H 0.49796 1.15205 -0.05260
 H1724 H 0.50705 1.13279 -0.09448
 H1725 H 0.51509 1.09656 -0.09258
 H1726 H 0.51181 1.06257 -0.07642
 H1727 H 0.48004 1.08994 -0.02466
 H1728 H 0.48286 1.12378 -0.04099
 C1729 C 0.52266 0.29271 -0.08172
 C1730 C 0.52378 0.31213 -0.07259
 C1731 C 0.51483 0.32950 -0.08215
 C1732 C 0.50545 0.32719 -0.10156
 C1733 C 0.50439 0.30773 -0.11074
 C1734 C 0.51262 0.29019 -0.10075
 C1735 C 0.51582 0.34962 -0.07143
 C1736 C 0.50229 0.36505 -0.07470
 C1737 C 0.50267 0.38486 -0.06338
 C1738 C 0.49325 0.40224 -0.07245
 C1739 C 0.49274 0.42112 -0.06221
 C1740 C 0.50147 0.42303 -0.04248
 C1741 C 0.51076 0.40556 -0.03327
 C1742 C 0.51132 0.38666 -0.04357
 H1743 H 0.52979 0.27969 -0.07387
 H1744 H 0.53142 0.31353 -0.05783
 H1745 H 0.49906 0.34031 -0.10984
 H1746 H 0.49681 0.30646 -0.12547
 H1747 H 0.52779 0.35135 -0.05997
 H1748 H 0.49032 0.36334 -0.08616
 H1749 H 0.48630 0.40124 -0.08759
 H1750 H 0.48538 0.43420 -0.06977
 H1751 H 0.51751 0.40643 -0.01804
 H1752 H 0.51812 0.37348 -0.03572
 C1753 C 0.01714 -0.20888 0.42075
 C1754 C 0.01999 -0.18972 0.43006
 C1755 C 0.01055 -0.17189 0.42196
 C1756 C -0.00217 -0.17365 0.40449
 C1757 C -0.00512 -0.19285 0.39526
 C1758 C 0.00445 -0.21070 0.40328
 C1759 C 0.01348 -0.15201 0.43269
 C1760 C 0.01242 -0.13357 0.42306
 C1761 C 0.01403 -0.11345 0.43375
 C1762 C 0.00638 -0.09571 0.42370
 C1763 C 0.00651 -0.07656 0.43345
 C1764 C 0.01443 -0.07466 0.45351
 C1765 C 0.02283 -0.09226 0.46330
 C1766 C 0.02272 -0.11143 0.45352
 H1767 H 0.02513 -0.22219 0.42714
 H1768 H 0.02977 -0.18879 0.44355
 H1769 H -0.01031 -0.16038 0.39824
 H1770 H -0.01529 -0.19374 0.38212
 H1771 H 0.01662 -0.15291 0.44904
 H1772 H 0.00952 -0.13301 0.40662
 H1773 H -0.00019 -0.09674 0.40840
 H1774 H 0.00003 -0.06333 0.42535
 H1775 H 0.02930 -0.09130 0.47865
 H1776 H 0.02952 -0.12448 0.46157
 C1777 C 0.48620 -0.19151 0.61669
 C1778 C 0.48422 -0.17145 0.60868
 C1779 C 0.49836 -0.16392 0.59398
 C1780 C 0.51448 -0.17688 0.58727
 C1781 C 0.51621 -0.19708 0.59498
 C1782 C 0.50204 -0.20456 0.60970
 C1783 C 0.49522 -0.14309 0.58491
 C1784 C 0.51096 -0.13093 0.57905
 C1785 C 0.50781 -0.11060 0.56891
 C1786 C 0.52206 -0.09469 0.57235
 C1787 C 0.52007 -0.07566 0.56211
 C1788 C 0.50410 -0.07239 0.54779
 C1789 C 0.48983 -0.08833 0.54434
 C1790 C 0.49158 -0.10722 0.55489
 H1791 H 0.47492 -0.19706 0.62783
 H1792 H 0.47157 -0.16180 0.61390
 H1793 H 0.52534 -0.17166 0.57558
 H1794 H 0.52853 -0.20691 0.58938
 H1795 H 0.47950 -0.13741 0.58360
 H1796 H 0.52669 -0.13571 0.58232
 H1797 H 0.53479 -0.09704 0.58295
 H1798 H 0.53141 -0.06371 0.56493
 H1799 H 0.47738 -0.08625 0.53336
 H1800 H 0.48064 -0.11938 0.55156
 C1801 C 0.00308 0.30534 1.11938
 C1802 C 0.00327 0.32558 1.11152
 C1803 C -0.00477 0.33010 1.09191
 C1804 C -0.01276 0.31380 1.08016
 C1805 C -0.01292 0.29358 1.08800
 C1806 C -0.00485 0.28900 1.10768
 C1807 C -0.00378 0.35171 1.08395
 C1808 C -0.01649 0.35914 1.06929
 C1809 C -0.01498 0.38025 1.06018
 C1810 C -0.02383 0.38382 1.04074
 C1811 C -0.02260 0.40326 1.03123
 C1812 C -0.01263 0.41976 1.04103
 C1813 C -0.00414 0.41636 1.06073
 C1814 C -0.00531 0.39683 1.07023
 H1815 H 0.00940 0.30263 1.13453
 H1816 H 0.00967 0.33780 1.12085
 H1817 H -0.01857 0.31642 1.06473
 H1818 H -0.01960 0.28162 1.07860
 H1819 H 0.00790 0.36162 1.09047
 H1820 H -0.02828 0.34918 1.06304
 H1821 H -0.03152 0.37140 1.03272
 H1822 H -0.02947 0.40530 1.01613
 H1823 H 0.00349 0.42877 1.06879
 H1824 H 0.00116 0.39496 1.08549
 C1825 C 0.76671 0.33795 0.03713
 C1826 C 0.76953 0.32760 0.05606
 C1827 C 0.75264 0.32338 0.06906
 C1828 C 0.73269 0.32827 0.06208
 C1829 C 0.72983 0.33854 0.04327
 C1830 C 0.74681 0.34431 0.03073
 C1831 C 0.75610 0.31397 0.08978
 C1832 C 0.74373 0.31815 0.10592
 C1833 C 0.74625 0.30932 0.12702
 C1834 C 0.73595 0.31899 0.14342
 C1835 C 0.73667 0.31065 0.16339
 C1836 C 0.74761 0.29225 0.16747
 C1837 C 0.75820 0.28270 0.15111
 C1838 C 0.75751 0.29109 0.13111
 H1839 H 0.78043 0.34201 0.02844
 H1840 H 0.78505 0.32366 0.06094
 H1841 H 0.71918 0.32421 0.07116
 H1842 H 0.71410 0.34179 0.03861
 H1843 H 0.76976 0.30452 0.09192
 H1844 H 0.73131 0.32923 0.10383
 H1845 H 0.72708 0.33299 0.14073
 H1846 H 0.72830 0.31844 0.17554
 H1847 H 0.76673 0.26847 0.15365
 H1848 H 0.76529 0.28288 0.11888
 C1849 C 0.28213 0.84649 0.54972
 C1850 C 0.28671 0.83672 0.56853
 C1851 C 0.27241 0.82317 0.57781
 C1852 C 0.25365 0.81916 0.56772
 C1853 C 0.24893 0.82923 0.54918
 C1854 C 0.26294 0.84326 0.54028
 C1855 C 0.27621 0.81518 0.59892
 C1856 C 0.26901 0.79683 0.60543
 C1857 C 0.26974 0.78999 0.62722
 C1858 C 0.27135 0.76881 0.63170
 C1859 C 0.26993 0.76159 0.65202
 C1860 C 0.26628 0.77541 0.66824
 C1861 C 0.26487 0.79668 0.66381
 C1862 C 0.26674 0.80395 0.64347
 H1863 H 0.29300 0.85753 0.54322
 H1864 H 0.30117 0.84017 0.57614
 H1865 H 0.24208 0.80920 0.57470
 H1866 H 0.23397 0.82671 0.54219
 H1867 H 0.28484 0.82481 0.60940
 H1868 H 0.26220 0.78636 0.59443
 H1869 H 0.27343 0.75778 0.61939
 H1870 H 0.27092 0.74509 0.65493
 H1871 H 0.26205 0.80766 0.67601
 H1872 H 0.26494 0.82035 0.64040
 C1873 C 0.77139 0.65500 0.55270
 C1874 C 0.77261 0.66403 0.57222
 C1875 C 0.75720 0.67778 0.57899
 C1876 C 0.74152 0.68368 0.56508
 C1877 C 0.74025 0.67456 0.54570
 C1878 C 0.75480 0.65969 0.53960
 C1879 C 0.75756 0.68490 0.60075
 C1880 C 0.74067 0.69167 0.61078
 C1881 C 0.74057 0.69791 0.63273
 C1882 C 0.72598 0.71258 0.63920
 C1883 C 0.72525 0.71893 0.65972
 C1884 C 0.73885 0.71040 0.67441
 C1885 C 0.75303 0.69518 0.66811
 C1886 C 0.75395 0.68904 0.64746
 H1887 H 0.78255 0.64329 0.54850
 H1888 H 0.78501 0.65940 0.58247
 H1889 H 0.72988 0.69494 0.56918
 H1890 H 0.72734 0.67842 0.53576
 H1891 H 0.77207 0.68365 0.60895
 H1892 H 0.72610 0.69297 0.60275
 H1893 H 0.71531 0.71944 0.62822
 H1894 H 0.71409 0.73062 0.66407
 H1895 H 0.76373 0.68834 0.67904
 H1896 H 0.76495 0.67721 0.64317
 C1897 C 0.27101 0.15821 0.05069
 C1898 C 0.27168 0.16796 0.06989
 C1899 C 0.25383 0.17704 0.07835
 C1900 C 0.23541 0.17669 0.06687
 C1901 C 0.23479 0.16702 0.04778
 C1902 C 0.25240 0.15717 0.03974
 C1903 C 0.25449 0.18511 0.09973
 C1904 C 0.24005 0.19778 0.10759
 C1905 C 0.23938 0.20416 0.12950
 C1906 C 0.22815 0.22196 0.13469
 C1907 C 0.22668 0.22830 0.15519
 C1908 C 0.23629 0.21684 0.17104
 C1909 C 0.24714 0.19872 0.16589
 C1910 C 0.24863 0.19241 0.14538
 H1911 H 0.28477 0.15068 0.04494
 H1912 H 0.28605 0.16791 0.07842
 H1913 H 0.22113 0.18298 0.07281
 H1914 H 0.22026 0.16673 0.03953
 H1915 H 0.26737 0.18027 0.10925
 H1916 H 0.22828 0.20423 0.09761
 H1917 H 0.22061 0.23113 0.12281
 H1918 H 0.21819 0.24232 0.15855
 H1919 H 0.25466 0.18945 0.17770
 H1920 H 0.25677 0.17818 0.14215
 C1921 C 0.24757 0.18041 0.96169
 C1922 C 0.25284 0.19326 0.94504
 C1923 C 0.27191 0.19090 0.93498
 C1924 C 0.28636 0.17661 0.94294
 C1925 C 0.28124 0.16405 0.95995
 C1926 C 0.26154 0.16539 0.96893
 C1927 C 0.27550 0.20243 0.91545
 C1928 C 0.28445 0.19353 0.89911
 C1929 C 0.28342 0.20262 0.87807
 C1930 C 0.28143 0.18926 0.86131
 C1931 C 0.27864 0.19714 0.84137
 C1932 C 0.27827 0.21860 0.83769
 C1933 C 0.28122 0.23203 0.85434
 C1934 C 0.28364 0.22411 0.87440
 H1935 H 0.23231 0.18171 0.96851
 H1936 H 0.24153 0.20424 0.93927
 H1937 H 0.30136 0.17478 0.93570
 H1938 H 0.29219 0.15250 0.96532
 H1939 H 0.26777 0.21720 0.91351
 H1940 H 0.29013 0.17780 0.90058
 H1941 H 0.28134 0.17264 0.86374
 H1942 H 0.27668 0.18640 0.82882
 H1943 H 0.28111 0.24864 0.85194
 H1944 H 0.28560 0.23480 0.88698
 C1945 C 0.76280 0.64206 0.44726
 C1946 C 0.76764 0.65150 0.42842
 C1947 C 0.77024 0.67302 0.42694
 C1948 C 0.76922 0.68479 0.44512
 C1949 C 0.76464 0.67520 0.46415
 C1950 C 0.76082 0.65386 0.46517
 C1951 C 0.77311 0.68219 0.40600
 C1952 C 0.76844 0.70182 0.40082
 C1953 C 0.76772 0.70916 0.37900
 C1954 C 0.77091 0.73020 0.37438
 C1955 C 0.76909 0.73768 0.35407
 C1956 C 0.76364 0.72430 0.33800
 C1957 C 0.76044 0.70325 0.34268
 C1958 C 0.76240 0.69578 0.36288
 H1959 H 0.76006 0.62553 0.44778
 H1960 H 0.76852 0.64201 0.41477
 H1961 H 0.77169 0.70133 0.44472
 H1962 H 0.76324 0.68452 0.47787
 H1963 H 0.77777 0.67167 0.39395
 H1964 H 0.76421 0.71276 0.41262
 H1965 H 0.77474 0.74088 0.38653
 H1966 H 0.77155 0.75400 0.35104
 H1967 H 0.75617 0.69249 0.33074
 H1968 H 0.75906 0.67962 0.36585
 C1969 C 0.26526 0.82611 0.46946
 C1970 C 0.26601 0.81323 0.45217
 C1971 C 0.26074 0.82099 0.43254
 C1972 C 0.25478 0.84185 0.43051
 C1973 C 0.25394 0.85457 0.44767
 C1974 C 0.25881 0.84677 0.46734
 C1975 C 0.26039 0.80712 0.41446
 C1976 C 0.26439 0.81437 0.39542
 C1977 C 0.26204 0.80261 0.37610
 C1978 C 0.27136 0.81084 0.35832
 C1979 C 0.26815 0.80191 0.33919
 C1980 C 0.25537 0.78445 0.33719
 C1981 C 0.24629 0.77582 0.35506
 C1982 C 0.24954 0.78486 0.37440
 H1983 H 0.26884 0.81972 0.48455
 H1984 H 0.27048 0.79718 0.45414
 H1985 H 0.24998 0.84828 0.41580
 H1986 H 0.24896 0.87047 0.44562
 H1987 H 0.25687 0.79092 0.41697
 H1988 H 0.26983 0.83015 0.39371
 H1989 H 0.28097 0.82452 0.35914
 H1990 H 0.27562 0.80895 0.32589
 H1991 H 0.23640 0.76237 0.35406
 H1992 H 0.24175 0.77833 0.38774
 C1993 C 0.76292 0.32834 0.96219
 C1994 C 0.76620 0.31542 0.94517
 C1995 C 0.75933 0.32132 0.92545
 C1996 C 0.74887 0.34021 0.92310
 C1997 C 0.74543 0.35294 0.93993
 C1998 C 0.75212 0.34725 0.95992
 C1999 C 0.76235 0.30755 0.90749
 C2000 C 0.76556 0.31540 0.88849
 C2001 C 0.76621 0.30331 0.86920
 C2002 C 0.77519 0.31266 0.85176
 C2003 C 0.77417 0.30329 0.83255
 C2004 C 0.76394 0.28428 0.83012
 C2005 C 0.75533 0.27455 0.84770
 C2006 C 0.75644 0.28398 0.86709
 H2007 H 0.76800 0.32284 0.97714
 H2008 H 0.77409 0.30078 0.94742
 H2009 H 0.74295 0.34512 0.90823
 H2010 H 0.73790 0.36758 0.93684
 H2011 H 0.76200 0.29097 0.91002
 H2012 H 0.76786 0.33194 0.88681
 H2013 H 0.78270 0.32758 0.85290
 H2014 H 0.78111 0.31126 0.81948
 H2015 H 0.74734 0.25992 0.84639
 H2016 H 0.74897 0.27651 0.88013
 C2017 C 0.83951 0.45646 0.27523
 C2018 C 0.82854 0.43789 0.27796
 C2019 C 0.81829 0.42865 0.26129
 C2020 C 0.81865 0.43887 0.24199
 C2021 C 0.82960 0.45729 0.23931
 C2022 C 0.84065 0.46595 0.25570
 C2023 C 0.80923 0.40759 0.26393
 C2024 C 0.79530 0.39962 0.25088
 C2025 C 0.78800 0.37779 0.25144
 C2026 C 0.76998 0.37283 0.24057
 C2027 C 0.76312 0.35238 0.23942
 C2028 C 0.77422 0.33623 0.24902
 C2029 C 0.79231 0.34115 0.25993
 C2030 C 0.79916 0.36168 0.26110
 H2031 H 0.84810 0.46267 0.28803
 H2032 H 0.82864 0.43034 0.29296
 H2033 H 0.81154 0.43223 0.22855
 H2034 H 0.83022 0.46432 0.22407
 H2035 H 0.81452 0.39840 0.27693
 H2036 H 0.78864 0.40949 0.23907
 H2037 H 0.76118 0.38485 0.23278
 H2038 H 0.74913 0.34925 0.23089
 H2039 H 0.80129 0.32913 0.26748
 H2040 H 0.81345 0.36468 0.26913
 C2041 C 0.34413 0.94603 0.76898
 C2042 C 0.33403 0.92699 0.77162
 C2043 C 0.32087 0.91939 0.75622
 C2044 C 0.31674 0.93204 0.73889
 C2045 C 0.32699 0.95085 0.73617
 C2046 C 0.34121 0.95769 0.75087
 C2047 C 0.31234 0.89810 0.75839
 C2048 C 0.30594 0.88697 0.74223
 C2049 C 0.29829 0.86539 0.74378
 C2050 C 0.28477 0.85829 0.72854
 C2051 C 0.27759 0.83791 0.72895
 C2052 C 0.28408 0.82401 0.74445
 C2053 C 0.29792 0.83100 0.75954
 C2054 C 0.30492 0.85150 0.75926
 H2055 H 0.35512 0.95100 0.78046
 H2056 H 0.33724 0.91775 0.78529
 H2057 H 0.30591 0.92743 0.72715
 H2058 H 0.32430 0.95982 0.72221
 H2059 H 0.31215 0.89119 0.77368
 H2060 H 0.30620 0.89373 0.72690
 H2061 H 0.27963 0.86861 0.71630
 H2062 H 0.26705 0.83302 0.71702
 H2063 H 0.30323 0.82067 0.77169
 H2064 H 0.31582 0.85623 0.77091
 C2065 C 0.17292 0.96410 0.26240
 C2066 C 0.18547 0.94717 0.26771
 C2067 C 0.17806 0.92689 0.26566
 C2068 C 0.15795 0.92384 0.25809
 C2069 C 0.14559 0.94065 0.25259
 C2070 C 0.15303 0.96089 0.25446
 C2071 C 0.19190 0.90904 0.26961
 C2072 C 0.18442 0.89084 0.27631
 C2073 C 0.19568 0.87096 0.27503
 C2074 C 0.18380 0.85290 0.27394
 C2075 C 0.19316 0.83382 0.27072
 C2076 C 0.21473 0.83223 0.26883
 C2077 C 0.22685 0.85011 0.27087
 C2078 C 0.21739 0.86941 0.27382
 H2079 H 0.17902 0.97962 0.26377
 H2080 H 0.20101 0.94988 0.27322
 H2081 H 0.15195 0.90844 0.25561
 H2082 H 0.13026 0.93780 0.24659
 H2083 H 0.20803 0.91067 0.26546
 H2084 H 0.16830 0.88999 0.28087
 H2085 H 0.16709 0.85361 0.27495
 H2086 H 0.18341 0.82026 0.26964
 H2087 H 0.24353 0.84925 0.26970
 H2088 H 0.22708 0.88295 0.27506
 C2089 C 0.65375 0.44971 0.77694
 C2090 C 0.66475 0.43154 0.78144
 C2091 C 0.67873 0.42333 0.76704
 C2092 C 0.68204 0.43405 0.74831
 C2093 C 0.67084 0.45198 0.74371
 C2094 C 0.65623 0.45965 0.75775
 C2095 C 0.68767 0.40249 0.77070
 C2096 C 0.70553 0.39631 0.76221
 C2097 C 0.71274 0.37457 0.76286
 C2098 C 0.73402 0.37045 0.76206
 C2099 C 0.74127 0.35011 0.76080
 C2100 C 0.72733 0.33348 0.75978
 C2101 C 0.70600 0.33759 0.76066
 C2102 C 0.69877 0.35792 0.76229
 H2103 H 0.64235 0.45522 0.78787
 H2104 H 0.66181 0.42347 0.79589
 H2105 H 0.69228 0.42797 0.73661
 H2106 H 0.67291 0.45939 0.72877
 H2107 H 0.67895 0.39178 0.78031
 H2108 H 0.71529 0.40750 0.75433
 H2109 H 0.74506 0.38303 0.76222
 H2110 H 0.75779 0.34745 0.76003
 H2111 H 0.69489 0.32510 0.75992
 H2112 H 0.68225 0.36060 0.76231
 C2113 C 0.66647 0.53218 0.76454
 C2114 C 0.67771 0.55059 0.76664
 C2115 C 0.66908 0.56970 0.76060
 C2116 C 0.64883 0.57003 0.75273
 C2117 C 0.63771 0.55176 0.75064
 C2118 C 0.64655 0.53262 0.75604
 C2119 C 0.68185 0.58879 0.76116
 C2120 C 0.67344 0.60776 0.76207
 C2121 C 0.68518 0.62741 0.76049
 C2122 C 0.67536 0.64560 0.76690
 C2123 C 0.68513 0.66472 0.76481
 C2124 C 0.70501 0.66623 0.75608
 C2125 C 0.71487 0.64804 0.74948
 C2126 C 0.70506 0.62880 0.75163
 H2127 H 0.67368 0.51758 0.76865
 H2128 H 0.69332 0.54988 0.77260
 H2129 H 0.64173 0.58422 0.74728
 H2130 H 0.62229 0.55257 0.74422
 H2131 H 0.69848 0.58701 0.76086
 H2132 H 0.65692 0.60920 0.76440
 H2133 H 0.65997 0.64504 0.77355
 H2134 H 0.67699 0.67835 0.77006
 H2135 H 0.73018 0.64864 0.74268
 H2136 H 0.71292 0.61522 0.74595
 C2137 C 0.17250 0.03780 0.23045
 C2138 C 0.18495 0.05526 0.23224
 C2139 C 0.18403 0.06733 0.25004
 C2140 C 0.17179 0.06056 0.26681
 C2141 C 0.15943 0.04293 0.26506
 C2142 C 0.15911 0.03191 0.24658
 C2143 C 0.19493 0.08743 0.24996
 C2144 C 0.18733 0.10398 0.25972
 C2145 C 0.19557 0.12525 0.25713
 C2146 C 0.18288 0.14185 0.26291
 C2147 C 0.18967 0.16222 0.26061
 C2148 C 0.20939 0.16651 0.25247
 C2149 C 0.22215 0.14993 0.24667
 C2150 C 0.21539 0.12950 0.24908
 H2151 H 0.17278 0.02927 0.21616
 H2152 H 0.19450 0.05998 0.21925
 H2153 H 0.17130 0.06914 0.28104
 H2154 H 0.14931 0.03866 0.27770
 H2155 H 0.20789 0.08912 0.23951
 H2156 H 0.17324 0.10233 0.26865
 H2157 H 0.16757 0.13906 0.26918
 H2158 H 0.17945 0.17461 0.26530
 H2159 H 0.23756 0.15269 0.24066
 H2160 H 0.22593 0.11723 0.24494
 C2161 C 0.34424 0.03822 0.77399
 C2162 C 0.33561 0.05739 0.77923
 C2163 C 0.32605 0.06981 0.76410
 C2164 C 0.32369 0.06200 0.74412
 C2165 C 0.33216 0.04291 0.73894
 C2166 C 0.34320 0.03118 0.75359
 C2167 C 0.31919 0.09107 0.76907
 C2168 C 0.32134 0.10663 0.75534
 C2169 C 0.31458 0.12823 0.75877
 C2170 C 0.32320 0.14394 0.74634
 C2171 C 0.31600 0.16427 0.74752
 C2172 C 0.29977 0.16936 0.76102
 C2173 C 0.29145 0.15372 0.77386
 C2174 C 0.29878 0.13337 0.77277
 H2175 H 0.35269 0.02951 0.78558
 H2176 H 0.33731 0.06299 0.79481
 H2177 H 0.31564 0.07084 0.73234
 H2178 H 0.33063 0.03759 0.72323
 H2179 H 0.31355 0.09406 0.78449
 H2180 H 0.32899 0.10353 0.74078
 H2181 H 0.33533 0.14038 0.73536
 H2182 H 0.32274 0.17586 0.73736
 H2183 H 0.27892 0.15709 0.78443
 H2184 H 0.29146 0.12163 0.78230
 C2185 C 0.83291 0.54913 0.23524
 C2186 C 0.82449 0.56889 0.23721
 C2187 C 0.82578 0.57951 0.25591
 C2188 C 0.83484 0.56940 0.27304
 C2189 C 0.84328 0.54949 0.27105
 C2190 C 0.84294 0.53948 0.25194
 C2191 C 0.81901 0.60149 0.25613
 C2192 C 0.81497 0.61237 0.27318
 C2193 C 0.80819 0.63430 0.27205
 C2194 C 0.79365 0.64159 0.28633
 C2195 C 0.78591 0.66177 0.28468
 C2196 C 0.79291 0.67525 0.26895
 C2197 C 0.80832 0.66830 0.25535
 C2198 C 0.81583 0.64802 0.25683
 H2199 H 0.83228 0.54168 0.22037
 H2200 H 0.81752 0.57620 0.22380
 H2201 H 0.83643 0.57713 0.28765
 H2202 H 0.85118 0.54249 0.28408
 H2203 H 0.81675 0.60895 0.24125
 H2204 H 0.81520 0.60484 0.28817
 H2205 H 0.78773 0.63142 0.29835
 H2206 H 0.77420 0.66672 0.29555
 H2207 H 0.81411 0.67830 0.24312
 H2208 H 0.82755 0.64307 0.24597
 C2209 C 0.95743 0.26226 0.17351
 C2210 C 0.93992 0.26637 0.18566
 C2211 C 0.91995 0.26341 0.17774
 C2212 C 0.91786 0.25605 0.15751
 C2213 C 0.93522 0.25185 0.14552
 C2214 C 0.95519 0.25467 0.15342
 C2215 C 0.90150 0.26650 0.19106
 C2216 C 0.88313 0.27195 0.18308
 C2217 C 0.86311 0.27072 0.19423
 C2218 C 0.84517 0.26881 0.18232
 C2219 C 0.82593 0.26617 0.19166
 C2220 C 0.82401 0.26571 0.21325
 C2221 C 0.84181 0.26841 0.22532
 C2222 C 0.86127 0.27077 0.21590
 H2223 H 0.97267 0.26440 0.18001
 H2224 H 0.94194 0.27175 0.20129
 H2225 H 0.90282 0.25284 0.15105
 H2226 H 0.93300 0.24621 0.13002
 H2227 H 0.90299 0.26310 0.20736
 H2228 H 0.88233 0.27588 0.16681
 H2229 H 0.84609 0.26883 0.16563
 H2230 H 0.81249 0.26446 0.18190
 H2231 H 0.84075 0.26827 0.24199
 H2232 H 0.87469 0.27264 0.22559
 C2233 C 0.44182 0.75625 0.63744
 C2234 C 0.42271 0.75936 0.64688
 C2235 C 0.42144 0.76414 0.66789
 C2236 C 0.43986 0.76684 0.67909
 C2237 C 0.45912 0.76398 0.66948
 C2238 C 0.46017 0.75813 0.64872
 C2239 C 0.40054 0.76548 0.67723
 C2240 C 0.39638 0.76232 0.69731
 C2241 C 0.37489 0.75983 0.70502
 C2242 C 0.36988 0.76546 0.72528
 C2243 C 0.34979 0.76256 0.73297
 C2244 C 0.33443 0.75363 0.72061
 C2245 C 0.33961 0.74776 0.70042
 C2246 C 0.35955 0.75075 0.69276
 H2247 H 0.44224 0.75222 0.62127
 H2248 H 0.40881 0.75741 0.63783
 H2249 H 0.43951 0.77107 0.69518
 H2250 H 0.47313 0.76570 0.67840
 H2251 H 0.38777 0.76756 0.66663
 H2252 H 0.40879 0.76072 0.70834
 H2253 H 0.38151 0.77219 0.73514
 H2254 H 0.34636 0.76715 0.74863
 H2255 H 0.32825 0.74072 0.69047
 H2256 H 0.36299 0.74542 0.67735
 C2257 C 0.46659 0.27652 0.84563
 C2258 C 0.44880 0.27968 0.83371
 C2259 C 0.43979 0.26323 0.82293
 C2260 C 0.44954 0.24374 0.82360
 C2261 C 0.46721 0.24064 0.83548
 C2262 C 0.47550 0.25679 0.84715
 C2263 C 0.41916 0.26624 0.81333
 C2264 C 0.41089 0.25302 0.79981
 C2265 C 0.38895 0.25368 0.79321
 C2266 C 0.38322 0.24305 0.77535
 C2267 C 0.36249 0.24188 0.76945
 C2268 C 0.34694 0.25119 0.78141
 C2269 C 0.35269 0.26187 0.79928
 C2270 C 0.37341 0.26304 0.80517
 H2271 H 0.47256 0.28916 0.85459
 H2272 H 0.44158 0.29481 0.83358
 H2273 H 0.44306 0.23046 0.81601
 H2274 H 0.47393 0.22529 0.83625
 H2275 H 0.41029 0.27954 0.81821
 H2276 H 0.42036 0.24090 0.79336
 H2277 H 0.39483 0.23546 0.76601
 H2278 H 0.35865 0.23354 0.75558
 H2279 H 0.34114 0.26917 0.80892
 H2280 H 0.37701 0.27076 0.81942
 C2281 C 0.95769 0.77871 0.34945
 C2282 C 0.93905 0.78295 0.33913
 C2283 C 0.92584 0.76681 0.33340
 C2284 C 0.93160 0.74639 0.33809
 C2285 C 0.94992 0.74216 0.34840
 C2286 C 0.96311 0.75819 0.35488
 C2287 C 0.90558 0.77120 0.32361
 C2288 C 0.89708 0.75779 0.31047
 C2289 C 0.87562 0.75882 0.30266
 C2290 C 0.87059 0.74643 0.28580
 C2291 C 0.85030 0.74514 0.27885
 C2292 C 0.83435 0.75614 0.28867
 C2293 C 0.83932 0.76868 0.30555
 C2294 C 0.85978 0.77000 0.31252
 H2295 H 0.96709 0.79166 0.35397
 H2296 H 0.93486 0.79887 0.33578
 H2297 H 0.92170 0.73349 0.33433
 H2298 H 0.95367 0.72603 0.35096
 H2299 H 0.89761 0.78534 0.32759
 H2300 H 0.90633 0.74487 0.30521
 H2301 H 0.88243 0.73748 0.27807
 H2302 H 0.84714 0.73535 0.26579
 H2303 H 0.82742 0.77738 0.31343
 H2304 H 0.86295 0.77929 0.32591
 C2305 C 0.04310 0.77859 0.35072
 C2306 C 0.06186 0.78299 0.34068
 C2307 C 0.07255 0.76735 0.33019
 C2308 C 0.06333 0.74781 0.32830
 C2309 C 0.04465 0.74348 0.33816
 C2310 C 0.03477 0.75855 0.35015
 C2311 C 0.09360 0.77121 0.32199
 C2312 C 0.10837 0.75666 0.32350
 C2313 C 0.12965 0.75891 0.31532
 C2314 C 0.14520 0.74605 0.32343
 C2315 C 0.16507 0.74613 0.31492
 C2316 C 0.16976 0.75890 0.29787
 C2317 C 0.15431 0.77216 0.29003
 C2318 C 0.13446 0.77219 0.29867
 H2319 H 0.03582 0.79047 0.35990
 H2320 H 0.06856 0.79826 0.34205
 H2321 H 0.07084 0.73569 0.31962
 H2322 H 0.03828 0.72804 0.33706
 H2323 H 0.09719 0.78645 0.31590
 H2324 H 0.10485 0.74233 0.33161
 H2325 H 0.14185 0.73559 0.33618
 H2326 H 0.17656 0.73569 0.32130
 H2327 H 0.15742 0.78222 0.27692
 H2328 H 0.12277 0.78201 0.29174
 C2329 C 0.55534 0.27505 0.84834
 C2330 C 0.57389 0.27876 0.83770
 C2331 C 0.58510 0.26229 0.82919
 C2332 C 0.57677 0.24224 0.83032
 C2333 C 0.55825 0.23856 0.84080
 C2334 C 0.54761 0.25482 0.85040
 C2335 C 0.60548 0.26620 0.81940
 C2336 C 0.62093 0.25239 0.82081
 C2337 C 0.64162 0.25516 0.81129
 C2338 C 0.65818 0.24356 0.81923
 C2339 C 0.67764 0.24438 0.80988
 C2340 C 0.68095 0.25664 0.79213
 C2341 C 0.66443 0.26855 0.78434
 C2342 C 0.64495 0.26783 0.79382
 H2343 H 0.54755 0.28789 0.85564
 H2344 H 0.57989 0.29438 0.83678
 H2345 H 0.58461 0.22933 0.82319
 H2346 H 0.55238 0.22289 0.84157
 H2347 H 0.60807 0.28111 0.81208
 H2348 H 0.61862 0.23848 0.83002
 H2349 H 0.65600 0.23360 0.83261
 H2350 H 0.68995 0.23495 0.81628
 H2351 H 0.66641 0.27813 0.77067
 H2352 H 0.63245 0.27663 0.78697
 C2353 C 0.54275 0.77661 0.66178
 C2354 C 0.56106 0.77908 0.67298
 C2355 C 0.57010 0.76217 0.68342
 C2356 C 0.55985 0.74297 0.68326
 C2357 C 0.54168 0.74054 0.67209
 C2358 C 0.53340 0.75711 0.66065
 C2359 C 0.59118 0.76437 0.69217
 C2360 C 0.59917 0.75094 0.70593
 C2361 C 0.62113 0.75076 0.71240
 C2362 C 0.62634 0.74003 0.73056
 C2363 C 0.64691 0.73823 0.73672
 C2364 C 0.66289 0.74701 0.72475
 C2365 C 0.65774 0.75767 0.70645
 C2366 C 0.63708 0.75950 0.70029
 H2367 H 0.53676 0.78955 0.65286
 H2368 H 0.56866 0.79401 0.67276
 H2369 H 0.56637 0.72935 0.69057
 H2370 H 0.53469 0.72534 0.67143
 H2371 H 0.60046 0.77720 0.68660
 H2372 H 0.58928 0.73936 0.71297
 H2373 H 0.61442 0.73291 0.74003
 H2374 H 0.65025 0.72989 0.75090
 H2375 H 0.66965 0.76458 0.69684
 H2376 H 0.63379 0.76732 0.68584
 C2377 C 0.03724 0.26833 0.16035
 C2378 C 0.05556 0.27030 0.17156
 C2379 C 0.06494 0.25293 0.18080
 C2380 C 0.05503 0.23362 0.17936
 C2381 C 0.03672 0.23169 0.16820
 C2382 C 0.02799 0.24890 0.15801
 C2383 C 0.08584 0.25526 0.18994
 C2384 C 0.09493 0.24092 0.20202
 C2385 C 0.11668 0.24239 0.20901
 C2386 C 0.12270 0.23138 0.22677
 C2387 C 0.14322 0.23178 0.23346
 C2388 C 0.15826 0.24304 0.22237
 C2389 C 0.15228 0.25382 0.20439
 C2390 C 0.13175 0.25347 0.19774
 H2391 H 0.03106 0.28180 0.15256
 H2392 H 0.06284 0.28535 0.17235
 H2393 H 0.06171 0.21970 0.18588
 H2394 H 0.02978 0.21653 0.16693
 H2395 H 0.09411 0.26938 0.18626
 H2396 H 0.08621 0.22765 0.20740
 H2397 H 0.11147 0.22249 0.23556
 H2398 H 0.14726 0.22323 0.24733
 H2399 H 0.16347 0.26256 0.19540
 H2400 H 0.12790 0.26153 0.18356
 C2401 C -0.07874 0.99157 0.78033
 C2402 C -0.06730 0.99056 0.79863
 C2403 C -0.07696 0.99327 0.81782
 C2404 C -0.09843 0.99658 0.81841
 C2405 C -0.10981 0.99768 0.80023
 C2406 C -0.10023 0.99529 0.78086
 C2407 C -0.06449 0.99172 0.83696
 C2408 C -0.07015 1.00105 0.85449
 C2409 C -0.05906 0.99930 0.87443
 C2410 C -0.06928 1.00636 0.89213
 C2411 C -0.05963 1.00575 0.91130
 C2412 C -0.03936 0.99813 0.91332
 C2413 C -0.02912 0.99078 0.89568
 C2414 C -0.03883 0.99138 0.87639
 H2415 H -0.07056 0.98909 0.76606
 H2416 H -0.05082 0.98764 0.79778
 H2417 H -0.10671 0.99779 0.83287
 H2418 H -0.12636 1.00006 0.80128
 H2419 H -0.05040 0.98274 0.83629
 H2420 H -0.08395 1.01053 0.85450
 H2421 H -0.08485 1.01250 0.89113
 H2422 H -0.06805 1.01150 0.92453
 H2423 H -0.01346 0.98492 0.89668
 H2424 H -0.03021 0.98606 0.86317
 C2425 C 0.42077 0.50327 0.28551
 C2426 C 0.43273 0.50381 0.30346
 C2427 C 0.42360 0.50061 0.32289
 C2428 C 0.40240 0.49609 0.32403
 C2429 C 0.39048 0.49563 0.30623
 C2430 C 0.39939 0.49920 0.28668
 C2431 C 0.43643 0.50173 0.34169
 C2432 C 0.42849 0.50744 0.35990
 C2433 C 0.44013 0.50784 0.37950
 C2434 C 0.43132 0.51831 0.39622
 C2435 C 0.44090 0.51810 0.41545
 C2436 C 0.45956 0.50735 0.41845
 C2437 C 0.46856 0.49704 0.40166
 C2438 C 0.45891 0.49718 0.38240
 H2439 H 0.42842 0.50645 0.27102
 H2440 H 0.44910 0.50715 0.30220
 H2441 H 0.39491 0.49274 0.33864
 H2442 H 0.37408 0.49253 0.30773
 H2443 H 0.45278 0.49853 0.34017
 H2444 H 0.41254 0.51253 0.36058
 H2445 H 0.41681 0.52653 0.39446
 H2446 H 0.43355 0.52626 0.42801
 H2447 H 0.48286 0.48848 0.40349
 H2448 H 0.46598 0.48846 0.37011
 C2449 C 0.57569 -0.00124 0.28286
 C2450 C 0.56496 -0.00063 0.30159
 C2451 C 0.57463 -0.00656 0.32006
 C2452 C 0.59529 -0.01339 0.31935
 C2453 C 0.60598 -0.01408 0.30065
 C2454 C 0.59635 -0.00814 0.28206
 C2455 C 0.56335 -0.00357 0.33977
 C2456 C 0.56887 -0.01272 0.35759
 C2457 C 0.55912 -0.00820 0.37775
 C2458 C 0.57049 -0.01249 0.39567
 C2459 C 0.56206 -0.00879 0.41510
 C2460 C 0.54190 -0.00086 0.41711
 C2461 C 0.53049 0.00354 0.39916
 C2462 C 0.53897 -0.00014 0.37966
 H2463 H 0.56801 0.00463 0.26921
 H2464 H 0.54922 0.00513 0.30173
 H2465 H 0.60377 -0.01718 0.33322
 H2466 H 0.62218 -0.01826 0.30096
 H2467 H 0.55046 0.00710 0.33950
 H2468 H 0.58166 -0.02351 0.35782
 H2469 H 0.58601 -0.01873 0.39464
 H2470 H 0.57130 -0.01244 0.42856
 H2471 H 0.51485 0.00944 0.40017
 H2472 H 0.52947 0.00287 0.36627
 C2473 C 0.07896 0.49430 0.78930
 C2474 C 0.06799 0.49573 0.80781
 C2475 C 0.07731 0.50401 0.82535
 C2476 C 0.09777 0.51119 0.82395
 C2477 C 0.10875 0.50973 0.80549
 C2478 C 0.09936 0.50174 0.78770
 C2479 C 0.06532 0.50490 0.84479
 C2480 C 0.07425 0.50471 0.86342
 C2481 C 0.06241 0.50477 0.88295
 C2482 C 0.07177 0.49666 0.90077
 C2483 C 0.06110 0.49618 0.91950
 C2484 C 0.04084 0.50397 0.92084
 C2485 C 0.03164 0.51255 0.90309
 C2486 C 0.04232 0.51302 0.88434
 H2487 H 0.07152 0.48704 0.77633
 H2488 H 0.05229 0.48993 0.80855
 H2489 H 0.10541 0.51802 0.83703
 H2490 H 0.12473 0.51459 0.80540
 H2491 H 0.04864 0.50435 0.84360
 H2492 H 0.09086 0.50312 0.86459
 H2493 H 0.08732 0.49044 0.90014
 H2494 H 0.06872 0.48959 0.93290
 H2495 H 0.01615 0.51893 0.90363
 H2496 H 0.03488 0.52008 0.87111
 C2497 C 0.07962 0.49036 0.70774
 C2498 C 0.07025 0.48946 0.68844
 C2499 C 0.08122 0.49485 0.67050
 C2500 C 0.10190 0.50142 0.67232
 C2501 C 0.11130 0.50234 0.69171
 C2502 C 0.10024 0.49693 0.70965
 C2503 C 0.07019 0.49384 0.65052
 C2504 C 0.07953 0.49330 0.63202
 C2505 C 0.06783 0.49224 0.61244
 C2506 C 0.07667 0.50059 0.59441
 C2507 C 0.06587 0.50037 0.57578
 C2508 C 0.04603 0.49155 0.57472
 C2509 C 0.03745 0.48261 0.59266
 C2510 C 0.04823 0.48288 0.61129
 H2511 H 0.07074 0.48557 0.72114
 H2512 H 0.05434 0.48432 0.68753
 H2513 H 0.11079 0.50626 0.65898
 H2514 H 0.12712 0.50765 0.69261
 H2515 H 0.05348 0.49335 0.65128
 H2516 H 0.09618 0.49417 0.63090
 H2517 H 0.09184 0.50765 0.59483
 H2518 H 0.07305 0.50726 0.56224
 H2519 H 0.02232 0.47546 0.59238
 H2520 H 0.04123 0.47553 0.62465
 C2521 C 0.57997 1.00357 0.20069
 C2522 C 0.57087 1.00216 0.18129
 C2523 C 0.58195 0.99428 0.16448
 C2524 C 0.60266 0.98808 0.16750
 C2525 C 0.61183 0.98956 0.18703
 C2526 C 0.60044 0.99700 0.20389
 C2527 C 0.57084 0.99220 0.14456
 C2528 C 0.57995 0.98913 0.12620
 C2529 C 0.56802 0.98794 0.10669
 C2530 C 0.57754 0.99397 0.08810
 C2531 C 0.56652 0.99388 0.06956
 C2532 C 0.54571 0.98753 0.06914
 C2533 C 0.53641 0.98076 0.08765
 C2534 C 0.54742 0.98089 0.10618
 H2535 H 0.57088 1.00978 0.21324
 H2536 H 0.55497 1.00713 0.17947
 H2537 H 0.61169 0.98157 0.15510
 H2538 H 0.62757 0.98424 0.18907
 H2539 H 0.55423 0.99423 0.14507
 H2540 H 0.59663 0.98885 0.12505
 H2541 H 0.59344 0.99921 0.08799
 H2542 H 0.57429 0.99902 0.05560
 H2543 H 0.52051 0.97552 0.08789
 H2544 H 0.53976 0.97535 0.12003
 C2545 C 0.37501 0.49466 0.19312
 C2546 C 0.38167 0.49590 0.17257
 C2547 C 0.39970 0.50681 0.16729
 C2548 C 0.41028 0.51750 0.18282
 C2549 C 0.40368 0.51617 0.20330
 C2550 C 0.38628 0.50431 0.20879
 C2551 C 0.40712 0.50672 0.14560
 C2552 C 0.42720 0.50881 0.14068
 C2553 C 0.43571 0.50841 0.11941
 C2554 C 0.45588 0.51579 0.11632
 C2555 C 0.46517 0.51510 0.09691
 C2556 C 0.45458 0.50683 0.08000
 C2557 C 0.43430 0.49951 0.08298
 C2558 C 0.42495 0.50025 0.10249
 H2559 H 0.36142 0.48564 0.19671
 H2560 H 0.37304 0.48784 0.16085
 H2561 H 0.42360 0.52700 0.17926
 H2562 H 0.41224 0.52453 0.21486
 H2563 H 0.39579 0.50414 0.13369
 H2564 H 0.43832 0.51085 0.15292
 H2565 H 0.46457 0.52209 0.12905
 H2566 H 0.48080 0.52090 0.09526
 H2567 H 0.42572 0.49299 0.07031
 H2568 H 0.40956 0.49398 0.10423
 C2569 C -0.12115 0.00404 0.68699
 C2570 C -0.11357 0.00483 0.66673
 C2571 C -0.09497 -0.00509 0.66155
 C2572 C -0.08468 -0.01679 0.67679
 C2573 C -0.09230 -0.01767 0.69697
 C2574 C -0.11039 -0.00690 0.70243
 C2575 C -0.08667 -0.00301 0.64025
 C2576 C -0.06631 -0.00318 0.63618
 C2577 C -0.05724 -0.00059 0.61524
 C2578 C -0.03666 0.00605 0.61353
 C2579 C -0.02708 0.00791 0.59425
 C2580 C -0.03779 0.00291 0.57614
 C2581 C -0.05847 -0.00369 0.57783
 C2582 C -0.06810 -0.00543 0.59715
 H2583 H -0.13501 0.01259 0.69063
 H2584 H -0.12192 0.01375 0.65521
 H2585 H -0.07077 -0.02536 0.67317
 H2586 H -0.08395 -0.02678 0.70832
 H2587 H -0.09756 0.00013 0.62796
 H2588 H -0.05554 -0.00428 0.64891
 H2589 H -0.02789 0.00976 0.62720
 H2590 H -0.01113 0.01295 0.59360
 H2591 H -0.06717 -0.00777 0.56422
 H2592 H -0.08382 -0.01110 0.59785
 C2593 C -0.18895 0.88355 0.99906
 C2594 C -0.16939 0.89251 0.99808
 C2595 C -0.16717 0.91404 0.99664
 C2596 C -0.18504 0.92649 0.99672
 C2597 C -0.20469 0.91749 0.99762
 C2598 C -0.20694 0.89582 0.99848
 C2599 C -0.14596 0.92267 0.99600
 C2600 C -0.14138 0.94203 0.98989
 C2601 C -0.12000 0.95030 0.98962
 C2602 C -0.11551 0.96764 0.97717
 C2603 C -0.09563 0.97611 0.97679
 C2604 C -0.07981 0.96737 0.98891
 C2605 C -0.08433 0.95008 1.00143
 C2606 C -0.10420 0.94174 1.00194
 H2607 H -0.19006 0.86685 1.00022
 H2608 H -0.15592 0.88254 0.99841
 H2609 H -0.18404 0.94318 0.99653
 H2610 H -0.21783 0.92776 0.99802
 H2611 H -0.13356 0.91213 1.00000
 H2612 H -0.15347 0.95208 0.98408
 H2613 H -0.12742 0.97466 0.96769
 H2614 H -0.09266 0.98948 0.96702
 H2615 H -0.07261 0.94319 1.01123
 H2616 H -0.10710 0.92893 1.01240
 C2617 C 0.30835 0.38418 0.49662
 C2618 C 0.32739 0.39409 0.49533
 C2619 C 0.32873 0.41566 0.49651
 C2620 C 0.31040 0.42718 0.49910
 C2621 C 0.29119 0.41721 0.50031
 C2622 C 0.28990 0.39550 0.49899
 C2623 C 0.34967 0.42500 0.49600
 C2624 C 0.35366 0.44526 0.49373
 C2625 C 0.37504 0.45356 0.49380
 C2626 C 0.37926 0.47235 0.48359
 C2627 C 0.39928 0.48054 0.48341
 C2628 C 0.41550 0.47011 0.49356
 C2629 C 0.41118 0.45144 0.50401
 C2630 C 0.39120 0.44335 0.50428
 H2631 H 0.30801 0.36744 0.49592
 H2632 H 0.34120 0.38475 0.49357
 H2633 H 0.31075 0.44381 0.50068
 H2634 H 0.27763 0.42662 0.50273
 H2635 H 0.36252 0.41430 0.49698
 H2636 H 0.34119 0.45608 0.49091
 H2637 H 0.36706 0.48064 0.47560
 H2638 H 0.40204 0.49503 0.47532
 H2639 H 0.42319 0.44319 0.51231
 H2640 H 0.38849 0.42931 0.51309
 C2641 C 0.30330 0.62221 0.00723
 C2642 C 0.32322 0.61403 0.00682
 C2643 C 0.32637 0.59262 0.00608
 C2644 C 0.30899 0.57950 0.00557
 C2645 C 0.28894 0.58772 0.00604
 C2646 C 0.28582 0.60925 0.00697
 C2647 C 0.34795 0.58490 0.00504
 C2648 C 0.35351 0.56546 0.00980
 C2649 C 0.37517 0.55791 0.00903
 C2650 C 0.38013 0.53977 0.02000
 C2651 C 0.40008 0.53160 0.01929
 C2652 C 0.41563 0.54135 0.00749
 C2653 C 0.41079 0.55963 -0.00338
 C2654 C 0.39074 0.56777 -0.00275
 H2655 H 0.30149 0.63887 0.00753
 H2656 H 0.33626 0.62453 0.00699
 H2657 H 0.31070 0.56293 0.00424
 H2658 H 0.27616 0.57708 0.00517
 H2659 H 0.35975 0.59613 0.00113
 H2660 H 0.34196 0.55469 0.01544
 H2661 H 0.36847 0.53181 0.02912
 H2662 H 0.40326 0.51752 0.02793
 H2663 H 0.42235 0.56736 -0.01280
 H2664 H 0.38749 0.58143 -0.01196
 C2665 C -0.20952 0.07916 0.49319
 C2666 C -0.19118 0.06759 0.49331
 C2667 C -0.17240 0.07667 0.49899
 C2668 C -0.17232 0.09746 0.50500
 C2669 C -0.19045 0.10903 0.50477
 C2670 C -0.20960 0.10010 0.49935
 C2671 C -0.15314 0.06424 0.49874
 C2672 C -0.13457 0.07295 0.49557
 C2673 C -0.11463 0.06169 0.49606
 C2674 C -0.09715 0.07174 0.48797
 C2675 C -0.07775 0.06239 0.48883
 C2676 C -0.07531 0.04269 0.49790
 C2677 C -0.09280 0.03255 0.50604
 C2678 C -0.11228 0.04197 0.50521
 H2679 H -0.22332 0.07163 0.48774
 H2680 H -0.19159 0.05160 0.48850
 H2681 H -0.15830 0.10492 0.51007
 H2682 H -0.18948 0.12519 0.50893
 H2683 H -0.15454 0.04764 0.50047
 H2684 H -0.13378 0.08930 0.49186
 H2685 H -0.09848 0.08700 0.48098
 H2686 H -0.06465 0.07066 0.48237
 H2687 H -0.09144 0.01741 0.51323
 H2688 H -0.12523 0.03391 0.51213
 C2689 C 0.69679 0.12364 0.49838
 C2690 C 0.67645 0.11639 0.49708
 C2691 C 0.67232 0.09588 0.49166
 C2692 C 0.68907 0.08264 0.48773
 C2693 C 0.70937 0.08979 0.48907
 C2694 C 0.71378 0.11041 0.49464
 C2695 C 0.65055 0.08855 0.49141
 C2696 C 0.64425 0.07208 0.48064
 C2697 C 0.62299 0.06339 0.48165
 C2698 C 0.62001 0.04283 0.47557
 C2699 C 0.60054 0.03357 0.47707
 C2700 C 0.58347 0.04472 0.48456
 C2701 C 0.58628 0.06555 0.48999
 C2702 C 0.60578 0.07481 0.48851
 H2703 H 0.69876 0.13947 0.50300
 H2704 H 0.66383 0.12689 0.50043
 H2705 H 0.68671 0.06655 0.48402
 H2706 H 0.72147 0.07893 0.48524
 H2707 H 0.63961 0.09700 0.50075
 H2708 H 0.65527 0.06391 0.47114
 H2709 H 0.63291 0.03371 0.47004
 H2710 H 0.59896 0.01755 0.47263
 H2711 H 0.57345 0.07470 0.49560
 H2712 H 0.60716 0.09089 0.49268
 C2713 C 0.18862 0.61783 1.01361
 C2714 C 0.16884 0.60937 1.01215
 C2715 C 0.16581 0.58987 1.00340
 C2716 C 0.18317 0.57893 0.99610
 C2717 C 0.20302 0.58742 0.99759
 C2718 C 0.20598 0.60704 1.00628
 C2719 C 0.14429 0.58210 1.00160
 C2720 C 0.13931 0.56219 0.99862
 C2721 C 0.11769 0.55457 0.99720
 C2722 C 0.11418 0.53528 0.98814
 C2723 C 0.09423 0.52706 0.98713
 C2724 C 0.07726 0.53791 0.99529
 C2725 C 0.08073 0.55730 1.00425
 C2726 C 0.10069 0.56550 1.00530
 H2727 H 0.19016 0.63289 1.02049
 H2728 H 0.15580 0.61819 1.01785
 H2729 H 0.18158 0.56414 0.98866
 H2730 H 0.21593 0.57887 0.99128
 H2731 H 0.13212 0.59348 1.00301
 H2732 H 0.15144 0.55078 0.99706
 H2733 H 0.12695 0.52646 0.98188
 H2734 H 0.09218 0.51206 0.98014
 H2735 H 0.06806 0.56599 1.01089
 H2736 H 0.10265 0.58010 1.01302
 C2737 C 0.19401 0.37869 0.49623
 C2738 C 0.17390 0.38663 0.49535
 C2739 C 0.16966 0.40691 0.50158
 C2740 C 0.18591 0.41888 0.50949
 C2741 C 0.20602 0.41093 0.51041
 C2742 C 0.21043 0.39083 0.50350
 C2743 C 0.14810 0.41477 0.50011
 C2744 C 0.14338 0.43496 0.49845
 C2745 C 0.12194 0.44319 0.49728
 C2746 C 0.11859 0.46398 0.50235
 C2747 C 0.09875 0.47251 0.50176
 C2748 C 0.08169 0.46051 0.49585
 C2749 C 0.08506 0.43980 0.49029
 C2750 C 0.10496 0.43122 0.49096
 H2751 H 0.19659 0.36317 0.49080
 H2752 H 0.16165 0.37697 0.48945
 H2753 H 0.18318 0.43426 0.51533
 H2754 H 0.21805 0.42053 0.51680
 H2755 H 0.13590 0.40335 0.50009
 H2756 H 0.15572 0.44625 0.49829
 H2757 H 0.13138 0.47362 0.50708
 H2758 H 0.09680 0.48854 0.50606
 H2759 H 0.07230 0.43013 0.48558
 H2760 H 0.10690 0.41533 0.48629
 C2761 C 0.71099 0.91748 0.00336
 C2762 C 0.69155 0.92685 0.00280
 C2763 C 0.67414 0.91587 -0.00376
 C2764 C 0.67667 0.89523 -0.01004
 C2765 C 0.69619 0.88584 -0.00952
 C2766 C 0.71364 0.89688 -0.00293
 C2767 C 0.65394 0.92679 -0.00420
 C2768 C 0.63551 0.91727 -0.00418
 C2769 C 0.61555 0.92866 -0.00416
 C2770 C 0.59786 0.91888 -0.01184
 C2771 C 0.57880 0.92914 -0.01218
 C2772 C 0.57697 0.94940 -0.00469
 C2773 C 0.59461 0.95901 0.00343
 C2774 C 0.61364 0.94876 0.00378
 H2775 H 0.72386 0.92639 0.00909
 H2776 H 0.69007 0.94274 0.00775
 H2777 H 0.66380 0.88634 -0.01574
 H2778 H 0.69754 0.87004 -0.01460
 H2779 H 0.65451 0.94352 -0.00423
 H2780 H 0.63476 0.90056 -0.00442
 H2781 H 0.59884 0.90332 -0.01781
 H2782 H 0.56552 0.92120 -0.01842
 H2783 H 0.59374 0.97448 0.00962
 H2784 H 0.62665 0.95657 0.01063
 C2785 C -0.00422 0.80953 0.87862
 C2786 C -0.00516 0.82948 0.88646
 C2787 C -0.00168 0.83301 0.90743
 C2788 C 0.00313 0.81607 0.92040
 C2789 C 0.00413 0.79599 0.91251
 C2790 C 0.00035 0.79242 0.89146
 C2791 C -0.00235 0.85465 0.91474
 C2792 C -0.00547 0.85992 0.93446
 C2793 C -0.00608 0.88171 0.94142
 C2794 C -0.01619 0.88631 0.96000
 C2795 C -0.01648 0.90651 0.96747
 C2796 C -0.00652 0.92260 0.95655
 C2797 C 0.00348 0.91803 0.93786
 C2798 C 0.00381 0.89783 0.93044
 H2799 H -0.00704 0.80740 0.86231
 H2800 H -0.00868 0.84224 0.87606
 H2801 H 0.00660 0.81824 0.93654
 H2802 H 0.00807 0.78357 0.92303
 H2803 H -0.00120 0.86669 0.90306
 H2804 H -0.00858 0.84798 0.94589
 H2805 H -0.02381 0.87419 0.96884
 H2806 H -0.02427 0.90944 0.98197
 H2807 H 0.01153 0.92996 0.92918
 H2808 H 0.01238 0.89490 0.91642
 C2809 C 0.49669 0.29335 0.42217
 C2810 C 0.49585 0.31205 0.43283
 C2811 C 0.49203 0.33076 0.42234
 C2812 C 0.48861 0.33039 0.40096
 C2813 C 0.48962 0.31183 0.39031
 C2814 C 0.49354 0.29299 0.40068
 C2815 C 0.49121 0.35027 0.43412
 C2816 C 0.49462 0.36886 0.42534
 C2817 C 0.49382 0.38868 0.43655
 C2818 C 0.50323 0.40605 0.42742
 C2819 C 0.50280 0.42516 0.43718
 C2820 C 0.49282 0.42738 0.45632
 C2821 C 0.48306 0.41007 0.46534
 C2822 C 0.48346 0.39092 0.45553
 H2823 H 0.49993 0.27948 0.43096
 H2824 H 0.49838 0.31191 0.44935
 H2825 H 0.48482 0.34428 0.39232
 H2826 H 0.48709 0.31214 0.37380
 H2827 H 0.48864 0.34902 0.45058
 H2828 H 0.49914 0.36975 0.40927
 H2829 H 0.51112 0.40481 0.41271
 H2830 H 0.51045 0.43816 0.42975
 H2831 H 0.47508 0.41128 0.47999
 H2832 H 0.47540 0.37811 0.46277
 C2833 C -0.00507 0.28997 0.59182
 C2834 C -0.00691 0.30799 0.57993
 C2835 C 0.00923 0.32237 0.57915
 C2836 C 0.02755 0.31813 0.58998
 C2837 C 0.02933 0.30021 0.60206
 C2838 C 0.01266 0.28628 0.60389
 C2839 C 0.00589 0.34230 0.56833
 C2840 C 0.02129 0.35362 0.56028
 C2841 C 0.01770 0.37436 0.55130
 C2842 C 0.02981 0.38107 0.53457
 C2843 C 0.02684 0.40077 0.52601
 C2844 C 0.01204 0.41426 0.53440
 C2845 C 0.00023 0.40767 0.55145
 C2846 C 0.00297 0.38787 0.55978
 H2847 H -0.01785 0.27917 0.59211
 H2848 H -0.02111 0.31085 0.57154
 H2849 H 0.04029 0.32896 0.58981
 H2850 H 0.04378 0.29766 0.60991
 H2851 H -0.00990 0.34774 0.56688
 H2852 H 0.03683 0.34740 0.55970
 H2853 H 0.04142 0.37098 0.52800
 H2854 H 0.03633 0.40554 0.51300
 H2855 H -0.01123 0.41777 0.55826
 H2856 H -0.00617 0.38331 0.57309
 C2857 C 0.49677 0.80602 0.12170
 C2858 C 0.49662 0.82542 0.11218
 C2859 C 0.49590 0.82725 0.09067
 C2860 C 0.49473 0.80916 0.07882
 C2861 C 0.49488 0.78963 0.08839
 C2862 C 0.49606 0.78780 0.11002
 C2863 C 0.49599 0.84832 0.08149
 C2864 C 0.50153 0.85253 0.06195
 C2865 C 0.50224 0.87382 0.05322
 C2866 C 0.51392 0.87744 0.03527
 C2867 C 0.51468 0.89714 0.02624
 C2868 C 0.50373 0.91369 0.03501
 C2869 C 0.49213 0.91013 0.05303
 C2870 C 0.49121 0.89040 0.06195
 H2871 H 0.49763 0.80519 0.13838
 H2872 H 0.49734 0.83906 0.12171
 H2873 H 0.49346 0.80994 0.06220
 H2874 H 0.49413 0.77625 0.07864
 H2875 H 0.49254 0.86089 0.09181
 H2876 H 0.50677 0.84014 0.05214
 H2877 H 0.52246 0.86496 0.02815
 H2878 H 0.52374 0.89938 0.01231
 H2879 H 0.48323 0.92247 0.05995
 H2880 H 0.48140 0.88825 0.07532
 C2881 C 0.50751 0.69207 0.12253
 C2882 C 0.50652 0.67201 0.11471
 C2883 C 0.49416 0.66764 0.09754
 C2884 C 0.48233 0.68372 0.08867
 C2885 C 0.48335 0.70376 0.09648
 C2886 C 0.49605 0.70818 0.11341
 C2887 C 0.49374 0.64615 0.08965
 C2888 C 0.48886 0.64154 0.07011
 C2889 C 0.48882 0.62030 0.06150
 C2890 C 0.47970 0.61738 0.04213
 C2891 C 0.47994 0.59800 0.03280
 C2892 C 0.48942 0.58097 0.04260
 C2893 C 0.49837 0.58376 0.06211
 C2894 C 0.49815 0.60319 0.07145
 H2895 H 0.51756 0.69500 0.13549
 H2896 H 0.51567 0.65991 0.12194
 H2897 H 0.47195 0.68090 0.07598
 H2898 H 0.47388 0.71572 0.08947
 H2899 H 0.49818 0.63400 0.10034
 H2900 H 0.48485 0.65396 0.05952
 H2901 H 0.47244 0.63022 0.03406
 H2902 H 0.47288 0.59647 0.01778
 H2903 H 0.50591 0.57102 0.07006
 H2904 H 0.50577 0.60464 0.08615
 C2905 C 0.02026 0.19149 0.62105
 C2906 C 0.01819 0.17161 0.61303
 C2907 C 0.00825 0.16855 0.59410
 C2908 C -0.00007 0.18579 0.58358
 C2909 C 0.00210 0.20563 0.59154
 C2910 C 0.01245 0.20875 0.61028
 C2911 C 0.00643 0.14721 0.58612
 C2912 C 0.00376 0.14305 0.56607
 C2913 C 0.00219 0.12189 0.55763
 C2914 C -0.00630 0.11956 0.53790
 C2915 C -0.00725 0.10013 0.52877
 C2916 C 0.00042 0.08252 0.53913
 C2917 C 0.00875 0.08479 0.55899
 C2918 C 0.00970 0.10425 0.56813
 H2919 H 0.02814 0.19329 0.63558
 H2920 H 0.02451 0.15858 0.62158
 H2921 H -0.00869 0.18410 0.56945
 H2922 H -0.00486 0.21846 0.58323
 H2923 H 0.00773 0.13470 0.59725
 H2924 H 0.00268 0.15567 0.55502
 H2925 H -0.01211 0.13288 0.52943
 H2926 H -0.01374 0.09899 0.51345
 H2927 H 0.01496 0.07159 0.56735
 H2928 H 0.01690 0.10535 0.58309
 C2929 C 0.51580 0.21106 0.40963
 C2930 C 0.51981 0.19104 0.41684
 C2931 C 0.51023 0.17393 0.40784
 C2932 C 0.49705 0.17725 0.39086
 C2933 C 0.49311 0.19734 0.38357
 C2934 C 0.50216 0.21448 0.39310
 C2935 C 0.51440 0.15315 0.41688
 C2936 C 0.50191 0.13676 0.41470
 C2937 C 0.50500 0.11686 0.42594
 C2938 C 0.49599 0.09884 0.41814
 C2939 C 0.49727 0.08010 0.42906
 C2940 C 0.50741 0.07902 0.44821
 C2941 C 0.51667 0.09701 0.45588
 C2942 C 0.51543 0.11572 0.44495
 H2943 H 0.52354 0.22386 0.41695
 H2944 H 0.53023 0.18895 0.42975
 H2945 H 0.48984 0.16448 0.38304
 H2946 H 0.48268 0.19944 0.37071
 H2947 H 0.52791 0.15174 0.42659
 H2948 H 0.48853 0.13787 0.40479
 H2949 H 0.48772 0.09933 0.40364
 H2950 H 0.48988 0.06658 0.42271
 H2951 H 0.52450 0.09681 0.47062
 H2952 H 0.52199 0.12932 0.45192
 C2953 C 0.02106 0.71106 0.91265
 C2954 C 0.02246 0.69206 0.92309
 C2955 C 0.01159 0.67472 0.91614
 C2956 C -0.00082 0.67685 0.89842
 C2957 C -0.00224 0.69588 0.88798
 C2958 C 0.00855 0.71324 0.89506
 C2959 C 0.01266 0.65517 0.92844
 C2960 C 0.00870 0.63643 0.92062
 C2961 C 0.00849 0.61668 0.93274
 C2962 C 0.00108 0.59887 0.92302
 C2963 C -0.00017 0.58000 0.93365
 C2964 C 0.00604 0.57832 0.95437
 C2965 C 0.01388 0.59600 0.96406
 C2966 C 0.01513 0.61496 0.95340
 H2967 H 0.02977 0.72406 0.91838
 H2968 H 0.03205 0.69093 0.93673
 H2969 H -0.01005 0.66413 0.89292
 H2970 H -0.01240 0.69713 0.87479
 H2971 H 0.01696 0.65661 0.94444
 H2972 H 0.00509 0.63532 0.90438
 H2973 H -0.00405 0.59960 0.90714
 H2974 H -0.00620 0.56673 0.92559
 H2975 H 0.01893 0.59526 0.97996
 H2976 H 0.02132 0.62803 0.96154
 C2977 C 0.24125 0.64332 0.94694
 C2978 C 0.23692 0.65340 0.92839
 C2979 C 0.22821 0.67336 0.92821
 C2980 C 0.22378 0.68286 0.94714
 C2981 C 0.22809 0.67263 0.96585
 C2982 C 0.23729 0.65296 0.96583
 C2983 C 0.22558 0.68510 0.90860
 C2984 C 0.22299 0.67562 0.89048
 C2985 C 0.22543 0.68595 0.87015
 C2986 C 0.23190 0.67384 0.85350
 C2987 C 0.23574 0.68283 0.83423
 C2988 C 0.23285 0.70417 0.83104
 C2989 C 0.22572 0.71627 0.84751
 C2990 C 0.22212 0.70727 0.86695
 H2991 H 0.24810 0.62803 0.94648
 H2992 H 0.24129 0.64576 0.91427
 H2993 H 0.21731 0.69832 0.94742
 H2994 H 0.22497 0.68038 0.98026
 H2995 H 0.22726 0.70174 0.90912
 H2996 H 0.22086 0.65901 0.89033
 H2997 H 0.23447 0.65737 0.85553
 H2998 H 0.24094 0.67302 0.82180
 H2999 H 0.22319 0.73273 0.84546
 H3000 H 0.21667 0.71700 0.87931
 C3001 C 0.77027 0.15967 0.44977
 C3002 C 0.76778 0.16888 0.43042
 C3003 C 0.74806 0.17290 0.42248
 C3004 C 0.73073 0.16855 0.43506
 C3005 C 0.73323 0.15943 0.45472
 C3006 C 0.75307 0.15399 0.46200
 C3007 C 0.74682 0.18053 0.40074
 C3008 C 0.72961 0.18697 0.39109
 C3009 C 0.72997 0.19433 0.36925
 C3010 C 0.71637 0.21009 0.36302
 C3011 C 0.71718 0.21818 0.34291
 C3012 C 0.73141 0.21042 0.32840
 C3013 C 0.74435 0.19393 0.33437
 C3014 C 0.74366 0.18599 0.35456
 H3015 H 0.78591 0.15694 0.45504
 H3016 H 0.78147 0.17242 0.42137
 H3017 H 0.71520 0.17136 0.42961
 H3018 H 0.71947 0.15530 0.46336
 H3019 H 0.76127 0.18112 0.39224
 H3020 H 0.71519 0.18813 0.39947
 H3021 H 0.70549 0.21660 0.37392
 H3022 H 0.70681 0.23073 0.33881
 H3023 H 0.75538 0.18749 0.32359
 H3024 H 0.75388 0.17332 0.35861
 C3025 C 0.22743 0.34428 0.45655
 C3026 C 0.22501 0.33366 0.43802
 C3027 C 0.24041 0.31999 0.43109
 C3028 C 0.25744 0.31582 0.44397
 C3029 C 0.25989 0.32654 0.46237
 C3030 C 0.24521 0.34123 0.46848
 C3031 C 0.23866 0.31134 0.41005
 C3032 C 0.25504 0.30481 0.39909
 C3033 C 0.25365 0.29787 0.37746
 C3034 C 0.26809 0.28341 0.37028
 C3035 C 0.26750 0.27667 0.34989
 C3036 C 0.25267 0.28460 0.33611
 C3037 C 0.23857 0.29956 0.34314
 C3038 C 0.23901 0.30610 0.36362
 H3039 H 0.21616 0.35588 0.46078
 H3040 H 0.21164 0.33700 0.42852
 H3041 H 0.26920 0.30473 0.43975
 H3042 H 0.27371 0.32400 0.47146
 H3043 H 0.22352 0.31150 0.40298
 H3044 H 0.27024 0.30452 0.40595
 H3045 H 0.27972 0.27709 0.38058
 H3046 H 0.27865 0.26522 0.34493
 H3047 H 0.22696 0.30598 0.33290
 H3048 H 0.22810 0.31781 0.36844
 C3049 C 0.73037 0.84499 0.95564
 C3050 C 0.72844 0.83416 0.93717
 C3051 C 0.74385 0.82017 0.93095
 C3052 C 0.76030 0.81585 0.94451
 C3053 C 0.76229 0.82678 0.96284
 C3054 C 0.74771 0.84190 0.96821
 C3055 C 0.74275 0.81138 0.90991
 C3056 C 0.75933 0.80415 0.89971
 C3057 C 0.75856 0.79703 0.87811
 C3058 C 0.77241 0.78161 0.87177
 C3059 C 0.77220 0.77452 0.85149
 C3060 C 0.75842 0.78305 0.83699
 C3061 C 0.74505 0.79903 0.84314
 C3062 C 0.74506 0.80590 0.86352
 H3063 H 0.71916 0.85684 0.95928
 H3064 H 0.71547 0.83761 0.92717
 H3065 H 0.77201 0.80450 0.94087
 H3066 H 0.77574 0.82412 0.97244
 H3067 H 0.72795 0.81198 0.90216
 H3068 H 0.77421 0.80332 0.90721
 H3069 H 0.78318 0.77478 0.88266
 H3070 H 0.78277 0.76227 0.84719
 H3071 H 0.73424 0.80590 0.83233
 H3072 H 0.73467 0.81832 0.86773
 C3073 C 0.74504 0.86507 0.05935
 C3074 C 0.74050 0.85594 0.07840
 C3075 C 0.73540 0.83489 0.07985
 C3076 C 0.73373 0.82337 0.06159
 C3077 C 0.73795 0.83269 0.04237
 C3078 C 0.74419 0.85345 0.04124
 C3079 C 0.73270 0.82581 0.10077
 C3080 C 0.73636 0.80591 0.10562
 C3081 C 0.73758 0.79849 0.12735
 C3082 C 0.73298 0.77778 0.13222
 C3083 C 0.73482 0.77034 0.15254
 C3084 C 0.74165 0.78342 0.16833
 C3085 C 0.74649 0.80408 0.16332
 C3086 C 0.74456 0.81149 0.14313
 H3087 H 0.74951 0.88121 0.05878
 H3088 H 0.74171 0.86522 0.09216
 H3089 H 0.72930 0.80724 0.06209
 H3090 H 0.73709 0.82353 0.02851
 H3091 H 0.72927 0.83654 0.11303
 H3092 H 0.73941 0.79482 0.09360
 H3093 H 0.72789 0.76737 0.12030
 H3094 H 0.73106 0.75431 0.15582
 H3095 H 0.75193 0.81460 0.17499
 H3096 H 0.74910 0.82731 0.13990
 C3097 C 0.26831 0.33294 0.54824
 C3098 C 0.26735 0.32218 0.56695
 C3099 C 0.24882 0.32104 0.57817
 C3100 C 0.23085 0.33009 0.56970
 C3101 C 0.23184 0.34094 0.55082
 C3102 C 0.25076 0.34301 0.54031
 C3103 C 0.24972 0.31228 0.59938
 C3104 C 0.23342 0.30558 0.61039
 C3105 C 0.23594 0.29832 0.63202
 C3106 C 0.22455 0.28135 0.63948
 C3107 C 0.22768 0.27378 0.65959
 C3108 C 0.24198 0.28336 0.67273
 C3109 C 0.25272 0.30088 0.66542
 C3110 C 0.24976 0.30825 0.64534
 H3111 H 0.28302 0.33395 0.54026
 H3112 H 0.28138 0.31528 0.57302
 H3113 H 0.21635 0.32978 0.57805
 H3114 H 0.21812 0.34868 0.54506
 H3115 H 0.26493 0.31119 0.60629
 H3116 H 0.21831 0.30455 0.60336
 H3117 H 0.21363 0.27361 0.62956
 H3118 H 0.21899 0.26039 0.66481
 H3119 H 0.26372 0.30877 0.67512
 H3120 H 0.25830 0.32178 0.64026
 C3121 C 0.73017 0.16145 0.53832
 C3122 C 0.72683 0.17198 0.55696
 C3123 C 0.74332 0.17590 0.57046
 C3124 C 0.76321 0.16937 0.56480
 C3125 C 0.76649 0.15877 0.54654
 C3126 C 0.75001 0.15392 0.53323
 C3127 C 0.73964 0.18543 0.59096
 C3128 C 0.75425 0.19673 0.60028
 C3129 C 0.75327 0.20420 0.62185
 C3130 C 0.76655 0.22033 0.62740
 C3131 C 0.76774 0.22687 0.64779
 C3132 C 0.75584 0.21728 0.66338
 C3133 C 0.74249 0.20108 0.65790
 C3134 C 0.74117 0.19460 0.63732
 H3135 H 0.71696 0.15815 0.52876
 H3136 H 0.71130 0.17678 0.56099
 H3137 H 0.77632 0.17170 0.57483
 H3138 H 0.78226 0.15441 0.54297
 H3139 H 0.72489 0.18282 0.59847
 H3140 H 0.76803 0.20085 0.59162
 H3141 H 0.77623 0.22783 0.61589
 H3142 H 0.77824 0.23935 0.65136
 H3143 H 0.73306 0.19339 0.66950
 H3144 H 0.73115 0.18176 0.63372
 C3145 C 0.22109 0.65465 0.05245
 C3146 C 0.21837 0.66466 0.07130
 C3147 C 0.23254 0.67971 0.07769
 C3148 C 0.24839 0.68590 0.06402
 C3149 C 0.25117 0.67580 0.04531
 C3150 C 0.23791 0.65972 0.03968
 C3151 C 0.23105 0.68778 0.09898
 C3152 C 0.24767 0.69435 0.10934
 C3153 C 0.24714 0.70154 0.13091
 C3154 C 0.26243 0.71542 0.13722
 C3155 C 0.26296 0.72240 0.15747
 C3156 C 0.24837 0.71537 0.17206
 C3157 C 0.23330 0.70107 0.16593
 C3158 C 0.23262 0.69426 0.14550
 H3159 H 0.21099 0.64196 0.04860
 H3160 H 0.20591 0.65977 0.08143
 H3161 H 0.25905 0.69812 0.06792
 H3162 H 0.26422 0.67992 0.03558
 H3163 H 0.21612 0.68721 0.10658
 H3164 H 0.26262 0.69465 0.10179
 H3165 H 0.27394 0.72105 0.12635
 H3166 H 0.27488 0.73328 0.16173
 H3167 H 0.22189 0.69535 0.17684
 H3168 H 0.22100 0.68306 0.14132
 C3169 C 0.15406 0.53868 0.72367
 C3170 C 0.16608 0.55653 0.72100
 C3171 C 0.18101 0.56189 0.73571
 C3172 C 0.18512 0.54794 0.75203
 C3173 C 0.17300 0.53027 0.75478
 C3174 C 0.15692 0.52594 0.74105
 C3175 C 0.19078 0.58265 0.73435
 C3176 C 0.19823 0.59250 0.75089
 C3177 C 0.20553 0.61422 0.75046
 C3178 C 0.21971 0.62054 0.76546
 C3179 C 0.22621 0.64112 0.76631
 C3180 C 0.21838 0.65596 0.75237
 C3181 C 0.20397 0.64969 0.73750
 C3182 C 0.19763 0.62905 0.73652
 H3183 H 0.14152 0.53577 0.71309
 H3184 H 0.16278 0.56684 0.70813
 H3185 H 0.19714 0.55089 0.76316
 H3186 H 0.17543 0.52052 0.76826
 H3187 H 0.19039 0.59058 0.71956
 H3188 H 0.19863 0.58471 0.76573
 H3189 H 0.22580 0.60948 0.77656
 H3190 H 0.23726 0.64543 0.77802
 H3191 H 0.19762 0.66073 0.72652
 H3192 H 0.18616 0.62492 0.72518
 C3193 C 0.63046 0.05688 0.25043
 C3194 C 0.63933 0.07641 0.24885
 C3195 C 0.65820 0.07928 0.23869
 C3196 C 0.66767 0.06223 0.22915
 C3197 C 0.65840 0.04253 0.23017
 C3198 C 0.63991 0.03944 0.24142
 C3199 C 0.66680 0.10050 0.23801
 C3200 C 0.68699 0.10488 0.23966
 C3201 C 0.69455 0.12649 0.24191
 C3202 C 0.71287 0.13025 0.25284
 C3203 C 0.71992 0.15053 0.25576
 C3204 C 0.70884 0.16752 0.24767
 C3205 C 0.69066 0.16366 0.23649
 C3206 C 0.68369 0.14347 0.23354
 H3207 H 0.61572 0.05574 0.25829
 H3208 H 0.63149 0.08937 0.25593
 H3209 H 0.68209 0.06415 0.22082
 H3210 H 0.66630 0.02967 0.22305
 H3211 H 0.65566 0.11300 0.23862
 H3212 H 0.69800 0.09231 0.24125
 H3213 H 0.72163 0.11747 0.25934
 H3214 H 0.73410 0.15288 0.26424
 H3215 H 0.68186 0.17625 0.22969
 H3216 H 0.66992 0.14127 0.22440
 C3217 C 0.83490 0.03477 0.72103
 C3218 C 0.82352 0.05293 0.71714
 C3219 C 0.82262 0.06866 0.73182
 C3220 C 0.83199 0.06528 0.75102
 C3221 C 0.84323 0.04728 0.75497
 C3222 C 0.84572 0.03191 0.73979
 C3223 C 0.81205 0.08858 0.72715
 C3224 C 0.81974 0.10647 0.73408
 C3225 C 0.81009 0.12717 0.73147
 C3226 C 0.82255 0.14452 0.73483
 C3227 C 0.81404 0.16432 0.73525
 C3228 C 0.79270 0.16738 0.73246
 C3229 C 0.78023 0.15012 0.72820
 C3230 C 0.78884 0.13014 0.72775
 H3231 H 0.83561 0.02362 0.70882
 H3232 H 0.81600 0.05500 0.70235
 H3233 H 0.83062 0.07661 0.76314
 H3234 H 0.84959 0.04558 0.77027
 H3235 H 0.79855 0.08851 0.71734
 H3236 H 0.83439 0.10607 0.74216
 H3237 H 0.83896 0.14271 0.73771
 H3238 H 0.82421 0.17722 0.73832
 H3239 H 0.76374 0.15195 0.72602
 H3240 H 0.77868 0.11710 0.72542
 C3241 C 0.33098 0.54265 0.26994
 C3242 C 0.31991 0.56114 0.26907
 C3243 C 0.31769 0.57200 0.25036
 C3244 C 0.32584 0.56331 0.23220
 C3245 C 0.33694 0.54467 0.23310
 C3246 C 0.34020 0.53462 0.25211
 C3247 C 0.30887 0.59315 0.25111
 C3248 C 0.30189 0.60387 0.23475
 C3249 C 0.29484 0.62556 0.23675
 C3250 C 0.27800 0.63273 0.22512
 C3251 C 0.27073 0.65299 0.22745
 C3252 C 0.28049 0.66658 0.24115
 C3253 C 0.29784 0.65957 0.25219
 C3254 C 0.30491 0.63929 0.25005
 H3255 H 0.33306 0.53503 0.28476
 H3256 H 0.31373 0.56740 0.28325
 H3257 H 0.32474 0.57136 0.21753
 H3258 H 0.34409 0.53886 0.21918
 H3259 H 0.30815 0.60030 0.26614
 H3260 H 0.30052 0.59657 0.21987
 H3261 H 0.27018 0.62250 0.21458
 H3262 H 0.25745 0.65799 0.21855
 H3263 H 0.30580 0.66966 0.26276
 H3264 H 0.31836 0.63441 0.25874
 C3265 C 0.33792 0.45458 0.23039
 C3266 C 0.32648 0.43627 0.22889
 C3267 C 0.31942 0.42587 0.24672
 C3268 C 0.32350 0.43454 0.26610
 C3269 C 0.33490 0.45273 0.26755
 C3270 C 0.34275 0.46261 0.24978
 C3271 C 0.30971 0.40520 0.24476
 C3272 C 0.29827 0.39632 0.25973
 C3273 C 0.29079 0.37469 0.25899
 C3274 C 0.27370 0.36899 0.27115
 C3275 C 0.26663 0.34857 0.27151
 C3276 C 0.27668 0.33330 0.25986
 C3277 C 0.29405 0.33894 0.24797
 C3278 C 0.30106 0.35939 0.24755
 H3279 H 0.34383 0.46179 0.21648
 H3280 H 0.32365 0.42988 0.21378
 H3281 H 0.31886 0.42691 0.28029
 H3282 H 0.33816 0.45874 0.28273
 H3283 H 0.31235 0.39701 0.23051
 H3284 H 0.29385 0.40520 0.27309
 H3285 H 0.26571 0.38041 0.28035
 H3286 H 0.25324 0.34479 0.28089
 H3287 H 0.30222 0.32758 0.23887
 H3288 H 0.31474 0.36300 0.23858
 C3289 C 0.82821 0.95739 0.76261
 C3290 C 0.81640 0.93936 0.76365
 C3291 C 0.81767 0.92467 0.74794
 C3292 C 0.82968 0.92920 0.73027
 C3293 C 0.84128 0.94749 0.72910
 C3294 C 0.84113 0.96131 0.74560
 C3295 C 0.80689 0.90464 0.75103
 C3296 C 0.81420 0.88670 0.74369
 C3297 C 0.80510 0.86607 0.74858
 C3298 C 0.81677 0.84829 0.74417
 C3299 C 0.80877 0.82851 0.74800
 C3300 C 0.78885 0.82600 0.75639
 C3301 C 0.77727 0.84378 0.76112
 C3302 C 0.78520 0.86355 0.75715
 H3303 H 0.82796 0.96789 0.77552
 H3304 H 0.80710 0.93638 0.77729
 H3305 H 0.83048 0.91847 0.71759
 H3306 H 0.85127 0.95025 0.71590
 H3307 H 0.79385 0.90462 0.76150
 H3308 H 0.82832 0.88691 0.73466
 H3309 H 0.83212 0.84969 0.73756
 H3310 H 0.81810 0.81519 0.74406
 H3311 H 0.76174 0.84245 0.76729
 H3312 H 0.77536 0.87664 0.76037
 C3313 C 0.67303 0.96520 0.24650
 C3314 C 0.68484 0.94724 0.24395
 C3315 C 0.67761 0.93105 0.23164
 C3316 C 0.65916 0.93393 0.22049
 C3317 C 0.64751 0.95205 0.22281
 C3318 C 0.65410 0.96752 0.23627
 C3319 C 0.68908 0.91112 0.23155
 C3320 C 0.67946 0.89274 0.23055
 C3321 C 0.69018 0.87250 0.23306
 C3322 C 0.67888 0.85542 0.24049
 C3323 C 0.68840 0.83615 0.24342
 C3324 C 0.70945 0.83340 0.23868
 C3325 C 0.72067 0.85042 0.23081
 C3326 C 0.71118 0.86974 0.22806
 H3327 H 0.67812 0.97683 0.25726
 H3328 H 0.69907 0.94547 0.25257
 H3329 H 0.65342 0.92198 0.21046
 H3330 H 0.63273 0.95342 0.21510
 H3331 H 0.70550 0.91163 0.23465
 H3332 H 0.66274 0.89243 0.22957
 H3333 H 0.66264 0.85706 0.24431
 H3334 H 0.67922 0.82339 0.24935
 H3335 H 0.73688 0.84886 0.22688
 H3336 H 0.72028 0.88236 0.22177
 C3337 C 0.13149 0.43564 0.75038
 C3338 C 0.14075 0.41637 0.74770
 C3339 C 0.16083 0.41482 0.73967
 C3340 C 0.17113 0.43304 0.73333
 C3341 C 0.16173 0.45241 0.73588
 C3342 C 0.14203 0.45387 0.74487
 C3343 C 0.17032 0.39394 0.73861
 C3344 C 0.19076 0.39048 0.73844
 C3345 C 0.19988 0.36944 0.73992
 C3346 C 0.21977 0.36611 0.73195
 C3347 C 0.22927 0.34675 0.73390
 C3348 C 0.21917 0.33031 0.74415
 C3349 C 0.19926 0.33367 0.75220
 C3350 C 0.18972 0.35301 0.75016
 H3351 H 0.11606 0.43628 0.75689
 H3352 H 0.13235 0.40261 0.75244
 H3353 H 0.18637 0.43248 0.72646
 H3354 H 0.17011 0.46625 0.73139
 H3355 H 0.15986 0.38089 0.73919
 H3356 H 0.20140 0.40336 0.73757
 H3357 H 0.22802 0.37856 0.72421
 H3358 H 0.24466 0.34477 0.72758
 H3359 H 0.19107 0.32141 0.76029
 H3360 H 0.17468 0.35512 0.75717
 C3361 C 0.04042 0.76459 0.82482
 C3362 C 0.05788 0.76243 0.81236
 C3363 C 0.06944 0.74405 0.81273
 C3364 C 0.06241 0.72733 0.82500
 C3365 C 0.04480 0.72951 0.83750
 C3366 C 0.03413 0.74843 0.83805
 C3367 C 0.08986 0.74414 0.80227
 C3368 C 0.10100 0.72725 0.79784
 C3369 C 0.12258 0.72895 0.79026
 C3370 C 0.13035 0.71470 0.77599
 C3371 C 0.15085 0.71614 0.76898
 C3372 C 0.16405 0.73157 0.77655
 C3373 C 0.15628 0.74557 0.79109
 C3374 C 0.13583 0.74431 0.79784
 H3375 H 0.03226 0.77924 0.82470
 H3376 H 0.06288 0.77552 0.80304
 H3377 H 0.07106 0.71302 0.82598
 H3378 H 0.04036 0.71688 0.84770
 H3379 H 0.09630 0.75919 0.79845
 H3380 H 0.09435 0.71198 0.79962
 H3381 H 0.12050 0.70258 0.77014
 H3382 H 0.15645 0.70501 0.75791
 H3383 H 0.16603 0.75760 0.79729
 H3384 H 0.13052 0.75514 0.80933
 C3385 C 0.53750 0.27227 0.33354
 C3386 C 0.55570 0.27044 0.32213
 C3387 C 0.56579 0.25130 0.32056
 C3388 C 0.55670 0.23371 0.32984
 C3389 C 0.53840 0.23557 0.34131
 C3390 C 0.52903 0.25500 0.34379
 C3391 C 0.58671 0.25103 0.31120
 C3392 C 0.59646 0.23406 0.30450
 C3393 C 0.61813 0.23507 0.29712
 C3394 C 0.62452 0.22307 0.28037
 C3395 C 0.64477 0.22466 0.27276
 C3396 C 0.65908 0.23798 0.28210
 C3397 C 0.65281 0.24930 0.29942
 C3398 C 0.63259 0.24789 0.30682
 H3399 H 0.53041 0.28739 0.33495
 H3400 H 0.56232 0.28421 0.31510
 H3401 H 0.56421 0.21876 0.32929
 H3402 H 0.53231 0.22205 0.34926
 H3403 H 0.59457 0.26580 0.30986
 H3404 H 0.58842 0.21943 0.30372
 H3405 H 0.61370 0.21287 0.27285
 H3406 H 0.64917 0.21557 0.25951
 H3407 H 0.66343 0.25960 0.30709
 H3408 H 0.62830 0.25684 0.32020
 C3409 C 0.53528 0.73810 0.17952
 C3410 C 0.55305 0.73713 0.19186
 C3411 C 0.57260 0.74162 0.18340
 C3412 C 0.57405 0.74694 0.16234
 C3413 C 0.55643 0.74797 0.15015
 C3414 C 0.53686 0.74400 0.15868
 C3415 C 0.59115 0.74208 0.19678
 C3416 C 0.61004 0.73809 0.18922
 C3417 C 0.62973 0.74090 0.20044
 C3418 C 0.64754 0.73215 0.19181
 C3419 C 0.66687 0.73563 0.20039
 C3420 C 0.66904 0.74807 0.21792
 C3421 C 0.65119 0.75672 0.22682
 C3422 C 0.63167 0.75323 0.21812
 H3423 H 0.52029 0.73519 0.18644
 H3424 H 0.55152 0.73317 0.20808
 H3425 H 0.58867 0.75118 0.15533
 H3426 H 0.55805 0.75248 0.13408
 H3427 H 0.58910 0.74585 0.21288
 H3428 H 0.61134 0.73241 0.17361
 H3429 H 0.64655 0.72272 0.17813
 H3430 H 0.68018 0.72855 0.19312
 H3431 H 0.65232 0.76636 0.24032
 H3432 H 0.61835 0.76064 0.22496
 C3433 C 0.05508 0.22624 0.66475
 C3434 C 0.07295 0.22381 0.67665
 C3435 C 0.08155 0.24070 0.68705
 C3436 C 0.07115 0.25985 0.68621
 C3437 C 0.05333 0.26222 0.67436
 C3438 C 0.04557 0.24566 0.66290
 C3439 C 0.10235 0.23831 0.69648
 C3440 C 0.11100 0.25233 0.70891
 C3441 C 0.13295 0.25150 0.71543
 C3442 C 0.13893 0.26241 0.73302
 C3443 C 0.15965 0.26297 0.73904
 C3444 C 0.17493 0.25278 0.72745
 C3445 C 0.16896 0.24203 0.70971
 C3446 C 0.14823 0.24143 0.70372
 H3447 H 0.04955 0.21327 0.65598
 H3448 H 0.08061 0.20889 0.67698
 H3449 H 0.07717 0.27343 0.69364
 H3450 H 0.04611 0.27733 0.67343
 H3451 H 0.11107 0.22464 0.69240
 H3452 H 0.10187 0.26505 0.71466
 H3453 H 0.12752 0.27056 0.74214
 H3454 H 0.16368 0.27146 0.75276
 H3455 H 0.18031 0.23411 0.70033
 H3456 H 0.14442 0.23352 0.68963
 C3457 C 0.97093 0.23647 0.67327
 C3458 C 0.95156 0.23230 0.68212
 C3459 C 0.93360 0.23242 0.66992
 C3460 C 0.93561 0.23538 0.64847
 C3461 C 0.95482 0.23983 0.63975
 C3462 C 0.97250 0.24094 0.65214
 C3463 C 0.91310 0.23000 0.68002
 C3464 C 0.89558 0.23742 0.67160
 C3465 C 0.87507 0.23713 0.68193
 C3466 C 0.85947 0.25013 0.67408
 C3467 C 0.84015 0.25118 0.68369
 C3468 C 0.83598 0.23922 0.70143
 C3469 C 0.85133 0.22566 0.70889
 C3470 C 0.87063 0.22453 0.69921
 H3471 H 0.98449 0.23707 0.68300
 H3472 H 0.95050 0.22970 0.69863
 H3473 H 0.92242 0.23450 0.63832
 H3474 H 0.95589 0.24270 0.62328
 H3475 H 0.91289 0.22347 0.69544
 H3476 H 0.89633 0.24553 0.65694
 H3477 H 0.86237 0.25984 0.66065
 H3478 H 0.82867 0.26174 0.67749
 H3479 H 0.84851 0.21597 0.72235
 H3480 H 0.88187 0.21375 0.70537
 C3481 C 0.45601 0.72164 0.16414
 C3482 C 0.43719 0.71701 0.17389
 C3483 C 0.42535 0.73282 0.18276
 C3484 C 0.43346 0.75294 0.18343
 C3485 C 0.45223 0.75753 0.17386
 C3486 C 0.46327 0.74212 0.16339
 C3487 C 0.40427 0.72842 0.19050
 C3488 C 0.38883 0.74195 0.18732
 C3489 C 0.36745 0.73922 0.19504
 C3490 C 0.35165 0.75105 0.18593
 C3491 C 0.33165 0.75080 0.19410
 C3492 C 0.32708 0.73887 0.21177
 C3493 C 0.34275 0.72644 0.22048
 C3494 C 0.36274 0.72663 0.21223
 H3495 H 0.46418 0.70948 0.15614
 H3496 H 0.43134 0.70133 0.17350
 H3497 H 0.42501 0.76527 0.19089
 H3498 H 0.45775 0.77334 0.17396
 H3499 H 0.40130 0.71351 0.19764
 H3500 H 0.39190 0.75581 0.17823
 H3501 H 0.35491 0.76093 0.17271
 H3502 H 0.31999 0.76056 0.18701
 H3503 H 0.33976 0.71705 0.23411
 H3504 H 0.37457 0.71761 0.21994
 C3505 C 0.44872 0.23138 0.34545
 C3506 C 0.43019 0.22899 0.33458
 C3507 C 0.42005 0.24624 0.32586
 C3508 C 0.42921 0.26586 0.32766
 C3509 C 0.44760 0.26821 0.33848
 C3510 C 0.45720 0.25112 0.34801
 C3511 C 0.39910 0.24367 0.31696
 C3512 C 0.39027 0.25774 0.30436
 C3513 C 0.36835 0.25692 0.29782
 C3514 C 0.36236 0.26804 0.28011
 C3515 C 0.34170 0.26840 0.27386
 C3516 C 0.32649 0.25780 0.28535
 C3517 C 0.33245 0.24698 0.30332
 C3518 C 0.35312 0.24656 0.30952
 H3519 H 0.45577 0.21801 0.35276
 H3520 H 0.42342 0.21372 0.33354
 H3521 H 0.42182 0.27969 0.32172
 H3522 H 0.45395 0.28360 0.34007
 H3523 H 0.39063 0.22986 0.32131
 H3524 H 0.39937 0.27048 0.29834
 H3525 H 0.37373 0.27641 0.27100
 H3526 H 0.33770 0.27692 0.25996
 H3527 H 0.32115 0.23870 0.31260
 H3528 H 0.35697 0.23846 0.32368
 C3529 C 0.96347 0.73890 0.82741
 C3530 C 0.94501 0.73698 0.81630
 C3531 C 0.92583 0.73718 0.82657
 C3532 C 0.92557 0.73741 0.84829
 C3533 C 0.94390 0.73957 0.85929
 C3534 C 0.96288 0.74101 0.84891
 C3535 C 0.90638 0.73782 0.81445
 C3536 C 0.88917 0.74687 0.82171
 C3537 C 0.86911 0.74753 0.81082
 C3538 C 0.85109 0.74892 0.82280
 C3539 C 0.83170 0.74960 0.81352
 C3540 C 0.82985 0.74933 0.79195
 C3541 C 0.84789 0.74858 0.77981
 C3542 C 0.86740 0.74754 0.78917
 H3543 H 0.97802 0.74005 0.81917
 H3544 H 0.94565 0.73641 0.79961
 H3545 H 0.91123 0.73643 0.85688
 H3546 H 0.94321 0.74091 0.87593
 H3547 H 0.90650 0.73125 0.79916
 H3548 H 0.88938 0.75379 0.83683
 H3549 H 0.85199 0.74917 0.83949
 H3550 H 0.81810 0.75036 0.82329
 H3551 H 0.84688 0.74836 0.76314
 H3552 H 0.88104 0.74703 0.77947
   
