data_POSCAR
  _audit_creation_date              2014-09-24
  _audit_creation_method            'ToBaCCo'
  _symmetry_space_group_name_H-M    'P1'
  _symmetry_Int_Tables_number       1
  _symmetry_cell_setting            triclinic
  loop_
  _symmetry_equiv_pos_as_xyz
 x,y,z
_cell_length_a 41.9978
_cell_length_b 42.0497
_cell_length_c 42.0978
_cell_angle_alpha 90.010200
_cell_angle_beta 90.039700
_cell_angle_gamma 90.008700
loop_
  _atom_site_label
  _atom_site_type_symbol
  _atom_site_fract_x
  _atom_site_fract_y
  _atom_site_fract_z
C1 C 0.24051 0.99799 -0.01877
 C2 C 0.24040 0.99672 0.01353
 C3 C 0.23800 0.96622 0.03113
 C4 C 0.24459 1.02553 0.03386
 C5 C 0.24133 1.02862 -0.03613
 C6 C 0.24096 0.96898 -0.03900
 C7 C 0.21402 0.96293 0.05407
 C8 C 0.21454 0.93758 0.07540
 C9 C 0.23913 0.91503 0.07429
 C10 C 0.26226 0.91733 0.05025
 C11 C 0.26185 0.94291 0.02894
 C12 C 0.22495 1.05229 0.03121
 C13 C 0.22852 1.07804 0.05203
 C14 C 0.25108 1.07751 0.07723
 C15 C 0.27036 1.04992 0.07960
 C16 C 0.26733 1.02479 0.05820
 C17 C 0.26994 1.04532 -0.04025
 C18 C 0.27101 1.07190 -0.06026
 C19 C 0.24332 1.08249 -0.07581
 C20 C 0.21446 1.06654 -0.07043
 C21 C 0.21360 1.03951 -0.05116
 C22 C 0.26604 0.96483 -0.06058
 C23 C 0.26626 0.93910 -0.08146
 C24 C 0.24129 0.91683 -0.08154
 C25 C 0.21640 0.92060 -0.05944
 C26 C 0.21617 0.94655 -0.03844
 H27 H 0.19555 0.98078 0.05624
 H28 H 0.19605 0.93600 0.09322
 H29 H 0.28158 0.90032 0.04902
 H30 H 0.28098 0.94540 0.01189
 H31 H 0.20645 1.05323 0.01335
 H32 H 0.21355 1.09840 0.04763
 H33 H 0.28255 1.00420 0.06113
 H34 H 0.29159 1.03701 -0.02899
 H35 H 0.29352 1.08384 -0.06413
 H36 H 0.19291 1.07403 -0.08242
 H37 H 0.19140 1.02668 -0.04840
 H38 H 0.28553 0.98166 -0.06136
 H39 H 0.28612 0.93661 -0.09767
 H40 H 0.19660 0.90424 -0.05896
 H41 H 0.19634 0.94953 -0.02227
 H42 H 0.28745 1.04636 0.09835
 C43 C 0.74579 0.49880 0.48341
 C44 C 0.74587 0.49814 0.51560
 C45 C 0.74940 0.46832 0.53403
 C46 C 0.74294 0.52733 0.53511
 C47 C 0.74606 0.52906 0.46532
 C48 C 0.74670 0.46949 0.46391
 C49 C 0.72692 0.44368 0.53212
 C50 C 0.72834 0.41814 0.55344
 C51 C 0.75194 0.41727 0.57717
 C52 C 0.77483 0.44153 0.57832
 C53 C 0.77362 0.46670 0.55692
 C54 C 0.71935 0.52840 0.55865
 C55 C 0.71847 0.55334 0.58035
 C56 C 0.74100 0.57789 0.57874
 C57 C 0.76414 0.57738 0.55465
 C58 C 0.76535 0.55204 0.53317
 C59 C 0.77183 0.53532 0.44515
 C60 C 0.77203 0.56237 0.42609
 C61 C 0.74624 0.58361 0.42645
 C62 C 0.72073 0.57784 0.44733
 C63 C 0.72058 0.55063 0.46657
 C64 C 0.77284 0.44871 0.46477
 C65 C 0.77513 0.42382 0.44278
 C66 C 0.75150 0.41969 0.41942
 C67 C 0.72470 0.43968 0.41972
 C68 C 0.72243 0.46440 0.44163
 H69 H 0.70764 0.44486 0.51507
 H70 H 0.71027 0.39980 0.55222
 H71 H 0.79349 0.44124 0.59609
 H72 H 0.79108 0.48557 0.55885
 H73 H 0.70205 0.50939 0.56071
 H74 H 0.70029 0.55335 0.59860
 H75 H 0.78433 0.55118 0.51579
 H76 H 0.79179 0.51903 0.44403
 H77 H 0.79239 0.56661 0.41096
 H78 H 0.70046 0.59374 0.44795
 H79 H 0.70034 0.54600 0.48181
 H80 H 0.79204 0.45258 0.48152
 H81 H 0.79607 0.40881 0.44302
 H82 H 0.70577 0.43667 0.40251
 H83 H 0.70208 0.48021 0.44066
 H84 H 0.78198 0.59592 0.55321
 C85 C 0.75136 1.01441 0.99906
 C86 C 0.75192 0.98218 0.99989
 C87 C 0.75213 0.96248 0.97071
 C88 C 0.75323 0.96422 1.03016
 C89 C 0.74944 1.03390 1.02833
 C90 C 0.75343 1.03281 0.96906
 C91 C 0.72815 0.93965 0.96661
 C92 C 0.72948 0.91823 0.94139
 C93 C 0.75498 0.91902 0.91989
 C94 C 0.77858 0.94251 0.92343
 C95 C 0.77727 0.96400 0.94880
 C96 C 0.72841 0.96554 1.05247
 C97 C 0.72902 0.94583 1.07930
 C98 C 0.75435 0.92447 1.08397
 C99 C 0.77943 0.92390 1.06197
 C100 C 0.77884 0.94350 1.03534
 C101 C 0.77369 1.03326 1.05128
 C102 C 0.77332 1.05492 1.07650
 C103 C 0.74897 1.07777 1.07877
 C104 C 0.72436 1.07770 1.05623
 C105 C 0.72464 1.05602 1.03123
 C106 C 0.77704 1.05614 0.96643
 C107 C 0.77724 1.07710 0.94089
 C108 C 0.75378 1.07547 0.91698
 C109 C 0.73100 1.05073 0.91892
 C110 C 0.73062 1.02990 0.94491
 H111 H 0.70861 0.93811 0.98332
 H112 H 0.71055 0.90099 0.93879
 H113 H 0.79860 0.94351 0.90727
 H114 H 0.79631 0.98109 0.95194
 H115 H 0.70818 0.98102 1.04855
 H116 H 0.70907 0.94635 1.09548
 H117 H 0.79817 0.94212 1.01836
 H118 H 0.79340 1.01682 1.04903
 H119 H 0.79269 1.05465 1.09349
 H120 H 0.70497 1.09456 1.05783
 H121 H 0.70582 1.05692 1.01363
 H122 H 0.79510 1.05856 0.98466
 H123 H 0.79635 1.09419 0.93987
 H124 H 0.71206 1.04853 0.90166
 H125 H 0.71180 1.01240 0.94679
 H126 H 0.79932 0.90780 1.06515
 C127 C 0.24419 0.51200 0.49741
 C128 C 0.24600 0.47974 0.49656
 C129 C 0.25001 0.46162 0.46647
 C130 C 0.24593 0.46023 0.52594
 C131 C 0.24570 0.53019 0.52763
 C132 C 0.24351 0.53194 0.46837
 C133 C 0.22782 0.46330 0.44152
 C134 C 0.23115 0.44362 0.41478
 C135 C 0.25646 0.42174 0.41286
 C136 C 0.27884 0.42071 0.43763
 C137 C 0.27566 0.44039 0.46404
 C138 C 0.22349 0.43571 0.52889
 C139 C 0.22514 0.41440 0.55420
 C140 C 0.24929 0.41721 0.57710
 C141 C 0.27112 0.44245 0.57482
 C142 C 0.26970 0.46359 0.54920
 C143 C 0.27009 0.55266 0.53133
 C144 C 0.27085 0.57249 0.55775
 C145 C 0.24727 0.57029 0.58125
 C146 C 0.22331 0.54708 0.57819
 C147 C 0.22239 0.52728 0.55137
 C148 C 0.26896 0.53192 0.44678
 C149 C 0.27082 0.55530 0.42321
 C150 C 0.24763 0.57938 0.42133
 C151 C 0.22154 0.57848 0.44212
 C152 C 0.21952 0.55498 0.46538
 H153 H 0.20756 0.47913 0.44314
 H154 H 0.21336 0.44473 0.39620
 H155 H 0.29880 0.40443 0.43669
 H156 H 0.29309 0.43873 0.48295
 H157 H 0.20512 0.43262 0.51108
 H158 H 0.20778 0.39541 0.55562
 H159 H 0.28775 0.48184 0.54695
 H160 H 0.28836 0.55523 0.51335
 H161 H 0.28980 0.58986 0.55967
 H162 H 0.20471 0.54507 0.59587
 H163 H 0.20314 0.51034 0.54873
 H164 H 0.28815 0.51490 0.44918
 H165 H 0.29124 0.55554 0.40752
 H166 H 0.20304 0.59637 0.44084
 H167 H 0.19985 0.55553 0.48201
 H168 H 0.29012 0.44494 0.59204
 C169 C 0.99845 0.24591 0.01586
 C170 C 0.99954 0.24572 -0.01646
 C171 C 1.03020 0.24436 -0.03402
 C172 C 0.97069 0.24753 -0.03711
 C173 C 0.96820 0.24547 0.03412
 C174 C 1.02778 0.24824 0.03559
 C175 C 1.05262 0.26901 -0.03214
 C176 C 1.07847 0.26982 -0.05311
 C177 C 1.08170 0.24662 -0.07721
 C178 C 1.06006 0.22094 -0.07738
 C179 C 1.03473 0.21990 -0.05610
 C180 C 0.97150 0.26781 -0.06361
 C181 C 0.94736 0.26719 -0.08622
 C182 C 0.92084 0.24713 -0.08247
 C183 C 0.91893 0.22831 -0.05475
 C184 C 0.94408 0.22770 -0.03289
 C185 C 0.96457 0.22268 0.05821
 C186 C 0.93911 0.22443 0.07932
 C187 C 0.91656 0.24885 0.07658
 C188 C 0.91917 0.27080 0.05154
 C189 C 0.94512 0.26942 0.03069
 C190 C 1.05305 0.22659 0.03274
 C191 C 1.07996 0.22939 0.05220
 C192 C 1.08163 0.25320 0.07584
 C193 C 1.05577 0.27441 0.07871
 C194 C 1.02949 0.27210 0.05874
 H195 H 1.04928 0.28838 -0.01552
 H196 H 1.09437 0.29004 -0.05190
 H197 H 1.06238 0.20147 -0.09399
 H198 H 1.01780 0.20051 -0.05766
 H199 H 0.99147 0.28368 -0.06734
 H200 H 0.94932 0.28311 -0.10633
 H201 H 0.94311 0.21105 -0.01332
 H202 H 0.98222 0.20415 0.06138
 H203 H 0.93742 0.20715 0.09832
 H204 H 0.90211 0.28997 0.04921
 H205 H 0.94783 0.28766 0.01275
 H206 H 1.05183 0.20731 0.01573
 H207 H 1.09859 0.21184 0.04957
 H208 H 1.05608 0.29363 0.09581
 H209 H 1.01030 0.28911 0.06139
 H210 H 0.89906 0.21231 -0.05105
 C211 C 0.49698 0.74707 0.49100
 C212 C 0.49609 0.74511 0.52316
 C213 C 0.52542 0.74562 0.54258
 C214 C 0.46593 0.74444 0.54120
 C215 C 0.46796 0.75150 0.47133
 C216 C 0.52732 0.74691 0.47302
 C217 C 0.53935 0.71722 0.55318
 C218 C 0.56515 0.71809 0.57429
 C219 C 0.57728 0.74738 0.58478
 C220 C 0.56360 0.77570 0.57377
 C221 C 0.53759 0.77482 0.55317
 C222 C 0.45075 0.71534 0.54727
 C223 C 0.42447 0.71399 0.56760
 C224 C 0.41385 0.74154 0.58311
 C225 C 0.42905 0.77065 0.57707
 C226 C 0.45477 0.77213 0.55605
 C227 C 0.46610 0.77827 0.45146
 C228 C 0.44168 0.78109 0.42918
 C229 C 0.41831 0.75742 0.42662
 C230 C 0.41963 0.73095 0.44695
 C231 C 0.44459 0.72775 0.46880
 C232 C 0.54831 0.77285 0.47444
 C233 C 0.57357 0.77523 0.45298
 C234 C 0.57761 0.75223 0.42911
 C235 C 0.55718 0.72581 0.42832
 C236 C 0.53230 0.72317 0.45014
 H237 H 0.52981 0.69450 0.54565
 H238 H 0.57546 0.69601 0.58259
 H239 H 0.57250 0.79848 0.58190
 H240 H 0.52662 0.79693 0.54583
 H241 H 0.45980 0.69356 0.53692
 H242 H 0.41330 0.69126 0.57231
 H243 H 0.46657 0.79467 0.55210
 H244 H 0.48413 0.79665 0.45265
 H245 H 0.44107 0.80175 0.41382
 H246 H 0.40208 0.71217 0.44503
 H247 H 0.44632 0.70619 0.48266
 H248 H 0.54407 0.79222 0.49078
 H249 H 0.58877 0.79603 0.45379
 H250 H 0.55996 0.70765 0.41029
 H251 H 0.51600 0.70328 0.44830
 H252 H 0.42118 0.79215 0.58886
 C253 C 0.01122 0.75519 0.00647
 C254 C -0.02118 0.75518 0.00559
 C255 C -0.04129 0.75372 0.03474
 C256 C -0.03892 0.75621 -0.02496
 C257 C 0.03109 0.75185 -0.02258
 C258 C 0.02974 0.75711 0.03643
 C259 C -0.06609 0.73144 0.03589
 C260 C -0.08680 0.73032 0.06168
 C261 C -0.08327 0.75125 0.08766
 C262 C -0.05795 0.77343 0.08659
 C263 C -0.03757 0.77495 0.06023
 C264 C -0.03713 0.73147 -0.04723
 C265 C -0.05572 0.73235 -0.07490
 C266 C -0.07694 0.75785 -0.08073
 C267 C -0.07794 0.78273 -0.05816
 C268 C -0.05939 0.78177 -0.03073
 C269 C 0.02927 0.77327 -0.04799
 C270 C 0.05026 0.77064 -0.07372
 C271 C 0.07470 0.74740 -0.07403
 C272 C 0.07547 0.72558 -0.04848
 C273 C 0.05406 0.72779 -0.02339
 C274 C 0.05217 0.78163 0.03970
 C275 C 0.07430 0.78112 0.06438
 C276 C 0.07454 0.75600 0.08628
 C277 C 0.05115 0.73213 0.08390
 C278 C 0.02902 0.73255 0.05898
 H279 H -0.06951 0.71473 0.01659
 H280 H -0.10510 0.71221 0.06146
 H281 H -0.05457 0.79078 0.10524
 H282 H -0.01936 0.79315 0.05951
 H283 H -0.02187 0.71119 -0.04285
 H284 H -0.05429 0.71215 -0.09069
 H285 H -0.06101 0.80114 -0.01382
 H286 H 0.01205 0.79243 -0.04768
 H287 H 0.04770 0.78792 -0.09236
 H288 H 0.09175 0.70572 -0.04791
 H289 H 0.05562 0.71063 -0.00425
 H290 H 0.05322 0.80065 0.02237
 H291 H 0.09152 0.80019 0.06606
 H292 H 0.05091 0.71240 0.10042
 H293 H 0.01236 0.71305 0.05644
 H294 H -0.09262 0.80352 -0.06176
 C295 C 0.51328 0.25185 0.49986
 C296 C 0.48089 0.25179 0.49929
 C297 C 0.46142 0.25084 0.52887
 C298 C 0.46261 0.25227 0.46890
 C299 C 0.53264 0.25269 0.47044
 C300 C 0.53209 0.25056 0.52971
 C301 C 0.46589 0.22723 0.55212
 C302 C 0.44509 0.22504 0.57802
 C303 C 0.41897 0.24573 0.58049
 C304 C 0.41483 0.26958 0.55758
 C305 C 0.43595 0.27224 0.53218
 C306 C 0.43812 0.22999 0.46435
 C307 C 0.41806 0.23202 0.43802
 C308 C 0.42226 0.25619 0.41545
 C309 C 0.44756 0.27773 0.41912
 C310 C 0.46733 0.27608 0.44590
 C311 C 0.55493 0.27719 0.46652
 C312 C 0.57657 0.27637 0.44148
 C313 C 0.57658 0.25084 0.42001
 C314 C 0.55347 0.22683 0.42324
 C315 C 0.53172 0.22766 0.44840
 C316 C 0.52951 0.27420 0.55316
 C317 C 0.55064 0.27453 0.57896
 C318 C 0.57489 0.25158 0.58124
 C319 C 0.57665 0.22745 0.55833
 C320 C 0.55549 0.22694 0.53287
 H321 H 0.48476 0.20987 0.54971
 H322 H 0.44850 0.20628 0.59531
 H323 H 0.39493 0.28590 0.55914
 H324 H 0.43192 0.29055 0.51453
 H325 H 0.43399 0.21146 0.48174
 H326 H 0.39882 0.21504 0.43557
 H327 H 0.48553 0.29402 0.44919
 H328 H 0.55598 0.29666 0.48336
 H329 H 0.59345 0.29564 0.43906
 H330 H 0.55306 0.20679 0.40709
 H331 H 0.51503 0.20826 0.45139
 H332 H 0.51197 0.29293 0.55089
 H333 H 0.54891 0.29342 0.59636
 H334 H 0.59465 0.20910 0.55994
 H335 H 0.55785 0.20847 0.51508
 H336 H 0.45099 0.29676 0.40212
 C337 C 1.00199 -0.01119 0.24772
 C338 C 1.00213 0.02111 0.24580
 C339 C 1.03196 0.04031 0.24367
 C340 C 0.97217 0.03988 0.24570
 C341 C 0.97212 -0.03035 0.24803
 C342 C 1.03169 -0.03025 0.24940
 C343 C 1.05672 0.03756 0.26596
 C344 C 1.08243 0.05886 0.26547
 C345 C 1.08322 0.08436 0.24360
 C346 C 1.05885 0.08601 0.22059
 C347 C 1.03384 0.06424 0.22055
 C348 C 0.96866 0.06446 0.26794
 C349 C 0.94290 0.08521 0.26613
 C350 C 0.92001 0.08167 0.24211
 C351 C 0.92262 0.05621 0.22066
 C352 C 0.94879 0.03565 0.22218
 C353 C 0.96984 -0.05651 0.22750
 C354 C 0.94524 -0.07844 0.23063
 C355 C 0.92163 -0.07460 0.25408
 C356 C 0.92257 -0.04690 0.27305
 C357 C 0.94800 -0.02544 0.27060
 C358 C 1.05475 -0.02905 0.22528
 C359 C 1.08003 -0.05074 0.22521
 C360 C 1.08196 -0.07434 0.24874
 C361 C 1.05937 -0.07501 0.27317
 C362 C 1.03460 -0.05303 0.27361
 H363 H 1.05559 0.01977 0.28451
 H364 H 1.10044 0.05659 0.28373
 H365 H 1.05902 0.10393 0.20216
 H366 H 1.01528 0.06666 0.20283
 H367 H 0.98646 0.06813 0.28622
 H368 H 0.94118 0.10448 0.28312
 H369 H 0.95135 0.01718 0.20443
 H370 H 0.98794 -0.06061 0.20962
 H371 H 0.94479 -0.09830 0.21428
 H372 H 0.90504 -0.04293 0.29148
 H373 H 0.94950 -0.00584 0.28720
 H374 H 1.05255 -0.01216 0.20598
 H375 H 1.09728 -0.04998 0.20612
 H376 H 1.06073 -0.09275 0.29177
 H377 H 1.01697 -0.05446 0.29233
 H378 H 0.90528 0.05323 0.20184
 C379 C 0.50056 0.51823 0.74950
 C380 C 0.50174 0.48589 0.74979
 C381 C 0.53174 0.46744 0.75339
 C382 C 0.47263 0.46610 0.74635
 C383 C 0.46970 0.53535 0.74771
 C384 C 0.52937 0.53875 0.75143
 C385 C 0.55668 0.46961 0.73126
 C386 C 0.58213 0.44800 0.73241
 C387 C 0.58268 0.42364 0.75536
 C388 C 0.55816 0.42228 0.77796
 C389 C 0.53311 0.44394 0.77703
 C390 C 0.47186 0.44263 0.72265
 C391 C 0.44714 0.42054 0.72157
 C392 C 0.42247 0.42171 0.74398
 C393 C 0.42271 0.44568 0.76725
 C394 C 0.44785 0.46746 0.76870
 C395 C 0.45742 0.54987 0.77509
 C396 C 0.42957 0.56800 0.77352
 C397 C 0.41417 0.57277 0.74432
 C398 C 0.42657 0.55838 0.71684
 C399 C 0.45395 0.53942 0.71860
 C400 C 0.55219 0.53505 0.77560
 C401 C 0.57750 0.55659 0.77835
 C402 C 0.57977 0.58267 0.75761
 C403 C 0.55724 0.58610 0.73328
 C404 C 0.53245 0.56429 0.73012
 H405 H 0.55577 0.48711 0.71242
 H406 H 0.60062 0.44949 0.71457
 H407 H 0.55814 0.40409 0.79617
 H408 H 0.51405 0.44171 0.79423
 H409 H 0.49096 0.44089 0.70545
 H410 H 0.44736 0.40239 0.70331
 H411 H 0.44856 0.48451 0.78793
 H412 H 0.46954 0.54723 0.79766
 H413 H 0.42056 0.57910 0.79492
 H414 H 0.41503 0.56181 0.69409
 H415 H 0.46338 0.52869 0.69720
 H416 H 0.54996 0.51614 0.79290
 H417 H 0.59456 0.55366 0.79743
 H418 H 0.55873 0.60583 0.71681
 H419 H 0.51528 0.56773 0.71124
 H420 H 0.40414 0.44676 0.78504
 C421 C 1.01871 1.00090 0.75366
 C422 C 0.98641 1.00011 0.75099
 C423 C 0.96847 0.96977 0.75101
 C424 C 0.96612 1.02908 0.74814
 C425 C 1.03676 1.03097 0.75755
 C426 C 1.03873 0.97166 0.75186
 C427 C 0.97173 0.94729 0.72654
 C428 C 0.95163 0.92074 0.72550
 C429 C 0.92770 0.91692 0.74848
 C430 C 0.92514 0.93897 0.77330
 C431 C 0.94536 0.96512 0.77457
 C432 C 0.94260 1.02969 0.72446
 C433 C 0.92018 1.05405 0.72323
 C434 C 0.92091 1.07928 0.74527
 C435 C 0.94522 1.07906 0.76859
 C436 C 0.96716 1.05397 0.77033
 C437 C 1.05749 1.03377 0.78353
 C438 C 1.07818 1.05954 0.78593
 C439 C 1.07857 1.08317 0.76239
 C440 C 1.05714 1.08088 0.73675
 C441 C 1.03653 1.05480 0.73421
 C442 C 1.03392 0.94531 0.77177
 C443 C 1.05367 0.91855 0.76946
 C444 C 1.07962 0.91805 0.74808
 C445 C 1.08462 0.94506 0.72887
 C446 C 1.06434 0.97120 0.73053
 H447 H 0.98909 0.95082 0.70787
 H448 H 0.95379 0.90399 0.70608
 H449 H 0.90712 0.93620 0.79148
 H450 H 0.94247 0.98230 0.79354
 H451 H 0.94117 1.01074 0.70707
 H452 H 0.90270 1.05333 0.70435
 H453 H 0.98424 1.05354 0.78959
 H454 H 1.05819 1.01546 0.80162
 H455 H 1.09417 1.06082 0.80608
 H456 H 1.05720 1.09857 0.71806
 H457 H 1.02125 1.05267 0.71360
 H458 H 1.01511 0.94552 0.78933
 H459 H 1.04932 0.89901 0.78559
 H460 H 1.10364 0.94579 0.71155
 H461 H 1.06868 0.99125 0.71497
 H462 H 0.94643 1.09719 0.78677
 C463 C 0.51899 0.50496 0.25092
 C464 C 0.48668 0.50487 0.24913
 C465 C 0.46776 0.47497 0.24775
 C466 C 0.46760 0.53459 0.24929
 C467 C 0.53774 0.53470 0.25481
 C468 C 0.53794 0.47521 0.24999
 C469 C 0.47236 0.45221 0.22371
 C470 C 0.45176 0.42614 0.22115
 C471 C 0.42582 0.42306 0.24198
 C472 C 0.42178 0.44533 0.26641
 C473 C 0.44265 0.47090 0.26937
 C474 C 0.44426 0.53876 0.22577
 C475 C 0.42226 0.56343 0.22804
 C476 C 0.42344 0.58463 0.25370
 C477 C 0.44776 0.58160 0.27641
 C478 C 0.46945 0.55643 0.27449
 C479 C 0.55875 0.53714 0.28059
 C480 C 0.57859 0.56349 0.28380
 C481 C 0.57803 0.58808 0.26120
 C482 C 0.55653 0.58596 0.23561
 C483 C 0.53664 0.55937 0.23234
 C484 C 0.53352 0.45090 0.27246
 C485 C 0.55384 0.42453 0.27279
 C486 C 0.57925 0.42258 0.25119
 C487 C 0.58302 0.44650 0.22826
 C488 C 0.56255 0.47254 0.22767
 H489 H 0.49116 0.45518 0.20638
 H490 H 0.45509 0.40927 0.20200
 H491 H 0.40206 0.44324 0.28285
 H492 H 0.43864 0.48814 0.28807
 H493 H 0.44232 0.52209 0.20624
 H494 H 0.40384 0.56555 0.21014
 H495 H 0.48671 0.55322 0.29333
 H496 H 0.56000 0.51835 0.29816
 H497 H 0.59458 0.56455 0.30397
 H498 H 0.55581 0.60430 0.21758
 H499 H 0.52099 0.55766 0.21196
 H500 H 0.51505 0.45282 0.29028
 H501 H 0.55068 0.40647 0.29085
 H502 H 0.60224 0.44534 0.21116
 H503 H 0.56635 0.49106 0.21020
 H504 H 0.44888 0.59766 0.29649
 O505 O 0.25682 0.16891 0.19838
 O506 O 0.29018 0.16025 0.24334
 O507 O 0.17299 0.20916 0.24153
 O508 O 0.16136 0.25039 0.27272
 O509 O 0.21264 0.25157 0.15778
 O510 O 0.25748 0.28542 0.14859
 O511 O 0.25766 0.29803 0.32184
 O512 O 0.21922 0.25728 0.33120
 O513 O 0.33784 0.25607 0.28551
 O514 O 0.34800 0.21701 0.24216
 O515 O 0.30009 0.33410 0.23985
 O516 O 0.25477 0.34361 0.20395
 O517 O 0.25711 0.33550 0.28298
 O518 O 0.22094 0.34429 0.23738
 O519 O 0.33837 0.29594 0.23970
 O520 O 0.34790 0.24866 0.20643
 O521 O 0.29908 0.25553 0.32309
 O522 O 0.25522 0.21921 0.33344
 O523 O 0.25501 0.20642 0.15939
 O524 O 0.29247 0.24914 0.15025
 O525 O 0.17423 0.25364 0.19573
 O526 O 0.16620 0.29020 0.23972
 O527 O 0.21066 0.17031 0.24361
 O528 O 0.25518 0.16170 0.27832
 Zr529 Zr 0.25422 0.19533 0.24100
 O530 O 0.28413 0.22313 0.27018
 Zr531 Zr 0.19885 0.25180 0.23919
 O532 O 0.22599 0.28178 0.26878
 Zr533 Zr 0.25520 0.24985 0.18399
 O534 O 0.28477 0.28012 0.21075
 Zr535 Zr 0.25636 0.25447 0.29740
 O536 O 0.22612 0.22414 0.27092
 Zr537 Zr 0.31271 0.25299 0.24213
 O538 O 0.28560 0.22225 0.21268
 Zr539 Zr 0.25683 0.30906 0.24047
 O540 O 0.22706 0.28155 0.21059
 O541 O 0.22506 0.22123 0.21066
 O542 O 0.28648 0.28362 0.27094
 C543 C 0.25640 0.17751 0.16905
 C544 C 0.18153 0.17987 0.24356
 C545 C 0.18346 0.25358 0.16664
 C546 C 0.25782 0.32706 0.31230
 C547 C 0.32838 0.25672 0.31457
 C548 C 0.32931 0.32512 0.23907
 H549 H 0.29724 0.20907 0.28367
 H550 H 0.29795 0.29277 0.19597
 H551 H 0.21127 0.20751 0.19737
 H552 H 0.21175 0.29514 0.28187
 H553 H 0.20299 0.24140 0.32488
 H554 H 0.16808 0.26320 0.29125
 H555 H 0.34306 0.26450 0.18975
 H556 H 0.30806 0.23311 0.15767
 H557 H 0.27184 0.20324 0.32877
 H558 H 0.24062 0.16978 0.29494
 H559 H 0.27156 0.33849 0.18831
 H560 H 0.24295 0.30264 0.15543
 H561 H 0.30817 0.16832 0.23047
 H562 H 0.34399 0.20285 0.26049
 H563 H 0.17318 0.30541 0.22318
 H564 H 0.20563 0.34060 0.25484
 O565 O 0.75226 0.84074 0.21452
 O566 O 0.71595 0.85125 0.25745
 O567 O 0.83236 0.80067 0.26199
 O568 O 0.84228 0.75979 0.29455
 O569 O 0.79443 0.75435 0.17853
 O570 O 0.74868 0.72249 0.16864
 O571 O 0.74427 0.71617 0.34270
 O572 O 0.78302 0.75657 0.35140
 O573 O 0.66589 0.76008 0.30202
 O574 O 0.65806 0.79670 0.25608
 O575 O 0.70239 0.67849 0.26332
 O576 O 0.74752 0.66657 0.22614
 O577 O 0.74623 0.67774 0.30478
 O578 O 0.78112 0.66596 0.25982
 O579 O 0.66517 0.71744 0.25924
 O580 O 0.65753 0.76253 0.22286
 O581 O 0.70322 0.76057 0.34110
 O582 O 0.74798 0.79545 0.35132
 O583 O 0.75207 0.80174 0.17705
 O584 O 0.71500 0.75902 0.16785
 O585 O 0.83221 0.75648 0.21717
 O586 O 0.83758 0.71922 0.26157
 O587 O 0.79535 0.84013 0.26120
 O588 O 0.75011 0.85105 0.29374
 Zr589 Zr 0.75163 0.81579 0.25797
 O590 O 0.72049 0.78979 0.28733
 Zr591 Zr 0.80590 0.75838 0.25976
 O592 O 0.77724 0.73004 0.28955
 Zr593 Zr 0.75099 0.75908 0.20299
 O594 O 0.71990 0.73057 0.22993
 Zr595 Zr 0.74675 0.75889 0.31660
 O596 O 0.77832 0.78763 0.28977
 Zr597 Zr 0.69204 0.75965 0.25943
 O598 O 0.72054 0.78853 0.22962
 Zr599 Zr 0.74640 0.70239 0.26149
 O600 O 0.77775 0.72802 0.23158
 O601 O 0.78098 0.78818 0.22938
 O602 O 0.71665 0.72959 0.29024
 C603 C 0.75242 0.83112 0.18550
 C604 C 0.82424 0.83013 0.26248
 C605 C 0.82355 0.75415 0.18796
 C606 C 0.74499 0.68692 0.33383
 C607 C 0.67424 0.76062 0.33139
 C608 C 0.67340 0.68814 0.26181
 H609 H 0.70741 0.80477 0.29983
 H610 H 0.70666 0.71753 0.21553
 H611 H 0.79540 0.80115 0.21605
 H612 H 0.79096 0.71684 0.30334
 H613 H 0.79993 0.77154 0.34466
 H614 H 0.83504 0.74696 0.31285
 H615 H 0.66240 0.74578 0.20710
 H616 H 0.69894 0.77486 0.17460
 H617 H 0.73220 0.81185 0.34539
 H618 H 0.76391 0.84342 0.31122
 H619 H 0.72924 0.66998 0.21171
 H620 H 0.76101 0.70442 0.17735
 H621 H 0.69938 0.84391 0.24241
 H622 H 0.66231 0.81201 0.27342
 H623 H 0.83111 0.70433 0.24453
 H624 H 0.79744 0.67089 0.27605
 O625 O 0.74842 0.16485 0.79131
 O626 O 0.71471 0.15569 0.74842
 O627 O 0.83192 0.20441 0.74698
 O628 O 0.84369 0.24491 0.71570
 O629 O 0.79449 0.24664 0.83117
 O630 O 0.75174 0.28121 0.84201
 O631 O 0.74669 0.29127 0.66642
 O632 O 0.78141 0.25011 0.65605
 O633 O 0.66564 0.25233 0.70797
 O634 O 0.65442 0.21787 0.75068
 O635 O 0.70792 0.33189 0.74853
 O636 O 0.75127 0.34258 0.78135
 O637 O 0.74987 0.32969 0.70423
 O638 O 0.78855 0.33718 0.75122
 O639 O 0.66873 0.29483 0.75166
 O640 O 0.66067 0.24671 0.78853
 O641 O 0.70263 0.25099 0.66866
 O642 O 0.74638 0.21155 0.65860
 O643 O 0.75027 0.20240 0.83021
 O644 O 0.71445 0.24796 0.83994
 O645 O 0.83202 0.24798 0.79234
 O646 O 0.83869 0.28556 0.74679
 O647 O 0.79377 0.16599 0.74607
 O648 O 0.74719 0.15852 0.71114
 Zr649 Zr 0.75019 0.19132 0.74913
 O650 O 0.71922 0.21923 0.72135
 Zr651 Zr 0.80634 0.24699 0.74930
 O652 O 0.77890 0.27626 0.71936
 Zr653 Zr 0.75140 0.24631 0.80587
 O654 O 0.72236 0.27758 0.77953
 Zr655 Zr 0.74672 0.24901 0.69241
 O656 O 0.77798 0.21928 0.71838
 Zr657 Zr 0.69266 0.25062 0.74989
 O658 O 0.71992 0.21897 0.77817
 Zr659 Zr 0.74990 0.30502 0.74796
 O660 O 0.77939 0.27748 0.77825
 O661 O 0.78032 0.21704 0.77864
 O662 O 0.71848 0.27972 0.71922
 C663 C 0.74884 0.17336 0.82058
 C664 C 0.82305 0.17525 0.74569
 C665 C 0.82352 0.24755 0.82169
 C666 C 0.74849 0.32041 0.67511
 C667 C 0.67372 0.25224 0.67859
 C668 C 0.67856 0.32381 0.75060
 H669 H 0.70514 0.20520 0.70882
 H670 H 0.71011 0.29107 0.79437
 H671 H 0.79403 0.20309 0.79174
 H672 H 0.79318 0.28880 0.70552
 H673 H 0.79881 0.23574 0.66282
 H674 H 0.83566 0.25480 0.69596
 H675 H 0.66323 0.26585 0.80195
 H676 H 0.69911 0.23101 0.83424
 H677 H 0.72697 0.19863 0.66182
 H678 H 0.76357 0.16482 0.69545
 H679 H 0.74097 0.33472 0.80095
 H680 H 0.76571 0.29857 0.83439
 H681 H 0.69675 0.16400 0.76118
 H682 H 0.66099 0.19914 0.73810
 H683 H 0.83462 0.29929 0.76546
 H684 H 0.80091 0.33569 0.73127
 O685 O 0.24311 0.82313 0.79533
 O686 O 0.27839 0.83101 0.75144
 O687 O 0.15936 0.78565 0.75066
 O688 O 0.14733 0.74434 0.71960
 O689 O 0.19746 0.74071 0.83489
 O690 O 0.24197 0.70658 0.84471
 O691 O 0.24231 0.69430 0.67166
 O692 O 0.20451 0.73635 0.66238
 O693 O 0.32326 0.73873 0.70828
 O694 O 0.33443 0.77269 0.75357
 O695 O 0.28334 0.65685 0.75294
 O696 O 0.23761 0.64925 0.78983
 O697 O 0.24044 0.65680 0.71047
 O698 O 0.20397 0.64900 0.75580
 O699 O 0.32219 0.69419 0.74813
 O700 O 0.33289 0.73882 0.78779
 O701 O 0.28493 0.73555 0.67027
 O702 O 0.24663 0.77267 0.65987
 O703 O 0.24231 0.78575 0.83436
 O704 O 0.27736 0.74170 0.84366
 O705 O 0.15902 0.74295 0.79683
 O706 O 0.15077 0.70480 0.75349
 O707 O 0.19849 0.82296 0.74972
 O708 O 0.24556 0.83176 0.71645
 Zr709 Zr 0.24129 0.79704 0.75260
 O710 O 0.27024 0.76859 0.72336
 Zr711 Zr 0.18430 0.74242 0.75371
 O712 O 0.21082 0.71150 0.72444
 Zr713 Zr 0.24054 0.74231 0.80942
 O714 O 0.26955 0.71132 0.78267
 Zr715 Zr 0.24206 0.73791 0.69590
 O716 O 0.21255 0.76938 0.72209
 Zr717 Zr 0.29801 0.73798 0.75142
 O718 O 0.27175 0.76923 0.78098
 Zr719 Zr 0.24077 0.68329 0.75291
 O720 O 0.21152 0.71170 0.78245
 O721 O 0.21133 0.77192 0.78270
 O722 O 0.27109 0.70809 0.72259
 C723 C 0.24349 0.81476 0.82472
 C724 C 0.16908 0.81458 0.74896
 C725 C 0.16820 0.74134 0.82590
 C726 C 0.24180 0.66528 0.68119
 C727 C 0.31416 0.73690 0.67920
 C728 C 0.31256 0.66522 0.74956
 H729 H 0.28332 0.78258 0.70971
 H730 H 0.28255 0.69812 0.79711
 H731 H 0.19791 0.78605 0.79591
 H732 H 0.19630 0.69850 0.71128
 H733 H 0.19006 0.75423 0.66750
 H734 H 0.15429 0.73170 0.70106
 H735 H 0.33062 0.71921 0.80057
 H736 H 0.29482 0.75489 0.83496
 H737 H 0.23252 0.79047 0.66585
 H738 H 0.22764 0.82864 0.70152
 H739 H 0.25562 0.65286 0.80455
 H740 H 0.22734 0.68954 0.83759
 H741 H 0.29484 0.82362 0.76660
 H742 H 0.32890 0.78961 0.73820
 H743 H 0.15698 0.68999 0.77068
 H744 H 0.18847 0.65358 0.73871
 O745 O 0.25227 0.33272 0.70596
 O746 O 0.21634 0.34351 0.74955
 O747 O 0.33381 0.29511 0.75060
 O748 O 0.34465 0.25595 0.78564
 O749 O 0.29406 0.24667 0.67052
 O750 O 0.24896 0.21336 0.66270
 O751 O 0.24692 0.21073 0.83664
 O752 O 0.28662 0.25096 0.84398
 O753 O 0.16882 0.25254 0.79678
 O754 O 0.15967 0.28897 0.75042
 O755 O 0.20502 0.17126 0.75954
 O756 O 0.24970 0.15918 0.72094
 O757 O 0.25038 0.17153 0.79956
 O758 O 0.28377 0.15914 0.75418
 O759 O 0.16753 0.20990 0.75493
 O760 O 0.15834 0.25382 0.71811
 O761 O 0.20670 0.25540 0.83527
 O762 O 0.25176 0.29043 0.84361
 O763 O 0.25090 0.29305 0.66923
 O764 O 0.21453 0.24932 0.66179
 O765 O 0.33277 0.24771 0.70830
 O766 O 0.34030 0.21377 0.75436
 O767 O 0.29576 0.33358 0.75051
 O768 O 0.25190 0.34464 0.78486
 Zr769 Zr 0.25258 0.30862 0.74982
 O770 O 0.22250 0.28306 0.78050
 Zr771 Zr 0.30777 0.25218 0.75157
 O772 O 0.28007 0.22408 0.78263
 Zr773 Zr 0.25134 0.25086 0.69605
 O774 O 0.22131 0.22259 0.72431
 Zr775 Zr 0.24974 0.25305 0.80981
 O776 O 0.28041 0.28162 0.78165
 Zr777 Zr 0.19392 0.25215 0.75371
 O778 O 0.22122 0.28063 0.72262
 Zr779 Zr 0.24891 0.19543 0.75588
 O780 O 0.27925 0.22085 0.72478
 O781 O 0.28159 0.28076 0.72111
 O782 O 0.21949 0.22298 0.78459
 C783 C 0.25156 0.32259 0.67713
 C784 C 0.32490 0.32442 0.75031
 C785 C 0.32335 0.24550 0.67929
 C786 C 0.24836 0.18132 0.82834
 C787 C 0.17761 0.25415 0.82594
 C788 C 0.17593 0.18079 0.75827
 H789 H 0.20954 0.29818 0.79296
 H790 H 0.20788 0.20911 0.71051
 H791 H 0.29548 0.29338 0.70692
 H792 H 0.29422 0.21132 0.79643
 H793 H 0.30329 0.26606 0.83695
 H794 H 0.33831 0.24312 0.80428
 H795 H 0.16318 0.23703 0.70238
 H796 H 0.19846 0.26523 0.66840
 H797 H 0.23591 0.30673 0.83754
 H798 H 0.26660 0.33767 0.80189
 H799 H 0.23042 0.16144 0.70762
 H800 H 0.26183 0.19575 0.67159
 H801 H 0.19975 0.33590 0.73467
 H802 H 0.16347 0.30404 0.76806
 H803 H 0.33331 0.19771 0.73863
 H804 H 0.30057 0.16466 0.76972
 O805 O 0.74907 0.66605 0.70484
 O806 O 0.78709 0.65595 0.74680
 O807 O 0.67105 0.70720 0.75460
 O808 O 0.66164 0.74959 0.78490
 O809 O 0.70721 0.75052 0.66793
 O810 O 0.75247 0.78353 0.65714
 O811 O 0.75815 0.79270 0.83041
 O812 O 0.72342 0.75093 0.84148
 O813 O 0.83907 0.74703 0.78887
 O814 O 0.84572 0.71032 0.74409
 O815 O 0.80149 0.82858 0.74720
 O816 O 0.75438 0.83982 0.71280
 O817 O 0.76036 0.83055 0.79193
 O818 O 0.72319 0.84199 0.74868
 O819 O 0.83850 0.78923 0.74532
 O820 O 0.84438 0.74273 0.70912
 O821 O 0.80243 0.75309 0.82808
 O822 O 0.75904 0.71307 0.83984
 O823 O 0.74999 0.70427 0.66662
 O824 O 0.78618 0.74690 0.65580
 O825 O 0.67053 0.75023 0.70764
 O826 O 0.66624 0.78867 0.75158
 O827 O 0.70797 0.66767 0.75347
 O828 O 0.75411 0.65681 0.78402
 Zr829 Zr 0.75161 0.69161 0.74791
 O830 O 0.78361 0.71792 0.77618
 Zr831 Zr 0.69760 0.74928 0.74974
 O832 O 0.72706 0.77805 0.77823
 Zr833 Zr 0.75114 0.74721 0.69184
 O834 O 0.78306 0.77592 0.71755
 Zr835 Zr 0.75811 0.74967 0.80511
 O836 O 0.72581 0.72059 0.77965
 Zr837 Zr 0.81153 0.74720 0.74699
 O838 O 0.78211 0.71805 0.71832
 Zr839 Zr 0.75739 0.80502 0.74902
 O840 O 0.72514 0.77897 0.72035
 O841 O 0.72164 0.71872 0.71948
 O842 O 0.78771 0.77822 0.77751
 C843 C 0.74895 0.67514 0.67563
 C844 C 0.67917 0.67774 0.75588
 C845 C 0.67839 0.75120 0.67814
 C846 C 0.75960 0.82178 0.82115
 C847 C 0.83124 0.75107 0.81809
 C848 C 0.83037 0.81864 0.74573
 H849 H 0.79692 0.70329 0.78885
 H850 H 0.79594 0.78849 0.70246
 H851 H 0.70679 0.70540 0.70695
 H852 H 0.71362 0.79153 0.79201
 H853 H 0.70619 0.73621 0.83499
 H854 H 0.67040 0.76067 0.80369
 H855 H 0.84043 0.76036 0.69407
 H856 H 0.80263 0.73143 0.66250
 H857 H 0.77914 0.70102 0.83768
 H858 H 0.74329 0.66603 0.80276
 H859 H 0.77134 0.83538 0.69712
 H860 H 0.73870 0.80091 0.66507
 H861 H 0.80291 0.66268 0.73072
 H862 H 0.84040 0.69426 0.76041
 H863 H 0.67246 0.80323 0.73418
 H864 H 0.70723 0.83712 0.76524
 O865 O 0.25152 0.67101 0.29922
 O866 O 0.21620 0.65980 0.25673
 O867 O 0.33320 0.70901 0.25549
 O868 O 0.34562 0.74831 0.22267
 O869 O 0.29281 0.75528 0.33638
 O870 O 0.24941 0.78937 0.34459
 O871 O 0.24916 0.79152 0.16850
 O872 O 0.28388 0.75027 0.16051
 O873 O 0.16722 0.75133 0.21061
 O874 O 0.15569 0.72037 0.25474
 O875 O 0.20777 0.83494 0.24887
 O876 O 0.25183 0.84719 0.28187
 O877 O 0.24835 0.83152 0.20478
 O878 O 0.28794 0.84191 0.25046
 O879 O 0.16891 0.79741 0.25044
 O880 O 0.16065 0.75190 0.29097
 O881 O 0.20482 0.75144 0.17181
 O882 O 0.24960 0.71111 0.16481
 O883 O 0.24928 0.71006 0.33654
 O884 O 0.21265 0.75568 0.34305
 O885 O 0.33166 0.75583 0.29880
 O886 O 0.33902 0.79055 0.25091
 O887 O 0.29505 0.67061 0.25511
 O888 O 0.24971 0.66075 0.21972
 Zr889 Zr 0.25159 0.69554 0.25595
 O890 O 0.22101 0.72155 0.22614
 Zr891 Zr 0.30723 0.75165 0.25494
 O892 O 0.28005 0.77912 0.22292
 Zr893 Zr 0.25057 0.75285 0.31012
 O894 O 0.22194 0.78249 0.28169
 Zr895 Zr 0.24873 0.75041 0.19643
 O896 O 0.27981 0.72235 0.22456
 Zr897 Zr 0.19342 0.75362 0.25279
 O898 O 0.22021 0.72370 0.28315
 Zr899 Zr 0.25002 0.80872 0.24954
 O900 O 0.27901 0.78298 0.28174
 O901 O 0.28069 0.72299 0.28496
 O902 O 0.21953 0.78168 0.22141
 C903 C 0.25038 0.68061 0.32812
 C904 C 0.32427 0.67978 0.25547
 C905 C 0.32209 0.75681 0.32787
 C906 C 0.24833 0.82104 0.17603
 C907 C 0.17570 0.75130 0.18138
 C908 C 0.17849 0.82645 0.24916
 H909 H 0.20744 0.70665 0.21404
 H910 H 0.20913 0.79649 0.29555
 H911 H 0.29444 0.71009 0.29906
 H912 H 0.29435 0.79127 0.20876
 H913 H 0.30155 0.73684 0.16839
 H914 H 0.33775 0.75625 0.20201
 H915 H 0.16185 0.77238 0.30248
 H916 H 0.19774 0.73820 0.33786
 H917 H 0.22946 0.69915 0.16709
 H918 H 0.26605 0.66666 0.20384
 H919 H 0.23872 0.84126 0.30045
 H920 H 0.26282 0.80683 0.33624
 H921 H 0.19932 0.66737 0.27130
 H922 H 0.16367 0.70039 0.24529
 H923 H 0.33393 0.80546 0.26838
 H924 H 0.29999 0.83978 0.23038
 O925 O 0.74959 0.33195 0.29224
 O926 O 0.78266 0.34132 0.24684
 O927 O 0.66492 0.29364 0.25049
 O928 O 0.65401 0.25372 0.21620
 O929 O 0.70454 0.24997 0.33156
 O930 O 0.74879 0.21425 0.33999
 O931 O 0.74863 0.20533 0.16679
 O932 O 0.71022 0.24655 0.15847
 O933 O 0.82914 0.25007 0.20356
 O934 O 0.83937 0.28554 0.24967
 O935 O 0.79212 0.16782 0.24559
 O936 O 0.74778 0.15831 0.28427
 O937 O 0.74913 0.16749 0.20533
 O938 O 0.71307 0.15793 0.25087
 O939 O 0.82993 0.20639 0.24492
 O940 O 0.84068 0.25086 0.28208
 O941 O 0.79060 0.24964 0.16566
 O942 O 0.74683 0.28403 0.15584
 O943 O 0.75188 0.29414 0.33080
 O944 O 0.78408 0.24902 0.34027
 O945 O 0.66602 0.24814 0.29355
 O946 O 0.65793 0.21251 0.24943
 O947 O 0.70342 0.33163 0.24948
 O948 O 0.74622 0.34118 0.21318
 Zr949 Zr 0.74650 0.30644 0.24950
 O950 O 0.77587 0.27947 0.21954
 Zr951 Zr 0.69082 0.25070 0.25042
 O952 O 0.71781 0.22097 0.22033
 Zr953 Zr 0.74763 0.25094 0.30569
 O954 O 0.77720 0.22131 0.27809
 Zr955 Zr 0.74792 0.24869 0.19175
 O956 O 0.71799 0.27875 0.21900
 Zr957 Zr 0.80452 0.24924 0.24702
 O958 O 0.77784 0.27909 0.27735
 Zr959 Zr 0.74896 0.19317 0.24798
 O960 O 0.71919 0.22019 0.27829
 O961 O 0.71760 0.28024 0.27972
 O962 O 0.77820 0.21927 0.21766
 C963 C 0.75228 0.32323 0.32136
 C964 C 0.67416 0.32282 0.25020
 C965 C 0.67524 0.24822 0.32261
 C966 C 0.74919 0.17623 0.17616
 C967 C 0.81989 0.25042 0.17446
 C968 C 0.82120 0.17716 0.24409
 H969 H 0.78876 0.29411 0.20645
 H970 H 0.79072 0.20820 0.29214
 H971 H 0.70451 0.29385 0.29377
 H972 H 0.70345 0.20778 0.20718
 H973 H 0.69437 0.26271 0.16501
 H974 H 0.65977 0.23953 0.19836
 H975 H 0.83715 0.23301 0.29696
 H976 H 0.80208 0.26153 0.33166
 H977 H 0.76062 0.30180 0.16270
 H978 H 0.73066 0.33393 0.19706
 H979 H 0.76623 0.16194 0.29843
 H980 H 0.73408 0.19750 0.33238
 H981 H 0.79992 0.33425 0.26122
 H982 H 0.83510 0.30087 0.23236
 H983 H 0.66533 0.19667 0.26518
 H984 H 0.69773 0.16176 0.23345
 C985 C 0.23235 0.12834 0.09811
 C986 C 0.25405 0.10257 0.09809
 C987 C 0.27936 0.10491 0.12070
 C988 C 0.28029 0.12926 0.14368
 C989 C 0.25670 0.15275 0.14448
 C990 C 0.23398 0.15281 0.12036
 C991 C 0.19878 0.15520 0.12355
 C992 C 0.19661 0.12842 0.09958
 H993 H 0.29889 0.08832 0.12150
 H994 H 0.29932 0.12949 0.16106
 H995 H 0.18949 0.17815 0.11438
 H996 H 0.19018 0.14847 0.14761
 H997 H 0.18546 0.13621 0.07693
 H998 H 0.18678 0.10605 0.10969
 C999 C 0.73546 0.59621 0.63489
 C1000 C 0.74057 0.60336 0.60282
 C1001 C 0.74490 0.63547 0.59446
 C1002 C 0.74714 0.65900 0.61810
 C1003 C 0.74556 0.65081 0.65063
 C1004 C 0.73810 0.61930 0.65824
 C1005 C 0.75415 0.59692 0.68066
 C1006 C 0.75101 0.57156 0.65513
 H1007 H 0.74742 0.64226 0.56977
 H1008 H 0.75130 0.68336 0.61087
 H1009 H 0.73948 0.59192 0.70202
 H1010 H 0.77925 0.60373 0.68567
 H1011 H 0.73426 0.55218 0.66169
 H1012 H 0.77427 0.56350 0.64542
 C1013 C 0.75266 0.91023 0.14220
 C1014 C 0.75436 0.90111 0.11023
 C1015 C 0.75998 0.86870 0.10370
 C1016 C 0.75998 0.84601 0.12820
 C1017 C 0.75472 0.85518 0.16002
 C1018 C 0.75316 0.88783 0.16646
 C1019 C 0.73038 0.90627 0.18636
 C1020 C 0.72950 0.93072 0.15973
 H1021 H 0.76311 0.86070 0.07944
 H1022 H 0.76312 0.82121 0.12199
 H1023 H 0.74170 0.91537 0.20844
 H1024 H 0.70736 0.89367 0.18986
 H1025 H 0.74001 0.95398 0.16661
 H1026 H 0.70578 0.93207 0.14812
 C1027 C 0.26122 0.40065 0.63321
 C1028 C 0.25291 0.39267 0.60202
 C1029 C 0.24880 0.36013 0.59494
 C1030 C 0.24912 0.33717 0.61923
 C1031 C 0.25327 0.34624 0.65124
 C1032 C 0.26117 0.37806 0.65724
 C1033 C 0.24801 0.40101 0.68088
 C1034 C 0.24810 0.42577 0.65453
 H1035 H 0.24430 0.35251 0.57078
 H1036 H 0.24469 0.31258 0.61300
 H1037 H 0.26530 0.40632 0.70018
 H1038 H 0.22369 0.39445 0.68901
 H1039 H 0.26545 0.44531 0.65866
 H1040 H 0.22384 0.43360 0.64736
 C1041 C 0.76555 0.12916 0.89640
 C1042 C 0.75277 0.09858 0.89250
 C1043 C 0.73822 0.09298 0.86238
 C1044 C 0.73698 0.11708 0.83869
 C1045 C 0.74912 0.14792 0.84463
 C1046 C 0.76289 0.15247 0.87419
 C1047 C 0.77720 0.17746 0.89446
 C1048 C 0.77993 0.15160 0.92006
 H1049 H 0.72868 0.06987 0.85638
 H1050 H 0.72622 0.11160 0.81595
 H1051 H 0.75987 0.19650 0.90047
 H1052 H 0.80055 0.18554 0.88507
 H1053 H 0.76409 0.15575 0.94080
 H1054 H 0.80509 0.14589 0.92592
 C1055 C 0.26357 0.60136 0.36837
 C1056 C 0.25147 0.60621 0.39888
 C1057 C 0.24370 0.63774 0.40760
 C1058 C 0.24430 0.66246 0.38496
 C1059 C 0.25225 0.65602 0.35307
 C1060 C 0.26365 0.62549 0.34601
 C1061 C 0.25551 0.60313 0.31964
 C1062 C 0.25548 0.57665 0.34425
 H1063 H 0.23612 0.64313 0.43158
 H1064 H 0.23696 0.68610 0.39207
 H1065 H 0.27517 0.60097 0.30209
 H1066 H 0.23159 0.60778 0.30929
 H1067 H 0.27515 0.55928 0.34088
 H1068 H 0.23158 0.56596 0.34817
 C1069 C 0.23693 0.85860 0.90337
 C1070 C 0.24175 0.89050 0.89477
 C1071 C 0.25123 0.89647 0.86312
 C1072 C 0.25267 0.87182 0.84054
 C1073 C 0.24506 0.84027 0.84897
 C1074 C 0.23889 0.83417 0.88111
 C1075 C 0.21241 0.81588 0.89595
 C1076 C 0.20978 0.84268 0.92003
 H1077 H 0.25642 0.92050 0.85544
 H1078 H 0.25881 0.87771 0.81626
 H1079 H 0.22079 0.79315 0.90652
 H1080 H 0.19126 0.81377 0.88017
 H1081 H 0.21616 0.83525 0.94455
 H1082 H 0.18697 0.85587 0.91781
 C1083 C 0.76977 0.36655 0.39846
 C1084 C 0.75568 0.39630 0.39342
 C1085 C 0.74603 0.40354 0.36211
 C1086 C 0.74618 0.38006 0.33832
 C1087 C 0.75585 0.34869 0.34527
 C1088 C 0.76977 0.34332 0.37507
 C1089 C 0.76560 0.31722 0.39870
 C1090 C 0.76526 0.34278 0.42435
 H1091 H 0.73710 0.42696 0.35624
 H1092 H 0.73690 0.38609 0.31508
 H1093 H 0.78685 0.30151 0.39997
 H1094 H 0.74257 0.30463 0.39611
 H1095 H 0.78620 0.34158 0.44048
 H1096 H 0.74183 0.34523 0.43640
 C1097 C 0.10497 0.27045 0.12642
 C1098 C 0.10810 0.25592 0.09650
 C1099 C 0.13890 0.24477 0.08833
 C1100 C 0.16404 0.24544 0.11056
 C1101 C 0.15880 0.25614 0.14185
 C1102 C 0.12938 0.27007 0.14853
 C1103 C 0.10719 0.26505 0.17572
 C1104 C 0.08031 0.26547 0.15161
 H1105 H 0.14384 0.23543 0.06491
 H1106 H 0.18703 0.23603 0.10371
 H1107 H 0.10677 0.28576 0.19213
 H1108 H 0.11037 0.24151 0.18733
 H1109 H 0.06436 0.28638 0.15433
 H1110 H 0.06789 0.24222 0.14929
 C1111 C 0.59723 0.74249 0.64033
 C1112 C 0.60315 0.74896 0.60832
 C1113 C 0.63329 0.76119 0.60016
 C1114 C 0.65786 0.76266 0.62297
 C1115 C 0.65242 0.75270 0.65454
 C1116 C 0.62123 0.74443 0.66289
 C1117 C 0.60909 0.71616 0.68058
 C1118 C 0.58282 0.71395 0.65578
 H1119 H 0.63814 0.76839 0.57595
 H1120 H 0.68123 0.77073 0.61569
 H1121 H 0.60015 0.72258 0.70458
 H1122 H 0.62593 0.69575 0.67999
 H1123 H 0.55877 0.71901 0.66556
 H1124 H 0.58447 0.69220 0.64086
 C1125 C 0.09144 0.75705 0.87005
 C1126 C 0.09736 0.74511 0.90084
 C1127 C 0.12678 0.72878 0.90496
 C1128 C 0.14936 0.72672 0.88043
 C1129 C 0.14342 0.74045 0.85063
 C1130 C 0.11348 0.75394 0.84556
 C1131 C 0.10543 0.78529 0.83135
 C1132 C 0.08193 0.78939 0.85833
 H1133 H 0.13398 0.71939 0.92772
 H1134 H 0.17200 0.71535 0.88523
 H1135 H 0.09370 0.78258 0.80786
 H1136 H 0.12559 0.80243 0.83210
 H1137 H 0.05680 0.79010 0.85002
 H1138 H 0.08886 0.80877 0.87495
 C1139 C 0.63300 0.25660 0.40107
 C1140 C 0.60128 0.24883 0.39506
 C1141 C 0.59425 0.23907 0.36361
 C1142 C 0.61832 0.23843 0.33991
 C1143 C 0.65021 0.24703 0.34713
 C1144 C 0.65610 0.25536 0.37852
 C1145 C 0.68116 0.26798 0.40004
 C1146 C 0.65524 0.26890 0.42584
 H1147 H 0.57012 0.23277 0.35708
 H1148 H 0.61184 0.23147 0.31600
 H1149 H 0.68916 0.29201 0.39254
 H1150 H 0.70034 0.25038 0.40470
 H1151 H 0.64940 0.29347 0.43360
 H1152 H 0.65910 0.25147 0.44531
 C1153 C 0.86479 0.73615 0.11012
 C1154 C 0.89521 0.74975 0.11365
 C1155 C 0.90301 0.76108 0.14446
 C1156 C 0.88020 0.76133 0.16912
 C1157 C 0.84871 0.75108 0.16357
 C1158 C 0.84221 0.73720 0.13412
 C1159 C 0.81548 0.74293 0.11150
 C1160 C 0.84006 0.74181 0.08511
 H1161 H 0.92660 0.76986 0.14985
 H1162 H 0.88686 0.77104 0.19201
 H1163 H 0.80444 0.76679 0.11446
 H1164 H 0.79847 0.72268 0.11081
 H1165 H 0.84323 0.76497 0.07275
 H1166 H 0.83697 0.72096 0.06916
 C1167 C 0.40318 0.23841 0.63758
 C1168 C 0.39478 0.24118 0.60554
 C1169 C 0.36215 0.23998 0.59780
 C1170 C 0.33887 0.23991 0.62179
 C1171 C 0.34766 0.24147 0.65414
 C1172 C 0.38017 0.23883 0.66132
 C1173 C 0.40051 0.25861 0.68267
 C1174 C 0.42571 0.25801 0.65677
 H1175 H 0.35463 0.24051 0.57319
 H1176 H 0.31404 0.24042 0.61485
 H1177 H 0.40773 0.24551 0.70445
 H1178 H 0.39037 0.28268 0.68684
 H1179 H 0.44738 0.24445 0.66358
 H1180 H 0.43030 0.28174 0.64604
 C1181 C 0.86557 0.23807 0.90088
 C1182 C 0.89740 0.24511 0.89358
 C1183 C 0.90498 0.24973 0.86113
 C1184 C 0.88115 0.24986 0.83770
 C1185 C 0.84888 0.24638 0.84601
 C1186 C 0.84187 0.23945 0.87779
 C1187 C 0.81913 0.25568 0.89971
 C1188 C 0.84470 0.25361 0.92508
 H1189 H 0.92938 0.25305 0.85355
 H1190 H 0.88802 0.25379 0.81322
 H1191 H 0.79789 0.24101 0.90518
 H1192 H 0.81379 0.28049 0.89227
 H1193 H 0.83844 0.23713 0.94475
 H1194 H 0.85381 0.27723 0.93277
 C1195 C 0.40058 0.76849 0.37090
 C1196 C 0.39311 0.76027 0.40226
 C1197 C 0.36086 0.75514 0.40974
 C1198 C 0.33753 0.75516 0.38569
 C1199 C 0.34604 0.75972 0.35351
 C1200 C 0.37769 0.76791 0.34707
 C1201 C 0.40045 0.75431 0.32349
 C1202 C 0.42555 0.75515 0.34951
 H1203 H 0.35384 0.75011 0.43397
 H1204 H 0.31314 0.75000 0.39221
 H1205 H 0.40544 0.77106 0.30369
 H1206 H 0.39387 0.72978 0.31612
 H1207 H 0.44491 0.77254 0.34480
 H1208 H 0.43370 0.73114 0.35704
 C1209 C 0.13662 0.10306 0.25981
 C1210 C 0.10675 0.10849 0.24566
 C1211 C 0.10082 0.13989 0.23483
 C1212 C 0.12481 0.16321 0.23516
 C1213 C 0.15581 0.15593 0.24567
 C1214 C 0.16058 0.12595 0.25932
 C1215 C 0.18601 0.10192 0.25353
 C1216 C 0.15996 0.07683 0.25408
 H1217 H 0.07761 0.14688 0.22615
 H1218 H 0.11933 0.18657 0.22582
 H1219 H 0.20277 0.10004 0.27390
 H1220 H 0.19743 0.10465 0.22986
 H1221 H 0.16184 0.06046 0.27473
 H1222 H 0.15633 0.06493 0.23076
 C1223 C 0.63670 0.59876 0.76589
 C1224 C 0.60470 0.60709 0.76202
 C1225 C 0.59707 0.63974 0.76138
 C1226 C 0.62123 0.66292 0.76082
 C1227 C 0.65362 0.65393 0.76044
 C1228 C 0.66058 0.62161 0.76481
 C1229 C 0.68226 0.60027 0.74650
 C1230 C 0.65619 0.57523 0.74787
 H1231 H 0.57246 0.64729 0.75983
 H1232 H 0.61446 0.68768 0.75885
 H1233 H 0.70384 0.59368 0.76030
 H1234 H 0.68686 0.60919 0.72206
 H1235 H 0.66266 0.55430 0.76264
 H1236 H 0.64587 0.56946 0.72422
 C1237 C 0.86806 0.09893 0.72889
 C1238 C 0.89779 0.10385 0.74366
 C1239 C 0.90347 0.13472 0.75590
 C1240 C 0.87945 0.15809 0.75569
 C1241 C 0.84868 0.15124 0.74404
 C1242 C 0.84414 0.12178 0.72943
 C1243 C 0.81851 0.09772 0.73403
 C1244 C 0.84450 0.07261 0.73344
 H1245 H 0.92642 0.14121 0.76558
 H1246 H 0.88466 0.18113 0.76595
 H1247 H 0.80223 0.09640 0.71325
 H1248 H 0.80656 0.09988 0.75750
 H1249 H 0.84299 0.05676 0.71236
 H1250 H 0.84758 0.06012 0.75653
 C1251 C 0.40479 0.64020 0.26419
 C1252 C 0.39793 0.60831 0.25789
 C1253 C 0.36567 0.59937 0.25543
 C1254 C 0.34150 0.62249 0.25554
 C1255 C 0.34916 0.65510 0.25762
 C1256 C 0.38100 0.66310 0.26374
 C1257 C 0.40213 0.68681 0.24782
 C1258 C 0.42821 0.66175 0.24852
 H1259 H 0.35925 0.57464 0.25218
 H1260 H 0.31707 0.61487 0.25246
 H1261 H 0.40735 0.70759 0.26326
 H1262 H 0.39402 0.69282 0.22339
 H1263 H 0.44828 0.66801 0.26457
 H1264 H 0.43533 0.65331 0.22451
 C1265 C 0.13150 0.89495 0.73409
 C1266 C 0.10030 0.89150 0.74570
 C1267 C 0.09077 0.86023 0.75401
 C1268 C 0.11265 0.83477 0.75355
 C1269 C 0.14492 0.83996 0.74592
 C1270 C 0.15320 0.87011 0.73468
 C1271 C 0.18024 0.89133 0.74354
 C1272 C 0.15661 0.91864 0.74293
 H1273 H 0.06649 0.85511 0.76088
 H1274 H 0.10458 0.81139 0.76058
 H1275 H 0.19842 0.89283 0.72443
 H1276 H 0.18976 0.88629 0.76769
 H1277 H 0.16138 0.93590 0.72352
 H1278 H 0.15247 0.92947 0.76668
 C1279 C 0.59511 0.36549 0.25943
 C1280 C 0.60344 0.39728 0.25417
 C1281 C 0.63609 0.40472 0.25229
 C1282 C 0.65908 0.38053 0.25165
 C1283 C 0.65000 0.34822 0.25266
 C1284 C 0.61784 0.34149 0.25851
 C1285 C 0.59569 0.31909 0.24212
 C1286 C 0.57080 0.34536 0.24318
 H1287 H 0.64380 0.42921 0.25018
 H1288 H 0.68383 0.38724 0.24903
 H1289 H 0.58954 0.29833 0.25728
 H1290 H 0.60360 0.31310 0.21763
 H1291 H 0.55037 0.33973 0.25897
 H1292 H 0.56423 0.35462 0.21932
 C1293 C 0.86872 0.90808 0.27271
 C1294 C 0.89864 0.90137 0.25937
 C1295 C 0.90509 0.86902 0.25236
 C1296 C 0.88133 0.84566 0.25498
 C1297 C 0.85012 0.85387 0.26400
 C1298 C 0.84495 0.88510 0.27436
 C1299 C 0.81939 0.90822 0.26593
 C1300 C 0.84526 0.93344 0.26416
 H1301 H 0.92845 0.86144 0.24463
 H1302 H 0.88706 0.82150 0.24814
 H1303 H 0.80245 0.91205 0.28584
 H1304 H 0.80818 0.90305 0.24254
 H1305 H 0.84312 0.95180 0.28303
 H1306 H 0.84898 0.94293 0.23979
 C1307 C 0.40423 0.36536 0.73811
 C1308 C 0.39702 0.39746 0.74324
 C1309 C 0.36480 0.40574 0.74733
 C1310 C 0.34124 0.38203 0.74926
 C1311 C 0.34944 0.34945 0.74766
 C1312 C 0.38108 0.34192 0.74047
 C1313 C 0.40340 0.31946 0.75659
 C1314 C 0.42879 0.34505 0.75375
 H1315 H 0.35794 0.43043 0.74985
 H1316 H 0.31680 0.38926 0.75313
 H1317 H 0.40852 0.29812 0.74192
 H1318 H 0.39640 0.31438 0.78156
 H1319 H 0.44833 0.33854 0.73718
 H1320 H 0.43669 0.35472 0.77705
 C1321 C 0.13200 0.26888 0.90217
 C1322 C 0.10454 0.25011 0.89830
 C1323 C 0.09977 0.23662 0.86777
 C1324 C 0.12309 0.23899 0.84400
 C1325 C 0.15221 0.25438 0.85002
 C1326 C 0.15532 0.27062 0.87885
 C1327 C 0.18175 0.27098 0.90248
 C1328 C 0.15636 0.26880 0.92811
 H1329 H 0.07799 0.22429 0.86174
 H1330 H 0.11884 0.22743 0.82139
 H1331 H 0.19469 0.29404 0.90255
 H1332 H 0.19714 0.24957 0.90108
 H1333 H 0.15502 0.29051 0.94312
 H1334 H 0.15689 0.24598 0.94145
 C1335 C 0.63192 0.76851 0.41044
 C1336 C 0.60136 0.75718 0.40367
 C1337 C 0.59354 0.75190 0.37149
 C1338 C 0.61692 0.75431 0.34766
 C1339 C 0.64876 0.76163 0.35555
 C1340 C 0.65511 0.77033 0.38706
 C1341 C 0.68066 0.75967 0.40931
 C1342 C 0.65522 0.75775 0.43493
 H1343 H 0.56961 0.74494 0.36486
 H1344 H 0.61037 0.74872 0.32340
 H1345 H 0.69857 0.77862 0.41376
 H1346 H 0.69067 0.73610 0.40277
 H1347 H 0.65843 0.77567 0.45409
 H1348 H 0.65055 0.73310 0.44327
 C1349 C 0.87558 0.77804 0.89132
 C1350 C 0.90287 0.75860 0.89210
 C1351 C 0.90869 0.74021 0.86434
 C1352 C 0.88616 0.73875 0.83936
 C1353 C 0.85691 0.75495 0.84175
 C1354 C 0.85329 0.77595 0.86717
 C1355 C 0.82594 0.78153 0.88894
 C1356 C 0.85015 0.78361 0.91565
 H1357 H 0.93031 0.72655 0.86167
 H1358 H 0.89088 0.72354 0.81915
 H1359 H 0.80989 0.76060 0.89102
 H1360 H 0.81398 0.80456 0.88395
 H1361 H 0.84825 0.76380 0.93306
 H1362 H 0.85144 0.80777 0.92628
 C1363 C 0.40744 0.26453 0.35803
 C1364 C 0.39854 0.26042 0.38982
 C1365 C 0.36576 0.26011 0.39684
 C1366 C 0.34300 0.25997 0.37239
 C1367 C 0.35239 0.25986 0.34018
 C1368 C 0.38490 0.26401 0.33375
 C1369 C 0.40642 0.24570 0.31226
 C1370 C 0.43107 0.24644 0.33874
 H1371 H 0.35775 0.25859 0.42125
 H1372 H 0.31812 0.25825 0.37884
 H1373 H 0.41364 0.25968 0.29107
 H1374 H 0.39732 0.22141 0.30706
 H1375 H 0.45232 0.26105 0.33283
 H1376 H 0.43638 0.22258 0.34882
 C1377 C 0.13155 0.76130 0.10399
 C1378 C 0.09980 0.75426 0.11078
 C1379 C 0.09330 0.74523 0.14253
 C1380 C 0.11796 0.74409 0.16563
 C1381 C 0.14996 0.75136 0.15751
 C1382 C 0.15525 0.75952 0.12595
 C1383 C 0.18043 0.76960 0.10325
 C1384 C 0.15372 0.77137 0.07821
 H1385 H 0.06919 0.73964 0.14971
 H1386 H 0.11188 0.73751 0.18974
 H1387 H 0.19806 0.75043 0.09867
 H1388 H 0.19067 0.79317 0.10950
 H1389 H 0.15585 0.75312 0.05922
 H1390 H 0.14903 0.79597 0.06981
 C1391 C 0.63148 0.24948 0.59977
 C1392 C 0.59924 0.25326 0.60653
 C1393 C 0.59147 0.25807 0.63892
 C1394 C 0.61558 0.25796 0.66271
 C1395 C 0.64811 0.25354 0.65459
 C1396 C 0.65451 0.24993 0.62239
 C1397 C 0.68071 0.24462 0.59919
 C1398 C 0.65463 0.24425 0.57346
 H1399 H 0.56686 0.26112 0.64595
 H1400 H 0.60867 0.26111 0.68727
 H1401 H 0.69253 0.22122 0.60261
 H1402 H 0.69698 0.26541 0.59753
 H1403 H 0.65174 0.22066 0.56193
 H1404 H 0.65579 0.26487 0.55698
 C1405 C 0.86000 0.25723 0.09400
 C1406 C 0.89216 0.25289 0.10146
 C1407 C 0.90076 0.25236 0.13382
 C1408 C 0.87733 0.25250 0.15765
 C1409 C 0.84469 0.25280 0.14965
 C1410 C 0.83680 0.25690 0.11754
 C1411 C 0.81415 0.23865 0.09715
 C1412 C 0.83948 0.23916 0.07137
 H1413 H 0.92556 0.25061 0.14067
 H1414 H 0.88485 0.25088 0.18220
 H1415 H 0.79266 0.25278 0.09098
 H1416 H 0.80932 0.21441 0.10656
 H1417 H 0.83264 0.25373 0.05042
 H1418 H 0.84919 0.21522 0.06570
 C1419 C 0.39246 0.75018 0.63780
 C1420 C 0.38808 0.73965 0.60680
 C1421 C 0.35773 0.72681 0.59964
 C1422 C 0.33333 0.72580 0.62307
 C1423 C 0.33899 0.73688 0.65443
 C1424 C 0.36946 0.74842 0.66039
 C1425 C 0.39004 0.76277 0.68539
 C1426 C 0.41621 0.76452 0.65980
 H1427 H 0.35272 0.71807 0.57596
 H1428 H 0.31027 0.71626 0.61668
 H1429 H 0.39545 0.74573 0.70485
 H1430 H 0.38124 0.78646 0.69315
 H1431 H 0.43663 0.74836 0.66440
 H1432 H 0.42262 0.78923 0.65294
 C1433 C 0.22184 0.13204 0.89864
 C1434 C 0.24485 0.10795 0.89998
 C1435 C 0.26739 0.10661 0.87521
 C1436 C 0.26839 0.13048 0.85176
 C1437 C 0.24746 0.15665 0.85308
 C1438 C 0.22333 0.15599 0.87594
 C1439 C 0.21277 0.18081 0.89892
 C1440 C 0.21114 0.15462 0.92381
 H1441 H 0.28433 0.08723 0.87407
 H1442 H 0.28620 0.12903 0.83322
 H1443 H 0.18902 0.19066 0.89264
 H1444 H 0.23155 0.19879 0.90383
 H1445 H 0.18647 0.14950 0.93188
 H1446 H 0.22895 0.15742 0.94318
 C1447 C 0.75581 0.60721 0.37268
 C1448 C 0.74556 0.61068 0.40395
 C1449 C 0.73458 0.64146 0.41245
 C1450 C 0.73457 0.66682 0.38997
 C1451 C 0.74492 0.66181 0.35829
 C1452 C 0.75520 0.63120 0.35117
 C1453 C 0.76839 0.61123 0.32511
 C1454 C 0.76870 0.58384 0.34933
 H1455 H 0.72647 0.64608 0.43641
 H1456 H 0.72627 0.69003 0.39732
 H1457 H 0.79256 0.61910 0.31780
 H1458 H 0.75122 0.60767 0.30538
 H1459 H 0.79313 0.57569 0.35534
 H1460 H 0.75135 0.56465 0.34380
 C1461 C 0.74238 0.13397 0.09764
 C1462 C 0.74963 0.10224 0.10393
 C1463 C 0.75763 0.09499 0.13581
 C1464 C 0.75755 0.11900 0.15955
 C1465 C 0.74993 0.15099 0.15193
 C1466 C 0.74288 0.15701 0.12023
 C1467 C 0.73346 0.18260 0.09770
 C1468 C 0.73318 0.15659 0.07195
 H1469 H 0.76338 0.07081 0.14254
 H1470 H 0.76352 0.11246 0.18371
 H1471 H 0.75253 0.20058 0.09437
 H1472 H 0.70947 0.19236 0.10310
 H1473 H 0.75228 0.15944 0.05390
 H1474 H 0.70902 0.15181 0.06230
 C1475 C 0.25601 0.62500 0.60236
 C1476 C 0.24748 0.59332 0.60788
 C1477 C 0.24027 0.58452 0.63941
 C1478 C 0.23896 0.60769 0.66370
 C1479 C 0.24421 0.64016 0.65674
 C1480 C 0.25420 0.64778 0.62599
 C1481 C 0.24223 0.67247 0.60343
 C1482 C 0.24445 0.64747 0.57747
 H1483 H 0.23504 0.55998 0.64516
 H1484 H 0.23263 0.60034 0.68752
 H1485 H 0.25943 0.69228 0.60027
 H1486 H 0.21738 0.67993 0.60867
 H1487 H 0.26311 0.65278 0.55953
 H1488 H 0.22092 0.64049 0.56754
 C1489 C 0.75018 0.86292 0.90002
 C1490 C 0.75728 0.89483 0.89449
 C1491 C 0.76647 0.90257 0.86303
 C1492 C 0.76742 0.87891 0.83893
 C1493 C 0.75985 0.84675 0.84575
 C1494 C 0.75172 0.84023 0.87711
 C1495 C 0.74046 0.81445 0.89858
 C1496 C 0.73912 0.84001 0.92472
 H1497 H 0.77210 0.92692 0.85684
 H1498 H 0.77376 0.88589 0.81506
 H1499 H 0.75882 0.79595 0.90284
 H1500 H 0.71663 0.80532 0.89157
 H1501 H 0.75708 0.83654 0.94381
 H1502 H 0.71450 0.84493 0.93300
 C1503 C 0.27034 0.36806 0.39127
 C1504 C 0.25937 0.39904 0.38597
 C1505 C 0.25196 0.40748 0.35435
 C1506 C 0.25244 0.38441 0.32991
 C1507 C 0.25977 0.35230 0.33673
 C1508 C 0.27030 0.34533 0.36748
 C1509 C 0.26077 0.31953 0.38992
 C1510 C 0.26092 0.34449 0.41604
 H1511 H 0.24494 0.43159 0.34865
 H1512 H 0.24555 0.39140 0.30613
 H1513 H 0.27975 0.30137 0.39284
 H1514 H 0.23664 0.30989 0.38480
 H1515 H 0.28006 0.34071 0.43390
 H1516 H 0.23692 0.34933 0.42609
 C1517 C 0.23679 0.89783 0.13129
 C1518 C 0.24161 0.89049 0.09937
 C1519 C 0.24949 0.85840 0.09274
 C1520 C 0.25178 0.83556 0.11758
 C1521 C 0.24684 0.84433 0.14980
 C1522 C 0.23963 0.87616 0.15505
 C1523 C 0.23213 0.89964 0.18038
 C1524 C 0.22928 0.92435 0.15355
 H1525 H 0.25343 0.85084 0.06847
 H1526 H 0.25745 0.81120 0.11148
 H1527 H 0.25263 0.90385 0.19656
 H1528 H 0.20910 0.89434 0.19216
 H1529 H 0.24833 0.94270 0.15403
 H1530 H 0.20468 0.93358 0.15047
 C1531 C 0.76039 0.39883 0.63298
 C1532 C 0.75261 0.39182 0.60139
 C1533 C 0.74660 0.35979 0.59359
 C1534 C 0.74563 0.33638 0.61749
 C1535 C 0.75026 0.34456 0.64975
 C1536 C 0.75911 0.37587 0.65655
 C1537 C 0.74580 0.39871 0.68023
 C1538 C 0.74732 0.42392 0.65439
 H1539 H 0.74202 0.35296 0.56922
 H1540 H 0.74018 0.31213 0.61075
 H1541 H 0.76259 0.40323 0.70015
 H1542 H 0.72108 0.39262 0.68749
 H1543 H 0.76506 0.44290 0.65939
 H1544 H 0.72350 0.43253 0.64668
 C1545 C 0.13296 0.10374 0.77574
 C1546 C 0.10210 0.10936 0.76439
 C1547 C 0.09455 0.14072 0.75523
 C1548 C 0.11834 0.16435 0.75414
 C1549 C 0.15030 0.15699 0.76171
 C1550 C 0.15644 0.12682 0.77427
 C1551 C 0.18162 0.10308 0.76630
 C1552 C 0.15584 0.07772 0.76796
 H1553 H 0.07057 0.14675 0.74792
 H1554 H 0.11195 0.18788 0.74586
 H1555 H 0.19969 0.10090 0.78549
 H1556 H 0.19147 0.10643 0.74201
 H1557 H 0.15908 0.06096 0.78812
 H1558 H 0.15073 0.06634 0.74466
 C1559 C 0.63127 0.61008 0.27655
 C1560 C 0.60073 0.61503 0.26417
 C1561 C 0.59279 0.64640 0.25516
 C1562 C 0.61606 0.67070 0.25534
 C1563 C 0.64787 0.66399 0.26405
 C1564 C 0.65417 0.63374 0.27634
 C1565 C 0.68025 0.61069 0.26925
 C1566 C 0.65507 0.58471 0.26945
 H1567 H 0.56897 0.65198 0.24706
 H1568 H 0.60949 0.69421 0.24714
 H1569 H 0.69731 0.60870 0.28930
 H1570 H 0.69117 0.61454 0.24551
 H1571 H 0.65785 0.56775 0.28952
 H1572 H 0.65126 0.57355 0.24580
 C1573 C 0.09954 0.86888 0.24983
 C1574 C 0.10686 0.90108 0.24756
 C1575 C 0.13953 0.90878 0.24508
 C1576 C 0.16306 0.88455 0.24570
 C1577 C 0.15445 0.85196 0.24806
 C1578 C 0.12199 0.84566 0.24974
 C1579 C 0.09819 0.81960 0.25278
 C1580 C 0.07268 0.84594 0.25278
 H1581 H 0.14691 0.93341 0.24350
 H1582 H 0.18785 0.89146 0.24473
 H1583 H 0.10024 0.80687 0.27583
 H1584 H 0.09747 0.80417 0.23134
 H1585 H 0.05996 0.84824 0.27580
 H1586 H 0.05725 0.84575 0.23131
 C1587 C 0.60066 0.36735 0.76327
 C1588 C 0.60798 0.39896 0.75567
 C1589 C 0.64017 0.40626 0.74955
 C1590 C 0.66334 0.38196 0.74840
 C1591 C 0.65478 0.34972 0.75290
 C1592 C 0.62332 0.34341 0.76177
 C1593 C 0.60003 0.32006 0.74858
 C1594 C 0.57516 0.34627 0.75034
 H1595 H 0.64736 0.43057 0.74508
 H1596 H 0.68768 0.38838 0.74289
 H1597 H 0.59536 0.30014 0.76530
 H1598 H 0.60584 0.31277 0.72385
 H1599 H 0.55622 0.34148 0.76814
 H1600 H 0.56646 0.35415 0.72666
 C1601 C 0.86311 0.09800 0.23328
 C1602 C 0.89506 0.10606 0.23814
 C1603 C 0.90286 0.13862 0.23957
 C1604 C 0.87886 0.16184 0.24040
 C1605 C 0.84643 0.15302 0.24016
 C1606 C 0.83933 0.12093 0.23448
 C1607 C 0.81687 0.09902 0.25110
 C1608 C 0.84292 0.07392 0.24974
 H1609 H 0.92748 0.14605 0.24150
 H1610 H 0.88581 0.18652 0.24292
 H1611 H 0.79586 0.09307 0.23617
 H1612 H 0.81124 0.10697 0.27566
 H1613 H 0.83690 0.05356 0.23399
 H1614 H 0.85241 0.06727 0.27350
 C1615 C 0.38467 0.61926 0.72153
 C1616 C 0.38574 0.59343 0.74246
 C1617 C 0.35936 0.58880 0.76268
 C1618 C 0.33462 0.61150 0.76407
 C1619 C 0.33644 0.63976 0.74611
 C1620 C 0.36087 0.64202 0.72360
 C1621 C 0.38325 0.66852 0.71600
 C1622 C 0.40939 0.64354 0.71374
 H1623 H 0.35857 0.56840 0.77836
 H1624 H 0.31527 0.60796 0.78068
 H1625 H 0.38658 0.68528 0.73617
 H1626 H 0.37766 0.67989 0.69282
 H1627 H 0.42781 0.64581 0.73260
 H1628 H 0.41882 0.64057 0.68925
 C1629 C 0.87161 0.89788 0.74755
 C1630 C 0.90399 0.89130 0.74582
 C1631 C 0.91243 0.85888 0.74245
 C1632 C 0.88859 0.83482 0.74209
 C1633 C 0.85581 0.84276 0.74464
 C1634 C 0.84890 0.87503 0.74670
 C1635 C 0.82234 0.89823 0.75019
 C1636 C 0.84816 0.92420 0.75107
 H1637 H 0.93725 0.85211 0.74097
 H1638 H 0.89588 0.81020 0.74019
 H1639 H 0.80958 0.89538 0.77308
 H1640 H 0.80697 0.89922 0.72871
 H1641 H 0.85000 0.93632 0.77446
 H1642 H 0.84782 0.94017 0.73004
 C1643 C 0.40959 0.36618 0.23364
 C1644 C 0.40149 0.39827 0.23691
 C1645 C 0.36896 0.40637 0.23588
 C1646 C 0.34543 0.38261 0.23545
 C1647 C 0.35391 0.35014 0.23640
 C1648 C 0.38633 0.34265 0.23363
 C1649 C 0.40641 0.32075 0.25308
 C1650 C 0.43188 0.34645 0.25297
 H1651 H 0.36170 0.43107 0.23683
 H1652 H 0.32068 0.38979 0.23598
 H1653 H 0.41341 0.29910 0.23965
 H1654 H 0.39617 0.31627 0.27702
 H1655 H 0.45351 0.33964 0.23937
 H1656 H 0.43652 0.35677 0.27685
   
