data_POSCAR
  _audit_creation_date              2014-09-24
  _audit_creation_method            'ToBaCCo'
  _symmetry_space_group_name_H-M    'P1'
  _symmetry_Int_Tables_number       1
  _symmetry_cell_setting            triclinic
  loop_
  _symmetry_equiv_pos_as_xyz
 x,y,z
_cell_length_a 59.4378
_cell_length_b 59.4439
_cell_length_c 59.7378
_cell_angle_alpha 88.677600
_cell_angle_beta 88.792900
_cell_angle_gamma 87.984200
loop_
  _atom_site_label
  _atom_site_type_symbol
  _atom_site_fract_x
  _atom_site_fract_y
  _atom_site_fract_z
C1 C 0.12587 0.00396 0.24530
 C2 C 0.37539 -0.00207 0.74971
 C3 C 0.87463 0.49141 0.24990
 C4 C 0.62590 0.49994 0.74653
 C5 C 0.24272 0.12961 0.99675
 C6 C 0.76906 0.37590 1.00456
 C7 C 0.26202 0.87880 0.50049
 C8 C 0.74030 0.62401 0.49879
 C9 C -0.01539 0.26029 0.12533
 C10 C -0.00815 0.75046 0.37624
 C11 C 0.50206 0.24912 0.87018
 C12 C 0.50009 0.73521 0.62279
 C13 C 0.87650 0.99213 0.75163
 C14 C 0.37874 0.49504 0.25192
 C15 C 0.62011 1.00096 0.24550
 C16 C 0.12249 0.50806 0.74505
 C17 C 0.75211 0.87430 -0.00699
 C18 C 0.24859 0.37499 0.49032
 C19 C 0.25983 0.62864 0.00699
 C20 C 0.75240 0.13282 0.50870
 C21 C 0.99437 0.76456 0.87147
 C22 C 0.47980 0.24140 0.37798
 C23 C 1.00879 0.24403 0.62559
 C24 C 0.49764 0.74443 0.12009
 O25 O -0.01809 0.99809 0.93897
 O26 O 0.01918 1.01177 0.93755
 O27 O -0.00942 0.94580 0.99181
 O28 O -0.00308 0.94390 1.02797
 O29 O -0.06891 0.99270 0.99101
 O30 O -0.07340 1.03026 1.00456
 O31 O 0.03722 1.01069 1.04997
 O32 O 0.04509 0.97497 1.03229
 O33 O 0.03700 1.05823 0.99674
 O34 O 0.01547 1.06177 0.96100
 O35 O -0.01308 1.05806 1.04612
 O36 O -0.04969 1.03816 1.04851
 O37 O 0.00417 1.02429 1.06505
 O38 O -0.03309 1.00895 1.06671
 O39 O 0.00000 1.07483 1.01411
 O40 O -0.01366 1.07622 0.97824
 O41 O 0.05487 1.02819 1.01361
 O42 O 0.06135 0.99100 1.00314
 O43 O -0.05131 1.01075 0.95450
 O44 O -0.05933 1.04632 0.97312
 O45 O -0.05015 0.96217 1.00622
 O46 O -0.03140 0.96106 1.04317
 O47 O 0.00221 0.96194 0.95887
 O48 O 0.03521 0.98398 0.95288
 Zr49 Zr 0.00409 0.99647 0.96614
 O50 O 0.02311 1.01836 0.98477
 Zr51 Zr -0.01754 0.97313 1.01241
 O52 O 0.00064 0.99399 1.03295
 Zr53 Zr -0.04404 1.01705 0.98810
 O54 O -0.02684 1.03988 1.00754
 Zr55 Zr 0.03022 1.00379 1.01636
 O56 O 0.01350 0.98061 0.99667
 Zr57 Zr 0.00391 1.04778 0.99192
 O58 O -0.01447 1.02697 0.97098
 Zr59 Zr -0.01788 1.02432 1.03808
 O60 O -0.03722 1.00217 1.01966
 O61 O -0.02593 0.98726 0.98148
 O62 O 0.01243 1.03375 1.02303
 C63 C -0.03910 1.00385 0.93783
 C64 C -0.00257 0.94471 0.97133
 C65 C -0.06791 0.97214 0.99824
 C66 C 0.02508 1.01832 1.06643
 C67 C 0.05456 1.04824 1.00512
 C68 C -0.00641 1.07530 1.03479
 H69 H 0.03699 1.02173 0.97613
 H70 H -0.03647 1.05359 1.00990
 H71 H -0.03408 0.97686 0.97209
 H72 H 0.00408 0.98586 1.04715
 H73 H 0.04135 0.96185 1.02332
 H74 H 0.00895 0.94881 1.03774
 H75 H -0.02590 1.07035 0.96933
 H76 H -0.07357 1.04217 0.96614
 H77 H 0.06216 0.99537 0.98709
 H78 H 0.04149 0.97320 0.96419
 H79 H -0.04772 1.04701 1.06217
 H80 H -0.07481 1.02220 1.01917
 H81 H 0.01138 1.02662 0.93540
 H82 H 0.02978 1.05382 0.95679
 H83 H -0.04518 0.97037 1.04636
 H84 H -0.02441 0.99488 1.07030
 O85 O 0.48362 0.48376 0.43852
 O86 O 0.52268 0.49161 0.43555
 O87 O 0.48471 0.42754 0.48583
 O88 O 0.49353 0.42083 0.52096
 O89 O 0.43499 0.48397 0.49286
 O90 O 0.43663 0.51928 0.50713
 O91 O 0.54729 0.47967 0.54587
 O92 O 0.54818 0.44455 0.52731
 O93 O 0.55019 0.52971 0.49764
 O94 O 0.53126 0.54150 0.46580
 O95 O 0.50183 0.53270 0.54897
 O96 O 0.46471 0.51557 0.55565
 O97 O 0.51686 0.49553 0.56380
 O98 O 0.47677 0.48558 0.56689
 O99 O 0.51691 0.54931 0.51780
 O100 O 0.50069 0.55332 0.47748
 O101 O 0.56480 0.49593 0.50998
 O102 O 0.56322 0.45792 0.49591
 O103 O 0.45384 0.50109 0.45628
 O104 O 0.45511 0.53609 0.47782
 O105 O 0.44856 0.44962 0.50512
 O106 O 0.47004 0.44118 0.54017
 O107 O 0.49952 0.44408 0.45445
 O108 O 0.53533 0.46098 0.44827
 Zr109 Zr 0.50693 0.47672 0.46400
 O110 O 0.53013 0.49366 0.48291
 Zr111 Zr 0.48350 0.45344 0.50932
 O112 O 0.50636 0.46878 0.53032
 Zr113 Zr 0.46379 0.50304 0.48970
 O114 O 0.48502 0.52056 0.51034
 Zr115 Zr 0.53652 0.47549 0.51285
 O116 O 0.51496 0.45708 0.49276
 Zr117 Zr 0.51590 0.52458 0.49333
 O118 O 0.49385 0.50900 0.47168
 Zr119 Zr 0.49299 0.50073 0.53878
 O120 O 0.46926 0.48444 0.51960
 O121 O 0.47622 0.47145 0.48006
 O122 O 0.52371 0.50683 0.52278
 C123 C 0.46394 0.49346 0.43867
 C124 C 0.49147 0.42713 0.46525
 C125 C 0.43245 0.46345 0.49923
 C126 C 0.53724 0.48775 0.56338
 C127 C 0.56668 0.51668 0.50388
 C128 C 0.51079 0.54935 0.53853
 H129 H 0.54395 0.49576 0.47372
 H130 H 0.47764 0.53515 0.51425
 H131 H 0.46575 0.46350 0.47056
 H132 H 0.50932 0.45910 0.54370
 H133 H 0.54116 0.43252 0.51897
 H134 H 0.50694 0.42251 0.53021
 H135 H 0.49052 0.56078 0.48858
 H136 H 0.44034 0.53592 0.47040
 H137 H 0.56640 0.46608 0.48165
 H138 H 0.54057 0.44867 0.45853
 H139 H 0.46056 0.52982 0.54764
 H140 H 0.43635 0.51270 0.52250
 H141 H 0.51711 0.50750 0.43481
 H142 H 0.53868 0.52986 0.45636
 H143 H 0.45824 0.45226 0.54511
 H144 H 0.48446 0.47084 0.56995
 O145 O 0.46821 -0.05342 0.50200
 O146 O 0.48809 -0.05776 0.46713
 O147 O 0.52171 -0.05873 0.54890
 O148 O 0.55337 -0.04126 0.55554
 O149 O 0.47037 -0.00613 0.55486
 O150 O 0.46421 0.02841 0.53730
 O151 O 0.57779 0.00503 0.49086
 O152 O 0.58088 -0.03262 0.50396
 O153 O 0.52745 0.00657 0.44250
 O154 O 0.49096 -0.00342 0.43974
 O155 O 0.52628 0.05483 0.49209
 O156 O 0.51130 0.05425 0.53126
 O157 O 0.56212 0.03592 0.50765
 O158 O 0.54301 0.03927 0.54428
 O159 O 0.50844 0.04136 0.46226
 O160 O 0.47228 0.01791 0.45963
 O161 O 0.55945 -0.00990 0.45636
 O162 O 0.56602 -0.04645 0.47421
 O163 O 0.45183 -0.02292 0.51882
 O164 O 0.45091 0.01669 0.50449
 O165 O 0.50235 -0.02279 0.56873
 O166 O 0.54071 -0.00910 0.56822
 O167 O 0.50503 -0.07284 0.51862
 O168 O 0.51781 -0.07257 0.47995
 Zr169 Zr 0.50189 -0.04501 0.49640
 O170 O 0.52104 -0.02463 0.47469
 Zr171 Zr 0.52501 -0.02441 0.54124
 O172 O 0.54575 -0.00363 0.52144
 Zr173 Zr 0.47827 -0.00014 0.52086
 O174 O 0.49715 0.02221 0.50070
 Zr175 Zr 0.55148 -0.01760 0.48989
 O176 O 0.53335 -0.04012 0.51077
 Zr177 Zr 0.50479 0.00698 0.46998
 O178 O 0.48404 -0.01460 0.48930
 Zr179 Zr 0.52860 0.02726 0.51481
 O180 O 0.50859 0.00713 0.53652
 O181 O 0.49433 -0.03112 0.52733
 O182 O 0.53582 0.01379 0.48349
 C183 C 0.45111 -0.04273 0.51064
 C184 C 0.51340 -0.07492 0.53825
 C185 C 0.48206 -0.01483 0.57097
 C186 C 0.57887 0.02499 0.49851
 C187 C 0.54795 -0.00083 0.44040
 C188 C 0.51708 0.05738 0.47289
 H189 H 0.52342 -0.03230 0.46029
 H190 H 0.48838 0.03658 0.49899
 H191 H 0.48511 -0.04106 0.53705
 H192 H 0.56013 -0.00177 0.52908
 H193 H 0.57606 -0.04570 0.51321
 H194 H 0.56693 -0.03515 0.54810
 H195 H 0.46873 0.03262 0.46654
 H196 H 0.43681 0.01395 0.51317
 H197 H 0.55555 -0.05136 0.46280
 H198 H 0.53285 -0.07487 0.48663
 H199 H 0.51938 0.06837 0.52821
 H200 H 0.47652 0.03496 0.54562
 H201 H 0.47693 -0.04623 0.46172
 H202 H 0.49398 -0.01984 0.43887
 H203 H 0.53209 0.00510 0.57123
 H204 H 0.55610 0.02933 0.54818
 O205 O 0.01326 0.46302 1.04624
 O206 O 0.05012 0.48290 1.04790
 O207 O -0.03503 0.51715 1.05226
 O208 O -0.04148 0.55106 1.03490
 O209 O -0.03912 0.46930 1.00043
 O210 O -0.02106 0.46838 0.96323
 O211 O 0.01977 0.57707 0.98803
 O212 O 0.00647 0.57787 1.02541
 O213 O 0.07236 0.52590 0.98903
 O214 O 0.07305 0.48529 1.00179
 O215 O 0.02292 0.52656 0.93898
 O216 O -0.01731 0.51175 0.94075
 O217 O 0.00550 0.56196 0.95689
 O218 O -0.02874 0.54551 0.95180
 O219 O 0.05436 0.50998 0.95384
 O220 O 0.05971 0.47529 0.97095
 O221 O 0.05600 0.55779 1.00327
 O222 O 0.03974 0.56154 1.03859
 O223 O -0.00098 0.44923 1.01450
 O224 O 0.00932 0.44953 0.97601
 O225 O -0.05422 0.50087 1.01646
 O226 O -0.05587 0.53928 1.00345
 O227 O -0.00249 0.50187 1.06626
 O228 O 0.03359 0.50672 1.06814
 Zr229 Zr 0.01868 0.49736 1.03809
 O230 O 0.03943 0.51852 1.01861
 Zr231 Zr -0.02738 0.52282 1.01801
 O232 O -0.00854 0.54417 0.99671
 Zr233 Zr -0.00544 0.47746 0.99318
 O234 O 0.01527 0.49682 0.97179
 Zr235 Zr 0.02271 0.54937 1.01081
 O236 O 0.00316 0.52966 1.03340
 Zr237 Zr 0.04555 0.50365 0.98744
 O238 O 0.02623 0.48147 1.00764
 Zr239 Zr -0.00046 0.52848 0.96617
 O240 O -0.02218 0.50852 0.98634
 O241 O -0.01226 0.49135 1.02437
 O242 O 0.03047 0.53504 0.97998
 C243 C 0.00644 0.44683 1.03444
 C244 C -0.02288 0.50944 1.06848
 C245 C -0.05574 0.48088 1.00902
 C246 C 0.01304 0.57847 0.96767
 C247 C 0.07304 0.54635 0.99549
 C248 C 0.04327 0.51855 0.93732
 H249 H 0.05345 0.52093 1.02671
 H250 H 0.01796 0.48869 0.95766
 H251 H -0.02150 0.48177 1.03444
 H252 H -0.01700 0.55861 0.99438
 H253 H -0.00149 0.57243 1.03911
 H254 H -0.03614 0.56476 1.02705
 H255 H 0.04949 0.46283 0.97433
 H256 H -0.00074 0.43656 0.97762
 H257 H 0.03184 0.55576 1.05216
 H258 H 0.04079 0.52121 1.06493
 H259 H -0.01277 0.51818 0.92593
 H260 H -0.03440 0.47859 0.96105
 H261 H 0.05326 0.46965 1.03844
 H262 H 0.07818 0.49378 1.01467
 H263 H -0.05803 0.53227 0.98881
 H264 H -0.03685 0.55378 0.96383
 O265 O -0.05346 0.54426 0.50063
 O266 O -0.03498 0.55037 0.53468
 O267 O -0.00044 0.54292 0.45202
 O268 O 0.03152 0.52361 0.44550
 O269 O -0.05097 0.49307 0.45316
 O270 O -0.05514 0.45947 0.47270
 O271 O 0.05721 0.48182 0.51375
 O272 O 0.06010 0.51788 0.49881
 O273 O 0.00593 0.48663 0.56384
 O274 O -0.03108 0.49754 0.56630
 O275 O 0.00832 0.43421 0.51766
 O276 O -0.00739 0.43205 0.47981
 O277 O 0.04251 0.45019 0.50004
 O278 O 0.02385 0.44556 0.46371
 O279 O -0.00930 0.45069 0.54741
 O280 O -0.04790 0.47432 0.54858
 O281 O 0.03775 0.50081 0.54823
 O282 O 0.04324 0.53587 0.52594
 O283 O -0.06926 0.51238 0.48889
 O284 O -0.06881 0.47369 0.50540
 O285 O -0.01899 0.50586 0.43631
 O286 O 0.02063 0.49070 0.43701
 O287 O -0.01561 0.56051 0.48251
 O288 O -0.00508 0.56234 0.52119
 Zr289 Zr -0.01982 0.53448 0.50658
 O290 O -0.00054 0.51502 0.52938
 Zr291 Zr 0.00387 0.50921 0.46265
 O292 O 0.02524 0.48960 0.48362
 Zr293 Zr -0.04214 0.48857 0.48679
 O294 O -0.02266 0.46698 0.50782
 Zr295 Zr 0.03032 0.50568 0.51397
 O296 O 0.01180 0.52699 0.49156
 Zr297 Zr -0.01581 0.48434 0.53690
 O298 O -0.03691 0.50539 0.51674
 Zr299 Zr 0.00902 0.45986 0.49297
 O300 O -0.01163 0.47881 0.47049
 O301 O -0.02696 0.51841 0.47723
 O302 O 0.01555 0.47545 0.52297
 C303 C -0.07032 0.53317 0.49443
 C304 C -0.00785 0.56051 0.46227
 C305 C -0.03950 0.49956 0.43585
 C306 C 0.05878 0.46118 0.50779
 C307 C 0.02602 0.49365 0.56514
 C308 C 0.00027 0.43368 0.53773
 H309 H 0.00132 0.52381 0.54302
 H310 H -0.03079 0.45299 0.51103
 H311 H -0.03630 0.52810 0.46712
 H312 H 0.03978 0.48660 0.47573
 H313 H 0.05534 0.52937 0.48745
 H314 H 0.04520 0.51880 0.45372
 H315 H -0.04959 0.45845 0.54444
 H316 H -0.08303 0.47630 0.49717
 H317 H 0.03358 0.54104 0.53862
 H318 H 0.01005 0.56367 0.51415
 H319 H 0.00175 0.41807 0.48290
 H320 H -0.04257 0.45198 0.46430
 H321 H -0.04582 0.53970 0.54129
 H322 H -0.02899 0.51397 0.56563
 H323 H 0.01183 0.47715 0.43468
 H324 H 0.03751 0.45385 0.45955
 O325 O 0.44345 1.03994 0.00368
 O326 O 0.46402 1.04510 0.03828
 O327 O 0.49680 1.04785 -0.04545
 O328 O 0.52854 1.02992 -0.05606
 O329 O 0.44977 0.99196 -0.04710
 O330 O 0.45125 0.95568 -0.02741
 O331 O 0.56035 0.98644 0.00770
 O332 O 0.55817 1.02461 -0.00790
 O333 O 0.51278 0.98678 0.06092
 O334 O 0.47142 0.99760 0.06334
 O335 O 0.51390 0.93517 0.01312
 O336 O 0.49681 0.93402 -0.02387
 O337 O 0.54639 0.95389 -0.00471
 O338 O 0.53048 0.95100 -0.03950
 O339 O 0.49864 0.95040 0.04475
 O340 O 0.46280 0.96547 0.05115
 O341 O 0.54240 1.00306 0.04313
 O342 O 0.54510 1.03795 0.02414
 O343 O 0.43102 1.00797 -0.01128
 O344 O 0.43352 0.96992 0.00323
 O345 O 0.47859 1.01066 -0.06379
 O346 O 0.51895 0.99791 -0.06649
 O347 O 0.47857 1.06119 -0.01441
 O348 O 0.48991 1.06273 0.02269
 Zr349 Zr 0.47839 1.03346 0.00781
 O350 O 0.50155 1.01537 0.02804
 Zr351 Zr 0.50256 1.01308 -0.03851
 O352 O 0.52612 0.99328 -0.02003
 Zr353 Zr 0.45988 0.98684 -0.01390
 O354 O 0.48153 0.96676 0.00623
 Zr355 Zr 0.53195 1.00876 0.01026
 O356 O 0.50995 1.02980 -0.00897
 Zr357 Zr 0.48905 0.98350 0.03553
 O358 O 0.46467 1.00238 0.01695
 Zr359 Zr 0.51256 0.96213 -0.01057
 O360 O 0.49021 0.98072 -0.03188
 O361 O 0.47177 1.01855 -0.02228
 O362 O 0.51989 0.97734 0.01933
 C363 C 0.42779 1.02798 -0.00401
 C364 C 0.48737 1.06389 -0.03403
 C365 C 0.45933 1.00148 -0.06415
 C366 C 0.56245 0.96563 0.00223
 C367 C 0.53263 0.99477 0.06063
 C368 C 0.50773 0.93392 0.03387
 H369 H 0.50386 1.02393 0.04173
 H370 H 0.47442 0.95223 0.00969
 H371 H 0.46138 1.02813 -0.03144
 H372 H 0.54022 0.99114 -0.02895
 H373 H 0.55130 1.03796 -0.01570
 H374 H 0.54294 1.02496 -0.04922
 H375 H 0.44931 0.96863 0.04202
 H376 H 0.42000 0.97047 -0.00628
 H377 H 0.53359 1.04441 0.03456
 H378 H 0.50534 1.06489 0.01665
 H379 H 0.50782 0.92108 -0.02365
 H380 H 0.46156 0.95267 -0.04031
 H381 H 0.45320 1.03375 0.04356
 H382 H 0.47911 1.01136 0.06746
 H383 H 0.50989 0.98511 -0.07080
 H384 H 0.52015 0.95312 -0.05219
 O385 O 0.49014 0.50117 0.06423
 O386 O 0.52921 0.48947 0.06735
 O387 O 0.49429 0.55538 0.01510
 O388 O 0.50664 0.55919 -0.02041
 O389 O 0.44391 0.50366 0.00945
 O390 O 0.44648 0.46685 -0.00459
 O391 O 0.55755 0.49684 -0.04359
 O392 O 0.55830 0.53185 -0.02483
 O393 O 0.55896 0.44732 0.00727
 O394 O 0.53551 0.44175 0.04296
 O395 O 0.51150 0.44422 -0.04239
 O396 O 0.47533 0.46536 -0.05047
 O397 O 0.52856 0.48025 -0.06011
 O398 O 0.48958 0.49217 -0.06450
 O399 O 0.52594 0.42863 -0.01051
 O400 O 0.51080 0.42519 0.02461
 O401 O 0.57413 0.47886 -0.00788
 O402 O 0.57367 0.51658 0.00525
 O403 O 0.46078 0.48595 0.04695
 O404 O 0.45984 0.45102 0.02714
 O405 O 0.45895 0.53590 -0.00454
 O406 O 0.48153 0.54131 -0.03862
 O407 O 0.50784 0.53860 0.04683
 O408 O 0.54229 0.51905 0.05430
 Zr409 Zr 0.51469 0.50495 0.03861
 O410 O 0.53869 0.48554 0.02046
 Zr411 Zr 0.49390 0.52855 -0.00767
 O412 O 0.51686 0.50972 -0.02800
 Zr413 Zr 0.47202 0.48178 0.01372
 O414 O 0.49418 0.46108 -0.00518
 Zr415 Zr 0.54631 0.50164 -0.01033
 O416 O 0.52443 0.52265 0.00921
 Zr417 Zr 0.52447 0.45529 0.01177
 O418 O 0.50113 0.47359 0.03214
 Zr419 Zr 0.50366 0.47821 -0.03481
 O420 O 0.47961 0.49827 -0.01686
 O421 O 0.48480 0.51254 0.02219
 O422 O 0.53376 0.47064 -0.01864
 C423 C 0.47027 0.49327 0.06433
 C424 C 0.50053 0.55594 0.03562
 C425 C 0.44217 0.52398 0.00173
 C426 C 0.54832 0.48830 -0.06057
 C427 C 0.57571 0.45843 -0.00044
 C428 C 0.51969 0.42741 -0.03083
 H429 H 0.55220 0.48285 0.02962
 H430 H 0.48677 0.44679 -0.00796
 H431 H 0.47408 0.52188 0.03124
 H432 H 0.52030 0.51845 -0.04186
 H433 H 0.55176 0.54435 -0.01583
 H434 H 0.51893 0.55536 -0.03123
 H435 H 0.49634 0.42958 0.03205
 H436 H 0.44433 0.45371 0.03326
 H437 H 0.57531 0.50967 0.02036
 H438 H 0.54911 0.52947 0.04314
 H439 H 0.47063 0.45193 -0.04172
 H440 H 0.44554 0.47491 -0.01924
 H441 H 0.52282 0.47435 0.06897
 H442 H 0.54908 0.44969 0.04718
 H443 H 0.47123 0.53006 -0.04419
 H444 H 0.49578 0.50727 -0.06699
 O445 O 0.05274 -0.04802 0.50069
 O446 O 0.03438 -0.05591 0.53487
 O447 O 0.00015 -0.04812 0.45348
 O448 O -0.03459 -0.02846 0.44944
 O449 O 0.04788 0.00393 0.45072
 O450 O 0.05199 0.03649 0.46888
 O451 O -0.05983 0.01009 0.51626
 O452 O -0.06219 -0.02650 0.50522
 O453 O -0.00777 0.00683 0.56393
 O454 O 0.02903 -0.00193 0.56509
 O455 O -0.01336 0.05942 0.51564
 O456 O 0.00198 0.06292 0.47723
 O457 O -0.04718 0.04198 0.49931
 O458 O -0.02791 0.04784 0.46250
 O459 O 0.00628 0.04424 0.54480
 O460 O 0.04528 0.02111 0.54510
 O461 O -0.03902 -0.00864 0.55047
 O462 O -0.04297 -0.04447 0.52733
 O463 O 0.06747 -0.01607 0.48594
 O464 O 0.06552 0.02272 0.50170
 O465 O 0.01687 -0.01051 0.43555
 O466 O -0.02298 0.00215 0.43690
 O467 O 0.01565 -0.06573 0.48394
 O468 O 0.00472 -0.06795 0.52360
 Zr469 Zr 0.01876 -0.03970 0.50711
 O470 O -0.00086 -0.02090 0.53017
 Zr471 Zr -0.00572 -0.01485 0.46325
 O472 O -0.02778 0.00370 0.48449
 Zr473 Zr 0.03948 0.00710 0.48465
 O474 O 0.01917 0.02803 0.50547
 Zr475 Zr -0.03204 -0.01264 0.51583
 O476 O -0.01302 -0.03310 0.49317
 Zr477 Zr 0.01327 0.01045 0.53568
 O478 O 0.03488 -0.01006 0.51548
 Zr479 Zr -0.01293 0.03403 0.49194
 O480 O 0.00857 0.01607 0.46937
 O481 O 0.02538 -0.02319 0.47683
 O482 O -0.01857 0.01819 0.52301
 C483 C 0.06931 -0.03670 0.49299
 C484 C 0.00798 -0.06568 0.46395
 C485 C 0.03694 -0.00291 0.43401
 C486 C -0.06278 0.03039 0.50881
 C487 C -0.02737 -0.00130 0.56655
 C488 C -0.00436 0.06072 0.53485
 H489 H -0.00232 -0.02994 0.54420
 H490 H 0.02680 0.04233 0.50762
 H491 H 0.03512 -0.03238 0.46666
 H492 H -0.04237 0.00615 0.47703
 H493 H -0.06297 -0.02366 0.48888
 H494 H -0.04062 -0.03908 0.46088
 H495 H 0.04648 0.03709 0.54035
 H496 H 0.07995 0.02019 0.49333
 H497 H -0.03492 -0.04846 0.54128
 H498 H -0.00970 -0.07063 0.51628
 H499 H -0.00791 0.07639 0.48016
 H500 H 0.03880 0.04501 0.46279
 H501 H 0.04414 -0.04472 0.54141
 H502 H 0.02829 -0.01852 0.56493
 H503 H -0.01553 0.01662 0.43422
 H504 H -0.04093 0.03878 0.45888
 O505 O 0.78083 0.24794 0.20809
 O506 O 0.76102 0.21373 0.20422
 O507 O 0.72887 0.29843 0.20719
 O508 O 0.69620 0.30561 0.22605
 O509 O 0.77922 0.29911 0.25736
 O510 O 0.78319 0.27894 0.29222
 O511 O 0.67096 0.24166 0.27141
 O512 O 0.66824 0.25629 0.23444
 O513 O 0.72084 0.18882 0.26702
 O514 O 0.76066 0.18750 0.25333
 O515 O 0.72240 0.23688 0.31848
 O516 O 0.73826 0.27490 0.31845
 O517 O 0.68711 0.25489 0.30250
 O518 O 0.70619 0.29082 0.30590
 O519 O 0.73785 0.20562 0.30231
 O520 O 0.77228 0.20043 0.28410
 O521 O 0.68865 0.20602 0.25428
 O522 O 0.68240 0.22581 0.21899
 O523 O 0.79730 0.26211 0.23851
 O524 O 0.79913 0.24818 0.27714
 O525 O 0.74729 0.31555 0.24315
 O526 O 0.70892 0.31709 0.25803
 O527 O 0.74456 0.26701 0.19142
 O528 O 0.73174 0.22928 0.19071
 Zr529 Zr 0.74728 0.24367 0.21822
 O530 O 0.72743 0.22239 0.23827
 Zr531 Zr 0.72444 0.28944 0.24126
 O532 O 0.70346 0.27009 0.26239
 Zr533 Zr 0.77082 0.26520 0.26263
 O534 O 0.75167 0.24479 0.28456
 Zr535 Zr 0.69724 0.23946 0.24743
 O536 O 0.71592 0.25997 0.22492
 Zr537 Zr 0.74352 0.21516 0.26865
 O538 O 0.76491 0.23434 0.24744
 Zr539 Zr 0.72044 0.26089 0.29198
 O540 O 0.74052 0.28245 0.27176
 O541 O 0.75503 0.27375 0.23280
 O542 O 0.71271 0.23060 0.27752
 C543 C 0.79788 0.25511 0.21826
 C544 C 0.73711 0.28754 0.19034
 C545 C 0.76761 0.31633 0.25000
 C546 C 0.67023 0.24769 0.29194
 C547 C 0.70017 0.18862 0.26116
 C548 C 0.72988 0.21635 0.31934
 H549 H 0.72484 0.20858 0.22996
 H550 H 0.76032 0.24148 0.29830
 H551 H 0.76442 0.28332 0.22288
 H552 H 0.68919 0.27862 0.26538
 H553 H 0.67331 0.26561 0.22146
 H554 H 0.68255 0.29953 0.23336
 H555 H 0.78520 0.20923 0.27869
 H556 H 0.81262 0.25733 0.27442
 H557 H 0.69279 0.21400 0.21294
 H558 H 0.71656 0.23658 0.18964
 H559 H 0.72995 0.27224 0.33280
 H560 H 0.77194 0.29044 0.29739
 H561 H 0.77254 0.20770 0.21470
 H562 H 0.75226 0.18370 0.23989
 H563 H 0.71685 0.31851 0.27231
 H564 H 0.69284 0.29564 0.29718
 O565 O 0.76086 0.70526 0.69684
 O566 O 0.79431 0.70204 0.71923
 O567 O 0.70878 0.69661 0.74667
 O568 O 0.69632 0.71321 0.77773
 O569 O 0.70410 0.75043 0.69665
 O570 O 0.71865 0.78642 0.69454
 O571 O 0.75418 0.76134 0.80897
 O572 O 0.74267 0.72298 0.80944
 O573 O 0.80821 0.76426 0.76345
 O574 O 0.81592 0.75564 0.72656
 O575 O 0.75355 0.81216 0.75847
 O576 O 0.71539 0.81108 0.74423
 O577 O 0.73638 0.79165 0.79257
 O578 O 0.70139 0.79482 0.77026
 O579 O 0.78772 0.79920 0.74563
 O580 O 0.79700 0.77825 0.70831
 O581 O 0.79168 0.74680 0.79341
 O582 O 0.77613 0.71035 0.79746
 O583 O 0.74445 0.73668 0.68088
 O584 O 0.75409 0.77609 0.68262
 O585 O 0.68777 0.73289 0.72680
 O586 O 0.68217 0.74511 0.76521
 O587 O 0.74243 0.68401 0.73220
 O588 O 0.77942 0.68511 0.74665
 Zr589 Zr 0.76207 0.71278 0.73123
 O590 O 0.77933 0.73300 0.75317
 Zr591 Zr 0.71258 0.73122 0.75144
 O592 O 0.72767 0.75216 0.77444
 Zr593 Zr 0.73633 0.75772 0.70784
 O594 O 0.75238 0.77985 0.72886
 Zr595 Zr 0.75975 0.73893 0.78235
 O596 O 0.74352 0.71634 0.76155
 Zr597 Zr 0.78338 0.76514 0.73874
 O598 O 0.76848 0.74401 0.71559
 Zr599 Zr 0.73371 0.78350 0.75881
 O600 O 0.71628 0.76336 0.73672
 O601 O 0.73079 0.72597 0.72187
 O602 O 0.76526 0.77081 0.76843
 C603 C 0.75397 0.71702 0.67979
 C604 C 0.72217 0.68090 0.73919
 C605 C 0.68730 0.74117 0.70673
 C606 C 0.74481 0.78117 0.80963
 C607 C 0.80837 0.75640 0.78369
 C608 C 0.77427 0.81491 0.75287
 H609 H 0.79405 0.72558 0.75651
 H610 H 0.75420 0.79441 0.72080
 H611 H 0.72319 0.71595 0.71163
 H612 H 0.71805 0.75363 0.78806
 H613 H 0.73592 0.70941 0.80345
 H614 H 0.70126 0.71933 0.79199
 H615 H 0.78925 0.79294 0.70511
 H616 H 0.74673 0.77431 0.66803
 H617 H 0.78868 0.70535 0.78744
 H618 H 0.77188 0.68254 0.76138
 H619 H 0.72342 0.81557 0.73024
 H620 H 0.70680 0.79075 0.70567
 H621 H 0.79943 0.71388 0.70856
 H622 H 0.81812 0.73932 0.72975
 H623 H 0.67914 0.75968 0.75729
 H624 H 0.69684 0.78495 0.78299
 O625 O 0.29720 0.20408 0.73709
 O626 O 0.30307 0.22569 0.70318
 O627 O 0.30429 0.25333 0.78703
 O628 O 0.28731 0.28605 0.79679
 O629 O 0.24914 0.20735 0.79090
 O630 O 0.21358 0.20827 0.77310
 O631 O 0.24396 0.31997 0.73528
 O632 O 0.28136 0.31815 0.74706
 O633 O 0.24306 0.27298 0.68229
 O634 O 0.25378 0.23228 0.68013
 O635 O 0.19227 0.27417 0.73235
 O636 O 0.19107 0.25563 0.77030
 O637 O 0.21163 0.30635 0.75057
 O638 O 0.20630 0.28520 0.78559
 O639 O 0.20721 0.25913 0.70051
 O640 O 0.22170 0.22307 0.69493
 O641 O 0.25939 0.30252 0.69814
 O642 O 0.29541 0.30420 0.71637
 O643 O 0.26591 0.18979 0.75368
 O644 O 0.22700 0.19290 0.74146
 O645 O 0.26640 0.23631 0.80692
 O646 O 0.25468 0.27596 0.80923
 O647 O 0.31799 0.23755 0.75502
 O648 O 0.31936 0.25192 0.71785
 Zr649 Zr 0.29044 0.23870 0.73380
 O650 O 0.27197 0.26174 0.71381
 Zr651 Zr 0.26995 0.26063 0.78081
 O652 O 0.25043 0.28482 0.76267
 Zr653 Zr 0.24419 0.21841 0.75773
 O654 O 0.22361 0.24089 0.73873
 Zr655 Zr 0.26557 0.29156 0.73131
 O656 O 0.28661 0.26944 0.75050
 Zr657 Zr 0.24011 0.24913 0.70847
 O658 O 0.25963 0.22457 0.72622
 Zr659 Zr 0.21907 0.27165 0.75513
 O660 O 0.23783 0.24831 0.77544
 O661 O 0.27568 0.23047 0.76462
 O662 O 0.23399 0.27975 0.72422
 C663 C 0.28583 0.18763 0.74497
 C664 C 0.32036 0.24449 0.77496
 C665 C 0.25759 0.21682 0.80778
 C666 C 0.22373 0.32250 0.74304
 C667 C 0.25109 0.29274 0.68135
 C668 C 0.19095 0.26829 0.71186
 H669 H 0.28040 0.26429 0.69961
 H670 H 0.20903 0.23393 0.73613
 H671 H 0.28509 0.21965 0.77352
 H672 H 0.24880 0.29871 0.77142
 H673 H 0.29369 0.31122 0.75606
 H674 H 0.28194 0.30069 0.79034
 H675 H 0.22669 0.20901 0.70279
 H676 H 0.22851 0.17866 0.75040
 H677 H 0.30024 0.29428 0.70398
 H678 H 0.32157 0.26675 0.72453
 H679 H 0.17732 0.26532 0.76811
 H680 H 0.20951 0.21926 0.78484
 H681 H 0.29152 0.21572 0.69763
 H682 H 0.26769 0.23982 0.67530
 H683 H 0.23985 0.26911 0.81164
 H684 H 0.21698 0.29626 0.79075
 O685 O 0.19964 0.74248 0.30188
 O686 O 0.21999 0.70753 0.30632
 O687 O 0.25152 0.79020 0.30654
 O688 O 0.28213 0.80023 0.28828
 O689 O 0.20128 0.79597 0.25434
 O690 O 0.19892 0.77986 0.21957
 O691 O 0.31287 0.73508 0.24396
 O692 O 0.31351 0.74714 0.28075
 O693 O 0.26455 0.68534 0.24266
 O694 O 0.22812 0.68138 0.25164
 O695 O 0.26254 0.73898 0.19337
 O696 O 0.25198 0.77758 0.19300
 O697 O 0.29842 0.75239 0.21291
 O698 O 0.27700 0.79048 0.20988
 O699 O 0.24768 0.70663 0.20711
 O700 O 0.20967 0.70211 0.23034
 O701 O 0.29524 0.69992 0.25828
 O702 O 0.29779 0.71719 0.29575
 O703 O 0.18410 0.75842 0.27059
 O704 O 0.18627 0.74584 0.23153
 O705 O 0.23171 0.81107 0.26999
 O706 O 0.27174 0.81170 0.25611
 O707 O 0.23569 0.75863 0.32097
 O708 O 0.24901 0.71963 0.32038
 Zr709 Zr 0.23392 0.73743 0.29323
 O710 O 0.25506 0.71676 0.27307
 Zr711 Zr 0.25596 0.78413 0.27219
 O712 O 0.27912 0.76539 0.25211
 Zr713 Zr 0.21177 0.76263 0.24827
 O714 O 0.23295 0.74406 0.22624
 Zr715 Zr 0.28523 0.73313 0.26618
 O716 O 0.26491 0.75309 0.28810
 Zr717 Zr 0.24111 0.71271 0.24143
 O718 O 0.21831 0.73060 0.26291
 Zr719 Zr 0.26412 0.75942 0.22140
 O720 O 0.24159 0.77978 0.24087
 O721 O 0.22569 0.76880 0.27911
 O722 O 0.27192 0.72752 0.23481
 C723 C 0.18275 0.75042 0.29074
 C724 C 0.24358 0.77836 0.32298
 C725 C 0.21156 0.81254 0.26240
 C726 C 0.31480 0.74292 0.22384
 C727 C 0.28489 0.68377 0.24955
 C728 C 0.25535 0.71909 0.19097
 H729 H 0.25754 0.70204 0.28080
 H730 H 0.22493 0.74258 0.21204
 H731 H 0.21566 0.77792 0.28906
 H732 H 0.29330 0.77349 0.25021
 H733 H 0.30771 0.75645 0.29329
 H734 H 0.29624 0.79165 0.28466
 H735 H 0.20729 0.70877 0.21520
 H736 H 0.17169 0.75424 0.23372
 H737 H 0.28928 0.70344 0.29888
 H738 H 0.26369 0.72651 0.32269
 H739 H 0.23645 0.77282 0.19061
 H740 H 0.21055 0.79035 0.21424
 H741 H 0.20979 0.70222 0.29481
 H742 H 0.22848 0.68076 0.26818
 H743 H 0.26293 0.81578 0.24265
 H744 H 0.29113 0.79289 0.21782
 O745 O 0.18765 0.74193 0.77016
 O746 O 0.18568 0.75330 0.73087
 O747 O 0.23950 0.68798 0.76490
 O748 O 0.27563 0.68550 0.75337
 O749 O 0.24145 0.73770 0.81774
 O750 O 0.25524 0.77527 0.81679
 O751 O 0.29829 0.74925 0.70709
 O752 O 0.27893 0.71361 0.70368
 O753 O 0.24419 0.79796 0.70548
 O754 O 0.20769 0.80151 0.72808
 O755 O 0.29334 0.80047 0.75229
 O756 O 0.29740 0.78127 0.79037
 O757 O 0.31303 0.76584 0.73715
 O758 O 0.31635 0.75251 0.77483
 O759 O 0.26069 0.81563 0.73861
 O760 O 0.22508 0.81779 0.75440
 O761 O 0.26207 0.76770 0.68970
 O762 O 0.25061 0.73215 0.68645
 O763 O 0.20396 0.75601 0.80066
 O764 O 0.22289 0.79069 0.80414
 O765 O 0.25714 0.70656 0.80130
 O766 O 0.29237 0.70264 0.77938
 O767 O 0.20654 0.70459 0.75342
 O768 O 0.19937 0.72350 0.71869
 Zr769 Zr 0.21424 0.73819 0.74644
 O770 O 0.23237 0.75854 0.72367
 Zr771 Zr 0.26115 0.71528 0.76707
 O772 O 0.28137 0.73538 0.74578
 Zr773 Zr 0.23750 0.76071 0.79062
 O774 O 0.25588 0.78263 0.76968
 Zr775 Zr 0.26427 0.74382 0.71629
 O776 O 0.24469 0.72164 0.73649
 Zr777 Zr 0.23927 0.78862 0.73934
 O778 O 0.21923 0.76920 0.76149
 Zr779 Zr 0.28652 0.76660 0.76059
 O780 O 0.26894 0.74512 0.78310
 O781 O 0.23040 0.73029 0.77625
 O782 O 0.27069 0.77445 0.73051
 C783 C 0.18684 0.74933 0.79025
 C784 C 0.21859 0.68739 0.75984
 C785 C 0.24969 0.71740 0.81850
 C786 C 0.31461 0.75804 0.71734
 C787 C 0.25351 0.78787 0.68870
 C788 C 0.28126 0.81701 0.74421
 H789 H 0.22362 0.76116 0.70991
 H790 H 0.25818 0.79680 0.77757
 H791 H 0.22131 0.72067 0.78642
 H792 H 0.29568 0.72702 0.74247
 H793 H 0.26864 0.70139 0.70791
 H794 H 0.28545 0.69008 0.74062
 H795 H 0.21690 0.81254 0.76802
 H796 H 0.21679 0.78732 0.81942
 H797 H 0.23464 0.72925 0.68984
 H798 H 0.21018 0.71173 0.71319
 H799 H 0.31040 0.79080 0.78666
 H800 H 0.26951 0.76640 0.81872
 H801 H 0.18278 0.76802 0.73800
 H802 H 0.20418 0.79381 0.71414
 H803 H 0.29701 0.71317 0.79088
 H804 H 0.31927 0.73750 0.76839
 O805 O 0.23898 0.21720 0.18934
 O806 O 0.27420 0.20792 0.20641
 O807 O 0.19242 0.21106 0.24432
 O808 O 0.18480 0.22719 0.27680
 O809 O 0.18928 0.26771 0.19704
 O810 O 0.20777 0.30232 0.19591
 O811 O 0.25237 0.26406 0.30342
 O812 O 0.23865 0.22782 0.30354
 O813 O 0.30189 0.26506 0.25142
 O814 O 0.30403 0.25932 0.21420
 O815 O 0.25251 0.31851 0.25686
 O816 O 0.21187 0.32104 0.24357
 O817 O 0.23646 0.29755 0.29180
 O818 O 0.20154 0.30688 0.27620
 O819 O 0.28330 0.30371 0.23857
 O820 O 0.28464 0.28443 0.19915
 O821 O 0.28690 0.24838 0.28267
 O822 O 0.26722 0.21230 0.28530
 O823 O 0.22427 0.25091 0.17689
 O824 O 0.24031 0.28827 0.17936
 O825 O 0.17382 0.25045 0.22785
 O826 O 0.17436 0.26086 0.26796
 O827 O 0.22275 0.19550 0.22590
 O828 O 0.26192 0.19198 0.23534
 Zr829 Zr 0.24561 0.22191 0.22334
 O830 O 0.26813 0.23844 0.24350
 Zr831 Zr 0.20093 0.24438 0.24990
 O832 O 0.22157 0.26102 0.27191
 Zr833 Zr 0.22297 0.27088 0.20553
 O834 O 0.24383 0.28944 0.22577
 Zr835 Zr 0.25294 0.24400 0.27501
 O836 O 0.23106 0.22538 0.25558
 Zr837 Zr 0.27411 0.27090 0.23060
 O838 O 0.25406 0.25310 0.20858
 Zr839 Zr 0.22930 0.29264 0.25793
 O840 O 0.20688 0.27666 0.23680
 O841 O 0.21516 0.23918 0.21843
 O842 O 0.26040 0.27600 0.26255
 C843 C 0.23092 0.23039 0.17387
 C844 C 0.20299 0.19440 0.23502
 C845 C 0.17262 0.25943 0.20805
 C846 C 0.24523 0.28435 0.30687
 C847 C 0.30348 0.25633 0.27122
 C848 C 0.27241 0.31992 0.24832
 H849 H 0.28230 0.22930 0.24447
 H850 H 0.24608 0.30433 0.21849
 H851 H 0.20520 0.23071 0.20885
 H852 H 0.21387 0.26221 0.28668
 H853 H 0.22825 0.21666 0.29798
 H854 H 0.19351 0.22977 0.29036
 H855 H 0.27911 0.30031 0.19823
 H856 H 0.23104 0.28852 0.16572
 H857 H 0.28026 0.20861 0.27534
 H858 H 0.25577 0.18909 0.25063
 H859 H 0.21663 0.33488 0.25083
 H860 H 0.19670 0.30653 0.20783
 H861 H 0.27988 0.21989 0.19620
 H862 H 0.30377 0.24270 0.21447
 H863 H 0.17142 0.27561 0.26035
 H864 H 0.19465 0.29474 0.28528
 O865 O 0.79523 0.70002 0.24028
 O866 O 0.79992 0.72155 0.20618
 O867 O 0.79368 0.75148 0.28969
 O868 O 0.77225 0.78188 0.29797
 O869 O 0.74432 0.69865 0.29139
 O870 O 0.70971 0.69580 0.27166
 O871 O 0.72901 0.80971 0.23407
 O872 O 0.76547 0.81215 0.24843
 O873 O 0.73649 0.76316 0.18147
 O874 O 0.75215 0.72341 0.18022
 O875 O 0.68336 0.75773 0.22897
 O876 O 0.68276 0.73951 0.26747
 O877 O 0.69778 0.79244 0.24755
 O878 O 0.69255 0.77163 0.28227
 O879 O 0.70138 0.74396 0.19807
 O880 O 0.72114 0.71040 0.19299
 O881 O 0.74833 0.79425 0.19853
 O882 O 0.78269 0.79990 0.21829
 O883 O 0.76451 0.68278 0.25474
 O884 O 0.72668 0.68110 0.24127
 O885 O 0.75691 0.72984 0.30786
 O886 O 0.74080 0.76765 0.30925
 O887 O 0.81080 0.73781 0.25818
 O888 O 0.81233 0.74974 0.22051
 Zr889 Zr 0.78451 0.73390 0.23590
 O890 O 0.76468 0.75478 0.21478
 Zr891 Zr 0.75917 0.75411 0.28163
 O892 O 0.73791 0.77568 0.26229
 Zr893 Zr 0.73980 0.70890 0.25778
 O894 O 0.71803 0.72865 0.23721
 Zr895 Zr 0.75391 0.78387 0.23177
 O896 O 0.77623 0.76433 0.25202
 Zr897 Zr 0.73492 0.73871 0.20764
 O898 O 0.75593 0.71654 0.22689
 Zr899 Zr 0.70895 0.75885 0.25309
 O900 O 0.72913 0.73815 0.27475
 O901 O 0.76927 0.72443 0.26615
 O902 O 0.72445 0.76855 0.22294
 C903 C 0.78497 0.68245 0.24731
 C904 C 0.81131 0.74547 0.27807
 C905 C 0.75046 0.70939 0.30858
 C906 C 0.70821 0.80988 0.24042
 C907 C 0.74217 0.78386 0.18120
 C908 C 0.68357 0.75117 0.20857
 H909 H 0.77349 0.75832 0.20102
 H910 H 0.70465 0.71991 0.23398
 H911 H 0.77943 0.71491 0.27563
 H912 H 0.73411 0.78943 0.27076
 H913 H 0.77821 0.80672 0.25777
 H914 H 0.76506 0.79571 0.29146
 H915 H 0.72614 0.69718 0.20219
 H916 H 0.72897 0.66730 0.25076
 H917 H 0.78902 0.79082 0.20585
 H918 H 0.81214 0.76526 0.22618
 H919 H 0.66801 0.74699 0.26400
 H920 H 0.70440 0.70590 0.28377
 H921 H 0.78969 0.71044 0.20023
 H922 H 0.76512 0.73270 0.17600
 H923 H 0.72654 0.75954 0.31055
 H924 H 0.70200 0.78326 0.28843
 O925 O 0.71932 0.30338 0.75465
 O926 O 0.71406 0.28610 0.71963
 O927 O 0.70909 0.24740 0.80041
 O928 O 0.72441 0.21327 0.80688
 O929 O 0.76418 0.29133 0.80922
 O930 O 0.79938 0.29418 0.79295
 O931 O 0.77159 0.18733 0.74307
 O932 O 0.73326 0.18798 0.75395
 O933 O 0.77663 0.24169 0.69535
 O934 O 0.76937 0.27970 0.69443
 O935 O 0.82331 0.23127 0.74700
 O936 O 0.82292 0.24479 0.78577
 O937 O 0.80282 0.19850 0.76066
 O938 O 0.80468 0.21456 0.79876
 O939 O 0.81169 0.25195 0.71674
 O940 O 0.79218 0.29264 0.71548
 O941 O 0.75865 0.21051 0.70764
 O942 O 0.72139 0.20665 0.72454
 O943 O 0.74983 0.31438 0.77336
 O944 O 0.78956 0.31107 0.75993
 O945 O 0.74530 0.26075 0.82186
 O946 O 0.75677 0.22047 0.82043
 O947 O 0.69652 0.26752 0.77008
 O948 O 0.69749 0.25781 0.73125
 Zr949 Zr 0.72534 0.26890 0.74890
 O950 O 0.74535 0.24885 0.72723
 Zr951 Zr 0.74324 0.24023 0.79366
 O952 O 0.76333 0.21829 0.77382
 Zr953 Zr 0.77070 0.28500 0.77527
 O954 O 0.79258 0.26484 0.75528
 Zr955 Zr 0.75030 0.21647 0.74156
 O956 O 0.72821 0.23591 0.76243
 Zr957 Zr 0.77790 0.26136 0.72398
 O958 O 0.75688 0.28328 0.74321
 Zr959 Zr 0.79520 0.23202 0.76884
 O960 O 0.77566 0.25292 0.79046
 O961 O 0.73866 0.27260 0.78039
 O962 O 0.78247 0.22871 0.73686
 C963 C 0.73080 0.31840 0.76398
 C964 C 0.69357 0.25815 0.78949
 C965 C 0.75442 0.27975 0.82481
 C966 C 0.79145 0.18378 0.75085
 C967 C 0.76839 0.22237 0.69219
 C968 C 0.82663 0.24017 0.72752
 H969 H 0.73802 0.24858 0.71255
 H970 H 0.80752 0.27165 0.75410
 H971 H 0.72895 0.28241 0.79001
 H972 H 0.76417 0.20321 0.78113
 H973 H 0.72042 0.19369 0.76328
 H974 H 0.72942 0.19963 0.79874
 H975 H 0.80760 0.29242 0.72143
 H976 H 0.78755 0.32487 0.76890
 H977 H 0.71727 0.21865 0.71350
 H978 H 0.69444 0.24248 0.73712
 H979 H 0.83616 0.23433 0.78379
 H980 H 0.80498 0.28049 0.80109
 H981 H 0.72635 0.29595 0.71457
 H982 H 0.75304 0.27816 0.69241
 H983 H 0.77098 0.22734 0.82460
 H984 H 0.79509 0.20138 0.80090
 C985 C 0.11599 0.99364 1.18295
 C986 C 0.09569 1.00583 1.17850
 C987 C 0.08495 1.01733 1.19654
 C988 C 0.09433 1.01645 1.21805
 C989 C 0.11402 1.00339 1.22250
 C990 C 0.12500 0.99278 1.20425
 C991 C 0.06502 1.02985 1.19298
 C992 C 0.05524 1.03096 1.17201
 C993 C 0.06515 1.01964 1.15352
 C994 C 0.08591 1.00714 1.15677
 C995 C 0.09624 0.99638 1.13817
 C996 C 0.08659 0.99745 1.11725
 C997 C 0.06616 1.00905 1.11389
 C998 C 0.05505 1.02035 1.13188
 C999 C 0.03414 1.03158 1.12741
 C1000 C 0.02470 1.03120 1.10618
 C1001 C 0.03573 1.01982 1.08858
 C1002 C 0.05664 1.00904 1.09257
 H1003 H 0.12565 0.98470 1.17036
 H1004 H 0.08634 1.02616 1.23133
 H1005 H 0.14108 0.98394 1.20621
 H1006 H 0.05676 1.03884 1.20663
 H1007 H 0.03988 1.04100 1.17085
 H1008 H 0.11194 0.98687 1.13907
 H1009 H 0.09517 0.98883 1.10354
 H1010 H 0.02443 1.04052 1.13998
 H1011 H 0.00854 1.03977 1.10363
 H1012 H 0.06535 1.00006 1.07918
 C1013 C 0.57508 0.50676 0.70655
 C1014 C 0.58585 0.50371 0.68534
 C1015 C 0.60966 0.50206 0.68474
 C1016 C 0.62179 0.50241 0.70448
 C1017 C 0.61093 0.50290 0.72565
 C1018 C 0.58745 0.50652 0.72630
 C1019 C 0.62141 0.49944 0.66451
 C1020 C 0.61007 0.49723 0.64473
 C1021 C 0.58634 0.49770 0.64436
 C1022 C 0.57401 0.50194 0.66482
 C1023 C 0.55031 0.50403 0.66405
 C1024 C 0.53903 0.50179 0.64414
 C1025 C 0.55077 0.49680 0.62431
 C1026 C 0.57456 0.49431 0.62414
 C1027 C 0.58551 0.48817 0.60374
 C1028 C 0.57338 0.48553 0.58427
 C1029 C 0.54996 0.48886 0.58437
 C1030 C 0.53877 0.49429 0.60458
 H1031 H 0.55710 0.50897 0.70856
 H1032 H 0.64002 0.50086 0.70354
 H1033 H 0.57843 0.50913 0.74197
 H1034 H 0.63967 0.49860 0.66400
 H1035 H 0.62050 0.49537 0.62989
 H1036 H 0.53990 0.50762 0.67859
 H1037 H 0.52082 0.50372 0.64435
 H1038 H 0.60342 0.48501 0.60224
 H1039 H 0.58248 0.48120 0.56898
 H1040 H 0.52059 0.49664 0.60501
 C1041 C 0.38591 0.00424 0.68637
 C1042 C 0.40797 -0.00468 0.68306
 C1043 C 0.41917 -0.01425 0.70191
 C1044 C 0.40897 -0.01344 0.72341
 C1045 C 0.38784 -0.00247 0.72675
 C1046 C 0.37612 0.00507 0.70758
 C1047 C 0.44039 -0.02469 0.69915
 C1048 C 0.45084 -0.02570 0.67811
 C1049 C 0.44057 -0.01589 0.65893
 C1050 C 0.41893 -0.00488 0.66157
 C1051 C 0.40906 0.00601 0.64275
 C1052 C 0.41954 0.00561 0.62189
 C1053 C 0.44033 -0.00547 0.61885
 C1054 C 0.45125 -0.01641 0.63720
 C1055 C 0.47243 -0.02731 0.63292
 C1056 C 0.48229 -0.02694 0.61148
 C1057 C 0.47140 -0.01585 0.59356
 C1058 C 0.45033 -0.00530 0.59743
 H1059 H 0.37539 0.01025 0.67291
 H1060 H 0.41747 -0.02150 0.73747
 H1061 H 0.35892 0.01159 0.70885
 H1062 H 0.44904 -0.03221 0.71342
 H1063 H 0.46720 -0.03405 0.67755
 H1064 H 0.39336 0.01555 0.64356
 H1065 H 0.41128 0.01424 0.60796
 H1066 H 0.48184 -0.03630 0.64570
 H1067 H 0.49857 -0.03539 0.60899
 H1068 H 0.44169 0.00337 0.58376
 C1069 C -0.11390 0.48293 1.18652
 C1070 C -0.09312 0.49305 1.18230
 C1071 C -0.08157 0.50083 1.20091
 C1072 C -0.09139 0.49985 1.22256
 C1073 C -0.11242 0.48993 1.22681
 C1074 C -0.12329 0.48169 1.20803
 C1075 C -0.06046 0.51011 1.19776
 C1076 C -0.05040 0.51147 1.17657
 C1077 C -0.06149 0.50435 1.15742
 C1078 C -0.08362 0.49590 1.16024
 C1079 C -0.09582 0.49132 1.14091
 C1080 C -0.08655 0.49433 1.11958
 C1081 C -0.06454 0.50130 1.11659
 C1082 C -0.05147 0.50593 1.13545
 C1083 C -0.02875 0.51153 1.13151
 C1084 C -0.01966 0.51273 1.10978
 C1085 C -0.03293 0.50887 1.09127
 C1086 C -0.05543 0.50334 1.09476
 H1087 H -0.12344 0.47569 1.17352
 H1088 H -0.08307 0.50826 1.23575
 H1089 H -0.13967 0.47464 1.20935
 H1090 H -0.05150 0.51624 1.21189
 H1091 H -0.03418 0.51901 1.17562
 H1092 H -0.11297 0.48605 1.14163
 H1093 H -0.09666 0.49083 1.10525
 H1094 H -0.01735 0.51437 1.14486
 H1095 H -0.00212 0.51678 1.10744
 H1096 H -0.06562 0.49983 1.08048
 C1097 C -0.07536 0.48668 0.29152
 C1098 C -0.08523 0.49534 0.31144
 C1099 C -0.10823 0.50215 0.31090
 C1100 C -0.12030 0.50127 0.29109
 C1101 C -0.11030 0.49380 0.27083
 C1102 C -0.08777 0.48550 0.27191
 C1103 C -0.11941 0.50948 0.33028
 C1104 C -0.10845 0.50958 0.35049
 C1105 C -0.08559 0.50266 0.35210
 C1106 C -0.07346 0.49653 0.33207
 C1107 C -0.05002 0.49213 0.33332
 C1108 C -0.03892 0.49299 0.35357
 C1109 C -0.05080 0.49752 0.37347
 C1110 C -0.07439 0.50199 0.37306
 C1111 C -0.08595 0.50505 0.39379
 C1112 C -0.07449 0.50419 0.41389
 C1113 C -0.05112 0.50049 0.41419
 C1114 C -0.03930 0.49732 0.39387
 H1115 H -0.05840 0.47965 0.29087
 H1116 H -0.13799 0.50585 0.29197
 H1117 H -0.07984 0.47688 0.25794
 H1118 H -0.13700 0.51497 0.32990
 H1119 H -0.11831 0.51575 0.36453
 H1120 H -0.03965 0.48854 0.31873
 H1121 H -0.02088 0.48967 0.35370
 H1122 H -0.10396 0.50747 0.39517
 H1123 H -0.08404 0.50658 0.42937
 H1124 H -0.02124 0.49405 0.39399
 C1125 C 0.42306 1.01133 -0.20953
 C1126 C 0.41290 1.00584 -0.18847
 C1127 C 0.39041 0.99883 -0.18843
 C1128 C 0.37919 0.99656 -0.20842
 C1129 C 0.38973 1.00061 -0.22933
 C1130 C 0.41153 1.00903 -0.22955
 C1131 C 0.37898 0.99399 -0.16846
 C1132 C 0.38951 0.99540 -0.14820
 C1133 C 0.41216 1.00157 -0.14708
 C1134 C 0.42403 1.00712 -0.16751
 C1135 C 0.44665 1.01339 -0.16627
 C1136 C 0.45741 1.01399 -0.14588
 C1137 C 0.44617 1.00829 -0.12592
 C1138 C 0.42336 1.00210 -0.12619
 C1139 C 0.41279 0.99637 -0.10546
 C1140 C 0.42449 0.99639 -0.08556
 C1141 C 0.44707 1.00223 -0.08542
 C1142 C 0.45776 1.00842 -0.10567
 H1143 H 0.43976 1.01771 -0.21113
 H1144 H 0.36189 0.99130 -0.20779
 H1145 H 0.41967 1.01429 -0.24505
 H1146 H 0.36165 0.98887 -0.16846
 H1147 H 0.37928 0.99131 -0.13372
 H1148 H 0.45667 1.01771 -0.18086
 H1149 H 0.47485 1.01875 -0.14577
 H1150 H 0.39556 0.99155 -0.10385
 H1151 H 0.41568 0.99175 -0.07017
 H1152 H 0.47527 1.01298 -0.10578
 C1153 C 0.58555 0.47750 -0.20685
 C1154 C 0.59357 0.48749 -0.18735
 C1155 C 0.61288 0.50061 -0.18985
 C1156 C 0.62266 0.50458 -0.21098
 C1157 C 0.61353 0.49624 -0.23063
 C1158 C 0.59568 0.48144 -0.22792
 C1159 C 0.62255 0.50977 -0.17125
 C1160 C 0.61330 0.50655 -0.15002
 C1161 C 0.59365 0.49420 -0.14649
 C1162 C 0.58344 0.48470 -0.16550
 C1163 C 0.56317 0.47333 -0.16208
 C1164 C 0.55307 0.47146 -0.14096
 C1165 C 0.56284 0.48055 -0.12231
 C1166 C 0.58353 0.49161 -0.12467
 C1167 C 0.59306 0.49983 -0.10504
 C1168 C 0.58190 0.49822 -0.08432
 C1169 C 0.56096 0.48823 -0.08226
 C1170 C 0.55178 0.47900 -0.10134
 H1171 H 0.57183 0.46611 -0.20633
 H1172 H 0.63786 0.51412 -0.21196
 H1173 H 0.58953 0.47274 -0.24215
 H1174 H 0.63746 0.51971 -0.17312
 H1175 H 0.62176 0.51456 -0.13676
 H1176 H 0.55427 0.46619 -0.17559
 H1177 H 0.53727 0.46294 -0.13924
 H1178 H 0.60910 0.50767 -0.10499
 H1179 H 0.58964 0.50520 -0.06989
 H1180 H 0.53572 0.47091 -0.10001
 C1181 C 0.07573 -0.00595 0.28691
 C1182 C 0.08476 0.00037 0.30755
 C1183 C 0.10700 0.00817 0.30701
 C1184 C 0.11930 0.00975 0.28686
 C1185 C 0.11012 0.00409 0.26631
 C1186 C 0.08829 -0.00438 0.26679
 C1187 C 0.11720 0.01420 0.32663
 C1188 C 0.10603 0.01230 0.34708
 C1189 C 0.08399 0.00423 0.34883
 C1190 C 0.07288 -0.00124 0.32871
 C1191 C 0.05031 -0.00792 0.33049
 C1192 C 0.03907 -0.00942 0.35117
 C1193 C 0.04990 -0.00475 0.37098
 C1194 C 0.07263 0.00180 0.37007
 C1195 C 0.08322 0.00543 0.39057
 C1196 C 0.07153 0.00363 0.41088
 C1197 C 0.04883 -0.00205 0.41185
 C1198 C 0.03815 -0.00653 0.39174
 H1199 H 0.05925 -0.01279 0.28582
 H1200 H 0.13652 0.01514 0.28717
 H1201 H 0.08101 -0.01052 0.25177
 H1202 H 0.13415 0.02041 0.32621
 H1203 H 0.11518 0.01773 0.36122
 H1204 H 0.04069 -0.01177 0.31608
 H1205 H 0.02170 -0.01442 0.35165
 H1206 H 0.10067 0.00944 0.39170
 H1207 H 0.08056 0.00674 0.42601
 H1208 H 0.02068 -0.01121 0.39218
 C1209 C 0.20146 1.08080 1.00600
 C1210 C 0.18058 1.09133 0.99998
 C1211 C 0.18098 1.11383 0.99182
 C1212 C 0.20123 1.12509 0.98995
 C1213 C 0.22199 1.11458 0.99571
 C1214 C 0.22164 1.09232 1.00418
 C1215 C 0.16110 1.12540 0.98600
 C1216 C 0.14054 1.11529 0.98837
 C1217 C 0.13894 1.09299 0.99671
 C1218 C 0.15932 1.08065 1.00229
 C1219 C 0.15772 1.05812 1.00998
 C1220 C 0.13703 1.04802 1.01233
 C1221 C 0.11706 1.05989 1.00724
 C1222 C 0.11764 1.08258 0.99949
 C1223 C 0.09678 1.09388 0.99486
 C1224 C 0.07647 1.08288 0.99714
 C1225 C 0.07604 1.06030 1.00429
 C1226 C 0.09647 1.04903 1.00961
 H1227 H 0.20275 1.06392 1.01288
 H1228 H 0.20075 1.14265 0.98461
 H1229 H 0.23675 1.08393 1.01040
 H1230 H 0.16140 1.14263 0.97966
 H1231 H 0.12616 1.12555 0.98337
 H1232 H 0.17224 1.04765 1.01418
 H1233 H 0.13670 1.03064 1.01820
 H1234 H 0.09543 1.11124 0.98938
 H1235 H 0.06102 1.09213 0.99308
 H1236 H 0.09647 1.03154 1.01519
 C1237 C 0.67689 0.61508 0.50083
 C1238 C 0.67483 0.59192 0.49699
 C1239 C 0.69479 0.57900 0.49219
 C1240 C 0.71587 0.58917 0.49123
 C1241 C 0.71781 0.61186 0.49694
 C1242 C 0.69782 0.62471 0.50070
 C1243 C 0.69364 0.55592 0.48883
 C1244 C 0.67328 0.54516 0.49113
 C1245 C 0.65300 0.55725 0.49624
 C1246 C 0.65368 0.58117 0.49814
 C1247 C 0.63319 0.59362 0.50102
 C1248 C 0.61281 0.58310 0.50270
 C1249 C 0.61195 0.55978 0.50198
 C1250 C 0.63196 0.54637 0.49909
 C1251 C 0.62997 0.52266 0.49945
 C1252 C 0.60889 0.51293 0.50169
 C1253 C 0.58921 0.52647 0.50352
 C1254 C 0.59098 0.54986 0.50396
 H1255 H 0.66280 0.62624 0.50481
 H1256 H 0.73060 0.57918 0.48625
 H1257 H 0.69851 0.64245 0.50428
 H1258 H 0.70877 0.54593 0.48493
 H1259 H 0.67389 0.52730 0.48839
 H1260 H 0.63214 0.61170 0.50155
 H1261 H 0.59751 0.59340 0.50472
 H1262 H 0.64435 0.51117 0.49824
 H1263 H 0.60799 0.49477 0.50147
 H1264 H 0.57588 0.56051 0.50580
 C1265 C 0.72438 0.42271 -0.01109
 C1266 C 0.70427 0.41389 -0.00178
 C1267 C 0.70600 0.39263 0.00924
 C1268 C 0.72681 0.38134 0.01150
 C1269 C 0.74702 0.39062 0.00351
 C1270 C 0.74522 0.41102 -0.00886
 C1271 C 0.68694 0.38235 0.01791
 C1272 C 0.66586 0.39256 0.01574
 C1273 C 0.66293 0.41373 0.00484
 C1274 C 0.68247 0.42495 -0.00347
 C1275 C 0.67954 0.44690 -0.01271
 C1276 C 0.65829 0.45750 -0.01385
 C1277 C 0.63905 0.44648 -0.00637
 C1278 C 0.64109 0.42422 0.00255
 C1279 C 0.62107 0.41327 0.00874
 C1280 C 0.60015 0.42437 0.00738
 C1281 C 0.59819 0.44674 -0.00038
 C1282 C 0.61776 0.45762 -0.00762
 H1283 H 0.72444 0.43822 -0.02079
 H1284 H 0.72702 0.36467 0.01923
 H1285 H 0.75988 0.41781 -0.01726
 H1286 H 0.68830 0.36610 0.02652
 H1287 H 0.65222 0.38354 0.02341
 H1288 H 0.69351 0.45660 -0.01869
 H1289 H 0.65689 0.47451 -0.02073
 H1290 H 0.62082 0.39598 0.01446
 H1291 H 0.58541 0.41525 0.01261
 H1292 H 0.61650 0.47481 -0.01404
 C1293 C 0.21771 -0.07451 0.48407
 C1294 C 0.19737 -0.08321 0.49286
 C1295 C 0.19867 -0.10466 0.50363
 C1296 C 0.21941 -0.11614 0.50641
 C1297 C 0.23978 -0.10687 0.49891
 C1298 C 0.23835 -0.08638 0.48664
 C1299 C 0.17924 -0.11483 0.51155
 C1300 C 0.15830 -0.10432 0.50887
 C1301 C 0.15591 -0.08289 0.49833
 C1302 C 0.17579 -0.07177 0.49089
 C1303 C 0.17340 -0.04949 0.48229
 C1304 C 0.15234 -0.03848 0.48098
 C1305 C 0.13275 -0.04939 0.48753
 C1306 C 0.13427 -0.07199 0.49566
 C1307 C 0.11398 -0.08287 0.50073
 C1308 C 0.09327 -0.07141 0.49926
 C1309 C 0.09173 -0.04866 0.49252
 C1310 C 0.11161 -0.03783 0.48621
 H1311 H 0.21811 -0.05893 0.47449
 H1312 H 0.21954 -0.13280 0.51417
 H1313 H 0.25325 -0.07954 0.47875
 H1314 H 0.18019 -0.13121 0.51993
 H1315 H 0.14432 -0.11326 0.51596
 H1316 H 0.18766 -0.03982 0.47708
 H1317 H 0.15139 -0.02123 0.47470
 H1318 H 0.11340 -0.10039 0.50564
 H1319 H 0.07833 -0.08057 0.50370
 H1320 H 0.11071 -0.02036 0.48056
 C1321 C 0.30384 -0.07501 0.51501
 C1322 C 0.32499 -0.08563 0.50981
 C1323 C 0.32489 -0.10809 0.50245
 C1324 C 0.30461 -0.11884 0.49956
 C1325 C 0.28361 -0.10775 0.50331
 C1326 C 0.28364 -0.08601 0.51213
 C1327 C 0.34504 -0.11991 0.49794
 C1328 C 0.36551 -0.10993 0.50031
 C1329 C 0.36676 -0.08745 0.50718
 C1330 C 0.34616 -0.07499 0.51186
 C1331 C 0.34747 -0.05227 0.51796
 C1332 C 0.36807 -0.04200 0.51934
 C1333 C 0.38826 -0.05391 0.51490
 C1334 C 0.38792 -0.07690 0.50908
 C1335 C 0.40888 -0.08835 0.50522
 C1336 C 0.42906 -0.07724 0.50615
 C1337 C 0.42936 -0.05435 0.51115
 C1338 C 0.40882 -0.04286 0.51592
 H1339 H 0.30231 -0.05837 0.52175
 H1340 H 0.30513 -0.13614 0.49414
 H1341 H 0.26808 -0.07746 0.51724
 H1342 H 0.34500 -0.13715 0.49238
 H1343 H 0.38010 -0.12036 0.49618
 H1344 H 0.33274 -0.04173 0.52138
 H1345 H 0.36817 -0.02443 0.52382
 H1346 H 0.41045 -0.10594 0.50140
 H1347 H 0.44460 -0.08677 0.50279
 H1348 H 0.40877 -0.02517 0.51997
 C1349 C -0.16752 0.38405 1.00530
 C1350 C -0.16534 0.40719 1.00899
 C1351 C -0.18526 0.42022 1.01375
 C1352 C -0.20660 0.41055 1.01306
 C1353 C -0.20852 0.38794 1.00711
 C1354 C -0.18853 0.37477 1.00447
 C1355 C -0.18374 0.44284 1.01902
 C1356 C -0.16296 0.45292 1.01931
 C1357 C -0.14274 0.44083 1.01388
 C1358 C -0.14404 0.41765 1.00831
 C1359 C -0.12410 0.40580 1.00158
 C1360 C -0.10351 0.41601 1.00069
 C1361 C -0.10181 0.43840 1.00648
 C1362 C -0.12127 0.45116 1.01338
 C1363 C -0.11833 0.47374 1.01939
 C1364 C -0.09714 0.48319 1.01811
 C1365 C -0.07809 0.47057 1.01082
 C1366 C -0.08062 0.44810 1.00518
 H1367 H -0.15335 0.37246 1.00315
 H1368 H -0.22149 0.42067 1.01727
 H1369 H -0.18923 0.35696 1.00119
 H1370 H -0.19881 0.45293 1.02287
 H1371 H -0.16342 0.47048 1.02340
 H1372 H -0.12380 0.38863 0.99623
 H1373 H -0.08873 0.40622 0.99526
 H1374 H -0.13199 0.48459 1.02526
 H1375 H -0.09576 0.50059 1.02275
 H1376 H -0.06604 0.43804 0.99970
 C1377 C -0.21578 0.57559 0.51104
 C1378 C -0.19603 0.58372 0.50046
 C1379 C -0.19725 0.60567 0.49084
 C1380 C -0.21768 0.61799 0.49036
 C1381 C -0.23782 0.60905 0.49898
 C1382 C -0.23607 0.58832 0.51079
 C1383 C -0.17806 0.61542 0.48172
 C1384 C -0.15741 0.60395 0.48214
 C1385 C -0.15522 0.58193 0.49133
 C1386 C -0.17500 0.57125 0.49971
 C1387 C -0.17318 0.54835 0.50644
 C1388 C -0.15263 0.53643 0.50552
 C1389 C -0.13299 0.54702 0.49863
 C1390 C -0.13392 0.57008 0.49195
 C1391 C -0.11338 0.58050 0.48662
 C1392 C -0.09294 0.56837 0.48739
 C1393 C -0.09221 0.54546 0.49322
 C1394 C -0.11230 0.53478 0.49868
 H1395 H -0.21587 0.55981 0.52030
 H1396 H -0.21773 0.63496 0.48332
 H1397 H -0.25040 0.58186 0.52001
 H1398 H -0.17898 0.63221 0.47422
 H1399 H -0.14356 0.61260 0.47438
 H1400 H -0.18759 0.53897 0.51184
 H1401 H -0.15206 0.51879 0.51059
 H1402 H -0.11238 0.59817 0.48246
 H1403 H -0.07757 0.57700 0.48333
 H1404 H -0.11174 0.51712 0.50368
 C1405 C 0.30580 1.12025 0.00739
 C1406 C 0.31125 1.09897 -0.00154
 C1407 C 0.29398 1.08787 -0.01252
 C1408 C 0.27194 1.09749 -0.01348
 C1409 C 0.26636 1.11780 -0.00272
 C1410 C 0.28406 1.12939 0.00662
 C1411 C 0.29886 1.06725 -0.02252
 C1412 C 0.32034 1.05721 -0.02157
 C1413 C 0.33797 1.06738 -0.01039
 C1414 C 0.33330 1.08862 -0.00020
 C1415 C 0.35076 1.09873 0.01127
 C1416 C 0.37212 1.08877 0.01243
 C1417 C 0.37706 1.06821 0.00250
 C1418 C 0.36011 1.05708 -0.00896
 C1419 C 0.36613 1.03605 -0.01843
 C1420 C 0.38792 1.02672 -0.01661
 C1421 C 0.40459 1.03792 -0.00538
 C1422 C 0.39895 1.05871 0.00413
 H1423 H 0.31791 1.13057 0.01496
 H1424 H 0.25922 1.08915 -0.02263
 H1425 H 0.28111 1.14590 0.01359
 H1426 H 0.28587 1.05868 -0.03112
 H1427 H 0.32252 1.04132 -0.02975
 H1428 H 0.34854 1.11439 0.01984
 H1429 H 0.38493 1.09726 0.02136
 H1430 H 0.35448 1.02632 -0.02737
 H1431 H 0.39171 1.01065 -0.02426
 H1432 H 0.41162 1.06755 0.01292
 C1433 C -0.02041 1.22071 1.07462
 C1434 C -0.01338 1.19953 1.08403
 C1435 C -0.00804 1.19882 1.10701
 C1436 C -0.00877 1.21846 1.11949
 C1437 C -0.01456 1.23966 1.10987
 C1438 C -0.02129 1.24030 1.08742
 C1439 C -0.00194 1.17850 1.11764
 C1440 C -0.00131 1.15856 1.10611
 C1441 C -0.00655 1.15809 1.08320
 C1442 C -0.01192 1.17899 1.07174
 C1443 C -0.01521 1.17862 1.04841
 C1444 C -0.01374 1.15855 1.03675
 C1445 C -0.00954 1.13794 1.04788
 C1446 C -0.00626 1.13741 1.07135
 C1447 C -0.00326 1.11607 1.08210
 C1448 C -0.00318 1.09629 1.07005
 C1449 C -0.00592 1.09683 1.04683
 C1450 C -0.00890 1.11779 1.03576
 H1451 H -0.02589 1.22259 1.05758
 H1452 H -0.00465 1.21729 1.13709
 H1453 H -0.02763 1.25581 1.07969
 H1454 H 0.00235 1.17796 1.13521
 H1455 H 0.00394 1.14378 1.11565
 H1456 H -0.01849 1.19374 1.03855
 H1457 H -0.01622 1.15915 1.01882
 H1458 H -0.00151 1.11391 1.09992
 H1459 H -0.00092 1.08036 1.07907
 H1460 H -0.01139 1.11839 1.01782
 C1461 C 0.51633 0.69433 0.57480
 C1462 C 0.51302 0.67310 0.58545
 C1463 C 0.50670 0.67293 0.60841
 C1464 C 0.50263 0.69301 0.61960
 C1465 C 0.50438 0.71405 0.60860
 C1466 C 0.51238 0.71438 0.58628
 C1467 C 0.50427 0.65272 0.62026
 C1468 C 0.50733 0.63239 0.60970
 C1469 C 0.51266 0.63144 0.58660
 C1470 C 0.51569 0.65212 0.57425
 C1471 C 0.52054 0.65113 0.55106
 C1472 C 0.52168 0.63076 0.54012
 C1473 C 0.51822 0.61058 0.55182
 C1474 C 0.51425 0.61052 0.57530
 C1475 C 0.51142 0.58946 0.58640
 C1476 C 0.51097 0.56968 0.57447
 C1477 C 0.51367 0.57004 0.55115
 C1478 C 0.51803 0.59047 0.53999
 H1479 H 0.52234 0.69606 0.55774
 H1480 H 0.49779 0.69238 0.63721
 H1481 H 0.51615 0.73000 0.57764
 H1482 H 0.49969 0.65261 0.63793
 H1483 H 0.50478 0.61771 0.62018
 H1484 H 0.52290 0.66592 0.54065
 H1485 H 0.52490 0.63087 0.52219
 H1486 H 0.50920 0.58756 0.60425
 H1487 H 0.50815 0.55404 0.58360
 H1488 H 0.52042 0.59091 0.52194
 C1489 C 0.00849 0.70499 0.42110
 C1490 C -0.00107 0.68552 0.41266
 C1491 C -0.01049 0.68721 0.39112
 C1492 C -0.01238 0.70802 0.37982
 C1493 C -0.00520 0.72789 0.38944
 C1494 C 0.00695 0.72561 0.40938
 C1495 C -0.01823 0.66817 0.38097
 C1496 C -0.01696 0.64732 0.39181
 C1497 C -0.00852 0.64483 0.41367
 C1498 C -0.00126 0.66440 0.42460
 C1499 C 0.00462 0.66242 0.44734
 C1500 C 0.00363 0.64196 0.45899
 C1501 C -0.00241 0.62254 0.44826
 C1502 C -0.00786 0.62353 0.42525
 C1503 C -0.01222 0.60308 0.41471
 C1504 C -0.01200 0.58274 0.42678
 C1505 C -0.00776 0.58210 0.44972
 C1506 C -0.00294 0.60203 0.46040
 H1507 H 0.01781 0.70464 0.43641
 H1508 H -0.01978 0.70880 0.36338
 H1509 H 0.01524 0.73979 0.41612
 H1510 H -0.02540 0.66939 0.36443
 H1511 H -0.02371 0.63359 0.38294
 H1512 H 0.00916 0.67670 0.45688
 H1513 H 0.00783 0.64131 0.47657
 H1514 H -0.01530 0.60212 0.39706
 H1515 H -0.01545 0.56743 0.41817
 H1516 H 0.00091 0.60147 0.47807
 C1517 C 0.51213 1.18576 -0.12036
 C1518 C 0.50361 1.18139 -0.09861
 C1519 C 0.49439 1.19986 -0.08641
 C1520 C 0.49489 1.22204 -0.09552
 C1521 C 0.50419 1.22620 -0.11704
 C1522 C 0.51201 1.20743 -0.12936
 C1523 C 0.48411 1.19593 -0.06553
 C1524 C 0.48228 1.17409 -0.05680
 C1525 C 0.49128 1.15522 -0.06838
 C1526 C 0.50301 1.15910 -0.08914
 C1527 C 0.51398 1.14062 -0.09975
 C1528 C 0.51257 1.11890 -0.09107
 C1529 C 0.50019 1.11458 -0.07151
 C1530 C 0.48928 1.13259 -0.05985
 C1531 C 0.47667 1.12706 -0.04027
 C1532 C 0.47565 1.10480 -0.03235
 C1533 C 0.48700 1.08717 -0.04365
 C1534 C 0.49902 1.09226 -0.06341
 H1535 H 0.51799 1.17268 -0.13145
 H1536 H 0.48718 1.23580 -0.08622
 H1537 H 0.51765 1.20938 -0.14662
 H1538 H 0.47699 1.20985 -0.05600
 H1539 H 0.47399 1.17260 -0.04065
 H1540 H 0.52437 1.14241 -0.11462
 H1541 H 0.52130 1.10529 -0.09983
 H1542 H 0.46729 1.13950 -0.03072
 H1543 H 0.46602 1.10147 -0.01711
 H1544 H 0.50788 1.07887 -0.07237
 C1545 C 0.49529 0.31204 -0.11925
 C1546 C 0.50444 0.31491 -0.09802
 C1547 C 0.51320 0.29547 -0.08649
 C1548 C 0.51183 0.27386 -0.09578
 C1549 C 0.50185 0.27129 -0.11670
 C1550 C 0.49429 0.29093 -0.12830
 C1551 C 0.52373 0.29788 -0.06606
 C1552 C 0.52596 0.31907 -0.05698
 C1553 C 0.51729 0.33885 -0.06781
 C1554 C 0.50580 0.33658 -0.08837
 C1555 C 0.49577 0.35603 -0.09857
 C1556 C 0.49756 0.37709 -0.08957
 C1557 C 0.50922 0.37978 -0.06995
 C1558 C 0.51934 0.36082 -0.05871
 C1559 C 0.53098 0.36479 -0.03882
 C1560 C 0.53168 0.38644 -0.03020
 C1561 C 0.52106 0.40493 -0.04116
 C1562 C 0.51024 0.40143 -0.06128
 H1563 H 0.48947 0.32580 -0.12989
 H1564 H 0.51928 0.25935 -0.08710
 H1565 H 0.48783 0.29003 -0.14507
 H1566 H 0.53058 0.28322 -0.05708
 H1567 H 0.53439 0.31936 -0.04121
 H1568 H 0.48585 0.35563 -0.11341
 H1569 H 0.48951 0.39147 -0.09804
 H1570 H 0.53959 0.35156 -0.02942
 H1571 H 0.54036 0.38861 -0.01467
 H1572 H 0.50191 0.41552 -0.06994
 C1573 C -0.01453 -0.20798 0.42547
 C1574 C -0.00744 -0.18765 0.41519
 C1575 C -0.00369 -0.18749 0.39172
 C1576 C -0.00508 -0.20725 0.37965
 C1577 C -0.00927 -0.22802 0.39042
 C1578 C -0.01575 -0.22767 0.41320
 C1579 C 0.00191 -0.16773 0.38032
 C1580 C 0.00422 -0.14796 0.39172
 C1581 C 0.00131 -0.14720 0.41522
 C1582 C -0.00421 -0.16747 0.42722
 C1583 C -0.00565 -0.16705 0.45083
 C1584 C -0.00234 -0.14742 0.46235
 C1585 C 0.00223 -0.12734 0.45086
 C1586 C 0.00397 -0.12689 0.42712
 C1587 C 0.00797 -0.10596 0.41624
 C1588 C 0.00985 -0.08645 0.42839
 C1589 C 0.00808 -0.08699 0.45177
 C1590 C 0.00467 -0.10757 0.46299
 H1591 H -0.01949 -0.20918 0.44290
 H1592 H -0.00195 -0.20670 0.36169
 H1593 H -0.02168 -0.24261 0.42177
 H1594 H 0.00474 -0.16756 0.36232
 H1595 H 0.00890 -0.13366 0.38152
 H1596 H -0.00886 -0.18184 0.46100
 H1597 H -0.00357 -0.14792 0.48048
 H1598 H 0.00915 -0.10380 0.39833
 H1599 H 0.01248 -0.07071 0.41934
 H1600 H 0.00298 -0.10803 0.48111
 C1601 C 0.48591 -0.21835 0.57820
 C1602 C 0.49622 -0.19933 0.58688
 C1603 C 0.50605 -0.20187 0.60818
 C1604 C 0.50663 -0.22265 0.61944
 C1605 C 0.49861 -0.24207 0.60971
 C1606 C 0.48674 -0.23918 0.58969
 C1607 C 0.51546 -0.18371 0.61834
 C1608 C 0.51637 -0.16307 0.60739
 C1609 C 0.50802 -0.15977 0.58559
 C1610 C 0.49710 -0.17794 0.57540
 C1611 C 0.48770 -0.17411 0.55408
 C1612 C 0.48901 -0.15334 0.54304
 C1613 C 0.50015 -0.13573 0.55251
 C1614 C 0.51009 -0.13878 0.57377
 C1615 C 0.52204 -0.12074 0.58221
 C1616 C 0.52326 -0.10037 0.57048
 C1617 C 0.51283 -0.09714 0.54982
 C1618 C 0.50146 -0.11502 0.54079
 H1619 H 0.47707 -0.21775 0.56263
 H1620 H 0.51373 -0.22363 0.63600
 H1621 H 0.47831 -0.25318 0.58269
 H1622 H 0.52250 -0.18554 0.63491
 H1623 H 0.52369 -0.14997 0.61669
 H1624 H 0.47916 -0.18689 0.54541
 H1625 H 0.48142 -0.15113 0.52675
 H1626 H 0.53096 -0.12177 0.59772
 H1627 H 0.53246 -0.08703 0.57777
 H1628 H 0.49344 -0.11282 0.52472
 C1629 C -0.02528 0.32425 1.11693
 C1630 C -0.01191 0.32945 1.09786
 C1631 C -0.00133 0.31125 1.08632
 C1632 C -0.00303 0.28894 1.09459
 C1633 C -0.01646 0.28387 1.11365
 C1634 C -0.02721 0.30215 1.12472
 C1635 C 0.01124 0.31547 1.06678
 C1636 C 0.01310 0.33728 1.05814
 C1637 C 0.00309 0.35599 1.06922
 C1638 C -0.00867 0.35206 1.08997
 C1639 C -0.01625 0.37088 1.10245
 C1640 C -0.01320 0.39275 1.09459
 C1641 C -0.00315 0.39686 1.07368
 C1642 C 0.00480 0.37854 1.06048
 C1643 C 0.01354 0.38357 1.03880
 C1644 C 0.01429 0.40576 1.03072
 C1645 C 0.00691 0.42373 1.04405
 C1646 C -0.00148 0.41923 1.06567
 H1647 H -0.03455 0.33690 1.12631
 H1648 H 0.00663 0.27557 1.08644
 H1649 H -0.03668 0.29962 1.14017
 H1650 H 0.01954 0.30171 1.05789
 H1651 H 0.02319 0.33904 1.04305
 H1652 H -0.02411 0.36929 1.11880
 H1653 H -0.01920 0.40663 1.10484
 H1654 H 0.01912 0.37072 1.02732
 H1655 H 0.02060 0.40892 1.01383
 H1656 H -0.00769 0.43309 1.07585
 C1657 C 0.77063 0.32517 0.04697
 C1658 C 0.76382 0.33579 0.06718
 C1659 C 0.76065 0.35949 0.06646
 C1660 C 0.76350 0.37165 0.04641
 C1661 C 0.76833 0.36089 0.02606
 C1662 C 0.77301 0.33756 0.02684
 C1663 C 0.75428 0.37113 0.08565
 C1664 C 0.75007 0.35973 0.10564
 C1665 C 0.75219 0.33605 0.10730
 C1666 C 0.75994 0.32389 0.08799
 C1667 C 0.76351 0.30035 0.09021
 C1668 C 0.75963 0.28906 0.11048
 C1669 C 0.75147 0.30061 0.12921
 C1670 C 0.74717 0.32419 0.12780
 C1671 C 0.73783 0.33489 0.14697
 C1672 C 0.73405 0.32287 0.16692
 C1673 C 0.73928 0.29975 0.16854
 C1674 C 0.74768 0.28868 0.14944
 H1675 H 0.77403 0.30730 0.04605
 H1676 H 0.76097 0.38982 0.04637
 H1677 H 0.77861 0.32872 0.01202
 H1678 H 0.75221 0.38934 0.08515
 H1679 H 0.74548 0.37014 0.11963
 H1680 H 0.76962 0.29011 0.07659
 H1681 H 0.76289 0.27101 0.11145
 H1682 H 0.73303 0.35252 0.14717
 H1683 H 0.72731 0.33189 0.18126
 H1684 H 0.75156 0.27072 0.15032
 C1685 C 0.27058 0.82867 0.54290
 C1686 C 0.26303 0.83826 0.56338
 C1687 C 0.25563 0.86115 0.56266
 C1688 C 0.25536 0.87348 0.54241
 C1689 C 0.26177 0.86362 0.52195
 C1690 C 0.27020 0.84120 0.52270
 C1691 C 0.24854 0.87188 0.58217
 C1692 C 0.24844 0.86041 0.60260
 C1693 C 0.25542 0.83751 0.60445
 C1694 C 0.26281 0.82619 0.58452
 C1695 C 0.26955 0.80321 0.58642
 C1696 C 0.26917 0.79169 0.60697
 C1697 C 0.26204 0.80247 0.62652
 C1698 C 0.25512 0.82555 0.62558
 C1699 C 0.24810 0.83568 0.64590
 C1700 C 0.24774 0.82341 0.66606
 C1701 C 0.25439 0.80056 0.66696
 C1702 C 0.26169 0.79023 0.64704
 H1703 H 0.27722 0.81162 0.54192
 H1704 H 0.25001 0.89110 0.54252
 H1705 H 0.27698 0.83332 0.50776
 H1706 H 0.24293 0.88944 0.58166
 H1707 H 0.24261 0.87016 0.61666
 H1708 H 0.27511 0.79350 0.57222
 H1709 H 0.27445 0.77405 0.60754
 H1710 H 0.24272 0.85309 0.64700
 H1711 H 0.24219 0.83202 0.68108
 H1712 H 0.26694 0.77258 0.64742
 C1713 C 0.73323 0.63197 0.56221
 C1714 C 0.74535 0.65129 0.56635
 C1715 C 0.75471 0.66308 0.54768
 C1716 C 0.75319 0.65465 0.52584
 C1717 C 0.74053 0.63559 0.52180
 C1718 C 0.73111 0.62429 0.54063
 C1719 C 0.76556 0.68316 0.55100
 C1720 C 0.76647 0.69220 0.57229
 C1721 C 0.75752 0.68085 0.59135
 C1722 C 0.74816 0.65936 0.58843
 C1723 C 0.74234 0.64639 0.60768
 C1724 C 0.74428 0.65469 0.62904
 C1725 C 0.75137 0.67646 0.63210
 C1726 C 0.75785 0.69002 0.61332
 C1727 C 0.76352 0.71249 0.61727
 C1728 C 0.76255 0.72101 0.63890
 C1729 C 0.75655 0.70734 0.65733
 C1730 C 0.75142 0.68494 0.65387
 H1731 H 0.72477 0.62252 0.57528
 H1732 H 0.76214 0.66283 0.51214
 H1733 H 0.72229 0.60883 0.53890
 H1734 H 0.77295 0.69229 0.53692
 H1735 H 0.77497 0.70785 0.57344
 H1736 H 0.73681 0.62937 0.60682
 H1737 H 0.73960 0.64412 0.64330
 H1738 H 0.76781 0.72415 0.60390
 H1739 H 0.76638 0.73848 0.64124
 H1740 H 0.74631 0.67445 0.66806
 C1741 C 0.23943 0.13669 0.06011
 C1742 C 0.23197 0.15919 0.06304
 C1743 C 0.22727 0.17256 0.04360
 C1744 C 0.22967 0.16330 0.02208
 C1745 C 0.23847 0.14119 0.01945
 C1746 C 0.24243 0.12801 0.03895
 C1747 C 0.22067 0.19518 0.04581
 C1748 C 0.21986 0.20511 0.06673
 C1749 C 0.22492 0.19251 0.08647
 C1750 C 0.22977 0.16890 0.08462
 C1751 C 0.23240 0.15571 0.10442
 C1752 C 0.23227 0.16542 0.12521
 C1753 C 0.22950 0.18861 0.12720
 C1754 C 0.22542 0.20258 0.10802
 C1755 C 0.22265 0.22605 0.11128
 C1756 C 0.22422 0.23507 0.13261
 C1757 C 0.22867 0.22106 0.15132
 C1758 C 0.23099 0.19782 0.14842
 H1759 H 0.24399 0.12540 0.07375
 H1760 H 0.22482 0.17342 0.00759
 H1761 H 0.24851 0.11068 0.03782
 H1762 H 0.21679 0.20553 0.03112
 H1763 H 0.21503 0.22274 0.06692
 H1764 H 0.23437 0.13764 0.10455
 H1765 H 0.23476 0.15464 0.13991
 H1766 H 0.21976 0.23795 0.09768
 H1767 H 0.22229 0.25313 0.13436
 H1768 H 0.23413 0.18674 0.16278
 C1769 C 0.25739 0.17783 0.95453
 C1770 C 0.25124 0.16887 0.93382
 C1771 C 0.24233 0.14711 0.93437
 C1772 C 0.23914 0.13538 0.95468
 C1773 C 0.24411 0.14475 0.97536
 C1774 C 0.25428 0.16579 0.97477
 C1775 C 0.23683 0.13681 0.91463
 C1776 C 0.24007 0.14753 0.89409
 C1777 C 0.24888 0.16926 0.89239
 C1778 C 0.25411 0.18035 0.91259
 C1779 C 0.26165 0.20260 0.91086
 C1780 C 0.26408 0.21362 0.89018
 C1781 C 0.25943 0.20288 0.87035
 C1782 C 0.25217 0.18040 0.87114
 C1783 C 0.24846 0.16998 0.85053
 C1784 C 0.25071 0.18174 0.83024
 C1785 C 0.25697 0.20424 0.82952
 C1786 C 0.26174 0.21460 0.84970
 H1787 H 0.26532 0.19378 0.95562
 H1788 H 0.23314 0.11840 0.95424
 H1789 H 0.26043 0.17285 0.98990
 H1790 H 0.22993 0.12015 0.91504
 H1791 H 0.23501 0.13835 0.87983
 H1792 H 0.26537 0.21221 0.92531
 H1793 H 0.26963 0.23080 0.88973
 H1794 H 0.24388 0.15271 0.84935
 H1795 H 0.24735 0.17307 0.81497
 H1796 H 0.26680 0.23195 0.84942
 C1797 C 0.73626 0.67442 0.45578
 C1798 C 0.74154 0.66352 0.43531
 C1799 C 0.74482 0.63985 0.43625
 C1800 C 0.74408 0.62805 0.45672
 C1801 C 0.74037 0.63901 0.47719
 C1802 C 0.73537 0.66230 0.47627
 C1803 C 0.74900 0.62785 0.41677
 C1804 C 0.74993 0.63876 0.39608
 C1805 C 0.74698 0.66237 0.39400
 C1806 C 0.74333 0.67505 0.41397
 C1807 C 0.74213 0.69877 0.41193
 C1808 C 0.74412 0.70971 0.39116
 C1809 C 0.74688 0.69755 0.37150
 C1810 C 0.74797 0.67369 0.37259
 C1811 C 0.74973 0.66213 0.35210
 C1812 C 0.75070 0.67377 0.33158
 C1813 C 0.75013 0.69732 0.33059
 C1814 C 0.74831 0.70913 0.35069
 H1815 H 0.73222 0.69221 0.45644
 H1816 H 0.74674 0.60990 0.45685
 H1817 H 0.73035 0.67126 0.49120
 H1818 H 0.75161 0.60970 0.41751
 H1819 H 0.75358 0.62812 0.38205
 H1820 H 0.74016 0.70941 0.42625
 H1821 H 0.74329 0.72796 0.39046
 H1822 H 0.74989 0.64406 0.35118
 H1823 H 0.75192 0.66420 0.31636
 H1824 H 0.74744 0.72738 0.35012
 C1825 C 0.27297 0.86645 0.43809
 C1826 C 0.26092 0.84680 0.43463
 C1827 C 0.24927 0.83735 0.45333
 C1828 C 0.25007 0.84718 0.47456
 C1829 C 0.26301 0.86618 0.47803
 C1830 C 0.27366 0.87598 0.45911
 C1831 C 0.23657 0.81832 0.45068
 C1832 C 0.23518 0.80837 0.42990
 C1833 C 0.24652 0.81708 0.41074
 C1834 C 0.25964 0.83661 0.41318
 C1835 C 0.27106 0.84535 0.39410
 C1836 C 0.26953 0.83570 0.37333
 C1837 C 0.25681 0.81678 0.37060
 C1838 C 0.24519 0.80701 0.38917
 C1839 C 0.23284 0.78754 0.38524
 C1840 C 0.23223 0.77833 0.36388
 C1841 C 0.24371 0.78821 0.34564
 C1842 C 0.25589 0.80752 0.34925
 H1843 H 0.28172 0.87534 0.42487
 H1844 H 0.24028 0.84018 0.48837
 H1845 H 0.28231 0.89161 0.46030
 H1846 H 0.22753 0.81101 0.46486
 H1847 H 0.22495 0.79381 0.42944
 H1848 H 0.28152 0.85973 0.39451
 H1849 H 0.27857 0.84313 0.35920
 H1850 H 0.22355 0.77890 0.39829
 H1851 H 0.22265 0.76340 0.36167
 H1852 H 0.26504 0.81532 0.33540
 C1853 C 0.78061 0.36457 0.94225
 C1854 C 0.76857 0.34511 0.93827
 C1855 C 0.75569 0.33595 0.95629
 C1856 C 0.75603 0.34544 0.97770
 C1857 C 0.76964 0.36376 0.98189
 C1858 C 0.78085 0.37373 0.96336
 C1859 C 0.74230 0.31761 0.95271
 C1860 C 0.74141 0.30814 0.93166
 C1861 C 0.75424 0.31646 0.91328
 C1862 C 0.76838 0.33499 0.91682
 C1863 C 0.78216 0.34269 0.89889
 C1864 C 0.78151 0.33336 0.87795
 C1865 C 0.76738 0.31580 0.87398
 C1866 C 0.75361 0.30688 0.89148
 C1867 C 0.73986 0.28878 0.88627
 C1868 C 0.74003 0.28001 0.86472
 C1869 C 0.75372 0.28905 0.84761
 C1870 C 0.76727 0.30700 0.85246
 H1871 H 0.78950 0.37374 0.92930
 H1872 H 0.74542 0.33870 0.99102
 H1873 H 0.78968 0.38921 0.96492
 H1874 H 0.73227 0.31055 0.96634
 H1875 H 0.73058 0.29410 0.93040
 H1876 H 0.79406 0.35575 0.90047
 H1877 H 0.79233 0.33995 0.86470
 H1878 H 0.72875 0.28103 0.89841
 H1879 H 0.72930 0.26615 0.86144
 H1880 H 0.77810 0.31407 0.83947
 C1881 C 0.86284 0.42889 0.26420
 C1882 C 0.84087 0.42609 0.25648
 C1883 C 0.82968 0.44512 0.24663
 C1884 C 0.84005 0.46602 0.24510
 C1885 C 0.86180 0.46901 0.25344
 C1886 C 0.87303 0.44964 0.26242
 C1887 C 0.80833 0.44315 0.23780
 C1888 C 0.79789 0.42261 0.23823
 C1889 C 0.80836 0.40304 0.24773
 C1890 C 0.83000 0.40493 0.25747
 C1891 C 0.84004 0.38562 0.26791
 C1892 C 0.82970 0.36504 0.26827
 C1893 C 0.80896 0.36274 0.25830
 C1894 C 0.79792 0.38165 0.24789
 C1895 C 0.77694 0.37824 0.23793
 C1896 C 0.76735 0.35714 0.23859
 C1897 C 0.77826 0.33856 0.24907
 C1898 C 0.79916 0.34154 0.25881
 H1899 H 0.87306 0.41523 0.27110
 H1900 H 0.83145 0.47970 0.23614
 H1901 H 0.89019 0.45001 0.26779
 H1902 H 0.79962 0.45766 0.23026
 H1903 H 0.78145 0.42275 0.23103
 H1904 H 0.85589 0.38582 0.27626
 H1905 H 0.83812 0.35071 0.27645
 H1906 H 0.76746 0.39144 0.22934
 H1907 H 0.75126 0.35542 0.23074
 H1908 H 0.80781 0.32736 0.26700
 C1909 C 0.36840 0.93469 0.76012
 C1910 C 0.34757 0.93048 0.75050
 C1911 C 0.33581 0.94881 0.73989
 C1912 C 0.34431 0.97062 0.73997
 C1913 C 0.36431 0.97485 0.75107
 C1914 C 0.37660 0.95621 0.76011
 C1915 C 0.31579 0.94523 0.72901
 C1916 C 0.30707 0.92387 0.72850
 C1917 C 0.31796 0.90513 0.73917
 C1918 C 0.33840 0.90859 0.75061
 C1919 C 0.34886 0.89015 0.76213
 C1920 C 0.33997 0.86896 0.76221
 C1921 C 0.32026 0.86520 0.75096
 C1922 C 0.30897 0.88310 0.73914
 C1923 C 0.28905 0.87813 0.72796
 C1924 C 0.28042 0.85662 0.72927
 C1925 C 0.29139 0.83925 0.74152
 C1926 C 0.31155 0.84360 0.75196
 H1927 H 0.37926 0.92169 0.76727
 H1928 H 0.33550 0.98421 0.73106
 H1929 H 0.39311 0.95808 0.76699
 H1930 H 0.30673 0.95911 0.72074
 H1931 H 0.29150 0.92271 0.71978
 H1932 H 0.36381 0.89150 0.77178
 H1933 H 0.34854 0.85538 0.77141
 H1934 H 0.27959 0.89044 0.71816
 H1935 H 0.26494 0.85366 0.72072
 H1936 H 0.32022 0.83029 0.76145
 C1937 C 0.17376 0.96080 0.26193
 C1938 C 0.16399 0.93998 0.25746
 C1939 C 0.14156 0.94077 0.24991
 C1940 C 0.13008 0.96137 0.24604
 C1941 C 0.14028 0.98203 0.24915
 C1942 C 0.16198 0.98136 0.25816
 C1943 C 0.13049 0.92101 0.24616
 C1944 C 0.14119 0.90022 0.24956
 C1945 C 0.16369 0.89827 0.25669
 C1946 C 0.17543 0.91846 0.26039
 C1947 C 0.19830 0.91643 0.26633
 C1948 C 0.20939 0.89548 0.26838
 C1949 C 0.19812 0.87567 0.26497
 C1950 C 0.17498 0.87677 0.25959
 C1951 C 0.16410 0.85619 0.25713
 C1952 C 0.17598 0.83564 0.25860
 C1953 C 0.19908 0.83460 0.26284
 C1954 C 0.20997 0.85473 0.26654
 H1955 H 0.19030 0.96177 0.26881
 H1956 H 0.11287 0.96138 0.24038
 H1957 H 0.16986 0.99665 0.26276
 H1958 H 0.11329 0.92161 0.24041
 H1959 H 0.13137 0.88596 0.24585
 H1960 H 0.20835 0.93084 0.26894
 H1961 H 0.22706 0.89480 0.27256
 H1962 H 0.14639 0.85523 0.25407
 H1963 H 0.16690 0.82042 0.25619
 H1964 H 0.22780 0.85419 0.27007
 C1965 C 0.64407 0.43929 0.73195
 C1966 C 0.66394 0.43516 0.74397
 C1967 C 0.67166 0.45271 0.75718
 C1968 C 0.66033 0.47405 0.75708
 C1969 C 0.64098 0.47828 0.74413
 C1970 C 0.63277 0.46001 0.73243
 C1971 C 0.69011 0.44853 0.77096
 C1972 C 0.70058 0.42716 0.77238
 C1973 C 0.69341 0.40921 0.75945
 C1974 C 0.67547 0.41371 0.74424
 C1975 C 0.66959 0.39663 0.72964
 C1976 C 0.67947 0.37528 0.73107
 C1977 C 0.69582 0.37008 0.74684
 C1978 C 0.70341 0.38690 0.76108
 C1979 C 0.72042 0.38045 0.77648
 C1980 C 0.72933 0.35829 0.77752
 C1981 C 0.72143 0.34184 0.76349
 C1982 C 0.70471 0.34800 0.74818
 H1983 H 0.63592 0.42643 0.72300
 H1984 H 0.66606 0.48707 0.76777
 H1985 H 0.61680 0.46121 0.72406
 H1986 H 0.69620 0.46176 0.78119
 H1987 H 0.71444 0.42526 0.78368
 H1988 H 0.65758 0.39931 0.71651
 H1989 H 0.67412 0.36263 0.71970
 H1990 H 0.72705 0.39203 0.78806
 H1991 H 0.74230 0.35400 0.78951
 H1992 H 0.69867 0.33555 0.73696
 C1993 C 0.63296 0.56312 0.75208
 C1994 C 0.65575 0.56657 0.74650
 C1995 C 0.66924 0.54765 0.73973
 C1996 C 0.66026 0.52592 0.73981
 C1997 C 0.63775 0.52267 0.74660
 C1998 C 0.62429 0.54181 0.75197
 C1999 C 0.69149 0.55064 0.73267
 C2000 C 0.70060 0.57195 0.73203
 C2001 C 0.68789 0.59121 0.73895
 C2002 C 0.66529 0.58829 0.74691
 C2003 C 0.65300 0.60712 0.75537
 C2004 C 0.66199 0.62826 0.75524
 C2005 C 0.68360 0.63164 0.74676
 C2006 C 0.69698 0.61329 0.73848
 C2007 C 0.71881 0.61798 0.73001
 C2008 C 0.72690 0.63982 0.73011
 C2009 C 0.71357 0.65777 0.73856
 C2010 C 0.69188 0.65343 0.74677
 H2011 H 0.62106 0.57656 0.75607
 H2012 H 0.67068 0.51182 0.73410
 H2013 H 0.60659 0.54019 0.75622
 H2014 H 0.70197 0.53636 0.72738
 H2015 H 0.71786 0.57271 0.72631
 H2016 H 0.63639 0.60610 0.76277
 H2017 H 0.65184 0.64217 0.76190
 H2018 H 0.73002 0.60522 0.72304
 H2019 H 0.74371 0.64262 0.72353
 H2020 H 0.68131 0.66707 0.75335
 C2021 C 0.17045 0.04763 0.22832
 C2022 C 0.16074 0.06801 0.23657
 C2023 C 0.13934 0.06696 0.24731
 C2024 C 0.12879 0.04640 0.25040
 C2025 C 0.13909 0.02596 0.24346
 C2026 C 0.15960 0.02718 0.23135
 C2027 C 0.12829 0.08648 0.25483
 C2028 C 0.13795 0.10723 0.25198
 C2029 C 0.15934 0.10936 0.24159
 C2030 C 0.17117 0.08938 0.23415
 C2031 C 0.19313 0.09145 0.22500
 C2032 C 0.20319 0.11222 0.22314
 C2033 C 0.19174 0.13187 0.22998
 C2034 C 0.16949 0.13078 0.23889
 C2035 C 0.15829 0.15127 0.24479
 C2036 C 0.16911 0.17164 0.24302
 C2037 C 0.19144 0.17261 0.23513
 C2038 C 0.20253 0.15262 0.22822
 H2039 H 0.18611 0.04698 0.21892
 H2040 H 0.11207 0.04649 0.25800
 H2041 H 0.16724 0.01227 0.22393
 H2042 H 0.11189 0.08573 0.26308
 H2043 H 0.12826 0.12126 0.25865
 H2044 H 0.20327 0.07714 0.21957
 H2045 H 0.22020 0.11289 0.21631
 H2046 H 0.14109 0.15229 0.25076
 H2047 H 0.15984 0.18676 0.24808
 H2048 H 0.21973 0.15308 0.22186
 C2049 C 0.32480 0.04009 0.76008
 C2050 C 0.33426 0.06077 0.75310
 C2051 C 0.35699 0.06004 0.74554
 C2052 C 0.36933 0.03976 0.74484
 C2053 C 0.35969 0.01916 0.75067
 C2054 C 0.33741 0.01969 0.75910
 C2055 C 0.36765 0.07955 0.73878
 C2056 C 0.35606 0.10003 0.73854
 C2057 C 0.33314 0.10183 0.74507
 C2058 C 0.32224 0.08212 0.75337
 C2059 C 0.29994 0.08460 0.76183
 C2060 C 0.28871 0.10558 0.76215
 C2061 C 0.29892 0.12475 0.75332
 C2062 C 0.32104 0.12292 0.74406
 C2063 C 0.33015 0.14229 0.73378
 C2064 C 0.31846 0.16285 0.73401
 C2065 C 0.29710 0.16505 0.74424
 C2066 C 0.28719 0.14578 0.75359
 H2067 H 0.30773 0.03911 0.76637
 H2068 H 0.38686 0.03991 0.73941
 H2069 H 0.32974 0.00452 0.76536
 H2070 H 0.38523 0.07900 0.73348
 H2071 H 0.36585 0.11428 0.73364
 H2072 H 0.29081 0.07063 0.76875
 H2073 H 0.27175 0.10677 0.76916
 H2074 H 0.34613 0.14215 0.72494
 H2075 H 0.32641 0.17716 0.72606
 H2076 H 0.27048 0.14713 0.76116
 C2077 C 0.82509 0.53538 0.25937
 C2078 C 0.83388 0.55544 0.25015
 C2079 C 0.85586 0.55408 0.24069
 C2080 C 0.86811 0.53352 0.24019
 C2081 C 0.85917 0.51327 0.24864
 C2082 C 0.83756 0.51499 0.25891
 C2083 C 0.86591 0.57336 0.23212
 C2084 C 0.85481 0.59421 0.23307
 C2085 C 0.83295 0.59667 0.24259
 C2086 C 0.82204 0.57688 0.25071
 C2087 C 0.79966 0.57920 0.25898
 C2088 C 0.78850 0.60010 0.25979
 C2089 C 0.79914 0.61960 0.25260
 C2090 C 0.82158 0.61824 0.24405
 C2091 C 0.83173 0.63863 0.23749
 C2092 C 0.81991 0.65924 0.23881
 C2093 C 0.79759 0.66047 0.24680
 C2094 C 0.78738 0.64050 0.25383
 H2095 H 0.80898 0.53498 0.26795
 H2096 H 0.88515 0.53377 0.23375
 H2097 H 0.83053 0.50087 0.26798
 H2098 H 0.88272 0.57239 0.22471
 H2099 H 0.86387 0.60807 0.22591
 H2100 H 0.79009 0.56505 0.26469
 H2101 H 0.77130 0.60101 0.26621
 H2102 H 0.84887 0.63938 0.23142
 H2103 H 0.82839 0.67433 0.23342
 H2104 H 0.77015 0.64113 0.26019
 C2105 C 0.94315 0.24558 0.17420
 C2106 C 0.92214 0.25256 0.16519
 C2107 C 0.92185 0.25944 0.14235
 C2108 C 0.94197 0.26121 0.12991
 C2109 C 0.96301 0.25664 0.13970
 C2110 C 0.96310 0.24722 0.16153
 C2111 C 0.90153 0.26487 0.13203
 C2112 C 0.88130 0.26375 0.14391
 C2113 C 0.88063 0.25763 0.16689
 C2114 C 0.90144 0.25265 0.17789
 C2115 C 0.90092 0.24875 0.20130
 C2116 C 0.88076 0.24934 0.21353
 C2117 C 0.86026 0.25319 0.20291
 C2118 C 0.85986 0.25690 0.17936
 C2119 C 0.83859 0.25946 0.16922
 C2120 C 0.81874 0.25889 0.18199
 C2121 C 0.81926 0.25593 0.20528
 C2122 C 0.84010 0.25320 0.21570
 H2123 H 0.94466 0.23833 0.19083
 H2124 H 0.94136 0.26686 0.11254
 H2125 H 0.97858 0.24101 0.16902
 H2126 H 0.90124 0.27013 0.11453
 H2127 H 0.86649 0.26863 0.13468
 H2128 H 0.91601 0.24594 0.21081
 H2129 H 0.88122 0.24655 0.23152
 H2130 H 0.83660 0.26141 0.15140
 H2131 H 0.80283 0.26091 0.17351
 H2132 H 0.84060 0.25050 0.23371
 C2133 C 0.43750 0.72384 0.63404
 C2134 C 0.43187 0.73700 0.65280
 C2135 C 0.44922 0.74931 0.66219
 C2136 C 0.47138 0.74783 0.65334
 C2137 C 0.47697 0.73405 0.63505
 C2138 C 0.45931 0.72275 0.62524
 C2139 C 0.44426 0.76348 0.68003
 C2140 C 0.42241 0.76596 0.68860
 C2141 C 0.40453 0.75404 0.67983
 C2142 C 0.40947 0.73890 0.66199
 C2143 C 0.39191 0.72599 0.65403
 C2144 C 0.37018 0.72809 0.66278
 C2145 C 0.36494 0.74309 0.67981
 C2146 C 0.38192 0.75645 0.68850
 C2147 C 0.37549 0.77159 0.70561
 C2148 C 0.35353 0.77252 0.71431
 C2149 C 0.33706 0.75867 0.70618
 C2150 C 0.34280 0.74436 0.68854
 H2151 H 0.42530 0.71485 0.62502
 H2152 H 0.48417 0.75802 0.66027
 H2153 H 0.46196 0.71349 0.60999
 H2154 H 0.45740 0.77298 0.68733
 H2155 H 0.42019 0.77722 0.70238
 H2156 H 0.39441 0.71363 0.64126
 H2157 H 0.35734 0.71770 0.65620
 H2158 H 0.38698 0.78289 0.71277
 H2159 H 0.34950 0.78403 0.72774
 H2160 H 0.33022 0.73356 0.68210
 C2161 C 0.43814 0.25210 0.86454
 C2162 C 0.43449 0.24620 0.84228
 C2163 C 0.45344 0.23890 0.82917
 C2164 C 0.47538 0.23936 0.83776
 C2165 C 0.47886 0.24775 0.85920
 C2166 C 0.45969 0.25271 0.87271
 C2167 C 0.45030 0.23120 0.80762
 C2168 C 0.42885 0.23088 0.79870
 C2169 C 0.40959 0.23876 0.81089
 C2170 C 0.41259 0.24693 0.83290
 C2171 C 0.39371 0.25621 0.84465
 C2172 C 0.37249 0.25696 0.83557
 C2173 C 0.36910 0.24859 0.81442
 C2174 C 0.38747 0.23922 0.80175
 C2175 C 0.38283 0.23082 0.78043
 C2176 C 0.36109 0.23229 0.77199
 C2177 C 0.34316 0.24206 0.78446
 C2178 C 0.34733 0.24995 0.80579
 H2179 H 0.42473 0.25599 0.87637
 H2180 H 0.48954 0.23301 0.82782
 H2181 H 0.46135 0.25740 0.88999
 H2182 H 0.46459 0.22538 0.79749
 H2183 H 0.42802 0.22479 0.78192
 H2184 H 0.39478 0.26374 0.86078
 H2185 H 0.35856 0.26437 0.84521
 H2186 H 0.39555 0.22298 0.76983
 H2187 H 0.35840 0.22583 0.75549
 H2188 H 0.33364 0.25745 0.81568
 C2189 C 0.92803 0.74617 0.37038
 C2190 C 0.92389 0.75208 0.34783
 C2191 C 0.94260 0.75790 0.33399
 C2192 C 0.96445 0.75840 0.34284
 C2193 C 0.96850 0.75124 0.36508
 C2194 C 0.94968 0.74588 0.37869
 C2195 C 0.93939 0.76293 0.31132
 C2196 C 0.91829 0.76128 0.30188
 C2197 C 0.89924 0.75531 0.31499
 C2198 C 0.90187 0.75195 0.33855
 C2199 C 0.88239 0.74881 0.35209
 C2200 C 0.86120 0.74793 0.34287
 C2201 C 0.85853 0.74950 0.31977
 C2202 C 0.87754 0.75290 0.30543
 C2203 C 0.87409 0.75314 0.28208
 C2204 C 0.85270 0.75050 0.27349
 C2205 C 0.83388 0.74780 0.28774
 C2206 C 0.83693 0.74748 0.31093
 H2207 H 0.91502 0.74094 0.38198
 H2208 H 0.97810 0.76438 0.33231
 H2209 H 0.95180 0.74102 0.39611
 H2210 H 0.95347 0.76765 0.30060
 H2211 H 0.91732 0.76534 0.28425
 H2212 H 0.88284 0.74754 0.37009
 H2213 H 0.84676 0.74559 0.35397
 H2214 H 0.88767 0.75475 0.26998
 H2215 H 0.85088 0.75079 0.25548
 H2216 H 0.82255 0.74513 0.32211
 C2217 C 0.03568 0.73988 0.32776
 C2218 C 0.05552 0.74849 0.33661
 C2219 C 0.05403 0.75692 0.35855
 C2220 C 0.03345 0.75793 0.37028
 C2221 C 0.01337 0.75072 0.36101
 C2222 C 0.01520 0.74043 0.34002
 C2223 C 0.07314 0.76415 0.36898
 C2224 C 0.09402 0.76283 0.35831
 C2225 C 0.09658 0.75464 0.33640
 C2226 C 0.07689 0.74839 0.32494
 C2227 C 0.07921 0.74284 0.30214
 C2228 C 0.10007 0.74314 0.29101
 C2229 C 0.11958 0.74802 0.30235
 C2230 C 0.11817 0.75313 0.32541
 C2231 C 0.13853 0.75613 0.33669
 C2232 C 0.15924 0.75499 0.32534
 C2233 C 0.16051 0.75110 0.30234
 C2234 C 0.14058 0.74764 0.29087
 H2235 H 0.03573 0.73174 0.31181
 H2236 H 0.03324 0.76407 0.38722
 H2237 H 0.00099 0.73227 0.33317
 H2238 H 0.07200 0.77077 0.38575
 H2239 H 0.10780 0.76913 0.36747
 H2240 H 0.06495 0.73894 0.29224
 H2241 H 0.10097 0.73918 0.27338
 H2242 H 0.13913 0.75877 0.35445
 H2243 H 0.17441 0.75744 0.33461
 H2244 H 0.14149 0.74410 0.27314
 C2245 C 0.54453 0.26339 0.82158
 C2246 C 0.56542 0.25811 0.83193
 C2247 C 0.56466 0.25061 0.85455
 C2248 C 0.54420 0.24759 0.86571
 C2249 C 0.52345 0.25167 0.85521
 C2250 C 0.52393 0.26060 0.83320
 C2251 C 0.58433 0.24605 0.86624
 C2252 C 0.60510 0.24884 0.85606
 C2253 C 0.60709 0.25618 0.83352
 C2254 C 0.58700 0.26028 0.82098
 C2255 C 0.58927 0.26572 0.79792
 C2256 C 0.61041 0.26682 0.78743
 C2257 C 0.63010 0.26323 0.79959
 C2258 C 0.62863 0.25866 0.82296
 C2259 C 0.64890 0.25661 0.83491
 C2260 C 0.66965 0.25701 0.82388
 C2261 C 0.67115 0.25993 0.80060
 C2262 C 0.65130 0.26379 0.78855
 H2263 H 0.54360 0.27034 0.80479
 H2264 H 0.54438 0.24207 0.88314
 H2265 H 0.50858 0.26609 0.82504
 H2266 H 0.58369 0.24015 0.88356
 H2267 H 0.61932 0.24429 0.86627
 H2268 H 0.57492 0.26848 0.78736
 H2269 H 0.61134 0.27046 0.76958
 H2270 H 0.64945 0.25482 0.85287
 H2271 H 0.68470 0.25491 0.83376
 H2272 H 0.65230 0.26653 0.77055
 C2273 C 0.54183 0.72723 0.67197
 C2274 C 0.56259 0.73260 0.66122
 C2275 C 0.56209 0.73837 0.63815
 C2276 C 0.54190 0.73902 0.62670
 C2277 C 0.52123 0.73454 0.63750
 C2278 C 0.52157 0.72800 0.66024
 C2279 C 0.58172 0.74348 0.62632
 C2280 C 0.60215 0.74340 0.63692
 C2281 C 0.60381 0.73820 0.65999
 C2282 C 0.58377 0.73240 0.67234
 C2283 C 0.58564 0.72669 0.69530
 C2284 C 0.60622 0.72682 0.70590
 C2285 C 0.62575 0.73283 0.69419
 C2286 C 0.62487 0.73865 0.67109
 C2287 C 0.64516 0.74497 0.66013
 C2288 C 0.66526 0.74556 0.67165
 C2289 C 0.66602 0.73980 0.69446
 C2290 C 0.64616 0.73329 0.70559
 H2291 H 0.54065 0.72220 0.68938
 H2292 H 0.54216 0.74331 0.60895
 H2293 H 0.50636 0.72306 0.66899
 H2294 H 0.58131 0.74771 0.60857
 H2295 H 0.61636 0.74747 0.62634
 H2296 H 0.57142 0.72204 0.70564
 H2297 H 0.60681 0.72234 0.72358
 H2298 H 0.64620 0.74988 0.64270
 H2299 H 0.68028 0.75064 0.66258
 H2300 H 0.64644 0.72891 0.72330
 C2301 C 0.02738 0.27269 0.17108
 C2302 C 0.04778 0.26336 0.16217
 C2303 C 0.04744 0.25456 0.14038
 C2304 C 0.02717 0.25339 0.12904
 C2305 C 0.00654 0.26083 0.13880
 C2306 C 0.00735 0.27198 0.15930
 C2307 C 0.06734 0.24700 0.12986
 C2308 C 0.08778 0.24822 0.14041
 C2309 C 0.08902 0.25646 0.16230
 C2310 C 0.06858 0.26308 0.17378
 C2311 C 0.06955 0.26847 0.19663
 C2312 C 0.08988 0.26784 0.20778
 C2313 C 0.11010 0.26274 0.19641
 C2314 C 0.11000 0.25767 0.17332
 C2315 C 0.13099 0.25438 0.16205
 C2316 C 0.15109 0.25527 0.17346
 C2317 C 0.15104 0.25915 0.19646
 C2318 C 0.13050 0.26284 0.20792
 H2319 H 0.02656 0.28138 0.18674
 H2320 H 0.02761 0.24684 0.11226
 H2321 H -0.00763 0.28015 0.16638
 H2322 H 0.06715 0.24018 0.11319
 H2323 H 0.10229 0.24169 0.13124
 H2324 H 0.05464 0.27240 0.20658
 H2325 H 0.08979 0.27170 0.22543
 H2326 H 0.13250 0.25172 0.14430
 H2327 H 0.16683 0.25258 0.16426
 H2328 H 0.13046 0.26633 0.22567
 C2329 C -0.07645 1.00798 0.79235
 C2330 C -0.08441 0.99888 0.81308
 C2331 C -0.10537 0.98835 0.81316
 C2332 C -0.11691 0.98589 0.79328
 C2333 C -0.10836 0.99360 0.77238
 C2334 C -0.08855 1.00591 0.77256
 C2335 C -0.11505 0.98045 0.83314
 C2336 C -0.10461 0.98314 0.85334
 C2337 C -0.08367 0.99347 0.85436
 C2338 C -0.07286 1.00050 0.83383
 C2339 C -0.05075 1.00831 0.83476
 C2340 C -0.03972 1.00951 0.85505
 C2341 C -0.05057 1.00388 0.87530
 C2342 C -0.07297 0.99644 0.87524
 C2343 C -0.08396 0.99266 0.89618
 C2344 C -0.07288 0.99533 0.91621
 C2345 C -0.05042 1.00159 0.91622
 C2346 C -0.03928 1.00583 0.89567
 H2347 H -0.06142 1.01763 0.79112
 H2348 H -0.13319 0.97823 0.79427
 H2349 H -0.08255 1.01445 0.75754
 H2350 H -0.13105 0.97222 0.83321
 H2351 H -0.11310 0.97619 0.86789
 H2352 H -0.04126 1.01292 0.81987
 H2353 H -0.02260 1.01524 0.85491
 H2354 H -0.10135 0.98824 0.89773
 H2355 H -0.08191 0.99220 0.93186
 H2356 H -0.02202 1.01117 0.89558
 C2357 C 0.42711 0.48643 0.29450
 C2358 C 0.41751 0.49507 0.31446
 C2359 C 0.39510 0.50386 0.31370
 C2360 C 0.38318 0.50427 0.29366
 C2361 C 0.39299 0.49629 0.27352
 C2362 C 0.41507 0.48682 0.27475
 C2363 C 0.38441 0.51183 0.33308
 C2364 C 0.39528 0.51083 0.35341
 C2365 C 0.41753 0.50192 0.35517
 C2366 C 0.42906 0.49452 0.33524
 C2367 C 0.45175 0.48685 0.33674
 C2368 C 0.46256 0.48554 0.35708
 C2369 C 0.45130 0.49179 0.37676
 C2370 C 0.42866 0.50016 0.37618
 C2371 C 0.41807 0.50612 0.39676
 C2372 C 0.42955 0.50396 0.41685
 C2373 C 0.45191 0.49572 0.41726
 C2374 C 0.46266 0.48969 0.39708
 H2375 H 0.44362 0.47842 0.29364
 H2376 H 0.36591 0.51043 0.29420
 H2377 H 0.42303 0.47856 0.26057
 H2378 H 0.36728 0.51872 0.33261
 H2379 H 0.38569 0.51735 0.36745
 H2380 H 0.46185 0.48190 0.32240
 H2381 H 0.47995 0.47941 0.35740
 H2382 H 0.40086 0.51227 0.39807
 H2383 H 0.42071 0.50866 0.43218
 H2384 H 0.47998 0.48332 0.39712
 C2385 C 0.57450 0.00999 0.29248
 C2386 C 0.58572 0.00200 0.31184
 C2387 C 0.60812 -0.00643 0.30911
 C2388 C 0.61838 -0.00742 0.28784
 C2389 C 0.60698 -0.00024 0.26836
 C2390 C 0.58502 0.00920 0.27142
 C2391 C 0.62052 -0.01346 0.32768
 C2392 C 0.61135 -0.01186 0.34909
 C2393 C 0.58913 -0.00338 0.35280
 C2394 C 0.57582 0.00289 0.33383
 C2395 C 0.55301 0.00952 0.33745
 C2396 C 0.54361 0.01043 0.35888
 C2397 C 0.55658 0.00512 0.37755
 C2398 C 0.57962 -0.00147 0.37485
 C2399 C 0.59221 -0.00581 0.39441
 C2400 C 0.58199 -0.00496 0.41556
 C2401 C 0.55897 0.00047 0.41805
 C2402 C 0.54647 0.00599 0.39896
 H2403 H 0.55796 0.01797 0.29309
 H2404 H 0.63576 -0.01317 0.28682
 H2405 H 0.57613 0.01737 0.25771
 H2406 H 0.63766 -0.02009 0.32567
 H2407 H 0.62206 -0.01790 0.36240
 H2408 H 0.54170 0.01357 0.32398
 H2409 H 0.52595 0.01535 0.36083
 H2410 H 0.61002 -0.00980 0.39406
 H2411 H 0.59222 -0.00883 0.43004
 H2412 H 0.52868 0.01045 0.40067
 C2413 C 0.07443 0.52072 0.78898
 C2414 C 0.08403 0.51232 0.80912
 C2415 C 0.10557 0.50153 0.80754
 C2416 C 0.11668 0.49912 0.78678
 C2417 C 0.10722 0.50741 0.76664
 C2418 C 0.08593 0.51866 0.76836
 C2419 C 0.11645 0.49372 0.82678
 C2420 C 0.10680 0.49707 0.84779
 C2421 C 0.08558 0.50821 0.85045
 C2422 C 0.07353 0.51507 0.83080
 C2423 C 0.05142 0.52423 0.83354
 C2424 C 0.04155 0.52689 0.85471
 C2425 C 0.05345 0.52111 0.87403
 C2426 C 0.07583 0.51220 0.87216
 C2427 C 0.08766 0.50782 0.89218
 C2428 C 0.07722 0.51070 0.91305
 C2429 C 0.05465 0.51821 0.91492
 C2430 C 0.04300 0.52390 0.89525
 H2431 H 0.05860 0.53012 0.78873
 H2432 H 0.13354 0.49171 0.78663
 H2433 H 0.07869 0.52757 0.75413
 H2434 H 0.13285 0.48519 0.82563
 H2435 H 0.11630 0.49024 0.86167
 H2436 H 0.04102 0.52899 0.81953
 H2437 H 0.02440 0.53367 0.85595
 H2438 H 0.10512 0.50233 0.89238
 H2439 H 0.08692 0.50664 0.92784
 H2440 H 0.02562 0.53003 0.89639
 C2441 C 0.11162 0.52260 0.68246
 C2442 C 0.09052 0.51343 0.67866
 C2443 C 0.07876 0.50441 0.69744
 C2444 C 0.08806 0.50442 0.71893
 C2445 C 0.10970 0.51264 0.72259
 C2446 C 0.12097 0.52191 0.70366
 C2447 C 0.05808 0.49456 0.69462
 C2448 C 0.04923 0.49263 0.67345
 C2449 C 0.06063 0.50074 0.65407
 C2450 C 0.08119 0.51211 0.65681
 C2451 C 0.09180 0.52160 0.63761
 C2452 C 0.08310 0.51949 0.61641
 C2453 C 0.06361 0.50769 0.61332
 C2454 C 0.05212 0.49801 0.63204
 C2455 C 0.03271 0.48577 0.62783
 C2456 C 0.02473 0.48399 0.60616
 C2457 C 0.03579 0.49414 0.58780
 C2458 C 0.05545 0.50574 0.59154
 H2459 H 0.12197 0.52958 0.66922
 H2460 H 0.07885 0.49637 0.73252
 H2461 H 0.13763 0.52821 0.70453
 H2462 H 0.04882 0.48780 0.70894
 H2463 H 0.03322 0.48475 0.67288
 H2464 H 0.10684 0.53110 0.63834
 H2465 H 0.09186 0.52711 0.60221
 H2466 H 0.02330 0.47723 0.64086
 H2467 H 0.00964 0.47467 0.60385
 H2468 H 0.06423 0.51367 0.57753
 C2469 C 0.57133 0.99080 0.20490
 C2470 C 0.58003 0.99873 0.18415
 C2471 C 0.60171 1.00782 0.18390
 C2472 C 0.61372 1.00935 0.20372
 C2473 C 0.60486 1.00193 0.22456
 C2474 C 0.58359 0.99205 0.22443
 C2475 C 0.61170 1.01486 0.16376
 C2476 C 0.60094 1.01243 0.14366
 C2477 C 0.57947 1.00307 0.14292
 C2478 C 0.56841 0.99705 0.16357
 C2479 C 0.54606 0.98976 0.16296
 C2480 C 0.53512 0.98779 0.14283
 C2481 C 0.54606 0.99260 0.12251
 C2482 C 0.56852 0.99995 0.12222
 C2483 C 0.57919 1.00364 0.10115
 C2484 C 0.56763 1.00137 0.08138
 C2485 C 0.54509 0.99514 0.08176
 C2486 C 0.53453 0.99035 0.10243
 H2487 H 0.55558 0.98242 0.20650
 H2488 H 0.63051 1.01566 0.20251
 H2489 H 0.57672 0.98381 0.23923
 H2490 H 0.62822 1.02207 0.16346
 H2491 H 0.60982 1.01851 0.12896
 H2492 H 0.53629 0.98595 0.17786
 H2493 H 0.51790 0.98233 0.14319
 H2494 H 0.59654 1.00810 0.09927
 H2495 H 0.57645 1.00471 0.06567
 H2496 H 0.51718 0.98529 0.10296
 C2497 C 0.42662 0.50635 0.20807
 C2498 C 0.41860 0.49684 0.18847
 C2499 C 0.39714 0.48726 0.18973
 C2500 C 0.38484 0.48652 0.21002
 C2501 C 0.39340 0.49488 0.22991
 C2502 C 0.41421 0.50561 0.22809
 C2503 C 0.38782 0.47868 0.17064
 C2504 C 0.39920 0.47961 0.15017
 C2505 C 0.42066 0.48899 0.14797
 C2506 C 0.43080 0.49717 0.16758
 C2507 C 0.45288 0.50514 0.16572
 C2508 C 0.46445 0.50576 0.14533
 C2509 C 0.45453 0.49860 0.12594
 C2510 C 0.43246 0.49023 0.12688
 C2511 C 0.42309 0.48360 0.10658
 C2512 C 0.43533 0.48477 0.08646
 C2513 C 0.45727 0.49267 0.08573
 C2514 C 0.46670 0.49968 0.10558
 H2515 H 0.44206 0.51526 0.20841
 H2516 H 0.36827 0.47967 0.20998
 H2517 H 0.42073 0.51449 0.24201
 H2518 H 0.37140 0.47126 0.17149
 H2519 H 0.39074 0.47247 0.13640
 H2520 H 0.46199 0.51067 0.17986
 H2521 H 0.48139 0.51197 0.14475
 H2522 H 0.40628 0.47761 0.10550
 H2523 H 0.42745 0.47941 0.07139
 H2524 H 0.48363 0.50594 0.10527
 C2525 C -0.11832 -0.00678 0.68763
 C2526 C -0.09515 -0.01009 0.68291
 C2527 C -0.08055 -0.01320 0.70131
 C2528 C -0.08919 -0.01362 0.72354
 C2529 C -0.11223 -0.00905 0.72799
 C2530 C -0.12653 -0.00635 0.70952
 C2531 C -0.05736 -0.01553 0.69738
 C2532 C -0.04831 -0.01374 0.67574
 C2533 C -0.06222 -0.01037 0.65696
 C2534 C -0.08605 -0.00989 0.66055
 C2535 C -0.10002 -0.00944 0.64166
 C2536 C -0.09109 -0.00838 0.62003
 C2537 C -0.06796 -0.00716 0.61626
 C2538 C -0.05317 -0.00783 0.63465
 C2539 C -0.02997 -0.00537 0.62992
 C2540 C -0.02189 -0.00290 0.60792
 C2541 C -0.03652 -0.00299 0.58979
 C2542 C -0.05958 -0.00518 0.59413
 H2543 H -0.13060 -0.00363 0.67483
 H2544 H -0.07787 -0.01751 0.73711
 H2545 H -0.14447 -0.00343 0.71211
 H2546 H -0.04602 -0.01816 0.71124
 H2547 H -0.03025 -0.01560 0.67420
 H2548 H -0.11805 -0.01048 0.64298
 H2549 H -0.10249 -0.00816 0.60609
 H2550 H -0.01767 -0.00478 0.64287
 H2551 H -0.00396 -0.00119 0.60513
 H2552 H -0.07109 -0.00501 0.58027
 C2553 C -0.20907 0.92437 1.00364
 C2554 C -0.18791 0.91676 0.99515
 C2555 C -0.18619 0.89465 0.98691
 C2556 C -0.20534 0.88153 0.98572
 C2557 C -0.22684 0.88952 0.99309
 C2558 C -0.22780 0.91092 1.00306
 C2559 C -0.16525 0.88552 0.98017
 C2560 C -0.14585 0.89765 0.98201
 C2561 C -0.14673 0.91984 0.98998
 C2562 C -0.16826 0.92996 0.99547
 C2563 C -0.16949 0.95305 1.00058
 C2564 C -0.15025 0.96565 1.00110
 C2565 C -0.12898 0.95561 0.99734
 C2566 C -0.12686 0.93243 0.99222
 C2567 C -0.10486 0.92269 0.99005
 C2568 C -0.08592 0.93560 0.99231
 C2569 C -0.08817 0.95866 0.99645
 C2570 C -0.10977 0.96861 0.99885
 H2571 H -0.21145 0.94026 1.01186
 H2572 H -0.20291 0.86483 0.97942
 H2573 H -0.24301 0.91724 1.01132
 H2574 H -0.16376 0.86862 0.97371
 H2575 H -0.13041 0.88940 0.97633
 H2576 H -0.18529 0.96208 1.00352
 H2577 H -0.15203 0.98338 1.00486
 H2578 H -0.10171 0.90501 0.98723
 H2579 H -0.06937 0.92752 0.99052
 H2580 H -0.11161 0.98639 1.00244
 C2581 C 0.31125 0.38357 0.47513
 C2582 C 0.31623 0.40351 0.48595
 C2583 C 0.29809 0.41597 0.49587
 C2584 C 0.27625 0.40759 0.49646
 C2585 C 0.27136 0.38707 0.48638
 C2586 C 0.28958 0.37550 0.47565
 C2587 C 0.30196 0.43639 0.50591
 C2588 C 0.32347 0.44477 0.50621
 C2589 C 0.34222 0.43257 0.49715
 C2590 C 0.33863 0.41119 0.48763
 C2591 C 0.35758 0.39777 0.48097
 C2592 C 0.37929 0.40513 0.48310
 C2593 C 0.38301 0.42640 0.49126
 C2594 C 0.36454 0.44069 0.49790
 C2595 C 0.36921 0.46266 0.50469
 C2596 C 0.39126 0.46984 0.50519
 C2597 C 0.40937 0.45533 0.49934
 C2598 C 0.40518 0.43357 0.49254
 H2599 H 0.32378 0.37359 0.46616
 H2600 H 0.26364 0.41637 0.50656
 H2601 H 0.28777 0.35947 0.46810
 H2602 H 0.28819 0.44605 0.51362
 H2603 H 0.32500 0.46050 0.51455
 H2604 H 0.35630 0.38101 0.47474
 H2605 H 0.39333 0.39412 0.47806
 H2606 H 0.35619 0.47495 0.50907
 H2607 H 0.39419 0.48686 0.51025
 H2608 H 0.41918 0.42249 0.48750
 C2609 C 0.32391 0.62010 0.00877
 C2610 C 0.32821 0.59815 0.00100
 C2611 C 0.30954 0.58567 -0.00531
 C2612 C 0.28754 0.59538 -0.00456
 C2613 C 0.28335 0.61676 0.00465
 C2614 C 0.30211 0.62909 0.01043
 C2615 C 0.31296 0.56345 -0.01202
 C2616 C 0.33428 0.55298 -0.01138
 C2617 C 0.35329 0.56474 -0.00497
 C2618 C 0.35037 0.58809 -0.00017
 C2619 C 0.36970 0.60070 0.00307
 C2620 C 0.39107 0.59059 0.00294
 C2621 C 0.39404 0.56747 0.00023
 C2622 C 0.37520 0.55409 -0.00348
 C2623 C 0.37906 0.53053 -0.00483
 C2624 C 0.40072 0.52087 -0.00290
 C2625 C 0.41928 0.53432 0.00007
 C2626 C 0.41581 0.55764 0.00146
 H2627 H 0.33693 0.63058 0.01453
 H2628 H 0.27391 0.58617 -0.01119
 H2629 H 0.29985 0.64602 0.01662
 H2630 H 0.29888 0.55379 -0.01713
 H2631 H 0.33549 0.53573 -0.01659
 H2632 H 0.36895 0.61866 0.00517
 H2633 H 0.40542 0.60095 0.00546
 H2634 H 0.36561 0.51907 -0.00671
 H2635 H 0.40298 0.50276 -0.00395
 H2636 H 0.43004 0.56813 0.00410
 C2637 C -0.18433 0.12320 0.49738
 C2638 C -0.17966 0.10086 0.50468
 C2639 C -0.19775 0.08861 0.51411
 C2640 C -0.21985 0.09825 0.51498
 C2641 C -0.22446 0.12015 0.50634
 C2642 C -0.20600 0.13257 0.49851
 C2643 C -0.19355 0.06699 0.52298
 C2644 C -0.17184 0.05734 0.52288
 C2645 C -0.15334 0.06881 0.51343
 C2646 C -0.15749 0.09067 0.50360
 C2647 C -0.13942 0.10156 0.49269
 C2648 C -0.11786 0.09190 0.49207
 C2649 C -0.11329 0.07099 0.50224
 C2650 C -0.13086 0.05911 0.51317
 C2651 C -0.12507 0.03805 0.52341
 C2652 C -0.10303 0.02908 0.52227
 C2653 C -0.08586 0.04071 0.51100
 C2654 C -0.09117 0.06182 0.50123
 H2655 H -0.17150 0.13433 0.49141
 H2656 H -0.23321 0.08888 0.52295
 H2657 H -0.20825 0.15010 0.49343
 H2658 H -0.20719 0.05746 0.53029
 H2659 H -0.17019 0.04061 0.53009
 H2660 H -0.14140 0.11750 0.48390
 H2661 H -0.10459 0.10093 0.48344
 H2662 H -0.13711 0.02808 0.53254
 H2663 H -0.09951 0.01281 0.53020
 H2664 H -0.07812 0.07108 0.49250
 C2665 C 0.69003 0.12026 0.51614
 C2666 C 0.68800 0.09844 0.50789
 C2667 C 0.70764 0.08755 0.49878
 C2668 C 0.72872 0.09793 0.49915
 C2669 C 0.73063 0.11919 0.50875
 C2670 C 0.71068 0.13030 0.51634
 C2671 C 0.70600 0.06656 0.48906
 C2672 C 0.68536 0.05619 0.48813
 C2673 C 0.66543 0.06625 0.49735
 C2674 C 0.66696 0.08749 0.50786
 C2675 C 0.64746 0.09702 0.51837
 C2676 C 0.62699 0.08668 0.51797
 C2677 C 0.62497 0.06636 0.50723
 C2678 C 0.64405 0.05576 0.49672
 C2679 C 0.64077 0.03512 0.48606
 C2680 C 0.61966 0.02539 0.48636
 C2681 C 0.60101 0.03586 0.49714
 C2682 C 0.60387 0.05649 0.50734
 H2683 H 0.67592 0.13048 0.52201
 H2684 H 0.74331 0.08967 0.49142
 H2685 H 0.71102 0.14730 0.52246
 H2686 H 0.72083 0.05808 0.48193
 H2687 H 0.68567 0.04003 0.48031
 H2688 H 0.64743 0.11235 0.52760
 H2689 H 0.61254 0.09469 0.52630
 H2690 H 0.65414 0.02605 0.47732
 H2691 H 0.61801 0.00948 0.47817
 H2692 H 0.58966 0.06484 0.51576
 C2693 C 0.21792 0.57964 1.01273
 C2694 C 0.19759 0.59040 1.00542
 C2695 C 0.19792 0.61380 1.00074
 C2696 C 0.21789 0.62535 1.00190
 C2697 C 0.23856 0.61423 1.00689
 C2698 C 0.23788 0.59149 1.01385
 C2699 C 0.17835 0.62577 0.99470
 C2700 C 0.15818 0.61507 0.99318
 C2701 C 0.15676 0.59171 0.99746
 C2702 C 0.17689 0.57902 1.00308
 C2703 C 0.17571 0.55543 1.00568
 C2704 C 0.15550 0.54463 1.00340
 C2705 C 0.13557 0.55688 0.99889
 C2706 C 0.13586 0.58063 0.99607
 C2707 C 0.11507 0.59239 0.99244
 C2708 C 0.09500 0.58107 0.99175
 C2709 C 0.09480 0.55765 0.99440
 C2710 C 0.11521 0.54556 0.99762
 H2711 H 0.21880 0.56223 1.01818
 H2712 H 0.21744 0.64335 0.99847
 H2713 H 0.25262 0.58274 1.02048
 H2714 H 0.17862 0.64372 0.99103
 H2715 H 0.14408 0.62565 0.98806
 H2716 H 0.19032 0.54473 1.00905
 H2717 H 0.15543 0.52647 1.00548
 H2718 H 0.11349 0.61043 0.99071
 H2719 H 0.07944 0.59079 0.98932
 H2720 H 0.11513 0.52743 1.00005
 C2721 C 0.20525 0.42590 0.49257
 C2722 C 0.18594 0.41587 0.50206
 C2723 C 0.18766 0.39271 0.50781
 C2724 C 0.20798 0.38052 0.50480
 C2725 C 0.22756 0.39051 0.49601
 C2726 C 0.22536 0.41337 0.48918
 C2727 C 0.16888 0.38144 0.51591
 C2728 C 0.14799 0.39241 0.51735
 C2729 C 0.14516 0.41533 0.51111
 C2730 C 0.16467 0.42761 0.50476
 C2731 C 0.16222 0.45113 0.50138
 C2732 C 0.14123 0.46210 0.50293
 C2733 C 0.12184 0.45001 0.50718
 C2734 C 0.12347 0.42641 0.51110
 C2735 C 0.10321 0.41471 0.51395
 C2736 C 0.08232 0.42606 0.51304
 C2737 C 0.08089 0.44941 0.50964
 C2738 C 0.10073 0.46134 0.50703
 H2739 H 0.20494 0.44305 0.48628
 H2740 H 0.20793 0.36269 0.50842
 H2741 H 0.23858 0.42143 0.47965
 H2742 H 0.17022 0.36375 0.52070
 H2743 H 0.13438 0.38251 0.52383
 H2744 H 0.17639 0.46160 0.49794
 H2745 H 0.14012 0.48019 0.50018
 H2746 H 0.10286 0.39667 0.51603
 H2747 H 0.06718 0.41650 0.51496
 H2748 H 0.09970 0.47940 0.50397
 C2749 C 0.70721 0.92275 -0.01671
 C2750 C 0.68805 0.91505 -0.00485
 C2751 C 0.68963 0.89331 0.00524
 C2752 C 0.70994 0.88057 0.00458
 C2753 C 0.72953 0.88875 -0.00611
 C2754 C 0.72724 0.90975 -0.01758
 C2755 C 0.67087 0.88417 0.01591
 C2756 C 0.65030 0.89589 0.01631
 C2757 C 0.64776 0.91759 0.00640
 C2758 C 0.66720 0.92780 -0.00332
 C2759 C 0.66521 0.95048 -0.01079
 C2760 C 0.64473 0.96251 -0.00964
 C2761 C 0.62528 0.95225 -0.00169
 C2762 C 0.62645 0.92951 0.00613
 C2763 C 0.60609 0.91939 0.01270
 C2764 C 0.58558 0.93138 0.01162
 C2765 C 0.58459 0.95391 0.00433
 C2766 C 0.60453 0.96443 -0.00198
 H2767 H 0.70702 0.93842 -0.02615
 H2768 H 0.71003 0.86403 0.01235
 H2769 H 0.74105 0.91610 -0.02769
 H2770 H 0.67201 0.86760 0.02388
 H2771 H 0.63678 0.88766 0.02512
 H2772 H 0.67942 0.95963 -0.01713
 H2773 H 0.64403 0.97991 -0.01549
 H2774 H 0.60525 0.90198 0.01797
 H2775 H 0.57031 0.92291 0.01645
 H2776 H 0.60375 0.98178 -0.00802
 C2777 C -0.01484 0.82870 0.88032
 C2778 C -0.00624 0.83223 0.90166
 C2779 C 0.00157 0.81307 0.91409
 C2780 C 0.00172 0.79145 0.90475
 C2781 C -0.00723 0.78785 0.88339
 C2782 C -0.01503 0.80730 0.87146
 C2783 C 0.00948 0.81563 0.93569
 C2784 C 0.00920 0.83670 0.94542
 C2785 C 0.00174 0.85633 0.93357
 C2786 C -0.00511 0.85414 0.91095
 C2787 C -0.01008 0.87394 0.89819
 C2788 C -0.00924 0.89510 0.90738
 C2789 C -0.00400 0.89747 0.92979
 C2790 C 0.00126 0.87815 0.94336
 C2791 C 0.00528 0.88151 0.96630
 C2792 C 0.00418 0.90308 0.97518
 C2793 C -0.00053 0.92208 0.96153
 C2794 C -0.00436 0.91914 0.93877
 H2795 H -0.02182 0.84214 0.86993
 H2796 H 0.00989 0.77769 0.91393
 H2797 H -0.02112 0.80662 0.85472
 H2798 H 0.01566 0.80112 0.94534
 H2799 H 0.01562 0.83717 0.96214
 H2800 H -0.01413 0.87376 0.88071
 H2801 H -0.01309 0.90979 0.89687
 H2802 H 0.00861 0.86777 0.97798
 H2803 H 0.00705 0.90489 0.99289
 H2804 H -0.00845 0.93372 0.92818
 C2805 C 0.47463 0.28289 0.42779
 C2806 C 0.48191 0.30327 0.41780
 C2807 C 0.48818 0.30293 0.39486
 C2808 C 0.48768 0.28305 0.38284
 C2809 C 0.48160 0.26243 0.39296
 C2810 C 0.47417 0.26311 0.41555
 C2811 C 0.49468 0.32253 0.38368
 C2812 C 0.49497 0.34272 0.39470
 C2813 C 0.48880 0.34419 0.41757
 C2814 C 0.48255 0.32407 0.42947
 C2815 C 0.47738 0.32541 0.45259
 C2816 C 0.47800 0.34569 0.46368
 C2817 C 0.48363 0.36549 0.45223
 C2818 C 0.48893 0.36509 0.42898
 C2819 C 0.49409 0.38573 0.41809
 C2820 C 0.49464 0.40561 0.42989
 C2821 C 0.48992 0.40587 0.45295
 C2822 C 0.48417 0.38571 0.46398
 H2823 H 0.46842 0.28179 0.44484
 H2824 H 0.49161 0.28402 0.36515
 H2825 H 0.46678 0.24864 0.42370
 H2826 H 0.49957 0.32231 0.36609
 H2827 H 0.50042 0.35686 0.38468
 H2828 H 0.47309 0.31094 0.46277
 H2829 H 0.47401 0.34584 0.48147
 H2830 H 0.49770 0.38729 0.40041
 H2831 H 0.49884 0.42091 0.42076
 H2832 H 0.48035 0.38566 0.48181
 C2833 C 0.01818 0.28672 0.57601
 C2834 C 0.01158 0.30743 0.58608
 C2835 C 0.00471 0.30658 0.60887
 C2836 C 0.00407 0.28612 0.62065
 C2837 C 0.00979 0.26553 0.61050
 C2838 C 0.01747 0.26618 0.58810
 C2839 C -0.00158 0.32614 0.62008
 C2840 C -0.00164 0.34684 0.60911
 C2841 C 0.00455 0.34887 0.58625
 C2842 C 0.01154 0.32890 0.57455
 C2843 C 0.01807 0.33111 0.55178
 C2844 C 0.01758 0.35196 0.54073
 C2845 C 0.01044 0.37145 0.55180
 C2846 C 0.00384 0.37024 0.57472
 C2847 C -0.00347 0.39053 0.58506
 C2848 C -0.00438 0.41092 0.57310
 C2849 C 0.00199 0.41200 0.55044
 C2850 C 0.00960 0.39216 0.53995
 H2851 H 0.02413 0.28579 0.55890
 H2852 H -0.00120 0.28610 0.63815
 H2853 H 0.02330 0.25098 0.57989
 H2854 H -0.00665 0.32545 0.63763
 H2855 H -0.00671 0.36094 0.61922
 H2856 H 0.02359 0.31694 0.54192
 H2857 H 0.02267 0.35280 0.52321
 H2858 H -0.00887 0.39138 0.60232
 H2859 H -0.01023 0.42592 0.58172
 H2860 H 0.01459 0.39270 0.52239
 C2861 C 0.51396 0.78633 0.07177
 C2862 C 0.50951 0.80746 0.08181
 C2863 C 0.50258 0.80726 0.10462
 C2864 C 0.49891 0.78696 0.11618
 C2865 C 0.50182 0.76604 0.10575
 C2866 C 0.51053 0.76607 0.08366
 C2867 C 0.49911 0.82732 0.11593
 C2868 C 0.50208 0.84785 0.10507
 C2869 C 0.50834 0.84920 0.08216
 C2870 C 0.51177 0.82870 0.07020
 C2871 C 0.51657 0.83019 0.04697
 C2872 C 0.51755 0.85093 0.03571
 C2873 C 0.51428 0.87103 0.04716
 C2874 C 0.51035 0.87044 0.07066
 C2875 C 0.50827 0.89125 0.08167
 C2876 C 0.50823 0.91159 0.06967
 C2877 C 0.51059 0.91213 0.04629
 C2878 C 0.51437 0.89175 0.03517
 H2879 H 0.52059 0.78489 0.05492
 H2880 H 0.49343 0.78738 0.13360
 H2881 H 0.51510 0.75050 0.07546
 H2882 H 0.49387 0.82719 0.13343
 H2883 H 0.49855 0.86241 0.11509
 H2884 H 0.51889 0.81553 0.03679
 H2885 H 0.52068 0.85120 0.01777
 H2886 H 0.50657 0.89253 0.09958
 H2887 H 0.50599 0.92704 0.07886
 H2888 H 0.51658 0.89192 0.01710
 C2889 C 0.48292 0.70155 0.07512
 C2890 C 0.49296 0.68110 0.08332
 C2891 C 0.50366 0.68161 0.10425
 C2892 C 0.50522 0.70185 0.11566
 C2893 C 0.49673 0.72247 0.10663
 C2894 C 0.48442 0.72162 0.08680
 C2895 C 0.51277 0.66189 0.11391
 C2896 C 0.51158 0.64150 0.10331
 C2897 C 0.50136 0.63994 0.08229
 C2898 C 0.49239 0.66014 0.07183
 C2899 C 0.48367 0.65874 0.05010
 C2900 C 0.48361 0.63836 0.03900
 C2901 C 0.49178 0.61842 0.04921
 C2902 C 0.50032 0.61889 0.07120
 C2903 C 0.50742 0.59817 0.08127
 C2904 C 0.50705 0.57815 0.06970
 C2905 C 0.49951 0.57770 0.04761
 C2906 C 0.49160 0.59799 0.03754
 H2907 H 0.47333 0.70250 0.06000
 H2908 H 0.51294 0.70135 0.13193
 H2909 H 0.47589 0.73665 0.08019
 H2910 H 0.52101 0.66220 0.12992
 H2911 H 0.51946 0.62730 0.11191
 H2912 H 0.47726 0.67332 0.04091
 H2913 H 0.47705 0.63822 0.02222
 H2914 H 0.51317 0.59666 0.09822
 H2915 H 0.51295 0.56287 0.07826
 H2916 H 0.48541 0.59795 0.02060
 C2917 C 0.02365 0.18131 0.61598
 C2918 C 0.01148 0.17645 0.59677
 C2919 C -0.00114 0.19439 0.58648
 C2920 C -0.00088 0.21634 0.59489
 C2921 C 0.01170 0.22113 0.61381
 C2922 C 0.02340 0.20292 0.62443
 C2923 C -0.01447 0.19022 0.56821
 C2924 C -0.01595 0.16856 0.56018
 C2925 C -0.00378 0.15010 0.56991
 C2926 C 0.01077 0.15427 0.58801
 C2927 C 0.02429 0.13618 0.59663
 C2928 C 0.02327 0.11465 0.58830
 C2929 C 0.00865 0.11011 0.57120
 C2930 C -0.00531 0.12766 0.56191
 C2931 C -0.02025 0.12193 0.54499
 C2932 C -0.02037 0.10010 0.53692
 C2933 C -0.00584 0.08305 0.54549
 C2934 C 0.00830 0.08812 0.56301
 H2935 H 0.03274 0.16860 0.62562
 H2936 H -0.01121 0.22959 0.58713
 H2937 H 0.03189 0.20496 0.64005
 H2938 H -0.02414 0.20382 0.56017
 H2939 H -0.02659 0.16695 0.54598
 H2940 H 0.03637 0.13816 0.60955
 H2941 H 0.03413 0.10139 0.59534
 H2942 H -0.03209 0.13388 0.53757
 H2943 H -0.03179 0.09667 0.52362
 H2944 H 0.01958 0.07510 0.56986
 C2945 C 0.47383 0.17752 0.38892
 C2946 C 0.48521 0.17318 0.40914
 C2947 C 0.49364 0.19183 0.42015
 C2948 C 0.49063 0.21379 0.41115
 C2949 C 0.47949 0.21812 0.39073
 C2950 C 0.47141 0.19926 0.37990
 C2951 C 0.50584 0.18847 0.43971
 C2952 C 0.51037 0.16692 0.44833
 C2953 C 0.50263 0.14770 0.43781
 C2954 C 0.48927 0.15094 0.41825
 C2955 C 0.48046 0.13183 0.40840
 C2956 C 0.48492 0.11031 0.41695
 C2957 C 0.49837 0.10680 0.43560
 C2958 C 0.50758 0.12534 0.44629
 C2959 C 0.52138 0.12061 0.46500
 C2960 C 0.52501 0.09857 0.47315
 C2961 C 0.51527 0.08043 0.46288
 C2962 C 0.50229 0.08474 0.44383
 H2963 H 0.46739 0.16442 0.37898
 H2964 H 0.49876 0.22722 0.41940
 H2965 H 0.46375 0.20085 0.36374
 H2966 H 0.51230 0.20267 0.44831
 H2967 H 0.51992 0.16595 0.46345
 H2968 H 0.46966 0.13288 0.39415
 H2969 H 0.47769 0.09620 0.40884
 H2970 H 0.52958 0.13350 0.47383
 H2971 H 0.53527 0.09582 0.48780
 H2972 H 0.49462 0.07091 0.43564
 C2973 C -0.01078 0.72287 0.92310
 C2974 C -0.00102 0.70262 0.91463
 C2975 C 0.00542 0.70271 0.89174
 C2976 C 0.00334 0.72237 0.87852
 C2977 C -0.00430 0.74316 0.88732
 C2978 C -0.01278 0.74250 0.90959
 C2979 C 0.01398 0.68313 0.88185
 C2980 C 0.01618 0.66319 0.89412
 C2981 C 0.00999 0.66196 0.91704
 C2982 C 0.00191 0.68214 0.92768
 C2983 C -0.00257 0.68117 0.95099
 C2984 C 0.00014 0.66111 0.96336
 C2985 C 0.00695 0.64109 0.95300
 C2986 C 0.01176 0.64121 0.92963
 C2987 C 0.01762 0.62036 0.91967
 C2988 C 0.01850 0.60040 0.93231
 C2989 C 0.01388 0.60032 0.95536
 C2990 C 0.00849 0.62080 0.96575
 H2991 H -0.01764 0.72390 0.93991
 H2992 H 0.00764 0.72105 0.86101
 H2993 H -0.02166 0.75696 0.91660
 H2994 H 0.01909 0.68319 0.86431
 H2995 H 0.02328 0.64909 0.88510
 H2996 H -0.00784 0.69585 0.96025
 H2997 H -0.00348 0.66122 0.98122
 H2998 H 0.02093 0.61863 0.90201
 H2999 H 0.02262 0.58479 0.92389
 H3000 H 0.00453 0.62080 0.98355
 C3001 C 0.26523 0.67923 0.96443
 C3002 C 0.25867 0.66942 0.94422
 C3003 C 0.25410 0.64624 0.94507
 C3004 C 0.25465 0.63407 0.96531
 C3005 C 0.25933 0.64418 0.98572
 C3006 C 0.26603 0.66666 0.98467
 C3007 C 0.24891 0.63507 0.92572
 C3008 C 0.24831 0.64633 0.90522
 C3009 C 0.25258 0.66949 0.90325
 C3010 C 0.25704 0.68145 0.92316
 C3011 C 0.25908 0.70501 0.92136
 C3012 C 0.25713 0.71645 0.90083
 C3013 C 0.25378 0.70485 0.88115
 C3014 C 0.25202 0.68112 0.88204
 C3015 C 0.25010 0.66991 0.86153
 C3016 C 0.24932 0.68182 0.84121
 C3017 C 0.25025 0.70530 0.84043
 C3018 C 0.25242 0.71678 0.86051
 H3019 H 0.27054 0.69636 0.96494
 H3020 H 0.25131 0.61626 0.96519
 H3021 H 0.27247 0.67455 0.99921
 H3022 H 0.24526 0.61732 0.92640
 H3023 H 0.24370 0.63643 0.89128
 H3024 H 0.26157 0.71518 0.93576
 H3025 H 0.25850 0.73459 0.90031
 H3026 H 0.24977 0.65188 0.86047
 H3027 H 0.24787 0.67252 0.82594
 H3028 H 0.25363 0.73494 0.86002
 C3029 C 0.73535 0.18190 0.46722
 C3030 C 0.73993 0.17180 0.44619
 C3031 C 0.74853 0.14933 0.44653
 C3032 C 0.75290 0.13798 0.46673
 C3033 C 0.74911 0.14815 0.48759
 C3034 C 0.73954 0.17012 0.48753
 C3035 C 0.75266 0.13792 0.42671
 C3036 C 0.74831 0.14822 0.40622
 C3037 C 0.73975 0.17061 0.40465
 C3038 C 0.73598 0.18285 0.42489
 C3039 C 0.72887 0.20571 0.42305
 C3040 C 0.72578 0.21632 0.40222
 C3041 C 0.72912 0.20450 0.38241
 C3042 C 0.73554 0.18132 0.38338
 C3043 C 0.73763 0.16979 0.36292
 C3044 C 0.73510 0.18113 0.34243
 C3045 C 0.73007 0.20430 0.34140
 C3046 C 0.72649 0.21580 0.36155
 H3047 H 0.72790 0.19862 0.46854
 H3048 H 0.75905 0.12060 0.46624
 H3049 H 0.73456 0.17808 0.50302
 H3050 H 0.75936 0.12071 0.42700
 H3051 H 0.75245 0.13818 0.39186
 H3052 H 0.72613 0.21608 0.43748
 H3053 H 0.72078 0.23403 0.40164
 H3054 H 0.74116 0.15195 0.36202
 H3055 H 0.73739 0.17161 0.32725
 H3056 H 0.72227 0.23369 0.36106
 C3057 C 0.23013 0.36730 0.42943
 C3058 C 0.23813 0.34544 0.42420
 C3059 C 0.24924 0.33264 0.44119
 C3060 C 0.25150 0.34137 0.46270
 C3061 C 0.24324 0.36324 0.46800
 C3062 C 0.23300 0.37599 0.45052
 C3063 C 0.25885 0.31151 0.43639
 C3064 C 0.25837 0.30314 0.41487
 C3065 C 0.24777 0.31546 0.39728
 C3066 C 0.23655 0.33646 0.40233
 C3067 C 0.22413 0.34782 0.38535
 C3068 C 0.22368 0.33967 0.36384
 C3069 C 0.23561 0.31995 0.35828
 C3070 C 0.24784 0.30749 0.37484
 C3071 C 0.25990 0.28775 0.36808
 C3072 C 0.25928 0.28053 0.34604
 C3073 C 0.24679 0.29274 0.32990
 C3074 C 0.23515 0.31256 0.33617
 H3075 H 0.22261 0.37873 0.41726
 H3076 H 0.26140 0.33164 0.47471
 H3077 H 0.22765 0.39332 0.45254
 H3078 H 0.26730 0.30150 0.44930
 H3079 H 0.26630 0.28676 0.41263
 H3080 H 0.21411 0.36296 0.38824
 H3081 H 0.21397 0.34904 0.35135
 H3082 H 0.27018 0.27760 0.37930
 H3083 H 0.26867 0.26526 0.34165
 H3084 H 0.22541 0.32216 0.32388
 C3085 C 0.76701 0.82746 0.94988
 C3086 C 0.75456 0.83427 0.93084
 C3087 C 0.74138 0.85448 0.93228
 C3088 C 0.74072 0.86709 0.95189
 C3089 C 0.75282 0.86019 0.97109
 C3090 C 0.76616 0.84012 0.96935
 C3091 C 0.72878 0.86225 0.91411
 C3092 C 0.72886 0.85042 0.89441
 C3093 C 0.74165 0.83012 0.89196
 C3094 C 0.75476 0.82188 0.91046
 C3095 C 0.76761 0.80161 0.90790
 C3096 C 0.76779 0.78987 0.88801
 C3097 C 0.75516 0.79770 0.86984
 C3098 C 0.74183 0.81789 0.87156
 C3099 C 0.72925 0.82503 0.85268
 C3100 C 0.73020 0.81292 0.83300
 C3101 C 0.74358 0.79313 0.83121
 C3102 C 0.75592 0.78550 0.84984
 H3103 H 0.77763 0.81242 0.95039
 H3104 H 0.73049 0.88237 0.95168
 H3105 H 0.77614 0.83396 0.98330
 H3106 H 0.71866 0.87775 0.91509
 H3107 H 0.71863 0.85785 0.88138
 H3108 H 0.77786 0.79430 0.92100
 H3109 H 0.77801 0.77445 0.88686
 H3110 H 0.71848 0.83995 0.85236
 H3111 H 0.72031 0.81924 0.81904
 H3112 H 0.76639 0.77024 0.84871
 C3113 C 0.74219 0.82449 0.03514
 C3114 C 0.74844 0.83331 0.05579
 C3115 C 0.75652 0.85543 0.05544
 C3116 C 0.75864 0.86778 0.03527
 C3117 C 0.75276 0.85892 0.01458
 C3118 C 0.74397 0.83712 0.01519
 C3119 C 0.76200 0.86550 0.07535
 C3120 C 0.75909 0.85437 0.09577
 C3121 C 0.75078 0.83241 0.09716
 C3122 C 0.74621 0.82135 0.07680
 C3123 C 0.73985 0.79867 0.07815
 C3124 C 0.73765 0.78731 0.09866
 C3125 C 0.74121 0.79815 0.11868
 C3126 C 0.74737 0.82099 0.11824
 C3127 C 0.74970 0.83154 0.13900
 C3128 C 0.74735 0.81957 0.15916
 C3129 C 0.74242 0.79667 0.15956
 C3130 C 0.73892 0.78617 0.13918
 H3131 H 0.73481 0.80828 0.03394
 H3132 H 0.76418 0.88479 0.03613
 H3133 H 0.73710 0.83007 0.00039
 H3134 H 0.76840 0.88236 0.07518
 H3135 H 0.76401 0.86337 0.11021
 H3136 H 0.73697 0.78898 0.06353
 H3137 H 0.73302 0.76983 0.09883
 H3138 H 0.75315 0.84912 0.14034
 H3139 H 0.74970 0.82838 0.17457
 H3140 H 0.73483 0.76854 0.13920
 C3141 C 0.24229 0.32587 0.53422
 C3142 C 0.25126 0.33505 0.55364
 C3143 C 0.26084 0.35640 0.55134
 C3144 C 0.26100 0.36799 0.53073
 C3145 C 0.25191 0.35913 0.51131
 C3146 C 0.24236 0.33775 0.51371
 C3147 C 0.26957 0.36671 0.56982
 C3148 C 0.26821 0.35671 0.59092
 C3149 C 0.25803 0.33582 0.59443
 C3150 C 0.25017 0.32438 0.57538
 C3151 C 0.24141 0.30277 0.57877
 C3152 C 0.23983 0.29292 0.60002
 C3153 C 0.24665 0.30422 0.61879
 C3154 C 0.25564 0.32592 0.61635
 C3155 C 0.26165 0.33689 0.63607
 C3156 C 0.25967 0.32633 0.65707
 C3157 C 0.25148 0.30460 0.65928
 C3158 C 0.24468 0.29379 0.64002
 H3159 H 0.23399 0.31005 0.53451
 H3160 H 0.26723 0.38475 0.53050
 H3161 H 0.23307 0.33074 0.50035
 H3162 H 0.27724 0.38295 0.56804
 H3163 H 0.27550 0.36586 0.60414
 H3164 H 0.23583 0.29284 0.56524
 H3165 H 0.23307 0.27625 0.60179
 H3166 H 0.26781 0.35370 0.63598
 H3167 H 0.26482 0.33523 0.67162
 H3168 H 0.23814 0.27700 0.64144
 C3169 C 0.75067 0.13754 0.57251
 C3170 C 0.75749 0.15948 0.57652
 C3171 C 0.76433 0.17288 0.55779
 C3172 C 0.76271 0.16486 0.53575
 C3173 C 0.75388 0.14361 0.53198
 C3174 C 0.74916 0.12985 0.55092
 C3175 C 0.77295 0.19404 0.56128
 C3176 C 0.77483 0.20218 0.58286
 C3177 C 0.76763 0.18965 0.60195
 C3178 C 0.75829 0.16818 0.59860
 C3179 C 0.74952 0.15623 0.61736
 C3180 C 0.75046 0.16450 0.63876
 C3181 C 0.76010 0.18502 0.64250
 C3182 C 0.76899 0.19792 0.62428
 C3183 C 0.77878 0.21853 0.62932
 C3184 C 0.77902 0.22616 0.65131
 C3185 C 0.76962 0.21354 0.66910
 C3186 C 0.76046 0.19282 0.66448
 H3187 H 0.74695 0.12549 0.58568
 H3188 H 0.76869 0.17501 0.52173
 H3189 H 0.74422 0.11265 0.54908
 H3190 H 0.77840 0.20441 0.54716
 H3191 H 0.78162 0.21867 0.58398
 H3192 H 0.74112 0.14058 0.61608
 H3193 H 0.74337 0.15473 0.65257
 H3194 H 0.78640 0.22919 0.61667
 H3195 H 0.78638 0.24219 0.65429
 H3196 H 0.75322 0.18278 0.67800
 C3197 C 0.26344 0.63233 0.07072
 C3198 C 0.25580 0.65439 0.07560
 C3199 C 0.24917 0.66875 0.05743
 C3200 C 0.24933 0.66071 0.03533
 C3201 C 0.25824 0.63904 0.03056
 C3202 C 0.26453 0.62495 0.04886
 C3203 C 0.24270 0.69112 0.06146
 C3204 C 0.24376 0.69979 0.08288
 C3205 C 0.25034 0.68606 0.10142
 C3206 C 0.25500 0.66268 0.09789
 C3207 C 0.25839 0.64828 0.11677
 C3208 C 0.25830 0.65657 0.13829
 C3209 C 0.25557 0.67958 0.14188
 C3210 C 0.25197 0.69475 0.12348
 C3211 C 0.25071 0.71803 0.12791
 C3212 C 0.25236 0.72573 0.14971
 C3213 C 0.25497 0.71058 0.16790
 C3214 C 0.25651 0.68749 0.16384
 H3215 H 0.26952 0.62050 0.08331
 H3216 H 0.24240 0.67138 0.02212
 H3217 H 0.27066 0.60783 0.04621
 H3218 H 0.23739 0.70225 0.04779
 H3219 H 0.23866 0.71726 0.08456
 H3220 H 0.26045 0.63027 0.11555
 H3221 H 0.26080 0.64484 0.15226
 H3222 H 0.24901 0.73072 0.11482
 H3223 H 0.25118 0.74370 0.15238
 H3224 H 0.25883 0.67567 0.17777
 C3225 C 0.17466 0.54656 0.74063
 C3226 C 0.16687 0.56615 0.75182
 C3227 C 0.14450 0.56648 0.76033
 C3228 C 0.13096 0.54789 0.75820
 C3229 C 0.13893 0.52783 0.74809
 C3230 C 0.16089 0.52809 0.73854
 C3231 C 0.13539 0.58555 0.77075
 C3232 C 0.14771 0.60475 0.77223
 C3233 C 0.16987 0.60567 0.76338
 C3234 C 0.18003 0.58573 0.75400
 C3235 C 0.20294 0.58610 0.74726
 C3236 C 0.21520 0.60554 0.74867
 C3237 C 0.20503 0.62554 0.75631
 C3238 C 0.18215 0.62591 0.76363
 C3239 C 0.17219 0.64679 0.77012
 C3240 C 0.18437 0.66634 0.76924
 C3241 C 0.20695 0.66592 0.76215
 C3242 C 0.21740 0.64537 0.75612
 H3243 H 0.19100 0.54533 0.73249
 H3244 H 0.11377 0.54962 0.76419
 H3245 H 0.16727 0.51436 0.72838
 H3246 H 0.11837 0.58575 0.77766
 H3247 H 0.13940 0.61855 0.78079
 H3248 H 0.21200 0.57141 0.74107
 H3249 H 0.23272 0.60504 0.74323
 H3250 H 0.15477 0.64887 0.77517
 H3251 H 0.17594 0.68205 0.77395
 H3252 H 0.23482 0.64503 0.75031
 C3253 C 0.66648 0.04567 0.23715
 C3254 C 0.65635 0.06482 0.24737
 C3255 C 0.63362 0.06347 0.25447
 C3256 C 0.62241 0.04325 0.25318
 C3257 C 0.63327 0.02331 0.24548
 C3258 C 0.65496 0.02561 0.23578
 C3259 C 0.62201 0.08229 0.26295
 C3260 C 0.63247 0.10263 0.26453
 C3261 C 0.65526 0.10486 0.25805
 C3262 C 0.66764 0.08543 0.25011
 C3263 C 0.69097 0.08709 0.24580
 C3264 C 0.70174 0.10720 0.24852
 C3265 C 0.68965 0.12659 0.25505
 C3266 C 0.66616 0.12582 0.25957
 C3267 C 0.65446 0.14622 0.26494
 C3268 C 0.66566 0.16637 0.26583
 C3269 C 0.68888 0.16692 0.26176
 C3270 C 0.70086 0.14691 0.25667
 H3271 H 0.68302 0.04590 0.22940
 H3272 H 0.60493 0.04341 0.25823
 H3273 H 0.66309 0.01207 0.22654
 H3274 H 0.60456 0.08131 0.26847
 H3275 H 0.62232 0.11615 0.27160
 H3276 H 0.70151 0.07285 0.24088
 H3277 H 0.71972 0.10765 0.24516
 H3278 H 0.63652 0.14741 0.26780
 H3279 H 0.65603 0.18170 0.26959
 H3280 H 0.71880 0.14734 0.25303
 C3281 C 0.82981 0.03722 0.76633
 C3282 C 0.83762 0.05656 0.75465
 C3283 C 0.85874 0.05456 0.74341
 C3284 C 0.87050 0.03386 0.74261
 C3285 C 0.86187 0.01417 0.75260
 C3286 C 0.84205 0.01660 0.76576
 C3287 C 0.86824 0.07324 0.73296
 C3288 C 0.85741 0.09419 0.73369
 C3289 C 0.83628 0.09722 0.74458
 C3290 C 0.82569 0.07793 0.75428
 C3291 C 0.80341 0.08060 0.76268
 C3292 C 0.79206 0.10150 0.76212
 C3293 C 0.80274 0.12069 0.75402
 C3294 C 0.82523 0.11889 0.74567
 C3295 C 0.83601 0.13899 0.73930
 C3296 C 0.82477 0.15984 0.74081
 C3297 C 0.80237 0.16142 0.74828
 C3298 C 0.79127 0.14181 0.75466
 H3299 H 0.81472 0.03774 0.77667
 H3300 H 0.88680 0.03316 0.73414
 H3301 H 0.83601 0.00263 0.77583
 H3302 H 0.88436 0.07169 0.72418
 H3303 H 0.86577 0.10761 0.72483
 H3304 H 0.79405 0.06659 0.76919
 H3305 H 0.77487 0.10272 0.76852
 H3306 H 0.85341 0.13931 0.73392
 H3307 H 0.83368 0.17491 0.73618
 H3308 H 0.77406 0.14313 0.76102
 C3309 C 0.32783 0.53786 0.26020
 C3310 C 0.33619 0.55807 0.25085
 C3311 C 0.35865 0.55746 0.24264
 C3312 C 0.37152 0.53727 0.24268
 C3313 C 0.36294 0.51671 0.25078
 C3314 C 0.34110 0.51788 0.26061
 C3315 C 0.36850 0.57711 0.23467
 C3316 C 0.35674 0.59762 0.23524
 C3317 C 0.33432 0.59926 0.24340
 C3318 C 0.32348 0.57902 0.25023
 C3319 C 0.30028 0.58039 0.25580
 C3320 C 0.28824 0.60091 0.25537
 C3321 C 0.29897 0.62096 0.25020
 C3322 C 0.32229 0.62047 0.24460
 C3323 C 0.33277 0.64132 0.24104
 C3324 C 0.32051 0.66166 0.24259
 C3325 C 0.29737 0.66201 0.24737
 C3326 C 0.28661 0.64159 0.25096
 H3327 H 0.31148 0.53722 0.26831
 H3328 H 0.38868 0.53816 0.23680
 H3329 H 0.33438 0.50356 0.26963
 H3330 H 0.38567 0.57670 0.22815
 H3331 H 0.36555 0.61188 0.22853
 H3332 H 0.29079 0.56568 0.25995
 H3333 H 0.27041 0.60113 0.25958
 H3334 H 0.35058 0.64257 0.23778
 H3335 H 0.32919 0.67726 0.23998
 H3336 H 0.26876 0.64180 0.25515
 C3337 C 0.36878 0.43122 0.26010
 C3338 C 0.34671 0.42865 0.25275
 C3339 C 0.33443 0.44831 0.24575
 C3340 C 0.34455 0.46941 0.24510
 C3341 C 0.36642 0.47214 0.25330
 C3342 C 0.37832 0.45225 0.26014
 C3343 C 0.31214 0.44677 0.23923
 C3344 C 0.30155 0.42626 0.24025
 C3345 C 0.31321 0.40618 0.24694
 C3346 C 0.33650 0.40724 0.25208
 C3347 C 0.34896 0.38684 0.25577
 C3348 C 0.33890 0.36615 0.25500
 C3349 C 0.31590 0.36491 0.25142
 C3350 C 0.30258 0.38494 0.24797
 C3351 C 0.27906 0.38286 0.24610
 C3352 C 0.26945 0.36177 0.24678
 C3353 C 0.28288 0.34204 0.24899
 C3354 C 0.30613 0.34371 0.25131
 H3355 H 0.37916 0.41732 0.26629
 H3356 H 0.33545 0.48347 0.23732
 H3357 H 0.39551 0.45234 0.26529
 H3358 H 0.30261 0.46167 0.23365
 H3359 H 0.28434 0.42652 0.23488
 H3360 H 0.36683 0.38621 0.25850
 H3361 H 0.34922 0.35094 0.25756
 H3362 H 0.26759 0.39725 0.24461
 H3363 H 0.25139 0.36089 0.24511
 H3364 H 0.31655 0.32849 0.25343
 C3365 C 0.86849 0.92867 0.75763
 C3366 C 0.84533 0.92597 0.75426
 C3367 C 0.83174 0.94565 0.75005
 C3368 C 0.84131 0.96704 0.74880
 C3369 C 0.86430 0.96952 0.75306
 C3370 C 0.87765 0.94983 0.75678
 C3371 C 0.80866 0.94386 0.74703
 C3372 C 0.79866 0.92305 0.74849
 C3373 C 0.81151 0.90296 0.75251
 C3374 C 0.83533 0.90442 0.75478
 C3375 C 0.84847 0.88425 0.75707
 C3376 C 0.83878 0.86341 0.75725
 C3377 C 0.81560 0.86170 0.75564
 C3378 C 0.80147 0.88136 0.75374
 C3379 C 0.77792 0.87845 0.75321
 C3380 C 0.76906 0.85694 0.75357
 C3381 C 0.78331 0.83768 0.75435
 C3382 C 0.80654 0.84025 0.75570
 H3383 H 0.88015 0.91487 0.76122
 H3384 H 0.83080 0.98150 0.74407
 H3385 H 0.89560 0.95086 0.75917
 H3386 H 0.79813 0.95877 0.74370
 H3387 H 0.78079 0.92322 0.74584
 H3388 H 0.86651 0.88381 0.75819
 H3389 H 0.84963 0.84842 0.75871
 H3390 H 0.76588 0.89241 0.75264
 H3391 H 0.75099 0.85541 0.75271
 H3392 H 0.81770 0.82544 0.75675
 C3393 C 0.66984 0.95636 0.25028
 C3394 C 0.66000 0.93650 0.24320
 C3395 C 0.63695 0.93786 0.23794
 C3396 C 0.62488 0.95850 0.23837
 C3397 C 0.63496 0.97874 0.24390
 C3398 C 0.65745 0.97678 0.25110
 C3399 C 0.62576 0.91852 0.23259
 C3400 C 0.63687 0.89764 0.23282
 C3401 C 0.65990 0.89531 0.23793
 C3402 C 0.67191 0.91519 0.24215
 C3403 C 0.69544 0.91318 0.24471
 C3404 C 0.70678 0.89237 0.24393
 C3405 C 0.69509 0.87271 0.24120
 C3406 C 0.67143 0.87380 0.23857
 C3407 C 0.66024 0.85323 0.23715
 C3408 C 0.67217 0.83260 0.23782
 C3409 C 0.69561 0.83172 0.23968
 C3410 C 0.70696 0.85188 0.24129
 H3411 H 0.68677 0.95642 0.25640
 H3412 H 0.60720 0.95828 0.23497
 H3413 H 0.66543 0.99069 0.25864
 H3414 H 0.60808 0.91949 0.22840
 H3415 H 0.62700 0.88364 0.22830
 H3416 H 0.70570 0.92757 0.24669
 H3417 H 0.72490 0.89164 0.24579
 H3418 H 0.64222 0.85243 0.23610
 H3419 H 0.66300 0.81724 0.23674
 H3420 H 0.72508 0.85133 0.24319
 C3421 C 0.13027 0.44379 0.73649
 C3422 C 0.15251 0.43860 0.74298
 C3423 C 0.16548 0.45656 0.74999
 C3424 C 0.15602 0.47858 0.75114
 C3425 C 0.13407 0.48401 0.74349
 C3426 C 0.12134 0.46572 0.73704
 C3427 C 0.18781 0.45243 0.75608
 C3428 C 0.19777 0.43098 0.75463
 C3429 C 0.18548 0.41251 0.74778
 C3430 C 0.16218 0.41620 0.74293
 C3431 C 0.14920 0.39734 0.73873
 C3432 C 0.15872 0.37569 0.73876
 C3433 C 0.18166 0.37196 0.74219
 C3434 C 0.19552 0.39035 0.74620
 C3435 C 0.21895 0.38577 0.74807
 C3436 C 0.22796 0.36383 0.74669
 C3437 C 0.21400 0.34568 0.74373
 C3438 C 0.19084 0.34987 0.74150
 H3439 H 0.11920 0.43132 0.73066
 H3440 H 0.16571 0.49110 0.75902
 H3441 H 0.10394 0.46776 0.73282
 H3442 H 0.19784 0.46602 0.76169
 H3443 H 0.21505 0.42925 0.75971
 H3444 H 0.13135 0.39860 0.73601
 H3445 H 0.14801 0.36172 0.73575
 H3446 H 0.23082 0.39883 0.75008
 H3447 H 0.24597 0.36102 0.74828
 H3448 H 0.17999 0.33593 0.73876
 C3449 C 0.03936 0.75076 0.82493
 C3450 C 0.05933 0.75844 0.83401
 C3451 C 0.05773 0.76836 0.85530
 C3452 C 0.03684 0.77107 0.86648
 C3453 C 0.01672 0.76405 0.85716
 C3454 C 0.01879 0.75316 0.83638
 C3455 C 0.07707 0.77508 0.86571
 C3456 C 0.09813 0.77161 0.85572
 C3457 C 0.10069 0.76154 0.83460
 C3458 C 0.08089 0.75571 0.82315
 C3459 C 0.08330 0.74760 0.80115
 C3460 C 0.10433 0.74465 0.79092
 C3461 C 0.12384 0.74932 0.80222
 C3462 C 0.12236 0.75750 0.82434
 C3463 C 0.14271 0.76113 0.83535
 C3464 C 0.16346 0.75788 0.82442
 C3465 C 0.16479 0.75074 0.80221
 C3466 C 0.14486 0.74611 0.79135
 H3467 H 0.03916 0.74170 0.80953
 H3468 H 0.03668 0.77796 0.88302
 H3469 H 0.00472 0.74499 0.82930
 H3470 H 0.07597 0.78286 0.88195
 H3471 H 0.11210 0.77746 0.86489
 H3472 H 0.06913 0.74389 0.79109
 H3473 H 0.10533 0.73857 0.77394
 H3474 H 0.14328 0.76631 0.85247
 H3475 H 0.17854 0.76125 0.83345
 H3476 H 0.14562 0.74038 0.77424
 C3477 C 0.52316 0.25126 0.32869
 C3478 C 0.54366 0.24333 0.33810
 C3479 C 0.54291 0.23532 0.36051
 C3480 C 0.52238 0.23411 0.37232
 C3481 C 0.50162 0.24085 0.36273
 C3482 C 0.50283 0.25059 0.34094
 C3483 C 0.56275 0.22901 0.37143
 C3484 C 0.58351 0.23112 0.36076
 C3485 C 0.58525 0.23909 0.33840
 C3486 C 0.56495 0.24415 0.32651
 C3487 C 0.56663 0.24942 0.30340
 C3488 C 0.58744 0.25034 0.29240
 C3489 C 0.60738 0.24682 0.30410
 C3490 C 0.60661 0.24169 0.32739
 C3491 C 0.62730 0.23980 0.33877
 C3492 C 0.64781 0.24212 0.32730
 C3493 C 0.64846 0.24612 0.30414
 C3494 C 0.62816 0.24850 0.29264
 H3495 H 0.52251 0.25936 0.31237
 H3496 H 0.52311 0.22880 0.38960
 H3497 H 0.48846 0.25928 0.33359
 H3498 H 0.56226 0.22269 0.38860
 H3499 H 0.59796 0.22571 0.37034
 H3500 H 0.55201 0.25221 0.29318
 H3501 H 0.58792 0.25416 0.27457
 H3502 H 0.62820 0.23708 0.35663
 H3503 H 0.66328 0.24043 0.33657
 H3504 H 0.62852 0.25207 0.27475
 C3505 C 0.53707 0.75325 0.17022
 C3506 C 0.55859 0.74754 0.16085
 C3507 C 0.55937 0.74007 0.13851
 C3508 C 0.53958 0.73824 0.12643
 C3509 C 0.51819 0.74365 0.13581
 C3510 C 0.51738 0.75163 0.15784
 C3511 C 0.57994 0.73481 0.12799
 C3512 C 0.60001 0.73716 0.13893
 C3513 C 0.60041 0.74481 0.16111
 C3514 C 0.57936 0.74949 0.17252
 C3515 C 0.57985 0.75573 0.19518
 C3516 C 0.60010 0.75747 0.20627
 C3517 C 0.62076 0.75350 0.19522
 C3518 C 0.62120 0.74751 0.17236
 C3519 C 0.64253 0.74457 0.16165
 C3520 C 0.66240 0.74634 0.17337
 C3521 C 0.66202 0.75128 0.19621
 C3522 C 0.64101 0.75525 0.20696
 H3523 H 0.53491 0.75979 0.18682
 H3524 H 0.54084 0.73310 0.10913
 H3525 H 0.50166 0.75756 0.16540
 H3526 H 0.58058 0.72892 0.11093
 H3527 H 0.61500 0.73243 0.12951
 H3528 H 0.56474 0.75899 0.20501
 H3529 H 0.59957 0.76205 0.22374
 H3530 H 0.64460 0.74101 0.14413
 H3531 H 0.67823 0.74359 0.16436
 H3532 H 0.64036 0.75931 0.22456
 C3533 C 0.04583 0.25933 0.67572
 C3534 C 0.06772 0.25754 0.66590
 C3535 C 0.06949 0.25132 0.64320
 C3536 C 0.05045 0.24599 0.63148
 C3537 C 0.02874 0.24733 0.64129
 C3538 C 0.02669 0.25476 0.66347
 C3539 C 0.09024 0.25068 0.63198
 C3540 C 0.10952 0.25641 0.64270
 C3541 C 0.10889 0.26245 0.66540
 C3542 C 0.08786 0.26211 0.67750
 C3543 C 0.08790 0.26552 0.70083
 C3544 C 0.10788 0.26859 0.71200
 C3545 C 0.12842 0.26939 0.70025
 C3546 C 0.12894 0.26752 0.67664
 C3547 C 0.14970 0.27042 0.66516
 C3548 C 0.16950 0.27210 0.67682
 C3549 C 0.16934 0.27137 0.70025
 C3550 C 0.14861 0.27119 0.71194
 H3551 H 0.04291 0.26519 0.69251
 H3552 H 0.05237 0.24134 0.61407
 H3553 H 0.01038 0.25797 0.67129
 H3554 H 0.09161 0.24582 0.61461
 H3555 H 0.12491 0.25494 0.63291
 H3556 H 0.07280 0.26477 0.71110
 H3557 H 0.10726 0.27020 0.73004
 H3558 H 0.15124 0.27134 0.64716
 H3559 H 0.18520 0.27325 0.66735
 H3560 H 0.14827 0.27117 0.73010
 C3561 C 0.94467 0.25125 0.63350
 C3562 C 0.94036 0.24165 0.65486
 C3563 C 0.95867 0.23087 0.66613
 C3564 C 0.98065 0.23120 0.65675
 C3565 C 0.98505 0.24322 0.63665
 C3566 C 0.96634 0.25186 0.62467
 C3567 C 0.95492 0.21995 0.68671
 C3568 C 0.93351 0.22000 0.69664
 C3569 C 0.91491 0.23126 0.68642
 C3570 C 0.91846 0.24226 0.66516
 C3571 C 0.90013 0.25408 0.65508
 C3572 C 0.87904 0.25508 0.66524
 C3573 C 0.87525 0.24455 0.68591
 C3574 C 0.89295 0.23233 0.69684
 C3575 C 0.88786 0.22200 0.71786
 C3576 C 0.86635 0.22430 0.72765
 C3577 C 0.84917 0.23684 0.71685
 C3578 C 0.85376 0.24663 0.69582
 H3579 H 0.93170 0.25826 0.62286
 H3580 H 0.99436 0.22233 0.66524
 H3581 H 0.96828 0.25919 0.60802
 H3582 H 0.96873 0.21142 0.69537
 H3583 H 0.93219 0.21128 0.71259
 H3584 H 0.90149 0.26333 0.63946
 H3585 H 0.86557 0.26452 0.65689
 H3586 H 0.90009 0.21216 0.72728
 H3587 H 0.86326 0.21633 0.74387
 H3588 H 0.84063 0.25626 0.68717
 C3589 C 0.43473 0.75977 0.13122
 C3590 C 0.42949 0.74785 0.15127
 C3591 C 0.44694 0.73422 0.16097
 C3592 C 0.46876 0.73319 0.15111
 C3593 C 0.47415 0.74633 0.13194
 C3594 C 0.45633 0.75876 0.12175
 C3595 C 0.44249 0.72158 0.18042
 C3596 C 0.42124 0.72234 0.19067
 C3597 C 0.40333 0.73587 0.18186
 C3598 C 0.40752 0.74875 0.16174
 C3599 C 0.38962 0.76222 0.15283
 C3600 C 0.36843 0.76308 0.16305
 C3601 C 0.36406 0.75080 0.18269
 C3602 C 0.38139 0.73703 0.19247
 C3603 C 0.37598 0.72516 0.21258
 C3604 C 0.35449 0.72708 0.22248
 C3605 C 0.33744 0.74076 0.21276
 C3606 C 0.34239 0.75245 0.19271
 H3607 H 0.42249 0.76988 0.12210
 H3608 H 0.48163 0.72212 0.15842
 H3609 H 0.45886 0.76768 0.10595
 H3610 H 0.45566 0.71100 0.18791
 H3611 H 0.41943 0.71202 0.20559
 H3612 H 0.39137 0.77252 0.13790
 H3613 H 0.35530 0.77369 0.15551
 H3614 H 0.38795 0.71432 0.22127
 H3615 H 0.35126 0.71770 0.23790
 H3616 H 0.32946 0.76316 0.18500
 C3617 C 0.41629 0.25366 0.36843
 C3618 C 0.41317 0.24838 0.34585
 C3619 C 0.43233 0.24076 0.33334
 C3620 C 0.45345 0.23788 0.34350
 C3621 C 0.45682 0.24448 0.36574
 C3622 C 0.43740 0.25149 0.37805
 C3623 C 0.43030 0.23587 0.31075
 C3624 C 0.40982 0.23911 0.30010
 C3625 C 0.39021 0.24657 0.31190
 C3626 C 0.39172 0.25024 0.33539
 C3627 C 0.37166 0.25509 0.34774
 C3628 C 0.35091 0.25665 0.33749
 C3629 C 0.34931 0.25425 0.31444
 C3630 C 0.36898 0.24982 0.30117
 C3631 C 0.36653 0.24912 0.27766
 C3632 C 0.34536 0.25180 0.26800
 C3633 C 0.32594 0.25493 0.28139
 C3634 C 0.32806 0.25627 0.30461
 H3635 H 0.40280 0.25983 0.37920
 H3636 H 0.46697 0.22964 0.33410
 H3637 H 0.43812 0.25517 0.39558
 H3638 H 0.44482 0.22983 0.30107
 H3639 H 0.40970 0.23487 0.28266
 H3640 H 0.37125 0.25707 0.36561
 H3641 H 0.33594 0.26001 0.34773
 H3642 H 0.38069 0.24695 0.26626
 H3643 H 0.34414 0.25094 0.24998
 H3644 H 0.31312 0.25917 0.31503
 C3645 C 0.95166 0.77194 0.82312
 C3646 C 0.93162 0.76371 0.83277
 C3647 C 0.93232 0.75578 0.85527
 C3648 C 0.95249 0.75555 0.86717
 C3649 C 0.97274 0.76296 0.85724
 C3650 C 0.97148 0.77182 0.83514
 C3651 C 0.91278 0.74845 0.86603
 C3652 C 0.89242 0.74905 0.85504
 C3653 C 0.89078 0.75680 0.83258
 C3654 C 0.91083 0.76374 0.82109
 C3655 C 0.90948 0.77024 0.79824
 C3656 C 0.88925 0.77041 0.78708
 C3657 C 0.86948 0.76422 0.79815
 C3658 C 0.86984 0.75753 0.82110
 C3659 C 0.84914 0.75187 0.83156
 C3660 C 0.82931 0.75199 0.81949
 C3661 C 0.82922 0.75793 0.79665
 C3662 C 0.84938 0.76439 0.78620
 H3663 H 0.95250 0.77947 0.80658
 H3664 H 0.95206 0.75000 0.88452
 H3665 H 0.98566 0.77992 0.82720
 H3666 H 0.91318 0.74231 0.88325
 H3667 H 0.87828 0.74296 0.86465
 H3668 H 0.92392 0.77490 0.78823
 H3669 H 0.88912 0.77539 0.76951
 H3670 H 0.84759 0.74727 0.84904
 H3671 H 0.81395 0.74723 0.82817
 H3672 H 0.84957 0.76914 0.76856
   
