data_POSCAR
  _audit_creation_date              2014-09-24
  _audit_creation_method            'ToBaCCo'
  _symmetry_space_group_name_H-M    'P1'
  _symmetry_Int_Tables_number       1
  _symmetry_cell_setting            triclinic
  loop_
  _symmetry_equiv_pos_as_xyz
 x,y,z
_cell_length_a 44.9709
_cell_length_b 45.3355
_cell_length_c 58.4428
_cell_angle_alpha 89.937700
_cell_angle_beta 89.968800
_cell_angle_gamma 90.035700
loop_
  _atom_site_label
  _atom_site_type_symbol
  _atom_site_fract_x
  _atom_site_fract_y
  _atom_site_fract_z
Zr1 Zr 0.25014 0.24796 0.28961
 O2 O 0.27398 0.27111 0.31518
 O3 O 0.22241 0.22053 0.30923
 O4 O 0.22186 0.27490 0.30929
 O5 O 0.30553 0.19648 0.27963
 O6 O 0.19605 0.30162 0.28279
 O7 O 0.27951 0.22018 0.30767
 O8 O 0.19410 0.19711 0.28240
 O9 O 0.21023 0.24914 0.27122
 O10 O 0.24928 0.20962 0.26982
 O11 O 0.25168 0.28729 0.27048
 O12 O 0.28926 0.24937 0.26964
 Zr13 Zr 0.24908 0.25073 0.20994
 Zr14 Zr 0.21268 0.28713 0.25090
 Zr15 Zr 0.28662 0.21177 0.24880
 Zr16 Zr 0.21050 0.21164 0.25057
 O17 O 0.33351 0.21496 0.24702
 O18 O 0.16403 0.21950 0.25088
 O19 O 0.24777 0.21108 0.22885
 O20 O 0.21039 0.24953 0.23013
 O21 O 0.24993 0.28948 0.22940
 O22 O 0.28873 0.24964 0.22859
 C23 C 0.20164 0.20264 0.30319
 C24 C 0.29960 0.20201 0.30076
 C25 C 0.20242 0.29438 0.30355
 O26 O 0.16576 0.28405 0.25005
 O27 O 0.19703 0.30567 0.22006
 O28 O 0.22172 0.28060 0.19199
 C29 C 0.20302 0.30019 0.19893
 O30 O 0.30988 0.30300 0.27893
 Zr31 Zr 0.28877 0.28729 0.24877
 O32 O 0.27633 0.27810 0.19012
 O33 O 0.21716 0.33350 0.25305
 O34 O 0.28192 0.33354 0.24979
 O35 O 0.33543 0.28134 0.24632
 O36 O 0.30229 0.30446 0.21671
 C37 C 0.29529 0.29793 0.19594
 O38 O 0.22380 0.22896 0.18449
 O39 O 0.28240 0.16528 0.24940
 O40 O 0.27539 0.22160 0.19035
 O41 O 0.29991 0.19409 0.21712
 O42 O 0.21522 0.16511 0.25158
 O43 O 0.19312 0.19276 0.22010
 C44 C 0.29351 0.20095 0.19632
 H45 H 0.24967 0.19133 0.27908
 H46 H 0.19230 0.24962 0.22049
 H47 H 0.30667 0.24919 0.21878
 H48 H 0.25259 0.30473 0.28064
 H49 H 0.15411 0.20065 0.25488
 H50 H 0.15801 0.30445 0.25116
 H51 H 0.19677 0.34178 0.25282
 H52 H 0.30085 0.34310 0.24524
 H53 H 0.19551 0.15667 0.25545
 H54 H 0.30285 0.15713 0.24944
 H55 H 0.34123 0.19453 0.24614
 H56 H 0.34429 0.30073 0.24244
 H57 H 0.17606 0.17985 0.22394
 H58 H 0.23082 0.23630 0.16942
 H59 H 0.26714 0.26356 0.33024
 H60 H 0.32313 0.31971 0.27499
 Zr61 Zr 0.74994 0.75216 0.28969
 O62 O 0.72643 0.72885 0.31540
 O63 O 0.77757 0.77982 0.30916
 O64 O 0.77851 0.72550 0.30934
 O65 O 0.69390 0.80298 0.27975
 O66 O 0.80451 0.69901 0.28284
 O67 O 0.72033 0.77965 0.30778
 O68 O 0.80554 0.80345 0.28217
 O69 O 0.78978 0.75137 0.27117
 O70 O 0.75031 0.79048 0.26982
 O71 O 0.74875 0.71279 0.27066
 O72 O 0.71077 0.75029 0.26984
 Zr73 Zr 0.75072 0.74923 0.21002
 Zr74 Zr 0.78767 0.71331 0.25096
 Zr75 Zr 0.71292 0.78788 0.24890
 Zr76 Zr 0.78902 0.78883 0.25043
 O77 O 0.66605 0.78422 0.24726
 O78 O 0.83559 0.78152 0.25051
 O79 O 0.75168 0.78893 0.22882
 O80 O 0.78947 0.75091 0.23009
 O81 O 0.75036 0.71051 0.22958
 O82 O 0.71115 0.74995 0.22879
 C83 C 0.79822 0.79782 0.30301
 C84 C 0.69996 0.79755 0.30088
 C85 C 0.79811 0.70619 0.30360
 O86 O 0.83456 0.71692 0.25003
 O87 O 0.80352 0.69497 0.22012
 O88 O 0.77842 0.71968 0.19206
 C89 C 0.79743 0.70037 0.19899
 O90 O 0.69078 0.69642 0.27934
 Zr91 Zr 0.71158 0.71234 0.24907
 O92 O 0.72366 0.72152 0.19036
 O93 O 0.78370 0.66690 0.25318
 O94 O 0.71894 0.66617 0.25017
 O95 O 0.66485 0.71782 0.24679
 O96 O 0.69805 0.69500 0.21711
 C97 C 0.70489 0.70155 0.19629
 O98 O 0.77563 0.77123 0.18440
 O99 O 0.71666 0.83441 0.24938
 O100 O 0.72402 0.77805 0.19044
 O101 O 0.69933 0.80536 0.21722
 O102 O 0.78378 0.83530 0.25143
 O103 O 0.80599 0.80791 0.21985
 C104 C 0.70572 0.79852 0.19642
 H105 H 0.74978 0.80877 0.27905
 H106 H 0.80753 0.75101 0.22040
 H107 H 0.69316 0.75020 0.21904
 H108 H 0.74806 0.69535 0.28086
 H109 H 0.84532 0.80048 0.25441
 H110 H 0.84253 0.69660 0.25116
 H111 H 0.80418 0.65884 0.25293
 H112 H 0.70010 0.65640 0.24571
 H113 H 0.80341 0.84396 0.25522
 H114 H 0.69613 0.84235 0.24947
 H115 H 0.65813 0.80457 0.24634
 H116 H 0.65616 0.69833 0.24299
 H117 H 0.82286 0.82108 0.22360
 H118 H 0.76861 0.76378 0.16938
 H119 H 0.73325 0.73648 0.33042
 H120 H 0.67769 0.67957 0.27549
 Zr121 Zr 0.75006 0.24755 -0.28966
 O122 O 0.72647 0.27068 -0.31540
 O123 O 0.77769 0.21985 -0.30909
 O124 O 0.77857 0.27418 -0.30942
 O125 O 0.69421 0.19652 -0.27953
 O126 O 0.80450 0.30093 -0.28303
 O127 O 0.72053 0.21985 -0.30764
 O128 O 0.80575 0.19644 -0.28209
 O129 O 0.78992 0.24862 -0.27120
 O130 O 0.75058 0.20933 -0.26968
 O131 O 0.74877 0.28702 -0.27075
 O132 O 0.71089 0.24937 -0.26978
 Zr133 Zr 0.75090 0.25089 -0.21001
 Zr134 Zr 0.78771 0.28676 -0.25109
 Zr135 Zr 0.71318 0.21189 -0.24874
 Zr136 Zr 0.78930 0.21125 -0.25036
 O137 O 0.66631 0.21538 -0.24705
 O138 O 0.83584 0.21881 -0.25060
 O139 O 0.75197 0.21110 -0.22871
 O140 O 0.78964 0.24927 -0.23012
 O141 O 0.75040 0.28951 -0.22968
 O142 O 0.71131 0.24990 -0.22873
 C143 C 0.79835 0.20191 -0.30292
 C144 C 0.70025 0.20187 -0.30068
 C145 C 0.79812 0.29359 -0.30376
 O146 O 0.83461 0.28338 -0.25017
 O147 O 0.80349 0.30536 -0.22032
 O148 O 0.77848 0.28068 -0.19217
 C149 C 0.79741 0.30006 -0.19916
 O150 O 0.69075 0.30312 -0.27940
 Zr151 Zr 0.71161 0.28742 -0.24912
 O152 O 0.72375 0.27856 -0.19039
 O153 O 0.78359 0.33314 -0.25349
 O154 O 0.71883 0.33362 -0.25035
 O155 O 0.66489 0.28175 -0.24676
 O156 O 0.69804 0.30485 -0.21718
 C157 C 0.70491 0.29842 -0.19635
 O158 O 0.77592 0.22914 -0.18437
 O159 O 0.71704 0.16537 -0.24908
 O160 O 0.72435 0.22203 -0.19032
 O161 O 0.69972 0.19449 -0.21700
 O162 O 0.78421 0.16475 -0.25113
 O163 O 0.80641 0.19243 -0.21975
 C164 C 0.70612 0.20144 -0.19623
 H165 H 0.75008 0.19099 -0.27885
 H166 H 0.80771 0.24930 -0.22045
 H167 H 0.69333 0.24961 -0.21896
 H168 H 0.74802 0.30440 -0.28100
 H169 H 0.84563 0.19987 -0.25447
 H170 H 0.84251 0.30373 -0.25140
 H171 H 0.80404 0.34129 -0.25328
 H172 H 0.69997 0.34332 -0.24589
 H173 H 0.80387 0.15615 -0.25492
 H174 H 0.69654 0.15735 -0.24912
 H175 H 0.65844 0.19499 -0.24605
 H176 H 0.65615 0.30121 -0.24301
 H177 H 0.82338 0.17939 -0.22349
 H178 H 0.76889 0.23662 -0.16936
 H179 H 0.73330 0.26300 -0.33041
 H180 H 0.67760 0.31991 -0.27557
 Zr181 Zr 0.24892 0.75319 -0.28979
 O182 O 0.27238 0.73009 -0.31560
 O183 O 0.22110 0.78081 -0.30917
 O184 O 0.22035 0.72641 -0.30935
 O185 O 0.30479 0.80426 -0.28005
 O186 O 0.19461 0.69968 -0.28276
 O187 O 0.27836 0.78092 -0.30797
 O188 O 0.19322 0.80422 -0.28215
 O189 O 0.20916 0.75210 -0.27116
 O190 O 0.24850 0.79144 -0.26992
 O191 O 0.25034 0.71376 -0.27075
 O192 O 0.28820 0.75141 -0.27007
 Zr193 Zr 0.24854 0.74994 -0.21010
 Zr194 Zr 0.21152 0.71400 -0.25092
 Zr195 Zr 0.28601 0.78893 -0.24912
 Zr196 Zr 0.20989 0.78950 -0.25043
 O197 O 0.33289 0.78547 -0.24764
 O198 O 0.16335 0.78191 -0.25045
 O199 O 0.24734 0.78969 -0.22892
 O200 O 0.20968 0.75153 -0.23007
 O201 O 0.24894 0.71129 -0.22966
 O202 O 0.28801 0.75095 -0.22900
 C203 C 0.20041 0.79881 -0.30307
 C204 C 0.29872 0.79899 -0.30124
 C205 C 0.20089 0.70695 -0.30355
 O206 O 0.16462 0.71736 -0.24987
 O207 O 0.19585 0.69549 -0.22001
 O208 O 0.22098 0.72018 -0.19205
 C209 C 0.20193 0.70076 -0.19882
 O210 O 0.30832 0.69765 -0.27961
 Zr211 Zr 0.28762 0.71340 -0.24928
 O212 O 0.27582 0.72228 -0.19052
 O213 O 0.21566 0.66761 -0.25316
 O214 O 0.28043 0.66719 -0.25038
 O215 O 0.33435 0.71913 -0.24714
 O216 O 0.30140 0.69600 -0.21736
 C217 C 0.29464 0.70242 -0.19651
 O218 O 0.22369 0.77174 -0.18439
 O219 O 0.28210 0.83544 -0.24955
 O220 O 0.27523 0.77887 -0.19061
 O221 O 0.29968 0.80638 -0.21747
 O222 O 0.21494 0.83601 -0.25137
 O223 O 0.19293 0.80840 -0.21982
 C224 C 0.29342 0.79945 -0.19664
 H225 H 0.24892 0.80975 -0.27915
 H226 H 0.19167 0.75151 -0.22032
 H227 H 0.30604 0.75125 -0.21931
 H228 H 0.25105 0.69636 -0.28096
 H229 H 0.15353 0.80082 -0.25434
 H230 H 0.15673 0.69700 -0.25098
 H231 H 0.19522 0.65945 -0.25282
 H232 H 0.29933 0.65750 -0.24597
 H233 H 0.19527 0.84458 -0.25513
 H234 H 0.30259 0.84348 -0.24973
 H235 H 0.34075 0.80587 -0.24674
 H236 H 0.34314 0.69968 -0.24337
 H237 H 0.17593 0.82142 -0.22353
 H238 H 0.23081 0.76426 -0.16940
 H239 H 0.26544 0.73775 -0.33059
 H240 H 0.32154 0.68090 -0.27579
 Zr241 Zr 1.24950 1.25113 0.79004
 O242 O 1.22558 1.22799 0.81561
 O243 O 1.27707 1.27818 0.80982
 O244 O 1.27786 1.22395 0.80962
 O245 O 1.19443 1.30300 0.77986
 O246 O 1.30355 1.19753 0.78289
 O247 O 1.22008 1.27895 0.80798
 O248 O 1.30578 1.30171 0.78325
 O249 O 1.28943 1.24987 0.77166
 O250 O 1.25055 1.28958 0.77025
 O251 O 1.24790 1.21188 0.77099
 O252 O 1.21041 1.25022 0.77009
 Zr253 Zr 1.25052 1.24834 0.71038
 Zr254 Zr 1.28679 1.21203 0.75123
 Zr255 Zr 1.21331 1.28774 0.74905
 Zr256 Zr 1.28940 1.28748 0.75113
 O257 O 1.16639 1.28505 0.74722
 O258 O 1.33582 1.27928 0.75148
 O259 O 1.25225 1.28806 0.72921
 O260 O 1.28923 1.24967 0.73055
 O261 O 1.24945 1.20969 0.72995
 O262 O 1.21093 1.24975 0.72909
 C263 C 1.29804 1.29593 0.80402
 C264 C 1.20017 1.29729 0.80099
 C265 C 1.29733 1.20457 0.80366
 O266 O 1.33374 1.21489 0.75025
 O267 O 1.30251 1.19349 0.72048
 O268 O 1.27781 1.21850 0.69242
 C269 C 1.29655 1.19898 0.69936
 O270 O 1.18967 1.19713 0.77993
 Zr271 Zr 1.21072 1.21222 0.74952
 O272 O 1.22292 1.22073 0.69084
 O273 O 1.28207 1.16567 0.75341
 O274 O 1.21703 1.16590 0.75084
 O275 O 1.16408 1.21841 0.74704
 O276 O 1.19706 1.19483 0.71782
 C277 C 1.20390 1.20103 0.69699
 O278 O 1.27579 1.26993 0.68475
 O279 O 1.21798 1.33417 0.74954
 O280 O 1.22450 1.27737 0.69065
 O281 O 1.20018 1.30540 0.71717
 O282 O 1.28473 1.33401 0.75216
 O283 O 1.30725 1.30654 0.72084
 C284 C 1.20660 1.29824 0.69640
 H285 H 1.25024 1.30782 0.77954
 H286 H 1.30731 1.24953 0.72088
 H287 H 1.19298 1.25026 0.71930
 H288 H 1.24696 1.19441 0.78115
 H289 H 1.34583 1.29797 0.75573
 H290 H 1.34142 1.19446 0.75139
 H291 H 1.30241 1.15728 0.75318
 H292 H 1.19790 1.15650 0.74663
 H293 H 1.30435 1.34238 0.75637
 H294 H 1.19761 1.34250 0.74956
 H295 H 1.15891 1.30557 0.74630
 H296 H 1.15508 1.19897 0.74353
 H297 H 1.32421 1.31946 0.72485
 H298 H 1.26877 1.26253 0.66972
 H299 H 1.23250 1.23545 0.83066
 H300 H 1.17621 1.18052 0.77624
 Zr301 Zr 0.75067 0.74911 0.79007
 O302 O 0.77488 0.77229 0.81541
 O303 O 0.72309 0.72237 0.81013
 O304 O 0.72258 0.77659 0.80963
 O305 O 0.80541 0.69689 0.77993
 O306 O 0.69687 0.80295 0.78286
 O307 O 0.78006 0.72126 0.80803
 O308 O 0.69408 0.69881 0.78382
 O309 O 0.71064 0.75044 0.77186
 O310 O 0.74930 0.71053 0.77051
 O311 O 0.75236 0.78823 0.77080
 O312 O 0.78964 0.74967 0.76995
 Zr313 Zr 0.74918 0.75134 0.71041
 Zr314 Zr 0.71335 0.78813 0.75122
 Zr315 Zr 0.78642 0.71203 0.74913
 Zr316 Zr 0.71035 0.71269 0.75155
 O317 O 0.83334 0.71446 0.74709
 O318 O 0.66398 0.72110 0.75203
 O319 O 0.74736 0.71175 0.72947
 O320 O 0.71059 0.75036 0.73076
 O321 O 0.75057 0.79011 0.72976
 O322 O 0.78888 0.74987 0.72895
 C323 C 0.70198 0.70471 0.80452
 C324 C 0.79983 0.70278 0.80106
 C325 C 0.70318 0.79603 0.80365
 O326 O 0.66638 0.78549 0.75047
 O327 O 0.69756 0.80654 0.72043
 O328 O 0.72193 0.78119 0.69241
 C329 C 0.70335 0.80086 0.69932
 O330 O 0.81073 0.80266 0.77941
 Zr331 Zr 0.78940 0.78753 0.74917
 O332 O 0.77676 0.77870 0.69060
 O333 O 0.71832 0.83447 0.75309
 O334 O 0.78335 0.83389 0.75029
 O335 O 0.83599 0.78112 0.74648
 O336 O 0.80288 0.80467 0.71732
 C337 C 0.79588 0.79836 0.69656
 O338 O 0.72364 0.72968 0.68503
 O339 O 0.78150 0.66562 0.74990
 O340 O 0.77498 0.72208 0.69072
 O341 O 0.79932 0.69412 0.71728
 O342 O 0.71477 0.66615 0.75286
 O343 O 0.69224 0.69351 0.72145
 C344 C 0.79284 0.70118 0.69650
 H345 H 0.74957 0.69235 0.77990
 H346 H 0.69245 0.75052 0.72117
 H347 H 0.80676 0.74922 0.71909
 H348 H 0.75345 0.80575 0.78085
 H349 H 0.65390 0.70250 0.75644
 H350 H 0.65881 0.80597 0.75151
 H351 H 0.69802 0.84297 0.75291
 H352 H 0.80251 0.84316 0.74594
 H353 H 0.69514 0.65792 0.75720
 H354 H 0.80182 0.65719 0.74987
 H355 H 0.84072 0.69389 0.74626
 H356 H 0.84505 0.80050 0.74283
 H357 H 0.67525 0.68067 0.72561
 H358 H 0.73060 0.73695 0.66992
 H359 H 0.76801 0.76497 0.83052
 H360 H 0.82425 0.81919 0.77557
 Zr361 Zr 1.24944 0.74900 0.20996
 O362 O 1.22548 0.77218 0.18447
 O363 O 1.27701 0.72206 0.19009
 O364 O 1.27777 0.77627 0.19040
 O365 O 1.19440 0.69699 0.22011
 O366 O 1.30348 0.80267 0.21713
 O367 O 1.22003 0.72118 0.19201
 O368 O 1.30574 0.69849 0.21657
 O369 O 1.28939 0.75028 0.22829
 O370 O 1.25053 0.71050 0.22968
 O371 O 1.24786 0.78820 0.22909
 O372 O 1.21037 0.74981 0.22996
 Zr373 Zr 1.25056 0.75159 0.28960
 Zr374 Zr 1.28678 0.78807 0.24878
 Zr375 Zr 1.21330 0.71223 0.25093
 Zr376 Zr 1.28940 0.71261 0.24874
 O377 O 1.16638 0.71486 0.25281
 O378 O 1.33582 0.72088 0.24833
 O379 O 1.25226 0.71192 0.27071
 O380 O 1.28925 0.75036 0.26939
 O381 O 1.24945 0.79029 0.27011
 O382 O 1.21094 0.75016 0.27096
 C383 C 1.29799 0.70432 0.19582
 C384 C 1.20014 0.70278 0.19897
 C385 C 1.29722 0.79567 0.19635
 O386 O 1.33373 0.78528 0.24969
 O387 O 1.30252 0.80656 0.27955
 O388 O 1.27785 0.78142 0.30759
 C389 C 1.29657 0.80099 0.30067
 O390 O 1.18961 0.80288 0.22024
 Zr391 Zr 1.21070 0.78775 0.25060
 O392 O 1.22300 0.77912 0.30924
 O393 O 1.28204 0.83442 0.24668
 O394 O 1.21698 0.83409 0.24932
 O395 O 1.16407 0.78150 0.25317
 O396 O 1.19711 0.80507 0.28236
 C397 C 1.20399 0.79882 0.30317
 O398 O 1.27588 0.72995 0.31515
 O399 O 1.21797 0.66580 0.25037
 O400 O 1.22459 0.72249 0.30932
 O401 O 1.20021 0.69449 0.28281
 O402 O 1.28476 0.66607 0.24765
 O403 O 1.30726 0.69350 0.27898
 C404 C 1.20668 0.70162 0.30357
 H405 H 1.25022 0.69228 0.22036
 H406 H 1.30734 0.75050 0.27904
 H407 H 1.19301 0.74961 0.28078
 H408 H 1.24690 0.80569 0.21895
 H409 H 1.34583 0.70221 0.24405
 H410 H 1.34140 0.80572 0.24857
 H411 H 1.30238 0.84284 0.24690
 H412 H 1.19786 0.84344 0.25358
 H413 H 1.30438 0.65776 0.24341
 H414 H 1.19760 0.65745 0.25037
 H415 H 1.15890 0.69433 0.25373
 H416 H 1.15507 0.80091 0.25673
 H417 H 1.32425 0.68063 0.27493
 H418 H 1.26889 0.73729 0.33021
 H419 H 1.23239 0.76478 0.16940
 H420 H 1.17611 0.81944 0.22399
 Zr421 Zr 0.75088 1.25068 0.20988
 O422 O 0.77471 1.22757 0.18429
 O423 O 0.72320 1.27770 0.19011
 O424 O 0.72247 1.22338 0.19043
 O425 O 0.80599 1.30265 0.21983
 O426 O 0.69692 1.19691 0.21728
 O427 O 0.78025 1.27856 0.19180
 O428 O 0.69463 1.30122 0.21671
 O429 O 0.71102 1.24933 0.22837
 O430 O 0.74989 1.28912 0.22960
 O431 O 0.75256 1.21144 0.22904
 O432 O 0.79004 1.24980 0.22976
 Zr433 Zr 0.75014 1.24786 0.28959
 Zr434 Zr 0.71374 1.21150 0.24888
 Zr435 Zr 0.78722 1.28733 0.25073
 Zr436 Zr 0.71111 1.28695 0.24882
 O437 O 0.83414 1.28468 0.25245
 O438 O 0.66470 1.27866 0.24855
 O439 O 0.74835 1.28757 0.27066
 O440 O 0.71137 1.24915 0.26949
 O441 O 0.75116 1.20921 0.27009
 O442 O 0.78966 1.24936 0.27078
 C443 C 0.70227 1.29546 0.19593
 C444 C 0.80019 1.29694 0.19870
 C445 C 0.70306 1.20394 0.19647
 O446 O 0.66679 1.21429 0.24990
 O447 O 0.69803 1.19298 0.27972
 O448 O 0.72285 1.21800 0.30768
 C449 C 0.70404 1.19849 0.30083
 O450 O 0.81073 1.19666 0.22002
 Zr451 Zr 0.78982 1.21182 0.25043
 O452 O 0.77786 1.22031 0.30913
 O453 O 0.71849 1.16515 0.24682
 O454 O 0.78350 1.16549 0.24925
 O455 O 0.83646 1.21812 0.25275
 O456 O 0.80368 1.19449 0.28215
 C457 C 0.79692 1.20069 0.30299
 O458 O 0.72496 1.26942 0.31524
 O459 O 0.78253 1.33376 0.25017
 O460 O 0.77620 1.27699 0.30919
 O461 O 0.80044 1.30503 0.28256
 O462 O 0.71578 1.33349 0.24774
 O463 O 0.69335 1.30597 0.27911
 C464 C 0.79407 1.29789 0.30335
 H465 H 0.75017 1.30736 0.22029
 H466 H 0.69332 1.24899 0.27919
 H467 H 0.80765 1.24991 0.28053
 H468 H 0.75348 1.19396 0.21891
 H469 H 0.65466 1.29733 0.24430
 H470 H 0.65911 1.19385 0.24882
 H471 H 0.69815 1.15672 0.24711
 H472 H 0.80263 1.15611 0.25346
 H473 H 0.69615 1.34183 0.24356
 H474 H 0.80290 1.34211 0.25009
 H475 H 0.84163 1.30521 0.25334
 H476 H 0.84550 1.19871 0.25630
 H477 H 0.67634 1.31884 0.27511
 H478 H 0.73205 1.26204 0.33027
 H479 H 0.76773 1.23501 0.16926
 H480 H 0.82424 1.18010 0.22374
 N481 N 0.55277 1.03195 -0.02378
 N482 N 0.57344 1.03786 -0.03915
 N483 N 0.53187 1.05215 0.02429
 N484 N 0.53778 1.07254 0.03973
 N485 N 0.55258 1.03172 0.02425
 N486 N 0.57315 1.03770 0.03969
 N487 N 0.53221 1.05252 -0.02375
 N488 N 0.53836 1.07301 -0.03912
 C489 C 0.56398 1.06336 -0.04871
 C490 C 0.56341 1.06305 0.04934
 N491 N 0.44710 1.03157 0.02401
 N492 N 0.42635 1.03732 0.03934
 N493 N 0.46804 1.05251 -0.02390
 N494 N 0.46218 1.07308 -0.03923
 N495 N 0.44733 1.03206 -0.02403
 N496 N 0.42682 1.03819 -0.03948
 N497 N 0.46768 1.05214 0.02415
 N498 N 0.46145 1.07247 0.03960
 Mn499 Mn 0.49995 1.05260 0.00020
 C500 C 0.43578 1.06271 0.04907
 C501 C 0.43659 1.06367 -0.04895
 N502 N 0.55256 0.96807 0.02399
 N503 N 0.57311 0.96216 0.03943
 N504 N 0.53208 0.94788 -0.02418
 N505 N 0.53810 0.92751 -0.03961
 N506 N 0.55280 0.96831 -0.02405
 N507 N 0.57350 0.96237 -0.03940
 N508 N 0.53200 0.94748 0.02387
 N509 N 0.53804 0.92697 0.03924
 Mn510 Mn 0.55294 1.00002 0.00011
 C511 C 0.56359 0.93663 0.04894
 C512 C 0.56382 0.93702 -0.04911
 N513 N 0.44732 0.96841 -0.02430
 N514 N 0.42670 0.96265 -0.03972
 N515 N 0.46783 0.94750 0.02369
 N516 N 0.46193 0.92700 0.03908
 N517 N 0.44713 0.96793 0.02373
 N518 N 0.42656 0.96187 0.03917
 N519 N 0.46788 0.94785 -0.02435
 N520 N 0.46176 0.92751 -0.03982
 Mn521 Mn 0.44696 0.99999 -0.00015
 Mn522 Mn 0.49995 0.94741 -0.00024
 Cl523 Cl 0.49995 1.00000 -0.00002
 C524 C 0.43618 0.93725 -0.04940
 C525 C 0.43630 0.93644 0.04872
 N526 N 1.05299 0.53101 0.52504
 N527 N 1.07407 0.54998 0.53086
 N528 N 1.03193 0.46893 0.54035
 N529 N 1.03836 0.45040 0.55702
 N530 N 1.05312 0.46905 0.52485
 N531 N 1.07464 0.45067 0.53075
 N532 N 1.03168 0.53091 0.54043
 N533 N 1.03752 0.54983 0.55693
 C534 C 1.06376 0.56185 0.55063
 C535 C 1.06479 0.43886 0.55067
 N536 N 0.94677 0.46876 0.52476
 N537 N 0.92571 0.44969 0.53042
 N538 N 0.96772 0.53070 0.54038
 N539 N 0.96116 0.54903 0.55714
 N540 N 0.94662 0.53072 0.52484
 N541 N 0.92503 0.54899 0.53078
 N542 N 0.96800 0.46873 0.54021
 N543 N 0.96212 0.44960 0.55658
 Mn544 Mn 0.99983 0.49982 0.54043
 C545 C 0.93593 0.43761 0.55015
 C546 C 0.93475 0.56060 0.55079
 N547 N 1.05324 0.46918 0.47511
 N548 N 1.07446 0.45037 0.46931
 N549 N 1.03204 0.53116 0.45977
 N550 N 1.03848 0.54974 0.44313
 N551 N 1.05315 0.53113 0.47531
 N552 N 1.07462 0.54962 0.46948
 N553 N 1.03202 0.46919 0.45967
 N554 N 1.03806 0.45036 0.44315
 Mn555 Mn 1.05343 0.50009 0.50008
 C556 C 1.06434 0.43849 0.44949
 C557 C 1.06482 0.56140 0.44955
 N558 N 0.94680 0.53100 0.47509
 N559 N 0.92566 0.54991 0.46933
 N560 N 0.96806 0.46913 0.45956
 N561 N 0.96169 0.45072 0.44281
 N562 N 0.94686 0.46904 0.47504
 N563 N 0.92539 0.45063 0.46907
 N564 N 0.96812 0.53110 0.45970
 N565 N 0.96221 0.55012 0.44326
 Mn566 Mn 0.94646 0.49988 0.49993
 Mn567 Mn 1.00006 0.50014 0.45959
 Cl568 Cl 0.99994 0.49998 0.50001
 C569 C 0.93592 0.56197 0.44959
 C570 C 0.93528 0.43902 0.44911
 N571 N 1.05360 0.46903 0.02352
 N572 N 1.07371 0.46378 0.03946
 N573 N 1.03254 0.44842 -0.02444
 N574 N 1.03771 0.42852 -0.04041
 N575 N 1.05327 0.46885 -0.02460
 N576 N 1.07313 0.46338 -0.04070
 N577 N 1.03297 0.44850 0.02366
 N578 N 1.03851 0.42873 0.03972
 C579 C 1.06387 0.43870 0.04952
 C580 C 1.06295 0.43827 -0.05050
 N581 N 0.94775 0.46879 -0.02417
 N582 N 0.92762 0.46344 -0.04008
 N583 N 0.96878 0.44837 0.02392
 N584 N 0.96346 0.42838 0.03985
 N585 N 0.94804 0.46876 0.02398
 N586 N 0.92803 0.46317 0.03997
 N587 N 0.96837 0.44828 -0.02423
 N588 N 0.96280 0.42841 -0.04019
 Mn589 Mn 1.00067 0.44811 -0.00027
 C590 C 0.93743 0.43831 -0.05003
 C591 C 0.93811 0.43804 0.04983
 N592 N 1.05337 0.53259 -0.02479
 N593 N 1.07348 0.53807 -0.04072
 N594 N 1.03285 0.55310 0.02340
 N595 N 1.03806 0.57286 0.03947
 N596 N 1.05359 0.53272 0.02337
 N597 N 1.07351 0.53808 0.03944
 N598 N 1.03275 0.55310 -0.02475
 N599 N 1.03831 0.57309 -0.04067
 Mn600 Mn 1.05376 0.50079 -0.00063
 C601 C 1.06366 0.56327 -0.05061
 C602 C 1.06336 0.56307 0.04942
 N603 N 0.94807 0.53247 0.02384
 N604 N 0.92809 0.53781 0.03986
 N605 N 0.96854 0.55289 -0.02439
 N606 N 0.96323 0.57266 -0.04045
 N607 N 0.94781 0.53247 -0.02427
 N608 N 0.92780 0.53781 -0.04027
 N609 N 0.96866 0.55304 0.02372
 N610 N 0.96320 0.57295 0.03968
 Mn611 Mn 0.94763 0.50063 -0.00015
 Mn612 Mn 1.00070 0.55332 -0.00050
 Cl613 Cl 1.00069 0.50071 -0.00039
 C614 C 0.93795 0.56299 0.04970
 C615 C 0.93789 0.56282 -0.05030
 N616 N 0.55214 1.03107 0.47602
 N617 N 0.57225 1.03635 0.46007
 N618 N 0.53161 1.05184 0.52414
 N619 N 0.53697 1.07174 0.54009
 N620 N 0.55229 1.03139 0.52417
 N621 N 0.57230 1.03686 0.54017
 N622 N 0.53160 1.05166 0.47599
 N623 N 0.53722 1.07152 0.45999
 C624 C 0.56252 1.06151 0.45010
 C625 C 0.56229 1.06198 0.55005
 N626 N 0.44679 1.03132 0.52439
 N627 N 0.42687 1.03661 0.54046
 N628 N 0.46739 1.05167 0.47617
 N629 N 0.46211 1.07147 0.46011
 N630 N 0.44661 1.03128 0.47628
 N631 N 0.42661 1.03670 0.46026
 N632 N 0.46741 1.05186 0.52428
 N633 N 0.46205 1.07170 0.54030
 Mn634 Mn 0.49950 1.05204 0.50015
 C635 C 0.43681 1.06173 0.55032
 C636 C 0.43674 1.06172 0.45023
 N637 N 0.55210 0.96772 0.52433
 N638 N 0.57215 0.96256 0.54031
 N639 N 0.53122 0.94695 0.47637
 N640 N 0.53645 0.92701 0.46042
 N641 N 0.55195 0.96738 0.47622
 N642 N 0.57186 0.96185 0.46016
 N643 N 0.53147 0.94719 0.52449
 N644 N 0.53696 0.92748 0.54059
 Mn645 Mn 0.55241 0.99938 0.50019
 C646 C 0.56228 0.93753 0.55040
 C647 C 0.56174 0.93673 0.45035
 N648 N 0.44647 0.96760 0.47653
 N649 N 0.42653 0.96246 0.46046
 N650 N 0.46723 0.94716 0.52469
 N651 N 0.46175 0.92720 0.54063
 N652 N 0.44656 0.96762 0.52468
 N653 N 0.42645 0.96209 0.54063
 N654 N 0.46702 0.94702 0.47654
 N655 N 0.46159 0.92729 0.46046
 Mn656 Mn 0.44632 0.99946 0.50047
 Mn657 Mn 0.49924 0.94679 0.50052
 Cl658 Cl 0.49936 0.99942 0.50033
 C659 C 0.43637 0.93737 0.45050
 C660 C 0.43638 0.93693 0.55055
 N661 N 1.03238 1.05164 0.52444
 N662 N 1.03817 1.07189 0.54002
 N663 N 1.05335 1.03130 0.47655
 N664 N 1.07377 1.03705 0.46094
 N665 N 1.03266 1.05172 0.47648
 N666 N 1.03838 1.07192 0.46083
 N667 N 1.05297 1.03111 0.52451
 N668 N 1.07333 1.03681 0.54013
 C669 C 1.06361 1.06213 0.54978
 C670 C 1.06391 1.06229 0.45119
 N671 N 1.03276 0.94727 0.47640
 N672 N 1.03867 0.92713 0.46077
 N673 N 1.05299 0.96760 0.52450
 N674 N 1.07320 0.96184 0.54025
 N675 N 1.03231 0.94714 0.52440
 N676 N 1.03786 0.92690 0.54005
 N677 N 1.05338 0.96779 0.47651
 N678 N 1.07388 0.96221 0.46097
 Mn679 Mn 1.05347 0.99945 0.50052
 C680 C 1.06422 0.93694 0.45118
 C681 C 1.06327 0.93655 0.54991
 N682 N 0.96864 1.05179 0.47616
 N683 N 0.96288 1.07209 0.46058
 N684 N 0.94766 1.03119 0.52404
 N685 N 0.92722 1.03687 0.53963
 N686 N 0.96836 1.05163 0.52415
 N687 N 0.96260 1.07177 0.53980
 N688 N 0.94805 1.03125 0.47605
 N689 N 0.92772 1.03698 0.46041
 Mn690 Mn 1.00051 1.05199 0.50031
 C691 C 0.93745 1.06234 0.45078
 C692 C 0.93704 1.06208 0.54942
 N693 N 0.96827 0.94718 0.52406
 N694 N 0.96224 0.92689 0.53959
 N695 N 0.94807 0.96775 0.47602
 N696 N 0.92782 0.96204 0.46032
 N697 N 0.96873 0.94729 0.47610
 N698 N 0.96311 0.92709 0.46047
 N699 N 0.94768 0.96770 0.52397
 N700 N 0.92708 0.96197 0.53942
 Mn701 Mn 1.00052 0.94693 0.50024
 Mn702 Mn 0.94758 0.99947 0.50002
 Cl703 Cl 1.00052 0.99946 0.50027
 C704 C 0.93667 0.93663 0.54913
 C705 C 0.93770 0.93678 0.45065
 N706 N 0.55305 0.53084 0.02482
 N707 N 0.57432 0.54957 0.03057
 N708 N 0.53156 0.46893 0.04015
 N709 N 0.53726 0.44970 0.05647
 N710 N 0.55285 0.46894 0.02475
 N711 N 0.57377 0.44976 0.03036
 N712 N 0.53182 0.53086 0.04026
 N713 N 0.53792 0.54966 0.05678
 C714 C 0.56423 0.56145 0.05037
 C715 C 0.56339 0.43765 0.05003
 N716 N 0.44666 0.46930 0.02453
 N717 N 0.42546 0.45037 0.03009
 N718 N 0.46805 0.53107 0.04011
 N719 N 0.46241 0.55037 0.05635
 N720 N 0.44686 0.53119 0.02464
 N721 N 0.42604 0.55053 0.03014
 N722 N 0.46780 0.46915 0.04002
 N723 N 0.46173 0.45007 0.05637
 Mn724 Mn 0.49980 0.50001 0.04025
 C725 C 0.43552 0.43825 0.04982
 C726 C 0.43640 0.56259 0.04980
 N727 N 0.55301 0.46921 -0.02486
 N728 N 0.57422 0.45043 -0.03059
 N729 N 0.53193 0.53124 -0.04019
 N730 N 0.53753 0.55089 -0.05623
 N731 N 0.55312 0.53111 -0.02473
 N732 N 0.57390 0.55062 -0.03001
 N733 N 0.53188 0.46933 -0.04037
 N734 N 0.53800 0.45056 -0.05690
 Mn735 Mn 0.55334 0.50002 -0.00001
 C736 C 0.56420 0.43865 -0.05044
 C737 C 0.56352 0.56303 -0.04954
 N738 N 0.44692 0.53133 -0.02497
 N739 N 0.42563 0.54999 -0.03080
 N740 N 0.46811 0.46943 -0.04044
 N741 N 0.46249 0.45010 -0.05667
 N742 N 0.44683 0.46943 -0.02504
 N743 N 0.42596 0.45013 -0.03055
 N744 N 0.46816 0.53136 -0.04041
 N745 N 0.46202 0.55010 -0.05699
 Mn746 Mn 0.44648 0.50031 -0.00020
 Mn747 Mn 0.50003 0.50034 -0.04047
 Cl748 Cl 0.49991 0.50017 -0.00011
 C749 C 0.43571 0.56185 -0.05064
 C750 C 0.43639 0.43799 -0.05016
 N751 N 0.34299 1.14796 0.16773
 C752 C 0.33881 1.15455 0.14535
 N753 N 0.31933 1.17617 0.13960
 N754 N 0.30456 1.19083 0.15579
 C755 C 0.30880 1.18431 0.17825
 N756 N 0.32826 1.16260 0.18389
 C757 C 0.35523 1.13902 0.12809
 C758 C 0.36940 1.12570 0.11396
 C759 C 0.38646 1.10959 0.09740
 N760 N 0.37653 1.08332 0.08938
 N761 N 0.39242 1.06826 0.07410
 C762 C 0.41881 1.07893 0.06639
 N763 N 0.42875 1.10520 0.07449
 N764 N 0.41285 1.12026 0.08978
 N765 N 0.84113 0.64849 0.66618
 C766 C 0.83612 0.65560 0.64397
 N767 N 0.81654 0.67741 0.63899
 N768 N 0.80247 0.69171 0.65573
 C769 C 0.80751 0.68469 0.67801
 N770 N 0.82708 0.66277 0.68291
 C771 C 0.85206 0.64069 0.62609
 C772 C 0.86619 0.62788 0.61162
 C773 C 0.88397 0.61212 0.59526
 N774 N 0.87247 0.60340 0.57489
 N775 N 0.88882 0.58755 0.56034
 C776 C 0.91718 0.57993 0.56572
 N777 N 0.92863 0.58887 0.58605
 N778 N 0.91233 0.60470 0.60055
 N779 N 0.65565 0.85097 0.16779
 C780 C 0.65991 0.84444 0.14542
 N781 N 0.67961 0.82302 0.13969
 N782 N 0.69452 0.80850 0.15589
 C783 C 0.69022 0.81497 0.17834
 N784 N 0.67052 0.83648 0.18397
 C785 C 0.64346 0.85991 0.12814
 C786 C 0.62933 0.87323 0.11399
 C787 C 0.61240 0.88942 0.09740
 N788 N 0.62233 0.91580 0.08957
 N789 N 0.60659 0.93095 0.07425
 C790 C 0.58035 0.92027 0.06630
 N791 N 0.57040 0.89388 0.07421
 N792 N 0.58615 0.87872 0.08954
 N793 N 1.18275 0.32174 0.63886
 C794 C 1.16314 0.34354 0.64380
 N795 N 1.15815 0.35072 0.66599
 N796 N 1.17224 0.33651 0.68274
 C797 C 1.19183 0.31461 0.67788
 N798 N 1.19686 0.30752 0.65562
 C799 C 1.14721 0.35841 0.62589
 C800 C 1.13310 0.37121 0.61141
 C801 C 1.11536 0.38699 0.59505
 N802 N 1.12696 0.39590 0.57473
 N803 N 1.11067 0.41186 0.56020
 C804 C 1.08226 0.41938 0.56554
 N805 N 1.07071 0.41024 0.58581
 N806 N 1.08696 0.39431 0.60030
 N807 N 0.68019 1.17704 -0.13942
 C808 C 0.66059 1.15549 -0.14508
 N809 N 0.65634 1.14883 -0.16743
 N810 N 0.67114 1.16334 -0.18366
 C811 C 0.69073 1.18498 -0.17810
 N812 N 0.69502 1.19157 -0.15567
 C813 C 0.64418 1.14004 -0.12777
 C814 C 0.63005 1.12673 -0.11361
 C815 C 0.61306 1.11056 -0.09703
 N816 N 0.62298 1.08422 -0.08915
 N817 N 0.60715 1.06906 -0.07386
 C818 C 0.58085 1.07970 -0.06602
 N819 N 0.57092 1.10606 -0.07399
 N820 N 0.58676 1.12122 -0.08928
 N821 N 1.18298 0.67817 0.36116
 C822 C 1.16331 0.65640 0.35628
 N823 N 1.15822 0.64920 0.33411
 N824 N 1.17229 0.66338 0.31731
 C825 C 1.19195 0.68525 0.32211
 N826 N 1.19707 0.69235 0.34435
 C827 C 1.14737 0.64162 0.37423
 C828 C 1.13324 0.62891 0.38875
 C829 C 1.11547 0.61322 0.40516
 N830 N 1.12704 0.60435 0.42547
 N831 N 1.11071 0.58843 0.44003
 C832 C 1.08230 0.58092 0.43470
 N833 N 1.07078 0.59003 0.41444
 N834 N 1.08706 0.60592 0.39993
 N835 N 0.34344 0.85209 -0.16817
 C836 C 0.33933 0.84548 -0.14578
 N837 N 0.31974 0.82394 -0.13999
 N838 N 0.30480 0.80939 -0.15614
 C839 C 0.30895 0.81594 -0.17861
 N840 N 0.32853 0.83757 -0.18430
 C841 C 0.35585 0.86095 -0.12855
 C842 C 0.37005 0.87425 -0.11443
 C843 C 0.38709 0.89037 -0.09787
 N844 N 0.37718 0.91666 -0.08990
 N845 N 0.39301 0.93172 -0.07458
 C846 C 0.41931 0.92103 -0.06678
 N847 N 0.42924 0.89473 -0.07483
 N848 N 0.41340 0.87967 -0.09015
 N849 N 0.84246 0.35056 0.33362
 C850 C 0.83746 0.34343 0.35583
 N851 N 0.81789 0.32159 0.36083
 N852 N 0.80382 0.30729 0.34411
 C853 C 0.80884 0.31433 0.32182
 N854 N 0.82841 0.33627 0.31690
 C855 C 0.85333 0.35842 0.37371
 C856 C 0.86736 0.37129 0.38819
 C857 C 0.88499 0.38715 0.40457
 N858 N 0.87333 0.39585 0.42491
 N859 N 0.88953 0.41182 0.43948
 C860 C 0.91790 0.41956 0.43417
 N861 N 0.92950 0.41064 0.41388
 N862 N 0.91335 0.39469 0.39935
 N863 N 1.15182 0.35323 0.17186
 C864 C 1.15674 0.34832 0.14930
 N865 N 1.17707 0.32777 0.14302
 N866 N 1.19197 0.31255 0.15882
 C867 C 1.18705 0.31737 0.18145
 N868 N 1.16671 0.33802 0.18767
 C869 C 1.14039 0.36446 0.13226
 C870 C 1.12661 0.37790 0.11793
 C871 C 1.11022 0.39377 0.10076
 N872 N 1.12080 0.41958 0.09228
 N873 N 1.10586 0.43405 0.07609
 C874 C 1.07983 0.42320 0.06784
 N875 N 1.06925 0.39739 0.07641
 N876 N 1.08419 0.38292 0.09261
 N877 N 0.65171 0.85344 0.67239
 C878 C 0.65626 0.84821 0.64982
 N879 N 0.67655 0.82765 0.64350
 N880 N 0.69177 0.81270 0.65926
 C881 C 0.68721 0.81784 0.68189
 N882 N 0.66692 0.83850 0.68815
 C883 C 0.63959 0.86403 0.63287
 C884 C 0.62555 0.87726 0.61861
 C885 C 0.60897 0.89298 0.60154
 N886 N 0.61934 0.91885 0.59304
 N887 N 0.60425 0.93320 0.57689
 C888 C 0.57828 0.92217 0.56871
 N889 N 0.56788 0.89630 0.57729
 N890 N 0.58298 0.88194 0.59345
 N891 N 1.15169 0.64952 -0.17301
 C892 C 1.15678 0.65433 -0.15045
 N893 N 1.17737 0.67470 -0.14427
 N894 N 1.19232 0.68983 -0.16013
 C895 C 1.18725 0.68518 -0.18280
 N896 N 1.16663 0.66464 -0.18888
 C897 C 1.14037 0.63822 -0.13332
 C898 C 1.12656 0.62476 -0.11894
 C899 C 1.11015 0.60877 -0.10173
 N900 N 1.12064 0.58285 -0.09340
 N901 N 1.10568 0.56824 -0.07726
 C902 C 1.07969 0.57902 -0.06888
 N903 N 1.06919 0.60495 -0.07729
 N904 N 1.08415 0.61956 -0.09344
 N905 N 0.65209 1.14613 0.32798
 C906 C 0.65685 1.15121 0.35054
 N907 N 0.67739 1.17159 0.35679
 N908 N 0.69261 1.18649 0.34097
 C909 C 0.68785 1.18151 0.31835
 N910 N 0.66731 1.16103 0.31216
 C911 C 0.64014 1.13539 0.36759
 C912 C 0.62608 1.12214 0.38191
 C913 C 0.60946 1.10638 0.39904
 N914 N 0.61971 1.08041 0.40744
 N915 N 0.60457 1.06599 0.42357
 C916 C 0.57865 1.07703 0.43183
 N917 N 0.56837 1.10300 0.42336
 N918 N 0.58352 1.11742 0.40722
 N919 N 0.82391 0.67332 0.14307
 C920 C 0.84459 0.65311 0.14935
 N921 N 0.84955 0.64823 0.17193
 N922 N 0.83438 0.66315 0.18772
 C923 C 0.81369 0.68346 0.18150
 N924 N 0.80873 0.68825 0.15887
 C925 C 0.86118 0.63721 0.13232
 C926 C 0.87511 0.62389 0.11800
 C927 C 0.89156 0.60805 0.10086
 N928 N 0.91746 0.61903 0.09251
 N929 N 0.93243 0.60454 0.07635
 C930 C 0.92201 0.57858 0.06800
 N931 N 0.89611 0.56760 0.07643
 N932 N 0.88115 0.58208 0.09258
 N933 N 0.34831 1.14651 0.67244
 C934 C 0.34355 1.15156 0.64987
 N935 N 0.32310 1.17196 0.64354
 N936 N 0.30792 1.18693 0.65930
 C937 C 0.31268 1.18198 0.68194
 N938 N 0.33314 1.16148 0.68820
 C939 C 0.36016 1.13569 0.63290
 C940 C 0.37411 1.12239 0.61862
 C941 C 0.39055 1.10659 0.60152
 N942 N 0.38013 1.08065 0.59324
 N943 N 0.39508 1.06621 0.57706
 C944 C 0.42096 1.07722 0.56865
 N945 N 0.43141 1.10316 0.57701
 N946 N 0.41645 1.11760 0.59320
 N947 N 0.82359 0.32761 -0.14332
 C948 C 0.84418 0.34792 -0.14964
 N949 N 0.84919 0.35269 -0.17223
 N950 N 0.83415 0.33758 -0.18799
 C951 C 0.81355 0.31717 -0.18173
 N952 N 0.80854 0.31249 -0.15908
 C953 C 0.86067 0.36399 -0.13263
 C954 C 0.87454 0.37739 -0.11832
 C955 C 0.89097 0.39327 -0.10117
 N956 N 0.91697 0.38240 -0.09296
 N957 N 0.93195 0.39689 -0.07680
 C958 C 0.92143 0.42274 -0.06831
 N959 N 0.89544 0.43360 -0.07660
 N960 N 0.88047 0.41911 -0.09276
 N961 N 0.34823 0.85349 0.32775
 C962 C 0.34340 0.84836 0.35031
 N963 N 0.32294 0.82790 0.35657
 N964 N 0.30783 0.81295 0.34076
 C965 C 0.31266 0.81798 0.31814
 N966 N 0.33313 0.83855 0.31194
 C967 C 0.35995 0.86419 0.36735
 C968 C 0.37384 0.87739 0.38172
 C969 C 0.39023 0.89304 0.39894
 N970 N 0.41607 0.88193 0.40725
 N971 N 0.43098 0.89620 0.42355
 C972 C 0.42053 0.92205 0.43207
 N973 N 0.39471 0.93316 0.42367
 N974 N 0.37981 0.91889 0.40738
 N975 N 1.14917 1.15264 0.33173
 C976 C 1.15610 1.15659 0.35406
 N977 N 1.17789 1.17590 0.35979
 N978 N 1.19239 1.19081 0.34359
 C979 C 1.18551 1.18684 0.32118
 N980 N 1.16364 1.16751 0.31555
 C981 C 1.14058 1.14036 0.37131
 C982 C 1.12720 1.12647 0.38550
 C983 C 1.11097 1.10991 0.40217
 N984 N 1.12174 1.08391 0.41009
 N985 N 1.10656 1.06850 0.42561
 C986 C 1.08013 1.07860 0.43361
 N987 N 1.06938 1.10458 0.42559
 N988 N 1.08455 1.11998 0.41008
 N989 N 0.64923 0.65747 -0.16421
 C990 C 0.65685 0.66282 -0.14215
 N991 N 0.67922 0.68197 -0.13762
 N992 N 0.69355 0.69536 -0.15467
 C993 C 0.68599 0.69004 -0.17679
 N994 N 0.66355 0.67086 -0.18126
 C995 C 0.64151 0.64813 -0.12394
 C996 C 0.62805 0.63516 -0.10923
 C997 C 0.61114 0.61881 -0.09278
 N998 N 0.62377 0.60888 -0.07314
 N999 N 0.60837 0.59175 -0.05883
 C1000 C 0.57991 0.58403 -0.06378
 N1001 N 0.56733 0.59424 -0.08333
 N1002 N 0.58267 0.61135 -0.09759
 N1003 N 0.85091 1.15179 0.66884
 C1004 C 0.84422 1.15580 0.64646
 N1005 N 0.82253 1.17515 0.64061
 N1006 N 0.80790 1.19003 0.65673
 C1007 C 0.81454 1.18601 0.67918
 N1008 N 0.83631 1.16664 0.68493
 C1009 C 0.85994 1.13964 0.62928
 C1010 C 0.87345 1.12584 0.61512
 C1011 C 0.88978 1.10937 0.59847
 N1012 N 0.87909 1.08338 0.59050
 N1013 N 0.89432 1.06809 0.57498
 C1014 C 0.92075 1.07829 0.56701
 N1015 N 0.93144 1.10427 0.57508
 N1016 N 0.91621 1.11956 0.59059
 N1017 N 0.35056 0.65658 0.16490
 C1018 C 0.34307 0.66184 0.14280
 N1019 N 0.32086 0.68110 0.13812
 N1020 N 0.30655 0.69468 0.15506
 C1021 C 0.31397 0.68945 0.17723
 N1022 N 0.33625 0.67015 0.18185
 C1023 C 0.35843 0.64700 0.12467
 C1024 C 0.37187 0.63397 0.11000
 C1025 C 0.38875 0.61764 0.09352
 N1026 N 0.37619 0.60815 0.07373
 N1027 N 0.39158 0.59123 0.05930
 C1028 C 0.41997 0.58328 0.06426
 N1029 N 0.43247 0.59303 0.08398
 N1030 N 0.41714 0.60993 0.09835
 N1031 N 1.14888 0.84722 0.67001
 C1032 C 1.15543 0.84297 0.64764
 N1033 N 1.17713 0.82360 0.64188
 N1034 N 1.19191 0.80895 0.65805
 C1035 C 1.18548 0.81318 0.68056
 N1036 N 1.16362 0.83260 0.68617
 C1037 C 1.13964 0.85898 0.63038
 C1038 C 1.12615 0.87271 0.61613
 C1039 C 1.10995 0.88918 0.59935
 N1040 N 1.12066 0.91525 0.59148
 N1041 N 1.10560 0.93054 0.57583
 C1042 C 1.07934 0.92027 0.56763
 N1043 N 1.06863 0.89421 0.57559
 N1044 N 1.08369 0.87892 0.59123
 N1045 N 0.64965 0.34352 0.16527
 C1046 C 0.65701 0.33837 0.14312
 N1047 N 0.67914 0.31907 0.13833
 N1048 N 0.69350 0.30535 0.15519
 C1049 C 0.68621 0.31046 0.17741
 N1050 N 0.66401 0.32980 0.18214
 C1051 C 0.64158 0.35337 0.12507
 C1052 C 0.62811 0.36648 0.11044
 C1053 C 0.61122 0.38287 0.09396
 N1054 N 0.62375 0.39235 0.07413
 N1055 N 0.60832 0.40920 0.05965
 C1056 C 0.57991 0.41708 0.06460
 N1057 N 0.56743 0.40736 0.08437
 N1058 N 0.58281 0.39053 0.09879
 N1059 N 0.85119 0.84750 0.33127
 C1060 C 0.84469 0.84324 0.35366
 N1061 N 0.82294 0.82391 0.35950
 N1062 N 0.80810 0.80926 0.34338
 C1063 C 0.81457 0.81352 0.32091
 N1064 N 0.83638 0.83288 0.31517
 C1065 C 0.86058 0.85921 0.37084
 C1066 C 0.87419 0.87292 0.38499
 C1067 C 0.89055 0.88938 0.40162
 N1068 N 0.91686 0.87911 0.40963
 N1069 N 0.93208 0.89442 0.42513
 C1070 C 0.92150 0.92052 0.43305
 N1071 N 0.89520 0.93080 0.42495
 N1072 N 0.87997 0.91548 0.40944
 N1073 N 0.35062 0.34380 -0.16519
 C1074 C 0.34315 0.33856 -0.14307
 N1075 N 0.32095 0.31928 -0.13834
 N1076 N 0.30663 0.30566 -0.15525
 C1077 C 0.31403 0.31086 -0.17743
 N1078 N 0.33631 0.33017 -0.18210
 C1079 C 0.35851 0.35346 -0.12498
 C1080 C 0.37194 0.36651 -0.11032
 C1081 C 0.38879 0.38287 -0.09385
 N1082 N 0.37617 0.39245 -0.07411
 N1083 N 0.39154 0.40940 -0.05969
 C1084 C 0.41997 0.41728 -0.06462
 N1085 N 0.43254 0.40744 -0.08429
 N1086 N 0.41722 0.39051 -0.09865
 N1087 N 1.14731 0.34877 -0.17223
 C1088 C 1.15278 0.34453 -0.14966
 N1089 N 1.17357 0.32450 -0.14326
 N1090 N 1.18852 0.30924 -0.15898
 C1091 C 1.18315 0.31347 -0.18162
 N1092 N 1.16226 0.33351 -0.18794
 C1093 C 1.13691 0.36122 -0.13276
 C1094 C 1.12361 0.37524 -0.11854
 C1095 C 1.10780 0.39178 -0.10153
 N1096 N 1.08168 0.38157 -0.09305
 N1097 N 1.06723 0.39660 -0.07693
 C1098 C 1.07841 0.42235 -0.06878
 N1099 N 1.10453 0.43259 -0.07735
 N1100 N 1.11898 0.41754 -0.09347
 N1101 N 0.64628 0.84805 0.32799
 C1102 C 0.65204 0.84397 0.35054
 N1103 N 0.67334 0.82438 0.35680
 N1104 N 0.68846 0.80941 0.34099
 C1105 C 0.68278 0.81349 0.31838
 N1106 N 0.66139 0.83308 0.31218
 C1107 C 0.63599 0.86038 0.36757
 C1108 C 0.62260 0.87419 0.38191
 C1109 C 0.60673 0.89055 0.39908
 N1110 N 0.58067 0.88019 0.40759
 N1111 N 0.56619 0.89508 0.42379
 C1112 C 0.57728 0.92084 0.43202
 N1113 N 0.60334 0.93121 0.42343
 N1114 N 0.61781 0.91631 0.40723
 N1115 N 0.85264 0.65130 -0.17212
 C1116 C 0.84736 0.65574 -0.14955
 N1117 N 0.82671 0.67590 -0.14318
 N1118 N 0.81169 0.69110 -0.15891
 C1119 C 0.81688 0.68666 -0.18154
 N1120 N 0.83764 0.66649 -0.18785
 C1121 C 0.86331 0.63916 -0.13264
 C1122 C 0.87670 0.62524 -0.11841
 C1123 C 0.89264 0.60885 -0.10138
 N1124 N 0.88150 0.58318 -0.09307
 N1125 N 0.89608 0.56827 -0.07692
 C1126 C 0.92227 0.57857 -0.06859
 N1127 N 0.93341 0.60423 -0.07700
 N1128 N 0.91883 0.61912 -0.09313
 N1129 N 0.35250 1.15066 0.32783
 C1130 C 0.34681 1.15479 0.35038
 N1131 N 0.32584 1.17470 0.35666
 N1132 N 0.31096 1.18994 0.34086
 C1133 C 0.31656 1.18582 0.31824
 N1134 N 0.33763 1.16589 0.31203
 C1135 C 0.36265 1.13815 0.36740
 C1136 C 0.37592 1.12422 0.38173
 C1137 C 0.39175 1.10782 0.39890
 N1138 N 0.38052 1.08219 0.40724
 N1139 N 0.39498 1.06729 0.42347
 C1140 C 0.42117 1.07753 0.43187
 N1141 N 0.43240 1.10315 0.42344
 N1142 N 0.41794 1.11803 0.40723
 N1143 N 1.17364 0.67584 0.14312
 C1144 C 1.15288 0.65570 0.14943
 N1145 N 1.14739 0.65129 0.17198
 N1146 N 1.16229 0.66648 0.18777
 C1147 C 1.18316 0.68663 0.18153
 N1148 N 1.18855 0.69103 0.15891
 C1149 C 1.13705 0.63912 0.13243
 C1150 C 1.12380 0.62523 0.11810
 C1151 C 1.10804 0.60891 0.10091
 N1152 N 1.08194 0.61918 0.09250
 N1153 N 1.06756 0.60437 0.07622
 C1154 C 1.07880 0.57879 0.06783
 N1155 N 1.10491 0.56848 0.07632
 N1156 N 1.11929 0.58331 0.09261
 N1157 N 0.67385 1.17457 0.64348
 C1158 C 0.65266 1.15487 0.64979
 N1159 N 0.64688 1.15086 0.67235
 N1160 N 0.66188 1.16601 0.68812
 C1161 C 0.68317 1.18572 0.68187
 N1162 N 0.68886 1.18973 0.65924
 C1163 C 0.63668 1.13831 0.63278
 C1164 C 0.62332 1.12444 0.61846
 C1165 C 0.60743 1.10808 0.60130
 N1166 N 0.58134 1.11841 0.59287
 N1167 N 0.56684 1.10354 0.57668
 C1168 C 0.57791 1.07783 0.56837
 N1169 N 0.60400 1.06748 0.57687
 N1170 N 0.61851 1.08236 0.59307
 N1171 N 0.82674 0.32412 0.14280
 C1172 C 0.84759 0.34416 0.14909
 N1173 N 0.85308 0.34844 0.17166
 N1174 N 0.83813 0.33322 0.18744
 C1175 C 0.81719 0.31316 0.18121
 N1176 N 0.81178 0.30889 0.15858
 C1177 C 0.86352 0.36082 0.13209
 C1178 C 0.87688 0.37481 0.11782
 C1179 C 0.89281 0.39135 0.10076
 N1180 N 0.91898 0.38118 0.09237
 N1181 N 0.93355 0.39625 0.07628
 C1182 C 0.92245 0.42201 0.06806
 N1183 N 0.89628 0.43220 0.07652
 N1184 N 0.88171 0.41713 0.09262
 N1185 N 0.35084 0.84831 0.67293
 C1186 C 0.34509 0.84417 0.65039
 N1187 N 0.32382 0.82451 0.64422
 N1188 N 0.30871 0.80953 0.66008
 C1189 C 0.31430 0.81365 0.68274
 N1190 N 0.33575 0.83335 0.68880
 C1191 C 0.36120 0.86058 0.63327
 C1192 C 0.37468 0.87437 0.61889
 C1193 C 0.39072 0.89070 0.60169
 N1194 N 0.37978 0.91649 0.59343
 N1195 N 0.39444 0.93138 0.57727
 C1196 C 0.42056 0.92101 0.56883
 N1197 N 0.43150 0.89523 0.57717
 N1198 N 0.41684 0.88034 0.59332
 N1199 N 0.34885 1.15358 -0.16769
 C1200 C 0.34348 1.15912 -0.14530
 N1201 N 0.32303 1.17983 -0.13957
 N1202 N 0.30833 1.19451 -0.15579
 C1203 C 0.31365 1.18894 -0.17826
 N1204 N 0.33418 1.16823 -0.18389
 C1205 C 0.35922 1.14301 -0.12800
 C1206 C 0.37273 1.12909 -0.11384
 C1207 C 0.38907 1.11231 -0.09728
 N1208 N 0.37844 1.08609 -0.08962
 N1209 N 0.39373 1.07041 -0.07433
 C1210 C 0.42017 1.08042 -0.06627
 N1211 N 0.43079 1.10664 -0.07400
 N1212 N 0.41551 1.12230 -0.08929
 N1213 N 0.84880 0.65600 0.33425
 C1214 C 0.84274 0.66238 0.35644
 N1215 N 0.82219 0.68334 0.36127
 N1216 N 0.80809 0.69741 0.34442
 C1217 C 0.81408 0.69103 0.32217
 N1218 N 0.83472 0.67006 0.31741
 C1219 C 0.85793 0.64697 0.37449
 C1220 C 0.87125 0.63351 0.38907
 C1221 C 0.88803 0.61678 0.40550
 N1222 N 0.87550 0.60732 0.42535
 N1223 N 0.89089 0.59040 0.43983
 C1224 C 0.91928 0.58241 0.43488
 N1225 N 0.93174 0.59209 0.41509
 N1226 N 0.91641 0.60898 0.40067
 N1227 N 0.67728 1.17900 0.13980
 C1228 C 0.65690 1.15820 0.14561
 N1229 N 0.65162 1.15268 0.16803
 N1230 N 0.66628 1.16741 0.18417
 C1231 C 0.68673 1.18822 0.17846
 N1232 N 0.69197 1.19377 0.15596
 C1233 C 0.64113 1.14203 0.12837
 C1234 C 0.62757 1.12811 0.11425
 C1235 C 0.61115 1.11138 0.09770
 N1236 N 0.58463 1.12135 0.08985
 N1237 N 0.56929 1.10577 0.07456
 C1238 C 0.57991 1.07966 0.06668
 N1239 N 0.60642 1.06967 0.07462
 N1240 N 0.62177 1.08526 0.08991
 N1241 N 1.17677 0.68395 0.63885
 C1242 C 1.15638 0.66281 0.64374
 N1243 N 1.15043 0.65637 0.66595
 N1244 N 1.16446 0.67055 0.68275
 C1245 C 1.18493 0.69170 0.67792
 N1246 N 1.19081 0.69813 0.65565
 C1247 C 1.14127 0.64726 0.62573
 C1248 C 1.12803 0.63369 0.61117
 C1249 C 1.11135 0.61683 0.59476
 N1250 N 1.08304 0.60875 0.59962
 N1251 N 1.06782 0.59179 0.58520
 C1252 C 1.08031 0.58232 0.56537
 N1253 N 1.10863 0.59059 0.56041
 N1254 N 1.12392 0.60758 0.57489
 N1255 N 0.67786 0.82123 -0.13961
 C1256 C 0.65750 0.84202 -0.14537
 N1257 N 0.65209 0.84748 -0.16777
 N1258 N 0.66662 0.83268 -0.18394
 C1259 C 0.68705 0.81187 -0.17829
 N1260 N 0.69242 0.80639 -0.15581
 C1261 C 0.64180 0.85820 -0.12809
 C1262 C 0.62825 0.87211 -0.11395
 C1263 C 0.61179 0.88880 -0.09740
 N1264 N 0.62242 0.91489 -0.08954
 N1265 N 0.60700 0.93045 -0.07426
 C1266 C 0.58041 0.92045 -0.06642
 N1267 N 0.56980 0.89436 -0.07436
 N1268 N 0.58522 0.87881 -0.08963
 N1269 N 1.15202 0.34490 0.33415
 C1270 C 1.15798 0.33846 0.35635
 N1271 N 1.17840 0.31737 0.36121
 N1272 N 1.19246 0.30323 0.34439
 C1273 C 1.18656 0.30967 0.32212
 N1274 N 1.16607 0.33078 0.31733
 C1275 C 1.14276 0.35389 0.37438
 C1276 C 1.12940 0.36733 0.38894
 C1277 C 1.11253 0.38403 0.40535
 N1278 N 1.12492 0.39330 0.42528
 N1279 N 1.10945 0.41012 0.43976
 C1280 C 1.08110 0.41821 0.43474
 N1281 N 1.06878 0.40872 0.41486
 N1282 N 1.08420 0.39193 0.40044
 N1283 N 0.34861 0.84680 0.16766
 C1284 C 0.34320 0.84126 0.14528
 N1285 N 0.32276 0.82052 0.13957
 N1286 N 0.30812 0.80579 0.15582
 C1287 C 0.31348 0.81134 0.17828
 N1288 N 0.33400 0.83210 0.18388
 C1289 C 0.35889 0.85739 0.12796
 C1290 C 0.37239 0.87129 0.11378
 C1291 C 0.38873 0.88802 0.09718
 N1292 N 0.37808 0.91416 0.08943
 N1293 N 0.39339 0.92978 0.07410
 C1294 C 0.41986 0.91978 0.06608
 N1295 N 0.43049 0.89364 0.07391
 N1296 N 0.41519 0.87803 0.08924
 N1297 N 0.84876 0.34368 0.66537
 C1298 C 0.84272 0.33711 0.64322
 N1299 N 0.82220 0.31607 0.63848
 N1300 N 0.80810 0.30209 0.65539
 C1301 C 0.81407 0.30866 0.67761
 N1302 N 0.83467 0.32971 0.68228
 C1303 C 0.85790 0.35241 0.62511
 C1304 C 0.87124 0.36581 0.61049
 C1305 C 0.88806 0.38252 0.59406
 N1306 N 0.87554 0.39202 0.57424
 N1307 N 0.89094 0.40901 0.55979
 C1308 C 0.91932 0.41704 0.56476
 N1309 N 0.93177 0.40731 0.58453
 N1310 N 0.91643 0.39035 0.59891
 N1311 N 1.17886 1.17533 0.64046
 C1312 C 1.15844 1.15463 0.64633
 N1313 N 1.15321 1.14906 0.66874
 N1314 N 1.16789 1.16380 0.68485
 C1315 C 1.18832 1.18459 0.67908
 N1316 N 1.19358 1.19009 0.65659
 C1317 C 1.14231 1.13889 0.62915
 C1318 C 1.12841 1.12541 0.61504
 C1319 C 1.11170 1.10916 0.59848
 N1320 N 1.08544 1.11972 0.59060
 N1321 N 1.06988 1.10455 0.57520
 C1322 C 1.08008 1.07831 0.56727
 N1323 N 1.10634 1.06775 0.57525
 N1324 N 1.12189 1.08292 0.59064
 N1325 N 0.68165 0.67784 0.13881
 C1326 C 0.66106 0.65694 0.14373
 N1327 N 0.65507 0.65045 0.16591
 N1328 N 0.66921 0.66449 0.18271
 C1329 C 0.68981 0.68549 0.17786
 N1330 N 0.69580 0.69187 0.15561
 C1331 C 0.64529 0.64223 0.12576
 C1332 C 0.63137 0.62956 0.11117
 C1333 C 0.61389 0.61388 0.09469
 N1334 N 0.58541 0.60662 0.09971
 N1335 N 0.56942 0.59055 0.08518
 C1336 C 0.58134 0.58124 0.06512
 N1337 N 0.60981 0.58874 0.05998
 N1338 N 0.62585 0.60483 0.07456
 N1339 N 1.15354 0.85080 0.33167
 C1340 C 1.15890 0.84520 0.35405
 N1341 N 1.17930 0.82447 0.35982
 N1342 N 1.19389 0.80971 0.34361
 C1343 C 1.18851 0.81525 0.32115
 N1344 N 1.16810 0.83606 0.31549
 C1345 C 1.14287 0.86090 0.37132
 C1346 C 1.12904 0.87430 0.38553
 C1347 C 1.11236 0.89039 0.40220
 N1348 N 1.08604 0.87979 0.40999
 N1349 N 1.07050 0.89480 0.42549
 C1350 C 1.08076 0.92091 0.43363
 N1351 N 1.10708 0.93152 0.42576
 N1352 N 1.12262 0.91651 0.41025
 N1353 N 0.65497 0.34944 -0.16602
 C1354 C 0.66101 0.34308 -0.14383
 N1355 N 0.68167 0.32229 -0.13889
 N1356 N 0.69583 0.30824 -0.15568
 C1357 C 0.68979 0.31450 -0.17794
 N1358 N 0.66912 0.33539 -0.18281
 C1359 C 0.64523 0.35783 -0.12587
 C1360 C 0.63132 0.37052 -0.11127
 C1361 C 0.61384 0.38622 -0.09479
 N1362 N 0.62576 0.39516 -0.07463
 N1363 N 0.60972 0.41125 -0.06004
 C1364 C 0.58130 0.41885 -0.06520
 N1365 N 0.56944 0.40966 -0.08531
 N1366 N 0.58542 0.39359 -0.09985
 N1367 N 0.84794 1.14900 0.33131
 C1368 C 0.84275 1.15457 0.35372
 N1369 N 0.82226 1.17518 0.35956
 N1370 N 0.80744 1.18984 0.34342
 C1371 C 0.81264 1.18433 0.32093
 N1372 N 0.83314 1.16364 0.31519
 C1373 C 0.85897 1.13890 0.37094
 C1374 C 0.87288 1.12547 0.38512
 C1375 C 0.88954 1.10926 0.40178
 N1376 N 0.87934 1.08301 0.40966
 N1377 N 0.89482 1.06790 0.42516
 C1378 C 0.92102 1.07853 0.43321
 N1379 N 0.93124 1.10478 0.42524
 N1380 N 0.91575 1.11989 0.40974
 N1381 N 0.34471 0.65128 -0.16634
 C1382 C 0.33879 0.65758 -0.14412
 N1383 N 0.31818 0.67839 -0.13912
 N1384 N 0.30396 0.69252 -0.15585
 C1385 C 0.30987 0.68631 -0.17814
 N1386 N 0.33049 0.66540 -0.18307
 C1387 C 0.35462 0.64271 -0.12620
 C1388 C 0.36855 0.62994 -0.11163
 C1389 C 0.38601 0.61417 -0.09514
 N1390 N 0.37407 0.60518 -0.07497
 N1391 N 0.39010 0.58911 -0.06035
 C1392 C 0.41856 0.58157 -0.06548
 N1393 N 0.43045 0.59081 -0.08560
 N1394 N 0.41446 0.60685 -0.10017
 N1395 N 0.84651 0.85005 0.66787
 C1396 C 0.84112 0.84438 0.64552
 N1397 N 0.82063 0.82371 0.63982
 N1398 N 0.80597 0.80905 0.65608
 C1399 C 0.81138 0.81466 0.67851
 N1400 N 0.83188 0.83542 0.68410
 C1401 C 0.85722 0.85998 0.62823
 C1402 C 0.87116 0.87338 0.61407
 C1403 C 0.88797 0.88956 0.59753
 N1404 N 0.87786 0.91579 0.58959
 N1405 N 0.89359 0.93097 0.57427
 C1406 C 0.91996 0.92042 0.56649
 N1407 N 0.93007 0.89418 0.57452
 N1408 N 0.91433 0.87901 0.58984
 N1409 N 0.34520 0.34865 0.16519
 C1410 C 0.33898 0.34219 0.14305
 N1411 N 0.31822 0.32142 0.13830
 N1412 N 0.30414 0.30748 0.15520
 C1413 C 0.31036 0.31384 0.17741
 N1414 N 0.33113 0.33471 0.18210
 C1415 C 0.35465 0.35683 0.12498
 C1416 C 0.36851 0.36948 0.11032
 C1417 C 0.38597 0.38520 0.09384
 N1418 N 0.37394 0.39457 0.07382
 N1419 N 0.38995 0.41083 0.05931
 C1420 C 0.41847 0.41818 0.06440
 N1421 N 0.43045 0.40854 0.08435
 N1422 N 0.41449 0.39230 0.09881
   
