data_POSCAR
  _audit_creation_date              2014-09-24
  _audit_creation_method            'ToBaCCo'
  _symmetry_space_group_name_H-M    'P1'
  _symmetry_Int_Tables_number       1
  _symmetry_cell_setting            triclinic
  loop_
  _symmetry_equiv_pos_as_xyz
 x,y,z
_cell_length_a 35.5619
_cell_length_b 35.9480
_cell_length_c 39.2387
_cell_angle_alpha 90.068300
_cell_angle_beta 89.891400
_cell_angle_gamma 89.134800
loop_
  _atom_site_label
  _atom_site_type_symbol
  _atom_site_fract_x
  _atom_site_fract_y
  _atom_site_fract_z
C1 C 0.47274 -0.00772 0.29491
 H2 H 0.48990 -0.01217 0.27244
 C3 C 0.48939 -0.00965 0.32770
 H4 H 0.51936 -0.01459 0.33018
 C5 C 0.41286 0.00389 0.31931
 H6 H 0.38290 0.00828 0.31619
 C7 C 0.42794 0.00196 0.35182
 H8 H 0.40879 0.00548 0.37307
 N9 N 0.43496 -0.00088 0.29144
 C10 C 0.45681 0.02748 0.20029
 H11 H 0.45529 0.05213 0.21611
 C12 C 0.47458 0.02916 0.16818
 H13 H 0.48618 0.05516 0.15947
 C14 C 0.44004 -0.03512 0.19092
 H15 H 0.42580 -0.05985 0.19930
 C16 C 0.45744 -0.03468 0.15892
 H17 H 0.45608 -0.05929 0.14304
 Zn18 Zn 0.40604 -0.00170 0.24976
 N19 N 0.43881 -0.00394 0.21050
 C20 C 0.38178 0.07247 0.26810
 N21 N 0.37638 0.04483 0.24491
 C22 C 0.35298 0.05110 0.21776
 C23 C 0.33312 0.08535 0.21408
 C24 C 0.36220 0.10646 0.26571
 C25 C 0.37458 -0.06834 0.28128
 C26 C 0.35170 -0.09996 0.28410
 C27 C 0.32808 -0.08658 0.22799
 C28 C 0.35044 -0.05467 0.22677
 N29 N 0.37358 -0.04594 0.25304
 H30 H 0.40165 0.06857 0.28856
 H31 H 0.34968 0.02963 0.19875
 H32 H 0.31410 0.08933 0.19283
 H33 H 0.36675 0.12737 0.28511
 H34 H 0.39364 -0.06250 0.30184
 H35 H 0.35378 -0.11689 0.30686
 H36 H 0.31080 -0.09241 0.20597
 H37 H 0.34987 -0.03731 0.20429
 C38 C 0.47373 -0.00184 0.14645
 C39 C 0.46676 -0.00444 0.35682
 C40 C 0.32826 -0.11035 0.25696
 C41 C 0.33712 0.11346 0.23869
 C42 C 0.05899 0.03447 0.68996
 H43 H 0.07423 0.05865 0.69828
 C44 C 0.04188 0.03444 0.65790
 H45 H 0.04428 0.05891 0.64200
 C46 C 0.03996 -0.02744 0.69944
 H47 H 0.04055 -0.05203 0.71530
 C48 C 0.02255 -0.02875 0.66719
 H49 H 0.01024 -0.05442 0.65845
 N50 N 0.05887 0.00344 0.70965
 C51 C 0.08743 0.00190 0.81817
 H52 H 0.11748 -0.00019 0.81404
 C53 C 0.07364 0.00625 0.85105
 H54 H 0.09382 0.00676 0.87167
 C55 C 0.02584 0.00533 0.79567
 H56 H 0.00745 0.00578 0.77375
 C57 C 0.01048 0.00912 0.82891
 H58 H -0.01969 0.01115 0.83238
 Zn59 Zn 0.09170 0.00096 0.74865
 N60 N 0.06386 0.00141 0.79107
 C61 C 0.11533 0.07201 0.77469
 N62 N 0.12438 0.04459 0.75172
 C63 C 0.15632 0.04727 0.73274
 C64 C 0.18004 0.07801 0.73638
 C65 C 0.13872 0.10280 0.77967
 C66 C 0.11965 -0.07102 0.76918
 C67 C 0.13950 -0.10483 0.76676
 C68 C 0.16106 -0.08761 0.71091
 C69 C 0.14095 -0.05350 0.71458
 N70 N 0.12119 -0.04542 0.74373
 H71 H 0.08953 0.07049 0.78915
 H72 H 0.16347 0.02569 0.71457
 H73 H 0.20474 0.07978 0.72032
 H74 H 0.13029 0.12441 0.79749
 H75 H 0.10286 -0.06549 0.79160
 H76 H 0.13794 -0.12412 0.78788
 H77 H 0.17711 -0.09306 0.68792
 H78 H 0.14100 -0.03362 0.69392
 C79 C 0.03466 0.00930 0.85729
 C80 C 0.02470 0.00207 0.64537
 C81 C 0.16106 -0.11366 0.73759
 C82 C 0.17154 0.10640 0.76020
 C83 C 0.56604 0.52991 0.18483
 H84 H 0.58282 0.55321 0.19271
 C85 C 0.54956 0.53014 0.15255
 H86 H 0.55395 0.55400 0.13627
 C87 C 0.54177 0.47023 0.19575
 H88 H 0.53973 0.44640 0.21243
 C89 C 0.52509 0.46908 0.16311
 H90 H 0.51071 0.44429 0.15493
 N91 N 0.56316 0.49974 0.20540
 C92 C 0.58527 0.50820 0.31449
 H93 H 0.61505 0.51298 0.31193
 C94 C 0.56838 0.51296 0.34613
 H95 H 0.58590 0.52010 0.36766
 C96 C 0.52668 0.49433 0.28943
 H97 H 0.51049 0.48766 0.26699
 C98 C 0.50846 0.49806 0.32141
 H99 H 0.47868 0.49271 0.32366
 Zn100 Zn 0.59467 0.49817 0.24571
 N101 N 0.56475 0.49856 0.28680
 C102 C 0.60782 0.57456 0.26207
 N103 N 0.62494 0.54301 0.24973
 C104 C 0.66272 0.54236 0.24384
 C105 C 0.68430 0.57432 0.24945
 C106 C 0.62858 0.60674 0.26899
 C107 C 0.64827 0.44366 0.27087
 C108 C 0.67011 0.41080 0.27092
 C109 C 0.65000 0.39833 0.21362
 C110 C 0.62839 0.43161 0.21465
 N111 N 0.62717 0.45339 0.24328
 H112 H 0.57787 0.57468 0.26697
 H113 H 0.67616 0.51717 0.23446
 H114 H 0.71397 0.57370 0.24315
 H115 H 0.61416 0.63167 0.27791
 H116 H 0.64784 0.46104 0.29331
 H117 H 0.68582 0.40382 0.29371
 H118 H 0.64959 0.38122 0.19089
 H119 H 0.61237 0.43970 0.19244
 C120 C 0.52973 0.50704 0.35037
 C121 C 0.53016 0.49883 0.14047
 C122 C 0.67094 0.38705 0.24225
 C123 C 0.66738 0.60702 0.26254
 C124 C 0.93800 0.53738 0.80789
 H125 H 0.91893 0.55972 0.80086
 C126 C 0.95517 0.53805 0.83975
 H127 H 0.94889 0.56150 0.85628
 C128 C 0.96746 0.47959 0.79531
 H129 H 0.97087 0.45606 0.77830
 C130 C 0.98622 0.47955 0.82705
 H131 H 1.00377 0.45588 0.83402
 N132 N 0.94284 0.50769 0.78692
 C133 C 0.91030 0.49979 0.67913
 H134 H 0.88056 0.49666 0.68403
 C135 C 0.92306 0.50212 0.64572
 H136 H 0.90248 0.50002 0.62553
 C137 C 0.97193 0.50805 0.69999
 H138 H 0.99074 0.51114 0.72140
 C139 C 0.98619 0.51042 0.66627
 H140 H 1.01598 0.51419 0.66205
 Zn141 Zn 0.90838 0.50392 0.74925
 N142 N 0.93443 0.50257 0.70571
 C143 C 0.87965 0.57335 0.72149
 N144 N 0.87475 0.54799 0.74705
 C145 C 0.84737 0.55401 0.77086
 C146 C 0.82448 0.58625 0.76978
 C147 C 0.85692 0.60566 0.71915
 C148 C 0.88142 0.43094 0.73271
 C149 C 0.86144 0.39796 0.73672
 C150 C 0.83993 0.41913 0.79165
 C151 C 0.86028 0.45225 0.78643
 N152 N 0.87985 0.45812 0.75685
 H153 H 0.90201 0.56937 0.70315
 H154 H 0.84371 0.53429 0.79127
 H155 H 0.80366 0.59059 0.78962
 H156 H 0.86226 0.62562 0.69912
 H157 H 0.89819 0.43460 0.71006
 H158 H 0.86283 0.37745 0.71650
 H159 H 0.82375 0.41563 0.81479
 H160 H 0.86036 0.47321 0.80620
 C161 C 0.96149 0.50713 0.63846
 C162 C 0.97835 0.50807 0.85073
 C163 C 0.83966 0.39165 0.76617
 C164 C 0.82910 0.61287 0.74376
 C165 C 0.20481 0.39285 0.96211
 H166 H 0.22609 0.39308 0.94244
 C167 C 0.17094 0.41344 0.95727
 H168 H 0.16731 0.43030 0.93463
 C169 C 0.18322 0.37043 1.01504
 H170 H 0.18701 0.35292 1.03713
 C171 C 0.14942 0.39041 1.01130
 H172 H 0.12851 0.38847 1.03130
 N173 N 0.21085 0.37245 0.99113
 C174 C 0.32770 0.36584 1.02467
 H175 H 0.32295 0.34478 1.04369
 C176 C 0.36045 0.38728 1.02718
 H177 H 0.37976 0.38244 1.04806
 C178 C 0.30987 0.39625 0.97382
 H179 H 0.29047 0.39986 0.95291
 C180 C 0.34251 0.41780 0.97507
 H181 H 0.34735 0.43762 0.95483
 Zn182 Zn 0.25625 0.34134 0.99749
 N183 N 0.30261 0.37081 0.99853
 C184 C 0.28710 0.30156 0.94112
 N185 N 0.25584 0.30649 0.96056
 C186 C 0.22246 0.29113 0.95127
 C187 C 0.21892 0.27256 0.91986
 C188 C 0.28491 0.28295 0.90993
 C189 C 0.25380 0.33947 1.06751
 C190 C 0.25738 0.32629 1.10059
 C191 C 0.26319 0.26365 1.07891
 C192 C 0.25994 0.27835 1.04556
 N193 N 0.25510 0.31578 1.04062
 H194 H 0.31324 0.31407 0.94877
 H195 H 0.19783 0.29574 0.96702
 H196 H 0.19154 0.26351 0.91145
 H197 H 0.30964 0.28157 0.89378
 H198 H 0.25111 0.36909 1.06306
 H199 H 0.25652 0.34642 1.12114
 H200 H 0.26617 0.23392 1.08260
 H201 H 0.26181 0.25994 1.02378
 C202 C 0.36849 0.41370 1.00209
 C203 C 0.14281 0.41292 0.98244
 C204 C 0.26168 0.28789 1.10707
 C205 C 0.25016 0.26970 0.89817
 C206 C 0.81125 0.12142 0.96598
 H207 H 0.80167 0.13734 0.94425
 C208 C 0.84423 0.09908 0.96284
 H209 H 0.85952 0.09878 0.93894
 C210 C 0.80287 0.10238 1.02294
 H211 H 0.78719 0.10337 1.04646
 C212 C 0.83530 0.07996 1.02099
 H213 H 0.84310 0.06442 1.04359
 N214 N 0.79147 0.12327 0.99597
 C215 C 0.66967 0.14129 1.01778
 H216 H 0.66999 0.16953 1.02730
 C217 C 0.63722 0.11982 1.02240
 H218 H 0.61259 0.13214 1.03446
 C219 C 0.70105 0.09113 0.99034
 H220 H 0.72610 0.07966 0.97840
 C221 C 0.66883 0.06916 0.99350
 H222 H 0.66918 0.04127 0.98301
 Zn223 Zn 0.74704 0.15600 1.00175
 N224 N 0.70101 0.12678 1.00211
 C225 C 0.71644 0.19471 0.94524
 N226 N 0.74750 0.19169 0.96511
 C227 C 0.77967 0.20994 0.95665
 C228 C 0.78258 0.22895 0.92534
 C229 C 0.71786 0.21391 0.91439
 C230 C 0.73686 0.15812 1.07156
 C231 C 0.73156 0.17202 1.10432
 C232 C 0.74532 0.23352 1.08385
 C233 C 0.74998 0.21827 1.05080
 N234 N 0.74650 0.18088 1.04546
 H235 H 0.69111 0.18033 0.95230
 H236 H 0.80414 0.20720 0.97285
 H237 H 0.80930 0.24024 0.91753
 H238 H 0.69326 0.21396 0.89814
 H239 H 0.73226 0.12893 1.06679
 H240 H 0.72441 0.15278 1.12447
 H241 H 0.74982 0.26288 1.08809
 H242 H 0.75646 0.23629 1.02960
 C243 C 0.63640 0.08322 1.01005
 C244 C 0.85731 0.07814 0.99082
 C245 C 0.73644 0.21001 1.11124
 C246 C 0.75176 0.22964 0.90309
 C247 C 0.29548 0.60796 0.46109
 H248 H 0.27518 0.60860 0.44062
 C249 C 0.32950 0.58744 0.45685
 H250 H 0.33428 0.57156 0.43374
 C251 C 0.31446 0.62822 0.51556
 H252 H 0.30966 0.64489 0.53807
 C253 C 0.34826 0.60802 0.51254
 H254 H 0.36812 0.60899 0.53341
 N255 N 0.28812 0.62738 0.49047
 C256 C 0.16969 0.63632 0.52147
 H257 H 0.17323 0.65945 0.53866
 C258 C 0.13714 0.61465 0.52473
 H259 H 0.11660 0.62152 0.54422
 C260 C 0.19070 0.60064 0.47445
 H261 H 0.21142 0.59486 0.45491
 C262 C 0.15827 0.57878 0.47643
 H263 H 0.15472 0.55673 0.45794
 Zn264 Zn 0.24257 0.65853 0.49575
 N265 N 0.19622 0.62892 0.49688
 C266 C 0.21242 0.69742 0.43850
 N267 N 0.24353 0.69297 0.45815
 C268 C 0.27688 0.70833 0.44864
 C269 C 0.28051 0.72658 0.41702
 C270 C 0.21470 0.71567 0.40713
 C271 C 0.24227 0.66015 0.56564
 C272 C 0.23833 0.67312 0.59881
 C273 C 0.23572 0.73607 0.57767
 C274 C 0.23933 0.72161 0.54422
 N275 N 0.24286 0.68412 0.53897
 H276 H 0.18629 0.68489 0.44622
 H277 H 0.30146 0.70409 0.46445
 H278 H 0.30786 0.73577 0.40865
 H279 H 0.18999 0.71681 0.39103
 H280 H 0.24397 0.63051 0.56093
 H281 H 0.23791 0.65286 0.61921
 H282 H 0.23395 0.76585 0.58165
 H283 H 0.23894 0.74028 0.52262
 C284 C 0.13080 0.58542 0.50191
 C285 C 0.35630 0.58679 0.48313
 C286 C 0.23550 0.71153 0.60559
 C287 C 0.24939 0.72911 0.39522
 C288 C 0.70138 0.89010 0.46606
 H289 H 0.72211 0.89038 0.44589
 C290 C 0.66724 0.91042 0.46195
 H291 H 0.66281 0.92709 0.43930
 C292 C 0.68151 0.86791 0.51963
 H293 H 0.68606 0.85061 0.54173
 C294 C 0.64753 0.88779 0.51669
 H295 H 0.62727 0.88600 0.53725
 N296 N 0.70841 0.86992 0.49500
 C297 C 0.82635 0.86385 0.52697
 H298 H 0.82275 0.84122 0.54466
 C299 C 0.85857 0.88597 0.53009
 H300 H 0.87879 0.87996 0.55002
 C301 C 0.80606 0.89762 0.47869
 H302 H 0.78583 0.90239 0.45862
 C303 C 0.83821 0.91989 0.48052
 H304 H 0.84200 0.94129 0.46147
 Zn305 Zn 0.75451 0.83955 0.50048
 N306 N 0.80029 0.87010 0.50183
 C307 C 0.78607 0.80219 0.44294
 N308 N 0.75482 0.80528 0.46272
 C309 C 0.72210 0.78875 0.45317
 C310 C 0.71921 0.77065 0.42139
 C311 C 0.78450 0.78420 0.41137
 C312 C 0.75358 0.83819 0.57016
 C313 C 0.75733 0.82578 0.60346
 C314 C 0.76160 0.76256 0.58305
 C315 C 0.75827 0.77651 0.54939
 N316 N 0.75407 0.81389 0.54371
 H317 H 0.81169 0.81560 0.45072
 H318 H 0.69739 0.79193 0.46908
 H319 H 0.69227 0.76043 0.41302
 H320 H 0.80926 0.78410 0.39523
 H321 H 0.75128 0.86773 0.56517
 H322 H 0.75713 0.84648 0.62353
 H323 H 0.76404 0.73289 0.58733
 H324 H 0.75946 0.75755 0.52797
 C325 C 0.86512 0.91446 0.50658
 C326 C 0.63991 0.90998 0.48786
 C327 C 0.76090 0.78750 0.61075
 C328 C 0.75038 0.76956 0.39944
 C329 C 0.00596 0.29152 0.43103
 H330 H 0.01412 0.26685 0.44504
 C331 C 0.00631 0.32589 0.44669
 H332 H 0.01365 0.32783 0.47341
 C333 C -0.01197 0.31960 0.37838
 H334 H -0.01808 0.31634 0.35155
 C335 C -0.01241 0.35438 0.39300
 H336 H -0.01925 0.37854 0.37759
 N337 N -0.00329 0.28944 0.39765
 C338 C 0.03302 0.18076 0.39063
 H339 H 0.05223 0.18565 0.36981
 C340 C 0.03283 0.14644 0.40626
 H341 H 0.05313 0.12548 0.39808
 C342 C -0.01874 0.20155 0.42452
 H343 H -0.03954 0.22294 0.43017
 C344 C -0.01991 0.16782 0.44102
 H345 H -0.04135 0.16378 0.46026
 Zn346 Zn 0.00024 0.24718 0.37349
 N347 N 0.00735 0.20705 0.39999
 C348 C 0.07152 0.25935 0.36579
 N349 N 0.04050 0.25381 0.34655
 C350 C 0.04097 0.25449 0.31203
 C351 C 0.07511 0.25747 0.29537
 C352 C 0.10589 0.26321 0.35037
 C353 C -0.07417 0.25496 0.36701
 C354 C -0.10909 0.25022 0.35296
 C355 C -0.08012 0.21282 0.30813
 C356 C -0.04567 0.21730 0.32384
 N357 N -0.04341 0.23990 0.35146
 H358 H 0.06951 0.25938 0.39329
 H359 H 0.01534 0.25227 0.29756
 H360 H 0.07621 0.25646 0.26779
 H361 H 0.13086 0.26584 0.36594
 H362 H -0.07160 0.27070 0.39032
 H363 H -0.13360 0.26342 0.36452
 H364 H -0.08227 0.19669 0.28489
 H365 H -0.02086 0.20330 0.31395
 C366 C 0.00563 0.13947 0.43139
 C367 C -0.00294 0.35746 0.42736
 C368 C -0.11158 0.23004 0.32286
 C369 C 0.10776 0.26094 0.31497
 C370 C 0.02393 0.70377 0.07787
 H371 H 0.04569 0.72441 0.07625
 C372 C 0.02717 0.67107 0.05967
 H373 H 0.05148 0.66635 0.04347
 C374 C -0.03396 0.68457 0.10233
 H375 H -0.05759 0.69030 0.11891
 C376 C -0.03198 0.65154 0.08462
 H377 H -0.05444 0.63175 0.08750
 N378 N -0.00535 0.70877 0.09964
 C379 C 0.03354 0.81052 0.10189
 H380 H 0.05562 0.80421 0.11984
 C381 C 0.03520 0.84261 0.08283
 H382 H 0.05837 0.86140 0.08664
 C383 C -0.02307 0.79329 0.07423
 H384 H -0.04564 0.77365 0.07157
 C385 C -0.02264 0.82508 0.05459
 H386 H -0.04529 0.83042 0.03675
 Zn387 Zn -0.00297 0.74891 0.12668
 N388 N 0.00345 0.78814 0.09861
 C389 C 0.04136 0.77230 0.17781
 N390 N 0.03580 0.74378 0.15591
 C391 C 0.05887 0.71347 0.15432
 C392 C 0.09241 0.71363 0.17177
 C393 C 0.07457 0.77371 0.19581
 C394 C -0.07077 0.78114 0.14619
 C395 C -0.10463 0.78066 0.16327
 C396 C -0.08209 0.72692 0.19523
 C397 C -0.04904 0.72810 0.17691
 N398 N -0.04493 0.75396 0.15219
 H399 H 0.02132 0.79522 0.17903
 H400 H 0.05226 0.69003 0.13836
 H401 H 0.11189 0.69035 0.16898
 H402 H 0.08033 0.79792 0.21130
 H403 H -0.06575 0.80247 0.12753
 H404 H -0.12546 0.80194 0.15716
 H405 H -0.08524 0.70513 0.21405
 H406 H -0.02714 0.70744 0.18123
 C407 C 0.00581 0.85080 0.06023
 C408 C -0.00041 0.64420 0.06407
 C409 C -0.11120 0.75242 0.18737
 C410 C 0.10117 0.74505 0.19107
 C411 C 0.53477 0.20313 0.58153
 H412 H 0.55620 0.22381 0.57789
 C413 C 0.53661 0.16965 0.56398
 H414 H 0.55958 0.16428 0.54641
 C415 C 0.47876 0.18468 0.60967
 H416 H 0.45679 0.19021 0.62802
 C417 C 0.47949 0.15113 0.59299
 H418 H 0.45736 0.13154 0.59822
 N419 N 0.50568 0.20995 0.60316
 C420 C 0.49043 0.32498 0.61489
 H421 H 0.48868 0.32552 0.64242
 C422 C 0.48583 0.35726 0.59666
 H423 H 0.48125 0.38342 0.60991
 C424 C 0.49866 0.28983 0.56382
 H425 H 0.50307 0.26324 0.55153
 C426 C 0.49370 0.32160 0.54435
 H427 H 0.49559 0.32013 0.51682
 Zn428 Zn 0.50309 0.25341 0.62649
 N429 N 0.49824 0.29270 0.59831
 C430 C 0.56449 0.28869 0.65419
 N431 N 0.54439 0.25693 0.65288
 C432 C 0.55407 0.22582 0.67052
 C433 C 0.58585 0.22576 0.69063
 C434 C 0.59580 0.29021 0.67476
 C435 C 0.42919 0.25939 0.63452
 C436 C 0.39520 0.26036 0.65116
 C437 C 0.42834 0.25140 0.70476
 C438 C 0.46196 0.25128 0.68699
 N439 N 0.46132 0.25452 0.65258
 H440 H 0.55685 0.31256 0.63902
 H441 H 0.53731 0.20107 0.66841
 H442 H 0.59458 0.20074 0.70402
 H443 H 0.61248 0.31519 0.67552
 H444 H 0.43021 0.26185 0.60706
 H445 H 0.36951 0.26340 0.63655
 H446 H 0.42839 0.24808 0.73220
 H447 H 0.48825 0.24808 0.70046
 C448 C 0.48842 0.35547 0.56126
 C449 C 0.50849 0.14349 0.56971
 C450 C 0.39483 0.25578 0.68648
 C451 C 0.60650 0.25833 0.69259
 C452 C 0.52007 0.79632 0.92349
 H453 H 0.54194 0.77549 0.92716
 C454 C 0.52162 0.82980 0.94054
 H455 H 0.54452 0.83459 0.95809
 C456 C 0.46478 0.81601 0.89406
 H457 H 0.44388 0.81095 0.87475
 C458 C 0.46518 0.84991 0.91052
 H459 H 0.44355 0.87045 0.90467
 N460 N 0.49227 0.79055 0.90063
 C461 C 0.50888 0.67772 0.87735
 H462 H 0.51393 0.68048 0.85028
 C463 C 0.51024 0.64323 0.89255
 H464 H 0.51639 0.61872 0.87731
 C465 C 0.49369 0.70685 0.93033
 H466 H 0.48655 0.73183 0.94439
 C467 C 0.49419 0.67284 0.94654
 H468 H 0.48823 0.67145 0.97359
 Zn469 Zn 0.49899 0.75107 0.87295
 N470 N 0.50132 0.70830 0.89655
 C471 C 0.57352 0.74020 0.86559
 N472 N 0.54345 0.75833 0.85182
 C473 C 0.54692 0.78460 0.82724
 C474 C 0.58188 0.79053 0.81277
 C475 C 0.60886 0.74597 0.85267
 C476 C 0.42794 0.73837 0.86325
 C477 C 0.39390 0.73536 0.84716
 C478 C 0.42521 0.74728 0.79324
 C479 C 0.45909 0.74938 0.81052
 N480 N 0.45916 0.74625 0.84495
 H481 H 0.57021 0.72150 0.88684
 H482 H 0.52263 0.80048 0.81880
 H483 H 0.58489 0.80963 0.79164
 H484 H 0.63275 0.73034 0.86259
 H485 H 0.42950 0.73569 0.89065
 H486 H 0.36889 0.73053 0.86224
 H487 H 0.42453 0.75102 0.76586
 H488 H 0.48482 0.75405 0.79667
 C489 C 0.50271 0.64092 0.92739
 C490 C 0.49446 0.85724 0.93331
 C491 C 0.39234 0.74087 0.81200
 C492 C 0.61261 0.77049 0.82559
 C493 C -0.21213 0.69501 0.94468
 H494 H -0.18810 0.67830 0.95234
 C495 C -0.21116 0.71418 0.91374
 H496 H -0.18633 0.71140 0.89784
 C497 C -0.27396 0.71737 0.95512
 H498 H -0.29881 0.71775 0.97107
 C499 C -0.27440 0.73670 0.92386
 H500 H -0.29980 0.75109 0.91575
 N501 N -0.24388 0.69533 0.96397
 C502 C -0.28228 0.68392 1.06409
 H503 H -0.30400 0.66520 1.05604
 C504 C -0.28420 0.69971 1.09655
 H505 H -0.30778 0.69234 1.11257
 C506 C -0.22571 0.71528 1.05291
 H507 H -0.20239 0.72055 1.03594
 C508 C -0.22679 0.73236 1.08539
 H509 H -0.20406 0.75026 1.09299
 Zn510 Zn -0.24732 0.66130 1.00194
 N511 N -0.25251 0.69041 1.04341
 C512 C -0.17950 0.63019 1.03439
 N513 N -0.20199 0.62982 1.00611
 C514 C -0.19367 0.60629 0.97992
 C515 C -0.16145 0.58331 0.98086
 C516 C -0.14675 0.60750 1.03639
 C517 C -0.31276 0.63137 0.96552
 C518 C -0.34434 0.60838 0.96110
 C519 C -0.32885 0.57870 1.01424
 C520 C -0.29779 0.60205 1.01762
 N521 N -0.29064 0.62870 0.99400
 H522 H -0.18659 0.64828 1.05551
 H523 H -0.21192 0.60570 0.95789
 H524 H -0.15559 0.56558 0.95911
 H525 H -0.12890 0.60917 1.05865
 H526 H -0.30638 0.65151 0.94608
 H527 H -0.36206 0.61207 0.93891
 H528 H -0.33398 0.55858 1.03416
 H529 H -0.27969 0.59934 1.03963
 C530 C -0.25543 0.72319 1.10857
 C531 C -0.24320 0.73383 0.90202
 C532 C -0.35336 0.58192 0.98602
 C533 C -0.13689 0.58384 1.00913
 C534 C -0.26557 0.27618 0.55255
 H535 H -0.27513 0.25894 0.53177
 C536 C -0.26781 0.26354 0.58511
 H537 H -0.27869 0.23611 0.59010
 C538 C -0.24147 0.33450 0.57008
 H539 H -0.23389 0.36295 0.56487
 C540 C -0.24177 0.32141 0.60540
 H541 H -0.23208 0.34111 0.62422
 N542 N -0.25165 0.31304 0.54529
 C543 C -0.22440 0.28659 0.45400
 H544 H -0.19900 0.28926 0.46888
 C545 C -0.22299 0.26774 0.42250
 H546 H -0.19644 0.25647 0.41329
 C547 C -0.28877 0.30170 0.44609
 H548 H -0.31415 0.31569 0.45476
 C549 C -0.28856 0.28334 0.41462
 H550 H -0.31390 0.28385 0.39932
 Zn551 Zn -0.25421 0.33904 0.50202
 N552 N -0.25662 0.30434 0.46455
 C553 C -0.17793 0.36288 0.51425
 N554 N -0.20854 0.36887 0.49402
 C555 C -0.20619 0.39359 0.46757
 C556 C -0.17335 0.41464 0.46211
 C557 C -0.14515 0.38362 0.51009
 C558 C -0.32125 0.37245 0.53346
 C559 C -0.35454 0.39436 0.53502
 C560 C -0.34339 0.41243 0.47690
 C561 C -0.31040 0.39061 0.47658
 N562 N -0.29972 0.37079 0.50449
 H563 H -0.17860 0.34184 0.53383
 H564 H -0.22983 0.39741 0.45066
 H565 H -0.17271 0.43494 0.44176
 H566 H -0.12191 0.37892 0.52745
 H567 H -0.31316 0.35638 0.55555
 H568 H -0.37105 0.39459 0.55825
 H569 H -0.35071 0.42716 0.45372
 H570 H -0.29387 0.38874 0.45351
 C571 C -0.25506 0.26729 0.40174
 C572 C -0.25470 0.28725 0.61382
 C573 C -0.36660 0.41462 0.50630
 C574 C -0.14245 0.41036 0.48407
 C575 C 0.28358 -0.18599 0.06243
 H576 H 0.30654 -0.16847 0.05475
 C577 C 0.28380 -0.20154 0.09327
 H578 H 0.30759 -0.19647 0.10974
 C579 C 0.22597 -0.21474 0.04769
 H580 H 0.20240 -0.21797 0.03062
 C581 C 0.22519 -0.23318 0.08189
 H582 H 0.20100 -0.24945 0.08893
 N583 N 0.25259 -0.19144 0.03982
 C584 C 0.25381 -0.16407 -0.06904
 H585 H 0.25666 -0.13445 -0.06592
 C586 C 0.25734 -0.17928 -0.10144
 H587 H 0.26135 -0.16055 -0.12270
 C588 C 0.24796 -0.22393 -0.04496
 H589 H 0.24510 -0.24130 -0.02265
 C590 C 0.25088 -0.24059 -0.07764
 H591 H 0.24882 -0.27046 -0.08035
 Zn592 Zn 0.24992 -0.15841 0.00109
 N593 N 0.24883 -0.18606 -0.04136
 C594 C 0.32383 -0.13794 -0.02296
 N595 N 0.29472 -0.12744 -0.00205
 C596 C 0.29590 -0.09441 0.01489
 C597 C 0.32707 -0.07107 0.01151
 C598 C 0.35515 -0.11495 -0.02771
 C599 C 0.19740 -0.10043 -0.01748
 C600 C 0.16553 -0.07725 -0.01512
 C601 C 0.15059 -0.10474 0.03901
 C602 C 0.18288 -0.12789 0.03538
 N603 N 0.20529 -0.12605 0.00701
 H604 H 0.32299 -0.16439 -0.03606
 H605 H 0.27270 -0.08618 0.03124
 H606 H 0.32771 -0.04545 0.02605
 H607 H 0.37816 -0.12435 -0.04383
 H608 H 0.21571 -0.09779 -0.03921
 H609 H 0.16033 -0.05795 -0.03582
 H610 H 0.13294 -0.10768 0.06135
 H611 H 0.18973 -0.14742 0.05539
 C612 C 0.25519 -0.21790 -0.10652
 C613 C 0.25180 -0.22494 0.10498
 C614 C 0.14077 -0.07936 0.01309
 C615 C 0.35730 -0.08105 -0.01012
 C616 C 0.28527 1.18921 0.44066
 H617 H 0.30893 1.17194 0.44822
 C618 C 0.28567 1.20658 0.40884
 H619 H 0.30999 1.20235 0.39255
 C620 C 0.22437 1.21371 0.45176
 H621 H 0.19999 1.21541 0.46825
 C622 C 0.22342 1.23138 0.41965
 H623 H 0.19822 1.24620 0.41165
 N624 N 0.25441 1.19179 0.46100
 C625 C 0.26090 1.16508 0.56919
 H626 H 0.26608 1.13566 0.56554
 C627 C 0.26559 1.18027 0.60140
 H628 H 0.27314 1.16179 0.62215
 C629 C 0.24656 1.22443 0.54633
 H630 H 0.23995 1.24163 0.52449
 C631 C 0.25007 1.24095 0.57899
 H632 H 0.24452 1.27042 0.58231
 Zn633 Zn 0.25240 1.15899 0.50002
 N634 N 0.25116 1.18680 0.54226
 C635 C 0.32976 1.14451 0.51694
 N636 N 0.29829 1.12866 0.50368
 C637 C 0.29820 1.09161 0.49641
 C638 C 0.33066 1.06952 0.50146
 C639 C 0.36255 1.12315 0.52323
 C640 C 0.19902 1.10384 0.52118
 C641 C 0.16736 1.08111 0.51923
 C642 C 0.15508 1.10420 0.46280
 C643 C 0.18722 1.12668 0.46584
 N644 N 0.20832 1.12675 0.49500
 H645 H 0.32938 1.17389 0.52297
 H646 H 0.27306 1.07918 0.48630
 H647 H 0.33046 1.04049 0.49404
 H648 H 0.38748 1.13657 0.53276
 H649 H 0.21594 1.10330 0.54398
 H650 H 0.16079 1.06384 0.54097
 H651 H 0.13844 1.10547 0.43974
 H652 H 0.19503 1.14415 0.44469
 C653 C 0.25932 1.21845 0.60716
 C654 C 0.25387 1.22663 0.39714
 C655 C 0.14428 1.08121 0.48997
 C656 C 0.36341 1.08511 0.51523
 C657 C 0.14730 0.45328 0.27934
 H658 H 0.15208 0.47636 0.29635
 C659 C 0.16734 0.41938 0.28445
 H660 H 0.18813 0.41736 0.30451
 C661 C 0.11468 0.42750 0.23287
 H662 H 0.09315 0.42962 0.21359
 C663 C 0.13428 0.39365 0.23675
 H664 H 0.12842 0.37107 0.21934
 N665 N 0.12209 0.45726 0.25320
 C666 C 0.12049 0.57087 0.21646
 H667 H 0.10264 0.56356 0.19538
 C668 C 0.14142 0.60384 0.21410
 H669 H 0.13923 0.62082 0.19139
 C670 C 0.14387 0.55884 0.27163
 H671 H 0.14463 0.54182 0.29431
 C672 C 0.16491 0.59166 0.27044
 H673 H 0.18170 0.59874 0.29244
 Zn674 Zn 0.09147 0.50307 0.24679
 N675 N 0.12197 0.54870 0.24487
 C676 C 0.05206 0.53434 0.30374
 N677 N 0.05642 0.50336 0.28425
 C678 C 0.04055 0.47058 0.29386
 C679 C 0.02200 0.46737 0.32548
 C680 C 0.03357 0.53245 0.33516
 C681 C 0.08881 0.49274 0.17769
 C682 C 0.07684 0.49506 0.14418
 C683 C 0.01636 0.51812 0.16339
 C684 C 0.02968 0.51466 0.19732
 N685 N 0.06541 0.50188 0.20370
 H686 H 0.06483 0.56007 0.29588
 H687 H 0.04463 0.44611 0.27813
 H688 H 0.01238 0.44046 0.33394
 H689 H 0.03250 0.55704 0.35114
 H690 H 0.11762 0.48465 0.18303
 H691 H 0.09736 0.48726 0.12492
 H692 H -0.01198 0.52841 0.15895
 H693 H 0.01185 0.52328 0.21834
 C694 C 0.16399 0.61502 0.24142
 C695 C 0.16140 0.38907 0.26253
 C696 C 0.04005 0.50802 0.13586
 C697 C 0.01972 0.49831 0.34719
 C698 C -0.14408 1.04408 0.28647
 H699 H -0.14441 1.02326 0.30629
 C700 C -0.16532 1.07741 0.29085
 H701 H -0.18259 1.08117 0.31338
 C702 C -0.12074 1.06514 0.23369
 H703 H -0.10244 1.06153 0.21195
 C704 C -0.14164 1.09829 0.23684
 H705 H -0.13962 1.11881 0.21675
 N706 N -0.12289 1.03799 0.25775
 C707 C -0.11585 0.92214 0.22450
 H708 H -0.09334 0.92627 0.20651
 C709 C -0.13806 0.89022 0.22090
 H710 H -0.13215 0.87073 0.20044
 C711 C -0.14935 0.94079 0.27376
 H712 H -0.15398 0.96023 0.29439
 C713 C -0.17175 0.90900 0.27140
 H714 H -0.19309 0.90467 0.29066
 Zn715 Zn -0.09152 0.99269 0.25215
 N716 N -0.12189 0.94720 0.25040
 C717 C -0.05234 0.96224 0.30928
 N718 N -0.05674 0.99308 0.28970
 C719 C -0.04092 1.02595 0.29915
 C720 C -0.02230 1.02937 0.33068
 C721 C -0.03370 0.96431 0.34056
 C722 C -0.09001 0.99562 0.18278
 C723 C -0.07805 0.99055 0.14946
 C724 C -0.01494 0.97865 0.16956
 C725 C -0.02846 0.98407 0.20324
 N726 N -0.06552 0.99268 0.20905
 H727 H -0.06520 0.93649 0.30159
 H728 H -0.04510 1.05031 0.28337
 H729 H -0.01282 1.05636 0.33905
 H730 H -0.03263 0.93984 0.35664
 H731 H -0.11956 1.00058 0.18793
 H732 H -0.09926 0.99310 0.12980
 H733 H 0.01458 0.97235 0.16537
 H734 H -0.00959 0.98041 0.22460
 C735 C -0.16645 0.88304 0.24465
 C736 C -0.16484 1.10489 0.26543
 C737 C -0.03991 0.98221 0.14183
 C738 C -0.01985 0.99854 0.35244
 C739 C 0.35338 0.54835 -0.21840
 H740 H 0.35076 0.52690 -0.19931
 C741 C 0.33336 0.58246 -0.21423
 H742 H 0.31476 0.58628 -0.19259
 C743 C 0.38069 0.56984 -0.26943
 H744 H 0.40009 0.56601 -0.29036
 C745 C 0.36103 0.60375 -0.26651
 H746 H 0.36489 0.62463 -0.28604
 N747 N 0.37605 0.54220 -0.24615
 C748 C 0.37709 0.42654 -0.28202
 H749 H 0.39574 0.43244 -0.30293
 C750 C 0.35571 0.39592 -0.28412
 H751 H 0.35740 0.37859 -0.30668
 C752 C 0.35496 0.44187 -0.22651
 H753 H 0.35436 0.45944 -0.20414
 C754 C 0.33217 0.40746 -0.22716
 H755 H 0.31579 0.40131 -0.20461
 Zn756 Zn 0.40665 0.49634 -0.25154
 N757 N 0.37601 0.45074 -0.25236
 C758 C 0.44818 0.46554 -0.19554
 N759 N 0.44222 0.49679 -0.21430
 C760 C 0.45709 0.52990 -0.20423
 C761 C 0.47635 0.53301 -0.17296
 C762 C 0.46744 0.46734 -0.16451
 C763 C 0.40754 0.50012 -0.32130
 C764 C 0.41944 0.49521 -0.35470
 C765 C 0.48249 0.48293 -0.33469
 C766 C 0.46899 0.48763 -0.30095
 N767 N 0.43196 0.49619 -0.29501
 H768 H 0.43614 0.43955 -0.20366
 H769 H 0.45175 0.55460 -0.21930
 H770 H 0.48507 0.56007 -0.16409
 H771 H 0.46969 0.44245 -0.14906
 H772 H 0.37807 0.50557 -0.31610
 H773 H 0.39856 0.49815 -0.37460
 H774 H 0.51198 0.47676 -0.33914
 H775 H 0.48790 0.48364 -0.27965
 C776 C 0.33186 0.38480 -0.25494
 C777 C 0.33658 0.61061 -0.23888
 C778 C 0.45742 0.48677 -0.36223
 C779 C 0.48046 0.50163 -0.15203
 C780 C 0.64514 -0.04631 -0.20907
 H781 H 0.64208 -0.02781 -0.18744
 C782 C 0.66396 -0.07926 -0.20535
 H783 H 0.67625 -0.08645 -0.18096
 C784 C 0.63009 -0.05902 -0.26679
 H785 H 0.61513 -0.05343 -0.29004
 C786 C 0.65213 -0.09394 -0.26450
 H787 H 0.65356 -0.11080 -0.28738
 N788 N 0.62784 -0.03599 -0.24123
 C789 C 0.61957 0.07955 -0.27437
 H790 H 0.59899 0.07450 -0.29386
 C791 C 0.64118 0.11199 -0.27707
 H792 H 0.63705 0.13025 -0.29873
 C793 C 0.64799 0.06358 -0.22205
 H794 H 0.65109 0.04468 -0.20077
 C795 C 0.66879 0.09652 -0.22291
 H796 H 0.68745 0.10194 -0.20176
 Zn797 Zn 0.59519 0.00849 -0.24653
 N798 N 0.62377 0.05530 -0.24760
 C799 C 0.55505 0.03725 -0.18897
 N800 N 0.56012 0.00671 -0.20894
 C801 C 0.54517 -0.02663 -0.19969
 C802 C 0.52677 -0.03078 -0.16806
 C803 C 0.53670 0.03441 -0.15753
 C804 C 0.59373 0.00826 -0.31672
 C805 C 0.58044 0.01156 -0.34979
 C806 C 0.51690 0.01324 -0.32818
 C807 C 0.53168 0.01015 -0.29484
 N808 N 0.56964 0.00743 -0.28984
 H809 H 0.56721 0.06340 -0.19645
 H810 H 0.54992 -0.05076 -0.21572
 H811 H 0.51792 -0.05806 -0.15992
 H812 H 0.53513 0.05869 -0.14117
 H813 H 0.62375 0.00750 -0.31226
 H814 H 0.60077 0.01222 -0.37036
 H815 H 0.48676 0.01447 -0.33199
 H816 H 0.51290 0.01034 -0.27312
 C817 C 0.66606 0.12148 -0.25091
 C818 C 0.66890 -0.10476 -0.23507
 C819 C 0.54160 0.01366 -0.35622
 C820 C 0.52365 -0.00022 -0.14594
 C821 C 0.04803 0.26888 0.83293
 H822 H 0.02683 0.29031 0.82897
 C823 C 0.08102 0.26930 0.81454
 H824 H 0.08520 0.29114 0.79599
 C825 C 0.06868 0.21520 0.86351
 H826 H 0.06400 0.19519 0.88352
 C827 C 0.10219 0.21451 0.84575
 H828 H 0.12302 0.19317 0.85158
 N829 N 0.04281 0.24220 0.85672
 C830 C -0.07191 0.25567 0.87663
 H831 H -0.06999 0.26083 0.90374
 C832 C -0.10624 0.25680 0.86060
 H833 H -0.13148 0.26283 0.87523
 C834 C -0.04072 0.24087 0.82439
 H835 H -0.01499 0.23407 0.81095
 C836 C -0.07459 0.24119 0.80732
 H837 H -0.07515 0.23545 0.78021
 Zn838 Zn 0.00185 0.24826 0.88314
 N839 N -0.04037 0.24869 0.85816
 C840 C -0.01170 0.32159 0.88789
 N841 N 0.00632 0.29282 0.90363
 C842 C 0.03042 0.29770 0.92994
 C843 C 0.03429 0.33288 0.94371
 C844 C -0.00794 0.35711 0.90016
 C845 C -0.00982 0.17846 0.89253
 C846 C -0.01480 0.14495 0.90827
 C847 C -0.00735 0.17578 0.96297
 C848 C -0.00334 0.20928 0.94591
 N849 N -0.00339 0.20929 0.91136
 H850 H -0.02862 0.31714 0.86549
 H851 H 0.04633 0.27439 0.94010
 H852 H 0.05195 0.33714 0.96581
 H853 H -0.02323 0.38003 0.88841
 H854 H -0.01012 0.17998 0.86501
 H855 H -0.01841 0.12031 0.89276
 H856 H -0.00590 0.17501 0.99053
 H857 H 0.00013 0.23476 0.96006
 C858 C -0.10740 0.24972 0.82565
 C859 C 0.10867 0.24223 0.82143
 C860 C -0.01254 0.14337 0.94372
 C861 C 0.01450 0.36231 0.92861
 C862 C 0.45353 0.27778 0.16695
 H863 H 0.47317 0.30043 0.16835
 C864 C 0.42049 0.27919 0.18543
 H865 H 0.41439 0.30317 0.20136
 C866 C 0.43763 0.21893 0.14365
 H867 H 0.44495 0.19533 0.12788
 C868 C 0.40428 0.21913 0.16159
 H869 H 0.38576 0.19561 0.15930
 N870 N 0.46038 0.24873 0.14566
 C871 C 0.56522 0.28545 0.14652
 H872 H 0.56019 0.30802 0.12895
 C873 C 0.59764 0.28468 0.16573
 H874 H 0.61780 0.30673 0.16271
 C875 C 0.54472 0.22944 0.17239
 H876 H 0.52390 0.20787 0.17402
 C877 C 0.57670 0.22746 0.19213
 H878 H 0.58065 0.20421 0.20934
 Zn879 Zn 0.50230 0.25173 0.11974
 N880 N 0.54099 0.25687 0.14893
 C881 C 0.52856 0.29580 0.06970
 N882 N 0.49879 0.29028 0.09060
 C883 C 0.46774 0.31257 0.09056
 C884 C 0.46799 0.34506 0.07209
 C885 C 0.53009 0.32803 0.05070
 C886 C 0.53740 0.18617 0.09892
 C887 C 0.53697 0.15219 0.08257
 C888 C 0.47978 0.17184 0.05346
 C889 C 0.48132 0.20529 0.07047
 N890 N 0.50855 0.21062 0.09395
 H891 H 0.55205 0.27631 0.06969
 H892 H 0.44345 0.30597 0.10577
 H893 H 0.44397 0.36390 0.07349
 H894 H 0.55506 0.33382 0.03589
 H895 H 0.55982 0.19228 0.11643
 H896 H 0.55910 0.13192 0.08766
 H897 H 0.45662 0.16688 0.03624
 H898 H 0.45949 0.22618 0.06680
 C899 C 0.60421 0.25443 0.18755
 C900 C 0.39513 0.25005 0.18191
 C901 C 0.50691 0.14442 0.06084
 C902 C 0.50029 0.35369 0.05347
 C903 C -0.04594 0.76918 0.67346
 H904 H -0.02370 0.78896 0.67729
 C905 C -0.07669 0.77073 0.69245
 H906 H -0.07929 0.79192 0.71200
 C907 C -0.06698 0.71572 0.64282
 H908 H -0.06301 0.69463 0.62358
 C909 C -0.10156 0.71658 0.66261
 H910 H -0.12254 0.69586 0.65713
 N911 N -0.04277 0.74194 0.64692
 C912 C 0.06039 0.78027 0.64437
 H913 H 0.05298 0.80396 0.62881
 C914 C 0.09334 0.78047 0.66273
 H915 H 0.11148 0.80433 0.66091
 C916 C 0.04508 0.72089 0.66674
 H917 H 0.02582 0.69790 0.66765
 C918 C 0.07783 0.71985 0.68564
 H919 H 0.08418 0.69579 0.70131
 Zn920 Zn -0.00305 0.74740 0.61869
 N921 N 0.03818 0.75001 0.64561
 C922 C 0.01905 0.79418 0.57011
 N923 N -0.00824 0.78908 0.59368
 C924 C -0.03633 0.81418 0.59945
 C925 C -0.03539 0.84825 0.58335
 C926 C 0.02112 0.82773 0.55338
 C927 C 0.03156 0.68632 0.58970
 C928 C 0.03118 0.65374 0.57130
 C929 C -0.02935 0.67236 0.54775
 C930 C -0.02768 0.70471 0.56666
 N931 N 0.00115 0.70939 0.58875
 H932 H 0.04041 0.77290 0.56600
 H933 H -0.05854 0.80843 0.61736
 H934 H -0.05707 0.86887 0.58893
 H935 H 0.04416 0.83233 0.53587
 H936 H 0.05526 0.69223 0.60582
 H937 H 0.05454 0.63423 0.57368
 H938 H -0.05381 0.66718 0.53213
 H939 H -0.05060 0.72483 0.56583
 C940 C 0.10275 0.74943 0.68267
 C941 C -0.10718 0.74409 0.68547
 C942 C -0.00061 0.64577 0.55177
 C943 C -0.00551 0.85556 0.56113
 C944 C 0.54682 0.77693 0.33678
 H945 H 0.52621 0.79902 0.33316
 C946 C 0.58107 0.77798 0.32030
 H947 H 0.58683 0.80091 0.30329
 C948 C 0.56446 0.72053 0.36461
 H949 H 0.55810 0.69897 0.38275
 C950 C 0.59906 0.72041 0.34876
 H951 H 0.61889 0.69798 0.35401
 N952 N 0.53930 0.74825 0.35789
 C953 C 0.42272 0.75237 0.37105
 H954 H 0.42289 0.75366 0.39860
 C955 C 0.38927 0.75191 0.35372
 H956 H 0.36297 0.75306 0.36769
 C957 C 0.45746 0.74874 0.31906
 H958 H 0.48432 0.74685 0.30623
 C959 C 0.42443 0.74745 0.30057
 H960 H 0.42537 0.74547 0.27303
 Zn961 Zn 0.49573 0.75100 0.38114
 N962 N 0.45554 0.75178 0.35346
 C963 C 0.47316 0.82136 0.39673
 N964 N 0.49679 0.79313 0.40592
 C965 C 0.52442 0.79713 0.42938
 C966 C 0.52819 0.83091 0.44585
 C967 C 0.47593 0.85535 0.41241
 C968 C 0.48496 0.67976 0.38602
 C969 C 0.48250 0.64512 0.40027
 C970 C 0.49032 0.67337 0.45613
 C971 C 0.49194 0.70787 0.44066
 N972 N 0.49046 0.70978 0.40622
 H973 H 0.45308 0.81812 0.37645
 H974 H 0.54379 0.77437 0.43459
 H975 H 0.54989 0.83465 0.46485
 H976 H 0.45710 0.87804 0.40531
 H977 H 0.48387 0.68283 0.35863
 H978 H 0.47957 0.62107 0.38386
 H979 H 0.49276 0.67117 0.48358
 H980 H 0.49530 0.73267 0.45583
 C981 C 0.39030 0.74963 0.31828
 C982 C 0.60743 0.74934 0.32627
 C983 C 0.48626 0.64184 0.43548
 C984 C 0.50359 0.85980 0.43694
 Zr985 Zr 0.02965 -0.03163 1.04710
 O986 O 0.06886 -0.01605 1.08479
 O987 O 0.02220 -0.08706 1.05923
 O988 O 0.00515 -0.02875 1.09746
 O989 O 0.09840 -0.04208 0.98472
 O990 O -0.05423 -0.00807 1.08624
 O991 O 0.08389 -0.05794 1.03926
 O992 O -0.01738 -0.10904 1.01835
 O993 O -0.02738 -0.04151 1.03665
 O994 O 0.02631 -0.05574 0.99852
 O995 O 0.00240 0.02070 1.04948
 O996 O 0.05568 0.00617 1.01370
 Zr997 Zr -0.03423 0.02525 0.95460
 Zr998 Zr -0.05361 0.01075 1.03637
 Zr999 Zr 0.04926 -0.01753 0.96530
 Zr1000 Zr -0.03016 -0.06335 0.98736
 O1001 O 0.09614 0.01514 0.95215
 O1002 O -0.08181 -0.08307 1.00687
 O1003 O -0.00682 -0.02720 0.95157
 O1004 O -0.05952 -0.01261 0.98798
 O1005 O -0.03123 0.04961 1.00305
 O1006 O 0.02278 0.03442 0.96529
 C1007 C 0.00347 -0.11283 1.04480
 C1008 C 0.10628 -0.05849 1.01293
 C1009 C -0.02867 -0.01898 1.10703
 O1010 O -0.10389 -0.01859 1.04522
 O1011 O -0.09968 0.04182 1.01919
 O1012 O -0.08767 0.05327 0.96326
 C1013 C -0.10845 0.05670 0.99055
 O1014 O 0.06611 0.06333 1.05334
 Zr1015 Zr 0.02557 0.05686 1.01411
 O1016 O -0.02797 0.08103 0.94336
 O1017 O -0.06322 0.05674 1.06920
 O1018 O 0.00432 0.09733 1.04885
 O1019 O 0.07465 0.08034 0.99277
 O1020 O 0.00782 0.10368 0.98677
 C1021 C -0.01152 0.10723 0.95941
 O1022 O -0.07402 0.00949 0.91751
 O1023 O 0.06254 -0.06608 0.93677
 O1024 O -0.00994 0.02238 0.90416
 O1025 O 0.04616 -0.00746 0.91336
 O1026 O -0.00793 -0.10609 0.95553
 O1027 O -0.06554 -0.07181 0.94453
 C1028 C 0.02200 0.00823 0.89373
 H1029 H 0.04003 -0.07979 0.99651
 H1030 H -0.08625 -0.01625 0.98201
 H1031 H 0.03479 0.05090 0.94839
 H1032 H 0.00456 0.03212 1.07233
 H1033 H -0.08275 -0.11010 1.00200
 H1034 H -0.11863 -0.00434 1.06243
 H1035 H -0.08761 0.05272 1.08080
 H1036 H 0.01856 0.12051 1.04528
 H1037 H -0.02259 -0.12885 0.95985
 H1038 H 0.08715 -0.06202 0.92555
 H1039 H 0.11152 0.00034 0.93581
 H1040 H 0.07441 0.10714 0.99873
 H1041 H -0.07669 -0.09684 0.94591
 H1042 H -0.07930 0.03191 0.90350
 H1043 H 0.07390 -0.03847 1.09888
 H1044 H 0.07334 0.08977 1.05485
 Zr1045 Zr 0.52431 0.46754 0.54011
 O1046 O 0.56495 0.48240 0.57681
 O1047 O 0.51212 0.41393 0.55500
 O1048 O 0.50090 0.47204 0.59069
 O1049 O 0.59003 0.44894 0.47612
 O1050 O 0.44485 0.50177 0.58132
 O1051 O 0.57739 0.43880 0.53221
 O1052 O 0.46912 0.39305 0.51640
 O1053 O 0.46632 0.46194 0.53143
 O1054 O 0.51764 0.44130 0.49281
 O1055 O 0.50130 0.52176 0.54137
 O1056 O 0.55195 0.50147 0.50444
 Zr1057 Zr 0.46179 0.52454 0.44721
 Zr1058 Zr 0.44413 0.51593 0.53010
 Zr1059 Zr 0.54211 0.47612 0.45722
 Zr1060 Zr 0.46024 0.43776 0.48331
 O1061 O 0.59126 0.50413 0.44182
 O1062 O 0.40736 0.42285 0.50386
 O1063 O 0.48498 0.47015 0.44528
 O1064 O 0.43487 0.49053 0.48294
 O1065 O 0.46838 0.55090 0.49449
 O1066 O 0.51969 0.52992 0.45618
 C1067 C 0.48985 0.38961 0.54289
 C1068 C 0.59875 0.43526 0.50531
 C1069 C 0.46900 0.48621 0.60105
 O1070 O 0.39269 0.49015 0.54218
 O1071 O 0.40009 0.54983 0.51255
 O1072 O 0.40955 0.55467 0.45524
 C1073 C 0.39081 0.56212 0.48303
 O1074 O 0.56923 0.55844 0.54095
 Zr1075 Zr 0.52597 0.55420 0.50390
 O1076 O 0.47037 0.57965 0.43458
 O1077 O 0.43900 0.56456 0.56040
 O1078 O 0.51021 0.59727 0.53834
 O1079 O 0.57520 0.57387 0.47969
 O1080 O 0.50931 0.60106 0.47626
 C1081 C 0.48847 0.60525 0.44991
 O1082 O 0.42101 0.50893 0.41094
 O1083 O 0.54985 0.42550 0.43027
 O1084 O 0.48542 0.52031 0.39676
 O1085 O 0.53874 0.48527 0.40506
 O1086 O 0.47868 0.39172 0.45346
 O1087 O 0.42349 0.43049 0.44124
 C1088 C 0.51600 0.50377 0.38604
 H1089 H 0.52955 0.41625 0.49185
 H1090 H 0.40771 0.48853 0.47786
 H1091 H 0.53223 0.54509 0.43858
 H1092 H 0.50529 0.53369 0.56380
 H1093 H 0.40399 0.39594 0.49953
 H1094 H 0.37928 0.50675 0.55850
 H1095 H 0.41476 0.56319 0.57284
 H1096 H 0.52606 0.61905 0.53336
 H1097 H 0.46215 0.37055 0.45883
 H1098 H 0.57427 0.42696 0.41816
 H1099 H 0.60477 0.48758 0.42553
 H1100 H 0.57690 0.60078 0.48487
 H1101 H 0.41110 0.40609 0.44313
 H1102 H 0.41641 0.53097 0.39625
 H1103 H 0.56924 0.46022 0.59140
 H1104 H 0.57869 0.58419 0.54138
 Zr1105 Zr 0.47373 1.03059 0.54742
 O1106 O 0.43331 1.01481 0.58408
 O1107 O 0.48547 1.08408 0.56279
 O1108 O 0.49753 1.02650 0.59751
 O1109 O 0.40775 1.05080 0.48408
 O1110 O 0.55266 0.99492 0.58792
 O1111 O 0.42115 1.06006 0.54028
 O1112 O 0.53062 1.10415 0.52605
 O1113 O 0.53183 1.03526 0.53886
 O1114 O 0.48089 1.05771 0.50070
 O1115 O 0.49574 0.97600 0.54787
 O1116 O 0.44548 0.99787 0.51134
 Zr1117 Zr 0.53512 0.97421 0.45329
 Zr1118 Zr 0.55299 0.98090 0.53647
 Zr1119 Zr 0.45578 1.02401 0.46462
 Zr1120 Zr 0.53842 1.06034 0.49133
 O1121 O 0.40647 0.99691 0.44836
 O1122 O 0.59172 1.07355 0.51184
 O1123 O 0.51308 1.02914 0.45266
 O1124 O 0.56262 1.00703 0.48969
 O1125 O 0.52812 0.94701 0.50018
 O1126 O 0.47714 0.96989 0.46257
 C1127 C 0.50853 1.10828 0.55174
 C1128 C 0.39967 1.06377 0.51366
 C1129 C 0.52921 1.01191 0.60757
 O1130 O 0.60517 1.00514 0.54859
 O1131 O 0.59630 0.94646 0.51813
 O1132 O 0.58697 0.94320 0.46069
 C1133 C 0.60554 0.93484 0.48831
 O1134 O 0.42794 0.93974 0.54763
 Zr1135 Zr 0.47048 0.94473 0.50986
 O1136 O 0.52555 0.91952 0.43937
 O1137 O 0.55706 0.93189 0.56622
 O1138 O 0.48700 0.90045 0.54252
 O1139 O 0.41993 0.92718 0.48661
 O1140 O 0.48428 0.89878 0.47974
 C1141 C 0.50533 0.89473 0.45349
 O1142 O 0.57599 0.99014 0.41714
 O1143 O 0.44866 1.07550 0.43908
 O1144 O 0.51099 0.97936 0.40300
 O1145 O 0.45936 1.01640 0.41234
 O1146 O 0.52089 1.10757 0.46281
 O1147 O 0.57532 1.06813 0.44935
 C1148 C 0.48094 0.99720 0.39273
 H1149 H 0.46934 1.08293 0.50023
 H1150 H 0.58982 1.00864 0.48456
 H1151 H 0.46409 0.95544 0.44479
 H1152 H 0.49160 0.96394 0.57020
 H1153 H 0.59554 1.10053 0.50837
 H1154 H 0.61803 0.98815 0.56484
 H1155 H 0.58136 0.93264 0.57852
 H1156 H 0.47107 0.87885 0.53711
 H1157 H 0.53761 1.12832 0.46898
 H1158 H 0.42432 1.07461 0.42685
 H1159 H 0.39275 1.01434 0.43309
 H1160 H 0.41744 0.90023 0.49122
 H1161 H 0.58796 1.09236 0.45170
 H1162 H 0.58023 0.96837 0.40199
 H1163 H 0.42885 1.03674 0.59901
 H1164 H 0.41912 0.91375 0.54829
 Zr1165 Zr -0.02618 0.52909 1.04184
 O1166 O -0.06680 0.51068 1.07721
 O1167 O -0.01764 0.58270 1.05866
 O1168 O -0.00291 0.52267 1.09243
 O1169 O -0.09093 0.55037 0.97786
 O1170 O 0.05395 0.49558 1.08159
 O1171 O -0.07953 0.55730 1.03468
 O1172 O 0.02652 0.60581 1.02238
 O1173 O 0.03193 0.53590 1.03458
 O1174 O -0.01856 0.55810 0.99602
 O1175 O -0.00276 0.47513 1.04048
 O1176 O -0.05270 0.49746 1.00369
 Zr1177 Zr 0.03883 0.47806 0.94685
 Zr1178 Zr 0.05449 0.48221 1.03033
 Zr1179 Zr -0.04176 0.52574 0.95805
 Zr1180 Zr 0.03900 0.56282 0.98798
 O1181 O -0.08860 0.49759 0.93786
 O1182 O 0.09021 0.57685 1.01207
 O1183 O 0.01568 0.53254 0.94779
 O1184 O 0.06465 0.51023 0.98471
 O1185 O 0.03131 0.44911 0.99263
 O1186 O -0.01929 0.47208 0.95439
 C1187 C 0.00338 0.60856 1.04745
 C1188 C -0.10025 0.56218 1.00766
 C1189 C 0.02953 0.50922 1.10231
 O1190 O 0.10649 0.50634 1.04334
 O1191 O 0.09844 0.44871 1.01218
 O1192 O 0.09078 0.44715 0.95452
 C1193 C 0.10856 0.43796 0.98237
 O1194 O -0.07059 0.43811 1.03669
 Zr1195 Zr -0.02642 0.44497 1.00077
 O1196 O 0.03117 0.42390 0.93058
 O1197 O 0.05852 0.43263 1.05930
 O1198 O -0.01143 0.39991 1.03313
 O1199 O -0.07482 0.42647 0.97458
 O1200 O -0.00834 0.40014 0.97091
 C1201 C 0.01294 0.39764 0.94463
 O1202 O 0.08021 0.49653 0.91229
 O1203 O -0.05215 0.57841 0.93538
 O1204 O 0.01552 0.48433 0.89650
 O1205 O -0.03313 0.52503 0.90558
 O1206 O 0.02129 0.60945 0.95872
 O1207 O 0.07866 0.57395 0.94883
 C1208 C -0.01189 0.50563 0.88573
 H1209 H -0.03100 0.58290 0.99581
 H1210 H 0.09191 0.51260 0.98021
 H1211 H -0.03123 0.45813 0.93563
 H1212 H -0.00698 0.46201 1.06229
 H1213 H 0.09298 0.60417 1.01031
 H1214 H 0.11928 0.48917 1.05948
 H1215 H 0.08254 0.43338 1.07206
 H1216 H -0.02685 0.37835 1.02647
 H1217 H 0.03606 0.63111 0.96630
 H1218 H -0.07572 0.57667 0.92203
 H1219 H -0.10118 0.51504 0.92186
 H1220 H -0.07622 0.39922 0.97804
 H1221 H 0.08997 0.59857 0.95287
 H1222 H 0.08544 0.47547 0.89654
 H1223 H -0.07202 0.53182 1.09287
 H1224 H -0.08000 0.41237 1.03538
 Zr1225 Zr -0.03897 0.47176 0.44704
 O1226 O -0.08137 0.48726 0.41184
 O1227 O -0.02637 0.41784 0.43146
 O1228 O -0.01722 0.47719 0.39598
 O1229 O -0.09965 0.44759 0.51334
 O1230 O 0.03551 0.51183 0.40301
 O1231 O -0.09054 0.44229 0.45589
 O1232 O 0.01950 0.39789 0.46817
 O1233 O 0.01964 0.46696 0.45343
 O1234 O -0.02901 0.44505 0.49372
 O1235 O -0.01871 0.52644 0.44631
 O1236 O -0.06681 0.50451 0.48436
 Zr1237 Zr 0.02451 0.52806 0.53898
 Zr1238 Zr 0.03927 0.52140 0.45517
 Zr1239 Zr -0.05390 0.47844 0.53076
 Zr1240 Zr 0.02879 0.44228 0.50104
 O1241 O -0.10449 0.50500 0.54661
 O1242 O 0.08101 0.42844 0.47772
 O1243 O 0.00401 0.47330 0.54057
 O1244 O 0.05149 0.49528 0.50161
 O1245 O 0.01489 0.55521 0.49244
 O1246 O -0.03395 0.53266 0.53220
 C1247 C -0.00308 0.39349 0.44315
 C1248 C -0.10908 0.43547 0.48380
 C1249 C 0.01175 0.49490 0.38433
 O1250 O 0.08959 0.49497 0.43842
 O1251 O 0.08524 0.55181 0.47218
 O1252 O 0.07552 0.55833 0.52940
 C1253 C 0.09481 0.56394 0.50161
 O1254 O -0.08844 0.56189 0.44996
 Zr1255 Zr -0.04331 0.55776 0.48527
 O1256 O 0.01499 0.58305 0.55223
 O1257 O 0.04178 0.57258 0.42867
 O1258 O -0.03135 0.60178 0.45112
 O1259 O -0.09231 0.57612 0.51167
 O1260 O -0.02763 0.60454 0.51323
 C1261 C -0.00467 0.60883 0.53805
 O1262 O 0.06707 0.51248 0.57397
 O1263 O -0.05722 0.42797 0.55835
 O1264 O 0.00288 0.52280 0.59024
 O1265 O -0.04935 0.48758 0.58291
 O1266 O 0.01451 0.39554 0.53110
 O1267 O 0.06814 0.43491 0.54129
 C1268 C -0.02665 0.50578 0.60173
 H1269 H -0.03948 0.41974 0.49491
 H1270 H 0.07889 0.49316 0.50574
 H1271 H -0.04637 0.54741 0.55045
 H1272 H -0.02447 0.53892 0.42443
 H1273 H 0.08562 0.40145 0.48116
 H1274 H 0.10188 0.51222 0.42232
 H1275 H 0.06519 0.57203 0.41489
 H1276 H -0.04802 0.62314 0.45717
 H1277 H 0.03193 0.37484 0.52483
 H1278 H -0.08127 0.42861 0.57119
 H1279 H -0.11661 0.48811 0.56312
 H1280 H -0.09551 0.60308 0.50708
 H1281 H 0.08213 0.41115 0.53802
 H1282 H 0.07147 0.53453 0.58857
 H1283 H -0.08538 0.46538 0.39691
 H1284 H -0.09921 0.58745 0.45041
 Zr1285 Zr 0.46496 -0.02682 -0.04600
 O1286 O 0.42278 -0.00925 -0.08060
 O1287 O 0.47467 -0.08098 -0.06209
 O1288 O 0.48662 -0.02141 -0.09715
 O1289 O 0.40166 -0.04603 0.01976
 O1290 O 0.54048 0.01153 -0.09001
 O1291 O 0.41309 -0.05532 -0.03695
 O1292 O 0.52008 -0.10307 -0.02611
 O1293 O 0.52345 -0.03359 -0.04018
 O1294 O 0.47403 -0.05444 0.00036
 O1295 O 0.48691 0.02715 -0.04618
 O1296 O 0.43823 0.00609 -0.00816
 Zr1297 Zr 0.53039 0.02626 0.04611
 Zr1298 Zr 0.54482 0.02025 -0.03772
 Zr1299 Zr 0.45047 -0.02082 0.03801
 Zr1300 Zr 0.53184 -0.05927 0.00705
 O1301 O 0.40252 0.00786 0.05724
 O1302 O 0.58316 -0.07443 -0.01721
 O1303 O 0.50836 -0.02792 0.04703
 O1304 O 0.55625 -0.00690 0.00835
 O1305 O 0.52140 0.05424 -0.00005
 O1306 O 0.47203 0.03267 0.04003
 C1307 C 0.49676 -0.10655 -0.05077
 C1308 C 0.39275 -0.05906 -0.00958
 C1309 C 0.51604 -0.00436 -0.10877
 O1310 O 0.59439 -0.00730 -0.05480
 O1311 O 0.59177 0.04922 -0.02030
 O1312 O 0.58119 0.05645 0.03677
 C1313 C 0.60079 0.06165 0.00920
 O1314 O 0.41828 0.06451 -0.04206
 Zr1315 Zr 0.46324 0.05847 -0.00678
 O1316 O 0.52207 0.08116 0.06084
 O1317 O 0.54875 0.07161 -0.06374
 O1318 O 0.47602 0.10288 -0.04023
 O1319 O 0.41483 0.07753 0.02009
 O1320 O 0.48043 0.10404 0.02170
 C1321 C 0.50301 0.10753 0.04686
 O1322 O 0.57343 0.00904 0.07999
 O1323 O 0.44364 -0.07263 0.06278
 O1324 O 0.50975 0.01978 0.09734
 O1325 O 0.45782 -0.01605 0.09052
 O1326 O 0.51642 -0.10569 0.03704
 O1327 O 0.57171 -0.06879 0.04651
 C1328 C 0.48161 0.00099 0.10917
 H1329 H 0.46243 -0.07926 0.00136
 H1330 H 0.58361 -0.00977 0.01241
 H1331 H 0.46037 0.04725 0.05880
 H1332 H 0.48142 0.04011 -0.06789
 H1333 H 0.58669 -0.10167 -0.01452
 H1334 H 0.60708 0.00981 -0.07076
 H1335 H 0.57218 0.07058 -0.07748
 H1336 H 0.45989 0.12449 -0.03374
 H1337 H 0.53264 -0.12706 0.03008
 H1338 H 0.41987 -0.07103 0.07599
 H1339 H 0.39019 -0.00911 0.07355
 H1340 H 0.41242 0.10467 0.01608
 H1341 H 0.58475 -0.09297 0.04266
 H1342 H 0.57841 0.03053 0.09512
 H1343 H 0.41777 -0.03077 -0.09569
 H1344 H 0.40775 0.09014 -0.04076
 Zr1345 Zr 0.53922 0.52706 -0.05176
 O1346 O 0.58189 0.51133 -0.08676
 O1347 O 0.52703 0.58095 -0.06758
 O1348 O 0.51770 0.52193 -0.10298
 O1349 O 0.60105 0.54698 0.01467
 O1350 O 0.46468 0.48759 -0.09632
 O1351 O 0.59096 0.55606 -0.04213
 O1352 O 0.48078 0.60110 -0.03118
 O1353 O 0.48058 0.53210 -0.04572
 O1354 O 0.52906 0.55386 -0.00507
 O1355 O 0.51865 0.47248 -0.05271
 O1356 O 0.56622 0.49408 -0.01424
 Zr1357 Zr 0.47415 0.47110 0.03955
 Zr1358 Zr 0.46057 0.47778 -0.04425
 Zr1359 Zr 0.55297 0.52011 0.03221
 Zr1360 Zr 0.47109 0.55697 0.00180
 O1361 O 0.60170 0.49251 0.05092
 O1362 O 0.41912 0.57124 -0.02156
 O1363 O 0.49497 0.52571 0.04137
 O1364 O 0.44794 0.50409 0.00208
 O1365 O 0.48425 0.44379 -0.00690
 O1366 O 0.53267 0.46610 0.03347
 C1367 C 0.50347 0.60528 -0.05621
 C1368 C 0.61074 0.56004 -0.01444
 C1369 C 0.48860 0.50456 -0.11484
 O1370 O 0.41042 0.50437 -0.06099
 O1371 O 0.41441 0.44728 -0.02756
 O1372 O 0.42330 0.44099 0.02970
 C1373 C 0.40442 0.43525 0.00181
 O1374 O 0.58784 0.43627 -0.04884
 Zr1375 Zr 0.54255 0.44102 -0.01359
 O1376 O 0.48361 0.41618 0.05310
 O1377 O 0.45829 0.42679 -0.07118
 O1378 O 0.53052 0.39686 -0.04761
 O1379 O 0.59144 0.42307 0.01298
 O1380 O 0.52689 0.39453 0.01458
 C1381 C 0.50376 0.39041 0.03932
 O1382 O 0.43080 0.48657 0.07399
 O1383 O 0.55798 0.57167 0.05789
 O1384 O 0.49435 0.47729 0.09099
 O1385 O 0.54577 0.51388 0.08457
 O1386 O 0.48568 0.60359 0.03194
 O1387 O 0.43139 0.56472 0.04185
 C1388 C 0.52223 0.49627 0.10308
 H1389 H 0.54000 0.57898 -0.00391
 H1390 H 0.42050 0.50635 0.00602
 H1391 H 0.54459 0.45156 0.05206
 H1392 H 0.52455 0.46000 -0.07461
 H1393 H 0.41466 0.59825 -0.01802
 H1394 H 0.39818 0.48716 -0.07717
 H1395 H 0.43490 0.42736 -0.08491
 H1396 H 0.54700 0.37542 -0.04148
 H1397 H 0.46867 0.62451 0.02551
 H1398 H 0.58169 0.57056 0.07114
 H1399 H 0.61340 0.50947 0.06762
 H1400 H 0.59474 0.39605 0.00862
 H1401 H 0.41801 0.58884 0.03882
 H1402 H 0.42631 0.46462 0.08867
 H1403 H 0.58621 0.53325 -0.10152
 H1404 H 0.59851 0.41068 -0.04816
 Zr1405 Zr 0.03726 1.02578 0.45290
 O1406 O 0.08012 1.00810 0.41884
 O1407 O 0.02743 1.07984 0.43649
 O1408 O 0.01649 1.01989 0.40156
 O1409 O 0.09787 1.04776 0.51951
 O1410 O -0.03673 0.98584 0.40812
 O1411 O 0.08917 1.05426 0.46223
 O1412 O -0.02016 1.10097 0.47065
 O1413 O -0.02145 1.03163 0.45769
 O1414 O 0.02646 1.05399 0.49877
 O1415 O 0.01615 0.97144 0.45290
 O1416 O 0.06332 0.99377 0.49161
 Zr1417 Zr -0.03004 0.97308 0.54441
 Zr1418 Zr -0.04204 0.97752 0.46030
 Zr1419 Zr 0.04942 1.02129 0.53719
 Zr1420 Zr -0.03159 1.05788 0.50444
 O1421 O 0.09764 0.99384 0.55709
 O1422 O -0.08271 1.07183 0.47945
 O1423 O -0.00877 1.02758 0.54519
 O1424 O -0.05526 1.00522 0.50579
 O1425 O -0.01932 0.94441 0.49878
 O1426 O 0.02858 0.96751 0.53938
 C1427 C 0.00407 1.10501 0.44672
 C1428 C 0.10830 1.05945 0.49007
 C1429 C -0.01240 1.00228 0.38964
 O1430 O -0.09170 1.00392 0.44218
 O1431 O -0.08881 0.94785 0.47696
 O1432 O -0.08063 0.94257 0.53441
 C1433 C -0.09913 0.93630 0.50640
 O1434 O 0.08503 0.93477 0.45879
 Zr1435 Zr 0.03905 0.94100 0.49313
 O1436 O -0.02150 0.91858 0.55992
 O1437 O -0.04422 0.92581 0.43453
 O1438 O 0.02750 0.89594 0.45997
 O1439 O 0.08708 0.92308 0.52095
 O1440 O 0.02187 0.89572 0.52212
 C1441 C -0.00152 0.89229 0.54679
 O1442 O -0.07395 0.99039 0.57752
 O1443 O 0.05435 1.07340 0.56194
 O1444 O -0.01054 0.98025 0.59589
 O1445 O 0.04115 1.01656 0.58960
 O1446 O -0.01751 1.10522 0.53384
 O1447 O -0.07238 1.06745 0.54328
 C1448 C 0.01724 0.99932 0.60801
 H1449 H 0.03769 1.07899 0.49967
 H1450 H -0.08276 1.00777 0.50926
 H1451 H 0.04003 0.95336 0.55846
 H1452 H 0.02236 0.95832 0.43139
 H1453 H -0.08680 1.09904 0.48188
 H1454 H -0.10365 0.98640 0.42611
 H1455 H -0.06732 0.92619 0.42040
 H1456 H 0.04348 0.87451 0.46711
 H1457 H -0.03391 1.12617 0.52631
 H1458 H 0.07789 1.07248 0.57545
 H1459 H 0.10925 1.01123 0.57347
 H1460 H 0.08993 0.89589 0.51738
 H1461 H -0.08555 1.09147 0.53912
 H1462 H -0.07911 0.96902 0.59271
 H1463 H 0.08519 1.02945 0.40359
 H1464 H 0.09552 0.90916 0.46035
 Zr1465 Zr 0.72198 0.27611 0.20923
 O1466 O 0.74263 0.31554 0.17414
 O1467 O 0.66686 0.27069 0.19333
 O1468 O 0.72553 0.25342 0.15851
 O1469 O 0.70264 0.34007 0.27387
 O1470 O 0.75345 0.19661 0.16690
 O1471 O 0.69603 0.32981 0.21682
 O1472 O 0.64257 0.22692 0.22890
 O1473 O 0.71294 0.21888 0.21560
 O1474 O 0.69299 0.26932 0.25534
 O1475 O 0.77561 0.25075 0.20935
 O1476 O 0.75572 0.30053 0.24715
 Zr1477 Zr 0.77161 0.20843 0.30222
 Zr1478 Zr 0.76643 0.19423 0.21847
 Zr1479 Zr 0.72715 0.29075 0.29305
 Zr1480 Zr 0.68595 0.21251 0.26247
 O1481 O 0.75748 0.33672 0.31160
 O1482 O 0.66924 0.16279 0.23804
 O1483 O 0.71779 0.23405 0.30254
 O1484 O 0.73796 0.18473 0.26427
 O1485 O 0.80102 0.21519 0.25634
 O1486 O 0.78023 0.26569 0.29556
 C1487 C 0.64018 0.25034 0.20431
 C1488 C 0.69149 0.35010 0.24402
 C1489 C 0.73833 0.22144 0.14773
 O1490 O 0.73944 0.14434 0.20471
 O1491 O 0.79897 0.14928 0.23599
 O1492 O 0.80164 0.15664 0.29367
 C1493 C 0.81014 0.13898 0.26564
 O1494 O 0.81656 0.31585 0.21370
 Zr1495 Zr 0.80765 0.27210 0.24907
 O1496 O 0.82614 0.21448 0.31925
 O1497 O 0.81622 0.18859 0.18908
 O1498 O 0.85213 0.25541 0.21607
 O1499 O 0.82893 0.31874 0.27554
 O1500 O 0.85224 0.25186 0.27868
 C1501 C 0.85355 0.23136 0.30537
 O1502 O 0.75153 0.16686 0.33541
 O1503 O 0.67499 0.30091 0.31778
 O1504 O 0.76490 0.22955 0.35315
 O1505 O 0.73160 0.28380 0.34572
 O1506 O 0.63919 0.23081 0.29201
 O1507 O 0.67445 0.17387 0.30198
 C1508 C 0.74741 0.25904 0.36460
 H1509 H 0.66839 0.28253 0.25607
 H1510 H 0.73454 0.15782 0.26842
 H1511 H 0.79496 0.27666 0.31435
 H1512 H 0.78868 0.25484 0.18741
 H1513 H 0.64160 0.16100 0.24060
 H1514 H 0.75627 0.13116 0.18838
 H1515 H 0.81458 0.16487 0.17627
 H1516 H 0.87484 0.26917 0.22295
 H1517 H 0.61719 0.21606 0.28495
 H1518 H 0.67728 0.32451 0.33066
 H1519 H 0.74053 0.35025 0.32759
 H1520 H 0.85650 0.31882 0.27185
 H1521 H 0.64975 0.16237 0.29784
 H1522 H 0.77246 0.16064 0.35118
 H1523 H 0.72151 0.32203 0.15866
 H1524 H 0.84316 0.32355 0.21464
 Zr1525 Zr 0.77712 0.72252 0.70942
 O1526 O 0.75570 0.68245 0.67536
 O1527 O 0.83200 0.72700 0.69260
 O1528 O 0.77330 0.74452 0.65840
 O1529 O 0.79723 0.65988 0.77500
 O1530 O 0.74438 0.80079 0.66673
 O1531 O 0.80346 0.66919 0.71775
 O1532 O 0.85640 0.77270 0.72581
 O1533 O 0.78613 0.77985 0.71468
 O1534 O 0.80701 0.73037 0.75480
 O1535 O 0.72342 0.74763 0.71029
 O1536 O 0.74413 0.69897 0.74840
 Zr1537 Zr 0.72923 0.79246 0.80248
 Zr1538 Zr 0.73263 0.80425 0.71842
 Zr1539 Zr 0.77352 0.70987 0.79352
 Zr1540 Zr 0.81414 0.78730 0.76078
 O1541 O 0.74363 0.66432 0.81353
 O1542 O 0.83006 0.83680 0.73558
 O1543 O 0.78309 0.76677 0.80193
 O1544 O 0.76214 0.81502 0.76330
 O1545 O 0.69879 0.78443 0.75737
 O1546 O 0.72053 0.73502 0.79682
 C1547 C 0.85874 0.74817 0.70202
 C1548 C 0.80820 0.64944 0.74519
 C1549 C 0.75978 0.77615 0.64746
 O1550 O 0.75890 0.85406 0.70332
 O1551 O 0.69982 0.84882 0.73587
 O1552 O 0.70110 0.84541 0.79373
 C1553 C 0.69099 0.86162 0.76542
 O1554 O 0.68197 0.68308 0.71647
 Zr1555 Zr 0.69221 0.72733 0.75106
 O1556 O 0.67453 0.78764 0.82003
 O1557 O 0.68245 0.80918 0.68964
 O1558 O 0.64704 0.74406 0.71904
 O1559 O 0.67208 0.68077 0.77836
 O1560 O 0.64845 0.74732 0.78187
 C1561 C 0.64724 0.76934 0.80758
 O1562 O 0.75017 0.83394 0.83534
 O1563 O 0.82626 0.70049 0.81729
 O1564 O 0.73650 0.77182 0.85355
 O1565 O 0.76991 0.71766 0.84599
 O1566 O 0.86180 0.76942 0.78914
 O1567 O 0.82672 0.82653 0.79955
 C1568 C 0.75418 0.74244 0.86495
 H1569 H 0.83166 0.71723 0.75527
 H1570 H 0.76576 0.84202 0.76678
 H1571 H 0.70613 0.72443 0.81603
 H1572 H 0.70995 0.74307 0.68866
 H1573 H 0.85776 0.83865 0.73736
 H1574 H 0.74140 0.86700 0.68750
 H1575 H 0.68374 0.83270 0.67653
 H1576 H 0.62436 0.73066 0.72662
 H1577 H 0.88361 0.78388 0.78110
 H1578 H 0.82436 0.67715 0.83059
 H1579 H 0.76085 0.65116 0.82944
 H1580 H 0.64440 0.68046 0.77554
 H1581 H 0.85146 0.83770 0.79481
 H1582 H 0.72944 0.84060 0.85128
 H1583 H 0.77659 0.67553 0.65969
 H1584 H 0.65522 0.67594 0.71789
 Zr1585 Zr 0.22519 0.21289 0.79780
 O1586 O 0.24403 0.17078 0.83157
 O1587 O 0.17050 0.22143 0.81449
 O1588 O 0.23005 0.23333 0.84913
 O1589 O 0.20647 0.15136 0.73116
 O1590 O 0.26145 0.28786 0.84269
 O1591 O 0.19732 0.16117 0.78805
 O1592 O 0.14733 0.26672 0.77929
 O1593 O 0.21677 0.27065 0.79254
 O1594 O 0.19696 0.22195 0.75167
 O1595 O 0.27908 0.23624 0.79845
 O1596 O 0.25953 0.18812 0.75992
 Zr1597 Zr 0.27717 0.28081 0.70663
 Zr1598 Zr 0.27042 0.29339 0.79056
 Zr1599 Zr 0.23183 0.20016 0.71404
 Zr1600 Zr 0.19069 0.27908 0.74541
 O1601 O 0.26162 0.15275 0.69571
 O1602 O 0.17398 0.32961 0.76937
 O1603 O 0.22311 0.25730 0.70522
 O1604 O 0.24284 0.30479 0.74460
 O1605 O 0.30582 0.27212 0.75267
 O1606 O 0.28514 0.22315 0.71249
 C1607 C 0.14448 0.24358 0.80400
 C1608 C 0.19359 0.14164 0.76033
 C1609 C 0.24625 0.26278 0.86106
 O1610 O 0.24077 0.34113 0.80827
 O1611 O 0.29795 0.34107 0.77411
 O1612 O 0.30686 0.33162 0.71724
 C1613 C 0.31122 0.35095 0.74511
 O1614 O 0.32013 0.17050 0.79427
 Zr1615 Zr 0.31176 0.21462 0.75893
 O1616 O 0.33221 0.27320 0.69080
 O1617 O 0.32194 0.29878 0.81695
 O1618 O 0.35607 0.22995 0.79199
 O1619 O 0.33211 0.16682 0.73258
 O1620 O 0.35703 0.23190 0.72919
 C1621 C 0.35920 0.25383 0.70354
 O1622 O 0.25861 0.32349 0.67337
 O1623 O 0.18019 0.19373 0.68803
 O1624 O 0.27207 0.26037 0.65513
 O1625 O 0.23924 0.20673 0.66193
 O1626 O 0.14380 0.26263 0.71597
 O1627 O 0.18003 0.31807 0.70577
 C1628 C 0.25640 0.23044 0.64346
 H1629 H 0.17210 0.21000 0.75059
 H1630 H 0.23922 0.33184 0.74086
 H1631 H 0.30023 0.21179 0.69387
 H1632 H 0.29232 0.23089 0.82010
 H1633 H 0.14639 0.33241 0.76658
 H1634 H 0.25747 0.35394 0.82458
 H1635 H 0.31992 0.32164 0.83105
 H1636 H 0.37875 0.21528 0.78534
 H1637 H 0.12191 0.27813 0.72323
 H1638 H 0.18220 0.17033 0.67470
 H1639 H 0.24496 0.14016 0.67924
 H1640 H 0.35961 0.16506 0.73651
 H1641 H 0.15517 0.33021 0.70945
 H1642 H 0.28028 0.32926 0.65843
 H1643 H 0.22249 0.16504 0.84668
 H1644 H 0.34679 0.16216 0.79370
 Zr1645 Zr 0.27643 0.78580 0.29471
 O1646 O 0.26072 0.82855 0.32921
 O1647 O 0.33044 0.77355 0.31119
 O1648 O 0.27055 0.76534 0.34610
 O1649 O 0.29243 0.84850 0.22879
 O1650 O 0.23675 0.71228 0.33951
 O1651 O 0.30622 0.83656 0.28434
 O1652 O 0.35231 0.72839 0.27481
 O1653 O 0.28198 0.72778 0.28914
 O1654 O 0.30416 0.77561 0.24842
 O1655 O 0.22143 0.76510 0.29553
 O1656 O 0.24327 0.81210 0.25698
 Zr1657 Zr 0.22073 0.72057 0.20352
 Zr1658 Zr 0.22722 0.70761 0.28741
 Zr1659 Zr 0.27007 0.79864 0.21090
 Zr1660 Zr 0.30768 0.71821 0.24187
 O1661 O 0.24117 0.84393 0.18778
 O1662 O 0.32237 0.66716 0.26581
 O1663 O 0.27597 0.74124 0.20216
 O1664 O 0.25422 0.69511 0.24125
 O1665 O 0.19295 0.73071 0.24986
 O1666 O 0.21543 0.77851 0.20924
 C1667 C 0.35548 0.75052 0.30018
 C1668 C 0.30815 0.85730 0.25709
 C1669 C 0.25318 0.73647 0.35800
 O1670 O 0.25425 0.65826 0.30459
 O1671 O 0.19676 0.66163 0.27084
 O1672 O 0.19130 0.66953 0.21340
 C1673 C 0.18525 0.65109 0.24145
 O1674 O 0.18494 0.83350 0.29113
 Zr1675 Zr 0.18985 0.78843 0.25620
 O1676 O 0.16473 0.72897 0.19056
 O1677 O 0.17548 0.70518 0.31404
 O1678 O 0.14501 0.77728 0.29028
 O1679 O 0.17180 0.83631 0.22885
 O1680 O 0.14293 0.77219 0.22869
 C1681 C 0.13864 0.74888 0.20438
 O1682 O 0.23662 0.67834 0.16856
 O1683 O 0.32324 0.80779 0.18809
 O1684 O 0.22631 0.74185 0.15230
 O1685 O 0.27003 0.78678 0.15910
 O1686 O 0.35410 0.73342 0.21113
 O1687 O 0.31643 0.67815 0.20265
 C1688 C 0.24899 0.76681 0.14026
 H1689 H 0.32944 0.78671 0.24745
 H1690 H 0.25673 0.66795 0.23749
 H1691 H 0.20073 0.78992 0.19046
 H1692 H 0.20857 0.77103 0.31730
 H1693 H 0.34973 0.66290 0.26246
 H1694 H 0.23687 0.64627 0.32086
 H1695 H 0.17617 0.68220 0.32800
 H1696 H 0.12354 0.79383 0.28410
 H1697 H 0.37591 0.71767 0.21799
 H1698 H 0.32092 0.83046 0.17384
 H1699 H 0.25880 0.85508 0.17125
 H1700 H 0.14444 0.83951 0.23297
 H1701 H 0.34148 0.66617 0.20549
 H1702 H 0.21442 0.67401 0.15390
 H1703 H 0.28296 0.83303 0.34380
 H1704 H 0.15941 0.84475 0.28962
 Zr1705 Zr 0.21900 0.77879 0.70279
 O1706 O 0.23637 0.81838 0.66639
 O1707 O 0.16403 0.76982 0.68803
 O1708 O 0.22261 0.75511 0.65244
 O1709 O 0.19655 0.84185 0.76755
 O1710 O 0.25385 0.70012 0.66141
 O1711 O 0.19096 0.83186 0.71036
 O1712 O 0.14293 0.72517 0.72442
 O1713 O 0.21299 0.72126 0.71058
 O1714 O 0.19154 0.77151 0.74958
 O1715 O 0.27373 0.75571 0.70222
 O1716 O 0.25261 0.80548 0.73941
 Zr1717 Zr 0.27428 0.71555 0.79617
 Zr1718 Zr 0.26756 0.69902 0.71284
 Zr1719 Zr 0.22582 0.79519 0.78605
 Zr1720 Zr 0.18743 0.71465 0.75808
 O1721 O 0.25355 0.84418 0.80123
 O1722 O 0.17285 0.66313 0.73570
 O1723 O 0.21928 0.73851 0.79715
 O1724 O 0.24070 0.68949 0.75943
 O1725 O 0.30218 0.72242 0.74946
 O1726 O 0.28011 0.77287 0.78777
 C1727 C 0.13890 0.74788 0.69943
 C1728 C 0.18472 0.85133 0.73787
 C1729 C 0.23703 0.72365 0.64200
 O1730 O 0.24205 0.64810 0.69994
 O1731 O 0.30137 0.65512 0.73081
 O1732 O 0.30406 0.66349 0.78840
 C1733 C 0.31238 0.64525 0.76064
 O1734 O 0.31150 0.82238 0.70377
 Zr1735 Zr 0.30586 0.77949 0.74059
 O1736 O 0.32980 0.72364 0.80992
 O1737 O 0.31725 0.69444 0.68322
 O1738 O 0.35010 0.76329 0.70712
 O1739 O 0.32516 0.82825 0.76506
 O1740 O 0.35245 0.76346 0.76971
 C1741 C 0.35600 0.74239 0.79588
 O1742 O 0.25732 0.67511 0.83193
 O1743 O 0.17461 0.80171 0.81323
 O1744 O 0.26917 0.73849 0.84680
 O1745 O 0.23470 0.79173 0.83825
 O1746 O 0.14027 0.73193 0.78761
 O1747 O 0.17864 0.67704 0.79899
 C1748 C 0.25271 0.76891 0.85749
 H1749 H 0.16626 0.78335 0.75055
 H1750 H 0.23839 0.66257 0.76417
 H1751 H 0.29508 0.78514 0.80568
 H1752 H 0.28608 0.75980 0.67993
 H1753 H 0.14544 0.65997 0.73894
 H1754 H 0.25917 0.63512 0.68373
 H1755 H 0.31624 0.67047 0.67075
 H1756 H 0.37223 0.77858 0.71267
 H1757 H 0.11893 0.71591 0.78128
 H1758 H 0.17568 0.82573 0.82560
 H1759 H 0.23658 0.85741 0.81741
 H1760 H 0.35245 0.83005 0.76029
 H1761 H 0.15428 0.66451 0.79587
 H1762 H 0.27921 0.67024 0.84700
 H1763 H 0.21441 0.82349 0.65148
 H1764 H 0.33784 0.83094 0.70340
 Zr1765 Zr 0.27927 0.22089 0.20436
 O1766 O 0.26109 0.18104 0.16852
 O1767 O 0.33400 0.22939 0.18850
 O1768 O 0.27518 0.24428 0.15387
 O1769 O 0.30306 0.15874 0.26941
 O1770 O 0.24300 0.29876 0.16284
 O1771 O 0.30698 0.16775 0.21191
 O1772 O 0.35530 0.27516 0.22361
 O1773 O 0.28498 0.27857 0.21124
 O1774 O 0.30768 0.22915 0.25050
 O1775 O 0.22440 0.24347 0.20466
 O1776 O 0.24690 0.19459 0.24224
 Zr1777 Zr 0.22557 0.28554 0.29793
 Zr1778 Zr 0.23029 0.30041 0.21438
 Zr1779 Zr 0.27454 0.20596 0.28823
 Zr1780 Zr 0.31155 0.28623 0.25803
 O1781 O 0.24711 0.15780 0.30582
 O1782 O 0.32535 0.33733 0.23448
 O1783 O 0.28075 0.26300 0.29807
 O1784 O 0.25814 0.31111 0.26016
 O1785 O 0.19679 0.27738 0.25199
 O1786 O 0.22010 0.22793 0.29081
 C1787 C 0.35913 0.25181 0.19902
 C1788 C 0.31383 0.14868 0.23946
 C1789 C 0.26021 0.27549 0.14341
 O1790 O 0.25491 0.35143 0.20036
 O1791 O 0.19622 0.34425 0.23221
 O1792 O 0.19513 0.33719 0.28997
 C1793 C 0.18591 0.35470 0.26211
 O1794 O 0.18804 0.17584 0.20861
 Zr1795 Zr 0.19353 0.22008 0.24416
 O1796 O 0.17050 0.27728 0.31312
 O1797 O 0.17993 0.30365 0.18574
 O1798 O 0.14849 0.23397 0.21091
 O1799 O 0.17475 0.17233 0.27054
 O1800 O 0.14731 0.23756 0.27306
 C1801 C 0.14409 0.25885 0.29914
 O1802 O 0.24279 0.32706 0.33257
 O1803 O 0.32681 0.19947 0.31352
 O1804 O 0.23250 0.26420 0.34876
 O1805 O 0.26861 0.21186 0.34084
 O1806 O 0.35938 0.26986 0.28687
 O1807 O 0.32103 0.32484 0.29806
 C1808 C 0.25134 0.23547 0.36000
 H1809 H 0.33300 0.21736 0.25104
 H1810 H 0.26032 0.33814 0.26445
 H1811 H 0.20574 0.21616 0.30944
 H1812 H 0.21168 0.23885 0.18267
 H1813 H 0.35281 0.34068 0.23704
 H1814 H 0.23726 0.36401 0.18443
 H1815 H 0.18032 0.32736 0.17286
 H1816 H 0.12678 0.21845 0.21731
 H1817 H 0.38053 0.28575 0.27976
 H1818 H 0.32602 0.17577 0.32639
 H1819 H 0.26452 0.14531 0.32201
 H1820 H 0.14737 0.17039 0.26637
 H1821 H 0.34528 0.33736 0.29423
 H1822 H 0.22117 0.33210 0.34800
 H1823 H 0.28277 0.17574 0.15323
 H1824 H 0.16208 0.16629 0.20944
 Zr1825 Zr 0.72159 0.71335 0.29921
 O1826 O 0.73918 0.67059 0.33284
 O1827 O 0.66776 0.72470 0.31733
 O1828 O 0.72854 0.73361 0.35049
 O1829 O 0.70030 0.65234 0.23262
 O1830 O 0.76384 0.78558 0.34357
 O1831 O 0.69231 0.66236 0.28970
 O1832 O 0.64658 0.77262 0.28412
 O1833 O 0.71652 0.77143 0.29469
 O1834 O 0.69195 0.72448 0.25415
 O1835 O 0.77690 0.73324 0.29821
 O1836 O 0.75277 0.68743 0.25970
 Zr1837 Zr 0.77391 0.77925 0.20691
 Zr1838 Zr 0.77142 0.79084 0.29122
 Zr1839 Zr 0.72399 0.70167 0.21486
 Zr1840 Zr 0.68898 0.78201 0.24862
 O1841 O 0.75088 0.65525 0.19151
 O1842 O 0.67615 0.83332 0.27309
 O1843 O 0.71840 0.75926 0.20712
 O1844 O 0.74259 0.80447 0.24635
 O1845 O 0.80384 0.76819 0.25186
 O1846 O 0.77871 0.72122 0.21164
 C1847 C 0.64301 0.74904 0.30832
 C1848 C 0.68823 0.64273 0.26209
 C1849 C 0.74685 0.76193 0.36224
 O1850 O 0.74572 0.84021 0.31013
 O1851 O 0.80138 0.83678 0.27429
 O1852 O 0.80471 0.82952 0.21657
 C1853 C 0.81192 0.84746 0.24467
 O1854 O 0.81377 0.66535 0.29167
 Zr1855 Zr 0.80652 0.71041 0.25714
 O1856 O 0.82894 0.77136 0.19136
 O1857 O 0.82420 0.79231 0.31601
 O1858 O 0.85329 0.72246 0.28855
 O1859 O 0.82226 0.66171 0.22971
 O1860 O 0.85134 0.72517 0.22566
 C1861 C 0.85523 0.74960 0.20207
 O1862 O 0.75590 0.82197 0.17346
 O1863 O 0.66990 0.69541 0.19319
 O1864 O 0.76780 0.75807 0.15572
 O1865 O 0.72464 0.71260 0.16278
 O1866 O 0.64023 0.76787 0.22065
 O1867 O 0.67897 0.82220 0.20985
 C1868 C 0.74575 0.73250 0.14382
 H1869 H 0.66653 0.71364 0.25408
 H1870 H 0.74025 0.83170 0.24306
 H1871 H 0.79248 0.70958 0.19233
 H1872 H 0.79050 0.72689 0.31945
 H1873 H 0.64871 0.83793 0.27094
 H1874 H 0.76384 0.85171 0.32600
 H1875 H 0.82434 0.81510 0.33028
 H1876 H 0.87471 0.70663 0.28078
 H1877 H 0.61931 0.78410 0.22881
 H1878 H 0.67085 0.67282 0.17867
 H1879 H 0.73262 0.64459 0.17529
 H1880 H 0.84981 0.65827 0.23228
 H1881 H 0.65420 0.83448 0.21367
 H1882 H 0.77737 0.82679 0.15800
 H1883 H 0.71766 0.66583 0.34828
 H1884 H 0.83987 0.65549 0.29003
 Zr1885 Zr 0.77876 0.28843 0.80373
 O1886 O 0.76310 0.33041 0.83904
 O1887 O 0.83287 0.27523 0.81964
 O1888 O 0.77307 0.26691 0.85471
 O1889 O 0.80242 0.34865 0.73762
 O1890 O 0.73846 0.21460 0.84713
 O1891 O 0.80862 0.33952 0.79488
 O1892 O 0.85315 0.22976 0.78285
 O1893 O 0.78377 0.23050 0.79682
 O1894 O 0.80606 0.27869 0.75708
 O1895 O 0.72353 0.26817 0.80429
 O1896 O 0.74552 0.31579 0.76665
 Zr1897 Zr 0.72198 0.22543 0.71133
 Zr1898 Zr 0.72895 0.21092 0.79501
 Zr1899 Zr 0.77207 0.30309 0.72029
 Zr1900 Zr 0.80889 0.22156 0.74918
 O1901 O 0.74552 0.35324 0.70446
 O1902 O 0.82283 0.16938 0.77138
 O1903 O 0.77735 0.24593 0.70990
 O1904 O 0.75537 0.19897 0.74847
 O1905 O 0.69428 0.23479 0.75793
 O1906 O 0.71748 0.28326 0.71863
 C1907 C 0.85720 0.25160 0.80834
 C1908 C 0.81499 0.35805 0.76696
 C1909 C 0.75533 0.23805 0.86607
 O1910 O 0.75652 0.16172 0.81195
 O1911 O 0.70014 0.16443 0.77814
 O1912 O 0.69080 0.17524 0.72158
 C1913 C 0.68653 0.15535 0.74917
 O1914 O 0.68530 0.33523 0.80255
 Zr1915 Zr 0.69177 0.29240 0.76549
 O1916 O 0.66677 0.23559 0.69722
 O1917 O 0.67704 0.20746 0.82124
 O1918 O 0.64639 0.27752 0.79763
 O1919 O 0.67529 0.34283 0.74136
 O1920 O 0.64591 0.28060 0.73431
 C1921 C 0.64183 0.25784 0.70949
 O1922 O 0.73722 0.18286 0.67651
 O1923 O 0.82321 0.30620 0.69275
 O1924 O 0.72852 0.24673 0.65998
 O1925 O 0.76252 0.29906 0.66843
 O1926 O 0.85636 0.23656 0.71969
 O1927 O 0.81686 0.18336 0.70830
 C1928 C 0.74527 0.27646 0.64888
 H1929 H 0.83163 0.28911 0.75607
 H1930 H 0.75771 0.17189 0.74414
 H1931 H 0.70301 0.29598 0.70041
 H1932 H 0.71071 0.27362 0.82618
 H1933 H 0.85012 0.16487 0.76785
 H1934 H 0.73936 0.14933 0.82817
 H1935 H 0.67797 0.18436 0.83502
 H1936 H 0.62447 0.29346 0.79147
 H1937 H 0.87742 0.21960 0.72606
 H1938 H 0.82257 0.32989 0.67982
 H1939 H 0.76248 0.36503 0.68770
 H1940 H 0.64795 0.34651 0.74531
 H1941 H 0.84124 0.17005 0.71109
 H1942 H 0.71489 0.17881 0.66194
 H1943 H 0.78520 0.33436 0.85393
 H1944 H 0.65890 0.34437 0.80267
   
